0:0
     RDKit          3D

 46 48  0  0  0  0  0  0  0  0999 V2000
   -1.5880   20.8800  -33.7810 C   0  0  0  0  0  0  0  0  0  0  0  0
   -2.5200   21.1300  -32.6320 C   0  0  0  0  0  0  0  0  0  0  0  0
   -3.5570   20.2290  -32.3440 C   0  0  0  0  0  0  0  0  0  0  0  0
   -4.4120   20.4630  -31.2640 C   0  0  0  0  0  0  0  0  0  0  0  0
   -4.2380   21.5960  -30.4650 C   0  0  0  0  0  0  0  0  0  0  0  0
   -3.2160   22.5140  -30.7490 C   0  0  0  0  0  0  0  0  0  0  0  0
   -3.0000   23.6990  -29.8460 C   0  0  0  0  0  0  0  0  0  0  0  0
   -3.5220   24.9130  -30.4710 N   0  0  0  0  0  0  0  0  0  0  0  0
   -4.9130   25.2330  -30.6050 C   0  0  0  0  0  0  0  0  0  0  0  0
   -5.2820   26.4280  -30.4600 O   0  0  0  0  0  0  0  0  0  0  0  0
   -5.9160   24.2060  -30.9300 C   0  0  0  0  0  0  0  0  0  0  0  0
   -6.0930   23.7890  -32.2570 C   0  0  0  0  0  0  0  0  0  0  0  0
   -6.9970   22.7660  -32.5570 C   0  0  0  0  0  0  0  0  0  0  0  0
   -7.7460   22.1640  -31.5370 C   0  0  0  0  0  0  0  0  0  0  0  0
   -8.8440   20.8390  -31.9120 S   0  0  0  0  0  0  0  0  0  0  0  0
   -8.9870   19.9720  -30.6930 O   0  0  0  0  0  0  0  0  0  0  0  0
  -10.1940   21.3750  -32.2970 O   0  0  0  0  0  0  0  0  0  0  0  0
   -8.2240   19.8790  -33.2210 N   0  0  0  0  0  0  0  0  0  0  0  0
   -7.1530   18.9260  -33.0870 C   0  0  0  0  0  0  0  0  0  0  0  0
   -7.0630   18.0570  -31.9830 C   0  0  0  0  0  0  0  0  0  0  0  0
   -6.0250   17.1240  -31.9000 C   0  0  0  0  0  0  0  0  0  0  0  0
   -5.0630   17.0540  -32.9100 C   0  0  0  0  0  0  0  0  0  0  0  0
   -5.1350   17.9190  -34.0030 C   0  0  0  0  0  0  0  0  0  0  0  0
   -6.1740   18.8510  -34.0920 C   0  0  0  0  0  0  0  0  0  0  0  0
   -7.6070   22.6160  -30.2170 C   0  0  0  0  0  0  0  0  0  0  0  0
   -6.6920   23.6270  -29.9150 C   0  0  0  0  0  0  0  0  0  0  0  0
   -2.3640   22.2810  -31.8440 C   0  0  0  0  0  0  0  0  0  0  0  0
   -0.5932   20.6131  -33.3948 H   0  0  0  0  0  0  0  0  0  0  0  0
   -1.9765   20.0543  -34.3953 H   0  0  0  0  0  0  0  0  0  0  0  0
   -1.5111   21.7893  -34.3953 H   0  0  0  0  0  0  0  0  0  0  0  0
   -3.6970   19.3358  -32.9706 H   0  0  0  0  0  0  0  0  0  0  0  0
   -5.2234   19.7541  -31.0424 H   0  0  0  0  0  0  0  0  0  0  0  0
   -4.9062   21.7691  -29.6085 H   0  0  0  0  0  0  0  0  0  0  0  0
   -3.5211   23.5286  -28.8923 H   0  0  0  0  0  0  0  0  0  0  0  0
   -1.9215   23.8225  -29.6684 H   0  0  0  0  0  0  0  0  0  0  0  0
   -5.5190   24.2681  -33.0639 H   0  0  0  0  0  0  0  0  0  0  0  0
   -7.1210   22.4322  -33.5978 H   0  0  0  0  0  0  0  0  0  0  0  0
   -8.7140   19.9630  -34.1390 H   0  0  0  0  0  0  0  0  0  0  0  0
   -7.8138   18.1124  -31.1810 H   0  0  0  0  0  0  0  0  0  0  0  0
   -5.9659   16.4438  -31.0375 H   0  0  0  0  0  0  0  0  0  0  0  0
   -4.2488   16.3173  -32.8441 H   0  0  0  0  0  0  0  0  0  0  0  0
   -4.3737   17.8676  -34.7953 H   0  0  0  0  0  0  0  0  0  0  0  0
   -6.2251   19.5305  -34.9555 H   0  0  0  0  0  0  0  0  0  0  0  0
   -8.2198   22.1735  -29.4178 H   0  0  0  0  0  0  0  0  0  0  0  0
   -6.5793   23.9709  -28.8762 H   0  0  0  0  0  0  0  0  0  0  0  0
   -1.5712   23.0048  -32.0839 H   0  0  0  0  0  0  0  0  0  0  0  0
  1  2  1  0
  2  3  2  0
  3  4  1  0
  4  5  2  0
  5  6  1  0
  6  7  1  0
  7  8  1  0
  8  9  1  0
  9 10  2  0
  9 11  1  0
 11 12  2  0
 12 13  1  0
 13 14  2  0
 14 15  1  0
 15 16  2  0
 15 17  2  0
 15 18  1  0
 18 19  1  0
 19 20  2  0
 20 21  1  0
 21 22  2  0
 22 23  1  0
 23 24  2  0
 14 25  1  0
 25 26  2  0
  6 27  2  0
 27  2  1  0
 26 11  1  0
 24 19  1  0
  1 28  1  0
  1 29  1  0
  1 30  1  0
  3 31  1  0
  4 32  1  0
  5 33  1  0
  7 34  1  0
  7 35  1  0
 12 36  1  0
 13 37  1  0
 18 38  1  0
 20 39  1  0
 21 40  1  0
 22 41  1  0
 23 42  1  0
 24 43  1  0
 25 44  1  0
 26 45  1  0
 27 46  1  0
M  CHG  1   8  -1
M  END
>  <UniqueID>  (1) 
1

>  <SMILES>  (1) 
Cc1cccc(C[N-]C(=O)c2ccc(S(=O)(=O)Nc3ccccc3)cc2)c1

>  <Energy>  (1) 
49.89828522443561

>  <Genealogy>  (1) 
Cc1cccc(C[N-]C(=O)c2ccc(S(=O)(=O)Nc3ccccc3)cc2)c1 (protonated)
Cc1cccc(C[N-]C(=O)c2ccc(S(=O)(=O)Nc3ccccc3)cc2)c1 (3D coordinates assigned)
Cc1cccc(C[N-]C(=O)c2ccc(S(=O)(=O)Nc3ccccc3)cc2)c1 (optimized conformer: 49.89828522443561 kcal/mol)

>  <smiles>  (1) 
Cc1cccc(CNC(=O)c2ccc(S(=O)(=O)Nc3ccccc3)cc2)c1

>  <score_type>  (1) 
oracle

>  <origin>  (1) 
adgpu

>  <m_score__min__energy>  (1) 
-11.970000000000001

>  <m_primary>  (1) 
energy

$$$$
1:0
     RDKit          3D

 54 58  0  0  0  0  0  0  0  0999 V2000
   -5.9240   25.4170  -30.8570 O   0  0  0  0  0  0  0  0  0  0  0  0
   -4.8930   24.6970  -30.7780 C   0  0  0  0  0  0  0  0  0  0  0  0
   -3.7200   25.2600  -30.1730 N   0  0  0  0  0  0  0  0  0  0  0  0
   -2.8240   24.5820  -29.2810 C   0  0  0  0  0  0  0  0  0  0  0  0
   -3.2110   23.3450  -28.7470 C   0  0  0  0  0  0  0  0  0  0  0  0
   -2.3560   22.6440  -27.8910 C   0  0  0  0  0  0  0  0  0  0  0  0
   -1.1160   23.1850  -27.5460 C   0  0  0  0  0  0  0  0  0  0  0  0
   -0.7370   24.4370  -28.0400 C   0  0  0  0  0  0  0  0  0  0  0  0
   -1.5890   25.1440  -28.8980 C   0  0  0  0  0  0  0  0  0  0  0  0
   -1.2160   26.4090  -29.3380 O   0  0  0  0  0  0  0  0  0  0  0  0
   -4.9540   23.2800  -31.2310 C   0  0  0  0  0  0  0  0  0  0  0  0
   -4.0380   22.8110  -32.1900 C   0  0  0  0  0  0  0  0  0  0  0  0
   -4.1500   21.5170  -32.7070 C   0  0  0  0  0  0  0  0  0  0  0  0
   -5.1600   20.6570  -32.2560 C   0  0  0  0  0  0  0  0  0  0  0  0
   -5.3680   19.0700  -33.0080 S   0  0  0  0  0  0  0  0  0  0  0  0
   -5.0550   18.0140  -31.9850 O   0  0  0  0  0  0  0  0  0  0  0  0
   -6.8260   18.9240  -33.3370 O   0  0  0  0  0  0  0  0  0  0  0  0
   -4.3570   18.7890  -34.4330 N   0  0  0  0  0  0  0  0  0  0  0  0
   -2.9550   18.3970  -34.1040 C   0  0  1  0  0  0  0  0  0  0  0  0
   -2.1310   19.4410  -33.3460 C   0  0  0  0  0  0  0  0  0  0  0  0
   -1.9200   19.3260  -31.9540 C   0  0  0  0  0  0  0  0  0  0  0  0
   -1.0780   20.2140  -31.2760 C   0  0  0  0  0  0  0  0  0  0  0  0
   -0.3540   21.1700  -31.9860 C   0  0  0  0  0  0  0  0  0  0  0  0
   -0.4270   21.1990  -33.3780 C   0  0  0  0  0  0  0  0  0  0  0  0
   -1.2680   20.3080  -34.0520 C   0  0  0  0  0  0  0  0  0  0  0  0
   -2.9800   16.9230  -33.6890 C   0  0  0  0  0  0  0  0  0  0  0  0
   -2.2320   16.2320  -32.7170 C   0  0  0  0  0  0  0  0  0  0  0  0
   -2.4210   14.8510  -32.5610 C   0  0  0  0  0  0  0  0  0  0  0  0
   -3.3710   14.1700  -33.3370 C   0  0  0  0  0  0  0  0  0  0  0  0
   -4.1730   14.8740  -34.2420 C   0  0  0  0  0  0  0  0  0  0  0  0
   -3.9470   16.2390  -34.4020 C   0  0  0  0  0  0  0  0  0  0  0  0
   -4.9460   17.3610  -35.2440 S   0  0  0  0  0  0  0  0  0  0  0  0
   -6.4130   17.1070  -35.0350 O   0  0  0  0  0  0  0  0  0  0  0  0
   -4.6130   17.4030  -36.7080 O   0  0  0  0  0  0  0  0  0  0  0  0
   -6.0680   21.1150  -31.2930 C   0  0  0  0  0  0  0  0  0  0  0  0
   -5.9710   22.4160  -30.7910 C   0  0  0  0  0  0  0  0  0  0  0  0
   -4.1940   22.9229  -29.0031 H   0  0  0  0  0  0  0  0  0  0  0  0
   -2.6604   21.6662  -27.4894 H   0  0  0  0  0  0  0  0  0  0  0  0
   -0.4369   22.6261  -26.8853 H   0  0  0  0  0  0  0  0  0  0  0  0
    0.2336   24.8682  -27.7538 H   0  0  0  0  0  0  0  0  0  0  0  0
   -3.2266   23.4681  -32.5361 H   0  0  0  0  0  0  0  0  0  0  0  0
   -3.4403   21.1716  -33.4732 H   0  0  0  0  0  0  0  0  0  0  0  0
   -2.2869   18.4255  -34.9774 H   0  0  0  0  0  0  0  0  0  0  0  0
   -2.4258   18.5255  -31.3942 H   0  0  0  0  0  0  0  0  0  0  0  0
   -0.9873   20.1576  -30.1812 H   0  0  0  0  0  0  0  0  0  0  0  0
    0.2724   21.8986  -31.4504 H   0  0  0  0  0  0  0  0  0  0  0  0
    0.1766   21.9224  -33.9458 H   0  0  0  0  0  0  0  0  0  0  0  0
   -1.2572   20.2819  -35.1516 H   0  0  0  0  0  0  0  0  0  0  0  0
   -1.5076   16.7690  -32.0870 H   0  0  0  0  0  0  0  0  0  0  0  0
   -1.8198   14.2976  -31.8246 H   0  0  0  0  0  0  0  0  0  0  0  0
   -3.4855   13.0809  -33.2338 H   0  0  0  0  0  0  0  0  0  0  0  0
   -4.9620   14.3623  -34.8127 H   0  0  0  0  0  0  0  0  0  0  0  0
   -6.8625   20.4467  -30.9294 H   0  0  0  0  0  0  0  0  0  0  0  0
   -6.6982   22.7669  -30.0440 H   0  0  0  0  0  0  0  0  0  0  0  0
  1  2  2  0
  2  3  1  0
  3  4  1  0
  4  5  2  0
  5  6  1  0
  6  7  2  0
  7  8  1  0
  8  9  2  0
  9 10  1  0
  2 11  1  0
 11 12  2  0
 12 13  1  0
 13 14  2  0
 14 15  1  0
 15 16  2  0
 15 17  2  0
 15 18  1  0
 18 19  1  0
 19 20  1  0
 20 21  2  0
 21 22  1  0
 22 23  2  0
 23 24  1  0
 24 25  2  0
 19 26  1  0
 26 27  2  0
 27 28  1  0
 28 29  2  0
 29 30  1  0
 30 31  2  0
 31 32  1  0
 32 33  2  0
 32 34  2  0
 14 35  1  0
 35 36  2  0
  9  4  1  0
 36 11  1  0
 32 18  1  0
 25 20  1  0
 31 26  1  0
  5 37  1  0
  6 38  1  0
  7 39  1  0
  8 40  1  0
 12 41  1  0
 13 42  1  0
 19 43  1  6
 21 44  1  0
 22 45  1  0
 23 46  1  0
 24 47  1  0
 25 48  1  0
 27 49  1  0
 28 50  1  0
 29 51  1  0
 30 52  1  0
 35 53  1  0
 36 54  1  0
M  CHG  2   3  -1  10  -1
M  END
>  <UniqueID>  (2) 
2

>  <SMILES>  (2) 
O=C([N-]c1ccccc1[O-])c1ccc(S(=O)(=O)N2[C@@H](c3ccccc3)c3ccccc3S2(=O)=O)cc1

>  <Energy>  (2) 
107.00379544419705

>  <Genealogy>  (2) 
O=C([N-]c1ccccc1[O-])c1ccc(S(=O)(=O)N2C(c3ccccc3)c3ccccc3S2(=O)=O)cc1 (protonated)
O=C([N-]c1ccccc1[O-])c1ccc(S(=O)(=O)N2[C@@H](c3ccccc3)c3ccccc3S2(=O)=O)cc1 (chirality)
O=C([N-]c1ccccc1[O-])c1ccc(S(=O)(=O)N2[C@@H](c3ccccc3)c3ccccc3S2(=O)=O)cc1 (3D coordinates assigned)
O=C([N-]c1ccccc1[O-])c1ccc(S(=O)(=O)N2[C@@H](c3ccccc3)c3ccccc3S2(=O)=O)cc1 (nonaromatic ring conformer: 107.00379544419705 kcal/mol)

>  <smiles>  (2) 
O=C(Nc1ccccc1O)c1ccc(S(=O)(=O)N2C(c3ccccc3)c3ccccc3S2(=O)=O)cc1

>  <score_type>  (2) 
oracle

>  <origin>  (2) 
adgpu

>  <m_score__min__energy>  (2) 
-14.33

>  <m_primary>  (2) 
energy

$$$$
2:0
     RDKit          3D

 26 27  0  0  0  0  0  0  0  0999 V2000
   -2.8780   21.0240  -32.5010 O   0  0  0  0  0  0  0  0  0  0  0  0
   -4.0890   21.3610  -32.5780 C   0  0  0  0  0  0  0  0  0  0  0  0
   -4.9860   20.5260  -33.3220 N   0  0  0  0  0  0  0  0  0  0  0  0
   -6.1230   19.8250  -32.7970 C   0  0  0  0  0  0  0  0  0  0  0  0
   -5.9200   18.6140  -32.1220 C   0  0  0  0  0  0  0  0  0  0  0  0
   -7.0070   17.9000  -31.6100 C   0  0  0  0  0  0  0  0  0  0  0  0
   -8.3070   18.3830  -31.7830 C   0  0  0  0  0  0  0  0  0  0  0  0
   -8.5220   19.5780  -32.4770 C   0  0  0  0  0  0  0  0  0  0  0  0
   -9.8160   20.0510  -32.6600 O   0  0  0  0  0  0  0  0  0  0  0  0
   -7.4350   20.2950  -32.9900 C   0  0  0  0  0  0  0  0  0  0  0  0
   -4.5520   22.5710  -31.8580 C   0  0  0  0  0  0  0  0  0  0  0  0
   -5.9060   22.9440  -31.9050 C   0  0  0  0  0  0  0  0  0  0  0  0
   -6.3500   24.0860  -31.2290 C   0  0  0  0  0  0  0  0  0  0  0  0
   -5.4450   24.8740  -30.5070 C   0  0  0  0  0  0  0  0  0  0  0  0
   -5.8820   26.0100  -29.8290 O   0  0  0  0  0  0  0  0  0  0  0  0
   -4.0920   24.5170  -30.4680 C   0  0  0  0  0  0  0  0  0  0  0  0
   -3.1850   25.2970  -29.7600 O   0  0  0  0  0  0  0  0  0  0  0  0
   -3.6460   23.3760  -31.1430 C   0  0  0  0  0  0  0  0  0  0  0  0
   -4.8997   18.2232  -31.9944 H   0  0  0  0  0  0  0  0  0  0  0  0
   -6.8390   16.9565  -31.0701 H   0  0  0  0  0  0  0  0  0  0  0  0
   -9.1609   17.8234  -31.3734 H   0  0  0  0  0  0  0  0  0  0  0  0
   -7.6069   21.2286  -33.5457 H   0  0  0  0  0  0  0  0  0  0  0  0
   -6.6213   22.3345  -32.4767 H   0  0  0  0  0  0  0  0  0  0  0  0
   -7.4133   24.3656  -31.2648 H   0  0  0  0  0  0  0  0  0  0  0  0
   -5.3600   26.3950  -29.0500 H   0  0  0  0  0  0  0  0  0  0  0  0
   -2.5800   23.1062  -31.1147 H   0  0  0  0  0  0  0  0  0  0  0  0
  1  2  2  0
  2  3  1  0
  3  4  1  0
  4  5  2  0
  5  6  1  0
  6  7  2  0
  7  8  1  0
  8  9  1  0
  8 10  2  0
  2 11  1  0
 11 12  2  0
 12 13  1  0
 13 14  2  0
 14 15  1  0
 14 16  1  0
 16 17  1  0
 16 18  2  0
 10  4  1  0
 18 11  1  0
  5 19  1  0
  6 20  1  0
  7 21  1  0
 10 22  1  0
 12 23  1  0
 13 24  1  0
 15 25  1  0
 18 26  1  0
M  CHG  3   3  -1   9  -1  17  -1
M  END
>  <UniqueID>  (3) 
3

>  <SMILES>  (3) 
O=C([N-]c1cccc([O-])c1)c1ccc(O)c([O-])c1

>  <Energy>  (3) 
33.77788801747829

>  <Genealogy>  (3) 
O=C([N-]c1cccc([O-])c1)c1ccc(O)c([O-])c1 (protonated)
O=C([N-]c1cccc([O-])c1)c1ccc(O)c([O-])c1 (3D coordinates assigned)
O=C([N-]c1cccc([O-])c1)c1ccc(O)c([O-])c1 (optimized conformer: 33.77788801747829 kcal/mol)

>  <smiles>  (3) 
O=C(Nc1cccc(O)c1)c1ccc(O)c(O)c1

>  <score_type>  (3) 
oracle

>  <origin>  (3) 
adgpu

>  <m_score__min__energy>  (3) 
-9.5099999999999998

>  <m_primary>  (3) 
energy

$$$$
3:0
     RDKit          3D

 46 49  0  0  1  0  0  0  0  0999 V2000
   -2.9330   24.4620  -29.8300 O   0  0  0  0  0  0  0  0  0  0  0  0
   -1.9140   24.3300  -29.1030 C   0  0  0  0  0  0  0  0  0  0  0  0
   -1.1420   23.1240  -29.1560 N   0  0  0  0  0  0  0  0  0  0  0  0
   -1.6220   22.1300  -30.0770 C   0  0  0  0  0  0  0  0  0  0  0  0
   -0.9580   21.9140  -31.2790 C   0  0  0  0  0  0  0  0  0  0  0  0
   -1.4260   20.9580  -32.1590 C   0  0  0  0  0  0  0  0  0  0  0  0
   -2.5510   20.2150  -31.8500 C   0  0  0  0  0  0  0  0  0  0  0  0
   -3.0790   19.2160  -32.7180 N   0  0  0  0  0  0  0  0  0  0  0  0
   -4.3120   19.3040  -33.0630 C   0  0  0  0  0  0  0  0  0  0  0  0
   -4.7830   18.3020  -33.9160 C   0  0  0  0  0  0  0  0  0  0  0  0
   -6.1120   18.3370  -34.3280 C   0  0  0  0  0  0  0  0  0  0  0  0
   -6.8990   19.3410  -33.8880 N   0  0  0  0  0  0  0  0  0  0  0  0
   -6.4350   20.3120  -33.0600 C   0  0  0  0  0  0  0  0  0  0  0  0
   -7.2510   21.2210  -32.6960 N   0  0  0  0  0  0  0  0  0  0  0  0
   -6.8140   22.2610  -31.8290 C   0  0  0  0  0  0  0  0  0  0  0  0
   -7.2510   22.3960  -30.5280 C   0  0  0  0  0  0  0  0  0  0  0  0
   -6.7870   23.4310  -29.7370 C   0  0  0  0  0  0  0  0  0  0  0  0
   -5.8800   24.3690  -30.1910 C   0  0  0  0  0  0  0  0  0  0  0  0
   -5.4100   25.4110  -29.4040 O   0  0  0  0  0  0  0  0  0  0  0  0
   -5.4520   24.2170  -31.5040 C   0  0  0  0  0  0  0  0  0  0  0  0
   -5.8960   23.1950  -32.3170 C   0  0  0  0  0  0  0  0  0  0  0  0
   -5.1430   20.2800  -32.6580 N   0  0  0  0  0  0  0  0  0  0  0  0
   -3.2140   20.4350  -30.6420 C   0  0  0  0  0  0  0  0  0  0  0  0
   -2.7480   21.4020  -29.7450 C   0  0  0  0  0  0  0  0  0  0  0  0
   -1.5410   25.4280  -28.2070 C   0  0  0  0  0  0  0  0  0  0  0  0
   -1.6890   25.3380  -26.8380 C   0  0  0  0  0  0  0  0  0  0  0  0
   -1.2300   26.5650  -26.3520 C   0  0  0  0  0  0  0  0  0  0  0  0
   -0.8380   27.3130  -27.4510 C   0  0  0  0  0  0  0  0  0  0  0  0
   -1.0440   26.5890  -28.5360 O   0  0  0  0  0  0  0  0  0  0  0  0
   -0.3080   23.0010  -28.5670 H   0  0  0  0  0  0  0  0  0  0  0  0
   -0.0628   22.5026  -31.5284 H   0  0  0  0  0  0  0  0  0  0  0  0
   -0.9014   20.7866  -33.1105 H   0  0  0  0  0  0  0  0  0  0  0  0
   -4.1137   17.4982  -34.2565 H   0  0  0  0  0  0  0  0  0  0  0  0
   -6.5125   17.5623  -34.9984 H   0  0  0  0  0  0  0  0  0  0  0  0
   -7.9080   19.3560  -34.2100 H   0  0  0  0  0  0  0  0  0  0  0  0
   -7.9734   21.6756  -30.1168 H   0  0  0  0  0  0  0  0  0  0  0  0
   -7.1553   23.5108  -28.7036 H   0  0  0  0  0  0  0  0  0  0  0  0
   -4.5850   25.3110  -28.7930 H   0  0  0  0  0  0  0  0  0  0  0  0
   -4.7304   24.9404  -31.9114 H   0  0  0  0  0  0  0  0  0  0  0  0
   -5.5273   23.1150  -33.3503 H   0  0  0  0  0  0  0  0  0  0  0  0
   -4.7880   21.0220  -32.0240 H   0  0  0  0  0  0  0  0  0  0  0  0
   -4.1083   19.8446  -30.3937 H   0  0  0  0  0  0  0  0  0  0  0  0
   -3.2688   21.5795  -28.7925 H   0  0  0  0  0  0  0  0  0  0  0  0
   -2.0810   24.4893  -26.2584 H   0  0  0  0  0  0  0  0  0  0  0  0
   -1.1878   26.8776  -25.2982 H   0  0  0  0  0  0  0  0  0  0  0  0
   -0.4266   28.3328  -27.4241 H   0  0  0  0  0  0  0  0  0  0  0  0
  1  2  2  0
  2  3  1  0
  3  4  1  0
  4  5  2  0
  5  6  1  0
  6  7  2  0
  7  8  1  0
  8  9  2  0
  9 10  1  0
 10 11  2  0
 11 12  1  0
 12 13  1  0
 13 14  2  0
 14 15  1  0
 15 16  2  0
 16 17  1  0
 17 18  2  0
 18 19  1  0
 18 20  1  0
 20 21  2  0
 13 22  1  0
  7 23  1  0
 23 24  2  0
  2 25  1  0
 25 26  2  0
 26 27  1  0
 27 28  2  0
 28 29  1  0
 24  4  1  0
 29 25  1  0
 22  9  1  0
 21 15  1  0
  3 30  1  0
  5 31  1  0
  6 32  1  0
 10 33  1  0
 11 34  1  0
 12 35  1  0
 16 36  1  0
 17 37  1  0
 19 38  1  0
 20 39  1  0
 21 40  1  0
 22 41  1  0
 23 42  1  0
 24 43  1  0
 26 44  1  0
 27 45  1  0
 28 46  1  0
M  END
>  <smiles>  (4) 
O=C(Nc1ccc(N=c2cc[nH]c(=Nc3ccc(O)cc3)[nH]2)cc1)c1ccco1

>  <score_type>  (4) 
oracle

>  <origin>  (4) 
adgpu

>  <m_score__min__energy>  (4) 
-9.3399999999999999

>  <m_primary>  (4) 
energy

$$$$
4:0
     RDKit          3D

 59 62  0  0  0  0  0  0  0  0999 V2000
   -5.4050   14.4180  -34.1190 C   0  0  0  0  0  0  0  0  0  0  0  0
   -6.5230   15.2930  -34.2220 O   0  0  0  0  0  0  0  0  0  0  0  0
   -6.5160   16.6350  -33.8150 C   0  0  0  0  0  0  0  0  0  0  0  0
   -5.7130   17.5380  -34.5190 C   0  0  0  0  0  0  0  0  0  0  0  0
   -5.6700   18.8860  -34.1510 C   0  0  0  0  0  0  0  0  0  0  0  0
   -6.4330   19.3520  -33.0680 C   0  0  0  0  0  0  0  0  0  0  0  0
   -6.3530   20.7700  -32.6480 C   0  0  0  0  0  0  0  0  0  0  0  0
   -5.1160   21.4370  -32.6470 C   0  0  0  0  0  0  0  0  0  0  0  0
   -5.0320   22.7700  -32.2440 C   0  0  0  0  0  0  0  0  0  0  0  0
   -6.1850   23.4650  -31.8460 C   0  0  0  0  0  0  0  0  0  0  0  0
   -6.1080   24.9370  -31.5380 C   0  0  0  0  0  0  0  0  0  0  0  0
   -5.2830   25.1880  -30.3060 C   0  0  0  0  0  0  0  0  0  0  0  0
   -5.8500   25.3340  -29.1900 O   0  0  0  0  0  0  0  0  0  0  0  0
   -3.8550   25.1760  -30.3780 N   0  0  0  0  0  0  0  0  0  0  0  0
   -3.0240   24.4930  -29.4300 C   0  0  0  0  0  0  0  0  0  0  0  0
   -3.3650   23.2230  -28.9340 C   0  0  0  0  0  0  0  0  0  0  0  0
   -2.5410   22.5870  -28.0010 C   0  0  0  0  0  0  0  0  0  0  0  0
   -1.3760   23.2150  -27.5430 C   0  0  0  0  0  0  0  0  0  0  0  0
   -0.3170   22.3880  -26.4030 S   0  0  0  0  0  0  0  0  0  0  0  0
    0.5050   21.3720  -27.1450 O   0  0  0  0  0  0  0  0  0  0  0  0
   -1.1380   21.6670  -25.3710 O   0  0  0  0  0  0  0  0  0  0  0  0
    0.7520   23.5000  -25.6130 N   0  0  0  0  0  0  0  0  0  0  0  0
    0.3470   24.6060  -25.0730 C   0  0  0  0  0  0  0  0  0  0  0  0
   -0.8910   25.0400  -25.0890 O   0  0  0  0  0  0  0  0  0  0  0  0
   -0.9810   26.1510  -24.4210 N   0  0  0  0  0  0  0  0  0  0  0  0
    0.2430   26.4600  -23.9450 C   0  0  0  0  0  0  0  0  0  0  0  0
    0.5030   27.5720  -22.9810 C   0  0  0  0  0  0  0  0  0  0  0  0
    1.1380   25.4860  -24.3600 C   0  0  0  0  0  0  0  0  0  0  0  0
    2.5550   25.2840  -23.9210 C   0  0  0  0  0  0  0  0  0  0  0  0
   -1.0420   24.4860  -28.0260 C   0  0  0  0  0  0  0  0  0  0  0  0
   -1.8560   25.1160  -28.9740 C   0  0  0  0  0  0  0  0  0  0  0  0
   -7.4230   22.8030  -31.8500 C   0  0  0  0  0  0  0  0  0  0  0  0
   -7.5050   21.4630  -32.2390 C   0  0  0  0  0  0  0  0  0  0  0  0
   -7.2500   18.4480  -32.3690 C   0  0  0  0  0  0  0  0  0  0  0  0
   -7.2870   17.1000  -32.7340 C   0  0  0  0  0  0  0  0  0  0  0  0
   -5.1761   14.2389  -33.0581 H   0  0  0  0  0  0  0  0  0  0  0  0
   -5.6410   13.4622  -34.6097 H   0  0  0  0  0  0  0  0  0  0  0  0
   -4.5339   14.8768  -34.6097 H   0  0  0  0  0  0  0  0  0  0  0  0
   -5.1105   17.1848  -35.3689 H   0  0  0  0  0  0  0  0  0  0  0  0
   -5.0345   19.5860  -34.7133 H   0  0  0  0  0  0  0  0  0  0  0  0
   -4.2079   20.9045  -32.9661 H   0  0  0  0  0  0  0  0  0  0  0  0
   -4.0570   23.2792  -32.2381 H   0  0  0  0  0  0  0  0  0  0  0  0
   -5.6493   25.4593  -32.3905 H   0  0  0  0  0  0  0  0  0  0  0  0
   -7.1269   25.3112  -31.3594 H   0  0  0  0  0  0  0  0  0  0  0  0
   -4.2837   22.7276  -29.2813 H   0  0  0  0  0  0  0  0  0  0  0  0
   -2.8088   21.5886  -27.6248 H   0  0  0  0  0  0  0  0  0  0  0  0
   -1.8680   26.6760  -24.2540 H   0  0  0  0  0  0  0  0  0  0  0  0
    0.4145   27.1934  -21.9520 H   0  0  0  0  0  0  0  0  0  0  0  0
    1.5175   27.9660  -23.1407 H   0  0  0  0  0  0  0  0  0  0  0  0
   -0.2316   28.3750  -23.1407 H   0  0  0  0  0  0  0  0  0  0  0  0
    2.6010   25.2774  -22.8220 H   0  0  0  0  0  0  0  0  0  0  0  0
    2.9258   24.3239  -24.3092 H   0  0  0  0  0  0  0  0  0  0  0  0
    3.1793   26.1022  -24.3092 H   0  0  0  0  0  0  0  0  0  0  0  0
   -0.1364   24.9912  -27.6589 H   0  0  0  0  0  0  0  0  0  0  0  0
   -1.5767   26.1062  -29.3631 H   0  0  0  0  0  0  0  0  0  0  0  0
   -8.3327   23.3413  -31.5456 H   0  0  0  0  0  0  0  0  0  0  0  0
   -8.4769   20.9480  -32.2249 H   0  0  0  0  0  0  0  0  0  0  0  0
   -7.8645   18.8038  -31.5289 H   0  0  0  0  0  0  0  0  0  0  0  0
   -7.9223   16.3986  -32.1733 H   0  0  0  0  0  0  0  0  0  0  0  0
  1  2  1  0
  2  3  1  0
  3  4  2  0
  4  5  1  0
  5  6  2  0
  6  7  1  0
  7  8  2  0
  8  9  1  0
  9 10  2  0
 10 11  1  0
 11 12  1  0
 12 13  2  0
 12 14  1  0
 14 15  1  0
 15 16  2  0
 16 17  1  0
 17 18  2  0
 18 19  1  0
 19 20  2  0
 19 21  2  0
 19 22  1  0
 22 23  2  3
 23 24  1  0
 24 25  1  0
 25 26  1  0
 26 27  1  0
 26 28  2  0
 28 29  1  0
 18 30  1  0
 30 31  2  0
 10 32  1  0
 32 33  2  0
  6 34  1  0
 34 35  2  0
 35  3  1  0
 33  7  1  0
 31 15  1  0
 28 23  1  0
  1 36  1  0
  1 37  1  0
  1 38  1  0
  4 39  1  0
  5 40  1  0
  8 41  1  0
  9 42  1  0
 11 43  1  0
 11 44  1  0
 16 45  1  0
 17 46  1  0
 25 47  1  0
 27 48  1  0
 27 49  1  0
 27 50  1  0
 29 51  1  0
 29 52  1  0
 29 53  1  0
 30 54  1  0
 31 55  1  0
 32 56  1  0
 33 57  1  0
 34 58  1  0
 35 59  1  0
M  CHG  1  14  -1
M  END
>  <UniqueID>  (5) 
4

>  <SMILES>  (5) 
COc1ccc(-c2ccc(CC(=O)[N-]c3ccc(S(=O)(=O)N=c4o[nH]c(C)c4C)cc3)cc2)cc1

>  <Energy>  (5) 
99.12001221630072

>  <Genealogy>  (5) 
COc1ccc(-c2ccc(CC(=O)[N-]c3ccc(S(=O)(=O)N=c4o[nH]c(C)c4C)cc3)cc2)cc1 (protonated)
COc1ccc(-c2ccc(CC(=O)[N-]c3ccc(S(=O)(=O)N=c4o[nH]c(C)c4C)cc3)cc2)cc1 (3D coordinates assigned)
COc1ccc(-c2ccc(CC(=O)[N-]c3ccc(S(=O)(=O)N=c4o[nH]c(C)c4C)cc3)cc2)cc1 (optimized conformer: 99.12001221630072 kcal/mol)

>  <smiles>  (5) 
COc1ccc(-c2ccc(CC(=O)Nc3ccc(S(=O)(=O)N=c4o[nH]c(C)c4C)cc3)cc2)cc1

>  <score_type>  (5) 
oracle

>  <origin>  (5) 
adgpu

>  <m_score__min__energy>  (5) 
-12.289999999999999

>  <m_primary>  (5) 
energy

$$$$
5:0
     RDKit          3D

 52 55  0  0  0  0  0  0  0  0999 V2000
   -1.8480   14.6910  -35.1610 H   0  0  0  0  0  0  0  0  0  0  0  0
   -1.6750   15.6700  -35.3570 O   0  0  0  0  0  0  0  0  0  0  0  0
   -2.4980   16.6710  -34.8440 C   0  0  0  0  0  0  0  0  0  0  0  0
   -3.8860   16.5230  -34.9070 C   0  0  0  0  0  0  0  0  0  0  0  0
   -4.3209   15.6196  -35.3595 H   0  0  0  0  0  0  0  0  0  0  0  0
   -4.7240   17.5190  -34.3970 C   0  0  0  0  0  0  0  0  0  0  0  0
   -5.8156   17.3948  -34.4520 H   0  0  0  0  0  0  0  0  0  0  0  0
   -4.1820   18.6790  -33.8140 C   0  0  0  0  0  0  0  0  0  0  0  0
   -5.0740   19.7370  -33.2720 C   0  0  0  0  0  0  0  0  0  0  0  0
   -4.5690   21.0050  -32.9550 C   0  0  0  0  0  0  0  0  0  0  0  0
   -3.5020   21.2204  -33.1134 H   0  0  0  0  0  0  0  0  0  0  0  0
   -5.4050   21.9990  -32.4400 C   0  0  0  0  0  0  0  0  0  0  0  0
   -4.9963   23.0002  -32.2386 H   0  0  0  0  0  0  0  0  0  0  0  0
   -6.7680   21.7370  -32.1740 C   0  0  0  0  0  0  0  0  0  0  0  0
   -7.6750   22.6900  -31.6140 C   0  0  0  0  0  0  0  0  0  0  0  0
   -7.3300   23.7890  -30.9970 N   0  0  0  0  0  0  0  0  0  0  0  0
   -6.0570   24.1970  -30.4770 C   0  0  0  0  0  0  0  0  0  0  0  0
   -5.1590   24.9420  -31.2550 C   0  0  0  0  0  0  0  0  0  0  0  0
   -5.4446   25.2615  -32.2681 H   0  0  0  0  0  0  0  0  0  0  0  0
   -3.9370   25.2700  -30.7600 N   0  0  0  0  0  0  0  0  0  0  0  0
   -3.5250   24.8810  -29.5230 C   0  0  0  0  0  0  0  0  0  0  0  0
   -2.3440   25.2480  -29.1170 N   0  0  0  0  0  0  0  0  0  0  0  0
   -1.7370   24.9340  -27.8250 C   0  0  0  0  0  0  0  0  0  0  0  0
   -2.3625   25.3485  -27.0207 H   0  0  0  0  0  0  0  0  0  0  0  0
   -0.7303   25.3757  -27.7878 H   0  0  0  0  0  0  0  0  0  0  0  0
   -1.6200   23.4150  -27.6420 C   0  0  0  0  0  0  0  0  0  0  0  0
   -2.5161   22.9349  -28.0621 H   0  0  0  0  0  0  0  0  0  0  0  0
   -1.5288   23.2043  -26.5662 H   0  0  0  0  0  0  0  0  0  0  0  0
   -0.4210   22.8740  -28.3230 N   0  0  0  0  0  0  0  0  0  0  0  0
   -0.7250   22.6080  -29.7390 C   0  0  0  0  0  0  0  0  0  0  0  0
   -1.5512   21.8850  -29.8071 H   0  0  0  0  0  0  0  0  0  0  0  0
   -1.0169   23.5460  -30.2339 H   0  0  0  0  0  0  0  0  0  0  0  0
    0.1660   22.1942  -30.2339 H   0  0  0  0  0  0  0  0  0  0  0  0
    0.7150   23.8090  -28.2370 C   0  0  0  0  0  0  0  0  0  0  0  0
    0.9509   24.0032  -27.1803 H   0  0  0  0  0  0  0  0  0  0  0  0
    1.5918   23.3674  -28.7333 H   0  0  0  0  0  0  0  0  0  0  0  0
    0.4502   24.7543  -28.7333 H   0  0  0  0  0  0  0  0  0  0  0  0
   -4.3860   24.0970  -28.7290 C   0  0  0  0  0  0  0  0  0  0  0  0
   -4.0692   23.7643  -27.7295 H   0  0  0  0  0  0  0  0  0  0  0  0
   -5.6450   23.7460  -29.2220 C   0  0  0  0  0  0  0  0  0  0  0  0
   -6.3132   23.1128  -28.6198 H   0  0  0  0  0  0  0  0  0  0  0  0
   -9.0080   22.4250  -31.6810 N   0  0  0  0  0  0  0  0  0  0  0  0
   -9.4900   21.2710  -32.1390 N   0  0  0  0  0  0  0  0  0  0  0  0
   -8.6720   20.2800  -32.5630 C   0  0  0  0  0  0  0  0  0  0  0  0
   -9.0915   19.3128  -32.8768 H   0  0  0  0  0  0  0  0  0  0  0  0
   -7.2930   20.4920  -32.6000 C   0  0  0  0  0  0  0  0  0  0  0  0
   -6.4470   19.4950  -33.1100 C   0  0  0  0  0  0  0  0  0  0  0  0
   -6.8638   18.5150  -33.3853 H   0  0  0  0  0  0  0  0  0  0  0  0
   -2.7830   18.8200  -33.7560 C   0  0  0  0  0  0  0  0  0  0  0  0
   -2.3435   19.7219  -33.3050 H   0  0  0  0  0  0  0  0  0  0  0  0
   -1.9480   17.8230  -34.2670 C   0  0  0  0  0  0  0  0  0  0  0  0
   -0.8558   17.9430  -34.2161 H   0  0  0  0  0  0  0  0  0  0  0  0
  1  2  1  0
  2  3  1  0
  3  4  2  0
  4  5  1  0
  4  6  1  0
  6  7  1  0
  6  8  2  0
  8  9  1  0
  9 10  2  0
 10 11  1  0
 10 12  1  0
 12 13  1  0
 12 14  2  0
 14 15  1  0
 15 16  2  0
 16 17  1  0
 17 18  2  0
 18 19  1  0
 18 20  1  0
 20 21  1  0
 21 22  2  0
 22 23  1  0
 23 24  1  0
 23 25  1  0
 23 26  1  0
 26 27  1  0
 26 28  1  0
 26 29  1  0
 29 30  1  0
 30 31  1  0
 30 32  1  0
 30 33  1  0
 29 34  1  0
 34 35  1  0
 34 36  1  0
 34 37  1  0
 21 38  1  0
 38 39  1  0
 38 40  2  0
 40 41  1  0
 15 42  1  0
 42 43  1  0
 43 44  2  0
 44 45  1  0
 44 46  1  0
 46 47  2  0
 47 48  1  0
  8 49  1  0
 49 50  1  0
 49 51  2  0
 51 52  1  0
 51  3  1  0
 47  9  1  0
 46 14  1  0
 40 17  1  0
M  CHG  2  20  -1  42  -1
M  END
>  <UniqueID>  (6) 
5

>  <SMILES>  (6) 
CN(C)CC/N=c1\ccc(/N=c2/[n-]ncc3cc(-c4ccc(O)cc4)ccc23)c[n-]1

>  <Energy>  (6) 
87.89290708834147

>  <Genealogy>  (6) 
CN(C)CCN=c1ccc(N=c2[n-]ncc3cc(-c4ccc(O)cc4)ccc23)c[n-]1 (protonated)
CN(C)CC/N=c1\ccc(/N=c2/[n-]ncc3cc(-c4ccc(O)cc4)ccc23)c[n-]1 (cis-trans isomerization)
CN(C)CC/N=c1\ccc(/N=c2/[n-]ncc3cc(-c4ccc(O)cc4)ccc23)c[n-]1 (3D coordinates assigned)
CN(C)CC/N=c1\ccc(/N=c2/[n-]ncc3cc(-c4ccc(O)cc4)ccc23)c[n-]1 (optimized conformer: 87.89290708834147 kcal/mol)

>  <smiles>  (6) 
CN(C)CCN=c1ccc(N=c2[nH]ncc3cc(-c4ccc(O)cc4)ccc23)c[nH]1

>  <score_type>  (6) 
oracle

>  <origin>  (6) 
adgpu

>  <m_score__min__energy>  (6) 
-11.94

>  <m_primary>  (6) 
energy

$$$$
6:0
     RDKit          3D

 41 43  0  0  1  0  0  0  0  0999 V2000
   -8.6060   19.0420  -32.0460 C   0  0  0  0  0  0  0  0  0  0  0  0
   -7.5860   19.8000  -32.8630 C   0  0  0  0  0  0  0  0  0  0  0  0
   -6.1860   19.2490  -32.6490 C   0  0  0  0  0  0  0  0  0  0  0  0
   -5.1440   20.1610  -33.2590 C   0  0  0  0  0  0  0  0  0  0  0  0
   -5.1330   21.4280  -32.4480 C   0  0  0  0  0  0  0  0  0  0  0  0
   -4.3180   21.7430  -31.3790 C   0  0  0  0  0  0  0  0  0  0  0  0
   -4.6430   23.0190  -30.9210 C   0  0  0  0  0  0  0  0  0  0  0  0
   -4.1690   23.8280  -29.9040 C   0  0  0  0  0  0  0  0  0  0  0  0
   -3.2100   23.4030  -29.1500 N   0  0  0  0  0  0  0  0  0  0  0  0
   -2.7140   24.2250  -28.1000 C   0  0  0  0  0  0  0  0  0  0  0  0
   -3.4320   24.4940  -26.9530 C   0  0  0  0  0  0  0  0  0  0  0  0
   -2.8660   25.3110  -25.9750 C   0  0  0  0  0  0  0  0  0  0  0  0
   -1.6060   25.8510  -26.1420 C   0  0  0  0  0  0  0  0  0  0  0  0
   -0.9660   26.7310  -25.1190 C   0  0  0  0  0  0  0  0  0  0  0  0
   -0.9370   28.0560  -25.5250 F   0  0  0  0  0  0  0  0  0  0  0  0
   -1.5830   26.6100  -23.8940 F   0  0  0  0  0  0  0  0  0  0  0  0
    0.3460   26.2710  -24.9500 F   0  0  0  0  0  0  0  0  0  0  0  0
   -0.8930   25.5730  -27.3010 C   0  0  0  0  0  0  0  0  0  0  0  0
   -1.4480   24.7620  -28.2760 C   0  0  0  0  0  0  0  0  0  0  0  0
   -4.7350   25.0410  -29.7430 N   0  0  0  0  0  0  0  0  0  0  0  0
   -5.7370   25.4640  -30.5440 C   0  0  0  0  0  0  0  0  0  0  0  0
   -6.2060   24.6670  -31.5470 N   0  0  0  0  0  0  0  0  0  0  0  0
   -5.6700   23.4370  -31.7530 C   0  0  0  0  0  0  0  0  0  0  0  0
   -5.9570   22.4860  -32.6580 N   0  0  0  0  0  0  0  0  0  0  0  0
   -8.4034   19.1926  -30.9754 H   0  0  0  0  0  0  0  0  0  0  0  0
   -9.6143   19.4117  -32.2839 H   0  0  0  0  0  0  0  0  0  0  0  0
   -8.5429   17.9699  -32.2839 H   0  0  0  0  0  0  0  0  0  0  0  0
   -7.8455   19.7146  -33.9285 H   0  0  0  0  0  0  0  0  0  0  0  0
   -7.5974   20.8522  -32.5423 H   0  0  0  0  0  0  0  0  0  0  0  0
   -5.9965   19.1582  -31.5692 H   0  0  0  0  0  0  0  0  0  0  0  0
   -6.1187   18.2653  -33.1367 H   0  0  0  0  0  0  0  0  0  0  0  0
   -4.1549   19.6811  -33.2220 H   0  0  0  0  0  0  0  0  0  0  0  0
   -5.3792   20.3734  -34.3124 H   0  0  0  0  0  0  0  0  0  0  0  0
   -3.5381   21.0922  -30.9568 H   0  0  0  0  0  0  0  0  0  0  0  0
   -4.4371   24.0698  -26.8120 H   0  0  0  0  0  0  0  0  0  0  0  0
   -3.4315   25.5286  -25.0569 H   0  0  0  0  0  0  0  0  0  0  0  0
    0.1119   25.9969  -27.4441 H   0  0  0  0  0  0  0  0  0  0  0  0
   -0.8825   24.5428  -29.1937 H   0  0  0  0  0  0  0  0  0  0  0  0
   -4.3920   25.6660  -28.9830 H   0  0  0  0  0  0  0  0  0  0  0  0
   -6.1784   26.4591  -30.3863 H   0  0  0  0  0  0  0  0  0  0  0  0
   -6.7040   22.5650  -33.4060 H   0  0  0  0  0  0  0  0  0  0  0  0
  1  2  1  0
  2  3  1  0
  3  4  1  0
  4  5  1  0
  5  6  2  0
  6  7  1  0
  7  8  1  0
  8  9  2  0
  9 10  1  0
 10 11  2  0
 11 12  1  0
 12 13  2  0
 13 14  1  0
 14 15  1  0
 14 16  1  0
 14 17  1  0
 13 18  1  0
 18 19  2  0
  8 20  1  0
 20 21  1  0
 21 22  2  0
 22 23  1  0
 23 24  1  0
 24  5  1  0
 23  7  2  0
 19 10  1  0
  1 25  1  0
  1 26  1  0
  1 27  1  0
  2 28  1  0
  2 29  1  0
  3 30  1  0
  3 31  1  0
  4 32  1  0
  4 33  1  0
  6 34  1  0
 11 35  1  0
 12 36  1  0
 18 37  1  0
 19 38  1  0
 20 39  1  0
 21 40  1  0
 24 41  1  0
M  END
>  <smiles>  (7) 
CCCCc1cc2c(=Nc3ccc(C(F)(F)F)cc3)[nH]cnc2[nH]1

>  <score_type>  (7) 
oracle

>  <origin>  (7) 
adgpu

>  <m_score__min__energy>  (7) 
-7.3700000000000001

>  <m_primary>  (7) 
energy

$$$$
7:0
     RDKit          3D

 44 46  0  0  0  0  0  0  0  0999 V2000
   -0.0810   19.1930  -29.8770 C   0  0  0  0  0  0  0  0  0  0  0  0
   -1.2300   19.3620  -30.7010 O   0  0  0  0  0  0  0  0  0  0  0  0
   -2.0470   20.5050  -30.7090 C   0  0  0  0  0  0  0  0  0  0  0  0
   -1.9980   21.4560  -29.6720 C   0  0  0  0  0  0  0  0  0  0  0  0
   -2.8460   22.5650  -29.6860 C   0  0  0  0  0  0  0  0  0  0  0  0
   -3.7590   22.7410  -30.7310 C   0  0  0  0  0  0  0  0  0  0  0  0
   -4.8320   24.1350  -30.7500 S   0  0  0  0  0  0  0  0  0  0  0  0
   -3.8920   25.5820  -30.6750 N   0  0  0  0  0  0  0  0  0  0  0  0
   -5.6540   24.1340  -32.0080 O   0  0  0  0  0  0  0  0  0  0  0  0
   -5.7600   24.0750  -29.5690 O   0  0  0  0  0  0  0  0  0  0  0  0
   -3.8190   21.7970  -31.7630 C   0  0  0  0  0  0  0  0  0  0  0  0
   -2.9520   20.6940  -31.7740 C   0  0  0  0  0  0  0  0  0  0  0  0
   -2.9950   19.7660  -32.9230 C   0  0  0  0  0  0  0  0  0  0  0  0
   -1.8950   19.3650  -33.5890 N   0  0  0  0  0  0  0  0  0  0  0  0
   -2.2920   18.5210  -34.5300 N   0  0  0  0  0  0  0  0  0  0  0  0
   -3.6300   18.4150  -34.4220 C   0  0  0  0  0  0  0  0  0  0  0  0
   -4.6150   17.3060  -35.4320 S   0  0  0  0  0  0  0  0  0  0  0  0
   -3.3730   15.9790  -35.3850 C   0  0  0  0  0  0  0  0  0  0  0  0
   -4.1080   19.1790  -33.4190 N   0  0  0  0  0  0  0  0  0  0  0  0
   -5.4590   19.2330  -32.9270 C   0  0  0  0  0  0  0  0  0  0  0  0
   -6.2430   20.3700  -33.1830 C   0  0  0  0  0  0  0  0  0  0  0  0
   -7.5390   20.4630  -32.6740 C   0  0  0  0  0  0  0  0  0  0  0  0
   -8.0650   19.4220  -31.9080 C   0  0  0  0  0  0  0  0  0  0  0  0
   -7.3000   18.2800  -31.6550 C   0  0  0  0  0  0  0  0  0  0  0  0
   -5.9920   18.1720  -32.1680 C   0  0  0  0  0  0  0  0  0  0  0  0
   -5.2060   17.0280  -31.9560 O   0  0  0  0  0  0  0  0  0  0  0  0
   -5.3780   15.7900  -32.6360 C   0  0  0  0  0  0  0  0  0  0  0  0
   -0.3789   19.2368  -28.8190 H   0  0  0  0  0  0  0  0  0  0  0  0
    0.3810   18.2172  -30.0877 H   0  0  0  0  0  0  0  0  0  0  0  0
    0.6424   19.9944  -30.0877 H   0  0  0  0  0  0  0  0  0  0  0  0
   -1.2858   21.3242  -28.8441 H   0  0  0  0  0  0  0  0  0  0  0  0
   -2.7960   23.3032  -28.8721 H   0  0  0  0  0  0  0  0  0  0  0  0
   -2.9080   25.2970  -30.4660 H   0  0  0  0  0  0  0  0  0  0  0  0
   -4.5529   21.9212  -32.5730 H   0  0  0  0  0  0  0  0  0  0  0  0
   -3.1408   15.7310  -34.3388 H   0  0  0  0  0  0  0  0  0  0  0  0
   -3.7691   15.0879  -35.8939 H   0  0  0  0  0  0  0  0  0  0  0  0
   -2.4576   16.3153  -35.8939 H   0  0  0  0  0  0  0  0  0  0  0  0
   -5.8330   21.1919  -33.7882 H   0  0  0  0  0  0  0  0  0  0  0  0
   -8.1463   21.3575  -32.8767 H   0  0  0  0  0  0  0  0  0  0  0  0
   -9.0844   19.5004  -31.5022 H   0  0  0  0  0  0  0  0  0  0  0  0
   -7.7210   17.4616  -31.0525 H   0  0  0  0  0  0  0  0  0  0  0  0
   -5.4905   14.9801  -31.9002 H   0  0  0  0  0  0  0  0  0  0  0  0
   -6.2778   15.8400  -33.2667 H   0  0  0  0  0  0  0  0  0  0  0  0
   -4.4986   15.5928  -33.2667 H   0  0  0  0  0  0  0  0  0  0  0  0
  1  2  1  0
  2  3  1  0
  3  4  2  0
  4  5  1  0
  5  6  2  0
  6  7  1  0
  7  8  1  0
  7  9  2  0
  7 10  2  0
  6 11  1  0
 11 12  2  0
 12 13  1  0
 13 14  2  0
 14 15  1  0
 15 16  2  0
 16 17  1  0
 17 18  1  0
 16 19  1  0
 19 20  1  0
 20 21  2  0
 21 22  1  0
 22 23  2  0
 23 24  1  0
 24 25  2  0
 25 26  1  0
 26 27  1  0
 12  3  1  0
 19 13  1  0
 25 20  1  0
  1 28  1  0
  1 29  1  0
  1 30  1  0
  4 31  1  0
  5 32  1  0
  8 33  1  0
 11 34  1  0
 18 35  1  0
 18 36  1  0
 18 37  1  0
 21 38  1  0
 22 39  1  0
 23 40  1  0
 24 41  1  0
 27 42  1  0
 27 43  1  0
 27 44  1  0
M  CHG  1   8  -1
M  END
>  <UniqueID>  (8) 
6

>  <SMILES>  (8) 
COc1ccc(S([NH-])(=O)=O)cc1-c1nnc(SC)n1-c1ccccc1OC

>  <Energy>  (8) 
84.32299683367083

>  <Genealogy>  (8) 
COc1ccc(S([NH-])(=O)=O)cc1-c1nnc(SC)n1-c1ccccc1OC (protonated)
COc1ccc(S([NH-])(=O)=O)cc1-c1nnc(SC)n1-c1ccccc1OC (3D coordinates assigned)
COc1ccc(S([NH-])(=O)=O)cc1-c1nnc(SC)n1-c1ccccc1OC (optimized conformer: 84.32299683367083 kcal/mol)

>  <smiles>  (8) 
COc1ccc(S(N)(=O)=O)cc1-c1nnc(SC)n1-c1ccccc1OC

>  <score_type>  (8) 
oracle

>  <origin>  (8) 
adgpu

>  <m_score__min__energy>  (8) 
-10.07

>  <m_primary>  (8) 
energy

$$$$
8:0
     RDKit          3D

 23 23  0  0  0  0  0  0  0  0999 V2000
   -4.3846   25.5299  -25.7006 H   0  0  0  0  0  0  0  0  0  0  0  0
   -3.6990   24.9590  -26.3440 C   0  0  0  0  0  0  0  0  0  0  0  0
   -4.2250   23.8850  -27.1420 N   0  0  0  0  0  0  0  0  0  0  0  0
   -5.2580   23.8540  -27.2840 H   0  0  0  0  0  0  0  0  0  0  0  0
   -3.4120   22.9870  -27.9110 C   0  0  0  0  0  0  0  0  0  0  0  0
   -3.3180   21.6510  -27.4940 C   0  0  0  0  0  0  0  0  0  0  0  0
   -3.8224   21.3317  -26.5701 H   0  0  0  0  0  0  0  0  0  0  0  0
   -2.5910   20.7240  -28.2400 C   0  0  0  0  0  0  0  0  0  0  0  0
   -2.5292   19.6776  -27.9066 H   0  0  0  0  0  0  0  0  0  0  0  0
   -1.9430   21.1220  -29.4070 C   0  0  0  0  0  0  0  0  0  0  0  0
   -1.3829   20.3858  -30.0022 H   0  0  0  0  0  0  0  0  0  0  0  0
   -2.0030   22.4540  -29.8230 C   0  0  0  0  0  0  0  0  0  0  0  0
   -1.4854   22.7602  -30.7440 H   0  0  0  0  0  0  0  0  0  0  0  0
   -2.7190   23.4090  -29.0760 C   0  0  0  0  0  0  0  0  0  0  0  0
   -2.6910   24.8280  -29.5060 C   0  0  0  0  0  0  0  0  0  0  0  0
   -1.8960   25.6410  -28.9620 O   0  0  0  0  0  0  0  0  0  0  0  0
   -3.5630   25.2960  -30.4820 O   0  0  0  0  0  0  0  0  0  0  0  0
   -2.4370   25.2770  -26.3590 N   0  0  0  0  0  0  0  0  0  0  0  0
   -1.7590   24.7630  -26.9630 H   0  0  0  0  0  0  0  0  0  0  0  0
   -1.9300   26.3730  -25.5410 C   0  0  0  0  0  0  0  0  0  0  0  0
   -2.0467   26.1206  -24.4767 H   0  0  0  0  0  0  0  0  0  0  0  0
   -0.8653   26.5354  -25.7647 H   0  0  0  0  0  0  0  0  0  0  0  0
   -2.4956   27.2895  -25.7647 H   0  0  0  0  0  0  0  0  0  0  0  0
  1  2  1  0
  2  3  1  0
  3  4  1  0
  3  5  1  0
  5  6  2  0
  6  7  1  0
  6  8  1  0
  8  9  1  0
  8 10  2  0
 10 11  1  0
 10 12  1  0
 12 13  1  0
 12 14  2  0
 14 15  1  0
 15 16  2  0
 15 17  1  0
  2 18  2  0
 18 19  1  0
 18 20  1  0
 20 21  1  0
 20 22  1  0
 20 23  1  0
 14  5  1  0
M  CHG  2  17  -1  18   1
M  END
>  <UniqueID>  (9) 
7

>  <SMILES>  (9) 
C/[NH+]=C/Nc1ccccc1C(=O)[O-]

>  <Energy>  (9) 
28.123999253738408

>  <Genealogy>  (9) 
C[NH+]=CNc1ccccc1C(=O)[O-] (protonated)
C/[NH+]=C/Nc1ccccc1C(=O)[O-] (cis-trans isomerization)
C/[NH+]=C/Nc1ccccc1C(=O)[O-] (3D coordinates assigned)
C/[NH+]=C/Nc1ccccc1C(=O)[O-] (optimized conformer: 28.123999253738408 kcal/mol)

>  <smiles>  (9) 
CN=CNc1ccccc1C(=O)O

>  <score_type>  (9) 
oracle

>  <origin>  (9) 
adgpu

>  <m_score__min__energy>  (9) 
-6.54

>  <m_primary>  (9) 
energy

$$$$
9:0
     RDKit          3D

 55 58  0  0  0  0  0  0  0  0999 V2000
   -8.8980   19.7110  -32.2060 C   0  0  0  0  0  0  0  0  0  0  0  0
   -7.7940   20.5890  -31.6790 C   0  0  0  0  0  0  0  0  0  0  0  0
   -8.1110   21.6450  -30.8080 C   0  0  0  0  0  0  0  0  0  0  0  0
   -7.1090   22.4760  -30.3070 C   0  0  0  0  0  0  0  0  0  0  0  0
   -5.7720   22.2750  -30.6700 C   0  0  0  0  0  0  0  0  0  0  0  0
   -4.7400   23.1490  -30.1620 N   0  0  0  0  0  0  0  0  0  0  0  0
   -4.5860   24.4040  -30.6890 C   0  0  0  0  0  0  0  0  0  0  0  0
   -5.3560   24.8230  -31.5950 O   0  0  0  0  0  0  0  0  0  0  0  0
   -3.6060   25.2210  -30.2310 N   0  0  0  0  0  0  0  0  0  0  0  0
   -2.7460   24.8340  -29.2580 C   0  0  0  0  0  0  0  0  0  0  0  0
   -1.7530   25.7270  -28.8550 O   0  0  0  0  0  0  0  0  0  0  0  0
   -2.8630   23.5490  -28.7000 C   0  0  0  0  0  0  0  0  0  0  0  0
   -1.9380   23.1050  -27.6300 C   0  0  0  0  0  0  0  0  0  0  0  0
   -1.1380   22.0810  -27.7340 N   0  0  0  0  0  0  0  0  0  0  0  0
   -0.8950   21.2860  -28.9060 C   0  0  0  0  0  0  0  0  0  0  0  0
   -0.5580   19.9440  -28.9260 C   0  0  0  0  0  0  0  0  0  0  0  0
   -0.4630   19.0430  -27.7330 C   0  0  0  0  0  0  0  0  0  0  0  0
   -0.4320   19.5510  -30.2190 N   0  0  0  0  0  0  0  0  0  0  0  0
   -0.1520   18.1880  -30.6780 C   0  0  0  0  0  0  0  0  0  0  0  0
   -0.6130   20.6080  -31.0080 N   0  0  0  0  0  0  0  0  0  0  0  0
   -0.5770   20.6070  -32.4450 C   0  0  0  0  0  0  0  0  0  0  0  0
   -1.6300   20.0460  -33.1850 C   0  0  0  0  0  0  0  0  0  0  0  0
   -1.5870   20.0500  -34.5830 C   0  0  0  0  0  0  0  0  0  0  0  0
   -0.4930   20.6100  -35.2500 C   0  0  0  0  0  0  0  0  0  0  0  0
    0.5640   21.1620  -34.5180 C   0  0  0  0  0  0  0  0  0  0  0  0
    1.9380   21.8660  -35.3510 Cl  0  0  0  0  0  0  0  0  0  0  0  0
    0.5240   21.1550  -33.1200 C   0  0  0  0  0  0  0  0  0  0  0  0
   -0.8880   21.6750  -30.2310 C   0  0  0  0  0  0  0  0  0  0  0  0
   -1.0580   22.8470  -30.6650 O   0  0  0  0  0  0  0  0  0  0  0  0
   -3.9090   22.7230  -29.1580 C   0  0  0  0  0  0  0  0  0  0  0  0
   -4.0770   21.5830  -28.6380 O   0  0  0  0  0  0  0  0  0  0  0  0
   -5.4450   21.2210  -31.5370 C   0  0  0  0  0  0  0  0  0  0  0  0
   -6.4440   20.3760  -32.0510 C   0  0  0  0  0  0  0  0  0  0  0  0
   -6.0580   19.2560  -32.9800 C   0  0  0  0  0  0  0  0  0  0  0  0
   -9.4509   19.2713  -31.3628 H   0  0  0  0  0  0  0  0  0  0  0  0
   -9.5838   20.3131  -32.8201 H   0  0  0  0  0  0  0  0  0  0  0  0
   -8.4657   18.9072  -32.8201 H   0  0  0  0  0  0  0  0  0  0  0  0
   -9.1581   21.8178  -30.5188 H   0  0  0  0  0  0  0  0  0  0  0  0
   -7.3713   23.2954  -29.6216 H   0  0  0  0  0  0  0  0  0  0  0  0
   -1.1550   25.5650  -28.0550 H   0  0  0  0  0  0  0  0  0  0  0  0
   -1.9259   23.6753  -26.6895 H   0  0  0  0  0  0  0  0  0  0  0  0
   -0.5264   19.6438  -26.8138 H   0  0  0  0  0  0  0  0  0  0  0  0
   -1.2896   18.3176  -27.7546 H   0  0  0  0  0  0  0  0  0  0  0  0
    0.4967   18.5060  -27.7546 H   0  0  0  0  0  0  0  0  0  0  0  0
   -0.0166   17.5287  -29.8080 H   0  0  0  0  0  0  0  0  0  0  0  0
   -0.9944   17.8253  -31.2853 H   0  0  0  0  0  0  0  0  0  0  0  0
    0.7652   18.1868  -31.2853 H   0  0  0  0  0  0  0  0  0  0  0  0
   -2.4911   19.6021  -32.6639 H   0  0  0  0  0  0  0  0  0  0  0  0
   -2.4154   19.6118  -35.1589 H   0  0  0  0  0  0  0  0  0  0  0  0
   -0.4634   20.6166  -36.3496 H   0  0  0  0  0  0  0  0  0  0  0  0
    1.3603   21.5815  -32.5467 H   0  0  0  0  0  0  0  0  0  0  0  0
   -4.3946   21.0541  -31.8177 H   0  0  0  0  0  0  0  0  0  0  0  0
   -5.7555   18.3782  -32.3902 H   0  0  0  0  0  0  0  0  0  0  0  0
   -6.9174   18.9931  -33.6143 H   0  0  0  0  0  0  0  0  0  0  0  0
   -5.2191   19.5784  -33.6143 H   0  0  0  0  0  0  0  0  0  0  0  0
  1  2  1  0
  2  3  2  0
  3  4  1  0
  4  5  2  0
  5  6  1  0
  6  7  1  0
  7  8  2  0
  7  9  1  0
  9 10  1  0
 10 11  1  0
 10 12  2  0
 12 13  1  0
 13 14  2  3
 14 15  1  0
 15 16  2  0
 16 17  1  0
 16 18  1  0
 18 19  1  0
 18 20  1  0
 20 21  1  0
 21 22  2  0
 22 23  1  0
 23 24  2  0
 24 25  1  0
 25 26  1  0
 25 27  2  0
 20 28  1  0
 28 29  2  0
 12 30  1  0
 30 31  2  0
  5 32  1  0
 32 33  2  0
 33 34  1  0
 33  2  1  0
 30  6  1  0
 28 15  1  0
 27 21  1  0
  1 35  1  0
  1 36  1  0
  1 37  1  0
  3 38  1  0
  4 39  1  0
 11 40  1  0
 13 41  1  0
 17 42  1  0
 17 43  1  0
 17 44  1  0
 19 45  1  0
 19 46  1  0
 19 47  1  0
 22 48  1  0
 23 49  1  0
 24 50  1  0
 27 51  1  0
 32 52  1  0
 34 53  1  0
 34 54  1  0
 34 55  1  0
M  CHG  1   9  -1
M  END
>  <UniqueID>  (10) 
8

>  <SMILES>  (10) 
Cc1ccc(-n2c(=O)[n-]c(O)c(C=Nc3c(C)n(C)n(-c4cccc(Cl)c4)c3=O)c2=O)cc1C

>  <Energy>  (10) 
122.22606168012182

>  <Genealogy>  (10) 
Cc1ccc(-n2c(=O)[n-]c(O)c(C=Nc3c(C)n(C)n(-c4cccc(Cl)c4)c3=O)c2=O)cc1C (protonated)
Cc1ccc(-n2c(=O)[n-]c(O)c(C=Nc3c(C)n(C)n(-c4cccc(Cl)c4)c3=O)c2=O)cc1C (3D coordinates assigned)
Cc1ccc(-n2c(=O)[n-]c(O)c(C=Nc3c(C)n(C)n(-c4cccc(Cl)c4)c3=O)c2=O)cc1C (optimized conformer: 122.22606168012182 kcal/mol)

>  <smiles>  (10) 
Cc1ccc(-n2c(=O)[nH]c(O)c(C=Nc3c(C)n(C)n(-c4cccc(Cl)c4)c3=O)c2=O)cc1C

>  <score_type>  (10) 
oracle

>  <origin>  (10) 
adgpu

>  <m_score__min__energy>  (10) 
-10.81

>  <m_primary>  (10) 
energy

$$$$
10:0
     RDKit          3D

 48 51  0  0  1  0  0  0  0  0999 V2000
   -1.3150   22.0880  -26.9240 C   0  0  0  0  0  0  0  0  0  0  0  0
   -2.3300   22.6490  -27.8830 C   0  0  0  0  0  0  0  0  0  0  0  0
   -3.6510   22.2160  -27.8330 C   0  0  0  0  0  0  0  0  0  0  0  0
   -4.6180   22.7000  -28.6910 C   0  0  0  0  0  0  0  0  0  0  0  0
   -4.2350   23.6450  -29.6230 C   0  0  0  0  0  0  0  0  0  0  0  0
   -5.3250   24.3250  -30.7900 S   0  0  0  0  0  0  0  0  0  0  0  0
   -6.6250   24.7700  -30.1130 O   0  0  0  0  0  0  0  0  0  0  0  0
   -4.7060   25.6540  -31.2190 O   0  0  0  0  0  0  0  0  0  0  0  0
   -5.6290   23.3930  -32.1640 N   0  0  0  0  0  0  0  0  0  0  0  0
   -6.0720   22.0530  -32.2050 C   0  0  0  0  0  0  0  0  0  0  0  0
   -5.3830   21.0200  -32.7980 C   0  0  0  0  0  0  0  0  0  0  0  0
   -4.1160   21.2270  -33.3980 N   0  0  0  0  0  0  0  0  0  0  0  0
   -2.9870   21.0720  -32.8410 C   0  0  0  0  0  0  0  0  0  0  0  0
   -1.8530   21.3230  -33.5930 C   0  0  0  0  0  0  0  0  0  0  0  0
   -0.6090   21.1590  -33.0180 C   0  0  0  0  0  0  0  0  0  0  0  0
   -0.5770   20.7570  -31.7370 N   0  0  0  0  0  0  0  0  0  0  0  0
   -1.7060   20.5240  -31.0400 C   0  0  0  0  0  0  0  0  0  0  0  0
   -1.6030   20.0760  -29.6080 C   0  0  0  0  0  0  0  0  0  0  0  0
   -2.9380   20.6710  -31.5550 N   0  0  0  0  0  0  0  0  0  0  0  0
   -6.0030   19.7750  -32.7720 C   0  0  0  0  0  0  0  0  0  0  0  0
   -5.4020   18.6860  -33.3370 C   0  0  0  0  0  0  0  0  0  0  0  0
   -5.9970   17.4390  -33.3260 C   0  0  0  0  0  0  0  0  0  0  0  0
   -7.2330   17.2760  -32.7320 C   0  0  0  0  0  0  0  0  0  0  0  0
   -7.8670   18.3590  -32.1530 C   0  0  0  0  0  0  0  0  0  0  0  0
   -7.2360   19.5950  -32.1840 C   0  0  0  0  0  0  0  0  0  0  0  0
   -7.8610   20.6040  -31.6300 O   0  0  0  0  0  0  0  0  0  0  0  0
   -7.3220   21.7990  -31.6270 C   0  0  0  0  0  0  0  0  0  0  0  0
   -7.9830   22.7270  -31.0730 O   0  0  0  0  0  0  0  0  0  0  0  0
   -2.9060   24.0850  -29.6760 C   0  0  0  0  0  0  0  0  0  0  0  0
   -1.9410   23.6060  -28.8260 C   0  0  0  0  0  0  0  0  0  0  0  0
   -1.6461   22.2710  -25.8911 H   0  0  0  0  0  0  0  0  0  0  0  0
   -1.2129   21.0054  -27.0899 H   0  0  0  0  0  0  0  0  0  0  0  0
   -0.3440   22.5775  -27.0899 H   0  0  0  0  0  0  0  0  0  0  0  0
   -3.9348   21.4620  -27.0840 H   0  0  0  0  0  0  0  0  0  0  0  0
   -5.6577   22.3454  -28.6345 H   0  0  0  0  0  0  0  0  0  0  0  0
   -5.4790   23.8390  -33.1280 H   0  0  0  0  0  0  0  0  0  0  0  0
   -1.9421   21.6502  -34.6394 H   0  0  0  0  0  0  0  0  0  0  0  0
    0.3150   21.3491  -33.5838 H   0  0  0  0  0  0  0  0  0  0  0  0
    0.3790   20.6350  -31.3100 H   0  0  0  0  0  0  0  0  0  0  0  0
   -1.7991   20.9291  -28.9419 H   0  0  0  0  0  0  0  0  0  0  0  0
   -2.3426   19.2844  -29.4174 H   0  0  0  0  0  0  0  0  0  0  0  0
   -0.5920   19.6868  -29.4174 H   0  0  0  0  0  0  0  0  0  0  0  0
   -4.4178   18.8051  -33.8136 H   0  0  0  0  0  0  0  0  0  0  0  0
   -5.4885   16.5801  -33.7882 H   0  0  0  0  0  0  0  0  0  0  0  0
   -7.7121   16.2859  -32.7197 H   0  0  0  0  0  0  0  0  0  0  0  0
   -8.8520   18.2438  -31.6771 H   0  0  0  0  0  0  0  0  0  0  0  0
   -2.6263   24.8406  -30.4249 H   0  0  0  0  0  0  0  0  0  0  0  0
   -0.9015   23.9610  -28.8840 H   0  0  0  0  0  0  0  0  0  0  0  0
  1  2  1  0
  2  3  2  0
  3  4  1  0
  4  5  2  0
  5  6  1  0
  6  7  2  0
  6  8  2  0
  6  9  1  0
  9 10  1  0
 10 11  2  0
 11 12  1  0
 12 13  2  0
 13 14  1  0
 14 15  2  0
 15 16  1  0
 16 17  1  0
 17 18  1  0
 17 19  2  0
 11 20  1  0
 20 21  2  0
 21 22  1  0
 22 23  2  0
 23 24  1  0
 24 25  2  0
 25 26  1  0
 26 27  1  0
 27 28  2  0
  5 29  1  0
 29 30  2  0
 30  2  1  0
 27 10  1  0
 19 13  1  0
 25 20  1  0
  1 31  1  0
  1 32  1  0
  1 33  1  0
  3 34  1  0
  4 35  1  0
  9 36  1  0
 14 37  1  0
 15 38  1  0
 16 39  1  0
 18 40  1  0
 18 41  1  0
 18 42  1  0
 21 43  1  0
 22 44  1  0
 23 45  1  0
 24 46  1  0
 29 47  1  0
 30 48  1  0
M  END
>  <smiles>  (11) 
Cc1ccc(S(=O)(=O)Nc2c(N=c3cc[nH]c(C)n3)c3ccccc3oc2=O)cc1

>  <score_type>  (11) 
oracle

>  <origin>  (11) 
adgpu

>  <m_score__min__energy>  (11) 
-10.44

>  <m_primary>  (11) 
energy

$$$$
11:0
     RDKit          3D

 32 33  0  0  0  0  0  0  0  0999 V2000
   -9.4530   18.9860  -32.3580 C   0  0  0  0  0  0  0  0  0  0  0  0
   -8.5650   20.1940  -32.2940 C   0  0  0  0  0  0  0  0  0  0  0  0
   -9.0990   21.4460  -31.9550 C   0  0  0  0  0  0  0  0  0  0  0  0
   -8.2790   22.5770  -31.9300 C   0  0  0  0  0  0  0  0  0  0  0  0
   -6.9240   22.4670  -32.2530 C   0  0  0  0  0  0  0  0  0  0  0  0
   -6.3780   21.2270  -32.6080 C   0  0  0  0  0  0  0  0  0  0  0  0
   -4.9800   21.1610  -32.9270 N   0  0  0  0  0  0  0  0  0  0  0  0
   -3.7180   20.7600  -31.8060 S   0  0  0  0  0  0  0  0  0  0  0  0
   -4.2320   19.7310  -30.8390 O   0  0  0  0  0  0  0  0  0  0  0  0
   -2.5540   20.1860  -32.5620 O   0  0  0  0  0  0  0  0  0  0  0  0
   -3.1850   22.2050  -30.9510 C   0  0  0  0  0  0  0  0  0  0  0  0
   -3.9140   23.3920  -31.0540 C   0  0  0  0  0  0  0  0  0  0  0  0
   -3.4820   24.5460  -30.3890 C   0  0  0  0  0  0  0  0  0  0  0  0
   -4.2070   25.7310  -30.4930 O   0  0  0  0  0  0  0  0  0  0  0  0
   -2.3140   24.5140  -29.6150 C   0  0  0  0  0  0  0  0  0  0  0  0
   -1.9070   25.6770  -28.9690 O   0  0  0  0  0  0  0  0  0  0  0  0
   -1.5690   23.3170  -29.4980 C   0  0  0  0  0  0  0  0  0  0  0  0
   -0.3260   23.2420  -28.6890 C   0  0  0  0  0  0  0  0  0  0  0  0
   -0.0050   22.1830  -28.0880 O   0  0  0  0  0  0  0  0  0  0  0  0
    0.5090   24.3490  -28.5810 O   0  0  0  0  0  0  0  0  0  0  0  0
   -2.0230   22.1680  -30.1720 C   0  0  0  0  0  0  0  0  0  0  0  0
   -7.2080   20.0910  -32.6400 C   0  0  0  0  0  0  0  0  0  0  0  0
   -9.6962   18.6552  -31.3375 H   0  0  0  0  0  0  0  0  0  0  0  0
  -10.3805   19.2406  -32.8917 H   0  0  0  0  0  0  0  0  0  0  0  0
   -8.9332   18.1767  -32.8917 H   0  0  0  0  0  0  0  0  0  0  0  0
  -10.1670   21.5377  -31.7080 H   0  0  0  0  0  0  0  0  0  0  0  0
   -8.7007   23.5552  -31.6557 H   0  0  0  0  0  0  0  0  0  0  0  0
   -6.2820   23.3599  -32.2283 H   0  0  0  0  0  0  0  0  0  0  0  0
   -4.8315   23.4203  -31.6602 H   0  0  0  0  0  0  0  0  0  0  0  0
   -3.8650   26.5980  -30.0930 H   0  0  0  0  0  0  0  0  0  0  0  0
   -1.4572   21.2287  -30.0854 H   0  0  0  0  0  0  0  0  0  0  0  0
   -6.7916   19.1173  -32.9376 H   0  0  0  0  0  0  0  0  0  0  0  0
  1  2  1  0
  2  3  2  0
  3  4  1  0
  4  5  2  0
  5  6  1  0
  6  7  1  0
  7  8  1  0
  8  9  2  0
  8 10  2  0
  8 11  1  0
 11 12  2  0
 12 13  1  0
 13 14  1  0
 13 15  2  0
 15 16  1  0
 15 17  1  0
 17 18  1  0
 18 19  2  0
 18 20  1  0
 17 21  2  0
  6 22  2  0
 22  2  1  0
 21 11  1  0
  1 23  1  0
  1 24  1  0
  1 25  1  0
  3 26  1  0
  4 27  1  0
  5 28  1  0
 12 29  1  0
 14 30  1  0
 21 31  1  0
 22 32  1  0
M  CHG  3   7  -1  16  -1  20  -1
M  END
>  <UniqueID>  (12) 
9

>  <SMILES>  (12) 
Cc1cccc([N-]S(=O)(=O)c2cc(O)c([O-])c(C(=O)[O-])c2)c1

>  <Energy>  (12) 
36.728118921106834

>  <Genealogy>  (12) 
Cc1cccc([N-]S(=O)(=O)c2cc(O)c([O-])c(C(=O)[O-])c2)c1 (protonated)
Cc1cccc([N-]S(=O)(=O)c2cc(O)c([O-])c(C(=O)[O-])c2)c1 (3D coordinates assigned)
Cc1cccc([N-]S(=O)(=O)c2cc(O)c([O-])c(C(=O)[O-])c2)c1 (optimized conformer: 36.728118921106834 kcal/mol)

>  <smiles>  (12) 
Cc1cccc(NS(=O)(=O)c2cc(O)c(O)c(C(=O)O)c2)c1

>  <score_type>  (12) 
oracle

>  <origin>  (12) 
adgpu

>  <m_score__min__energy>  (12) 
-11.210000000000001

>  <m_primary>  (12) 
energy

$$$$
12:0
     RDKit          3D

 39 41  0  0  0  0  0  0  0  0999 V2000
   -3.2452   23.1333  -32.4153 H   0  0  0  0  0  0  0  0  0  0  0  0
   -3.9300   22.6530  -31.7010 C   0  0  0  0  0  0  0  0  0  0  0  0
   -3.7820   21.3910  -31.4350 N   0  0  0  0  0  0  0  0  0  0  0  0
   -2.7740   20.5930  -32.0120 N   0  0  0  0  0  0  0  0  0  0  0  0
   -2.9520   19.4880  -32.7610 C   0  0  0  0  0  0  0  0  0  0  0  0
   -4.2530   18.8780  -33.1000 C   0  0  0  0  0  0  0  0  0  0  0  0
   -4.2990   17.7730  -33.9630 C   0  0  0  0  0  0  0  0  0  0  0  0
   -3.3667   17.3656  -34.3811 H   0  0  0  0  0  0  0  0  0  0  0  0
   -5.5210   17.1890  -34.2930 C   0  0  0  0  0  0  0  0  0  0  0  0
   -5.5495   16.3305  -34.9802 H   0  0  0  0  0  0  0  0  0  0  0  0
   -6.7080   17.6880  -33.7560 C   0  0  0  0  0  0  0  0  0  0  0  0
   -7.6675   17.2264  -34.0322 H   0  0  0  0  0  0  0  0  0  0  0  0
   -6.6890   18.7780  -32.8630 C   0  0  0  0  0  0  0  0  0  0  0  0
   -7.9160   19.2760  -32.2800 N   0  0  0  0  0  0  0  0  0  0  0  0
   -8.8400   18.3610  -31.5990 C   0  0  0  0  0  0  0  0  0  0  0  0
   -8.7289   18.4710  -30.5102 H   0  0  0  0  0  0  0  0  0  0  0  0
   -9.8737   18.6014  -31.8883 H   0  0  0  0  0  0  0  0  0  0  0  0
   -8.6098   17.3250  -31.8883 H   0  0  0  0  0  0  0  0  0  0  0  0
   -8.2390   20.7060  -32.3390 C   0  0  0  0  0  0  0  0  0  0  0  0
   -8.3289   21.1040  -31.3175 H   0  0  0  0  0  0  0  0  0  0  0  0
   -7.4391   21.2409  -32.8719 H   0  0  0  0  0  0  0  0  0  0  0  0
   -9.1912   20.8451  -32.8719 H   0  0  0  0  0  0  0  0  0  0  0  0
   -5.4480   19.3650  -32.5420 C   0  0  0  0  0  0  0  0  0  0  0  0
   -5.4143   20.2157  -31.8454 H   0  0  0  0  0  0  0  0  0  0  0  0
   -1.7690   19.0170  -33.2100 N   0  0  0  0  0  0  0  0  0  0  0  0
   -0.8200   19.8060  -32.7240 N   0  0  0  0  0  0  0  0  0  0  0  0
   -1.4350   20.7610  -32.0020 C   0  0  0  0  0  0  0  0  0  0  0  0
   -0.6190   21.8680  -31.1110 S   0  0  0  0  0  0  0  0  0  0  0  0
   -4.9970   23.4640  -31.0680 C   0  0  0  0  0  0  0  0  0  0  0  0
   -6.3050   22.9490  -31.0520 C   0  0  0  0  0  0  0  0  0  0  0  0
   -6.5090   21.9672  -31.5042 H   0  0  0  0  0  0  0  0  0  0  0  0
   -7.3480   23.6710  -30.4680 C   0  0  0  0  0  0  0  0  0  0  0  0
   -8.3670   23.2567  -30.4629 H   0  0  0  0  0  0  0  0  0  0  0  0
   -7.1000   24.9170  -29.8910 C   0  0  0  0  0  0  0  0  0  0  0  0
   -7.9227   25.4838  -29.4308 H   0  0  0  0  0  0  0  0  0  0  0  0
   -5.8070   25.4440  -29.8980 C   0  0  0  0  0  0  0  0  0  0  0  0
   -5.6141   26.4263  -29.4421 H   0  0  0  0  0  0  0  0  0  0  0  0
   -4.7550   24.7290  -30.4820 C   0  0  0  0  0  0  0  0  0  0  0  0
   -3.4830   25.2900  -30.4730 O   0  0  0  0  0  0  0  0  0  0  0  0
  1  2  1  0
  2  3  2  0
  3  4  1  0
  4  5  1  0
  5  6  1  0
  6  7  2  0
  7  8  1  0
  7  9  1  0
  9 10  1  0
  9 11  2  0
 11 12  1  0
 11 13  1  0
 13 14  1  0
 14 15  1  0
 15 16  1  0
 15 17  1  0
 15 18  1  0
 14 19  1  0
 19 20  1  0
 19 21  1  0
 19 22  1  0
 13 23  2  0
 23 24  1  0
  5 25  2  0
 25 26  1  0
 26 27  1  0
 27 28  2  0
  2 29  1  0
 29 30  2  0
 30 31  1  0
 30 32  1  0
 32 33  1  0
 32 34  2  0
 34 35  1  0
 34 36  1  0
 36 37  1  0
 36 38  2  0
 38 39  1  0
 27  4  1  0
 38 29  1  0
 23  6  1  0
M  CHG  2  26  -1  39  -1
M  END
>  <UniqueID>  (13) 
10

>  <SMILES>  (13) 
CN(C)c1cccc(-c2n[n-]c(=S)n2/N=C/c2ccccc2[O-])c1

>  <Energy>  (13) 
90.07737955634171

>  <Genealogy>  (13) 
CN(C)c1cccc(-c2n[n-]c(=S)n2N=Cc2ccccc2[O-])c1 (protonated)
CN(C)c1cccc(-c2n[n-]c(=S)n2/N=C/c2ccccc2[O-])c1 (cis-trans isomerization)
CN(C)c1cccc(-c2n[n-]c(=S)n2/N=C/c2ccccc2[O-])c1 (3D coordinates assigned)
CN(C)c1cccc(-c2n[n-]c(=S)n2/N=C/c2ccccc2[O-])c1 (optimized conformer: 90.07737955634171 kcal/mol)

>  <smiles>  (13) 
CN(C)c1cccc(-c2n[nH]c(=S)n2N=Cc2ccccc2O)c1

>  <score_type>  (13) 
oracle

>  <origin>  (13) 
adgpu

>  <m_score__min__energy>  (13) 
-11.24

>  <m_primary>  (13) 
energy

$$$$
13:0
     RDKit          3D

 40 42  0  0  0  0  0  0  0  0999 V2000
   -3.0040   19.7550  -33.4840 C   0  0  0  0  0  0  0  0  0  0  0  0
   -3.3570   18.2890  -33.7040 C   0  0  0  0  0  0  0  0  0  0  0  0
   -4.7890   18.0360  -33.3600 C   0  0  0  0  0  0  0  0  0  0  0  0
   -5.4480   18.6940  -32.3810 N   0  0  0  0  0  0  0  0  0  0  0  0
   -6.7200   18.2340  -32.2310 C   0  0  0  0  0  0  0  0  0  0  0  0
   -7.6590   18.8330  -31.2300 C   0  0  0  0  0  0  0  0  0  0  0  0
   -8.5910   19.7710  -31.8930 N   0  0  0  0  0  0  0  0  0  0  0  0
   -9.1120   20.8190  -31.0030 C   0  0  0  0  0  0  0  0  0  0  0  0
   -8.0340   21.8030  -30.5250 C   0  0  0  0  0  0  0  0  0  0  0  0
   -6.9550   22.0750  -31.5010 N   0  0  0  0  0  0  0  0  0  0  0  0
   -5.9090   23.0360  -31.1470 C   0  0  0  0  0  0  0  0  0  0  0  0
   -6.2100   24.3950  -30.8970 C   0  0  0  0  0  0  0  0  0  0  0  0
   -5.1960   25.2930  -30.5600 C   0  0  0  0  0  0  0  0  0  0  0  0
   -3.9100   24.8720  -30.4720 N   0  0  0  0  0  0  0  0  0  0  0  0
   -3.5710   23.5790  -30.7090 C   0  0  0  0  0  0  0  0  0  0  0  0
   -4.5520   22.6450  -31.0490 C   0  0  0  0  0  0  0  0  0  0  0  0
   -6.8150   21.3020  -32.7540 C   0  0  0  0  0  0  0  0  0  0  0  0
   -8.0110   20.4000  -33.0850 C   0  0  0  0  0  0  0  0  0  0  0  0
   -7.0810   17.1980  -33.0910 C   0  0  0  0  0  0  0  0  0  0  0  0
   -5.7520   16.8500  -34.0600 S   0  0  0  0  0  0  0  0  0  0  0  0
   -2.9541   19.9622  -32.4048 H   0  0  0  0  0  0  0  0  0  0  0  0
   -2.0283   19.9703  -33.9442 H   0  0  0  0  0  0  0  0  0  0  0  0
   -3.7747   20.3908  -33.9442 H   0  0  0  0  0  0  0  0  0  0  0  0
   -3.1877   18.0308  -34.7598 H   0  0  0  0  0  0  0  0  0  0  0  0
   -2.7212   17.6696  -33.0543 H   0  0  0  0  0  0  0  0  0  0  0  0
   -8.2354   18.0296  -30.7480 H   0  0  0  0  0  0  0  0  0  0  0  0
   -7.0746   19.3832  -30.4778 H   0  0  0  0  0  0  0  0  0  0  0  0
   -9.8849   21.3842  -31.5445 H   0  0  0  0  0  0  0  0  0  0  0  0
   -9.5135   20.3175  -30.1101 H   0  0  0  0  0  0  0  0  0  0  0  0
   -8.5258   22.7575  -30.2859 H   0  0  0  0  0  0  0  0  0  0  0  0
   -7.5504   21.3300  -29.6576 H   0  0  0  0  0  0  0  0  0  0  0  0
   -7.2498   24.7466  -30.9686 H   0  0  0  0  0  0  0  0  0  0  0  0
   -5.4413   26.3474  -30.3648 H   0  0  0  0  0  0  0  0  0  0  0  0
   -2.5193   23.2657  -30.6329 H   0  0  0  0  0  0  0  0  0  0  0  0
   -4.2687   21.5997  -31.2417 H   0  0  0  0  0  0  0  0  0  0  0  0
   -6.6818   22.0130  -33.5827 H   0  0  0  0  0  0  0  0  0  0  0  0
   -5.9512   20.6355  -32.6142 H   0  0  0  0  0  0  0  0  0  0  0  0
   -8.7859   21.0081  -33.5747 H   0  0  0  0  0  0  0  0  0  0  0  0
   -7.6496   19.5961  -33.7431 H   0  0  0  0  0  0  0  0  0  0  0  0
   -8.0600   16.6978  -33.1288 H   0  0  0  0  0  0  0  0  0  0  0  0
  1  2  1  0
  2  3  1  0
  3  4  2  0
  4  5  1  0
  5  6  1  0
  6  7  1  0
  7  8  1  0
  8  9  1  0
  9 10  1  0
 10 11  1  0
 11 12  2  0
 12 13  1  0
 13 14  2  0
 14 15  1  0
 15 16  2  0
 10 17  1  0
 17 18  1  0
  5 19  2  0
 19 20  1  0
 20  3  1  0
 18  7  1  0
 16 11  1  0
  1 21  1  0
  1 22  1  0
  1 23  1  0
  2 24  1  0
  2 25  1  0
  6 26  1  0
  6 27  1  0
  8 28  1  0
  8 29  1  0
  9 30  1  0
  9 31  1  0
 12 32  1  0
 13 33  1  0
 15 34  1  0
 16 35  1  0
 17 36  1  0
 17 37  1  0
 18 38  1  0
 18 39  1  0
 19 40  1  0
M  END
>  <UniqueID>  (14) 
11

>  <SMILES>  (14) 
CCc1nc(CN2CCN(c3ccncc3)CC2)cs1

>  <Energy>  (14) 
77.42176956172511

>  <Genealogy>  (14) 
CCc1nc(CN2CCN(c3ccncc3)CC2)cs1 (3D coordinates assigned)
CCc1nc(CN2CCN(c3ccncc3)CC2)cs1 (nonaromatic ring conformer: 77.42176956172511 kcal/mol)

>  <smiles>  (14) 
CCc1nc(CN2CCN(c3ccncc3)CC2)cs1

>  <score_type>  (14) 
oracle

>  <origin>  (14) 
adgpu

>  <m_score__min__energy>  (14) 
-7.1299999999999999

>  <m_primary>  (14) 
energy

$$$$
14:0
     RDKit          3D

 66 69  0  0  0  0  0  0  0  0999 V2000
   -0.9321   20.5669  -28.5623 H   0  0  0  0  0  0  0  0  0  0  0  0
   -1.4880   21.0950  -29.3510 C   0  0  0  0  0  0  0  0  0  0  0  0
   -1.8940   22.4160  -29.1490 C   0  0  0  0  0  0  0  0  0  0  0  0
   -1.6499   22.9253  -28.2050 H   0  0  0  0  0  0  0  0  0  0  0  0
   -2.6130   23.0980  -30.1460 C   0  0  0  0  0  0  0  0  0  0  0  0
   -3.0990   24.4810  -29.9230 C   0  0  0  0  0  0  0  0  0  0  0  0
   -2.3770   25.2960  -29.2880 O   0  0  0  0  0  0  0  0  0  0  0  0
   -4.3800   24.9200  -30.3990 N   0  0  0  0  0  0  0  0  0  0  0  0
   -5.4450   24.0580  -30.8260 C   0  0  0  0  0  0  0  0  0  0  0  0
   -5.5010   23.5580  -32.1390 C   0  0  0  0  0  0  0  0  0  0  0  0
   -4.7665   23.8943  -32.8856 H   0  0  0  0  0  0  0  0  0  0  0  0
   -6.4860   22.6360  -32.4980 C   0  0  0  0  0  0  0  0  0  0  0  0
   -6.5180   22.2380  -33.5230 H   0  0  0  0  0  0  0  0  0  0  0  0
   -7.4330   22.2170  -31.5560 C   0  0  0  0  0  0  0  0  0  0  0  0
   -8.5320   20.9030  -31.9580 S   0  0  0  0  0  0  0  0  0  0  0  0
   -8.7040   19.9700  -30.7930 O   0  0  0  0  0  0  0  0  0  0  0  0
   -9.8690   21.4810  -32.3190 O   0  0  0  0  0  0  0  0  0  0  0  0
   -7.8980   20.0180  -33.3170 N   0  0  0  0  0  0  0  0  0  0  0  0
   -8.3470   20.2290  -34.2350 H   0  0  0  0  0  0  0  0  0  0  0  0
   -6.8830   19.1890  -33.2850 C   0  0  0  0  0  0  0  0  0  0  0  0
   -6.3870   18.6790  -34.5380 N   0  0  0  0  0  0  0  0  0  0  0  0
   -6.8260   18.9980  -35.4320 H   0  0  0  0  0  0  0  0  0  0  0  0
   -5.2450   17.7720  -34.6370 C   0  0  0  0  0  0  0  0  0  0  0  0
   -4.3667   18.2475  -34.1760 H   0  0  0  0  0  0  0  0  0  0  0  0
   -5.0552   17.5615  -35.6999 H   0  0  0  0  0  0  0  0  0  0  0  0
   -5.5330   16.4460  -33.9190 C   0  0  0  0  0  0  0  0  0  0  0  0
   -4.9491   15.6525  -34.4084 H   0  0  0  0  0  0  0  0  0  0  0  0
   -6.6172   16.2734  -33.9871 H   0  0  0  0  0  0  0  0  0  0  0  0
   -5.1740   16.4600  -32.4220 C   0  0  0  0  0  0  0  0  0  0  0  0
   -4.1511   16.8485  -32.3088 H   0  0  0  0  0  0  0  0  0  0  0  0
   -5.2604   15.4286  -32.0494 H   0  0  0  0  0  0  0  0  0  0  0  0
   -6.1270   17.3350  -31.5930 C   0  0  0  0  0  0  0  0  0  0  0  0
   -5.8211   17.2648  -30.5387 H   0  0  0  0  0  0  0  0  0  0  0  0
   -7.1384   16.9486  -31.7873 H   0  0  0  0  0  0  0  0  0  0  0  0
   -6.1620   18.8370  -31.9820 C   0  0  0  0  0  0  0  0  0  0  0  0
   -5.1217   19.1831  -32.0718 H   0  0  0  0  0  0  0  0  0  0  0  0
   -6.7409   19.3298  -31.1871 H   0  0  0  0  0  0  0  0  0  0  0  0
   -7.4280   22.7750  -30.2700 C   0  0  0  0  0  0  0  0  0  0  0  0
   -8.2007   22.4856  -29.5425 H   0  0  0  0  0  0  0  0  0  0  0  0
   -6.4420   23.6990  -29.9110 C   0  0  0  0  0  0  0  0  0  0  0  0
   -6.4496   24.1456  -28.9058 H   0  0  0  0  0  0  0  0  0  0  0  0
   -2.8840   22.4470  -31.3590 C   0  0  0  0  0  0  0  0  0  0  0  0
   -3.4181   22.9835  -32.1570 H   0  0  0  0  0  0  0  0  0  0  0  0
   -2.4810   21.1190  -31.5650 C   0  0  0  0  0  0  0  0  0  0  0  0
   -2.9300   20.3240  -33.0780 S   0  0  0  0  0  0  0  0  0  0  0  0
   -3.1670   18.8650  -32.7950 O   0  0  0  0  0  0  0  0  0  0  0  0
   -4.1960   20.9120  -33.6380 O   0  0  0  0  0  0  0  0  0  0  0  0
   -1.6290   20.4990  -34.2320 N   0  0  0  0  0  0  0  0  0  0  0  0
   -2.0610   20.8670  -35.1140 H   0  0  0  0  0  0  0  0  0  0  0  0
   -0.6700   21.5220  -33.7470 C   0  0  0  0  0  0  0  0  0  0  0  0
   -1.0918   22.5216  -33.9283 H   0  0  0  0  0  0  0  0  0  0  0  0
   -0.5029   21.3562  -32.6725 H   0  0  0  0  0  0  0  0  0  0  0  0
    0.6800   21.4130  -34.4660 C   0  0  0  0  0  0  0  0  0  0  0  0
    0.5204   21.5213  -35.5490 H   0  0  0  0  0  0  0  0  0  0  0  0
    1.3411   22.2087  -34.0921 H   0  0  0  0  0  0  0  0  0  0  0  0
    1.3450   20.0530  -34.1890 C   0  0  0  0  0  0  0  0  0  0  0  0
    1.8935   19.7395  -35.0895 H   0  0  0  0  0  0  0  0  0  0  0  0
    2.0168   20.1810  -33.3275 H   0  0  0  0  0  0  0  0  0  0  0  0
    0.3270   18.9570  -33.8260 C   0  0  0  0  0  0  0  0  0  0  0  0
    0.7336   17.9780  -34.1198 H   0  0  0  0  0  0  0  0  0  0  0  0
    0.1483   18.9928  -32.7412 H   0  0  0  0  0  0  0  0  0  0  0  0
   -1.0100   19.1810  -34.5470 C   0  0  0  0  0  0  0  0  0  0  0  0
   -0.8365   19.1258  -35.6318 H   0  0  0  0  0  0  0  0  0  0  0  0
   -1.7043   18.4010  -34.2013 H   0  0  0  0  0  0  0  0  0  0  0  0
   -1.7840   20.4410  -30.5490 C   0  0  0  0  0  0  0  0  0  0  0  0
   -1.3980   19.1500  -30.7040 F   0  0  0  0  0  0  0  0  0  0  0  0
  1  2  1  0
  2  3  2  0
  3  4  1  0
  3  5  1  0
  5  6  1  0
  6  7  2  0
  6  8  1  0
  8  9  1  0
  9 10  2  0
 10 11  1  0
 10 12  1  0
 12 13  1  0
 12 14  2  0
 14 15  1  0
 15 16  2  0
 15 17  2  0
 15 18  1  0
 18 19  1  0
 18 20  2  0
 20 21  1  0
 21 22  1  0
 21 23  1  0
 23 24  1  0
 23 25  1  0
 23 26  1  0
 26 27  1  0
 26 28  1  0
 26 29  1  0
 29 30  1  0
 29 31  1  0
 29 32  1  0
 32 33  1  0
 32 34  1  0
 32 35  1  0
 35 36  1  0
 35 37  1  0
 14 38  1  0
 38 39  1  0
 38 40  2  0
 40 41  1  0
  5 42  2  0
 42 43  1  0
 42 44  1  0
 44 45  1  0
 45 46  2  0
 45 47  2  0
 45 48  1  0
 48 49  1  0
 48 50  1  0
 50 51  1  0
 50 52  1  0
 50 53  1  0
 53 54  1  0
 53 55  1  0
 53 56  1  0
 56 57  1  0
 56 58  1  0
 56 59  1  0
 59 60  1  0
 59 61  1  0
 59 62  1  0
 62 63  1  0
 62 64  1  0
 44 65  2  0
 65 66  1  0
 65  2  1  0
 40  9  1  0
 62 48  1  0
 35 20  1  0
M  CHG  3   8  -1  18   1  48   1
M  END
>  <UniqueID>  (15) 
12

>  <SMILES>  (15) 
O=C([N-]c1ccc(S(=O)(=O)/[NH+]=C2\CCCCCN2)cc1)c1ccc(F)c(S(=O)(=O)[NH+]2CCCCC2)c1

>  <Energy>  (15) 
87.62924729800785

>  <Genealogy>  (15) 
O=C([N-]c1ccc(S(=O)(=O)[NH+]=C2CCCCCN2)cc1)c1ccc(F)c(S(=O)(=O)[NH+]2CCCCC2)c1 (protonated)
O=C([N-]c1ccc(S(=O)(=O)/[NH+]=C2\CCCCCN2)cc1)c1ccc(F)c(S(=O)(=O)[NH+]2CCCCC2)c1 (cis-trans isomerization)
O=C([N-]c1ccc(S(=O)(=O)/[NH+]=C2\CCCCCN2)cc1)c1ccc(F)c(S(=O)(=O)[NH+]2CCCCC2)c1 (3D coordinates assigned)
O=C([N-]c1ccc(S(=O)(=O)/[NH+]=C2\CCCCCN2)cc1)c1ccc(F)c(S(=O)(=O)[NH+]2CCCCC2)c1 (nonaromatic ring conformer: 87.62924729800785 kcal/mol)

>  <smiles>  (15) 
O=C(Nc1ccc(S(=O)(=O)N=C2CCCCCN2)cc1)c1ccc(F)c(S(=O)(=O)N2CCCCC2)c1

>  <score_type>  (15) 
oracle

>  <origin>  (15) 
adgpu

>  <m_score__min__energy>  (15) 
-11.460000000000001

>  <m_primary>  (15) 
energy

$$$$
15:0
     RDKit          3D

 52 54  0  0  0  0  0  0  0  0999 V2000
   -0.3950   19.1660  -28.3940 C   0  0  0  0  0  0  0  0  0  0  0  0
   -0.7410   20.1730  -29.3380 O   0  0  0  0  0  0  0  0  0  0  0  0
   -1.6770   21.1920  -29.1040 C   0  0  0  0  0  0  0  0  0  0  0  0
   -1.6480   22.3220  -29.9280 C   0  0  0  0  0  0  0  0  0  0  0  0
   -2.5580   23.3650  -29.7350 C   0  0  0  0  0  0  0  0  0  0  0  0
   -3.5320   23.2760  -28.7340 C   0  0  0  0  0  0  0  0  0  0  0  0
   -4.4570   24.3520  -28.5670 N   0  0  0  0  0  0  0  0  0  0  0  0
   -5.3640   25.0390  -29.8740 S   0  0  0  0  0  0  0  0  0  0  0  0
   -4.4100   25.6540  -30.8550 O   0  0  0  0  0  0  0  0  0  0  0  0
   -6.2930   26.1110  -29.3830 O   0  0  0  0  0  0  0  0  0  0  0  0
   -6.2780   23.7540  -30.6540 C   0  0  0  0  0  0  0  0  0  0  0  0
   -7.0600   22.8900  -29.8770 C   0  0  0  0  0  0  0  0  0  0  0  0
   -7.7180   21.8080  -30.4720 C   0  0  0  0  0  0  0  0  0  0  0  0
   -7.6060   21.5870  -31.8510 C   0  0  0  0  0  0  0  0  0  0  0  0
   -8.2210   20.3640  -32.4690 C   0  0  0  0  0  0  0  0  0  0  0  0
   -7.2600   19.3100  -32.4630 O   0  0  0  0  0  0  0  0  0  0  0  0
   -5.8770   19.4950  -32.6000 C   0  0  0  0  0  0  0  0  0  0  0  0
   -5.1070   20.0510  -31.5650 C   0  0  0  0  0  0  0  0  0  0  0  0
   -3.7260   20.2040  -31.7100 C   0  0  0  0  0  0  0  0  0  0  0  0
   -3.0930   19.7950  -32.8880 C   0  0  0  0  0  0  0  0  0  0  0  0
   -1.3450   19.9800  -33.0440 S   0  0  0  0  0  0  0  0  0  0  0  0
   -0.5510   19.1520  -31.7490 N   0  0  0  0  0  0  0  0  0  0  0  0
   -0.9680   21.4320  -33.0000 O   0  0  0  0  0  0  0  0  0  0  0  0
   -0.8990   19.4030  -34.3580 O   0  0  0  0  0  0  0  0  0  0  0  0
   -3.8520   19.2390  -33.9260 C   0  0  0  0  0  0  0  0  0  0  0  0
   -5.2380   19.0700  -33.7830 C   0  0  0  0  0  0  0  0  0  0  0  0
   -6.0520   18.5330  -34.9270 C   0  0  0  0  0  0  0  0  0  0  0  0
   -6.8200   22.4520  -32.6280 C   0  0  0  0  0  0  0  0  0  0  0  0
   -6.1610   23.5300  -32.0310 C   0  0  0  0  0  0  0  0  0  0  0  0
   -3.5600   22.1530  -27.8970 C   0  0  0  0  0  0  0  0  0  0  0  0
   -2.6380   21.1170  -28.0770 C   0  0  0  0  0  0  0  0  0  0  0  0
   -0.5294   19.5572  -27.3747 H   0  0  0  0  0  0  0  0  0  0  0  0
   -1.0435   18.2893  -28.5388 H   0  0  0  0  0  0  0  0  0  0  0  0
    0.6553   18.8730  -28.5388 H   0  0  0  0  0  0  0  0  0  0  0  0
   -0.9029   22.3902  -30.7344 H   0  0  0  0  0  0  0  0  0  0  0  0
   -2.5085   24.2599  -30.3727 H   0  0  0  0  0  0  0  0  0  0  0  0
   -7.1572   23.0627  -28.7950 H   0  0  0  0  0  0  0  0  0  0  0  0
   -8.3250   21.1289  -29.8553 H   0  0  0  0  0  0  0  0  0  0  0  0
   -9.1046   20.0613  -31.8879 H   0  0  0  0  0  0  0  0  0  0  0  0
   -8.5275   20.5828  -33.5025 H   0  0  0  0  0  0  0  0  0  0  0  0
   -5.5957   20.3687  -30.6322 H   0  0  0  0  0  0  0  0  0  0  0  0
   -3.1348   20.6475  -30.8952 H   0  0  0  0  0  0  0  0  0  0  0  0
   -1.2800   18.9240  -31.0370 H   0  0  0  0  0  0  0  0  0  0  0  0
    0.1010   19.8350  -31.3030 H   0  0  0  0  0  0  0  0  0  0  0  0
   -3.3581   18.9326  -34.8599 H   0  0  0  0  0  0  0  0  0  0  0  0
   -6.9094   17.9674  -34.5333 H   0  0  0  0  0  0  0  0  0  0  0  0
   -6.4157   19.3690  -35.5424 H   0  0  0  0  0  0  0  0  0  0  0  0
   -5.4266   17.8696  -35.5424 H   0  0  0  0  0  0  0  0  0  0  0  0
   -6.7224   22.2809  -33.7102 H   0  0  0  0  0  0  0  0  0  0  0  0
   -5.5477   24.2054  -32.6456 H   0  0  0  0  0  0  0  0  0  0  0  0
   -4.3100   22.0858  -27.0952 H   0  0  0  0  0  0  0  0  0  0  0  0
   -2.6634   20.2398  -27.4137 H   0  0  0  0  0  0  0  0  0  0  0  0
  1  2  1  0
  2  3  1  0
  3  4  2  0
  4  5  1  0
  5  6  2  0
  6  7  1  0
  7  8  1  0
  8  9  2  0
  8 10  2  0
  8 11  1  0
 11 12  2  0
 12 13  1  0
 13 14  2  0
 14 15  1  0
 15 16  1  0
 16 17  1  0
 17 18  2  0
 18 19  1  0
 19 20  2  0
 20 21  1  0
 21 22  1  0
 21 23  2  0
 21 24  2  0
 20 25  1  0
 25 26  2  0
 26 27  1  0
 14 28  1  0
 28 29  2  0
  6 30  1  0
 30 31  2  0
 31  3  1  0
 29 11  1  0
 26 17  1  0
  1 32  1  0
  1 33  1  0
  1 34  1  0
  4 35  1  0
  5 36  1  0
 12 37  1  0
 13 38  1  0
 15 39  1  0
 15 40  1  0
 18 41  1  0
 19 42  1  0
 22 43  1  0
 22 44  1  0
 25 45  1  0
 27 46  1  0
 27 47  1  0
 27 48  1  0
 28 49  1  0
 29 50  1  0
 30 51  1  0
 31 52  1  0
M  CHG  1   7  -1
M  END
>  <UniqueID>  (16) 
13

>  <SMILES>  (16) 
COc1ccc([N-]S(=O)(=O)c2ccc(COc3ccc(S(N)(=O)=O)cc3C)cc2)cc1

>  <Energy>  (16) 
62.85306001090494

>  <Genealogy>  (16) 
COc1ccc([N-]S(=O)(=O)c2ccc(COc3ccc(S(N)(=O)=O)cc3C)cc2)cc1 (protonated)
COc1ccc([N-]S(=O)(=O)c2ccc(COc3ccc(S(N)(=O)=O)cc3C)cc2)cc1 (3D coordinates assigned)
COc1ccc([N-]S(=O)(=O)c2ccc(COc3ccc(S(N)(=O)=O)cc3C)cc2)cc1 (optimized conformer: 62.85306001090494 kcal/mol)

>  <smiles>  (16) 
COc1ccc(NS(=O)(=O)c2ccc(COc3ccc(S(N)(=O)=O)cc3C)cc2)cc1

>  <score_type>  (16) 
oracle

>  <origin>  (16) 
adgpu

>  <m_score__min__energy>  (16) 
-10.130000000000001

>  <m_primary>  (16) 
energy

$$$$
16:0
     RDKit          3D

 46 48  0  0  0  0  0  0  0  0999 V2000
   -4.5400   17.2820  -35.3270 C   0  0  0  0  0  0  0  0  0  0  0  0
   -5.4220   17.7640  -34.2050 C   0  0  0  0  0  0  0  0  0  0  0  0
   -5.1360   18.9930  -33.5840 C   0  0  0  0  0  0  0  0  0  0  0  0
   -5.9330   19.4740  -32.5310 C   0  0  0  0  0  0  0  0  0  0  0  0
   -5.6240   20.7750  -31.8830 C   0  0  0  0  0  0  0  0  0  0  0  0
   -4.3190   21.2990  -31.9160 C   0  0  0  0  0  0  0  0  0  0  0  0
   -4.0300   22.5230  -31.3090 C   0  0  0  0  0  0  0  0  0  0  0  0
   -5.0400   23.2450  -30.6620 C   0  0  0  0  0  0  0  0  0  0  0  0
   -4.6760   24.7930  -29.9070 S   0  0  0  0  0  0  0  0  0  0  0  0
   -5.9630   25.4790  -29.5470 O   0  0  0  0  0  0  0  0  0  0  0  0
   -3.9040   25.6700  -30.8530 O   0  0  0  0  0  0  0  0  0  0  0  0
   -3.7370   24.5480  -28.4670 N   0  0  0  0  0  0  0  0  0  0  0  0
   -3.0310   23.3260  -28.1730 C   0  0  0  0  0  0  0  0  0  0  0  0
   -3.7250   22.0990  -28.1170 C   0  0  0  0  0  0  0  0  0  0  0  0
   -3.0570   20.9160  -27.8020 C   0  0  0  0  0  0  0  0  0  0  0  0
   -1.6910   20.9340  -27.5350 C   0  0  0  0  0  0  0  0  0  0  0  0
   -0.9840   22.1350  -27.5850 C   0  0  0  0  0  0  0  0  0  0  0  0
   -1.6380   23.3370  -27.9050 C   0  0  0  0  0  0  0  0  0  0  0  0
   -0.6850   24.8270  -27.9900 S   0  0  0  0  0  0  0  0  0  0  0  0
   -1.2380   25.7900  -29.3150 N   0  0  0  0  0  0  0  0  0  0  0  0
   -0.8350   25.6150  -26.7190 O   0  0  0  0  0  0  0  0  0  0  0  0
    0.7670   24.4880  -28.1750 O   0  0  0  0  0  0  0  0  0  0  0  0
   -6.3410   22.7280  -30.6200 C   0  0  0  0  0  0  0  0  0  0  0  0
   -6.6320   21.5040  -31.2260 C   0  0  0  0  0  0  0  0  0  0  0  0
   -7.0250   18.7070  -32.1000 C   0  0  0  0  0  0  0  0  0  0  0  0
   -7.3180   17.4850  -32.7080 C   0  0  0  0  0  0  0  0  0  0  0  0
   -6.5270   17.0020  -33.7600 C   0  0  0  0  0  0  0  0  0  0  0  0
   -6.8600   15.7420  -34.3590 N   0  0  0  0  0  0  0  0  0  0  0  0
   -3.6475   16.7942  -34.9081 H   0  0  0  0  0  0  0  0  0  0  0  0
   -5.0949   16.5618  -35.9461 H   0  0  0  0  0  0  0  0  0  0  0  0
   -4.2335   18.1380  -35.9461 H   0  0  0  0  0  0  0  0  0  0  0  0
   -4.2759   19.5865  -33.9275 H   0  0  0  0  0  0  0  0  0  0  0  0
   -3.5195   20.7400  -32.4242 H   0  0  0  0  0  0  0  0  0  0  0  0
   -3.0051   22.9213  -31.3393 H   0  0  0  0  0  0  0  0  0  0  0  0
   -3.6860   25.3560  -27.8110 H   0  0  0  0  0  0  0  0  0  0  0  0
   -4.8051   22.0751  -28.3241 H   0  0  0  0  0  0  0  0  0  0  0  0
   -3.6109   19.9664  -27.7644 H   0  0  0  0  0  0  0  0  0  0  0  0
   -1.1683   19.9992  -27.2841 H   0  0  0  0  0  0  0  0  0  0  0  0
    0.0952   22.1415  -27.3721 H   0  0  0  0  0  0  0  0  0  0  0  0
   -2.0490   25.2860  -29.7400 H   0  0  0  0  0  0  0  0  0  0  0  0
   -7.1368   23.2884  -30.1076 H   0  0  0  0  0  0  0  0  0  0  0  0
   -7.6571   21.1068  -31.1894 H   0  0  0  0  0  0  0  0  0  0  0  0
   -7.6560   19.0713  -31.2759 H   0  0  0  0  0  0  0  0  0  0  0  0
   -8.1781   16.8952  -32.3582 H   0  0  0  0  0  0  0  0  0  0  0  0
   -7.5980   15.6850  -35.0970 H   0  0  0  0  0  0  0  0  0  0  0  0
   -6.3880   14.8530  -34.0860 H   0  0  0  0  0  0  0  0  0  0  0  0
  1  2  1  0
  2  3  2  0
  3  4  1  0
  4  5  1  0
  5  6  2  0
  6  7  1  0
  7  8  2  0
  8  9  1  0
  9 10  2  0
  9 11  2  0
  9 12  1  0
 12 13  1  0
 13 14  2  0
 14 15  1  0
 15 16  2  0
 16 17  1  0
 17 18  2  0
 18 19  1  0
 19 20  1  0
 19 21  2  0
 19 22  2  0
  8 23  1  0
 23 24  2  0
  4 25  2  0
 25 26  1  0
 26 27  2  0
 27 28  1  0
 27  2  1  0
 24  5  1  0
 18 13  1  0
  1 29  1  0
  1 30  1  0
  1 31  1  0
  3 32  1  0
  6 33  1  0
  7 34  1  0
 12 35  1  0
 14 36  1  0
 15 37  1  0
 16 38  1  0
 17 39  1  0
 20 40  1  0
 23 41  1  0
 24 42  1  0
 25 43  1  0
 26 44  1  0
 28 45  1  0
 28 46  1  0
M  CHG  1  20  -1
M  END
>  <UniqueID>  (17) 
14

>  <SMILES>  (17) 
Cc1cc(-c2ccc(S(=O)(=O)Nc3ccccc3S([NH-])(=O)=O)cc2)ccc1N

>  <Energy>  (17) 
59.27661248787063

>  <Genealogy>  (17) 
Cc1cc(-c2ccc(S(=O)(=O)Nc3ccccc3S([NH-])(=O)=O)cc2)ccc1N (protonated)
Cc1cc(-c2ccc(S(=O)(=O)Nc3ccccc3S([NH-])(=O)=O)cc2)ccc1N (3D coordinates assigned)
Cc1cc(-c2ccc(S(=O)(=O)Nc3ccccc3S([NH-])(=O)=O)cc2)ccc1N (optimized conformer: 59.27661248787063 kcal/mol)

>  <smiles>  (17) 
Cc1cc(-c2ccc(S(=O)(=O)Nc3ccccc3S(N)(=O)=O)cc2)ccc1N

>  <score_type>  (17) 
oracle

>  <origin>  (17) 
adgpu

>  <m_score__min__energy>  (17) 
-12.470000000000001

>  <m_primary>  (17) 
energy

$$$$
17:0
     RDKit          3D

 39 41  0  0  0  0  0  0  0  0999 V2000
   -0.1030   24.7330  -28.1030 O   0  0  0  0  0  0  0  0  0  0  0  0
   -1.5390   24.2890  -28.0630 S   0  0  0  0  0  0  0  0  0  0  0  0
   -2.2150   24.9260  -26.8820 O   0  0  0  0  0  0  0  0  0  0  0  0
   -2.3350   24.7890  -29.5210 N   0  0  0  0  0  0  0  0  0  0  0  0
   -3.4850   24.1250  -30.0740 C   0  0  0  0  0  0  0  0  0  0  0  0
   -4.7960   24.5610  -29.8080 C   0  0  0  0  0  0  0  0  0  0  0  0
   -5.8910   23.9000  -30.3720 C   0  0  0  0  0  0  0  0  0  0  0  0
   -5.6990   22.7900  -31.2120 C   0  0  0  0  0  0  0  0  0  0  0  0
   -6.8300   22.1030  -31.7840 N   0  0  0  0  0  0  0  0  0  0  0  0
   -8.1930   22.6240  -31.6120 C   0  0  0  0  0  0  0  0  0  0  0  0
   -9.0970   21.5610  -30.9670 C   0  0  0  0  0  0  0  0  0  0  0  0
   -8.7820   20.1220  -31.4360 C   0  0  0  0  0  0  0  0  0  0  0  0
   -7.9460   20.0880  -32.7210 C   0  0  0  0  0  0  0  0  0  0  0  0
   -6.6250   20.8450  -32.5190 C   0  0  0  0  0  0  0  0  0  0  0  0
   -4.3920   22.3430  -31.4610 C   0  0  0  0  0  0  0  0  0  0  0  0
   -3.2980   23.0050  -30.8990 C   0  0  0  0  0  0  0  0  0  0  0  0
   -1.6350   22.5460  -27.8980 C   0  0  0  0  0  0  0  0  0  0  0  0
   -2.7950   21.8120  -27.6980 C   0  0  0  0  0  0  0  0  0  0  0  0
   -2.5570   20.4380  -27.5760 C   0  0  0  0  0  0  0  0  0  0  0  0
   -1.2130   20.1060  -27.6790 C   0  0  0  0  0  0  0  0  0  0  0  0
   -0.4880   18.3480  -27.5590 Br  0  0  0  0  0  0  0  0  0  0  0  0
   -0.3140   21.5060  -27.9210 S   0  0  0  0  0  0  0  0  0  0  0  0
   -1.9970   25.6720  -29.9640 H   0  0  0  0  0  0  0  0  0  0  0  0
   -4.9605   25.4282  -29.1516 H   0  0  0  0  0  0  0  0  0  0  0  0
   -6.9108   24.2515  -30.1566 H   0  0  0  0  0  0  0  0  0  0  0  0
   -8.1619   23.5135  -30.9657 H   0  0  0  0  0  0  0  0  0  0  0  0
   -8.6010   22.8873  -32.5990 H   0  0  0  0  0  0  0  0  0  0  0  0
   -8.9674   21.6085  -29.8757 H   0  0  0  0  0  0  0  0  0  0  0  0
  -10.1299   21.7838  -31.2726 H   0  0  0  0  0  0  0  0  0  0  0  0
   -8.2248   19.6065  -30.6399 H   0  0  0  0  0  0  0  0  0  0  0  0
   -9.7398   19.6250  -31.6496 H   0  0  0  0  0  0  0  0  0  0  0  0
   -7.7282   19.0424  -32.9844 H   0  0  0  0  0  0  0  0  0  0  0  0
   -8.5143   20.5705  -33.5299 H   0  0  0  0  0  0  0  0  0  0  0  0
   -5.9316   20.2080  -31.9503 H   0  0  0  0  0  0  0  0  0  0  0  0
   -6.2121   21.0878  -33.5092 H   0  0  0  0  0  0  0  0  0  0  0  0
   -4.2281   21.4651  -32.1033 H   0  0  0  0  0  0  0  0  0  0  0  0
   -2.2793   22.6448  -31.1051 H   0  0  0  0  0  0  0  0  0  0  0  0
   -3.7969   22.2625  -27.6412 H   0  0  0  0  0  0  0  0  0  0  0  0
   -3.3537   19.6969  -27.4149 H   0  0  0  0  0  0  0  0  0  0  0  0
  1  2  2  0
  2  3  2  0
  2  4  1  0
  4  5  1  0
  5  6  2  0
  6  7  1  0
  7  8  2  0
  8  9  1  0
  9 10  1  0
 10 11  1  0
 11 12  1  0
 12 13  1  0
 13 14  1  0
  8 15  1  0
 15 16  2  0
  2 17  1  0
 17 18  2  0
 18 19  1  0
 19 20  2  0
 20 21  1  0
 20 22  1  0
 16  5  1  0
 22 17  1  0
 14  9  1  0
  4 23  1  0
  6 24  1  0
  7 25  1  0
 10 26  1  0
 10 27  1  0
 11 28  1  0
 11 29  1  0
 12 30  1  0
 12 31  1  0
 13 32  1  0
 13 33  1  0
 14 34  1  0
 14 35  1  0
 15 36  1  0
 16 37  1  0
 18 38  1  0
 19 39  1  0
M  END
>  <UniqueID>  (18) 
15

>  <SMILES>  (18) 
O=S(=O)(Nc1ccc(N2CCCCC2)cc1)c1ccc(Br)s1

>  <Energy>  (18) 
74.04814321187662

>  <Genealogy>  (18) 
O=S(=O)(Nc1ccc(N2CCCCC2)cc1)c1ccc(Br)s1 (3D coordinates assigned)
O=S(=O)(Nc1ccc(N2CCCCC2)cc1)c1ccc(Br)s1 (nonaromatic ring conformer: 74.04814321187662 kcal/mol)

>  <smiles>  (18) 
O=S(=O)(Nc1ccc(N2CCCCC2)cc1)c1ccc(Br)s1

>  <score_type>  (18) 
oracle

>  <origin>  (18) 
adgpu

>  <m_score__min__energy>  (18) 
-8.8499999999999996

>  <m_primary>  (18) 
energy

$$$$
18:0
     RDKit          3D

 39 40  0  0  0  0  0  0  0  0999 V2000
   -0.8620   26.6980  -27.8520 C   0  0  0  0  0  0  0  0  0  0  0  0
   -1.4750   26.0170  -28.9420 O   0  0  0  0  0  0  0  0  0  0  0  0
   -1.7050   24.6330  -28.9870 C   0  0  0  0  0  0  0  0  0  0  0  0
   -0.8880   23.7170  -28.2950 C   0  0  0  0  0  0  0  0  0  0  0  0
   -1.1420   22.3460  -28.3730 C   0  0  0  0  0  0  0  0  0  0  0  0
   -2.2040   21.8740  -29.1430 C   0  0  0  0  0  0  0  0  0  0  0  0
   -3.0240   22.7710  -29.8300 C   0  0  0  0  0  0  0  0  0  0  0  0
   -2.7920   24.1580  -29.7430 C   0  0  0  0  0  0  0  0  0  0  0  0
   -3.5930   25.1030  -30.4700 N   0  0  0  0  0  0  0  0  0  0  0  0
   -5.0230   25.1900  -30.4610 C   0  0  0  0  0  0  0  0  0  0  0  0
   -5.6010   26.3110  -30.4880 O   0  0  0  0  0  0  0  0  0  0  0  0
   -5.8420   23.9380  -30.4750 C   0  0  0  0  0  0  0  0  0  0  0  0
   -6.8600   23.8120  -31.9890 S   0  0  0  0  0  0  0  0  0  0  0  0
   -6.4880   22.0780  -32.2940 C   0  0  0  0  0  0  0  0  0  0  0  0
   -5.2300   21.7400  -32.6830 N   0  0  0  0  0  0  0  0  0  0  0  0
   -4.8780   20.4590  -32.9670 C   0  0  0  0  0  0  0  0  0  0  0  0
   -3.4750   20.1460  -33.3770 C   0  0  0  0  0  0  0  0  0  0  0  0
   -5.8270   19.4370  -32.8550 C   0  0  0  0  0  0  0  0  0  0  0  0
   -7.1340   19.7410  -32.4480 C   0  0  0  0  0  0  0  0  0  0  0  0
   -8.1510   18.6360  -32.3230 C   0  0  0  0  0  0  0  0  0  0  0  0
   -7.4680   21.0780  -32.1470 C   0  0  0  0  0  0  0  0  0  0  0  0
   -8.7880   21.4160  -31.6610 C   0  0  0  0  0  0  0  0  0  0  0  0
   -9.8440   21.6850  -31.2710 N   0  0  0  0  0  0  0  0  0  0  0  0
   -1.2353   26.2833  -26.9040 H   0  0  0  0  0  0  0  0  0  0  0  0
    0.2289   26.5675  -27.9050 H   0  0  0  0  0  0  0  0  0  0  0  0
   -1.1061   27.7693  -27.9050 H   0  0  0  0  0  0  0  0  0  0  0  0
   -0.0456   24.0838  -27.6901 H   0  0  0  0  0  0  0  0  0  0  0  0
   -0.5030   21.6373  -27.8259 H   0  0  0  0  0  0  0  0  0  0  0  0
   -2.3962   20.7930  -29.2094 H   0  0  0  0  0  0  0  0  0  0  0  0
   -3.8557   22.3929  -30.4426 H   0  0  0  0  0  0  0  0  0  0  0  0
   -5.1676   23.0704  -30.4257 H   0  0  0  0  0  0  0  0  0  0  0  0
   -6.5186   23.9613  -29.6080 H   0  0  0  0  0  0  0  0  0  0  0  0
   -2.8532   20.0073  -32.4802 H   0  0  0  0  0  0  0  0  0  0  0  0
   -3.4652   19.2236  -33.9762 H   0  0  0  0  0  0  0  0  0  0  0  0
   -3.0741   20.9768  -33.9762 H   0  0  0  0  0  0  0  0  0  0  0  0
   -5.5486   18.3981  -33.0855 H   0  0  0  0  0  0  0  0  0  0  0  0
   -8.3402   18.4304  -31.2591 H   0  0  0  0  0  0  0  0  0  0  0  0
   -9.0884   18.9437  -32.8093 H   0  0  0  0  0  0  0  0  0  0  0  0
   -7.7667   17.7273  -32.8093 H   0  0  0  0  0  0  0  0  0  0  0  0
  1  2  1  0
  2  3  1  0
  3  4  2  0
  4  5  1  0
  5  6  2  0
  6  7  1  0
  7  8  2  0
  8  9  1  0
  9 10  1  0
 10 11  2  0
 10 12  1  0
 12 13  1  0
 13 14  1  0
 14 15  2  0
 15 16  1  0
 16 17  1  0
 16 18  2  0
 18 19  1  0
 19 20  1  0
 19 21  2  0
 21 22  1  0
 22 23  3  0
  8  3  1  0
 21 14  1  0
  1 24  1  0
  1 25  1  0
  1 26  1  0
  4 27  1  0
  5 28  1  0
  6 29  1  0
  7 30  1  0
 12 31  1  0
 12 32  1  0
 17 33  1  0
 17 34  1  0
 17 35  1  0
 18 36  1  0
 20 37  1  0
 20 38  1  0
 20 39  1  0
M  CHG  1   9  -1
M  END
>  <UniqueID>  (19) 
16

>  <SMILES>  (19) 
COc1ccccc1[N-]C(=O)CSc1nc(C)cc(C)c1C#N

>  <Energy>  (19) 
35.975781746090426

>  <Genealogy>  (19) 
COc1ccccc1[N-]C(=O)CSc1nc(C)cc(C)c1C#N (protonated)
COc1ccccc1[N-]C(=O)CSc1nc(C)cc(C)c1C#N (3D coordinates assigned)
COc1ccccc1[N-]C(=O)CSc1nc(C)cc(C)c1C#N (optimized conformer: 35.975781746090426 kcal/mol)

>  <smiles>  (19) 
COc1ccccc1NC(=O)CSc1nc(C)cc(C)c1C#N

>  <score_type>  (19) 
oracle

>  <origin>  (19) 
adgpu

>  <m_score__min__energy>  (19) 
-10.949999999999999

>  <m_primary>  (19) 
energy

$$$$
19:0
     RDKit          3D

 33 34  0  0  0  0  0  0  0  0999 V2000
   -1.0520   26.4300  -26.6570 C   0  0  0  0  0  0  0  0  0  0  0  0
   -0.8600   25.7120  -27.9580 C   0  0  0  0  0  0  0  0  0  0  0  0
    0.2430   25.1510  -28.1880 O   0  0  0  0  0  0  0  0  0  0  0  0
   -1.8790   25.6750  -28.9660 N   0  0  0  0  0  0  0  0  0  0  0  0
   -2.5720   24.5100  -29.4360 C   0  0  0  0  0  0  0  0  0  0  0  0
   -1.9210   23.2720  -29.5730 C   0  0  0  0  0  0  0  0  0  0  0  0
   -2.6200   22.1610  -30.0550 C   0  0  0  0  0  0  0  0  0  0  0  0
   -3.9640   22.2800  -30.4150 C   0  0  0  0  0  0  0  0  0  0  0  0
   -4.6150   23.5160  -30.3050 C   0  0  0  0  0  0  0  0  0  0  0  0
   -6.3170   23.6470  -30.7390 S   0  0  0  0  0  0  0  0  0  0  0  0
   -7.1860   23.0030  -29.6960 O   0  0  0  0  0  0  0  0  0  0  0  0
   -6.6780   25.1010  -30.8460 O   0  0  0  0  0  0  0  0  0  0  0  0
   -6.5940   22.8700  -32.2660 N   0  0  0  0  0  0  0  0  0  0  0  0
   -7.1580   21.5540  -32.4030 C   0  0  0  0  0  0  0  0  0  0  0  0
   -8.4680   21.3200  -31.9520 C   0  0  0  0  0  0  0  0  0  0  0  0
   -9.0490   20.0560  -32.0830 C   0  0  0  0  0  0  0  0  0  0  0  0
   -8.3260   19.0100  -32.6610 C   0  0  0  0  0  0  0  0  0  0  0  0
   -7.0200   19.2250  -33.1050 C   0  0  0  0  0  0  0  0  0  0  0  0
   -6.1110   17.9100  -33.8290 Cl  0  0  0  0  0  0  0  0  0  0  0  0
   -6.4330   20.4890  -32.9710 C   0  0  0  0  0  0  0  0  0  0  0  0
   -3.9100   24.6320  -29.8300 C   0  0  0  0  0  0  0  0  0  0  0  0
   -0.8664   25.7358  -25.8242 H   0  0  0  0  0  0  0  0  0  0  0  0
   -0.3476   27.2727  -26.5958 H   0  0  0  0  0  0  0  0  0  0  0  0
   -2.0830   26.8087  -26.5958 H   0  0  0  0  0  0  0  0  0  0  0  0
   -0.8595   23.1768  -29.3005 H   0  0  0  0  0  0  0  0  0  0  0  0
   -2.1100   21.1911  -30.1508 H   0  0  0  0  0  0  0  0  0  0  0  0
   -4.5128   21.4017  -30.7857 H   0  0  0  0  0  0  0  0  0  0  0  0
   -6.2310   23.3570  -33.1160 H   0  0  0  0  0  0  0  0  0  0  0  0
   -9.0409   22.1386  -31.4920 H   0  0  0  0  0  0  0  0  0  0  0  0
  -10.0768   19.8845  -31.7306 H   0  0  0  0  0  0  0  0  0  0  0  0
   -8.7859   18.0163  -32.7664 H   0  0  0  0  0  0  0  0  0  0  0  0
   -5.3996   20.6510  -33.3114 H   0  0  0  0  0  0  0  0  0  0  0  0
   -4.4115   25.6090  -29.7667 H   0  0  0  0  0  0  0  0  0  0  0  0
  1  2  1  0
  2  3  2  0
  2  4  1  0
  4  5  1  0
  5  6  2  0
  6  7  1  0
  7  8  2  0
  8  9  1  0
  9 10  1  0
 10 11  2  0
 10 12  2  0
 10 13  1  0
 13 14  1  0
 14 15  2  0
 15 16  1  0
 16 17  2  0
 17 18  1  0
 18 19  1  0
 18 20  2  0
  9 21  2  0
 21  5  1  0
 20 14  1  0
  1 22  1  0
  1 23  1  0
  1 24  1  0
  6 25  1  0
  7 26  1  0
  8 27  1  0
 13 28  1  0
 15 29  1  0
 16 30  1  0
 17 31  1  0
 20 32  1  0
 21 33  1  0
M  CHG  1   4  -1
M  END
>  <UniqueID>  (20) 
17

>  <SMILES>  (20) 
CC(=O)[N-]c1cccc(S(=O)(=O)Nc2cccc(Cl)c2)c1

>  <Energy>  (20) 
38.93898254914031

>  <Genealogy>  (20) 
CC(=O)[N-]c1cccc(S(=O)(=O)Nc2cccc(Cl)c2)c1 (protonated)
CC(=O)[N-]c1cccc(S(=O)(=O)Nc2cccc(Cl)c2)c1 (3D coordinates assigned)
CC(=O)[N-]c1cccc(S(=O)(=O)Nc2cccc(Cl)c2)c1 (optimized conformer: 38.93898254914031 kcal/mol)

>  <smiles>  (20) 
CC(=O)Nc1cccc(S(=O)(=O)Nc2cccc(Cl)c2)c1

>  <score_type>  (20) 
oracle

>  <origin>  (20) 
adgpu

>  <m_score__min__energy>  (20) 
-10.27

>  <m_primary>  (20) 
energy

$$$$
20:0
     RDKit          3D

 49 51  0  0  0  0  0  0  0  0999 V2000
   -7.2250   22.8880  -31.6490 C   0  0  0  0  0  0  0  0  0  0  0  0
   -8.9110   22.2740  -31.9670 S   0  0  0  0  0  0  0  0  0  0  0  0
   -8.3610   20.5880  -32.2460 C   0  0  0  0  0  0  0  0  0  0  0  0
   -9.1150   19.5150  -31.7630 C   0  0  0  0  0  0  0  0  0  0  0  0
   -8.6780   18.2030  -31.9670 C   0  0  0  0  0  0  0  0  0  0  0  0
   -7.5080   17.9580  -32.6960 C   0  0  0  0  0  0  0  0  0  0  0  0
   -6.7540   19.0260  -33.2080 C   0  0  0  0  0  0  0  0  0  0  0  0
   -5.5560   18.7480  -33.9580 N   0  0  0  0  0  0  0  0  0  0  0  0
   -4.3130   19.4310  -33.7500 C   0  0  0  0  0  0  0  0  0  0  0  0
   -2.9070   18.6480  -34.0580 S   0  0  0  0  0  0  0  0  0  0  0  0
   -4.3080   20.8320  -33.4260 N   0  0  0  0  0  0  0  0  0  0  0  0
   -3.3930   21.4440  -32.4980 C   0  0  0  0  0  0  0  0  0  0  0  0
   -2.0960   20.9330  -32.3100 C   0  0  0  0  0  0  0  0  0  0  0  0
   -1.2310   21.5330  -31.3910 C   0  0  0  0  0  0  0  0  0  0  0  0
   -1.6510   22.6390  -30.6490 C   0  0  0  0  0  0  0  0  0  0  0  0
   -2.9480   23.1440  -30.8130 C   0  0  0  0  0  0  0  0  0  0  0  0
   -3.4930   24.5500  -29.9030 S   0  0  0  0  0  0  0  0  0  0  0  0
   -4.1400   25.5520  -30.8160 O   0  0  0  0  0  0  0  0  0  0  0  0
   -4.5090   24.1050  -28.8900 O   0  0  0  0  0  0  0  0  0  0  0  0
   -2.1210   25.2880  -29.1410 N   0  0  0  0  0  0  0  0  0  0  0  0
   -1.4910   24.7910  -27.9520 C   0  0  0  0  0  0  0  0  0  0  0  0
   -1.6640   23.4600  -27.5450 C   0  0  0  0  0  0  0  0  0  0  0  0
   -1.0530   22.9920  -26.3760 C   0  0  0  0  0  0  0  0  0  0  0  0
   -0.2880   23.8590  -25.5960 C   0  0  0  0  0  0  0  0  0  0  0  0
   -0.1320   25.1920  -25.9740 C   0  0  0  0  0  0  0  0  0  0  0  0
   -0.7340   25.6730  -27.1520 C   0  0  0  0  0  0  0  0  0  0  0  0
   -0.5660   27.1140  -27.5490 C   0  0  0  0  0  0  0  0  0  0  0  0
   -3.8190   22.5350  -31.7270 C   0  0  0  0  0  0  0  0  0  0  0  0
   -7.1830   20.3470  -32.9650 C   0  0  0  0  0  0  0  0  0  0  0  0
   -7.0558   22.9496  -30.5638 H   0  0  0  0  0  0  0  0  0  0  0  0
   -6.4934   22.1986  -32.0956 H   0  0  0  0  0  0  0  0  0  0  0  0
   -7.1081   23.8864  -32.0956 H   0  0  0  0  0  0  0  0  0  0  0  0
  -10.0538   19.7032  -31.2215 H   0  0  0  0  0  0  0  0  0  0  0  0
   -9.2542   17.3618  -31.5542 H   0  0  0  0  0  0  0  0  0  0  0  0
   -7.1777   16.9230  -32.8686 H   0  0  0  0  0  0  0  0  0  0  0  0
   -5.5780   17.9710  -34.6560 H   0  0  0  0  0  0  0  0  0  0  0  0
   -5.0270   21.4340  -33.8870 H   0  0  0  0  0  0  0  0  0  0  0  0
   -1.7618   20.0588  -32.8879 H   0  0  0  0  0  0  0  0  0  0  0  0
   -0.2159   21.1328  -31.2516 H   0  0  0  0  0  0  0  0  0  0  0  0
   -0.9628   23.1145  -29.9347 H   0  0  0  0  0  0  0  0  0  0  0  0
   -2.2835   22.7799  -28.1481 H   0  0  0  0  0  0  0  0  0  0  0  0
   -1.1760   21.9418  -26.0728 H   0  0  0  0  0  0  0  0  0  0  0  0
    0.1942   23.4897  -24.6789 H   0  0  0  0  0  0  0  0  0  0  0  0
    0.4649   25.8716  -25.3481 H   0  0  0  0  0  0  0  0  0  0  0  0
   -0.4933   27.7372  -26.6455 H   0  0  0  0  0  0  0  0  0  0  0  0
    0.3512   27.2253  -28.1459 H   0  0  0  0  0  0  0  0  0  0  0  0
   -1.4330   27.4333  -28.1459 H   0  0  0  0  0  0  0  0  0  0  0  0
   -4.8447   22.9159  -31.8403 H   0  0  0  0  0  0  0  0  0  0  0  0
   -6.5895   21.1929  -33.3420 H   0  0  0  0  0  0  0  0  0  0  0  0
  1  2  1  0
  2  3  1  0
  3  4  2  0
  4  5  1  0
  5  6  2  0
  6  7  1  0
  7  8  1  0
  8  9  1  0
  9 10  2  0
  9 11  1  0
 11 12  1  0
 12 13  2  0
 13 14  1  0
 14 15  2  0
 15 16  1  0
 16 17  1  0
 17 18  2  0
 17 19  2  0
 17 20  1  0
 20 21  1  0
 21 22  2  0
 22 23  1  0
 23 24  2  0
 24 25  1  0
 25 26  2  0
 26 27  1  0
 16 28  2  0
  7 29  2  0
 29  3  1  0
 28 12  1  0
 26 21  1  0
  1 30  1  0
  1 31  1  0
  1 32  1  0
  4 33  1  0
  5 34  1  0
  6 35  1  0
  8 36  1  0
 11 37  1  0
 13 38  1  0
 14 39  1  0
 15 40  1  0
 22 41  1  0
 23 42  1  0
 24 43  1  0
 25 44  1  0
 27 45  1  0
 27 46  1  0
 27 47  1  0
 28 48  1  0
 29 49  1  0
M  CHG  1  20  -1
M  END
>  <UniqueID>  (21) 
18

>  <SMILES>  (21) 
CSc1cccc(NC(=S)Nc2cccc(S(=O)(=O)[N-]c3ccccc3C)c2)c1

>  <Energy>  (21) 
61.490264166185796

>  <Genealogy>  (21) 
CSc1cccc(NC(=S)Nc2cccc(S(=O)(=O)[N-]c3ccccc3C)c2)c1 (protonated)
CSc1cccc(NC(=S)Nc2cccc(S(=O)(=O)[N-]c3ccccc3C)c2)c1 (3D coordinates assigned)
CSc1cccc(NC(=S)Nc2cccc(S(=O)(=O)[N-]c3ccccc3C)c2)c1 (optimized conformer: 61.490264166185796 kcal/mol)

>  <smiles>  (21) 
CSc1cccc(NC(=S)Nc2cccc(S(=O)(=O)Nc3ccccc3C)c2)c1

>  <score_type>  (21) 
oracle

>  <origin>  (21) 
adgpu

>  <m_score__min__energy>  (21) 
-12.1

>  <m_primary>  (21) 
energy

$$$$
21:0
     RDKit          3D

 38 40  0  0  0  0  0  0  0  0999 V2000
   -5.1140   13.9350  -34.7010 N   0  0  0  0  0  0  0  0  0  0  0  0
   -3.7930   13.7030  -33.6070 S   0  0  0  0  0  0  0  0  0  0  0  0
   -3.0590   12.4510  -34.0010 O   0  0  0  0  0  0  0  0  0  0  0  0
   -4.3300   13.5540  -32.2120 O   0  0  0  0  0  0  0  0  0  0  0  0
   -2.6910   15.0830  -33.6680 C   0  0  0  0  0  0  0  0  0  0  0  0
   -1.3610   14.9250  -33.2470 C   0  0  0  0  0  0  0  0  0  0  0  0
   -0.4740   16.0020  -33.2850 C   0  0  0  0  0  0  0  0  0  0  0  0
   -0.9030   17.2430  -33.7570 C   0  0  0  0  0  0  0  0  0  0  0  0
   -2.2200   17.4120  -34.1920 C   0  0  0  0  0  0  0  0  0  0  0  0
   -3.1270   16.3350  -34.1530 C   0  0  0  0  0  0  0  0  0  0  0  0
   -4.4830   16.4840  -34.5990 N   0  0  0  0  0  0  0  0  0  0  0  0
   -5.8710   16.6220  -33.5680 S   0  0  0  0  0  0  0  0  0  0  0  0
   -5.6990   15.7310  -32.3710 O   0  0  0  0  0  0  0  0  0  0  0  0
   -7.0950   16.1880  -34.3240 O   0  0  0  0  0  0  0  0  0  0  0  0
   -6.0710   18.2910  -33.0710 C   0  0  0  0  0  0  0  0  0  0  0  0
   -7.2670   18.9860  -33.0010 C   0  0  0  0  0  0  0  0  0  0  0  0
   -7.1110   20.3040  -32.5490 C   0  0  0  0  0  0  0  0  0  0  0  0
   -5.7860   20.6480  -32.2650 C   0  0  0  0  0  0  0  0  0  0  0  0
   -5.2920   21.9550  -31.7540 C   0  0  0  0  0  0  0  0  0  0  0  0
   -6.1500   23.0720  -31.7140 C   0  0  0  0  0  0  0  0  0  0  0  0
   -5.6840   24.3120  -31.2650 C   0  0  0  0  0  0  0  0  0  0  0  0
   -4.3620   24.4530  -30.8430 C   0  0  0  0  0  0  0  0  0  0  0  0
   -3.8990   25.6880  -30.4090 O   0  0  0  0  0  0  0  0  0  0  0  0
   -3.5030   23.3520  -30.8630 C   0  0  0  0  0  0  0  0  0  0  0  0
   -3.9600   22.1110  -31.3190 C   0  0  0  0  0  0  0  0  0  0  0  0
   -4.8220   19.2980  -32.5830 S   0  0  0  0  0  0  0  0  0  0  0  0
   -5.7000   13.0700  -34.6580 H   0  0  0  0  0  0  0  0  0  0  0  0
   -5.6970   14.7120  -34.3160 H   0  0  0  0  0  0  0  0  0  0  0  0
   -1.0156   13.9455  -32.8847 H   0  0  0  0  0  0  0  0  0  0  0  0
    0.5634   15.8724  -32.9428 H   0  0  0  0  0  0  0  0  0  0  0  0
   -0.2025   18.0906  -33.7867 H   0  0  0  0  0  0  0  0  0  0  0  0
   -2.5505   18.3918  -34.5671 H   0  0  0  0  0  0  0  0  0  0  0  0
   -8.2393   18.5489  -33.2722 H   0  0  0  0  0  0  0  0  0  0  0  0
   -7.9525   21.0022  -32.4290 H   0  0  0  0  0  0  0  0  0  0  0  0
   -7.1958   22.9679  -32.0388 H   0  0  0  0  0  0  0  0  0  0  0  0
   -6.3617   25.1782  -31.2446 H   0  0  0  0  0  0  0  0  0  0  0  0
   -2.4638   23.4610  -30.5191 H   0  0  0  0  0  0  0  0  0  0  0  0
   -3.2751   21.2505  -31.3383 H   0  0  0  0  0  0  0  0  0  0  0  0
  1  2  1  0
  2  3  2  0
  2  4  2  0
  2  5  1  0
  5  6  2  0
  6  7  1  0
  7  8  2  0
  8  9  1  0
  9 10  2  0
 10 11  1  0
 11 12  1  0
 12 13  2  0
 12 14  2  0
 12 15  1  0
 15 16  2  0
 16 17  1  0
 17 18  2  0
 18 19  1  0
 19 20  2  0
 20 21  1  0
 21 22  2  0
 22 23  1  0
 22 24  1  0
 24 25  2  0
 18 26  1  0
 10  5  1  0
 26 15  1  0
 25 19  1  0
  1 27  1  0
  1 28  1  0
  6 29  1  0
  7 30  1  0
  8 31  1  0
  9 32  1  0
 16 33  1  0
 17 34  1  0
 20 35  1  0
 21 36  1  0
 24 37  1  0
 25 38  1  0
M  CHG  2  11  -1  23  -1
M  END
>  <UniqueID>  (22) 
19

>  <SMILES>  (22) 
NS(=O)(=O)c1ccccc1[N-]S(=O)(=O)c1ccc(-c2ccc([O-])cc2)s1

>  <Energy>  (22) 
72.25905072914351

>  <Genealogy>  (22) 
NS(=O)(=O)c1ccccc1[N-]S(=O)(=O)c1ccc(-c2ccc([O-])cc2)s1 (protonated)
NS(=O)(=O)c1ccccc1[N-]S(=O)(=O)c1ccc(-c2ccc([O-])cc2)s1 (3D coordinates assigned)
NS(=O)(=O)c1ccccc1[N-]S(=O)(=O)c1ccc(-c2ccc([O-])cc2)s1 (optimized conformer: 72.25905072914351 kcal/mol)

>  <smiles>  (22) 
NS(=O)(=O)c1ccccc1NS(=O)(=O)c1ccc(-c2ccc(O)cc2)s1

>  <score_type>  (22) 
oracle

>  <origin>  (22) 
adgpu

>  <m_score__min__energy>  (22) 
-10.09

>  <m_primary>  (22) 
energy

$$$$
22:0
     RDKit          3D

 49 52  0  0  0  0  0  0  0  0999 V2000
    0.6940   24.2670  -36.1140 C   0  0  0  0  0  0  0  0  0  0  0  0
    1.4660   23.3470  -35.3490 O   0  0  0  0  0  0  0  0  0  0  0  0
    1.6530   21.9960  -35.6810 C   0  0  0  0  0  0  0  0  0  0  0  0
    2.8000   21.5500  -36.3680 C   0  0  0  0  0  0  0  0  0  0  0  0
    2.9550   20.1980  -36.6810 C   0  0  0  0  0  0  0  0  0  0  0  0
    1.9680   19.2800  -36.3240 C   0  0  0  0  0  0  0  0  0  0  0  0
    0.8260   19.7080  -35.6450 C   0  0  0  0  0  0  0  0  0  0  0  0
    0.6670   21.0640  -35.3040 C   0  0  0  0  0  0  0  0  0  0  0  0
   -0.5210   21.5170  -34.6300 N   0  0  0  0  0  0  0  0  0  0  0  0
   -1.0720   20.8700  -33.4680 C   0  0  0  0  0  0  0  0  0  0  0  0
   -0.4870   19.8690  -32.9680 O   0  0  0  0  0  0  0  0  0  0  0  0
   -2.3180   21.3630  -32.8330 C   0  0  0  0  0  0  0  0  0  0  0  0
   -3.5530   21.3140  -33.5050 C   0  0  0  0  0  0  0  0  0  0  0  0
   -4.7140   21.7920  -32.8900 C   0  0  0  0  0  0  0  0  0  0  0  0
   -4.6610   22.3260  -31.5970 C   0  0  0  0  0  0  0  0  0  0  0  0
   -6.1210   22.9590  -30.8420 S   0  0  0  0  0  0  0  0  0  0  0  0
   -5.9960   22.8480  -29.3480 O   0  0  0  0  0  0  0  0  0  0  0  0
   -6.2910   24.4050  -31.2150 O   0  0  0  0  0  0  0  0  0  0  0  0
   -7.4970   22.0540  -31.3810 N   0  0  0  0  0  0  0  0  0  0  0  0
   -8.8280   22.6140  -31.6020 C   0  0  0  0  0  0  0  0  0  0  0  0
   -9.7110   21.4290  -32.0680 C   0  0  0  0  0  0  0  0  0  0  0  0
   -8.7700   20.2720  -32.0590 C   0  0  0  0  0  0  0  0  0  0  0  0
   -9.0360   18.9420  -32.3900 C   0  0  0  0  0  0  0  0  0  0  0  0
   -7.9890   18.0090  -32.3070 C   0  0  0  0  0  0  0  0  0  0  0  0
   -6.7050   18.4200  -31.8980 C   0  0  0  0  0  0  0  0  0  0  0  0
   -6.4620   19.7640  -31.5710 C   0  0  0  0  0  0  0  0  0  0  0  0
   -7.5230   20.6690  -31.6630 C   0  0  0  0  0  0  0  0  0  0  0  0
   -3.4320   22.3990  -30.9310 C   0  0  0  0  0  0  0  0  0  0  0  0
   -2.2700   21.9230  -31.5430 C   0  0  0  0  0  0  0  0  0  0  0  0
    0.1371   24.9307  -35.4363 H   0  0  0  0  0  0  0  0  0  0  0  0
    1.3623   24.8678  -36.7483 H   0  0  0  0  0  0  0  0  0  0  0  0
   -0.0137   23.7132  -36.7483 H   0  0  0  0  0  0  0  0  0  0  0  0
    3.5777   22.2713  -36.6594 H   0  0  0  0  0  0  0  0  0  0  0  0
    3.8570   19.8566  -37.2100 H   0  0  0  0  0  0  0  0  0  0  0  0
    2.0896   18.2166  -36.5779 H   0  0  0  0  0  0  0  0  0  0  0  0
    0.0458   18.9811  -35.3749 H   0  0  0  0  0  0  0  0  0  0  0  0
   -0.9670   22.3900  -34.9880 H   0  0  0  0  0  0  0  0  0  0  0  0
   -3.6055   20.8967  -34.5214 H   0  0  0  0  0  0  0  0  0  0  0  0
   -5.6742   21.7483  -33.4249 H   0  0  0  0  0  0  0  0  0  0  0  0
   -9.2231   23.0428  -30.6693 H   0  0  0  0  0  0  0  0  0  0  0  0
   -8.8089   23.4229  -32.3472 H   0  0  0  0  0  0  0  0  0  0  0  0
  -10.5460   21.2626  -31.3715 H   0  0  0  0  0  0  0  0  0  0  0  0
  -10.1732   21.5988  -33.0516 H   0  0  0  0  0  0  0  0  0  0  0  0
  -10.0422   18.6318  -32.7084 H   0  0  0  0  0  0  0  0  0  0  0  0
   -8.1722   16.9548  -32.5620 H   0  0  0  0  0  0  0  0  0  0  0  0
   -5.8892   17.6849  -31.8345 H   0  0  0  0  0  0  0  0  0  0  0  0
   -5.4632   20.0956  -31.2510 H   0  0  0  0  0  0  0  0  0  0  0  0
   -3.3810   22.8330  -29.9215 H   0  0  0  0  0  0  0  0  0  0  0  0
   -1.3089   21.9865  -31.0117 H   0  0  0  0  0  0  0  0  0  0  0  0
  1  2  1  0
  2  3  1  0
  3  4  2  0
  4  5  1  0
  5  6  2  0
  6  7  1  0
  7  8  2  0
  8  9  1  0
  9 10  1  0
 10 11  2  0
 10 12  1  0
 12 13  2  0
 13 14  1  0
 14 15  2  0
 15 16  1  0
 16 17  2  0
 16 18  2  0
 16 19  1  0
 19 20  1  0
 20 21  1  0
 21 22  1  0
 22 23  2  0
 23 24  1  0
 24 25  2  0
 25 26  1  0
 26 27  2  0
 15 28  1  0
 28 29  2  0
  8  3  1  0
 29 12  1  0
 27 19  1  0
 27 22  1  0
  1 30  1  0
  1 31  1  0
  1 32  1  0
  4 33  1  0
  5 34  1  0
  6 35  1  0
  7 36  1  0
  9 37  1  0
 13 38  1  0
 14 39  1  0
 20 40  1  0
 20 41  1  0
 21 42  1  0
 21 43  1  0
 23 44  1  0
 24 45  1  0
 25 46  1  0
 26 47  1  0
 28 48  1  0
 29 49  1  0
M  END
>  <UniqueID>  (23) 
20

>  <SMILES>  (23) 
COc1ccccc1NC(=O)c1ccc(S(=O)(=O)N2CCc3ccccc32)cc1

>  <Energy>  (23) 
75.88561381869903

>  <Genealogy>  (23) 
COc1ccccc1NC(=O)c1ccc(S(=O)(=O)N2CCc3ccccc32)cc1 (3D coordinates assigned)
COc1ccccc1NC(=O)c1ccc(S(=O)(=O)N2CCc3ccccc32)cc1 (nonaromatic ring conformer: 75.88561381869903 kcal/mol)

>  <smiles>  (23) 
COc1ccccc1NC(=O)c1ccc(S(=O)(=O)N2CCc3ccccc32)cc1

>  <score_type>  (23) 
oracle

>  <origin>  (23) 
adgpu

>  <m_score__min__energy>  (23) 
-9.4000000000000004

>  <m_primary>  (23) 
energy

$$$$
23:0
     RDKit          3D

 59 63  0  0  0  0  0  0  0  0999 V2000
   -0.5800   27.0600  -25.4480 C   0  0  0  0  0  0  0  0  0  0  0  0
   -1.2060   26.2790  -26.5650 C   0  0  0  0  0  0  0  0  0  0  0  0
   -2.3000   25.4410  -26.3140 C   0  0  0  0  0  0  0  0  0  0  0  0
   -2.8640   24.6840  -27.3460 C   0  0  0  0  0  0  0  0  0  0  0  0
   -2.3380   24.7440  -28.6500 C   0  0  0  0  0  0  0  0  0  0  0  0
   -2.8970   23.9530  -29.7810 C   0  0  0  0  0  0  0  0  0  0  0  0
   -4.1050   24.2310  -30.3190 N   0  0  0  0  0  0  0  0  0  0  0  0
   -4.3860   23.3100  -31.2240 N   0  0  0  0  0  0  0  0  0  0  0  0
   -5.6330   23.2970  -31.9880 C   0  0  0  0  0  0  0  0  0  0  0  0
   -6.8130   22.9650  -31.0680 C   0  0  0  0  0  0  0  0  0  0  0  0
   -8.0530   22.5250  -31.8550 C   0  0  0  0  0  0  0  0  0  0  0  0
   -8.0660   21.0750  -32.0450 N   0  0  0  0  0  0  0  0  0  0  0  0
   -7.3630   20.3740  -32.9490 C   0  0  0  0  0  0  0  0  0  0  0  0
   -7.6340   19.0390  -32.7500 C   0  0  0  0  0  0  0  0  0  0  0  0
   -8.4980   18.9000  -31.7230 N   0  0  0  0  0  0  0  0  0  0  0  0
   -8.7390   20.1640  -31.3170 C   0  0  0  0  0  0  0  0  0  0  0  0
   -3.3800   22.4110  -31.2810 C   0  0  0  0  0  0  0  0  0  0  0  0
   -3.3530   21.2160  -32.1460 C   0  0  0  0  0  0  0  0  0  0  0  0
   -4.2390   20.1520  -31.9110 C   0  0  0  0  0  0  0  0  0  0  0  0
   -4.2250   19.0300  -32.7440 C   0  0  0  0  0  0  0  0  0  0  0  0
   -3.3280   18.9610  -33.8130 C   0  0  0  0  0  0  0  0  0  0  0  0
   -3.3120   17.4260  -34.9490 Br  0  0  0  0  0  0  0  0  0  0  0  0
   -2.4440   20.0190  -34.0530 C   0  0  0  0  0  0  0  0  0  0  0  0
   -2.4580   21.1450  -33.2240 C   0  0  0  0  0  0  0  0  0  0  0  0
   -2.4020   22.7900  -30.3780 C   0  0  0  0  0  0  0  0  0  0  0  0
   -0.8630   21.9130  -30.0510 S   0  0  0  0  0  0  0  0  0  0  0  0
   -1.5810   20.8740  -28.7710 C   0  0  0  0  0  0  0  0  0  0  0  0
   -2.8160   21.2250  -28.2120 C   0  0  0  0  0  0  0  0  0  0  0  0
   -3.4050   20.4150  -27.2370 C   0  0  0  0  0  0  0  0  0  0  0  0
   -2.7540   19.2540  -26.8060 C   0  0  0  0  0  0  0  0  0  0  0  0
   -3.4950   18.2350  -25.5860 Cl  0  0  0  0  0  0  0  0  0  0  0  0
   -1.5110   18.9090  -27.3480 C   0  0  0  0  0  0  0  0  0  0  0  0
   -0.9230   19.7180  -28.3250 C   0  0  0  0  0  0  0  0  0  0  0  0
   -1.2190   25.5660  -28.8840 C   0  0  0  0  0  0  0  0  0  0  0  0
   -0.6580   26.3230  -27.8520 C   0  0  0  0  0  0  0  0  0  0  0  0
   -0.9100   26.6483  -24.4828 H   0  0  0  0  0  0  0  0  0  0  0  0
    0.5154   26.9905  -25.5210 H   0  0  0  0  0  0  0  0  0  0  0  0
   -0.8862   28.1140  -25.5210 H   0  0  0  0  0  0  0  0  0  0  0  0
   -2.7183   25.3779  -25.2986 H   0  0  0  0  0  0  0  0  0  0  0  0
   -3.7273   24.0353  -27.1364 H   0  0  0  0  0  0  0  0  0  0  0  0
   -5.7923   24.2868  -32.4407 H   0  0  0  0  0  0  0  0  0  0  0  0
   -5.5643   22.5313  -32.7748 H   0  0  0  0  0  0  0  0  0  0  0  0
   -6.5160   22.1511  -30.3902 H   0  0  0  0  0  0  0  0  0  0  0  0
   -7.0728   23.8759  -30.5088 H   0  0  0  0  0  0  0  0  0  0  0  0
   -8.9552   22.8233  -31.3009 H   0  0  0  0  0  0  0  0  0  0  0  0
   -8.0304   23.0077  -32.8432 H   0  0  0  0  0  0  0  0  0  0  0  0
   -6.6904   20.7919  -33.7125 H   0  0  0  0  0  0  0  0  0  0  0  0
   -7.2107   18.2117  -33.3386 H   0  0  0  0  0  0  0  0  0  0  0  0
   -9.4102   20.4214  -30.4844 H   0  0  0  0  0  0  0  0  0  0  0  0
   -4.9455   20.2019  -31.0694 H   0  0  0  0  0  0  0  0  0  0  0  0
   -4.9217   18.1994  -32.5577 H   0  0  0  0  0  0  0  0  0  0  0  0
   -1.7376   19.9648  -34.8944 H   0  0  0  0  0  0  0  0  0  0  0  0
   -1.7654   21.9773  -33.4176 H   0  0  0  0  0  0  0  0  0  0  0  0
   -3.3251   22.1426  -28.5418 H   0  0  0  0  0  0  0  0  0  0  0  0
   -4.3801   20.6903  -26.8087 H   0  0  0  0  0  0  0  0  0  0  0  0
   -0.9956   17.9998  -27.0049 H   0  0  0  0  0  0  0  0  0  0  0  0
    0.0572   19.4477  -28.7447 H   0  0  0  0  0  0  0  0  0  0  0  0
   -0.7809   25.6129  -29.8919 H   0  0  0  0  0  0  0  0  0  0  0  0
    0.2186   26.9566  -28.0522 H   0  0  0  0  0  0  0  0  0  0  0  0
  1  2  1  0
  2  3  2  0
  3  4  1  0
  4  5  2  0
  5  6  1  0
  6  7  2  0
  7  8  1  0
  8  9  1  0
  9 10  1  0
 10 11  1  0
 11 12  1  0
 12 13  1  0
 13 14  2  0
 14 15  1  0
 15 16  2  0
  8 17  1  0
 17 18  1  0
 18 19  2  0
 19 20  1  0
 20 21  2  0
 21 22  1  0
 21 23  1  0
 23 24  2  0
 17 25  2  0
 25 26  1  0
 26 27  1  0
 27 28  2  0
 28 29  1  0
 29 30  2  0
 30 31  1  0
 30 32  1  0
 32 33  2  0
  5 34  1  0
 34 35  2  0
 35  2  1  0
 25  6  1  0
 33 27  1  0
 16 12  1  0
 24 18  1  0
  1 36  1  0
  1 37  1  0
  1 38  1  0
  3 39  1  0
  4 40  1  0
  9 41  1  0
  9 42  1  0
 10 43  1  0
 10 44  1  0
 11 45  1  0
 11 46  1  0
 13 47  1  0
 14 48  1  0
 16 49  1  0
 19 50  1  0
 20 51  1  0
 23 52  1  0
 24 53  1  0
 28 54  1  0
 29 55  1  0
 32 56  1  0
 33 57  1  0
 34 58  1  0
 35 59  1  0
M  END
>  <UniqueID>  (24) 
21

>  <SMILES>  (24) 
Cc1ccc(-c2nn(CCCn3ccnc3)c(-c3ccc(Br)cc3)c2Sc2ccc(Cl)cc2)cc1

>  <Energy>  (24) 
122.44864397392169

>  <Genealogy>  (24) 
Cc1ccc(-c2nn(CCCn3ccnc3)c(-c3ccc(Br)cc3)c2Sc2ccc(Cl)cc2)cc1 (3D coordinates assigned)
Cc1ccc(-c2nn(CCCn3ccnc3)c(-c3ccc(Br)cc3)c2Sc2ccc(Cl)cc2)cc1 (optimized conformer: 122.44864397392169 kcal/mol)

>  <smiles>  (24) 
Cc1ccc(-c2nn(CCCn3ccnc3)c(-c3ccc(Br)cc3)c2Sc2ccc(Cl)cc2)cc1

>  <score_type>  (24) 
oracle

>  <origin>  (24) 
adgpu

>  <m_score__min__energy>  (24) 
-10.220000000000001

>  <m_primary>  (24) 
energy

$$$$
24:0
     RDKit          3D

 44 46  0  0  0  0  0  0  0  0999 V2000
   -3.6329   22.6373  -30.4905 H   0  0  0  0  0  0  0  0  0  0  0  0
   -4.6050   23.1490  -30.4330 C   0  0  0  0  0  0  0  0  0  0  0  0
   -5.7860   22.4010  -30.3740 C   0  0  0  0  0  0  0  0  0  0  0  0
   -5.7399   21.3021  -30.3919 H   0  0  0  0  0  0  0  0  0  0  0  0
   -7.0310   23.0480  -30.2920 C   0  0  0  0  0  0  0  0  0  0  0  0
   -8.3070   22.2490  -30.2300 C   0  0  0  0  0  0  0  0  0  0  0  0
   -9.1372   22.9152  -29.9528 H   0  0  0  0  0  0  0  0  0  0  0  0
   -8.1900   21.4530  -29.4799 H   0  0  0  0  0  0  0  0  0  0  0  0
   -8.5960   21.6350  -31.5270 N   0  0  0  0  0  0  0  0  0  0  0  0
   -9.4680   21.9430  -32.0150 H   0  0  0  0  0  0  0  0  0  0  0  0
   -7.8010   20.5980  -32.1320 C   0  0  0  0  0  0  0  0  0  0  0  0
   -7.9990   19.2360  -31.8320 C   0  0  0  0  0  0  0  0  0  0  0  0
   -8.7771   18.9419  -31.1122 H   0  0  0  0  0  0  0  0  0  0  0  0
   -7.2120   18.2560  -32.4440 C   0  0  0  0  0  0  0  0  0  0  0  0
   -7.3790   17.1947  -32.2080 H   0  0  0  0  0  0  0  0  0  0  0  0
   -6.2130   18.6170  -33.3550 C   0  0  0  0  0  0  0  0  0  0  0  0
   -5.2230   17.3710  -34.1080 S   0  0  0  0  0  0  0  0  0  0  0  0
   -5.8110   16.0240  -33.7940 O   0  0  0  0  0  0  0  0  0  0  0  0
   -5.1830   17.5540  -35.6000 O   0  0  0  0  0  0  0  0  0  0  0  0
   -3.6090   17.4490  -33.4860 N   0  0  0  0  0  0  0  0  0  0  0  0
   -2.8740   18.5110  -33.5960 C   0  0  0  0  0  0  0  0  0  0  0  0
   -3.2530   19.6270  -34.1760 O   0  0  0  0  0  0  0  0  0  0  0  0
   -2.3020   20.5110  -34.1000 N   0  0  0  0  0  0  0  0  0  0  0  0
   -2.3600   21.4830  -34.4770 H   0  0  0  0  0  0  0  0  0  0  0  0
   -1.2610   19.9560  -33.4470 C   0  0  0  0  0  0  0  0  0  0  0  0
    0.0170   20.6640  -33.1300 C   0  0  0  0  0  0  0  0  0  0  0  0
    0.1381   20.7311  -32.0387 H   0  0  0  0  0  0  0  0  0  0  0  0
    0.8619   20.1053  -33.5590 H   0  0  0  0  0  0  0  0  0  0  0  0
   -0.0086   21.6766  -33.5590 H   0  0  0  0  0  0  0  0  0  0  0  0
   -1.5870   18.6520  -33.1170 C   0  0  0  0  0  0  0  0  0  0  0  0
   -0.7900   17.6770  -32.3080 C   0  0  0  0  0  0  0  0  0  0  0  0
   -0.9495   17.8722  -31.2373 H   0  0  0  0  0  0  0  0  0  0  0  0
   -1.1128   16.6527  -32.5461 H   0  0  0  0  0  0  0  0  0  0  0  0
    0.2780   17.7896  -32.5461 H   0  0  0  0  0  0  0  0  0  0  0  0
   -6.0080   19.9700  -33.6540 C   0  0  0  0  0  0  0  0  0  0  0  0
   -5.2260   20.2603  -34.3710 H   0  0  0  0  0  0  0  0  0  0  0  0
   -6.7930   20.9520  -33.0450 C   0  0  0  0  0  0  0  0  0  0  0  0
   -6.6205   22.0122  -33.2823 H   0  0  0  0  0  0  0  0  0  0  0  0
   -7.0770   24.4510  -30.2890 C   0  0  0  0  0  0  0  0  0  0  0  0
   -8.0474   24.9667  -30.2400 H   0  0  0  0  0  0  0  0  0  0  0  0
   -5.8940   25.1970  -30.3480 C   0  0  0  0  0  0  0  0  0  0  0  0
   -5.9362   26.2961  -30.3385 H   0  0  0  0  0  0  0  0  0  0  0  0
   -4.6590   24.5460  -30.4190 C   0  0  0  0  0  0  0  0  0  0  0  0
   -3.4850   25.2870  -30.4770 O   0  0  0  0  0  0  0  0  0  0  0  0
  1  2  1  0
  2  3  2  0
  3  4  1  0
  3  5  1  0
  5  6  1  0
  6  7  1  0
  6  8  1  0
  6  9  1  0
  9 10  1  0
  9 11  1  0
 11 12  2  0
 12 13  1  0
 12 14  1  0
 14 15  1  0
 14 16  2  0
 16 17  1  0
 17 18  2  0
 17 19  2  0
 17 20  1  0
 20 21  2  0
 21 22  1  0
 22 23  1  0
 23 24  1  0
 23 25  1  0
 25 26  1  0
 26 27  1  0
 26 28  1  0
 26 29  1  0
 25 30  2  0
 30 31  1  0
 31 32  1  0
 31 33  1  0
 31 34  1  0
 16 35  1  0
 35 36  1  0
 35 37  2  0
 37 38  1  0
  5 39  2  0
 39 40  1  0
 39 41  1  0
 41 42  1  0
 41 43  2  0
 43 44  1  0
 43  2  1  0
 37 11  1  0
 30 21  1  0
M  CHG  1  44  -1
M  END
>  <UniqueID>  (25) 
22

>  <SMILES>  (25) 
Cc1[nH]o/c(=N\S(=O)(=O)c2ccc(NCc3ccc([O-])cc3)cc2)c1C

>  <Energy>  (25) 
78.12804030798638

>  <Genealogy>  (25) 
Cc1[nH]oc(=NS(=O)(=O)c2ccc(NCc3ccc([O-])cc3)cc2)c1C (protonated)
Cc1[nH]o/c(=N\S(=O)(=O)c2ccc(NCc3ccc([O-])cc3)cc2)c1C (cis-trans isomerization)
Cc1[nH]o/c(=N\S(=O)(=O)c2ccc(NCc3ccc([O-])cc3)cc2)c1C (3D coordinates assigned)
Cc1[nH]o/c(=N\S(=O)(=O)c2ccc(NCc3ccc([O-])cc3)cc2)c1C (optimized conformer: 78.12804030798638 kcal/mol)

>  <smiles>  (25) 
Cc1[nH]oc(=NS(=O)(=O)c2ccc(NCc3ccc(O)cc3)cc2)c1C

>  <score_type>  (25) 
oracle

>  <origin>  (25) 
adgpu

>  <m_score__min__energy>  (25) 
-12

>  <m_primary>  (25) 
energy

$$$$
25:0
     RDKit          3D

 42 44  0  0  0  0  0  0  0  0999 V2000
   -3.0860   25.6740  -30.8220 H   0  0  0  0  0  0  0  0  0  0  0  0
   -4.0900   25.7030  -30.6810 O   0  0  0  0  0  0  0  0  0  0  0  0
   -4.8840   24.5680  -30.8370 C   0  0  0  0  0  0  0  0  0  0  0  0
   -6.2060   24.6980  -31.2870 C   0  0  0  0  0  0  0  0  0  0  0  0
   -6.6030   25.6939  -31.5332 H   0  0  0  0  0  0  0  0  0  0  0  0
   -7.0220   23.5740  -31.4250 C   0  0  0  0  0  0  0  0  0  0  0  0
   -8.0562   23.6870  -31.7823 H   0  0  0  0  0  0  0  0  0  0  0  0
   -6.5260   22.3010  -31.1090 C   0  0  0  0  0  0  0  0  0  0  0  0
   -7.3840   21.0820  -31.2760 C   0  0  0  0  0  0  0  0  0  0  0  0
   -7.6602   20.6896  -30.2862 H   0  0  0  0  0  0  0  0  0  0  0  0
   -8.2950   21.3482  -31.8321 H   0  0  0  0  0  0  0  0  0  0  0  0
   -6.8260   20.3143  -31.8321 H   0  0  0  0  0  0  0  0  0  0  0  0
   -5.1990   22.1630  -30.6820 C   0  0  0  0  0  0  0  0  0  0  0  0
   -4.7989   21.1615  -30.4654 H   0  0  0  0  0  0  0  0  0  0  0  0
   -4.3720   23.2910  -30.5270 C   0  0  0  0  0  0  0  0  0  0  0  0
   -2.9740   23.1210  -30.0570 C   0  0  0  0  0  0  0  0  0  0  0  0
   -2.3810   24.0850  -29.5060 O   0  0  0  0  0  0  0  0  0  0  0  0
   -2.2510   21.9000  -30.2690 N   0  0  0  0  0  0  0  0  0  0  0  0
   -1.5590   21.5420  -31.4720 C   0  0  0  0  0  0  0  0  0  0  0  0
   -0.2070   21.1850  -31.4010 C   0  0  0  0  0  0  0  0  0  0  0  0
    0.3032   21.1635  -30.4267 H   0  0  0  0  0  0  0  0  0  0  0  0
    0.4970   20.8560  -32.5620 C   0  0  0  0  0  0  0  0  0  0  0  0
    1.5640   20.5959  -32.5003 H   0  0  0  0  0  0  0  0  0  0  0  0
   -0.1500   20.8560  -33.8040 C   0  0  0  0  0  0  0  0  0  0  0  0
    0.7610   20.4750  -35.2620 S   0  0  0  0  0  0  0  0  0  0  0  0
    0.2180   19.2420  -35.9290 O   0  0  0  0  0  0  0  0  0  0  0  0
    2.1950   20.2220  -34.8860 O   0  0  0  0  0  0  0  0  0  0  0  0
    0.6900   21.8120  -36.3650 N   0  0  0  0  0  0  0  0  0  0  0  0
    1.4550   22.8600  -36.3020 C   0  0  0  0  0  0  0  0  0  0  0  0
    1.3700   23.8750  -37.1810 N   0  0  0  0  0  0  0  0  0  0  0  0
    2.2670   24.7490  -36.8220 O   0  0  0  0  0  0  0  0  0  0  0  0
    2.9240   24.3450  -35.7590 C   0  0  0  0  0  0  0  0  0  0  0  0
    3.9970   25.1310  -35.0840 C   0  0  0  0  0  0  0  0  0  0  0  0
    3.8822   25.0469  -33.9933 H   0  0  0  0  0  0  0  0  0  0  0  0
    4.9808   24.7383  -35.3805 H   0  0  0  0  0  0  0  0  0  0  0  0
    3.9193   26.1874  -35.3805 H   0  0  0  0  0  0  0  0  0  0  0  0
    2.4400   23.1150  -35.3650 C   0  0  0  0  0  0  0  0  0  0  0  0
    2.7583   22.4917  -34.5164 H   0  0  0  0  0  0  0  0  0  0  0  0
   -1.5110   21.1790  -33.8750 C   0  0  0  0  0  0  0  0  0  0  0  0
   -2.0279   21.1658  -34.8459 H   0  0  0  0  0  0  0  0  0  0  0  0
   -2.2140   21.5180  -32.7160 C   0  0  0  0  0  0  0  0  0  0  0  0
   -3.2837   21.7670  -32.7770 H   0  0  0  0  0  0  0  0  0  0  0  0
  1  2  1  0
  2  3  1  0
  3  4  2  0
  4  5  1  0
  4  6  1  0
  6  7  1  0
  6  8  2  0
  8  9  1  0
  9 10  1  0
  9 11  1  0
  9 12  1  0
  8 13  1  0
 13 14  1  0
 13 15  2  0
 15 16  1  0
 16 17  2  0
 16 18  1  0
 18 19  1  0
 19 20  2  0
 20 21  1  0
 20 22  1  0
 22 23  1  0
 22 24  2  0
 24 25  1  0
 25 26  2  0
 25 27  2  0
 25 28  1  0
 28 29  2  0
 29 30  1  0
 30 31  1  0
 31 32  1  0
 32 33  1  0
 33 34  1  0
 33 35  1  0
 33 36  1  0
 32 37  2  0
 37 38  1  0
 24 39  1  0
 39 40  1  0
 39 41  2  0
 41 42  1  0
 15  3  1  0
 41 19  1  0
 37 29  1  0
M  CHG  2  18  -1  30  -1
M  END
>  <UniqueID>  (26) 
23

>  <SMILES>  (26) 
Cc1ccc(O)c(C(=O)[N-]c2ccc(S(=O)(=O)/N=c3\cc(C)o[n-]3)cc2)c1

>  <Energy>  (26) 
82.43758957073779

>  <Genealogy>  (26) 
Cc1ccc(O)c(C(=O)[N-]c2ccc(S(=O)(=O)N=c3cc(C)o[n-]3)cc2)c1 (protonated)
Cc1ccc(O)c(C(=O)[N-]c2ccc(S(=O)(=O)/N=c3\cc(C)o[n-]3)cc2)c1 (cis-trans isomerization)
Cc1ccc(O)c(C(=O)[N-]c2ccc(S(=O)(=O)/N=c3\cc(C)o[n-]3)cc2)c1 (3D coordinates assigned)
Cc1ccc(O)c(C(=O)[N-]c2ccc(S(=O)(=O)/N=c3\cc(C)o[n-]3)cc2)c1 (optimized conformer: 82.43758957073779 kcal/mol)

>  <smiles>  (26) 
Cc1ccc(O)c(C(=O)Nc2ccc(S(=O)(=O)N=c3cc(C)o[nH]3)cc2)c1

>  <score_type>  (26) 
oracle

>  <origin>  (26) 
adgpu

>  <m_score__min__energy>  (26) 
-10.4

>  <m_primary>  (26) 
energy

$$$$
26:0
     RDKit          3D

 52 55  0  0  0  0  0  0  0  0999 V2000
   -3.5490   18.9329  -25.8282 H   0  0  0  0  0  0  0  0  0  0  0  0
   -2.8580   19.2720  -26.6140 C   0  0  0  0  0  0  0  0  0  0  0  0
   -3.1040   20.4650  -27.2890 C   0  0  0  0  0  0  0  0  0  0  0  0
   -3.9909   21.0636  -27.0338 H   0  0  0  0  0  0  0  0  0  0  0  0
   -2.2320   20.9080  -28.2890 C   0  0  0  0  0  0  0  0  0  0  0  0
   -2.5490   22.1350  -28.9640 N   0  0  0  0  0  0  0  0  0  0  0  0
   -2.1260   23.3130  -28.6120 C   0  0  0  0  0  0  0  0  0  0  0  0
   -1.2520   23.4340  -27.5710 N   0  0  0  0  0  0  0  0  0  0  0  0
   -0.7290   24.6310  -27.2070 C   0  0  0  0  0  0  0  0  0  0  0  0
    0.1600   24.7230  -26.1320 C   0  0  0  0  0  0  0  0  0  0  0  0
    0.4346   23.8214  -25.5649 H   0  0  0  0  0  0  0  0  0  0  0  0
    0.7000   25.9660  -25.7790 C   0  0  0  0  0  0  0  0  0  0  0  0
    1.3970   26.0407  -24.9313 H   0  0  0  0  0  0  0  0  0  0  0  0
    0.3540   27.1160  -26.5040 C   0  0  0  0  0  0  0  0  0  0  0  0
    0.9120   28.3920  -26.1390 C   0  0  0  0  0  0  0  0  0  0  0  0
    1.3610   29.4170  -25.8450 N   0  0  0  0  0  0  0  0  0  0  0  0
   -0.5370   27.0230  -27.5820 C   0  0  0  0  0  0  0  0  0  0  0  0
   -0.8103   27.9243  -28.1502 H   0  0  0  0  0  0  0  0  0  0  0  0
   -1.0780   25.7820  -27.9340 C   0  0  0  0  0  0  0  0  0  0  0  0
   -1.9470   25.6730  -28.9700 N   0  0  0  0  0  0  0  0  0  0  0  0
   -2.5040   24.4840  -29.3320 C   0  0  0  0  0  0  0  0  0  0  0  0
   -3.3410   24.4910  -30.3360 N   0  0  0  0  0  0  0  0  0  0  0  0
   -4.1490   23.4150  -30.8310 C   0  0  0  0  0  0  0  0  0  0  0  0
   -5.4990   23.3080  -30.4640 C   0  0  0  0  0  0  0  0  0  0  0  0
   -5.9390   24.0402  -29.7710 H   0  0  0  0  0  0  0  0  0  0  0  0
   -6.2860   22.2730  -30.9770 C   0  0  0  0  0  0  0  0  0  0  0  0
   -7.3373   22.1814  -30.6665 H   0  0  0  0  0  0  0  0  0  0  0  0
   -5.7460   21.3510  -31.8840 C   0  0  0  0  0  0  0  0  0  0  0  0
   -6.5830   20.3290  -32.3610 O   0  0  0  0  0  0  0  0  0  0  0  0
   -8.0100   20.3410  -32.3320 C   0  0  0  0  0  0  0  0  0  0  0  0
   -8.3873   20.7096  -33.2973 H   0  0  0  0  0  0  0  0  0  0  0  0
   -8.3407   20.9994  -31.5152 H   0  0  0  0  0  0  0  0  0  0  0  0
   -8.5580   18.9400  -32.0830 C   0  0  0  0  0  0  0  0  0  0  0  0
   -8.6281   18.7608  -31.0000 H   0  0  0  0  0  0  0  0  0  0  0  0
   -9.5571   18.8514  -32.5347 H   0  0  0  0  0  0  0  0  0  0  0  0
   -7.8842   18.1971  -32.5347 H   0  0  0  0  0  0  0  0  0  0  0  0
   -4.3980   21.4810  -32.2740 C   0  0  0  0  0  0  0  0  0  0  0  0
   -3.9623   20.7653  -32.9867 H   0  0  0  0  0  0  0  0  0  0  0  0
   -3.6120   22.5170  -31.7580 C   0  0  0  0  0  0  0  0  0  0  0  0
   -2.5668   22.6254  -32.0832 H   0  0  0  0  0  0  0  0  0  0  0  0
   -1.0500   20.1760  -28.5750 C   0  0  0  0  0  0  0  0  0  0  0  0
   -0.0430   20.6990  -29.5730 C   0  0  0  0  0  0  0  0  0  0  0  0
    0.8092   21.1416  -29.0364 H   0  0  0  0  0  0  0  0  0  0  0  0
    0.3114   19.8710  -30.2045 H   0  0  0  0  0  0  0  0  0  0  0  0
   -0.5165   21.4651  -30.2045 H   0  0  0  0  0  0  0  0  0  0  0  0
   -0.8340   18.9360  -27.9190 C   0  0  0  0  0  0  0  0  0  0  0  0
    0.3720   18.0830  -28.2180 C   0  0  0  0  0  0  0  0  0  0  0  0
    0.8334   17.7567  -27.2743 H   0  0  0  0  0  0  0  0  0  0  0  0
    0.0628   17.2016  -28.7990 H   0  0  0  0  0  0  0  0  0  0  0  0
    1.1001   18.6681  -28.7990 H   0  0  0  0  0  0  0  0  0  0  0  0
   -1.7370   18.5070  -26.9330 C   0  0  0  0  0  0  0  0  0  0  0  0
   -1.5581   17.5577  -26.4069 H   0  0  0  0  0  0  0  0  0  0  0  0
  1  2  1  0
  2  3  2  0
  3  4  1  0
  3  5  1  0
  5  6  1  0
  6  7  2  0
  7  8  1  0
  8  9  1  0
  9 10  2  0
 10 11  1  0
 10 12  1  0
 12 13  1  0
 12 14  2  0
 14 15  1  0
 15 16  3  0
 14 17  1  0
 17 18  1  0
 17 19  2  0
 19 20  1  0
 20 21  1  0
 21 22  2  0
 22 23  1  0
 23 24  2  0
 24 25  1  0
 24 26  1  0
 26 27  1  0
 26 28  2  0
 28 29  1  0
 29 30  1  0
 30 31  1  0
 30 32  1  0
 30 33  1  0
 33 34  1  0
 33 35  1  0
 33 36  1  0
 28 37  1  0
 37 38  1  0
 37 39  2  0
 39 40  1  0
  5 41  2  0
 41 42  1  0
 42 43  1  0
 42 44  1  0
 42 45  1  0
 41 46  1  0
 46 47  1  0
 47 48  1  0
 47 49  1  0
 47 50  1  0
 46 51  2  0
 51 52  1  0
 51  2  1  0
 21  7  1  0
 39 23  1  0
 19  9  1  0
M  CHG  2   8  -1  20  -1
M  END
>  <UniqueID>  (27) 
24

>  <SMILES>  (27) 
CCOc1ccc(/N=c2/[n-]c3cc(C#N)ccc3[n-]/c2=N\c2cccc(C)c2C)cc1

>  <Energy>  (27) 
79.81580137101781

>  <Genealogy>  (27) 
CCOc1ccc(N=c2[n-]c3cc(C#N)ccc3[n-]c2=Nc2cccc(C)c2C)cc1 (protonated)
CCOc1ccc(/N=c2/[n-]c3cc(C#N)ccc3[n-]/c2=N\c2cccc(C)c2C)cc1 (cis-trans isomerization)
CCOc1ccc(/N=c2/[n-]c3cc(C#N)ccc3[n-]/c2=N\c2cccc(C)c2C)cc1 (3D coordinates assigned)
CCOc1ccc(/N=c2/[n-]c3cc(C#N)ccc3[n-]/c2=N\c2cccc(C)c2C)cc1 (optimized conformer: 79.81580137101781 kcal/mol)

>  <smiles>  (27) 
CCOc1ccc(N=c2[nH]c3cc(C#N)ccc3[nH]c2=Nc2cccc(C)c2C)cc1

>  <score_type>  (27) 
oracle

>  <origin>  (27) 
adgpu

>  <m_score__min__energy>  (27) 
-10.550000000000001

>  <m_primary>  (27) 
energy

$$$$
27:0
     RDKit          3D

 47 50  0  0  0  0  0  0  0  0999 V2000
   -0.5040   21.3570  -31.4300 C   0  0  0  0  0  0  0  0  0  0  0  0
   -1.8990   21.7540  -31.7880 C   0  0  0  0  0  0  0  0  0  0  0  0
   -2.6430   22.5360  -31.0460 O   0  0  0  0  0  0  0  0  0  0  0  0
   -3.8030   22.6600  -31.6510 C   0  0  0  0  0  0  0  0  0  0  0  0
   -4.9390   23.4430  -31.1150 C   0  0  0  0  0  0  0  0  0  0  0  0
   -6.2390   22.9020  -31.1490 C   0  0  0  0  0  0  0  0  0  0  0  0
   -7.3170   23.6120  -30.6160 C   0  0  0  0  0  0  0  0  0  0  0  0
   -7.1150   24.8690  -30.0440 C   0  0  0  0  0  0  0  0  0  0  0  0
   -5.8320   25.4190  -30.0040 C   0  0  0  0  0  0  0  0  0  0  0  0
   -4.7450   24.7150  -30.5330 C   0  0  0  0  0  0  0  0  0  0  0  0
   -3.4790   25.2880  -30.4670 O   0  0  0  0  0  0  0  0  0  0  0  0
   -3.8570   21.9670  -32.8100 N   0  0  0  0  0  0  0  0  0  0  0  0
   -2.6520   21.3710  -32.8860 C   0  0  0  0  0  0  0  0  0  0  0  0
   -2.2600   20.4290  -33.9980 C   0  0  0  0  0  0  0  0  0  0  0  0
   -2.6020   19.0080  -33.7500 N   0  0  0  0  0  0  0  0  0  0  0  0
   -2.9640   18.6630  -32.3660 C   0  0  0  0  0  0  0  0  0  0  0  0
   -4.4150   18.9200  -32.0820 C   0  0  0  0  0  0  0  0  0  0  0  0
   -5.3570   18.8710  -33.0400 C   0  0  0  0  0  0  0  0  0  0  0  0
   -6.7850   19.1050  -32.6830 C   0  0  0  0  0  0  0  0  0  0  0  0
   -7.5470   18.0910  -32.0670 C   0  0  0  0  0  0  0  0  0  0  0  0
   -8.8800   18.3190  -31.7130 C   0  0  0  0  0  0  0  0  0  0  0  0
   -9.4710   19.5570  -31.9710 C   0  0  0  0  0  0  0  0  0  0  0  0
   -8.7340   20.5670  -32.5890 C   0  0  0  0  0  0  0  0  0  0  0  0
   -7.4020   20.3430  -32.9510 C   0  0  0  0  0  0  0  0  0  0  0  0
   -4.9820   18.6510  -34.4940 C   0  0  0  0  0  0  0  0  0  0  0  0
   -3.4880   18.3650  -34.7370 C   0  0  0  0  0  0  0  0  0  0  0  0
   -0.4007   21.3276  -30.3353 H   0  0  0  0  0  0  0  0  0  0  0  0
   -0.2879   20.3617  -31.8456 H   0  0  0  0  0  0  0  0  0  0  0  0
    0.2037   22.0894  -31.8456 H   0  0  0  0  0  0  0  0  0  0  0  0
   -6.4065   21.9123  -31.5990 H   0  0  0  0  0  0  0  0  0  0  0  0
   -8.3279   23.1795  -30.6471 H   0  0  0  0  0  0  0  0  0  0  0  0
   -7.9659   25.4261  -29.6250 H   0  0  0  0  0  0  0  0  0  0  0  0
   -5.6754   26.4106  -29.5544 H   0  0  0  0  0  0  0  0  0  0  0  0
   -2.7724   20.7502  -34.9169 H   0  0  0  0  0  0  0  0  0  0  0  0
   -1.1639   20.4775  -34.0769 H   0  0  0  0  0  0  0  0  0  0  0  0
   -2.7534   17.5963  -32.1995 H   0  0  0  0  0  0  0  0  0  0  0  0
   -2.3691   19.2968  -31.6919 H   0  0  0  0  0  0  0  0  0  0  0  0
   -4.7191   19.1573  -31.0518 H   0  0  0  0  0  0  0  0  0  0  0  0
   -7.0885   17.1121  -31.8632 H   0  0  0  0  0  0  0  0  0  0  0  0
   -9.4641   17.5216  -31.2304 H   0  0  0  0  0  0  0  0  0  0  0  0
  -10.5184   19.7361  -31.6868 H   0  0  0  0  0  0  0  0  0  0  0  0
   -9.2015   21.5418  -32.7921 H   0  0  0  0  0  0  0  0  0  0  0  0
   -6.8310   21.1402  -33.4493 H   0  0  0  0  0  0  0  0  0  0  0  0
   -5.5606   17.7949  -34.8714 H   0  0  0  0  0  0  0  0  0  0  0  0
   -5.2079   19.5910  -35.0189 H   0  0  0  0  0  0  0  0  0  0  0  0
   -3.3291   17.2775  -34.6921 H   0  0  0  0  0  0  0  0  0  0  0  0
   -3.2332   18.7815  -35.7227 H   0  0  0  0  0  0  0  0  0  0  0  0
  1  2  1  0
  2  3  1  0
  3  4  1  0
  4  5  1  0
  5  6  2  0
  6  7  1  0
  7  8  2  0
  8  9  1  0
  9 10  2  0
 10 11  1  0
  4 12  2  0
 12 13  1  0
 13 14  1  0
 14 15  1  0
 15 16  1  0
 16 17  1  0
 17 18  2  0
 18 19  1  0
 19 20  2  0
 20 21  1  0
 21 22  2  0
 22 23  1  0
 23 24  2  0
 18 25  1  0
 25 26  1  0
 13  2  2  0
 26 15  1  0
 10  5  1  0
 24 19  1  0
  1 27  1  0
  1 28  1  0
  1 29  1  0
  6 30  1  0
  7 31  1  0
  8 32  1  0
  9 33  1  0
 14 34  1  0
 14 35  1  0
 16 36  1  0
 16 37  1  0
 17 38  1  0
 20 39  1  0
 21 40  1  0
 22 41  1  0
 23 42  1  0
 24 43  1  0
 25 44  1  0
 25 45  1  0
 26 46  1  0
 26 47  1  0
M  CHG  1  11  -1
M  END
>  <UniqueID>  (28) 
25

>  <SMILES>  (28) 
Cc1oc(-c2ccccc2[O-])nc1CN1CC=C(c2ccccc2)CC1

>  <Energy>  (28) 
92.16960757064611

>  <Genealogy>  (28) 
Cc1oc(-c2ccccc2[O-])nc1CN1CC=C(c2ccccc2)CC1 (protonated)
Cc1oc(-c2ccccc2[O-])nc1CN1CC=C(c2ccccc2)CC1 (3D coordinates assigned)
Cc1oc(-c2ccccc2[O-])nc1CN1CC=C(c2ccccc2)CC1 (nonaromatic ring conformer: 92.16960757064611 kcal/mol)

>  <smiles>  (28) 
Cc1oc(-c2ccccc2O)nc1CN1CC=C(c2ccccc2)CC1

>  <score_type>  (28) 
oracle

>  <origin>  (28) 
adgpu

>  <m_score__min__energy>  (28) 
-12.890000000000001

>  <m_primary>  (28) 
energy

$$$$
28:0
     RDKit          3D

 38 39  0  0  0  0  0  0  0  0999 V2000
   -3.1150   25.4360  -31.2080 H   0  0  0  0  0  0  0  0  0  0  0  0
   -3.8590   25.3590  -30.4800 N   0  0  0  0  0  0  0  0  0  0  0  0
   -4.1990   24.0970  -29.9130 C   0  0  0  0  0  0  0  0  0  0  0  0
   -5.3700   23.8970  -29.4920 O   0  0  0  0  0  0  0  0  0  0  0  0
   -3.1720   23.0360  -29.7960 C   0  0  0  0  0  0  0  0  0  0  0  0
   -2.2080   23.1330  -28.7610 C   0  0  0  0  0  0  0  0  0  0  0  0
   -2.3230   24.1590  -27.6600 C   0  0  0  0  0  0  0  0  0  0  0  0
   -2.2667   23.6564  -26.6831 H   0  0  0  0  0  0  0  0  0  0  0  0
   -1.5005   24.8842  -27.7472 H   0  0  0  0  0  0  0  0  0  0  0  0
   -3.2856   24.6841  -27.7472 H   0  0  0  0  0  0  0  0  0  0  0  0
   -1.0970   22.2830  -28.7710 C   0  0  0  0  0  0  0  0  0  0  0  0
   -0.3652   22.3249  -27.9508 H   0  0  0  0  0  0  0  0  0  0  0  0
   -0.9170   21.3830  -29.8200 C   0  0  0  0  0  0  0  0  0  0  0  0
    0.2780   20.4750  -29.8310 C   0  0  0  0  0  0  0  0  0  0  0  0
    0.5760   20.2486  -28.7966 H   0  0  0  0  0  0  0  0  0  0  0  0
    0.0235   19.5403  -30.3522 H   0  0  0  0  0  0  0  0  0  0  0  0
    1.1103   20.9706  -30.3522 H   0  0  0  0  0  0  0  0  0  0  0  0
   -1.8670   21.2730  -30.7870 N   0  0  0  0  0  0  0  0  0  0  0  0
   -1.7370   20.5520  -31.5350 H   0  0  0  0  0  0  0  0  0  0  0  0
   -3.0080   22.0200  -30.7890 C   0  0  0  0  0  0  0  0  0  0  0  0
   -3.9000   21.7420  -31.7070 N   0  0  0  0  0  0  0  0  0  0  0  0
   -5.2690   22.1580  -31.8150 C   0  0  0  0  0  0  0  0  0  0  0  0
   -5.5650   23.3920  -32.3970 C   0  0  0  0  0  0  0  0  0  0  0  0
   -4.7491   24.0487  -32.7333 H   0  0  0  0  0  0  0  0  0  0  0  0
   -6.8920   23.7960  -32.5540 C   0  0  0  0  0  0  0  0  0  0  0  0
   -7.1137   24.7790  -32.9951 H   0  0  0  0  0  0  0  0  0  0  0  0
   -7.9470   22.9590  -32.1540 C   0  0  0  0  0  0  0  0  0  0  0  0
   -9.3680   23.4230  -32.3370 C   0  0  0  0  0  0  0  0  0  0  0  0
   -9.8338   23.5751  -31.3522 H   0  0  0  0  0  0  0  0  0  0  0  0
   -9.3753   24.3702  -32.8963 H   0  0  0  0  0  0  0  0  0  0  0  0
   -9.9329   22.6626  -32.8963 H   0  0  0  0  0  0  0  0  0  0  0  0
   -7.6540   21.6810  -31.6180 C   0  0  0  0  0  0  0  0  0  0  0  0
   -8.7510   20.7400  -31.1930 C   0  0  0  0  0  0  0  0  0  0  0  0
   -8.7959   20.7015  -30.0946 H   0  0  0  0  0  0  0  0  0  0  0  0
   -9.7138   21.0974  -31.5870 H   0  0  0  0  0  0  0  0  0  0  0  0
   -8.5443   19.7340  -31.5870 H   0  0  0  0  0  0  0  0  0  0  0  0
   -6.3130   21.2900  -31.4640 C   0  0  0  0  0  0  0  0  0  0  0  0
   -6.0797   20.2923  -31.0638 H   0  0  0  0  0  0  0  0  0  0  0  0
  1  2  1  0
  2  3  1  0
  3  4  2  0
  3  5  1  0
  5  6  2  0
  6  7  1  0
  7  8  1  0
  7  9  1  0
  7 10  1  0
  6 11  1  0
 11 12  1  0
 11 13  2  0
 13 14  1  0
 14 15  1  0
 14 16  1  0
 14 17  1  0
 13 18  1  0
 18 19  1  0
 18 20  1  0
 20 21  2  0
 21 22  1  0
 22 23  2  0
 23 24  1  0
 23 25  1  0
 25 26  1  0
 25 27  2  0
 27 28  1  0
 28 29  1  0
 28 30  1  0
 28 31  1  0
 27 32  1  0
 32 33  1  0
 33 34  1  0
 33 35  1  0
 33 36  1  0
 32 37  2  0
 37 38  1  0
 20  5  1  0
 37 22  1  0
M  CHG  1   2  -1
M  END
>  <UniqueID>  (29) 
26

>  <SMILES>  (29) 
Cc1cc(C)c(C([NH-])=O)/c(=N\c2ccc(C)c(C)c2)[nH]1

>  <Energy>  (29) 
60.37107680619432

>  <Genealogy>  (29) 
Cc1cc(C)c(C([NH-])=O)c(=Nc2ccc(C)c(C)c2)[nH]1 (protonated)
Cc1cc(C)c(C([NH-])=O)/c(=N\c2ccc(C)c(C)c2)[nH]1 (cis-trans isomerization)
Cc1cc(C)c(C([NH-])=O)/c(=N\c2ccc(C)c(C)c2)[nH]1 (3D coordinates assigned)
Cc1cc(C)c(C([NH-])=O)/c(=N\c2ccc(C)c(C)c2)[nH]1 (optimized conformer: 60.37107680619432 kcal/mol)

>  <smiles>  (29) 
Cc1cc(C)c(C(N)=O)c(=Nc2ccc(C)c(C)c2)[nH]1

>  <score_type>  (29) 
oracle

>  <origin>  (29) 
adgpu

>  <m_score__min__energy>  (29) 
-8.9900000000000002

>  <m_primary>  (29) 
energy

$$$$
29:0
     RDKit          3D

 49 52  0  0  0  0  0  0  0  0999 V2000
    0.5900   20.4090  -32.8540 C   0  0  0  0  0  0  0  0  0  0  0  0
   -0.5260   20.7740  -34.1880 S   0  0  0  0  0  0  0  0  0  0  0  0
   -0.3720   22.2110  -34.5950 O   0  0  0  0  0  0  0  0  0  0  0  0
   -0.2030   19.9010  -35.3680 O   0  0  0  0  0  0  0  0  0  0  0  0
   -2.1800   20.4760  -33.6630 C   0  0  0  0  0  0  0  0  0  0  0  0
   -2.9040   19.3960  -34.1900 C   0  0  0  0  0  0  0  0  0  0  0  0
   -4.2230   19.1700  -33.7860 C   0  0  0  0  0  0  0  0  0  0  0  0
   -4.8340   20.0290  -32.8610 C   0  0  0  0  0  0  0  0  0  0  0  0
   -6.2230   19.7840  -32.4290 C   0  0  0  0  0  0  0  0  0  0  0  0
   -6.6300   18.4580  -32.2230 C   0  0  0  0  0  0  0  0  0  0  0  0
   -7.9310   18.1720  -31.8190 C   0  0  0  0  0  0  0  0  0  0  0  0
   -8.8470   19.2060  -31.6260 C   0  0  0  0  0  0  0  0  0  0  0  0
   -8.4720   20.5390  -31.8460 C   0  0  0  0  0  0  0  0  0  0  0  0
   -7.1440   20.8430  -32.2280 C   0  0  0  0  0  0  0  0  0  0  0  0
   -6.7680   22.2780  -32.5610 C   0  0  0  0  0  0  0  0  0  0  0  0
   -7.6180   23.2740  -31.8720 N   0  0  2  0  0  0  0  0  0  0  0  0
   -7.2740   23.3730  -30.4310 C   0  0  0  0  0  0  0  0  0  0  0  0
   -5.7990   23.6000  -30.2170 C   0  0  0  0  0  0  0  0  0  0  0  0
   -5.1730   24.7730  -30.6590 C   0  0  0  0  0  0  0  0  0  0  0  0
   -3.8380   24.9330  -30.4620 N   0  0  0  0  0  0  0  0  0  0  0  0
   -3.0970   23.9770  -29.8450 C   0  0  0  0  0  0  0  0  0  0  0  0
   -3.7180   22.8060  -29.4060 C   0  0  0  0  0  0  0  0  0  0  0  0
   -5.0530   22.6430  -29.6020 N   0  0  0  0  0  0  0  0  0  0  0  0
   -9.0480   22.9900  -32.1280 C   0  0  0  0  0  0  0  0  0  0  0  0
   -9.4850   21.6230  -31.5830 C   0  0  0  0  0  0  0  0  0  0  0  0
   -4.1090   21.1060  -32.3320 C   0  0  0  0  0  0  0  0  0  0  0  0
   -2.7900   21.3320  -32.7370 C   0  0  0  0  0  0  0  0  0  0  0  0
    0.0803   20.5757  -31.8936 H   0  0  0  0  0  0  0  0  0  0  0  0
    0.9110   19.3590  -32.9214 H   0  0  0  0  0  0  0  0  0  0  0  0
    1.4694   21.0663  -32.9214 H   0  0  0  0  0  0  0  0  0  0  0  0
   -2.4324   18.7252  -34.9232 H   0  0  0  0  0  0  0  0  0  0  0  0
   -4.7832   18.3161  -34.1947 H   0  0  0  0  0  0  0  0  0  0  0  0
   -5.9153   17.6371  -32.3820 H   0  0  0  0  0  0  0  0  0  0  0  0
   -8.2372   17.1288  -31.6517 H   0  0  0  0  0  0  0  0  0  0  0  0
   -9.8712   18.9739  -31.2988 H   0  0  0  0  0  0  0  0  0  0  0  0
   -5.7221   22.4442  -32.2634 H   0  0  0  0  0  0  0  0  0  0  0  0
   -6.9141   22.4134  -33.6428 H   0  0  0  0  0  0  0  0  0  0  0  0
   -7.4040   24.2020  -32.3120 H   0  0  0  0  0  0  0  0  0  0  0  0
   -7.8303   24.2132  -29.9899 H   0  0  0  0  0  0  0  0  0  0  0  0
   -7.5445   22.4210  -29.9508 H   0  0  0  0  0  0  0  0  0  0  0  0
   -5.7574   25.5579  -31.1614 H   0  0  0  0  0  0  0  0  0  0  0  0
   -2.0176   24.1237  -29.6924 H   0  0  0  0  0  0  0  0  0  0  0  0
   -3.1314   22.0216  -28.9055 H   0  0  0  0  0  0  0  0  0  0  0  0
   -9.6541   23.7714  -31.6464 H   0  0  0  0  0  0  0  0  0  0  0  0
   -9.1952   22.9767  -33.2180 H   0  0  0  0  0  0  0  0  0  0  0  0
   -9.6338   21.7090  -30.4965 H   0  0  0  0  0  0  0  0  0  0  0  0
  -10.4137   21.3413  -32.1008 H   0  0  0  0  0  0  0  0  0  0  0  0
   -4.5791   21.7751  -31.5963 H   0  0  0  0  0  0  0  0  0  0  0  0
   -2.2293   22.1850  -32.3270 H   0  0  0  0  0  0  0  0  0  0  0  0
  1  2  1  0
  2  3  2  0
  2  4  2  0
  2  5  1  0
  5  6  2  0
  6  7  1  0
  7  8  2  0
  8  9  1  0
  9 10  2  0
 10 11  1  0
 11 12  2  0
 12 13  1  0
 13 14  2  0
 14 15  1  0
 15 16  1  0
 16 17  1  0
 17 18  1  0
 18 19  2  0
 19 20  1  0
 20 21  2  0
 21 22  1  0
 22 23  2  0
 16 24  1  0
 24 25  1  0
  8 26  1  0
 26 27  2  0
 27  5  1  0
 14  9  1  0
 23 18  1  0
 25 13  1  0
  1 28  1  0
  1 29  1  0
  1 30  1  0
  6 31  1  0
  7 32  1  0
 10 33  1  0
 11 34  1  0
 12 35  1  0
 15 36  1  0
 15 37  1  0
 16 38  1  6
 17 39  1  0
 17 40  1  0
 19 41  1  0
 21 42  1  0
 22 43  1  0
 24 44  1  0
 24 45  1  0
 25 46  1  0
 25 47  1  0
 26 48  1  0
 27 49  1  0
M  CHG  1  16   1
M  END
>  <UniqueID>  (30) 
27

>  <SMILES>  (30) 
CS(=O)(=O)c1ccc(-c2cccc3c2C[N@H+](Cc2cnccn2)CC3)cc1

>  <Energy>  (30) 
66.74278727609207

>  <Genealogy>  (30) 
CS(=O)(=O)c1ccc(-c2cccc3c2C[NH+](Cc2cnccn2)CC3)cc1 (protonated)
CS(=O)(=O)c1ccc(-c2cccc3c2C[N@H+](Cc2cnccn2)CC3)cc1 (chirality)
CS(=O)(=O)c1ccc(-c2cccc3c2C[N@H+](Cc2cnccn2)CC3)cc1 (3D coordinates assigned)
CS(=O)(=O)c1ccc(-c2cccc3c2C[N@H+](Cc2cnccn2)CC3)cc1 (nonaromatic ring conformer: 66.74278727609207 kcal/mol)

>  <smiles>  (30) 
CS(=O)(=O)c1ccc(-c2cccc3c2CN(Cc2cnccn2)CC3)cc1

>  <score_type>  (30) 
oracle

>  <origin>  (30) 
adgpu

>  <m_score__min__energy>  (30) 
-9.5600000000000005

>  <m_primary>  (30) 
energy

$$$$
30:0
     RDKit          3D

 41 43  0  0  0  0  0  0  0  0999 V2000
   -8.6830   21.8930  -31.5780 C   0  0  0  0  0  0  0  0  0  0  0  0
   -7.5620   22.4250  -30.6850 C   0  0  0  0  0  0  0  0  0  0  0  0
   -6.9720   23.7520  -31.1940 C   0  0  0  0  0  0  0  0  0  0  0  0
   -6.8080   24.8280  -30.1080 C   0  0  0  0  0  0  0  0  0  0  0  0
   -5.4510   26.0020  -30.4670 S   0  0  0  0  0  0  0  0  0  0  0  0
   -4.1450   24.7910  -30.2830 C   0  0  0  0  0  0  0  0  0  0  0  0
   -3.8940   23.8380  -31.2030 N   0  0  0  0  0  0  0  0  0  0  0  0
   -2.8580   23.1530  -30.6870 C   0  0  0  0  0  0  0  0  0  0  0  0
   -2.3050   21.9410  -31.3270 C   0  0  0  0  0  0  0  0  0  0  0  0
   -3.1340   21.1370  -32.1260 C   0  0  0  0  0  0  0  0  0  0  0  0
   -2.6300   19.9760  -32.7210 C   0  0  0  0  0  0  0  0  0  0  0  0
   -1.3010   19.6010  -32.5110 C   0  0  0  0  0  0  0  0  0  0  0  0
   -0.4750   20.3820  -31.6980 C   0  0  0  0  0  0  0  0  0  0  0  0
   -0.9750   21.5430  -31.1010 C   0  0  0  0  0  0  0  0  0  0  0  0
   -2.5000   23.7240  -29.4720 C   0  0  0  0  0  0  0  0  0  0  0  0
   -1.3660   23.3700  -28.5920 C   0  0  0  0  0  0  0  0  0  0  0  0
   -1.4820   22.2810  -27.7130 C   0  0  0  0  0  0  0  0  0  0  0  0
   -0.4240   21.9440  -26.8630 C   0  0  0  0  0  0  0  0  0  0  0  0
    0.7510   22.7010  -26.8730 C   0  0  0  0  0  0  0  0  0  0  0  0
    0.8670   23.8000  -27.7290 C   0  0  0  0  0  0  0  0  0  0  0  0
   -0.1890   24.1400  -28.5790 C   0  0  0  0  0  0  0  0  0  0  0  0
   -3.3200   24.7590  -29.2170 N   0  0  0  0  0  0  0  0  0  0  0  0
   -9.4992   21.5057  -30.9504 H   0  0  0  0  0  0  0  0  0  0  0  0
   -9.0633   22.7067  -32.2131 H   0  0  0  0  0  0  0  0  0  0  0  0
   -8.2931   21.0839  -32.2131 H   0  0  0  0  0  0  0  0  0  0  0  0
   -7.9642   22.5843  -29.6736 H   0  0  0  0  0  0  0  0  0  0  0  0
   -6.7530   21.6797  -30.6901 H   0  0  0  0  0  0  0  0  0  0  0  0
   -5.9821   23.5456  -31.6270 H   0  0  0  0  0  0  0  0  0  0  0  0
   -7.6847   24.1525  -31.9299 H   0  0  0  0  0  0  0  0  0  0  0  0
   -7.7487   25.3927  -30.0286 H   0  0  0  0  0  0  0  0  0  0  0  0
   -6.5588   24.3131  -29.1685 H   0  0  0  0  0  0  0  0  0  0  0  0
   -4.1846   21.4217  -32.2846 H   0  0  0  0  0  0  0  0  0  0  0  0
   -3.2814   19.3571  -33.3555 H   0  0  0  0  0  0  0  0  0  0  0  0
   -0.9046   18.6912  -32.9854 H   0  0  0  0  0  0  0  0  0  0  0  0
    0.5697   20.0828  -31.5277 H   0  0  0  0  0  0  0  0  0  0  0  0
   -0.3253   22.1481  -30.4515 H   0  0  0  0  0  0  0  0  0  0  0  0
   -2.4096   21.6902  -27.6930 H   0  0  0  0  0  0  0  0  0  0  0  0
   -0.5165   21.0822  -26.1857 H   0  0  0  0  0  0  0  0  0  0  0  0
    1.5843   22.4319  -26.2073 H   0  0  0  0  0  0  0  0  0  0  0  0
    1.7904   24.3978  -27.7336 H   0  0  0  0  0  0  0  0  0  0  0  0
   -0.0992   25.0139  -29.2410 H   0  0  0  0  0  0  0  0  0  0  0  0
  1  2  1  0
  2  3  1  0
  3  4  1  0
  4  5  1  0
  5  6  1  0
  6  7  2  0
  7  8  1  0
  8  9  1  0
  9 10  2  0
 10 11  1  0
 11 12  2  0
 12 13  1  0
 13 14  2  0
  8 15  2  0
 15 16  1  0
 16 17  2  0
 17 18  1  0
 18 19  2  0
 19 20  1  0
 20 21  2  0
 15 22  1  0
 22  6  1  0
 14  9  1  0
 21 16  1  0
  1 23  1  0
  1 24  1  0
  1 25  1  0
  2 26  1  0
  2 27  1  0
  3 28  1  0
  3 29  1  0
  4 30  1  0
  4 31  1  0
 10 32  1  0
 11 33  1  0
 12 34  1  0
 13 35  1  0
 14 36  1  0
 17 37  1  0
 18 38  1  0
 19 39  1  0
 20 40  1  0
 21 41  1  0
M  CHG  1  22  -1
M  END
>  <UniqueID>  (31) 
28

>  <SMILES>  (31) 
CCCCSc1nc(-c2ccccc2)c(-c2ccccc2)[n-]1

>  <Energy>  (31) 
70.16543817101454

>  <Genealogy>  (31) 
CCCCSc1nc(-c2ccccc2)c(-c2ccccc2)[n-]1 (protonated)
CCCCSc1nc(-c2ccccc2)c(-c2ccccc2)[n-]1 (3D coordinates assigned)
CCCCSc1nc(-c2ccccc2)c(-c2ccccc2)[n-]1 (optimized conformer: 70.16543817101454 kcal/mol)

>  <smiles>  (31) 
CCCCSc1nc(-c2ccccc2)c(-c2ccccc2)[nH]1

>  <score_type>  (31) 
oracle

>  <origin>  (31) 
adgpu

>  <m_score__min__energy>  (31) 
-7.9699999999999998

>  <m_primary>  (31) 
energy

$$$$
31:0
     RDKit          3D

 51 54  0  0  0  0  0  0  0  0999 V2000
   -8.9088   23.4721  -32.3090 H   0  0  0  0  0  0  0  0  0  0  0  0
   -7.9380   23.0940  -31.9560 C   0  0  0  0  0  0  0  0  0  0  0  0
   -7.9490   21.9140  -31.0620 C   0  0  0  0  0  0  0  0  0  0  0  0
   -8.0030   22.0870  -29.8120 O   0  0  0  0  0  0  0  0  0  0  0  0
   -7.8340   20.5360  -31.6040 C   0  0  0  0  0  0  0  0  0  0  0  0
   -8.7650   19.5490  -31.2210 C   0  0  0  0  0  0  0  0  0  0  0  0
   -9.5674   19.8005  -30.5118 H   0  0  0  0  0  0  0  0  0  0  0  0
   -8.6750   18.2520  -31.7370 C   0  0  0  0  0  0  0  0  0  0  0  0
   -9.4041   17.4877  -31.4300 H   0  0  0  0  0  0  0  0  0  0  0  0
   -7.6630   17.9250  -32.6400 C   0  0  0  0  0  0  0  0  0  0  0  0
   -7.5931   16.9029  -33.0406 H   0  0  0  0  0  0  0  0  0  0  0  0
   -6.7380   18.8950  -33.0360 C   0  0  0  0  0  0  0  0  0  0  0  0
   -5.3660   18.4510  -34.2860 Br  0  0  0  0  0  0  0  0  0  0  0  0
   -6.8220   20.1950  -32.5240 C   0  0  0  0  0  0  0  0  0  0  0  0
   -6.0935   20.9555  -32.8417 H   0  0  0  0  0  0  0  0  0  0  0  0
   -6.8360   23.7380  -32.3690 C   0  0  0  0  0  0  0  0  0  0  0  0
   -6.9612   24.5030  -33.1494 H   0  0  0  0  0  0  0  0  0  0  0  0
   -5.4650   23.5040  -31.8610 C   0  0  0  0  0  0  0  0  0  0  0  0
   -4.6680   22.4610  -32.3560 C   0  0  0  0  0  0  0  0  0  0  0  0
   -5.0509   21.8138  -33.1588 H   0  0  0  0  0  0  0  0  0  0  0  0
   -3.3930   22.2400  -31.8360 C   0  0  0  0  0  0  0  0  0  0  0  0
   -2.7680   21.4336  -32.2472 H   0  0  0  0  0  0  0  0  0  0  0  0
   -2.9000   23.0410  -30.7890 C   0  0  0  0  0  0  0  0  0  0  0  0
   -1.6230   22.8500  -30.2350 O   0  0  0  0  0  0  0  0  0  0  0  0
   -0.9750   21.5880  -30.0630 C   0  0  0  0  0  0  0  0  0  0  0  0
   -1.4158   20.8618  -30.7617 H   0  0  0  0  0  0  0  0  0  0  0  0
    0.0985   21.7215  -30.2622 H   0  0  0  0  0  0  0  0  0  0  0  0
   -1.1350   21.0690  -28.6470 C   0  0  0  0  0  0  0  0  0  0  0  0
   -1.6850   19.7840  -28.4710 C   0  0  0  0  0  0  0  0  0  0  0  0
   -1.8996   19.1604  -29.3514 H   0  0  0  0  0  0  0  0  0  0  0  0
   -1.9610   19.2920  -27.1960 C   0  0  0  0  0  0  0  0  0  0  0  0
   -2.3708   18.2783  -27.0757 H   0  0  0  0  0  0  0  0  0  0  0  0
   -1.7190   20.0810  -26.0750 C   0  0  0  0  0  0  0  0  0  0  0  0
   -1.9376   19.6899  -25.0704 H   0  0  0  0  0  0  0  0  0  0  0  0
   -1.2000   21.3660  -26.2240 C   0  0  0  0  0  0  0  0  0  0  0  0
   -1.0277   21.9888  -25.3338 H   0  0  0  0  0  0  0  0  0  0  0  0
   -0.8940   21.8760  -27.4980 C   0  0  0  0  0  0  0  0  0  0  0  0
   -0.3420   23.2460  -27.5700 C   0  0  0  0  0  0  0  0  0  0  0  0
    0.4500   23.7080  -28.5590 N   0  0  0  0  0  0  0  0  0  0  0  0
    0.7890   24.9300  -28.1830 N   0  0  0  0  0  0  0  0  0  0  0  0
    0.2370   25.1900  -27.0110 N   0  0  0  0  0  0  0  0  0  0  0  0
    0.3500   26.0860  -26.4870 H   0  0  0  0  0  0  0  0  0  0  0  0
   -0.4680   24.1570  -26.5850 N   0  0  0  0  0  0  0  0  0  0  0  0
   -3.7040   24.0640  -30.2650 C   0  0  0  0  0  0  0  0  0  0  0  0
   -3.1920   24.8390  -29.2130 O   0  0  0  0  0  0  0  0  0  0  0  0
   -3.3430   24.5270  -27.8320 C   0  0  0  0  0  0  0  0  0  0  0  0
   -2.9437   25.3521  -27.2239 H   0  0  0  0  0  0  0  0  0  0  0  0
   -4.4094   24.3852  -27.6026 H   0  0  0  0  0  0  0  0  0  0  0  0
   -2.7925   23.6027  -27.6026 H   0  0  0  0  0  0  0  0  0  0  0  0
   -4.9890   24.2840  -30.7990 C   0  0  0  0  0  0  0  0  0  0  0  0
   -5.6252   25.0764  -30.3778 H   0  0  0  0  0  0  0  0  0  0  0  0
  1  2  1  0
  2  3  1  0
  3  4  2  0
  3  5  1  0
  5  6  2  0
  6  7  1  0
  6  8  1  0
  8  9  1  0
  8 10  2  0
 10 11  1  0
 10 12  1  0
 12 13  1  0
 12 14  2  0
 14 15  1  0
  2 16  2  0
 16 17  1  0
 16 18  1  0
 18 19  2  0
 19 20  1  0
 19 21  1  0
 21 22  1  0
 21 23  2  0
 23 24  1  0
 24 25  1  0
 25 26  1  0
 25 27  1  0
 25 28  1  0
 28 29  2  0
 29 30  1  0
 29 31  1  0
 31 32  1  0
 31 33  2  0
 33 34  1  0
 33 35  1  0
 35 36  1  0
 35 37  2  0
 37 38  1  0
 38 39  1  0
 39 40  2  0
 40 41  1  0
 41 42  1  0
 41 43  1  0
 23 44  1  0
 44 45  1  0
 45 46  1  0
 46 47  1  0
 46 48  1  0
 46 49  1  0
 44 50  2  0
 50 51  1  0
 14  5  1  0
 50 18  1  0
 37 28  1  0
 43 38  2  0
M  END
>  <UniqueID>  (32) 
29

>  <SMILES>  (32) 
COc1cc(/C=C\C(=O)c2cccc(Br)c2)ccc1OCc1ccccc1-c1nn[nH]n1

>  <Energy>  (32) 
111.08784947647773

>  <Genealogy>  (32) 
COc1cc(/C=C\C(=O)c2cccc(Br)c2)ccc1OCc1ccccc1-c1nn[nH]n1 (cis-trans isomerization)
COc1cc(/C=C\C(=O)c2cccc(Br)c2)ccc1OCc1ccccc1-c1nn[nH]n1 (3D coordinates assigned)
COc1cc(/C=C\C(=O)c2cccc(Br)c2)ccc1OCc1ccccc1-c1nn[nH]n1 (optimized conformer: 111.08784947647773 kcal/mol)

>  <smiles>  (32) 
COc1cc(C=CC(=O)c2cccc(Br)c2)ccc1OCc1ccccc1-c1nn[nH]n1

>  <score_type>  (32) 
oracle

>  <origin>  (32) 
adgpu

>  <m_score__min__energy>  (32) 
-11.42

>  <m_primary>  (32) 
energy

$$$$
32:0
     RDKit          3D

 59 62  0  0  0  0  0  0  0  0999 V2000
   -0.0500   24.3980  -24.6950 C   0  0  0  0  0  0  0  0  0  0  0  0
   -0.7540   24.4790  -26.0250 C   0  0  0  0  0  0  0  0  0  0  0  0
   -1.6150   23.4260  -26.3770 C   0  0  0  0  0  0  0  0  0  0  0  0
   -2.2920   23.4330  -27.5930 C   0  0  0  0  0  0  0  0  0  0  0  0
   -2.1260   24.4900  -28.4890 C   0  0  0  0  0  0  0  0  0  0  0  0
   -2.8340   24.4620  -29.7380 N   0  0  0  0  0  0  0  0  0  0  0  0
   -4.2660   24.5130  -29.8270 C   0  0  0  0  0  0  0  0  0  0  0  0
   -4.9490   24.8910  -28.8380 O   0  0  0  0  0  0  0  0  0  0  0  0
   -4.9340   24.2230  -31.0600 N   0  0  0  0  0  0  0  0  0  0  0  0
   -5.7460   23.0700  -31.3230 C   0  0  0  0  0  0  0  0  0  0  0  0
   -5.3660   22.1950  -32.3480 C   0  0  0  0  0  0  0  0  0  0  0  0
   -6.1450   21.0720  -32.6450 C   0  0  0  0  0  0  0  0  0  0  0  0
   -7.3240   20.8240  -31.9280 C   0  0  0  0  0  0  0  0  0  0  0  0
   -8.3150   19.4150  -32.2910 S   0  0  0  0  0  0  0  0  0  0  0  0
   -9.1270   19.0730  -31.0720 O   0  0  0  0  0  0  0  0  0  0  0  0
   -9.2470   19.7230  -33.4310 O   0  0  0  0  0  0  0  0  0  0  0  0
   -7.2900   18.0680  -32.7170 N   0  0  0  0  0  0  0  0  0  0  0  0
   -6.4130   17.7240  -31.5870 C   0  0  0  0  0  0  0  0  0  0  0  0
   -5.5050   16.5340  -31.9660 C   0  0  0  0  0  0  0  0  0  0  0  0
   -5.5980   16.2040  -33.3410 O   0  0  0  0  0  0  0  0  0  0  0  0
   -5.3730   17.3570  -34.1280 C   0  0  0  0  0  0  0  0  0  0  0  0
   -6.4830   18.4040  -33.9020 C   0  0  0  0  0  0  0  0  0  0  0  0
   -7.7250   21.7170  -30.9260 C   0  0  0  0  0  0  0  0  0  0  0  0
   -6.9450   22.8370  -30.6260 C   0  0  0  0  0  0  0  0  0  0  0  0
   -1.3180   25.5850  -28.1300 C   0  0  0  0  0  0  0  0  0  0  0  0
   -1.2420   26.6790  -28.9850 O   0  0  0  0  0  0  0  0  0  0  0  0
   -0.6150   25.5900  -26.9030 C   0  0  0  0  0  0  0  0  0  0  0  0
    0.4380   26.9790  -26.5110 S   0  0  0  0  0  0  0  0  0  0  0  0
    0.0180   28.1710  -27.3260 O   0  0  0  0  0  0  0  0  0  0  0  0
    0.2880   27.3630  -25.0670 O   0  0  0  0  0  0  0  0  0  0  0  0
    2.1810   26.6530  -26.8340 C   0  0  0  0  0  0  0  0  0  0  0  0
    2.4440   25.2860  -27.4610 C   0  0  0  0  0  0  0  0  0  0  0  0
    3.2530   24.8800  -26.2390 C   0  0  0  0  0  0  0  0  0  0  0  0
    3.0010   26.2440  -25.6120 C   0  0  0  0  0  0  0  0  0  0  0  0
   -0.7880   24.4829  -23.8837 H   0  0  0  0  0  0  0  0  0  0  0  0
    0.4733   23.4337  -24.6152 H   0  0  0  0  0  0  0  0  0  0  0  0
    0.6786   25.2182  -24.6152 H   0  0  0  0  0  0  0  0  0  0  0  0
   -1.7559   22.5849  -25.6823 H   0  0  0  0  0  0  0  0  0  0  0  0
   -2.9626   22.5996  -27.8496 H   0  0  0  0  0  0  0  0  0  0  0  0
   -2.2840   24.5710  -30.6200 H   0  0  0  0  0  0  0  0  0  0  0  0
   -4.4493   22.3920  -32.9231 H   0  0  0  0  0  0  0  0  0  0  0  0
   -5.8321   20.3821  -33.4426 H   0  0  0  0  0  0  0  0  0  0  0  0
   -5.7878   18.5929  -31.3335 H   0  0  0  0  0  0  0  0  0  0  0  0
   -7.0320   17.4444  -30.7218 H   0  0  0  0  0  0  0  0  0  0  0  0
   -4.4622   16.7969  -31.7349 H   0  0  0  0  0  0  0  0  0  0  0  0
   -5.8363   15.6596  -31.3866 H   0  0  0  0  0  0  0  0  0  0  0  0
   -4.4025   17.7963  -33.8537 H   0  0  0  0  0  0  0  0  0  0  0  0
   -5.3769   17.0645  -35.1884 H   0  0  0  0  0  0  0  0  0  0  0  0
   -6.0217   19.3917  -33.7551 H   0  0  0  0  0  0  0  0  0  0  0  0
   -7.1409   18.4140  -34.7835 H   0  0  0  0  0  0  0  0  0  0  0  0
   -8.6583   21.5358  -30.3727 H   0  0  0  0  0  0  0  0  0  0  0  0
   -7.2696   23.5380  -29.8429 H   0  0  0  0  0  0  0  0  0  0  0  0
    2.4248   27.5813  -27.3714 H   0  0  0  0  0  0  0  0  0  0  0  0
    1.5377   24.6832  -27.6200 H   0  0  0  0  0  0  0  0  0  0  0  0
    2.8808   25.2104  -28.4677 H   0  0  0  0  0  0  0  0  0  0  0  0
    2.8213   24.0405  -25.6743 H   0  0  0  0  0  0  0  0  0  0  0  0
    4.2801   24.5032  -26.3536 H   0  0  0  0  0  0  0  0  0  0  0  0
    2.4247   26.2085  -24.6757 H   0  0  0  0  0  0  0  0  0  0  0  0
    3.8429   26.8653  -25.2727 H   0  0  0  0  0  0  0  0  0  0  0  0
  1  2  1  0
  2  3  2  0
  3  4  1  0
  4  5  2  0
  5  6  1  0
  6  7  1  0
  7  8  2  0
  7  9  1  0
  9 10  1  0
 10 11  2  0
 11 12  1  0
 12 13  2  0
 13 14  1  0
 14 15  2  0
 14 16  2  0
 14 17  1  0
 17 18  1  0
 18 19  1  0
 19 20  1  0
 20 21  1  0
 21 22  1  0
 13 23  1  0
 23 24  2  0
  5 25  1  0
 25 26  1  0
 25 27  2  0
 27 28  1  0
 28 29  2  0
 28 30  2  0
 28 31  1  0
 31 32  1  0
 32 33  1  0
 33 34  1  0
 27  2  1  0
 34 31  1  0
 24 10  1  0
 22 17  1  0
  1 35  1  0
  1 36  1  0
  1 37  1  0
  3 38  1  0
  4 39  1  0
  6 40  1  0
 11 41  1  0
 12 42  1  0
 18 43  1  0
 18 44  1  0
 19 45  1  0
 19 46  1  0
 21 47  1  0
 21 48  1  0
 22 49  1  0
 22 50  1  0
 23 51  1  0
 24 52  1  0
 31 53  1  0
 32 54  1  0
 32 55  1  0
 33 56  1  0
 33 57  1  0
 34 58  1  0
 34 59  1  0
M  CHG  2   9  -1  26  -1
M  END
>  <UniqueID>  (33) 
30

>  <SMILES>  (33) 
Cc1ccc(NC(=O)[N-]c2ccc(S(=O)(=O)N3CCOCC3)cc2)c([O-])c1S(=O)(=O)C1CCC1

>  <Energy>  (33) 
138.73351173399163

>  <Genealogy>  (33) 
Cc1ccc(NC(=O)[N-]c2ccc(S(=O)(=O)N3CCOCC3)cc2)c([O-])c1S(=O)(=O)C1CCC1 (protonated)
Cc1ccc(NC(=O)[N-]c2ccc(S(=O)(=O)N3CCOCC3)cc2)c([O-])c1S(=O)(=O)C1CCC1 (3D coordinates assigned)
Cc1ccc(NC(=O)[N-]c2ccc(S(=O)(=O)N3CCOCC3)cc2)c([O-])c1S(=O)(=O)C1CCC1 (nonaromatic ring conformer: 138.73351173399163 kcal/mol)

>  <smiles>  (33) 
Cc1ccc(NC(=O)Nc2ccc(S(=O)(=O)N3CCOCC3)cc2)c(O)c1S(=O)(=O)C1CCC1

>  <score_type>  (33) 
oracle

>  <origin>  (33) 
adgpu

>  <m_score__min__energy>  (33) 
-15.210000000000001

>  <m_primary>  (33) 
energy

$$$$
33:0
     RDKit          3D

 38 40  0  0  0  0  0  0  0  0999 V2000
   -6.5790   24.4260  -31.3620 O   0  0  0  0  0  0  0  0  0  0  0  0
   -5.8510   23.3990  -31.3270 C   0  0  0  0  0  0  0  0  0  0  0  0
   -6.2080   22.2670  -32.1320 N   0  0  0  0  0  0  0  0  0  0  0  0
   -5.2810   21.2590  -32.5570 C   0  0  0  0  0  0  0  0  0  0  0  0
   -4.0480   21.6550  -33.0880 C   0  0  0  0  0  0  0  0  0  0  0  0
   -3.0750   20.7040  -33.3990 C   0  0  0  0  0  0  0  0  0  0  0  0
   -3.3390   19.3410  -33.2160 C   0  0  0  0  0  0  0  0  0  0  0  0
   -2.0580   18.1640  -33.4890 S   0  0  0  0  0  0  0  0  0  0  0  0
   -1.1290   18.0900  -32.3090 O   0  0  0  0  0  0  0  0  0  0  0  0
   -2.6780   16.8120  -33.6980 O   0  0  0  0  0  0  0  0  0  0  0  0
   -1.1600   18.6080  -34.9090 N   0  0  0  0  0  0  0  0  0  0  0  0
   -0.3430   19.6160  -35.0260 C   0  0  0  0  0  0  0  0  0  0  0  0
   -0.0520   20.4910  -33.9640 C   0  0  0  0  0  0  0  0  0  0  0  0
    0.8170   21.5580  -34.1770 C   0  0  0  0  0  0  0  0  0  0  0  0
    1.3830   21.7330  -35.4380 C   0  0  0  0  0  0  0  0  0  0  0  0
    2.4740   23.0680  -35.7460 Cl  0  0  0  0  0  0  0  0  0  0  0  0
    1.0830   20.8580  -36.4320 N   0  0  0  0  0  0  0  0  0  0  0  0
    0.2490   19.8360  -36.2310 N   0  0  0  0  0  0  0  0  0  0  0  0
   -4.6010   18.9360  -32.7620 C   0  0  0  0  0  0  0  0  0  0  0  0
   -5.5740   19.8850  -32.4330 C   0  0  0  0  0  0  0  0  0  0  0  0
   -7.1590   19.3190  -31.9230 Cl  0  0  0  0  0  0  0  0  0  0  0  0
   -4.6500   23.3890  -30.4600 C   0  0  0  0  0  0  0  0  0  0  0  0
   -4.2820   22.2000  -29.8090 C   0  0  0  0  0  0  0  0  0  0  0  0
   -3.1290   22.1530  -29.0220 C   0  0  0  0  0  0  0  0  0  0  0  0
   -2.3420   23.2940  -28.8630 C   0  0  0  0  0  0  0  0  0  0  0  0
   -2.7140   24.4940  -29.4750 C   0  0  0  0  0  0  0  0  0  0  0  0
   -1.9330   25.6280  -29.2840 O   0  0  0  0  0  0  0  0  0  0  0  0
   -3.8740   24.5510  -30.2680 C   0  0  0  0  0  0  0  0  0  0  0  0
   -4.2740   25.7590  -30.8440 O   0  0  0  0  0  0  0  0  0  0  0  0
   -3.8447   22.7221  -33.2612 H   0  0  0  0  0  0  0  0  0  0  0  0
   -2.0981   21.0260  -33.7889 H   0  0  0  0  0  0  0  0  0  0  0  0
   -0.5065   20.3340  -32.9747 H   0  0  0  0  0  0  0  0  0  0  0  0
    1.0538   22.2546  -33.3592 H   0  0  0  0  0  0  0  0  0  0  0  0
   -4.8281   17.8642  -32.6637 H   0  0  0  0  0  0  0  0  0  0  0  0
   -4.9055   21.3006  -29.9196 H   0  0  0  0  0  0  0  0  0  0  0  0
   -2.8408   21.2142  -28.5264 H   0  0  0  0  0  0  0  0  0  0  0  0
   -1.4267   23.2489  -28.2546 H   0  0  0  0  0  0  0  0  0  0  0  0
   -5.2440   25.9690  -31.0410 H   0  0  0  0  0  0  0  0  0  0  0  0
  1  2  2  0
  2  3  1  0
  3  4  1  0
  4  5  2  0
  5  6  1  0
  6  7  2  0
  7  8  1  0
  8  9  2  0
  8 10  2  0
  8 11  1  0
 11 12  2  3
 12 13  1  0
 13 14  2  0
 14 15  1  0
 15 16  1  0
 15 17  2  0
 17 18  1  0
  7 19  1  0
 19 20  2  0
 20 21  1  0
  2 22  1  0
 22 23  2  0
 23 24  1  0
 24 25  2  0
 25 26  1  0
 26 27  1  0
 26 28  2  0
 28 29  1  0
 20  4  1  0
 28 22  1  0
 18 12  1  0
  5 30  1  0
  6 31  1  0
 13 32  1  0
 14 33  1  0
 19 34  1  0
 23 35  1  0
 24 36  1  0
 25 37  1  0
 29 38  1  0
M  CHG  3   3  -1  18  -1  27  -1
M  END
>  <UniqueID>  (34) 
31

>  <SMILES>  (34) 
O=C([N-]c1ccc(S(=O)(=O)N=c2ccc(Cl)n[n-]2)cc1Cl)c1cccc([O-])c1O

>  <Energy>  (34) 
57.70837378626224

>  <Genealogy>  (34) 
O=C([N-]c1ccc(S(=O)(=O)N=c2ccc(Cl)n[n-]2)cc1Cl)c1cccc([O-])c1O (protonated)
O=C([N-]c1ccc(S(=O)(=O)N=c2ccc(Cl)n[n-]2)cc1Cl)c1cccc([O-])c1O (3D coordinates assigned)
O=C([N-]c1ccc(S(=O)(=O)N=c2ccc(Cl)n[n-]2)cc1Cl)c1cccc([O-])c1O (optimized conformer: 57.70837378626224 kcal/mol)

>  <smiles>  (34) 
O=C(Nc1ccc(S(=O)(=O)N=c2ccc(Cl)n[nH]2)cc1Cl)c1cccc(O)c1O

>  <score_type>  (34) 
oracle

>  <origin>  (34) 
adgpu

>  <m_score__min__energy>  (34) 
-12.31

>  <m_primary>  (34) 
energy

$$$$
34:0
     RDKit          3D

 43 45  0  0  0  0  0  0  0  0999 V2000
   -4.1530   16.5310  -33.2680 C   0  0  0  0  0  0  0  0  0  0  0  0
   -5.0390   17.6550  -33.7040 C   0  0  0  0  0  0  0  0  0  0  0  0
   -5.3360   17.9220  -34.9880 N   0  0  0  0  0  0  0  0  0  0  0  0
   -6.1510   18.9320  -35.0150 O   0  0  0  0  0  0  0  0  0  0  0  0
   -6.4110   19.3540  -33.7990 C   0  0  0  0  0  0  0  0  0  0  0  0
   -7.2120   20.3600  -33.5900 N   0  0  0  0  0  0  0  0  0  0  0  0
   -7.6800   21.1180  -32.0990 S   0  0  0  0  0  0  0  0  0  0  0  0
   -8.9350   21.9060  -32.3480 O   0  0  0  0  0  0  0  0  0  0  0  0
   -7.9750   20.0730  -31.0620 O   0  0  0  0  0  0  0  0  0  0  0  0
   -6.4400   22.2380  -31.5420 C   0  0  0  0  0  0  0  0  0  0  0  0
   -6.7990   23.3670  -30.7960 C   0  0  0  0  0  0  0  0  0  0  0  0
   -5.8160   24.2500  -30.3390 C   0  0  0  0  0  0  0  0  0  0  0  0
   -4.4650   24.0180  -30.6260 C   0  0  0  0  0  0  0  0  0  0  0  0
   -3.4910   24.9500  -30.1380 N   0  0  0  0  0  0  0  0  0  0  0  0
   -2.2620   24.5880  -28.9690 S   0  0  0  0  0  0  0  0  0  0  0  0
   -1.0450   25.4180  -29.2630 O   0  0  0  0  0  0  0  0  0  0  0  0
   -2.7710   24.9350  -27.5980 O   0  0  0  0  0  0  0  0  0  0  0  0
   -1.8250   22.8850  -29.0600 C   0  0  0  0  0  0  0  0  0  0  0  0
   -0.8700   22.4570  -29.9940 C   0  0  0  0  0  0  0  0  0  0  0  0
   -0.5260   21.1040  -30.0750 C   0  0  0  0  0  0  0  0  0  0  0  0
   -1.1310   20.1750  -29.2230 C   0  0  0  0  0  0  0  0  0  0  0  0
   -2.0810   20.5990  -28.2890 C   0  0  0  0  0  0  0  0  0  0  0  0
   -2.4280   21.9510  -28.2050 C   0  0  0  0  0  0  0  0  0  0  0  0
   -4.1070   22.8880  -31.3830 C   0  0  0  0  0  0  0  0  0  0  0  0
   -5.0910   22.0070  -31.8410 C   0  0  0  0  0  0  0  0  0  0  0  0
   -5.7050   18.5590  -32.8860 C   0  0  0  0  0  0  0  0  0  0  0  0
   -5.7140   18.5330  -31.3860 C   0  0  0  0  0  0  0  0  0  0  0  0
   -4.1230   16.4929  -32.1691 H   0  0  0  0  0  0  0  0  0  0  0  0
   -4.5477   15.5809  -33.6572 H   0  0  0  0  0  0  0  0  0  0  0  0
   -3.1370   16.6929  -33.6572 H   0  0  0  0  0  0  0  0  0  0  0  0
   -4.9910   17.4110  -35.8310 H   0  0  0  0  0  0  0  0  0  0  0  0
   -7.8578   23.5600  -30.5687 H   0  0  0  0  0  0  0  0  0  0  0  0
   -6.1057   25.1328  -29.7501 H   0  0  0  0  0  0  0  0  0  0  0  0
   -0.3911   23.1866  -30.6636 H   0  0  0  0  0  0  0  0  0  0  0  0
    0.2214   20.7702  -30.8098 H   0  0  0  0  0  0  0  0  0  0  0  0
   -0.8596   19.1110  -29.2875 H   0  0  0  0  0  0  0  0  0  0  0  0
   -2.5564   19.8676  -27.6189 H   0  0  0  0  0  0  0  0  0  0  0  0
   -3.1743   22.2822  -27.4679 H   0  0  0  0  0  0  0  0  0  0  0  0
   -3.0490   22.6968  -31.6155 H   0  0  0  0  0  0  0  0  0  0  0  0
   -4.8049   21.1289  -32.4385 H   0  0  0  0  0  0  0  0  0  0  0  0
   -5.3770   19.5065  -31.0004 H   0  0  0  0  0  0  0  0  0  0  0  0
   -6.7345   18.3305  -31.0289 H   0  0  0  0  0  0  0  0  0  0  0  0
   -5.0371   17.7429  -31.0289 H   0  0  0  0  0  0  0  0  0  0  0  0
  1  2  1  0
  2  3  1  0
  3  4  1  0
  4  5  1  0
  5  6  2  3
  6  7  1  0
  7  8  2  0
  7  9  2  0
  7 10  1  0
 10 11  2  0
 11 12  1  0
 12 13  2  0
 13 14  1  0
 14 15  1  0
 15 16  2  0
 15 17  2  0
 15 18  1  0
 18 19  2  0
 19 20  1  0
 20 21  2  0
 21 22  1  0
 22 23  2  0
 13 24  1  0
 24 25  2  0
  5 26  1  0
 26 27  1  0
 26  2  2  0
 25 10  1  0
 23 18  1  0
  1 28  1  0
  1 29  1  0
  1 30  1  0
  3 31  1  0
 11 32  1  0
 12 33  1  0
 19 34  1  0
 20 35  1  0
 21 36  1  0
 22 37  1  0
 23 38  1  0
 24 39  1  0
 25 40  1  0
 27 41  1  0
 27 42  1  0
 27 43  1  0
M  CHG  1  14  -1
M  END
>  <UniqueID>  (35) 
32

>  <SMILES>  (35) 
Cc1[nH]oc(=NS(=O)(=O)c2ccc([N-]S(=O)(=O)c3ccccc3)cc2)c1C

>  <Energy>  (35) 
88.17719433970247

>  <Genealogy>  (35) 
Cc1[nH]oc(=NS(=O)(=O)c2ccc([N-]S(=O)(=O)c3ccccc3)cc2)c1C (protonated)
Cc1[nH]oc(=NS(=O)(=O)c2ccc([N-]S(=O)(=O)c3ccccc3)cc2)c1C (3D coordinates assigned)
Cc1[nH]oc(=NS(=O)(=O)c2ccc([N-]S(=O)(=O)c3ccccc3)cc2)c1C (optimized conformer: 88.17719433970247 kcal/mol)

>  <smiles>  (35) 
Cc1[nH]oc(=NS(=O)(=O)c2ccc(NS(=O)(=O)c3ccccc3)cc2)c1C

>  <score_type>  (35) 
oracle

>  <origin>  (35) 
adgpu

>  <m_score__min__energy>  (35) 
-10.470000000000001

>  <m_primary>  (35) 
energy

$$$$
35:0
     RDKit          3D

 50 53  0  0  0  0  0  0  0  0999 V2000
   -1.1110   26.8220  -28.6840 N   0  0  0  0  0  0  0  0  0  0  0  0
   -1.2430   25.5510  -28.0350 C   0  0  0  0  0  0  0  0  0  0  0  0
   -0.5260   25.3020  -26.8540 C   0  0  0  0  0  0  0  0  0  0  0  0
   -0.6380   24.0710  -26.2040 C   0  0  0  0  0  0  0  0  0  0  0  0
   -1.4740   23.0820  -26.7210 C   0  0  0  0  0  0  0  0  0  0  0  0
   -2.1960   23.3170  -27.8930 C   0  0  0  0  0  0  0  0  0  0  0  0
   -2.0710   24.5450  -28.5730 C   0  0  0  0  0  0  0  0  0  0  0  0
   -2.8160   24.8010  -29.7750 N   0  0  0  0  0  0  0  0  0  0  0  0
   -3.4260   23.8010  -30.6020 C   0  0  0  0  0  0  0  0  0  0  0  0
   -2.6900   23.0440  -31.2900 O   0  0  0  0  0  0  0  0  0  0  0  0
   -4.8910   23.6240  -30.6410 C   0  0  0  0  0  0  0  0  0  0  0  0
   -5.7460   24.7100  -30.3930 C   0  0  0  0  0  0  0  0  0  0  0  0
   -7.1300   24.5490  -30.4840 C   0  0  0  0  0  0  0  0  0  0  0  0
   -7.6700   23.3130  -30.8470 C   0  0  0  0  0  0  0  0  0  0  0  0
   -6.8260   22.2250  -31.1140 C   0  0  0  0  0  0  0  0  0  0  0  0
   -7.4960   20.7090  -31.7190 S   0  0  0  0  0  0  0  0  0  0  0  0
   -8.6170   20.2660  -30.8190 O   0  0  0  0  0  0  0  0  0  0  0  0
   -8.0640   20.9320  -33.0940 O   0  0  0  0  0  0  0  0  0  0  0  0
   -6.2680   19.4620  -31.7920 N   0  0  1  0  0  0  0  0  0  0  0  0
   -6.8760   18.1100  -31.6100 C   0  0  0  0  0  0  0  0  0  0  0  0
   -7.0480   17.3340  -32.9230 C   0  0  0  0  0  0  0  0  0  0  0  0
   -5.7130   17.2290  -33.5870 C   0  0  0  0  0  0  0  0  0  0  0  0
   -5.2890   16.0490  -34.2130 C   0  0  0  0  0  0  0  0  0  0  0  0
   -4.0300   15.9950  -34.8190 C   0  0  0  0  0  0  0  0  0  0  0  0
   -3.1980   17.1200  -34.8080 C   0  0  0  0  0  0  0  0  0  0  0  0
   -3.6250   18.3020  -34.1940 C   0  0  0  0  0  0  0  0  0  0  0  0
   -4.8800   18.3550  -33.5690 C   0  0  0  0  0  0  0  0  0  0  0  0
   -5.4200   19.6450  -33.0060 C   0  0  0  0  0  0  0  0  0  0  0  0
   -5.4390   22.3750  -30.9710 C   0  0  0  0  0  0  0  0  0  0  0  0
   -1.2340   26.9060  -29.7190 H   0  0  0  0  0  0  0  0  0  0  0  0
   -0.8940   27.6910  -28.1480 H   0  0  0  0  0  0  0  0  0  0  0  0
    0.1286   26.0819  -26.4377 H   0  0  0  0  0  0  0  0  0  0  0  0
   -0.0663   23.8815  -25.2835 H   0  0  0  0  0  0  0  0  0  0  0  0
   -1.5649   22.1149  -26.2047 H   0  0  0  0  0  0  0  0  0  0  0  0
   -2.8662   22.5391  -28.2877 H   0  0  0  0  0  0  0  0  0  0  0  0
   -5.3243   25.6903  -30.1263 H   0  0  0  0  0  0  0  0  0  0  0  0
   -7.7965   25.3974  -30.2694 H   0  0  0  0  0  0  0  0  0  0  0  0
   -8.7607   23.1925  -30.9237 H   0  0  0  0  0  0  0  0  0  0  0  0
   -5.6520   19.6290  -30.9610 H   0  0  0  0  0  0  0  0  0  0  0  0
   -6.2280   17.5240  -30.9416 H   0  0  0  0  0  0  0  0  0  0  0  0
   -7.8812   18.2613  -31.1897 H   0  0  0  0  0  0  0  0  0  0  0  0
   -7.4379   16.3274  -32.7114 H   0  0  0  0  0  0  0  0  0  0  0  0
   -7.7575   17.8570  -33.5811 H   0  0  0  0  0  0  0  0  0  0  0  0
   -5.9456   15.1666  -34.2276 H   0  0  0  0  0  0  0  0  0  0  0  0
   -3.6933   15.0673  -35.3048 H   0  0  0  0  0  0  0  0  0  0  0  0
   -2.2068   17.0748  -35.2829 H   0  0  0  0  0  0  0  0  0  0  0  0
   -2.9765   19.1905  -34.2012 H   0  0  0  0  0  0  0  0  0  0  0  0
   -4.5699   20.2911  -32.7415 H   0  0  0  0  0  0  0  0  0  0  0  0
   -6.0609   20.0903  -33.7812 H   0  0  0  0  0  0  0  0  0  0  0  0
   -4.7771   21.5089  -31.1183 H   0  0  0  0  0  0  0  0  0  0  0  0
  1  2  1  0
  2  3  2  0
  3  4  1  0
  4  5  2  0
  5  6  1  0
  6  7  2  0
  7  8  1  0
  8  9  1  0
  9 10  2  0
  9 11  1  0
 11 12  2  0
 12 13  1  0
 13 14  2  0
 14 15  1  0
 15 16  1  0
 16 17  2  0
 16 18  2  0
 16 19  1  0
 19 20  1  0
 20 21  1  0
 21 22  1  0
 22 23  2  0
 23 24  1  0
 24 25  2  0
 25 26  1  0
 26 27  2  0
 27 28  1  0
 15 29  2  0
  7  2  1  0
 29 11  1  0
 28 19  1  0
 27 22  1  0
  1 30  1  0
  1 31  1  0
  3 32  1  0
  4 33  1  0
  5 34  1  0
  6 35  1  0
 12 36  1  0
 13 37  1  0
 14 38  1  0
 19 39  1  1
 20 40  1  0
 20 41  1  0
 21 42  1  0
 21 43  1  0
 23 44  1  0
 24 45  1  0
 25 46  1  0
 26 47  1  0
 28 48  1  0
 28 49  1  0
 29 50  1  0
M  CHG  2   8  -1  19   1
M  END
>  <UniqueID>  (36) 
33

>  <SMILES>  (36) 
Nc1ccccc1[N-]C(=O)c1cccc(S(=O)(=O)[N@H+]2CCc3ccccc3C2)c1

>  <Energy>  (36) 
68.1743679304612

>  <Genealogy>  (36) 
Nc1ccccc1[N-]C(=O)c1cccc(S(=O)(=O)[NH+]2CCc3ccccc3C2)c1 (protonated)
Nc1ccccc1[N-]C(=O)c1cccc(S(=O)(=O)[N@H+]2CCc3ccccc3C2)c1 (chirality)
Nc1ccccc1[N-]C(=O)c1cccc(S(=O)(=O)[N@H+]2CCc3ccccc3C2)c1 (3D coordinates assigned)
Nc1ccccc1[N-]C(=O)c1cccc(S(=O)(=O)[N@H+]2CCc3ccccc3C2)c1 (nonaromatic ring conformer: 68.1743679304612 kcal/mol)

>  <smiles>  (36) 
Nc1ccccc1NC(=O)c1cccc(S(=O)(=O)N2CCc3ccccc3C2)c1

>  <score_type>  (36) 
oracle

>  <origin>  (36) 
adgpu

>  <m_score__min__energy>  (36) 
-11.02

>  <m_primary>  (36) 
energy

$$$$
36:0
     RDKit          3D

 29 30  0  0  0  0  0  0  0  0999 V2000
   -3.1150   25.6780  -30.8400 H   0  0  0  0  0  0  0  0  0  0  0  0
   -3.4960   25.0730  -30.1220 O   0  0  0  0  0  0  0  0  0  0  0  0
   -2.6740   24.4300  -29.1990 C   0  0  0  0  0  0  0  0  0  0  0  0
   -2.9700   23.1280  -28.7690 C   0  0  0  0  0  0  0  0  0  0  0  0
   -3.8700   22.6195  -29.1451 H   0  0  0  0  0  0  0  0  0  0  0  0
   -2.1260   22.4710  -27.8630 C   0  0  0  0  0  0  0  0  0  0  0  0
   -2.4420   21.0880  -27.4480 C   0  0  0  0  0  0  0  0  0  0  0  0
   -3.1568   20.9559  -26.6224 H   0  0  0  0  0  0  0  0  0  0  0  0
   -1.9230   19.9810  -28.0020 C   0  0  0  0  0  0  0  0  0  0  0  0
   -2.1636   19.0188  -27.5263 H   0  0  0  0  0  0  0  0  0  0  0  0
   -1.0530   19.9470  -29.2010 C   0  0  0  0  0  0  0  0  0  0  0  0
    0.1110   19.4810  -29.0760 O   0  0  0  0  0  0  0  0  0  0  0  0
   -1.5200   20.3790  -30.5420 C   0  0  0  0  0  0  0  0  0  0  0  0
   -2.8720   20.7100  -30.7440 C   0  0  0  0  0  0  0  0  0  0  0  0
   -3.5880   20.6100  -29.9149 H   0  0  0  0  0  0  0  0  0  0  0  0
   -3.3130   21.1650  -31.9900 C   0  0  0  0  0  0  0  0  0  0  0  0
   -4.9940   21.6090  -32.2140 Cl  0  0  0  0  0  0  0  0  0  0  0  0
   -2.4130   21.2740  -33.0510 C   0  0  0  0  0  0  0  0  0  0  0  0
   -2.7615   21.6328  -34.0307 H   0  0  0  0  0  0  0  0  0  0  0  0
   -1.0710   20.9290  -32.8730 C   0  0  0  0  0  0  0  0  0  0  0  0
    0.1410   21.0950  -34.3440 Br  0  0  0  0  0  0  0  0  0  0  0  0
   -0.6200   20.4800  -31.6230 C   0  0  0  0  0  0  0  0  0  0  0  0
    0.7250   20.1640  -31.4530 O   0  0  0  0  0  0  0  0  0  0  0  0
   -1.0110   23.1510  -27.3420 C   0  0  0  0  0  0  0  0  0  0  0  0
   -0.3682   22.6597  -26.5968 H   0  0  0  0  0  0  0  0  0  0  0  0
   -0.7170   24.4490  -27.7680 C   0  0  0  0  0  0  0  0  0  0  0  0
    0.1658   24.9706  -27.3697 H   0  0  0  0  0  0  0  0  0  0  0  0
   -1.5420   25.0860  -28.6990 C   0  0  0  0  0  0  0  0  0  0  0  0
   -1.2380   26.3750  -29.1230 O   0  0  0  0  0  0  0  0  0  0  0  0
  1  2  1  0
  2  3  1  0
  3  4  2  0
  4  5  1  0
  4  6  1  0
  6  7  1  0
  7  8  1  0
  7  9  2  0
  9 10  1  0
  9 11  1  0
 11 12  2  0
 11 13  1  0
 13 14  2  0
 14 15  1  0
 14 16  1  0
 16 17  1  0
 16 18  2  0
 18 19  1  0
 18 20  1  0
 20 21  1  0
 20 22  2  0
 22 23  1  0
  6 24  2  0
 24 25  1  0
 24 26  1  0
 26 27  1  0
 26 28  2  0
 28 29  1  0
 28  3  1  0
 22 13  1  0
M  CHG  2  23  -1  29  -1
M  END
>  <UniqueID>  (37) 
34

>  <SMILES>  (37) 
O=C(/C=C\c1ccc([O-])c(O)c1)c1cc(Cl)cc(Br)c1[O-]

>  <Energy>  (37) 
40.620799229590155

>  <Genealogy>  (37) 
O=C(C=Cc1ccc([O-])c(O)c1)c1cc(Cl)cc(Br)c1[O-] (protonated)
O=C(/C=C\c1ccc([O-])c(O)c1)c1cc(Cl)cc(Br)c1[O-] (cis-trans isomerization)
O=C(/C=C\c1ccc([O-])c(O)c1)c1cc(Cl)cc(Br)c1[O-] (3D coordinates assigned)
O=C(/C=C\c1ccc([O-])c(O)c1)c1cc(Cl)cc(Br)c1[O-] (optimized conformer: 40.620799229590155 kcal/mol)

>  <smiles>  (37) 
O=C(C=Cc1ccc(O)c(O)c1)c1cc(Cl)cc(Br)c1O

>  <score_type>  (37) 
oracle

>  <origin>  (37) 
adgpu

>  <m_score__min__energy>  (37) 
-11.32

>  <m_primary>  (37) 
energy

$$$$
37:0
     RDKit          3D

 51 53  0  0  0  0  0  0  0  0999 V2000
   -6.8800   15.2910  -34.2330 C   0  0  0  0  0  0  0  0  0  0  0  0
   -5.5500   15.7150  -34.5240 O   0  0  0  0  0  0  0  0  0  0  0  0
   -5.0010   16.9350  -34.1050 C   0  0  0  0  0  0  0  0  0  0  0  0
   -3.7030   16.9350  -33.5770 C   0  0  0  0  0  0  0  0  0  0  0  0
   -3.1080   18.1260  -33.1540 C   0  0  0  0  0  0  0  0  0  0  0  0
   -3.8100   19.3360  -33.2470 C   0  0  0  0  0  0  0  0  0  0  0  0
   -3.0370   20.8510  -32.7930 S   0  0  0  0  0  0  0  0  0  0  0  0
   -2.3900   20.7310  -31.4420 O   0  0  0  0  0  0  0  0  0  0  0  0
   -1.9760   21.1900  -33.8010 O   0  0  0  0  0  0  0  0  0  0  0  0
   -4.2320   22.1040  -32.7930 N   0  0  0  0  0  0  0  0  0  0  0  0
   -4.5120   22.9210  -31.6520 C   0  0  0  0  0  0  0  0  0  0  0  0
   -3.4790   23.6190  -31.0050 C   0  0  0  0  0  0  0  0  0  0  0  0
   -3.7630   24.4830  -29.9350 C   0  0  0  0  0  0  0  0  0  0  0  0
   -2.7350   25.2590  -29.3030 N   0  0  0  0  0  0  0  0  0  0  0  0
   -1.5080   24.7580  -28.7590 C   0  0  0  0  0  0  0  0  0  0  0  0
   -1.3570   23.3290  -28.3390 C   0  0  0  0  0  0  0  0  0  0  0  0
   -0.5440   25.5510  -28.5930 O   0  0  0  0  0  0  0  0  0  0  0  0
   -5.0900   24.6720  -29.5390 C   0  0  0  0  0  0  0  0  0  0  0  0
   -6.1210   23.9730  -30.1690 C   0  0  0  0  0  0  0  0  0  0  0  0
   -5.8440   23.0920  -31.2270 C   0  0  0  0  0  0  0  0  0  0  0  0
   -6.9130   22.3320  -31.8220 N   0  0  0  0  0  0  0  0  0  0  0  0
   -6.9200   20.8650  -31.6960 C   0  0  0  0  0  0  0  0  0  0  0  0
   -8.3450   20.2990  -31.7890 C   0  0  0  0  0  0  0  0  0  0  0  0
   -9.3260   21.2000  -31.0320 C   0  0  0  0  0  0  0  0  0  0  0  0
   -9.3580   22.6370  -31.5960 C   0  0  0  0  0  0  0  0  0  0  0  0
   -8.0890   23.0120  -32.3800 C   0  0  0  0  0  0  0  0  0  0  0  0
   -5.1080   19.3430  -33.7720 C   0  0  0  0  0  0  0  0  0  0  0  0
   -5.7040   18.1530  -34.1990 C   0  0  0  0  0  0  0  0  0  0  0  0
   -7.0203   15.2463  -33.1429 H   0  0  0  0  0  0  0  0  0  0  0  0
   -7.5956   16.0055  -34.6658 H   0  0  0  0  0  0  0  0  0  0  0  0
   -7.0500   14.2941  -34.6658 H   0  0  0  0  0  0  0  0  0  0  0  0
   -3.1478   15.9890  -33.4949 H   0  0  0  0  0  0  0  0  0  0  0  0
   -2.0862   18.1144  -32.7469 H   0  0  0  0  0  0  0  0  0  0  0  0
   -2.4392   23.4878  -31.3391 H   0  0  0  0  0  0  0  0  0  0  0  0
   -1.3506   23.2684  -27.2407 H   0  0  0  0  0  0  0  0  0  0  0  0
   -2.1979   22.7400  -28.7339 H   0  0  0  0  0  0  0  0  0  0  0  0
   -0.4116   22.9287  -28.7339 H   0  0  0  0  0  0  0  0  0  0  0  0
   -5.3232   25.3756  -28.7263 H   0  0  0  0  0  0  0  0  0  0  0  0
   -7.1593   24.1134  -29.8339 H   0  0  0  0  0  0  0  0  0  0  0  0
   -6.3107   20.4339  -32.5040 H   0  0  0  0  0  0  0  0  0  0  0  0
   -6.5073   20.6011  -30.7111 H   0  0  0  0  0  0  0  0  0  0  0  0
   -8.6450   20.2434  -32.8458 H   0  0  0  0  0  0  0  0  0  0  0  0
   -8.3612   19.2953  -31.3391 H   0  0  0  0  0  0  0  0  0  0  0  0
  -10.3345   20.7675  -31.1087 H   0  0  0  0  0  0  0  0  0  0  0  0
   -8.9913   21.2569  -29.9857 H   0  0  0  0  0  0  0  0  0  0  0  0
  -10.2236   22.7288  -32.2685 H   0  0  0  0  0  0  0  0  0  0  0  0
   -9.4248   23.3220  -30.7379 H   0  0  0  0  0  0  0  0  0  0  0  0
   -8.2131   22.7139  -33.4315 H   0  0  0  0  0  0  0  0  0  0  0  0
   -7.9366   24.0989  -32.3064 H   0  0  0  0  0  0  0  0  0  0  0  0
   -5.6618   20.2903  -33.8488 H   0  0  0  0  0  0  0  0  0  0  0  0
   -6.7244   18.1671  -34.6095 H   0  0  0  0  0  0  0  0  0  0  0  0
  1  2  1  0
  2  3  1  0
  3  4  2  0
  4  5  1  0
  5  6  2  0
  6  7  1  0
  7  8  2  0
  7  9  2  0
  7 10  1  0
 10 11  1  0
 11 12  2  0
 12 13  1  0
 13 14  1  0
 14 15  1  0
 15 16  1  0
 15 17  2  0
 13 18  2  0
 18 19  1  0
 19 20  2  0
 20 21  1  0
 21 22  1  0
 22 23  1  0
 23 24  1  0
 24 25  1  0
 25 26  1  0
  6 27  1  0
 27 28  2  0
 28  3  1  0
 20 11  1  0
 26 21  1  0
  1 29  1  0
  1 30  1  0
  1 31  1  0
  4 32  1  0
  5 33  1  0
 12 34  1  0
 16 35  1  0
 16 36  1  0
 16 37  1  0
 18 38  1  0
 19 39  1  0
 22 40  1  0
 22 41  1  0
 23 42  1  0
 23 43  1  0
 24 44  1  0
 24 45  1  0
 25 46  1  0
 25 47  1  0
 26 48  1  0
 26 49  1  0
 27 50  1  0
 28 51  1  0
M  CHG  2  10  -1  14  -1
M  END
>  <UniqueID>  (38) 
35

>  <SMILES>  (38) 
COc1ccc(S(=O)(=O)[N-]c2cc([N-]C(C)=O)ccc2N2CCCCC2)cc1

>  <Energy>  (38) 
64.94387768414524

>  <Genealogy>  (38) 
COc1ccc(S(=O)(=O)[N-]c2cc([N-]C(C)=O)ccc2N2CCCCC2)cc1 (protonated)
COc1ccc(S(=O)(=O)[N-]c2cc([N-]C(C)=O)ccc2N2CCCCC2)cc1 (3D coordinates assigned)
COc1ccc(S(=O)(=O)[N-]c2cc([N-]C(C)=O)ccc2N2CCCCC2)cc1 (nonaromatic ring conformer: 64.94387768414524 kcal/mol)

>  <smiles>  (38) 
COc1ccc(S(=O)(=O)Nc2cc(NC(C)=O)ccc2N2CCCCC2)cc1

>  <score_type>  (38) 
oracle

>  <origin>  (38) 
adgpu

>  <m_score__min__energy>  (38) 
-11

>  <m_primary>  (38) 
energy

$$$$
38:0
     RDKit          3D

 23 23  0  0  0  0  0  0  0  0999 V2000
   -5.8780   23.9100  -31.5410 C   0  0  0  0  0  0  0  0  0  0  0  0
   -5.2240   23.3770  -30.2680 C   0  0  0  0  0  0  0  0  0  0  0  0
   -4.1660   24.3550  -29.7130 C   0  0  2  0  0  0  0  0  0  0  0  0
   -3.8680   25.3820  -30.6300 O   0  0  0  0  0  0  0  0  0  0  0  0
   -2.9000   23.6190  -29.3080 C   0  0  0  0  0  0  0  0  0  0  0  0
   -2.9380   22.2310  -29.0720 C   0  0  0  0  0  0  0  0  0  0  0  0
   -1.7860   21.5420  -28.6890 C   0  0  0  0  0  0  0  0  0  0  0  0
   -0.5790   22.2250  -28.5310 C   0  0  0  0  0  0  0  0  0  0  0  0
    0.5610   21.5270  -28.1500 O   0  0  0  0  0  0  0  0  0  0  0  0
   -0.5190   23.6040  -28.7500 C   0  0  0  0  0  0  0  0  0  0  0  0
    0.6980   24.2670  -28.5800 O   0  0  0  0  0  0  0  0  0  0  0  0
   -1.6770   24.3060  -29.1360 C   0  0  0  0  0  0  0  0  0  0  0  0
   -1.6040   25.6800  -29.3430 O   0  0  0  0  0  0  0  0  0  0  0  0
   -6.7051   24.5841  -31.2737 H   0  0  0  0  0  0  0  0  0  0  0  0
   -5.1326   24.4611  -32.1331 H   0  0  0  0  0  0  0  0  0  0  0  0
   -6.2674   23.0687  -32.1331 H   0  0  0  0  0  0  0  0  0  0  0  0
   -6.0019   23.2240  -29.5055 H   0  0  0  0  0  0  0  0  0  0  0  0
   -4.7191   22.4311  -30.5138 H   0  0  0  0  0  0  0  0  0  0  0  0
   -4.5991   24.8234  -28.8169 H   0  0  0  0  0  0  0  0  0  0  0  0
   -2.9250   25.6550  -30.4970 H   0  0  0  0  0  0  0  0  0  0  0  0
   -3.8851   21.6843  -29.1907 H   0  0  0  0  0  0  0  0  0  0  0  0
   -1.8295   20.4573  -28.5111 H   0  0  0  0  0  0  0  0  0  0  0  0
    1.5350   23.7890  -28.2700 H   0  0  0  0  0  0  0  0  0  0  0  0
  1  2  1  0
  2  3  1  0
  3  4  1  0
  3  5  1  0
  5  6  2  0
  6  7  1  0
  7  8  2  0
  8  9  1  0
  8 10  1  0
 10 11  1  0
 10 12  2  0
 12 13  1  0
 12  5  1  0
  1 14  1  0
  1 15  1  0
  1 16  1  0
  2 17  1  0
  2 18  1  0
  3 19  1  1
  4 20  1  0
  6 21  1  0
  7 22  1  0
 11 23  1  0
M  CHG  2   9  -1  13  -1
M  END
>  <UniqueID>  (39) 
36

>  <SMILES>  (39) 
CC[C@H](O)c1ccc([O-])c(O)c1[O-]

>  <Energy>  (39) 
20.766581443185242

>  <Genealogy>  (39) 
CCC(O)c1ccc([O-])c(O)c1[O-] (protonated)
CC[C@H](O)c1ccc([O-])c(O)c1[O-] (chirality)
CC[C@H](O)c1ccc([O-])c(O)c1[O-] (3D coordinates assigned)
CC[C@H](O)c1ccc([O-])c(O)c1[O-] (optimized conformer: 20.766581443185242 kcal/mol)

>  <smiles>  (39) 
CCC(O)c1ccc(O)c(O)c1O

>  <score_type>  (39) 
oracle

>  <origin>  (39) 
adgpu

>  <m_score__min__energy>  (39) 
-9.0899999999999999

>  <m_primary>  (39) 
energy

$$$$
39:0
     RDKit          3D

 53 56  0  0  0  0  0  0  0  0999 V2000
   -6.1100   17.1980  -34.0240 C   0  0  0  0  0  0  0  0  0  0  0  0
   -6.3850   18.6280  -33.9350 N   0  0  0  0  0  0  0  0  0  0  0  0
   -7.3150   18.9670  -32.5050 S   0  0  0  0  0  0  0  0  0  0  0  0
   -6.7170   18.2380  -31.3340 O   0  0  0  0  0  0  0  0  0  0  0  0
   -8.7210   18.4840  -32.7180 O   0  0  0  0  0  0  0  0  0  0  0  0
   -7.3500   20.6980  -32.1730 C   0  0  0  0  0  0  0  0  0  0  0  0
   -6.1650   21.4500  -32.2030 C   0  0  0  0  0  0  0  0  0  0  0  0
   -6.1880   22.8270  -31.9560 C   0  0  0  0  0  0  0  0  0  0  0  0
   -4.9510   23.5550  -31.9720 N   0  0  0  0  0  0  0  0  0  0  0  0
   -4.3360   24.1970  -30.8460 C   0  0  0  0  0  0  0  0  0  0  0  0
   -4.2830   25.4550  -30.8260 O   0  0  0  0  0  0  0  0  0  0  0  0
   -3.8360   23.4250  -29.6820 C   0  0  0  0  0  0  0  0  0  0  0  0
   -3.7020   24.0540  -28.4320 C   0  0  0  0  0  0  0  0  0  0  0  0
   -3.2140   23.3500  -27.3300 C   0  0  0  0  0  0  0  0  0  0  0  0
   -2.8420   22.0140  -27.4660 C   0  0  0  0  0  0  0  0  0  0  0  0
   -2.9620   21.3750  -28.7000 C   0  0  0  0  0  0  0  0  0  0  0  0
   -3.4770   22.0640  -29.8150 C   0  0  0  0  0  0  0  0  0  0  0  0
   -3.6030   21.4340  -31.0630 O   0  0  0  0  0  0  0  0  0  0  0  0
   -2.5560   21.1950  -31.9670 C   0  0  0  0  0  0  0  0  0  0  0  0
   -2.7920   20.7890  -33.2910 C   0  0  0  0  0  0  0  0  0  0  0  0
   -1.7210   20.5620  -34.1600 C   0  0  0  0  0  0  0  0  0  0  0  0
   -0.4040   20.7720  -33.7330 C   0  0  0  0  0  0  0  0  0  0  0  0
    0.6740   20.4800  -34.6370 N   0  0  0  0  0  0  0  0  0  0  0  0
    1.4660   21.3460  -35.2020 C   0  0  0  0  0  0  0  0  0  0  0  0
    2.5130   20.8920  -36.0130 C   0  0  0  0  0  0  0  0  0  0  0  0
    3.3470   21.8180  -36.6430 C   0  0  0  0  0  0  0  0  0  0  0  0
    3.1250   23.1850  -36.4680 C   0  0  0  0  0  0  0  0  0  0  0  0
    2.0640   23.6050  -35.6640 C   0  0  0  0  0  0  0  0  0  0  0  0
    1.2660   22.6880  -35.0570 N   0  0  0  0  0  0  0  0  0  0  0  0
   -0.1690   21.1770  -32.4070 C   0  0  0  0  0  0  0  0  0  0  0  0
   -1.2400   21.4010  -31.5390 C   0  0  0  0  0  0  0  0  0  0  0  0
   -7.4090   23.4530  -31.6490 C   0  0  0  0  0  0  0  0  0  0  0  0
   -8.5920   22.7100  -31.6270 C   0  0  0  0  0  0  0  0  0  0  0  0
   -8.5680   21.3390  -31.8950 C   0  0  0  0  0  0  0  0  0  0  0  0
   -9.7310   20.6400  -31.8850 F   0  0  0  0  0  0  0  0  0  0  0  0
   -6.0289   16.7765  -33.0112 H   0  0  0  0  0  0  0  0  0  0  0  0
   -6.9288   16.7001  -34.5639 H   0  0  0  0  0  0  0  0  0  0  0  0
   -5.1649   17.0393  -34.5639 H   0  0  0  0  0  0  0  0  0  0  0  0
   -5.2092   20.9519  -32.4228 H   0  0  0  0  0  0  0  0  0  0  0  0
   -3.9845   25.1113  -28.3213 H   0  0  0  0  0  0  0  0  0  0  0  0
   -3.1231   23.8497  -26.3543 H   0  0  0  0  0  0  0  0  0  0  0  0
   -2.4527   21.4619  -26.5979 H   0  0  0  0  0  0  0  0  0  0  0  0
   -2.6519   20.3246  -28.8031 H   0  0  0  0  0  0  0  0  0  0  0  0
   -3.8239   20.6492  -33.6453 H   0  0  0  0  0  0  0  0  0  0  0  0
   -1.9140   20.2161  -35.1862 H   0  0  0  0  0  0  0  0  0  0  0  0
    2.6775   19.8134  -36.1529 H   0  0  0  0  0  0  0  0  0  0  0  0
    4.1771   21.4710  -37.2758 H   0  0  0  0  0  0  0  0  0  0  0  0
    3.7782   23.9223  -36.9577 H   0  0  0  0  0  0  0  0  0  0  0  0
    1.8738   24.6791  -35.5218 H   0  0  0  0  0  0  0  0  0  0  0  0
    0.8625   21.3180  -32.0520 H   0  0  0  0  0  0  0  0  0  0  0  0
   -1.0474   21.7420  -30.5111 H   0  0  0  0  0  0  0  0  0  0  0  0
   -7.4329   24.5298  -31.4257 H   0  0  0  0  0  0  0  0  0  0  0  0
   -9.5464   23.2066  -31.3977 H   0  0  0  0  0  0  0  0  0  0  0  0
  1  2  1  0
  2  3  1  0
  3  4  2  0
  3  5  2  0
  3  6  1  0
  6  7  2  0
  7  8  1  0
  8  9  1  0
  9 10  1  0
 10 11  2  0
 10 12  1  0
 12 13  2  0
 13 14  1  0
 14 15  2  0
 15 16  1  0
 16 17  2  0
 17 18  1  0
 18 19  1  0
 19 20  2  0
 20 21  1  0
 21 22  2  0
 22 23  1  0
 23 24  2  3
 24 25  1  0
 25 26  2  0
 26 27  1  0
 27 28  2  0
 28 29  1  0
 22 30  1  0
 30 31  2  0
  8 32  2  0
 32 33  1  0
 33 34  2  0
 34 35  1  0
 34  6  1  0
 17 12  1  0
 31 19  1  0
 29 24  1  0
  1 36  1  0
  1 37  1  0
  1 38  1  0
  7 39  1  0
 13 40  1  0
 14 41  1  0
 15 42  1  0
 16 43  1  0
 20 44  1  0
 21 45  1  0
 25 46  1  0
 26 47  1  0
 27 48  1  0
 28 49  1  0
 30 50  1  0
 31 51  1  0
 32 52  1  0
 33 53  1  0
M  CHG  3   2  -1   9  -1  29  -1
M  END
>  <UniqueID>  (40) 
37

>  <SMILES>  (40) 
C[N-]S(=O)(=O)c1cc([N-]C(=O)c2ccccc2Oc2ccc(N=c3cccc[n-]3)cc2)ccc1F

>  <Energy>  (40) 
78.38660518378171

>  <Genealogy>  (40) 
C[N-]S(=O)(=O)c1cc([N-]C(=O)c2ccccc2Oc2ccc(N=c3cccc[n-]3)cc2)ccc1F (protonated)
C[N-]S(=O)(=O)c1cc([N-]C(=O)c2ccccc2Oc2ccc(N=c3cccc[n-]3)cc2)ccc1F (3D coordinates assigned)
C[N-]S(=O)(=O)c1cc([N-]C(=O)c2ccccc2Oc2ccc(N=c3cccc[n-]3)cc2)ccc1F (optimized conformer: 78.38660518378171 kcal/mol)

>  <smiles>  (40) 
CNS(=O)(=O)c1cc(NC(=O)c2ccccc2Oc2ccc(N=c3cccc[nH]3)cc2)ccc1F

>  <score_type>  (40) 
oracle

>  <origin>  (40) 
adgpu

>  <m_score__min__energy>  (40) 
-11.26

>  <m_primary>  (40) 
energy

$$$$
40:0
     RDKit          3D

 47 49  0  0  0  0  0  0  0  0999 V2000
   -0.8430   27.0450  -28.5120 O   0  0  0  0  0  0  0  0  0  0  0  0
   -1.2610   25.8780  -28.2820 C   0  0  0  0  0  0  0  0  0  0  0  0
   -2.2660   25.2950  -29.1230 N   0  0  0  0  0  0  0  0  0  0  0  0
   -2.3210   23.9400  -29.5980 C   0  0  0  0  0  0  0  0  0  0  0  0
   -1.2150   23.0750  -29.4780 C   0  0  0  0  0  0  0  0  0  0  0  0
   -1.2750   21.7760  -29.9860 C   0  0  0  0  0  0  0  0  0  0  0  0
   -2.4280   21.3280  -30.6300 C   0  0  0  0  0  0  0  0  0  0  0  0
   -3.5230   22.1830  -30.7790 C   0  0  0  0  0  0  0  0  0  0  0  0
   -3.4720   23.4950  -30.2830 C   0  0  0  0  0  0  0  0  0  0  0  0
   -4.6410   24.3850  -30.4520 C   0  0  0  0  0  0  0  0  0  0  0  0
   -4.5240   25.4290  -31.1430 O   0  0  0  0  0  0  0  0  0  0  0  0
   -5.9140   24.0750  -29.8710 N   0  0  0  0  0  0  0  0  0  0  0  0
   -7.0830   23.6530  -30.6350 C   0  0  0  0  0  0  0  0  0  0  0  0
   -6.6520   22.6930  -31.7470 C   0  0  0  0  0  0  0  0  0  0  0  0
   -7.1520   21.3220  -31.4990 N   0  0  0  0  0  0  0  0  0  0  0  0
   -7.0530   20.4730  -32.7120 C   0  0  0  0  0  0  0  0  0  0  0  0
   -8.1260   19.3710  -32.7190 C   0  0  0  0  0  0  0  0  0  0  0  0
   -9.4520   19.8820  -32.7230 O   0  0  0  0  0  0  0  0  0  0  0  0
   -9.5910   21.1120  -32.0210 C   0  0  0  0  0  0  0  0  0  0  0  0
   -8.5240   21.3390  -30.9340 C   0  0  0  0  0  0  0  0  0  0  0  0
   -0.6760   25.0900  -27.1720 C   0  0  0  0  0  0  0  0  0  0  0  0
    0.5920   24.4900  -27.3090 C   0  0  0  0  0  0  0  0  0  0  0  0
    1.1420   23.7500  -26.2580 C   0  0  0  0  0  0  0  0  0  0  0  0
    0.4400   23.6010  -25.0600 C   0  0  0  0  0  0  0  0  0  0  0  0
   -0.8180   24.1890  -24.9120 C   0  0  0  0  0  0  0  0  0  0  0  0
   -1.3770   24.9280  -25.9610 C   0  0  0  0  0  0  0  0  0  0  0  0
   -0.2985   23.4256  -28.9809 H   0  0  0  0  0  0  0  0  0  0  0  0
   -0.4107   21.1042  -29.8780 H   0  0  0  0  0  0  0  0  0  0  0  0
   -2.4754   20.3009  -31.0209 H   0  0  0  0  0  0  0  0  0  0  0  0
   -4.4304   21.8258  -31.2880 H   0  0  0  0  0  0  0  0  0  0  0  0
   -7.7926   23.1436  -29.9665 H   0  0  0  0  0  0  0  0  0  0  0  0
   -7.5652   24.5353  -31.0812 H   0  0  0  0  0  0  0  0  0  0  0  0
   -7.0533   23.0525  -32.7060 H   0  0  0  0  0  0  0  0  0  0  0  0
   -5.5527   22.6620  -31.7716 H   0  0  0  0  0  0  0  0  0  0  0  0
   -7.1845   21.1054  -33.6024 H   0  0  0  0  0  0  0  0  0  0  0  0
   -6.0641   19.9913  -32.7158 H   0  0  0  0  0  0  0  0  0  0  0  0
   -7.9867   18.7528  -33.6181 H   0  0  0  0  0  0  0  0  0  0  0  0
   -8.0026   18.7882  -31.7943 H   0  0  0  0  0  0  0  0  0  0  0  0
   -9.5237   21.9345  -32.7483 H   0  0  0  0  0  0  0  0  0  0  0  0
  -10.5637   21.0769  -31.5086 H   0  0  0  0  0  0  0  0  0  0  0  0
   -8.7016   22.3149  -30.4586 H   0  0  0  0  0  0  0  0  0  0  0  0
   -8.6028   20.5229  -30.2007 H   0  0  0  0  0  0  0  0  0  0  0  0
    1.1523   24.6047  -28.2486 H   0  0  0  0  0  0  0  0  0  0  0  0
    2.1313   23.2835  -26.3752 H   0  0  0  0  0  0  0  0  0  0  0  0
    0.8774   23.0212  -24.2339 H   0  0  0  0  0  0  0  0  0  0  0  0
   -1.3711   24.0711  -23.9685 H   0  0  0  0  0  0  0  0  0  0  0  0
   -2.3700   25.3852  -25.8390 H   0  0  0  0  0  0  0  0  0  0  0  0
  1  2  2  0
  2  3  1  0
  3  4  1  0
  4  5  2  0
  5  6  1  0
  6  7  2  0
  7  8  1  0
  8  9  2  0
  9 10  1  0
 10 11  2  0
 10 12  1  0
 12 13  1  0
 13 14  1  0
 14 15  1  0
 15 16  1  0
 16 17  1  0
 17 18  1  0
 18 19  1  0
 19 20  1  0
  2 21  1  0
 21 22  2  0
 22 23  1  0
 23 24  2  0
 24 25  1  0
 25 26  2  0
  9  4  1  0
 20 15  1  0
 26 21  1  0
  5 27  1  0
  6 28  1  0
  7 29  1  0
  8 30  1  0
 13 31  1  0
 13 32  1  0
 14 33  1  0
 14 34  1  0
 16 35  1  0
 16 36  1  0
 17 37  1  0
 17 38  1  0
 19 39  1  0
 19 40  1  0
 20 41  1  0
 20 42  1  0
 22 43  1  0
 23 44  1  0
 24 45  1  0
 25 46  1  0
 26 47  1  0
M  CHG  2   3  -1  12  -1
M  END
>  <UniqueID>  (41) 
38

>  <SMILES>  (41) 
O=C([N-]c1ccccc1C(=O)[N-]CCN1CCOCC1)c1ccccc1

>  <Energy>  (41) 
70.3777721466608

>  <Genealogy>  (41) 
O=C([N-]c1ccccc1C(=O)[N-]CCN1CCOCC1)c1ccccc1 (protonated)
O=C([N-]c1ccccc1C(=O)[N-]CCN1CCOCC1)c1ccccc1 (3D coordinates assigned)
O=C([N-]c1ccccc1C(=O)[N-]CCN1CCOCC1)c1ccccc1 (nonaromatic ring conformer: 70.3777721466608 kcal/mol)

>  <smiles>  (41) 
O=C(Nc1ccccc1C(=O)NCCN1CCOCC1)c1ccccc1

>  <score_type>  (41) 
oracle

>  <origin>  (41) 
adgpu

>  <m_score__min__energy>  (41) 
-10.449999999999999

>  <m_primary>  (41) 
energy

$$$$
41:0
     RDKit          3D

 41 41  0  0  0  0  0  0  0  0999 V2000
   -5.4530   18.2020  -34.9550 C   0  0  0  0  0  0  0  0  0  0  0  0
   -5.2380   16.9540  -34.0990 C   0  0  0  0  0  0  0  0  0  0  0  0
   -6.4790   16.5770  -33.2730 C   0  0  0  0  0  0  0  0  0  0  0  0
   -6.4860   17.1270  -31.8340 C   0  0  0  0  0  0  0  0  0  0  0  0
   -7.5630   18.2060  -31.5860 C   0  0  0  0  0  0  0  0  0  0  0  0
   -7.3280   19.4670  -32.4360 C   0  0  0  0  0  0  0  0  0  0  0  0
   -6.1990   20.3550  -31.8800 C   0  0  0  0  0  0  0  0  0  0  0  0
   -5.9650   21.6510  -32.6770 C   0  0  0  0  0  0  0  0  0  0  0  0
   -5.9830   22.8770  -31.7920 C   0  0  0  0  0  0  0  0  0  0  0  0
   -4.7720   23.5240  -31.4960 C   0  0  0  0  0  0  0  0  0  0  0  0
   -4.7480   24.6430  -30.6600 C   0  0  0  0  0  0  0  0  0  0  0  0
   -3.5350   25.2710  -30.3840 O   0  0  0  0  0  0  0  0  0  0  0  0
   -5.9400   25.1230  -30.1070 C   0  0  0  0  0  0  0  0  0  0  0  0
   -7.1500   24.4850  -30.3870 C   0  0  0  0  0  0  0  0  0  0  0  0
   -7.1850   23.3550  -31.2280 C   0  0  0  0  0  0  0  0  0  0  0  0
   -8.3880   22.6890  -31.5170 O   0  0  0  0  0  0  0  0  0  0  0  0
   -8.9800   21.6910  -30.6930 C   0  0  0  0  0  0  0  0  0  0  0  0
   -5.6032   19.0737  -34.3011 H   0  0  0  0  0  0  0  0  0  0  0  0
   -4.5702   18.3677  -35.5899 H   0  0  0  0  0  0  0  0  0  0  0  0
   -6.3404   18.0627  -35.5899 H   0  0  0  0  0  0  0  0  0  0  0  0
   -4.9877   16.1123  -34.7615 H   0  0  0  0  0  0  0  0  0  0  0  0
   -4.4239   17.1732  -33.3924 H   0  0  0  0  0  0  0  0  0  0  0  0
   -7.3674   16.9654  -33.7926 H   0  0  0  0  0  0  0  0  0  0  0  0
   -6.4732   15.4804  -33.1864 H   0  0  0  0  0  0  0  0  0  0  0  0
   -6.6675   16.2902  -31.1435 H   0  0  0  0  0  0  0  0  0  0  0  0
   -5.5090   17.6044  -31.6680 H   0  0  0  0  0  0  0  0  0  0  0  0
   -8.5486   17.7874  -31.8379 H   0  0  0  0  0  0  0  0  0  0  0  0
   -7.5113   18.4980  -30.5267 H   0  0  0  0  0  0  0  0  0  0  0  0
   -7.0625   19.1584  -33.4579 H   0  0  0  0  0  0  0  0  0  0  0  0
   -8.2556   20.0580  -32.4183 H   0  0  0  0  0  0  0  0  0  0  0  0
   -6.4525   20.6276  -30.8449 H   0  0  0  0  0  0  0  0  0  0  0  0
   -5.2713   19.7683  -31.9512 H   0  0  0  0  0  0  0  0  0  0  0  0
   -4.9865   21.5884  -33.1757 H   0  0  0  0  0  0  0  0  0  0  0  0
   -6.7812   21.7500  -33.4078 H   0  0  0  0  0  0  0  0  0  0  0  0
   -3.8331   23.1459  -31.9267 H   0  0  0  0  0  0  0  0  0  0  0  0
   -3.4770   26.0520  -29.7410 H   0  0  0  0  0  0  0  0  0  0  0  0
   -5.9240   26.0051  -29.4500 H   0  0  0  0  0  0  0  0  0  0  0  0
   -8.0831   24.8675  -29.9477 H   0  0  0  0  0  0  0  0  0  0  0  0
   -8.8262   21.9503  -29.6351 H   0  0  0  0  0  0  0  0  0  0  0  0
  -10.0582   21.6339  -30.9035 H   0  0  0  0  0  0  0  0  0  0  0  0
   -8.5132   20.7174  -30.9035 H   0  0  0  0  0  0  0  0  0  0  0  0
  1  2  1  0
  2  3  1  0
  3  4  1  0
  4  5  1  0
  5  6  1  0
  6  7  1  0
  7  8  1  0
  8  9  1  0
  9 10  2  0
 10 11  1  0
 11 12  1  0
 11 13  2  0
 13 14  1  0
 14 15  2  0
 15 16  1  0
 16 17  1  0
 15  9  1  0
  1 18  1  0
  1 19  1  0
  1 20  1  0
  2 21  1  0
  2 22  1  0
  3 23  1  0
  3 24  1  0
  4 25  1  0
  4 26  1  0
  5 27  1  0
  5 28  1  0
  6 29  1  0
  6 30  1  0
  7 31  1  0
  7 32  1  0
  8 33  1  0
  8 34  1  0
 10 35  1  0
 12 36  1  0
 13 37  1  0
 14 38  1  0
 17 39  1  0
 17 40  1  0
 17 41  1  0
M  END
>  <UniqueID>  (42) 
39

>  <SMILES>  (42) 
CCCCCCCCc1cc(O)ccc1OC

>  <Energy>  (42) 
27.777473099574443

>  <Genealogy>  (42) 
CCCCCCCCc1cc(O)ccc1OC (3D coordinates assigned)
CCCCCCCCc1cc(O)ccc1OC (optimized conformer: 27.777473099574443 kcal/mol)

>  <smiles>  (42) 
CCCCCCCCc1cc(O)ccc1OC

>  <score_type>  (42) 
oracle

>  <origin>  (42) 
adgpu

>  <m_score__min__energy>  (42) 
-7.25

>  <m_primary>  (42) 
energy

$$$$
42:0
     RDKit          3D

 48 50  0  0  0  0  0  0  0  0999 V2000
   -6.3560   25.6810  -29.6020 C   0  0  0  0  0  0  0  0  0  0  0  0
   -5.9070   24.5210  -30.4500 C   0  0  0  0  0  0  0  0  0  0  0  0
   -6.8790   23.6710  -31.0000 C   0  0  0  0  0  0  0  0  0  0  0  0
   -6.5060   22.5730  -31.7750 C   0  0  0  0  0  0  0  0  0  0  0  0
   -5.1510   22.2990  -32.0130 C   0  0  0  0  0  0  0  0  0  0  0  0
   -4.7500   21.1540  -32.8600 C   0  0  0  0  0  0  0  0  0  0  0  0
   -3.5270   20.8820  -32.9940 O   0  0  0  0  0  0  0  0  0  0  0  0
   -5.7170   20.3160  -33.5070 N   0  0  0  0  0  0  0  0  0  0  0  0
   -6.8250   19.6600  -32.8720 C   0  0  0  0  0  0  0  0  0  0  0  0
   -8.1490   20.1030  -33.0400 C   0  0  0  0  0  0  0  0  0  0  0  0
   -9.1940   19.4220  -32.4130 C   0  0  0  0  0  0  0  0  0  0  0  0
   -8.9110   18.2950  -31.6390 C   0  0  0  0  0  0  0  0  0  0  0  0
   -7.6280   17.8660  -31.5060 N   0  0  0  0  0  0  0  0  0  0  0  0
   -6.5920   18.5130  -32.1060 C   0  0  0  0  0  0  0  0  0  0  0  0
   -4.1750   23.1360  -31.4520 C   0  0  0  0  0  0  0  0  0  0  0  0
   -4.5400   24.2700  -30.7180 C   0  0  0  0  0  0  0  0  0  0  0  0
   -3.5040   25.1560  -30.2720 N   0  0  0  0  0  0  0  0  0  0  0  0
   -2.4770   24.8030  -29.3330 C   0  0  0  0  0  0  0  0  0  0  0  0
   -1.6600   25.6900  -28.9710 O   0  0  0  0  0  0  0  0  0  0  0  0
   -2.3640   23.4370  -28.7710 C   0  0  0  0  0  0  0  0  0  0  0  0
   -1.1980   22.6860  -28.9780 C   0  0  0  0  0  0  0  0  0  0  0  0
   -1.0890   21.3890  -28.4710 C   0  0  0  0  0  0  0  0  0  0  0  0
   -2.1400   20.8100  -27.7290 C   0  0  0  0  0  0  0  0  0  0  0  0
   -2.0330   19.4580  -27.2090 N   0  0  0  0  0  0  0  0  0  0  0  0
   -0.8610   18.6290  -27.5160 C   0  0  0  0  0  0  0  0  0  0  0  0
   -3.0930   18.8990  -26.3600 C   0  0  0  0  0  0  0  0  0  0  0  0
   -3.2980   21.5840  -27.5020 C   0  0  0  0  0  0  0  0  0  0  0  0
   -3.4040   22.8800  -28.0110 C   0  0  0  0  0  0  0  0  0  0  0  0
   -6.2545   25.4187  -28.5386 H   0  0  0  0  0  0  0  0  0  0  0  0
   -5.7332   26.5601  -29.8239 H   0  0  0  0  0  0  0  0  0  0  0  0
   -7.4084   25.9117  -29.8239 H   0  0  0  0  0  0  0  0  0  0  0  0
   -7.9450   23.8726  -30.8182 H   0  0  0  0  0  0  0  0  0  0  0  0
   -7.2793   21.9177  -32.2023 H   0  0  0  0  0  0  0  0  0  0  0  0
   -8.3607   20.9839  -33.6639 H   0  0  0  0  0  0  0  0  0  0  0  0
  -10.2311   19.7702  -32.5277 H   0  0  0  0  0  0  0  0  0  0  0  0
   -9.7265   17.7541  -31.1367 H   0  0  0  0  0  0  0  0  0  0  0  0
   -5.5667   18.1323  -31.9881 H   0  0  0  0  0  0  0  0  0  0  0  0
   -3.1101   22.8980  -31.5908 H   0  0  0  0  0  0  0  0  0  0  0  0
   -0.3620   23.1220  -29.5445 H   0  0  0  0  0  0  0  0  0  0  0  0
   -0.1709   20.8110  -28.6528 H   0  0  0  0  0  0  0  0  0  0  0  0
   -0.3912   18.2967  -26.5785 H   0  0  0  0  0  0  0  0  0  0  0  0
   -1.1755   17.7513  -28.0998 H   0  0  0  0  0  0  0  0  0  0  0  0
   -0.1381   19.2178  -28.0998 H   0  0  0  0  0  0  0  0  0  0  0  0
   -2.8273   19.0391  -25.3018 H   0  0  0  0  0  0  0  0  0  0  0  0
   -4.0418   19.4140  -26.5712 H   0  0  0  0  0  0  0  0  0  0  0  0
   -3.2038   17.8252  -26.5712 H   0  0  0  0  0  0  0  0  0  0  0  0
   -4.1277   21.1610  -26.9166 H   0  0  0  0  0  0  0  0  0  0  0  0
   -4.3114   23.4700  -27.8144 H   0  0  0  0  0  0  0  0  0  0  0  0
  1  2  1  0
  2  3  2  0
  3  4  1  0
  4  5  2  0
  5  6  1  0
  6  7  2  0
  6  8  1  0
  8  9  1  0
  9 10  2  0
 10 11  1  0
 11 12  2  0
 12 13  1  0
 13 14  2  0
  5 15  1  0
 15 16  2  0
 16 17  1  0
 17 18  1  0
 18 19  2  0
 18 20  1  0
 20 21  2  0
 21 22  1  0
 22 23  2  0
 23 24  1  0
 24 25  1  0
 24 26  1  0
 23 27  1  0
 27 28  2  0
 16  2  1  0
 28 20  1  0
 14  9  1  0
  1 29  1  0
  1 30  1  0
  1 31  1  0
  3 32  1  0
  4 33  1  0
 10 34  1  0
 11 35  1  0
 12 36  1  0
 14 37  1  0
 15 38  1  0
 21 39  1  0
 22 40  1  0
 25 41  1  0
 25 42  1  0
 25 43  1  0
 26 44  1  0
 26 45  1  0
 26 46  1  0
 27 47  1  0
 28 48  1  0
M  CHG  2   8  -1  17  -1
M  END
>  <UniqueID>  (43) 
40

>  <SMILES>  (43) 
Cc1ccc(C(=O)[N-]c2cccnc2)cc1[N-]C(=O)c1ccc(N(C)C)cc1

>  <Energy>  (43) 
67.59173387178491

>  <Genealogy>  (43) 
Cc1ccc(C(=O)[N-]c2cccnc2)cc1[N-]C(=O)c1ccc(N(C)C)cc1 (protonated)
Cc1ccc(C(=O)[N-]c2cccnc2)cc1[N-]C(=O)c1ccc(N(C)C)cc1 (3D coordinates assigned)
Cc1ccc(C(=O)[N-]c2cccnc2)cc1[N-]C(=O)c1ccc(N(C)C)cc1 (optimized conformer: 67.59173387178491 kcal/mol)

>  <smiles>  (43) 
Cc1ccc(C(=O)Nc2cccnc2)cc1NC(=O)c1ccc(N(C)C)cc1

>  <score_type>  (43) 
oracle

>  <origin>  (43) 
adgpu

>  <m_score__min__energy>  (43) 
-11.369999999999999

>  <m_primary>  (43) 
energy

$$$$
43:0
     RDKit          3D

 26 28  0  0  1  0  0  0  0  0999 V2000
   -6.4850   15.9280  -34.1980 Br  0  0  0  0  0  0  0  0  0  0  0  0
   -6.5810   17.6830  -33.4250 C   0  0  0  0  0  0  0  0  0  0  0  0
   -6.0850   18.7730  -34.1430 C   0  0  0  0  0  0  0  0  0  0  0  0
   -6.1520   20.0450  -33.5860 C   0  0  0  0  0  0  0  0  0  0  0  0
   -6.7070   20.2130  -32.3300 C   0  0  0  0  0  0  0  0  0  0  0  0
   -6.8040   21.4950  -31.7070 N   0  0  0  0  0  0  0  0  0  0  0  0
   -5.8090   22.2470  -31.4380 C   0  0  0  0  0  0  0  0  0  0  0  0
   -4.5660   21.8330  -31.7510 N   0  0  0  0  0  0  0  0  0  0  0  0
   -3.5580   22.6660  -31.4450 C   0  0  0  0  0  0  0  0  0  0  0  0
   -3.7580   23.8670  -30.8510 N   0  0  0  0  0  0  0  0  0  0  0  0
   -4.9900   24.3040  -30.5280 C   0  0  0  0  0  0  0  0  0  0  0  0
   -5.5280   25.3880  -29.9590 N   0  0  0  0  0  0  0  0  0  0  0  0
   -6.8660   25.2910  -29.8820 C   0  0  0  0  0  0  0  0  0  0  0  0
   -7.2130   24.0680  -30.4360 C   0  0  0  0  0  0  0  0  0  0  0  0
   -6.0500   23.4650  -30.8330 C   0  0  0  0  0  0  0  0  0  0  0  0
   -7.2040   19.1190  -31.6120 C   0  0  0  0  0  0  0  0  0  0  0  0
   -7.1390   17.8360  -32.1670 C   0  0  0  0  0  0  0  0  0  0  0  0
   -5.6451   18.6265  -35.1405 H   0  0  0  0  0  0  0  0  0  0  0  0
   -5.7659   20.9129  -34.1408 H   0  0  0  0  0  0  0  0  0  0  0  0
   -4.4280   20.9160  -32.2030 H   0  0  0  0  0  0  0  0  0  0  0  0
   -2.5290   22.3610  -31.6863 H   0  0  0  0  0  0  0  0  0  0  0  0
   -4.9610   26.1930  -29.6250 H   0  0  0  0  0  0  0  0  0  0  0  0
   -7.5542   26.0384  -29.4603 H   0  0  0  0  0  0  0  0  0  0  0  0
   -8.2295   23.6600  -30.5372 H   0  0  0  0  0  0  0  0  0  0  0  0
   -7.6442   19.2673  -30.6149 H   0  0  0  0  0  0  0  0  0  0  0  0
   -7.5237   16.9660  -31.6146 H   0  0  0  0  0  0  0  0  0  0  0  0
  1  2  1  0
  2  3  2  0
  3  4  1  0
  4  5  2  0
  5  6  1  0
  6  7  2  0
  7  8  1  0
  8  9  1  0
  9 10  2  0
 10 11  1  0
 11 12  1  0
 12 13  1  0
 13 14  2  0
 14 15  1  0
  5 16  1  0
 16 17  2  0
 17  2  1  0
 15  7  1  0
 15 11  2  0
  3 18  1  0
  4 19  1  0
  8 20  1  0
  9 21  1  0
 12 22  1  0
 13 23  1  0
 14 24  1  0
 16 25  1  0
 17 26  1  0
M  END
>  <smiles>  (44) 
Brc1ccc(N=c2[nH]cnc3[nH]ccc23)cc1

>  <score_type>  (44) 
oracle

>  <origin>  (44) 
adgpu

>  <m_score__min__energy>  (44) 
-7.29

>  <m_primary>  (44) 
energy

$$$$
44:0
     RDKit          3D

 34 36  0  0  0  0  0  0  0  0999 V2000
   -4.9040   24.5210  -28.2650 O   0  0  0  0  0  0  0  0  0  0  0  0
   -4.1870   24.5280  -29.3000 C   0  0  0  0  0  0  0  0  0  0  0  0
   -4.5670   25.3660  -30.3990 N   0  0  0  0  0  0  0  0  0  0  0  0
   -5.7190   25.1330  -31.2610 C   0  0  0  0  0  0  0  0  0  0  0  0
   -5.7350   23.7040  -31.6870 C   0  0  0  0  0  0  0  0  0  0  0  0
   -6.7640   22.8050  -31.5140 C   0  0  0  0  0  0  0  0  0  0  0  0
   -6.3130   21.6220  -31.9770 N   0  0  0  0  0  0  0  0  0  0  0  0
   -7.0100   20.3590  -32.0150 C   0  0  0  0  0  0  0  0  0  0  0  0
   -8.4160   20.3310  -31.9620 C   0  0  0  0  0  0  0  0  0  0  0  0
   -9.1050   19.1140  -31.9960 C   0  0  0  0  0  0  0  0  0  0  0  0
   -8.4000   17.9130  -32.0810 C   0  0  0  0  0  0  0  0  0  0  0  0
   -7.0060   17.9250  -32.1310 C   0  0  0  0  0  0  0  0  0  0  0  0
   -6.3100   19.1380  -32.0970 C   0  0  0  0  0  0  0  0  0  0  0  0
   -5.0670   21.7960  -32.3960 N   0  0  0  0  0  0  0  0  0  0  0  0
   -4.6860   23.0550  -32.2260 N   0  0  0  0  0  0  0  0  0  0  0  0
   -2.9670   23.6950  -29.3360 C   0  0  0  0  0  0  0  0  0  0  0  0
   -3.0680   22.2940  -29.3230 C   0  0  0  0  0  0  0  0  0  0  0  0
   -1.9160   21.5030  -29.3400 C   0  0  0  0  0  0  0  0  0  0  0  0
   -0.6550   22.1030  -29.3590 C   0  0  0  0  0  0  0  0  0  0  0  0
   -0.5430   23.4950  -29.3550 C   0  0  0  0  0  0  0  0  0  0  0  0
   -1.6920   24.2930  -29.3400 C   0  0  0  0  0  0  0  0  0  0  0  0
   -1.5600   25.6780  -29.3400 O   0  0  0  0  0  0  0  0  0  0  0  0
   -6.6428   25.3624  -30.7097 H   0  0  0  0  0  0  0  0  0  0  0  0
   -5.6529   25.7810  -32.1474 H   0  0  0  0  0  0  0  0  0  0  0  0
   -7.7553   23.0111  -31.0841 H   0  0  0  0  0  0  0  0  0  0  0  0
   -8.9780   21.2741  -31.8933 H   0  0  0  0  0  0  0  0  0  0  0  0
  -10.2042   19.1039  -31.9557 H   0  0  0  0  0  0  0  0  0  0  0  0
   -8.9433   16.9569  -32.1086 H   0  0  0  0  0  0  0  0  0  0  0  0
   -6.4519   16.9771  -32.1974 H   0  0  0  0  0  0  0  0  0  0  0  0
   -5.2106   19.1391  -32.1344 H   0  0  0  0  0  0  0  0  0  0  0  0
   -4.0589   21.8170  -29.2993 H   0  0  0  0  0  0  0  0  0  0  0  0
   -2.0026   20.4064  -29.3384 H   0  0  0  0  0  0  0  0  0  0  0  0
    0.2505   21.4787  -29.3771 H   0  0  0  0  0  0  0  0  0  0  0  0
    0.4514   23.9653  -29.3637 H   0  0  0  0  0  0  0  0  0  0  0  0
  1  2  2  0
  2  3  1  0
  3  4  1  0
  4  5  1  0
  5  6  2  0
  6  7  1  0
  7  8  1  0
  8  9  2  0
  9 10  1  0
 10 11  2  0
 11 12  1  0
 12 13  2  0
  7 14  1  0
 14 15  2  0
  2 16  1  0
 16 17  2  0
 17 18  1  0
 18 19  2  0
 19 20  1  0
 20 21  2  0
 21 22  1  0
 15  5  1  0
 21 16  1  0
 13  8  1  0
  4 23  1  0
  4 24  1  0
  6 25  1  0
  9 26  1  0
 10 27  1  0
 11 28  1  0
 12 29  1  0
 13 30  1  0
 17 31  1  0
 18 32  1  0
 19 33  1  0
 20 34  1  0
M  CHG  2   3  -1  22  -1
M  END
>  <UniqueID>  (45) 
41

>  <SMILES>  (45) 
O=C([N-]Cc1cn(-c2ccccc2)nn1)c1ccccc1[O-]

>  <Energy>  (45) 
77.6336028508859

>  <Genealogy>  (45) 
O=C([N-]Cc1cn(-c2ccccc2)nn1)c1ccccc1[O-] (protonated)
O=C([N-]Cc1cn(-c2ccccc2)nn1)c1ccccc1[O-] (3D coordinates assigned)
O=C([N-]Cc1cn(-c2ccccc2)nn1)c1ccccc1[O-] (optimized conformer: 77.6336028508859 kcal/mol)

>  <smiles>  (45) 
O=C(NCc1cn(-c2ccccc2)nn1)c1ccccc1O

>  <score_type>  (45) 
oracle

>  <origin>  (45) 
adgpu

>  <m_score__min__energy>  (45) 
-13.09

>  <m_primary>  (45) 
energy

$$$$
45:0
     RDKit          3D

 49 52  0  0  0  0  0  0  0  0999 V2000
   -4.2630   25.6690  -30.6680 N   0  0  0  0  0  0  0  0  0  0  0  0
   -5.5490   25.0520  -30.6850 C   0  0  0  0  0  0  0  0  0  0  0  0
   -6.5250   25.6370  -30.1410 O   0  0  0  0  0  0  0  0  0  0  0  0
   -5.7270   23.7420  -31.3370 C   0  0  0  0  0  0  0  0  0  0  0  0
   -7.0050   23.2350  -31.6170 C   0  0  0  0  0  0  0  0  0  0  0  0
   -7.1260   21.9860  -32.2270 C   0  0  0  0  0  0  0  0  0  0  0  0
   -5.9840   21.2550  -32.5550 C   0  0  0  0  0  0  0  0  0  0  0  0
   -4.7140   21.7880  -32.2730 C   0  0  0  0  0  0  0  0  0  0  0  0
   -3.4650   21.0490  -32.5940 C   0  0  0  0  0  0  0  0  0  0  0  0
   -2.9010   20.1840  -31.6390 C   0  0  0  0  0  0  0  0  0  0  0  0
   -1.7260   19.4820  -31.9210 C   0  0  0  0  0  0  0  0  0  0  0  0
   -1.0880   19.6360  -33.1610 C   0  0  0  0  0  0  0  0  0  0  0  0
    0.1280   18.9190  -33.4460 N   0  0  0  0  0  0  0  0  0  0  0  0
    0.0390   17.5280  -33.9190 C   0  0  0  0  0  0  0  0  0  0  0  0
   -1.3910   17.0670  -33.9450 C   0  0  0  0  0  0  0  0  0  0  0  0
   -1.9730   16.3070  -32.9180 C   0  0  0  0  0  0  0  0  0  0  0  0
   -3.2990   15.9770  -33.1580 C   0  0  0  0  0  0  0  0  0  0  0  0
   -3.7420   16.6400  -34.6360 S   0  0  0  0  0  0  0  0  0  0  0  0
   -2.2630   17.3520  -34.9900 C   0  0  0  0  0  0  0  0  0  0  0  0
    1.3990   19.6020  -33.3540 C   0  0  0  0  0  0  0  0  0  0  0  0
    1.9470   19.7690  -32.2290 O   0  0  0  0  0  0  0  0  0  0  0  0
    2.0830   20.1300  -34.5460 C   0  0  0  0  0  0  0  0  0  0  0  0
    3.1170   19.3830  -35.1320 C   0  0  0  0  0  0  0  0  0  0  0  0
    3.7730   19.8600  -36.2690 C   0  0  0  0  0  0  0  0  0  0  0  0
    3.4090   21.0890  -36.8250 C   0  0  0  0  0  0  0  0  0  0  0  0
    4.0620   21.5600  -37.9570 O   0  0  0  0  0  0  0  0  0  0  0  0
    2.3860   21.8440  -36.2420 C   0  0  0  0  0  0  0  0  0  0  0  0
    1.7190   21.3740  -35.1050 C   0  0  0  0  0  0  0  0  0  0  0  0
    0.6910   22.1510  -34.5650 O   0  0  0  0  0  0  0  0  0  0  0  0
   -1.6370   20.5090  -34.1100 C   0  0  0  0  0  0  0  0  0  0  0  0
   -2.8120   21.2120  -33.8300 C   0  0  0  0  0  0  0  0  0  0  0  0
   -4.6290   23.0070  -31.6690 N   0  0  0  0  0  0  0  0  0  0  0  0
   -3.8610   26.0430  -29.7810 H   0  0  0  0  0  0  0  0  0  0  0  0
   -7.9023   23.8163  -31.3582 H   0  0  0  0  0  0  0  0  0  0  0  0
   -8.1228   21.5774  -32.4495 H   0  0  0  0  0  0  0  0  0  0  0  0
   -6.0766   20.2678  -33.0313 H   0  0  0  0  0  0  0  0  0  0  0  0
   -3.3892   20.0589  -30.6613 H   0  0  0  0  0  0  0  0  0  0  0  0
   -1.2990   18.8049  -31.1665 H   0  0  0  0  0  0  0  0  0  0  0  0
    0.4576   17.4642  -34.9342 H   0  0  0  0  0  0  0  0  0  0  0  0
    0.6062   16.8834  -33.2315 H   0  0  0  0  0  0  0  0  0  0  0  0
   -1.4302   16.0027  -32.0109 H   0  0  0  0  0  0  0  0  0  0  0  0
   -3.9472   15.3844  -32.4957 H   0  0  0  0  0  0  0  0  0  0  0  0
   -2.0260   17.9397  -35.8891 H   0  0  0  0  0  0  0  0  0  0  0  0
    3.4118   18.4180  -34.6939 H   0  0  0  0  0  0  0  0  0  0  0  0
    4.5779   19.2669  -36.7277 H   0  0  0  0  0  0  0  0  0  0  0  0
    2.1041   22.8129  -36.6798 H   0  0  0  0  0  0  0  0  0  0  0  0
    0.5830   22.2950  -33.5690 H   0  0  0  0  0  0  0  0  0  0  0  0
   -1.1396   20.6418  -35.0821 H   0  0  0  0  0  0  0  0  0  0  0  0
   -3.2297   21.8981  -34.5816 H   0  0  0  0  0  0  0  0  0  0  0  0
  1  2  1  0
  2  3  2  0
  2  4  1  0
  4  5  2  0
  5  6  1  0
  6  7  2  0
  7  8  1  0
  8  9  1  0
  9 10  2  0
 10 11  1  0
 11 12  2  0
 12 13  1  0
 13 14  1  0
 14 15  1  0
 15 16  1  0
 16 17  2  0
 17 18  1  0
 18 19  1  0
 13 20  1  0
 20 21  2  0
 20 22  1  0
 22 23  2  0
 23 24  1  0
 24 25  2  0
 25 26  1  0
 25 27  1  0
 27 28  2  0
 28 29  1  0
 12 30  1  0
 30 31  2  0
  8 32  2  0
 32  4  1  0
 31  9  1  0
 19 15  2  0
 28 22  1  0
  1 33  1  0
  5 34  1  0
  6 35  1  0
  7 36  1  0
 10 37  1  0
 11 38  1  0
 14 39  1  0
 14 40  1  0
 16 41  1  0
 17 42  1  0
 19 43  1  0
 23 44  1  0
 24 45  1  0
 27 46  1  0
 29 47  1  0
 30 48  1  0
 31 49  1  0
M  CHG  2   1  -1  26  -1
M  END
>  <UniqueID>  (46) 
42

>  <SMILES>  (46) 
[NH-]C(=O)c1cccc(-c2ccc(N(Cc3ccsc3)C(=O)c3ccc([O-])cc3O)cc2)n1

>  <Energy>  (46) 
93.2062478786326

>  <Genealogy>  (46) 
[NH-]C(=O)c1cccc(-c2ccc(N(Cc3ccsc3)C(=O)c3ccc([O-])cc3O)cc2)n1 (protonated)
[NH-]C(=O)c1cccc(-c2ccc(N(Cc3ccsc3)C(=O)c3ccc([O-])cc3O)cc2)n1 (3D coordinates assigned)
[NH-]C(=O)c1cccc(-c2ccc(N(Cc3ccsc3)C(=O)c3ccc([O-])cc3O)cc2)n1 (optimized conformer: 93.2062478786326 kcal/mol)

>  <smiles>  (46) 
NC(=O)c1cccc(-c2ccc(N(Cc3ccsc3)C(=O)c3ccc(O)cc3O)cc2)n1

>  <score_type>  (46) 
oracle

>  <origin>  (46) 
adgpu

>  <m_score__min__energy>  (46) 
-11.51

>  <m_primary>  (46) 
energy

$$$$
46:0
     RDKit          3D

 36 37  0  0  0  0  0  0  0  0999 V2000
   -5.1680   16.8120  -34.4750 C   0  0  0  0  0  0  0  0  0  0  0  0
   -6.8190   16.4670  -33.7920 S   0  0  0  0  0  0  0  0  0  0  0  0
   -7.0390   18.1350  -33.1730 C   0  0  0  0  0  0  0  0  0  0  0  0
   -7.8670   18.3700  -32.0690 C   0  0  0  0  0  0  0  0  0  0  0  0
   -8.0210   19.6680  -31.5710 C   0  0  0  0  0  0  0  0  0  0  0  0
   -7.3500   20.7380  -32.1800 C   0  0  0  0  0  0  0  0  0  0  0  0
   -7.4580   22.3660  -31.5140 S   0  0  0  0  0  0  0  0  0  0  0  0
   -7.3790   22.3340  -30.0130 O   0  0  0  0  0  0  0  0  0  0  0  0
   -8.7750   22.9670  -31.9210 O   0  0  0  0  0  0  0  0  0  0  0  0
   -6.1630   23.3340  -32.1410 N   0  0  0  0  0  0  0  0  0  0  0  0
   -5.0310   23.6740  -31.3260 C   0  0  0  0  0  0  0  0  0  0  0  0
   -4.0820   22.6930  -30.9670 C   0  0  0  0  0  0  0  0  0  0  0  0
   -4.2180   21.2730  -31.4460 C   0  0  0  0  0  0  0  0  0  0  0  0
   -3.0030   23.0470  -30.1450 C   0  0  0  0  0  0  0  0  0  0  0  0
   -2.8860   24.3620  -29.6820 C   0  0  0  0  0  0  0  0  0  0  0  0
   -1.7420   24.7540  -28.8020 C   0  0  0  0  0  0  0  0  0  0  0  0
   -3.8010   25.2940  -30.0550 N   0  0  0  0  0  0  0  0  0  0  0  0
   -4.8540   24.9900  -30.8570 C   0  0  0  0  0  0  0  0  0  0  0  0
   -5.6580   25.9010  -31.1880 O   0  0  0  0  0  0  0  0  0  0  0  0
   -6.5330   20.5010  -33.2930 C   0  0  0  0  0  0  0  0  0  0  0  0
   -6.3790   19.2030  -33.7890 C   0  0  0  0  0  0  0  0  0  0  0  0
   -4.4543   16.9611  -33.6514 H   0  0  0  0  0  0  0  0  0  0  0  0
   -4.8421   15.9626  -35.0933 H   0  0  0  0  0  0  0  0  0  0  0  0
   -5.2096   17.7209  -35.0933 H   0  0  0  0  0  0  0  0  0  0  0  0
   -8.3974   17.5325  -31.5923 H   0  0  0  0  0  0  0  0  0  0  0  0
   -8.6690   19.8495  -30.7009 H   0  0  0  0  0  0  0  0  0  0  0  0
   -6.0910   23.4190  -33.1800 H   0  0  0  0  0  0  0  0  0  0  0  0
   -4.2826   20.5984  -30.5796 H   0  0  0  0  0  0  0  0  0  0  0  0
   -5.1295   21.1769  -32.0543 H   0  0  0  0  0  0  0  0  0  0  0  0
   -3.3413   21.0057  -32.0543 H   0  0  0  0  0  0  0  0  0  0  0  0
   -2.2515   22.2940  -29.8652 H   0  0  0  0  0  0  0  0  0  0  0  0
   -2.0388   24.6523  -27.7477 H   0  0  0  0  0  0  0  0  0  0  0  0
   -0.8818   24.0994  -29.0055 H   0  0  0  0  0  0  0  0  0  0  0  0
   -1.4640   25.7987  -29.0055 H   0  0  0  0  0  0  0  0  0  0  0  0
   -6.0110   21.3389  -33.7783 H   0  0  0  0  0  0  0  0  0  0  0  0
   -5.7382   19.0216  -34.6645 H   0  0  0  0  0  0  0  0  0  0  0  0
  1  2  1  0
  2  3  1  0
  3  4  2  0
  4  5  1  0
  5  6  2  0
  6  7  1  0
  7  8  2  0
  7  9  2  0
  7 10  1  0
 10 11  1  0
 11 12  2  0
 12 13  1  0
 12 14  1  0
 14 15  2  0
 15 16  1  0
 15 17  1  0
 17 18  1  0
 18 19  2  0
  6 20  1  0
 20 21  2  0
 21  3  1  0
 18 11  1  0
  1 22  1  0
  1 23  1  0
  1 24  1  0
  4 25  1  0
  5 26  1  0
 10 27  1  0
 13 28  1  0
 13 29  1  0
 13 30  1  0
 14 31  1  0
 16 32  1  0
 16 33  1  0
 16 34  1  0
 20 35  1  0
 21 36  1  0
M  CHG  1  17  -1
M  END
>  <UniqueID>  (47) 
43

>  <SMILES>  (47) 
CSc1ccc(S(=O)(=O)Nc2c(C)cc(C)[n-]c2=O)cc1

>  <Energy>  (47) 
36.83327794487899

>  <Genealogy>  (47) 
CSc1ccc(S(=O)(=O)Nc2c(C)cc(C)[n-]c2=O)cc1 (protonated)
CSc1ccc(S(=O)(=O)Nc2c(C)cc(C)[n-]c2=O)cc1 (3D coordinates assigned)
CSc1ccc(S(=O)(=O)Nc2c(C)cc(C)[n-]c2=O)cc1 (optimized conformer: 36.83327794487899 kcal/mol)

>  <smiles>  (47) 
CSc1ccc(S(=O)(=O)Nc2c(C)cc(C)[nH]c2=O)cc1

>  <score_type>  (47) 
oracle

>  <origin>  (47) 
adgpu

>  <m_score__min__energy>  (47) 
-10.07

>  <m_primary>  (47) 
energy

$$$$
47:0
     RDKit          3D

 42 44  0  0  0  0  0  0  0  0999 V2000
   -5.1429   17.1561  -34.9583 H   0  0  0  0  0  0  0  0  0  0  0  0
   -5.6590   17.8750  -34.3050 C   0  0  0  0  0  0  0  0  0  0  0  0
   -6.9010   17.7160  -33.8040 N   0  0  0  0  0  0  0  0  0  0  0  0
   -7.1050   18.8330  -33.0720 C   0  0  0  0  0  0  0  0  0  0  0  0
   -8.3570   19.1160  -32.4280 N   0  0  0  0  0  0  0  0  0  0  0  0
   -9.0480   20.3670  -32.7390 C   0  0  0  0  0  0  0  0  0  0  0  0
   -9.3279   20.8736  -31.8036 H   0  0  0  0  0  0  0  0  0  0  0  0
   -8.3817   21.0184  -33.3237 H   0  0  0  0  0  0  0  0  0  0  0  0
   -9.9541   20.1499  -33.3237 H   0  0  0  0  0  0  0  0  0  0  0  0
   -8.7230   18.3810  -31.2150 C   0  0  0  0  0  0  0  0  0  0  0  0
   -8.4318   18.9658  -30.3300 H   0  0  0  0  0  0  0  0  0  0  0  0
   -9.8100   18.2130  -31.2020 H   0  0  0  0  0  0  0  0  0  0  0  0
   -8.2021   17.4123  -31.2020 H   0  0  0  0  0  0  0  0  0  0  0  0
   -6.0470   19.6770  -33.0930 N   0  0  0  0  0  0  0  0  0  0  0  0
   -5.8440   20.8860  -32.3440 C   0  0  0  0  0  0  0  0  0  0  0  0
   -6.5340   22.0570  -32.6930 C   0  0  0  0  0  0  0  0  0  0  0  0
   -7.2429   22.0444  -33.5340 H   0  0  0  0  0  0  0  0  0  0  0  0
   -6.3250   23.2400  -31.9770 C   0  0  0  0  0  0  0  0  0  0  0  0
   -6.8728   24.1526  -32.2546 H   0  0  0  0  0  0  0  0  0  0  0  0
   -5.4210   23.2670  -30.9080 C   0  0  0  0  0  0  0  0  0  0  0  0
   -5.1460   24.7600  -30.0170 S   0  0  0  0  0  0  0  0  0  0  0  0
   -4.2370   25.6570  -30.8100 O   0  0  0  0  0  0  0  0  0  0  0  0
   -6.4580   25.4600  -29.7930 O   0  0  0  0  0  0  0  0  0  0  0  0
   -4.4130   24.3770  -28.4920 N   0  0  0  0  0  0  0  0  0  0  0  0
   -3.1430   24.4900  -28.2540 C   0  0  0  0  0  0  0  0  0  0  0  0
   -2.6640   24.1650  -27.0240 N   0  0  0  0  0  0  0  0  0  0  0  0
   -1.3390   24.2690  -26.7330 C   0  0  0  0  0  0  0  0  0  0  0  0
   -0.8440   23.9040  -25.3700 C   0  0  0  0  0  0  0  0  0  0  0  0
   -1.4835   24.3755  -24.6092 H   0  0  0  0  0  0  0  0  0  0  0  0
   -0.8752   22.8111  -25.2491 H   0  0  0  0  0  0  0  0  0  0  0  0
    0.1908   24.2569  -25.2491 H   0  0  0  0  0  0  0  0  0  0  0  0
   -0.4500   24.7170  -27.7130 C   0  0  0  0  0  0  0  0  0  0  0  0
    0.6250   24.8073  -27.4979 H   0  0  0  0  0  0  0  0  0  0  0  0
   -0.9550   25.0470  -28.9690 C   0  0  0  0  0  0  0  0  0  0  0  0
   -0.2773   25.4035  -29.7587 H   0  0  0  0  0  0  0  0  0  0  0  0
   -2.2850   24.9280  -29.2170 N   0  0  0  0  0  0  0  0  0  0  0  0
   -4.7110   22.1060  -30.5730 C   0  0  0  0  0  0  0  0  0  0  0  0
   -3.9873   22.1261  -29.7449 H   0  0  0  0  0  0  0  0  0  0  0  0
   -4.9190   20.9230  -31.2870 C   0  0  0  0  0  0  0  0  0  0  0  0
   -4.3559   20.0164  -31.0203 H   0  0  0  0  0  0  0  0  0  0  0  0
   -5.1350   19.0730  -33.8750 C   0  0  0  0  0  0  0  0  0  0  0  0
   -4.1402   19.4686  -34.1279 H   0  0  0  0  0  0  0  0  0  0  0  0
  1  2  1  0
  2  3  1  0
  3  4  2  0
  4  5  1  0
  5  6  1  0
  6  7  1  0
  6  8  1  0
  6  9  1  0
  5 10  1  0
 10 11  1  0
 10 12  1  0
 10 13  1  0
  4 14  1  0
 14 15  1  0
 15 16  2  0
 16 17  1  0
 16 18  1  0
 18 19  1  0
 18 20  2  0
 20 21  1  0
 21 22  2  0
 21 23  2  0
 21 24  1  0
 24 25  2  0
 25 26  1  0
 26 27  2  0
 27 28  1  0
 28 29  1  0
 28 30  1  0
 28 31  1  0
 27 32  1  0
 32 33  1  0
 32 34  2  0
 34 35  1  0
 34 36  1  0
 20 37  1  0
 37 38  1  0
 37 39  2  0
 39 40  1  0
 14 41  1  0
 41 42  1  0
 41  2  2  0
 39 15  1  0
 36 25  1  0
M  CHG  1  36  -1
M  END
>  <UniqueID>  (48) 
44

>  <SMILES>  (48) 
Cc1cc[n-]/c(=N\S(=O)(=O)c2ccc(-n3ccnc3N(C)C)cc2)n1

>  <Energy>  (48) 
83.54995515211107

>  <Genealogy>  (48) 
Cc1cc[n-]c(=NS(=O)(=O)c2ccc(-n3ccnc3N(C)C)cc2)n1 (protonated)
Cc1cc[n-]/c(=N\S(=O)(=O)c2ccc(-n3ccnc3N(C)C)cc2)n1 (cis-trans isomerization)
Cc1cc[n-]/c(=N\S(=O)(=O)c2ccc(-n3ccnc3N(C)C)cc2)n1 (3D coordinates assigned)
Cc1cc[n-]/c(=N\S(=O)(=O)c2ccc(-n3ccnc3N(C)C)cc2)n1 (optimized conformer: 83.54995515211107 kcal/mol)

>  <smiles>  (48) 
Cc1cc[nH]c(=NS(=O)(=O)c2ccc(-n3ccnc3N(C)C)cc2)n1

>  <score_type>  (48) 
oracle

>  <origin>  (48) 
adgpu

>  <m_score__min__energy>  (48) 
-9.5500000000000007

>  <m_primary>  (48) 
energy

$$$$
