0:0
     RDKit          3D

 40 42  0  0  0  0  0  0  0  0999 V2000
   -4.1380   17.0810  -35.3470 C   0  0  0  0  0  0  0  0  0  0  0  0
   -5.2740   17.9010  -35.0930 O   0  0  0  0  0  0  0  0  0  0  0  0
   -5.8650   18.0640  -33.8310 C   0  0  0  0  0  0  0  0  0  0  0  0
   -5.8620   17.0470  -32.8580 C   0  0  0  0  0  0  0  0  0  0  0  0
   -6.4640   17.2610  -31.6150 C   0  0  0  0  0  0  0  0  0  0  0  0
   -7.0760   18.4850  -31.3330 C   0  0  0  0  0  0  0  0  0  0  0  0
   -7.0900   19.5010  -32.2950 C   0  0  0  0  0  0  0  0  0  0  0  0
   -7.8720   21.0390  -31.9410 S   0  0  0  0  0  0  0  0  0  0  0  0
   -9.2730   21.0220  -32.4830 O   0  0  0  0  0  0  0  0  0  0  0  0
   -7.9270   21.2650  -30.4560 O   0  0  0  0  0  0  0  0  0  0  0  0
   -6.9900   22.3380  -32.6770 N   0  0  0  0  0  0  0  0  0  0  0  0
   -5.9790   23.0870  -31.9760 C   0  0  0  0  0  0  0  0  0  0  0  0
   -6.2980   24.3450  -31.4410 C   0  0  0  0  0  0  0  0  0  0  0  0
   -5.3600   25.0810  -30.7070 C   0  0  0  0  0  0  0  0  0  0  0  0
   -5.7400   26.4140  -30.1250 C   0  0  0  0  0  0  0  0  0  0  0  0
   -4.0820   24.5480  -30.4790 C   0  0  0  0  0  0  0  0  0  0  0  0
   -3.1610   25.2720  -29.7240 O   0  0  0  0  0  0  0  0  0  0  0  0
   -3.7340   23.2920  -31.0100 C   0  0  0  0  0  0  0  0  0  0  0  0
   -2.4460   22.7600  -30.7990 C   0  0  0  0  0  0  0  0  0  0  0  0
   -2.0930   21.5270  -31.3440 C   0  0  0  0  0  0  0  0  0  0  0  0
   -3.0080   20.8120  -32.1130 C   0  0  0  0  0  0  0  0  0  0  0  0
   -4.2910   21.3180  -32.3320 C   0  0  0  0  0  0  0  0  0  0  0  0
   -4.6820   22.5550  -31.7730 C   0  0  0  0  0  0  0  0  0  0  0  0
   -6.4810   19.2880  -33.5390 C   0  0  0  0  0  0  0  0  0  0  0  0
   -3.6955   16.7616  -34.3920 H   0  0  0  0  0  0  0  0  0  0  0  0
   -4.4461   16.1957  -35.9226 H   0  0  0  0  0  0  0  0  0  0  0  0
   -3.3948   17.6522  -35.9226 H   0  0  0  0  0  0  0  0  0  0  0  0
   -5.3843   16.0806  -33.0766 H   0  0  0  0  0  0  0  0  0  0  0  0
   -6.4560   16.4640  -30.8569 H   0  0  0  0  0  0  0  0  0  0  0  0
   -7.5476   18.6502  -30.3531 H   0  0  0  0  0  0  0  0  0  0  0  0
   -7.2160   22.5650  -33.6700 H   0  0  0  0  0  0  0  0  0  0  0  0
   -7.3038   24.7604  -31.6015 H   0  0  0  0  0  0  0  0  0  0  0  0
   -5.7226   26.3530  -29.0268 H   0  0  0  0  0  0  0  0  0  0  0  0
   -5.0240   27.1784  -30.4612 H   0  0  0  0  0  0  0  0  0  0  0  0
   -6.7515   26.6860  -30.4612 H   0  0  0  0  0  0  0  0  0  0  0  0
   -1.7143   23.3220  -30.2000 H   0  0  0  0  0  0  0  0  0  0  0  0
   -1.0879   21.1169  -31.1662 H   0  0  0  0  0  0  0  0  0  0  0  0
   -2.7188   19.8447  -32.5497 H   0  0  0  0  0  0  0  0  0  0  0  0
   -5.0040   20.7479  -32.9457 H   0  0  0  0  0  0  0  0  0  0  0  0
   -6.4867   20.0890  -34.2930 H   0  0  0  0  0  0  0  0  0  0  0  0
  1  2  1  0
  2  3  1  0
  3  4  2  0
  4  5  1  0
  5  6  2  0
  6  7  1  0
  7  8  1  0
  8  9  2  0
  8 10  2  0
  8 11  1  0
 11 12  1  0
 12 13  2  0
 13 14  1  0
 14 15  1  0
 14 16  2  0
 16 17  1  0
 16 18  1  0
 18 19  2  0
 19 20  1  0
 20 21  2  0
 21 22  1  0
 22 23  2  0
  7 24  2  0
 24  3  1  0
 23 12  1  0
 23 18  1  0
  1 25  1  0
  1 26  1  0
  1 27  1  0
  4 28  1  0
  5 29  1  0
  6 30  1  0
 11 31  1  0
 13 32  1  0
 15 33  1  0
 15 34  1  0
 15 35  1  0
 19 36  1  0
 20 37  1  0
 21 38  1  0
 22 39  1  0
 24 40  1  0
M  CHG  1  17  -1
M  END
>  <UniqueID>  (1) 
1

>  <SMILES>  (1) 
COc1cccc(S(=O)(=O)Nc2cc(C)c([O-])c3ccccc23)c1

>  <Energy>  (1) 
52.54748552357924

>  <Genealogy>  (1) 
COc1cccc(S(=O)(=O)Nc2cc(C)c([O-])c3ccccc23)c1 (protonated)
COc1cccc(S(=O)(=O)Nc2cc(C)c([O-])c3ccccc23)c1 (3D coordinates assigned)
COc1cccc(S(=O)(=O)Nc2cc(C)c([O-])c3ccccc23)c1 (optimized conformer: 52.54748552357924 kcal/mol)

>  <smiles>  (1) 
COc1cccc(S(=O)(=O)Nc2cc(C)c(O)c3ccccc23)c1

>  <score_type>  (1) 
oracle

>  <origin>  (1) 
adgpu

>  <m_score__min__energy>  (1) 
-11.300000000000001

>  <m_primary>  (1) 
energy

$$$$
1:0
     RDKit          3D

 49 52  0  0  0  0  0  0  0  0999 V2000
   -0.4690   25.9850  -28.2130 H   0  0  0  0  0  0  0  0  0  0  0  0
   -1.4280   25.9330  -28.6240 N   0  0  0  0  0  0  0  0  0  0  0  0
   -1.8640   24.9040  -29.2830 C   0  0  0  0  0  0  0  0  0  0  0  0
   -3.1340   24.9250  -29.7690 N   0  0  0  0  0  0  0  0  0  0  0  0
   -3.6630   23.8810  -30.4600 C   0  0  0  0  0  0  0  0  0  0  0  0
   -4.6999   23.9350  -30.8233 H   0  0  0  0  0  0  0  0  0  0  0  0
   -2.8930   22.7330  -30.7130 C   0  0  0  0  0  0  0  0  0  0  0  0
   -3.4470   21.5970  -31.4890 C   0  0  0  0  0  0  0  0  0  0  0  0
   -2.6160   20.7640  -32.1690 N   0  0  0  0  0  0  0  0  0  0  0  0
   -3.1080   19.7240  -32.8920 C   0  0  0  0  0  0  0  0  0  0  0  0
   -2.2180   18.8550  -33.6230 N   0  0  0  0  0  0  0  0  0  0  0  0
   -0.8170   19.2520  -33.8190 C   0  0  0  0  0  0  0  0  0  0  0  0
   -0.7732   20.3317  -34.0249 H   0  0  0  0  0  0  0  0  0  0  0  0
   -0.2512   19.0140  -32.9062 H   0  0  0  0  0  0  0  0  0  0  0  0
   -0.1960   18.4890  -34.9970 C   0  0  0  0  0  0  0  0  0  0  0  0
   -0.6393   18.8536  -35.9354 H   0  0  0  0  0  0  0  0  0  0  0  0
    0.8905   18.6605  -34.9916 H   0  0  0  0  0  0  0  0  0  0  0  0
   -0.4330   17.1000  -34.8830 O   0  0  0  0  0  0  0  0  0  0  0  0
   -1.8190   16.8510  -34.9980 C   0  0  0  0  0  0  0  0  0  0  0  0
   -2.1931   17.3109  -35.9246 H   0  0  0  0  0  0  0  0  0  0  0  0
   -1.9830   15.7635  -35.0193 H   0  0  0  0  0  0  0  0  0  0  0  0
   -2.5740   17.4400  -33.8040 C   0  0  0  0  0  0  0  0  0  0  0  0
   -3.6563   17.3581  -33.9828 H   0  0  0  0  0  0  0  0  0  0  0  0
   -2.2988   16.8828  -32.8964 H   0  0  0  0  0  0  0  0  0  0  0  0
   -4.4500   19.5190  -32.9230 N   0  0  0  0  0  0  0  0  0  0  0  0
   -5.2980   20.3370  -32.2430 C   0  0  0  0  0  0  0  0  0  0  0  0
   -6.7220   20.0980  -32.2720 N   0  0  0  0  0  0  0  0  0  0  0  0
   -7.2320   18.7590  -32.5910 C   0  0  0  0  0  0  0  0  0  0  0  0
   -7.2790   18.6400  -33.6835 H   0  0  0  0  0  0  0  0  0  0  0  0
   -6.5560   18.0074  -32.1573 H   0  0  0  0  0  0  0  0  0  0  0  0
   -8.6320   18.5660  -32.0020 C   0  0  0  0  0  0  0  0  0  0  0  0
   -9.0545   17.6235  -32.3805 H   0  0  0  0  0  0  0  0  0  0  0  0
   -8.5497   18.5392  -30.9054 H   0  0  0  0  0  0  0  0  0  0  0  0
   -9.4860   19.6330  -32.3630 O   0  0  0  0  0  0  0  0  0  0  0  0
   -9.0180   20.8310  -31.7740 C   0  0  0  0  0  0  0  0  0  0  0  0
   -9.7416   21.6356  -31.9716 H   0  0  0  0  0  0  0  0  0  0  0  0
   -8.9074   20.6696  -30.6915 H   0  0  0  0  0  0  0  0  0  0  0  0
   -7.6550   21.2300  -32.3500 C   0  0  0  0  0  0  0  0  0  0  0  0
   -7.7778   21.5282  -33.4017 H   0  0  0  0  0  0  0  0  0  0  0  0
   -7.2503   22.0704  -31.7670 H   0  0  0  0  0  0  0  0  0  0  0  0
   -4.7880   21.3760  -31.5300 N   0  0  0  0  0  0  0  0  0  0  0  0
   -1.5790   22.6930  -30.2200 C   0  0  0  0  0  0  0  0  0  0  0  0
   -0.9495   21.8130  -30.4184 H   0  0  0  0  0  0  0  0  0  0  0  0
   -1.0610   23.7640  -29.4770 C   0  0  0  0  0  0  0  0  0  0  0  0
    0.2370   23.7210  -28.9510 O   0  0  0  0  0  0  0  0  0  0  0  0
    0.5130   23.5090  -27.5680 C   0  0  0  0  0  0  0  0  0  0  0  0
   -0.0621   24.2431  -26.9846 H   0  0  0  0  0  0  0  0  0  0  0  0
    0.1360   22.2370  -27.1610 F   0  0  0  0  0  0  0  0  0  0  0  0
    1.8740   23.6580  -27.3580 F   0  0  0  0  0  0  0  0  0  0  0  0
  1  2  1  0
  2  3  2  0
  3  4  1  0
  4  5  1  0
  5  6  1  0
  5  7  2  0
  7  8  1  0
  8  9  2  0
  9 10  1  0
 10 11  1  0
 11 12  1  0
 12 13  1  0
 12 14  1  0
 12 15  1  0
 15 16  1  0
 15 17  1  0
 15 18  1  0
 18 19  1  0
 19 20  1  0
 19 21  1  0
 19 22  1  0
 22 23  1  0
 22 24  1  0
 10 25  2  0
 25 26  1  0
 26 27  1  0
 27 28  1  0
 28 29  1  0
 28 30  1  0
 28 31  1  0
 31 32  1  0
 31 33  1  0
 31 34  1  0
 34 35  1  0
 35 36  1  0
 35 37  1  0
 35 38  1  0
 38 39  1  0
 38 40  1  0
 26 41  2  0
  7 42  1  0
 42 43  1  0
 42 44  2  0
 44 45  1  0
 45 46  1  0
 46 47  1  0
 46 48  1  0
 46 49  1  0
 44  3  1  0
 41  8  1  0
 22 11  1  0
 38 27  1  0
M  CHG  1   4  -1
M  END
>  <UniqueID>  (2) 
2

>  <SMILES>  (2) 
[H]/N=c1/[n-]cc(-c2nc(N3CCOCC3)nc(N3CCOCC3)n2)cc1OC(F)F

>  <Energy>  (2) 
63.12715907717335

>  <Genealogy>  (2) 
N=c1[n-]cc(-c2nc(N3CCOCC3)nc(N3CCOCC3)n2)cc1OC(F)F (protonated)
[H]/N=c1/[n-]cc(-c2nc(N3CCOCC3)nc(N3CCOCC3)n2)cc1OC(F)F (cis-trans isomerization)
[H]/N=c1/[n-]cc(-c2nc(N3CCOCC3)nc(N3CCOCC3)n2)cc1OC(F)F (3D coordinates assigned)
[H]/N=c1/[n-]cc(-c2nc(N3CCOCC3)nc(N3CCOCC3)n2)cc1OC(F)F (nonaromatic ring conformer: 63.12715907717335 kcal/mol)

>  <smiles>  (2) 
N=c1[nH]cc(-c2nc(N3CCOCC3)nc(N3CCOCC3)n2)cc1OC(F)F

>  <score_type>  (2) 
oracle

>  <origin>  (2) 
adgpu

>  <m_score__min__energy>  (2) 
-8.3100000000000005

>  <m_primary>  (2) 
energy

$$$$
2:0
     RDKit          3D

 33 34  0  0  0  0  0  0  0  0999 V2000
   -9.4900   21.6840  -31.9620 C   0  0  0  0  0  0  0  0  0  0  0  0
   -8.4950   20.8790  -31.1320 C   0  0  0  0  0  0  0  0  0  0  0  0
   -7.7730   19.8670  -31.9900 C   0  0  0  0  0  0  0  0  0  0  0  0
   -8.1590   18.5180  -31.9120 C   0  0  0  0  0  0  0  0  0  0  0  0
   -7.5280   17.5500  -32.6930 C   0  0  0  0  0  0  0  0  0  0  0  0
   -6.4950   17.9150  -33.5550 C   0  0  0  0  0  0  0  0  0  0  0  0
   -6.0880   19.2470  -33.6360 C   0  0  0  0  0  0  0  0  0  0  0  0
   -6.7160   20.2380  -32.8610 C   0  0  0  0  0  0  0  0  0  0  0  0
   -6.2720   21.6050  -32.9420 N   0  0  0  0  0  0  0  0  0  0  0  0
   -4.9980   22.0630  -32.3840 C   0  0  0  0  0  0  0  0  0  0  0  0
   -5.2370   23.1250  -31.3360 C   0  0  0  0  0  0  0  0  0  0  0  0
   -6.3960   23.9260  -31.3910 C   0  0  0  0  0  0  0  0  0  0  0  0
   -7.2920   23.7880  -32.4020 F   0  0  0  0  0  0  0  0  0  0  0  0
   -6.6410   24.8810  -30.4010 C   0  0  0  0  0  0  0  0  0  0  0  0
   -5.7410   25.0480  -29.3480 C   0  0  0  0  0  0  0  0  0  0  0  0
   -4.5910   24.2610  -29.2800 C   0  0  0  0  0  0  0  0  0  0  0  0
   -4.3330   23.3000  -30.2640 C   0  0  0  0  0  0  0  0  0  0  0  0
   -2.8640   22.3380  -30.1210 Cl  0  0  0  0  0  0  0  0  0  0  0  0
  -10.1679   22.2324  -31.2914 H   0  0  0  0  0  0  0  0  0  0  0  0
   -8.9449   22.3983  -32.5966 H   0  0  0  0  0  0  0  0  0  0  0  0
  -10.0747   21.0018  -32.5966 H   0  0  0  0  0  0  0  0  0  0  0  0
   -7.7589   21.5648  -30.6871 H   0  0  0  0  0  0  0  0  0  0  0  0
   -9.0457   20.3436  -30.3445 H   0  0  0  0  0  0  0  0  0  0  0  0
   -8.9677   18.2223  -31.2275 H   0  0  0  0  0  0  0  0  0  0  0  0
   -7.8454   16.4987  -32.6288 H   0  0  0  0  0  0  0  0  0  0  0  0
   -5.9998   17.1512  -34.1726 H   0  0  0  0  0  0  0  0  0  0  0  0
   -5.2671   19.5249  -34.3134 H   0  0  0  0  0  0  0  0  0  0  0  0
   -6.8220   22.2890  -33.5080 H   0  0  0  0  0  0  0  0  0  0  0  0
   -4.4755   21.2109  -31.9248 H   0  0  0  0  0  0  0  0  0  0  0  0
   -4.3854   22.4889  -33.1923 H   0  0  0  0  0  0  0  0  0  0  0  0
   -7.5466   25.5034  -30.4519 H   0  0  0  0  0  0  0  0  0  0  0  0
   -5.9383   25.8009  -28.5707 H   0  0  0  0  0  0  0  0  0  0  0  0
   -3.8835   24.3966  -28.4487 H   0  0  0  0  0  0  0  0  0  0  0  0
  1  2  1  0
  2  3  1  0
  3  4  2  0
  4  5  1  0
  5  6  2  0
  6  7  1  0
  7  8  2  0
  8  9  1  0
  9 10  1  0
 10 11  1  0
 11 12  2  0
 12 13  1  0
 12 14  1  0
 14 15  2  0
 15 16  1  0
 16 17  2  0
 17 18  1  0
  8  3  1  0
 17 11  1  0
  1 19  1  0
  1 20  1  0
  1 21  1  0
  2 22  1  0
  2 23  1  0
  4 24  1  0
  5 25  1  0
  6 26  1  0
  7 27  1  0
  9 28  1  0
 10 29  1  0
 10 30  1  0
 14 31  1  0
 15 32  1  0
 16 33  1  0
M  END
>  <UniqueID>  (3) 
3

>  <SMILES>  (3) 
CCc1ccccc1NCc1c(F)cccc1Cl

>  <Energy>  (3) 
33.35571024099514

>  <Genealogy>  (3) 
CCc1ccccc1NCc1c(F)cccc1Cl (3D coordinates assigned)
CCc1ccccc1NCc1c(F)cccc1Cl (optimized conformer: 33.35571024099514 kcal/mol)

>  <smiles>  (3) 
CCc1ccccc1NCc1c(F)cccc1Cl

>  <score_type>  (3) 
oracle

>  <origin>  (3) 
adgpu

>  <m_score__min__energy>  (3) 
-7.2199999999999998

>  <m_primary>  (3) 
energy

$$$$
3:0
     RDKit          3D

 47 49  0  0  0  0  0  0  0  0999 V2000
   -0.4600   20.1080  -28.1640 C   0  0  0  0  0  0  0  0  0  0  0  0
   -1.5800   20.8470  -27.4220 C   0  0  0  0  0  0  0  0  0  0  0  0
   -2.7240   19.8920  -27.0570 C   0  0  0  0  0  0  0  0  0  0  0  0
   -2.0890   22.0290  -28.2360 C   0  0  0  0  0  0  0  0  0  0  0  0
   -3.3280   21.9490  -28.9040 C   0  0  0  0  0  0  0  0  0  0  0  0
   -3.8170   23.0270  -29.6640 C   0  0  0  0  0  0  0  0  0  0  0  0
   -5.1190   22.9150  -30.3710 C   0  0  0  0  0  0  0  0  0  0  0  0
   -6.0120   23.9980  -30.4310 C   0  0  0  0  0  0  0  0  0  0  0  0
   -7.2320   23.8450  -31.0880 C   0  0  0  0  0  0  0  0  0  0  0  0
   -7.5550   22.6280  -31.6880 C   0  0  0  0  0  0  0  0  0  0  0  0
   -6.6370   21.5680  -31.6360 C   0  0  0  0  0  0  0  0  0  0  0  0
   -6.9350   20.2880  -32.2280 N   0  0  0  0  0  0  0  0  0  0  0  0
   -5.9130   19.6360  -33.0600 C   0  0  0  0  0  0  0  0  0  0  0  0
   -6.3930   18.2780  -33.5960 C   0  0  0  0  0  0  0  0  0  0  0  0
   -7.0640   17.4100  -32.5010 C   0  0  0  0  0  0  0  0  0  0  0  0
   -6.0610   16.7320  -31.6720 N   0  0  0  0  0  0  0  0  0  0  0  0
   -8.0500   18.2030  -31.5990 C   0  0  0  0  0  0  0  0  0  0  0  0
   -8.2460   19.6480  -32.0590 C   0  0  0  0  0  0  0  0  0  0  0  0
   -5.4600   21.7410  -30.9710 N   0  0  0  0  0  0  0  0  0  0  0  0
   -3.0420   24.1990  -29.7610 C   0  0  0  0  0  0  0  0  0  0  0  0
   -3.4910   25.2960  -30.4910 O   0  0  0  0  0  0  0  0  0  0  0  0
   -1.8110   24.2830  -29.1070 C   0  0  0  0  0  0  0  0  0  0  0  0
   -1.3330   23.2120  -28.3490 C   0  0  0  0  0  0  0  0  0  0  0  0
   -0.1020   23.3390  -27.7120 O   0  0  0  0  0  0  0  0  0  0  0  0
    0.2267   19.6549  -27.4339 H   0  0  0  0  0  0  0  0  0  0  0  0
   -0.8963   19.3198  -28.7952 H   0  0  0  0  0  0  0  0  0  0  0  0
    0.0930   20.8191  -28.7952 H   0  0  0  0  0  0  0  0  0  0  0  0
   -1.1604   21.2411  -26.4847 H   0  0  0  0  0  0  0  0  0  0  0  0
   -2.8080   19.8219  -25.9625 H   0  0  0  0  0  0  0  0  0  0  0  0
   -3.6677   20.2742  -27.4734 H   0  0  0  0  0  0  0  0  0  0  0  0
   -2.5165   18.8952  -27.4734 H   0  0  0  0  0  0  0  0  0  0  0  0
   -3.9231   21.0269  -28.8295 H   0  0  0  0  0  0  0  0  0  0  0  0
   -5.7507   24.9588  -29.9634 H   0  0  0  0  0  0  0  0  0  0  0  0
   -7.9407   24.6850  -31.1333 H   0  0  0  0  0  0  0  0  0  0  0  0
   -8.5214   22.5002  -32.1977 H   0  0  0  0  0  0  0  0  0  0  0  0
   -5.6762   20.2911  -33.9114 H   0  0  0  0  0  0  0  0  0  0  0  0
   -5.0245   19.4618  -32.4354 H   0  0  0  0  0  0  0  0  0  0  0  0
   -7.1211   18.4543  -34.4015 H   0  0  0  0  0  0  0  0  0  0  0  0
   -5.5103   17.7321  -33.9603 H   0  0  0  0  0  0  0  0  0  0  0  0
   -7.6586   16.6596  -33.0427 H   0  0  0  0  0  0  0  0  0  0  0  0
   -5.7830   15.8340  -32.1280 H   0  0  0  0  0  0  0  0  0  0  0  0
   -6.4890   16.4960  -30.7480 H   0  0  0  0  0  0  0  0  0  0  0  0
   -9.0254   17.6946  -31.6135 H   0  0  0  0  0  0  0  0  0  0  0  0
   -7.6197   18.2341  -30.5871 H   0  0  0  0  0  0  0  0  0  0  0  0
   -8.7856   19.6581  -33.0175 H   0  0  0  0  0  0  0  0  0  0  0  0
   -8.8289   20.1977  -31.3053 H   0  0  0  0  0  0  0  0  0  0  0  0
   -1.2120   25.2019  -29.1897 H   0  0  0  0  0  0  0  0  0  0  0  0
  1  2  1  0
  2  3  1  0
  2  4  1  0
  4  5  2  0
  5  6  1  0
  6  7  1  0
  7  8  2  0
  8  9  1  0
  9 10  2  0
 10 11  1  0
 11 12  1  0
 12 13  1  0
 13 14  1  0
 14 15  1  0
 15 16  1  0
 15 17  1  0
 17 18  1  0
 11 19  2  0
  6 20  2  0
 20 21  1  0
 20 22  1  0
 22 23  2  0
 23 24  1  0
 23  4  1  0
 19  7  1  0
 18 12  1  0
  1 25  1  0
  1 26  1  0
  1 27  1  0
  2 28  1  0
  3 29  1  0
  3 30  1  0
  3 31  1  0
  5 32  1  0
  8 33  1  0
  9 34  1  0
 10 35  1  0
 13 36  1  0
 13 37  1  0
 14 38  1  0
 14 39  1  0
 15 40  1  0
 16 41  1  0
 16 42  1  0
 17 43  1  0
 17 44  1  0
 18 45  1  0
 18 46  1  0
 22 47  1  0
M  CHG  2  21  -1  24  -1
M  END
>  <UniqueID>  (4) 
4

>  <SMILES>  (4) 
CC(C)c1cc(-c2cccc(N3CCC(N)CC3)n2)c([O-])cc1[O-]

>  <Energy>  (4) 
56.82098754296444

>  <Genealogy>  (4) 
CC(C)c1cc(-c2cccc(N3CCC(N)CC3)n2)c([O-])cc1[O-] (protonated)
CC(C)c1cc(-c2cccc(N3CCC(N)CC3)n2)c([O-])cc1[O-] (3D coordinates assigned)
CC(C)c1cc(-c2cccc(N3CCC(N)CC3)n2)c([O-])cc1[O-] (nonaromatic ring conformer: 56.82098754296444 kcal/mol)

>  <smiles>  (4) 
CC(C)c1cc(-c2cccc(N3CCC(N)CC3)n2)c(O)cc1O

>  <score_type>  (4) 
oracle

>  <origin>  (4) 
adgpu

>  <m_score__min__energy>  (4) 
-11.75

>  <m_primary>  (4) 
energy

$$$$
4:0
     RDKit          3D

 56 58  0  0  0  0  0  0  0  0999 V2000
   -4.1920   24.5580  -26.8670 C   0  0  0  0  0  0  0  0  0  0  0  0
   -3.1840   24.7170  -27.8600 O   0  0  0  0  0  0  0  0  0  0  0  0
   -2.8600   23.7500  -28.8250 C   0  0  0  0  0  0  0  0  0  0  0  0
   -2.2040   22.5500  -28.4870 C   0  0  0  0  0  0  0  0  0  0  0  0
   -1.9170   21.6030  -29.4700 C   0  0  0  0  0  0  0  0  0  0  0  0
   -2.2720   21.8380  -30.8010 C   0  0  0  0  0  0  0  0  0  0  0  0
   -1.9440   20.6030  -32.0130 S   0  0  0  0  0  0  0  0  0  0  0  0
   -1.3620   21.2260  -33.2540 O   0  0  0  0  0  0  0  0  0  0  0  0
   -0.9420   19.6340  -31.4530 O   0  0  0  0  0  0  0  0  0  0  0  0
   -3.4210   19.7510  -32.3730 N   0  0  0  0  0  0  0  0  0  0  0  0
   -4.3510   20.5530  -33.1750 C   0  0  0  0  0  0  0  0  0  0  0  0
   -5.6780   19.8000  -33.4760 C   0  0  2  0  0  0  0  0  0  0  0  0
   -6.8760   20.3710  -32.7090 C   0  0  0  0  0  0  0  0  0  0  0  0
   -6.7240   21.3840  -31.7390 C   0  0  0  0  0  0  0  0  0  0  0  0
   -7.8370   21.8990  -31.0700 C   0  0  0  0  0  0  0  0  0  0  0  0
   -9.1150   21.4120  -31.3540 C   0  0  0  0  0  0  0  0  0  0  0  0
  -10.1940   21.9180  -30.7080 F   0  0  0  0  0  0  0  0  0  0  0  0
   -9.2800   20.4060  -32.3070 C   0  0  0  0  0  0  0  0  0  0  0  0
   -8.1690   19.8870  -32.9770 C   0  0  0  0  0  0  0  0  0  0  0  0
   -5.5170   18.3190  -33.3200 N   0  0  0  0  0  0  0  0  0  0  0  0
   -6.1070   17.5870  -34.4740 C   0  0  0  0  0  0  0  0  0  0  0  0
   -6.2350   16.0630  -34.2380 C   0  0  0  0  0  0  0  0  0  0  0  0
   -5.3140   15.5750  -33.1200 C   0  0  0  0  0  0  0  0  0  0  0  0
   -5.5860   16.3290  -31.8080 C   0  0  0  0  0  0  0  0  0  0  0  0
   -6.0430   17.7850  -32.0390 C   0  0  0  0  0  0  0  0  0  0  0  0
   -2.9110   23.0340  -31.1480 C   0  0  0  0  0  0  0  0  0  0  0  0
   -3.2150   23.9930  -30.1610 C   0  0  0  0  0  0  0  0  0  0  0  0
   -3.8810   25.1910  -30.4660 O   0  0  0  0  0  0  0  0  0  0  0  0
   -5.2960   25.3520  -30.4540 C   0  0  0  0  0  0  0  0  0  0  0  0
   -3.7371   24.6297  -25.8680 H   0  0  0  0  0  0  0  0  0  0  0  0
   -4.9487   25.3479  -26.9829 H   0  0  0  0  0  0  0  0  0  0  0  0
   -4.6689   23.5735  -26.9829 H   0  0  0  0  0  0  0  0  0  0  0  0
   -1.9167   22.3589  -27.4425 H   0  0  0  0  0  0  0  0  0  0  0  0
   -1.4088   20.6667  -29.1962 H   0  0  0  0  0  0  0  0  0  0  0  0
   -4.5859   21.4762  -32.6250 H   0  0  0  0  0  0  0  0  0  0  0  0
   -3.8631   20.7691  -34.1369 H   0  0  0  0  0  0  0  0  0  0  0  0
   -5.9159   19.9753  -34.5356 H   0  0  0  0  0  0  0  0  0  0  0  0
   -5.7209   21.7715  -31.5075 H   0  0  0  0  0  0  0  0  0  0  0  0
   -7.7066   22.6904  -30.3173 H   0  0  0  0  0  0  0  0  0  0  0  0
  -10.2858   20.0211  -32.5310 H   0  0  0  0  0  0  0  0  0  0  0  0
   -8.3074   19.0904  -33.7229 H   0  0  0  0  0  0  0  0  0  0  0  0
   -4.4870   18.1250  -33.3420 H   0  0  0  0  0  0  0  0  0  0  0  0
   -7.1099   17.9946  -34.6689 H   0  0  0  0  0  0  0  0  0  0  0  0
   -5.4270   17.7263  -35.3274 H   0  0  0  0  0  0  0  0  0  0  0  0
   -7.2757   15.8323  -33.9663 H   0  0  0  0  0  0  0  0  0  0  0  0
   -5.9419   15.5507  -35.1662 H   0  0  0  0  0  0  0  0  0  0  0  0
   -5.4840   14.5003  -32.9583 H   0  0  0  0  0  0  0  0  0  0  0  0
   -4.2723   15.7616  -33.4199 H   0  0  0  0  0  0  0  0  0  0  0  0
   -6.3733   15.7972  -31.2537 H   0  0  0  0  0  0  0  0  0  0  0  0
   -4.6423   16.3635  -31.2439 H   0  0  0  0  0  0  0  0  0  0  0  0
   -7.1423   17.8160  -32.0624 H   0  0  0  0  0  0  0  0  0  0  0  0
   -5.6534   18.4053  -31.2184 H   0  0  0  0  0  0  0  0  0  0  0  0
   -3.1776   23.2266  -32.1977 H   0  0  0  0  0  0  0  0  0  0  0  0
   -5.6516   25.3925  -29.4139 H   0  0  0  0  0  0  0  0  0  0  0  0
   -5.5631   26.2863  -30.9694 H   0  0  0  0  0  0  0  0  0  0  0  0
   -5.7662   24.5016  -30.9694 H   0  0  0  0  0  0  0  0  0  0  0  0
  1  2  1  0
  2  3  1  0
  3  4  2  0
  4  5  1  0
  5  6  2  0
  6  7  1  0
  7  8  2  0
  7  9  2  0
  7 10  1  0
 10 11  1  0
 11 12  1  0
 12 13  1  0
 13 14  2  0
 14 15  1  0
 15 16  2  0
 16 17  1  0
 16 18  1  0
 18 19  2  0
 12 20  1  0
 20 21  1  0
 21 22  1  0
 22 23  1  0
 23 24  1  0
 24 25  1  0
  6 26  1  0
 26 27  2  0
 27 28  1  0
 28 29  1  0
 27  3  1  0
 19 13  1  0
 25 20  1  0
  1 30  1  0
  1 31  1  0
  1 32  1  0
  4 33  1  0
  5 34  1  0
 11 35  1  0
 11 36  1  0
 12 37  1  6
 14 38  1  0
 15 39  1  0
 18 40  1  0
 19 41  1  0
 20 42  1  0
 21 43  1  0
 21 44  1  0
 22 45  1  0
 22 46  1  0
 23 47  1  0
 23 48  1  0
 24 49  1  0
 24 50  1  0
 25 51  1  0
 25 52  1  0
 26 53  1  0
 29 54  1  0
 29 55  1  0
 29 56  1  0
M  CHG  2  10  -1  20   1
M  END
>  <UniqueID>  (5) 
5

>  <SMILES>  (5) 
COc1ccc(S(=O)(=O)[N-]C[C@H](c2ccc(F)cc2)[NH+]2CCCCC2)cc1OC

>  <Energy>  (5) 
64.03331963440233

>  <Genealogy>  (5) 
COc1ccc(S(=O)(=O)[N-]CC(c2ccc(F)cc2)[NH+]2CCCCC2)cc1OC (protonated)
COc1ccc(S(=O)(=O)[N-]C[C@H](c2ccc(F)cc2)[NH+]2CCCCC2)cc1OC (chirality)
COc1ccc(S(=O)(=O)[N-]C[C@H](c2ccc(F)cc2)[NH+]2CCCCC2)cc1OC (3D coordinates assigned)
COc1ccc(S(=O)(=O)[N-]C[C@H](c2ccc(F)cc2)[NH+]2CCCCC2)cc1OC (nonaromatic ring conformer: 64.03331963440233 kcal/mol)

>  <smiles>  (5) 
COc1ccc(S(=O)(=O)NCC(c2ccc(F)cc2)N2CCCCC2)cc1OC

>  <score_type>  (5) 
oracle

>  <origin>  (5) 
adgpu

>  <m_score__min__energy>  (5) 
-8.4399999999999995

>  <m_primary>  (5) 
energy

$$$$
5:0
     RDKit          3D

 43 46  0  0  0  0  0  0  0  0999 V2000
   -0.8730   17.1930  -32.6300 C   0  0  0  0  0  0  0  0  0  0  0  0
   -0.6170   17.9520  -33.9220 C   0  0  0  0  0  0  0  0  0  0  0  0
   -0.4750   19.3420  -33.6380 O   0  0  0  0  0  0  0  0  0  0  0  0
   -1.4840   20.1470  -33.0880 C   0  0  0  0  0  0  0  0  0  0  0  0
   -2.6410   20.3700  -33.8420 C   0  0  0  0  0  0  0  0  0  0  0  0
   -3.6760   21.1630  -33.3380 C   0  0  0  0  0  0  0  0  0  0  0  0
   -3.5650   21.7390  -32.0670 C   0  0  0  0  0  0  0  0  0  0  0  0
   -4.8700   22.7300  -31.4210 S   0  0  0  0  0  0  0  0  0  0  0  0
   -5.3140   22.1640  -30.1040 O   0  0  0  0  0  0  0  0  0  0  0  0
   -4.4030   24.1440  -31.2130 O   0  0  0  0  0  0  0  0  0  0  0  0
   -6.2070   22.7360  -32.5230 N   0  0  0  0  0  0  0  0  0  0  0  0
   -7.4540   22.0960  -32.2130 C   0  0  0  0  0  0  0  0  0  0  0  0
   -8.8620   22.9030  -31.7640 S   0  0  0  0  0  0  0  0  0  0  0  0
   -9.8590   21.5530  -31.7620 C   0  0  0  0  0  0  0  0  0  0  0  0
   -9.0990   20.4470  -32.1210 C   0  0  0  0  0  0  0  0  0  0  0  0
   -7.7460   20.7360  -32.3680 C   0  0  0  0  0  0  0  0  0  0  0  0
   -6.7770   19.6750  -32.7070 C   0  0  0  0  0  0  0  0  0  0  0  0
   -6.4280   19.3870  -33.9870 N   0  0  0  0  0  0  0  0  0  0  0  0
   -5.5840   18.3250  -34.0410 C   0  0  0  0  0  0  0  0  0  0  0  0
   -5.0480   17.8030  -35.2200 C   0  0  0  0  0  0  0  0  0  0  0  0
   -4.1890   16.6930  -35.1370 C   0  0  0  0  0  0  0  0  0  0  0  0
   -3.8800   16.1210  -33.8870 C   0  0  0  0  0  0  0  0  0  0  0  0
   -4.4250   16.6540  -32.7080 C   0  0  0  0  0  0  0  0  0  0  0  0
   -5.2710   17.7550  -32.8180 C   0  0  0  0  0  0  0  0  0  0  0  0
   -6.0720   18.5910  -31.6070 S   0  0  0  0  0  0  0  0  0  0  0  0
   -2.4070   21.5250  -31.3080 C   0  0  0  0  0  0  0  0  0  0  0  0
   -1.3720   20.7320  -31.8120 C   0  0  0  0  0  0  0  0  0  0  0  0
   -0.6530   17.8451  -31.7719 H   0  0  0  0  0  0  0  0  0  0  0  0
   -1.9266   16.8794  -32.5916 H   0  0  0  0  0  0  0  0  0  0  0  0
   -0.2246   16.3053  -32.5916 H   0  0  0  0  0  0  0  0  0  0  0  0
    0.3052   17.5776  -34.3903 H   0  0  0  0  0  0  0  0  0  0  0  0
   -1.4639   17.8032  -34.6080 H   0  0  0  0  0  0  0  0  0  0  0  0
   -2.7372   19.9175  -34.8400 H   0  0  0  0  0  0  0  0  0  0  0  0
   -4.5795   21.3347  -33.9414 H   0  0  0  0  0  0  0  0  0  0  0  0
   -6.1130   23.3080  -33.3890 H   0  0  0  0  0  0  0  0  0  0  0  0
  -10.9316   21.5453  -31.5180 H   0  0  0  0  0  0  0  0  0  0  0  0
   -9.5193   19.4339  -32.2046 H   0  0  0  0  0  0  0  0  0  0  0  0
   -5.2929   18.2512  -36.1942 H   0  0  0  0  0  0  0  0  0  0  0  0
   -3.7552   16.2682  -36.0543 H   0  0  0  0  0  0  0  0  0  0  0  0
   -3.2079   15.2518  -33.8345 H   0  0  0  0  0  0  0  0  0  0  0  0
   -4.1909   16.2152  -31.7268 H   0  0  0  0  0  0  0  0  0  0  0  0
   -2.3119   21.9825  -30.3122 H   0  0  0  0  0  0  0  0  0  0  0  0
   -0.4669   20.5644  -31.2097 H   0  0  0  0  0  0  0  0  0  0  0  0
  1  2  1  0
  2  3  1  0
  3  4  1  0
  4  5  2  0
  5  6  1  0
  6  7  2  0
  7  8  1  0
  8  9  2  0
  8 10  2  0
  8 11  1  0
 11 12  1  0
 12 13  1  0
 13 14  1  0
 14 15  2  0
 15 16  1  0
 16 17  1  0
 17 18  2  0
 18 19  1  0
 19 20  2  0
 20 21  1  0
 21 22  2  0
 22 23  1  0
 23 24  2  0
 24 25  1  0
  7 26  1  0
 26 27  2  0
 27  4  1  0
 16 12  2  0
 25 17  1  0
 24 19  1  0
  1 28  1  0
  1 29  1  0
  1 30  1  0
  2 31  1  0
  2 32  1  0
  5 33  1  0
  6 34  1  0
 11 35  1  0
 14 36  1  0
 15 37  1  0
 20 38  1  0
 21 39  1  0
 22 40  1  0
 23 41  1  0
 26 42  1  0
 27 43  1  0
M  END
>  <UniqueID>  (6) 
6

>  <SMILES>  (6) 
CCOc1ccc(S(=O)(=O)Nc2sccc2-c2nc3ccccc3s2)cc1

>  <Energy>  (6) 
109.62238899620534

>  <Genealogy>  (6) 
CCOc1ccc(S(=O)(=O)Nc2sccc2-c2nc3ccccc3s2)cc1 (3D coordinates assigned)
CCOc1ccc(S(=O)(=O)Nc2sccc2-c2nc3ccccc3s2)cc1 (optimized conformer: 109.62238899620534 kcal/mol)

>  <smiles>  (6) 
CCOc1ccc(S(=O)(=O)Nc2sccc2-c2nc3ccccc3s2)cc1

>  <score_type>  (6) 
oracle

>  <origin>  (6) 
adgpu

>  <m_score__min__energy>  (6) 
-9.6099999999999994

>  <m_primary>  (6) 
energy

$$$$
6:0
     RDKit          3D

 30 32  0  0  0  0  0  0  0  0999 V2000
   -5.5570   26.7650  -29.0210 H   0  0  0  0  0  0  0  0  0  0  0  0
   -6.3250   26.1730  -29.3180 O   0  0  0  0  0  0  0  0  0  0  0  0
   -6.1010   24.9560  -29.9570 C   0  0  0  0  0  0  0  0  0  0  0  0
   -7.1030   23.9790  -29.9960 C   0  0  0  0  0  0  0  0  0  0  0  0
   -8.0756   24.1721  -29.5197 H   0  0  0  0  0  0  0  0  0  0  0  0
   -6.8720   22.7590  -30.6380 C   0  0  0  0  0  0  0  0  0  0  0  0
   -7.6642   21.9961  -30.6591 H   0  0  0  0  0  0  0  0  0  0  0  0
   -5.6350   22.4970  -31.2580 C   0  0  0  0  0  0  0  0  0  0  0  0
   -5.4110   21.1920  -31.9350 C   0  0  0  0  0  0  0  0  0  0  0  0
   -6.0660   20.0640  -31.5360 N   0  0  0  0  0  0  0  0  0  0  0  0
   -5.7370   18.9900  -32.2810 C   0  0  0  0  0  0  0  0  0  0  0  0
   -6.2170   17.8070  -32.0350 N   0  0  0  0  0  0  0  0  0  0  0  0
   -5.9660   16.6090  -32.7870 C   0  0  0  0  0  0  0  0  0  0  0  0
   -6.8420   16.1750  -33.7990 C   0  0  0  0  0  0  0  0  0  0  0  0
   -7.7267   16.7770  -34.0539 H   0  0  0  0  0  0  0  0  0  0  0  0
   -6.5910   14.9800  -34.4820 C   0  0  0  0  0  0  0  0  0  0  0  0
   -7.2682   14.6535  -35.2850 H   0  0  0  0  0  0  0  0  0  0  0  0
   -5.4800   14.2000  -34.1450 C   0  0  0  0  0  0  0  0  0  0  0  0
   -5.2330   13.0150  -34.8260 O   0  0  0  0  0  0  0  0  0  0  0  0
   -4.6250   14.6100  -33.1180 C   0  0  0  0  0  0  0  0  0  0  0  0
   -3.7548   13.9937  -32.8477 H   0  0  0  0  0  0  0  0  0  0  0  0
   -4.8760   15.8040  -32.4340 C   0  0  0  0  0  0  0  0  0  0  0  0
   -4.2124   16.1128  -31.6129 H   0  0  0  0  0  0  0  0  0  0  0  0
   -4.6000   19.3820  -33.4630 S   0  0  0  0  0  0  0  0  0  0  0  0
   -4.5410   21.0030  -33.0150 C   0  0  0  0  0  0  0  0  0  0  0  0
   -3.9245   21.7806  -33.4895 H   0  0  0  0  0  0  0  0  0  0  0  0
   -4.6320   23.4850  -31.2080 C   0  0  0  0  0  0  0  0  0  0  0  0
   -3.6565   23.2960  -31.6799 H   0  0  0  0  0  0  0  0  0  0  0  0
   -4.8660   24.7050  -30.5630 C   0  0  0  0  0  0  0  0  0  0  0  0
   -3.8620   25.6670  -30.5250 O   0  0  0  0  0  0  0  0  0  0  0  0
  1  2  1  0
  2  3  1  0
  3  4  2  0
  4  5  1  0
  4  6  1  0
  6  7  1  0
  6  8  2  0
  8  9  1  0
  9 10  1  0
 10 11  1  0
 11 12  2  0
 12 13  1  0
 13 14  2  0
 14 15  1  0
 14 16  1  0
 16 17  1  0
 16 18  2  0
 18 19  1  0
 18 20  1  0
 20 21  1  0
 20 22  2  0
 22 23  1  0
 11 24  1  0
 24 25  1  0
 25 26  1  0
  8 27  1  0
 27 28  1  0
 27 29  2  0
 29 30  1  0
 29  3  1  0
 25  9  2  0
 22 13  1  0
M  CHG  3  10  -1  19  -1  30  -1
M  END
>  <UniqueID>  (7) 
7

>  <SMILES>  (7) 
[O-]c1ccc(/N=c2/[n-]c(-c3ccc(O)c([O-])c3)cs2)cc1

>  <Energy>  (7) 
72.70026163486932

>  <Genealogy>  (7) 
[O-]c1ccc(N=c2[n-]c(-c3ccc(O)c([O-])c3)cs2)cc1 (protonated)
[O-]c1ccc(/N=c2/[n-]c(-c3ccc(O)c([O-])c3)cs2)cc1 (cis-trans isomerization)
[O-]c1ccc(/N=c2/[n-]c(-c3ccc(O)c([O-])c3)cs2)cc1 (3D coordinates assigned)
[O-]c1ccc(/N=c2/[n-]c(-c3ccc(O)c([O-])c3)cs2)cc1 (optimized conformer: 72.70026163486932 kcal/mol)

>  <smiles>  (7) 
Oc1ccc(N=c2[nH]c(-c3ccc(O)c(O)c3)cs2)cc1

>  <score_type>  (7) 
oracle

>  <origin>  (7) 
adgpu

>  <m_score__min__energy>  (7) 
-10.24

>  <m_primary>  (7) 
energy

$$$$
7:0
     RDKit          3D

 27 28  0  0  0  0  0  0  0  0999 V2000
   -7.9570   18.2560  -32.2880 C   0  0  0  0  0  0  0  0  0  0  0  0
   -8.9460   19.1950  -31.6910 C   0  0  0  0  0  0  0  0  0  0  0  0
   -8.3170   20.5150  -31.2380 C   0  0  0  0  0  0  0  0  0  0  0  0
   -7.7440   21.2740  -32.3860 C   0  0  0  0  0  0  0  0  0  0  0  0
   -6.5540   22.0280  -32.0560 N   0  0  0  0  0  0  0  0  0  0  0  0
   -5.3330   21.7010  -32.5530 C   0  0  0  0  0  0  0  0  0  0  0  0
   -4.4570   22.5940  -32.0520 N   0  0  0  0  0  0  0  0  0  0  0  0
   -5.1070   23.4530  -31.2650 C   0  0  0  0  0  0  0  0  0  0  0  0
   -4.7440   24.5470  -30.5060 C   0  0  0  0  0  0  0  0  0  0  0  0
   -3.4880   24.9210  -30.4770 N   0  0  0  0  0  0  0  0  0  0  0  0
   -5.6310   25.2580  -29.7850 N   0  0  0  0  0  0  0  0  0  0  0  0
   -6.9100   24.8720  -29.8170 C   0  0  0  0  0  0  0  0  0  0  0  0
   -7.3420   23.8040  -30.5430 N   0  0  0  0  0  0  0  0  0  0  0  0
   -6.4430   23.1060  -31.2570 C   0  0  0  0  0  0  0  0  0  0  0  0
   -7.4118   17.7384  -31.4850 H   0  0  0  0  0  0  0  0  0  0  0  0
   -8.4826   17.5166  -32.9101 H   0  0  0  0  0  0  0  0  0  0  0  0
   -7.2458   18.8192  -32.9101 H   0  0  0  0  0  0  0  0  0  0  0  0
   -9.7192   19.4143  -32.4420 H   0  0  0  0  0  0  0  0  0  0  0  0
   -9.3673   18.7074  -30.7995 H   0  0  0  0  0  0  0  0  0  0  0  0
   -9.0893   21.1304  -30.7534 H   0  0  0  0  0  0  0  0  0  0  0  0
   -7.5010   20.2840  -30.5375 H   0  0  0  0  0  0  0  0  0  0  0  0
   -7.4907   20.5585  -33.1822 H   0  0  0  0  0  0  0  0  0  0  0  0
   -8.5065   22.0025  -32.6990 H   0  0  0  0  0  0  0  0  0  0  0  0
   -5.1034   20.8677  -33.2334 H   0  0  0  0  0  0  0  0  0  0  0  0
   -2.7730   24.3950  -31.0240 H   0  0  0  0  0  0  0  0  0  0  0  0
   -5.3590   26.0790  -29.2150 H   0  0  0  0  0  0  0  0  0  0  0  0
   -7.6461   25.4420  -29.2312 H   0  0  0  0  0  0  0  0  0  0  0  0
  1  2  1  0
  2  3  1  0
  3  4  1  0
  4  5  1  0
  5  6  1  0
  6  7  2  0
  7  8  1  0
  8  9  1  0
  9 10  2  3
  9 11  1  0
 11 12  1  0
 12 13  2  0
 13 14  1  0
 14  5  1  0
 14  8  2  0
  1 15  1  0
  1 16  1  0
  1 17  1  0
  2 18  1  0
  2 19  1  0
  3 20  1  0
  3 21  1  0
  4 22  1  0
  4 23  1  0
  6 24  1  0
 10 25  1  0
 11 26  1  0
 12 27  1  0
M  END
>  <smiles>  (8) 
CCCCn1cnc2c(=N)[nH]cnc21

>  <score_type>  (8) 
oracle

>  <origin>  (8) 
adgpu

>  <m_score__min__energy>  (8) 
-6.04

>  <m_primary>  (8) 
energy

$$$$
8:0
     RDKit          3D

 36 38  0  0  0  0  0  0  0  0999 V2000
   -5.1350   25.6730  -30.2450 H   0  0  0  0  0  0  0  0  0  0  0  0
   -5.8150   25.3240  -30.9540 N   0  0  0  0  0  0  0  0  0  0  0  0
   -5.9030   24.0870  -31.3380 C   0  0  0  0  0  0  0  0  0  0  0  0
   -6.8670   23.7500  -32.2330 N   0  0  0  0  0  0  0  0  0  0  0  0
   -7.0640   22.4670  -32.6310 C   0  0  0  0  0  0  0  0  0  0  0  0
   -7.8470   22.2295  -33.3661 H   0  0  0  0  0  0  0  0  0  0  0  0
   -6.2630   21.4470  -32.0990 C   0  0  0  0  0  0  0  0  0  0  0  0
   -6.4380   20.0220  -32.4850 C   0  0  0  0  0  0  0  0  0  0  0  0
   -7.1550   19.1270  -31.6730 C   0  0  0  0  0  0  0  0  0  0  0  0
   -7.6052   19.4820  -30.7342 H   0  0  0  0  0  0  0  0  0  0  0  0
   -7.3000   17.7910  -32.0490 C   0  0  0  0  0  0  0  0  0  0  0  0
   -7.8674   17.1019  -31.4062 H   0  0  0  0  0  0  0  0  0  0  0  0
   -6.7300   17.3210  -33.2360 C   0  0  0  0  0  0  0  0  0  0  0  0
   -6.8980   15.9790  -33.5780 O   0  0  0  0  0  0  0  0  0  0  0  0
   -6.5060   15.5850  -34.4250 H   0  0  0  0  0  0  0  0  0  0  0  0
   -5.9990   18.1960  -34.0590 C   0  0  0  0  0  0  0  0  0  0  0  0
   -5.4340   17.6960  -35.2430 O   0  0  0  0  0  0  0  0  0  0  0  0
   -4.1450   17.0950  -35.3320 C   0  0  0  0  0  0  0  0  0  0  0  0
   -3.7546   16.9130  -34.3198 H   0  0  0  0  0  0  0  0  0  0  0  0
   -4.2222   16.1400  -35.8724 H   0  0  0  0  0  0  0  0  0  0  0  0
   -3.4631   17.7681  -35.8724 H   0  0  0  0  0  0  0  0  0  0  0  0
   -5.8560   19.5440  -33.6740 C   0  0  0  0  0  0  0  0  0  0  0  0
   -5.2816   20.2322  -34.3115 H   0  0  0  0  0  0  0  0  0  0  0  0
   -5.2820   21.7870  -31.2200 N   0  0  0  0  0  0  0  0  0  0  0  0
   -5.0610   23.0700  -30.8290 C   0  0  0  0  0  0  0  0  0  0  0  0
   -3.9400   23.3300  -29.9000 C   0  0  0  0  0  0  0  0  0  0  0  0
   -3.4410   22.2910  -29.0990 C   0  0  0  0  0  0  0  0  0  0  0  0
   -3.9060   21.2950  -29.1420 H   0  0  0  0  0  0  0  0  0  0  0  0
   -2.3560   22.5160  -28.2470 C   0  0  0  0  0  0  0  0  0  0  0  0
   -1.9772   21.7009  -27.6128 H   0  0  0  0  0  0  0  0  0  0  0  0
   -1.7520   23.7750  -28.2000 C   0  0  0  0  0  0  0  0  0  0  0  0
   -0.9021   23.9520  -27.5244 H   0  0  0  0  0  0  0  0  0  0  0  0
   -2.2270   24.8100  -29.0110 C   0  0  0  0  0  0  0  0  0  0  0  0
   -1.6170   26.0580  -28.9720 O   0  0  0  0  0  0  0  0  0  0  0  0
   -3.3130   24.5880  -29.8640 C   0  0  0  0  0  0  0  0  0  0  0  0
   -3.6780   25.4007  -30.5092 H   0  0  0  0  0  0  0  0  0  0  0  0
  1  2  1  0
  2  3  2  0
  3  4  1  0
  4  5  1  0
  5  6  1  0
  5  7  2  0
  7  8  1  0
  8  9  2  0
  9 10  1  0
  9 11  1  0
 11 12  1  0
 11 13  2  0
 13 14  1  0
 14 15  1  0
 13 16  1  0
 16 17  1  0
 17 18  1  0
 18 19  1  0
 18 20  1  0
 18 21  1  0
 16 22  2  0
 22 23  1  0
  7 24  1  0
 24 25  2  0
 25 26  1  0
 26 27  2  0
 27 28  1  0
 27 29  1  0
 29 30  1  0
 29 31  2  0
 31 32  1  0
 31 33  1  0
 33 34  1  0
 33 35  2  0
 35 36  1  0
 25  3  1  0
 35 26  1  0
 22  8  1  0
M  CHG  2   4  -1  34  -1
M  END
>  <UniqueID>  (9) 
8

>  <SMILES>  (9) 
[H]/N=c1/[n-]cc(-c2ccc(O)c(OC)c2)nc1-c1cccc([O-])c1

>  <Energy>  (9) 
52.594927602462114

>  <Genealogy>  (9) 
COc1cc(-c2c[n-]c(=N)c(-c3cccc([O-])c3)n2)ccc1O (protonated)
[H]/N=c1/[n-]cc(-c2ccc(O)c(OC)c2)nc1-c1cccc([O-])c1 (cis-trans isomerization)
[H]/N=c1/[n-]cc(-c2ccc(O)c(OC)c2)nc1-c1cccc([O-])c1 (3D coordinates assigned)
[H]/N=c1/[n-]cc(-c2ccc(O)c(OC)c2)nc1-c1cccc([O-])c1 (optimized conformer: 52.594927602462114 kcal/mol)

>  <smiles>  (9) 
COc1cc(-c2c[nH]c(=N)c(-c3cccc(O)c3)n2)ccc1O

>  <score_type>  (9) 
oracle

>  <origin>  (9) 
adgpu

>  <m_score__min__energy>  (9) 
-10.529999999999999

>  <m_primary>  (9) 
energy

$$$$
9:0
     RDKit          3D

 45 48  0  0  0  0  0  0  0  0999 V2000
   -6.8140   25.6900  -29.3820 C   0  0  0  0  0  0  0  0  0  0  0  0
   -5.8130   24.6460  -29.7740 C   0  0  0  0  0  0  0  0  0  0  0  0
   -6.1530   23.2870  -29.7070 C   0  0  0  0  0  0  0  0  0  0  0  0
   -5.2120   22.3060  -30.0340 C   0  0  0  0  0  0  0  0  0  0  0  0
   -3.9090   22.6720  -30.4080 C   0  0  0  0  0  0  0  0  0  0  0  0
   -2.9050   21.6490  -30.7660 C   0  0  0  0  0  0  0  0  0  0  0  0
   -2.2050   21.0690  -29.7580 N   0  0  0  0  0  0  0  0  0  0  0  0
   -1.2530   20.1310  -29.9710 C   0  0  0  0  0  0  0  0  0  0  0  0
   -0.5640   19.5950  -28.8780 C   0  0  0  0  0  0  0  0  0  0  0  0
    0.4460   18.6540  -29.0770 C   0  0  0  0  0  0  0  0  0  0  0  0
    0.7840   18.2470  -30.3720 C   0  0  0  0  0  0  0  0  0  0  0  0
    1.8340   17.2950  -30.5720 N   0  0  0  0  0  0  0  0  0  0  0  0
    0.0950   18.7780  -31.4730 C   0  0  0  0  0  0  0  0  0  0  0  0
   -0.9460   19.7140  -31.2870 C   0  0  0  0  0  0  0  0  0  0  0  0
   -1.6800   20.2700  -32.3650 C   0  0  0  0  0  0  0  0  0  0  0  0
   -1.4350   19.8520  -33.7190 N   0  0  0  0  0  0  0  0  0  0  0  0
   -2.6790   21.2370  -32.0990 C   0  0  0  0  0  0  0  0  0  0  0  0
   -3.7160   21.8630  -33.4450 S   0  0  0  0  0  0  0  0  0  0  0  0
   -5.1390   20.8790  -32.9650 C   0  0  0  0  0  0  0  0  0  0  0  0
   -5.0310   19.4870  -32.8500 C   0  0  0  0  0  0  0  0  0  0  0  0
   -6.1390   18.7270  -32.4680 C   0  0  0  0  0  0  0  0  0  0  0  0
   -7.3640   19.3550  -32.2080 C   0  0  0  0  0  0  0  0  0  0  0  0
   -8.7540   18.4000  -31.7290 Cl  0  0  0  0  0  0  0  0  0  0  0  0
   -7.4770   20.7430  -32.3380 C   0  0  0  0  0  0  0  0  0  0  0  0
   -6.3690   21.5030  -32.7220 C   0  0  0  0  0  0  0  0  0  0  0  0
   -3.5730   24.0330  -30.4860 C   0  0  0  0  0  0  0  0  0  0  0  0
   -4.5140   25.0130  -30.1570 C   0  0  0  0  0  0  0  0  0  0  0  0
   -6.8712   25.7496  -28.2851 H   0  0  0  0  0  0  0  0  0  0  0  0
   -6.5045   26.6650  -29.7866 H   0  0  0  0  0  0  0  0  0  0  0  0
   -7.8011   25.4218  -29.7866 H   0  0  0  0  0  0  0  0  0  0  0  0
   -7.1657   22.9913  -29.3954 H   0  0  0  0  0  0  0  0  0  0  0  0
   -5.4935   21.2432  -29.9981 H   0  0  0  0  0  0  0  0  0  0  0  0
   -0.8197   19.9169  -27.8577 H   0  0  0  0  0  0  0  0  0  0  0  0
    0.9786   18.2304  -28.2127 H   0  0  0  0  0  0  0  0  0  0  0  0
    2.6980   17.5540  -31.0980 H   0  0  0  0  0  0  0  0  0  0  0  0
    1.7550   16.3240  -30.1950 H   0  0  0  0  0  0  0  0  0  0  0  0
    0.3683   18.4622  -32.4906 H   0  0  0  0  0  0  0  0  0  0  0  0
   -1.7330   20.4260  -34.5380 H   0  0  0  0  0  0  0  0  0  0  0  0
   -0.8740   19.0010  -33.9340 H   0  0  0  0  0  0  0  0  0  0  0  0
   -4.0718   18.9915  -33.0609 H   0  0  0  0  0  0  0  0  0  0  0  0
   -6.0496   17.6349  -32.3713 H   0  0  0  0  0  0  0  0  0  0  0  0
   -8.4392   21.2370  -32.1377 H   0  0  0  0  0  0  0  0  0  0  0  0
   -6.4631   22.5933  -32.8336 H   0  0  0  0  0  0  0  0  0  0  0  0
   -2.5638   24.3297  -30.8077 H   0  0  0  0  0  0  0  0  0  0  0  0
   -4.2350   26.0762  -30.1985 H   0  0  0  0  0  0  0  0  0  0  0  0
  1  2  1  0
  2  3  2  0
  3  4  1  0
  4  5  2  0
  5  6  1  0
  6  7  2  0
  7  8  1  0
  8  9  2  0
  9 10  1  0
 10 11  2  0
 11 12  1  0
 11 13  1  0
 13 14  2  0
 14 15  1  0
 15 16  1  0
 15 17  2  0
 17 18  1  0
 18 19  1  0
 19 20  2  0
 20 21  1  0
 21 22  2  0
 22 23  1  0
 22 24  1  0
 24 25  2  0
  5 26  1  0
 26 27  2  0
 27  2  1  0
 17  6  1  0
 25 19  1  0
 14  8  1  0
  1 28  1  0
  1 29  1  0
  1 30  1  0
  3 31  1  0
  4 32  1  0
  9 33  1  0
 10 34  1  0
 12 35  1  0
 12 36  1  0
 13 37  1  0
 16 38  1  0
 16 39  1  0
 20 40  1  0
 21 41  1  0
 24 42  1  0
 25 43  1  0
 26 44  1  0
 27 45  1  0
M  END
>  <UniqueID>  (10) 
9

>  <SMILES>  (10) 
Cc1ccc(-c2nc3ccc(N)cc3c(N)c2Sc2ccc(Cl)cc2)cc1

>  <Energy>  (10) 
57.37780823677765

>  <Genealogy>  (10) 
Cc1ccc(-c2nc3ccc(N)cc3c(N)c2Sc2ccc(Cl)cc2)cc1 (3D coordinates assigned)
Cc1ccc(-c2nc3ccc(N)cc3c(N)c2Sc2ccc(Cl)cc2)cc1 (optimized conformer: 57.37780823677765 kcal/mol)

>  <smiles>  (10) 
Cc1ccc(-c2nc3ccc(N)cc3c(N)c2Sc2ccc(Cl)cc2)cc1

>  <score_type>  (10) 
oracle

>  <origin>  (10) 
adgpu

>  <m_score__min__energy>  (10) 
-8.3900000000000006

>  <m_primary>  (10) 
energy

$$$$
10:0
     RDKit          3D

 60 62  0  0  0  0  0  0  0  0999 V2000
   -3.9420   26.2650  -31.2020 H   0  0  0  0  0  0  0  0  0  0  0  0
   -3.8200   25.3020  -30.8150 N   0  0  0  0  0  0  0  0  0  0  0  0
   -5.2640   24.9170  -29.9490 S   0  0  0  0  0  0  0  0  0  0  0  0
   -4.9030   24.3360  -28.6110 O   0  0  0  0  0  0  0  0  0  0  0  0
   -6.0670   26.1690  -29.7290 O   0  0  0  0  0  0  0  0  0  0  0  0
   -6.2130   23.7580  -30.8720 C   0  0  0  0  0  0  0  0  0  0  0  0
   -7.6020   23.9010  -30.9740 C   0  0  0  0  0  0  0  0  0  0  0  0
   -8.1051   24.7420  -30.4745 H   0  0  0  0  0  0  0  0  0  0  0  0
   -8.3500   22.9790  -31.7080 C   0  0  0  0  0  0  0  0  0  0  0  0
   -9.4400   23.1011  -31.7919 H   0  0  0  0  0  0  0  0  0  0  0  0
   -7.7200   21.9010  -32.3370 C   0  0  0  0  0  0  0  0  0  0  0  0
   -8.3151   21.1834  -32.9208 H   0  0  0  0  0  0  0  0  0  0  0  0
   -6.3250   21.7300  -32.2260 C   0  0  0  0  0  0  0  0  0  0  0  0
   -5.6000   20.6110  -32.8780 C   0  0  0  0  0  0  0  0  0  0  0  0
   -4.7673   20.8600  -33.5523 H   0  0  0  0  0  0  0  0  0  0  0  0
   -5.8960   19.3150  -32.6970 C   0  0  0  0  0  0  0  0  0  0  0  0
   -6.7166   19.0481  -32.0148 H   0  0  0  0  0  0  0  0  0  0  0  0
   -5.1560   18.2310  -33.3840 C   0  0  0  0  0  0  0  0  0  0  0  0
   -5.9020   17.1750  -33.9230 C   0  0  0  0  0  0  0  0  0  0  0  0
   -6.9959   17.1663  -33.8072 H   0  0  0  0  0  0  0  0  0  0  0  0
   -5.2900   16.1650  -34.5850 N   0  0  0  0  0  0  0  0  0  0  0  0
   -3.9440   16.1200  -34.7320 C   0  0  0  0  0  0  0  0  0  0  0  0
   -3.4846   15.2867  -35.2838 H   0  0  0  0  0  0  0  0  0  0  0  0
   -3.1310   17.1230  -34.1890 C   0  0  0  0  0  0  0  0  0  0  0  0
   -1.7040   16.9270  -34.2950 C   0  0  0  0  0  0  0  0  0  0  0  0
   -0.5620   16.7590  -34.3830 N   0  0  0  0  0  0  0  0  0  0  0  0
   -3.7420   18.2140  -33.4990 C   0  0  0  0  0  0  0  0  0  0  0  0
   -3.0690   19.1790  -32.9210 N   0  0  0  0  0  0  0  0  0  0  0  0
   -1.6700   19.4710  -32.9840 C   0  0  0  0  0  0  0  0  0  0  0  0
   -0.8750   19.2770  -31.8540 C   0  0  0  0  0  0  0  0  0  0  0  0
   -1.3216   18.8762  -30.9321 H   0  0  0  0  0  0  0  0  0  0  0  0
    0.4910   19.5910  -31.8890 C   0  0  0  0  0  0  0  0  0  0  0  0
    1.3320   19.3970  -30.7390 N   0  0  0  0  0  0  0  0  0  0  0  0
    2.1610   20.0230  -30.6240 H   0  0  0  0  0  0  0  0  0  0  0  0
    1.1770   18.3190  -29.8020 C   0  0  0  0  0  0  0  0  0  0  0  0
    0.4220   17.3440  -30.0630 O   0  0  0  0  0  0  0  0  0  0  0  0
    1.9920   18.3010  -28.5500 C   0  0  0  0  0  0  0  0  0  0  0  0
    1.3231   18.3158  -27.6768 H   0  0  0  0  0  0  0  0  0  0  0  0
    2.6066   17.3891  -28.5257 H   0  0  0  0  0  0  0  0  0  0  0  0
    2.6463   19.1849  -28.5257 H   0  0  0  0  0  0  0  0  0  0  0  0
    1.0360   20.1590  -33.0490 C   0  0  0  0  0  0  0  0  0  0  0  0
    2.1033   20.4247  -33.0671 H   0  0  0  0  0  0  0  0  0  0  0  0
    0.2450   20.3980  -34.1960 C   0  0  0  0  0  0  0  0  0  0  0  0
    0.8930   21.0170  -35.4530 C   0  0  0  0  0  0  0  0  0  0  0  0
    0.2610   22.3980  -35.7290 C   0  0  0  0  0  0  0  0  0  0  0  0
    0.0337   22.8947  -34.7742 H   0  0  0  0  0  0  0  0  0  0  0  0
    0.9661   23.0155  -36.3048 H   0  0  0  0  0  0  0  0  0  0  0  0
   -0.6672   22.2680  -36.3048 H   0  0  0  0  0  0  0  0  0  0  0  0
    2.4210   21.2180  -35.3140 C   0  0  0  0  0  0  0  0  0  0  0  0
    2.6907   21.2535  -34.2482 H   0  0  0  0  0  0  0  0  0  0  0  0
    2.9464   20.3812  -35.7975 H   0  0  0  0  0  0  0  0  0  0  0  0
    2.7121   22.1622  -35.7975 H   0  0  0  0  0  0  0  0  0  0  0  0
    0.6510   20.0900  -36.6650 C   0  0  0  0  0  0  0  0  0  0  0  0
    0.3881   19.0828  -36.3095 H   0  0  0  0  0  0  0  0  0  0  0  0
   -0.1727   20.4905  -37.2742 H   0  0  0  0  0  0  0  0  0  0  0  0
    1.5653   20.0367  -37.2742 H   0  0  0  0  0  0  0  0  0  0  0  0
   -1.1230   20.0480  -34.1360 C   0  0  0  0  0  0  0  0  0  0  0  0
   -1.7678   20.2319  -35.0080 H   0  0  0  0  0  0  0  0  0  0  0  0
   -5.5810   22.6720  -31.4960 C   0  0  0  0  0  0  0  0  0  0  0  0
   -4.4902   22.5567  -31.4127 H   0  0  0  0  0  0  0  0  0  0  0  0
  1  2  1  0
  2  3  1  0
  3  4  2  0
  3  5  2  0
  3  6  1  0
  6  7  2  0
  7  8  1  0
  7  9  1  0
  9 10  1  0
  9 11  2  0
 11 12  1  0
 11 13  1  0
 13 14  1  0
 14 15  1  0
 14 16  2  3
 16 17  1  0
 16 18  1  0
 18 19  2  0
 19 20  1  0
 19 21  1  0
 21 22  1  0
 22 23  1  0
 22 24  2  0
 24 25  1  0
 25 26  3  0
 24 27  1  0
 27 28  2  0
 28 29  1  0
 29 30  2  0
 30 31  1  0
 30 32  1  0
 32 33  1  0
 33 34  1  0
 33 35  1  0
 35 36  2  0
 35 37  1  0
 37 38  1  0
 37 39  1  0
 37 40  1  0
 32 41  2  0
 41 42  1  0
 41 43  1  0
 43 44  1  0
 44 45  1  0
 45 46  1  0
 45 47  1  0
 45 48  1  0
 44 49  1  0
 49 50  1  0
 49 51  1  0
 49 52  1  0
 44 53  1  0
 53 54  1  0
 53 55  1  0
 53 56  1  0
 43 57  2  0
 57 58  1  0
 13 59  2  0
 59 60  1  0
 59  6  1  0
 27 18  1  0
 57 29  1  0
M  CHG  2   2  -1  21  -1
M  END
>  <UniqueID>  (11) 
10

>  <SMILES>  (11) 
CC(=O)Nc1cc(/N=c2\c(C#N)c[n-]cc2C=Cc2cccc(S([NH-])(=O)=O)c2)cc(C(C)(C)C)c1

>  <Energy>  (11) 
87.79572744796786

>  <Genealogy>  (11) 
CC(=O)Nc1cc(N=c2c(C#N)c[n-]cc2C=Cc2cccc(S([NH-])(=O)=O)c2)cc(C(C)(C)C)c1 (protonated)
CC(=O)Nc1cc(/N=c2\c(C#N)c[n-]cc2C=Cc2cccc(S([NH-])(=O)=O)c2)cc(C(C)(C)C)c1 (cis-trans isomerization)
CC(=O)Nc1cc(/N=c2\c(C#N)c[n-]cc2C=Cc2cccc(S([NH-])(=O)=O)c2)cc(C(C)(C)C)c1 (3D coordinates assigned)
CC(=O)Nc1cc(/N=c2\c(C#N)c[n-]cc2C=Cc2cccc(S([NH-])(=O)=O)c2)cc(C(C)(C)C)c1 (optimized conformer: 87.79572744796786 kcal/mol)

>  <smiles>  (11) 
CC(=O)Nc1cc(N=c2c(C#N)c[nH]cc2C=Cc2cccc(S(N)(=O)=O)c2)cc(C(C)(C)C)c1

>  <score_type>  (11) 
oracle

>  <origin>  (11) 
adgpu

>  <m_score__min__energy>  (11) 
-11.99

>  <m_primary>  (11) 
energy

$$$$
11:0
     RDKit          3D

 40 42  0  0  0  0  0  0  0  0999 V2000
    0.1560   25.5750  -23.0690 H   0  0  0  0  0  0  0  0  0  0  0  0
   -0.1680   26.4060  -23.5500 O   0  0  0  0  0  0  0  0  0  0  0  0
   -0.5010   26.3810  -24.9030 C   0  0  0  0  0  0  0  0  0  0  0  0
    0.0170   27.3410  -25.7810 C   0  0  0  0  0  0  0  0  0  0  0  0
    0.7000   28.1175  -25.4060 H   0  0  0  0  0  0  0  0  0  0  0  0
   -0.3330   27.3130  -27.1320 C   0  0  0  0  0  0  0  0  0  0  0  0
    0.0706   28.0731  -27.8171 H   0  0  0  0  0  0  0  0  0  0  0  0
   -1.1940   26.3240  -27.6200 C   0  0  0  0  0  0  0  0  0  0  0  0
   -1.5670   26.3600  -28.9600 O   0  0  0  0  0  0  0  0  0  0  0  0
   -1.6940   25.3300  -26.7480 C   0  0  0  0  0  0  0  0  0  0  0  0
   -2.6040   24.2540  -27.2020 C   0  0  0  0  0  0  0  0  0  0  0  0
   -2.3314   23.2106  -26.9851 H   0  0  0  0  0  0  0  0  0  0  0  0
   -3.7410   24.4910  -27.8630 C   0  0  0  0  0  0  0  0  0  0  0  0
   -4.0455   25.5281  -28.0670 H   0  0  0  0  0  0  0  0  0  0  0  0
   -4.6070   23.3580  -28.3300 C   0  0  0  0  0  0  0  0  0  0  0  0
   -5.2799   23.0571  -27.5135 H   0  0  0  0  0  0  0  0  0  0  0  0
   -3.9622   22.5160  -28.6218 H   0  0  0  0  0  0  0  0  0  0  0  0
   -5.4040   23.7620  -29.4840 N   0  0  0  0  0  0  0  0  0  0  0  0
   -4.9340   24.4340  -30.6500 C   0  0  0  0  0  0  0  0  0  0  0  0
   -3.8720   25.1080  -30.6830 O   0  0  0  0  0  0  0  0  0  0  0  0
   -5.7730   24.2470  -31.7910 N   0  0  0  0  0  0  0  0  0  0  0  0
   -6.7160   23.4460  -31.4040 C   0  0  0  0  0  0  0  0  0  0  0  0
   -7.8520   23.0260  -32.2830 C   0  0  0  0  0  0  0  0  0  0  0  0
   -8.7918   23.4348  -31.8833 H   0  0  0  0  0  0  0  0  0  0  0  0
   -7.6805   23.4079  -33.3002 H   0  0  0  0  0  0  0  0  0  0  0  0
   -7.9420   21.5260  -32.3290 C   0  0  0  0  0  0  0  0  0  0  0  0
   -9.1350   20.8750  -31.9710 C   0  0  0  0  0  0  0  0  0  0  0  0
   -9.9992   21.4634  -31.6290 H   0  0  0  0  0  0  0  0  0  0  0  0
   -9.2270   19.4830  -32.0480 C   0  0  0  0  0  0  0  0  0  0  0  0
  -10.1609   18.9775  -31.7611 H   0  0  0  0  0  0  0  0  0  0  0  0
   -8.1340   18.7320  -32.4890 C   0  0  0  0  0  0  0  0  0  0  0  0
   -8.2075   17.6359  -32.5457 H   0  0  0  0  0  0  0  0  0  0  0  0
   -6.9480   19.3720  -32.8580 C   0  0  0  0  0  0  0  0  0  0  0  0
   -6.0895   18.7798  -33.2076 H   0  0  0  0  0  0  0  0  0  0  0  0
   -6.8520   20.7650  -32.7830 C   0  0  0  0  0  0  0  0  0  0  0  0
   -5.9195   21.2668  -33.0806 H   0  0  0  0  0  0  0  0  0  0  0  0
   -6.5460   23.0960  -29.9990 C   0  0  0  0  0  0  0  0  0  0  0  0
   -7.2680   22.3030  -29.3380 O   0  0  0  0  0  0  0  0  0  0  0  0
   -1.3560   25.3860  -25.3860 C   0  0  0  0  0  0  0  0  0  0  0  0
   -1.7684   24.6390  -24.6919 H   0  0  0  0  0  0  0  0  0  0  0  0
  1  2  1  0
  2  3  1  0
  3  4  2  0
  4  5  1  0
  4  6  1  0
  6  7  1  0
  6  8  2  0
  8  9  1  0
  8 10  1  0
 10 11  1  0
 11 12  1  0
 11 13  2  0
 13 14  1  0
 13 15  1  0
 15 16  1  0
 15 17  1  0
 15 18  1  0
 18 19  1  0
 19 20  2  0
 19 21  1  0
 21 22  2  0
 22 23  1  0
 23 24  1  0
 23 25  1  0
 23 26  1  0
 26 27  2  0
 27 28  1  0
 27 29  1  0
 29 30  1  0
 29 31  2  0
 31 32  1  0
 31 33  1  0
 33 34  1  0
 33 35  2  0
 35 36  1  0
 22 37  1  0
 37 38  2  0
 10 39  2  0
 39 40  1  0
 39  3  1  0
 37 18  1  0
 35 26  1  0
M  CHG  1   9  -1
M  END
>  <UniqueID>  (12) 
11

>  <SMILES>  (12) 
O=C1N=C(Cc2ccccc2)C(=O)N1C/C=C/c1cc(O)ccc1[O-]

>  <Energy>  (12) 
70.83621528349647

>  <Genealogy>  (12) 
O=C1N=C(Cc2ccccc2)C(=O)N1CC=Cc1cc(O)ccc1[O-] (protonated)
O=C1N=C(Cc2ccccc2)C(=O)N1C/C=C/c1cc(O)ccc1[O-] (cis-trans isomerization)
O=C1N=C(Cc2ccccc2)C(=O)N1C/C=C/c1cc(O)ccc1[O-] (3D coordinates assigned)
O=C1N=C(Cc2ccccc2)C(=O)N1C/C=C/c1cc(O)ccc1[O-] (nonaromatic ring conformer: 70.83621528349647 kcal/mol)

>  <smiles>  (12) 
O=C1N=C(Cc2ccccc2)C(=O)N1CC=Cc1cc(O)ccc1O

>  <score_type>  (12) 
oracle

>  <origin>  (12) 
adgpu

>  <m_score__min__energy>  (12) 
-12.699999999999999

>  <m_primary>  (12) 
energy

$$$$
12:0
     RDKit          3D

 40 42  0  0  0  0  0  0  0  0999 V2000
   -2.9120   20.7990  -29.4280 C   0  0  0  0  0  0  0  0  0  0  0  0
   -2.8100   20.6330  -30.9160 C   0  0  0  0  0  0  0  0  0  0  0  0
   -1.6220   20.9660  -31.5820 C   0  0  0  0  0  0  0  0  0  0  0  0
   -1.5390   20.8670  -32.9790 C   0  0  0  0  0  0  0  0  0  0  0  0
   -0.2560   21.1920  -33.6850 C   0  0  0  0  0  0  0  0  0  0  0  0
   -2.6470   20.4100  -33.7070 C   0  0  0  0  0  0  0  0  0  0  0  0
   -3.8430   20.0810  -33.0510 C   0  0  0  0  0  0  0  0  0  0  0  0
   -5.0520   19.6670  -33.8450 C   0  0  0  0  0  0  0  0  0  0  0  0
   -6.2940   19.8710  -33.0230 C   0  0  0  0  0  0  0  0  0  0  0  0
   -7.1610   18.8000  -32.7740 C   0  0  0  0  0  0  0  0  0  0  0  0
   -8.2640   19.0120  -31.9470 C   0  0  0  0  0  0  0  0  0  0  0  0
   -9.0670   18.0730  -31.7080 O   0  0  0  0  0  0  0  0  0  0  0  0
   -8.4680   20.2340  -31.3920 N   0  0  0  0  0  0  0  0  0  0  0  0
   -7.6140   21.2620  -31.6300 C   0  0  0  0  0  0  0  0  0  0  0  0
   -7.8940   22.8470  -30.8390 S   0  0  0  0  0  0  0  0  0  0  0  0
   -6.8870   23.7910  -32.0360 C   0  0  0  0  0  0  0  0  0  0  0  0
   -5.5290   24.0820  -31.4820 C   0  0  0  0  0  0  0  0  0  0  0  0
   -5.1290   25.2560  -30.8910 C   0  0  0  0  0  0  0  0  0  0  0  0
   -3.8600   25.1200  -30.4720 N   0  0  0  0  0  0  0  0  0  0  0  0
   -3.5310   23.8570  -30.8200 C   0  0  0  0  0  0  0  0  0  0  0  0
   -4.5270   23.1880  -31.4360 N   0  0  0  0  0  0  0  0  0  0  0  0
   -6.5380   21.0820  -32.4430 N   0  0  0  0  0  0  0  0  0  0  0  0
   -3.9250   20.2150  -31.6570 C   0  0  0  0  0  0  0  0  0  0  0  0
   -2.3986   19.9634  -28.9298 H   0  0  0  0  0  0  0  0  0  0  0  0
   -2.4409   21.7478  -29.1318 H   0  0  0  0  0  0  0  0  0  0  0  0
   -3.9713   20.8074  -29.1318 H   0  0  0  0  0  0  0  0  0  0  0  0
   -0.7495   21.3071  -31.0055 H   0  0  0  0  0  0  0  0  0  0  0  0
    0.5308   21.3913  -32.9425 H   0  0  0  0  0  0  0  0  0  0  0  0
    0.0416   20.3409  -34.3151 H   0  0  0  0  0  0  0  0  0  0  0  0
   -0.3995   22.0822  -34.3151 H   0  0  0  0  0  0  0  0  0  0  0  0
   -2.5781   20.3087  -34.8002 H   0  0  0  0  0  0  0  0  0  0  0  0
   -5.1148   20.2757  -34.7591 H   0  0  0  0  0  0  0  0  0  0  0  0
   -4.9642   18.6039  -34.1135 H   0  0  0  0  0  0  0  0  0  0  0  0
   -6.9761   17.8122  -33.2212 H   0  0  0  0  0  0  0  0  0  0  0  0
   -6.7803   23.2027  -32.9593 H   0  0  0  0  0  0  0  0  0  0  0  0
   -7.3927   24.7455  -32.2435 H   0  0  0  0  0  0  0  0  0  0  0  0
   -5.7467   26.1593  -30.7792 H   0  0  0  0  0  0  0  0  0  0  0  0
   -2.5435   23.4156  -30.6198 H   0  0  0  0  0  0  0  0  0  0  0  0
   -5.8830   21.8800  -32.6070 H   0  0  0  0  0  0  0  0  0  0  0  0
   -4.8705   19.9907  -31.1415 H   0  0  0  0  0  0  0  0  0  0  0  0
  1  2  1  0
  2  3  2  0
  3  4  1  0
  4  5  1  0
  4  6  2  0
  6  7  1  0
  7  8  1  0
  8  9  1  0
  9 10  2  0
 10 11  1  0
 11 12  2  0
 11 13  1  0
 13 14  2  0
 14 15  1  0
 15 16  1  0
 16 17  1  0
 17 18  2  0
 18 19  1  0
 19 20  1  0
 20 21  2  0
 14 22  1  0
  7 23  2  0
 23  2  1  0
 22  9  1  0
 21 17  1  0
  1 24  1  0
  1 25  1  0
  1 26  1  0
  3 27  1  0
  5 28  1  0
  5 29  1  0
  5 30  1  0
  6 31  1  0
  8 32  1  0
  8 33  1  0
 10 34  1  0
 16 35  1  0
 16 36  1  0
 18 37  1  0
 20 38  1  0
 22 39  1  0
 23 40  1  0
M  CHG  1  19  -1
M  END
>  <UniqueID>  (13) 
12

>  <SMILES>  (13) 
Cc1cc(C)cc(Cc2cc(=O)nc(SCc3c[n-]cn3)[nH]2)c1

>  <Energy>  (13) 
60.908915619692564

>  <Genealogy>  (13) 
Cc1cc(C)cc(Cc2cc(=O)nc(SCc3c[n-]cn3)[nH]2)c1 (protonated)
Cc1cc(C)cc(Cc2cc(=O)nc(SCc3c[n-]cn3)[nH]2)c1 (3D coordinates assigned)
Cc1cc(C)cc(Cc2cc(=O)nc(SCc3c[n-]cn3)[nH]2)c1 (optimized conformer: 60.908915619692564 kcal/mol)

>  <smiles>  (13) 
Cc1cc(C)cc(Cc2cc(=O)nc(SCc3c[nH]cn3)[nH]2)c1

>  <score_type>  (13) 
oracle

>  <origin>  (13) 
adgpu

>  <m_score__min__energy>  (13) 
-9.0600000000000005

>  <m_primary>  (13) 
energy

$$$$
13:0
     RDKit          3D

 65 69  0  0  0  0  0  0  0  0999 V2000
    0.3778   31.4847  -27.5636 H   0  0  0  0  0  0  0  0  0  0  0  0
    0.0470   30.6260  -26.9610 C   0  0  0  0  0  0  0  0  0  0  0  0
   -0.0770   29.4010  -27.5350 N   0  0  0  0  0  0  0  0  0  0  0  0
   -0.4850   28.3060  -26.8360 C   0  0  0  0  0  0  0  0  0  0  0  0
   -0.6030   27.1760  -27.4730 N   0  0  0  0  0  0  0  0  0  0  0  0
   -1.1380   25.6620  -26.8110 S   0  0  0  0  0  0  0  0  0  0  0  0
   -0.2020   25.2520  -25.7110 O   0  0  0  0  0  0  0  0  0  0  0  0
   -2.5160   25.8280  -26.2360 O   0  0  0  0  0  0  0  0  0  0  0  0
   -1.1190   24.4190  -28.0600 C   0  0  0  0  0  0  0  0  0  0  0  0
   -0.1210   23.4340  -28.0750 C   0  0  0  0  0  0  0  0  0  0  0  0
    0.6783   23.4508  -27.3195 H   0  0  0  0  0  0  0  0  0  0  0  0
   -0.1400   22.4300  -29.0490 C   0  0  0  0  0  0  0  0  0  0  0  0
    0.6421   21.6565  -29.0523 H   0  0  0  0  0  0  0  0  0  0  0  0
   -1.1490   22.4040  -30.0200 C   0  0  0  0  0  0  0  0  0  0  0  0
   -1.1600   21.3400  -30.9800 N   0  0  0  0  0  0  0  0  0  0  0  0
   -0.7350   21.4960  -32.1680 N   0  0  0  0  0  0  0  0  0  0  0  0
   -0.7810   20.4330  -33.1220 C   0  0  0  0  0  0  0  0  0  0  0  0
   -0.2950   20.4640  -34.4150 C   0  0  0  0  0  0  0  0  0  0  0  0
    0.3730   21.6160  -35.0860 C   0  0  0  0  0  0  0  0  0  0  0  0
    0.7714   22.3030  -34.3248 H   0  0  0  0  0  0  0  0  0  0  0  0
    1.1972   21.2469  -35.7141 H   0  0  0  0  0  0  0  0  0  0  0  0
   -0.3568   22.1479  -35.7141 H   0  0  0  0  0  0  0  0  0  0  0  0
   -0.6200   19.3050  -35.0260 N   0  0  0  0  0  0  0  0  0  0  0  0
   -0.3920   19.0480  -36.0120 H   0  0  0  0  0  0  0  0  0  0  0  0
   -1.2820   18.5330  -34.1690 N   0  0  0  0  0  0  0  0  0  0  0  0
   -1.8170   17.2350  -34.4910 C   0  0  0  0  0  0  0  0  0  0  0  0
   -2.9810   17.1080  -35.2700 C   0  0  0  0  0  0  0  0  0  0  0  0
   -3.5002   18.0093  -35.6280 H   0  0  0  0  0  0  0  0  0  0  0  0
   -3.4820   15.8440  -35.5920 C   0  0  0  0  0  0  0  0  0  0  0  0
   -4.3925   15.7547  -36.2027 H   0  0  0  0  0  0  0  0  0  0  0  0
   -2.8290   14.6900  -35.1400 C   0  0  0  0  0  0  0  0  0  0  0  0
   -3.3940   13.0910  -35.6160 S   0  0  0  0  0  0  0  0  0  0  0  0
   -2.4260   12.0350  -35.1620 O   0  0  0  0  0  0  0  0  0  0  0  0
   -3.4970   13.0300  -37.1120 O   0  0  0  0  0  0  0  0  0  0  0  0
   -4.9580   12.7830  -34.9150 N   0  0  0  0  0  0  0  0  0  0  0  0
   -4.9920   13.1690  -33.5010 C   0  0  0  0  0  0  0  0  0  0  0  0
   -5.6989   12.5216  -32.9614 H   0  0  0  0  0  0  0  0  0  0  0  0
   -3.9873   13.0580  -33.0672 H   0  0  0  0  0  0  0  0  0  0  0  0
   -5.4330   14.6010  -33.3810 C   0  0  0  0  0  0  0  0  0  0  0  0
   -4.8850   15.4230  -32.3830 C   0  0  0  0  0  0  0  0  0  0  0  0
   -4.1164   15.0227  -31.7055 H   0  0  0  0  0  0  0  0  0  0  0  0
   -5.3110   16.7470  -32.2460 C   0  0  0  0  0  0  0  0  0  0  0  0
   -4.8690   17.3895  -31.4702 H   0  0  0  0  0  0  0  0  0  0  0  0
   -6.2990   17.2550  -33.0950 C   0  0  0  0  0  0  0  0  0  0  0  0
   -6.6349   18.2968  -32.9860 H   0  0  0  0  0  0  0  0  0  0  0  0
   -6.8600   16.4400  -34.0820 C   0  0  0  0  0  0  0  0  0  0  0  0
   -7.6407   16.8397  -34.7459 H   0  0  0  0  0  0  0  0  0  0  0  0
   -6.4300   15.1160  -34.2270 C   0  0  0  0  0  0  0  0  0  0  0  0
   -6.8734   14.4771  -35.0049 H   0  0  0  0  0  0  0  0  0  0  0  0
   -1.6790   14.8110  -34.3510 C   0  0  0  0  0  0  0  0  0  0  0  0
   -1.1676   13.9080  -33.9861 H   0  0  0  0  0  0  0  0  0  0  0  0
   -1.1780   16.0740  -34.0250 C   0  0  0  0  0  0  0  0  0  0  0  0
   -0.2773   16.1597  -33.3994 H   0  0  0  0  0  0  0  0  0  0  0  0
   -1.3960   19.2020  -33.0010 C   0  0  0  0  0  0  0  0  0  0  0  0
   -2.0100   18.7780  -31.9870 O   0  0  0  0  0  0  0  0  0  0  0  0
   -2.1400   23.4010  -30.0130 C   0  0  0  0  0  0  0  0  0  0  0  0
   -2.9300   23.3948  -30.7785 H   0  0  0  0  0  0  0  0  0  0  0  0
   -2.1240   24.4010  -29.0350 C   0  0  0  0  0  0  0  0  0  0  0  0
   -2.9041   25.1765  -29.0318 H   0  0  0  0  0  0  0  0  0  0  0  0
   -0.7770   28.4420  -25.4620 C   0  0  0  0  0  0  0  0  0  0  0  0
   -1.0954   27.5693  -24.8729 H   0  0  0  0  0  0  0  0  0  0  0  0
   -0.6580   29.6940  -24.8580 C   0  0  0  0  0  0  0  0  0  0  0  0
   -0.8901   29.8129  -23.7894 H   0  0  0  0  0  0  0  0  0  0  0  0
   -0.2450   30.7950  -25.6080 C   0  0  0  0  0  0  0  0  0  0  0  0
   -0.1507   31.7849  -25.1378 H   0  0  0  0  0  0  0  0  0  0  0  0
  1  2  1  0
  2  3  1  0
  3  4  1  0
  4  5  2  3
  5  6  1  0
  6  7  2  0
  6  8  2  0
  6  9  1  0
  9 10  2  0
 10 11  1  0
 10 12  1  0
 12 13  1  0
 12 14  2  0
 14 15  1  0
 15 16  2  0
 16 17  1  0
 17 18  2  0
 18 19  1  0
 19 20  1  0
 19 21  1  0
 19 22  1  0
 18 23  1  0
 23 24  1  0
 23 25  1  0
 25 26  1  0
 26 27  2  0
 27 28  1  0
 27 29  1  0
 29 30  1  0
 29 31  2  0
 31 32  1  0
 32 33  2  0
 32 34  2  0
 32 35  1  0
 35 36  1  0
 36 37  1  0
 36 38  1  0
 36 39  1  0
 39 40  2  0
 40 41  1  0
 40 42  1  0
 42 43  1  0
 42 44  2  0
 44 45  1  0
 44 46  1  0
 46 47  1  0
 46 48  2  0
 48 49  1  0
 31 50  1  0
 50 51  1  0
 50 52  2  0
 52 53  1  0
 25 54  1  0
 54 55  2  0
 14 56  1  0
 56 57  1  0
 56 58  2  0
 58 59  1  0
  4 60  1  0
 60 61  1  0
 60 62  2  0
 62 63  1  0
 62 64  1  0
 64 65  1  0
 64  2  2  0
 58  9  1  0
 54 17  1  0
 52 26  1  0
 48 39  1  0
M  CHG  2   3  -1  35  -1
M  END
>  <UniqueID>  (14) 
13

>  <SMILES>  (14) 
Cc1[nH]n(-c2ccc(S(=O)(=O)[N-]Cc3ccccc3)cc2)c(=O)c1/N=N/c1ccc(S(=O)(=O)N=c2cccc[n-]2)cc1

>  <Energy>  (14) 
113.67012519100398

>  <Genealogy>  (14) 
Cc1[nH]n(-c2ccc(S(=O)(=O)[N-]Cc3ccccc3)cc2)c(=O)c1N=Nc1ccc(S(=O)(=O)N=c2cccc[n-]2)cc1 (protonated)
Cc1[nH]n(-c2ccc(S(=O)(=O)[N-]Cc3ccccc3)cc2)c(=O)c1/N=N/c1ccc(S(=O)(=O)N=c2cccc[n-]2)cc1 (cis-trans isomerization)
Cc1[nH]n(-c2ccc(S(=O)(=O)[N-]Cc3ccccc3)cc2)c(=O)c1/N=N/c1ccc(S(=O)(=O)N=c2cccc[n-]2)cc1 (3D coordinates assigned)
Cc1[nH]n(-c2ccc(S(=O)(=O)[N-]Cc3ccccc3)cc2)c(=O)c1/N=N/c1ccc(S(=O)(=O)N=c2cccc[n-]2)cc1 (optimized conformer: 113.67012519100398 kcal/mol)

>  <smiles>  (14) 
Cc1[nH]n(-c2ccc(S(=O)(=O)NCc3ccccc3)cc2)c(=O)c1N=Nc1ccc(S(=O)(=O)N=c2cccc[nH]2)cc1

>  <score_type>  (14) 
oracle

>  <origin>  (14) 
adgpu

>  <m_score__min__energy>  (14) 
-8.0999999999999996

>  <m_primary>  (14) 
energy

$$$$
14:0
     RDKit          3D

 39 41  0  0  0  0  0  0  0  0999 V2000
   -5.1770   20.5720  -30.4740 H   0  0  0  0  0  0  0  0  0  0  0  0
   -4.1880   20.7130  -30.3120 O   0  0  0  0  0  0  0  0  0  0  0  0
   -3.6220   21.9630  -30.0340 C   0  0  0  0  0  0  0  0  0  0  0  0
   -4.2350   23.1590  -30.4770 C   0  0  0  0  0  0  0  0  0  0  0  0
   -5.5420   23.1210  -31.1740 C   0  0  0  0  0  0  0  0  0  0  0  0
   -6.3329   23.7997  -30.8219 H   0  0  0  0  0  0  0  0  0  0  0  0
   -5.8230   22.3120  -32.2070 C   0  0  0  0  0  0  0  0  0  0  0  0
   -6.8177   22.4009  -32.6681 H   0  0  0  0  0  0  0  0  0  0  0  0
   -4.8920   21.3080  -32.7720 C   0  0  0  0  0  0  0  0  0  0  0  0
   -3.6100   21.7150  -33.1690 C   0  0  0  0  0  0  0  0  0  0  0  0
   -3.3105   22.7672  -33.0545 H   0  0  0  0  0  0  0  0  0  0  0  0
   -2.7110   20.7920  -33.7090 C   0  0  0  0  0  0  0  0  0  0  0  0
   -1.7029   21.1202  -34.0024 H   0  0  0  0  0  0  0  0  0  0  0  0
   -3.0820   19.4530  -33.8800 C   0  0  0  0  0  0  0  0  0  0  0  0
   -2.1410   18.5640  -34.4200 O   0  0  0  0  0  0  0  0  0  0  0  0
   -1.2890   17.7270  -33.6430 C   0  0  0  0  0  0  0  0  0  0  0  0
   -1.4732   17.9079  -32.5737 H   0  0  0  0  0  0  0  0  0  0  0  0
   -1.4974   16.6727  -33.8777 H   0  0  0  0  0  0  0  0  0  0  0  0
   -0.2386   17.9541  -33.8777 H   0  0  0  0  0  0  0  0  0  0  0  0
   -4.3790   19.0470  -33.5110 C   0  0  0  0  0  0  0  0  0  0  0  0
   -4.6850   17.9992  -33.6474 H   0  0  0  0  0  0  0  0  0  0  0  0
   -5.2790   19.9710  -32.9720 C   0  0  0  0  0  0  0  0  0  0  0  0
   -6.2961   19.6502  -32.7027 H   0  0  0  0  0  0  0  0  0  0  0  0
   -3.5960   24.4010  -30.2580 C   0  0  0  0  0  0  0  0  0  0  0  0
   -4.1920   25.6290  -30.7110 N   0  0  0  0  0  0  0  0  0  0  0  0
   -3.8640   26.5540  -30.3550 H   0  0  0  0  0  0  0  0  0  0  0  0
   -4.9770   25.6450  -31.3970 H   0  0  0  0  0  0  0  0  0  0  0  0
   -2.3790   24.4460  -29.5560 C   0  0  0  0  0  0  0  0  0  0  0  0
   -1.7580   25.6740  -29.3330 O   0  0  0  0  0  0  0  0  0  0  0  0
   -1.7880   23.2650  -29.0740 C   0  0  0  0  0  0  0  0  0  0  0  0
   -0.5780   23.3060  -28.3560 C   0  0  0  0  0  0  0  0  0  0  0  0
   -0.0886   24.2724  -28.1647 H   0  0  0  0  0  0  0  0  0  0  0  0
    0.0050   22.1280  -27.8850 C   0  0  0  0  0  0  0  0  0  0  0  0
    0.9510   22.1701  -27.3252 H   0  0  0  0  0  0  0  0  0  0  0  0
   -0.6080   20.8990  -28.1220 C   0  0  0  0  0  0  0  0  0  0  0  0
   -0.1446   19.9738  -27.7488 H   0  0  0  0  0  0  0  0  0  0  0  0
   -1.8090   20.8390  -28.8320 C   0  0  0  0  0  0  0  0  0  0  0  0
   -2.2862   19.8652  -29.0164 H   0  0  0  0  0  0  0  0  0  0  0  0
   -2.4140   22.0170  -29.3140 C   0  0  0  0  0  0  0  0  0  0  0  0
  1  2  1  0
  2  3  1  0
  3  4  2  0
  4  5  1  0
  5  6  1  0
  5  7  2  0
  7  8  1  0
  7  9  1  0
  9 10  2  0
 10 11  1  0
 10 12  1  0
 12 13  1  0
 12 14  2  0
 14 15  1  0
 15 16  1  0
 16 17  1  0
 16 18  1  0
 16 19  1  0
 14 20  1  0
 20 21  1  0
 20 22  2  0
 22 23  1  0
  4 24  1  0
 24 25  1  0
 25 26  1  0
 25 27  1  0
 24 28  2  0
 28 29  1  0
 28 30  1  0
 30 31  2  0
 31 32  1  0
 31 33  1  0
 33 34  1  0
 33 35  2  0
 35 36  1  0
 35 37  1  0
 37 38  1  0
 37 39  2  0
 39  3  1  0
 22  9  1  0
 39 30  1  0
M  CHG  1  29  -1
M  END
>  <UniqueID>  (15) 
14

>  <SMILES>  (15) 
COc1ccc(/C=C\c2c(N)c([O-])c3ccccc3c2O)cc1

>  <Energy>  (15) 
59.319871049249286

>  <Genealogy>  (15) 
COc1ccc(C=Cc2c(N)c([O-])c3ccccc3c2O)cc1 (protonated)
COc1ccc(/C=C\c2c(N)c([O-])c3ccccc3c2O)cc1 (cis-trans isomerization)
COc1ccc(/C=C\c2c(N)c([O-])c3ccccc3c2O)cc1 (3D coordinates assigned)
COc1ccc(/C=C\c2c(N)c([O-])c3ccccc3c2O)cc1 (optimized conformer: 59.319871049249286 kcal/mol)

>  <smiles>  (15) 
COc1ccc(C=Cc2c(N)c(O)c3ccccc3c2O)cc1

>  <score_type>  (15) 
oracle

>  <origin>  (15) 
adgpu

>  <m_score__min__energy>  (15) 
-9.8300000000000001

>  <m_primary>  (15) 
energy

$$$$
15:0
     RDKit          3D

 43 45  0  0  0  0  0  0  0  0999 V2000
    2.7453   27.1759  -35.5109 H   0  0  0  0  0  0  0  0  0  0  0  0
    2.0050   26.3880  -35.7140 C   0  0  0  0  0  0  0  0  0  0  0  0
    2.2870   25.0950  -35.4020 N   0  0  0  0  0  0  0  0  0  0  0  0
    1.4060   24.0830  -35.6300 C   0  0  0  0  0  0  0  0  0  0  0  0
    1.7570   22.8730  -35.3030 N   0  0  0  0  0  0  0  0  0  0  0  0
    0.8040   21.4310  -35.4900 S   0  0  0  0  0  0  0  0  0  0  0  0
   -0.3040   21.6930  -36.4720 O   0  0  0  0  0  0  0  0  0  0  0  0
    1.6770   20.3320  -36.0270 O   0  0  0  0  0  0  0  0  0  0  0  0
    0.1600   20.9320  -33.9310 C   0  0  0  0  0  0  0  0  0  0  0  0
    1.0220   20.6030  -32.8750 C   0  0  0  0  0  0  0  0  0  0  0  0
    2.1111   20.6685  -33.0148 H   0  0  0  0  0  0  0  0  0  0  0  0
    0.5000   20.1920  -31.6450 C   0  0  0  0  0  0  0  0  0  0  0  0
    1.1795   19.9507  -30.8143 H   0  0  0  0  0  0  0  0  0  0  0  0
   -0.8900   20.0860  -31.4660 C   0  0  0  0  0  0  0  0  0  0  0  0
   -1.4510   19.6770  -30.2080 N   0  0  0  0  0  0  0  0  0  0  0  0
   -2.2660   20.3620  -29.4980 N   0  0  0  0  0  0  0  0  0  0  0  0
   -2.6470   21.7250  -29.7420 C   0  0  0  0  0  0  0  0  0  0  0  0
   -3.7730   21.9860  -30.5290 C   0  0  0  0  0  0  0  0  0  0  0  0
   -4.3414   21.1492  -30.9610 H   0  0  0  0  0  0  0  0  0  0  0  0
   -4.1850   23.3050  -30.7730 C   0  0  0  0  0  0  0  0  0  0  0  0
   -5.3760   23.5760  -31.6480 C   0  0  0  0  0  0  0  0  0  0  0  0
   -6.2555   23.7761  -31.0184 H   0  0  0  0  0  0  0  0  0  0  0  0
   -5.1729   24.4509  -32.2831 H   0  0  0  0  0  0  0  0  0  0  0  0
   -5.5715   22.6994  -32.2831 H   0  0  0  0  0  0  0  0  0  0  0  0
   -3.4660   24.3720  -30.2050 C   0  0  0  0  0  0  0  0  0  0  0  0
   -3.8560   25.6850  -30.4570 O   0  0  0  0  0  0  0  0  0  0  0  0
   -2.3570   24.1180  -29.3800 C   0  0  0  0  0  0  0  0  0  0  0  0
   -1.5910   25.2550  -28.7660 C   0  0  0  0  0  0  0  0  0  0  0  0
   -1.6409   25.1810  -27.6696 H   0  0  0  0  0  0  0  0  0  0  0  0
   -0.5407   25.2065  -29.0894 H   0  0  0  0  0  0  0  0  0  0  0  0
   -2.0305   26.2101  -29.0894 H   0  0  0  0  0  0  0  0  0  0  0  0
   -1.9610   22.7930  -29.1410 C   0  0  0  0  0  0  0  0  0  0  0  0
   -1.1071   22.5895  -28.4781 H   0  0  0  0  0  0  0  0  0  0  0  0
   -1.7480   20.4560  -32.5080 C   0  0  0  0  0  0  0  0  0  0  0  0
   -2.8373   20.4242  -32.3581 H   0  0  0  0  0  0  0  0  0  0  0  0
   -1.2260   20.8660  -33.7390 C   0  0  0  0  0  0  0  0  0  0  0  0
   -1.9064   21.1377  -34.5595 H   0  0  0  0  0  0  0  0  0  0  0  0
    0.1550   24.3820  -36.2110 C   0  0  0  0  0  0  0  0  0  0  0  0
   -0.5743   23.5810  -36.4021 H   0  0  0  0  0  0  0  0  0  0  0  0
   -0.1480   25.7050  -36.5410 C   0  0  0  0  0  0  0  0  0  0  0  0
   -1.1182   25.9490  -36.9983 H   0  0  0  0  0  0  0  0  0  0  0  0
    0.7790   26.7170  -36.2910 C   0  0  0  0  0  0  0  0  0  0  0  0
    0.5457   27.7613  -36.5458 H   0  0  0  0  0  0  0  0  0  0  0  0
  1  2  1  0
  2  3  1  0
  3  4  1  0
  4  5  2  0
  5  6  1  0
  6  7  2  0
  6  8  2  0
  6  9  1  0
  9 10  2  0
 10 11  1  0
 10 12  1  0
 12 13  1  0
 12 14  2  0
 14 15  1  0
 15 16  2  3
 16 17  1  0
 17 18  2  0
 18 19  1  0
 18 20  1  0
 20 21  1  0
 21 22  1  0
 21 23  1  0
 21 24  1  0
 20 25  2  0
 25 26  1  0
 25 27  1  0
 27 28  1  0
 28 29  1  0
 28 30  1  0
 28 31  1  0
 27 32  2  0
 32 33  1  0
 14 34  1  0
 34 35  1  0
 34 36  2  0
 36 37  1  0
  4 38  1  0
 38 39  1  0
 38 40  2  0
 40 41  1  0
 40 42  1  0
 42 43  1  0
 42  2  2  0
 36  9  1  0
 32 17  1  0
M  CHG  2   3  -1  26  -1
M  END
>  <UniqueID>  (16) 
15

>  <SMILES>  (16) 
Cc1cc(N=Nc2ccc(S(=O)(=O)/N=c3\cccc[n-]3)cc2)cc(C)c1[O-]

>  <Energy>  (16) 
62.909483288150554

>  <Genealogy>  (16) 
Cc1cc(N=Nc2ccc(S(=O)(=O)N=c3cccc[n-]3)cc2)cc(C)c1[O-] (protonated)
Cc1cc(N=Nc2ccc(S(=O)(=O)/N=c3\cccc[n-]3)cc2)cc(C)c1[O-] (cis-trans isomerization)
Cc1cc(N=Nc2ccc(S(=O)(=O)/N=c3\cccc[n-]3)cc2)cc(C)c1[O-] (3D coordinates assigned)
Cc1cc(N=Nc2ccc(S(=O)(=O)/N=c3\cccc[n-]3)cc2)cc(C)c1[O-] (optimized conformer: 62.909483288150554 kcal/mol)

>  <smiles>  (16) 
Cc1cc(N=Nc2ccc(S(=O)(=O)N=c3cccc[nH]3)cc2)cc(C)c1O

>  <score_type>  (16) 
oracle

>  <origin>  (16) 
adgpu

>  <m_score__min__energy>  (16) 
-11.029999999999999

>  <m_primary>  (16) 
energy

$$$$
16:0
     RDKit          3D

 55 57  0  0  0  0  0  0  0  0999 V2000
   -6.4138   23.6296  -30.0852 H   0  0  0  0  0  0  0  0  0  0  0  0
   -5.9680   22.9640  -30.8390 C   0  0  0  0  0  0  0  0  0  0  0  0
   -4.6360   23.1400  -31.2130 C   0  0  0  0  0  0  0  0  0  0  0  0
   -3.8710   24.2110  -30.6460 N   0  0  0  0  0  0  0  0  0  0  0  0
   -2.9570   24.1350  -29.7120 C   0  0  0  0  0  0  0  0  0  0  0  0
   -2.3790   25.2950  -29.3100 N   0  0  0  0  0  0  0  0  0  0  0  0
   -1.4190   25.3350  -28.3530 C   0  0  0  0  0  0  0  0  0  0  0  0
   -0.8570   26.5550  -27.9700 C   0  0  0  0  0  0  0  0  0  0  0  0
   -1.1955   27.4874  -28.4454 H   0  0  0  0  0  0  0  0  0  0  0  0
    0.1420   26.5960  -26.9770 C   0  0  0  0  0  0  0  0  0  0  0  0
    0.7310   27.8010  -26.5630 O   0  0  0  0  0  0  0  0  0  0  0  0
    0.0170   28.8960  -25.9980 C   0  0  0  0  0  0  0  0  0  0  0  0
    0.0579   28.8333  -24.9006 H   0  0  0  0  0  0  0  0  0  0  0  0
    0.4731   29.8408  -26.3285 H   0  0  0  0  0  0  0  0  0  0  0  0
   -1.0315   28.8597  -26.3285 H   0  0  0  0  0  0  0  0  0  0  0  0
    0.5720   25.4020  -26.3730 C   0  0  0  0  0  0  0  0  0  0  0  0
    1.5720   25.4760  -25.3900 O   0  0  0  0  0  0  0  0  0  0  0  0
    1.3960   26.0530  -24.1010 C   0  0  0  0  0  0  0  0  0  0  0  0
    1.6247   25.3032  -23.3293 H   0  0  0  0  0  0  0  0  0  0  0  0
    2.0727   26.9129  -23.9887 H   0  0  0  0  0  0  0  0  0  0  0  0
    0.3546   26.3888  -23.9887 H   0  0  0  0  0  0  0  0  0  0  0  0
   -0.0020   24.1750  -26.7640 C   0  0  0  0  0  0  0  0  0  0  0  0
    0.3320   23.2397  -26.2911 H   0  0  0  0  0  0  0  0  0  0  0  0
   -0.9970   24.1400  -27.7530 C   0  0  0  0  0  0  0  0  0  0  0  0
   -1.5590   22.9610  -28.1410 N   0  0  0  0  0  0  0  0  0  0  0  0
   -1.2280   22.0830  -27.6820 H   0  0  0  0  0  0  0  0  0  0  0  0
   -2.5300   22.9160  -29.1070 C   0  0  0  0  0  0  0  0  0  0  0  0
   -3.0510   21.7790  -29.4760 N   0  0  0  0  0  0  0  0  0  0  0  0
   -2.7230   20.4520  -28.9630 C   0  0  0  0  0  0  0  0  0  0  0  0
   -1.6489   20.2595  -29.1015 H   0  0  0  0  0  0  0  0  0  0  0  0
   -3.3024   19.6923  -29.5080 H   0  0  0  0  0  0  0  0  0  0  0  0
   -3.0640   20.3880  -27.4820 C   0  0  0  0  0  0  0  0  0  0  0  0
   -2.1538   20.5588  -26.8884 H   0  0  0  0  0  0  0  0  0  0  0  0
   -3.8081   21.1622  -27.2433 H   0  0  0  0  0  0  0  0  0  0  0  0
   -3.4767   19.3967  -27.2433 H   0  0  0  0  0  0  0  0  0  0  0  0
   -4.0530   22.2810  -32.1440 C   0  0  0  0  0  0  0  0  0  0  0  0
   -2.9953   22.4077  -32.4181 H   0  0  0  0  0  0  0  0  0  0  0  0
   -4.8100   21.2540  -32.7340 C   0  0  0  0  0  0  0  0  0  0  0  0
   -4.2590   20.3870  -33.6920 O   0  0  0  0  0  0  0  0  0  0  0  0
   -3.9800   19.0090  -33.4700 C   0  0  0  0  0  0  0  0  0  0  0  0
   -3.9402   18.8126  -32.3884 H   0  0  0  0  0  0  0  0  0  0  0  0
   -4.7724   18.3965  -33.9250 H   0  0  0  0  0  0  0  0  0  0  0  0
   -3.0118   18.7530  -33.9250 H   0  0  0  0  0  0  0  0  0  0  0  0
   -6.1570   21.0780  -32.3750 C   0  0  0  0  0  0  0  0  0  0  0  0
   -6.8490   20.0300  -33.0120 O   0  0  0  0  0  0  0  0  0  0  0  0
   -7.6360   19.0260  -32.3830 C   0  0  0  0  0  0  0  0  0  0  0  0
   -7.5559   19.1281  -31.2907 H   0  0  0  0  0  0  0  0  0  0  0  0
   -8.6872   19.1408  -32.6859 H   0  0  0  0  0  0  0  0  0  0  0  0
   -7.2735   18.0326  -32.6859 H   0  0  0  0  0  0  0  0  0  0  0  0
   -6.7490   21.9430  -31.4160 C   0  0  0  0  0  0  0  0  0  0  0  0
   -8.0950   21.7780  -31.0570 O   0  0  0  0  0  0  0  0  0  0  0  0
   -9.2080   22.1390  -31.8700 C   0  0  0  0  0  0  0  0  0  0  0  0
  -10.0573   22.4145  -31.2275 H   0  0  0  0  0  0  0  0  0  0  0  0
   -8.9359   22.9949  -32.5051 H   0  0  0  0  0  0  0  0  0  0  0  0
   -9.4901   21.2863  -32.5051 H   0  0  0  0  0  0  0  0  0  0  0  0
  1  2  1  0
  2  3  2  0
  3  4  1  0
  4  5  2  0
  5  6  1  0
  6  7  1  0
  7  8  2  0
  8  9  1  0
  8 10  1  0
 10 11  1  0
 11 12  1  0
 12 13  1  0
 12 14  1  0
 12 15  1  0
 10 16  2  0
 16 17  1  0
 17 18  1  0
 18 19  1  0
 18 20  1  0
 18 21  1  0
 16 22  1  0
 22 23  1  0
 22 24  2  0
 24 25  1  0
 25 26  1  0
 25 27  1  0
 27 28  2  0
 28 29  1  0
 29 30  1  0
 29 31  1  0
 29 32  1  0
 32 33  1  0
 32 34  1  0
 32 35  1  0
  3 36  1  0
 36 37  1  0
 36 38  2  0
 38 39  1  0
 39 40  1  0
 40 41  1  0
 40 42  1  0
 40 43  1  0
 38 44  1  0
 44 45  1  0
 45 46  1  0
 46 47  1  0
 46 48  1  0
 46 49  1  0
 44 50  2  0
 50 51  1  0
 51 52  1  0
 52 53  1  0
 52 54  1  0
 52 55  1  0
 50  2  1  0
 27  5  1  0
 24  7  1  0
M  CHG  1   6  -1
M  END
>  <UniqueID>  (17) 
16

>  <SMILES>  (17) 
CC/N=c1\[nH]c2cc(OC)c(OC)cc2[n-]\c1=N\c1cc(OC)c(OC)c(OC)c1

>  <Energy>  (17) 
71.5098071531807

>  <Genealogy>  (17) 
CCN=c1[nH]c2cc(OC)c(OC)cc2[n-]c1=Nc1cc(OC)c(OC)c(OC)c1 (protonated)
CC/N=c1\[nH]c2cc(OC)c(OC)cc2[n-]\c1=N\c1cc(OC)c(OC)c(OC)c1 (cis-trans isomerization)
CC/N=c1\[nH]c2cc(OC)c(OC)cc2[n-]\c1=N\c1cc(OC)c(OC)c(OC)c1 (3D coordinates assigned)
CC/N=c1\[nH]c2cc(OC)c(OC)cc2[n-]\c1=N\c1cc(OC)c(OC)c(OC)c1 (optimized conformer: 71.5098071531807 kcal/mol)

>  <smiles>  (17) 
CCN=c1[nH]c2cc(OC)c(OC)cc2[nH]c1=Nc1cc(OC)c(OC)c(OC)c1

>  <score_type>  (17) 
oracle

>  <origin>  (17) 
adgpu

>  <m_score__min__energy>  (17) 
-7.1699999999999999

>  <m_primary>  (17) 
energy

$$$$
17:0
     RDKit          3D

 42 44  0  0  0  0  0  0  0  0999 V2000
   -5.0650   13.7840  -29.9890 H   0  0  0  0  0  0  0  0  0  0  0  0
   -4.7440   13.6790  -30.9780 N   0  0  0  0  0  0  0  0  0  0  0  0
   -4.8490   14.6360  -31.8510 C   0  0  0  0  0  0  0  0  0  0  0  0
   -4.4100   14.4490  -33.1420 N   0  0  0  0  0  0  0  0  0  0  0  0
   -3.7970   13.1610  -33.5400 C   0  0  0  0  0  0  0  0  0  0  0  0
   -4.3869   12.3373  -33.1116 H   0  0  0  0  0  0  0  0  0  0  0  0
   -3.7894   13.1082  -34.6387 H   0  0  0  0  0  0  0  0  0  0  0  0
   -2.3390   13.0470  -33.0400 C   0  0  0  0  0  0  0  0  0  0  0  0
   -1.7479   12.5760  -33.8392 H   0  0  0  0  0  0  0  0  0  0  0  0
   -1.7720   14.4400  -32.7410 C   0  0  0  0  0  0  0  0  0  0  0  0
   -1.7127   14.5858  -31.6523 H   0  0  0  0  0  0  0  0  0  0  0  0
   -0.7664   14.5281  -33.1781 H   0  0  0  0  0  0  0  0  0  0  0  0
   -2.4302   15.2053  -33.1781 H   0  0  0  0  0  0  0  0  0  0  0  0
   -2.2350   12.1580  -31.7930 C   0  0  0  0  0  0  0  0  0  0  0  0
   -2.3081   12.7825  -30.8904 H   0  0  0  0  0  0  0  0  0  0  0  0
   -3.0533   11.4229  -31.7975 H   0  0  0  0  0  0  0  0  0  0  0  0
   -1.2691   11.6316  -31.7975 H   0  0  0  0  0  0  0  0  0  0  0  0
   -4.5280   15.4690  -34.0570 C   0  0  0  0  0  0  0  0  0  0  0  0
   -4.1240   15.3090  -35.2430 O   0  0  0  0  0  0  0  0  0  0  0  0
   -5.0940   16.6980  -33.6810 C   0  0  0  0  0  0  0  0  0  0  0  0
   -5.2300   17.7660  -34.5850 C   0  0  0  0  0  0  0  0  0  0  0  0
   -4.8888   17.6497  -35.6242 H   0  0  0  0  0  0  0  0  0  0  0  0
   -5.7960   18.9740  -34.1710 C   0  0  0  0  0  0  0  0  0  0  0  0
   -5.8965   19.8027  -34.8873 H   0  0  0  0  0  0  0  0  0  0  0  0
   -6.2380   19.1400  -32.8480 C   0  0  0  0  0  0  0  0  0  0  0  0
   -6.8410   20.4250  -32.4100 C   0  0  0  0  0  0  0  0  0  0  0  0
   -8.2360   20.5490  -32.2710 C   0  0  0  0  0  0  0  0  0  0  0  0
   -8.8855   19.6880  -32.4873 H   0  0  0  0  0  0  0  0  0  0  0  0
   -8.8010   21.7590  -31.8600 C   0  0  0  0  0  0  0  0  0  0  0  0
   -9.8924   21.8458  -31.7535 H   0  0  0  0  0  0  0  0  0  0  0  0
   -7.9860   22.8580  -31.5840 C   0  0  0  0  0  0  0  0  0  0  0  0
   -8.4353   23.8088  -31.2613 H   0  0  0  0  0  0  0  0  0  0  0  0
   -6.5960   22.7500  -31.7180 C   0  0  0  0  0  0  0  0  0  0  0  0
   -5.7550   23.8820  -31.4290 C   0  0  0  0  0  0  0  0  0  0  0  0
   -5.0790   24.7920  -31.1960 N   0  0  0  0  0  0  0  0  0  0  0  0
   -6.0270   21.5390  -32.1300 C   0  0  0  0  0  0  0  0  0  0  0  0
   -4.9352   21.4573  -32.2358 H   0  0  0  0  0  0  0  0  0  0  0  0
   -6.1020   18.0700  -31.9450 C   0  0  0  0  0  0  0  0  0  0  0  0
   -6.4452   18.1874  -30.9065 H   0  0  0  0  0  0  0  0  0  0  0  0
   -5.5330   16.8540  -32.3550 C   0  0  0  0  0  0  0  0  0  0  0  0
   -5.4000   15.8270  -31.4760 N   0  0  0  0  0  0  0  0  0  0  0  0
   -5.7290   15.9510  -30.4890 H   0  0  0  0  0  0  0  0  0  0  0  0
  1  2  1  0
  2  3  2  0
  3  4  1  0
  4  5  1  0
  5  6  1  0
  5  7  1  0
  5  8  1  0
  8  9  1  0
  8 10  1  0
 10 11  1  0
 10 12  1  0
 10 13  1  0
  8 14  1  0
 14 15  1  0
 14 16  1  0
 14 17  1  0
  4 18  1  0
 18 19  2  0
 18 20  1  0
 20 21  2  0
 21 22  1  0
 21 23  1  0
 23 24  1  0
 23 25  2  0
 25 26  1  0
 26 27  2  0
 27 28  1  0
 27 29  1  0
 29 30  1  0
 29 31  2  0
 31 32  1  0
 31 33  1  0
 33 34  1  0
 34 35  3  0
 33 36  2  0
 36 37  1  0
 25 38  1  0
 38 39  1  0
 38 40  2  0
 40 41  1  0
 41 42  1  0
 41  3  1  0
 40 20  1  0
 36 26  1  0
M  END
>  <UniqueID>  (18) 
17

>  <SMILES>  (18) 
[H]/N=c1\[nH]c2cc(-c3cccc(C#N)c3)ccc2c(=O)n1CC(C)C

>  <Energy>  (18) 
52.360732257287104

>  <Genealogy>  (18) 
[H]/N=c1\[nH]c2cc(-c3cccc(C#N)c3)ccc2c(=O)n1CC(C)C (cis-trans isomerization)
[H]/N=c1\[nH]c2cc(-c3cccc(C#N)c3)ccc2c(=O)n1CC(C)C (3D coordinates assigned)
[H]/N=c1\[nH]c2cc(-c3cccc(C#N)c3)ccc2c(=O)n1CC(C)C (optimized conformer: 52.360732257287104 kcal/mol)

>  <smiles>  (18) 
CC(C)Cn1c(=N)[nH]c2cc(-c3cccc(C#N)c3)ccc2c1=O

>  <score_type>  (18) 
oracle

>  <origin>  (18) 
adgpu

>  <m_score__min__energy>  (18) 
-8.4700000000000006

>  <m_primary>  (18) 
energy

$$$$
18:0
     RDKit          3D

 40 43  0  0  0  0  0  0  0  0999 V2000
   -8.3950   19.0290  -31.5070 O   0  0  0  0  0  0  0  0  0  0  0  0
   -7.3470   18.6030  -32.0660 C   0  0  0  0  0  0  0  0  0  0  0  0
   -7.3090   17.2940  -32.5490 C   0  0  0  0  0  0  0  0  0  0  0  0
   -6.1390   16.8220  -33.1720 C   0  0  0  0  0  0  0  0  0  0  0  0
   -6.0490   15.4760  -33.6890 N   0  0  0  0  0  0  0  0  0  0  0  0
   -4.7340   14.8270  -33.7540 C   0  0  0  0  0  0  0  0  0  0  0  0
   -4.8850   13.3050  -33.7010 C   0  0  0  0  0  0  0  0  0  0  0  0
   -5.8170   12.8600  -34.6660 O   0  0  0  0  0  0  0  0  0  0  0  0
   -7.1040   13.3410  -34.3330 C   0  0  0  0  0  0  0  0  0  0  0  0
   -7.1600   14.8690  -34.4360 C   0  0  0  0  0  0  0  0  0  0  0  0
   -5.0910   17.6350  -33.2980 O   0  0  0  0  0  0  0  0  0  0  0  0
   -5.0830   18.8870  -32.8530 C   0  0  0  0  0  0  0  0  0  0  0  0
   -3.9400   19.6730  -33.0210 C   0  0  0  0  0  0  0  0  0  0  0  0
   -3.9120   20.9930  -32.5600 C   0  0  0  0  0  0  0  0  0  0  0  0
   -2.4320   21.9260  -32.7630 Cl  0  0  0  0  0  0  0  0  0  0  0  0
   -5.0460   21.5410  -31.9280 C   0  0  0  0  0  0  0  0  0  0  0  0
   -5.0480   22.9320  -31.4330 C   0  0  0  0  0  0  0  0  0  0  0  0
   -3.9010   23.4380  -30.8000 C   0  0  0  0  0  0  0  0  0  0  0  0
   -3.8780   24.7520  -30.3250 C   0  0  0  0  0  0  0  0  0  0  0  0
   -2.7380   25.2470  -29.7040 O   0  0  0  0  0  0  0  0  0  0  0  0
   -5.0030   25.5690  -30.4720 C   0  0  0  0  0  0  0  0  0  0  0  0
   -6.1530   25.0720  -31.0910 C   0  0  0  0  0  0  0  0  0  0  0  0
   -6.1850   23.7570  -31.5700 C   0  0  0  0  0  0  0  0  0  0  0  0
   -7.6690   23.1610  -32.3080 Cl  0  0  0  0  0  0  0  0  0  0  0  0
   -6.1920   20.7510  -31.7490 C   0  0  0  0  0  0  0  0  0  0  0  0
   -6.2200   19.4240  -32.2120 C   0  0  0  0  0  0  0  0  0  0  0  0
   -8.1854   16.6376  -32.4436 H   0  0  0  0  0  0  0  0  0  0  0  0
   -4.2370   15.1091  -34.6939 H   0  0  0  0  0  0  0  0  0  0  0  0
   -4.1320   15.1552  -32.8938 H   0  0  0  0  0  0  0  0  0  0  0  0
   -3.9089   12.8384  -33.9001 H   0  0  0  0  0  0  0  0  0  0  0  0
   -5.2481   13.0209  -32.7023 H   0  0  0  0  0  0  0  0  0  0  0  0
   -7.8410   12.9061  -35.0242 H   0  0  0  0  0  0  0  0  0  0  0  0
   -7.3308   13.0499  -33.2967 H   0  0  0  0  0  0  0  0  0  0  0  0
   -7.0889   15.1635  -35.4935 H   0  0  0  0  0  0  0  0  0  0  0  0
   -8.1105   15.2200  -34.0079 H   0  0  0  0  0  0  0  0  0  0  0  0
   -3.0554   19.2502  -33.5197 H   0  0  0  0  0  0  0  0  0  0  0  0
   -3.0159   22.7965  -30.6774 H   0  0  0  0  0  0  0  0  0  0  0  0
   -4.9828   26.6040  -30.1000 H   0  0  0  0  0  0  0  0  0  0  0  0
   -7.0371   25.7170  -31.2024 H   0  0  0  0  0  0  0  0  0  0  0  0
   -7.0734   21.1726  -31.2435 H   0  0  0  0  0  0  0  0  0  0  0  0
  1  2  2  0
  2  3  1  0
  3  4  2  0
  4  5  1  0
  5  6  1  0
  6  7  1  0
  7  8  1  0
  8  9  1  0
  9 10  1  0
  4 11  1  0
 11 12  1  0
 12 13  2  0
 13 14  1  0
 14 15  1  0
 14 16  2  0
 16 17  1  0
 17 18  2  0
 18 19  1  0
 19 20  1  0
 19 21  2  0
 21 22  1  0
 22 23  2  0
 23 24  1  0
 16 25  1  0
 25 26  2  0
 26  2  1  0
 10  5  1  0
 26 12  1  0
 23 17  1  0
  3 27  1  0
  6 28  1  0
  6 29  1  0
  7 30  1  0
  7 31  1  0
  9 32  1  0
  9 33  1  0
 10 34  1  0
 10 35  1  0
 13 36  1  0
 18 37  1  0
 21 38  1  0
 22 39  1  0
 25 40  1  0
M  CHG  1  20  -1
M  END
>  <UniqueID>  (19) 
18

>  <SMILES>  (19) 
O=c1cc(N2CCOCC2)oc2cc(Cl)c(-c3cc([O-])ccc3Cl)cc12

>  <Energy>  (19) 
61.45911665139874

>  <Genealogy>  (19) 
O=c1cc(N2CCOCC2)oc2cc(Cl)c(-c3cc([O-])ccc3Cl)cc12 (protonated)
O=c1cc(N2CCOCC2)oc2cc(Cl)c(-c3cc([O-])ccc3Cl)cc12 (3D coordinates assigned)
O=c1cc(N2CCOCC2)oc2cc(Cl)c(-c3cc([O-])ccc3Cl)cc12 (nonaromatic ring conformer: 61.45911665139874 kcal/mol)

>  <smiles>  (19) 
O=c1cc(N2CCOCC2)oc2cc(Cl)c(-c3cc(O)ccc3Cl)cc12

>  <score_type>  (19) 
oracle

>  <origin>  (19) 
adgpu

>  <m_score__min__energy>  (19) 
-11.5

>  <m_primary>  (19) 
energy

$$$$
19:0
     RDKit          3D

 41 43  0  0  0  0  0  0  0  0999 V2000
   -3.1360   18.6350  -25.9850 C   0  0  0  0  0  0  0  0  0  0  0  0
   -1.9340   19.2760  -26.6030 C   0  0  0  0  0  0  0  0  0  0  0  0
   -1.1220   18.5550  -27.4880 C   0  0  0  0  0  0  0  0  0  0  0  0
   -0.0240   19.1860  -28.0750 C   0  0  0  0  0  0  0  0  0  0  0  0
    0.2530   20.5210  -27.7780 C   0  0  0  0  0  0  0  0  0  0  0  0
   -0.5790   21.2140  -26.8870 C   0  0  0  0  0  0  0  0  0  0  0  0
   -0.3330   22.6630  -26.5770 C   0  0  0  0  0  0  0  0  0  0  0  0
   -0.6220   23.5540  -27.7610 C   0  0  0  0  0  0  0  0  0  0  0  0
    0.3270   24.1840  -28.3080 O   0  0  0  0  0  0  0  0  0  0  0  0
   -1.9900   23.6680  -28.3330 C   0  0  0  0  0  0  0  0  0  0  0  0
   -3.0170   22.8280  -27.8690 C   0  0  0  0  0  0  0  0  0  0  0  0
   -4.3070   22.9220  -28.3950 C   0  0  0  0  0  0  0  0  0  0  0  0
   -4.6070   23.8670  -29.3890 C   0  0  0  0  0  0  0  0  0  0  0  0
   -5.9760   23.9410  -29.9570 C   0  0  0  0  0  0  0  0  0  0  0  0
   -6.6810   24.9600  -29.7180 O   0  0  0  0  0  0  0  0  0  0  0  0
   -6.5370   22.8630  -30.8090 C   0  0  0  0  0  0  0  0  0  0  0  0
   -7.8160   22.3430  -30.5350 C   0  0  0  0  0  0  0  0  0  0  0  0
   -8.3470   21.3170  -31.3240 C   0  0  0  0  0  0  0  0  0  0  0  0
   -7.6050   20.7930  -32.3850 C   0  0  0  0  0  0  0  0  0  0  0  0
   -6.3290   21.2910  -32.6570 C   0  0  0  0  0  0  0  0  0  0  0  0
   -5.7940   22.3160  -31.8720 C   0  0  0  0  0  0  0  0  0  0  0  0
   -3.5830   24.7100  -29.8600 C   0  0  0  0  0  0  0  0  0  0  0  0
   -3.8410   25.6640  -30.8390 O   0  0  0  0  0  0  0  0  0  0  0  0
   -2.2890   24.6120  -29.3340 C   0  0  0  0  0  0  0  0  0  0  0  0
   -1.6510   20.5800  -26.3350 N   0  0  0  0  0  0  0  0  0  0  0  0
   -3.0526   18.6795  -24.8891 H   0  0  0  0  0  0  0  0  0  0  0  0
   -4.0423   19.1696  -26.3057 H   0  0  0  0  0  0  0  0  0  0  0  0
   -3.1970   17.5846  -26.3057 H   0  0  0  0  0  0  0  0  0  0  0  0
   -1.3472   17.5031  -27.7178 H   0  0  0  0  0  0  0  0  0  0  0  0
    0.6224   18.6314  -28.7711 H   0  0  0  0  0  0  0  0  0  0  0  0
    1.1157   21.0249  -28.2384 H   0  0  0  0  0  0  0  0  0  0  0  0
   -0.9824   22.9621  -25.7411 H   0  0  0  0  0  0  0  0  0  0  0  0
    0.7298   22.7783  -26.3177 H   0  0  0  0  0  0  0  0  0  0  0  0
   -2.8022   22.0888  -27.0832 H   0  0  0  0  0  0  0  0  0  0  0  0
   -5.0957   22.2493  -28.0271 H   0  0  0  0  0  0  0  0  0  0  0  0
   -8.4015   22.7458  -29.6954 H   0  0  0  0  0  0  0  0  0  0  0  0
   -9.3508   20.9222  -31.1084 H   0  0  0  0  0  0  0  0  0  0  0  0
   -8.0256   19.9884  -33.0061 H   0  0  0  0  0  0  0  0  0  0  0  0
   -5.7439   20.8757  -33.4908 H   0  0  0  0  0  0  0  0  0  0  0  0
   -4.7850   22.6980  -32.0864 H   0  0  0  0  0  0  0  0  0  0  0  0
   -1.4979   25.2794  -29.7066 H   0  0  0  0  0  0  0  0  0  0  0  0
  1  2  1  0
  2  3  2  0
  3  4  1  0
  4  5  2  0
  5  6  1  0
  6  7  1  0
  7  8  1  0
  8  9  2  0
  8 10  1  0
 10 11  2  0
 11 12  1  0
 12 13  2  0
 13 14  1  0
 14 15  2  0
 14 16  1  0
 16 17  2  0
 17 18  1  0
 18 19  2  0
 19 20  1  0
 20 21  2  0
 13 22  1  0
 22 23  1  0
 22 24  2  0
  6 25  2  0
 25  2  1  0
 24 10  1  0
 21 16  1  0
  1 26  1  0
  1 27  1  0
  1 28  1  0
  3 29  1  0
  4 30  1  0
  5 31  1  0
  7 32  1  0
  7 33  1  0
 11 34  1  0
 12 35  1  0
 17 36  1  0
 18 37  1  0
 19 38  1  0
 20 39  1  0
 21 40  1  0
 24 41  1  0
M  CHG  1  23  -1
M  END
>  <UniqueID>  (20) 
19

>  <SMILES>  (20) 
Cc1cccc(CC(=O)c2ccc(C(=O)c3ccccc3)c([O-])c2)n1

>  <Energy>  (20) 
52.15466576332069

>  <Genealogy>  (20) 
Cc1cccc(CC(=O)c2ccc(C(=O)c3ccccc3)c([O-])c2)n1 (protonated)
Cc1cccc(CC(=O)c2ccc(C(=O)c3ccccc3)c([O-])c2)n1 (3D coordinates assigned)
Cc1cccc(CC(=O)c2ccc(C(=O)c3ccccc3)c([O-])c2)n1 (optimized conformer: 52.15466576332069 kcal/mol)

>  <smiles>  (20) 
Cc1cccc(CC(=O)c2ccc(C(=O)c3ccccc3)c(O)c2)n1

>  <score_type>  (20) 
oracle

>  <origin>  (20) 
adgpu

>  <m_score__min__energy>  (20) 
-12.449999999999999

>  <m_primary>  (20) 
energy

$$$$
20:0
     RDKit          3D

 44 46  0  0  0  0  0  0  0  0999 V2000
   -4.2570   25.6010  -30.8700 O   0  0  0  0  0  0  0  0  0  0  0  0
   -3.4660   24.8120  -30.2880 C   0  0  0  0  0  0  0  0  0  0  0  0
   -2.6430   25.3050  -29.2820 O   0  0  0  0  0  0  0  0  0  0  0  0
   -3.4120   23.3830  -30.6720 C   0  0  0  0  0  0  0  0  0  0  0  0
   -2.3590   22.5620  -30.2310 C   0  0  0  0  0  0  0  0  0  0  0  0
   -2.3130   21.2070  -30.5890 C   0  0  0  0  0  0  0  0  0  0  0  0
   -1.1610   20.3460  -30.1490 C   0  0  0  0  0  0  0  0  0  0  0  0
   -0.3080   20.0950  -31.2320 O   0  0  0  0  0  0  0  0  0  0  0  0
   -3.3180   20.6740  -31.4070 C   0  0  0  0  0  0  0  0  0  0  0  0
   -4.3820   21.4700  -31.8390 C   0  0  0  0  0  0  0  0  0  0  0  0
   -5.3810   20.8830  -32.6330 O   0  0  0  0  0  0  0  0  0  0  0  0
   -6.7460   20.8540  -32.3150 C   0  0  0  0  0  0  0  0  0  0  0  0
   -7.4060   22.0730  -32.1160 C   0  0  0  0  0  0  0  0  0  0  0  0
   -8.7550   22.0970  -31.7580 C   0  0  0  0  0  0  0  0  0  0  0  0
   -9.4600   20.9030  -31.6110 C   0  0  0  0  0  0  0  0  0  0  0  0
   -8.8230   19.6810  -31.8370 C   0  0  0  0  0  0  0  0  0  0  0  0
   -7.4660   19.6400  -32.2020 C   0  0  0  0  0  0  0  0  0  0  0  0
   -6.8380   18.3900  -32.5250 N   0  0  0  0  0  0  0  0  0  0  0  0
   -6.0510   18.1090  -34.0450 S   0  0  0  0  0  0  0  0  0  0  0  0
   -6.6030   16.8560  -34.6660 O   0  0  0  0  0  0  0  0  0  0  0  0
   -6.3420   19.2590  -34.9690 O   0  0  0  0  0  0  0  0  0  0  0  0
   -4.3110   17.9250  -33.8010 C   0  0  0  0  0  0  0  0  0  0  0  0
   -3.4450   18.9580  -34.1970 C   0  0  0  0  0  0  0  0  0  0  0  0
   -2.0660   18.8370  -34.0050 C   0  0  0  0  0  0  0  0  0  0  0  0
   -1.5400   17.6860  -33.4160 C   0  0  0  0  0  0  0  0  0  0  0  0
   -2.3910   16.6520  -33.0220 C   0  0  0  0  0  0  0  0  0  0  0  0
   -3.7750   16.7620  -33.2100 C   0  0  0  0  0  0  0  0  0  0  0  0
   -4.7940   15.4230  -32.6960 Cl  0  0  0  0  0  0  0  0  0  0  0  0
   -4.4160   22.8300  -31.4830 C   0  0  0  0  0  0  0  0  0  0  0  0
   -1.5644   22.9864  -29.5997 H   0  0  0  0  0  0  0  0  0  0  0  0
   -0.6008   20.8644  -29.3568 H   0  0  0  0  0  0  0  0  0  0  0  0
   -1.5501   19.3905  -29.7674 H   0  0  0  0  0  0  0  0  0  0  0  0
   -0.8620   20.1710  -32.0520 H   0  0  0  0  0  0  0  0  0  0  0  0
   -3.2689   19.6183  -31.7121 H   0  0  0  0  0  0  0  0  0  0  0  0
   -6.8576   23.0181  -32.2427 H   0  0  0  0  0  0  0  0  0  0  0  0
   -9.2623   23.0587  -31.5917 H   0  0  0  0  0  0  0  0  0  0  0  0
  -10.5197   20.9237  -31.3165 H   0  0  0  0  0  0  0  0  0  0  0  0
   -9.3875   18.7431  -31.7286 H   0  0  0  0  0  0  0  0  0  0  0  0
   -6.9710   17.5700  -31.8940 H   0  0  0  0  0  0  0  0  0  0  0  0
   -3.8548   19.8673  -34.6609 H   0  0  0  0  0  0  0  0  0  0  0  0
   -1.3943   19.6498  -34.3184 H   0  0  0  0  0  0  0  0  0  0  0  0
   -0.4547   17.5937  -33.2623 H   0  0  0  0  0  0  0  0  0  0  0  0
   -1.9724   15.7452  -32.5611 H   0  0  0  0  0  0  0  0  0  0  0  0
   -5.2372   23.4669  -31.8434 H   0  0  0  0  0  0  0  0  0  0  0  0
  1  2  2  0
  2  3  1  0
  2  4  1  0
  4  5  2  0
  5  6  1  0
  6  7  1  0
  7  8  1  0
  6  9  2  0
  9 10  1  0
 10 11  1  0
 11 12  1  0
 12 13  2  0
 13 14  1  0
 14 15  2  0
 15 16  1  0
 16 17  2  0
 17 18  1  0
 18 19  1  0
 19 20  2  0
 19 21  2  0
 19 22  1  0
 22 23  2  0
 23 24  1  0
 24 25  2  0
 25 26  1  0
 26 27  2  0
 27 28  1  0
 10 29  2  0
 29  4  1  0
 17 12  1  0
 27 22  1  0
  5 30  1  0
  7 31  1  0
  7 32  1  0
  8 33  1  0
  9 34  1  0
 13 35  1  0
 14 36  1  0
 15 37  1  0
 16 38  1  0
 18 39  1  0
 23 40  1  0
 24 41  1  0
 25 42  1  0
 26 43  1  0
 29 44  1  0
M  CHG  1   3  -1
M  END
>  <UniqueID>  (21) 
20

>  <SMILES>  (21) 
O=C([O-])c1cc(CO)cc(Oc2ccccc2NS(=O)(=O)c2ccccc2Cl)c1

>  <Energy>  (21) 
58.65454015295913

>  <Genealogy>  (21) 
O=C([O-])c1cc(CO)cc(Oc2ccccc2NS(=O)(=O)c2ccccc2Cl)c1 (protonated)
O=C([O-])c1cc(CO)cc(Oc2ccccc2NS(=O)(=O)c2ccccc2Cl)c1 (3D coordinates assigned)
O=C([O-])c1cc(CO)cc(Oc2ccccc2NS(=O)(=O)c2ccccc2Cl)c1 (optimized conformer: 58.65454015295913 kcal/mol)

>  <smiles>  (21) 
O=C(O)c1cc(CO)cc(Oc2ccccc2NS(=O)(=O)c2ccccc2Cl)c1

>  <score_type>  (21) 
oracle

>  <origin>  (21) 
adgpu

>  <m_score__min__energy>  (21) 
-11.25

>  <m_primary>  (21) 
energy

$$$$
21:0
     RDKit          3D

 40 41  0  0  0  0  0  0  0  0999 V2000
   -2.1770   19.5030  -31.4890 C   0  0  0  0  0  0  0  0  0  0  0  0
   -2.9260   20.7100  -30.9850 C   0  0  0  0  0  0  0  0  0  0  0  0
   -3.6700   21.4670  -31.9010 C   0  0  0  0  0  0  0  0  0  0  0  0
   -4.4290   22.5690  -31.4840 C   0  0  0  0  0  0  0  0  0  0  0  0
   -5.4170   23.4340  -32.7160 S   0  0  0  0  0  0  0  0  0  0  0  0
   -6.8820   22.4480  -32.3970 C   0  0  0  0  0  0  0  0  0  0  0  0
   -6.8960   21.0870  -32.7190 C   0  0  0  0  0  0  0  0  0  0  0  0
   -8.0440   20.3350  -32.4600 C   0  0  0  0  0  0  0  0  0  0  0  0
   -9.1620   20.9500  -31.8910 C   0  0  0  0  0  0  0  0  0  0  0  0
   -9.1130   22.3130  -31.5920 C   0  0  0  0  0  0  0  0  0  0  0  0
   -7.9850   23.0270  -31.8510 N   0  0  0  0  0  0  0  0  0  0  0  0
   -4.4000   22.9640  -30.1290 C   0  0  0  0  0  0  0  0  0  0  0  0
   -5.2270   24.4240  -29.5550 S   0  0  0  0  0  0  0  0  0  0  0  0
   -6.9330   24.2970  -29.7990 N   0  0  0  0  0  0  0  0  0  0  0  0
   -4.9670   24.6120  -28.0870 O   0  0  0  0  0  0  0  0  0  0  0  0
   -4.6970   25.6290  -30.2810 O   0  0  0  0  0  0  0  0  0  0  0  0
   -3.6480   22.2130  -29.2140 C   0  0  0  0  0  0  0  0  0  0  0  0
   -2.8990   21.1030  -29.6270 C   0  0  0  0  0  0  0  0  0  0  0  0
   -2.1080   20.3780  -28.6130 C   0  0  0  0  0  0  0  0  0  0  0  0
   -0.8650   20.2640  -28.7840 O   0  0  0  0  0  0  0  0  0  0  0  0
   -2.7510   19.8500  -27.4350 N   0  0  0  0  0  0  0  0  0  0  0  0
   -2.2780   18.9090  -26.6590 C   0  0  0  0  0  0  0  0  0  0  0  0
   -1.1160   18.1460  -27.0080 N   0  0  0  0  0  0  0  0  0  0  0  0
   -2.9680   18.5860  -25.4470 N   0  0  0  0  0  0  0  0  0  0  0  0
   -1.8119   18.9147  -30.6342 H   0  0  0  0  0  0  0  0  0  0  0  0
   -2.8494   18.8831  -32.1003 H   0  0  0  0  0  0  0  0  0  0  0  0
   -1.3231   19.8303  -32.1003 H   0  0  0  0  0  0  0  0  0  0  0  0
   -3.6578   21.1912  -32.9658 H   0  0  0  0  0  0  0  0  0  0  0  0
   -6.0121   20.6138  -33.1715 H   0  0  0  0  0  0  0  0  0  0  0  0
   -8.0679   19.2625  -32.7031 H   0  0  0  0  0  0  0  0  0  0  0  0
  -10.0708   20.3669  -31.6809 H   0  0  0  0  0  0  0  0  0  0  0  0
   -9.9876   22.8097  -31.1466 H   0  0  0  0  0  0  0  0  0  0  0  0
   -7.1460   24.7010  -30.7380 H   0  0  0  0  0  0  0  0  0  0  0  0
   -7.1690   23.2800  -29.8360 H   0  0  0  0  0  0  0  0  0  0  0  0
   -3.6461   22.5006  -28.1523 H   0  0  0  0  0  0  0  0  0  0  0  0
   -3.6750   20.2660  -27.1820 H   0  0  0  0  0  0  0  0  0  0  0  0
   -0.6750   17.5230  -26.2950 H   0  0  0  0  0  0  0  0  0  0  0  0
   -0.8060   18.0270  -27.9960 H   0  0  0  0  0  0  0  0  0  0  0  0
   -2.6200   17.8210  -24.8290 H   0  0  0  0  0  0  0  0  0  0  0  0
   -3.8230   19.1100  -25.1570 H   0  0  0  0  0  0  0  0  0  0  0  0
  1  2  1  0
  2  3  2  0
  3  4  1  0
  4  5  1  0
  5  6  1  0
  6  7  2  0
  7  8  1  0
  8  9  2  0
  9 10  1  0
 10 11  2  0
  4 12  2  0
 12 13  1  0
 13 14  1  0
 13 15  2  0
 13 16  2  0
 12 17  1  0
 17 18  2  0
 18 19  1  0
 19 20  2  0
 19 21  1  0
 21 22  2  3
 22 23  1  0
 22 24  1  0
 18  2  1  0
 11  6  1  0
  1 25  1  0
  1 26  1  0
  1 27  1  0
  3 28  1  0
  7 29  1  0
  8 30  1  0
  9 31  1  0
 10 32  1  0
 14 33  1  0
 14 34  1  0
 17 35  1  0
 21 36  1  0
 23 37  1  0
 23 38  1  0
 24 39  1  0
 24 40  1  0
M  CHG  1  21   1
M  END
>  <UniqueID>  (22) 
21

>  <SMILES>  (22) 
Cc1cc(Sc2ccccn2)c(S(N)(=O)=O)cc1C(=O)[NH+]=C(N)N

>  <Energy>  (22) 
48.49373072068309

>  <Genealogy>  (22) 
Cc1cc(Sc2ccccn2)c(S(N)(=O)=O)cc1C(=O)[NH+]=C(N)N (protonated)
Cc1cc(Sc2ccccn2)c(S(N)(=O)=O)cc1C(=O)[NH+]=C(N)N (3D coordinates assigned)
Cc1cc(Sc2ccccn2)c(S(N)(=O)=O)cc1C(=O)[NH+]=C(N)N (optimized conformer: 48.49373072068309 kcal/mol)

>  <smiles>  (22) 
Cc1cc(Sc2ccccn2)c(S(N)(=O)=O)cc1C(=O)N=C(N)N

>  <score_type>  (22) 
oracle

>  <origin>  (22) 
adgpu

>  <m_score__min__energy>  (22) 
-8.7100000000000009

>  <m_primary>  (22) 
energy

$$$$
22:0
     RDKit          3D

 58 60  0  0  0  0  0  0  0  0999 V2000
   -6.2440   26.0000  -29.7030 C   0  0  0  0  0  0  0  0  0  0  0  0
   -5.8580   24.6620  -30.2680 C   0  0  0  0  0  0  0  0  0  0  0  0
   -6.8550   23.7670  -30.6860 C   0  0  0  0  0  0  0  0  0  0  0  0
   -6.5130   22.5280  -31.2270 C   0  0  0  0  0  0  0  0  0  0  0  0
   -5.1700   22.1580  -31.3680 C   0  0  0  0  0  0  0  0  0  0  0  0
   -4.8560   20.8630  -31.9160 N   0  0  0  0  0  0  0  0  0  0  0  0
   -3.9930   20.6340  -33.0450 C   0  0  0  0  0  0  0  0  0  0  0  0
   -3.5510   21.6010  -33.7180 O   0  0  0  0  0  0  0  0  0  0  0  0
   -3.6880   19.2550  -33.4790 C   0  0  0  0  0  0  0  0  0  0  0  0
   -2.4850   18.6050  -33.2840 C   0  0  0  0  0  0  0  0  0  0  0  0
   -2.6720   17.3470  -33.8340 C   0  0  0  0  0  0  0  0  0  0  0  0
   -1.6760   16.2000  -33.8100 C   0  0  0  0  0  0  0  0  0  0  0  0
   -0.4620   16.6120  -32.9550 C   0  0  0  0  0  0  0  0  0  0  0  0
   -1.2130   15.8710  -35.2440 C   0  0  0  0  0  0  0  0  0  0  0  0
   -2.3230   14.9400  -33.1960 C   0  0  0  0  0  0  0  0  0  0  0  0
   -3.9280   17.2530  -34.3190 N   0  0  0  0  0  0  0  0  0  0  0  0
   -4.5410   18.4070  -34.0990 N   0  0  0  0  0  0  0  0  0  0  0  0
   -5.8740   18.7010  -34.6250 C   0  0  0  0  0  0  0  0  0  0  0  0
   -6.8390   18.9240  -33.4930 C   0  0  0  0  0  0  0  0  0  0  0  0
   -6.9880   17.9460  -32.4950 C   0  0  0  0  0  0  0  0  0  0  0  0
   -7.8910   18.1400  -31.4460 C   0  0  0  0  0  0  0  0  0  0  0  0
   -8.6480   19.3120  -31.3820 C   0  0  0  0  0  0  0  0  0  0  0  0
   -8.5060   20.2900  -32.3710 C   0  0  0  0  0  0  0  0  0  0  0  0
   -7.6110   20.0970  -33.4280 C   0  0  0  0  0  0  0  0  0  0  0  0
   -4.1680   23.0390  -30.9220 C   0  0  0  0  0  0  0  0  0  0  0  0
   -4.5010   24.3010  -30.3930 C   0  0  0  0  0  0  0  0  0  0  0  0
   -3.4900   25.2360  -29.9800 N   0  0  0  0  0  0  0  0  0  0  0  0
   -2.1180   24.8820  -28.9810 S   0  0  0  0  0  0  0  0  0  0  0  0
   -2.6500   24.5390  -27.3170 C   0  0  0  0  0  0  0  0  0  0  0  0
   -1.2140   26.0800  -28.9590 O   0  0  0  0  0  0  0  0  0  0  0  0
   -1.3560   23.7130  -29.5420 O   0  0  0  0  0  0  0  0  0  0  0  0
   -6.2301   25.9518  -28.6041 H   0  0  0  0  0  0  0  0  0  0  0  0
   -5.5293   26.7627  -30.0456 H   0  0  0  0  0  0  0  0  0  0  0  0
   -7.2552   26.2648  -30.0456 H   0  0  0  0  0  0  0  0  0  0  0  0
   -7.9146   24.0450  -30.5861 H   0  0  0  0  0  0  0  0  0  0  0  0
   -7.3056   21.8351  -31.5459 H   0  0  0  0  0  0  0  0  0  0  0  0
   -5.3720   20.0410  -31.5240 H   0  0  0  0  0  0  0  0  0  0  0  0
   -1.5793   18.9987  -32.7995 H   0  0  0  0  0  0  0  0  0  0  0  0
   -0.7180   16.5251  -31.8887 H   0  0  0  0  0  0  0  0  0  0  0  0
    0.3880   15.9520  -33.1830 H   0  0  0  0  0  0  0  0  0  0  0  0
   -0.1893   17.6530  -33.1830 H   0  0  0  0  0  0  0  0  0  0  0  0
   -0.3169   15.2343  -35.2030 H   0  0  0  0  0  0  0  0  0  0  0  0
   -2.0162   15.3399  -35.7759 H   0  0  0  0  0  0  0  0  0  0  0  0
   -0.9757   16.8042  -35.7759 H   0  0  0  0  0  0  0  0  0  0  0  0
   -2.2883   15.0077  -32.0986 H   0  0  0  0  0  0  0  0  0  0  0  0
   -3.3698   14.8675  -33.5259 H   0  0  0  0  0  0  0  0  0  0  0  0
   -1.7719   14.0470  -33.5259 H   0  0  0  0  0  0  0  0  0  0  0  0
   -5.8278   19.6068  -35.2474 H   0  0  0  0  0  0  0  0  0  0  0  0
   -6.2186   17.8488  -35.2291 H   0  0  0  0  0  0  0  0  0  0  0  0
   -6.3910   17.0232  -32.5396 H   0  0  0  0  0  0  0  0  0  0  0  0
   -8.0056   17.3688  -30.6700 H   0  0  0  0  0  0  0  0  0  0  0  0
   -9.3556   19.4655  -30.5539 H   0  0  0  0  0  0  0  0  0  0  0  0
   -9.1002   21.2142  -32.3175 H   0  0  0  0  0  0  0  0  0  0  0  0
   -7.5109   20.8643  -34.2098 H   0  0  0  0  0  0  0  0  0  0  0  0
   -3.1118   22.7386  -30.9872 H   0  0  0  0  0  0  0  0  0  0  0  0
   -1.9449   24.9936  -26.6056 H   0  0  0  0  0  0  0  0  0  0  0  0
   -3.6536   24.9606  -27.1587 H   0  0  0  0  0  0  0  0  0  0  0  0
   -2.6802   23.4509  -27.1587 H   0  0  0  0  0  0  0  0  0  0  0  0
  1  2  1  0
  2  3  2  0
  3  4  1  0
  4  5  2  0
  5  6  1  0
  6  7  1  0
  7  8  2  0
  7  9  1  0
  9 10  2  0
 10 11  1  0
 11 12  1  0
 12 13  1  0
 12 14  1  0
 12 15  1  0
 11 16  2  0
 16 17  1  0
 17 18  1  0
 18 19  1  0
 19 20  2  0
 20 21  1  0
 21 22  2  0
 22 23  1  0
 23 24  2  0
  5 25  1  0
 25 26  2  0
 26 27  1  0
 27 28  1  0
 28 29  1  0
 28 30  2  0
 28 31  2  0
 26  2  1  0
 17  9  1  0
 24 19  1  0
  1 32  1  0
  1 33  1  0
  1 34  1  0
  3 35  1  0
  4 36  1  0
  6 37  1  0
 10 38  1  0
 13 39  1  0
 13 40  1  0
 13 41  1  0
 14 42  1  0
 14 43  1  0
 14 44  1  0
 15 45  1  0
 15 46  1  0
 15 47  1  0
 18 48  1  0
 18 49  1  0
 20 50  1  0
 21 51  1  0
 22 52  1  0
 23 53  1  0
 24 54  1  0
 25 55  1  0
 29 56  1  0
 29 57  1  0
 29 58  1  0
M  CHG  1  27  -1
M  END
>  <UniqueID>  (23) 
22

>  <SMILES>  (23) 
Cc1ccc(NC(=O)c2cc(C(C)(C)C)nn2Cc2ccccc2)cc1[N-]S(C)(=O)=O

>  <Energy>  (23) 
87.45810714001661

>  <Genealogy>  (23) 
Cc1ccc(NC(=O)c2cc(C(C)(C)C)nn2Cc2ccccc2)cc1[N-]S(C)(=O)=O (protonated)
Cc1ccc(NC(=O)c2cc(C(C)(C)C)nn2Cc2ccccc2)cc1[N-]S(C)(=O)=O (3D coordinates assigned)
Cc1ccc(NC(=O)c2cc(C(C)(C)C)nn2Cc2ccccc2)cc1[N-]S(C)(=O)=O (optimized conformer: 87.45810714001661 kcal/mol)

>  <smiles>  (23) 
Cc1ccc(NC(=O)c2cc(C(C)(C)C)nn2Cc2ccccc2)cc1NS(C)(=O)=O

>  <score_type>  (23) 
oracle

>  <origin>  (23) 
adgpu

>  <m_score__min__energy>  (23) 
-11.65

>  <m_primary>  (23) 
energy

$$$$
23:0
     RDKit          3D

 55 57  0  0  1  0  0  0  0  0999 V2000
   -1.7260   20.1030  -34.0910 C   0  0  0  0  0  0  0  0  0  0  0  0
   -2.6080   19.1560  -33.9100 C   0  0  0  0  0  0  0  0  0  0  0  0
   -3.8800   19.3650  -33.2670 C   0  0  0  0  0  0  0  0  0  0  0  0
   -3.9840   19.7060  -32.0440 O   0  0  0  0  0  0  0  0  0  0  0  0
   -5.1280   19.2050  -33.9540 N   0  0  0  0  0  0  0  0  0  0  0  0
   -6.3000   19.4480  -33.1810 C   0  0  0  0  0  0  0  0  0  0  0  0
   -6.5880   20.7140  -32.6720 C   0  0  0  0  0  0  0  0  0  0  0  0
   -7.6930   20.9910  -31.9290 C   0  0  0  0  0  0  0  0  0  0  0  0
   -8.0460   22.2440  -31.3900 N   0  0  0  0  0  0  0  0  0  0  0  0
   -7.1960   23.1560  -30.7370 C   0  0  0  0  0  0  0  0  0  0  0  0
   -6.1330   22.6760  -29.9470 C   0  0  0  0  0  0  0  0  0  0  0  0
   -5.2980   23.5680  -29.3010 C   0  0  0  0  0  0  0  0  0  0  0  0
   -4.3490   23.0770  -28.5970 N   0  0  0  0  0  0  0  0  0  0  0  0
   -3.4230   23.8890  -27.8850 C   0  0  0  0  0  0  0  0  0  0  0  0
   -3.7370   24.5490  -26.7150 C   0  0  0  0  0  0  0  0  0  0  0  0
   -2.8230   25.3380  -26.0320 C   0  0  0  0  0  0  0  0  0  0  0  0
   -1.5440   25.4790  -26.5270 C   0  0  0  0  0  0  0  0  0  0  0  0
   -0.6180   26.3180  -25.7740 C   0  0  0  0  0  0  0  0  0  0  0  0
    0.5880   26.2900  -26.0800 O   0  0  0  0  0  0  0  0  0  0  0  0
   -1.0310   27.1650  -24.7100 N   0  0  0  0  0  0  0  0  0  0  0  0
   -0.0730   27.9890  -23.9820 C   0  0  0  0  0  0  0  0  0  0  0  0
   -1.1990   24.8310  -27.6940 C   0  0  0  0  0  0  0  0  0  0  0  0
   -2.1190   24.0480  -28.3660 C   0  0  0  0  0  0  0  0  0  0  0  0
   -1.7370   23.3530  -29.6260 C   0  0  0  0  0  0  0  0  0  0  0  0
   -5.4640   24.8950  -29.4010 N   0  0  0  0  0  0  0  0  0  0  0  0
   -6.4810   25.3470  -30.1570 C   0  0  0  0  0  0  0  0  0  0  0  0
   -7.2930   24.4890  -30.7840 N   0  0  0  0  0  0  0  0  0  0  0  0
   -8.5600   19.9110  -31.6910 C   0  0  0  0  0  0  0  0  0  0  0  0
   -8.3020   18.6500  -32.1790 C   0  0  0  0  0  0  0  0  0  0  0  0
   -7.1720   18.4130  -32.9260 C   0  0  0  0  0  0  0  0  0  0  0  0
   -6.9250   17.0470  -33.4370 C   0  0  0  0  0  0  0  0  0  0  0  0
   -0.7718   19.8779  -34.5899 H   0  0  0  0  0  0  0  0  0  0  0  0
   -1.9377   21.1253  -33.7445 H   0  0  0  0  0  0  0  0  0  0  0  0
   -2.3661   18.1444  -34.2680 H   0  0  0  0  0  0  0  0  0  0  0  0
   -5.1510   18.9280  -34.9600 H   0  0  0  0  0  0  0  0  0  0  0  0
   -5.8838   21.5324  -32.8827 H   0  0  0  0  0  0  0  0  0  0  0  0
   -9.0640   22.5430  -31.4790 H   0  0  0  0  0  0  0  0  0  0  0  0
   -5.9678   21.5933  -29.8445 H   0  0  0  0  0  0  0  0  0  0  0  0
   -4.7533   24.4454  -26.3071 H   0  0  0  0  0  0  0  0  0  0  0  0
   -3.1166   25.8474  -25.1023 H   0  0  0  0  0  0  0  0  0  0  0  0
   -2.0260   27.2090  -24.4330 H   0  0  0  0  0  0  0  0  0  0  0  0
   -0.2246   27.8586  -22.9003 H   0  0  0  0  0  0  0  0  0  0  0  0
    0.9498   27.6841  -24.2483 H   0  0  0  0  0  0  0  0  0  0  0  0
   -0.2216   29.0459  -24.2483 H   0  0  0  0  0  0  0  0  0  0  0  0
   -0.1803   24.9382  -28.0949 H   0  0  0  0  0  0  0  0  0  0  0  0
   -1.2202   22.4127  -29.3839 H   0  0  0  0  0  0  0  0  0  0  0  0
   -2.6414   23.1338  -30.2125 H   0  0  0  0  0  0  0  0  0  0  0  0
   -1.0672   23.9990  -30.2125 H   0  0  0  0  0  0  0  0  0  0  0  0
   -4.8210   25.5400  -28.9040 H   0  0  0  0  0  0  0  0  0  0  0  0
   -6.6458   26.4297  -30.2601 H   0  0  0  0  0  0  0  0  0  0  0  0
   -9.4711   20.0781  -31.0977 H   0  0  0  0  0  0  0  0  0  0  0  0
   -9.0029   17.8282  -31.9705 H   0  0  0  0  0  0  0  0  0  0  0  0
   -6.8000   16.3559  -32.5904 H   0  0  0  0  0  0  0  0  0  0  0  0
   -7.7795   16.7249  -34.0503 H   0  0  0  0  0  0  0  0  0  0  0  0
   -6.0118   17.0445  -34.0503 H   0  0  0  0  0  0  0  0  0  0  0  0
  1  2  2  0
  2  3  1  0
  3  4  2  0
  3  5  1  0
  5  6  1  0
  6  7  2  0
  7  8  1  0
  8  9  1  0
  9 10  1  0
 10 11  2  0
 11 12  1  0
 12 13  2  0
 13 14  1  0
 14 15  2  0
 15 16  1  0
 16 17  2  0
 17 18  1  0
 18 19  2  0
 18 20  1  0
 20 21  1  0
 17 22  1  0
 22 23  2  0
 23 24  1  0
 12 25  1  0
 25 26  1  0
 26 27  2  0
  8 28  2  0
 28 29  1  0
 29 30  2  0
 30 31  1  0
 30  6  1  0
 27 10  1  0
 23 14  1  0
  1 32  1  0
  1 33  1  0
  2 34  1  0
  5 35  1  0
  7 36  1  0
  9 37  1  0
 11 38  1  0
 15 39  1  0
 16 40  1  0
 20 41  1  0
 21 42  1  0
 21 43  1  0
 21 44  1  0
 22 45  1  0
 24 46  1  0
 24 47  1  0
 24 48  1  0
 25 49  1  0
 26 50  1  0
 28 51  1  0
 29 52  1  0
 31 53  1  0
 31 54  1  0
 31 55  1  0
M  END
>  <smiles>  (24) 
C=CC(=O)Nc1cc(Nc2cc(=Nc3ccc(C(=O)NC)cc3C)[nH]cn2)ccc1C

>  <score_type>  (24) 
oracle

>  <origin>  (24) 
adgpu

>  <m_score__min__energy>  (24) 
-10.17

>  <m_primary>  (24) 
energy

$$$$
24:0
     RDKit          3D

 45 47  0  0  0  0  0  0  0  0999 V2000
   -6.6610   22.6700  -30.4260 C   0  0  0  0  0  0  0  0  0  0  0  0
   -6.0420   23.1960  -31.7170 C   0  0  0  0  0  0  0  0  0  0  0  0
   -4.6700   22.6950  -31.8790 N   0  0  0  0  0  0  0  0  0  0  0  0
   -4.3940   21.6300  -32.8180 C   0  0  0  0  0  0  0  0  0  0  0  0
   -3.4410   21.7470  -33.6350 O   0  0  0  0  0  0  0  0  0  0  0  0
   -5.2340   20.4160  -32.8830 C   0  0  0  0  0  0  0  0  0  0  0  0
   -6.5420   20.4970  -33.3760 C   0  0  0  0  0  0  0  0  0  0  0  0
   -7.3290   19.3900  -33.4170 N   0  0  0  0  0  0  0  0  0  0  0  0
   -6.8580   18.1860  -32.9960 C   0  0  0  0  0  0  0  0  0  0  0  0
   -7.5980   17.1680  -33.0350 O   0  0  0  0  0  0  0  0  0  0  0  0
   -5.5850   18.0770  -32.5360 N   0  0  0  0  0  0  0  0  0  0  0  0
   -4.7630   19.1560  -32.4770 C   0  0  0  0  0  0  0  0  0  0  0  0
   -3.5790   19.0090  -32.0780 O   0  0  0  0  0  0  0  0  0  0  0  0
   -3.6470   23.1640  -30.9740 C   0  0  0  0  0  0  0  0  0  0  0  0
   -2.5690   22.3380  -30.5820 C   0  0  0  0  0  0  0  0  0  0  0  0
   -2.5340   20.9700  -31.0310 N   0  0  0  0  0  0  0  0  0  0  0  0
   -1.5860   22.8400  -29.7510 N   0  0  0  0  0  0  0  0  0  0  0  0
   -0.4580   21.9910  -29.3070 C   0  0  0  0  0  0  0  0  0  0  0  0
   -0.9370   20.8630  -28.4260 C   0  0  0  0  0  0  0  0  0  0  0  0
   -0.2190   19.6560  -28.3630 C   0  0  0  0  0  0  0  0  0  0  0  0
   -0.6550   18.6180  -27.5320 C   0  0  0  0  0  0  0  0  0  0  0  0
   -1.8000   18.7820  -26.7490 C   0  0  0  0  0  0  0  0  0  0  0  0
   -2.5090   19.9840  -26.7920 C   0  0  0  0  0  0  0  0  0  0  0  0
   -2.0780   21.0250  -27.6200 C   0  0  0  0  0  0  0  0  0  0  0  0
   -1.6820   24.1340  -29.2940 C   0  0  0  0  0  0  0  0  0  0  0  0
   -0.8100   24.6160  -28.5200 O   0  0  0  0  0  0  0  0  0  0  0  0
   -2.7210   24.9210  -29.6620 N   0  0  0  0  0  0  0  0  0  0  0  0
   -3.6960   24.4720  -30.4830 C   0  0  0  0  0  0  0  0  0  0  0  0
   -4.6320   25.2490  -30.8110 O   0  0  0  0  0  0  0  0  0  0  0  0
   -6.1409   23.1120  -29.5634 H   0  0  0  0  0  0  0  0  0  0  0  0
   -7.7258   22.9438  -30.3918 H   0  0  0  0  0  0  0  0  0  0  0  0
   -6.5627   21.5749  -30.3918 H   0  0  0  0  0  0  0  0  0  0  0  0
   -6.6507   22.8633  -32.5707 H   0  0  0  0  0  0  0  0  0  0  0  0
   -6.0135   24.2947  -31.6726 H   0  0  0  0  0  0  0  0  0  0  0  0
   -6.9343   21.4611  -33.7317 H   0  0  0  0  0  0  0  0  0  0  0  0
   -8.3080   19.4720  -33.7760 H   0  0  0  0  0  0  0  0  0  0  0  0
   -2.7220   20.1790  -30.3800 H   0  0  0  0  0  0  0  0  0  0  0  0
   -2.3300   20.7020  -32.0160 H   0  0  0  0  0  0  0  0  0  0  0  0
    0.0423   21.5683  -30.1907 H   0  0  0  0  0  0  0  0  0  0  0  0
    0.2391   22.6137  -28.7271 H   0  0  0  0  0  0  0  0  0  0  0  0
    0.6895   19.5270  -28.9696 H   0  0  0  0  0  0  0  0  0  0  0  0
   -0.0953   17.6717  -27.4953 H   0  0  0  0  0  0  0  0  0  0  0  0
   -2.1432   17.9641  -26.0984 H   0  0  0  0  0  0  0  0  0  0  0  0
   -3.4091   20.1124  -26.1728 H   0  0  0  0  0  0  0  0  0  0  0  0
   -2.6335   21.9742  -27.6410 H   0  0  0  0  0  0  0  0  0  0  0  0
  1  2  1  0
  2  3  1  0
  3  4  1  0
  4  5  2  0
  4  6  1  0
  6  7  2  0
  7  8  1  0
  8  9  1  0
  9 10  2  0
  9 11  1  0
 11 12  1  0
 12 13  2  0
  3 14  1  0
 14 15  2  0
 15 16  1  0
 15 17  1  0
 17 18  1  0
 18 19  1  0
 19 20  2  0
 20 21  1  0
 21 22  2  0
 22 23  1  0
 23 24  2  0
 17 25  1  0
 25 26  2  0
 25 27  1  0
 27 28  1  0
 28 29  2  0
 12  6  1  0
 28 14  1  0
 24 19  1  0
  1 30  1  0
  1 31  1  0
  1 32  1  0
  2 33  1  0
  2 34  1  0
  7 35  1  0
  8 36  1  0
 16 37  1  0
 16 38  1  0
 18 39  1  0
 18 40  1  0
 20 41  1  0
 21 42  1  0
 22 43  1  0
 23 44  1  0
 24 45  1  0
M  CHG  2  11  -1  27  -1
M  END
>  <UniqueID>  (25) 
23

>  <SMILES>  (25) 
CCN(C(=O)c1c[nH]c(=O)[n-]c1=O)c1c(N)n(Cc2ccccc2)c(=O)[n-]c1=O

>  <Energy>  (25) 
64.2046143913139

>  <Genealogy>  (25) 
CCN(C(=O)c1c[nH]c(=O)[n-]c1=O)c1c(N)n(Cc2ccccc2)c(=O)[n-]c1=O (protonated)
CCN(C(=O)c1c[nH]c(=O)[n-]c1=O)c1c(N)n(Cc2ccccc2)c(=O)[n-]c1=O (3D coordinates assigned)
CCN(C(=O)c1c[nH]c(=O)[n-]c1=O)c1c(N)n(Cc2ccccc2)c(=O)[n-]c1=O (optimized conformer: 64.2046143913139 kcal/mol)

>  <smiles>  (25) 
CCN(C(=O)c1c[nH]c(=O)[nH]c1=O)c1c(N)n(Cc2ccccc2)c(=O)[nH]c1=O

>  <score_type>  (25) 
oracle

>  <origin>  (25) 
adgpu

>  <m_score__min__energy>  (25) 
-9.6999999999999993

>  <m_primary>  (25) 
energy

$$$$
25:0
     RDKit          3D

 28 29  0  0  0  0  0  0  0  0999 V2000
   -3.5100   23.5840  -29.2600 O   0  0  0  0  0  0  0  0  0  0  0  0
   -3.1180   24.6660  -29.7740 C   0  0  0  0  0  0  0  0  0  0  0  0
   -3.8960   25.3020  -30.7930 N   0  0  0  0  0  0  0  0  0  0  0  0
   -5.3540   25.3200  -30.8030 C   0  0  0  0  0  0  0  0  0  0  0  0
   -5.8860   24.0000  -31.2790 C   0  0  0  0  0  0  0  0  0  0  0  0
   -7.2360   23.6600  -31.1030 C   0  0  0  0  0  0  0  0  0  0  0  0
   -7.7000   22.4330  -31.5790 C   0  0  0  0  0  0  0  0  0  0  0  0
   -6.8220   21.5600  -32.2250 C   0  0  0  0  0  0  0  0  0  0  0  0
   -5.4860   21.9330  -32.3880 C   0  0  0  0  0  0  0  0  0  0  0  0
   -5.0520   23.1330  -31.9180 N   0  0  0  0  0  0  0  0  0  0  0  0
   -1.9190   25.3010  -29.3190 N   0  0  0  0  0  0  0  0  0  0  0  0
   -1.6100   25.6750  -27.9670 C   0  0  0  0  0  0  0  0  0  0  0  0
   -0.7010   26.7060  -27.6650 C   0  0  0  0  0  0  0  0  0  0  0  0
   -0.4470   27.0530  -26.3340 C   0  0  0  0  0  0  0  0  0  0  0  0
   -1.1060   26.3840  -25.2970 C   0  0  0  0  0  0  0  0  0  0  0  0
   -0.7860   26.8220  -23.6280 Cl  0  0  0  0  0  0  0  0  0  0  0  0
   -2.0270   25.3750  -25.5910 C   0  0  0  0  0  0  0  0  0  0  0  0
   -2.2830   25.0280  -26.9220 C   0  0  0  0  0  0  0  0  0  0  0  0
   -5.7219   25.5140  -29.7846 H   0  0  0  0  0  0  0  0  0  0  0  0
   -5.6982   26.1121  -31.4842 H   0  0  0  0  0  0  0  0  0  0  0  0
   -7.9218   24.3539  -30.5948 H   0  0  0  0  0  0  0  0  0  0  0  0
   -8.7556   22.1539  -31.4456 H   0  0  0  0  0  0  0  0  0  0  0  0
   -7.1786   20.5897  -32.6011 H   0  0  0  0  0  0  0  0  0  0  0  0
   -4.7844   21.2557  -32.8969 H   0  0  0  0  0  0  0  0  0  0  0  0
   -0.1886   27.2407  -28.4783 H   0  0  0  0  0  0  0  0  0  0  0  0
    0.2717   27.8528  -26.1024 H   0  0  0  0  0  0  0  0  0  0  0  0
   -2.5506   24.8537  -24.7761 H   0  0  0  0  0  0  0  0  0  0  0  0
   -3.0178   24.2417  -27.1497 H   0  0  0  0  0  0  0  0  0  0  0  0
  1  2  2  0
  2  3  1  0
  3  4  1  0
  4  5  1  0
  5  6  2  0
  6  7  1  0
  7  8  2  0
  8  9  1  0
  9 10  2  0
  2 11  1  0
 11 12  1  0
 12 13  2  0
 13 14  1  0
 14 15  2  0
 15 16  1  0
 15 17  1  0
 17 18  2  0
 10  5  1  0
 18 12  1  0
  4 19  1  0
  4 20  1  0
  6 21  1  0
  7 22  1  0
  8 23  1  0
  9 24  1  0
 13 25  1  0
 14 26  1  0
 17 27  1  0
 18 28  1  0
M  CHG  2   3  -1  11  -1
M  END
>  <UniqueID>  (26) 
24

>  <SMILES>  (26) 
O=C([N-]Cc1ccccn1)[N-]c1ccc(Cl)cc1

>  <Energy>  (26) 
30.05074164765597

>  <Genealogy>  (26) 
O=C([N-]Cc1ccccn1)[N-]c1ccc(Cl)cc1 (protonated)
O=C([N-]Cc1ccccn1)[N-]c1ccc(Cl)cc1 (3D coordinates assigned)
O=C([N-]Cc1ccccn1)[N-]c1ccc(Cl)cc1 (optimized conformer: 30.05074164765597 kcal/mol)

>  <smiles>  (26) 
O=C(NCc1ccccn1)Nc1ccc(Cl)cc1

>  <score_type>  (26) 
oracle

>  <origin>  (26) 
adgpu

>  <m_score__min__energy>  (26) 
-10.390000000000001

>  <m_primary>  (26) 
energy

$$$$
26:0
     RDKit          3D

 43 45  0  0  0  0  0  0  0  0999 V2000
   -4.9870   25.7030  -30.0390 H   0  0  0  0  0  0  0  0  0  0  0  0
   -4.9530   25.0300  -30.7950 O   0  0  0  0  0  0  0  0  0  0  0  0
   -3.9820   24.0310  -30.8400 C   0  0  0  0  0  0  0  0  0  0  0  0
   -4.1750   22.8860  -31.6260 C   0  0  0  0  0  0  0  0  0  0  0  0
   -5.1002   22.7751  -32.2105 H   0  0  0  0  0  0  0  0  0  0  0  0
   -3.1970   21.8800  -31.6730 C   0  0  0  0  0  0  0  0  0  0  0  0
   -3.4270   20.6850  -32.5080 C   0  0  0  0  0  0  0  0  0  0  0  0
   -4.3645   20.1201  -32.3979 H   0  0  0  0  0  0  0  0  0  0  0  0
   -2.5390   20.2890  -33.3720 N   0  0  0  0  0  0  0  0  0  0  0  0
   -2.6910   19.1660  -34.1690 O   0  0  0  0  0  0  0  0  0  0  0  0
   -3.2650   17.9600  -33.7330 C   0  0  0  0  0  0  0  0  0  0  0  0
   -2.4600   16.9610  -33.1590 C   0  0  0  0  0  0  0  0  0  0  0  0
   -1.3806   17.1347  -33.0377 H   0  0  0  0  0  0  0  0  0  0  0  0
   -3.0150   15.7530  -32.7420 C   0  0  0  0  0  0  0  0  0  0  0  0
   -2.3725   14.9803  -32.2947 H   0  0  0  0  0  0  0  0  0  0  0  0
   -4.3860   15.5190  -32.8900 C   0  0  0  0  0  0  0  0  0  0  0  0
   -4.9750   14.2010  -32.4770 C   0  0  0  0  0  0  0  0  0  0  0  0
   -5.0024   14.1396  -31.3791 H   0  0  0  0  0  0  0  0  0  0  0  0
   -5.9970   14.1154  -32.8747 H   0  0  0  0  0  0  0  0  0  0  0  0
   -4.3570   13.3825  -32.8747 H   0  0  0  0  0  0  0  0  0  0  0  0
   -5.1920   16.4930  -33.4940 C   0  0  0  0  0  0  0  0  0  0  0  0
   -6.2645   16.2954  -33.6381 H   0  0  0  0  0  0  0  0  0  0  0  0
   -4.6490   17.7230  -33.9200 C   0  0  0  0  0  0  0  0  0  0  0  0
   -5.5400   18.7370  -34.5450 C   0  0  0  0  0  0  0  0  0  0  0  0
   -6.0080   18.5490  -35.7010 O   0  0  0  0  0  0  0  0  0  0  0  0
   -5.8250   19.9630  -33.8540 N   0  0  0  0  0  0  0  0  0  0  0  0
   -6.9190   20.2070  -32.9580 C   0  0  0  0  0  0  0  0  0  0  0  0
   -7.7890   19.1500  -32.6580 C   0  0  0  0  0  0  0  0  0  0  0  0
   -7.6128   18.1561  -33.0953 H   0  0  0  0  0  0  0  0  0  0  0  0
   -8.8800   19.3510  -31.8060 C   0  0  0  0  0  0  0  0  0  0  0  0
   -9.5509   18.5133  -31.5650 H   0  0  0  0  0  0  0  0  0  0  0  0
   -9.1180   20.6150  -31.2610 C   0  0  0  0  0  0  0  0  0  0  0  0
   -9.9715   20.7707  -30.5847 H   0  0  0  0  0  0  0  0  0  0  0  0
   -8.2720   21.6810  -31.5750 C   0  0  0  0  0  0  0  0  0  0  0  0
   -8.4659   22.6780  -31.1527 H   0  0  0  0  0  0  0  0  0  0  0  0
   -7.1790   21.4840  -32.4250 C   0  0  0  0  0  0  0  0  0  0  0  0
   -6.5210   22.3285  -32.6777 H   0  0  0  0  0  0  0  0  0  0  0  0
   -2.0200   22.0320  -30.9180 C   0  0  0  0  0  0  0  0  0  0  0  0
   -1.2472   21.2496  -30.9449 H   0  0  0  0  0  0  0  0  0  0  0  0
   -1.8280   23.1740  -30.1330 C   0  0  0  0  0  0  0  0  0  0  0  0
   -0.9052   23.2868  -29.5450 H   0  0  0  0  0  0  0  0  0  0  0  0
   -2.8060   24.1720  -30.0940 C   0  0  0  0  0  0  0  0  0  0  0  0
   -2.6060   25.3020  -29.3110 O   0  0  0  0  0  0  0  0  0  0  0  0
  1  2  1  0
  2  3  1  0
  3  4  2  0
  4  5  1  0
  4  6  1  0
  6  7  1  0
  7  8  1  0
  7  9  2  0
  9 10  1  0
 10 11  1  0
 11 12  2  0
 12 13  1  0
 12 14  1  0
 14 15  1  0
 14 16  2  0
 16 17  1  0
 17 18  1  0
 17 19  1  0
 17 20  1  0
 16 21  1  0
 21 22  1  0
 21 23  2  0
 23 24  1  0
 24 25  2  0
 24 26  1  0
 26 27  1  0
 27 28  2  0
 28 29  1  0
 28 30  1  0
 30 31  1  0
 30 32  2  0
 32 33  1  0
 32 34  1  0
 34 35  1  0
 34 36  2  0
 36 37  1  0
  6 38  2  0
 38 39  1  0
 38 40  1  0
 40 41  1  0
 40 42  2  0
 42 43  1  0
 42  3  1  0
 23 11  1  0
 36 27  1  0
M  CHG  2  26  -1  43  -1
M  END
>  <UniqueID>  (27) 
25

>  <SMILES>  (27) 
Cc1ccc(O/N=C/c2ccc([O-])c(O)c2)c(C(=O)[N-]c2ccccc2)c1

>  <Energy>  (27) 
58.10243302457823

>  <Genealogy>  (27) 
Cc1ccc(ON=Cc2ccc([O-])c(O)c2)c(C(=O)[N-]c2ccccc2)c1 (protonated)
Cc1ccc(O/N=C/c2ccc([O-])c(O)c2)c(C(=O)[N-]c2ccccc2)c1 (cis-trans isomerization)
Cc1ccc(O/N=C/c2ccc([O-])c(O)c2)c(C(=O)[N-]c2ccccc2)c1 (3D coordinates assigned)
Cc1ccc(O/N=C/c2ccc([O-])c(O)c2)c(C(=O)[N-]c2ccccc2)c1 (optimized conformer: 58.10243302457823 kcal/mol)

>  <smiles>  (27) 
Cc1ccc(ON=Cc2ccc(O)c(O)c2)c(C(=O)Nc2ccccc2)c1

>  <score_type>  (27) 
oracle

>  <origin>  (27) 
adgpu

>  <m_score__min__energy>  (27) 
-11.19

>  <m_primary>  (27) 
energy

$$$$
27:0
     RDKit          3D

 37 39  0  0  0  0  0  0  0  0999 V2000
   -1.6330   26.7090  -24.8320 C   0  0  0  0  0  0  0  0  0  0  0  0
   -1.5630   25.8630  -26.0680 C   0  0  0  0  0  0  0  0  0  0  0  0
   -2.5690   24.9230  -26.3380 C   0  0  0  0  0  0  0  0  0  0  0  0
   -2.5230   24.1570  -27.5080 C   0  0  0  0  0  0  0  0  0  0  0  0
   -1.4790   24.3340  -28.4300 C   0  0  0  0  0  0  0  0  0  0  0  0
   -1.4270   23.4920  -29.6750 C   0  0  0  0  0  0  0  0  0  0  0  0
   -2.7740   23.0870  -30.0700 N   0  0  0  0  0  0  0  0  0  0  0  0
   -3.7900   24.0390  -30.4210 C   0  0  0  0  0  0  0  0  0  0  0  0
   -3.5020   25.2660  -30.4910 O   0  0  0  0  0  0  0  0  0  0  0  0
   -5.1690   23.6000  -30.7430 C   0  0  0  0  0  0  0  0  0  0  0  0
   -6.1820   24.5540  -30.8670 C   0  0  0  0  0  0  0  0  0  0  0  0
   -7.4450   24.1740  -31.1700 N   0  0  0  0  0  0  0  0  0  0  0  0
   -7.7650   22.8680  -31.3520 C   0  0  0  0  0  0  0  0  0  0  0  0
   -9.0850   22.5300  -31.6680 C   0  0  0  0  0  0  0  0  0  0  0  0
   -9.4280   21.1930  -31.8520 C   0  0  0  0  0  0  0  0  0  0  0  0
   -8.4550   20.2070  -31.7180 C   0  0  0  0  0  0  0  0  0  0  0  0
   -8.9120   18.3690  -31.9660 Br  0  0  0  0  0  0  0  0  0  0  0  0
   -7.1440   20.5710  -31.4010 C   0  0  0  0  0  0  0  0  0  0  0  0
   -6.8030   21.8890  -31.2210 N   0  0  0  0  0  0  0  0  0  0  0  0
   -5.5120   22.2440  -30.9070 C   0  0  0  0  0  0  0  0  0  0  0  0
   -4.6320   21.3540  -30.7370 O   0  0  0  0  0  0  0  0  0  0  0  0
   -0.4810   25.2840  -28.1650 C   0  0  0  0  0  0  0  0  0  0  0  0
   -0.5280   26.0490  -26.9960 C   0  0  0  0  0  0  0  0  0  0  0  0
   -1.5796   26.0639  -23.9426 H   0  0  0  0  0  0  0  0  0  0  0  0
   -0.7903   27.4159  -24.8233 H   0  0  0  0  0  0  0  0  0  0  0  0
   -2.5805   27.2678  -24.8233 H   0  0  0  0  0  0  0  0  0  0  0  0
   -3.3973   24.7877  -25.6269 H   0  0  0  0  0  0  0  0  0  0  0  0
   -3.3083   23.4127  -27.7064 H   0  0  0  0  0  0  0  0  0  0  0  0
   -0.9702   24.0748  -30.4884 H   0  0  0  0  0  0  0  0  0  0  0  0
   -0.8275   22.5920  -29.4734 H   0  0  0  0  0  0  0  0  0  0  0  0
   -2.9690   22.0650  -30.1630 H   0  0  0  0  0  0  0  0  0  0  0  0
   -5.9519   25.6192  -30.7176 H   0  0  0  0  0  0  0  0  0  0  0  0
   -9.8478   23.3159  -31.7706 H   0  0  0  0  0  0  0  0  0  0  0  0
  -10.4631   20.9175  -32.1021 H   0  0  0  0  0  0  0  0  0  0  0  0
   -6.3750   19.7918  -31.2942 H   0  0  0  0  0  0  0  0  0  0  0  0
    0.3422   25.4274  -28.8804 H   0  0  0  0  0  0  0  0  0  0  0  0
    0.2511   26.8011  -26.8029 H   0  0  0  0  0  0  0  0  0  0  0  0
  1  2  1  0
  2  3  2  0
  3  4  1  0
  4  5  2  0
  5  6  1  0
  6  7  1  0
  7  8  1  0
  8  9  2  0
  8 10  1  0
 10 11  2  0
 11 12  1  0
 12 13  2  0
 13 14  1  0
 14 15  2  0
 15 16  1  0
 16 17  1  0
 16 18  2  0
 18 19  1  0
 19 20  1  0
 20 21  2  0
  5 22  1  0
 22 23  2  0
 23  2  1  0
 20 10  1  0
 19 13  1  0
  1 24  1  0
  1 25  1  0
  1 26  1  0
  3 27  1  0
  4 28  1  0
  6 29  1  0
  6 30  1  0
  7 31  1  0
 11 32  1  0
 14 33  1  0
 15 34  1  0
 18 35  1  0
 22 36  1  0
 23 37  1  0
M  END
>  <UniqueID>  (28) 
26

>  <SMILES>  (28) 
Cc1ccc(CNC(=O)c2cnc3ccc(Br)cn3c2=O)cc1

>  <Energy>  (28) 
46.77118117123041

>  <Genealogy>  (28) 
Cc1ccc(CNC(=O)c2cnc3ccc(Br)cn3c2=O)cc1 (3D coordinates assigned)
Cc1ccc(CNC(=O)c2cnc3ccc(Br)cn3c2=O)cc1 (optimized conformer: 46.77118117123041 kcal/mol)

>  <smiles>  (28) 
Cc1ccc(CNC(=O)c2cnc3ccc(Br)cn3c2=O)cc1

>  <score_type>  (28) 
oracle

>  <origin>  (28) 
adgpu

>  <m_score__min__energy>  (28) 
-8.5600000000000005

>  <m_primary>  (28) 
energy

$$$$
28:0
     RDKit          3D

 47 49  0  0  0  0  0  0  0  0999 V2000
   -9.4560   18.8250  -32.0900 C   0  0  0  0  0  0  0  0  0  0  0  0
   -7.9740   18.8610  -32.2700 C   0  0  0  0  0  0  0  0  0  0  0  0
   -7.1890   17.7630  -32.2750 N   0  0  0  0  0  0  0  0  0  0  0  0
   -5.9640   18.1450  -32.6130 N   0  0  0  0  0  0  0  0  0  0  0  0
   -4.8400   17.2230  -32.7470 C   0  0  0  0  0  0  0  0  0  0  0  0
   -5.9420   19.4760  -32.8410 C   0  0  0  0  0  0  0  0  0  0  0  0
   -4.7600   20.2500  -33.3400 C   0  0  0  0  0  0  0  0  0  0  0  0
   -7.2190   19.9580  -32.6330 C   0  0  0  0  0  0  0  0  0  0  0  0
   -7.7150   21.2590  -32.9450 N   0  0  0  0  0  0  0  0  0  0  0  0
   -8.2360   22.3300  -31.6920 S   0  0  0  0  0  0  0  0  0  0  0  0
   -9.0640   21.5860  -30.6830 O   0  0  0  0  0  0  0  0  0  0  0  0
   -9.0750   23.4220  -32.2930 O   0  0  0  0  0  0  0  0  0  0  0  0
   -6.8220   23.0360  -30.9150 C   0  0  0  0  0  0  0  0  0  0  0  0
   -5.7750   22.2110  -30.4880 C   0  0  0  0  0  0  0  0  0  0  0  0
   -4.6250   22.7680  -29.9180 C   0  0  0  0  0  0  0  0  0  0  0  0
   -4.5040   24.1630  -29.7800 C   0  0  0  0  0  0  0  0  0  0  0  0
   -3.3410   24.7650  -29.1860 N   0  0  0  0  0  0  0  0  0  0  0  0
   -2.5740   24.1670  -28.0930 C   0  0  0  0  0  0  0  0  0  0  0  0
   -1.8770   25.2470  -27.3070 C   0  0  0  0  0  0  0  0  0  0  0  0
   -1.8210   25.1580  -25.9060 C   0  0  0  0  0  0  0  0  0  0  0  0
   -1.1500   26.1310  -25.1610 C   0  0  0  0  0  0  0  0  0  0  0  0
   -0.5180   27.1960  -25.8080 C   0  0  0  0  0  0  0  0  0  0  0  0
   -0.5540   27.2870  -27.2020 C   0  0  0  0  0  0  0  0  0  0  0  0
   -1.2240   26.3160  -27.9550 C   0  0  0  0  0  0  0  0  0  0  0  0
   -1.2350   26.4230  -29.3410 O   0  0  0  0  0  0  0  0  0  0  0  0
   -5.5660   24.9820  -30.1950 C   0  0  0  0  0  0  0  0  0  0  0  0
   -6.7130   24.4240  -30.7680 C   0  0  0  0  0  0  0  0  0  0  0  0
   -9.6949   18.8192  -31.0163 H   0  0  0  0  0  0  0  0  0  0  0  0
   -9.9042   19.7125  -32.5606 H   0  0  0  0  0  0  0  0  0  0  0  0
   -9.8606   17.9168  -32.5606 H   0  0  0  0  0  0  0  0  0  0  0  0
   -4.4841   16.9311  -31.7479 H   0  0  0  0  0  0  0  0  0  0  0  0
   -5.1641   16.3272  -33.2970 H   0  0  0  0  0  0  0  0  0  0  0  0
   -4.0249   17.7160  -33.2970 H   0  0  0  0  0  0  0  0  0  0  0  0
   -4.1818   20.6286  -32.4842 H   0  0  0  0  0  0  0  0  0  0  0  0
   -4.1232   19.5934  -33.9511 H   0  0  0  0  0  0  0  0  0  0  0  0
   -5.1072   21.0962  -33.9511 H   0  0  0  0  0  0  0  0  0  0  0  0
   -5.8567   21.1199  -30.6011 H   0  0  0  0  0  0  0  0  0  0  0  0
   -3.8111   22.1118  -29.5759 H   0  0  0  0  0  0  0  0  0  0  0  0
   -2.8900   25.5610  -29.6930 H   0  0  0  0  0  0  0  0  0  0  0  0
   -3.2548   23.6140  -27.4292 H   0  0  0  0  0  0  0  0  0  0  0  0
   -1.8231   23.4798  -28.5102 H   0  0  0  0  0  0  0  0  0  0  0  0
   -2.3088   24.3165  -25.3922 H   0  0  0  0  0  0  0  0  0  0  0  0
   -1.1192   26.0585  -24.0638 H   0  0  0  0  0  0  0  0  0  0  0  0
    0.0078   27.9627  -25.2201 H   0  0  0  0  0  0  0  0  0  0  0  0
   -0.0538   28.1250  -27.7094 H   0  0  0  0  0  0  0  0  0  0  0  0
   -5.4952   26.0724  -30.0683 H   0  0  0  0  0  0  0  0  0  0  0  0
   -7.5317   25.0773  -31.1041 H   0  0  0  0  0  0  0  0  0  0  0  0
  1  2  1  0
  2  3  2  0
  3  4  1  0
  4  5  1  0
  4  6  1  0
  6  7  1  0
  6  8  2  0
  8  9  1  0
  9 10  1  0
 10 11  2  0
 10 12  2  0
 10 13  1  0
 13 14  2  0
 14 15  1  0
 15 16  2  0
 16 17  1  0
 17 18  1  0
 18 19  1  0
 19 20  2  0
 20 21  1  0
 21 22  2  0
 22 23  1  0
 23 24  2  0
 24 25  1  0
 16 26  1  0
 26 27  2  0
  8  2  1  0
 27 13  1  0
 24 19  1  0
  1 28  1  0
  1 29  1  0
  1 30  1  0
  5 31  1  0
  5 32  1  0
  5 33  1  0
  7 34  1  0
  7 35  1  0
  7 36  1  0
 14 37  1  0
 15 38  1  0
 17 39  1  0
 18 40  1  0
 18 41  1  0
 20 42  1  0
 21 43  1  0
 22 44  1  0
 23 45  1  0
 26 46  1  0
 27 47  1  0
M  CHG  2   9  -1  25  -1
M  END
>  <UniqueID>  (29) 
27

>  <SMILES>  (29) 
Cc1nn(C)c(C)c1[N-]S(=O)(=O)c1ccc(NCc2ccccc2[O-])cc1

>  <Energy>  (29) 
87.97337234826655

>  <Genealogy>  (29) 
Cc1nn(C)c(C)c1[N-]S(=O)(=O)c1ccc(NCc2ccccc2[O-])cc1 (protonated)
Cc1nn(C)c(C)c1[N-]S(=O)(=O)c1ccc(NCc2ccccc2[O-])cc1 (3D coordinates assigned)
Cc1nn(C)c(C)c1[N-]S(=O)(=O)c1ccc(NCc2ccccc2[O-])cc1 (optimized conformer: 87.97337234826655 kcal/mol)

>  <smiles>  (29) 
Cc1nn(C)c(C)c1NS(=O)(=O)c1ccc(NCc2ccccc2O)cc1

>  <score_type>  (29) 
oracle

>  <origin>  (29) 
adgpu

>  <m_score__min__energy>  (29) 
-12.029999999999999

>  <m_primary>  (29) 
energy

$$$$
29:0
     RDKit          3D

 29 31  0  0  0  0  0  0  0  0999 V2000
   -1.4560   25.4310  -27.8930 C   0  0  0  0  0  0  0  0  0  0  0  0
   -1.8850   25.2830  -29.2430 O   0  0  0  0  0  0  0  0  0  0  0  0
   -2.7640   24.2850  -29.6920 C   0  0  0  0  0  0  0  0  0  0  0  0
   -2.4920   22.9150  -29.5260 C   0  0  0  0  0  0  0  0  0  0  0  0
   -3.3960   21.9550  -29.9880 C   0  0  0  0  0  0  0  0  0  0  0  0
   -4.5870   22.3390  -30.6270 C   0  0  0  0  0  0  0  0  0  0  0  0
   -5.5340   21.3030  -31.1120 C   0  0  0  0  0  0  0  0  0  0  0  0
   -5.2100   20.0410  -31.6010 C   0  0  0  0  0  0  0  0  0  0  0  0
   -6.3630   19.4400  -31.9240 N   0  0  0  0  0  0  0  0  0  0  0  0
   -6.5870   18.2040  -32.4400 C   0  0  0  0  0  0  0  0  0  0  0  0
   -7.9150   17.8220  -32.6850 C   0  0  0  0  0  0  0  0  0  0  0  0
   -8.9600   18.7210  -32.3920 C   0  0  0  0  0  0  0  0  0  0  0  0
   -8.6770   19.9890  -31.8590 C   0  0  0  0  0  0  0  0  0  0  0  0
   -7.3400   20.3130  -31.6370 C   0  0  0  0  0  0  0  0  0  0  0  0
   -6.8810   21.4760  -31.1350 N   0  0  0  0  0  0  0  0  0  0  0  0
   -4.8540   23.7110  -30.7910 C   0  0  0  0  0  0  0  0  0  0  0  0
   -3.9500   24.6720  -30.3280 C   0  0  0  0  0  0  0  0  0  0  0  0
   -4.2360   26.0220  -30.5020 O   0  0  0  0  0  0  0  0  0  0  0  0
   -2.2748   25.1485  -27.2150 H   0  0  0  0  0  0  0  0  0  0  0  0
   -0.5880   24.7804  -27.7107 H   0  0  0  0  0  0  0  0  0  0  0  0
   -1.1738   26.4784  -27.7107 H   0  0  0  0  0  0  0  0  0  0  0  0
   -1.5629   22.5978  -29.0299 H   0  0  0  0  0  0  0  0  0  0  0  0
   -3.1728   20.8868  -29.8499 H   0  0  0  0  0  0  0  0  0  0  0  0
   -4.1998   19.6177  -31.7029 H   0  0  0  0  0  0  0  0  0  0  0  0
   -5.7521   17.5223  -32.6595 H   0  0  0  0  0  0  0  0  0  0  0  0
   -8.1384   16.8290  -33.1023 H   0  0  0  0  0  0  0  0  0  0  0  0
  -10.0031   18.4278  -32.5819 H   0  0  0  0  0  0  0  0  0  0  0  0
   -9.4821   20.7011  -31.6251 H   0  0  0  0  0  0  0  0  0  0  0  0
   -5.7821   24.0302  -31.2878 H   0  0  0  0  0  0  0  0  0  0  0  0
  1  2  1  0
  2  3  1  0
  3  4  2  0
  4  5  1  0
  5  6  2  0
  6  7  1  0
  7  8  2  0
  8  9  1  0
  9 10  1  0
 10 11  2  0
 11 12  1  0
 12 13  2  0
 13 14  1  0
 14 15  2  0
  6 16  1  0
 16 17  2  0
 17 18  1  0
 17  3  1  0
 15  7  1  0
 14  9  1  0
  1 19  1  0
  1 20  1  0
  1 21  1  0
  4 22  1  0
  5 23  1  0
  8 24  1  0
 10 25  1  0
 11 26  1  0
 12 27  1  0
 13 28  1  0
 16 29  1  0
M  CHG  1  18  -1
M  END
>  <UniqueID>  (30) 
28

>  <SMILES>  (30) 
COc1ccc(-c2cn3ccccc3n2)cc1[O-]

>  <Energy>  (30) 
67.35934689050077

>  <Genealogy>  (30) 
COc1ccc(-c2cn3ccccc3n2)cc1[O-] (protonated)
COc1ccc(-c2cn3ccccc3n2)cc1[O-] (3D coordinates assigned)
COc1ccc(-c2cn3ccccc3n2)cc1[O-] (optimized conformer: 67.35934689050077 kcal/mol)

>  <smiles>  (30) 
COc1ccc(-c2cn3ccccc3n2)cc1O

>  <score_type>  (30) 
oracle

>  <origin>  (30) 
adgpu

>  <m_score__min__energy>  (30) 
-9.5899999999999999

>  <m_primary>  (30) 
energy

$$$$
30:0
     RDKit          3D

 52 56  0  0  0  0  0  0  0  0999 V2000
   -8.0300   21.8700  -32.2880 O   0  0  0  0  0  0  0  0  0  0  0  0
   -6.8470   21.4810  -32.0760 C   0  0  0  0  0  0  0  0  0  0  0  0
   -5.8790   22.4360  -31.4690 C   0  0  0  0  0  0  0  0  0  0  0  0
   -4.5240   22.1010  -31.2840 C   0  0  0  0  0  0  0  0  0  0  0  0
   -3.6380   23.0150  -30.7070 C   0  0  0  0  0  0  0  0  0  0  0  0
   -4.0800   24.2790  -30.3090 C   0  0  0  0  0  0  0  0  0  0  0  0
   -3.1610   25.1610  -29.7220 O   0  0  0  0  0  0  0  0  0  0  0  0
   -2.2740   24.8410  -28.6850 C   0  0  0  0  0  0  0  0  0  0  0  0
   -2.6570   24.8960  -27.3310 C   0  0  0  0  0  0  0  0  0  0  0  0
   -1.7370   24.5860  -26.3260 C   0  0  0  0  0  0  0  0  0  0  0  0
   -0.4260   24.2330  -26.6600 C   0  0  0  0  0  0  0  0  0  0  0  0
   -0.0340   24.1960  -28.0000 C   0  0  0  0  0  0  0  0  0  0  0  0
   -0.9530   24.5050  -29.0090 C   0  0  0  0  0  0  0  0  0  0  0  0
   -5.4360   24.6110  -30.4610 C   0  0  0  0  0  0  0  0  0  0  0  0
   -6.3250   23.6990  -31.0390 C   0  0  0  0  0  0  0  0  0  0  0  0
   -6.4770   20.1140  -32.3930 N   0  0  0  0  0  0  0  0  0  0  0  0
   -7.5380   19.1860  -31.9320 C   0  0  0  0  0  0  0  0  0  0  0  0
   -7.4450   17.7880  -32.5830 C   0  0  0  0  0  0  0  0  0  0  0  0
   -6.1340   17.5780  -33.2050 N   0  0  0  0  0  0  0  0  0  0  0  0
   -5.5040   16.2910  -33.1410 C   0  0  0  0  0  0  0  0  0  0  0  0
   -4.3430   16.1060  -32.4520 N   0  0  0  0  0  0  0  0  0  0  0  0
   -3.9610   14.4930  -32.6360 S   0  0  0  0  0  0  0  0  0  0  0  0
   -5.2510   14.0120  -33.5680 C   0  0  0  0  0  0  0  0  0  0  0  0
   -5.5820   12.7590  -34.0710 C   0  0  0  0  0  0  0  0  0  0  0  0
   -6.7760   12.6430  -34.8010 C   0  0  0  0  0  0  0  0  0  0  0  0
   -7.6020   13.7680  -34.9960 C   0  0  0  0  0  0  0  0  0  0  0  0
   -7.2400   15.0220  -34.4700 C   0  0  0  0  0  0  0  0  0  0  0  0
   -6.0370   15.1350  -33.7600 C   0  0  0  0  0  0  0  0  0  0  0  0
   -5.6030   18.5860  -34.1270 C   0  0  0  0  0  0  0  0  0  0  0  0
   -6.2250   19.9620  -33.8420 C   0  0  0  0  0  0  0  0  0  0  0  0
   -4.1595   21.1112  -31.5963 H   0  0  0  0  0  0  0  0  0  0  0  0
   -2.5833   22.7366  -30.5650 H   0  0  0  0  0  0  0  0  0  0  0  0
   -3.6843   25.1841  -27.0635 H   0  0  0  0  0  0  0  0  0  0  0  0
   -2.0447   24.6197  -25.2704 H   0  0  0  0  0  0  0  0  0  0  0  0
    0.2960   23.9847  -25.8681 H   0  0  0  0  0  0  0  0  0  0  0  0
    0.9988   23.9235  -28.2626 H   0  0  0  0  0  0  0  0  0  0  0  0
   -0.6365   24.4840  -30.0623 H   0  0  0  0  0  0  0  0  0  0  0  0
   -5.8006   25.5926  -30.1240 H   0  0  0  0  0  0  0  0  0  0  0  0
   -7.3838   23.9721  -31.1586 H   0  0  0  0  0  0  0  0  0  0  0  0
   -5.5830   19.8810  -31.9010 H   0  0  0  0  0  0  0  0  0  0  0  0
   -7.4527   19.0707  -30.8414 H   0  0  0  0  0  0  0  0  0  0  0  0
   -8.5047   19.6210  -32.2257 H   0  0  0  0  0  0  0  0  0  0  0  0
   -7.6022   17.0213  -31.8101 H   0  0  0  0  0  0  0  0  0  0  0  0
   -8.2162   17.7159  -33.3640 H   0  0  0  0  0  0  0  0  0  0  0  0
   -4.9310   11.8884  -33.9030 H   0  0  0  0  0  0  0  0  0  0  0  0
   -7.0678   11.6697  -35.2225 H   0  0  0  0  0  0  0  0  0  0  0  0
   -8.5381   13.6650  -35.5645 H   0  0  0  0  0  0  0  0  0  0  0  0
   -7.8897   15.8980  -34.6136 H   0  0  0  0  0  0  0  0  0  0  0  0
   -4.5119   18.6500  -34.0031 H   0  0  0  0  0  0  0  0  0  0  0  0
   -5.8527   18.2908  -35.1568 H   0  0  0  0  0  0  0  0  0  0  0  0
   -5.5341   20.7501  -34.1760 H   0  0  0  0  0  0  0  0  0  0  0  0
   -7.1782   20.0462  -34.3845 H   0  0  0  0  0  0  0  0  0  0  0  0
  1  2  2  0
  2  3  1  0
  3  4  2  0
  4  5  1  0
  5  6  2  0
  6  7  1  0
  7  8  1  0
  8  9  2  0
  9 10  1  0
 10 11  2  0
 11 12  1  0
 12 13  2  0
  6 14  1  0
 14 15  2  0
  2 16  1  0
 16 17  1  0
 17 18  1  0
 18 19  1  0
 19 20  1  0
 20 21  2  0
 21 22  1  0
 22 23  1  0
 23 24  2  0
 24 25  1  0
 25 26  2  0
 26 27  1  0
 27 28  2  0
 19 29  1  0
 29 30  1  0
 15  3  1  0
 30 16  1  0
 13  8  1  0
 28 20  1  0
 28 23  1  0
  4 31  1  0
  5 32  1  0
  9 33  1  0
 10 34  1  0
 11 35  1  0
 12 36  1  0
 13 37  1  0
 14 38  1  0
 15 39  1  0
 16 40  1  0
 17 41  1  0
 17 42  1  0
 18 43  1  0
 18 44  1  0
 24 45  1  0
 25 46  1  0
 26 47  1  0
 27 48  1  0
 29 49  1  0
 29 50  1  0
 30 51  1  0
 30 52  1  0
M  CHG  1  16   1
M  END
>  <UniqueID>  (31) 
29

>  <SMILES>  (31) 
O=C(c1ccc(Oc2ccccc2)cc1)[NH+]1CCN(c2nsc3ccccc23)CC1

>  <Energy>  (31) 
116.44317133047642

>  <Genealogy>  (31) 
O=C(c1ccc(Oc2ccccc2)cc1)[NH+]1CCN(c2nsc3ccccc23)CC1 (protonated)
O=C(c1ccc(Oc2ccccc2)cc1)[NH+]1CCN(c2nsc3ccccc23)CC1 (3D coordinates assigned)
O=C(c1ccc(Oc2ccccc2)cc1)[NH+]1CCN(c2nsc3ccccc23)CC1 (nonaromatic ring conformer: 116.44317133047642 kcal/mol)

>  <smiles>  (31) 
O=C(c1ccc(Oc2ccccc2)cc1)N1CCN(c2nsc3ccccc23)CC1

>  <score_type>  (31) 
oracle

>  <origin>  (31) 
adgpu

>  <m_score__min__energy>  (31) 
-8.9100000000000001

>  <m_primary>  (31) 
energy

$$$$
31:0
     RDKit          3D

 59 61  0  0  0  0  0  0  0  0999 V2000
   -2.0590   19.0890  -26.8430 C   0  0  0  0  0  0  0  0  0  0  0  0
   -1.8060   20.4390  -26.3570 N   0  0  0  0  0  0  0  0  0  0  0  0
   -1.0990   21.4510  -27.0840 C   0  0  0  0  0  0  0  0  0  0  0  0
    0.1530   21.5240  -26.9610 O   0  0  0  0  0  0  0  0  0  0  0  0
   -1.7930   22.4320  -27.9420 C   0  0  0  0  0  0  0  0  0  0  0  0
   -2.9420   22.0500  -28.6460 C   0  0  0  0  0  0  0  0  0  0  0  0
   -3.6100   22.9690  -29.4570 C   0  0  0  0  0  0  0  0  0  0  0  0
   -3.1410   24.2880  -29.5700 C   0  0  0  0  0  0  0  0  0  0  0  0
   -3.8240   25.2500  -30.3860 N   0  0  0  0  0  0  0  0  0  0  0  0
   -5.2440   25.4280  -30.4500 C   0  0  0  0  0  0  0  0  0  0  0  0
   -5.8620   25.9720  -29.4970 O   0  0  0  0  0  0  0  0  0  0  0  0
   -5.9830   24.9880  -31.5950 N   0  0  0  0  0  0  0  0  0  0  0  0
   -6.4340   23.6470  -31.8410 C   0  0  0  0  0  0  0  0  0  0  0  0
   -7.7920   23.3820  -31.6960 C   0  0  0  0  0  0  0  0  0  0  0  0
   -8.2950   22.1140  -31.9490 C   0  0  0  0  0  0  0  0  0  0  0  0
   -7.4460   21.0650  -32.3320 C   0  0  0  0  0  0  0  0  0  0  0  0
   -8.0820   19.7290  -32.6190 C   0  0  0  0  0  0  0  0  0  0  0  0
   -6.0400   21.2900  -32.4070 C   0  0  0  0  0  0  0  0  0  0  0  0
   -4.8980   19.9700  -32.8010 S   0  0  0  0  0  0  0  0  0  0  0  0
   -4.9900   18.8970  -31.7530 O   0  0  0  0  0  0  0  0  0  0  0  0
   -5.2110   19.3200  -34.1200 O   0  0  0  0  0  0  0  0  0  0  0  0
   -3.2250   20.6240  -32.8620 C   0  0  0  0  0  0  0  0  0  0  0  0
   -2.4050   19.9160  -33.9530 C   0  0  0  0  0  0  0  0  0  0  0  0
   -1.0000   20.5320  -34.0980 C   0  0  0  0  0  0  0  0  0  0  0  0
   -0.4430   21.1180  -32.7860 C   0  0  0  0  0  0  0  0  0  0  0  0
   -1.0050   20.3980  -31.5570 C   0  0  0  0  0  0  0  0  0  0  0  0
   -2.5410   20.5070  -31.4780 C   0  0  0  0  0  0  0  0  0  0  0  0
   -5.5430   22.6040  -32.1660 C   0  0  0  0  0  0  0  0  0  0  0  0
   -4.1780   22.9050  -32.2180 O   0  0  0  0  0  0  0  0  0  0  0  0
   -2.0120   24.6920  -28.8400 C   0  0  0  0  0  0  0  0  0  0  0  0
   -1.5740   26.0210  -28.9630 O   0  0  0  0  0  0  0  0  0  0  0  0
   -0.8600   26.7300  -27.9560 C   0  0  0  0  0  0  0  0  0  0  0  0
   -1.3450   23.7590  -28.0210 C   0  0  0  0  0  0  0  0  0  0  0  0
   -2.1864   18.4092  -25.9876 H   0  0  0  0  0  0  0  0  0  0  0  0
   -2.9736   19.0847  -27.4542 H   0  0  0  0  0  0  0  0  0  0  0  0
   -1.2080   18.7538  -27.4542 H   0  0  0  0  0  0  0  0  0  0  0  0
   -3.3199   21.0206  -28.5594 H   0  0  0  0  0  0  0  0  0  0  0  0
   -4.5085   22.6585  -30.0105 H   0  0  0  0  0  0  0  0  0  0  0  0
   -8.4731   24.1851  -31.3779 H   0  0  0  0  0  0  0  0  0  0  0  0
   -9.3745   21.9286  -31.8479 H   0  0  0  0  0  0  0  0  0  0  0  0
   -8.3216   19.2257  -31.6707 H   0  0  0  0  0  0  0  0  0  0  0  0
   -9.0052   19.8792  -33.1979 H   0  0  0  0  0  0  0  0  0  0  0  0
   -7.3833   19.1071  -33.1979 H   0  0  0  0  0  0  0  0  0  0  0  0
   -3.2776   21.6918  -33.1210 H   0  0  0  0  0  0  0  0  0  0  0  0
   -2.3030   18.8530  -33.6892 H   0  0  0  0  0  0  0  0  0  0  0  0
   -2.9327   20.0349  -34.9108 H   0  0  0  0  0  0  0  0  0  0  0  0
   -0.3117   19.7488  -34.4485 H   0  0  0  0  0  0  0  0  0  0  0  0
   -1.0858   21.3648  -34.8116 H   0  0  0  0  0  0  0  0  0  0  0  0
    0.6523   21.0169  -32.7878 H   0  0  0  0  0  0  0  0  0  0  0  0
   -0.7428   22.1749  -32.7295 H   0  0  0  0  0  0  0  0  0  0  0  0
   -0.7263   19.3352  -31.6093 H   0  0  0  0  0  0  0  0  0  0  0  0
   -0.5832   20.8754  -30.6602 H   0  0  0  0  0  0  0  0  0  0  0  0
   -2.9280   19.6095  -30.9734 H   0  0  0  0  0  0  0  0  0  0  0  0
   -2.7714   21.4294  -30.9248 H   0  0  0  0  0  0  0  0  0  0  0  0
   -3.7760   23.7970  -31.9750 H   0  0  0  0  0  0  0  0  0  0  0  0
   -1.1967   26.3957  -26.9636 H   0  0  0  0  0  0  0  0  0  0  0  0
    0.2170   26.5338  -28.0631 H   0  0  0  0  0  0  0  0  0  0  0  0
   -1.0487   27.8084  -28.0631 H   0  0  0  0  0  0  0  0  0  0  0  0
   -0.4662   24.0738  -27.4391 H   0  0  0  0  0  0  0  0  0  0  0  0
  1  2  1  0
  2  3  1  0
  3  4  2  0
  3  5  1  0
  5  6  2  0
  6  7  1  0
  7  8  2  0
  8  9  1  0
  9 10  1  0
 10 11  2  0
 10 12  1  0
 12 13  1  0
 13 14  2  0
 14 15  1  0
 15 16  2  0
 16 17  1  0
 16 18  1  0
 18 19  1  0
 19 20  2  0
 19 21  2  0
 19 22  1  0
 22 23  1  0
 23 24  1  0
 24 25  1  0
 25 26  1  0
 26 27  1  0
 18 28  2  0
 28 29  1  0
  8 30  1  0
 30 31  1  0
 31 32  1  0
 30 33  2  0
 33  5  1  0
 28 13  1  0
 27 22  1  0
  1 34  1  0
  1 35  1  0
  1 36  1  0
  6 37  1  0
  7 38  1  0
 14 39  1  0
 15 40  1  0
 17 41  1  0
 17 42  1  0
 17 43  1  0
 22 44  1  0
 23 45  1  0
 23 46  1  0
 24 47  1  0
 24 48  1  0
 25 49  1  0
 25 50  1  0
 26 51  1  0
 26 52  1  0
 27 53  1  0
 27 54  1  0
 29 55  1  0
 32 56  1  0
 32 57  1  0
 32 58  1  0
 33 59  1  0
M  CHG  3   2  -1   9  -1  12  -1
M  END
>  <UniqueID>  (32) 
30

>  <SMILES>  (32) 
C[N-]C(=O)c1ccc([N-]C(=O)[N-]c2ccc(C)c(S(=O)(=O)C3CCCCC3)c2O)c(OC)c1

>  <Energy>  (32) 
74.93575370766666

>  <Genealogy>  (32) 
C[N-]C(=O)c1ccc([N-]C(=O)[N-]c2ccc(C)c(S(=O)(=O)C3CCCCC3)c2O)c(OC)c1 (protonated)
C[N-]C(=O)c1ccc([N-]C(=O)[N-]c2ccc(C)c(S(=O)(=O)C3CCCCC3)c2O)c(OC)c1 (3D coordinates assigned)
C[N-]C(=O)c1ccc([N-]C(=O)[N-]c2ccc(C)c(S(=O)(=O)C3CCCCC3)c2O)c(OC)c1 (nonaromatic ring conformer: 74.93575370766666 kcal/mol)

>  <smiles>  (32) 
CNC(=O)c1ccc(NC(=O)Nc2ccc(C)c(S(=O)(=O)C3CCCCC3)c2O)c(OC)c1

>  <score_type>  (32) 
oracle

>  <origin>  (32) 
adgpu

>  <m_score__min__energy>  (32) 
-13.800000000000001

>  <m_primary>  (32) 
energy

$$$$
32:0
     RDKit          3D

 53 55  0  0  0  0  0  0  0  0999 V2000
   -3.9298   23.4261  -27.4385 H   0  0  0  0  0  0  0  0  0  0  0  0
   -3.5750   23.0170  -28.3960 C   0  0  0  0  0  0  0  0  0  0  0  0
   -2.6470   22.0340  -28.3140 C   0  0  0  0  0  0  0  0  0  0  0  0
   -2.3030   21.4540  -27.1100 C   0  0  0  0  0  0  0  0  0  0  0  0
   -2.6960   21.7547  -26.1276 H   0  0  0  0  0  0  0  0  0  0  0  0
   -1.4170   20.4680  -27.3180 N   0  0  0  0  0  0  0  0  0  0  0  0
   -1.2140   20.4620  -28.6520 C   0  0  0  0  0  0  0  0  0  0  0  0
   -0.3990   19.5720  -29.2490 C   0  0  0  0  0  0  0  0  0  0  0  0
   -0.2801   19.6147  -30.3417 H   0  0  0  0  0  0  0  0  0  0  0  0
    0.3550   18.5220  -28.4810 C   0  0  0  0  0  0  0  0  0  0  0  0
   -0.2658   18.1744  -27.6421 H   0  0  0  0  0  0  0  0  0  0  0  0
    1.2915   18.9637  -28.1096 H   0  0  0  0  0  0  0  0  0  0  0  0
    0.7000   17.3270  -29.3790 C   0  0  0  0  0  0  0  0  0  0  0  0
    0.1807   16.4332  -29.0028 H   0  0  0  0  0  0  0  0  0  0  0  0
    1.7897   17.1781  -29.3591 H   0  0  0  0  0  0  0  0  0  0  0  0
    0.2720   17.5820  -30.8210 C   0  0  0  0  0  0  0  0  0  0  0  0
   -0.6730   18.1450  -30.8289 H   0  0  0  0  0  0  0  0  0  0  0  0
    1.0499   18.1640  -31.3369 H   0  0  0  0  0  0  0  0  0  0  0  0
    0.1305   16.6208  -31.3369 H   0  0  0  0  0  0  0  0  0  0  0  0
   -1.9330   21.4220  -29.3030 N   0  0  0  0  0  0  0  0  0  0  0  0
   -1.8070   21.7750  -30.7300 C   0  0  0  0  0  0  0  0  0  0  0  0
   -2.0091   22.8501  -30.8451 H   0  0  0  0  0  0  0  0  0  0  0  0
   -0.7860   21.5151  -31.0461 H   0  0  0  0  0  0  0  0  0  0  0  0
   -2.7660   21.0060  -31.6120 C   0  0  0  0  0  0  0  0  0  0  0  0
   -3.9350   20.4750  -31.0440 C   0  0  0  0  0  0  0  0  0  0  0  0
   -4.1534   20.6522  -29.9806 H   0  0  0  0  0  0  0  0  0  0  0  0
   -4.8240   19.7230  -31.8180 C   0  0  0  0  0  0  0  0  0  0  0  0
   -5.7199   19.2872  -31.3517 H   0  0  0  0  0  0  0  0  0  0  0  0
   -4.5820   19.5200  -33.1850 C   0  0  0  0  0  0  0  0  0  0  0  0
   -5.5060   18.6510  -33.9990 C   0  0  0  0  0  0  0  0  0  0  0  0
   -6.4840   19.4130  -34.6150 F   0  0  0  0  0  0  0  0  0  0  0  0
   -6.1310   17.7150  -33.1930 F   0  0  0  0  0  0  0  0  0  0  0  0
   -4.7710   17.9910  -34.9680 F   0  0  0  0  0  0  0  0  0  0  0  0
   -3.4180   20.0600  -33.7580 C   0  0  0  0  0  0  0  0  0  0  0  0
   -3.2069   19.8918  -34.8244 H   0  0  0  0  0  0  0  0  0  0  0  0
   -2.5260   20.8090  -32.9850 C   0  0  0  0  0  0  0  0  0  0  0  0
   -1.6316   21.2469  -33.4522 H   0  0  0  0  0  0  0  0  0  0  0  0
   -4.1820   23.6200  -29.6380 C   0  0  2  0  0  0  0  0  0  0  0  0
   -4.0622   22.9092  -30.4689 H   0  0  0  0  0  0  0  0  0  0  0  0
   -3.4760   24.9000  -29.9970 C   0  0  0  0  0  0  0  0  0  0  0  0
   -3.9610   25.6650  -30.8700 O   0  0  0  0  0  0  0  0  0  0  0  0
   -2.3200   25.2780  -29.3220 O   0  0  0  0  0  0  0  0  0  0  0  0
   -5.6870   23.8800  -29.4240 C   0  0  0  0  0  0  0  0  0  0  0  0
   -5.9592   23.5896  -28.3985 H   0  0  0  0  0  0  0  0  0  0  0  0
   -5.8830   24.9498  -29.5885 H   0  0  0  0  0  0  0  0  0  0  0  0
   -6.5160   23.0900  -30.3930 C   0  0  0  0  0  0  0  0  0  0  0  0
   -6.1600   22.8560  -32.0200 S   0  0  0  0  0  0  0  0  0  0  0  0
   -7.4450   21.8160  -32.3370 C   0  0  0  0  0  0  0  0  0  0  0  0
   -7.6787   21.3602  -33.3105 H   0  0  0  0  0  0  0  0  0  0  0  0
   -8.1600   21.6310  -31.1610 C   0  0  0  0  0  0  0  0  0  0  0  0
   -9.0509   20.9894  -31.0927 H   0  0  0  0  0  0  0  0  0  0  0  0
   -7.6400   22.3380  -30.0710 C   0  0  0  0  0  0  0  0  0  0  0  0
   -8.0763   22.3023  -29.0619 H   0  0  0  0  0  0  0  0  0  0  0  0
  1  2  1  0
  2  3  2  3
  3  4  1  0
  4  5  1  0
  4  6  2  0
  6  7  1  0
  7  8  2  0
  8  9  1  0
  8 10  1  0
 10 11  1  0
 10 12  1  0
 10 13  1  0
 13 14  1  0
 13 15  1  0
 13 16  1  0
 16 17  1  0
 16 18  1  0
 16 19  1  0
  7 20  1  0
 20 21  1  0
 21 22  1  0
 21 23  1  0
 21 24  1  0
 24 25  2  0
 25 26  1  0
 25 27  1  0
 27 28  1  0
 27 29  2  0
 29 30  1  0
 30 31  1  0
 30 32  1  0
 30 33  1  0
 29 34  1  0
 34 35  1  0
 34 36  2  0
 36 37  1  0
  2 38  1  0
 38 39  1  6
 38 40  1  0
 40 41  2  0
 40 42  1  0
 38 43  1  0
 43 44  1  0
 43 45  1  0
 43 46  1  0
 46 47  1  0
 47 48  1  0
 48 49  1  0
 48 50  2  0
 50 51  1  0
 50 52  1  0
 52 53  1  0
 20  3  1  0
 36 24  1  0
 52 46  2  0
M  CHG  1  42  -1
M  END
>  <UniqueID>  (33) 
31

>  <SMILES>  (33) 
CCC/C=c1\ncc(=C[C@@H](Cc2cccs2)C(=O)[O-])n1Cc1ccc(C(F)(F)F)cc1

>  <Energy>  (33) 
110.52533644979715

>  <Genealogy>  (33) 
CCCC=c1ncc(=CC(Cc2cccs2)C(=O)[O-])n1Cc1ccc(C(F)(F)F)cc1 (protonated)
CCCC=c1ncc(=C[C@@H](Cc2cccs2)C(=O)[O-])n1Cc1ccc(C(F)(F)F)cc1 (chirality)
CCC/C=c1\ncc(=C[C@@H](Cc2cccs2)C(=O)[O-])n1Cc1ccc(C(F)(F)F)cc1 (cis-trans isomerization)
CCC/C=c1\ncc(=C[C@@H](Cc2cccs2)C(=O)[O-])n1Cc1ccc(C(F)(F)F)cc1 (3D coordinates assigned)
CCC/C=c1\ncc(=C[C@@H](Cc2cccs2)C(=O)[O-])n1Cc1ccc(C(F)(F)F)cc1 (optimized conformer: 110.52533644979715 kcal/mol)

>  <smiles>  (33) 
CCCC=c1ncc(=CC(Cc2cccs2)C(=O)O)n1Cc1ccc(C(F)(F)F)cc1

>  <score_type>  (33) 
oracle

>  <origin>  (33) 
adgpu

>  <m_score__min__energy>  (33) 
-11.19

>  <m_primary>  (33) 
energy

$$$$
33:0
     RDKit          3D

 54 56  0  0  0  0  0  0  0  0999 V2000
    1.8170   19.8110  -33.7560 C   0  0  0  0  0  0  0  0  0  0  0  0
    0.5720   20.4040  -33.1650 C   0  0  0  0  0  0  0  0  0  0  0  0
    0.4230   20.4950  -31.7750 C   0  0  0  0  0  0  0  0  0  0  0  0
   -0.7530   21.0130  -31.2240 C   0  0  0  0  0  0  0  0  0  0  0  0
   -1.8050   21.4370  -32.0540 C   0  0  0  0  0  0  0  0  0  0  0  0
   -3.0410   21.9840  -31.4450 C   0  0  0  0  0  0  0  0  0  0  0  0
   -4.2890   22.0830  -32.0390 C   0  0  0  0  0  0  0  0  0  0  0  0
   -5.1180   22.6460  -31.0890 C   0  0  0  0  0  0  0  0  0  0  0  0
   -6.8600   22.8430  -31.2690 S   0  0  0  0  0  0  0  0  0  0  0  0
   -7.1610   23.8170  -32.3720 O   0  0  0  0  0  0  0  0  0  0  0  0
   -7.4530   23.3470  -29.9830 O   0  0  0  0  0  0  0  0  0  0  0  0
   -7.5940   21.2880  -31.6570 C   0  0  0  0  0  0  0  0  0  0  0  0
   -8.9490   21.2160  -32.0110 C   0  0  0  0  0  0  0  0  0  0  0  0
   -9.5230   19.9840  -32.3440 C   0  0  0  0  0  0  0  0  0  0  0  0
   -8.7450   18.8230  -32.3300 C   0  0  0  0  0  0  0  0  0  0  0  0
   -7.3920   18.8920  -31.9860 C   0  0  0  0  0  0  0  0  0  0  0  0
   -6.8160   20.1220  -31.6530 C   0  0  0  0  0  0  0  0  0  0  0  0
   -4.3200   22.8600  -29.9710 C   0  0  0  0  0  0  0  0  0  0  0  0
   -4.6970   23.4210  -28.7060 N   0  0  0  0  0  0  0  0  0  0  0  0
   -3.8560   23.3350  -27.5110 C   0  0  0  0  0  0  0  0  0  0  0  0
   -2.9240   24.5480  -27.4110 C   0  0  0  0  0  0  0  0  0  0  0  0
   -2.2860   24.8700  -28.7690 C   0  0  0  0  0  0  0  0  0  0  0  0
   -0.8290   25.0850  -28.6250 N   0  0  0  0  0  0  0  0  0  0  0  0
   -0.1100   23.8010  -28.5370 C   0  0  0  0  0  0  0  0  0  0  0  0
   -0.5480   25.8830  -27.4200 C   0  0  0  0  0  0  0  0  0  0  0  0
   -3.0980   22.4510  -30.2180 O   0  0  0  0  0  0  0  0  0  0  0  0
   -1.6570   21.3280  -33.4490 C   0  0  0  0  0  0  0  0  0  0  0  0
   -0.4810   20.8090  -33.9980 C   0  0  0  0  0  0  0  0  0  0  0  0
    2.4901   19.4904  -32.9472 H   0  0  0  0  0  0  0  0  0  0  0  0
    1.5506   18.9430  -34.3771 H   0  0  0  0  0  0  0  0  0  0  0  0
    2.3231   20.5648  -34.3771 H   0  0  0  0  0  0  0  0  0  0  0  0
    1.2349   20.1574  -31.1141 H   0  0  0  0  0  0  0  0  0  0  0  0
   -0.8557   21.0893  -30.1315 H   0  0  0  0  0  0  0  0  0  0  0  0
   -4.5633   21.7758  -33.0590 H   0  0  0  0  0  0  0  0  0  0  0  0
   -9.5617   22.1295  -32.0269 H   0  0  0  0  0  0  0  0  0  0  0  0
  -10.5872   19.9293  -32.6170 H   0  0  0  0  0  0  0  0  0  0  0  0
   -9.1976   17.8547  -32.5898 H   0  0  0  0  0  0  0  0  0  0  0  0
   -6.7799   17.9781  -31.9772 H   0  0  0  0  0  0  0  0  0  0  0  0
   -5.7499   20.1746  -31.3873 H   0  0  0  0  0  0  0  0  0  0  0  0
   -5.7020   23.6840  -28.5960 H   0  0  0  0  0  0  0  0  0  0  0  0
   -4.4993   23.3003  -26.6194 H   0  0  0  0  0  0  0  0  0  0  0  0
   -3.2426   22.4243  -27.5771 H   0  0  0  0  0  0  0  0  0  0  0  0
   -3.5036   25.4190  -27.0712 H   0  0  0  0  0  0  0  0  0  0  0  0
   -2.1219   24.3134  -26.6958 H   0  0  0  0  0  0  0  0  0  0  0  0
   -2.4607   24.0306  -29.4581 H   0  0  0  0  0  0  0  0  0  0  0  0
   -2.7417   25.7898  -29.1644 H   0  0  0  0  0  0  0  0  0  0  0  0
    0.0386   23.5357  -27.4799 H   0  0  0  0  0  0  0  0  0  0  0  0
   -0.6997   23.0158  -29.0327 H   0  0  0  0  0  0  0  0  0  0  0  0
    0.8676   23.8935  -29.0327 H   0  0  0  0  0  0  0  0  0  0  0  0
   -0.7599   25.2811  -26.5240 H   0  0  0  0  0  0  0  0  0  0  0  0
    0.5101   26.1837  -27.4179 H   0  0  0  0  0  0  0  0  0  0  0  0
   -1.1842   26.7803  -27.4179 H   0  0  0  0  0  0  0  0  0  0  0  0
   -2.4722   21.6534  -34.1120 H   0  0  0  0  0  0  0  0  0  0  0  0
   -0.3809   20.7177  -35.0896 H   0  0  0  0  0  0  0  0  0  0  0  0
  1  2  1  0
  2  3  2  0
  3  4  1  0
  4  5  2  0
  5  6  1  0
  6  7  2  0
  7  8  1  0
  8  9  1  0
  9 10  2  0
  9 11  2  0
  9 12  1  0
 12 13  2  0
 13 14  1  0
 14 15  2  0
 15 16  1  0
 16 17  2  0
  8 18  2  0
 18 19  1  0
 19 20  1  0
 20 21  1  0
 21 22  1  0
 22 23  1  0
 23 24  1  0
 23 25  1  0
 18 26  1  0
  5 27  1  0
 27 28  2  0
 28  2  1  0
 26  6  1  0
 17 12  1  0
  1 29  1  0
  1 30  1  0
  1 31  1  0
  3 32  1  0
  4 33  1  0
  7 34  1  0
 13 35  1  0
 14 36  1  0
 15 37  1  0
 16 38  1  0
 17 39  1  0
 19 40  1  0
 20 41  1  0
 20 42  1  0
 21 43  1  0
 21 44  1  0
 22 45  1  0
 22 46  1  0
 24 47  1  0
 24 48  1  0
 24 49  1  0
 25 50  1  0
 25 51  1  0
 25 52  1  0
 27 53  1  0
 28 54  1  0
M  END
>  <UniqueID>  (34) 
32

>  <SMILES>  (34) 
Cc1ccc(-c2cc(S(=O)(=O)c3ccccc3)c(NCCCN(C)C)o2)cc1

>  <Energy>  (34) 
84.0107599695237

>  <Genealogy>  (34) 
Cc1ccc(-c2cc(S(=O)(=O)c3ccccc3)c(NCCCN(C)C)o2)cc1 (3D coordinates assigned)
Cc1ccc(-c2cc(S(=O)(=O)c3ccccc3)c(NCCCN(C)C)o2)cc1 (optimized conformer: 84.0107599695237 kcal/mol)

>  <smiles>  (34) 
Cc1ccc(-c2cc(S(=O)(=O)c3ccccc3)c(NCCCN(C)C)o2)cc1

>  <score_type>  (34) 
oracle

>  <origin>  (34) 
adgpu

>  <m_score__min__energy>  (34) 
-9.2100000000000009

>  <m_primary>  (34) 
energy

$$$$
34:0
     RDKit          3D

 44 46  0  0  0  0  0  0  0  0999 V2000
   -0.4180   25.8920  -27.5280 C   0  0  0  0  0  0  0  0  0  0  0  0
   -1.6830   25.2480  -27.9940 C   0  0  0  0  0  0  0  0  0  0  0  0
   -2.5330   24.5480  -27.1400 C   0  0  0  0  0  0  0  0  0  0  0  0
   -3.8100   23.9520  -28.0580 S   0  0  0  0  0  0  0  0  0  0  0  0
   -3.2090   24.5900  -29.5000 C   0  0  0  0  0  0  0  0  0  0  0  0
   -3.7770   24.5220  -30.6690 N   0  0  0  0  0  0  0  0  0  0  0  0
   -4.9720   23.7970  -30.9960 C   0  0  0  0  0  0  0  0  0  0  0  0
   -5.0380   22.4310  -30.6940 C   0  0  0  0  0  0  0  0  0  0  0  0
   -6.2000   21.7030  -30.9660 C   0  0  0  0  0  0  0  0  0  0  0  0
   -7.3180   22.3390  -31.5200 C   0  0  0  0  0  0  0  0  0  0  0  0
   -8.7650   21.4030  -31.8870 S   0  0  0  0  0  0  0  0  0  0  0  0
   -9.2320   20.7380  -30.6210 O   0  0  0  0  0  0  0  0  0  0  0  0
   -9.8570   22.3200  -32.3650 O   0  0  0  0  0  0  0  0  0  0  0  0
   -8.4200   20.1760  -33.0920 N   0  0  2  0  0  0  0  0  0  0  0  0
   -9.0040   18.8670  -32.7220 C   0  0  0  0  0  0  0  0  0  0  0  0
   -8.2610   18.1770  -31.5620 C   0  0  0  0  0  0  0  0  0  0  0  0
   -6.7220   18.3350  -31.6440 C   0  0  1  0  0  0  0  0  0  0  0  0
   -6.0080   17.0370  -31.2510 C   0  0  0  0  0  0  0  0  0  0  0  0
   -6.2810   18.7950  -33.0390 C   0  0  0  0  0  0  0  0  0  0  0  0
   -6.9650   20.1230  -33.4150 C   0  0  0  0  0  0  0  0  0  0  0  0
   -7.2660   23.7110  -31.7960 C   0  0  0  0  0  0  0  0  0  0  0  0
   -6.1040   24.4400  -31.5250 C   0  0  0  0  0  0  0  0  0  0  0  0
   -2.0590   25.2670  -29.3020 N   0  0  0  0  0  0  0  0  0  0  0  0
   -0.3958   25.9033  -26.4283 H   0  0  0  0  0  0  0  0  0  0  0  0
    0.4441   25.3230  -27.9063 H   0  0  0  0  0  0  0  0  0  0  0  0
   -0.3709   26.9238  -27.9063 H   0  0  0  0  0  0  0  0  0  0  0  0
   -2.3935   24.4098  -26.0577 H   0  0  0  0  0  0  0  0  0  0  0  0
   -4.1710   21.9284  -30.2404 H   0  0  0  0  0  0  0  0  0  0  0  0
   -6.2364   20.6262  -30.7440 H   0  0  0  0  0  0  0  0  0  0  0  0
   -8.9220   20.4900  -33.9550 H   0  0  0  0  0  0  0  0  0  0  0  0
  -10.0509   19.0233  -32.4228 H   0  0  0  0  0  0  0  0  0  0  0  0
   -8.9189   18.2110  -33.6009 H   0  0  0  0  0  0  0  0  0  0  0  0
   -8.6076   18.6156  -30.6146 H   0  0  0  0  0  0  0  0  0  0  0  0
   -8.4833   17.1015  -31.6248 H   0  0  0  0  0  0  0  0  0  0  0  0
   -6.4338   19.1143  -30.9232 H   0  0  0  0  0  0  0  0  0  0  0  0
   -5.9654   16.9595  -30.1546 H   0  0  0  0  0  0  0  0  0  0  0  0
   -6.5600   16.1771  -31.6582 H   0  0  0  0  0  0  0  0  0  0  0  0
   -4.9862   17.0429  -31.6582 H   0  0  0  0  0  0  0  0  0  0  0  0
   -5.1901   18.9362  -33.0447 H   0  0  0  0  0  0  0  0  0  0  0  0
   -6.5700   18.0279  -33.7725 H   0  0  0  0  0  0  0  0  0  0  0  0
   -6.4615   20.9360  -32.8715 H   0  0  0  0  0  0  0  0  0  0  0  0
   -6.8806   20.2230  -34.5072 H   0  0  0  0  0  0  0  0  0  0  0  0
   -8.1423   24.2169  -32.2275 H   0  0  0  0  0  0  0  0  0  0  0  0
   -6.0759   25.5210  -31.7267 H   0  0  0  0  0  0  0  0  0  0  0  0
  1  2  1  0
  2  3  2  0
  3  4  1  0
  4  5  1  0
  5  6  2  3
  6  7  1  0
  7  8  2  0
  8  9  1  0
  9 10  2  0
 10 11  1  0
 11 12  2  0
 11 13  2  0
 11 14  1  0
 14 15  1  0
 15 16  1  0
 16 17  1  0
 17 18  1  0
 17 19  1  0
 19 20  1  0
 10 21  1  0
 21 22  2  0
  5 23  1  0
 23  2  1  0
 22  7  1  0
 20 14  1  0
  1 24  1  0
  1 25  1  0
  1 26  1  0
  3 27  1  0
  8 28  1  0
  9 29  1  0
 14 30  1  6
 15 31  1  0
 15 32  1  0
 16 33  1  0
 16 34  1  0
 17 35  1  1
 18 36  1  0
 18 37  1  0
 18 38  1  0
 19 39  1  0
 19 40  1  0
 20 41  1  0
 20 42  1  0
 21 43  1  0
 22 44  1  0
M  CHG  2  14   1  23  -1
M  END
>  <UniqueID>  (35) 
33

>  <SMILES>  (35) 
Cc1csc(=Nc2ccc(S(=O)(=O)[NH+]3CCC(C)CC3)cc2)[n-]1

>  <Energy>  (35) 
86.27435019381535

>  <Genealogy>  (35) 
Cc1csc(=Nc2ccc(S(=O)(=O)[NH+]3CCC(C)CC3)cc2)[n-]1 (protonated)
Cc1csc(=Nc2ccc(S(=O)(=O)[NH+]3CCC(C)CC3)cc2)[n-]1 (3D coordinates assigned)
Cc1csc(=Nc2ccc(S(=O)(=O)[NH+]3CCC(C)CC3)cc2)[n-]1 (nonaromatic ring conformer: 86.27435019381535 kcal/mol)

>  <smiles>  (35) 
Cc1csc(=Nc2ccc(S(=O)(=O)N3CCC(C)CC3)cc2)[nH]1

>  <score_type>  (35) 
oracle

>  <origin>  (35) 
adgpu

>  <m_score__min__energy>  (35) 
-11.01

>  <m_primary>  (35) 
energy

$$$$
35:0
     RDKit          3D

 38 40  0  0  1  0  0  0  0  0999 V2000
   -2.5310   21.8870  -31.9180 C   0  0  0  0  0  0  0  0  0  0  0  0
   -2.9670   23.0670  -31.2820 O   0  0  0  0  0  0  0  0  0  0  0  0
   -4.3310   23.3130  -31.2360 C   0  0  0  0  0  0  0  0  0  0  0  0
   -5.2690   22.3670  -31.5640 C   0  0  0  0  0  0  0  0  0  0  0  0
   -6.6250   22.6100  -31.5190 C   0  0  0  0  0  0  0  0  0  0  0  0
   -7.6330   21.6170  -31.8640 C   0  0  0  0  0  0  0  0  0  0  0  0
   -7.3380   20.3750  -32.3320 C   0  0  0  0  0  0  0  0  0  0  0  0
   -8.3210   19.4420  -32.6540 C   0  0  0  0  0  0  0  0  0  0  0  0
   -8.0370   18.2660  -33.0970 N   0  0  0  0  0  0  0  0  0  0  0  0
   -6.6760   17.8840  -33.2710 C   0  0  0  0  0  0  0  0  0  0  0  0
   -5.9480   18.5880  -34.2240 C   0  0  0  0  0  0  0  0  0  0  0  0
   -4.6270   18.2940  -34.4640 C   0  0  0  0  0  0  0  0  0  0  0  0
   -4.0080   17.2830  -33.7490 C   0  0  0  0  0  0  0  0  0  0  0  0
   -4.7570   16.6020  -32.8100 C   0  0  0  0  0  0  0  0  0  0  0  0
   -4.1370   15.5850  -32.0890 O   0  0  0  0  0  0  0  0  0  0  0  0
   -6.0780   16.8740  -32.5480 C   0  0  0  0  0  0  0  0  0  0  0  0
   -9.6110   19.7930  -32.4940 N   0  0  0  0  0  0  0  0  0  0  0  0
   -9.9070   21.0210  -32.0310 C   0  0  0  0  0  0  0  0  0  0  0  0
   -8.9550   21.9210  -31.7200 N   0  0  0  0  0  0  0  0  0  0  0  0
   -7.0170   23.8730  -31.1230 C   0  0  0  0  0  0  0  0  0  0  0  0
   -6.1090   24.8520  -30.7850 C   0  0  0  0  0  0  0  0  0  0  0  0
   -4.7610   24.5650  -30.8440 C   0  0  0  0  0  0  0  0  0  0  0  0
   -3.8610   25.5640  -30.5000 O   0  0  0  0  0  0  0  0  0  0  0  0
   -2.2554   21.1411  -31.1579 H   0  0  0  0  0  0  0  0  0  0  0  0
   -3.3412   21.4882  -32.5462 H   0  0  0  0  0  0  0  0  0  0  0  0
   -1.6562   22.1108  -32.5462 H   0  0  0  0  0  0  0  0  0  0  0  0
   -4.9236   21.3706  -31.8767 H   0  0  0  0  0  0  0  0  0  0  0  0
   -6.2819   20.0960  -32.4614 H   0  0  0  0  0  0  0  0  0  0  0  0
   -6.4365   19.3919  -34.7941 H   0  0  0  0  0  0  0  0  0  0  0  0
   -4.0640   18.8596  -35.2210 H   0  0  0  0  0  0  0  0  0  0  0  0
   -2.9518   17.0300  -33.9236 H   0  0  0  0  0  0  0  0  0  0  0  0
   -3.1800   15.3260  -32.2890 H   0  0  0  0  0  0  0  0  0  0  0  0
   -6.6376   16.3070  -31.7895 H   0  0  0  0  0  0  0  0  0  0  0  0
  -10.3940   19.1350  -32.7200 H   0  0  0  0  0  0  0  0  0  0  0  0
  -10.9633   21.2994  -31.9020 H   0  0  0  0  0  0  0  0  0  0  0  0
   -8.0911   24.1055  -31.0758 H   0  0  0  0  0  0  0  0  0  0  0  0
   -6.4539   25.8487  -30.4724 H   0  0  0  0  0  0  0  0  0  0  0  0
   -2.9310   25.6710  -30.8530 H   0  0  0  0  0  0  0  0  0  0  0  0
  1  2  1  0
  2  3  1  0
  3  4  2  0
  4  5  1  0
  5  6  1  0
  6  7  2  0
  7  8  1  0
  8  9  2  0
  9 10  1  0
 10 11  2  0
 11 12  1  0
 12 13  2  0
 13 14  1  0
 14 15  1  0
 14 16  2  0
  8 17  1  0
 17 18  1  0
 18 19  2  0
  5 20  2  0
 20 21  1  0
 21 22  2  0
 22 23  1  0
 22  3  1  0
 19  6  1  0
 16 10  1  0
  1 24  1  0
  1 25  1  0
  1 26  1  0
  4 27  1  0
  7 28  1  0
 11 29  1  0
 12 30  1  0
 13 31  1  0
 15 32  1  0
 16 33  1  0
 17 34  1  0
 18 35  1  0
 20 36  1  0
 21 37  1  0
 23 38  1  0
M  END
>  <smiles>  (36) 
COc1cc(-c2cc(=Nc3cccc(O)c3)[nH]cn2)ccc1O

>  <score_type>  (36) 
oracle

>  <origin>  (36) 
adgpu

>  <m_score__min__energy>  (36) 
-8.6400000000000006

>  <m_primary>  (36) 
energy

$$$$
36:0
     RDKit          3D

 43 45  0  0  0  0  0  0  0  0999 V2000
   -7.0299   19.3342  -34.1262 H   0  0  0  0  0  0  0  0  0  0  0  0
   -6.4940   18.9910  -33.2290 C   0  0  0  0  0  0  0  0  0  0  0  0
   -6.5660   19.7450  -32.1220 C   0  0  0  0  0  0  0  0  0  0  0  0
   -6.0306   19.4131  -31.2203 H   0  0  0  0  0  0  0  0  0  0  0  0
   -7.3410   21.0110  -32.0670 C   0  0  0  0  0  0  0  0  0  0  0  0
   -8.7450   20.9770  -32.1860 C   0  0  0  0  0  0  0  0  0  0  0  0
   -9.2564   20.0126  -32.3214 H   0  0  0  0  0  0  0  0  0  0  0  0
   -9.4920   22.1520  -32.1340 C   0  0  0  0  0  0  0  0  0  0  0  0
  -10.5872   22.1107  -32.2282 H   0  0  0  0  0  0  0  0  0  0  0  0
   -8.8550   23.3790  -31.9630 C   0  0  0  0  0  0  0  0  0  0  0  0
   -9.4480   24.3042  -31.9148 H   0  0  0  0  0  0  0  0  0  0  0  0
   -7.4670   23.4350  -31.8530 C   0  0  0  0  0  0  0  0  0  0  0  0
   -6.9721   24.4070  -31.7104 H   0  0  0  0  0  0  0  0  0  0  0  0
   -6.6910   22.2640  -31.9220 C   0  0  0  0  0  0  0  0  0  0  0  0
   -4.9280   22.3890  -31.7490 S   0  0  0  0  0  0  0  0  0  0  0  0
   -4.4650   21.2330  -30.9090 O   0  0  0  0  0  0  0  0  0  0  0  0
   -4.2370   22.3130  -33.0800 O   0  0  0  0  0  0  0  0  0  0  0  0
   -4.4600   23.8490  -30.9310 N   0  0  0  0  0  0  0  0  0  0  0  0
   -3.4100   24.0970  -30.1990 C   0  0  0  0  0  0  0  0  0  0  0  0
   -3.2200   25.2780  -29.6590 O   0  0  0  0  0  0  0  0  0  0  0  0
   -2.1190   25.2980  -28.9710 N   0  0  0  0  0  0  0  0  0  0  0  0
   -1.7610   26.1260  -28.4460 H   0  0  0  0  0  0  0  0  0  0  0  0
   -1.5510   24.0820  -29.0500 C   0  0  0  0  0  0  0  0  0  0  0  0
   -0.2730   23.7100  -28.3660 C   0  0  0  0  0  0  0  0  0  0  0  0
   -0.4150   23.7513  -27.2760 H   0  0  0  0  0  0  0  0  0  0  0  0
    0.0167   22.6903  -28.6596 H   0  0  0  0  0  0  0  0  0  0  0  0
    0.5187   24.4150  -28.6596 H   0  0  0  0  0  0  0  0  0  0  0  0
   -2.3390   23.2630  -29.8490 C   0  0  0  0  0  0  0  0  0  0  0  0
   -2.0830   21.8100  -30.1190 C   0  0  0  0  0  0  0  0  0  0  0  0
   -1.9880   21.2709  -29.1649 H   0  0  0  0  0  0  0  0  0  0  0  0
   -2.9211   21.3909  -30.6951 H   0  0  0  0  0  0  0  0  0  0  0  0
   -1.1521   21.7026  -30.6951 H   0  0  0  0  0  0  0  0  0  0  0  0
   -5.7330   17.7210  -33.3120 C   0  0  0  0  0  0  0  0  0  0  0  0
   -5.7130   16.7790  -32.2640 C   0  0  0  0  0  0  0  0  0  0  0  0
   -6.2693   16.9808  -31.3367 H   0  0  0  0  0  0  0  0  0  0  0  0
   -4.9900   15.5890  -32.3960 C   0  0  0  0  0  0  0  0  0  0  0  0
   -4.9739   14.8627  -31.5701 H   0  0  0  0  0  0  0  0  0  0  0  0
   -4.2880   15.3200  -33.5740 C   0  0  0  0  0  0  0  0  0  0  0  0
   -3.3830   13.8260  -33.7360 Cl  0  0  0  0  0  0  0  0  0  0  0  0
   -4.3150   16.2410  -34.6260 C   0  0  0  0  0  0  0  0  0  0  0  0
   -3.7676   16.0282  -35.5561 H   0  0  0  0  0  0  0  0  0  0  0  0
   -5.0360   17.4310  -34.4980 C   0  0  0  0  0  0  0  0  0  0  0  0
   -5.0585   18.1473  -35.3326 H   0  0  0  0  0  0  0  0  0  0  0  0
  1  2  1  0
  2  3  2  0
  3  4  1  0
  3  5  1  0
  5  6  2  0
  6  7  1  0
  6  8  1  0
  8  9  1  0
  8 10  2  0
 10 11  1  0
 10 12  1  0
 12 13  1  0
 12 14  2  0
 14 15  1  0
 15 16  2  0
 15 17  2  0
 15 18  1  0
 18 19  2  0
 19 20  1  0
 20 21  1  0
 21 22  1  0
 21 23  1  0
 23 24  1  0
 24 25  1  0
 24 26  1  0
 24 27  1  0
 23 28  2  0
 28 29  1  0
 29 30  1  0
 29 31  1  0
 29 32  1  0
  2 33  1  0
 33 34  2  0
 34 35  1  0
 34 36  1  0
 36 37  1  0
 36 38  2  0
 38 39  1  0
 38 40  1  0
 40 41  1  0
 40 42  2  0
 42 43  1  0
 14  5  1  0
 28 19  1  0
 42 33  1  0
M  END
>  <UniqueID>  (37) 
34

>  <SMILES>  (37) 
Cc1[nH]o/c(=N/S(=O)(=O)c2ccccc2/C=C/c2ccc(Cl)cc2)c1C

>  <Energy>  (37) 
93.52641169150411

>  <Genealogy>  (37) 
Cc1[nH]o/c(=N/S(=O)(=O)c2ccccc2/C=C/c2ccc(Cl)cc2)c1C (cis-trans isomerization)
Cc1[nH]o/c(=N/S(=O)(=O)c2ccccc2/C=C/c2ccc(Cl)cc2)c1C (3D coordinates assigned)
Cc1[nH]o/c(=N/S(=O)(=O)c2ccccc2/C=C/c2ccc(Cl)cc2)c1C (optimized conformer: 93.52641169150411 kcal/mol)

>  <smiles>  (37) 
Cc1[nH]oc(=NS(=O)(=O)c2ccccc2C=Cc2ccc(Cl)cc2)c1C

>  <score_type>  (37) 
oracle

>  <origin>  (37) 
adgpu

>  <m_score__min__energy>  (37) 
-9.7200000000000006

>  <m_primary>  (37) 
energy

$$$$
37:0
     RDKit          3D

 50 52  0  0  0  0  0  0  0  0999 V2000
   -6.4450   15.0160  -34.1470 C   0  0  0  0  0  0  0  0  0  0  0  0
   -6.5560   16.4760  -33.8340 C   0  0  0  0  0  0  0  0  0  0  0  0
   -7.2290   16.8360  -32.8330 O   0  0  0  0  0  0  0  0  0  0  0  0
   -5.8900   17.4750  -34.6170 N   0  0  0  0  0  0  0  0  0  0  0  0
   -5.1550   18.5980  -34.1110 C   0  0  0  0  0  0  0  0  0  0  0  0
   -3.7510   18.6240  -34.1290 C   0  0  0  0  0  0  0  0  0  0  0  0
   -3.0620   19.7330  -33.6270 C   0  0  0  0  0  0  0  0  0  0  0  0
   -3.7690   20.8210  -33.0970 C   0  0  0  0  0  0  0  0  0  0  0  0
   -3.0890   21.9460  -32.5270 N   0  0  0  0  0  0  0  0  0  0  0  0
   -2.1790   21.9050  -31.4180 C   0  0  0  0  0  0  0  0  0  0  0  0
   -1.3950   20.9260  -31.3190 O   0  0  0  0  0  0  0  0  0  0  0  0
   -2.0730   23.0290  -30.4120 C   0  0  0  0  0  0  0  0  0  0  0  0
   -3.2560   23.0490  -29.4130 C   0  0  1  0  0  0  0  0  0  0  0  0
   -2.9630   23.9750  -28.2480 C   0  0  0  0  0  0  0  0  0  0  0  0
   -1.7030   24.5850  -28.0990 C   0  0  0  0  0  0  0  0  0  0  0  0
   -1.4500   25.4320  -27.0150 C   0  0  0  0  0  0  0  0  0  0  0  0
   -2.4460   25.6750  -26.0670 C   0  0  0  0  0  0  0  0  0  0  0  0
   -3.6980   25.0710  -26.2000 C   0  0  0  0  0  0  0  0  0  0  0  0
   -3.9580   24.2250  -27.2820 C   0  0  0  0  0  0  0  0  0  0  0  0
   -4.6110   23.3740  -30.0350 C   0  0  0  0  0  0  0  0  0  0  0  0
   -5.6170   22.3930  -30.1660 C   0  0  0  0  0  0  0  0  0  0  0  0
   -6.8440   22.6980  -30.7730 C   0  0  0  0  0  0  0  0  0  0  0  0
   -7.9210   21.6560  -30.8590 C   0  0  0  0  0  0  0  0  0  0  0  0
   -7.0820   23.9960  -31.2400 C   0  0  0  0  0  0  0  0  0  0  0  0
   -6.0880   24.9700  -31.1360 C   0  0  0  0  0  0  0  0  0  0  0  0
   -4.8580   24.6660  -30.5500 C   0  0  0  0  0  0  0  0  0  0  0  0
   -3.8820   25.6570  -30.4840 O   0  0  0  0  0  0  0  0  0  0  0  0
   -5.1680   20.8250  -33.1480 C   0  0  0  0  0  0  0  0  0  0  0  0
   -5.8570   19.7190  -33.6530 C   0  0  0  0  0  0  0  0  0  0  0  0
   -6.4014   14.4423  -33.2095 H   0  0  0  0  0  0  0  0  0  0  0  0
   -7.3216   14.6985  -34.7307 H   0  0  0  0  0  0  0  0  0  0  0  0
   -5.5305   14.8346  -34.7307 H   0  0  0  0  0  0  0  0  0  0  0  0
   -3.1917   17.7701  -34.5389 H   0  0  0  0  0  0  0  0  0  0  0  0
   -1.9624   19.7513  -33.6482 H   0  0  0  0  0  0  0  0  0  0  0  0
   -1.1369   22.9087  -29.8469 H   0  0  0  0  0  0  0  0  0  0  0  0
   -2.0921   23.9772  -30.9693 H   0  0  0  0  0  0  0  0  0  0  0  0
   -3.3443   22.0145  -29.0497 H   0  0  0  0  0  0  0  0  0  0  0  0
   -0.9125   24.3943  -28.8397 H   0  0  0  0  0  0  0  0  0  0  0  0
   -0.4639   25.9079  -26.9091 H   0  0  0  0  0  0  0  0  0  0  0  0
   -2.2445   26.3419  -25.2158 H   0  0  0  0  0  0  0  0  0  0  0  0
   -4.4814   25.2614  -25.4516 H   0  0  0  0  0  0  0  0  0  0  0  0
   -4.9459   23.7513  -27.3800 H   0  0  0  0  0  0  0  0  0  0  0  0
   -5.4365   21.3762  -29.7872 H   0  0  0  0  0  0  0  0  0  0  0  0
   -8.2268   21.3602  -29.8446 H   0  0  0  0  0  0  0  0  0  0  0  0
   -8.7872   22.0676  -31.3977 H   0  0  0  0  0  0  0  0  0  0  0  0
   -7.5382   20.7766  -31.3977 H   0  0  0  0  0  0  0  0  0  0  0  0
   -8.0537   24.2486  -31.6895 H   0  0  0  0  0  0  0  0  0  0  0  0
   -6.2750   25.9843  -31.5184 H   0  0  0  0  0  0  0  0  0  0  0  0
   -5.7270   21.7019  -32.7893 H   0  0  0  0  0  0  0  0  0  0  0  0
   -6.9563   19.7295  -33.6908 H   0  0  0  0  0  0  0  0  0  0  0  0
  1  2  1  0
  2  3  2  0
  2  4  1  0
  4  5  1  0
  5  6  2  0
  6  7  1  0
  7  8  2  0
  8  9  1  0
  9 10  1  0
 10 11  2  0
 10 12  1  0
 12 13  1  0
 13 14  1  0
 14 15  2  0
 15 16  1  0
 16 17  2  0
 17 18  1  0
 18 19  2  0
 13 20  1  0
 20 21  2  0
 21 22  1  0
 22 23  1  0
 22 24  2  0
 24 25  1  0
 25 26  2  0
 26 27  1  0
  8 28  1  0
 28 29  2  0
 29  5  1  0
 19 14  1  0
 26 20  1  0
  1 30  1  0
  1 31  1  0
  1 32  1  0
  6 33  1  0
  7 34  1  0
 12 35  1  0
 12 36  1  0
 13 37  1  1
 15 38  1  0
 16 39  1  0
 17 40  1  0
 18 41  1  0
 19 42  1  0
 21 43  1  0
 23 44  1  0
 23 45  1  0
 23 46  1  0
 24 47  1  0
 25 48  1  0
 28 49  1  0
 29 50  1  0
M  CHG  3   4  -1   9  -1  27  -1
M  END
>  <UniqueID>  (38) 
35

>  <SMILES>  (38) 
CC(=O)[N-]c1ccc([N-]C(=O)C[C@@H](c2ccccc2)c2cc(C)ccc2[O-])cc1

>  <Energy>  (38) 
60.566219747871784

>  <Genealogy>  (38) 
CC(=O)[N-]c1ccc([N-]C(=O)CC(c2ccccc2)c2cc(C)ccc2[O-])cc1 (protonated)
CC(=O)[N-]c1ccc([N-]C(=O)C[C@@H](c2ccccc2)c2cc(C)ccc2[O-])cc1 (chirality)
CC(=O)[N-]c1ccc([N-]C(=O)C[C@@H](c2ccccc2)c2cc(C)ccc2[O-])cc1 (3D coordinates assigned)
CC(=O)[N-]c1ccc([N-]C(=O)C[C@@H](c2ccccc2)c2cc(C)ccc2[O-])cc1 (optimized conformer: 60.566219747871784 kcal/mol)

>  <smiles>  (38) 
CC(=O)Nc1ccc(NC(=O)CC(c2ccccc2)c2cc(C)ccc2O)cc1

>  <score_type>  (38) 
oracle

>  <origin>  (38) 
adgpu

>  <m_score__min__energy>  (38) 
-11.720000000000001

>  <m_primary>  (38) 
energy

$$$$
38:0
     RDKit          3D

 26 28  0  0  0  0  0  0  0  0999 V2000
   -2.4470   20.4100  -29.0020 N   0  0  0  0  0  0  0  0  0  0  0  0
   -2.7780   21.4470  -29.3940 C   0  0  0  0  0  0  0  0  0  0  0  0
   -3.1890   22.7410  -29.8790 C   0  0  0  0  0  0  0  0  0  0  0  0
   -2.8460   23.9770  -29.3560 C   0  0  0  0  0  0  0  0  0  0  0  0
   -1.8640   24.2660  -28.2830 C   0  0  0  0  0  0  0  0  0  0  0  0
   -1.6760   23.3540  -27.2270 C   0  0  0  0  0  0  0  0  0  0  0  0
   -0.7410   23.6170  -26.2200 C   0  0  0  0  0  0  0  0  0  0  0  0
   -0.5160   22.4710  -24.9120 Cl  0  0  0  0  0  0  0  0  0  0  0  0
    0.0210   24.7870  -26.2610 C   0  0  0  0  0  0  0  0  0  0  0  0
   -0.1470   25.6930  -27.3090 C   0  0  0  0  0  0  0  0  0  0  0  0
   -1.0830   25.4400  -28.3190 C   0  0  0  0  0  0  0  0  0  0  0  0
   -1.2370   26.3690  -29.3430 O   0  0  0  0  0  0  0  0  0  0  0  0
   -3.5820   24.9260  -29.9680 N   0  0  0  0  0  0  0  0  0  0  0  0
   -4.3510   24.3270  -30.8300 O   0  0  0  0  0  0  0  0  0  0  0  0
   -4.1630   23.0270  -30.8240 C   0  0  0  0  0  0  0  0  0  0  0  0
   -4.9190   22.0960  -31.6880 C   0  0  0  0  0  0  0  0  0  0  0  0
   -4.3580   21.3030  -32.7040 C   0  0  0  0  0  0  0  0  0  0  0  0
   -5.2880   20.5300  -33.3850 C   0  0  0  0  0  0  0  0  0  0  0  0
   -6.8040   20.8410  -32.7350 S   0  0  0  0  0  0  0  0  0  0  0  0
   -6.3000   21.9560  -31.5840 C   0  0  0  0  0  0  0  0  0  0  0  0
   -2.2686   22.4279  -27.1934 H   0  0  0  0  0  0  0  0  0  0  0  0
    0.7536   24.9942  -25.4671 H   0  0  0  0  0  0  0  0  0  0  0  0
    0.4590   26.6105  -27.3417 H   0  0  0  0  0  0  0  0  0  0  0  0
   -3.2831   21.2958  -32.9374 H   0  0  0  0  0  0  0  0  0  0  0  0
   -5.0694   19.8340  -34.2083 H   0  0  0  0  0  0  0  0  0  0  0  0
   -6.9496   22.4846  -30.8708 H   0  0  0  0  0  0  0  0  0  0  0  0
  1  2  3  0
  2  3  1  0
  3  4  1  0
  4  5  1  0
  5  6  2  0
  6  7  1  0
  7  8  1  0
  7  9  2  0
  9 10  1  0
 10 11  2  0
 11 12  1  0
  4 13  2  0
 13 14  1  0
 14 15  1  0
 15 16  1  0
 16 17  1  0
 17 18  2  0
 18 19  1  0
 19 20  1  0
 15  3  2  0
 20 16  2  0
 11  5  1  0
  6 21  1  0
  9 22  1  0
 10 23  1  0
 17 24  1  0
 18 25  1  0
 20 26  1  0
M  CHG  1  12  -1
M  END
>  <UniqueID>  (39) 
36

>  <SMILES>  (39) 
N#Cc1c(-c2cc(Cl)ccc2[O-])noc1-c1ccsc1

>  <Energy>  (39) 
92.20238125877775

>  <Genealogy>  (39) 
N#Cc1c(-c2cc(Cl)ccc2[O-])noc1-c1ccsc1 (protonated)
N#Cc1c(-c2cc(Cl)ccc2[O-])noc1-c1ccsc1 (3D coordinates assigned)
N#Cc1c(-c2cc(Cl)ccc2[O-])noc1-c1ccsc1 (optimized conformer: 92.20238125877775 kcal/mol)

>  <smiles>  (39) 
N#Cc1c(-c2cc(Cl)ccc2O)noc1-c1ccsc1

>  <score_type>  (39) 
oracle

>  <origin>  (39) 
adgpu

>  <m_score__min__energy>  (39) 
-10.42

>  <m_primary>  (39) 
energy

$$$$
39:0
     RDKit          3D

 36 38  0  0  0  0  0  0  0  0999 V2000
   -1.5400   25.6910  -28.9570 O   0  0  0  0  0  0  0  0  0  0  0  0
   -2.4200   24.8570  -29.2980 C   0  0  0  0  0  0  0  0  0  0  0  0
   -3.4910   25.2980  -30.1430 N   0  0  0  0  0  0  0  0  0  0  0  0
   -4.6000   24.5040  -30.5880 C   0  0  0  0  0  0  0  0  0  0  0  0
   -4.3470   23.2840  -31.2250 C   0  0  0  0  0  0  0  0  0  0  0  0
   -5.4040   22.4900  -31.6800 C   0  0  0  0  0  0  0  0  0  0  0  0
   -6.7340   22.9080  -31.5010 C   0  0  0  0  0  0  0  0  0  0  0  0
   -7.8360   22.1210  -31.9850 N   0  0  0  0  0  0  0  0  0  0  0  0
   -7.8170   20.6880  -32.1080 C   0  0  0  0  0  0  0  0  0  0  0  0
   -6.8950   20.0840  -32.9780 C   0  0  0  0  0  0  0  0  0  0  0  0
   -6.8780   18.6940  -33.1350 C   0  0  0  0  0  0  0  0  0  0  0  0
   -7.7890   17.8990  -32.4360 C   0  0  0  0  0  0  0  0  0  0  0  0
   -8.7260   18.4940  -31.5850 C   0  0  0  0  0  0  0  0  0  0  0  0
   -8.7470   19.8820  -31.4260 C   0  0  0  0  0  0  0  0  0  0  0  0
   -6.9840   24.1530  -30.9060 C   0  0  0  0  0  0  0  0  0  0  0  0
   -5.9270   24.9460  -30.4510 C   0  0  0  0  0  0  0  0  0  0  0  0
   -2.2920   23.4460  -28.8610 C   0  0  0  0  0  0  0  0  0  0  0  0
   -3.2090   22.8770  -27.9610 C   0  0  0  0  0  0  0  0  0  0  0  0
   -3.0710   21.5460  -27.5680 C   0  0  0  0  0  0  0  0  0  0  0  0
   -2.0230   20.7850  -28.0870 C   0  0  0  0  0  0  0  0  0  0  0  0
   -1.1510   21.3400  -28.9700 N   0  0  0  0  0  0  0  0  0  0  0  0
   -1.2630   22.6360  -29.3680 C   0  0  0  0  0  0  0  0  0  0  0  0
   -3.3097   22.9475  -31.3687 H   0  0  0  0  0  0  0  0  0  0  0  0
   -5.1937   21.5333  -32.1806 H   0  0  0  0  0  0  0  0  0  0  0  0
   -8.7100   22.6230  -32.2610 H   0  0  0  0  0  0  0  0  0  0  0  0
   -6.1826   20.7069  -33.5388 H   0  0  0  0  0  0  0  0  0  0  0  0
   -6.1460   18.2265  -33.8100 H   0  0  0  0  0  0  0  0  0  0  0  0
   -7.7696   16.8056  -32.5547 H   0  0  0  0  0  0  0  0  0  0  0  0
   -9.4478   17.8680  -31.0398 H   0  0  0  0  0  0  0  0  0  0  0  0
   -9.4936   20.3464  -30.7650 H   0  0  0  0  0  0  0  0  0  0  0  0
   -8.0194   24.5079  -30.7966 H   0  0  0  0  0  0  0  0  0  0  0  0
   -6.1345   25.9200  -29.9838 H   0  0  0  0  0  0  0  0  0  0  0  0
   -4.0376   23.4828  -27.5655 H   0  0  0  0  0  0  0  0  0  0  0  0
   -3.7813   21.1006  -26.8559 H   0  0  0  0  0  0  0  0  0  0  0  0
   -1.9023   19.7352  -27.7815 H   0  0  0  0  0  0  0  0  0  0  0  0
   -0.5445   23.0512  -30.0900 H   0  0  0  0  0  0  0  0  0  0  0  0
  1  2  2  0
  2  3  1  0
  3  4  1  0
  4  5  2  0
  5  6  1  0
  6  7  2  0
  7  8  1  0
  8  9  1  0
  9 10  2  0
 10 11  1  0
 11 12  2  0
 12 13  1  0
 13 14  2  0
  7 15  1  0
 15 16  2  0
  2 17  1  0
 17 18  2  0
 18 19  1  0
 19 20  2  0
 20 21  1  0
 21 22  2  0
 16  4  1  0
 22 17  1  0
 14  9  1  0
  5 23  1  0
  6 24  1  0
  8 25  1  0
 10 26  1  0
 11 27  1  0
 12 28  1  0
 13 29  1  0
 14 30  1  0
 15 31  1  0
 16 32  1  0
 18 33  1  0
 19 34  1  0
 20 35  1  0
 22 36  1  0
M  CHG  1   3  -1
M  END
>  <UniqueID>  (40) 
37

>  <SMILES>  (40) 
O=C([N-]c1ccc(Nc2ccccc2)cc1)c1cccnc1

>  <Energy>  (40) 
51.94859298714173

>  <Genealogy>  (40) 
O=C([N-]c1ccc(Nc2ccccc2)cc1)c1cccnc1 (protonated)
O=C([N-]c1ccc(Nc2ccccc2)cc1)c1cccnc1 (3D coordinates assigned)
O=C([N-]c1ccc(Nc2ccccc2)cc1)c1cccnc1 (optimized conformer: 51.94859298714173 kcal/mol)

>  <smiles>  (40) 
O=C(Nc1ccc(Nc2ccccc2)cc1)c1cccnc1

>  <score_type>  (40) 
oracle

>  <origin>  (40) 
adgpu

>  <m_score__min__energy>  (40) 
-9.8699999999999992

>  <m_primary>  (40) 
energy

$$$$
40:0
     RDKit          3D

 41 43  0  0  0  0  0  0  0  0999 V2000
   -8.5510   18.1920  -31.6760 C   0  0  0  0  0  0  0  0  0  0  0  0
   -8.0650   18.9090  -32.8060 O   0  0  0  0  0  0  0  0  0  0  0  0
   -6.7600   19.4100  -32.9250 C   0  0  0  0  0  0  0  0  0  0  0  0
   -6.4780   20.7880  -32.9130 C   0  0  0  0  0  0  0  0  0  0  0  0
   -5.1630   21.2420  -33.0490 C   0  0  0  0  0  0  0  0  0  0  0  0
   -4.1010   20.3260  -33.1580 C   0  0  0  0  0  0  0  0  0  0  0  0
   -2.7280   20.7500  -33.2490 N   0  0  0  0  0  0  0  0  0  0  0  0
   -1.6060   20.7630  -31.9240 S   0  0  0  0  0  0  0  0  0  0  0  0
   -1.5120   19.3870  -31.3260 O   0  0  0  0  0  0  0  0  0  0  0  0
   -0.2530   21.1560  -32.4480 O   0  0  0  0  0  0  0  0  0  0  0  0
   -2.0930   21.9360  -30.7040 C   0  0  0  0  0  0  0  0  0  0  0  0
   -1.6510   21.7880  -29.3820 C   0  0  0  0  0  0  0  0  0  0  0  0
   -1.9400   22.7690  -28.4300 C   0  0  0  0  0  0  0  0  0  0  0  0
   -2.6690   23.9050  -28.7910 C   0  0  0  0  0  0  0  0  0  0  0  0
   -3.1400   24.0510  -30.1000 C   0  0  0  0  0  0  0  0  0  0  0  0
   -3.8480   25.2420  -30.4660 N   0  0  0  0  0  0  0  0  0  0  0  0
   -5.2630   25.4030  -30.3380 C   0  0  0  0  0  0  0  0  0  0  0  0
   -5.7380   26.5500  -30.1260 O   0  0  0  0  0  0  0  0  0  0  0  0
   -6.1580   24.2340  -30.3720 C   0  0  0  0  0  0  0  0  0  0  0  0
   -6.0180   23.0770  -29.6300 C   0  0  0  0  0  0  0  0  0  0  0  0
   -7.0470   22.2510  -30.0310 C   0  0  0  0  0  0  0  0  0  0  0  0
   -7.7430   22.9550  -30.9910 C   0  0  0  0  0  0  0  0  0  0  0  0
   -9.2590   22.3250  -31.9580 Br  0  0  0  0  0  0  0  0  0  0  0  0
   -7.1970   24.1340  -31.1680 O   0  0  0  0  0  0  0  0  0  0  0  0
   -2.8450   23.0650  -31.0580 C   0  0  0  0  0  0  0  0  0  0  0  0
   -4.3900   18.9520  -33.1700 C   0  0  0  0  0  0  0  0  0  0  0  0
   -5.7080   18.5010  -33.0620 C   0  0  0  0  0  0  0  0  0  0  0  0
   -8.2143   18.6887  -30.7541 H   0  0  0  0  0  0  0  0  0  0  0  0
   -9.6505   18.1706  -31.7005 H   0  0  0  0  0  0  0  0  0  0  0  0
   -8.1636   17.1628  -31.7005 H   0  0  0  0  0  0  0  0  0  0  0  0
   -7.2972   21.5127  -32.7959 H   0  0  0  0  0  0  0  0  0  0  0  0
   -4.9573   22.3224  -33.0709 H   0  0  0  0  0  0  0  0  0  0  0  0
   -2.3660   21.0890  -34.1690 H   0  0  0  0  0  0  0  0  0  0  0  0
   -1.0748   20.8966  -29.0932 H   0  0  0  0  0  0  0  0  0  0  0  0
   -1.5927   22.6467  -27.3935 H   0  0  0  0  0  0  0  0  0  0  0  0
   -2.8730   24.6863  -28.0441 H   0  0  0  0  0  0  0  0  0  0  0  0
   -5.2466   22.8599  -28.8765 H   0  0  0  0  0  0  0  0  0  0  0  0
   -7.2673   21.2387  -29.6611 H   0  0  0  0  0  0  0  0  0  0  0  0
   -3.2061   23.1801  -32.0906 H   0  0  0  0  0  0  0  0  0  0  0  0
   -3.5711   18.2238  -33.2653 H   0  0  0  0  0  0  0  0  0  0  0  0
   -5.9190   17.4217  -33.0850 H   0  0  0  0  0  0  0  0  0  0  0  0
  1  2  1  0
  2  3  1  0
  3  4  2  0
  4  5  1  0
  5  6  2  0
  6  7  1  0
  7  8  1  0
  8  9  2  0
  8 10  2  0
  8 11  1  0
 11 12  2  0
 12 13  1  0
 13 14  2  0
 14 15  1  0
 15 16  1  0
 16 17  1  0
 17 18  2  0
 17 19  1  0
 19 20  2  0
 20 21  1  0
 21 22  2  0
 22 23  1  0
 22 24  1  0
 15 25  2  0
  6 26  1  0
 26 27  2  0
 27  3  1  0
 25 11  1  0
 24 19  1  0
  1 28  1  0
  1 29  1  0
  1 30  1  0
  4 31  1  0
  5 32  1  0
  7 33  1  0
 12 34  1  0
 13 35  1  0
 14 36  1  0
 20 37  1  0
 21 38  1  0
 25 39  1  0
 26 40  1  0
 27 41  1  0
M  CHG  1  16  -1
M  END
>  <UniqueID>  (41) 
38

>  <SMILES>  (41) 
COc1ccc(NS(=O)(=O)c2cccc([N-]C(=O)c3ccc(Br)o3)c2)cc1

>  <Energy>  (41) 
72.89668912261675

>  <Genealogy>  (41) 
COc1ccc(NS(=O)(=O)c2cccc([N-]C(=O)c3ccc(Br)o3)c2)cc1 (protonated)
COc1ccc(NS(=O)(=O)c2cccc([N-]C(=O)c3ccc(Br)o3)c2)cc1 (3D coordinates assigned)
COc1ccc(NS(=O)(=O)c2cccc([N-]C(=O)c3ccc(Br)o3)c2)cc1 (optimized conformer: 72.89668912261675 kcal/mol)

>  <smiles>  (41) 
COc1ccc(NS(=O)(=O)c2cccc(NC(=O)c3ccc(Br)o3)c2)cc1

>  <score_type>  (41) 
oracle

>  <origin>  (41) 
adgpu

>  <m_score__min__energy>  (41) 
-10.619999999999999

>  <m_primary>  (41) 
energy

$$$$
41:0
     RDKit          3D

 35 37  0  0  0  0  0  0  0  0999 V2000
   -5.2850   15.2570  -33.4700 C   0  0  0  0  0  0  0  0  0  0  0  0
   -6.8630   15.7930  -34.2000 S   0  0  0  0  0  0  0  0  0  0  0  0
   -6.7450   17.4550  -33.5350 C   0  0  0  0  0  0  0  0  0  0  0  0
   -7.5210   17.8260  -32.4320 C   0  0  0  0  0  0  0  0  0  0  0  0
   -7.4310   19.1210  -31.9140 C   0  0  0  0  0  0  0  0  0  0  0  0
   -6.5640   20.0640  -32.4970 C   0  0  0  0  0  0  0  0  0  0  0  0
   -6.4670   21.4410  -31.9460 C   0  0  0  0  0  0  0  0  0  0  0  0
   -7.3810   22.4320  -32.3370 C   0  0  0  0  0  0  0  0  0  0  0  0
   -7.2670   23.7200  -31.8150 C   0  0  0  0  0  0  0  0  0  0  0  0
   -6.2790   24.0140  -30.9310 N   0  0  0  0  0  0  0  0  0  0  0  0
   -5.3750   23.0820  -30.5170 C   0  0  0  0  0  0  0  0  0  0  0  0
   -4.3170   23.4780  -29.5510 C   0  0  0  0  0  0  0  0  0  0  0  0
   -4.2230   22.8760  -28.2790 C   0  0  0  0  0  0  0  0  0  0  0  0
   -3.2240   23.2690  -27.3830 C   0  0  0  0  0  0  0  0  0  0  0  0
   -2.3150   24.2670  -27.7370 C   0  0  0  0  0  0  0  0  0  0  0  0
   -2.4040   24.8800  -28.9890 C   0  0  0  0  0  0  0  0  0  0  0  0
   -1.5010   25.8760  -29.3400 O   0  0  0  0  0  0  0  0  0  0  0  0
   -3.4020   24.4920  -29.8900 C   0  0  0  0  0  0  0  0  0  0  0  0
   -5.4540   21.7760  -31.0310 C   0  0  0  0  0  0  0  0  0  0  0  0
   -5.7910   19.6820  -33.6090 C   0  0  0  0  0  0  0  0  0  0  0  0
   -5.8820   18.3860  -34.1240 C   0  0  0  0  0  0  0  0  0  0  0  0
   -5.3610   15.2828  -32.3729 H   0  0  0  0  0  0  0  0  0  0  0  0
   -5.0588   14.2316  -33.7979 H   0  0  0  0  0  0  0  0  0  0  0  0
   -4.4811   15.9325  -33.7979 H   0  0  0  0  0  0  0  0  0  0  0  0
   -8.2037   17.0969  -31.9712 H   0  0  0  0  0  0  0  0  0  0  0  0
   -8.0421   19.4052  -31.0446 H   0  0  0  0  0  0  0  0  0  0  0  0
   -8.1829   22.1938  -33.0513 H   0  0  0  0  0  0  0  0  0  0  0  0
   -7.9796   24.5004  -32.1203 H   0  0  0  0  0  0  0  0  0  0  0  0
   -4.9396   22.0930  -27.9902 H   0  0  0  0  0  0  0  0  0  0  0  0
   -3.1543   22.7897  -26.3954 H   0  0  0  0  0  0  0  0  0  0  0  0
   -1.5287   24.5708  -27.0303 H   0  0  0  0  0  0  0  0  0  0  0  0
   -3.4718   24.9838  -30.8715 H   0  0  0  0  0  0  0  0  0  0  0  0
   -4.7231   21.0162  -30.7171 H   0  0  0  0  0  0  0  0  0  0  0  0
   -5.1102   20.4087  -34.0763 H   0  0  0  0  0  0  0  0  0  0  0  0
   -5.2741   18.0971  -34.9941 H   0  0  0  0  0  0  0  0  0  0  0  0
  1  2  1  0
  2  3  1  0
  3  4  2  0
  4  5  1  0
  5  6  2  0
  6  7  1  0
  7  8  2  0
  8  9  1  0
  9 10  2  0
 10 11  1  0
 11 12  1  0
 12 13  2  0
 13 14  1  0
 14 15  2  0
 15 16  1  0
 16 17  1  0
 16 18  2  0
 11 19  2  0
  6 20  1  0
 20 21  2  0
 21  3  1  0
 19  7  1  0
 18 12  1  0
  1 22  1  0
  1 23  1  0
  1 24  1  0
  4 25  1  0
  5 26  1  0
  8 27  1  0
  9 28  1  0
 13 29  1  0
 14 30  1  0
 15 31  1  0
 18 32  1  0
 19 33  1  0
 20 34  1  0
 21 35  1  0
M  CHG  1  17  -1
M  END
>  <UniqueID>  (42) 
39

>  <SMILES>  (42) 
CSc1ccc(-c2ccnc(-c3cccc([O-])c3)c2)cc1

>  <Energy>  (42) 
43.55438348536509

>  <Genealogy>  (42) 
CSc1ccc(-c2ccnc(-c3cccc([O-])c3)c2)cc1 (protonated)
CSc1ccc(-c2ccnc(-c3cccc([O-])c3)c2)cc1 (3D coordinates assigned)
CSc1ccc(-c2ccnc(-c3cccc([O-])c3)c2)cc1 (optimized conformer: 43.55438348536509 kcal/mol)

>  <smiles>  (42) 
CSc1ccc(-c2ccnc(-c3cccc(O)c3)c2)cc1

>  <score_type>  (42) 
oracle

>  <origin>  (42) 
adgpu

>  <m_score__min__energy>  (42) 
-11.029999999999999

>  <m_primary>  (42) 
energy

$$$$
42:0
     RDKit          3D

 34 36  0  0  0  0  0  0  0  0999 V2000
   -1.7210   25.3110  -29.0730 O   0  0  0  0  0  0  0  0  0  0  0  0
   -2.5890   24.5180  -29.5260 C   0  0  0  0  0  0  0  0  0  0  0  0
   -3.5770   24.9720  -30.4600 N   0  0  0  0  0  0  0  0  0  0  0  0
   -4.9810   24.6850  -30.4360 C   0  0  0  0  0  0  0  0  0  0  0  0
   -6.0210   25.4620  -29.9510 C   0  0  0  0  0  0  0  0  0  0  0  0
   -7.1790   24.7980  -30.1420 N   0  0  0  0  0  0  0  0  0  0  0  0
   -6.8870   23.6440  -30.7240 N   0  0  0  0  0  0  0  0  0  0  0  0
   -8.0670   22.4660  -31.1790 S   0  0  0  0  0  0  0  0  0  0  0  0
   -8.7590   21.9460  -29.9500 O   0  0  0  0  0  0  0  0  0  0  0  0
   -9.0960   23.1010  -32.0720 O   0  0  0  0  0  0  0  0  0  0  0  0
   -7.2750   21.1490  -32.0380 C   0  0  0  0  0  0  0  0  0  0  0  0
   -6.0870   21.3830  -32.7450 C   0  0  0  0  0  0  0  0  0  0  0  0
   -5.4470   20.3330  -33.4100 C   0  0  0  0  0  0  0  0  0  0  0  0
   -5.9890   19.0430  -33.3680 C   0  0  0  0  0  0  0  0  0  0  0  0
   -5.1130   17.6090  -34.2760 Br  0  0  0  0  0  0  0  0  0  0  0  0
   -7.1700   18.8050  -32.6560 C   0  0  0  0  0  0  0  0  0  0  0  0
   -7.8100   19.8540  -31.9900 C   0  0  0  0  0  0  0  0  0  0  0  0
   -5.5620   23.5380  -30.9220 C   0  0  0  0  0  0  0  0  0  0  0  0
   -2.5990   23.1080  -29.0960 C   0  0  0  0  0  0  0  0  0  0  0  0
   -1.8390   22.1340  -29.7680 C   0  0  0  0  0  0  0  0  0  0  0  0
   -1.8780   20.8100  -29.3280 C   0  0  0  0  0  0  0  0  0  0  0  0
   -2.6670   20.4650  -28.2300 C   0  0  0  0  0  0  0  0  0  0  0  0
   -3.4100   21.4550  -27.5850 C   0  0  0  0  0  0  0  0  0  0  0  0
   -3.3610   22.7400  -28.0280 N   0  0  0  0  0  0  0  0  0  0  0  0
   -5.9189   26.4544  -29.4877 H   0  0  0  0  0  0  0  0  0  0  0  0
   -5.6575   22.3952  -32.7765 H   0  0  0  0  0  0  0  0  0  0  0  0
   -4.5169   20.5206  -33.9666 H   0  0  0  0  0  0  0  0  0  0  0  0
   -7.5952   17.7911  -32.6204 H   0  0  0  0  0  0  0  0  0  0  0  0
   -8.7355   19.6631  -31.4270 H   0  0  0  0  0  0  0  0  0  0  0  0
   -5.0388   22.6896  -31.3873 H   0  0  0  0  0  0  0  0  0  0  0  0
   -1.2192   22.4132  -30.6328 H   0  0  0  0  0  0  0  0  0  0  0  0
   -1.2877   20.0397  -29.8460 H   0  0  0  0  0  0  0  0  0  0  0  0
   -2.7030   19.4240  -27.8765 H   0  0  0  0  0  0  0  0  0  0  0  0
   -4.0355   21.1958  -26.7180 H   0  0  0  0  0  0  0  0  0  0  0  0
  1  2  2  0
  2  3  1  0
  3  4  1  0
  4  5  1  0
  5  6  2  0
  6  7  1  0
  7  8  1  0
  8  9  2  0
  8 10  2  0
  8 11  1  0
 11 12  2  0
 12 13  1  0
 13 14  2  0
 14 15  1  0
 14 16  1  0
 16 17  2  0
  7 18  1  0
  2 19  1  0
 19 20  2  0
 20 21  1  0
 21 22  2  0
 22 23  1  0
 23 24  2  0
 18  4  2  0
 24 19  1  0
 17 11  1  0
  5 25  1  0
 12 26  1  0
 13 27  1  0
 16 28  1  0
 17 29  1  0
 18 30  1  0
 20 31  1  0
 21 32  1  0
 22 33  1  0
 23 34  1  0
M  CHG  1   3  -1
M  END
>  <UniqueID>  (43) 
40

>  <SMILES>  (43) 
O=C([N-]c1cnn(S(=O)(=O)c2ccc(Br)cc2)c1)c1ccccn1

>  <Energy>  (43) 
71.88649076306373

>  <Genealogy>  (43) 
O=C([N-]c1cnn(S(=O)(=O)c2ccc(Br)cc2)c1)c1ccccn1 (protonated)
O=C([N-]c1cnn(S(=O)(=O)c2ccc(Br)cc2)c1)c1ccccn1 (3D coordinates assigned)
O=C([N-]c1cnn(S(=O)(=O)c2ccc(Br)cc2)c1)c1ccccn1 (optimized conformer: 71.88649076306373 kcal/mol)

>  <smiles>  (43) 
O=C(Nc1cnn(S(=O)(=O)c2ccc(Br)cc2)c1)c1ccccn1

>  <score_type>  (43) 
oracle

>  <origin>  (43) 
adgpu

>  <m_score__min__energy>  (43) 
-10.84

>  <m_primary>  (43) 
energy

$$$$
43:0
     RDKit          3D

 45 47  0  0  0  0  0  0  0  0999 V2000
   -5.1190   14.1120  -34.3790 C   0  0  0  0  0  0  0  0  0  0  0  0
   -4.5690   15.4280  -34.0460 N   0  0  0  0  0  0  0  0  0  0  0  0
   -5.4120   16.4460  -33.4610 C   0  0  0  0  0  0  0  0  0  0  0  0
   -6.0360   17.4160  -34.2690 C   0  0  0  0  0  0  0  0  0  0  0  0
   -6.8460   18.4030  -33.6990 C   0  0  0  0  0  0  0  0  0  0  0  0
   -7.0400   18.4410  -32.3150 C   0  0  0  0  0  0  0  0  0  0  0  0
   -7.8750   19.4580  -31.7300 C   0  0  0  0  0  0  0  0  0  0  0  0
   -8.5460   20.2770  -31.2600 N   0  0  0  0  0  0  0  0  0  0  0  0
   -6.4210   17.4870  -31.5000 C   0  0  0  0  0  0  0  0  0  0  0  0
   -5.6120   16.4970  -32.0680 C   0  0  0  0  0  0  0  0  0  0  0  0
   -2.8850   15.7430  -34.3660 S   0  0  0  0  0  0  0  0  0  0  0  0
   -2.6700   15.8040  -35.8530 O   0  0  0  0  0  0  0  0  0  0  0  0
   -2.0390   14.6270  -33.8180 O   0  0  0  0  0  0  0  0  0  0  0  0
   -2.4030   17.2600  -33.6120 C   0  0  0  0  0  0  0  0  0  0  0  0
   -3.0840   18.4500  -33.8990 C   0  0  0  0  0  0  0  0  0  0  0  0
   -2.7050   19.6460  -33.2820 C   0  0  0  0  0  0  0  0  0  0  0  0
   -1.6380   19.6710  -32.3650 C   0  0  0  0  0  0  0  0  0  0  0  0
   -1.2420   20.9430  -31.7150 C   0  0  0  0  0  0  0  0  0  0  0  0
   -0.2740   21.6040  -32.1830 O   0  0  0  0  0  0  0  0  0  0  0  0
   -1.9780   21.4590  -30.5920 N   0  0  0  0  0  0  0  0  0  0  0  0
   -1.4540   22.4290  -29.6700 C   0  0  0  0  0  0  0  0  0  0  0  0
   -0.5310   22.0230  -28.6920 C   0  0  0  0  0  0  0  0  0  0  0  0
    0.0100   22.9530  -27.7990 C   0  0  0  0  0  0  0  0  0  0  0  0
   -0.3530   24.2990  -27.8840 C   0  0  0  0  0  0  0  0  0  0  0  0
   -1.2540   24.7200  -28.8670 C   0  0  0  0  0  0  0  0  0  0  0  0
   -1.6030   26.0620  -28.9610 O   0  0  0  0  0  0  0  0  0  0  0  0
   -1.7990   23.7920  -29.7620 C   0  0  0  0  0  0  0  0  0  0  0  0
   -0.9480   18.4740  -32.0950 C   0  0  0  0  0  0  0  0  0  0  0  0
   -1.3320   17.2790  -32.7110 C   0  0  0  0  0  0  0  0  0  0  0  0
   -5.3476   13.5650  -33.4524 H   0  0  0  0  0  0  0  0  0  0  0  0
   -6.0399   14.2377  -34.9673 H   0  0  0  0  0  0  0  0  0  0  0  0
   -4.3825   13.5450  -34.9673 H   0  0  0  0  0  0  0  0  0  0  0  0
   -5.8848   17.3971  -35.3584 H   0  0  0  0  0  0  0  0  0  0  0  0
   -7.3321   19.1519  -34.3415 H   0  0  0  0  0  0  0  0  0  0  0  0
   -6.5707   17.5154  -30.4106 H   0  0  0  0  0  0  0  0  0  0  0  0
   -5.1276   15.7514  -31.4204 H   0  0  0  0  0  0  0  0  0  0  0  0
   -3.9207   18.4435  -34.6130 H   0  0  0  0  0  0  0  0  0  0  0  0
   -3.2455   20.5752  -33.5154 H   0  0  0  0  0  0  0  0  0  0  0  0
   -2.9890   21.2050  -30.5100 H   0  0  0  0  0  0  0  0  0  0  0  0
   -0.2318   20.9664  -28.6283 H   0  0  0  0  0  0  0  0  0  0  0  0
    0.7226   22.6240  -27.0283 H   0  0  0  0  0  0  0  0  0  0  0  0
    0.0700   25.0282  -27.1774 H   0  0  0  0  0  0  0  0  0  0  0  0
   -2.4996   24.1282  -30.5405 H   0  0  0  0  0  0  0  0  0  0  0  0
   -0.1003   18.4789  -31.3941 H   0  0  0  0  0  0  0  0  0  0  0  0
   -0.7895   16.3488  -32.4863 H   0  0  0  0  0  0  0  0  0  0  0  0
  1  2  1  0
  2  3  1  0
  3  4  2  0
  4  5  1  0
  5  6  2  0
  6  7  1  0
  7  8  3  0
  6  9  1  0
  9 10  2  0
  2 11  1  0
 11 12  2  0
 11 13  2  0
 11 14  1  0
 14 15  2  0
 15 16  1  0
 16 17  2  0
 17 18  1  0
 18 19  2  0
 18 20  1  0
 20 21  1  0
 21 22  2  0
 22 23  1  0
 23 24  2  0
 24 25  1  0
 25 26  1  0
 25 27  2  0
 17 28  1  0
 28 29  2  0
 10  3  1  0
 29 14  1  0
 27 21  1  0
  1 30  1  0
  1 31  1  0
  1 32  1  0
  4 33  1  0
  5 34  1  0
  9 35  1  0
 10 36  1  0
 15 37  1  0
 16 38  1  0
 20 39  1  0
 22 40  1  0
 23 41  1  0
 24 42  1  0
 27 43  1  0
 28 44  1  0
 29 45  1  0
M  CHG  1  26  -1
M  END
>  <UniqueID>  (44) 
41

>  <SMILES>  (44) 
CN(c1ccc(C#N)cc1)S(=O)(=O)c1ccc(C(=O)Nc2cccc([O-])c2)cc1

>  <Energy>  (44) 
56.94560256566222

>  <Genealogy>  (44) 
CN(c1ccc(C#N)cc1)S(=O)(=O)c1ccc(C(=O)Nc2cccc([O-])c2)cc1 (protonated)
CN(c1ccc(C#N)cc1)S(=O)(=O)c1ccc(C(=O)Nc2cccc([O-])c2)cc1 (3D coordinates assigned)
CN(c1ccc(C#N)cc1)S(=O)(=O)c1ccc(C(=O)Nc2cccc([O-])c2)cc1 (optimized conformer: 56.94560256566222 kcal/mol)

>  <smiles>  (44) 
CN(c1ccc(C#N)cc1)S(=O)(=O)c1ccc(C(=O)Nc2cccc(O)c2)cc1

>  <score_type>  (44) 
oracle

>  <origin>  (44) 
adgpu

>  <m_score__min__energy>  (44) 
-10.66

>  <m_primary>  (44) 
energy

$$$$
44:0
     RDKit          3D

 41 43  0  0  0  0  0  0  0  0999 V2000
   -1.1400   19.8900  -34.5600 N   0  0  0  0  0  0  0  0  0  0  0  0
   -2.1190   19.8220  -33.9470 C   0  0  0  0  0  0  0  0  0  0  0  0
   -3.3410   19.7360  -33.1870 C   0  0  0  0  0  0  0  0  0  0  0  0
   -4.1790   18.6270  -33.3720 C   0  0  0  0  0  0  0  0  0  0  0  0
   -5.3840   18.5300  -32.6710 C   0  0  0  0  0  0  0  0  0  0  0  0
   -5.7640   19.5440  -31.7900 C   0  0  0  0  0  0  0  0  0  0  0  0
   -4.9360   20.6530  -31.5990 C   0  0  0  0  0  0  0  0  0  0  0  0
   -3.7140   20.7510  -32.2810 C   0  0  0  0  0  0  0  0  0  0  0  0
   -2.6720   22.1940  -32.0000 S   0  0  0  0  0  0  0  0  0  0  0  0
   -2.6180   21.9540  -30.2120 C   0  0  0  0  0  0  0  0  0  0  0  0
   -2.3840   20.6560  -29.7380 C   0  0  0  0  0  0  0  0  0  0  0  0
   -2.3990   20.3840  -28.3700 C   0  0  0  0  0  0  0  0  0  0  0  0
   -2.6450   21.4090  -27.4580 C   0  0  0  0  0  0  0  0  0  0  0  0
   -2.8610   22.7120  -27.9110 C   0  0  0  0  0  0  0  0  0  0  0  0
   -2.8340   23.0090  -29.2870 C   0  0  0  0  0  0  0  0  0  0  0  0
   -3.0310   24.4190  -29.7040 C   0  0  0  0  0  0  0  0  0  0  0  0
   -2.2110   25.2980  -29.3220 O   0  0  0  0  0  0  0  0  0  0  0  0
   -4.1490   24.7860  -30.5230 N   0  0  0  0  0  0  0  0  0  0  0  0
   -5.3210   24.0010  -30.7790 C   0  0  0  0  0  0  0  0  0  0  0  0
   -5.7520   23.8530  -32.1010 C   0  0  0  0  0  0  0  0  0  0  0  0
   -6.8990   23.1090  -32.3960 C   0  0  0  0  0  0  0  0  0  0  0  0
   -7.6430   22.5080  -31.3660 C   0  0  0  0  0  0  0  0  0  0  0  0
   -8.8670   21.7210  -31.6590 C   0  0  0  0  0  0  0  0  0  0  0  0
   -8.8810   20.7100  -32.6720 N   0  0  0  0  0  0  0  0  0  0  0  0
   -9.9170   21.9310  -30.9950 O   0  0  0  0  0  0  0  0  0  0  0  0
   -7.2280   22.6900  -30.0350 C   0  0  0  0  0  0  0  0  0  0  0  0
   -6.0800   23.4330  -29.7420 C   0  0  0  0  0  0  0  0  0  0  0  0
   -3.8867   17.8302  -34.0717 H   0  0  0  0  0  0  0  0  0  0  0  0
   -6.0337   17.6539  -32.8135 H   0  0  0  0  0  0  0  0  0  0  0  0
   -6.7168   19.4697  -31.2453 H   0  0  0  0  0  0  0  0  0  0  0  0
   -5.2439   21.4535  -30.9102 H   0  0  0  0  0  0  0  0  0  0  0  0
   -2.1864   19.8432  -30.4523 H   0  0  0  0  0  0  0  0  0  0  0  0
   -2.2167   19.3604  -28.0108 H   0  0  0  0  0  0  0  0  0  0  0  0
   -2.6690   21.1911  -26.3801 H   0  0  0  0  0  0  0  0  0  0  0  0
   -3.0544   23.5153  -27.1848 H   0  0  0  0  0  0  0  0  0  0  0  0
   -5.1841   24.3257  -32.9159 H   0  0  0  0  0  0  0  0  0  0  0  0
   -7.2211   22.9934  -33.4414 H   0  0  0  0  0  0  0  0  0  0  0  0
   -9.7710   20.2130  -32.8960 H   0  0  0  0  0  0  0  0  0  0  0  0
   -8.0060   20.3870  -33.1380 H   0  0  0  0  0  0  0  0  0  0  0  0
   -7.8118   22.2438  -29.2164 H   0  0  0  0  0  0  0  0  0  0  0  0
   -5.7701   23.5732  -28.6959 H   0  0  0  0  0  0  0  0  0  0  0  0
  1  2  3  0
  2  3  1  0
  3  4  2  0
  4  5  1  0
  5  6  2  0
  6  7  1  0
  7  8  2  0
  8  9  1  0
  9 10  1  0
 10 11  2  0
 11 12  1  0
 12 13  2  0
 13 14  1  0
 14 15  2  0
 15 16  1  0
 16 17  2  0
 16 18  1  0
 18 19  1  0
 19 20  2  0
 20 21  1  0
 21 22  2  0
 22 23  1  0
 23 24  1  0
 23 25  2  0
 22 26  1  0
 26 27  2  0
  8  3  1  0
 15 10  1  0
 27 19  1  0
  4 28  1  0
  5 29  1  0
  6 30  1  0
  7 31  1  0
 11 32  1  0
 12 33  1  0
 13 34  1  0
 14 35  1  0
 20 36  1  0
 21 37  1  0
 24 38  1  0
 24 39  1  0
 26 40  1  0
 27 41  1  0
M  CHG  1  18  -1
M  END
>  <UniqueID>  (45) 
42

>  <SMILES>  (45) 
N#Cc1ccccc1Sc1ccccc1C(=O)[N-]c1ccc(C(N)=O)cc1

>  <Energy>  (45) 
49.08145936041697

>  <Genealogy>  (45) 
N#Cc1ccccc1Sc1ccccc1C(=O)[N-]c1ccc(C(N)=O)cc1 (protonated)
N#Cc1ccccc1Sc1ccccc1C(=O)[N-]c1ccc(C(N)=O)cc1 (3D coordinates assigned)
N#Cc1ccccc1Sc1ccccc1C(=O)[N-]c1ccc(C(N)=O)cc1 (optimized conformer: 49.08145936041697 kcal/mol)

>  <smiles>  (45) 
N#Cc1ccccc1Sc1ccccc1C(=O)Nc1ccc(C(N)=O)cc1

>  <score_type>  (45) 
oracle

>  <origin>  (45) 
adgpu

>  <m_score__min__energy>  (45) 
-10.84

>  <m_primary>  (45) 
energy

$$$$
45:0
     RDKit          3D

 56 58  0  0  0  0  0  0  0  0999 V2000
   -1.9790   21.5220  -34.7870 H   0  0  0  0  0  0  0  0  0  0  0  0
   -2.3440   21.5170  -33.8420 O   0  0  0  0  0  0  0  0  0  0  0  0
   -3.6950   21.5850  -33.5600 N   0  0  0  0  0  0  0  0  0  0  0  0
   -4.3060   22.0400  -34.2760 H   0  0  0  0  0  0  0  0  0  0  0  0
   -4.2190   21.1330  -32.4500 C   0  0  0  0  0  0  0  0  0  0  0  0
   -5.6680   21.3240  -32.1850 C   0  0  0  0  0  0  0  0  0  0  0  0
   -6.6370   20.6590  -32.9590 C   0  0  0  0  0  0  0  0  0  0  0  0
   -6.2400   19.8750  -34.0530 O   0  0  0  0  0  0  0  0  0  0  0  0
   -5.9320   18.5080  -33.9980 C   0  0  0  0  0  0  0  0  0  0  0  0
   -6.8420   17.5540  -33.5100 C   0  0  0  0  0  0  0  0  0  0  0  0
   -7.8349   17.8737  -33.1608 H   0  0  0  0  0  0  0  0  0  0  0  0
   -6.4920   16.2010  -33.4660 C   0  0  0  0  0  0  0  0  0  0  0  0
   -7.2112   15.4610  -33.0851 H   0  0  0  0  0  0  0  0  0  0  0  0
   -5.2210   15.7820  -33.9080 C   0  0  0  0  0  0  0  0  0  0  0  0
   -4.8180   14.4350  -33.9060 O   0  0  0  0  0  0  0  0  0  0  0  0
   -3.9240   13.8350  -32.9670 C   0  0  0  0  0  0  0  0  0  0  0  0
   -3.0334   14.4716  -32.8592 H   0  0  0  0  0  0  0  0  0  0  0  0
   -3.6396   12.8390  -33.3372 H   0  0  0  0  0  0  0  0  0  0  0  0
   -4.5950   13.6780  -31.6050 C   0  0  0  0  0  0  0  0  0  0  0  0
   -3.8551   13.8511  -30.8096 H   0  0  0  0  0  0  0  0  0  0  0  0
   -5.4113   14.4094  -31.5119 H   0  0  0  0  0  0  0  0  0  0  0  0
   -5.0021   12.6603  -31.5119 H   0  0  0  0  0  0  0  0  0  0  0  0
   -4.3090   16.7420  -34.3640 C   0  0  0  0  0  0  0  0  0  0  0  0
   -3.3075   16.4286  -34.6938 H   0  0  0  0  0  0  0  0  0  0  0  0
   -4.6590   18.0940  -34.4040 C   0  0  0  0  0  0  0  0  0  0  0  0
   -3.9291   18.8374  -34.7569 H   0  0  0  0  0  0  0  0  0  0  0  0
   -7.9590   20.8190  -32.6670 N   0  0  0  0  0  0  0  0  0  0  0  0
   -8.3880   21.5990  -31.6380 C   0  0  0  0  0  0  0  0  0  0  0  0
   -9.8520   21.7330  -31.3660 C   0  0  0  0  0  0  0  0  0  0  0  0
  -10.0231   21.7487  -30.2795 H   0  0  0  0  0  0  0  0  0  0  0  0
  -10.2231   22.6689  -31.8092 H   0  0  0  0  0  0  0  0  0  0  0  0
  -10.3869   20.8801  -31.8092 H   0  0  0  0  0  0  0  0  0  0  0  0
   -7.4540   22.2880  -30.8560 C   0  0  0  0  0  0  0  0  0  0  0  0
   -7.7894   22.9340  -30.0313 H   0  0  0  0  0  0  0  0  0  0  0  0
   -6.0940   22.1480  -31.1320 C   0  0  0  0  0  0  0  0  0  0  0  0
   -5.3528   22.6853  -30.5222 H   0  0  0  0  0  0  0  0  0  0  0  0
   -3.4080   20.4320  -31.4880 N   0  0  0  0  0  0  0  0  0  0  0  0
   -2.7060   19.7310  -31.8200 H   0  0  0  0  0  0  0  0  0  0  0  0
   -3.5110   20.6810  -30.0520 C   0  0  0  0  0  0  0  0  0  0  0  0
   -4.5644   20.6073  -29.7439 H   0  0  0  0  0  0  0  0  0  0  0  0
   -2.9116   19.9336  -29.5116 H   0  0  0  0  0  0  0  0  0  0  0  0
   -2.9930   22.0560  -29.7310 C   0  0  0  0  0  0  0  0  0  0  0  0
   -3.8600   23.0520  -29.2470 C   0  0  0  0  0  0  0  0  0  0  0  0
   -4.9188   22.8163  -29.0645 H   0  0  0  0  0  0  0  0  0  0  0  0
   -3.3790   24.3420  -28.9970 C   0  0  0  0  0  0  0  0  0  0  0  0
   -4.0629   25.1143  -28.6151 H   0  0  0  0  0  0  0  0  0  0  0  0
   -2.0330   24.6590  -29.2290 C   0  0  0  0  0  0  0  0  0  0  0  0
   -1.6010   25.9680  -28.9620 O   0  0  0  0  0  0  0  0  0  0  0  0
   -0.8700   26.3520  -27.7980 C   0  0  0  0  0  0  0  0  0  0  0  0
   -1.4310   26.0573  -26.8989 H   0  0  0  0  0  0  0  0  0  0  0  0
    0.1099   25.8522  -27.7990 H   0  0  0  0  0  0  0  0  0  0  0  0
   -0.7254   27.4425  -27.7990 H   0  0  0  0  0  0  0  0  0  0  0  0
   -1.1670   23.6610  -29.7190 C   0  0  0  0  0  0  0  0  0  0  0  0
   -0.1085   23.8970  -29.9033 H   0  0  0  0  0  0  0  0  0  0  0  0
   -1.6470   22.3720  -29.9720 C   0  0  0  0  0  0  0  0  0  0  0  0
   -0.9657   21.6015  -30.3621 H   0  0  0  0  0  0  0  0  0  0  0  0
  1  2  1  0
  2  3  1  0
  3  4  1  0
  3  5  2  0
  5  6  1  0
  6  7  1  0
  7  8  1  0
  8  9  1  0
  9 10  2  0
 10 11  1  0
 10 12  1  0
 12 13  1  0
 12 14  2  0
 14 15  1  0
 15 16  1  0
 16 17  1  0
 16 18  1  0
 16 19  1  0
 19 20  1  0
 19 21  1  0
 19 22  1  0
 14 23  1  0
 23 24  1  0
 23 25  2  0
 25 26  1  0
  7 27  2  0
 27 28  1  0
 28 29  1  0
 29 30  1  0
 29 31  1  0
 29 32  1  0
 28 33  2  0
 33 34  1  0
 33 35  1  0
 35 36  1  0
  5 37  1  0
 37 38  1  0
 37 39  1  0
 39 40  1  0
 39 41  1  0
 39 42  1  0
 42 43  2  0
 43 44  1  0
 43 45  1  0
 45 46  1  0
 45 47  2  0
 47 48  1  0
 48 49  1  0
 49 50  1  0
 49 51  1  0
 49 52  1  0
 47 53  1  0
 53 54  1  0
 53 55  2  0
 55 56  1  0
 35  6  2  0
 55 42  1  0
 25  9  1  0
M  CHG  1   3   1
M  END
>  <UniqueID>  (46) 
43

>  <SMILES>  (46) 
CCOc1ccc(Oc2nc(C)ccc2/C(NCc2ccc(OC)cc2)=[NH+]/O)cc1

>  <Energy>  (46) 
63.955250756716474

>  <Genealogy>  (46) 
CCOc1ccc(Oc2nc(C)ccc2C(NCc2ccc(OC)cc2)=[NH+]O)cc1 (protonated)
CCOc1ccc(Oc2nc(C)ccc2/C(NCc2ccc(OC)cc2)=[NH+]/O)cc1 (cis-trans isomerization)
CCOc1ccc(Oc2nc(C)ccc2/C(NCc2ccc(OC)cc2)=[NH+]/O)cc1 (3D coordinates assigned)
CCOc1ccc(Oc2nc(C)ccc2/C(NCc2ccc(OC)cc2)=[NH+]/O)cc1 (optimized conformer: 63.955250756716474 kcal/mol)

>  <smiles>  (46) 
CCOc1ccc(Oc2nc(C)ccc2C(=NO)NCc2ccc(OC)cc2)cc1

>  <score_type>  (46) 
oracle

>  <origin>  (46) 
adgpu

>  <m_score__min__energy>  (46) 
-8.1899999999999995

>  <m_primary>  (46) 
energy

$$$$
46:0
     RDKit          3D

 62 65  0  0  0  0  0  0  0  0999 V2000
   -2.1010   21.1250  -27.2510 C   0  0  0  0  0  0  0  0  0  0  0  0
   -1.8500   21.1270  -28.7340 C   0  0  0  0  0  0  0  0  0  0  0  0
   -1.3050   19.9890  -29.3520 C   0  0  0  0  0  0  0  0  0  0  0  0
   -1.0350   19.9880  -30.7220 C   0  0  0  0  0  0  0  0  0  0  0  0
   -1.3380   21.1120  -31.4990 C   0  0  0  0  0  0  0  0  0  0  0  0
   -0.9720   21.1570  -32.9190 C   0  0  0  0  0  0  0  0  0  0  0  0
    0.1480   21.6150  -33.2700 O   0  0  0  0  0  0  0  0  0  0  0  0
   -1.8460   20.5750  -33.8890 N   0  0  0  0  0  0  0  0  0  0  0  0
   -2.5390   19.3350  -33.6890 C   0  0  0  0  0  0  0  0  0  0  0  0
   -3.7100   19.2570  -32.9150 C   0  0  0  0  0  0  0  0  0  0  0  0
   -4.4640   18.0790  -32.8780 C   0  0  0  0  0  0  0  0  0  0  0  0
   -5.7580   18.0300  -32.0990 C   0  0  0  0  0  0  0  0  0  0  0  0
   -6.9370   18.4890  -32.8670 N   0  0  0  0  0  0  0  0  0  0  0  0
   -6.8210   19.8080  -33.5190 C   0  0  0  0  0  0  0  0  0  0  0  0
   -7.4830   20.9200  -32.6990 C   0  0  0  0  0  0  0  0  0  0  0  0
   -8.8820   20.5620  -32.4090 N   0  0  0  0  0  0  0  0  0  0  0  0
   -9.5490   21.6700  -31.7070 C   0  0  0  0  0  0  0  0  0  0  0  0
   -8.9160   19.3530  -31.5740 C   0  0  0  0  0  0  0  0  0  0  0  0
   -8.2670   18.1690  -32.3060 C   0  0  0  0  0  0  0  0  0  0  0  0
   -4.0030   16.9450  -33.5660 C   0  0  0  0  0  0  0  0  0  0  0  0
   -2.7980   16.9860  -34.2890 C   0  0  0  0  0  0  0  0  0  0  0  0
   -2.3400   15.7830  -35.0730 C   0  0  0  0  0  0  0  0  0  0  0  0
   -1.1100   16.0240  -35.6640 F   0  0  0  0  0  0  0  0  0  0  0  0
   -3.2680   15.5040  -36.0610 F   0  0  0  0  0  0  0  0  0  0  0  0
   -2.2140   14.6790  -34.2480 F   0  0  0  0  0  0  0  0  0  0  0  0
   -2.0890   18.1960  -34.3670 C   0  0  0  0  0  0  0  0  0  0  0  0
   -1.8950   22.2440  -30.8920 C   0  0  0  0  0  0  0  0  0  0  0  0
   -2.1510   22.2660  -29.5090 C   0  0  0  0  0  0  0  0  0  0  0  0
   -2.5980   23.4650  -28.8530 N   0  0  0  0  0  0  0  0  0  0  0  0
   -2.5680   24.7930  -29.3860 C   0  0  0  0  0  0  0  0  0  0  0  0
   -1.7070   25.6220  -28.9890 O   0  0  0  0  0  0  0  0  0  0  0  0
   -3.4910   25.1430  -30.4220 N   0  0  0  0  0  0  0  0  0  0  0  0
   -4.8620   24.7330  -30.4880 C   0  0  0  0  0  0  0  0  0  0  0  0
   -5.8580   25.3870  -29.7550 C   0  0  0  0  0  0  0  0  0  0  0  0
   -7.1330   24.8870  -29.9840 C   0  0  0  0  0  0  0  0  0  0  0  0
   -7.0080   23.6430  -31.1070 S   0  0  0  0  0  0  0  0  0  0  0  0
   -5.3440   23.7200  -31.3160 C   0  0  0  0  0  0  0  0  0  0  0  0
   -1.1397   21.1327  -26.7164 H   0  0  0  0  0  0  0  0  0  0  0  0
   -2.6806   22.0186  -26.9760 H   0  0  0  0  0  0  0  0  0  0  0  0
   -2.6663   20.2223  -26.9760 H   0  0  0  0  0  0  0  0  0  0  0  0
   -1.0895   19.0924  -28.7523 H   0  0  0  0  0  0  0  0  0  0  0  0
   -0.5832   19.1018  -31.1916 H   0  0  0  0  0  0  0  0  0  0  0  0
   -4.0368   20.1310  -32.3325 H   0  0  0  0  0  0  0  0  0  0  0  0
   -5.9332   16.9910  -31.7832 H   0  0  0  0  0  0  0  0  0  0  0  0
   -5.6444   18.7164  -31.2470 H   0  0  0  0  0  0  0  0  0  0  0  0
   -5.7550   20.0480  -33.6454 H   0  0  0  0  0  0  0  0  0  0  0  0
   -7.3368   19.7514  -34.4889 H   0  0  0  0  0  0  0  0  0  0  0  0
   -6.9363   21.0512  -31.7535 H   0  0  0  0  0  0  0  0  0  0  0  0
   -7.4601   21.8575  -33.2740 H   0  0  0  0  0  0  0  0  0  0  0  0
   -9.4600   21.5222  -30.6206 H   0  0  0  0  0  0  0  0  0  0  0  0
   -9.0733   22.6212  -31.9878 H   0  0  0  0  0  0  0  0  0  0  0  0
  -10.6123   21.6948  -31.9878 H   0  0  0  0  0  0  0  0  0  0  0  0
   -8.3680   19.5440  -30.6396 H   0  0  0  0  0  0  0  0  0  0  0  0
   -9.9649   19.1025  -31.3570 H   0  0  0  0  0  0  0  0  0  0  0  0
   -8.1555   17.3371  -31.5950 H   0  0  0  0  0  0  0  0  0  0  0  0
   -8.9229   17.9069  -33.1493 H   0  0  0  0  0  0  0  0  0  0  0  0
   -4.5905   16.0154  -33.5390 H   0  0  0  0  0  0  0  0  0  0  0  0
   -1.1692   18.2492  -34.9680 H   0  0  0  0  0  0  0  0  0  0  0  0
   -2.1352   23.1262  -31.5035 H   0  0  0  0  0  0  0  0  0  0  0  0
   -5.6511   26.2173  -29.0638 H   0  0  0  0  0  0  0  0  0  0  0  0
   -8.0614   25.2426  -29.5132 H   0  0  0  0  0  0  0  0  0  0  0  0
   -4.7431   23.0863  -31.9848 H   0  0  0  0  0  0  0  0  0  0  0  0
  1  2  1  0
  2  3  2  0
  3  4  1  0
  4  5  2  0
  5  6  1  0
  6  7  2  0
  6  8  1  0
  8  9  1  0
  9 10  2  0
 10 11  1  0
 11 12  1  0
 12 13  1  0
 13 14  1  0
 14 15  1  0
 15 16  1  0
 16 17  1  0
 16 18  1  0
 18 19  1  0
 11 20  2  0
 20 21  1  0
 21 22  1  0
 22 23  1  0
 22 24  1  0
 22 25  1  0
 21 26  2  0
  5 27  1  0
 27 28  2  0
 28 29  1  0
 29 30  1  0
 30 31  2  0
 30 32  1  0
 32 33  1  0
 33 34  1  0
 34 35  2  0
 35 36  1  0
 36 37  1  0
 28  2  1  0
 37 33  2  0
 26  9  1  0
 19 13  1  0
  1 38  1  0
  1 39  1  0
  1 40  1  0
  3 41  1  0
  4 42  1  0
 10 43  1  0
 12 44  1  0
 12 45  1  0
 14 46  1  0
 14 47  1  0
 15 48  1  0
 15 49  1  0
 17 50  1  0
 17 51  1  0
 17 52  1  0
 18 53  1  0
 18 54  1  0
 19 55  1  0
 19 56  1  0
 20 57  1  0
 26 58  1  0
 27 59  1  0
 34 60  1  0
 35 61  1  0
 37 62  1  0
M  CHG  3   8  -1  29  -1  32  -1
M  END
>  <UniqueID>  (47) 
44

>  <SMILES>  (47) 
Cc1ccc(C(=O)[N-]c2cc(CN3CCN(C)CC3)cc(C(F)(F)F)c2)cc1[N-]C(=O)[N-]c1ccsc1

>  <Energy>  (47) 
113.09234812472921

>  <Genealogy>  (47) 
Cc1ccc(C(=O)[N-]c2cc(CN3CCN(C)CC3)cc(C(F)(F)F)c2)cc1[N-]C(=O)[N-]c1ccsc1 (protonated)
Cc1ccc(C(=O)[N-]c2cc(CN3CCN(C)CC3)cc(C(F)(F)F)c2)cc1[N-]C(=O)[N-]c1ccsc1 (3D coordinates assigned)
Cc1ccc(C(=O)[N-]c2cc(CN3CCN(C)CC3)cc(C(F)(F)F)c2)cc1[N-]C(=O)[N-]c1ccsc1 (nonaromatic ring conformer: 113.09234812472921 kcal/mol)

>  <smiles>  (47) 
Cc1ccc(C(=O)Nc2cc(CN3CCN(C)CC3)cc(C(F)(F)F)c2)cc1NC(=O)Nc1ccsc1

>  <score_type>  (47) 
oracle

>  <origin>  (47) 
adgpu

>  <m_score__min__energy>  (47) 
-12.34

>  <m_primary>  (47) 
energy

$$$$
47:0
     RDKit          3D

 37 39  0  0  0  0  0  0  0  0999 V2000
   -3.7580   25.2820  -30.6620 N   0  0  0  0  0  0  0  0  0  0  0  0
   -5.2240   24.9410  -29.8150 S   0  0  0  0  0  0  0  0  0  0  0  0
   -6.0820   26.1760  -29.7750 O   0  0  0  0  0  0  0  0  0  0  0  0
   -4.9030   24.5320  -28.4050 O   0  0  0  0  0  0  0  0  0  0  0  0
   -6.0880   23.6420  -30.6310 C   0  0  0  0  0  0  0  0  0  0  0  0
   -5.5650   23.0750  -31.8010 C   0  0  0  0  0  0  0  0  0  0  0  0
   -6.2430   22.0340  -32.4420 C   0  0  0  0  0  0  0  0  0  0  0  0
   -7.4530   21.5510  -31.9220 C   0  0  0  0  0  0  0  0  0  0  0  0
   -8.1600   20.3990  -32.5830 C   0  0  0  0  0  0  0  0  0  0  0  0
   -7.3030   19.2150  -32.5650 N   0  0  0  0  0  0  0  0  0  0  0  0
   -7.1700   18.3350  -31.5520 C   0  0  0  0  0  0  0  0  0  0  0  0
   -6.2020   17.4220  -31.9140 C   0  0  0  0  0  0  0  0  0  0  0  0
   -5.7550   16.3700  -31.1240 O   0  0  0  0  0  0  0  0  0  0  0  0
   -5.7200   17.7250  -33.1390 N   0  0  0  0  0  0  0  0  0  0  0  0
   -4.6900   17.0390  -33.8750 C   0  0  0  0  0  0  0  0  0  0  0  0
   -4.8450   15.6860  -34.2270 C   0  0  0  0  0  0  0  0  0  0  0  0
   -3.8420   15.0230  -34.9430 C   0  0  0  0  0  0  0  0  0  0  0  0
   -2.6790   15.7030  -35.3130 C   0  0  0  0  0  0  0  0  0  0  0  0
   -2.5160   17.0470  -34.9680 C   0  0  0  0  0  0  0  0  0  0  0  0
   -3.5160   17.7140  -34.2530 C   0  0  0  0  0  0  0  0  0  0  0  0
   -6.4100   18.8300  -33.5020 C   0  0  0  0  0  0  0  0  0  0  0  0
   -6.2530   19.4260  -34.6020 O   0  0  0  0  0  0  0  0  0  0  0  0
   -7.9650   22.1060  -30.7380 C   0  0  0  0  0  0  0  0  0  0  0  0
   -7.2870   23.1480  -30.0980 C   0  0  0  0  0  0  0  0  0  0  0  0
   -3.9190   26.1570  -31.2080 H   0  0  0  0  0  0  0  0  0  0  0  0
   -4.6180   23.4502  -32.2163 H   0  0  0  0  0  0  0  0  0  0  0  0
   -5.8257   21.5915  -33.3585 H   0  0  0  0  0  0  0  0  0  0  0  0
   -9.0923   20.1831  -32.0405 H   0  0  0  0  0  0  0  0  0  0  0  0
   -8.3902   20.6645  -33.6254 H   0  0  0  0  0  0  0  0  0  0  0  0
   -7.7325   18.3438  -30.6068 H   0  0  0  0  0  0  0  0  0  0  0  0
   -5.7590   15.1465  -33.9381 H   0  0  0  0  0  0  0  0  0  0  0  0
   -3.9695   13.9648  -35.2149 H   0  0  0  0  0  0  0  0  0  0  0  0
   -1.8917   15.1802  -35.8759 H   0  0  0  0  0  0  0  0  0  0  0  0
   -1.5997   17.5814  -35.2592 H   0  0  0  0  0  0  0  0  0  0  0  0
   -3.3833   18.7725  -33.9849 H   0  0  0  0  0  0  0  0  0  0  0  0
   -8.9029   21.7196  -30.3125 H   0  0  0  0  0  0  0  0  0  0  0  0
   -7.6956   23.5816  -29.1733 H   0  0  0  0  0  0  0  0  0  0  0  0
  1  2  1  0
  2  3  2  0
  2  4  2  0
  2  5  1  0
  5  6  2  0
  6  7  1  0
  7  8  2  0
  8  9  1  0
  9 10  1  0
 10 11  1  0
 11 12  2  0
 12 13  1  0
 12 14  1  0
 14 15  1  0
 15 16  2  0
 16 17  1  0
 17 18  2  0
 18 19  1  0
 19 20  2  0
 14 21  1  0
 21 22  2  0
  8 23  1  0
 23 24  2  0
 24  5  1  0
 21 10  1  0
 20 15  1  0
  1 25  1  0
  6 26  1  0
  7 27  1  0
  9 28  1  0
  9 29  1  0
 11 30  1  0
 16 31  1  0
 17 32  1  0
 18 33  1  0
 19 34  1  0
 20 35  1  0
 23 36  1  0
 24 37  1  0
M  CHG  2   1  -1  13  -1
M  END
>  <UniqueID>  (48) 
45

>  <SMILES>  (48) 
[NH-]S(=O)(=O)c1ccc(Cn2cc([O-])n(-c3ccccc3)c2=O)cc1

>  <Energy>  (48) 
77.23373251106112

>  <Genealogy>  (48) 
[NH-]S(=O)(=O)c1ccc(Cn2cc([O-])n(-c3ccccc3)c2=O)cc1 (protonated)
[NH-]S(=O)(=O)c1ccc(Cn2cc([O-])n(-c3ccccc3)c2=O)cc1 (3D coordinates assigned)
[NH-]S(=O)(=O)c1ccc(Cn2cc([O-])n(-c3ccccc3)c2=O)cc1 (optimized conformer: 77.23373251106112 kcal/mol)

>  <smiles>  (48) 
NS(=O)(=O)c1ccc(Cn2cc(O)n(-c3ccccc3)c2=O)cc1

>  <score_type>  (48) 
oracle

>  <origin>  (48) 
adgpu

>  <m_score__min__energy>  (48) 
-10.68

>  <m_primary>  (48) 
energy

$$$$
48:0
     RDKit          3D

 37 40  0  0  0  0  0  0  0  0999 V2000
   -9.0310   23.4290  -32.2470 O   0  0  0  0  0  0  0  0  0  0  0  0
   -8.0040   22.7770  -31.9150 C   0  0  0  0  0  0  0  0  0  0  0  0
   -7.9890   21.3110  -32.1000 C   0  0  0  0  0  0  0  0  0  0  0  0
   -9.0970   20.5620  -32.2750 N   0  0  0  0  0  0  0  0  0  0  0  0
   -8.6980   19.3240  -32.5260 N   0  0  0  0  0  0  0  0  0  0  0  0
   -7.3760   19.2490  -32.5260 N   0  0  0  0  0  0  0  0  0  0  0  0
   -6.6560   18.0210  -32.7320 C   0  0  0  0  0  0  0  0  0  0  0  0
   -6.4700   17.4980  -34.0240 C   0  0  0  0  0  0  0  0  0  0  0  0
   -5.7580   16.3100  -34.2090 C   0  0  0  0  0  0  0  0  0  0  0  0
   -5.2130   15.6410  -33.1080 C   0  0  0  0  0  0  0  0  0  0  0  0
   -5.3740   16.1650  -31.8230 C   0  0  0  0  0  0  0  0  0  0  0  0
   -6.0870   17.3540  -31.6350 C   0  0  0  0  0  0  0  0  0  0  0  0
   -6.8890   20.4830  -32.2690 C   0  0  0  0  0  0  0  0  0  0  0  0
   -5.4620   20.8680  -32.2520 C   0  0  0  0  0  0  0  0  0  0  0  0
   -4.7420   20.9740  -33.4530 C   0  0  0  0  0  0  0  0  0  0  0  0
   -3.3950   21.3510  -33.4340 C   0  0  0  0  0  0  0  0  0  0  0  0
   -2.7610   21.6260  -32.2200 C   0  0  0  0  0  0  0  0  0  0  0  0
   -3.4720   21.5240  -31.0210 C   0  0  0  0  0  0  0  0  0  0  0  0
   -4.8170   21.1450  -31.0350 C   0  0  0  0  0  0  0  0  0  0  0  0
   -6.8890   23.4710  -31.3310 N   0  0  0  0  0  0  0  0  0  0  0  0
   -6.6990   23.7130  -30.0230 C   0  0  0  0  0  0  0  0  0  0  0  0
   -5.5380   24.4390  -29.8860 C   0  0  0  0  0  0  0  0  0  0  0  0
   -5.0020   24.6650  -31.1030 N   0  0  0  0  0  0  0  0  0  0  0  0
   -5.8520   24.0640  -31.9610 C   0  0  0  0  0  0  0  0  0  0  0  0
   -6.8872   18.0269  -34.8936 H   0  0  0  0  0  0  0  0  0  0  0  0
   -5.6259   15.9005  -35.2214 H   0  0  0  0  0  0  0  0  0  0  0  0
   -4.6578   14.7026  -33.2540 H   0  0  0  0  0  0  0  0  0  0  0  0
   -4.9397   15.6422  -30.9581 H   0  0  0  0  0  0  0  0  0  0  0  0
   -6.2025   17.7685  -30.6227 H   0  0  0  0  0  0  0  0  0  0  0  0
   -5.2384   20.7601  -34.4110 H   0  0  0  0  0  0  0  0  0  0  0  0
   -2.8340   21.4311  -34.3768 H   0  0  0  0  0  0  0  0  0  0  0  0
   -1.7019   21.9229  -32.2077 H   0  0  0  0  0  0  0  0  0  0  0  0
   -2.9725   21.7422  -30.0656 H   0  0  0  0  0  0  0  0  0  0  0  0
   -5.3729   21.0632  -30.0894 H   0  0  0  0  0  0  0  0  0  0  0  0
   -7.3572   23.3874  -29.2040 H   0  0  0  0  0  0  0  0  0  0  0  0
   -5.1127   24.7821  -28.9313 H   0  0  0  0  0  0  0  0  0  0  0  0
   -5.7156   24.0576  -33.0525 H   0  0  0  0  0  0  0  0  0  0  0  0
  1  2  2  0
  2  3  1  0
  3  4  1  0
  4  5  2  0
  5  6  1  0
  6  7  1  0
  7  8  2  0
  8  9  1  0
  9 10  2  0
 10 11  1  0
 11 12  2  0
  6 13  1  0
 13 14  1  0
 14 15  2  0
 15 16  1  0
 16 17  2  0
 17 18  1  0
 18 19  2  0
  2 20  1  0
 20 21  1  0
 21 22  2  0
 22 23  1  0
 23 24  2  0
 13  3  2  0
 19 14  1  0
 24 20  1  0
 12  7  1  0
  8 25  1  0
  9 26  1  0
 10 27  1  0
 11 28  1  0
 12 29  1  0
 15 30  1  0
 16 31  1  0
 17 32  1  0
 18 33  1  0
 19 34  1  0
 21 35  1  0
 22 36  1  0
 24 37  1  0
M  END
>  <UniqueID>  (49) 
46

>  <SMILES>  (49) 
O=C(c1nnn(-c2ccccc2)c1-c1ccccc1)n1ccnc1

>  <Energy>  (49) 
119.01953310810306

>  <Genealogy>  (49) 
O=C(c1nnn(-c2ccccc2)c1-c1ccccc1)n1ccnc1 (3D coordinates assigned)
O=C(c1nnn(-c2ccccc2)c1-c1ccccc1)n1ccnc1 (optimized conformer: 119.01953310810306 kcal/mol)

>  <smiles>  (49) 
O=C(c1nnn(-c2ccccc2)c1-c1ccccc1)n1ccnc1

>  <score_type>  (49) 
oracle

>  <origin>  (49) 
adgpu

>  <m_score__min__energy>  (49) 
-8.4800000000000004

>  <m_primary>  (49) 
energy

$$$$
