0:0
     RDKit          3D

 56 59  0  0  0  0  0  0  0  0999 V2000
   -7.2100   24.1320  -32.2560 O   0  0  0  0  0  0  0  0  0  0  0  0
   -6.3740   23.4950  -31.5600 C   0  0  0  0  0  0  0  0  0  0  0  0
   -6.0220   23.9640  -30.2490 N   0  0  0  0  0  0  0  0  0  0  0  0
   -4.7690   23.7610  -29.5760 C   0  0  0  0  0  0  0  0  0  0  0  0
   -4.6000   22.7470  -28.6160 C   0  0  0  0  0  0  0  0  0  0  0  0
   -3.3710   22.5890  -27.9670 C   0  0  0  0  0  0  0  0  0  0  0  0
   -2.3010   23.4450  -28.2630 C   0  0  0  0  0  0  0  0  0  0  0  0
   -0.7540   23.2670  -27.4410 S   0  0  0  0  0  0  0  0  0  0  0  0
    0.3410   23.2160  -28.4680 O   0  0  0  0  0  0  0  0  0  0  0  0
   -0.7360   21.9850  -26.6530 O   0  0  0  0  0  0  0  0  0  0  0  0
   -0.5040   24.6360  -26.3870 N   0  0  0  0  0  0  0  0  0  0  0  0
   -0.2220   25.8500  -27.1520 C   0  0  0  0  0  0  0  0  0  0  0  0
   -0.6870   27.0190  -26.2960 C   0  0  0  0  0  0  0  0  0  0  0  0
   -1.6540   26.4190  -25.2860 C   0  0  0  0  0  0  0  0  0  0  0  0
   -1.7060   24.9340  -25.6090 C   0  0  0  0  0  0  0  0  0  0  0  0
   -2.4790   24.4770  -29.1920 C   0  0  0  0  0  0  0  0  0  0  0  0
   -3.7070   24.6390  -29.8410 C   0  0  0  0  0  0  0  0  0  0  0  0
   -3.8680   25.6730  -30.7560 O   0  0  0  0  0  0  0  0  0  0  0  0
   -5.7980   22.2300  -32.0720 C   0  0  0  0  0  0  0  0  0  0  0  0
   -6.6380   21.1840  -32.5000 C   0  0  0  0  0  0  0  0  0  0  0  0
   -6.0940   19.9870  -32.9770 C   0  0  0  0  0  0  0  0  0  0  0  0
   -4.7050   19.8160  -33.0330 C   0  0  0  0  0  0  0  0  0  0  0  0
   -4.0050   18.3090  -33.6150 S   0  0  0  0  0  0  0  0  0  0  0  0
   -2.5130   18.3810  -33.4450 O   0  0  0  0  0  0  0  0  0  0  0  0
   -4.3240   18.1270  -35.0740 O   0  0  0  0  0  0  0  0  0  0  0  0
   -4.6570   16.9770  -32.6820 N   0  0  0  0  0  0  0  0  0  0  0  0
   -5.7040   17.4250  -31.7370 C   0  0  0  0  0  0  0  0  0  0  0  0
   -7.1270   17.1510  -32.2530 C   0  0  0  0  0  0  0  0  0  0  0  0
   -7.1680   17.2700  -33.6570 O   0  0  0  0  0  0  0  0  0  0  0  0
   -6.4510   16.2070  -34.2590 C   0  0  0  0  0  0  0  0  0  0  0  0
   -5.1140   15.8780  -33.5510 C   0  0  0  0  0  0  0  0  0  0  0  0
   -3.8640   20.8540  -32.6160 C   0  0  0  0  0  0  0  0  0  0  0  0
   -4.4040   22.0520  -32.1380 C   0  0  0  0  0  0  0  0  0  0  0  0
   -5.4374   22.0758  -28.3747 H   0  0  0  0  0  0  0  0  0  0  0  0
   -3.2436   21.7901  -27.2216 H   0  0  0  0  0  0  0  0  0  0  0  0
    0.8566   25.9310  -27.3519 H   0  0  0  0  0  0  0  0  0  0  0  0
   -0.7397   25.8374  -28.1225 H   0  0  0  0  0  0  0  0  0  0  0  0
    0.1673   27.4838  -25.7821 H   0  0  0  0  0  0  0  0  0  0  0  0
   -1.1620   27.8058  -26.9004 H   0  0  0  0  0  0  0  0  0  0  0  0
   -1.2872   26.5772  -24.2611 H   0  0  0  0  0  0  0  0  0  0  0  0
   -2.6485   26.8854  -25.3451 H   0  0  0  0  0  0  0  0  0  0  0  0
   -1.7142   24.3433  -24.6811 H   0  0  0  0  0  0  0  0  0  0  0  0
   -2.6168   24.6809  -26.1714 H   0  0  0  0  0  0  0  0  0  0  0  0
   -1.6487   25.1640  -29.4126 H   0  0  0  0  0  0  0  0  0  0  0  0
   -7.7301   21.3092  -32.4589 H   0  0  0  0  0  0  0  0  0  0  0  0
   -6.7596   19.1768  -33.3094 H   0  0  0  0  0  0  0  0  0  0  0  0
   -5.5674   16.8943  -30.7832 H   0  0  0  0  0  0  0  0  0  0  0  0
   -5.5985   18.5132  -31.6162 H   0  0  0  0  0  0  0  0  0  0  0  0
   -7.4276   16.1326  -31.9659 H   0  0  0  0  0  0  0  0  0  0  0  0
   -7.8163   17.8853  -31.8107 H   0  0  0  0  0  0  0  0  0  0  0  0
   -7.0838   15.3074  -34.2412 H   0  0  0  0  0  0  0  0  0  0  0  0
   -6.2028   16.5257  -35.2822 H   0  0  0  0  0  0  0  0  0  0  0  0
   -5.2512   14.9754  -32.9375 H   0  0  0  0  0  0  0  0  0  0  0  0
   -4.3507   15.7231  -34.3278 H   0  0  0  0  0  0  0  0  0  0  0  0
   -2.7725   20.7268  -32.6645 H   0  0  0  0  0  0  0  0  0  0  0  0
   -3.7341   22.8610  -31.8113 H   0  0  0  0  0  0  0  0  0  0  0  0
  1  2  2  0
  2  3  1  0
  3  4  1  0
  4  5  2  0
  5  6  1  0
  6  7  2  0
  7  8  1  0
  8  9  2  0
  8 10  2  0
  8 11  1  0
 11 12  1  0
 12 13  1  0
 13 14  1  0
 14 15  1  0
  7 16  1  0
 16 17  2  0
 17 18  1  0
  2 19  1  0
 19 20  2  0
 20 21  1  0
 21 22  2  0
 22 23  1  0
 23 24  2  0
 23 25  2  0
 23 26  1  0
 26 27  1  0
 27 28  1  0
 28 29  1  0
 29 30  1  0
 30 31  1  0
 22 32  1  0
 32 33  2  0
 17  4  1  0
 33 19  1  0
 15 11  1  0
 31 26  1  0
  5 34  1  0
  6 35  1  0
 12 36  1  0
 12 37  1  0
 13 38  1  0
 13 39  1  0
 14 40  1  0
 14 41  1  0
 15 42  1  0
 15 43  1  0
 16 44  1  0
 20 45  1  0
 21 46  1  0
 27 47  1  0
 27 48  1  0
 28 49  1  0
 28 50  1  0
 30 51  1  0
 30 52  1  0
 31 53  1  0
 31 54  1  0
 32 55  1  0
 33 56  1  0
M  CHG  2   3  -1  18  -1
M  END
>  <UniqueID>  (1) 
1

>  <SMILES>  (1) 
O=C([N-]c1ccc(S(=O)(=O)N2CCCC2)cc1[O-])c1ccc(S(=O)(=O)N2CCOCC2)cc1

>  <Energy>  (1) 
74.406738461669

>  <Genealogy>  (1) 
O=C([N-]c1ccc(S(=O)(=O)N2CCCC2)cc1[O-])c1ccc(S(=O)(=O)N2CCOCC2)cc1 (protonated)
O=C([N-]c1ccc(S(=O)(=O)N2CCCC2)cc1[O-])c1ccc(S(=O)(=O)N2CCOCC2)cc1 (3D coordinates assigned)
O=C([N-]c1ccc(S(=O)(=O)N2CCCC2)cc1[O-])c1ccc(S(=O)(=O)N2CCOCC2)cc1 (nonaromatic ring conformer: 74.406738461669 kcal/mol)

>  <smiles>  (1) 
O=C(Nc1ccc(S(=O)(=O)N2CCCC2)cc1O)c1ccc(S(=O)(=O)N2CCOCC2)cc1

>  <score_type>  (1) 
oracle

>  <origin>  (1) 
adgpu

>  <m_score__min__energy>  (1) 
-15.99

>  <m_primary>  (1) 
energy

$$$$
1:0
     RDKit          3D

 45 47  0  0  0  0  0  0  0  0999 V2000
   -0.4920   20.9360  -30.5630 C   0  0  0  0  0  0  0  0  0  0  0  0
   -1.2790   21.9420  -29.7740 C   0  0  0  0  0  0  0  0  0  0  0  0
   -1.3100   21.8790  -28.3740 C   0  0  0  0  0  0  0  0  0  0  0  0
   -2.0600   22.8040  -27.6460 C   0  0  0  0  0  0  0  0  0  0  0  0
   -2.8000   23.7930  -28.3040 C   0  0  0  0  0  0  0  0  0  0  0  0
   -3.5350   24.7000  -27.5390 O   0  0  0  0  0  0  0  0  0  0  0  0
   -2.7950   23.8560  -29.7110 C   0  0  0  0  0  0  0  0  0  0  0  0
   -3.5680   24.8710  -30.3690 N   0  0  0  0  0  0  0  0  0  0  0  0
   -5.2980   24.9850  -30.3550 S   0  0  0  0  0  0  0  0  0  0  0  0
   -5.7660   25.2280  -28.9490 O   0  0  0  0  0  0  0  0  0  0  0  0
   -5.7240   26.1410  -31.2170 O   0  0  0  0  0  0  0  0  0  0  0  0
   -6.0000   23.4770  -30.9340 C   0  0  0  0  0  0  0  0  0  0  0  0
   -5.2780   22.2830  -30.8110 C   0  0  0  0  0  0  0  0  0  0  0  0
   -5.8230   21.0810  -31.2670 C   0  0  0  0  0  0  0  0  0  0  0  0
   -7.1000   21.0610  -31.8480 C   0  0  0  0  0  0  0  0  0  0  0  0
   -7.8010   19.5380  -32.4000 S   0  0  0  0  0  0  0  0  0  0  0  0
   -9.2060   19.7850  -32.8760 O   0  0  0  0  0  0  0  0  0  0  0  0
   -7.8680   18.5780  -31.2430 O   0  0  0  0  0  0  0  0  0  0  0  0
   -6.8710   18.8180  -33.6980 N   0  0  0  0  0  0  0  0  0  0  0  0
   -5.5590   19.4600  -33.8290 C   0  0  0  0  0  0  0  0  0  0  0  0
   -4.5310   18.6030  -33.1040 C   0  0  0  0  0  0  0  0  0  0  0  0
   -5.2060   17.2670  -32.8620 C   0  0  0  0  0  0  0  0  0  0  0  0
   -6.6070   17.3980  -33.4410 C   0  0  0  0  0  0  0  0  0  0  0  0
   -7.8170   22.2580  -31.9790 C   0  0  0  0  0  0  0  0  0  0  0  0
   -7.2710   23.4600  -31.5210 C   0  0  0  0  0  0  0  0  0  0  0  0
   -2.0330   22.9210  -30.4390 C   0  0  0  0  0  0  0  0  0  0  0  0
    0.0360   20.2610  -29.8734 H   0  0  0  0  0  0  0  0  0  0  0  0
   -1.1751   20.3515  -31.1969 H   0  0  0  0  0  0  0  0  0  0  0  0
    0.2397   21.4583  -31.1969 H   0  0  0  0  0  0  0  0  0  0  0  0
   -0.7415   21.0982  -27.8475 H   0  0  0  0  0  0  0  0  0  0  0  0
   -2.0695   22.7553  -26.5471 H   0  0  0  0  0  0  0  0  0  0  0  0
   -4.2360   25.3100  -27.9420 H   0  0  0  0  0  0  0  0  0  0  0  0
   -4.2777   22.2923  -30.3534 H   0  0  0  0  0  0  0  0  0  0  0  0
   -5.2496   20.1472  -31.1705 H   0  0  0  0  0  0  0  0  0  0  0  0
   -5.2903   19.5427  -34.8925 H   0  0  0  0  0  0  0  0  0  0  0  0
   -5.5863   20.4690  -33.3917 H   0  0  0  0  0  0  0  0  0  0  0  0
   -3.6337   18.4719  -33.7266 H   0  0  0  0  0  0  0  0  0  0  0  0
   -4.2059   19.0695  -32.1624 H   0  0  0  0  0  0  0  0  0  0  0  0
   -4.6552   16.4621  -33.3707 H   0  0  0  0  0  0  0  0  0  0  0  0
   -5.2328   17.0156  -31.7915 H   0  0  0  0  0  0  0  0  0  0  0  0
   -6.6748   16.8314  -34.3814 H   0  0  0  0  0  0  0  0  0  0  0  0
   -7.3475   16.9981  -32.7327 H   0  0  0  0  0  0  0  0  0  0  0  0
   -8.8137   22.2513  -32.4443 H   0  0  0  0  0  0  0  0  0  0  0  0
   -7.8412   24.3952  -31.6219 H   0  0  0  0  0  0  0  0  0  0  0  0
   -2.0291   22.9587  -31.5383 H   0  0  0  0  0  0  0  0  0  0  0  0
  1  2  1  0
  2  3  2  0
  3  4  1  0
  4  5  2  0
  5  6  1  0
  5  7  1  0
  7  8  1  0
  8  9  1  0
  9 10  2  0
  9 11  2  0
  9 12  1  0
 12 13  2  0
 13 14  1  0
 14 15  2  0
 15 16  1  0
 16 17  2  0
 16 18  2  0
 16 19  1  0
 19 20  1  0
 20 21  1  0
 21 22  1  0
 22 23  1  0
 15 24  1  0
 24 25  2  0
  7 26  2  0
 26  2  1  0
 25 12  1  0
 23 19  1  0
  1 27  1  0
  1 28  1  0
  1 29  1  0
  3 30  1  0
  4 31  1  0
  6 32  1  0
 13 33  1  0
 14 34  1  0
 20 35  1  0
 20 36  1  0
 21 37  1  0
 21 38  1  0
 22 39  1  0
 22 40  1  0
 23 41  1  0
 23 42  1  0
 24 43  1  0
 25 44  1  0
 26 45  1  0
M  CHG  1   8  -1
M  END
>  <UniqueID>  (2) 
2

>  <SMILES>  (2) 
Cc1ccc(O)c([N-]S(=O)(=O)c2ccc(S(=O)(=O)N3CCCC3)cc2)c1

>  <Energy>  (2) 
48.51120589788954

>  <Genealogy>  (2) 
Cc1ccc(O)c([N-]S(=O)(=O)c2ccc(S(=O)(=O)N3CCCC3)cc2)c1 (protonated)
Cc1ccc(O)c([N-]S(=O)(=O)c2ccc(S(=O)(=O)N3CCCC3)cc2)c1 (3D coordinates assigned)
Cc1ccc(O)c([N-]S(=O)(=O)c2ccc(S(=O)(=O)N3CCCC3)cc2)c1 (nonaromatic ring conformer: 48.51120589788954 kcal/mol)

>  <smiles>  (2) 
Cc1ccc(O)c(NS(=O)(=O)c2ccc(S(=O)(=O)N3CCCC3)cc2)c1

>  <score_type>  (2) 
oracle

>  <origin>  (2) 
adgpu

>  <m_score__min__energy>  (2) 
-11.82

>  <m_primary>  (2) 
energy

$$$$
2:0
     RDKit          3D

 62 64  0  0  1  0  0  0  0  0999 V2000
   -0.0320   18.0110  -27.4830 C   0  0  0  0  0  0  0  0  0  0  0  0
   -0.7020   19.0690  -28.2130 N   0  0  0  0  0  0  0  0  0  0  0  0
   -1.7710   19.9700  -27.1740 S   0  0  0  0  0  0  0  0  0  0  0  0
   -1.3900   19.8150  -25.7520 O   0  0  0  0  0  0  0  0  0  0  0  0
   -3.1530   19.4080  -27.4500 O   0  0  0  0  0  0  0  0  0  0  0  0
   -1.7090   21.6360  -27.7080 C   0  0  0  0  0  0  0  0  0  0  0  0
   -0.4710   22.2050  -27.8770 C   0  0  0  0  0  0  0  0  0  0  0  0
   -0.3580   23.5140  -28.2960 C   0  0  0  0  0  0  0  0  0  0  0  0
   -1.4800   24.3060  -28.5610 C   0  0  0  0  0  0  0  0  0  0  0  0
   -1.3690   25.6220  -28.9830 O   0  0  0  0  0  0  0  0  0  0  0  0
   -0.8700   26.6360  -28.1580 C   0  0  0  0  0  0  0  0  0  0  0  0
   -2.7590   23.7190  -28.3860 C   0  0  0  0  0  0  0  0  0  0  0  0
   -3.9080   24.4280  -28.4710 N   0  0  0  0  0  0  0  0  0  0  0  0
   -4.8710   24.4300  -29.2300 C   0  0  0  0  0  0  0  0  0  0  0  0
   -5.8810   25.3030  -29.0090 N   0  0  0  0  0  0  0  0  0  0  0  0
   -6.9940   25.3610  -29.7510 C   0  0  0  0  0  0  0  0  0  0  0  0
   -7.1020   24.4980  -30.7700 N   0  0  0  0  0  0  0  0  0  0  0  0
   -6.1200   23.6210  -31.0190 C   0  0  0  0  0  0  0  0  0  0  0  0
   -6.2870   22.7630  -32.0740 C   0  0  0  0  0  0  0  0  0  0  0  0
   -5.2920   21.8680  -32.3380 C   0  0  0  0  0  0  0  0  0  0  0  0
   -5.4040   20.9960  -33.3720 O   0  0  0  0  0  0  0  0  0  0  0  0
   -5.9280   19.7710  -33.5640 C   0  0  0  0  0  0  0  0  0  0  0  0
   -7.1510   19.3950  -32.7630 C   0  0  0  0  0  0  0  0  0  0  0  0
   -8.1620   20.3420  -33.0450 O   0  0  0  0  0  0  0  0  0  0  0  0
   -9.0180   20.4770  -31.9520 C   0  0  0  0  0  0  0  0  0  0  0  0
   -4.1110   21.7680  -31.6010 C   0  0  0  0  0  0  0  0  0  0  0  0
   -3.2200   20.8220  -32.0030 O   0  0  0  0  0  0  0  0  0  0  0  0
   -2.0590   20.3510  -31.4610 C   0  0  0  0  0  0  0  0  0  0  0  0
   -0.9400   21.3470  -31.2920 C   0  0  0  0  0  0  0  0  0  0  0  0
    0.1070   20.7720  -30.5360 O   0  0  0  0  0  0  0  0  0  0  0  0
    0.5350   19.6420  -31.1990 C   0  0  0  0  0  0  0  0  0  0  0  0
   -3.9600   22.6400  -30.5380 C   0  0  0  0  0  0  0  0  0  0  0  0
   -4.9550   23.5400  -30.2670 C   0  0  0  0  0  0  0  0  0  0  0  0
   -2.8230   22.3680  -27.9550 C   0  0  0  0  0  0  0  0  0  0  0  0
   -0.1420   18.1846  -26.4024 H   0  0  0  0  0  0  0  0  0  0  0  0
   -0.4816   17.0422  -27.7463 H   0  0  0  0  0  0  0  0  0  0  0  0
    1.0360   18.0033  -27.7463 H   0  0  0  0  0  0  0  0  0  0  0  0
   -0.0310   19.7250  -28.6640 H   0  0  0  0  0  0  0  0  0  0  0  0
    0.4350   21.6140  -27.6773 H   0  0  0  0  0  0  0  0  0  0  0  0
    0.6443   23.9482  -28.4257 H   0  0  0  0  0  0  0  0  0  0  0  0
   -1.0092   26.3531  -27.1042 H   0  0  0  0  0  0  0  0  0  0  0  0
    0.2016   26.7795  -28.3606 H   0  0  0  0  0  0  0  0  0  0  0  0
   -1.4101   27.5726  -28.3606 H   0  0  0  0  0  0  0  0  0  0  0  0
   -5.8240   25.9910  -28.2170 H   0  0  0  0  0  0  0  0  0  0  0  0
   -7.7890   26.0891  -29.5324 H   0  0  0  0  0  0  0  0  0  0  0  0
   -7.1974   22.7949  -32.6905 H   0  0  0  0  0  0  0  0  0  0  0  0
   -6.1956   19.6917  -34.6280 H   0  0  0  0  0  0  0  0  0  0  0  0
   -5.1467   19.0783  -33.2181 H   0  0  0  0  0  0  0  0  0  0  0  0
   -7.4908   18.3888  -33.0495 H   0  0  0  0  0  0  0  0  0  0  0  0
   -6.9188   19.3904  -31.6878 H   0  0  0  0  0  0  0  0  0  0  0  0
   -8.4403   20.3859  -31.0204 H   0  0  0  0  0  0  0  0  0  0  0  0
   -9.5045   21.4630  -31.9868 H   0  0  0  0  0  0  0  0  0  0  0  0
   -9.7843   19.6886  -31.9868 H   0  0  0  0  0  0  0  0  0  0  0  0
   -2.2959   19.9435  -30.4671 H   0  0  0  0  0  0  0  0  0  0  0  0
   -1.6818   19.6107  -32.1819 H   0  0  0  0  0  0  0  0  0  0  0  0
   -0.5580   21.6376  -32.2818 H   0  0  0  0  0  0  0  0  0  0  0  0
   -1.3217   22.2340  -30.7652 H   0  0  0  0  0  0  0  0  0  0  0  0
    0.8256   18.8749  -30.4662 H   0  0  0  0  0  0  0  0  0  0  0  0
   -0.2794   19.2565  -31.8300 H   0  0  0  0  0  0  0  0  0  0  0  0
    1.4004   19.8928  -31.8300 H   0  0  0  0  0  0  0  0  0  0  0  0
   -3.0517   22.6106  -29.9182 H   0  0  0  0  0  0  0  0  0  0  0  0
   -3.8087   21.8997  -27.8169 H   0  0  0  0  0  0  0  0  0  0  0  0
  1  2  1  0
  2  3  1  0
  3  4  2  0
  3  5  2  0
  3  6  1  0
  6  7  2  0
  7  8  1  0
  8  9  2  0
  9 10  1  0
 10 11  1  0
  9 12  1  0
 12 13  1  0
 13 14  2  0
 14 15  1  0
 15 16  1  0
 16 17  2  0
 17 18  1  0
 18 19  2  0
 19 20  1  0
 20 21  1  0
 21 22  1  0
 22 23  1  0
 23 24  1  0
 24 25  1  0
 20 26  2  0
 26 27  1  0
 27 28  1  0
 28 29  1  0
 29 30  1  0
 30 31  1  0
 26 32  1  0
 32 33  2  0
 12 34  2  0
 34  6  1  0
 33 14  1  0
 33 18  1  0
  1 35  1  0
  1 36  1  0
  1 37  1  0
  2 38  1  0
  7 39  1  0
  8 40  1  0
 11 41  1  0
 11 42  1  0
 11 43  1  0
 15 44  1  0
 16 45  1  0
 19 46  1  0
 22 47  1  0
 22 48  1  0
 23 49  1  0
 23 50  1  0
 25 51  1  0
 25 52  1  0
 25 53  1  0
 28 54  1  0
 28 55  1  0
 29 56  1  0
 29 57  1  0
 31 58  1  0
 31 59  1  0
 31 60  1  0
 32 61  1  0
 34 62  1  0
M  END
>  <smiles>  (3) 
CNS(=O)(=O)c1ccc(OC)c(N=c2[nH]cnc3cc(OCCOC)c(OCCOC)cc23)c1

>  <score_type>  (3) 
oracle

>  <origin>  (3) 
adgpu

>  <m_score__min__energy>  (3) 
-8.1300000000000008

>  <m_primary>  (3) 
energy

$$$$
3:0
     RDKit          3D

 62 65  0  0  0  0  0  0  0  0999 V2000
    1.4100   19.2860  -28.8000 C   0  0  0  0  0  0  0  0  0  0  0  0
    0.8790   18.3030  -29.8050 C   0  0  0  0  0  0  0  0  0  0  0  0
    0.8740   16.9320  -29.5170 C   0  0  0  0  0  0  0  0  0  0  0  0
    0.3580   16.0220  -30.4420 C   0  0  0  0  0  0  0  0  0  0  0  0
   -0.1820   16.4640  -31.6610 C   0  0  0  0  0  0  0  0  0  0  0  0
   -0.8750   15.2810  -32.7820 S   0  0  0  0  0  0  0  0  0  0  0  0
   -1.7350   14.3130  -32.0110 O   0  0  0  0  0  0  0  0  0  0  0  0
    0.2160   14.5110  -33.4760 O   0  0  0  0  0  0  0  0  0  0  0  0
   -1.8670   16.0880  -33.9560 N   0  0  0  0  0  0  0  0  0  0  0  0
   -3.2650   16.3490  -33.7920 C   0  0  0  0  0  0  0  0  0  0  0  0
   -4.3000   15.5490  -34.2500 C   0  0  0  0  0  0  0  0  0  0  0  0
   -4.1490   14.1970  -34.8850 C   0  0  0  0  0  0  0  0  0  0  0  0
   -5.4790   16.1350  -33.9230 N   0  0  0  0  0  0  0  0  0  0  0  0
   -6.8110   15.5730  -34.1750 C   0  0  0  0  0  0  0  0  0  0  0  0
   -5.2280   17.3020  -33.3280 N   0  0  0  0  0  0  0  0  0  0  0  0
   -6.2060   18.2690  -32.9030 C   0  0  0  0  0  0  0  0  0  0  0  0
   -7.2470   17.8950  -32.0330 C   0  0  0  0  0  0  0  0  0  0  0  0
   -8.2160   18.8290  -31.6490 C   0  0  0  0  0  0  0  0  0  0  0  0
   -8.1620   20.1340  -32.1470 C   0  0  0  0  0  0  0  0  0  0  0  0
   -7.1390   20.5080  -33.0230 C   0  0  0  0  0  0  0  0  0  0  0  0
   -6.1640   19.5820  -33.4000 C   0  0  0  0  0  0  0  0  0  0  0  0
   -3.8870   17.4480  -33.2320 C   0  0  0  0  0  0  0  0  0  0  0  0
   -3.3170   18.4700  -32.7620 O   0  0  0  0  0  0  0  0  0  0  0  0
   -0.1950   17.8490  -31.9490 C   0  0  0  0  0  0  0  0  0  0  0  0
   -0.7410   18.3410  -33.1820 N   0  0  0  0  0  0  0  0  0  0  0  0
   -0.4890   19.9790  -33.6900 S   0  0  0  0  0  0  0  0  0  0  0  0
   -0.7640   20.0910  -35.1630 O   0  0  0  0  0  0  0  0  0  0  0  0
    0.9370   20.3810  -33.4390 O   0  0  0  0  0  0  0  0  0  0  0  0
   -1.5930   21.0420  -32.8190 C   0  0  0  0  0  0  0  0  0  0  0  0
   -2.8620   21.3210  -33.3470 C   0  0  0  0  0  0  0  0  0  0  0  0
   -3.7470   22.1520  -32.6520 C   0  0  0  0  0  0  0  0  0  0  0  0
   -3.3760   22.6970  -31.4140 C   0  0  0  0  0  0  0  0  0  0  0  0
   -4.4930   23.7270  -30.5260 S   0  0  0  0  0  0  0  0  0  0  0  0
   -3.8630   25.3340  -30.4670 N   0  0  0  0  0  0  0  0  0  0  0  0
   -5.8290   23.7390  -31.2110 O   0  0  0  0  0  0  0  0  0  0  0  0
   -4.6730   23.2040  -29.1280 O   0  0  0  0  0  0  0  0  0  0  0  0
   -2.1160   22.4010  -30.8770 C   0  0  0  0  0  0  0  0  0  0  0  0
   -1.2250   21.5830  -31.5790 C   0  0  0  0  0  0  0  0  0  0  0  0
    0.3370   18.7550  -31.0160 C   0  0  0  0  0  0  0  0  0  0  0  0
    1.2099   18.9156  -27.7837 H   0  0  0  0  0  0  0  0  0  0  0  0
    2.4946   19.4041  -28.9403 H   0  0  0  0  0  0  0  0  0  0  0  0
    0.9142   20.2578  -28.9403 H   0  0  0  0  0  0  0  0  0  0  0  0
    1.2777   16.5713  -28.5594 H   0  0  0  0  0  0  0  0  0  0  0  0
    0.3746   14.9462  -30.2133 H   0  0  0  0  0  0  0  0  0  0  0  0
   -4.0634   13.4309  -34.1003 H   0  0  0  0  0  0  0  0  0  0  0  0
   -5.0291   13.9851  -35.5100 H   0  0  0  0  0  0  0  0  0  0  0  0
   -3.2439   14.1845  -35.5100 H   0  0  0  0  0  0  0  0  0  0  0  0
   -7.3079   15.3634  -33.2163 H   0  0  0  0  0  0  0  0  0  0  0  0
   -7.4109   16.2947  -34.7488 H   0  0  0  0  0  0  0  0  0  0  0  0
   -6.7126   14.6397  -34.7488 H   0  0  0  0  0  0  0  0  0  0  0  0
   -7.2993   16.8640  -31.6531 H   0  0  0  0  0  0  0  0  0  0  0  0
   -9.0189   18.5366  -30.9563 H   0  0  0  0  0  0  0  0  0  0  0  0
   -8.9256   20.8676  -31.8491 H   0  0  0  0  0  0  0  0  0  0  0  0
   -7.1018   21.5345  -33.4165 H   0  0  0  0  0  0  0  0  0  0  0  0
   -5.3603   19.8820  -34.0886 H   0  0  0  0  0  0  0  0  0  0  0  0
   -1.4570   17.7800  -33.6940 H   0  0  0  0  0  0  0  0  0  0  0  0
   -3.1625   20.8848  -34.3111 H   0  0  0  0  0  0  0  0  0  0  0  0
   -4.7359   22.3785  -33.0772 H   0  0  0  0  0  0  0  0  0  0  0  0
   -2.8220   25.2510  -30.4370 H   0  0  0  0  0  0  0  0  0  0  0  0
   -1.8265   22.8137  -29.8993 H   0  0  0  0  0  0  0  0  0  0  0  0
   -0.2330   21.3635  -31.1573 H   0  0  0  0  0  0  0  0  0  0  0  0
    0.3280   19.8322  -31.2387 H   0  0  0  0  0  0  0  0  0  0  0  0
  1  2  1  0
  2  3  2  0
  3  4  1  0
  4  5  2  0
  5  6  1  0
  6  7  2  0
  6  8  2  0
  6  9  1  0
  9 10  1  0
 10 11  2  0
 11 12  1  0
 11 13  1  0
 13 14  1  0
 13 15  1  0
 15 16  1  0
 16 17  2  0
 17 18  1  0
 18 19  2  0
 19 20  1  0
 20 21  2  0
 15 22  1  0
 22 23  2  0
  5 24  1  0
 24 25  1  0
 25 26  1  0
 26 27  2  0
 26 28  2  0
 26 29  1  0
 29 30  2  0
 30 31  1  0
 31 32  2  0
 32 33  1  0
 33 34  1  0
 33 35  2  0
 33 36  2  0
 32 37  1  0
 37 38  2  0
 24 39  2  0
 39  2  1  0
 22 10  1  0
 38 29  1  0
 21 16  1  0
  1 40  1  0
  1 41  1  0
  1 42  1  0
  3 43  1  0
  4 44  1  0
 12 45  1  0
 12 46  1  0
 12 47  1  0
 14 48  1  0
 14 49  1  0
 14 50  1  0
 17 51  1  0
 18 52  1  0
 19 53  1  0
 20 54  1  0
 21 55  1  0
 25 56  1  0
 30 57  1  0
 31 58  1  0
 34 59  1  0
 37 60  1  0
 38 61  1  0
 39 62  1  0
M  CHG  2   9  -1  34  -1
M  END
>  <UniqueID>  (4) 
3

>  <SMILES>  (4) 
Cc1ccc(S(=O)(=O)[N-]c2c(C)n(C)n(-c3ccccc3)c2=O)c(NS(=O)(=O)c2ccc(S([NH-])(=O)=O)cc2)c1

>  <Energy>  (4) 
114.07753710573442

>  <Genealogy>  (4) 
Cc1ccc(S(=O)(=O)[N-]c2c(C)n(C)n(-c3ccccc3)c2=O)c(NS(=O)(=O)c2ccc(S([NH-])(=O)=O)cc2)c1 (protonated)
Cc1ccc(S(=O)(=O)[N-]c2c(C)n(C)n(-c3ccccc3)c2=O)c(NS(=O)(=O)c2ccc(S([NH-])(=O)=O)cc2)c1 (3D coordinates assigned)
Cc1ccc(S(=O)(=O)[N-]c2c(C)n(C)n(-c3ccccc3)c2=O)c(NS(=O)(=O)c2ccc(S([NH-])(=O)=O)cc2)c1 (optimized conformer: 114.07753710573442 kcal/mol)

>  <smiles>  (4) 
Cc1ccc(S(=O)(=O)Nc2c(C)n(C)n(-c3ccccc3)c2=O)c(NS(=O)(=O)c2ccc(S(N)(=O)=O)cc2)c1

>  <score_type>  (4) 
oracle

>  <origin>  (4) 
adgpu

>  <m_score__min__energy>  (4) 
-12.49

>  <m_primary>  (4) 
energy

$$$$
4:0
     RDKit          3D

 53 55  0  0  0  0  0  0  0  0999 V2000
   -3.5070   25.1360  -30.6790 N   0  0  0  0  0  0  0  0  0  0  0  0
   -5.0870   24.9770  -29.9990 S   0  0  0  0  0  0  0  0  0  0  0  0
   -5.8980   26.1870  -30.3720 O   0  0  0  0  0  0  0  0  0  0  0  0
   -4.9860   24.8870  -28.5030 O   0  0  0  0  0  0  0  0  0  0  0  0
   -5.8490   23.5200  -30.6240 C   0  0  0  0  0  0  0  0  0  0  0  0
   -7.1120   23.1220  -30.1690 C   0  0  0  0  0  0  0  0  0  0  0  0
   -7.7120   21.9670  -30.6790 C   0  0  0  0  0  0  0  0  0  0  0  0
   -7.0570   21.1840  -31.6480 C   0  0  0  0  0  0  0  0  0  0  0  0
   -7.7170   19.9630  -32.1830 C   0  0  0  0  0  0  0  0  0  0  0  0
   -8.4200   20.0460  -33.2280 O   0  0  0  0  0  0  0  0  0  0  0  0
   -7.6010   18.6190  -31.5170 C   0  0  0  0  0  0  0  0  0  0  0  0
   -7.2350   17.2980  -32.7280 S   0  0  0  0  0  0  0  0  0  0  0  0
   -5.8400   18.1410  -33.4770 C   0  0  0  0  0  0  0  0  0  0  0  0
   -6.0680   18.9080  -34.9120 S   0  0  0  0  0  0  0  0  0  0  0  0
   -4.5970   18.2210  -32.7610 N   0  0  0  0  0  0  0  0  0  0  0  0
   -3.4000   18.8140  -33.2830 C   0  0  0  0  0  0  0  0  0  0  0  0
   -2.4490   18.0420  -33.9690 C   0  0  0  0  0  0  0  0  0  0  0  0
   -1.2890   18.6380  -34.4720 C   0  0  0  0  0  0  0  0  0  0  0  0
   -1.0610   20.0080  -34.2830 C   0  0  0  0  0  0  0  0  0  0  0  0
    0.3640   20.7640  -34.9930 S   0  0  0  0  0  0  0  0  0  0  0  0
    0.2780   20.7060  -36.4930 O   0  0  0  0  0  0  0  0  0  0  0  0
    0.4090   22.2060  -34.5690 O   0  0  0  0  0  0  0  0  0  0  0  0
    1.8020   19.9410  -34.4440 N   0  0  0  0  0  0  0  0  0  0  0  0
    2.9990   20.7350  -34.7660 C   0  0  0  0  0  0  0  0  0  0  0  0
    4.2750   20.0500  -34.2260 C   0  0  0  0  0  0  0  0  0  0  0  0
    3.9830   18.8970  -33.4560 O   0  0  0  0  0  0  0  0  0  0  0  0
    3.0810   19.2320  -32.4220 C   0  0  0  0  0  0  0  0  0  0  0  0
    1.7190   19.6820  -32.9930 C   0  0  0  0  0  0  0  0  0  0  0  0
   -1.9940   20.7730  -33.5710 C   0  0  0  0  0  0  0  0  0  0  0  0
   -3.1500   20.1750  -33.0610 C   0  0  0  0  0  0  0  0  0  0  0  0
   -5.7760   21.5810  -32.0810 C   0  0  0  0  0  0  0  0  0  0  0  0
   -5.1820   22.7390  -31.5730 C   0  0  0  0  0  0  0  0  0  0  0  0
   -3.4970   26.0290  -31.2210 H   0  0  0  0  0  0  0  0  0  0  0  0
   -7.6339   23.7203  -29.4076 H   0  0  0  0  0  0  0  0  0  0  0  0
   -8.7071   21.6667  -30.3190 H   0  0  0  0  0  0  0  0  0  0  0  0
   -6.7905   18.6572  -30.7743 H   0  0  0  0  0  0  0  0  0  0  0  0
   -8.5632   18.3886  -31.0363 H   0  0  0  0  0  0  0  0  0  0  0  0
   -4.6060   17.9570  -31.7500 H   0  0  0  0  0  0  0  0  0  0  0  0
   -2.6173   16.9643  -34.1112 H   0  0  0  0  0  0  0  0  0  0  0  0
   -0.5527   18.0299  -35.0179 H   0  0  0  0  0  0  0  0  0  0  0  0
    1.8530   19.0240  -34.9510 H   0  0  0  0  0  0  0  0  0  0  0  0
    3.0800   20.8382  -35.8581 H   0  0  0  0  0  0  0  0  0  0  0  0
    2.9033   21.7237  -34.2935 H   0  0  0  0  0  0  0  0  0  0  0  0
    4.9057   19.7558  -35.0778 H   0  0  0  0  0  0  0  0  0  0  0  0
    4.7911   20.7686  -33.5724 H   0  0  0  0  0  0  0  0  0  0  0  0
    2.9278   18.3518  -31.7803 H   0  0  0  0  0  0  0  0  0  0  0  0
    3.5081   20.0643  -31.8434 H   0  0  0  0  0  0  0  0  0  0  0  0
    0.9764   18.8908  -32.8126 H   0  0  0  0  0  0  0  0  0  0  0  0
    1.4247   20.6155  -32.4911 H   0  0  0  0  0  0  0  0  0  0  0  0
   -1.8164   21.8470  -33.4129 H   0  0  0  0  0  0  0  0  0  0  0  0
   -3.8672   20.7758  -32.4824 H   0  0  0  0  0  0  0  0  0  0  0  0
   -5.2394   20.9741  -32.8251 H   0  0  0  0  0  0  0  0  0  0  0  0
   -4.1827   23.0385  -31.9219 H   0  0  0  0  0  0  0  0  0  0  0  0
  1  2  1  0
  2  3  2  0
  2  4  2  0
  2  5  1  0
  5  6  2  0
  6  7  1  0
  7  8  2  0
  8  9  1  0
  9 10  2  0
  9 11  1  0
 11 12  1  0
 12 13  1  0
 13 14  2  0
 13 15  1  0
 15 16  1  0
 16 17  2  0
 17 18  1  0
 18 19  2  0
 19 20  1  0
 20 21  2  0
 20 22  2  0
 20 23  1  0
 23 24  1  0
 24 25  1  0
 25 26  1  0
 26 27  1  0
 27 28  1  0
 19 29  1  0
 29 30  2  0
  8 31  1  0
 31 32  2  0
 32  5  1  0
 30 16  1  0
 28 23  1  0
  1 33  1  0
  6 34  1  0
  7 35  1  0
 11 36  1  0
 11 37  1  0
 15 38  1  0
 17 39  1  0
 18 40  1  0
 23 41  1  0
 24 42  1  0
 24 43  1  0
 25 44  1  0
 25 45  1  0
 27 46  1  0
 27 47  1  0
 28 48  1  0
 28 49  1  0
 29 50  1  0
 30 51  1  0
 31 52  1  0
 32 53  1  0
M  CHG  2   1  -1  23   1
M  END
>  <UniqueID>  (5) 
4

>  <SMILES>  (5) 
[NH-]S(=O)(=O)c1ccc(C(=O)CSC(=S)Nc2ccc(S(=O)(=O)[NH+]3CCOCC3)cc2)cc1

>  <Energy>  (5) 
64.04520363092672

>  <Genealogy>  (5) 
[NH-]S(=O)(=O)c1ccc(C(=O)CSC(=S)Nc2ccc(S(=O)(=O)[NH+]3CCOCC3)cc2)cc1 (protonated)
[NH-]S(=O)(=O)c1ccc(C(=O)CSC(=S)Nc2ccc(S(=O)(=O)[NH+]3CCOCC3)cc2)cc1 (3D coordinates assigned)
[NH-]S(=O)(=O)c1ccc(C(=O)CSC(=S)Nc2ccc(S(=O)(=O)[NH+]3CCOCC3)cc2)cc1 (nonaromatic ring conformer: 64.04520363092672 kcal/mol)

>  <smiles>  (5) 
NS(=O)(=O)c1ccc(C(=O)CSC(=S)Nc2ccc(S(=O)(=O)N3CCOCC3)cc2)cc1

>  <score_type>  (5) 
oracle

>  <origin>  (5) 
adgpu

>  <m_score__min__energy>  (5) 
-11.460000000000001

>  <m_primary>  (5) 
energy

$$$$
5:0
     RDKit          3D

 50 52  0  0  0  0  0  0  0  0999 V2000
   -0.8670   26.4740  -27.9930 C   0  0  0  0  0  0  0  0  0  0  0  0
   -1.4940   25.6740  -28.9900 O   0  0  0  0  0  0  0  0  0  0  0  0
   -1.5740   24.2720  -28.9540 C   0  0  0  0  0  0  0  0  0  0  0  0
   -0.4460   23.4610  -29.1980 C   0  0  0  0  0  0  0  0  0  0  0  0
   -0.5500   22.0700  -29.1450 C   0  0  0  0  0  0  0  0  0  0  0  0
   -1.7710   21.4710  -28.8450 C   0  0  0  0  0  0  0  0  0  0  0  0
   -2.8990   22.2590  -28.6140 C   0  0  0  0  0  0  0  0  0  0  0  0
   -2.8160   23.6590  -28.6720 C   0  0  0  0  0  0  0  0  0  0  0  0
   -4.0580   24.4770  -28.4160 C   0  0  0  0  0  0  0  0  0  0  0  0
   -5.2420   23.8320  -28.9900 N   0  0  0  0  0  0  0  0  0  0  0  0
   -5.1990   23.8180  -30.7310 S   0  0  0  0  0  0  0  0  0  0  0  0
   -3.8380   23.4290  -31.2380 O   0  0  0  0  0  0  0  0  0  0  0  0
   -5.5110   25.1990  -31.2360 O   0  0  0  0  0  0  0  0  0  0  0  0
   -6.4190   22.7070  -31.3510 C   0  0  0  0  0  0  0  0  0  0  0  0
   -7.7810   23.0080  -31.2410 C   0  0  0  0  0  0  0  0  0  0  0  0
   -8.7370   22.1260  -31.7480 C   0  0  0  0  0  0  0  0  0  0  0  0
   -8.3450   20.9240  -32.3530 C   0  0  0  0  0  0  0  0  0  0  0  0
   -9.3110   20.0520  -32.8490 O   0  0  0  0  0  0  0  0  0  0  0  0
   -6.9750   20.6090  -32.4540 C   0  0  0  0  0  0  0  0  0  0  0  0
   -6.4320   19.0920  -33.1900 S   0  0  0  0  0  0  0  0  0  0  0  0
   -6.1910   19.3100  -34.6580 O   0  0  0  0  0  0  0  0  0  0  0  0
   -7.5300   18.0730  -33.0610 O   0  0  0  0  0  0  0  0  0  0  0  0
   -4.9730   18.4530  -32.4550 N   0  0  0  0  0  0  0  0  0  0  0  0
   -3.7830   19.2690  -32.7560 C   0  0  0  0  0  0  0  0  0  0  0  0
   -3.1480   18.9310  -34.1240 C   0  0  0  0  0  0  0  0  0  0  0  0
   -3.7710   17.8360  -34.7620 O   0  0  0  0  0  0  0  0  0  0  0  0
   -3.8150   16.7380  -33.8810 C   0  0  0  0  0  0  0  0  0  0  0  0
   -4.7790   17.0130  -32.7140 C   0  0  0  0  0  0  0  0  0  0  0  0
   -6.0220   21.5080  -31.9540 C   0  0  0  0  0  0  0  0  0  0  0  0
   -1.1535   26.1084  -26.9959 H   0  0  0  0  0  0  0  0  0  0  0  0
    0.2254   26.4118  -28.1064 H   0  0  0  0  0  0  0  0  0  0  0  0
   -1.1884   27.5199  -28.1064 H   0  0  0  0  0  0  0  0  0  0  0  0
    0.5222   23.9279  -29.4316 H   0  0  0  0  0  0  0  0  0  0  0  0
    0.3343   21.4457  -29.3406 H   0  0  0  0  0  0  0  0  0  0  0  0
   -1.8462   20.3749  -28.7901 H   0  0  0  0  0  0  0  0  0  0  0  0
   -3.8617   21.7789  -28.3844 H   0  0  0  0  0  0  0  0  0  0  0  0
   -4.1990   24.5860  -27.3305 H   0  0  0  0  0  0  0  0  0  0  0  0
   -3.9319   25.4615  -28.8903 H   0  0  0  0  0  0  0  0  0  0  0  0
   -8.0992   23.9416  -30.7540 H   0  0  0  0  0  0  0  0  0  0  0  0
   -9.8055   22.3761  -31.6721 H   0  0  0  0  0  0  0  0  0  0  0  0
   -9.1010   19.3900  -33.5870 H   0  0  0  0  0  0  0  0  0  0  0  0
   -4.0766   20.3291  -32.7584 H   0  0  0  0  0  0  0  0  0  0  0  0
   -3.0316   19.0522  -31.9824 H   0  0  0  0  0  0  0  0  0  0  0  0
   -3.2314   19.8121  -34.7773 H   0  0  0  0  0  0  0  0  0  0  0  0
   -2.0988   18.6548  -33.9424 H   0  0  0  0  0  0  0  0  0  0  0  0
   -4.1576   15.8485  -34.4300 H   0  0  0  0  0  0  0  0  0  0  0  0
   -2.8067   16.5716  -33.4740 H   0  0  0  0  0  0  0  0  0  0  0  0
   -5.7549   16.5648  -32.9521 H   0  0  0  0  0  0  0  0  0  0  0  0
   -4.3353   16.5722  -31.8091 H   0  0  0  0  0  0  0  0  0  0  0  0
   -4.9516   21.2684  -32.0365 H   0  0  0  0  0  0  0  0  0  0  0  0
  1  2  1  0
  2  3  1  0
  3  4  2  0
  4  5  1  0
  5  6  2  0
  6  7  1  0
  7  8  2  0
  8  9  1  0
  9 10  1  0
 10 11  1  0
 11 12  2  0
 11 13  2  0
 11 14  1  0
 14 15  2  0
 15 16  1  0
 16 17  2  0
 17 18  1  0
 17 19  1  0
 19 20  1  0
 20 21  2  0
 20 22  2  0
 20 23  1  0
 23 24  1  0
 24 25  1  0
 25 26  1  0
 26 27  1  0
 27 28  1  0
 19 29  2  0
  8  3  1  0
 29 14  1  0
 28 23  1  0
  1 30  1  0
  1 31  1  0
  1 32  1  0
  4 33  1  0
  5 34  1  0
  6 35  1  0
  7 36  1  0
  9 37  1  0
  9 38  1  0
 15 39  1  0
 16 40  1  0
 18 41  1  0
 24 42  1  0
 24 43  1  0
 25 44  1  0
 25 45  1  0
 27 46  1  0
 27 47  1  0
 28 48  1  0
 28 49  1  0
 29 50  1  0
M  CHG  1  10  -1
M  END
>  <UniqueID>  (6) 
5

>  <SMILES>  (6) 
COc1ccccc1C[N-]S(=O)(=O)c1ccc(O)c(S(=O)(=O)N2CCOCC2)c1

>  <Energy>  (6) 
57.4108909697696

>  <Genealogy>  (6) 
COc1ccccc1C[N-]S(=O)(=O)c1ccc(O)c(S(=O)(=O)N2CCOCC2)c1 (protonated)
COc1ccccc1C[N-]S(=O)(=O)c1ccc(O)c(S(=O)(=O)N2CCOCC2)c1 (3D coordinates assigned)
COc1ccccc1C[N-]S(=O)(=O)c1ccc(O)c(S(=O)(=O)N2CCOCC2)c1 (nonaromatic ring conformer: 57.4108909697696 kcal/mol)

>  <smiles>  (6) 
COc1ccccc1CNS(=O)(=O)c1ccc(O)c(S(=O)(=O)N2CCOCC2)c1

>  <score_type>  (6) 
oracle

>  <origin>  (6) 
adgpu

>  <m_score__min__energy>  (6) 
-9.6899999999999995

>  <m_primary>  (6) 
energy

$$$$
6:0
     RDKit          3D

 54 57  0  0  0  0  0  0  0  0999 V2000
    0.7620   15.3310  -31.3700 C   0  0  0  0  0  0  0  0  0  0  0  0
    1.2450   15.8720  -30.0580 C   0  0  0  0  0  0  0  0  0  0  0  0
    2.1300   15.2280  -29.4310 O   0  0  0  0  0  0  0  0  0  0  0  0
    0.7400   17.1160  -29.5250 N   0  0  0  0  0  0  0  0  0  0  0  0
    1.1280   17.5460  -28.1720 C   0  0  0  0  0  0  0  0  0  0  0  0
   -0.0480   18.2430  -27.4770 C   0  0  0  0  0  0  0  0  0  0  0  0
   -0.6670   19.2550  -28.3420 N   0  0  0  0  0  0  0  0  0  0  0  0
   -1.7400   20.0580  -27.8170 C   0  0  0  0  0  0  0  0  0  0  0  0
   -2.5940   19.5220  -27.0590 O   0  0  0  0  0  0  0  0  0  0  0  0
   -1.8500   21.5040  -28.1200 C   0  0  0  0  0  0  0  0  0  0  0  0
   -0.6960   22.2700  -28.3540 C   0  0  0  0  0  0  0  0  0  0  0  0
   -0.7970   23.6300  -28.6530 C   0  0  0  0  0  0  0  0  0  0  0  0
   -2.0510   24.2430  -28.7500 C   0  0  0  0  0  0  0  0  0  0  0  0
   -2.1150   25.6030  -29.0500 O   0  0  0  0  0  0  0  0  0  0  0  0
   -3.2170   23.4790  -28.5600 C   0  0  0  0  0  0  0  0  0  0  0  0
   -4.5030   24.1020  -28.6580 N   0  0  0  0  0  0  0  0  0  0  0  0
   -5.2080   24.6210  -30.1560 S   0  0  0  0  0  0  0  0  0  0  0  0
   -6.3390   25.5640  -29.8550 O   0  0  0  0  0  0  0  0  0  0  0  0
   -4.1770   25.3640  -30.9580 O   0  0  0  0  0  0  0  0  0  0  0  0
   -5.8340   23.2700  -31.1000 C   0  0  0  0  0  0  0  0  0  0  0  0
   -7.2160   23.0630  -31.2010 C   0  0  0  0  0  0  0  0  0  0  0  0
   -7.7160   21.9650  -31.9050 C   0  0  0  0  0  0  0  0  0  0  0  0
   -6.8370   21.0560  -32.5130 C   0  0  0  0  0  0  0  0  0  0  0  0
   -7.3280   19.9500  -33.2250 C   0  0  0  0  0  0  0  0  0  0  0  0
   -6.4410   19.0410  -33.8080 C   0  0  0  0  0  0  0  0  0  0  0  0
   -5.0610   19.2300  -33.6890 C   0  0  0  0  0  0  0  0  0  0  0  0
   -4.5590   20.3320  -32.9890 C   0  0  0  0  0  0  0  0  0  0  0  0
   -5.4390   21.2540  -32.4020 C   0  0  0  0  0  0  0  0  0  0  0  0
   -4.9480   22.3630  -31.6990 C   0  0  0  0  0  0  0  0  0  0  0  0
   -3.1070   22.1220  -28.2240 C   0  0  0  0  0  0  0  0  0  0  0  0
   -0.2340   19.3950  -29.7390 C   0  0  0  0  0  0  0  0  0  0  0  0
   -0.0590   18.0140  -30.3770 C   0  0  0  0  0  0  0  0  0  0  0  0
    0.0394   14.5216  -31.1892 H   0  0  0  0  0  0  0  0  0  0  0  0
    0.2761   16.1354  -31.9418 H   0  0  0  0  0  0  0  0  0  0  0  0
    1.6161   14.9391  -31.9418 H   0  0  0  0  0  0  0  0  0  0  0  0
    1.4274   16.6662  -27.5836 H   0  0  0  0  0  0  0  0  0  0  0  0
    1.9679   18.2522  -28.2482 H   0  0  0  0  0  0  0  0  0  0  0  0
   -0.8040   17.4888  -27.2131 H   0  0  0  0  0  0  0  0  0  0  0  0
    0.3352   18.7480  -26.5780 H   0  0  0  0  0  0  0  0  0  0  0  0
    0.2946   21.7948  -28.3013 H   0  0  0  0  0  0  0  0  0  0  0  0
    0.1152   24.2234  -28.8134 H   0  0  0  0  0  0  0  0  0  0  0  0
   -2.9730   26.0530  -29.3440 H   0  0  0  0  0  0  0  0  0  0  0  0
   -7.9112   23.7691  -30.7233 H   0  0  0  0  0  0  0  0  0  0  0  0
   -8.8026   21.8125  -31.9830 H   0  0  0  0  0  0  0  0  0  0  0  0
   -8.4130   19.7987  -33.3241 H   0  0  0  0  0  0  0  0  0  0  0  0
   -6.8299   18.1741  -34.3623 H   0  0  0  0  0  0  0  0  0  0  0  0
   -4.3676   18.5096  -34.1474 H   0  0  0  0  0  0  0  0  0  0  0  0
   -3.4723   20.4762  -32.8985 H   0  0  0  0  0  0  0  0  0  0  0  0
   -3.8627   22.5225  -31.6169 H   0  0  0  0  0  0  0  0  0  0  0  0
   -4.0177   21.5334  -28.0393 H   0  0  0  0  0  0  0  0  0  0  0  0
   -0.9921   19.9613  -30.2998 H   0  0  0  0  0  0  0  0  0  0  0  0
    0.7277   19.9283  -29.7660 H   0  0  0  0  0  0  0  0  0  0  0  0
   -1.0512   17.5661  -30.5346 H   0  0  0  0  0  0  0  0  0  0  0  0
    0.4723   18.1427  -31.3316 H   0  0  0  0  0  0  0  0  0  0  0  0
  1  2  1  0
  2  3  2  0
  2  4  1  0
  4  5  1  0
  5  6  1  0
  6  7  1  0
  7  8  1  0
  8  9  2  0
  8 10  1  0
 10 11  2  0
 11 12  1  0
 12 13  2  0
 13 14  1  0
 13 15  1  0
 15 16  1  0
 16 17  1  0
 17 18  2  0
 17 19  2  0
 17 20  1  0
 20 21  2  0
 21 22  1  0
 22 23  2  0
 23 24  1  0
 24 25  2  0
 25 26  1  0
 26 27  2  0
 27 28  1  0
 28 29  2  0
 15 30  2  0
  7 31  1  0
 31 32  1  0
 32  4  1  0
 30 10  1  0
 29 20  1  0
 28 23  1  0
  1 33  1  0
  1 34  1  0
  1 35  1  0
  5 36  1  0
  5 37  1  0
  6 38  1  0
  6 39  1  0
 11 40  1  0
 12 41  1  0
 14 42  1  0
 21 43  1  0
 22 44  1  0
 24 45  1  0
 25 46  1  0
 26 47  1  0
 27 48  1  0
 29 49  1  0
 30 50  1  0
 31 51  1  0
 31 52  1  0
 32 53  1  0
 32 54  1  0
M  CHG  1  16  -1
M  END
>  <UniqueID>  (7) 
6

>  <SMILES>  (7) 
CC(=O)N1CCN(C(=O)c2ccc(O)c([N-]S(=O)(=O)c3ccc4ccccc4c3)c2)CC1

>  <Energy>  (7) 
68.10760178142164

>  <Genealogy>  (7) 
CC(=O)N1CCN(C(=O)c2ccc(O)c([N-]S(=O)(=O)c3ccc4ccccc4c3)c2)CC1 (protonated)
CC(=O)N1CCN(C(=O)c2ccc(O)c([N-]S(=O)(=O)c3ccc4ccccc4c3)c2)CC1 (3D coordinates assigned)
CC(=O)N1CCN(C(=O)c2ccc(O)c([N-]S(=O)(=O)c3ccc4ccccc4c3)c2)CC1 (nonaromatic ring conformer: 68.10760178142164 kcal/mol)

>  <smiles>  (7) 
CC(=O)N1CCN(C(=O)c2ccc(O)c(NS(=O)(=O)c3ccc4ccccc4c3)c2)CC1

>  <score_type>  (7) 
oracle

>  <origin>  (7) 
adgpu

>  <m_score__min__energy>  (7) 
-13.24

>  <m_primary>  (7) 
energy

$$$$
7:0
     RDKit          3D

 59 62  0  0  0  0  0  0  0  0999 V2000
   -3.5380   14.9620  -32.8390 C   0  0  0  0  0  0  0  0  0  0  0  0
   -5.0500   15.1460  -33.0130 C   0  0  2  0  0  0  0  0  0  0  0  0
   -5.6760   14.1860  -34.0090 C   0  0  0  0  0  0  0  0  0  0  0  0
   -6.9830   14.8620  -34.3870 C   0  0  0  0  0  0  0  0  0  0  0  0
   -6.8650   16.3040  -33.8820 C   0  0  0  0  0  0  0  0  0  0  0  0
   -5.5020   16.5040  -33.3710 N   0  0  0  0  0  0  0  0  0  0  0  0
   -4.5140   17.3600  -34.5530 S   0  0  0  0  0  0  0  0  0  0  0  0
   -5.4070   18.1670  -35.4560 O   0  0  0  0  0  0  0  0  0  0  0  0
   -3.8050   16.3510  -35.4150 O   0  0  0  0  0  0  0  0  0  0  0  0
   -3.2890   18.4220  -33.8410 C   0  0  0  0  0  0  0  0  0  0  0  0
   -2.0340   17.9160  -33.4690 C   0  0  0  0  0  0  0  0  0  0  0  0
   -1.0750   18.7560  -32.9000 C   0  0  0  0  0  0  0  0  0  0  0  0
   -1.3570   20.1120  -32.6860 C   0  0  0  0  0  0  0  0  0  0  0  0
   -0.4080   20.9300  -32.0720 O   0  0  0  0  0  0  0  0  0  0  0  0
   -2.6120   20.6290  -33.0620 C   0  0  0  0  0  0  0  0  0  0  0  0
   -2.9470   22.0100  -32.8720 N   0  0  0  0  0  0  0  0  0  0  0  0
   -3.1920   22.6280  -31.6030 C   0  0  0  0  0  0  0  0  0  0  0  0
   -2.2560   22.7050  -30.7600 O   0  0  0  0  0  0  0  0  0  0  0  0
   -4.5100   23.2400  -31.2960 C   0  0  0  0  0  0  0  0  0  0  0  0
   -5.6870   22.5180  -31.5760 C   0  0  0  0  0  0  0  0  0  0  0  0
   -6.9470   23.0500  -31.2710 C   0  0  0  0  0  0  0  0  0  0  0  0
   -8.4040   22.1040  -31.5780 S   0  0  0  0  0  0  0  0  0  0  0  0
   -9.4740   23.0080  -32.1250 O   0  0  0  0  0  0  0  0  0  0  0  0
   -8.9040   21.5280  -30.2820 O   0  0  0  0  0  0  0  0  0  0  0  0
   -8.1140   20.8010  -32.7110 N   0  0  0  0  0  0  0  0  0  0  0  0
   -9.2740   19.9070  -32.7940 C   0  0  0  0  0  0  0  0  0  0  0  0
   -9.0130   18.7010  -31.9000 C   0  0  0  0  0  0  0  0  0  0  0  0
   -7.5300   18.7310  -31.5920 C   0  0  0  0  0  0  0  0  0  0  0  0
   -6.9830   19.9680  -32.2880 C   0  0  0  0  0  0  0  0  0  0  0  0
   -7.0390   24.3270  -30.7050 C   0  0  0  0  0  0  0  0  0  0  0  0
   -5.8840   25.0600  -30.4370 C   0  0  0  0  0  0  0  0  0  0  0  0
   -4.6240   24.5280  -30.7250 C   0  0  0  0  0  0  0  0  0  0  0  0
   -3.5010   25.3000  -30.4500 O   0  0  0  0  0  0  0  0  0  0  0  0
   -3.5830   19.7690  -33.5910 C   0  0  0  0  0  0  0  0  0  0  0  0
   -3.2932   14.9322  -31.7670 H   0  0  0  0  0  0  0  0  0  0  0  0
   -3.2264   14.0193  -33.3126 H   0  0  0  0  0  0  0  0  0  0  0  0
   -3.0094   15.8024  -33.3126 H   0  0  0  0  0  0  0  0  0  0  0  0
   -5.3978   14.9274  -31.9926 H   0  0  0  0  0  0  0  0  0  0  0  0
   -5.0305   14.0592  -34.8906 H   0  0  0  0  0  0  0  0  0  0  0  0
   -5.8216   13.1772  -33.5954 H   0  0  0  0  0  0  0  0  0  0  0  0
   -7.1206   14.8478  -35.4783 H   0  0  0  0  0  0  0  0  0  0  0  0
   -7.8490   14.3468  -33.9459 H   0  0  0  0  0  0  0  0  0  0  0  0
   -7.0591   17.0043  -34.7078 H   0  0  0  0  0  0  0  0  0  0  0  0
   -7.5995   16.4873  -33.0840 H   0  0  0  0  0  0  0  0  0  0  0  0
   -1.8047   16.8518  -33.6266 H   0  0  0  0  0  0  0  0  0  0  0  0
   -0.0919   18.3510  -32.6179 H   0  0  0  0  0  0  0  0  0  0  0  0
   -0.6320   21.8730  -31.7750 H   0  0  0  0  0  0  0  0  0  0  0  0
   -5.6159   21.5233  -32.0403 H   0  0  0  0  0  0  0  0  0  0  0  0
  -10.1761   20.4354  -32.4519 H   0  0  0  0  0  0  0  0  0  0  0  0
   -9.4287   19.5820  -33.8335 H   0  0  0  0  0  0  0  0  0  0  0  0
   -9.5989   18.7777  -30.9722 H   0  0  0  0  0  0  0  0  0  0  0  0
   -9.3064   17.7613  -32.3908 H   0  0  0  0  0  0  0  0  0  0  0  0
   -7.3663   18.7992  -30.5064 H   0  0  0  0  0  0  0  0  0  0  0  0
   -7.0272   17.8168  -31.9404 H   0  0  0  0  0  0  0  0  0  0  0  0
   -6.3449   20.5335  -31.5929 H   0  0  0  0  0  0  0  0  0  0  0  0
   -6.3825   19.6749  -33.1618 H   0  0  0  0  0  0  0  0  0  0  0  0
   -8.0257   24.7533  -30.4710 H   0  0  0  0  0  0  0  0  0  0  0  0
   -5.9648   26.0643  -29.9957 H   0  0  0  0  0  0  0  0  0  0  0  0
   -4.5886   20.1558  -33.8128 H   0  0  0  0  0  0  0  0  0  0  0  0
  1  2  1  0
  2  3  1  0
  3  4  1  0
  4  5  1  0
  5  6  1  0
  6  7  1  0
  7  8  2  0
  7  9  2  0
  7 10  1  0
 10 11  2  0
 11 12  1  0
 12 13  2  0
 13 14  1  0
 13 15  1  0
 15 16  1  0
 16 17  1  0
 17 18  2  0
 17 19  1  0
 19 20  2  0
 20 21  1  0
 21 22  1  0
 22 23  2  0
 22 24  2  0
 22 25  1  0
 25 26  1  0
 26 27  1  0
 27 28  1  0
 28 29  1  0
 21 30  2  0
 30 31  1  0
 31 32  2  0
 32 33  1  0
 15 34  2  0
  6  2  1  0
 34 10  1  0
 32 19  1  0
 29 25  1  0
  1 35  1  0
  1 36  1  0
  1 37  1  0
  2 38  1  1
  3 39  1  0
  3 40  1  0
  4 41  1  0
  4 42  1  0
  5 43  1  0
  5 44  1  0
 11 45  1  0
 12 46  1  0
 14 47  1  0
 20 48  1  0
 26 49  1  0
 26 50  1  0
 27 51  1  0
 27 52  1  0
 28 53  1  0
 28 54  1  0
 29 55  1  0
 29 56  1  0
 30 57  1  0
 31 58  1  0
 34 59  1  0
M  CHG  2  16  -1  33  -1
M  END
>  <UniqueID>  (8) 
7

>  <SMILES>  (8) 
C[C@@H]1CCCN1S(=O)(=O)c1ccc(O)c([N-]C(=O)c2cc(S(=O)(=O)N3CCCC3)ccc2[O-])c1

>  <Energy>  (8) 
75.15153390208569

>  <Genealogy>  (8) 
CC1CCCN1S(=O)(=O)c1ccc(O)c([N-]C(=O)c2cc(S(=O)(=O)N3CCCC3)ccc2[O-])c1 (protonated)
C[C@@H]1CCCN1S(=O)(=O)c1ccc(O)c([N-]C(=O)c2cc(S(=O)(=O)N3CCCC3)ccc2[O-])c1 (chirality)
C[C@@H]1CCCN1S(=O)(=O)c1ccc(O)c([N-]C(=O)c2cc(S(=O)(=O)N3CCCC3)ccc2[O-])c1 (3D coordinates assigned)
C[C@@H]1CCCN1S(=O)(=O)c1ccc(O)c([N-]C(=O)c2cc(S(=O)(=O)N3CCCC3)ccc2[O-])c1 (nonaromatic ring conformer: 75.15153390208569 kcal/mol)

>  <smiles>  (8) 
CC1CCCN1S(=O)(=O)c1ccc(O)c(NC(=O)c2cc(S(=O)(=O)N3CCCC3)ccc2O)c1

>  <score_type>  (8) 
oracle

>  <origin>  (8) 
adgpu

>  <m_score__min__energy>  (8) 
-14.52

>  <m_primary>  (8) 
energy

$$$$
8:0
     RDKit          3D

 49 51  0  0  0  0  0  0  0  0999 V2000
   -2.2980   19.5960  -26.8240 C   0  0  0  0  0  0  0  0  0  0  0  0
   -1.0920   18.8520  -27.2870 C   0  0  0  0  0  0  0  0  0  0  0  0
   -0.8230   17.7300  -26.7800 O   0  0  0  0  0  0  0  0  0  0  0  0
   -0.1990   19.4710  -28.2210 N   0  0  0  0  0  0  0  0  0  0  0  0
   -0.1210   19.2260  -29.6330 C   0  0  0  0  0  0  0  0  0  0  0  0
    0.9580   18.4810  -30.1240 C   0  0  0  0  0  0  0  0  0  0  0  0
    1.0830   18.2310  -31.4930 C   0  0  0  0  0  0  0  0  0  0  0  0
    0.1320   18.7310  -32.3860 C   0  0  0  0  0  0  0  0  0  0  0  0
   -0.9470   19.4880  -31.9110 C   0  0  0  0  0  0  0  0  0  0  0  0
   -2.1750   20.1000  -33.0150 S   0  0  0  0  0  0  0  0  0  0  0  0
   -1.9030   19.6120  -34.4120 O   0  0  0  0  0  0  0  0  0  0  0  0
   -2.0950   21.6020  -33.0000 O   0  0  0  0  0  0  0  0  0  0  0  0
   -3.7630   19.5700  -32.4890 N   0  0  0  0  0  0  0  0  0  0  0  0
   -4.8170   19.9370  -33.4560 C   0  0  0  0  0  0  0  0  0  0  0  0
   -6.1760   19.5320  -32.9510 C   0  0  0  0  0  0  0  0  0  0  0  0
   -6.4270   18.2070  -32.5580 C   0  0  0  0  0  0  0  0  0  0  0  0
   -7.6850   17.8470  -32.0620 C   0  0  0  0  0  0  0  0  0  0  0  0
   -8.6990   18.8020  -31.9640 C   0  0  0  0  0  0  0  0  0  0  0  0
   -8.4610   20.1180  -32.3680 C   0  0  0  0  0  0  0  0  0  0  0  0
   -7.2060   20.4840  -32.8630 C   0  0  0  0  0  0  0  0  0  0  0  0
   -4.0700   20.0140  -31.1110 C   0  0  0  0  0  0  0  0  0  0  0  0
   -4.0160   21.5170  -30.9170 C   0  0  0  0  0  0  0  0  0  0  0  0
   -5.0120   22.3450  -31.4670 C   0  0  0  0  0  0  0  0  0  0  0  0
   -4.9620   23.7290  -31.2840 C   0  0  0  0  0  0  0  0  0  0  0  0
   -3.9110   24.3040  -30.5630 C   0  0  0  0  0  0  0  0  0  0  0  0
   -3.8650   25.6810  -30.3800 O   0  0  0  0  0  0  0  0  0  0  0  0
   -2.9050   23.4940  -30.0310 C   0  0  0  0  0  0  0  0  0  0  0  0
   -2.9520   22.1080  -30.2120 C   0  0  0  0  0  0  0  0  0  0  0  0
   -1.0610   19.7510  -30.5390 C   0  0  0  0  0  0  0  0  0  0  0  0
   -2.3205   19.6099  -25.7243 H   0  0  0  0  0  0  0  0  0  0  0  0
   -2.2601   20.6279  -27.2030 H   0  0  0  0  0  0  0  0  0  0  0  0
   -3.2033   19.0992  -27.2030 H   0  0  0  0  0  0  0  0  0  0  0  0
    1.7132   18.0895  -29.4266 H   0  0  0  0  0  0  0  0  0  0  0  0
    1.9313   17.6397  -31.8682 H   0  0  0  0  0  0  0  0  0  0  0  0
    0.2305   18.5302  -33.4630 H   0  0  0  0  0  0  0  0  0  0  0  0
   -4.8003   21.0260  -33.6105 H   0  0  0  0  0  0  0  0  0  0  0  0
   -4.6234   19.4109  -34.4024 H   0  0  0  0  0  0  0  0  0  0  0  0
   -5.6327   17.4505  -32.6403 H   0  0  0  0  0  0  0  0  0  0  0  0
   -7.8754   16.8099  -31.7488 H   0  0  0  0  0  0  0  0  0  0  0  0
   -9.6854   18.5181  -31.5686 H   0  0  0  0  0  0  0  0  0  0  0  0
   -9.2628   20.8677  -32.2964 H   0  0  0  0  0  0  0  0  0  0  0  0
   -7.0241   21.5201  -33.1846 H   0  0  0  0  0  0  0  0  0  0  0  0
   -5.0826   19.6690  -30.8547 H   0  0  0  0  0  0  0  0  0  0  0  0
   -3.2958   19.5826  -30.4594 H   0  0  0  0  0  0  0  0  0  0  0  0
   -5.8353   21.8996  -32.0448 H   0  0  0  0  0  0  0  0  0  0  0  0
   -5.7509   24.3677  -31.7079 H   0  0  0  0  0  0  0  0  0  0  0  0
   -2.0748   23.9468  -29.4690 H   0  0  0  0  0  0  0  0  0  0  0  0
   -2.1515   21.4758  -29.8002 H   0  0  0  0  0  0  0  0  0  0  0  0
   -1.8902   20.3715  -30.1683 H   0  0  0  0  0  0  0  0  0  0  0  0
  1  2  1  0
  2  3  2  0
  2  4  1  0
  4  5  1  0
  5  6  2  0
  6  7  1  0
  7  8  2  0
  8  9  1  0
  9 10  1  0
 10 11  2  0
 10 12  2  0
 10 13  1  0
 13 14  1  0
 14 15  1  0
 15 16  2  0
 16 17  1  0
 17 18  2  0
 18 19  1  0
 19 20  2  0
 13 21  1  0
 21 22  1  0
 22 23  2  0
 23 24  1  0
 24 25  2  0
 25 26  1  0
 25 27  1  0
 27 28  2  0
  9 29  2  0
 29  5  1  0
 20 15  1  0
 28 22  1  0
  1 30  1  0
  1 31  1  0
  1 32  1  0
  6 33  1  0
  7 34  1  0
  8 35  1  0
 14 36  1  0
 14 37  1  0
 16 38  1  0
 17 39  1  0
 18 40  1  0
 19 41  1  0
 20 42  1  0
 21 43  1  0
 21 44  1  0
 23 45  1  0
 24 46  1  0
 27 47  1  0
 28 48  1  0
 29 49  1  0
M  CHG  2   4  -1  26  -1
M  END
>  <UniqueID>  (9) 
8

>  <SMILES>  (9) 
CC(=O)[N-]c1cccc(S(=O)(=O)N(Cc2ccccc2)Cc2ccc([O-])cc2)c1

>  <Energy>  (9) 
51.20798412526804

>  <Genealogy>  (9) 
CC(=O)[N-]c1cccc(S(=O)(=O)N(Cc2ccccc2)Cc2ccc([O-])cc2)c1 (protonated)
CC(=O)[N-]c1cccc(S(=O)(=O)N(Cc2ccccc2)Cc2ccc([O-])cc2)c1 (3D coordinates assigned)
CC(=O)[N-]c1cccc(S(=O)(=O)N(Cc2ccccc2)Cc2ccc([O-])cc2)c1 (optimized conformer: 51.20798412526804 kcal/mol)

>  <smiles>  (9) 
CC(=O)Nc1cccc(S(=O)(=O)N(Cc2ccccc2)Cc2ccc(O)cc2)c1

>  <score_type>  (9) 
oracle

>  <origin>  (9) 
adgpu

>  <m_score__min__energy>  (9) 
-12.029999999999999

>  <m_primary>  (9) 
energy

$$$$
9:0
     RDKit          3D

 50 53  0  0  0  0  0  0  0  0999 V2000
   -5.8450   16.4450  -32.1540 C   0  0  0  0  0  0  0  0  0  0  0  0
   -6.1960   17.8620  -32.0630 N   0  0  0  0  0  0  0  0  0  0  0  0
   -5.2190   18.7480  -31.8650 N   0  0  0  0  0  0  0  0  0  0  0  0
   -5.4450   20.0840  -31.7670 C   0  0  0  0  0  0  0  0  0  0  0  0
   -4.2910   20.9700  -31.5070 C   0  0  0  0  0  0  0  0  0  0  0  0
   -4.4920   22.1740  -30.8120 C   0  0  0  0  0  0  0  0  0  0  0  0
   -3.4270   23.0560  -30.5950 C   0  0  0  0  0  0  0  0  0  0  0  0
   -3.7130   24.6200  -29.8360 S   0  0  0  0  0  0  0  0  0  0  0  0
   -4.7130   24.4600  -28.7260 O   0  0  0  0  0  0  0  0  0  0  0  0
   -4.2680   25.5900  -30.8430 O   0  0  0  0  0  0  0  0  0  0  0  0
   -2.2190   25.2220  -29.1780 N   0  0  0  0  0  0  0  0  0  0  0  0
   -1.5860   24.2330  -28.2950 C   0  0  0  0  0  0  0  0  0  0  0  0
   -0.1810   24.7240  -27.8620 C   0  0  0  0  0  0  0  0  0  0  0  0
   -0.1600   25.4220  -26.4870 C   0  0  0  0  0  0  0  0  0  0  0  0
   -1.4590   26.1870  -26.2240 C   0  0  0  0  0  0  0  0  0  0  0  0
   -2.6840   25.2500  -26.2180 C   0  0  0  0  0  0  0  0  0  0  0  0
   -2.4950   23.9850  -27.0820 C   0  0  0  0  0  0  0  0  0  0  0  0
   -2.1450   22.7170  -31.0430 C   0  0  0  0  0  0  0  0  0  0  0  0
   -1.9290   21.5050  -31.7020 C   0  0  0  0  0  0  0  0  0  0  0  0
   -2.9950   20.6280  -31.9380 C   0  0  0  0  0  0  0  0  0  0  0  0
   -2.6800   19.1370  -32.8190 Cl  0  0  0  0  0  0  0  0  0  0  0  0
   -6.7650   20.5680  -31.8880 C   0  0  0  0  0  0  0  0  0  0  0  0
   -7.0700   21.9460  -31.8470 C   0  0  0  0  0  0  0  0  0  0  0  0
   -8.3920   22.3820  -31.9600 C   0  0  0  0  0  0  0  0  0  0  0  0
   -9.4230   21.4580  -32.1280 C   0  0  0  0  0  0  0  0  0  0  0  0
   -9.1390   20.0940  -32.1930 C   0  0  0  0  0  0  0  0  0  0  0  0
   -7.8110   19.6360  -32.0820 C   0  0  0  0  0  0  0  0  0  0  0  0
   -7.4990   18.2670  -32.1650 C   0  0  0  0  0  0  0  0  0  0  0  0
   -8.4160   17.4150  -32.3400 O   0  0  0  0  0  0  0  0  0  0  0  0
   -5.7415   16.0272  -31.1417 H   0  0  0  0  0  0  0  0  0  0  0  0
   -6.6366   15.9051  -32.6944 H   0  0  0  0  0  0  0  0  0  0  0  0
   -4.8930   16.3370  -32.6944 H   0  0  0  0  0  0  0  0  0  0  0  0
   -5.4943   22.4257  -30.4353 H   0  0  0  0  0  0  0  0  0  0  0  0
   -1.4526   23.2824  -28.8321 H   0  0  0  0  0  0  0  0  0  0  0  0
    0.4919   23.8549  -27.8197 H   0  0  0  0  0  0  0  0  0  0  0  0
    0.1395   25.4701  -28.6040 H   0  0  0  0  0  0  0  0  0  0  0  0
   -0.0282   24.6620  -25.7028 H   0  0  0  0  0  0  0  0  0  0  0  0
    0.6712   26.1424  -26.4794 H   0  0  0  0  0  0  0  0  0  0  0  0
   -1.3870   26.6853  -25.2460 H   0  0  0  0  0  0  0  0  0  0  0  0
   -1.5935   26.9207  -27.0325 H   0  0  0  0  0  0  0  0  0  0  0  0
   -2.8787   24.9378  -25.1813 H   0  0  0  0  0  0  0  0  0  0  0  0
   -3.5249   25.8135  -26.6485 H   0  0  0  0  0  0  0  0  0  0  0  0
   -2.0463   23.1965  -26.4600 H   0  0  0  0  0  0  0  0  0  0  0  0
   -3.4841   23.6871  -27.4602 H   0  0  0  0  0  0  0  0  0  0  0  0
   -1.3052   23.4074  -30.8755 H   0  0  0  0  0  0  0  0  0  0  0  0
   -0.9161   21.2377  -32.0375 H   0  0  0  0  0  0  0  0  0  0  0  0
   -6.2609   22.6812  -31.7252 H   0  0  0  0  0  0  0  0  0  0  0  0
   -8.6206   23.4571  -31.9164 H   0  0  0  0  0  0  0  0  0  0  0  0
  -10.4633   21.8060  -32.2095 H   0  0  0  0  0  0  0  0  0  0  0  0
   -9.9567   19.3714  -32.3318 H   0  0  0  0  0  0  0  0  0  0  0  0
  1  2  1  0
  2  3  1  0
  3  4  2  0
  4  5  1  0
  5  6  2  0
  6  7  1  0
  7  8  1  0
  8  9  2  0
  8 10  2  0
  8 11  1  0
 11 12  1  0
 12 13  1  0
 13 14  1  0
 14 15  1  0
 15 16  1  0
 16 17  1  0
  7 18  2  0
 18 19  1  0
 19 20  2  0
 20 21  1  0
  4 22  1  0
 22 23  2  0
 23 24  1  0
 24 25  2  0
 25 26  1  0
 26 27  2  0
 27 28  1  0
 28 29  2  0
 28  2  1  0
 20  5  1  0
 27 22  1  0
 17 12  1  0
  1 30  1  0
  1 31  1  0
  1 32  1  0
  6 33  1  0
 12 34  1  0
 13 35  1  0
 13 36  1  0
 14 37  1  0
 14 38  1  0
 15 39  1  0
 15 40  1  0
 16 41  1  0
 16 42  1  0
 17 43  1  0
 17 44  1  0
 18 45  1  0
 19 46  1  0
 23 47  1  0
 24 48  1  0
 25 49  1  0
 26 50  1  0
M  CHG  1  11  -1
M  END
>  <UniqueID>  (10) 
9

>  <SMILES>  (10) 
Cn1nc(-c2cc(S(=O)(=O)[N-]C3CCCCC3)ccc2Cl)c2ccccc2c1=O

>  <Energy>  (10) 
68.37373522195442

>  <Genealogy>  (10) 
Cn1nc(-c2cc(S(=O)(=O)[N-]C3CCCCC3)ccc2Cl)c2ccccc2c1=O (protonated)
Cn1nc(-c2cc(S(=O)(=O)[N-]C3CCCCC3)ccc2Cl)c2ccccc2c1=O (3D coordinates assigned)
Cn1nc(-c2cc(S(=O)(=O)[N-]C3CCCCC3)ccc2Cl)c2ccccc2c1=O (nonaromatic ring conformer: 68.37373522195442 kcal/mol)

>  <smiles>  (10) 
Cn1nc(-c2cc(S(=O)(=O)NC3CCCCC3)ccc2Cl)c2ccccc2c1=O

>  <score_type>  (10) 
oracle

>  <origin>  (10) 
adgpu

>  <m_score__min__energy>  (10) 
-11.91

>  <m_primary>  (10) 
energy

$$$$
10:0
     RDKit          3D

 54 56  0  0  0  0  0  0  0  0999 V2000
   -6.4910   26.0260  -28.9970 C   0  0  0  0  0  0  0  0  0  0  0  0
   -6.2560   25.6770  -30.3570 O   0  0  0  0  0  0  0  0  0  0  0  0
   -5.9470   24.3840  -30.8090 C   0  0  0  0  0  0  0  0  0  0  0  0
   -6.9500   23.4810  -31.2100 C   0  0  0  0  0  0  0  0  0  0  0  0
   -6.6120   22.2220  -31.7050 C   0  0  0  0  0  0  0  0  0  0  0  0
   -5.2680   21.8480  -31.8280 C   0  0  0  0  0  0  0  0  0  0  0  0
   -4.8380   20.2520  -32.4560 S   0  0  0  0  0  0  0  0  0  0  0  0
   -5.3320   19.2010  -31.5020 O   0  0  0  0  0  0  0  0  0  0  0  0
   -5.5270   20.0450  -33.7760 O   0  0  0  0  0  0  0  0  0  0  0  0
   -3.1160   20.0530  -32.6720 N   0  0  0  0  0  0  0  0  0  0  0  0
   -2.3780   20.1110  -31.4110 C   0  0  0  0  0  0  0  0  0  0  0  0
   -0.9600   20.5520  -31.7590 C   0  0  0  0  0  0  0  0  0  0  0  0
   -1.0580   21.1710  -33.1460 C   0  0  0  0  0  0  0  0  0  0  0  0
   -2.5350   21.1000  -33.5140 C   0  0  0  0  0  0  0  0  0  0  0  0
   -4.2650   22.7380  -31.4220 C   0  0  0  0  0  0  0  0  0  0  0  0
   -4.5950   23.9890  -30.8900 C   0  0  0  0  0  0  0  0  0  0  0  0
   -3.5300   24.8570  -30.4800 N   0  0  0  0  0  0  0  0  0  0  0  0
   -2.8990   24.8270  -29.1950 C   0  0  0  0  0  0  0  0  0  0  0  0
   -2.0000   25.6650  -28.9060 O   0  0  0  0  0  0  0  0  0  0  0  0
   -3.3840   23.8610  -28.1580 C   0  0  0  0  0  0  0  0  0  0  0  0
   -2.5500   22.6070  -28.1530 C   0  0  0  0  0  0  0  0  0  0  0  0
   -3.1030   21.3930  -27.7230 C   0  0  0  0  0  0  0  0  0  0  0  0
   -2.3370   20.2250  -27.7460 C   0  0  0  0  0  0  0  0  0  0  0  0
   -1.0110   20.2580  -28.1960 C   0  0  0  0  0  0  0  0  0  0  0  0
   -0.0500   18.7810  -28.2010 S   0  0  0  0  0  0  0  0  0  0  0  0
    1.6570   19.1840  -27.8960 C   0  0  0  0  0  0  0  0  0  0  0  0
   -0.1640   18.0960  -29.5330 O   0  0  0  0  0  0  0  0  0  0  0  0
   -0.5510   17.8520  -27.1330 O   0  0  0  0  0  0  0  0  0  0  0  0
   -0.4550   21.4710  -28.6240 C   0  0  0  0  0  0  0  0  0  0  0  0
   -1.2220   22.6370  -28.6090 C   0  0  0  0  0  0  0  0  0  0  0  0
   -5.9982   25.2941  -28.3402 H   0  0  0  0  0  0  0  0  0  0  0  0
   -6.0832   27.0284  -28.8000 H   0  0  0  0  0  0  0  0  0  0  0  0
   -7.5732   26.0252  -28.8000 H   0  0  0  0  0  0  0  0  0  0  0  0
   -8.0083   23.7709  -31.1322 H   0  0  0  0  0  0  0  0  0  0  0  0
   -7.4049   21.5191  -32.0003 H   0  0  0  0  0  0  0  0  0  0  0  0
   -2.9480   19.1230  -33.1220 H   0  0  0  0  0  0  0  0  0  0  0  0
   -2.8456   20.8375  -30.7301 H   0  0  0  0  0  0  0  0  0  0  0  0
   -2.3779   19.1344  -30.9049 H   0  0  0  0  0  0  0  0  0  0  0  0
   -0.5981   21.2934  -31.0314 H   0  0  0  0  0  0  0  0  0  0  0  0
   -0.2525   19.7100  -31.7359 H   0  0  0  0  0  0  0  0  0  0  0  0
   -0.7155   22.2161  -33.1267 H   0  0  0  0  0  0  0  0  0  0  0  0
   -0.4273   20.6430  -33.8764 H   0  0  0  0  0  0  0  0  0  0  0  0
   -3.0244   22.0648  -33.3148 H   0  0  0  0  0  0  0  0  0  0  0  0
   -2.6715   20.8768  -34.5824 H   0  0  0  0  0  0  0  0  0  0  0  0
   -3.2080   22.4503  -31.5225 H   0  0  0  0  0  0  0  0  0  0  0  0
   -3.3237   24.3365  -27.1679 H   0  0  0  0  0  0  0  0  0  0  0  0
   -4.4234   23.5884  -28.3933 H   0  0  0  0  0  0  0  0  0  0  0  0
   -4.1431   21.3599  -27.3664 H   0  0  0  0  0  0  0  0  0  0  0  0
   -2.7773   19.2749  -27.4091 H   0  0  0  0  0  0  0  0  0  0  0  0
    1.8357   19.2262  -26.8114 H   0  0  0  0  0  0  0  0  0  0  0  0
    2.3014   18.4133  -28.3441 H   0  0  0  0  0  0  0  0  0  0  0  0
    1.8887   20.1615  -28.3441 H   0  0  0  0  0  0  0  0  0  0  0  0
    0.5878   21.5043  -28.9724 H   0  0  0  0  0  0  0  0  0  0  0  0
   -0.7840   23.5844  -28.9562 H   0  0  0  0  0  0  0  0  0  0  0  0
  1  2  1  0
  2  3  1  0
  3  4  2  0
  4  5  1  0
  5  6  2  0
  6  7  1  0
  7  8  2  0
  7  9  2  0
  7 10  1  0
 10 11  1  0
 11 12  1  0
 12 13  1  0
 13 14  1  0
  6 15  1  0
 15 16  2  0
 16 17  1  0
 17 18  1  0
 18 19  2  0
 18 20  1  0
 20 21  1  0
 21 22  2  0
 22 23  1  0
 23 24  2  0
 24 25  1  0
 25 26  1  0
 25 27  2  0
 25 28  2  0
 24 29  1  0
 29 30  2  0
 16  3  1  0
 30 21  1  0
 14 10  1  0
  1 31  1  0
  1 32  1  0
  1 33  1  0
  4 34  1  0
  5 35  1  0
 10 36  1  0
 11 37  1  0
 11 38  1  0
 12 39  1  0
 12 40  1  0
 13 41  1  0
 13 42  1  0
 14 43  1  0
 14 44  1  0
 15 45  1  0
 20 46  1  0
 20 47  1  0
 22 48  1  0
 23 49  1  0
 26 50  1  0
 26 51  1  0
 26 52  1  0
 29 53  1  0
 30 54  1  0
M  CHG  2  10   1  17  -1
M  END
>  <UniqueID>  (11) 
10

>  <SMILES>  (11) 
COc1ccc(S(=O)(=O)[NH+]2CCCC2)cc1[N-]C(=O)Cc1ccc(S(C)(=O)=O)cc1

>  <Energy>  (11) 
56.484401379406165

>  <Genealogy>  (11) 
COc1ccc(S(=O)(=O)[NH+]2CCCC2)cc1[N-]C(=O)Cc1ccc(S(C)(=O)=O)cc1 (protonated)
COc1ccc(S(=O)(=O)[NH+]2CCCC2)cc1[N-]C(=O)Cc1ccc(S(C)(=O)=O)cc1 (3D coordinates assigned)
COc1ccc(S(=O)(=O)[NH+]2CCCC2)cc1[N-]C(=O)Cc1ccc(S(C)(=O)=O)cc1 (nonaromatic ring conformer: 56.484401379406165 kcal/mol)

>  <smiles>  (11) 
COc1ccc(S(=O)(=O)N2CCCC2)cc1NC(=O)Cc1ccc(S(C)(=O)=O)cc1

>  <score_type>  (11) 
oracle

>  <origin>  (11) 
adgpu

>  <m_score__min__energy>  (11) 
-11.19

>  <m_primary>  (11) 
energy

$$$$
11:0
     RDKit          3D

 46 48  0  0  0  0  0  0  0  0999 V2000
   -4.1770   23.4040  -28.9230 O   0  0  0  0  0  0  0  0  0  0  0  0
   -4.1080   23.7180  -30.3920 S   0  0  0  0  0  0  0  0  0  0  0  0
   -3.9120   25.1990  -30.5440 O   0  0  0  0  0  0  0  0  0  0  0  0
   -2.7760   22.8790  -31.1390 N   0  0  0  0  0  0  0  0  0  0  0  0
   -1.5870   22.8430  -30.2620 C   0  0  0  0  0  0  0  0  0  0  0  0
   -1.5580   24.0300  -29.2620 C   0  0  0  0  0  0  0  0  0  0  0  0
   -0.6450   23.9120  -28.0190 C   0  0  0  0  0  0  0  0  0  0  0  0
   -1.2290   23.1590  -26.8090 C   0  0  0  0  0  0  0  0  0  0  0  0
   -1.4600   21.6390  -26.9990 C   0  0  0  0  0  0  0  0  0  0  0  0
   -2.2150   21.2300  -28.2730 C   0  0  0  0  0  0  0  0  0  0  0  0
   -1.4400   21.4580  -29.5850 C   0  0  0  0  0  0  0  0  0  0  0  0
   -5.6230   23.2320  -31.1500 C   0  0  0  0  0  0  0  0  0  0  0  0
   -7.0310   24.1460  -31.0810 S   0  0  0  0  0  0  0  0  0  0  0  0
   -7.9920   23.0870  -31.9620 C   0  0  0  0  0  0  0  0  0  0  0  0
   -7.2180   21.9950  -32.3230 C   0  0  0  0  0  0  0  0  0  0  0  0
   -5.8900   22.0630  -31.8680 C   0  0  0  0  0  0  0  0  0  0  0  0
   -4.7090   20.8020  -32.2230 S   0  0  0  0  0  0  0  0  0  0  0  0
   -3.9360   20.4410  -30.9860 O   0  0  0  0  0  0  0  0  0  0  0  0
   -3.7520   21.2950  -33.2710 O   0  0  0  0  0  0  0  0  0  0  0  0
   -5.5250   19.3510  -32.8040 C   0  0  0  0  0  0  0  0  0  0  0  0
   -5.2570   18.8680  -34.0930 C   0  0  0  0  0  0  0  0  0  0  0  0
   -5.8840   17.7060  -34.5520 C   0  0  0  0  0  0  0  0  0  0  0  0
   -6.7780   17.0190  -33.7250 C   0  0  0  0  0  0  0  0  0  0  0  0
   -7.0420   17.4930  -32.4360 C   0  0  0  0  0  0  0  0  0  0  0  0
   -6.4170   18.6550  -31.9750 C   0  0  0  0  0  0  0  0  0  0  0  0
   -3.1240   21.9080  -31.3050 H   0  0  0  0  0  0  0  0  0  0  0  0
   -0.6954   22.9790  -30.8917 H   0  0  0  0  0  0  0  0  0  0  0  0
   -1.2353   24.9206  -29.8212 H   0  0  0  0  0  0  0  0  0  0  0  0
   -2.5775   24.0669  -28.8507 H   0  0  0  0  0  0  0  0  0  0  0  0
    0.2732   23.3901  -28.3266 H   0  0  0  0  0  0  0  0  0  0  0  0
   -0.4882   24.9442  -27.6727 H   0  0  0  0  0  0  0  0  0  0  0  0
   -0.5362   23.2907  -25.9648 H   0  0  0  0  0  0  0  0  0  0  0  0
   -2.2271   23.5914  -26.6455 H   0  0  0  0  0  0  0  0  0  0  0  0
   -0.4758   21.1481  -27.0181 H   0  0  0  0  0  0  0  0  0  0  0  0
   -2.1000   21.3277  -26.1603 H   0  0  0  0  0  0  0  0  0  0  0  0
   -2.4554   20.1591  -28.1993 H   0  0  0  0  0  0  0  0  0  0  0  0
   -3.1063   21.8726  -28.3243 H   0  0  0  0  0  0  0  0  0  0  0  0
   -0.3720   21.3068  -29.3691 H   0  0  0  0  0  0  0  0  0  0  0  0
   -1.8766   20.7451  -30.2999 H   0  0  0  0  0  0  0  0  0  0  0  0
   -9.0535   23.2346  -32.2100 H   0  0  0  0  0  0  0  0  0  0  0  0
   -7.6079   21.1518  -32.9121 H   0  0  0  0  0  0  0  0  0  0  0  0
   -4.5517   19.4048  -34.7444 H   0  0  0  0  0  0  0  0  0  0  0  0
   -5.6739   17.3317  -35.5648 H   0  0  0  0  0  0  0  0  0  0  0  0
   -7.2733   16.1064  -34.0880 H   0  0  0  0  0  0  0  0  0  0  0  0
   -7.7425   16.9505  -31.7841 H   0  0  0  0  0  0  0  0  0  0  0  0
   -6.6251   19.0244  -30.9600 H   0  0  0  0  0  0  0  0  0  0  0  0
  1  2  2  0
  2  3  2  0
  2  4  1  0
  4  5  1  0
  5  6  1  0
  6  7  1  0
  7  8  1  0
  8  9  1  0
  9 10  1  0
 10 11  1  0
  2 12  1  0
 12 13  1  0
 13 14  1  0
 14 15  2  0
 15 16  1  0
 16 17  1  0
 17 18  2  0
 17 19  2  0
 17 20  1  0
 20 21  2  0
 21 22  1  0
 22 23  2  0
 23 24  1  0
 24 25  2  0
 11  5  1  0
 16 12  2  0
 25 20  1  0
  4 26  1  0
  5 27  1  0
  6 28  1  0
  6 29  1  0
  7 30  1  0
  7 31  1  0
  8 32  1  0
  8 33  1  0
  9 34  1  0
  9 35  1  0
 10 36  1  0
 10 37  1  0
 11 38  1  0
 11 39  1  0
 14 40  1  0
 15 41  1  0
 21 42  1  0
 22 43  1  0
 23 44  1  0
 24 45  1  0
 25 46  1  0
M  END
>  <UniqueID>  (12) 
11

>  <SMILES>  (12) 
O=S(=O)(NC1CCCCCC1)c1sccc1S(=O)(=O)c1ccccc1

>  <Energy>  (12) 
87.51200791986814

>  <Genealogy>  (12) 
O=S(=O)(NC1CCCCCC1)c1sccc1S(=O)(=O)c1ccccc1 (3D coordinates assigned)
O=S(=O)(NC1CCCCCC1)c1sccc1S(=O)(=O)c1ccccc1 (nonaromatic ring conformer: 87.51200791986814 kcal/mol)

>  <smiles>  (12) 
O=S(=O)(NC1CCCCCC1)c1sccc1S(=O)(=O)c1ccccc1

>  <score_type>  (12) 
oracle

>  <origin>  (12) 
adgpu

>  <m_score__min__energy>  (12) 
-7.6299999999999999

>  <m_primary>  (12) 
energy

$$$$
12:0
     RDKit          3D

 57 60  0  0  0  0  0  0  0  0999 V2000
    0.3370   22.6090  -26.8130 C   0  0  0  0  0  0  0  0  0  0  0  0
   -0.0210   21.8020  -28.0550 C   0  0  0  0  0  0  0  0  0  0  0  0
   -1.0880   20.8350  -27.7710 N   0  0  0  0  0  0  0  0  0  0  0  0
   -2.3800   21.1100  -27.4830 C   0  0  0  0  0  0  0  0  0  0  0  0
   -3.1140   22.7540  -27.4520 S   0  0  0  0  0  0  0  0  0  0  0  0
   -2.4790   23.2800  -29.0850 C   0  0  0  0  0  0  0  0  0  0  0  0
   -2.6670   24.7470  -29.3130 C   0  0  0  0  0  0  0  0  0  0  0  0
   -1.7540   25.5510  -28.9890 O   0  0  0  0  0  0  0  0  0  0  0  0
   -3.8300   25.2080  -30.0110 N   0  0  0  0  0  0  0  0  0  0  0  0
   -4.9860   24.4150  -30.3150 C   0  0  0  0  0  0  0  0  0  0  0  0
   -5.5380   23.5240  -29.3780 C   0  0  0  0  0  0  0  0  0  0  0  0
   -6.6510   22.7500  -29.7140 C   0  0  0  0  0  0  0  0  0  0  0  0
   -7.2230   22.8500  -30.9910 C   0  0  0  0  0  0  0  0  0  0  0  0
   -8.6390   21.8820  -31.4090 S   0  0  0  0  0  0  0  0  0  0  0  0
   -9.5250   22.6840  -32.3220 O   0  0  0  0  0  0  0  0  0  0  0  0
   -9.4180   21.5740  -30.1600 O   0  0  0  0  0  0  0  0  0  0  0  0
   -8.1970   20.3810  -32.1880 N   0  0  0  0  0  0  0  0  0  0  0  0
   -8.4900   19.2320  -31.2970 C   0  0  0  0  0  0  0  0  0  0  0  0
   -7.7370   17.9430  -31.7020 C   0  0  0  0  0  0  0  0  0  0  0  0
   -7.3230   17.9690  -33.1720 C   0  0  0  0  0  0  0  0  0  0  0  0
   -6.4360   19.1880  -33.4770 C   0  0  0  0  0  0  0  0  0  0  0  0
   -6.7810   20.4080  -32.5990 C   0  0  0  0  0  0  0  0  0  0  0  0
   -6.6620   23.7250  -31.9310 C   0  0  0  0  0  0  0  0  0  0  0  0
   -5.5430   24.4920  -31.5980 C   0  0  0  0  0  0  0  0  0  0  0  0
   -3.0710   19.9960  -27.1770 N   0  0  0  0  0  0  0  0  0  0  0  0
   -2.2300   18.9810  -27.2880 N   0  0  0  0  0  0  0  0  0  0  0  0
   -1.0310   19.4840  -27.6430 C   0  0  0  0  0  0  0  0  0  0  0  0
    0.1500   18.6100  -27.8440 C   0  0  0  0  0  0  0  0  0  0  0  0
    0.2280   17.2880  -27.4170 C   0  0  0  0  0  0  0  0  0  0  0  0
    1.4500   16.6700  -27.7040 C   0  0  0  0  0  0  0  0  0  0  0  0
    2.3520   17.4990  -28.3570 C   0  0  0  0  0  0  0  0  0  0  0  0
    1.6220   18.9940  -28.5700 S   0  0  0  0  0  0  0  0  0  0  0  0
    0.0804   22.0305  -25.9133 H   0  0  0  0  0  0  0  0  0  0  0  0
    1.4155   22.8253  -26.8146 H   0  0  0  0  0  0  0  0  0  0  0  0
   -0.2265   23.5537  -26.8146 H   0  0  0  0  0  0  0  0  0  0  0  0
   -0.3605   22.4894  -28.8438 H   0  0  0  0  0  0  0  0  0  0  0  0
    0.8725   21.2489  -28.3802 H   0  0  0  0  0  0  0  0  0  0  0  0
   -1.4055   23.0465  -29.1407 H   0  0  0  0  0  0  0  0  0  0  0  0
   -3.0440   22.7404  -29.8594 H   0  0  0  0  0  0  0  0  0  0  0  0
   -5.0916   23.4361  -28.3765 H   0  0  0  0  0  0  0  0  0  0  0  0
   -7.0810   22.0589  -28.9740 H   0  0  0  0  0  0  0  0  0  0  0  0
   -8.7940   20.3070  -33.0450 H   0  0  0  0  0  0  0  0  0  0  0  0
   -8.1974   19.5008  -30.2713 H   0  0  0  0  0  0  0  0  0  0  0  0
   -9.5668   19.0216  -31.3762 H   0  0  0  0  0  0  0  0  0  0  0  0
   -6.8354   17.8463  -31.0793 H   0  0  0  0  0  0  0  0  0  0  0  0
   -8.4136   17.0889  -31.5513 H   0  0  0  0  0  0  0  0  0  0  0  0
   -6.7634   17.0508  -33.4037 H   0  0  0  0  0  0  0  0  0  0  0  0
   -8.2311   18.0351  -33.7892 H   0  0  0  0  0  0  0  0  0  0  0  0
   -5.3859   18.9125  -33.3001 H   0  0  0  0  0  0  0  0  0  0  0  0
   -6.6102   19.4724  -34.5252 H   0  0  0  0  0  0  0  0  0  0  0  0
   -6.1457   20.3959  -31.7011 H   0  0  0  0  0  0  0  0  0  0  0  0
   -6.6039   21.3221  -33.1847 H   0  0  0  0  0  0  0  0  0  0  0  0
   -7.1044   23.8081  -32.9347 H   0  0  0  0  0  0  0  0  0  0  0  0
   -5.0962   25.1609  -32.3483 H   0  0  0  0  0  0  0  0  0  0  0  0
   -0.5966   16.7751  -26.9004 H   0  0  0  0  0  0  0  0  0  0  0  0
    1.6746   15.6267  -27.4376 H   0  0  0  0  0  0  0  0  0  0  0  0
    3.3674   17.2237  -28.6784 H   0  0  0  0  0  0  0  0  0  0  0  0
  1  2  1  0
  2  3  1  0
  3  4  1  0
  4  5  1  0
  5  6  1  0
  6  7  1  0
  7  8  2  0
  7  9  1  0
  9 10  1  0
 10 11  2  0
 11 12  1  0
 12 13  2  0
 13 14  1  0
 14 15  2  0
 14 16  2  0
 14 17  1  0
 17 18  1  0
 18 19  1  0
 19 20  1  0
 20 21  1  0
 21 22  1  0
 13 23  1  0
 23 24  2  0
  4 25  2  0
 25 26  1  0
 26 27  2  0
 27 28  1  0
 28 29  2  0
 29 30  1  0
 30 31  2  0
 31 32  1  0
 27  3  1  0
 32 28  1  0
 24 10  1  0
 22 17  1  0
  1 33  1  0
  1 34  1  0
  1 35  1  0
  2 36  1  0
  2 37  1  0
  6 38  1  0
  6 39  1  0
 11 40  1  0
 12 41  1  0
 17 42  1  0
 18 43  1  0
 18 44  1  0
 19 45  1  0
 19 46  1  0
 20 47  1  0
 20 48  1  0
 21 49  1  0
 21 50  1  0
 22 51  1  0
 22 52  1  0
 23 53  1  0
 24 54  1  0
 29 55  1  0
 30 56  1  0
 31 57  1  0
M  CHG  2   9  -1  17   1
M  END
>  <UniqueID>  (13) 
12

>  <SMILES>  (13) 
CCn1c(SCC(=O)[N-]c2ccc(S(=O)(=O)[NH+]3CCCCC3)cc2)nnc1-c1cccs1

>  <Energy>  (13) 
125.43938672678881

>  <Genealogy>  (13) 
CCn1c(SCC(=O)[N-]c2ccc(S(=O)(=O)[NH+]3CCCCC3)cc2)nnc1-c1cccs1 (protonated)
CCn1c(SCC(=O)[N-]c2ccc(S(=O)(=O)[NH+]3CCCCC3)cc2)nnc1-c1cccs1 (3D coordinates assigned)
CCn1c(SCC(=O)[N-]c2ccc(S(=O)(=O)[NH+]3CCCCC3)cc2)nnc1-c1cccs1 (nonaromatic ring conformer: 125.43938672678881 kcal/mol)

>  <smiles>  (13) 
CCn1c(SCC(=O)Nc2ccc(S(=O)(=O)N3CCCCC3)cc2)nnc1-c1cccs1

>  <score_type>  (13) 
oracle

>  <origin>  (13) 
adgpu

>  <m_score__min__energy>  (13) 
-12.619999999999999

>  <m_primary>  (13) 
energy

$$$$
13:0
     RDKit          3D

 56 59  0  0  0  0  0  0  0  0999 V2000
   -3.6600   19.1790  -33.3730 O   0  0  0  0  0  0  0  0  0  0  0  0
   -3.8010   17.9260  -33.3700 C   0  0  0  0  0  0  0  0  0  0  0  0
   -2.5940   17.0570  -33.5880 C   0  0  0  0  0  0  0  0  0  0  0  0
   -2.9710   15.7070  -34.0260 N   0  0  0  0  0  0  0  0  0  0  0  0
   -3.9640   15.1180  -33.1170 C   0  0  0  0  0  0  0  0  0  0  0  0
   -5.2860   15.8870  -33.1980 C   0  0  0  0  0  0  0  0  0  0  0  0
   -5.0810   17.3360  -33.0640 N   0  0  0  0  0  0  0  0  0  0  0  0
   -6.2300   18.1690  -32.8340 C   0  0  0  0  0  0  0  0  0  0  0  0
   -6.4840   19.2770  -33.6580 C   0  0  0  0  0  0  0  0  0  0  0  0
   -7.6200   20.0660  -33.4530 C   0  0  0  0  0  0  0  0  0  0  0  0
   -8.5230   19.7500  -32.4260 C   0  0  0  0  0  0  0  0  0  0  0  0
   -9.7730   20.5680  -32.2250 C   0  0  0  0  0  0  0  0  0  0  0  0
   -9.4520   21.9570  -32.1240 O   0  0  0  0  0  0  0  0  0  0  0  0
   -8.2520   22.4710  -31.6090 C   0  0  0  0  0  0  0  0  0  0  0  0
   -7.4710   23.2890  -32.4370 C   0  0  0  0  0  0  0  0  0  0  0  0
   -6.2440   23.7870  -31.9890 C   0  0  0  0  0  0  0  0  0  0  0  0
   -5.7850   23.4790  -30.7010 C   0  0  0  0  0  0  0  0  0  0  0  0
   -4.2070   24.0560  -30.1600 S   0  0  0  0  0  0  0  0  0  0  0  0
   -4.2440   24.2940  -28.6760 O   0  0  0  0  0  0  0  0  0  0  0  0
   -3.9010   25.3640  -30.8340 O   0  0  0  0  0  0  0  0  0  0  0  0
   -2.9480   22.9050  -30.5400 N   0  0  0  0  0  0  0  0  0  0  0  0
   -3.2770   22.1780  -31.7760 C   0  0  0  0  0  0  0  0  0  0  0  0
   -2.0230   21.5030  -32.3590 C   0  0  0  0  0  0  0  0  0  0  0  0
   -0.7180   21.1680  -31.1130 S   0  0  0  0  0  0  0  0  0  0  0  0
   -1.8810   20.7660  -29.7700 C   0  0  0  0  0  0  0  0  0  0  0  0
   -2.7490   21.9820  -29.4030 C   0  0  0  0  0  0  0  0  0  0  0  0
   -6.5760   22.6890  -29.8570 C   0  0  0  0  0  0  0  0  0  0  0  0
   -7.8010   22.1880  -30.3050 C   0  0  0  0  0  0  0  0  0  0  0  0
   -8.2610   18.6530  -31.5910 C   0  0  0  0  0  0  0  0  0  0  0  0
   -7.1260   17.8650  -31.7970 C   0  0  0  0  0  0  0  0  0  0  0  0
   -1.9573   17.5172  -34.3580 H   0  0  0  0  0  0  0  0  0  0  0  0
   -2.0556   16.9706  -32.6327 H   0  0  0  0  0  0  0  0  0  0  0  0
   -2.1160   15.1050  -34.0280 H   0  0  0  0  0  0  0  0  0  0  0  0
   -3.3540   15.7410  -35.0000 H   0  0  0  0  0  0  0  0  0  0  0  0
   -4.1371   14.0692  -33.4001 H   0  0  0  0  0  0  0  0  0  0  0  0
   -3.5817   15.1740  -32.0871 H   0  0  0  0  0  0  0  0  0  0  0  0
   -5.7586   15.6822  -34.1700 H   0  0  0  0  0  0  0  0  0  0  0  0
   -5.9281   15.5534  -32.3694 H   0  0  0  0  0  0  0  0  0  0  0  0
   -5.7849   19.5260  -34.4700 H   0  0  0  0  0  0  0  0  0  0  0  0
   -7.8066   20.9369  -34.0985 H   0  0  0  0  0  0  0  0  0  0  0  0
  -10.4478   20.4137  -33.0799 H   0  0  0  0  0  0  0  0  0  0  0  0
  -10.2617   20.2474  -31.2931 H   0  0  0  0  0  0  0  0  0  0  0  0
   -7.8263   23.5410  -33.4471 H   0  0  0  0  0  0  0  0  0  0  0  0
   -5.6365   24.4229  -32.6497 H   0  0  0  0  0  0  0  0  0  0  0  0
   -4.0307   21.4085  -31.5528 H   0  0  0  0  0  0  0  0  0  0  0  0
   -3.6694   22.8933  -32.5138 H   0  0  0  0  0  0  0  0  0  0  0  0
   -2.3227   20.5471  -32.8134 H   0  0  0  0  0  0  0  0  0  0  0  0
   -1.5945   22.2010  -33.0933 H   0  0  0  0  0  0  0  0  0  0  0  0
   -2.5349   19.9436  -30.0958 H   0  0  0  0  0  0  0  0  0  0  0  0
   -1.3006   20.4720  -28.8830 H   0  0  0  0  0  0  0  0  0  0  0  0
   -3.7323   21.6232  -29.0648 H   0  0  0  0  0  0  0  0  0  0  0  0
   -2.2245   22.5378  -28.6118 H   0  0  0  0  0  0  0  0  0  0  0  0
   -6.2314   22.4621  -28.8373 H   0  0  0  0  0  0  0  0  0  0  0  0
   -8.4166   21.5691  -29.6356 H   0  0  0  0  0  0  0  0  0  0  0  0
   -8.9527   18.4124  -30.7702 H   0  0  0  0  0  0  0  0  0  0  0  0
   -6.9334   17.0017  -31.1431 H   0  0  0  0  0  0  0  0  0  0  0  0
  1  2  2  0
  2  3  1  0
  3  4  1  0
  4  5  1  0
  5  6  1  0
  6  7  1  0
  7  8  1  0
  8  9  2  0
  9 10  1  0
 10 11  2  0
 11 12  1  0
 12 13  1  0
 13 14  1  0
 14 15  2  0
 15 16  1  0
 16 17  2  0
 17 18  1  0
 18 19  2  0
 18 20  2  0
 18 21  1  0
 21 22  1  0
 22 23  1  0
 23 24  1  0
 24 25  1  0
 25 26  1  0
 17 27  1  0
 27 28  2  0
 11 29  1  0
 29 30  2  0
  7  2  1  0
 30  8  1  0
 28 14  1  0
 26 21  1  0
  3 31  1  0
  3 32  1  0
  4 33  1  0
  4 34  1  0
  5 35  1  0
  5 36  1  0
  6 37  1  0
  6 38  1  0
  9 39  1  0
 10 40  1  0
 12 41  1  0
 12 42  1  0
 15 43  1  0
 16 44  1  0
 22 45  1  0
 22 46  1  0
 23 47  1  0
 23 48  1  0
 25 49  1  0
 25 50  1  0
 26 51  1  0
 26 52  1  0
 27 53  1  0
 28 54  1  0
 29 55  1  0
 30 56  1  0
M  CHG  1   4   1
M  END
>  <UniqueID>  (14) 
13

>  <SMILES>  (14) 
O=C1C[NH2+]CCN1c1ccc(COc2ccc(S(=O)(=O)N3CCSCC3)cc2)cc1

>  <Energy>  (14) 
66.47297333698894

>  <Genealogy>  (14) 
O=C1C[NH2+]CCN1c1ccc(COc2ccc(S(=O)(=O)N3CCSCC3)cc2)cc1 (protonated)
O=C1C[NH2+]CCN1c1ccc(COc2ccc(S(=O)(=O)N3CCSCC3)cc2)cc1 (3D coordinates assigned)
O=C1C[NH2+]CCN1c1ccc(COc2ccc(S(=O)(=O)N3CCSCC3)cc2)cc1 (nonaromatic ring conformer: 66.47297333698894 kcal/mol)

>  <smiles>  (14) 
O=C1CNCCN1c1ccc(COc2ccc(S(=O)(=O)N3CCSCC3)cc2)cc1

>  <score_type>  (14) 
oracle

>  <origin>  (14) 
adgpu

>  <m_score__min__energy>  (14) 
-9.5899999999999999

>  <m_primary>  (14) 
energy

$$$$
14:0
     RDKit          3D

 45 47  0  0  0  0  0  0  0  0999 V2000
   -2.7770   17.0080  -34.9900 C   0  0  0  0  0  0  0  0  0  0  0  0
   -3.2760   17.0130  -33.6810 O   0  0  0  0  0  0  0  0  0  0  0  0
   -4.5280   17.4160  -33.3140 C   0  0  0  0  0  0  0  0  0  0  0  0
   -5.5560   16.4820  -33.4190 C   0  0  0  0  0  0  0  0  0  0  0  0
   -6.8640   16.8260  -33.0610 C   0  0  0  0  0  0  0  0  0  0  0  0
   -7.1820   18.0710  -32.6030 C   0  0  0  0  0  0  0  0  0  0  0  0
   -8.5100   18.5420  -32.1790 C   0  0  0  0  0  0  0  0  0  0  0  0
   -8.8150   20.1960  -32.7200 S   0  0  0  0  0  0  0  0  0  0  0  0
   -7.8930   21.4860  -31.9560 C   0  0  0  0  0  0  0  0  0  0  0  0
   -6.5560   21.5270  -32.2180 N   0  0  0  0  0  0  0  0  0  0  0  0
   -5.7600   22.4570  -31.6740 C   0  0  0  0  0  0  0  0  0  0  0  0
   -4.5080   22.4390  -31.9630 N   0  0  0  0  0  0  0  0  0  0  0  0
   -6.2400   23.4280  -30.8190 C   0  0  0  0  0  0  0  0  0  0  0  0
   -5.2260   24.6500  -30.0930 S   0  0  0  0  0  0  0  0  0  0  0  0
   -4.5600   25.4240  -31.1970 O   0  0  0  0  0  0  0  0  0  0  0  0
   -6.1020   25.5610  -29.2930 O   0  0  0  0  0  0  0  0  0  0  0  0
   -3.9810   23.9290  -29.0630 C   0  0  0  0  0  0  0  0  0  0  0  0
   -2.7480   24.5200  -28.9530 C   0  0  0  0  0  0  0  0  0  0  0  0
   -1.7230   24.0220  -28.1740 C   0  0  0  0  0  0  0  0  0  0  0  0
   -1.9510   22.8530  -27.4570 C   0  0  0  0  0  0  0  0  0  0  0  0
   -0.5670   22.1180  -26.3600 Br  0  0  0  0  0  0  0  0  0  0  0  0
   -3.1930   22.2670  -27.5730 C   0  0  0  0  0  0  0  0  0  0  0  0
   -4.2070   22.7710  -28.3520 C   0  0  0  0  0  0  0  0  0  0  0  0
   -7.6080   23.3780  -30.5570 C   0  0  0  0  0  0  0  0  0  0  0  0
   -8.3560   22.4190  -31.1340 N   0  0  0  0  0  0  0  0  0  0  0  0
   -6.1340   18.9870  -32.5080 C   0  0  0  0  0  0  0  0  0  0  0  0
   -4.8450   18.6730  -32.8530 C   0  0  0  0  0  0  0  0  0  0  0  0
   -3.7710   19.6110  -32.7570 N   0  0  0  0  0  0  0  0  0  0  0  0
   -3.2960   19.9180  -31.6390 O   0  0  0  0  0  0  0  0  0  0  0  0
   -3.2580   20.1780  -33.9020 O   0  0  0  0  0  0  0  0  0  0  0  0
   -1.6774   16.9970  -34.9632 H   0  0  0  0  0  0  0  0  0  0  0  0
   -3.1399   16.1134  -35.5173 H   0  0  0  0  0  0  0  0  0  0  0  0
   -3.1219   17.9096  -35.5173 H   0  0  0  0  0  0  0  0  0  0  0  0
   -5.3382   15.4680  -33.7855 H   0  0  0  0  0  0  0  0  0  0  0  0
   -7.6588   16.0709  -33.1514 H   0  0  0  0  0  0  0  0  0  0  0  0
   -9.2772   17.8793  -32.6060 H   0  0  0  0  0  0  0  0  0  0  0  0
   -8.5463   18.5267  -31.0797 H   0  0  0  0  0  0  0  0  0  0  0  0
   -4.1560   21.6980  -32.6110 H   0  0  0  0  0  0  0  0  0  0  0  0
   -2.5653   25.4454  -29.5190 H   0  0  0  0  0  0  0  0  0  0  0  0
   -0.7520   24.5363  -28.1220 H   0  0  0  0  0  0  0  0  0  0  0  0
   -3.3839   21.3419  -27.0092 H   0  0  0  0  0  0  0  0  0  0  0  0
   -5.1795   22.2599  -28.4066 H   0  0  0  0  0  0  0  0  0  0  0  0
   -8.0720   24.1151  -29.8852 H   0  0  0  0  0  0  0  0  0  0  0  0
   -9.3680   22.4300  -30.9230 H   0  0  0  0  0  0  0  0  0  0  0  0
   -6.3506   20.0014  -32.1417 H   0  0  0  0  0  0  0  0  0  0  0  0
  1  2  1  0
  2  3  1  0
  3  4  2  0
  4  5  1  0
  5  6  2  0
  6  7  1  0
  7  8  1  0
  8  9  1  0
  9 10  2  0
 10 11  1  0
 11 12  2  3
 11 13  1  0
 13 14  1  0
 14 15  2  0
 14 16  2  0
 14 17  1  0
 17 18  2  0
 18 19  1  0
 19 20  2  0
 20 21  1  0
 20 22  1  0
 22 23  2  0
 13 24  2  0
 24 25  1  0
  6 26  1  0
 26 27  2  0
 27 28  1  0
 28 29  2  0
 28 30  1  0
 27  3  1  0
 25  9  1  0
 23 17  1  0
  1 31  1  0
  1 32  1  0
  1 33  1  0
  4 34  1  0
  5 35  1  0
  7 36  1  0
  7 37  1  0
 12 38  1  0
 18 39  1  0
 19 40  1  0
 22 41  1  0
 23 42  1  0
 24 43  1  0
 25 44  1  0
 26 45  1  0
M  CHG  2  28   1  30  -1
M  END
>  <smiles>  (15) 
COc1ccc(CSc2nc(=N)c(S(=O)(=O)c3ccc(Br)cc3)c[nH]2)cc1[N+](=O)[O-]

>  <score_type>  (15) 
oracle

>  <origin>  (15) 
adgpu

>  <m_score__min__energy>  (15) 
-10.619999999999999

>  <m_primary>  (15) 
energy

$$$$
15:0
     RDKit          3D

 40 42  0  0  0  0  0  0  0  0999 V2000
   -8.6340   19.4820  -32.2850 C   0  0  0  0  0  0  0  0  0  0  0  0
   -8.3590   20.8770  -32.3570 O   0  0  0  0  0  0  0  0  0  0  0  0
   -7.0850   21.4420  -32.1920 C   0  0  0  0  0  0  0  0  0  0  0  0
   -5.9280   20.8790  -32.7660 C   0  0  0  0  0  0  0  0  0  0  0  0
   -4.6820   21.4810  -32.5710 C   0  0  0  0  0  0  0  0  0  0  0  0
   -4.5760   22.6430  -31.8040 C   0  0  0  0  0  0  0  0  0  0  0  0
   -5.7180   23.2100  -31.2260 C   0  0  0  0  0  0  0  0  0  0  0  0
   -5.5650   24.6550  -30.2290 S   0  0  0  0  0  0  0  0  0  0  0  0
   -6.8930   25.3420  -30.0730 O   0  0  0  0  0  0  0  0  0  0  0  0
   -4.6020   25.5980  -30.8920 O   0  0  0  0  0  0  0  0  0  0  0  0
   -4.9620   24.2240  -28.6600 N   0  0  0  0  0  0  0  0  0  0  0  0
   -3.7610   23.4550  -28.4560 C   0  0  0  0  0  0  0  0  0  0  0  0
   -3.8100   22.1540  -27.9230 C   0  0  0  0  0  0  0  0  0  0  0  0
   -2.6370   21.4060  -27.7430 C   0  0  0  0  0  0  0  0  0  0  0  0
   -1.3950   21.9550  -28.1190 C   0  0  0  0  0  0  0  0  0  0  0  0
   -1.3410   23.2630  -28.6160 C   0  0  0  0  0  0  0  0  0  0  0  0
   -2.5120   24.0080  -28.7890 C   0  0  0  0  0  0  0  0  0  0  0  0
   -2.4240   25.2970  -29.3020 O   0  0  0  0  0  0  0  0  0  0  0  0
   -0.1120   21.1900  -27.8910 C   0  0  0  0  0  0  0  0  0  0  0  0
   -0.3360   19.7420  -27.7850 N   0  0  0  0  0  0  0  0  0  0  0  0
   -1.3740   19.4470  -26.7890 C   0  0  0  0  0  0  0  0  0  0  0  0
   -2.7360   19.9890  -27.2390 C   0  0  0  0  0  0  0  0  0  0  0  0
   -6.9690   22.6090  -31.4260 C   0  0  0  0  0  0  0  0  0  0  0  0
   -8.6947   19.1742  -31.2307 H   0  0  0  0  0  0  0  0  0  0  0  0
   -9.5911   19.2707  -32.7843 H   0  0  0  0  0  0  0  0  0  0  0  0
   -7.8287   18.9233  -32.7843 H   0  0  0  0  0  0  0  0  0  0  0  0
   -6.0057   19.9627  -33.3696 H   0  0  0  0  0  0  0  0  0  0  0  0
   -3.7822   21.0382  -33.0230 H   0  0  0  0  0  0  0  0  0  0  0  0
   -3.5933   23.1138  -31.6537 H   0  0  0  0  0  0  0  0  0  0  0  0
   -5.4440   24.6530  -27.8400 H   0  0  0  0  0  0  0  0  0  0  0  0
   -4.7804   21.7177  -27.6438 H   0  0  0  0  0  0  0  0  0  0  0  0
   -0.3687   23.7087  -28.8727 H   0  0  0  0  0  0  0  0  0  0  0  0
    0.5684   21.3817  -28.7338 H   0  0  0  0  0  0  0  0  0  0  0  0
    0.3194   21.5337  -26.9393 H   0  0  0  0  0  0  0  0  0  0  0  0
   -0.6440   19.3770  -28.7180 H   0  0  0  0  0  0  0  0  0  0  0  0
   -1.4462   18.3574  -26.6564 H   0  0  0  0  0  0  0  0  0  0  0  0
   -1.0989   19.9327  -25.8412 H   0  0  0  0  0  0  0  0  0  0  0  0
   -3.1240   19.3505  -28.0463 H   0  0  0  0  0  0  0  0  0  0  0  0
   -3.4103   19.9821  -26.3699 H   0  0  0  0  0  0  0  0  0  0  0  0
   -7.8674   23.0580  -30.9773 H   0  0  0  0  0  0  0  0  0  0  0  0
  1  2  1  0
  2  3  1  0
  3  4  2  0
  4  5  1  0
  5  6  2  0
  6  7  1  0
  7  8  1  0
  8  9  2  0
  8 10  2  0
  8 11  1  0
 11 12  1  0
 12 13  2  0
 13 14  1  0
 14 15  2  0
 15 16  1  0
 16 17  2  0
 17 18  1  0
 15 19  1  0
 19 20  1  0
 20 21  1  0
 21 22  1  0
  7 23  2  0
 23  3  1  0
 17 12  1  0
 22 14  1  0
  1 24  1  0
  1 25  1  0
  1 26  1  0
  4 27  1  0
  5 28  1  0
  6 29  1  0
 11 30  1  0
 13 31  1  0
 16 32  1  0
 19 33  1  0
 19 34  1  0
 20 35  1  0
 21 36  1  0
 21 37  1  0
 22 38  1  0
 22 39  1  0
 23 40  1  0
M  CHG  1  18  -1
M  END
>  <UniqueID>  (16) 
14

>  <SMILES>  (16) 
COc1cccc(S(=O)(=O)Nc2cc3c(cc2[O-])CNCC3)c1

>  <Energy>  (16) 
45.89467016242582

>  <Genealogy>  (16) 
COc1cccc(S(=O)(=O)Nc2cc3c(cc2[O-])CNCC3)c1 (protonated)
COc1cccc(S(=O)(=O)Nc2cc3c(cc2[O-])CNCC3)c1 (3D coordinates assigned)
COc1cccc(S(=O)(=O)Nc2cc3c(cc2[O-])CNCC3)c1 (nonaromatic ring conformer: 45.89467016242582 kcal/mol)

>  <smiles>  (16) 
COc1cccc(S(=O)(=O)Nc2cc3c(cc2O)CNCC3)c1

>  <score_type>  (16) 
oracle

>  <origin>  (16) 
adgpu

>  <m_score__min__energy>  (16) 
-11.699999999999999

>  <m_primary>  (16) 
energy

$$$$
16:0
     RDKit          3D

 33 35  0  0  0  0  0  0  0  0999 V2000
   -5.1080   24.4610  -28.8610 O   0  0  0  0  0  0  0  0  0  0  0  0
   -4.2560   24.0700  -30.0350 S   0  0  0  0  0  0  0  0  0  0  0  0
   -3.8530   25.2880  -30.8200 O   0  0  0  0  0  0  0  0  0  0  0  0
   -2.8360   23.2320  -29.4940 N   0  0  0  0  0  0  0  0  0  0  0  0
   -1.9580   23.5750  -28.4090 C   0  0  0  0  0  0  0  0  0  0  0  0
   -1.8240   22.6380  -27.3760 C   0  0  0  0  0  0  0  0  0  0  0  0
   -0.9960   22.8870  -26.2730 C   0  0  0  0  0  0  0  0  0  0  0  0
   -0.2540   24.0820  -26.2170 C   0  0  0  0  0  0  0  0  0  0  0  0
   -0.3930   25.0290  -27.2390 C   0  0  0  0  0  0  0  0  0  0  0  0
   -1.2310   24.7870  -28.3360 C   0  0  0  0  0  0  0  0  0  0  0  0
   -1.3290   25.7520  -29.3350 O   0  0  0  0  0  0  0  0  0  0  0  0
    0.6060   24.3960  -25.0170 C   0  0  0  0  0  0  0  0  0  0  0  0
    0.9920   23.1770  -24.2930 N   0  0  0  0  0  0  0  0  0  0  0  0
   -0.1980   22.3950  -23.9410 C   0  0  0  0  0  0  0  0  0  0  0  0
   -0.8410   21.8300  -25.2080 C   0  0  0  0  0  0  0  0  0  0  0  0
   -5.1780   23.0030  -31.0740 C   0  0  0  0  0  0  0  0  0  0  0  0
   -6.5250   23.1320  -31.3760 C   0  0  0  0  0  0  0  0  0  0  0  0
   -6.9840   22.1400  -32.2510 C   0  0  0  0  0  0  0  0  0  0  0  0
   -6.0000   21.2380  -32.6370 C   0  0  0  0  0  0  0  0  0  0  0  0
   -4.5550   21.6730  -31.8900 S   0  0  0  0  0  0  0  0  0  0  0  0
   -2.3787   21.6897  -27.4317 H   0  0  0  0  0  0  0  0  0  0  0  0
    0.1633   25.9761  -27.1800 H   0  0  0  0  0  0  0  0  0  0  0  0
   -2.0070   25.6790  -30.0850 H   0  0  0  0  0  0  0  0  0  0  0  0
    1.5159   24.9131  -25.3557 H   0  0  0  0  0  0  0  0  0  0  0  0
    0.0236   25.0316  -24.3337 H   0  0  0  0  0  0  0  0  0  0  0  0
    1.4590   23.4690  -23.4040 H   0  0  0  0  0  0  0  0  0  0  0  0
    0.0926   21.5664  -23.2784 H   0  0  0  0  0  0  0  0  0  0  0  0
   -0.9206   23.0456  -23.4266 H   0  0  0  0  0  0  0  0  0  0  0  0
   -0.2074   21.0202  -25.5988 H   0  0  0  0  0  0  0  0  0  0  0  0
   -1.8421   21.4559  -24.9474 H   0  0  0  0  0  0  0  0  0  0  0  0
   -7.1654   23.9294  -30.9710 H   0  0  0  0  0  0  0  0  0  0  0  0
   -8.0255   22.0803  -32.6000 H   0  0  0  0  0  0  0  0  0  0  0  0
   -6.1412   20.3841  -33.3159 H   0  0  0  0  0  0  0  0  0  0  0  0
  1  2  2  0
  2  3  2  0
  2  4  1  0
  4  5  1  0
  5  6  2  0
  6  7  1  0
  7  8  2  0
  8  9  1  0
  9 10  2  0
 10 11  1  0
  8 12  1  0
 12 13  1  0
 13 14  1  0
 14 15  1  0
  2 16  1  0
 16 17  2  0
 17 18  1  0
 18 19  2  0
 19 20  1  0
 10  5  1  0
 20 16  1  0
 15  7  1  0
  6 21  1  0
  9 22  1  0
 11 23  1  0
 12 24  1  0
 12 25  1  0
 13 26  1  0
 14 27  1  0
 14 28  1  0
 15 29  1  0
 15 30  1  0
 17 31  1  0
 18 32  1  0
 19 33  1  0
M  CHG  1   4  -1
M  END
>  <UniqueID>  (17) 
15

>  <SMILES>  (17) 
O=S(=O)([N-]c1cc2c(cc1O)CNCC2)c1cccs1

>  <Energy>  (17) 
68.821818856206

>  <Genealogy>  (17) 
O=S(=O)([N-]c1cc2c(cc1O)CNCC2)c1cccs1 (protonated)
O=S(=O)([N-]c1cc2c(cc1O)CNCC2)c1cccs1 (3D coordinates assigned)
O=S(=O)([N-]c1cc2c(cc1O)CNCC2)c1cccs1 (nonaromatic ring conformer: 68.821818856206 kcal/mol)

>  <smiles>  (17) 
O=S(=O)(Nc1cc2c(cc1O)CNCC2)c1cccs1

>  <score_type>  (17) 
oracle

>  <origin>  (17) 
adgpu

>  <m_score__min__energy>  (17) 
-9.8000000000000007

>  <m_primary>  (17) 
energy

$$$$
17:0
     RDKit          3D

 47 50  0  0  0  0  0  0  0  0999 V2000
   -5.3740   15.1510  -33.2960 C   0  0  0  0  0  0  0  0  0  0  0  0
   -6.2650   15.9440  -33.8890 C   0  0  0  0  0  0  0  0  0  0  0  0
   -6.2270   17.4130  -33.7630 C   0  0  0  0  0  0  0  0  0  0  0  0
   -6.1230   18.1380  -34.7900 O   0  0  0  0  0  0  0  0  0  0  0  0
   -6.2780   18.0130  -32.4580 N   0  0  0  0  0  0  0  0  0  0  0  0
   -6.3870   19.4310  -32.2500 C   0  0  0  0  0  0  0  0  0  0  0  0
   -7.5460   19.9510  -31.6530 C   0  0  0  0  0  0  0  0  0  0  0  0
   -7.6450   21.3070  -31.3610 C   0  0  0  0  0  0  0  0  0  0  0  0
   -6.5850   22.1630  -31.6410 C   0  0  0  0  0  0  0  0  0  0  0  0
   -5.4090   21.6810  -32.2420 C   0  0  0  0  0  0  0  0  0  0  0  0
   -4.2700   22.6540  -32.4630 C   0  0  0  0  0  0  0  0  0  0  0  0
   -3.9860   23.4280  -31.2100 C   0  0  0  0  0  0  0  0  0  0  0  0
   -4.2310   24.7530  -31.0630 N   0  0  0  0  0  0  0  0  0  0  0  0
   -3.8710   25.1300  -29.8380 N   0  0  0  0  0  0  0  0  0  0  0  0
   -3.3970   24.0370  -29.2190 C   0  0  0  0  0  0  0  0  0  0  0  0
   -2.9260   23.9700  -27.9520 N   0  0  0  0  0  0  0  0  0  0  0  0
   -2.4800   22.7690  -27.4740 C   0  0  0  0  0  0  0  0  0  0  0  0
   -2.5100   21.6000  -28.2870 C   0  0  0  0  0  0  0  0  0  0  0  0
   -2.0330   20.2970  -27.7620 C   0  0  0  0  0  0  0  0  0  0  0  0
   -2.6610   19.4710  -26.8380 C   0  0  0  0  0  0  0  0  0  0  0  0
   -1.9120   18.3700  -26.6390 N   0  0  0  0  0  0  0  0  0  0  0  0
   -0.8310   18.4800  -27.3930 N   0  0  0  0  0  0  0  0  0  0  0  0
    0.1890   17.4470  -27.5060 C   0  0  0  0  0  0  0  0  0  0  0  0
   -0.8710   19.6250  -28.0980 C   0  0  0  0  0  0  0  0  0  0  0  0
   -3.0070   21.7040  -29.6090 C   0  0  0  0  0  0  0  0  0  0  0  0
   -3.4460   22.9520  -30.0340 C   0  0  0  0  0  0  0  0  0  0  0  0
   -5.3110   20.2990  -32.5730 C   0  0  0  0  0  0  0  0  0  0  0  0
   -4.0630   19.7380  -33.2180 C   0  0  0  0  0  0  0  0  0  0  0  0
   -5.4416   14.0599  -33.4181 H   0  0  0  0  0  0  0  0  0  0  0  0
   -4.5707   15.5873  -32.6842 H   0  0  0  0  0  0  0  0  0  0  0  0
   -7.0596   15.4856  -34.4960 H   0  0  0  0  0  0  0  0  0  0  0  0
   -6.1970   17.3900  -31.6220 H   0  0  0  0  0  0  0  0  0  0  0  0
   -8.3839   19.2796  -31.4139 H   0  0  0  0  0  0  0  0  0  0  0  0
   -8.5649   21.7041  -30.9070 H   0  0  0  0  0  0  0  0  0  0  0  0
   -6.6679   23.2305  -31.3890 H   0  0  0  0  0  0  0  0  0  0  0  0
   -3.3686   22.0951  -32.7548 H   0  0  0  0  0  0  0  0  0  0  0  0
   -4.5549   23.3587  -33.2581 H   0  0  0  0  0  0  0  0  0  0  0  0
   -2.0924   22.7048  -26.4466 H   0  0  0  0  0  0  0  0  0  0  0  0
   -3.6213   19.6836  -26.3454 H   0  0  0  0  0  0  0  0  0  0  0  0
    0.5024   17.1296  -26.5005 H   0  0  0  0  0  0  0  0  0  0  0  0
   -0.2215   16.5845  -28.0514 H   0  0  0  0  0  0  0  0  0  0  0  0
    1.0567   17.8466  -28.0514 H   0  0  0  0  0  0  0  0  0  0  0  0
   -0.1119   19.9675  -28.8167 H   0  0  0  0  0  0  0  0  0  0  0  0
   -3.0441   20.8292  -30.2748 H   0  0  0  0  0  0  0  0  0  0  0  0
   -3.3572   19.4207  -32.4362 H   0  0  0  0  0  0  0  0  0  0  0  0
   -4.3304   18.8735  -33.8434 H   0  0  0  0  0  0  0  0  0  0  0  0
   -3.5939   20.5119  -33.8434 H   0  0  0  0  0  0  0  0  0  0  0  0
  1  2  2  0
  2  3  1  0
  3  4  2  0
  3  5  1  0
  5  6  1  0
  6  7  2  0
  7  8  1  0
  8  9  2  0
  9 10  1  0
 10 11  1  0
 11 12  1  0
 12 13  1  0
 13 14  1  0
 14 15  2  0
 15 16  1  0
 16 17  2  0
 17 18  1  0
 18 19  1  0
 19 20  1  0
 20 21  2  0
 21 22  1  0
 22 23  1  0
 22 24  1  0
 18 25  2  0
 25 26  1  0
 10 27  2  0
 27 28  1  0
 27  6  1  0
 26 12  2  0
 26 15  1  0
 24 19  2  0
  1 29  1  0
  1 30  1  0
  2 31  1  0
  5 32  1  0
  7 33  1  0
  8 34  1  0
  9 35  1  0
 11 36  1  0
 11 37  1  0
 17 38  1  0
 20 39  1  0
 23 40  1  0
 23 41  1  0
 23 42  1  0
 24 43  1  0
 25 44  1  0
 28 45  1  0
 28 46  1  0
 28 47  1  0
M  CHG  1  13  -1
M  END
>  <UniqueID>  (18) 
16

>  <SMILES>  (18) 
C=CC(=O)Nc1cccc(Cc2[n-]nc3ncc(-c4cnn(C)c4)cc23)c1C

>  <Energy>  (18) 
125.9787524720277

>  <Genealogy>  (18) 
C=CC(=O)Nc1cccc(Cc2[n-]nc3ncc(-c4cnn(C)c4)cc23)c1C (protonated)
C=CC(=O)Nc1cccc(Cc2[n-]nc3ncc(-c4cnn(C)c4)cc23)c1C (3D coordinates assigned)
C=CC(=O)Nc1cccc(Cc2[n-]nc3ncc(-c4cnn(C)c4)cc23)c1C (optimized conformer: 125.9787524720277 kcal/mol)

>  <smiles>  (18) 
C=CC(=O)Nc1cccc(Cc2[nH]nc3ncc(-c4cnn(C)c4)cc23)c1C

>  <score_type>  (18) 
oracle

>  <origin>  (18) 
adgpu

>  <m_score__min__energy>  (18) 
-10.970000000000001

>  <m_primary>  (18) 
energy

$$$$
18:0
     RDKit          3D

 44 46  0  0  0  0  0  0  0  0999 V2000
   -5.6460   18.1490  -32.1310 O   0  0  0  0  0  0  0  0  0  0  0  0
   -5.7450   19.5060  -32.7690 S   0  0  0  0  0  0  0  0  0  0  0  0
   -6.0810   19.3460  -34.2260 O   0  0  0  0  0  0  0  0  0  0  0  0
   -4.1940   20.3220  -32.6000 C   0  0  0  0  0  0  0  0  0  0  0  0
   -3.2830   20.3500  -33.6650 C   0  0  0  0  0  0  0  0  0  0  0  0
   -2.0630   21.0150  -33.5240 C   0  0  0  0  0  0  0  0  0  0  0  0
   -1.7560   21.6740  -32.3300 C   0  0  0  0  0  0  0  0  0  0  0  0
   -2.6720   21.6760  -31.2710 C   0  0  0  0  0  0  0  0  0  0  0  0
   -2.3450   22.3720  -30.0600 N   0  0  0  0  0  0  0  0  0  0  0  0
   -3.1220   23.1990  -29.4170 C   0  0  0  0  0  0  0  0  0  0  0  0
   -4.4750   23.6440  -29.9260 C   0  0  0  0  0  0  0  0  0  0  0  0
   -4.3700   24.3380  -31.2110 N   0  0  0  0  0  0  0  0  0  0  0  0
   -5.5050   25.2480  -31.2190 C   0  0  0  0  0  0  0  0  0  0  0  0
   -5.8900   25.4790  -29.7690 C   0  0  0  0  0  0  0  0  0  0  0  0
   -5.0990   24.5540  -28.9670 N   0  0  0  0  0  0  0  0  0  0  0  0
   -3.8710   20.9570  -31.3950 C   0  0  0  0  0  0  0  0  0  0  0  0
   -6.9890   20.4440  -31.9790 N   0  0  0  0  0  0  0  0  0  0  0  0
   -6.8590   21.8660  -32.3440 C   0  0  0  0  0  0  0  0  0  0  0  0
   -7.8040   22.7300  -31.4870 C   0  0  0  0  0  0  0  0  0  0  0  0
   -8.9960   21.9290  -30.9380 C   0  0  0  0  0  0  0  0  0  0  0  0
   -9.4650   20.8810  -31.9500 C   0  0  0  0  0  0  0  0  0  0  0  0
   -8.3210   19.9240  -32.3550 C   0  0  0  0  0  0  0  0  0  0  0  0
   -3.5291   19.8479  -34.6123 H   0  0  0  0  0  0  0  0  0  0  0  0
   -1.3418   21.0202  -34.3546 H   0  0  0  0  0  0  0  0  0  0  0  0
   -0.7919   22.1925  -32.2221 H   0  0  0  0  0  0  0  0  0  0  0  0
   -2.7742   23.5946  -28.4513 H   0  0  0  0  0  0  0  0  0  0  0  0
   -5.0845   22.7375  -30.0558 H   0  0  0  0  0  0  0  0  0  0  0  0
   -3.5020   24.9270  -31.2090 H   0  0  0  0  0  0  0  0  0  0  0  0
   -5.2240   26.2001  -31.6928 H   0  0  0  0  0  0  0  0  0  0  0  0
   -6.3459   24.8262  -31.7890 H   0  0  0  0  0  0  0  0  0  0  0  0
   -5.6670   26.5165  -29.4793 H   0  0  0  0  0  0  0  0  0  0  0  0
   -6.9663   25.3105  -29.6163 H   0  0  0  0  0  0  0  0  0  0  0  0
   -5.7370   24.0070  -28.3390 H   0  0  0  0  0  0  0  0  0  0  0  0
   -4.5607   20.8921  -30.5405 H   0  0  0  0  0  0  0  0  0  0  0  0
   -5.8210   22.1895  -32.1769 H   0  0  0  0  0  0  0  0  0  0  0  0
   -7.1274   21.9879  -33.4038 H   0  0  0  0  0  0  0  0  0  0  0  0
   -7.2353   23.1417  -30.6402 H   0  0  0  0  0  0  0  0  0  0  0  0
   -8.2042   23.5275  -32.1303 H   0  0  0  0  0  0  0  0  0  0  0  0
   -8.6922   21.4224  -30.0101 H   0  0  0  0  0  0  0  0  0  0  0  0
   -9.8258   22.6244  -30.7434 H   0  0  0  0  0  0  0  0  0  0  0  0
  -10.2798   20.2930  -31.5024 H   0  0  0  0  0  0  0  0  0  0  0  0
   -9.8079   21.4066  -32.8534 H   0  0  0  0  0  0  0  0  0  0  0  0
   -8.4763   18.9567  -31.8548 H   0  0  0  0  0  0  0  0  0  0  0  0
   -8.3430   19.8208  -33.4499 H   0  0  0  0  0  0  0  0  0  0  0  0
  1  2  2  0
  2  3  2  0
  2  4  1  0
  4  5  2  0
  5  6  1  0
  6  7  2  0
  7  8  1  0
  8  9  1  0
  9 10  2  3
 10 11  1  0
 11 12  1  0
 12 13  1  0
 13 14  1  0
 14 15  1  0
  8 16  2  0
  2 17  1  0
 17 18  1  0
 18 19  1  0
 19 20  1  0
 20 21  1  0
 21 22  1  0
 16  4  1  0
 22 17  1  0
 15 11  1  0
  5 23  1  0
  6 24  1  0
  7 25  1  0
 10 26  1  0
 11 27  1  0
 12 28  1  0
 13 29  1  0
 13 30  1  0
 14 31  1  0
 14 32  1  0
 15 33  1  0
 16 34  1  0
 18 35  1  0
 18 36  1  0
 19 37  1  0
 19 38  1  0
 20 39  1  0
 20 40  1  0
 21 41  1  0
 21 42  1  0
 22 43  1  0
 22 44  1  0
M  END
>  <UniqueID>  (19) 
17

>  <SMILES>  (19) 
O=S(=O)(c1cccc(N=CC2NCCN2)c1)N1CCCCC1

>  <Energy>  (19) 
50.03078605162639

>  <Genealogy>  (19) 
O=S(=O)(c1cccc(N=CC2NCCN2)c1)N1CCCCC1 (3D coordinates assigned)
O=S(=O)(c1cccc(N=CC2NCCN2)c1)N1CCCCC1 (nonaromatic ring conformer: 50.03078605162639 kcal/mol)

>  <smiles>  (19) 
O=S(=O)(c1cccc(N=CC2NCCN2)c1)N1CCCCC1

>  <score_type>  (19) 
oracle

>  <origin>  (19) 
adgpu

>  <m_score__min__energy>  (19) 
-8.8100000000000005

>  <m_primary>  (19) 
energy

$$$$
19:0
     RDKit          3D

 37 40  0  0  0  0  0  0  0  0999 V2000
   -4.7290   22.3550  -28.2640 O   0  0  0  0  0  0  0  0  0  0  0  0
   -4.0640   22.9840  -29.1310 C   0  0  0  0  0  0  0  0  0  0  0  0
   -4.5090   23.0230  -30.4960 N   0  0  0  0  0  0  0  0  0  0  0  0
   -5.8020   22.5770  -30.9360 C   0  0  0  0  0  0  0  0  0  0  0  0
   -6.8770   23.4820  -31.1040 C   0  0  0  0  0  0  0  0  0  0  0  0
   -8.1240   23.0260  -31.5580 C   0  0  0  0  0  0  0  0  0  0  0  0
   -8.2810   21.6710  -31.8510 C   0  0  0  0  0  0  0  0  0  0  0  0
   -7.2390   20.7920  -31.7110 C   0  0  0  0  0  0  0  0  0  0  0  0
   -5.9870   21.2190  -31.2630 C   0  0  0  0  0  0  0  0  0  0  0  0
   -7.6180   19.4120  -32.0910 C   0  0  0  0  0  0  0  0  0  0  0  0
   -9.1010   19.5290  -32.4950 C   0  0  0  0  0  0  0  0  0  0  0  0
   -9.5090   21.0080  -32.3460 C   0  0  0  0  0  0  0  0  0  0  0  0
   -2.8400   23.7180  -28.7410 C   0  0  0  0  0  0  0  0  0  0  0  0
   -2.6060   24.9090  -29.3540 N   0  0  0  0  0  0  0  0  0  0  0  0
   -1.5680   25.6820  -29.0410 N   0  0  0  0  0  0  0  0  0  0  0  0
   -0.6780   25.3260  -28.0840 C   0  0  0  0  0  0  0  0  0  0  0  0
    0.2810   26.1000  -27.8170 O   0  0  0  0  0  0  0  0  0  0  0  0
   -0.8330   24.1030  -27.4140 C   0  0  0  0  0  0  0  0  0  0  0  0
    0.0840   23.6910  -26.4270 C   0  0  0  0  0  0  0  0  0  0  0  0
   -0.0640   22.4530  -25.8020 C   0  0  0  0  0  0  0  0  0  0  0  0
   -1.1140   21.6090  -26.1590 C   0  0  0  0  0  0  0  0  0  0  0  0
   -2.0360   22.0030  -27.1320 C   0  0  0  0  0  0  0  0  0  0  0  0
   -1.9260   23.2660  -27.7550 C   0  0  0  0  0  0  0  0  0  0  0  0
   -3.8140   23.3030  -31.2260 H   0  0  0  0  0  0  0  0  0  0  0  0
   -6.7342   24.5489  -30.8774 H   0  0  0  0  0  0  0  0  0  0  0  0
   -8.9640   23.7255  -31.6809 H   0  0  0  0  0  0  0  0  0  0  0  0
   -5.1562   20.5045  -31.1667 H   0  0  0  0  0  0  0  0  0  0  0  0
   -7.0094   19.0583  -32.9363 H   0  0  0  0  0  0  0  0  0  0  0  0
   -7.4572   18.6900  -31.2769 H   0  0  0  0  0  0  0  0  0  0  0  0
   -9.2320   19.2070  -33.5386 H   0  0  0  0  0  0  0  0  0  0  0  0
   -9.7273   18.8891  -31.8560 H   0  0  0  0  0  0  0  0  0  0  0  0
   -9.8166   21.4281  -33.3150 H   0  0  0  0  0  0  0  0  0  0  0  0
  -10.3655   21.1445  -31.6695 H   0  0  0  0  0  0  0  0  0  0  0  0
    0.9205   24.3487  -26.1481 H   0  0  0  0  0  0  0  0  0  0  0  0
    0.6500   22.1419  -25.0252 H   0  0  0  0  0  0  0  0  0  0  0  0
   -1.2173   20.6279  -25.6724 H   0  0  0  0  0  0  0  0  0  0  0  0
   -2.8540   21.3243  -27.4152 H   0  0  0  0  0  0  0  0  0  0  0  0
  1  2  2  0
  2  3  1  0
  3  4  1  0
  4  5  2  0
  5  6  1  0
  6  7  2  0
  7  8  1  0
  8  9  2  0
  8 10  1  0
 10 11  1  0
 11 12  1  0
  2 13  1  0
 13 14  2  0
 14 15  1  0
 15 16  1  0
 16 17  2  0
 16 18  1  0
 18 19  2  0
 19 20  1  0
 20 21  2  0
 21 22  1  0
 22 23  2  0
  9  4  1  0
 23 13  1  0
 12  7  1  0
 23 18  1  0
  3 24  1  0
  5 25  1  0
  6 26  1  0
  9 27  1  0
 10 28  1  0
 10 29  1  0
 11 30  1  0
 11 31  1  0
 12 32  1  0
 12 33  1  0
 19 34  1  0
 20 35  1  0
 21 36  1  0
 22 37  1  0
M  CHG  1  15  -1
M  END
>  <UniqueID>  (20) 
18

>  <SMILES>  (20) 
O=C(Nc1ccc2c(c1)CCC2)c1n[n-]c(=O)c2ccccc12

>  <Energy>  (20) 
63.87847699548342

>  <Genealogy>  (20) 
O=C(Nc1ccc2c(c1)CCC2)c1n[n-]c(=O)c2ccccc12 (protonated)
O=C(Nc1ccc2c(c1)CCC2)c1n[n-]c(=O)c2ccccc12 (3D coordinates assigned)
O=C(Nc1ccc2c(c1)CCC2)c1n[n-]c(=O)c2ccccc12 (nonaromatic ring conformer: 63.87847699548342 kcal/mol)

>  <smiles>  (20) 
O=C(Nc1ccc2c(c1)CCC2)c1n[nH]c(=O)c2ccccc12

>  <score_type>  (20) 
oracle

>  <origin>  (20) 
adgpu

>  <m_score__min__energy>  (20) 
-10.07

>  <m_primary>  (20) 
energy

$$$$
20:0
     RDKit          3D

 33 34  0  0  0  0  0  0  0  0999 V2000
   -9.4490   21.8840  -31.7310 C   0  0  0  0  0  0  0  0  0  0  0  0
   -8.5510   20.6800  -31.8540 C   0  0  0  0  0  0  0  0  0  0  0  0
   -9.0710   19.5000  -32.4180 C   0  0  0  0  0  0  0  0  0  0  0  0
   -8.2680   18.3690  -32.5650 C   0  0  0  0  0  0  0  0  0  0  0  0
   -6.9350   18.3990  -32.1550 C   0  0  0  0  0  0  0  0  0  0  0  0
   -6.4000   19.5620  -31.6020 C   0  0  0  0  0  0  0  0  0  0  0  0
   -7.1910   20.7160  -31.4490 C   0  0  0  0  0  0  0  0  0  0  0  0
   -6.5640   21.9360  -30.8180 C   0  0  0  0  0  0  0  0  0  0  0  0
   -5.3200   22.6380  -31.8920 S   0  0  0  0  0  0  0  0  0  0  0  0
   -5.9310   23.7550  -32.6910 O   0  0  0  0  0  0  0  0  0  0  0  0
   -4.8220   21.6020  -32.8600 O   0  0  0  0  0  0  0  0  0  0  0  0
   -3.9830   23.2640  -30.8960 C   0  0  0  0  0  0  0  0  0  0  0  0
   -4.0450   24.5210  -30.2470 C   0  0  0  0  0  0  0  0  0  0  0  0
   -5.2520   25.4150  -30.3520 C   0  0  0  0  0  0  0  0  0  0  0  0
   -2.9930   24.9340  -29.4820 N   0  0  0  0  0  0  0  0  0  0  0  0
   -1.8700   24.1780  -29.3590 C   0  0  0  0  0  0  0  0  0  0  0  0
   -0.9090   24.5800  -28.6520 O   0  0  0  0  0  0  0  0  0  0  0  0
   -1.7780   22.9900  -30.0030 N   0  0  0  0  0  0  0  0  0  0  0  0
   -2.7950   22.5200  -30.7660 C   0  0  0  0  0  0  0  0  0  0  0  0
   -2.6540   21.4180  -31.3570 O   0  0  0  0  0  0  0  0  0  0  0  0
   -9.6169   22.1091  -30.6674 H   0  0  0  0  0  0  0  0  0  0  0  0
   -8.9728   22.7478  -32.2179 H   0  0  0  0  0  0  0  0  0  0  0  0
  -10.4127   21.6739  -32.2179 H   0  0  0  0  0  0  0  0  0  0  0  0
  -10.1205   19.4694  -32.7460 H   0  0  0  0  0  0  0  0  0  0  0  0
   -8.6866   17.4518  -33.0050 H   0  0  0  0  0  0  0  0  0  0  0  0
   -6.3052   17.5043  -32.2680 H   0  0  0  0  0  0  0  0  0  0  0  0
   -5.3478   19.5776  -31.2817 H   0  0  0  0  0  0  0  0  0  0  0  0
   -7.3454   22.6875  -30.6318 H   0  0  0  0  0  0  0  0  0  0  0  0
   -6.0863   21.6379  -29.8730 H   0  0  0  0  0  0  0  0  0  0  0  0
   -5.6040   25.6758  -29.3430 H   0  0  0  0  0  0  0  0  0  0  0  0
   -4.9823   26.3329  -30.8949 H   0  0  0  0  0  0  0  0  0  0  0  0
   -6.0514   24.8895  -30.8949 H   0  0  0  0  0  0  0  0  0  0  0  0
   -3.0370   25.8500  -28.9790 H   0  0  0  0  0  0  0  0  0  0  0  0
  1  2  1  0
  2  3  2  0
  3  4  1  0
  4  5  2  0
  5  6  1  0
  6  7  2  0
  7  8  1  0
  8  9  1  0
  9 10  2  0
  9 11  2  0
  9 12  1  0
 12 13  2  0
 13 14  1  0
 13 15  1  0
 15 16  1  0
 16 17  2  0
 16 18  1  0
 18 19  1  0
 19 20  2  0
  7  2  1  0
 19 12  1  0
  1 21  1  0
  1 22  1  0
  1 23  1  0
  3 24  1  0
  4 25  1  0
  5 26  1  0
  6 27  1  0
  8 28  1  0
  8 29  1  0
 14 30  1  0
 14 31  1  0
 14 32  1  0
 15 33  1  0
M  CHG  1  18  -1
M  END
>  <UniqueID>  (21) 
19

>  <SMILES>  (21) 
Cc1ccccc1CS(=O)(=O)c1c(C)[nH]c(=O)[n-]c1=O

>  <Energy>  (21) 
35.24422229594032

>  <Genealogy>  (21) 
Cc1ccccc1CS(=O)(=O)c1c(C)[nH]c(=O)[n-]c1=O (protonated)
Cc1ccccc1CS(=O)(=O)c1c(C)[nH]c(=O)[n-]c1=O (3D coordinates assigned)
Cc1ccccc1CS(=O)(=O)c1c(C)[nH]c(=O)[n-]c1=O (optimized conformer: 35.24422229594032 kcal/mol)

>  <smiles>  (21) 
Cc1ccccc1CS(=O)(=O)c1c(C)[nH]c(=O)[nH]c1=O

>  <score_type>  (21) 
oracle

>  <origin>  (21) 
adgpu

>  <m_score__min__energy>  (21) 
-8.9199999999999999

>  <m_primary>  (21) 
energy

$$$$
21:0
     RDKit          3D

 53 56  0  0  0  0  0  0  0  0999 V2000
   -5.7440   26.2240  -31.2290 O   0  0  0  0  0  0  0  0  0  0  0  0
   -5.3010   25.1160  -30.3150 S   0  0  0  0  0  0  0  0  0  0  0  0
   -5.6860   25.4840  -28.9090 O   0  0  0  0  0  0  0  0  0  0  0  0
   -3.5790   24.9390  -30.4320 N   0  0  0  0  0  0  0  0  0  0  0  0
   -2.7610   24.1300  -29.5740 C   0  0  0  0  0  0  0  0  0  0  0  0
   -3.1000   22.8020  -29.2560 C   0  0  0  0  0  0  0  0  0  0  0  0
   -2.2820   22.0420  -28.4080 C   0  0  0  0  0  0  0  0  0  0  0  0
   -1.0970   22.6020  -27.8860 C   0  0  0  0  0  0  0  0  0  0  0  0
   -0.7660   23.9300  -28.1950 C   0  0  0  0  0  0  0  0  0  0  0  0
   -1.5910   24.6870  -29.0350 C   0  0  0  0  0  0  0  0  0  0  0  0
   -1.2380   26.0000  -29.3360 O   0  0  0  0  0  0  0  0  0  0  0  0
   -0.2280   21.8090  -26.9380 C   0  0  0  0  0  0  0  0  0  0  0  0
   -0.4130   20.2950  -27.1270 C   0  0  0  0  0  0  0  0  0  0  0  0
   -1.9000   19.9270  -27.0820 C   0  0  0  0  0  0  0  0  0  0  0  0
   -2.6390   20.6870  -28.0890 N   0  0  0  0  0  0  0  0  0  0  0  0
   -6.0800   23.6200  -30.8220 C   0  0  0  0  0  0  0  0  0  0  0  0
   -7.1980   23.1200  -30.1390 C   0  0  0  0  0  0  0  0  0  0  0  0
   -7.7920   21.9210  -30.5460 C   0  0  0  0  0  0  0  0  0  0  0  0
   -7.2780   21.2160  -31.6450 C   0  0  0  0  0  0  0  0  0  0  0  0
   -8.0510   19.7260  -32.1880 S   0  0  0  0  0  0  0  0  0  0  0  0
   -8.7300   19.0680  -31.0200 O   0  0  0  0  0  0  0  0  0  0  0  0
   -9.1020   20.0580  -33.2120 O   0  0  0  0  0  0  0  0  0  0  0  0
   -6.8880   18.6130  -32.8760 N   0  0  0  0  0  0  0  0  0  0  0  0
   -6.4180   19.1080  -34.1910 C   0  0  0  0  0  0  0  0  0  0  0  0
   -5.1310   18.3960  -34.6310 C   0  0  0  0  0  0  0  0  0  0  0  0
   -3.9810   18.6510  -33.6350 C   0  0  0  0  0  0  0  0  0  0  0  0
   -4.4840   19.0090  -32.2230 C   0  0  0  0  0  0  0  0  0  0  0  0
   -5.8060   18.2860  -31.9100 C   0  0  0  0  0  0  0  0  0  0  0  0
   -6.1520   21.7150  -32.3210 C   0  0  0  0  0  0  0  0  0  0  0  0
   -5.5570   22.9100  -31.9110 C   0  0  0  0  0  0  0  0  0  0  0  0
   -4.0139   22.3566  -29.6759 H   0  0  0  0  0  0  0  0  0  0  0  0
    0.1464   24.3785  -27.7750 H   0  0  0  0  0  0  0  0  0  0  0  0
    0.8258   22.0649  -27.1222 H   0  0  0  0  0  0  0  0  0  0  0  0
   -0.5222   22.0641  -25.9092 H   0  0  0  0  0  0  0  0  0  0  0  0
    0.0043   19.9979  -28.1005 H   0  0  0  0  0  0  0  0  0  0  0  0
    0.1089   19.7683  -26.3145 H   0  0  0  0  0  0  0  0  0  0  0  0
   -2.0143   18.8514  -27.2823 H   0  0  0  0  0  0  0  0  0  0  0  0
   -2.2994   20.1681  -26.0858 H   0  0  0  0  0  0  0  0  0  0  0  0
   -3.5150   20.2710  -28.4860 H   0  0  0  0  0  0  0  0  0  0  0  0
   -7.6089   23.6722  -29.2809 H   0  0  0  0  0  0  0  0  0  0  0  0
   -8.6648   21.5294  -30.0029 H   0  0  0  0  0  0  0  0  0  0  0  0
   -7.2013   18.9276  -34.9419 H   0  0  0  0  0  0  0  0  0  0  0  0
   -6.2045   20.1832  -34.0996 H   0  0  0  0  0  0  0  0  0  0  0  0
   -5.3218   17.3142  -34.6888 H   0  0  0  0  0  0  0  0  0  0  0  0
   -4.8337   18.7917  -35.6134 H   0  0  0  0  0  0  0  0  0  0  0  0
   -3.3649   17.7421  -33.5689 H   0  0  0  0  0  0  0  0  0  0  0  0
   -3.4027   19.5089  -34.0086 H   0  0  0  0  0  0  0  0  0  0  0  0
   -3.7262   18.7093  -31.4842 H   0  0  0  0  0  0  0  0  0  0  0  0
   -4.6581   20.0942  -32.1771 H   0  0  0  0  0  0  0  0  0  0  0  0
   -5.6275   17.2009  -31.9373 H   0  0  0  0  0  0  0  0  0  0  0  0
   -6.1383   18.6217  -30.9166 H   0  0  0  0  0  0  0  0  0  0  0  0
   -5.7374   21.1621  -33.1768 H   0  0  0  0  0  0  0  0  0  0  0  0
   -4.6754   23.2950  -32.4444 H   0  0  0  0  0  0  0  0  0  0  0  0
  1  2  2  0
  2  3  2  0
  2  4  1  0
  4  5  1  0
  5  6  2  0
  6  7  1  0
  7  8  2  0
  8  9  1  0
  9 10  2  0
 10 11  1  0
  8 12  1  0
 12 13  1  0
 13 14  1  0
 14 15  1  0
  2 16  1  0
 16 17  2  0
 17 18  1  0
 18 19  2  0
 19 20  1  0
 20 21  2  0
 20 22  2  0
 20 23  1  0
 23 24  1  0
 24 25  1  0
 25 26  1  0
 26 27  1  0
 27 28  1  0
 19 29  1  0
 29 30  2  0
 10  5  1  0
 30 16  1  0
 15  7  1  0
 28 23  1  0
  6 31  1  0
  9 32  1  0
 12 33  1  0
 12 34  1  0
 13 35  1  0
 13 36  1  0
 14 37  1  0
 14 38  1  0
 15 39  1  0
 17 40  1  0
 18 41  1  0
 24 42  1  0
 24 43  1  0
 25 44  1  0
 25 45  1  0
 26 46  1  0
 26 47  1  0
 27 48  1  0
 27 49  1  0
 28 50  1  0
 28 51  1  0
 29 52  1  0
 30 53  1  0
M  CHG  2   4  -1  11  -1
M  END
>  <UniqueID>  (22) 
20

>  <SMILES>  (22) 
O=S(=O)([N-]c1cc2c(cc1[O-])CCCN2)c1ccc(S(=O)(=O)N2CCCCC2)cc1

>  <Energy>  (22) 
62.19027335760347

>  <Genealogy>  (22) 
O=S(=O)([N-]c1cc2c(cc1[O-])CCCN2)c1ccc(S(=O)(=O)N2CCCCC2)cc1 (protonated)
O=S(=O)([N-]c1cc2c(cc1[O-])CCCN2)c1ccc(S(=O)(=O)N2CCCCC2)cc1 (3D coordinates assigned)
O=S(=O)([N-]c1cc2c(cc1[O-])CCCN2)c1ccc(S(=O)(=O)N2CCCCC2)cc1 (nonaromatic ring conformer: 62.19027335760347 kcal/mol)

>  <smiles>  (22) 
O=S(=O)(Nc1cc2c(cc1O)CCCN2)c1ccc(S(=O)(=O)N2CCCCC2)cc1

>  <score_type>  (22) 
oracle

>  <origin>  (22) 
adgpu

>  <m_score__min__energy>  (22) 
-15.34

>  <m_primary>  (22) 
energy

$$$$
22:0
     RDKit          3D

 39 41  0  0  0  0  0  0  0  0999 V2000
   -7.1610   15.5090  -34.1820 C   0  0  0  0  0  0  0  0  0  0  0  0
   -6.1850   16.6010  -33.8560 C   0  0  0  0  0  0  0  0  0  0  0  0
   -5.3830   17.1580  -34.8640 C   0  0  0  0  0  0  0  0  0  0  0  0
   -4.5030   18.2040  -34.5680 C   0  0  0  0  0  0  0  0  0  0  0  0
   -4.4260   18.7110  -33.2640 C   0  0  0  0  0  0  0  0  0  0  0  0
   -3.3410   20.0420  -32.8810 S   0  0  0  0  0  0  0  0  0  0  0  0
   -2.9830   20.8100  -34.1230 O   0  0  0  0  0  0  0  0  0  0  0  0
   -2.0840   19.4810  -32.2790 O   0  0  0  0  0  0  0  0  0  0  0  0
   -4.1240   21.1160  -31.7600 N   0  0  0  0  0  0  0  0  0  0  0  0
   -3.5300   21.8900  -30.8130 C   0  0  0  0  0  0  0  0  0  0  0  0
   -2.0450   21.9720  -30.6000 C   0  0  0  0  0  0  0  0  0  0  0  0
   -4.4850   22.6990  -30.1810 C   0  0  0  0  0  0  0  0  0  0  0  0
   -4.2420   23.7940  -29.1830 C   0  0  0  0  0  0  0  0  0  0  0  0
   -3.4890   24.9150  -29.8240 C   0  0  0  0  0  0  0  0  0  0  0  0
   -3.9550   25.4870  -30.8450 O   0  0  0  0  0  0  0  0  0  0  0  0
   -2.2520   25.2990  -29.3230 O   0  0  0  0  0  0  0  0  0  0  0  0
   -5.6890   22.3870  -30.7840 C   0  0  0  0  0  0  0  0  0  0  0  0
   -6.9740   22.8980  -30.6180 C   0  0  0  0  0  0  0  0  0  0  0  0
   -7.9910   22.3800  -31.4380 C   0  0  0  0  0  0  0  0  0  0  0  0
   -7.6830   21.3870  -32.3940 C   0  0  0  0  0  0  0  0  0  0  0  0
   -6.4030   20.9280  -32.5290 N   0  0  0  0  0  0  0  0  0  0  0  0
   -5.4320   21.4260  -31.7230 C   0  0  0  0  0  0  0  0  0  0  0  0
   -5.2350   18.1650  -32.2590 C   0  0  0  0  0  0  0  0  0  0  0  0
   -6.1150   17.1200  -32.5550 C   0  0  0  0  0  0  0  0  0  0  0  0
   -7.5497   15.0741  -33.2493 H   0  0  0  0  0  0  0  0  0  0  0  0
   -7.9941   15.9247  -34.7678 H   0  0  0  0  0  0  0  0  0  0  0  0
   -6.6548   14.7276  -34.7678 H   0  0  0  0  0  0  0  0  0  0  0  0
   -5.4468   16.7702  -35.8914 H   0  0  0  0  0  0  0  0  0  0  0  0
   -3.8700   18.6296  -35.3606 H   0  0  0  0  0  0  0  0  0  0  0  0
   -1.8294   21.9839  -29.5214 H   0  0  0  0  0  0  0  0  0  0  0  0
   -1.5597   21.0993  -31.0613 H   0  0  0  0  0  0  0  0  0  0  0  0
   -1.6587   22.8928  -31.0613 H   0  0  0  0  0  0  0  0  0  0  0  0
   -5.2073   24.1692  -28.8122 H   0  0  0  0  0  0  0  0  0  0  0  0
   -3.6498   23.3942  -28.3467 H   0  0  0  0  0  0  0  0  0  0  0  0
   -7.1851   23.6786  -29.8723 H   0  0  0  0  0  0  0  0  0  0  0  0
   -9.0231   22.7466  -31.3357 H   0  0  0  0  0  0  0  0  0  0  0  0
   -8.4793   20.9801  -33.0346 H   0  0  0  0  0  0  0  0  0  0  0  0
   -5.1776   18.5598  -31.2339 H   0  0  0  0  0  0  0  0  0  0  0  0
   -6.7555   16.7029  -31.7639 H   0  0  0  0  0  0  0  0  0  0  0  0
  1  2  1  0
  2  3  2  0
  3  4  1  0
  4  5  2  0
  5  6  1  0
  6  7  2  0
  6  8  2  0
  6  9  1  0
  9 10  1  0
 10 11  1  0
 10 12  2  0
 12 13  1  0
 13 14  1  0
 14 15  2  0
 14 16  1  0
 12 17  1  0
 17 18  2  0
 18 19  1  0
 19 20  2  0
 20 21  1  0
 21 22  2  0
  5 23  1  0
 23 24  2  0
 24  2  1  0
 22  9  1  0
 22 17  1  0
  1 25  1  0
  1 26  1  0
  1 27  1  0
  3 28  1  0
  4 29  1  0
 11 30  1  0
 11 31  1  0
 11 32  1  0
 13 33  1  0
 13 34  1  0
 18 35  1  0
 19 36  1  0
 20 37  1  0
 23 38  1  0
 24 39  1  0
M  CHG  1  16  -1
M  END
>  <UniqueID>  (23) 
21

>  <SMILES>  (23) 
Cc1ccc(S(=O)(=O)n2c(C)c(CC(=O)[O-])c3cccnc32)cc1

>  <Energy>  (23) 
75.2935002096635

>  <Genealogy>  (23) 
Cc1ccc(S(=O)(=O)n2c(C)c(CC(=O)[O-])c3cccnc32)cc1 (protonated)
Cc1ccc(S(=O)(=O)n2c(C)c(CC(=O)[O-])c3cccnc32)cc1 (3D coordinates assigned)
Cc1ccc(S(=O)(=O)n2c(C)c(CC(=O)[O-])c3cccnc32)cc1 (optimized conformer: 75.2935002096635 kcal/mol)

>  <smiles>  (23) 
Cc1ccc(S(=O)(=O)n2c(C)c(CC(=O)O)c3cccnc32)cc1

>  <score_type>  (23) 
oracle

>  <origin>  (23) 
adgpu

>  <m_score__min__energy>  (23) 
-10.859999999999999

>  <m_primary>  (23) 
energy

$$$$
23:0
     RDKit          3D

 47 50  0  0  0  0  0  0  0  0999 V2000
   -5.7360   26.4110  -30.1340 O   0  0  0  0  0  0  0  0  0  0  0  0
   -5.1620   25.3450  -30.4810 C   0  0  0  0  0  0  0  0  0  0  0  0
   -3.7370   25.2670  -30.4830 N   0  0  0  0  0  0  0  0  0  0  0  0
   -2.9240   24.1440  -29.4500 S   0  0  0  0  0  0  0  0  0  0  0  0
   -1.5130   24.6010  -29.2130 O   0  0  0  0  0  0  0  0  0  0  0  0
   -3.6370   24.0430  -28.1300 O   0  0  0  0  0  0  0  0  0  0  0  0
   -2.9190   22.6010  -30.2910 C   0  0  0  0  0  0  0  0  0  0  0  0
   -1.9930   22.3820  -31.3190 C   0  0  0  0  0  0  0  0  0  0  0  0
   -2.1260   21.2750  -32.1610 C   0  0  0  0  0  0  0  0  0  0  0  0
   -3.1960   20.3870  -31.9910 C   0  0  0  0  0  0  0  0  0  0  0  0
   -3.4790   19.1120  -33.1740 S   0  0  0  0  0  0  0  0  0  0  0  0
   -2.8730   19.5240  -34.4880 O   0  0  0  0  0  0  0  0  0  0  0  0
   -2.7870   17.8550  -32.7220 O   0  0  0  0  0  0  0  0  0  0  0  0
   -5.1870   18.7890  -33.3980 N   0  0  0  0  0  0  0  0  0  0  0  0
   -5.4670   18.0520  -34.6460 C   0  0  0  0  0  0  0  0  0  0  0  0
   -5.2930   16.5210  -34.5030 C   0  0  0  0  0  0  0  0  0  0  0  0
   -5.0680   16.1060  -33.1720 O   0  0  0  0  0  0  0  0  0  0  0  0
   -6.0420   16.6750  -32.3300 C   0  0  0  0  0  0  0  0  0  0  0  0
   -5.8230   18.1920  -32.2030 C   0  0  0  0  0  0  0  0  0  0  0  0
   -4.0880   20.5740  -30.9270 C   0  0  0  0  0  0  0  0  0  0  0  0
   -3.9540   21.6800  -30.0840 C   0  0  0  0  0  0  0  0  0  0  0  0
   -5.9650   24.1590  -30.7930 C   0  0  0  0  0  0  0  0  0  0  0  0
   -7.1340   23.7780  -30.1390 C   0  0  0  0  0  0  0  0  0  0  0  0
   -7.5640   22.6720  -30.8330 C   0  0  0  0  0  0  0  0  0  0  0  0
   -8.6960   21.8770  -30.6730 C   0  0  0  0  0  0  0  0  0  0  0  0
   -8.8810   20.8130  -31.5750 C   0  0  0  0  0  0  0  0  0  0  0  0
   -7.9410   20.5740  -32.6030 C   0  0  0  0  0  0  0  0  0  0  0  0
   -6.8090   21.3990  -32.7400 C   0  0  0  0  0  0  0  0  0  0  0  0
   -6.6560   22.4460  -31.8330 C   0  0  0  0  0  0  0  0  0  0  0  0
   -5.7000   23.3420  -31.7970 O   0  0  0  0  0  0  0  0  0  0  0  0
   -1.1585   23.0838  -31.4638 H   0  0  0  0  0  0  0  0  0  0  0  0
   -1.3892   21.1004  -32.9589 H   0  0  0  0  0  0  0  0  0  0  0  0
   -6.5040   18.2591  -34.9489 H   0  0  0  0  0  0  0  0  0  0  0  0
   -4.7403   18.3944  -35.3975 H   0  0  0  0  0  0  0  0  0  0  0  0
   -6.2054   16.0300  -34.8722 H   0  0  0  0  0  0  0  0  0  0  0  0
   -4.4047   16.2382  -35.0869 H   0  0  0  0  0  0  0  0  0  0  0  0
   -7.0402   16.4873  -32.7524 H   0  0  0  0  0  0  0  0  0  0  0  0
   -5.9609   16.2187  -31.3324 H   0  0  0  0  0  0  0  0  0  0  0  0
   -6.7992   18.6748  -32.0480 H   0  0  0  0  0  0  0  0  0  0  0  0
   -5.1431   18.3551  -31.3538 H   0  0  0  0  0  0  0  0  0  0  0  0
   -4.8962   19.8479  -30.7548 H   0  0  0  0  0  0  0  0  0  0  0  0
   -4.6628   21.8279  -29.2559 H   0  0  0  0  0  0  0  0  0  0  0  0
   -7.6056   24.2535  -29.2664 H   0  0  0  0  0  0  0  0  0  0  0  0
   -9.4206   22.0740  -29.8692 H   0  0  0  0  0  0  0  0  0  0  0  0
   -9.7631   20.1629  -31.4794 H   0  0  0  0  0  0  0  0  0  0  0  0
   -8.0952   19.7376  -33.3007 H   0  0  0  0  0  0  0  0  0  0  0  0
   -6.0702   21.2234  -33.5358 H   0  0  0  0  0  0  0  0  0  0  0  0
  1  2  2  0
  2  3  1  0
  3  4  1  0
  4  5  2  0
  4  6  2  0
  4  7  1  0
  7  8  2  0
  8  9  1  0
  9 10  2  0
 10 11  1  0
 11 12  2  0
 11 13  2  0
 11 14  1  0
 14 15  1  0
 15 16  1  0
 16 17  1  0
 17 18  1  0
 18 19  1  0
 10 20  1  0
 20 21  2  0
  2 22  1  0
 22 23  2  0
 23 24  1  0
 24 25  2  0
 25 26  1  0
 26 27  2  0
 27 28  1  0
 28 29  2  0
 29 30  1  0
 21  7  1  0
 30 22  1  0
 19 14  1  0
 29 24  1  0
  8 31  1  0
  9 32  1  0
 15 33  1  0
 15 34  1  0
 16 35  1  0
 16 36  1  0
 18 37  1  0
 18 38  1  0
 19 39  1  0
 19 40  1  0
 20 41  1  0
 21 42  1  0
 23 43  1  0
 25 44  1  0
 26 45  1  0
 27 46  1  0
 28 47  1  0
M  CHG  1   3  -1
M  END
>  <UniqueID>  (24) 
22

>  <SMILES>  (24) 
O=C([N-]S(=O)(=O)c1ccc(S(=O)(=O)N2CCOCC2)cc1)c1cc2ccccc2o1

>  <Energy>  (24) 
96.15700253444642

>  <Genealogy>  (24) 
O=C([N-]S(=O)(=O)c1ccc(S(=O)(=O)N2CCOCC2)cc1)c1cc2ccccc2o1 (protonated)
O=C([N-]S(=O)(=O)c1ccc(S(=O)(=O)N2CCOCC2)cc1)c1cc2ccccc2o1 (3D coordinates assigned)
O=C([N-]S(=O)(=O)c1ccc(S(=O)(=O)N2CCOCC2)cc1)c1cc2ccccc2o1 (nonaromatic ring conformer: 96.15700253444642 kcal/mol)

>  <smiles>  (24) 
O=C(NS(=O)(=O)c1ccc(S(=O)(=O)N2CCOCC2)cc1)c1cc2ccccc2o1

>  <score_type>  (24) 
oracle

>  <origin>  (24) 
adgpu

>  <m_score__min__energy>  (24) 
-11.94

>  <m_primary>  (24) 
energy

$$$$
24:0
     RDKit          3D

 55 58  0  0  0  0  0  0  0  0999 V2000
   -4.6740   24.1630  -31.5140 O   0  0  0  0  0  0  0  0  0  0  0  0
   -3.7010   23.9350  -30.7450 C   0  0  0  0  0  0  0  0  0  0  0  0
   -3.2280   24.9600  -29.8620 N   0  0  0  0  0  0  0  0  0  0  0  0
   -2.3550   24.7910  -28.7370 C   0  0  0  0  0  0  0  0  0  0  0  0
   -0.9580   24.9210  -28.8470 C   0  0  0  0  0  0  0  0  0  0  0  0
   -0.1420   24.7250  -27.7290 C   0  0  0  0  0  0  0  0  0  0  0  0
   -0.7080   24.3850  -26.4930 C   0  0  0  0  0  0  0  0  0  0  0  0
    0.3170   24.1110  -25.0850 S   0  0  0  0  0  0  0  0  0  0  0  0
    1.7320   23.9090  -25.5520 O   0  0  0  0  0  0  0  0  0  0  0  0
   -0.1310   22.8680  -24.3650 O   0  0  0  0  0  0  0  0  0  0  0  0
    0.2400   25.4880  -24.0100 N   0  0  0  0  0  0  0  0  0  0  0  0
   -1.0390   26.2300  -24.1940 C   0  0  0  0  0  0  0  0  0  0  0  0
   -0.8830   27.4780  -25.0740 C   0  0  0  0  0  0  0  0  0  0  0  0
    0.1350   28.4600  -24.4680 C   0  0  0  0  0  0  0  0  0  0  0  0
    1.2400   27.7490  -23.6640 C   0  0  0  0  0  0  0  0  0  0  0  0
    1.4580   26.3210  -24.1750 C   0  0  0  0  0  0  0  0  0  0  0  0
   -2.0950   24.2230  -26.3900 C   0  0  0  0  0  0  0  0  0  0  0  0
   -2.9110   24.4180  -27.5070 C   0  0  0  0  0  0  0  0  0  0  0  0
   -3.0660   22.5950  -30.7560 C   0  0  0  0  0  0  0  0  0  0  0  0
   -1.6730   22.5000  -30.6000 C   0  0  0  0  0  0  0  0  0  0  0  0
   -1.0610   21.2880  -30.5980 N   0  0  0  0  0  0  0  0  0  0  0  0
   -1.7750   20.1470  -30.7510 C   0  0  0  0  0  0  0  0  0  0  0  0
   -3.1180   20.2040  -30.9200 N   0  0  0  0  0  0  0  0  0  0  0  0
   -3.7840   21.3900  -30.9330 C   0  0  0  0  0  0  0  0  0  0  0  0
   -5.5560   21.3400  -31.2490 S   0  0  0  0  0  0  0  0  0  0  0  0
   -5.3970   20.8310  -32.9980 C   0  0  0  0  0  0  0  0  0  0  0  0
   -5.8800   19.4210  -33.1970 C   0  0  0  0  0  0  0  0  0  0  0  0
   -6.8130   18.8540  -32.3150 C   0  0  0  0  0  0  0  0  0  0  0  0
   -7.2710   17.5550  -32.5410 C   0  0  0  0  0  0  0  0  0  0  0  0
   -6.8150   16.8460  -33.6100 N   0  0  0  0  0  0  0  0  0  0  0  0
   -5.9130   17.3720  -34.4800 C   0  0  0  0  0  0  0  0  0  0  0  0
   -5.4310   18.6690  -34.2930 C   0  0  0  0  0  0  0  0  0  0  0  0
   -0.5064   25.1779  -29.8166 H   0  0  0  0  0  0  0  0  0  0  0  0
    0.9484   24.8381  -27.8198 H   0  0  0  0  0  0  0  0  0  0  0  0
    0.2470   25.1010  -23.0370 H   0  0  0  0  0  0  0  0  0  0  0  0
   -1.7707   25.5572  -24.6652 H   0  0  0  0  0  0  0  0  0  0  0  0
   -1.3724   26.5654  -23.2009 H   0  0  0  0  0  0  0  0  0  0  0  0
   -0.5369   27.1725  -26.0724 H   0  0  0  0  0  0  0  0  0  0  0  0
   -1.8582   27.9826  -25.1403 H   0  0  0  0  0  0  0  0  0  0  0  0
    0.6042   29.0289  -25.2842 H   0  0  0  0  0  0  0  0  0  0  0  0
   -0.4097   29.1178  -23.7747 H   0  0  0  0  0  0  0  0  0  0  0  0
    2.1783   28.3142  -23.7644 H   0  0  0  0  0  0  0  0  0  0  0  0
    0.9304   27.7006  -22.6096 H   0  0  0  0  0  0  0  0  0  0  0  0
    1.7213   26.3604  -25.2423 H   0  0  0  0  0  0  0  0  0  0  0  0
    2.2679   25.8655  -23.5863 H   0  0  0  0  0  0  0  0  0  0  0  0
   -2.5437   23.9412  -25.4260 H   0  0  0  0  0  0  0  0  0  0  0  0
   -3.9985   24.2775  -27.4197 H   0  0  0  0  0  0  0  0  0  0  0  0
   -1.0737   23.4144  -30.4786 H   0  0  0  0  0  0  0  0  0  0  0  0
   -1.2638   19.1731  -30.7380 H   0  0  0  0  0  0  0  0  0  0  0  0
   -5.9958   21.5079  -33.6251 H   0  0  0  0  0  0  0  0  0  0  0  0
   -4.3352   20.8801  -33.2812 H   0  0  0  0  0  0  0  0  0  0  0  0
   -7.1805   19.4290  -31.4522 H   0  0  0  0  0  0  0  0  0  0  0  0
   -8.0018   17.1033  -31.8540 H   0  0  0  0  0  0  0  0  0  0  0  0
   -5.5617   16.7742  -35.3339 H   0  0  0  0  0  0  0  0  0  0  0  0
   -4.7050   19.0978  -34.9994 H   0  0  0  0  0  0  0  0  0  0  0  0
  1  2  2  0
  2  3  1  0
  3  4  1  0
  4  5  2  0
  5  6  1  0
  6  7  2  0
  7  8  1  0
  8  9  2  0
  8 10  2  0
  8 11  1  0
 11 12  1  0
 12 13  1  0
 13 14  1  0
 14 15  1  0
 15 16  1  0
  7 17  1  0
 17 18  2  0
  2 19  1  0
 19 20  2  0
 20 21  1  0
 21 22  2  0
 22 23  1  0
 23 24  2  0
 24 25  1  0
 25 26  1  0
 26 27  1  0
 27 28  2  0
 28 29  1  0
 29 30  2  0
 30 31  1  0
 31 32  2  0
 18  4  1  0
 24 19  1  0
 32 27  1  0
 16 11  1  0
  5 33  1  0
  6 34  1  0
 11 35  1  0
 12 36  1  0
 12 37  1  0
 13 38  1  0
 13 39  1  0
 14 40  1  0
 14 41  1  0
 15 42  1  0
 15 43  1  0
 16 44  1  0
 16 45  1  0
 17 46  1  0
 18 47  1  0
 20 48  1  0
 22 49  1  0
 26 50  1  0
 26 51  1  0
 28 52  1  0
 29 53  1  0
 31 54  1  0
 32 55  1  0
M  CHG  2   3  -1  11   1
M  END
>  <UniqueID>  (25) 
23

>  <SMILES>  (25) 
O=C([N-]c1ccc(S(=O)(=O)[NH+]2CCCCC2)cc1)c1cncnc1SCc1ccncc1

>  <Energy>  (25) 
68.49707012833376

>  <Genealogy>  (25) 
O=C([N-]c1ccc(S(=O)(=O)[NH+]2CCCCC2)cc1)c1cncnc1SCc1ccncc1 (protonated)
O=C([N-]c1ccc(S(=O)(=O)[NH+]2CCCCC2)cc1)c1cncnc1SCc1ccncc1 (3D coordinates assigned)
O=C([N-]c1ccc(S(=O)(=O)[NH+]2CCCCC2)cc1)c1cncnc1SCc1ccncc1 (nonaromatic ring conformer: 68.49707012833376 kcal/mol)

>  <smiles>  (25) 
O=C(Nc1ccc(S(=O)(=O)N2CCCCC2)cc1)c1cncnc1SCc1ccncc1

>  <score_type>  (25) 
oracle

>  <origin>  (25) 
adgpu

>  <m_score__min__energy>  (25) 
-11.369999999999999

>  <m_primary>  (25) 
energy

$$$$
25:0
     RDKit          3D

 34 36  0  0  0  0  0  0  0  0999 V2000
   -0.8620   26.9290  -27.8600 C   0  0  0  0  0  0  0  0  0  0  0  0
   -1.1330   26.0140  -28.9600 N   0  0  0  0  0  0  0  0  0  0  0  0
   -0.9270   24.5950  -28.9290 C   0  0  0  0  0  0  0  0  0  0  0  0
    0.2420   24.1540  -29.0740 O   0  0  0  0  0  0  0  0  0  0  0  0
   -2.0350   23.6390  -28.7430 C   0  0  0  0  0  0  0  0  0  0  0  0
   -1.9180   22.1910  -27.8930 S   0  0  0  0  0  0  0  0  0  0  0  0
   -3.5560   21.8230  -27.8790 C   0  0  0  0  0  0  0  0  0  0  0  0
   -4.2320   22.8460  -28.5280 C   0  0  0  0  0  0  0  0  0  0  0  0
   -3.3910   23.8540  -29.0180 C   0  0  0  0  0  0  0  0  0  0  0  0
   -3.9220   24.9650  -29.7500 N   0  0  0  0  0  0  0  0  0  0  0  0
   -5.5600   25.0830  -30.3090 S   0  0  0  0  0  0  0  0  0  0  0  0
   -5.6900   26.2680  -31.2230 O   0  0  0  0  0  0  0  0  0  0  0  0
   -6.4670   25.2780  -29.1270 O   0  0  0  0  0  0  0  0  0  0  0  0
   -6.0490   23.6060  -31.1370 C   0  0  0  0  0  0  0  0  0  0  0  0
   -7.4160   23.2540  -31.1880 C   0  0  0  0  0  0  0  0  0  0  0  0
   -7.8270   22.0720  -31.8280 C   0  0  0  0  0  0  0  0  0  0  0  0
   -6.8600   21.2550  -32.4130 C   0  0  0  0  0  0  0  0  0  0  0  0
   -7.1260   20.0820  -33.0420 N   0  0  0  0  0  0  0  0  0  0  0  0
   -5.9840   19.5080  -33.4950 C   0  0  0  0  0  0  0  0  0  0  0  0
   -5.9540   18.2100  -34.2280 C   0  0  0  0  0  0  0  0  0  0  0  0
   -4.6100   20.4290  -33.1330 S   0  0  0  0  0  0  0  0  0  0  0  0
   -5.5220   21.6110  -32.3670 C   0  0  0  0  0  0  0  0  0  0  0  0
   -5.0860   22.7760  -31.7420 C   0  0  0  0  0  0  0  0  0  0  0  0
   -1.0162   26.4083  -26.9034 H   0  0  0  0  0  0  0  0  0  0  0  0
    0.1786   27.2799  -27.9228 H   0  0  0  0  0  0  0  0  0  0  0  0
   -1.5437   27.7900  -27.9228 H   0  0  0  0  0  0  0  0  0  0  0  0
   -4.0133   20.9274  -27.4332 H   0  0  0  0  0  0  0  0  0  0  0  0
   -5.3254   22.8641  -28.6468 H   0  0  0  0  0  0  0  0  0  0  0  0
   -8.1657   23.9108  -30.7227 H   0  0  0  0  0  0  0  0  0  0  0  0
   -8.8913   21.7966  -31.8667 H   0  0  0  0  0  0  0  0  0  0  0  0
   -5.9348   17.3811  -33.5052 H   0  0  0  0  0  0  0  0  0  0  0  0
   -6.8504   18.1249  -34.8598 H   0  0  0  0  0  0  0  0  0  0  0  0
   -5.0546   18.1664  -34.8598 H   0  0  0  0  0  0  0  0  0  0  0  0
   -4.0185   23.0408  -31.7214 H   0  0  0  0  0  0  0  0  0  0  0  0
  1  2  1  0
  2  3  1  0
  3  4  2  0
  3  5  1  0
  5  6  1  0
  6  7  1  0
  7  8  2  0
  8  9  1  0
  9 10  1  0
 10 11  1  0
 11 12  2  0
 11 13  2  0
 11 14  1  0
 14 15  2  0
 15 16  1  0
 16 17  2  0
 17 18  1  0
 18 19  2  0
 19 20  1  0
 19 21  1  0
 21 22  1  0
 22 23  2  0
  9  5  2  0
 23 14  1  0
 22 17  1  0
  1 24  1  0
  1 25  1  0
  1 26  1  0
  7 27  1  0
  8 28  1  0
 15 29  1  0
 16 30  1  0
 20 31  1  0
 20 32  1  0
 20 33  1  0
 23 34  1  0
M  CHG  2   2  -1  10  -1
M  END
>  <UniqueID>  (26) 
24

>  <SMILES>  (26) 
C[N-]C(=O)c1sccc1[N-]S(=O)(=O)c1ccc2nc(C)sc2c1

>  <Energy>  (26) 
101.81208108450461

>  <Genealogy>  (26) 
C[N-]C(=O)c1sccc1[N-]S(=O)(=O)c1ccc2nc(C)sc2c1 (protonated)
C[N-]C(=O)c1sccc1[N-]S(=O)(=O)c1ccc2nc(C)sc2c1 (3D coordinates assigned)
C[N-]C(=O)c1sccc1[N-]S(=O)(=O)c1ccc2nc(C)sc2c1 (optimized conformer: 101.81208108450461 kcal/mol)

>  <smiles>  (26) 
CNC(=O)c1sccc1NS(=O)(=O)c1ccc2nc(C)sc2c1

>  <score_type>  (26) 
oracle

>  <origin>  (26) 
adgpu

>  <m_score__min__energy>  (26) 
-10.960000000000001

>  <m_primary>  (26) 
energy

$$$$
26:0
     RDKit          3D

 55 57  0  0  1  0  0  0  0  0999 V2000
   -2.7590   25.2600  -26.3400 C   0  0  0  0  0  0  0  0  0  0  0  0
   -3.0300   23.9870  -27.1140 C   0  0  0  0  0  0  0  0  0  0  0  0
   -3.9970   24.2190  -28.1820 N   0  0  0  0  0  0  0  0  0  0  0  0
   -3.1360   24.4900  -29.6500 S   0  0  0  0  0  0  0  0  0  0  0  0
   -1.8650   25.2550  -29.3220 O   0  0  0  0  0  0  0  0  0  0  0  0
   -3.9090   25.3150  -30.6200 O   0  0  0  0  0  0  0  0  0  0  0  0
   -2.7460   22.9530  -30.4090 C   0  0  0  0  0  0  0  0  0  0  0  0
   -1.9350   22.0280  -29.7830 C   0  0  0  0  0  0  0  0  0  0  0  0
   -1.6500   20.8260  -30.4160 C   0  0  0  0  0  0  0  0  0  0  0  0
   -2.1570   20.5180  -31.6690 C   0  0  0  0  0  0  0  0  0  0  0  0
   -1.8380   19.2710  -32.2810 N   0  0  0  0  0  0  0  0  0  0  0  0
   -2.8070   18.5490  -32.7430 C   0  0  0  0  0  0  0  0  0  0  0  0
   -4.1010   18.9420  -32.6630 N   0  0  0  0  0  0  0  0  0  0  0  0
   -5.0810   18.1670  -33.1530 C   0  0  0  0  0  0  0  0  0  0  0  0
   -6.4450   18.5430  -33.0890 N   0  0  0  0  0  0  0  0  0  0  0  0
   -7.4540   17.8460  -32.3660 C   0  0  0  0  0  0  0  0  0  0  0  0
   -8.5450   18.6650  -31.7790 C   0  0  0  0  0  0  0  0  0  0  0  0
   -8.7320   20.0320  -32.3290 C   0  0  0  0  0  0  0  0  0  0  0  0
   -9.3160   20.9080  -31.2190 C   0  0  0  0  0  0  0  0  0  0  0  0
   -7.4470   20.6790  -32.7920 C   0  0  0  0  0  0  0  0  0  0  0  0
   -6.8570   19.7460  -33.8280 C   0  0  0  0  0  0  0  0  0  0  0  0
   -4.7020   17.0030  -33.7170 N   0  0  0  0  0  0  0  0  0  0  0  0
   -3.4530   16.5660  -33.8240 C   0  0  0  0  0  0  0  0  0  0  0  0
   -3.2360   15.3420  -34.4340 O   0  0  0  0  0  0  0  0  0  0  0  0
   -2.8960   14.1710  -33.7240 C   0  0  0  0  0  0  0  0  0  0  0  0
   -2.4420   17.3450  -33.3300 C   0  0  0  0  0  0  0  0  0  0  0  0
   -1.1580   16.9310  -33.4220 F   0  0  0  0  0  0  0  0  0  0  0  0
   -2.9690   21.4620  -32.2810 C   0  0  0  0  0  0  0  0  0  0  0  0
   -3.2640   22.6730  -31.6590 C   0  0  0  0  0  0  0  0  0  0  0  0
   -2.8038   25.0498  -25.2612 H   0  0  0  0  0  0  0  0  0  0  0  0
   -1.7597   25.6405  -26.5983 H   0  0  0  0  0  0  0  0  0  0  0  0
   -3.5167   26.0145  -26.5983 H   0  0  0  0  0  0  0  0  0  0  0  0
   -2.0884   23.6262  -27.5536 H   0  0  0  0  0  0  0  0  0  0  0  0
   -3.4448   23.2386  -26.4227 H   0  0  0  0  0  0  0  0  0  0  0  0
   -4.5550   25.0830  -28.0120 H   0  0  0  0  0  0  0  0  0  0  0  0
   -1.5170   22.2421  -28.7883 H   0  0  0  0  0  0  0  0  0  0  0  0
   -1.0025   20.0960  -29.9082 H   0  0  0  0  0  0  0  0  0  0  0  0
   -4.2840   19.8440  -32.2150 H   0  0  0  0  0  0  0  0  0  0  0  0
   -7.9150   17.1212  -33.0532 H   0  0  0  0  0  0  0  0  0  0  0  0
   -6.9345   17.3998  -31.5052 H   0  0  0  0  0  0  0  0  0  0  0  0
   -9.4872   18.1166  -31.9253 H   0  0  0  0  0  0  0  0  0  0  0  0
   -8.2553   18.8166  -30.7287 H   0  0  0  0  0  0  0  0  0  0  0  0
   -9.3914   19.9429  -33.2049 H   0  0  0  0  0  0  0  0  0  0  0  0
   -9.0386   20.4919  -30.2393 H   0  0  0  0  0  0  0  0  0  0  0  0
   -8.9174   21.9292  -31.3098 H   0  0  0  0  0  0  0  0  0  0  0  0
  -10.4120   20.9328  -31.3098 H   0  0  0  0  0  0  0  0  0  0  0  0
   -7.6541   21.6629  -33.2381 H   0  0  0  0  0  0  0  0  0  0  0  0
   -6.7530   20.8394  -31.9538 H   0  0  0  0  0  0  0  0  0  0  0  0
   -7.6103   19.4905  -34.5878 H   0  0  0  0  0  0  0  0  0  0  0  0
   -6.0104   20.2084  -34.3566 H   0  0  0  0  0  0  0  0  0  0  0  0
   -2.9532   14.3679  -32.6433 H   0  0  0  0  0  0  0  0  0  0  0  0
   -3.5974   13.3657  -33.9876 H   0  0  0  0  0  0  0  0  0  0  0  0
   -1.8724   13.8666  -33.9876 H   0  0  0  0  0  0  0  0  0  0  0  0
   -3.3876   21.2502  -33.2759 H   0  0  0  0  0  0  0  0  0  0  0  0
   -3.9098   23.4069  -32.1633 H   0  0  0  0  0  0  0  0  0  0  0  0
  1  2  1  0
  2  3  1  0
  3  4  1  0
  4  5  2  0
  4  6  2  0
  4  7  1  0
  7  8  2  0
  8  9  1  0
  9 10  2  0
 10 11  1  0
 11 12  2  0
 12 13  1  0
 13 14  1  0
 14 15  1  0
 15 16  1  0
 16 17  1  0
 17 18  1  0
 18 19  1  0
 18 20  1  0
 20 21  1  0
 14 22  2  0
 22 23  1  0
 23 24  1  0
 24 25  1  0
 23 26  2  0
 26 27  1  0
 10 28  1  0
 28 29  2  0
 29  7  1  0
 26 12  1  0
 21 15  1  0
  1 30  1  0
  1 31  1  0
  1 32  1  0
  2 33  1  0
  2 34  1  0
  3 35  1  0
  8 36  1  0
  9 37  1  0
 13 38  1  0
 16 39  1  0
 16 40  1  0
 17 41  1  0
 17 42  1  0
 18 43  1  0
 19 44  1  0
 19 45  1  0
 19 46  1  0
 20 47  1  0
 20 48  1  0
 21 49  1  0
 21 50  1  0
 25 51  1  0
 25 52  1  0
 25 53  1  0
 28 54  1  0
 29 55  1  0
M  END
>  <smiles>  (27) 
CCNS(=O)(=O)c1ccc(N=c2[nH]c(N3CCC(C)CC3)nc(OC)c2F)cc1

>  <score_type>  (27) 
oracle

>  <origin>  (27) 
adgpu

>  <m_score__min__energy>  (27) 
-9

>  <m_primary>  (27) 
energy

$$$$
27:0
     RDKit          3D

 54 57  0  0  0  0  0  0  0  0999 V2000
   -4.9380   15.9660  -32.3560 C   0  0  0  0  0  0  0  0  0  0  0  0
   -5.9400   16.9520  -33.4490 S   0  0  0  0  0  0  0  0  0  0  0  0
   -5.1220   17.3570  -34.6440 O   0  0  0  0  0  0  0  0  0  0  0  0
   -7.1030   16.1200  -33.9100 O   0  0  0  0  0  0  0  0  0  0  0  0
   -6.5240   18.3680  -32.6100 N   0  0  0  0  0  0  0  0  0  0  0  0
   -6.3020   19.5790  -33.4350 C   0  0  0  0  0  0  0  0  0  0  0  0
   -7.2610   20.7370  -33.0870 C   0  0  0  0  0  0  0  0  0  0  0  0
   -7.7770   20.6020  -31.7190 N   0  0  0  0  0  0  0  0  0  0  0  0
   -7.9520   21.7640  -30.8890 C   0  0  0  0  0  0  0  0  0  0  0  0
   -9.0330   21.9250  -30.2650 O   0  0  0  0  0  0  0  0  0  0  0  0
   -6.8790   22.7730  -30.7560 C   0  0  0  0  0  0  0  0  0  0  0  0
   -7.1600   24.0460  -30.2390 C   0  0  0  0  0  0  0  0  0  0  0  0
   -6.1520   25.0110  -30.1500 C   0  0  0  0  0  0  0  0  0  0  0  0
   -4.8490   24.7050  -30.5560 C   0  0  0  0  0  0  0  0  0  0  0  0
   -3.8580   25.6750  -30.4690 O   0  0  0  0  0  0  0  0  0  0  0  0
   -4.5500   23.4240  -31.0400 C   0  0  0  0  0  0  0  0  0  0  0  0
   -3.2120   23.0840  -31.3980 N   0  0  0  0  0  0  0  0  0  0  0  0
   -2.2660   22.0540  -30.3750 S   0  0  0  0  0  0  0  0  0  0  0  0
   -3.1230   20.9400  -29.8370 O   0  0  0  0  0  0  0  0  0  0  0  0
   -1.1490   21.4550  -31.1780 O   0  0  0  0  0  0  0  0  0  0  0  0
   -1.6020   23.0030  -29.0420 C   0  0  0  0  0  0  0  0  0  0  0  0
   -0.2150   23.1650  -28.9040 C   0  0  0  0  0  0  0  0  0  0  0  0
    0.3030   23.9950  -27.9080 C   0  0  0  0  0  0  0  0  0  0  0  0
   -0.5600   24.6800  -27.0400 C   0  0  0  0  0  0  0  0  0  0  0  0
   -0.0500   25.5350  -26.0490 C   0  0  0  0  0  0  0  0  0  0  0  0
   -0.9220   26.2230  -25.2000 C   0  0  0  0  0  0  0  0  0  0  0  0
   -2.3070   26.0650  -25.3340 C   0  0  0  0  0  0  0  0  0  0  0  0
   -2.8290   25.2160  -26.3180 C   0  0  0  0  0  0  0  0  0  0  0  0
   -1.9630   24.5170  -27.1740 C   0  0  0  0  0  0  0  0  0  0  0  0
   -2.4730   23.6730  -28.1710 C   0  0  0  0  0  0  0  0  0  0  0  0
   -5.5630   22.4650  -31.1480 C   0  0  0  0  0  0  0  0  0  0  0  0
   -8.3500   19.3190  -31.2950 C   0  0  0  0  0  0  0  0  0  0  0  0
   -7.9410   18.1960  -32.2560 C   0  0  0  0  0  0  0  0  0  0  0  0
   -5.1854   16.2095  -31.3122 H   0  0  0  0  0  0  0  0  0  0  0  0
   -5.1348   14.8995  -32.5403 H   0  0  0  0  0  0  0  0  0  0  0  0
   -3.8749   16.1799  -32.5403 H   0  0  0  0  0  0  0  0  0  0  0  0
   -5.2686   19.9226  -33.2802 H   0  0  0  0  0  0  0  0  0  0  0  0
   -6.4929   19.3004  -34.4819 H   0  0  0  0  0  0  0  0  0  0  0  0
   -6.7197   21.6906  -33.1745 H   0  0  0  0  0  0  0  0  0  0  0  0
   -8.1104   20.7096  -33.7854 H   0  0  0  0  0  0  0  0  0  0  0  0
   -8.1790   24.2867  -29.9017 H   0  0  0  0  0  0  0  0  0  0  0  0
   -6.3843   26.0129  -29.7599 H   0  0  0  0  0  0  0  0  0  0  0  0
    0.4679   22.6351  -29.5843 H   0  0  0  0  0  0  0  0  0  0  0  0
    1.3918   24.1122  -27.8036 H   0  0  0  0  0  0  0  0  0  0  0  0
    1.0371   25.6634  -25.9408 H   0  0  0  0  0  0  0  0  0  0  0  0
   -0.5189   26.8906  -24.4242 H   0  0  0  0  0  0  0  0  0  0  0  0
   -2.9878   26.6100  -24.6636 H   0  0  0  0  0  0  0  0  0  0  0  0
   -3.9177   25.0968  -26.4202 H   0  0  0  0  0  0  0  0  0  0  0  0
   -3.5599   23.5361  -28.2701 H   0  0  0  0  0  0  0  0  0  0  0  0
   -5.3295   21.4647  -31.5415 H   0  0  0  0  0  0  0  0  0  0  0  0
   -7.9879   19.0787  -30.2845 H   0  0  0  0  0  0  0  0  0  0  0  0
   -9.4467   19.4042  -31.2985 H   0  0  0  0  0  0  0  0  0  0  0  0
   -8.0843   17.2209  -31.7675 H   0  0  0  0  0  0  0  0  0  0  0  0
   -8.5607   18.2367  -33.1639 H   0  0  0  0  0  0  0  0  0  0  0  0
  1  2  1  0
  2  3  2  0
  2  4  2  0
  2  5  1  0
  5  6  1  0
  6  7  1  0
  7  8  1  0
  8  9  1  0
  9 10  2  0
  9 11  1  0
 11 12  2  0
 12 13  1  0
 13 14  2  0
 14 15  1  0
 14 16  1  0
 16 17  1  0
 17 18  1  0
 18 19  2  0
 18 20  2  0
 18 21  1  0
 21 22  2  0
 22 23  1  0
 23 24  2  0
 24 25  1  0
 25 26  2  0
 26 27  1  0
 27 28  2  0
 28 29  1  0
 29 30  2  0
 16 31  2  0
  8 32  1  0
 32 33  1  0
 33  5  1  0
 31 11  1  0
 30 21  1  0
 29 24  1  0
  1 34  1  0
  1 35  1  0
  1 36  1  0
  6 37  1  0
  6 38  1  0
  7 39  1  0
  7 40  1  0
 12 41  1  0
 13 42  1  0
 22 43  1  0
 23 44  1  0
 25 45  1  0
 26 46  1  0
 27 47  1  0
 28 48  1  0
 30 49  1  0
 31 50  1  0
 32 51  1  0
 32 52  1  0
 33 53  1  0
 33 54  1  0
M  CHG  2  15  -1  17  -1
M  END
>  <UniqueID>  (28) 
25

>  <SMILES>  (28) 
CS(=O)(=O)N1CCN(C(=O)c2ccc([O-])c([N-]S(=O)(=O)c3ccc4ccccc4c3)c2)CC1

>  <Energy>  (28) 
73.26631614792286

>  <Genealogy>  (28) 
CS(=O)(=O)N1CCN(C(=O)c2ccc([O-])c([N-]S(=O)(=O)c3ccc4ccccc4c3)c2)CC1 (protonated)
CS(=O)(=O)N1CCN(C(=O)c2ccc([O-])c([N-]S(=O)(=O)c3ccc4ccccc4c3)c2)CC1 (3D coordinates assigned)
CS(=O)(=O)N1CCN(C(=O)c2ccc([O-])c([N-]S(=O)(=O)c3ccc4ccccc4c3)c2)CC1 (nonaromatic ring conformer: 73.26631614792286 kcal/mol)

>  <smiles>  (28) 
CS(=O)(=O)N1CCN(C(=O)c2ccc(O)c(NS(=O)(=O)c3ccc4ccccc4c3)c2)CC1

>  <score_type>  (28) 
oracle

>  <origin>  (28) 
adgpu

>  <m_score__min__energy>  (28) 
-15.789999999999999

>  <m_primary>  (28) 
energy

$$$$
28:0
     RDKit          3D

 32 34  0  0  0  0  0  0  0  0999 V2000
   -6.4320   24.0920  -30.0160 O   0  0  0  0  0  0  0  0  0  0  0  0
   -5.9560   23.2890  -31.1950 S   0  0  0  0  0  0  0  0  0  0  0  0
   -5.8300   24.1970  -32.3850 O   0  0  0  0  0  0  0  0  0  0  0  0
   -4.3950   22.6250  -30.8230 N   0  0  0  0  0  0  0  0  0  0  0  0
   -3.6140   22.9870  -29.6680 C   0  0  0  0  0  0  0  0  0  0  0  0
   -3.2690   22.0400  -28.6820 C   0  0  0  0  0  0  0  0  0  0  0  0
   -2.5010   22.4130  -27.5750 C   0  0  0  0  0  0  0  0  0  0  0  0
   -2.0700   23.7330  -27.4340 C   0  0  0  0  0  0  0  0  0  0  0  0
   -2.4040   24.6830  -28.4000 C   0  0  0  0  0  0  0  0  0  0  0  0
   -3.1710   24.3170  -29.5130 C   0  0  0  0  0  0  0  0  0  0  0  0
   -3.4860   25.2840  -30.4620 O   0  0  0  0  0  0  0  0  0  0  0  0
   -7.1040   22.0010  -31.5830 C   0  0  0  0  0  0  0  0  0  0  0  0
   -8.4620   22.1700  -31.2680 C   0  0  0  0  0  0  0  0  0  0  0  0
   -9.3910   21.1720  -31.5700 C   0  0  0  0  0  0  0  0  0  0  0  0
   -8.9780   19.9870  -32.1820 C   0  0  0  0  0  0  0  0  0  0  0  0
   -7.6260   19.7930  -32.4910 C   0  0  0  0  0  0  0  0  0  0  0  0
   -7.1860   18.6070  -33.0960 C   0  0  0  0  0  0  0  0  0  0  0  0
   -5.8320   18.4360  -33.3880 C   0  0  0  0  0  0  0  0  0  0  0  0
   -4.9280   19.4510  -33.0690 C   0  0  0  0  0  0  0  0  0  0  0  0
   -5.3660   20.5970  -32.4830 N   0  0  0  0  0  0  0  0  0  0  0  0
   -6.6800   20.8010  -32.1880 C   0  0  0  0  0  0  0  0  0  0  0  0
   -4.0260   21.9110  -31.4910 H   0  0  0  0  0  0  0  0  0  0  0  0
   -3.6072   20.9983  -28.7847 H   0  0  0  0  0  0  0  0  0  0  0  0
   -2.2359   21.6647  -26.8136 H   0  0  0  0  0  0  0  0  0  0  0  0
   -1.4670   24.0244  -26.5614 H   0  0  0  0  0  0  0  0  0  0  0  0
   -2.0637   25.7229  -28.2868 H   0  0  0  0  0  0  0  0  0  0  0  0
   -8.7970   23.0967  -30.7791 H   0  0  0  0  0  0  0  0  0  0  0  0
  -10.4530   21.3202  -31.3246 H   0  0  0  0  0  0  0  0  0  0  0  0
   -9.7145   19.2059  -32.4214 H   0  0  0  0  0  0  0  0  0  0  0  0
   -7.9068   17.8127  -33.3401 H   0  0  0  0  0  0  0  0  0  0  0  0
   -5.4801   17.5095  -33.8653 H   0  0  0  0  0  0  0  0  0  0  0  0
   -3.8585   19.3232  -33.2924 H   0  0  0  0  0  0  0  0  0  0  0  0
  1  2  2  0
  2  3  2  0
  2  4  1  0
  4  5  1  0
  5  6  2  0
  6  7  1  0
  7  8  2  0
  8  9  1  0
  9 10  2  0
 10 11  1  0
  2 12  1  0
 12 13  2  0
 13 14  1  0
 14 15  2  0
 15 16  1  0
 16 17  2  0
 17 18  1  0
 18 19  2  0
 19 20  1  0
 20 21  2  0
 10  5  1  0
 21 12  1  0
 21 16  1  0
  4 22  1  0
  6 23  1  0
  7 24  1  0
  8 25  1  0
  9 26  1  0
 13 27  1  0
 14 28  1  0
 15 29  1  0
 17 30  1  0
 18 31  1  0
 19 32  1  0
M  CHG  1  11  -1
M  END
>  <UniqueID>  (29) 
26

>  <SMILES>  (29) 
O=S(=O)(Nc1ccccc1[O-])c1cccc2cccnc12

>  <Energy>  (29) 
42.847280335394785

>  <Genealogy>  (29) 
O=S(=O)(Nc1ccccc1[O-])c1cccc2cccnc12 (protonated)
O=S(=O)(Nc1ccccc1[O-])c1cccc2cccnc12 (3D coordinates assigned)
O=S(=O)(Nc1ccccc1[O-])c1cccc2cccnc12 (optimized conformer: 42.847280335394785 kcal/mol)

>  <smiles>  (29) 
O=S(=O)(Nc1ccccc1O)c1cccc2cccnc12

>  <score_type>  (29) 
oracle

>  <origin>  (29) 
adgpu

>  <m_score__min__energy>  (29) 
-12.210000000000001

>  <m_primary>  (29) 
energy

$$$$
29:0
     RDKit          3D

 53 56  0  0  0  0  0  0  0  0999 V2000
   -1.4880   25.5720  -29.0110 O   0  0  0  0  0  0  0  0  0  0  0  0
   -2.5590   24.9240  -29.1410 C   0  0  0  0  0  0  0  0  0  0  0  0
   -2.8590   23.8000  -28.2030 C   0  0  0  0  0  0  0  0  0  0  0  0
   -2.2090   22.5310  -28.6870 C   0  0  0  0  0  0  0  0  0  0  0  0
   -1.5290   22.5100  -29.9160 C   0  0  0  0  0  0  0  0  0  0  0  0
   -0.8950   21.3450  -30.3520 C   0  0  0  0  0  0  0  0  0  0  0  0
   -0.9130   20.1920  -29.5580 C   0  0  0  0  0  0  0  0  0  0  0  0
   -1.5900   20.2030  -28.3280 C   0  0  0  0  0  0  0  0  0  0  0  0
   -2.2450   21.3680  -27.8990 C   0  0  0  0  0  0  0  0  0  0  0  0
   -1.5960   18.9470  -27.5040 C   0  0  0  0  0  0  0  0  0  0  0  0
   -0.1860   18.3360  -27.4670 C   0  0  0  0  0  0  0  0  0  0  0  0
    0.5120   18.2540  -28.8530 C   0  0  0  0  0  0  0  0  0  0  0  0
   -0.2610   18.9150  -30.0090 C   0  0  0  0  0  0  0  0  0  0  0  0
   -3.5080   25.2610  -30.1600 N   0  0  0  0  0  0  0  0  0  0  0  0
   -4.6000   24.4520  -30.6250 C   0  0  0  0  0  0  0  0  0  0  0  0
   -5.9080   24.9150  -30.4340 C   0  0  0  0  0  0  0  0  0  0  0  0
   -6.9990   24.1420  -30.8410 C   0  0  0  0  0  0  0  0  0  0  0  0
   -6.7900   22.8990  -31.4400 C   0  0  0  0  0  0  0  0  0  0  0  0
   -5.4880   22.4160  -31.6300 C   0  0  0  0  0  0  0  0  0  0  0  0
   -5.2190   20.8440  -32.3940 S   0  0  0  0  0  0  0  0  0  0  0  0
   -4.1700   20.9890  -33.4620 O   0  0  0  0  0  0  0  0  0  0  0  0
   -4.6950   19.8810  -31.3610 O   0  0  0  0  0  0  0  0  0  0  0  0
   -6.6740   20.2040  -33.1340 N   0  0  0  0  0  0  0  0  0  0  0  0
   -6.4370   18.9250  -33.8190 C   0  0  0  0  0  0  0  0  0  0  0  0
   -7.1980   17.8260  -33.0850 C   0  0  0  0  0  0  0  0  0  0  0  0
   -7.7890   18.4830  -31.8570 C   0  0  0  0  0  0  0  0  0  0  0  0
   -7.7230   19.9730  -32.1340 C   0  0  0  0  0  0  0  0  0  0  0  0
   -4.3970   23.1910  -31.2150 C   0  0  0  0  0  0  0  0  0  0  0  0
   -2.4724   24.0479  -27.2035 H   0  0  0  0  0  0  0  0  0  0  0  0
   -3.9479   23.6509  -28.1582 H   0  0  0  0  0  0  0  0  0  0  0  0
   -1.4958   23.4164  -30.5383 H   0  0  0  0  0  0  0  0  0  0  0  0
   -0.3792   21.3330  -31.3235 H   0  0  0  0  0  0  0  0  0  0  0  0
   -2.7884   21.3706  -26.9426 H   0  0  0  0  0  0  0  0  0  0  0  0
   -1.9168   19.1852  -26.4791 H   0  0  0  0  0  0  0  0  0  0  0  0
   -2.2915   18.2232  -27.9539 H   0  0  0  0  0  0  0  0  0  0  0  0
    0.4387   18.9511  -26.8026 H   0  0  0  0  0  0  0  0  0  0  0  0
   -0.3001   17.3018  -27.1101 H   0  0  0  0  0  0  0  0  0  0  0  0
    1.4920   18.7468  -28.7716 H   0  0  0  0  0  0  0  0  0  0  0  0
    0.5813   17.1844  -29.1004 H   0  0  0  0  0  0  0  0  0  0  0  0
    0.4380   19.1376  -30.8287 H   0  0  0  0  0  0  0  0  0  0  0  0
   -1.0444   18.2218  -30.3493 H   0  0  0  0  0  0  0  0  0  0  0  0
   -6.0777   25.8933  -29.9606 H   0  0  0  0  0  0  0  0  0  0  0  0
   -8.0231   24.5137  -30.6891 H   0  0  0  0  0  0  0  0  0  0  0  0
   -7.6507   22.2957  -31.7644 H   0  0  0  0  0  0  0  0  0  0  0  0
   -6.7927   18.9905  -34.8578 H   0  0  0  0  0  0  0  0  0  0  0  0
   -5.3610   18.6965  -33.8221 H   0  0  0  0  0  0  0  0  0  0  0  0
   -7.9962   17.4205  -33.7240 H   0  0  0  0  0  0  0  0  0  0  0  0
   -6.5391   16.9868  -32.8175 H   0  0  0  0  0  0  0  0  0  0  0  0
   -8.8315   18.1632  -31.7121 H   0  0  0  0  0  0  0  0  0  0  0  0
   -7.2439   18.2100  -30.9414 H   0  0  0  0  0  0  0  0  0  0  0  0
   -8.6911   20.3237  -32.5211 H   0  0  0  0  0  0  0  0  0  0  0  0
   -7.4960   20.5232  -31.2090 H   0  0  0  0  0  0  0  0  0  0  0  0
   -3.3739   22.8106  -31.3515 H   0  0  0  0  0  0  0  0  0  0  0  0
  1  2  2  0
  2  3  1  0
  3  4  1  0
  4  5  2  0
  5  6  1  0
  6  7  2  0
  7  8  1  0
  8  9  2  0
  8 10  1  0
 10 11  1  0
 11 12  1  0
 12 13  1  0
  2 14  1  0
 14 15  1  0
 15 16  2  0
 16 17  1  0
 17 18  2  0
 18 19  1  0
 19 20  1  0
 20 21  2  0
 20 22  2  0
 20 23  1  0
 23 24  1  0
 24 25  1  0
 25 26  1  0
 26 27  1  0
 19 28  2  0
  9  4  1  0
 28 15  1  0
 13  7  1  0
 27 23  1  0
  3 29  1  0
  3 30  1  0
  5 31  1  0
  6 32  1  0
  9 33  1  0
 10 34  1  0
 10 35  1  0
 11 36  1  0
 11 37  1  0
 12 38  1  0
 12 39  1  0
 13 40  1  0
 13 41  1  0
 16 42  1  0
 17 43  1  0
 18 44  1  0
 24 45  1  0
 24 46  1  0
 25 47  1  0
 25 48  1  0
 26 49  1  0
 26 50  1  0
 27 51  1  0
 27 52  1  0
 28 53  1  0
M  CHG  1  14  -1
M  END
>  <UniqueID>  (30) 
27

>  <SMILES>  (30) 
O=C(Cc1ccc2c(c1)CCCC2)[N-]c1cccc(S(=O)(=O)N2CCCC2)c1

>  <Energy>  (30) 
59.697743058767216

>  <Genealogy>  (30) 
O=C(Cc1ccc2c(c1)CCCC2)[N-]c1cccc(S(=O)(=O)N2CCCC2)c1 (protonated)
O=C(Cc1ccc2c(c1)CCCC2)[N-]c1cccc(S(=O)(=O)N2CCCC2)c1 (3D coordinates assigned)
O=C(Cc1ccc2c(c1)CCCC2)[N-]c1cccc(S(=O)(=O)N2CCCC2)c1 (nonaromatic ring conformer: 59.697743058767216 kcal/mol)

>  <smiles>  (30) 
O=C(Cc1ccc2c(c1)CCCC2)Nc1cccc(S(=O)(=O)N2CCCC2)c1

>  <score_type>  (30) 
oracle

>  <origin>  (30) 
adgpu

>  <m_score__min__energy>  (30) 
-12.33

>  <m_primary>  (30) 
energy

$$$$
30:0
     RDKit          3D

 56 60  0  0  0  0  0  0  0  0999 V2000
   -5.7860   26.1600  -31.2220 O   0  0  0  0  0  0  0  0  0  0  0  0
   -5.2800   24.9900  -30.4240 S   0  0  0  0  0  0  0  0  0  0  0  0
   -5.7840   25.0880  -29.0120 O   0  0  0  0  0  0  0  0  0  0  0  0
   -3.5400   25.0080  -30.4080 N   0  0  0  0  0  0  0  0  0  0  0  0
   -2.7600   24.3140  -29.4240 C   0  0  0  0  0  0  0  0  0  0  0  0
   -3.1070   23.0230  -28.9970 C   0  0  0  0  0  0  0  0  0  0  0  0
   -2.2360   22.2780  -28.1910 C   0  0  0  0  0  0  0  0  0  0  0  0
   -1.0110   22.8420  -27.7860 C   0  0  0  0  0  0  0  0  0  0  0  0
   -0.7150   24.1680  -28.1300 C   0  0  0  0  0  0  0  0  0  0  0  0
   -1.5770   24.8970  -28.9530 C   0  0  0  0  0  0  0  0  0  0  0  0
   -1.2380   26.1910  -29.3310 O   0  0  0  0  0  0  0  0  0  0  0  0
   -0.0480   22.0560  -26.9310 C   0  0  0  0  0  0  0  0  0  0  0  0
   -0.2320   20.6080  -27.0910 N   0  0  0  0  0  0  0  0  0  0  0  0
   -1.6270   20.2360  -26.8280 C   0  0  0  0  0  0  0  0  0  0  0  0
   -2.5710   20.8430  -27.8760 C   0  0  0  0  0  0  0  0  0  0  0  0
   -5.8370   23.4960  -31.1770 C   0  0  0  0  0  0  0  0  0  0  0  0
   -7.0510   22.9120  -30.7880 C   0  0  0  0  0  0  0  0  0  0  0  0
   -7.3790   21.6200  -31.2100 C   0  0  0  0  0  0  0  0  0  0  0  0
   -6.4880   20.8940  -32.0130 C   0  0  0  0  0  0  0  0  0  0  0  0
   -6.7630   19.5650  -32.3680 C   0  0  0  0  0  0  0  0  0  0  0  0
   -5.8440   18.8330  -33.1310 C   0  0  0  0  0  0  0  0  0  0  0  0
   -6.1850   17.1540  -33.5370 S   0  0  0  0  0  0  0  0  0  0  0  0
   -7.3890   16.6800  -32.7720 O   0  0  0  0  0  0  0  0  0  0  0  0
   -6.4850   17.0600  -35.0060 O   0  0  0  0  0  0  0  0  0  0  0  0
   -4.7960   16.1680  -33.1640 N   0  0  0  0  0  0  0  0  0  0  0  0
   -4.9840   15.4440  -31.9100 C   0  0  0  0  0  0  0  0  0  0  0  0
   -4.1490   14.1760  -32.0100 C   0  0  0  0  0  0  0  0  0  0  0  0
   -3.8570   13.9970  -33.4900 C   0  0  0  0  0  0  0  0  0  0  0  0
   -4.5840   15.1380  -34.1820 C   0  0  0  0  0  0  0  0  0  0  0  0
   -4.6630   19.4430  -33.5740 C   0  0  0  0  0  0  0  0  0  0  0  0
   -4.3830   20.7670  -33.2320 C   0  0  0  0  0  0  0  0  0  0  0  0
   -5.2830   21.4970  -32.4430 C   0  0  0  0  0  0  0  0  0  0  0  0
   -4.9770   22.8030  -32.0400 C   0  0  0  0  0  0  0  0  0  0  0  0
   -4.0729   22.5914  -29.2982 H   0  0  0  0  0  0  0  0  0  0  0  0
    0.2034   24.6385  -27.7489 H   0  0  0  0  0  0  0  0  0  0  0  0
    0.9804   22.3182  -27.2203 H   0  0  0  0  0  0  0  0  0  0  0  0
   -0.2401   22.3104  -25.8782 H   0  0  0  0  0  0  0  0  0  0  0  0
    0.0140   20.3410  -28.0750 H   0  0  0  0  0  0  0  0  0  0  0  0
   -1.7174   19.1401  -26.8557 H   0  0  0  0  0  0  0  0  0  0  0  0
   -1.9101   20.6238  -25.8383 H   0  0  0  0  0  0  0  0  0  0  0  0
   -2.4979   20.2523  -28.8011 H   0  0  0  0  0  0  0  0  0  0  0  0
   -3.5897   20.8205  -27.4616 H   0  0  0  0  0  0  0  0  0  0  0  0
   -7.7483   23.4727  -30.1481 H   0  0  0  0  0  0  0  0  0  0  0  0
   -8.3383   21.1721  -30.9113 H   0  0  0  0  0  0  0  0  0  0  0  0
   -7.7043   19.0957  -32.0459 H   0  0  0  0  0  0  0  0  0  0  0  0
   -4.6427   16.0572  -31.0630 H   0  0  0  0  0  0  0  0  0  0  0  0
   -6.0454   15.2077  -31.7440 H   0  0  0  0  0  0  0  0  0  0  0  0
   -3.2123   14.2871  -31.4442 H   0  0  0  0  0  0  0  0  0  0  0  0
   -4.6761   13.3065  -31.5903 H   0  0  0  0  0  0  0  0  0  0  0  0
   -2.7752   14.0579  -33.6796 H   0  0  0  0  0  0  0  0  0  0  0  0
   -4.1894   13.0152  -33.8582 H   0  0  0  0  0  0  0  0  0  0  0  0
   -3.9720   15.5361  -35.0048 H   0  0  0  0  0  0  0  0  0  0  0  0
   -5.5378   14.8006  -34.6138 H   0  0  0  0  0  0  0  0  0  0  0  0
   -3.9532   18.8759  -34.1942 H   0  0  0  0  0  0  0  0  0  0  0  0
   -3.4534   21.2390  -33.5826 H   0  0  0  0  0  0  0  0  0  0  0  0
   -4.0579   23.2868  -32.4023 H   0  0  0  0  0  0  0  0  0  0  0  0
  1  2  2  0
  2  3  2  0
  2  4  1  0
  4  5  1  0
  5  6  2  0
  6  7  1  0
  7  8  2  0
  8  9  1  0
  9 10  2  0
 10 11  1  0
  8 12  1  0
 12 13  1  0
 13 14  1  0
 14 15  1  0
  2 16  1  0
 16 17  2  0
 17 18  1  0
 18 19  2  0
 19 20  1  0
 20 21  2  0
 21 22  1  0
 22 23  2  0
 22 24  2  0
 22 25  1  0
 25 26  1  0
 26 27  1  0
 27 28  1  0
 28 29  1  0
 21 30  1  0
 30 31  2  0
 31 32  1  0
 32 33  2  0
 10  5  1  0
 33 16  1  0
 15  7  1  0
 32 19  1  0
 29 25  1  0
  6 34  1  0
  9 35  1  0
 12 36  1  0
 12 37  1  0
 13 38  1  0
 14 39  1  0
 14 40  1  0
 15 41  1  0
 15 42  1  0
 17 43  1  0
 18 44  1  0
 20 45  1  0
 26 46  1  0
 26 47  1  0
 27 48  1  0
 27 49  1  0
 28 50  1  0
 28 51  1  0
 29 52  1  0
 29 53  1  0
 30 54  1  0
 31 55  1  0
 33 56  1  0
M  CHG  2   4  -1  11  -1
M  END
>  <UniqueID>  (31) 
28

>  <SMILES>  (31) 
O=S(=O)([N-]c1cc2c(cc1[O-])CNCC2)c1ccc2cc(S(=O)(=O)N3CCCC3)ccc2c1

>  <Energy>  (31) 
70.63965911360361

>  <Genealogy>  (31) 
O=S(=O)([N-]c1cc2c(cc1[O-])CNCC2)c1ccc2cc(S(=O)(=O)N3CCCC3)ccc2c1 (protonated)
O=S(=O)([N-]c1cc2c(cc1[O-])CNCC2)c1ccc2cc(S(=O)(=O)N3CCCC3)ccc2c1 (3D coordinates assigned)
O=S(=O)([N-]c1cc2c(cc1[O-])CNCC2)c1ccc2cc(S(=O)(=O)N3CCCC3)ccc2c1 (nonaromatic ring conformer: 70.63965911360361 kcal/mol)

>  <smiles>  (31) 
O=S(=O)(Nc1cc2c(cc1O)CNCC2)c1ccc2cc(S(=O)(=O)N3CCCC3)ccc2c1

>  <score_type>  (31) 
oracle

>  <origin>  (31) 
adgpu

>  <m_score__min__energy>  (31) 
-15.789999999999999

>  <m_primary>  (31) 
energy

$$$$
31:0
     RDKit          3D

 69 73  0  0  0  0  0  0  0  0999 V2000
   -6.0260   16.8510  -32.0690 C   0  0  0  0  0  0  0  0  0  0  0  0
   -7.0040   17.9570  -32.3470 C   0  0  0  0  0  0  0  0  0  0  0  0
   -8.2830   17.9110  -31.7630 C   0  0  0  0  0  0  0  0  0  0  0  0
   -9.2130   18.9210  -32.0110 C   0  0  0  0  0  0  0  0  0  0  0  0
   -8.8840   19.9830  -32.8530 C   0  0  0  0  0  0  0  0  0  0  0  0
   -7.6220   20.0390  -33.4470 C   0  0  0  0  0  0  0  0  0  0  0  0
   -6.6680   19.0320  -33.2030 C   0  0  0  0  0  0  0  0  0  0  0  0
   -5.3810   19.0820  -33.8450 N   0  0  0  0  0  0  0  0  0  0  0  0
   -4.1390   19.3690  -33.1170 C   0  0  1  0  0  0  0  0  0  0  0  0
   -2.9730   19.4240  -34.1210 C   0  0  0  0  0  0  0  0  0  0  0  0
   -1.6660   19.9260  -33.4580 C   0  0  0  0  0  0  0  0  0  0  0  0
   -1.1290   18.9050  -32.4350 C   0  0  0  0  0  0  0  0  0  0  0  0
   -0.6040   20.1620  -34.5420 C   0  0  0  0  0  0  0  0  0  0  0  0
   -1.9050   21.1710  -32.7930 O   0  0  0  0  0  0  0  0  0  0  0  0
   -3.1290   21.4980  -32.1920 C   0  0  0  0  0  0  0  0  0  0  0  0
   -3.2220   22.6770  -31.4460 C   0  0  0  0  0  0  0  0  0  0  0  0
   -4.4330   23.0400  -30.8400 C   0  0  0  0  0  0  0  0  0  0  0  0
   -4.5500   24.5520  -29.9460 S   0  0  0  0  0  0  0  0  0  0  0  0
   -5.9950   24.9050  -29.7340 O   0  0  0  0  0  0  0  0  0  0  0  0
   -3.9070   25.6550  -30.7400 O   0  0  0  0  0  0  0  0  0  0  0  0
   -3.7590   24.4300  -28.4090 N   0  0  0  0  0  0  0  0  0  0  0  0
   -2.4330   23.9090  -28.2910 C   0  0  0  0  0  0  0  0  0  0  0  0
   -2.2280   22.5590  -27.9740 C   0  0  0  0  0  0  0  0  0  0  0  0
   -0.9270   22.0550  -27.8070 C   0  0  0  0  0  0  0  0  0  0  0  0
   -0.7220   20.6660  -27.4840 N   0  0  0  0  0  0  0  0  0  0  0  0
   -1.6540   20.0010  -26.5590 C   0  0  0  0  0  0  0  0  0  0  0  0
   -1.6720   18.4650  -26.7360 C   0  0  0  0  0  0  0  0  0  0  0  0
   -0.9150   18.0310  -27.8480 O   0  0  0  0  0  0  0  0  0  0  0  0
    0.4140   18.4790  -27.7050 C   0  0  0  0  0  0  0  0  0  0  0  0
    0.4780   19.9770  -27.9850 C   0  0  0  0  0  0  0  0  0  0  0  0
    0.1700   22.9120  -27.9970 C   0  0  0  0  0  0  0  0  0  0  0  0
   -0.0320   24.2470  -28.3580 C   0  0  0  0  0  0  0  0  0  0  0  0
   -1.3320   24.7490  -28.5110 C   0  0  0  0  0  0  0  0  0  0  0  0
   -1.5340   26.0810  -28.8720 O   0  0  0  0  0  0  0  0  0  0  0  0
   -5.5480   22.2010  -30.9650 C   0  0  0  0  0  0  0  0  0  0  0  0
   -5.4570   21.0140  -31.6980 C   0  0  0  0  0  0  0  0  0  0  0  0
   -4.2550   20.6660  -32.3430 C   0  0  0  0  0  0  0  0  0  0  0  0
   -5.9144   16.7248  -30.9820 H   0  0  0  0  0  0  0  0  0  0  0  0
   -6.3966   15.9142  -32.5107 H   0  0  0  0  0  0  0  0  0  0  0  0
   -5.0509   17.1041  -32.5107 H   0  0  0  0  0  0  0  0  0  0  0  0
   -8.5522   17.0715  -31.1052 H   0  0  0  0  0  0  0  0  0  0  0  0
  -10.2071   18.8796  -31.5418 H   0  0  0  0  0  0  0  0  0  0  0  0
   -9.6195   20.7771  -33.0492 H   0  0  0  0  0  0  0  0  0  0  0  0
   -7.3701   20.8780  -34.1123 H   0  0  0  0  0  0  0  0  0  0  0  0
   -5.3000   18.7840  -34.8440 H   0  0  0  0  0  0  0  0  0  0  0  0
   -3.9492   18.5695  -32.3857 H   0  0  0  0  0  0  0  0  0  0  0  0
   -2.8027   18.4150  -34.5245 H   0  0  0  0  0  0  0  0  0  0  0  0
   -3.2434   20.1292  -34.9207 H   0  0  0  0  0  0  0  0  0  0  0  0
   -1.3216   19.2712  -31.4158 H   0  0  0  0  0  0  0  0  0  0  0  0
   -1.6360   17.9396  -32.5797 H   0  0  0  0  0  0  0  0  0  0  0  0
   -0.0462   18.7758  -32.5797 H   0  0  0  0  0  0  0  0  0  0  0  0
    0.3641   20.3771  -34.0662 H   0  0  0  0  0  0  0  0  0  0  0  0
   -0.5129   19.2622  -35.1681 H   0  0  0  0  0  0  0  0  0  0  0  0
   -0.9026   21.0157  -35.1681 H   0  0  0  0  0  0  0  0  0  0  0  0
   -2.3394   23.3238  -31.3339 H   0  0  0  0  0  0  0  0  0  0  0  0
   -3.0923   21.8890  -27.8551 H   0  0  0  0  0  0  0  0  0  0  0  0
   -1.3521   20.2333  -25.5271 H   0  0  0  0  0  0  0  0  0  0  0  0
   -2.6652   20.3738  -26.7793 H   0  0  0  0  0  0  0  0  0  0  0  0
   -1.2588   18.0021  -25.8277 H   0  0  0  0  0  0  0  0  0  0  0  0
   -2.7159   18.1647  -26.9096 H   0  0  0  0  0  0  0  0  0  0  0  0
    0.7589   18.2826  -26.6791 H   0  0  0  0  0  0  0  0  0  0  0  0
    1.0599   17.9447  -28.4173 H   0  0  0  0  0  0  0  0  0  0  0  0
    1.3656   20.3967  -27.4890 H   0  0  0  0  0  0  0  0  0  0  0  0
    0.5344   20.1248  -29.0736 H   0  0  0  0  0  0  0  0  0  0  0  0
    1.1927   22.5305  -27.8610 H   0  0  0  0  0  0  0  0  0  0  0  0
    0.8327   24.9066  -28.5228 H   0  0  0  0  0  0  0  0  0  0  0  0
   -2.4670   26.4680  -28.9680 H   0  0  0  0  0  0  0  0  0  0  0  0
   -6.4983   22.4771  -30.4848 H   0  0  0  0  0  0  0  0  0  0  0  0
   -6.3295   20.3482  -31.7712 H   0  0  0  0  0  0  0  0  0  0  0  0
  1  2  1  0
  2  3  2  0
  3  4  1  0
  4  5  2  0
  5  6  1  0
  6  7  2  0
  7  8  1  0
  8  9  1  0
  9 10  1  0
 10 11  1  0
 11 12  1  0
 11 13  1  0
 11 14  1  0
 14 15  1  0
 15 16  2  0
 16 17  1  0
 17 18  1  0
 18 19  2  0
 18 20  2  0
 18 21  1  0
 21 22  1  0
 22 23  2  0
 23 24  1  0
 24 25  1  0
 25 26  1  0
 26 27  1  0
 27 28  1  0
 28 29  1  0
 29 30  1  0
 24 31  2  0
 31 32  1  0
 32 33  2  0
 33 34  1  0
 17 35  2  0
 35 36  1  0
 36 37  2  0
  7  2  1  0
 37  9  1  0
 37 15  1  0
 33 22  1  0
 30 25  1  0
  1 38  1  0
  1 39  1  0
  1 40  1  0
  3 41  1  0
  4 42  1  0
  5 43  1  0
  6 44  1  0
  8 45  1  0
  9 46  1  1
 10 47  1  0
 10 48  1  0
 12 49  1  0
 12 50  1  0
 12 51  1  0
 13 52  1  0
 13 53  1  0
 13 54  1  0
 16 55  1  0
 23 56  1  0
 26 57  1  0
 26 58  1  0
 27 59  1  0
 27 60  1  0
 29 61  1  0
 29 62  1  0
 30 63  1  0
 30 64  1  0
 31 65  1  0
 32 66  1  0
 34 67  1  0
 35 68  1  0
 36 69  1  0
M  CHG  1  21  -1
M  END
>  <UniqueID>  (32) 
29

>  <SMILES>  (32) 
Cc1ccccc1N[C@H]1CC(C)(C)Oc2cc(S(=O)(=O)[N-]c3cc(N4CCOCC4)ccc3O)ccc21

>  <Energy>  (32) 
89.99571841567023

>  <Genealogy>  (32) 
Cc1ccccc1NC1CC(C)(C)Oc2cc(S(=O)(=O)[N-]c3cc(N4CCOCC4)ccc3O)ccc21 (protonated)
Cc1ccccc1N[C@H]1CC(C)(C)Oc2cc(S(=O)(=O)[N-]c3cc(N4CCOCC4)ccc3O)ccc21 (chirality)
Cc1ccccc1N[C@H]1CC(C)(C)Oc2cc(S(=O)(=O)[N-]c3cc(N4CCOCC4)ccc3O)ccc21 (3D coordinates assigned)
Cc1ccccc1N[C@H]1CC(C)(C)Oc2cc(S(=O)(=O)[N-]c3cc(N4CCOCC4)ccc3O)ccc21 (nonaromatic ring conformer: 89.99571841567023 kcal/mol)

>  <smiles>  (32) 
Cc1ccccc1NC1CC(C)(C)Oc2cc(S(=O)(=O)Nc3cc(N4CCOCC4)ccc3O)ccc21

>  <score_type>  (32) 
oracle

>  <origin>  (32) 
adgpu

>  <m_score__min__energy>  (32) 
-13.6

>  <m_primary>  (32) 
energy

$$$$
32:0
     RDKit          3D

 68 72  0  0  0  0  0  0  0  0999 V2000
   -1.1540   23.4500  -28.5240 C   0  0  0  0  0  0  0  0  0  0  0  0
   -0.7750   22.4570  -29.5400 N   0  0  0  0  0  0  0  0  0  0  0  0
   -1.8030   22.3920  -30.5940 C   0  0  0  0  0  0  0  0  0  0  0  0
   -1.2900   21.5400  -31.7570 C   0  0  0  0  0  0  0  0  0  0  0  0
   -0.7180   20.2310  -31.2780 C   0  0  0  0  0  0  0  0  0  0  0  0
   -0.4990   19.1980  -32.2010 C   0  0  0  0  0  0  0  0  0  0  0  0
    0.0430   17.9680  -31.7890 C   0  0  0  0  0  0  0  0  0  0  0  0
    0.2150   16.8880  -32.7240 N   0  0  0  0  0  0  0  0  0  0  0  0
   -0.6580   16.8130  -34.2220 S   0  0  0  0  0  0  0  0  0  0  0  0
   -0.6630   15.3990  -34.7280 O   0  0  0  0  0  0  0  0  0  0  0  0
    0.0140   17.6890  -35.2440 O   0  0  0  0  0  0  0  0  0  0  0  0
   -2.3210   17.3240  -33.9480 C   0  0  0  0  0  0  0  0  0  0  0  0
   -2.8040   18.5180  -34.4980 C   0  0  0  0  0  0  0  0  0  0  0  0
   -4.1100   18.9390  -34.2330 C   0  0  0  0  0  0  0  0  0  0  0  0
   -4.9610   18.1660  -33.4180 C   0  0  0  0  0  0  0  0  0  0  0  0
   -4.4590   16.9770  -32.8480 C   0  0  0  0  0  0  0  0  0  0  0  0
   -3.1500   16.5570  -33.1220 C   0  0  0  0  0  0  0  0  0  0  0  0
   -5.3620   16.1560  -31.9650 C   0  0  0  0  0  0  0  0  0  0  0  0
   -6.1350   17.0520  -30.9780 C   0  0  0  0  0  0  0  0  0  0  0  0
   -6.6240   18.3990  -31.5740 C   0  0  0  0  0  0  0  0  0  0  0  0
   -6.4100   18.5230  -33.1010 C   0  0  1  0  0  0  0  0  0  0  0  0
   -6.8950   19.9160  -33.5860 C   0  0  0  0  0  0  0  0  0  0  0  0
   -6.4230   21.0670  -32.7210 C   0  0  0  0  0  0  0  0  0  0  0  0
   -5.0770   21.4780  -32.7360 C   0  0  0  0  0  0  0  0  0  0  0  0
   -4.6570   22.5600  -31.9580 C   0  0  0  0  0  0  0  0  0  0  0  0
   -5.5800   23.2690  -31.1780 C   0  0  0  0  0  0  0  0  0  0  0  0
   -5.0510   24.6200  -30.1800 S   0  0  0  0  0  0  0  0  0  0  0  0
   -4.5840   24.0170  -28.5740 C   0  0  0  0  0  0  0  0  0  0  0  0
   -3.8730   25.3020  -30.8170 O   0  0  0  0  0  0  0  0  0  0  0  0
   -6.1690   25.6150  -30.0410 O   0  0  0  0  0  0  0  0  0  0  0  0
   -6.9280   22.8890  -31.1850 C   0  0  0  0  0  0  0  0  0  0  0  0
   -7.3490   21.8060  -31.9620 C   0  0  0  0  0  0  0  0  0  0  0  0
    0.4120   17.7980  -30.4440 C   0  0  0  0  0  0  0  0  0  0  0  0
    0.9510   16.5930  -30.0060 O   0  0  0  0  0  0  0  0  0  0  0  0
    0.2240   18.8360  -29.5260 C   0  0  0  0  0  0  0  0  0  0  0  0
   -0.3290   20.0580  -29.9340 C   0  0  0  0  0  0  0  0  0  0  0  0
   -0.6080   21.1320  -28.9090 C   0  0  0  0  0  0  0  0  0  0  0  0
   -0.9930   23.0281  -27.5210 H   0  0  0  0  0  0  0  0  0  0  0  0
   -0.5372   24.3526  -28.6455 H   0  0  0  0  0  0  0  0  0  0  0  0
   -2.2154   23.7121  -28.6455 H   0  0  0  0  0  0  0  0  0  0  0  0
   -2.7189   21.9405  -30.1851 H   0  0  0  0  0  0  0  0  0  0  0  0
   -2.0232   23.4079  -30.9537 H   0  0  0  0  0  0  0  0  0  0  0  0
   -2.1244   21.3346  -32.4438 H   0  0  0  0  0  0  0  0  0  0  0  0
   -0.4901   22.0987  -32.2651 H   0  0  0  0  0  0  0  0  0  0  0  0
   -0.7543   19.3520  -33.2598 H   0  0  0  0  0  0  0  0  0  0  0  0
    0.7230   16.0260  -32.4270 H   0  0  0  0  0  0  0  0  0  0  0  0
   -2.1524   19.1273  -35.1416 H   0  0  0  0  0  0  0  0  0  0  0  0
   -4.4769   19.8820  -34.6644 H   0  0  0  0  0  0  0  0  0  0  0  0
   -2.7729   15.6203  -32.6857 H   0  0  0  0  0  0  0  0  0  0  0  0
   -6.0809   15.6106  -32.5941 H   0  0  0  0  0  0  0  0  0  0  0  0
   -4.7427   15.4532  -31.3883 H   0  0  0  0  0  0  0  0  0  0  0  0
   -7.0146   16.4938  -30.6247 H   0  0  0  0  0  0  0  0  0  0  0  0
   -5.4317   17.3055  -30.1711 H   0  0  0  0  0  0  0  0  0  0  0  0
   -7.6994   18.4999  -31.3656 H   0  0  0  0  0  0  0  0  0  0  0  0
   -6.0262   19.1928  -31.1022 H   0  0  0  0  0  0  0  0  0  0  0  0
   -7.0211   17.8092  -33.6728 H   0  0  0  0  0  0  0  0  0  0  0  0
   -6.5220   20.0757  -34.6084 H   0  0  0  0  0  0  0  0  0  0  0  0
   -7.9937   19.9072  -33.5333 H   0  0  0  0  0  0  0  0  0  0  0  0
   -4.3501   20.9433  -33.3650 H   0  0  0  0  0  0  0  0  0  0  0  0
   -3.5977   22.8563  -31.9579 H   0  0  0  0  0  0  0  0  0  0  0  0
   -5.0613   24.6333  -27.7979 H   0  0  0  0  0  0  0  0  0  0  0  0
   -4.9110   22.9724  -28.4652 H   0  0  0  0  0  0  0  0  0  0  0  0
   -3.4908   24.0722  -28.4652 H   0  0  0  0  0  0  0  0  0  0  0  0
   -7.6575   23.4444  -30.5773 H   0  0  0  0  0  0  0  0  0  0  0  0
   -8.4134   21.5291  -31.9802 H   0  0  0  0  0  0  0  0  0  0  0  0
    0.5126   18.6924  -28.4743 H   0  0  0  0  0  0  0  0  0  0  0  0
   -1.5301   20.8764  -28.3664 H   0  0  0  0  0  0  0  0  0  0  0  0
    0.2505   21.1838  -28.2232 H   0  0  0  0  0  0  0  0  0  0  0  0
  1  2  1  0
  2  3  1  0
  3  4  1  0
  4  5  1  0
  5  6  2  0
  6  7  1  0
  7  8  1  0
  8  9  1  0
  9 10  2  0
  9 11  2  0
  9 12  1  0
 12 13  2  0
 13 14  1  0
 14 15  2  0
 15 16  1  0
 16 17  2  0
 16 18  1  0
 18 19  1  0
 19 20  1  0
 20 21  1  0
 21 22  1  0
 22 23  1  0
 23 24  2  0
 24 25  1  0
 25 26  2  0
 26 27  1  0
 27 28  1  0
 27 29  2  0
 27 30  2  0
 26 31  1  0
 31 32  2  0
  7 33  2  0
 33 34  1  0
 33 35  1  0
 35 36  2  0
 36 37  1  0
 37  2  1  0
 36  5  1  0
 17 12  1  0
 32 23  1  0
 21 15  1  0
  1 38  1  0
  1 39  1  0
  1 40  1  0
  3 41  1  0
  3 42  1  0
  4 43  1  0
  4 44  1  0
  6 45  1  0
  8 46  1  0
 13 47  1  0
 14 48  1  0
 17 49  1  0
 18 50  1  0
 18 51  1  0
 19 52  1  0
 19 53  1  0
 20 54  1  0
 20 55  1  0
 21 56  1  6
 22 57  1  0
 22 58  1  0
 24 59  1  0
 25 60  1  0
 28 61  1  0
 28 62  1  0
 28 63  1  0
 31 64  1  0
 32 65  1  0
 35 66  1  0
 37 67  1  0
 37 68  1  0
M  CHG  1  34  -1
M  END
>  <UniqueID>  (33) 
30

>  <SMILES>  (33) 
CN1CCc2cc(NS(=O)(=O)c3ccc4c(c3)CCC[C@H]4Cc3ccc(S(C)(=O)=O)cc3)c([O-])cc2C1

>  <Energy>  (33) 
83.55886874646714

>  <Genealogy>  (33) 
CN1CCc2cc(NS(=O)(=O)c3ccc4c(c3)CCCC4Cc3ccc(S(C)(=O)=O)cc3)c([O-])cc2C1 (protonated)
CN1CCc2cc(NS(=O)(=O)c3ccc4c(c3)CCC[C@H]4Cc3ccc(S(C)(=O)=O)cc3)c([O-])cc2C1 (chirality)
CN1CCc2cc(NS(=O)(=O)c3ccc4c(c3)CCC[C@H]4Cc3ccc(S(C)(=O)=O)cc3)c([O-])cc2C1 (3D coordinates assigned)
CN1CCc2cc(NS(=O)(=O)c3ccc4c(c3)CCC[C@H]4Cc3ccc(S(C)(=O)=O)cc3)c([O-])cc2C1 (nonaromatic ring conformer: 83.55886874646714 kcal/mol)

>  <smiles>  (33) 
CN1CCc2cc(NS(=O)(=O)c3ccc4c(c3)CCCC4Cc3ccc(S(C)(=O)=O)cc3)c(O)cc2C1

>  <score_type>  (33) 
oracle

>  <origin>  (33) 
adgpu

>  <m_score__min__energy>  (33) 
-16.719999999999999

>  <m_primary>  (33) 
energy

$$$$
33:0
     RDKit          3D

 59 63  0  0  0  0  0  0  0  0999 V2000
   -1.8470   15.3310  -33.1630 C   0  0  0  0  0  0  0  0  0  0  0  0
   -3.0860   15.6130  -32.5260 O   0  0  0  0  0  0  0  0  0  0  0  0
   -4.2340   16.0900  -33.1840 C   0  0  0  0  0  0  0  0  0  0  0  0
   -5.2970   15.2250  -33.5150 C   0  0  0  0  0  0  0  0  0  0  0  0
   -6.4240   15.7090  -34.1700 C   0  0  0  0  0  0  0  0  0  0  0  0
   -6.5070   17.0590  -34.5070 C   0  0  0  0  0  0  0  0  0  0  0  0
   -5.4640   17.9300  -34.1890 C   0  0  0  0  0  0  0  0  0  0  0  0
   -4.3140   17.4640  -33.5210 C   0  0  0  0  0  0  0  0  0  0  0  0
   -3.2330   18.3530  -33.1400 N   0  0  0  0  0  0  0  0  0  0  0  0
   -2.9770   19.7150  -33.6340 C   0  0  2  0  0  0  0  0  0  0  0  0
   -1.5280   20.1850  -33.3720 C   0  0  0  0  0  0  0  0  0  0  0  0
   -1.6190   21.5580  -32.6750 C   0  0  0  0  0  0  0  0  0  0  0  0
   -3.0700   21.7410  -32.4190 C   0  0  0  0  0  0  0  0  0  0  0  0
   -3.6620   22.7460  -31.6530 C   0  0  0  0  0  0  0  0  0  0  0  0
   -5.0590   22.7340  -31.4810 C   0  0  0  0  0  0  0  0  0  0  0  0
   -5.8210   23.8460  -30.3500 S   0  0  0  0  0  0  0  0  0  0  0  0
   -6.7410   23.1050  -29.4230 O   0  0  0  0  0  0  0  0  0  0  0  0
   -6.6200   24.8670  -31.1060 O   0  0  0  0  0  0  0  0  0  0  0  0
   -4.5780   24.6450  -29.4450 N   0  0  0  0  0  0  0  0  0  0  0  0
   -3.5100   23.8790  -28.8780 C   0  0  0  0  0  0  0  0  0  0  0  0
   -3.7530   22.5840  -28.3960 C   0  0  0  0  0  0  0  0  0  0  0  0
   -2.7000   21.7840  -27.9350 C   0  0  0  0  0  0  0  0  0  0  0  0
   -1.3790   22.2810  -27.9790 C   0  0  0  0  0  0  0  0  0  0  0  0
   -1.1460   23.5940  -28.4150 C   0  0  0  0  0  0  0  0  0  0  0  0
   -2.2020   24.3890  -28.8670 C   0  0  0  0  0  0  0  0  0  0  0  0
   -1.9410   25.6730  -29.3330 O   0  0  0  0  0  0  0  0  0  0  0  0
   -0.2270   21.4450  -27.4700 C   0  0  0  0  0  0  0  0  0  0  0  0
   -0.5320   20.0040  -27.5020 N   0  0  0  0  0  0  0  0  0  0  0  0
   -1.7890   19.7290  -26.7880 C   0  0  0  0  0  0  0  0  0  0  0  0
   -2.9840   20.3640  -27.5100 C   0  0  0  0  0  0  0  0  0  0  0  0
   -5.8330   21.7390  -32.1130 C   0  0  0  0  0  0  0  0  0  0  0  0
   -5.2130   20.7240  -32.8540 C   0  0  0  0  0  0  0  0  0  0  0  0
   -3.8220   20.7310  -32.9640 C   0  0  0  0  0  0  0  0  0  0  0  0
   -1.0742   15.1551  -32.4002 H   0  0  0  0  0  0  0  0  0  0  0  0
   -1.9533   14.4341  -33.7909 H   0  0  0  0  0  0  0  0  0  0  0  0
   -1.5547   16.1856  -33.7909 H   0  0  0  0  0  0  0  0  0  0  0  0
   -5.2343   14.1585  -33.2529 H   0  0  0  0  0  0  0  0  0  0  0  0
   -7.2495   15.0270  -34.4220 H   0  0  0  0  0  0  0  0  0  0  0  0
   -7.3990   17.4397  -35.0261 H   0  0  0  0  0  0  0  0  0  0  0  0
   -5.5404   18.9926  -34.4629 H   0  0  0  0  0  0  0  0  0  0  0  0
   -2.5040   17.9820  -32.4890 H   0  0  0  0  0  0  0  0  0  0  0  0
   -3.1940   19.6430  -34.7100 H   0  0  0  0  0  0  0  0  0  0  0  0
   -1.0089   19.4650  -32.7223 H   0  0  0  0  0  0  0  0  0  0  0  0
   -0.9628   20.2588  -34.3128 H   0  0  0  0  0  0  0  0  0  0  0  0
   -1.0537   21.5547  -31.7314 H   0  0  0  0  0  0  0  0  0  0  0  0
   -1.1931   22.3688  -33.2842 H   0  0  0  0  0  0  0  0  0  0  0  0
   -3.0479   23.5335  -31.1918 H   0  0  0  0  0  0  0  0  0  0  0  0
   -4.4290   25.6640  -29.6310 H   0  0  0  0  0  0  0  0  0  0  0  0
   -4.7811   22.1931  -28.3800 H   0  0  0  0  0  0  0  0  0  0  0  0
   -0.1240   24.0005  -28.4008 H   0  0  0  0  0  0  0  0  0  0  0  0
    0.6547   21.6351  -28.0997 H   0  0  0  0  0  0  0  0  0  0  0  0
   -0.0387   21.7285  -26.4240 H   0  0  0  0  0  0  0  0  0  0  0  0
   -0.6320   19.7030  -28.5020 H   0  0  0  0  0  0  0  0  0  0  0  0
   -1.9398   18.6408  -26.7321 H   0  0  0  0  0  0  0  0  0  0  0  0
   -1.7199   20.1619  -25.7791 H   0  0  0  0  0  0  0  0  0  0  0  0
   -3.2175   19.7661  -28.4033 H   0  0  0  0  0  0  0  0  0  0  0  0
   -3.8323   20.3827  -26.8100 H   0  0  0  0  0  0  0  0  0  0  0  0
   -6.9292   21.7597  -32.0239 H   0  0  0  0  0  0  0  0  0  0  0  0
   -5.8105   19.9380  -33.3389 H   0  0  0  0  0  0  0  0  0  0  0  0
  1  2  1  0
  2  3  1  0
  3  4  2  0
  4  5  1  0
  5  6  2  0
  6  7  1  0
  7  8  2  0
  8  9  1  0
  9 10  1  0
 10 11  1  0
 11 12  1  0
 12 13  1  0
 13 14  2  0
 14 15  1  0
 15 16  1  0
 16 17  2  0
 16 18  2  0
 16 19  1  0
 19 20  1  0
 20 21  2  0
 21 22  1  0
 22 23  2  0
 23 24  1  0
 24 25  2  0
 25 26  1  0
 23 27  1  0
 27 28  1  0
 28 29  1  0
 29 30  1  0
 15 31  2  0
 31 32  1  0
 32 33  2  0
  8  3  1  0
 33 10  1  0
 33 13  1  0
 25 20  1  0
 30 22  1  0
  1 34  1  0
  1 35  1  0
  1 36  1  0
  4 37  1  0
  5 38  1  0
  6 39  1  0
  7 40  1  0
  9 41  1  0
 10 42  1  6
 11 43  1  0
 11 44  1  0
 12 45  1  0
 12 46  1  0
 14 47  1  0
 19 48  1  0
 21 49  1  0
 24 50  1  0
 27 51  1  0
 27 52  1  0
 28 53  1  0
 29 54  1  0
 29 55  1  0
 30 56  1  0
 30 57  1  0
 31 58  1  0
 32 59  1  0
M  CHG  1  26  -1
M  END
>  <UniqueID>  (34) 
31

>  <SMILES>  (34) 
COc1ccccc1N[C@@H]1CCc2cc(S(=O)(=O)Nc3cc4c(cc3[O-])CNCC4)ccc21

>  <Energy>  (34) 
79.37464406829146

>  <Genealogy>  (34) 
COc1ccccc1NC1CCc2cc(S(=O)(=O)Nc3cc4c(cc3[O-])CNCC4)ccc21 (protonated)
COc1ccccc1N[C@@H]1CCc2cc(S(=O)(=O)Nc3cc4c(cc3[O-])CNCC4)ccc21 (chirality)
COc1ccccc1N[C@@H]1CCc2cc(S(=O)(=O)Nc3cc4c(cc3[O-])CNCC4)ccc21 (3D coordinates assigned)
COc1ccccc1N[C@@H]1CCc2cc(S(=O)(=O)Nc3cc4c(cc3[O-])CNCC4)ccc21 (nonaromatic ring conformer: 79.37464406829146 kcal/mol)

>  <smiles>  (34) 
COc1ccccc1NC1CCc2cc(S(=O)(=O)Nc3cc4c(cc3O)CNCC4)ccc21

>  <score_type>  (34) 
oracle

>  <origin>  (34) 
adgpu

>  <m_score__min__energy>  (34) 
-15.68

>  <m_primary>  (34) 
energy

$$$$
34:0
     RDKit          3D

 58 60  0  0  0  0  0  0  0  0999 V2000
   -4.0730   24.5690  -26.8200 C   0  0  0  0  0  0  0  0  0  0  0  0
   -2.5760   24.8170  -26.6600 C   0  0  0  0  0  0  0  0  0  0  0  0
   -1.7840   23.7900  -27.3660 N   0  0  0  0  0  0  0  0  0  0  0  0
   -2.2380   22.4030  -27.1060 C   0  0  0  0  0  0  0  0  0  0  0  0
   -1.1140   21.4110  -26.7690 C   0  0  0  0  0  0  0  0  0  0  0  0
   -1.5720   24.1190  -29.0790 S   0  0  0  0  0  0  0  0  0  0  0  0
   -1.5090   25.6040  -29.3030 O   0  0  0  0  0  0  0  0  0  0  0  0
   -0.2550   23.5520  -29.5300 O   0  0  0  0  0  0  0  0  0  0  0  0
   -2.8560   23.4370  -30.0900 C   0  0  0  0  0  0  0  0  0  0  0  0
   -2.8560   22.0600  -30.3650 C   0  0  0  0  0  0  0  0  0  0  0  0
   -3.8680   21.4850  -31.1550 C   0  0  0  0  0  0  0  0  0  0  0  0
   -3.8870   20.0750  -31.4350 N   0  0  0  0  0  0  0  0  0  0  0  0
   -3.5590   19.5150  -32.7190 C   0  0  0  0  0  0  0  0  0  0  0  0
   -2.8510   20.1780  -33.5270 O   0  0  0  0  0  0  0  0  0  0  0  0
   -4.0010   18.1480  -33.0880 C   0  0  0  0  0  0  0  0  0  0  0  0
   -5.2610   17.6630  -32.6940 C   0  0  0  0  0  0  0  0  0  0  0  0
   -5.6710   16.3760  -33.0550 C   0  0  0  0  0  0  0  0  0  0  0  0
   -4.8350   15.5570  -33.8240 C   0  0  0  0  0  0  0  0  0  0  0  0
   -5.3630   13.9410  -34.2950 S   0  0  0  0  0  0  0  0  0  0  0  0
   -4.9650   13.6880  -35.7230 O   0  0  0  0  0  0  0  0  0  0  0  0
   -6.8630   13.8690  -34.2160 O   0  0  0  0  0  0  0  0  0  0  0  0
   -4.6720   12.6980  -33.2740 N   0  0  0  0  0  0  0  0  0  0  0  0
   -5.3550   12.6370  -31.9770 C   0  0  0  0  0  0  0  0  0  0  0  0
   -4.5280   13.4110  -30.9610 C   0  0  0  0  0  0  0  0  0  0  0  0
   -3.1760   13.6310  -31.6100 C   0  0  0  0  0  0  0  0  0  0  0  0
   -3.2620   12.9770  -32.9810 C   0  0  0  0  0  0  0  0  0  0  0  0
   -3.5800   16.0340  -34.2210 C   0  0  0  0  0  0  0  0  0  0  0  0
   -3.1670   17.3200  -33.8620 C   0  0  0  0  0  0  0  0  0  0  0  0
   -4.8490   22.3130  -31.7160 C   0  0  0  0  0  0  0  0  0  0  0  0
   -4.8440   23.6860  -31.4640 C   0  0  0  0  0  0  0  0  0  0  0  0
   -3.8550   24.2520  -30.6550 C   0  0  0  0  0  0  0  0  0  0  0  0
   -3.8720   25.6230  -30.4280 O   0  0  0  0  0  0  0  0  0  0  0  0
   -4.5400   24.4916  -25.8271 H   0  0  0  0  0  0  0  0  0  0  0  0
   -4.5259   25.4044  -27.3741 H   0  0  0  0  0  0  0  0  0  0  0  0
   -4.2323   23.6322  -27.3741 H   0  0  0  0  0  0  0  0  0  0  0  0
   -2.3303   25.8062  -27.0737 H   0  0  0  0  0  0  0  0  0  0  0  0
   -2.3288   24.7710  -25.5891 H   0  0  0  0  0  0  0  0  0  0  0  0
   -2.9401   22.4255  -26.2595 H   0  0  0  0  0  0  0  0  0  0  0  0
   -2.6967   22.0465  -28.0401 H   0  0  0  0  0  0  0  0  0  0  0  0
   -1.0163   21.3248  -25.6767 H   0  0  0  0  0  0  0  0  0  0  0  0
   -1.3548   20.4256  -27.1945 H   0  0  0  0  0  0  0  0  0  0  0  0
   -0.1662   21.7724  -27.1945 H   0  0  0  0  0  0  0  0  0  0  0  0
   -2.0560   21.4240  -29.9583 H   0  0  0  0  0  0  0  0  0  0  0  0
   -4.0250   19.4190  -30.6340 H   0  0  0  0  0  0  0  0  0  0  0  0
   -5.9291   18.3012  -32.0971 H   0  0  0  0  0  0  0  0  0  0  0  0
   -6.6553   16.0049  -32.7333 H   0  0  0  0  0  0  0  0  0  0  0  0
   -6.3550   13.0873  -32.0623 H   0  0  0  0  0  0  0  0  0  0  0  0
   -5.4641   11.5904  -31.6565 H   0  0  0  0  0  0  0  0  0  0  0  0
   -5.0053   14.3757  -30.7338 H   0  0  0  0  0  0  0  0  0  0  0  0
   -4.4368   12.8629  -30.0116 H   0  0  0  0  0  0  0  0  0  0  0  0
   -2.9704   14.7069  -31.7112 H   0  0  0  0  0  0  0  0  0  0  0  0
   -2.3630   13.2007  -31.0068 H   0  0  0  0  0  0  0  0  0  0  0  0
   -2.8517   13.6562  -33.7428 H   0  0  0  0  0  0  0  0  0  0  0  0
   -2.6821   12.0423  -32.9906 H   0  0  0  0  0  0  0  0  0  0  0  0
   -2.9153   15.3930  -34.8188 H   0  0  0  0  0  0  0  0  0  0  0  0
   -2.1825   17.6877  -34.1869 H   0  0  0  0  0  0  0  0  0  0  0  0
   -5.6283   21.8784  -32.3593 H   0  0  0  0  0  0  0  0  0  0  0  0
   -5.6227   24.3259  -31.9046 H   0  0  0  0  0  0  0  0  0  0  0  0
  1  2  1  0
  2  3  1  0
  3  4  1  0
  4  5  1  0
  3  6  1  0
  6  7  2  0
  6  8  2  0
  6  9  1  0
  9 10  2  0
 10 11  1  0
 11 12  1  0
 12 13  1  0
 13 14  2  0
 13 15  1  0
 15 16  2  0
 16 17  1  0
 17 18  2  0
 18 19  1  0
 19 20  2  0
 19 21  2  0
 19 22  1  0
 22 23  1  0
 23 24  1  0
 24 25  1  0
 25 26  1  0
 18 27  1  0
 27 28  2  0
 11 29  2  0
 29 30  1  0
 30 31  2  0
 31 32  1  0
 31  9  1  0
 28 15  1  0
 26 22  1  0
  1 33  1  0
  1 34  1  0
  1 35  1  0
  2 36  1  0
  2 37  1  0
  4 38  1  0
  4 39  1  0
  5 40  1  0
  5 41  1  0
  5 42  1  0
 10 43  1  0
 12 44  1  0
 16 45  1  0
 17 46  1  0
 23 47  1  0
 23 48  1  0
 24 49  1  0
 24 50  1  0
 25 51  1  0
 25 52  1  0
 26 53  1  0
 26 54  1  0
 27 55  1  0
 28 56  1  0
 29 57  1  0
 30 58  1  0
M  CHG  1  32  -1
M  END
>  <UniqueID>  (35) 
32

>  <SMILES>  (35) 
CCN(CC)S(=O)(=O)c1cc(NC(=O)c2ccc(S(=O)(=O)N3CCCC3)cc2)ccc1[O-]

>  <Energy>  (35) 
66.78726073487485

>  <Genealogy>  (35) 
CCN(CC)S(=O)(=O)c1cc(NC(=O)c2ccc(S(=O)(=O)N3CCCC3)cc2)ccc1[O-] (protonated)
CCN(CC)S(=O)(=O)c1cc(NC(=O)c2ccc(S(=O)(=O)N3CCCC3)cc2)ccc1[O-] (3D coordinates assigned)
CCN(CC)S(=O)(=O)c1cc(NC(=O)c2ccc(S(=O)(=O)N3CCCC3)cc2)ccc1[O-] (nonaromatic ring conformer: 66.78726073487485 kcal/mol)

>  <smiles>  (35) 
CCN(CC)S(=O)(=O)c1cc(NC(=O)c2ccc(S(=O)(=O)N3CCCC3)cc2)ccc1O

>  <score_type>  (35) 
oracle

>  <origin>  (35) 
adgpu

>  <m_score__min__energy>  (35) 
-11.07

>  <m_primary>  (35) 
energy

$$$$
35:0
     RDKit          3D

 57 60  0  0  0  0  0  0  0  0999 V2000
    0.2140   25.3070  -25.5160 C   0  0  0  0  0  0  0  0  0  0  0  0
   -0.1890   23.8300  -25.6900 C   0  0  0  0  0  0  0  0  0  0  0  0
    0.1780   23.0660  -24.4060 C   0  0  0  0  0  0  0  0  0  0  0  0
   -1.6080   23.7610  -25.8670 O   0  0  0  0  0  0  0  0  0  0  0  0
   -2.2290   23.9250  -27.1110 C   0  0  0  0  0  0  0  0  0  0  0  0
   -3.6200   24.0420  -27.1720 C   0  0  0  0  0  0  0  0  0  0  0  0
   -4.2590   24.2090  -28.4020 C   0  0  0  0  0  0  0  0  0  0  0  0
   -3.5150   24.2780  -29.5860 C   0  0  0  0  0  0  0  0  0  0  0  0
   -4.2120   24.4450  -30.8290 N   0  0  0  0  0  0  0  0  0  0  0  0
   -5.0800   23.4880  -31.4490 C   0  0  0  0  0  0  0  0  0  0  0  0
   -4.6620   22.7660  -32.3940 O   0  0  0  0  0  0  0  0  0  0  0  0
   -6.4540   23.4250  -31.0440 N   0  0  0  0  0  0  0  0  0  0  0  0
   -7.3520   22.3690  -31.4270 C   0  0  0  0  0  0  0  0  0  0  0  0
   -8.7150   22.6510  -31.5990 C   0  0  0  0  0  0  0  0  0  0  0  0
   -9.6040   21.6380  -31.9700 C   0  0  0  0  0  0  0  0  0  0  0  0
   -9.1430   20.3330  -32.1550 C   0  0  0  0  0  0  0  0  0  0  0  0
   -7.7900   20.0300  -31.9530 C   0  0  0  0  0  0  0  0  0  0  0  0
   -7.2160   18.3780  -32.1790 S   0  0  0  0  0  0  0  0  0  0  0  0
   -8.3810   17.4420  -32.0120 O   0  0  0  0  0  0  0  0  0  0  0  0
   -6.1870   18.0490  -31.1330 O   0  0  0  0  0  0  0  0  0  0  0  0
   -6.5390   18.1960  -33.7840 N   0  0  0  0  0  0  0  0  0  0  0  0
   -5.8460   19.4200  -34.1960 C   0  0  0  0  0  0  0  0  0  0  0  0
   -4.3820   19.2900  -33.8030 C   0  0  0  0  0  0  0  0  0  0  0  0
   -4.1590   17.8090  -33.5590 C   0  0  0  0  0  0  0  0  0  0  0  0
   -5.5110   17.1480  -33.7890 C   0  0  0  0  0  0  0  0  0  0  0  0
   -6.8980   21.0460  -31.5830 C   0  0  0  0  0  0  0  0  0  0  0  0
   -2.1160   24.1270  -29.5300 C   0  0  0  0  0  0  0  0  0  0  0  0
   -1.4710   23.9450  -28.2980 C   0  0  0  0  0  0  0  0  0  0  0  0
    0.0320   23.8160  -28.2490 C   0  0  0  0  0  0  0  0  0  0  0  0
    0.5310   23.2010  -26.9230 C   0  0  2  0  0  0  0  0  0  0  0  0
    0.3780   21.8010  -26.9550 O   0  0  0  0  0  0  0  0  0  0  0  0
    0.2791   25.5455  -24.4441 H   0  0  0  0  0  0  0  0  0  0  0  0
    1.1918   25.4785  -25.9898 H   0  0  0  0  0  0  0  0  0  0  0  0
   -0.5412   25.9514  -25.9898 H   0  0  0  0  0  0  0  0  0  0  0  0
   -0.1093   23.6641  -23.5287 H   0  0  0  0  0  0  0  0  0  0  0  0
   -0.3567   22.1049  -24.3857 H   0  0  0  0  0  0  0  0  0  0  0  0
    1.2624   22.8827  -24.3857 H   0  0  0  0  0  0  0  0  0  0  0  0
   -4.2141   24.0024  -26.2471 H   0  0  0  0  0  0  0  0  0  0  0  0
   -5.3555   24.2870  -28.4412 H   0  0  0  0  0  0  0  0  0  0  0  0
   -6.8380   24.2330  -30.5050 H   0  0  0  0  0  0  0  0  0  0  0  0
   -9.0863   23.6743  -31.4412 H   0  0  0  0  0  0  0  0  0  0  0  0
  -10.6693   21.8695  -32.1166 H   0  0  0  0  0  0  0  0  0  0  0  0
   -9.8433   19.5414  -32.4599 H   0  0  0  0  0  0  0  0  0  0  0  0
   -5.9296   19.5470  -35.2854 H   0  0  0  0  0  0  0  0  0  0  0  0
   -6.2957   20.2958  -33.7054 H   0  0  0  0  0  0  0  0  0  0  0  0
   -3.7324   19.6481  -34.6153 H   0  0  0  0  0  0  0  0  0  0  0  0
   -4.1428   19.8912  -32.9134 H   0  0  0  0  0  0  0  0  0  0  0  0
   -3.4128   17.4120  -34.2629 H   0  0  0  0  0  0  0  0  0  0  0  0
   -3.7790   17.6163  -32.5449 H   0  0  0  0  0  0  0  0  0  0  0  0
   -5.5121   16.6295  -34.7592 H   0  0  0  0  0  0  0  0  0  0  0  0
   -5.7143   16.4117  -32.9975 H   0  0  0  0  0  0  0  0  0  0  0  0
   -5.8375   20.8080  -31.4137 H   0  0  0  0  0  0  0  0  0  0  0  0
   -1.5257   24.1519  -30.4579 H   0  0  0  0  0  0  0  0  0  0  0  0
    0.3580   23.1736  -29.0803 H   0  0  0  0  0  0  0  0  0  0  0  0
    0.4566   24.8276  -28.3284 H   0  0  0  0  0  0  0  0  0  0  0  0
    1.6010   23.4316  -26.8140 H   0  0  0  0  0  0  0  0  0  0  0  0
   -0.5020   21.5790  -26.5540 H   0  0  0  0  0  0  0  0  0  0  0  0
  1  2  1  0
  2  3  1  0
  2  4  1  0
  4  5  1  0
  5  6  2  0
  6  7  1  0
  7  8  2  0
  8  9  1  0
  9 10  1  0
 10 11  2  0
 10 12  1  0
 12 13  1  0
 13 14  2  0
 14 15  1  0
 15 16  2  0
 16 17  1  0
 17 18  1  0
 18 19  2  0
 18 20  2  0
 18 21  1  0
 21 22  1  0
 22 23  1  0
 23 24  1  0
 24 25  1  0
 17 26  2  0
  8 27  1  0
 27 28  2  0
 28 29  1  0
 29 30  1  0
 30 31  1  0
 30  2  1  0
 28  5  1  0
 26 13  1  0
 25 21  1  0
  1 32  1  0
  1 33  1  0
  1 34  1  0
  3 35  1  0
  3 36  1  0
  3 37  1  0
  6 38  1  0
  7 39  1  0
 12 40  1  0
 14 41  1  0
 15 42  1  0
 16 43  1  0
 22 44  1  0
 22 45  1  0
 23 46  1  0
 23 47  1  0
 24 48  1  0
 24 49  1  0
 25 50  1  0
 25 51  1  0
 26 52  1  0
 27 53  1  0
 29 54  1  0
 29 55  1  0
 30 56  1  1
 31 57  1  0
M  CHG  1   9  -1
M  END
>  <UniqueID>  (36) 
33

>  <SMILES>  (36) 
CC1(C)Oc2ccc([N-]C(=O)Nc3cccc(S(=O)(=O)N4CCCC4)c3)cc2C[C@@H]1O

>  <Energy>  (36) 
66.20936902278534

>  <Genealogy>  (36) 
CC1(C)Oc2ccc([N-]C(=O)Nc3cccc(S(=O)(=O)N4CCCC4)c3)cc2CC1O (protonated)
CC1(C)Oc2ccc([N-]C(=O)Nc3cccc(S(=O)(=O)N4CCCC4)c3)cc2C[C@@H]1O (chirality)
CC1(C)Oc2ccc([N-]C(=O)Nc3cccc(S(=O)(=O)N4CCCC4)c3)cc2C[C@@H]1O (3D coordinates assigned)
CC1(C)Oc2ccc([N-]C(=O)Nc3cccc(S(=O)(=O)N4CCCC4)c3)cc2C[C@@H]1O (nonaromatic ring conformer: 66.20936902278534 kcal/mol)

>  <smiles>  (36) 
CC1(C)Oc2ccc(NC(=O)Nc3cccc(S(=O)(=O)N4CCCC4)c3)cc2CC1O

>  <score_type>  (36) 
oracle

>  <origin>  (36) 
adgpu

>  <m_score__min__energy>  (36) 
-11.57

>  <m_primary>  (36) 
energy

$$$$
36:0
     RDKit          3D

 58 61  0  0  0  0  0  0  0  0999 V2000
   -1.4960   19.9400  -26.7480 O   0  0  0  0  0  0  0  0  0  0  0  0
   -0.6460   19.7860  -27.6680 C   0  0  0  0  0  0  0  0  0  0  0  0
   -0.5960   20.7260  -28.7550 N   0  0  0  0  0  0  0  0  0  0  0  0
   -1.7030   21.5560  -29.1460 C   0  0  0  0  0  0  0  0  0  0  0  0
   -2.5930   22.0230  -28.1660 C   0  0  0  0  0  0  0  0  0  0  0  0
   -3.6620   22.8530  -28.5180 C   0  0  0  0  0  0  0  0  0  0  0  0
   -3.8480   23.2370  -29.8520 C   0  0  0  0  0  0  0  0  0  0  0  0
   -5.1940   24.2910  -30.2910 S   0  0  0  0  0  0  0  0  0  0  0  0
   -5.7290   24.9500  -29.0500 O   0  0  0  0  0  0  0  0  0  0  0  0
   -4.6970   25.3720  -31.2110 O   0  0  0  0  0  0  0  0  0  0  0  0
   -6.4830   23.4120  -31.0760 N   0  0  0  0  0  0  0  0  0  0  0  0
   -7.2800   22.6700  -30.0890 C   0  0  0  0  0  0  0  0  0  0  0  0
   -8.4180   21.9070  -30.7980 C   0  0  0  0  0  0  0  0  0  0  0  0
   -8.3270   22.0000  -32.2100 O   0  0  0  0  0  0  0  0  0  0  0  0
   -7.0490   21.5710  -32.6380 C   0  0  0  0  0  0  0  0  0  0  0  0
   -5.9380   22.4870  -32.0840 C   0  0  0  0  0  0  0  0  0  0  0  0
   -2.9510   22.7900  -30.8310 C   0  0  0  0  0  0  0  0  0  0  0  0
   -1.8820   21.9600  -30.4810 C   0  0  0  0  0  0  0  0  0  0  0  0
    0.3220   18.6660  -27.5880 C   0  0  0  0  0  0  0  0  0  0  0  0
    1.6790   18.8610  -27.9070 C   0  0  0  0  0  0  0  0  0  0  0  0
    2.5830   17.7970  -27.8380 C   0  0  0  0  0  0  0  0  0  0  0  0
    2.1500   16.5250  -27.4470 C   0  0  0  0  0  0  0  0  0  0  0  0
    3.2910   15.1850  -27.3890 S   0  0  0  0  0  0  0  0  0  0  0  0
    3.7410   14.9610  -25.9700 O   0  0  0  0  0  0  0  0  0  0  0  0
    4.4940   15.5360  -28.2210 O   0  0  0  0  0  0  0  0  0  0  0  0
    2.5390   13.7430  -28.0220 N   0  0  0  0  0  0  0  0  0  0  0  0
    1.8730   14.0410  -29.3030 C   0  0  0  0  0  0  0  0  0  0  0  0
    0.9670   12.8720  -29.7380 C   0  0  0  0  0  0  0  0  0  0  0  0
    1.2260   11.7140  -28.9700 O   0  0  0  0  0  0  0  0  0  0  0  0
    0.8860   11.9530  -27.6140 C   0  0  0  0  0  0  0  0  0  0  0  0
    1.5660   13.2200  -27.0520 C   0  0  0  0  0  0  0  0  0  0  0  0
    0.7990   16.3210  -27.1400 C   0  0  0  0  0  0  0  0  0  0  0  0
   -0.1090   17.3810  -27.2120 C   0  0  0  0  0  0  0  0  0  0  0  0
    0.3280   20.8930  -29.2140 H   0  0  0  0  0  0  0  0  0  0  0  0
   -2.4486   21.7342  -27.1145 H   0  0  0  0  0  0  0  0  0  0  0  0
   -4.3596   23.2057  -27.7441 H   0  0  0  0  0  0  0  0  0  0  0  0
   -6.6329   21.9529  -29.5628 H   0  0  0  0  0  0  0  0  0  0  0  0
   -7.7139   23.3786  -29.3681 H   0  0  0  0  0  0  0  0  0  0  0  0
   -8.3675   20.8469  -30.5089 H   0  0  0  0  0  0  0  0  0  0  0  0
   -9.3716   22.3610  -30.4905 H   0  0  0  0  0  0  0  0  0  0  0  0
   -6.8777   20.5442  -32.2827 H   0  0  0  0  0  0  0  0  0  0  0  0
   -7.0181   21.6117  -33.7368 H   0  0  0  0  0  0  0  0  0  0  0  0
   -5.1562   21.8673  -31.6206 H   0  0  0  0  0  0  0  0  0  0  0  0
   -5.5166   23.0744  -32.9131 H   0  0  0  0  0  0  0  0  0  0  0  0
   -3.0885   23.0934  -31.8794 H   0  0  0  0  0  0  0  0  0  0  0  0
   -1.1769   21.6210  -31.2542 H   0  0  0  0  0  0  0  0  0  0  0  0
    2.0305   19.8575  -28.2127 H   0  0  0  0  0  0  0  0  0  0  0  0
    3.6406   17.9605  -28.0925 H   0  0  0  0  0  0  0  0  0  0  0  0
    1.2607   14.9475  -29.1880 H   0  0  0  0  0  0  0  0  0  0  0  0
    2.6441   14.1928  -30.0726 H   0  0  0  0  0  0  0  0  0  0  0  0
   -0.0851   13.1639  -29.6042 H   0  0  0  0  0  0  0  0  0  0  0  0
    1.1738   12.6441  -30.7941 H   0  0  0  0  0  0  0  0  0  0  0  0
   -0.2047   12.0746  -27.5393 H   0  0  0  0  0  0  0  0  0  0  0  0
    1.2368   11.0938  -27.0235 H   0  0  0  0  0  0  0  0  0  0  0  0
    0.8017   13.9859  -26.8542 H   0  0  0  0  0  0  0  0  0  0  0  0
    2.0894   12.9642  -26.1189 H   0  0  0  0  0  0  0  0  0  0  0  0
    0.4507   15.3215  -26.8407 H   0  0  0  0  0  0  0  0  0  0  0  0
   -1.1688   17.2090  -26.9728 H   0  0  0  0  0  0  0  0  0  0  0  0
  1  2  2  0
  2  3  1  0
  3  4  1  0
  4  5  2  0
  5  6  1  0
  6  7  2  0
  7  8  1  0
  8  9  2  0
  8 10  2  0
  8 11  1  0
 11 12  1  0
 12 13  1  0
 13 14  1  0
 14 15  1  0
 15 16  1  0
  7 17  1  0
 17 18  2  0
  2 19  1  0
 19 20  2  0
 20 21  1  0
 21 22  2  0
 22 23  1  0
 23 24  2  0
 23 25  2  0
 23 26  1  0
 26 27  1  0
 27 28  1  0
 28 29  1  0
 29 30  1  0
 30 31  1  0
 22 32  1  0
 32 33  2  0
 18  4  1  0
 33 19  1  0
 16 11  1  0
 31 26  1  0
  3 34  1  0
  5 35  1  0
  6 36  1  0
 12 37  1  0
 12 38  1  0
 13 39  1  0
 13 40  1  0
 15 41  1  0
 15 42  1  0
 16 43  1  0
 16 44  1  0
 17 45  1  0
 18 46  1  0
 20 47  1  0
 21 48  1  0
 27 49  1  0
 27 50  1  0
 28 51  1  0
 28 52  1  0
 30 53  1  0
 30 54  1  0
 31 55  1  0
 31 56  1  0
 32 57  1  0
 33 58  1  0
M  END
>  <UniqueID>  (37) 
34

>  <SMILES>  (37) 
O=C(Nc1ccc(S(=O)(=O)N2CCOCC2)cc1)c1ccc(S(=O)(=O)N2CCOCC2)cc1

>  <Energy>  (37) 
80.0391648201281

>  <Genealogy>  (37) 
O=C(Nc1ccc(S(=O)(=O)N2CCOCC2)cc1)c1ccc(S(=O)(=O)N2CCOCC2)cc1 (3D coordinates assigned)
O=C(Nc1ccc(S(=O)(=O)N2CCOCC2)cc1)c1ccc(S(=O)(=O)N2CCOCC2)cc1 (nonaromatic ring conformer: 80.0391648201281 kcal/mol)

>  <smiles>  (37) 
O=C(Nc1ccc(S(=O)(=O)N2CCOCC2)cc1)c1ccc(S(=O)(=O)N2CCOCC2)cc1

>  <score_type>  (37) 
oracle

>  <origin>  (37) 
adgpu

>  <m_score__min__energy>  (37) 
-10.289999999999999

>  <m_primary>  (37) 
energy

$$$$
37:0
     RDKit          3D

 57 61  0  0  0  0  0  0  0  0999 V2000
    0.9970   24.2110  -28.3160 O   0  0  0  0  0  0  0  0  0  0  0  0
   -0.2350   23.8360  -27.5440 S   0  0  0  0  0  0  0  0  0  0  0  0
   -0.0120   22.4980  -26.8970 O   0  0  0  0  0  0  0  0  0  0  0  0
   -0.4770   25.0780  -26.3170 C   0  0  0  0  0  0  0  0  0  0  0  0
   -0.5530   26.4240  -26.7030 C   0  0  0  0  0  0  0  0  0  0  0  0
   -0.7590   27.4200  -25.7440 C   0  0  0  0  0  0  0  0  0  0  0  0
   -0.8890   27.0750  -24.3930 C   0  0  0  0  0  0  0  0  0  0  0  0
   -0.8170   25.7350  -24.0020 C   0  0  0  0  0  0  0  0  0  0  0  0
   -0.6120   24.7360  -24.9610 C   0  0  0  0  0  0  0  0  0  0  0  0
   -1.6680   23.7370  -28.5820 C   0  0  0  0  0  0  0  0  0  0  0  0
   -2.3540   24.9240  -28.8690 C   0  0  0  0  0  0  0  0  0  0  0  0
   -3.4660   24.9150  -29.6430 N   0  0  0  0  0  0  0  0  0  0  0  0
   -3.9720   23.7680  -30.1580 C   0  0  0  0  0  0  0  0  0  0  0  0
   -5.1240   23.8160  -30.9500 C   0  0  0  0  0  0  0  0  0  0  0  0
   -5.6560   22.6400  -31.4860 C   0  0  0  0  0  0  0  0  0  0  0  0
   -7.0990   22.7070  -32.5540 S   0  0  0  0  0  0  0  0  0  0  0  0
   -7.8980   21.2260  -31.8380 C   0  0  0  0  0  0  0  0  0  0  0  0
   -7.4170   19.9670  -32.5100 C   0  0  0  0  0  0  0  0  0  0  0  0
   -6.5800   20.0370  -33.6390 C   0  0  0  0  0  0  0  0  0  0  0  0
   -6.0970   18.8650  -34.2300 C   0  0  0  0  0  0  0  0  0  0  0  0
   -6.4490   17.6170  -33.7040 C   0  0  0  0  0  0  0  0  0  0  0  0
   -7.2820   17.5390  -32.5840 C   0  0  0  0  0  0  0  0  0  0  0  0
   -7.7630   18.7090  -31.9840 C   0  0  0  0  0  0  0  0  0  0  0  0
   -5.0570   21.4090  -31.2030 C   0  0  0  0  0  0  0  0  0  0  0  0
   -3.9070   21.3510  -30.4120 C   0  0  0  0  0  0  0  0  0  0  0  0
   -3.3400   22.5310  -29.8910 C   0  0  0  0  0  0  0  0  0  0  0  0
   -2.1680   22.5170  -29.1000 C   0  0  0  0  0  0  0  0  0  0  0  0
   -1.5090   21.2670  -28.8290 N   0  0  0  0  0  0  0  0  0  0  0  0
   -0.3170   20.8850  -29.5900 C   0  0  0  0  0  0  0  0  0  0  0  0
    0.6500   20.1080  -28.6890 C   0  0  0  0  0  0  0  0  0  0  0  0
   -0.0190   19.0580  -28.0190 O   0  0  0  0  0  0  0  0  0  0  0  0
   -0.9620   19.5950  -27.1090 C   0  0  0  0  0  0  0  0  0  0  0  0
   -2.0810   20.3320  -27.8530 C   0  0  0  0  0  0  0  0  0  0  0  0
   -0.4502   26.6969  -27.7636 H   0  0  0  0  0  0  0  0  0  0  0  0
   -0.8190   28.4747  -26.0506 H   0  0  0  0  0  0  0  0  0  0  0  0
   -1.0480   27.8596  -23.6386 H   0  0  0  0  0  0  0  0  0  0  0  0
   -0.9214   25.4654  -22.9407 H   0  0  0  0  0  0  0  0  0  0  0  0
   -0.5565   23.6816  -24.6524 H   0  0  0  0  0  0  0  0  0  0  0  0
   -1.9850   25.8763  -28.4605 H   0  0  0  0  0  0  0  0  0  0  0  0
   -5.6121   24.7810  -31.1513 H   0  0  0  0  0  0  0  0  0  0  0  0
   -7.6597   21.1733  -30.7654 H   0  0  0  0  0  0  0  0  0  0  0  0
   -8.9841   21.3086  -31.9913 H   0  0  0  0  0  0  0  0  0  0  0  0
   -6.3048   21.0162  -34.0579 H   0  0  0  0  0  0  0  0  0  0  0  0
   -5.4393   18.9244  -35.1097 H   0  0  0  0  0  0  0  0  0  0  0  0
   -6.0700   16.6966  -34.1722 H   0  0  0  0  0  0  0  0  0  0  0  0
   -7.5599   16.5570  -32.1736 H   0  0  0  0  0  0  0  0  0  0  0  0
   -8.4131   18.6444  -31.0990 H   0  0  0  0  0  0  0  0  0  0  0  0
   -5.4929   20.4824  -31.6047 H   0  0  0  0  0  0  0  0  0  0  0  0
   -3.4414   20.3784  -30.1946 H   0  0  0  0  0  0  0  0  0  0  0  0
   -0.6136   20.2514  -30.4388 H   0  0  0  0  0  0  0  0  0  0  0  0
    0.1826   21.7923  -29.9603 H   0  0  0  0  0  0  0  0  0  0  0  0
    1.4566   19.6854  -29.3061 H   0  0  0  0  0  0  0  0  0  0  0  0
    1.0624   20.7980  -27.9381 H   0  0  0  0  0  0  0  0  0  0  0  0
   -1.4000   18.7763  -26.5192 H   0  0  0  0  0  0  0  0  0  0  0  0
   -0.4473   20.3101  -26.4504 H   0  0  0  0  0  0  0  0  0  0  0  0
   -2.7123   19.5998  -28.3777 H   0  0  0  0  0  0  0  0  0  0  0  0
   -2.6850   20.8956  -27.1266 H   0  0  0  0  0  0  0  0  0  0  0  0
  1  2  2  0
  2  3  2  0
  2  4  1  0
  4  5  2  0
  5  6  1  0
  6  7  2  0
  7  8  1  0
  8  9  2  0
  2 10  1  0
 10 11  2  0
 11 12  1  0
 12 13  2  0
 13 14  1  0
 14 15  2  0
 15 16  1  0
 16 17  1  0
 17 18  1  0
 18 19  2  0
 19 20  1  0
 20 21  2  0
 21 22  1  0
 22 23  2  0
 15 24  1  0
 24 25  2  0
 25 26  1  0
 26 27  2  0
 27 28  1  0
 28 29  1  0
 29 30  1  0
 30 31  1  0
 31 32  1  0
 32 33  1  0
  9  4  1  0
 27 10  1  0
 33 28  1  0
 26 13  1  0
 23 18  1  0
  5 34  1  0
  6 35  1  0
  7 36  1  0
  8 37  1  0
  9 38  1  0
 11 39  1  0
 14 40  1  0
 17 41  1  0
 17 42  1  0
 19 43  1  0
 20 44  1  0
 21 45  1  0
 22 46  1  0
 23 47  1  0
 24 48  1  0
 25 49  1  0
 29 50  1  0
 29 51  1  0
 30 52  1  0
 30 53  1  0
 32 54  1  0
 32 55  1  0
 33 56  1  0
 33 57  1  0
M  END
>  <UniqueID>  (38) 
35

>  <SMILES>  (38) 
O=S(=O)(c1ccccc1)c1cnc2cc(SCc3ccccc3)ccc2c1N1CCOCC1

>  <Energy>  (38) 
71.90637834074424

>  <Genealogy>  (38) 
O=S(=O)(c1ccccc1)c1cnc2cc(SCc3ccccc3)ccc2c1N1CCOCC1 (3D coordinates assigned)
O=S(=O)(c1ccccc1)c1cnc2cc(SCc3ccccc3)ccc2c1N1CCOCC1 (nonaromatic ring conformer: 71.90637834074424 kcal/mol)

>  <smiles>  (38) 
O=S(=O)(c1ccccc1)c1cnc2cc(SCc3ccccc3)ccc2c1N1CCOCC1

>  <score_type>  (38) 
oracle

>  <origin>  (38) 
adgpu

>  <m_score__min__energy>  (38) 
-10.43

>  <m_primary>  (38) 
energy

$$$$
38:0
     RDKit          3D

 53 57  0  0  0  0  0  0  0  0999 V2000
   -5.2490   19.4260  -33.5380 C   0  0  0  0  0  0  0  0  0  0  0  0
   -4.5000   20.5420  -32.8610 C   0  0  0  0  0  0  0  0  0  0  0  0
   -3.0980   20.5160  -32.8180 C   0  0  0  0  0  0  0  0  0  0  0  0
   -2.3930   21.5270  -32.1670 C   0  0  0  0  0  0  0  0  0  0  0  0
   -3.0730   22.5830  -31.5600 C   0  0  0  0  0  0  0  0  0  0  0  0
   -4.4800   22.6520  -31.6070 C   0  0  0  0  0  0  0  0  0  0  0  0
   -5.2160   23.7080  -31.0120 C   0  0  0  0  0  0  0  0  0  0  0  0
   -4.5740   24.8960  -30.4070 C   0  0  0  0  0  0  0  0  0  0  0  0
   -5.2840   25.8870  -30.0860 O   0  0  0  0  0  0  0  0  0  0  0  0
   -3.1550   24.9200  -30.2040 N   0  0  0  0  0  0  0  0  0  0  0  0
   -2.4600   24.6510  -28.9780 C   0  0  0  0  0  0  0  0  0  0  0  0
   -1.0610   24.5710  -29.0030 C   0  0  0  0  0  0  0  0  0  0  0  0
   -0.3430   24.3290  -27.8290 C   0  0  0  0  0  0  0  0  0  0  0  0
   -1.0170   24.1840  -26.6090 C   0  0  0  0  0  0  0  0  0  0  0  0
   -0.1250   23.8560  -25.1270 S   0  0  0  0  0  0  0  0  0  0  0  0
   -0.8000   22.7540  -24.3570 O   0  0  0  0  0  0  0  0  0  0  0  0
    1.2680   23.4120  -25.4760 O   0  0  0  0  0  0  0  0  0  0  0  0
   -0.0490   25.3140  -24.1700 N   0  0  0  0  0  0  0  0  0  0  0  0
   -1.2180   26.1790  -24.3530 C   0  0  0  0  0  0  0  0  0  0  0  0
   -0.3920   27.2820  -24.9920 C   0  0  0  0  0  0  0  0  0  0  0  0
    0.7900   26.3530  -24.7780 C   0  0  0  0  0  0  0  0  0  0  0  0
   -2.4130   24.2810  -26.5750 C   0  0  0  0  0  0  0  0  0  0  0  0
   -3.1330   24.5220  -27.7500 C   0  0  0  0  0  0  0  0  0  0  0  0
   -6.6180   23.6540  -31.0170 C   0  0  0  0  0  0  0  0  0  0  0  0
   -7.2860   22.5860  -31.6440 C   0  0  0  0  0  0  0  0  0  0  0  0
   -8.7940   22.4570  -31.7150 C   0  0  0  0  0  0  0  0  0  0  0  0
   -9.4720   21.5820  -30.6700 C   0  0  0  0  0  0  0  0  0  0  0  0
   -9.3660   21.1030  -32.1130 C   0  0  0  0  0  0  0  0  0  0  0  0
   -6.5530   21.6100  -32.2360 N   0  0  0  0  0  0  0  0  0  0  0  0
   -5.1930   21.6030  -32.2410 C   0  0  0  0  0  0  0  0  0  0  0  0
   -5.6915   18.7667  -32.7767 H   0  0  0  0  0  0  0  0  0  0  0  0
   -6.0473   19.8483  -34.1661 H   0  0  0  0  0  0  0  0  0  0  0  0
   -4.5557   18.8473  -34.1661 H   0  0  0  0  0  0  0  0  0  0  0  0
   -2.5516   19.6926  -33.3011 H   0  0  0  0  0  0  0  0  0  0  0  0
   -1.2941   21.4919  -32.1317 H   0  0  0  0  0  0  0  0  0  0  0  0
   -2.5059   23.3691  -31.0399 H   0  0  0  0  0  0  0  0  0  0  0  0
   -0.5240   24.6997  -29.9543 H   0  0  0  0  0  0  0  0  0  0  0  0
    0.7538   24.2521  -27.8625 H   0  0  0  0  0  0  0  0  0  0  0  0
    0.1800   25.1420  -23.1630 H   0  0  0  0  0  0  0  0  0  0  0  0
   -1.9769   25.7537  -25.0262 H   0  0  0  0  0  0  0  0  0  0  0  0
   -1.8438   26.4198  -23.4810 H   0  0  0  0  0  0  0  0  0  0  0  0
   -0.6330   27.4960  -26.0437 H   0  0  0  0  0  0  0  0  0  0  0  0
   -0.4060   28.3218  -24.6333 H   0  0  0  0  0  0  0  0  0  0  0  0
    1.2727   26.0349  -25.7138 H   0  0  0  0  0  0  0  0  0  0  0  0
    1.6650   26.7232  -24.2237 H   0  0  0  0  0  0  0  0  0  0  0  0
   -2.9465   24.1672  -25.6198 H   0  0  0  0  0  0  0  0  0  0  0  0
   -4.2288   24.6109  -27.7132 H   0  0  0  0  0  0  0  0  0  0  0  0
   -7.1980   24.4507  -30.5282 H   0  0  0  0  0  0  0  0  0  0  0  0
   -8.9246   23.4904  -32.0687 H   0  0  0  0  0  0  0  0  0  0  0  0
   -8.8725   21.0986  -29.8845 H   0  0  0  0  0  0  0  0  0  0  0  0
  -10.2963   21.7212  -29.9551 H   0  0  0  0  0  0  0  0  0  0  0  0
   -8.6899   20.2740  -32.3692 H   0  0  0  0  0  0  0  0  0  0  0  0
  -10.0819   20.7532  -32.8713 H   0  0  0  0  0  0  0  0  0  0  0  0
  1  2  1  0
  2  3  2  0
  3  4  1  0
  4  5  2  0
  5  6  1  0
  6  7  2  0
  7  8  1  0
  8  9  2  0
  8 10  1  0
 10 11  1  0
 11 12  2  0
 12 13  1  0
 13 14  2  0
 14 15  1  0
 15 16  2  0
 15 17  2  0
 15 18  1  0
 18 19  1  0
 19 20  1  0
 20 21  1  0
 14 22  1  0
 22 23  2  0
  7 24  1  0
 24 25  2  0
 25 26  1  0
 26 27  1  0
 27 28  1  0
 25 29  1  0
 29 30  2  0
 30  2  1  0
 30  6  1  0
 23 11  1  0
 28 26  1  0
 21 18  1  0
  1 31  1  0
  1 32  1  0
  1 33  1  0
  3 34  1  0
  4 35  1  0
  5 36  1  0
 12 37  1  0
 13 38  1  0
 18 39  1  0
 19 40  1  0
 19 41  1  0
 20 42  1  0
 20 43  1  0
 21 44  1  0
 21 45  1  0
 22 46  1  0
 23 47  1  0
 24 48  1  0
 26 49  1  0
 27 50  1  0
 27 51  1  0
 28 52  1  0
 28 53  1  0
M  CHG  2  10  -1  18   1
M  END
>  <UniqueID>  (39) 
36

>  <SMILES>  (39) 
Cc1cccc2c(C(=O)[N-]c3ccc(S(=O)(=O)[NH+]4CCC4)cc3)cc(C3CC3)nc12

>  <Energy>  (39) 
408.3964456637154

>  <Genealogy>  (39) 
Cc1cccc2c(C(=O)[N-]c3ccc(S(=O)(=O)[NH+]4CCC4)cc3)cc(C3CC3)nc12 (protonated)
Cc1cccc2c(C(=O)[N-]c3ccc(S(=O)(=O)[NH+]4CCC4)cc3)cc(C3CC3)nc12 (3D coordinates assigned)
Cc1cccc2c(C(=O)[N-]c3ccc(S(=O)(=O)[NH+]4CCC4)cc3)cc(C3CC3)nc12 (nonaromatic ring conformer: 408.3964456637154 kcal/mol)

>  <smiles>  (39) 
Cc1cccc2c(C(=O)Nc3ccc(S(=O)(=O)N4CCC4)cc3)cc(C3CC3)nc12

>  <score_type>  (39) 
oracle

>  <origin>  (39) 
adgpu

>  <m_score__min__energy>  (39) 
-12.34

>  <m_primary>  (39) 
energy

$$$$
39:0
     RDKit          3D

 36 38  0  0  0  0  0  0  0  0999 V2000
   -3.6750   25.2750  -30.6140 O   0  0  0  0  0  0  0  0  0  0  0  0
   -4.7210   24.5760  -30.5760 C   0  0  0  0  0  0  0  0  0  0  0  0
   -5.9280   25.0560  -29.8230 C   0  0  0  0  0  0  0  0  0  0  0  0
   -7.2220   24.5650  -30.4890 C   0  0  0  0  0  0  0  0  0  0  0  0
   -7.1630   23.0950  -30.8330 C   0  0  0  0  0  0  0  0  0  0  0  0
   -8.3380   22.3300  -30.8870 C   0  0  0  0  0  0  0  0  0  0  0  0
   -8.2910   20.9950  -31.2970 C   0  0  0  0  0  0  0  0  0  0  0  0
   -7.0740   20.4130  -31.6720 C   0  0  0  0  0  0  0  0  0  0  0  0
   -7.0370   18.7380  -32.2220 S   0  0  0  0  0  0  0  0  0  0  0  0
   -8.4440   18.2070  -32.2080 O   0  0  0  0  0  0  0  0  0  0  0  0
   -6.2140   17.9120  -31.2730 O   0  0  0  0  0  0  0  0  0  0  0  0
   -6.3960   18.6380  -33.8500 N   0  0  0  0  0  0  0  0  0  0  0  0
   -5.0310   19.1960  -33.9380 C   0  0  0  0  0  0  0  0  0  0  0  0
   -3.9780   18.2720  -33.2810 C   0  0  0  0  0  0  0  0  0  0  0  0
   -4.4230   16.9380  -33.1040 O   0  0  0  0  0  0  0  0  0  0  0  0
   -5.1250   16.5010  -34.2460 C   0  0  0  0  0  0  0  0  0  0  0  0
   -6.4620   17.2530  -34.3780 C   0  0  0  0  0  0  0  0  0  0  0  0
   -5.9000   21.1790  -31.6430 C   0  0  0  0  0  0  0  0  0  0  0  0
   -5.9410   22.5130  -31.2240 C   0  0  0  0  0  0  0  0  0  0  0  0
   -4.7370   23.2850  -31.1870 N   0  0  0  0  0  0  0  0  0  0  0  0
   -5.8855   24.6726  -28.7928 H   0  0  0  0  0  0  0  0  0  0  0  0
   -5.9280   26.1560  -29.8245 H   0  0  0  0  0  0  0  0  0  0  0  0
   -8.0620   24.7342  -29.7992 H   0  0  0  0  0  0  0  0  0  0  0  0
   -7.3546   25.1265  -31.4255 H   0  0  0  0  0  0  0  0  0  0  0  0
   -9.3000   22.7830  -30.6054 H   0  0  0  0  0  0  0  0  0  0  0  0
   -9.2147   20.3983  -31.3253 H   0  0  0  0  0  0  0  0  0  0  0  0
   -7.0170   19.2390  -34.4400 H   0  0  0  0  0  0  0  0  0  0  0  0
   -4.7713   19.3312  -34.9983 H   0  0  0  0  0  0  0  0  0  0  0  0
   -5.0227   20.1545  -33.3983 H   0  0  0  0  0  0  0  0  0  0  0  0
   -3.0820   18.2576  -33.9190 H   0  0  0  0  0  0  0  0  0  0  0  0
   -3.7731   18.6785  -32.2796 H   0  0  0  0  0  0  0  0  0  0  0  0
   -4.5137   16.6897  -35.1408 H   0  0  0  0  0  0  0  0  0  0  0  0
   -5.3305   15.4249  -34.1470 H   0  0  0  0  0  0  0  0  0  0  0  0
   -6.7383   17.2950  -35.4419 H   0  0  0  0  0  0  0  0  0  0  0  0
   -7.2097   16.7069  -33.7841 H   0  0  0  0  0  0  0  0  0  0  0  0
   -4.9442   20.7298  -31.9505 H   0  0  0  0  0  0  0  0  0  0  0  0
  1  2  2  0
  2  3  1  0
  3  4  1  0
  4  5  1  0
  5  6  2  0
  6  7  1  0
  7  8  2  0
  8  9  1  0
  9 10  2  0
  9 11  2  0
  9 12  1  0
 12 13  1  0
 13 14  1  0
 14 15  1  0
 15 16  1  0
 16 17  1  0
  8 18  1  0
 18 19  2  0
 19 20  1  0
 20  2  1  0
 19  5  1  0
 17 12  1  0
  3 21  1  0
  3 22  1  0
  4 23  1  0
  4 24  1  0
  6 25  1  0
  7 26  1  0
 12 27  1  0
 13 28  1  0
 13 29  1  0
 14 30  1  0
 14 31  1  0
 16 32  1  0
 16 33  1  0
 17 34  1  0
 17 35  1  0
 18 36  1  0
M  CHG  2  12   1  20  -1
M  END
>  <UniqueID>  (40) 
37

>  <SMILES>  (40) 
O=C1CCc2ccc(S(=O)(=O)[NH+]3CCOCC3)cc2[N-]1

>  <Energy>  (40) 
47.26437043140818

>  <Genealogy>  (40) 
O=C1CCc2ccc(S(=O)(=O)[NH+]3CCOCC3)cc2[N-]1 (protonated)
O=C1CCc2ccc(S(=O)(=O)[NH+]3CCOCC3)cc2[N-]1 (3D coordinates assigned)
O=C1CCc2ccc(S(=O)(=O)[NH+]3CCOCC3)cc2[N-]1 (nonaromatic ring conformer: 47.26437043140818 kcal/mol)

>  <smiles>  (40) 
O=C1CCc2ccc(S(=O)(=O)N3CCOCC3)cc2N1

>  <score_type>  (40) 
oracle

>  <origin>  (40) 
adgpu

>  <m_score__min__energy>  (40) 
-9.1199999999999992

>  <m_primary>  (40) 
energy

$$$$
40:0
     RDKit          3D

 55 58  0  0  0  0  0  0  0  0999 V2000
   -7.5030   23.1600  -30.7920 O   0  0  0  0  0  0  0  0  0  0  0  0
   -6.2870   22.9670  -30.5080 C   0  0  0  0  0  0  0  0  0  0  0  0
   -5.5310   21.9890  -31.3210 C   0  0  0  0  0  0  0  0  0  0  0  0
   -6.0490   20.6960  -31.4880 C   0  0  0  0  0  0  0  0  0  0  0  0
   -5.3630   19.7520  -32.2580 C   0  0  0  0  0  0  0  0  0  0  0  0
   -4.1560   20.0940  -32.8790 C   0  0  0  0  0  0  0  0  0  0  0  0
   -3.2690   18.8900  -33.8120 S   0  0  0  0  0  0  0  0  0  0  0  0
   -2.6690   17.8920  -32.8610 O   0  0  0  0  0  0  0  0  0  0  0  0
   -2.1350   19.5730  -34.5250 O   0  0  0  0  0  0  0  0  0  0  0  0
   -4.2600   18.0460  -34.9820 N   0  0  0  0  0  0  0  0  0  0  0  0
   -5.6940   18.3790  -34.8860 C   0  0  0  0  0  0  0  0  0  0  0  0
   -6.4490   17.4410  -33.9370 C   0  0  0  0  0  0  0  0  0  0  0  0
   -6.2460   16.0960  -34.3100 O   0  0  0  0  0  0  0  0  0  0  0  0
   -4.8850   15.7680  -34.1250 C   0  0  0  0  0  0  0  0  0  0  0  0
   -3.9840   16.5980  -35.0530 C   0  0  0  0  0  0  0  0  0  0  0  0
   -3.6380   21.3850  -32.7170 C   0  0  0  0  0  0  0  0  0  0  0  0
   -4.3260   22.3300  -31.9530 C   0  0  0  0  0  0  0  0  0  0  0  0
   -5.7100   23.6220  -29.3470 N   0  0  0  0  0  0  0  0  0  0  0  0
   -4.8410   22.6750  -28.5990 C   0  0  0  0  0  0  0  0  0  0  0  0
   -4.0030   23.3950  -27.5360 C   0  0  0  0  0  0  0  0  0  0  0  0
   -3.2460   24.4900  -28.1440 N   0  0  0  0  0  0  0  0  0  0  0  0
   -2.2740   25.1950  -27.3650 C   0  0  0  0  0  0  0  0  0  0  0  0
   -2.3040   25.1060  -25.9670 C   0  0  0  0  0  0  0  0  0  0  0  0
   -1.3510   25.7810  -25.1990 C   0  0  0  0  0  0  0  0  0  0  0  0
   -0.3630   26.5450  -25.8270 C   0  0  0  0  0  0  0  0  0  0  0  0
   -0.3290   26.6390  -27.2210 C   0  0  0  0  0  0  0  0  0  0  0  0
   -1.2800   25.9630  -27.9930 C   0  0  0  0  0  0  0  0  0  0  0  0
   -1.2390   26.0600  -29.3790 O   0  0  0  0  0  0  0  0  0  0  0  0
   -3.5500   24.9170  -29.5110 C   0  0  0  0  0  0  0  0  0  0  0  0
   -5.0710   24.9240  -29.6980 C   0  0  0  0  0  0  0  0  0  0  0  0
   -7.0013   20.4230  -31.0099 H   0  0  0  0  0  0  0  0  0  0  0  0
   -5.7728   18.7380  -32.3761 H   0  0  0  0  0  0  0  0  0  0  0  0
   -5.7933   19.4103  -34.5165 H   0  0  0  0  0  0  0  0  0  0  0  0
   -6.1326   18.2663  -35.8885 H   0  0  0  0  0  0  0  0  0  0  0  0
   -6.0824   17.5918  -32.9109 H   0  0  0  0  0  0  0  0  0  0  0  0
   -7.5239   17.6679  -33.9917 H   0  0  0  0  0  0  0  0  0  0  0  0
   -4.6061   15.9686  -33.0800 H   0  0  0  0  0  0  0  0  0  0  0  0
   -4.7468   14.7034  -34.3649 H   0  0  0  0  0  0  0  0  0  0  0  0
   -2.9354   16.4268  -34.7683 H   0  0  0  0  0  0  0  0  0  0  0  0
   -4.1879   16.2747  -36.0845 H   0  0  0  0  0  0  0  0  0  0  0  0
   -2.6845   21.6560  -33.1939 H   0  0  0  0  0  0  0  0  0  0  0  0
   -3.9209   23.3471  -31.8462 H   0  0  0  0  0  0  0  0  0  0  0  0
   -6.5020   23.8500  -28.6990 H   0  0  0  0  0  0  0  0  0  0  0  0
   -5.4746   21.9236  -28.1051 H   0  0  0  0  0  0  0  0  0  0  0  0
   -4.1536   22.2009  -29.3151 H   0  0  0  0  0  0  0  0  0  0  0  0
   -4.6701   23.8010  -26.7613 H   0  0  0  0  0  0  0  0  0  0  0  0
   -3.2992   22.6780  -27.0882 H   0  0  0  0  0  0  0  0  0  0  0  0
   -3.0798   24.5031  -25.4724 H   0  0  0  0  0  0  0  0  0  0  0  0
   -1.3784   25.7111  -24.1016 H   0  0  0  0  0  0  0  0  0  0  0  0
    0.3892   27.0733  -25.2227 H   0  0  0  0  0  0  0  0  0  0  0  0
    0.4465   27.2453  -27.7119 H   0  0  0  0  0  0  0  0  0  0  0  0
   -3.1519   25.9284  -29.6798 H   0  0  0  0  0  0  0  0  0  0  0  0
   -3.0876   24.2255  -30.2307 H   0  0  0  0  0  0  0  0  0  0  0  0
   -5.4990   25.7083  -29.0563 H   0  0  0  0  0  0  0  0  0  0  0  0
   -5.2695   25.1100  -30.7638 H   0  0  0  0  0  0  0  0  0  0  0  0
  1  2  2  0
  2  3  1  0
  3  4  2  0
  4  5  1  0
  5  6  2  0
  6  7  1  0
  7  8  2  0
  7  9  2  0
  7 10  1  0
 10 11  1  0
 11 12  1  0
 12 13  1  0
 13 14  1  0
 14 15  1  0
  6 16  1  0
 16 17  2  0
  2 18  1  0
 18 19  1  0
 19 20  1  0
 20 21  1  0
 21 22  1  0
 22 23  2  0
 23 24  1  0
 24 25  2  0
 25 26  1  0
 26 27  2  0
 27 28  1  0
 21 29  1  0
 29 30  1  0
 17  3  1  0
 30 18  1  0
 15 10  1  0
 27 22  1  0
  4 31  1  0
  5 32  1  0
 11 33  1  0
 11 34  1  0
 12 35  1  0
 12 36  1  0
 14 37  1  0
 14 38  1  0
 15 39  1  0
 15 40  1  0
 16 41  1  0
 17 42  1  0
 18 43  1  0
 19 44  1  0
 19 45  1  0
 20 46  1  0
 20 47  1  0
 23 48  1  0
 24 49  1  0
 25 50  1  0
 26 51  1  0
 29 52  1  0
 29 53  1  0
 30 54  1  0
 30 55  1  0
M  CHG  2  18   1  28  -1
M  END
>  <UniqueID>  (41) 
38

>  <SMILES>  (41) 
O=C(c1ccc(S(=O)(=O)N2CCOCC2)cc1)[NH+]1CCN(c2ccccc2[O-])CC1

>  <Energy>  (41) 
86.429945334631

>  <Genealogy>  (41) 
O=C(c1ccc(S(=O)(=O)N2CCOCC2)cc1)[NH+]1CCN(c2ccccc2[O-])CC1 (protonated)
O=C(c1ccc(S(=O)(=O)N2CCOCC2)cc1)[NH+]1CCN(c2ccccc2[O-])CC1 (3D coordinates assigned)
O=C(c1ccc(S(=O)(=O)N2CCOCC2)cc1)[NH+]1CCN(c2ccccc2[O-])CC1 (nonaromatic ring conformer: 86.429945334631 kcal/mol)

>  <smiles>  (41) 
O=C(c1ccc(S(=O)(=O)N2CCOCC2)cc1)N1CCN(c2ccccc2O)CC1

>  <score_type>  (41) 
oracle

>  <origin>  (41) 
adgpu

>  <m_score__min__energy>  (41) 
-11.300000000000001

>  <m_primary>  (41) 
energy

$$$$
41:0
     RDKit          3D

 58 61  0  0  0  0  0  0  0  0999 V2000
   -5.7240   25.3230  -30.8250 O   0  0  0  0  0  0  0  0  0  0  0  0
   -5.4490   23.8880  -30.4800 S   0  0  0  0  0  0  0  0  0  0  0  0
   -5.3840   23.7600  -28.9860 O   0  0  0  0  0  0  0  0  0  0  0  0
   -3.9420   23.4030  -31.1950 N   0  0  0  0  0  0  0  0  0  0  0  0
   -2.7520   23.1340  -30.4410 C   0  0  0  0  0  0  0  0  0  0  0  0
   -2.0540   21.9250  -30.5910 C   0  0  0  0  0  0  0  0  0  0  0  0
   -0.9070   21.6700  -29.8260 C   0  0  0  0  0  0  0  0  0  0  0  0
   -0.0510   20.1340  -29.9920 S   0  0  0  0  0  0  0  0  0  0  0  0
    1.2440   20.2390  -29.2270 O   0  0  0  0  0  0  0  0  0  0  0  0
   -0.8730   19.0180  -29.4010 O   0  0  0  0  0  0  0  0  0  0  0  0
    0.2930   19.8040  -31.6750 N   0  0  0  0  0  0  0  0  0  0  0  0
    0.2820   21.0290  -32.4880 C   0  0  0  0  0  0  0  0  0  0  0  0
   -0.9880   21.1420  -33.3380 C   0  0  0  0  0  0  0  0  0  0  0  0
   -1.1700   20.0480  -34.2250 O   0  0  0  0  0  0  0  0  0  0  0  0
   -0.7000   18.8080  -33.7140 C   0  0  0  0  0  0  0  0  0  0  0  0
   -0.6050   18.7530  -32.1850 C   0  0  0  0  0  0  0  0  0  0  0  0
   -0.4510   22.6320  -28.9150 C   0  0  0  0  0  0  0  0  0  0  0  0
   -1.1420   23.8380  -28.7580 C   0  0  0  0  0  0  0  0  0  0  0  0
   -2.2960   24.0860  -29.5130 C   0  0  0  0  0  0  0  0  0  0  0  0
   -2.9800   25.2920  -29.3630 O   0  0  0  0  0  0  0  0  0  0  0  0
   -6.7450   22.8950  -31.1330 C   0  0  0  0  0  0  0  0  0  0  0  0
   -7.9890   23.4460  -31.4550 C   0  0  0  0  0  0  0  0  0  0  0  0
   -9.0070   22.6320  -31.9690 C   0  0  0  0  0  0  0  0  0  0  0  0
   -8.7880   21.2680  -32.1550 C   0  0  0  0  0  0  0  0  0  0  0  0
   -7.5430   20.7100  -31.8400 C   0  0  0  0  0  0  0  0  0  0  0  0
   -7.2170   19.0120  -32.1720 S   0  0  0  0  0  0  0  0  0  0  0  0
   -6.4570   18.4180  -31.0220 O   0  0  0  0  0  0  0  0  0  0  0  0
   -8.5150   18.2670  -32.3200 O   0  0  0  0  0  0  0  0  0  0  0  0
   -6.2600   18.8880  -33.6250 N   0  0  0  0  0  0  0  0  0  0  0  0
   -6.1060   17.4930  -34.0370 C   0  0  0  0  0  0  0  0  0  0  0  0
   -4.8210   17.4410  -34.8440 C   0  0  0  0  0  0  0  0  0  0  0  0
   -3.9550   18.5360  -34.2550 C   0  0  0  0  0  0  0  0  0  0  0  0
   -4.9010   19.4050  -33.4260 C   0  0  0  0  0  0  0  0  0  0  0  0
   -6.5270   21.5300  -31.3310 C   0  0  0  0  0  0  0  0  0  0  0  0
   -2.4088   21.1741  -31.3123 H   0  0  0  0  0  0  0  0  0  0  0  0
    0.3401   21.9000  -31.8187 H   0  0  0  0  0  0  0  0  0  0  0  0
    1.1449   20.9926  -33.1693 H   0  0  0  0  0  0  0  0  0  0  0  0
   -1.8558   21.1929  -32.6639 H   0  0  0  0  0  0  0  0  0  0  0  0
   -0.8878   22.0476  -33.9543 H   0  0  0  0  0  0  0  0  0  0  0  0
   -1.3873   18.0157  -34.0455 H   0  0  0  0  0  0  0  0  0  0  0  0
    0.3219   18.6749  -34.0988 H   0  0  0  0  0  0  0  0  0  0  0  0
   -1.6078   18.8973  -31.7566 H   0  0  0  0  0  0  0  0  0  0  0  0
   -0.1995   17.7729  -31.8935 H   0  0  0  0  0  0  0  0  0  0  0  0
    0.4542   22.4380  -28.3208 H   0  0  0  0  0  0  0  0  0  0  0  0
   -0.7798   24.5909  -28.0425 H   0  0  0  0  0  0  0  0  0  0  0  0
   -3.9930   25.3350  -29.3810 H   0  0  0  0  0  0  0  0  0  0  0  0
   -8.1689   24.5207  -31.3045 H   0  0  0  0  0  0  0  0  0  0  0  0
   -9.9823   23.0708  -32.2266 H   0  0  0  0  0  0  0  0  0  0  0  0
   -9.5929   20.6302  -32.5491 H   0  0  0  0  0  0  0  0  0  0  0  0
   -6.0318   16.8390  -33.1557 H   0  0  0  0  0  0  0  0  0  0  0  0
   -6.9685   17.1464  -34.6252 H   0  0  0  0  0  0  0  0  0  0  0  0
   -4.3341   16.4606  -34.7361 H   0  0  0  0  0  0  0  0  0  0  0  0
   -4.9984   17.5830  -35.9203 H   0  0  0  0  0  0  0  0  0  0  0  0
   -3.1709   18.1038  -33.6159 H   0  0  0  0  0  0  0  0  0  0  0  0
   -3.4465   19.1187  -35.0372 H   0  0  0  0  0  0  0  0  0  0  0  0
   -4.6289   19.3473  -32.3617 H   0  0  0  0  0  0  0  0  0  0  0  0
   -4.8362   20.4575  -33.7393 H   0  0  0  0  0  0  0  0  0  0  0  0
   -5.5476   21.0939  -31.0849 H   0  0  0  0  0  0  0  0  0  0  0  0
  1  2  2  0
  2  3  2  0
  2  4  1  0
  4  5  1  0
  5  6  2  0
  6  7  1  0
  7  8  1  0
  8  9  2  0
  8 10  2  0
  8 11  1  0
 11 12  1  0
 12 13  1  0
 13 14  1  0
 14 15  1  0
 15 16  1  0
  7 17  2  0
 17 18  1  0
 18 19  2  0
 19 20  1  0
  2 21  1  0
 21 22  2  0
 22 23  1  0
 23 24  2  0
 24 25  1  0
 25 26  1  0
 26 27  2  0
 26 28  2  0
 26 29  1  0
 29 30  1  0
 30 31  1  0
 31 32  1  0
 32 33  1  0
 25 34  2  0
 19  5  1  0
 34 21  1  0
 16 11  1  0
 33 29  1  0
  6 35  1  0
 12 36  1  0
 12 37  1  0
 13 38  1  0
 13 39  1  0
 15 40  1  0
 15 41  1  0
 16 42  1  0
 16 43  1  0
 17 44  1  0
 18 45  1  0
 20 46  1  0
 22 47  1  0
 23 48  1  0
 24 49  1  0
 30 50  1  0
 30 51  1  0
 31 52  1  0
 31 53  1  0
 32 54  1  0
 32 55  1  0
 33 56  1  0
 33 57  1  0
 34 58  1  0
M  CHG  1   4  -1
M  END
>  <UniqueID>  (42) 
39

>  <SMILES>  (42) 
O=S(=O)([N-]c1cc(S(=O)(=O)N2CCOCC2)ccc1O)c1cccc(S(=O)(=O)N2CCCC2)c1

>  <Energy>  (42) 
76.23716260762349

>  <Genealogy>  (42) 
O=S(=O)([N-]c1cc(S(=O)(=O)N2CCOCC2)ccc1O)c1cccc(S(=O)(=O)N2CCCC2)c1 (protonated)
O=S(=O)([N-]c1cc(S(=O)(=O)N2CCOCC2)ccc1O)c1cccc(S(=O)(=O)N2CCCC2)c1 (3D coordinates assigned)
O=S(=O)([N-]c1cc(S(=O)(=O)N2CCOCC2)ccc1O)c1cccc(S(=O)(=O)N2CCCC2)c1 (nonaromatic ring conformer: 76.23716260762349 kcal/mol)

>  <smiles>  (42) 
O=S(=O)(Nc1cc(S(=O)(=O)N2CCOCC2)ccc1O)c1cccc(S(=O)(=O)N2CCCC2)c1

>  <score_type>  (42) 
oracle

>  <origin>  (42) 
adgpu

>  <m_score__min__energy>  (42) 
-12.609999999999999

>  <m_primary>  (42) 
energy

$$$$
42:0
     RDKit          3D

 52 54  0  0  0  0  0  0  0  0999 V2000
    2.6170   18.3880  -27.8270 C   0  0  0  0  0  0  0  0  0  0  0  0
    1.2400   17.8970  -27.9550 N   0  0  0  0  0  0  0  0  0  0  0  0
    0.9080   16.5700  -27.4220 C   0  0  0  0  0  0  0  0  0  0  0  0
    0.2220   18.7080  -28.6000 C   0  0  0  0  0  0  0  0  0  0  0  0
   -0.8290   19.2810  -27.8540 C   0  0  0  0  0  0  0  0  0  0  0  0
   -1.8060   20.0640  -28.4760 C   0  0  0  0  0  0  0  0  0  0  0  0
   -1.7510   20.3050  -29.8580 C   0  0  0  0  0  0  0  0  0  0  0  0
   -2.7580   21.0870  -30.5240 N   0  0  0  0  0  0  0  0  0  0  0  0
   -3.1050   22.4300  -30.1480 C   0  0  0  0  0  0  0  0  0  0  0  0
   -2.2830   23.1330  -29.4990 O   0  0  0  0  0  0  0  0  0  0  0  0
   -4.3910   23.0280  -30.5780 C   0  0  0  0  0  0  0  0  0  0  0  0
   -5.4760   22.1860  -30.8860 C   0  0  0  0  0  0  0  0  0  0  0  0
   -6.7040   22.7200  -31.2980 C   0  0  0  0  0  0  0  0  0  0  0  0
   -8.0510   21.6500  -31.6990 S   0  0  0  0  0  0  0  0  0  0  0  0
   -8.5620   21.0050  -30.4410 O   0  0  0  0  0  0  0  0  0  0  0  0
   -9.1690   22.4620  -32.2930 O   0  0  0  0  0  0  0  0  0  0  0  0
   -7.5690   20.4120  -32.8370 N   0  0  0  0  0  0  0  0  0  0  0  0
   -7.9640   19.0760  -32.3400 C   0  0  0  0  0  0  0  0  0  0  0  0
   -7.2090   17.9620  -33.0740 C   0  0  0  0  0  0  0  0  0  0  0  0
   -5.6930   18.0710  -32.8350 C   0  0  0  0  0  0  0  0  0  0  0  0
   -5.2420   19.5050  -32.5110 C   0  0  0  0  0  0  0  0  0  0  0  0
   -6.1380   20.5390  -33.2090 C   0  0  0  0  0  0  0  0  0  0  0  0
   -6.8540   24.1090  -31.3990 C   0  0  0  0  0  0  0  0  0  0  0  0
   -5.7810   24.9530  -31.1110 C   0  0  0  0  0  0  0  0  0  0  0  0
   -4.5500   24.4230  -30.7120 C   0  0  0  0  0  0  0  0  0  0  0  0
   -3.4900   25.2920  -30.4790 O   0  0  0  0  0  0  0  0  0  0  0  0
   -0.7240   19.7220  -30.6100 C   0  0  0  0  0  0  0  0  0  0  0  0
    0.2560   18.9400  -29.9910 C   0  0  0  0  0  0  0  0  0  0  0  0
    2.8758   18.4803  -26.7619 H   0  0  0  0  0  0  0  0  0  0  0  0
    3.3053   17.6799  -28.3116 H   0  0  0  0  0  0  0  0  0  0  0  0
    2.7020   19.3718  -28.3116 H   0  0  0  0  0  0  0  0  0  0  0  0
    0.9165   16.6038  -26.3226 H   0  0  0  0  0  0  0  0  0  0  0  0
   -0.0919   16.2739  -27.7720 H   0  0  0  0  0  0  0  0  0  0  0  0
    1.6507   15.8379  -27.7720 H   0  0  0  0  0  0  0  0  0  0  0  0
   -0.8806   19.1096  -26.7687 H   0  0  0  0  0  0  0  0  0  0  0  0
   -2.6233   20.4942  -27.8786 H   0  0  0  0  0  0  0  0  0  0  0  0
   -3.1860   20.6990  -31.3950 H   0  0  0  0  0  0  0  0  0  0  0  0
   -5.3584   21.0955  -30.8022 H   0  0  0  0  0  0  0  0  0  0  0  0
   -7.7392   19.0129  -31.2651 H   0  0  0  0  0  0  0  0  0  0  0  0
   -9.0408   18.9429  -32.5214 H   0  0  0  0  0  0  0  0  0  0  0  0
   -7.5615   16.9868  -32.7071 H   0  0  0  0  0  0  0  0  0  0  0  0
   -7.4011   18.0612  -34.1526 H   0  0  0  0  0  0  0  0  0  0  0  0
   -5.4224   17.4186  -31.9917 H   0  0  0  0  0  0  0  0  0  0  0  0
   -5.1887   17.7674  -33.7643 H   0  0  0  0  0  0  0  0  0  0  0  0
   -5.2943   19.6607  -31.4233 H   0  0  0  0  0  0  0  0  0  0  0  0
   -4.2113   19.6364  -32.8720 H   0  0  0  0  0  0  0  0  0  0  0  0
   -5.7921   21.5459  -32.9326 H   0  0  0  0  0  0  0  0  0  0  0  0
   -6.0627   20.3616  -34.2920 H   0  0  0  0  0  0  0  0  0  0  0  0
   -7.8203   24.5355  -31.7062 H   0  0  0  0  0  0  0  0  0  0  0  0
   -5.9042   26.0426  -31.1984 H   0  0  0  0  0  0  0  0  0  0  0  0
   -0.6877   19.8806  -31.6979 H   0  0  0  0  0  0  0  0  0  0  0  0
    1.0629   18.5006  -30.5958 H   0  0  0  0  0  0  0  0  0  0  0  0
  1  2  1  0
  2  3  1  0
  2  4  1  0
  4  5  2  0
  5  6  1  0
  6  7  2  0
  7  8  1  0
  8  9  1  0
  9 10  2  0
  9 11  1  0
 11 12  2  0
 12 13  1  0
 13 14  1  0
 14 15  2  0
 14 16  2  0
 14 17  1  0
 17 18  1  0
 18 19  1  0
 19 20  1  0
 20 21  1  0
 21 22  1  0
 13 23  2  0
 23 24  1  0
 24 25  2  0
 25 26  1  0
  7 27  1  0
 27 28  2  0
 28  4  1  0
 25 11  1  0
 22 17  1  0
  1 29  1  0
  1 30  1  0
  1 31  1  0
  3 32  1  0
  3 33  1  0
  3 34  1  0
  5 35  1  0
  6 36  1  0
  8 37  1  0
 12 38  1  0
 18 39  1  0
 18 40  1  0
 19 41  1  0
 19 42  1  0
 20 43  1  0
 20 44  1  0
 21 45  1  0
 21 46  1  0
 22 47  1  0
 22 48  1  0
 23 49  1  0
 24 50  1  0
 27 51  1  0
 28 52  1  0
M  CHG  1  26  -1
M  END
>  <UniqueID>  (43) 
40

>  <SMILES>  (43) 
CN(C)c1ccc(NC(=O)c2cc(S(=O)(=O)N3CCCCC3)ccc2[O-])cc1

>  <Energy>  (43) 
66.22740749643346

>  <Genealogy>  (43) 
CN(C)c1ccc(NC(=O)c2cc(S(=O)(=O)N3CCCCC3)ccc2[O-])cc1 (protonated)
CN(C)c1ccc(NC(=O)c2cc(S(=O)(=O)N3CCCCC3)ccc2[O-])cc1 (3D coordinates assigned)
CN(C)c1ccc(NC(=O)c2cc(S(=O)(=O)N3CCCCC3)ccc2[O-])cc1 (nonaromatic ring conformer: 66.22740749643346 kcal/mol)

>  <smiles>  (43) 
CN(C)c1ccc(NC(=O)c2cc(S(=O)(=O)N3CCCCC3)ccc2O)cc1

>  <score_type>  (43) 
oracle

>  <origin>  (43) 
adgpu

>  <m_score__min__energy>  (43) 
-12.130000000000001

>  <m_primary>  (43) 
energy

$$$$
43:0
     RDKit          3D

 45 48  0  0  0  0  0  0  0  0999 V2000
    0.2460   19.9110  -28.3270 C   0  0  0  0  0  0  0  0  0  0  0  0
   -0.3340   20.4380  -27.0780 N   0  0  0  0  0  0  0  0  0  0  0  0
   -1.7550   20.0750  -26.9150 C   0  0  0  0  0  0  0  0  0  0  0  0
   -2.6510   20.7070  -27.9890 C   0  0  0  0  0  0  0  0  0  0  0  0
   -2.2880   22.1410  -28.2770 C   0  0  0  0  0  0  0  0  0  0  0  0
   -3.1300   22.9000  -29.1000 C   0  0  0  0  0  0  0  0  0  0  0  0
   -2.7700   24.2010  -29.4910 C   0  0  0  0  0  0  0  0  0  0  0  0
   -3.5550   24.9430  -30.4340 N   0  0  0  0  0  0  0  0  0  0  0  0
   -5.2900   24.9270  -30.4670 S   0  0  0  0  0  0  0  0  0  0  0  0
   -5.8140   24.9750  -29.0590 O   0  0  0  0  0  0  0  0  0  0  0  0
   -5.7870   26.1290  -31.2190 O   0  0  0  0  0  0  0  0  0  0  0  0
   -5.8410   23.4720  -31.2950 C   0  0  0  0  0  0  0  0  0  0  0  0
   -4.8950   22.6420  -31.9390 C   0  0  0  0  0  0  0  0  0  0  0  0
   -5.2830   21.4150  -32.5000 C   0  0  0  0  0  0  0  0  0  0  0  0
   -6.6240   21.0400  -32.4150 C   0  0  0  0  0  0  0  0  0  0  0  0
   -7.5510   21.8600  -31.7940 C   0  0  0  0  0  0  0  0  0  0  0  0
   -7.1920   23.0790  -31.2230 C   0  0  0  0  0  0  0  0  0  0  0  0
   -8.8270   21.1670  -31.7990 C   0  0  0  0  0  0  0  0  0  0  0  0
   -9.9110   21.5620  -31.2980 O   0  0  0  0  0  0  0  0  0  0  0  0
   -8.5760   19.8950  -32.4590 C   0  0  0  0  0  0  0  0  0  0  0  0
   -9.4190   18.9750  -32.6160 O   0  0  0  0  0  0  0  0  0  0  0  0
   -7.2110   19.8170  -32.8770 N   0  0  0  0  0  0  0  0  0  0  0  0
   -6.4950   18.5820  -33.1740 C   0  0  0  0  0  0  0  0  0  0  0  0
   -1.5920   24.7650  -28.9880 C   0  0  0  0  0  0  0  0  0  0  0  0
   -1.2360   26.0640  -29.3330 O   0  0  0  0  0  0  0  0  0  0  0  0
   -0.7510   24.0170  -28.1590 C   0  0  0  0  0  0  0  0  0  0  0  0
   -1.0700   22.6900  -27.8330 C   0  0  0  0  0  0  0  0  0  0  0  0
   -0.1390   21.8950  -26.9490 C   0  0  0  0  0  0  0  0  0  0  0  0
    1.0404   19.1892  -28.0864 H   0  0  0  0  0  0  0  0  0  0  0  0
   -0.5388   19.4106  -28.9132 H   0  0  0  0  0  0  0  0  0  0  0  0
    0.6691   20.7401  -28.9132 H   0  0  0  0  0  0  0  0  0  0  0  0
   -1.8487   18.9807  -26.9769 H   0  0  0  0  0  0  0  0  0  0  0  0
   -2.0867   20.4552  -25.9375 H   0  0  0  0  0  0  0  0  0  0  0  0
   -2.5518   20.1253  -28.9173 H   0  0  0  0  0  0  0  0  0  0  0  0
   -3.6837   20.6946  -27.6105 H   0  0  0  0  0  0  0  0  0  0  0  0
   -4.0836   22.4729  -29.4440 H   0  0  0  0  0  0  0  0  0  0  0  0
   -3.8441   22.9609  -32.0012 H   0  0  0  0  0  0  0  0  0  0  0  0
   -4.5469   20.7645  -32.9950 H   0  0  0  0  0  0  0  0  0  0  0  0
   -7.9414   23.7160  -30.7304 H   0  0  0  0  0  0  0  0  0  0  0  0
   -6.2090   18.0887  -32.2333 H   0  0  0  0  0  0  0  0  0  0  0  0
   -7.1449   17.9123  -33.7564 H   0  0  0  0  0  0  0  0  0  0  0  0
   -5.5909   18.8133  -33.7564 H   0  0  0  0  0  0  0  0  0  0  0  0
    0.1674   24.4719  -27.7594 H   0  0  0  0  0  0  0  0  0  0  0  0
    0.8984   22.1365  -27.2238 H   0  0  0  0  0  0  0  0  0  0  0  0
   -0.3587   22.1677  -25.9062 H   0  0  0  0  0  0  0  0  0  0  0  0
  1  2  1  0
  2  3  1  0
  3  4  1  0
  4  5  1  0
  5  6  2  0
  6  7  1  0
  7  8  1  0
  8  9  1  0
  9 10  2  0
  9 11  2  0
  9 12  1  0
 12 13  2  0
 13 14  1  0
 14 15  2  0
 15 16  1  0
 16 17  2  0
 16 18  1  0
 18 19  2  0
 18 20  1  0
 20 21  2  0
 20 22  1  0
 22 23  1  0
  7 24  2  0
 24 25  1  0
 24 26  1  0
 26 27  2  0
 27 28  1  0
 28  2  1  0
 27  5  1  0
 17 12  1  0
 22 15  1  0
  1 29  1  0
  1 30  1  0
  1 31  1  0
  3 32  1  0
  3 33  1  0
  4 34  1  0
  4 35  1  0
  6 36  1  0
 13 37  1  0
 14 38  1  0
 17 39  1  0
 23 40  1  0
 23 41  1  0
 23 42  1  0
 26 43  1  0
 28 44  1  0
 28 45  1  0
M  CHG  2   8  -1  25  -1
M  END
>  <UniqueID>  (44) 
41

>  <SMILES>  (44) 
CN1CCc2cc([N-]S(=O)(=O)c3ccc4c(c3)C(=O)C(=O)N4C)c([O-])cc2C1

>  <Energy>  (44) 
88.15253531150462

>  <Genealogy>  (44) 
CN1CCc2cc([N-]S(=O)(=O)c3ccc4c(c3)C(=O)C(=O)N4C)c([O-])cc2C1 (protonated)
CN1CCc2cc([N-]S(=O)(=O)c3ccc4c(c3)C(=O)C(=O)N4C)c([O-])cc2C1 (3D coordinates assigned)
CN1CCc2cc([N-]S(=O)(=O)c3ccc4c(c3)C(=O)C(=O)N4C)c([O-])cc2C1 (nonaromatic ring conformer: 88.15253531150462 kcal/mol)

>  <smiles>  (44) 
CN1CCc2cc(NS(=O)(=O)c3ccc4c(c3)C(=O)C(=O)N4C)c(O)cc2C1

>  <score_type>  (44) 
oracle

>  <origin>  (44) 
adgpu

>  <m_score__min__energy>  (44) 
-15.32

>  <m_primary>  (44) 
energy

$$$$
44:0
     RDKit          3D

 35 37  0  0  0  0  0  0  0  0999 V2000
   -5.9790   25.5370  -31.5210 O   0  0  0  0  0  0  0  0  0  0  0  0
   -5.3050   24.4510  -30.7300 S   0  0  0  0  0  0  0  0  0  0  0  0
   -6.0310   24.2180  -29.4340 O   0  0  0  0  0  0  0  0  0  0  0  0
   -3.6660   24.9140  -30.3960 N   0  0  0  0  0  0  0  0  0  0  0  0
   -2.7110   24.2490  -29.5540 C   0  0  0  0  0  0  0  0  0  0  0  0
   -2.9750   22.9170  -29.2110 C   0  0  0  0  0  0  0  0  0  0  0  0
   -2.1000   22.1910  -28.3920 C   0  0  0  0  0  0  0  0  0  0  0  0
   -0.9170   22.7980  -27.9300 C   0  0  0  0  0  0  0  0  0  0  0  0
   -0.6590   24.1370  -28.2480 C   0  0  0  0  0  0  0  0  0  0  0  0
   -1.5410   24.8650  -29.0530 C   0  0  0  0  0  0  0  0  0  0  0  0
   -1.2380   26.1930  -29.3240 O   0  0  0  0  0  0  0  0  0  0  0  0
    0.0230   22.0570  -27.0060 C   0  0  0  0  0  0  0  0  0  0  0  0
   -0.1320   20.5990  -27.1030 N   0  0  0  0  0  0  0  0  0  0  0  0
   -1.5390   20.2130  -26.9380 C   0  0  0  0  0  0  0  0  0  0  0  0
   -2.3920   20.7420  -28.0970 C   0  0  0  0  0  0  0  0  0  0  0  0
   -5.3310   22.9590  -31.6780 C   0  0  0  0  0  0  0  0  0  0  0  0
   -4.1220   22.3620  -32.0680 C   0  0  0  0  0  0  0  0  0  0  0  0
   -4.1240   21.1830  -32.8190 C   0  0  0  0  0  0  0  0  0  0  0  0
   -2.6050   20.4460  -33.3000 Cl  0  0  0  0  0  0  0  0  0  0  0  0
   -5.3340   20.5890  -33.1870 C   0  0  0  0  0  0  0  0  0  0  0  0
   -6.5420   21.1750  -32.8050 C   0  0  0  0  0  0  0  0  0  0  0  0
   -6.5510   22.3560  -32.0530 C   0  0  0  0  0  0  0  0  0  0  0  0
   -8.1080   23.0450  -31.6040 Cl  0  0  0  0  0  0  0  0  0  0  0  0
   -3.8860   22.4319  -29.5915 H   0  0  0  0  0  0  0  0  0  0  0  0
    0.2486   24.6223  -27.8599 H   0  0  0  0  0  0  0  0  0  0  0  0
    1.0580   22.3207  -27.2689 H   0  0  0  0  0  0  0  0  0  0  0  0
   -0.2178   22.3526  -25.9742 H   0  0  0  0  0  0  0  0  0  0  0  0
    0.2020   20.2830  -28.0450 H   0  0  0  0  0  0  0  0  0  0  0  0
   -1.6103   19.1157  -26.9102 H   0  0  0  0  0  0  0  0  0  0  0  0
   -1.9143   20.6468  -25.9994 H   0  0  0  0  0  0  0  0  0  0  0  0
   -2.1792   20.1458  -28.9966 H   0  0  0  0  0  0  0  0  0  0  0  0
   -3.4501   20.6587  -27.8081 H   0  0  0  0  0  0  0  0  0  0  0  0
   -3.1665   22.8251  -31.7807 H   0  0  0  0  0  0  0  0  0  0  0  0
   -5.3347   19.6607  -33.7771 H   0  0  0  0  0  0  0  0  0  0  0  0
   -7.4932   20.7058  -33.0967 H   0  0  0  0  0  0  0  0  0  0  0  0
  1  2  2  0
  2  3  2  0
  2  4  1  0
  4  5  1  0
  5  6  2  0
  6  7  1  0
  7  8  2  0
  8  9  1  0
  9 10  2  0
 10 11  1  0
  8 12  1  0
 12 13  1  0
 13 14  1  0
 14 15  1  0
  2 16  1  0
 16 17  2  0
 17 18  1  0
 18 19  1  0
 18 20  2  0
 20 21  1  0
 21 22  2  0
 22 23  1  0
 10  5  1  0
 22 16  1  0
 15  7  1  0
  6 24  1  0
  9 25  1  0
 12 26  1  0
 12 27  1  0
 13 28  1  0
 14 29  1  0
 14 30  1  0
 15 31  1  0
 15 32  1  0
 17 33  1  0
 20 34  1  0
 21 35  1  0
M  CHG  2   4  -1  11  -1
M  END
>  <UniqueID>  (45) 
42

>  <SMILES>  (45) 
O=S(=O)([N-]c1cc2c(cc1[O-])CNCC2)c1cc(Cl)ccc1Cl

>  <Energy>  (45) 
48.02326703376074

>  <Genealogy>  (45) 
O=S(=O)([N-]c1cc2c(cc1[O-])CNCC2)c1cc(Cl)ccc1Cl (protonated)
O=S(=O)([N-]c1cc2c(cc1[O-])CNCC2)c1cc(Cl)ccc1Cl (3D coordinates assigned)
O=S(=O)([N-]c1cc2c(cc1[O-])CNCC2)c1cc(Cl)ccc1Cl (nonaromatic ring conformer: 48.02326703376074 kcal/mol)

>  <smiles>  (45) 
O=S(=O)(Nc1cc2c(cc1O)CNCC2)c1cc(Cl)ccc1Cl

>  <score_type>  (45) 
oracle

>  <origin>  (45) 
adgpu

>  <m_score__min__energy>  (45) 
-13.01

>  <m_primary>  (45) 
energy

$$$$
45:0
     RDKit          3D

 55 58  0  0  0  0  0  0  0  0999 V2000
   -6.8440   15.9420  -34.0620 C   0  0  0  0  0  0  0  0  0  0  0  0
   -5.7300   16.5980  -33.3550 N   0  0  0  0  0  0  0  0  0  0  0  0
   -5.1660   17.7200  -34.1310 C   0  0  0  0  0  0  0  0  0  0  0  0
   -6.1180   18.9370  -34.2020 C   0  0  0  0  0  0  0  0  0  0  0  0
   -7.1270   18.9080  -33.1240 N   0  0  0  0  0  0  0  0  0  0  0  0
   -7.9090   20.1600  -33.0180 C   0  0  0  0  0  0  0  0  0  0  0  0
   -7.2060   21.2640  -32.2560 C   0  0  0  0  0  0  0  0  0  0  0  0
   -5.8850   21.6210  -32.5790 C   0  0  0  0  0  0  0  0  0  0  0  0
   -5.2320   22.6320  -31.8690 C   0  0  0  0  0  0  0  0  0  0  0  0
   -5.8940   23.3110  -30.8390 C   0  0  0  0  0  0  0  0  0  0  0  0
   -5.0550   24.5520  -29.9170 S   0  0  0  0  0  0  0  0  0  0  0  0
   -4.4130   25.5370  -30.8530 O   0  0  0  0  0  0  0  0  0  0  0  0
   -6.0290   25.2980  -29.0490 O   0  0  0  0  0  0  0  0  0  0  0  0
   -3.8320   23.7800  -28.9160 C   0  0  0  0  0  0  0  0  0  0  0  0
   -2.7270   24.5120  -28.4580 C   0  0  0  0  0  0  0  0  0  0  0  0
   -1.7460   23.8930  -27.6790 C   0  0  0  0  0  0  0  0  0  0  0  0
   -1.8500   22.5300  -27.3720 C   0  0  0  0  0  0  0  0  0  0  0  0
   -2.9510   21.7910  -27.8340 C   0  0  0  0  0  0  0  0  0  0  0  0
   -3.9410   22.4180  -28.6020 C   0  0  0  0  0  0  0  0  0  0  0  0
   -3.0490   20.3390  -27.4600 C   0  0  0  0  0  0  0  0  0  0  0  0
   -1.6850   19.6530  -27.6360 C   0  0  0  0  0  0  0  0  0  0  0  0
   -0.4910   20.4370  -27.0270 C   0  0  0  0  0  0  0  0  0  0  0  0
   -0.8370   21.8430  -26.4950 C   0  0  0  0  0  0  0  0  0  0  0  0
   -7.2140   22.9680  -30.5210 C   0  0  0  0  0  0  0  0  0  0  0  0
   -7.8690   21.9570  -31.2290 C   0  0  0  0  0  0  0  0  0  0  0  0
   -6.5480   18.4590  -31.8500 C   0  0  0  0  0  0  0  0  0  0  0  0
   -6.0950   16.9910  -31.9710 C   0  0  0  0  0  0  0  0  0  0  0  0
   -7.5500   15.5263  -33.3280 H   0  0  0  0  0  0  0  0  0  0  0  0
   -7.3626   16.6789  -34.6929 H   0  0  0  0  0  0  0  0  0  0  0  0
   -6.4511   15.1311  -34.6929 H   0  0  0  0  0  0  0  0  0  0  0  0
   -4.2249   18.0369  -33.6577 H   0  0  0  0  0  0  0  0  0  0  0  0
   -5.0055   17.3642  -35.1594 H   0  0  0  0  0  0  0  0  0  0  0  0
   -5.5249   19.8588  -34.1098 H   0  0  0  0  0  0  0  0  0  0  0  0
   -6.6466   18.9016  -35.1660 H   0  0  0  0  0  0  0  0  0  0  0  0
   -8.1208   20.5224  -34.0348 H   0  0  0  0  0  0  0  0  0  0  0  0
   -8.8225   19.9174  -32.4553 H   0  0  0  0  0  0  0  0  0  0  0  0
   -5.3624   21.1013  -33.3956 H   0  0  0  0  0  0  0  0  0  0  0  0
   -4.1940   22.8954  -32.1203 H   0  0  0  0  0  0  0  0  0  0  0  0
   -2.6322   25.5778  -28.7131 H   0  0  0  0  0  0  0  0  0  0  0  0
   -0.8912   24.4765  -27.3064 H   0  0  0  0  0  0  0  0  0  0  0  0
   -4.8060   21.8401  -28.9595 H   0  0  0  0  0  0  0  0  0  0  0  0
   -3.3654   20.2547  -26.4099 H   0  0  0  0  0  0  0  0  0  0  0  0
   -3.7848   19.8485  -28.1142 H   0  0  0  0  0  0  0  0  0  0  0  0
   -1.7311   18.6659  -27.1527 H   0  0  0  0  0  0  0  0  0  0  0  0
   -1.5013   19.5913  -28.7188 H   0  0  0  0  0  0  0  0  0  0  0  0
   -0.0855   19.8466  -26.1921 H   0  0  0  0  0  0  0  0  0  0  0  0
    0.2279   20.5868  -27.8460 H   0  0  0  0  0  0  0  0  0  0  0  0
   -1.2483   21.7497  -25.4790 H   0  0  0  0  0  0  0  0  0  0  0  0
    0.0825   22.4468  -26.4908 H   0  0  0  0  0  0  0  0  0  0  0  0
   -7.7373   23.4966  -29.7106 H   0  0  0  0  0  0  0  0  0  0  0  0
   -8.9099   21.7021  -30.9809 H   0  0  0  0  0  0  0  0  0  0  0  0
   -5.6816   19.0891  -31.6004 H   0  0  0  0  0  0  0  0  0  0  0  0
   -7.3064   18.5409  -31.0575 H   0  0  0  0  0  0  0  0  0  0  0  0
   -5.2181   16.8424  -31.3238 H   0  0  0  0  0  0  0  0  0  0  0  0
   -6.9462   16.3630  -31.6693 H   0  0  0  0  0  0  0  0  0  0  0  0
  1  2  1  0
  2  3  1  0
  3  4  1  0
  4  5  1  0
  5  6  1  0
  6  7  1  0
  7  8  2  0
  8  9  1  0
  9 10  2  0
 10 11  1  0
 11 12  2  0
 11 13  2  0
 11 14  1  0
 14 15  2  0
 15 16  1  0
 16 17  2  0
 17 18  1  0
 18 19  2  0
 18 20  1  0
 20 21  1  0
 21 22  1  0
 22 23  1  0
 10 24  1  0
 24 25  2  0
  5 26  1  0
 26 27  1  0
 27  2  1  0
 25  7  1  0
 19 14  1  0
 23 17  1  0
  1 28  1  0
  1 29  1  0
  1 30  1  0
  3 31  1  0
  3 32  1  0
  4 33  1  0
  4 34  1  0
  6 35  1  0
  6 36  1  0
  8 37  1  0
  9 38  1  0
 15 39  1  0
 16 40  1  0
 19 41  1  0
 20 42  1  0
 20 43  1  0
 21 44  1  0
 21 45  1  0
 22 46  1  0
 22 47  1  0
 23 48  1  0
 23 49  1  0
 24 50  1  0
 25 51  1  0
 26 52  1  0
 26 53  1  0
 27 54  1  0
 27 55  1  0
M  END
>  <UniqueID>  (46) 
43

>  <SMILES>  (46) 
CN1CCN(Cc2ccc(S(=O)(=O)c3ccc4c(c3)CCCC4)cc2)CC1

>  <Energy>  (46) 
76.2392383997181

>  <Genealogy>  (46) 
CN1CCN(Cc2ccc(S(=O)(=O)c3ccc4c(c3)CCCC4)cc2)CC1 (3D coordinates assigned)
CN1CCN(Cc2ccc(S(=O)(=O)c3ccc4c(c3)CCCC4)cc2)CC1 (nonaromatic ring conformer: 76.2392383997181 kcal/mol)

>  <smiles>  (46) 
CN1CCN(Cc2ccc(S(=O)(=O)c3ccc4c(c3)CCCC4)cc2)CC1

>  <score_type>  (46) 
oracle

>  <origin>  (46) 
adgpu

>  <m_score__min__energy>  (46) 
-10.380000000000001

>  <m_primary>  (46) 
energy

$$$$
46:0
     RDKit          3D

 60 63  0  0  0  0  0  0  0  0999 V2000
   -2.9450   24.9500  -29.8720 O   0  0  0  0  0  0  0  0  0  0  0  0
   -2.8650   23.6990  -30.0080 C   0  0  0  0  0  0  0  0  0  0  0  0
   -3.3670   23.0770  -31.1990 N   0  0  0  0  0  0  0  0  0  0  0  0
   -4.7500   22.8760  -31.5270 C   0  0  0  0  0  0  0  0  0  0  0  0
   -5.2720   21.5820  -31.7090 C   0  0  0  0  0  0  0  0  0  0  0  0
   -6.6320   21.3950  -31.9890 C   0  0  0  0  0  0  0  0  0  0  0  0
   -7.2740   19.7680  -32.2190 S   0  0  0  0  0  0  0  0  0  0  0  0
   -8.1220   19.7550  -33.4610 O   0  0  0  0  0  0  0  0  0  0  0  0
   -8.1660   19.4330  -31.0560 O   0  0  0  0  0  0  0  0  0  0  0  0
   -6.0280   18.5450  -32.3660 N   0  0  0  0  0  0  0  0  0  0  0  0
   -5.0710   18.8030  -33.4600 C   0  0  0  0  0  0  0  0  0  0  0  0
   -5.4960   18.1490  -34.7830 C   0  0  0  0  0  0  0  0  0  0  0  0
   -5.7580   16.7750  -34.6010 O   0  0  0  0  0  0  0  0  0  0  0  0
   -6.8680   16.6270  -33.7440 C   0  0  0  0  0  0  0  0  0  0  0  0
   -6.5520   17.1650  -32.3410 C   0  0  0  0  0  0  0  0  0  0  0  0
   -7.4730   22.5080  -32.1070 C   0  0  0  0  0  0  0  0  0  0  0  0
   -6.9680   23.7940  -31.9010 C   0  0  0  0  0  0  0  0  0  0  0  0
   -5.6150   23.9850  -31.6020 C   0  0  0  0  0  0  0  0  0  0  0  0
   -5.1500   25.2840  -31.3930 O   0  0  0  0  0  0  0  0  0  0  0  0
   -2.3010   22.8710  -28.9180 C   0  0  0  0  0  0  0  0  0  0  0  0
   -2.4260   21.4700  -28.9420 C   0  0  0  0  0  0  0  0  0  0  0  0
   -1.8790   20.6920  -27.9180 C   0  0  0  0  0  0  0  0  0  0  0  0
   -1.2040   21.3010  -26.8590 C   0  0  0  0  0  0  0  0  0  0  0  0
   -1.0710   22.6950  -26.8160 C   0  0  0  0  0  0  0  0  0  0  0  0
   -0.2160   23.4620  -25.4740 S   0  0  0  0  0  0  0  0  0  0  0  0
   -0.5260   22.7240  -24.2020 O   0  0  0  0  0  0  0  0  0  0  0  0
    1.2640   23.3680  -25.7160 O   0  0  0  0  0  0  0  0  0  0  0  0
   -0.6630   25.1420  -25.3030 N   0  0  0  0  0  0  0  0  0  0  0  0
   -0.0900   25.9410  -26.4060 C   0  0  0  0  0  0  0  0  0  0  0  0
   -0.1880   27.4610  -26.1500 C   0  0  0  0  0  0  0  0  0  0  0  0
   -1.1900   27.7830  -25.0390 C   0  0  0  0  0  0  0  0  0  0  0  0
   -0.8290   27.0480  -23.7370 C   0  0  0  0  0  0  0  0  0  0  0  0
   -0.2230   25.6560  -23.9960 C   0  0  0  0  0  0  0  0  0  0  0  0
   -1.6220   23.4750  -27.8430 C   0  0  0  0  0  0  0  0  0  0  0  0
   -4.6065   20.7097  -31.6308 H   0  0  0  0  0  0  0  0  0  0  0  0
   -4.9950   19.8897  -33.6126 H   0  0  0  0  0  0  0  0  0  0  0  0
   -4.1049   18.3658  -33.1675 H   0  0  0  0  0  0  0  0  0  0  0  0
   -6.4058   18.6436  -35.1539 H   0  0  0  0  0  0  0  0  0  0  0  0
   -4.6774   18.2587  -35.5095 H   0  0  0  0  0  0  0  0  0  0  0  0
   -7.7208   17.1838  -34.1597 H   0  0  0  0  0  0  0  0  0  0  0  0
   -7.1103   15.5570  -33.6640 H   0  0  0  0  0  0  0  0  0  0  0  0
   -7.4744   17.1494  -31.7419 H   0  0  0  0  0  0  0  0  0  0  0  0
   -5.7737   16.5213  -31.9052 H   0  0  0  0  0  0  0  0  0  0  0  0
   -8.5339   22.3695  -32.3625 H   0  0  0  0  0  0  0  0  0  0  0  0
   -7.6390   24.6625  -31.9744 H   0  0  0  0  0  0  0  0  0  0  0  0
   -4.1950   25.5560  -31.5940 H   0  0  0  0  0  0  0  0  0  0  0  0
   -2.9581   20.9834  -29.7727 H   0  0  0  0  0  0  0  0  0  0  0  0
   -1.9807   19.5971  -27.9467 H   0  0  0  0  0  0  0  0  0  0  0  0
   -0.7750   20.6844  -26.0554 H   0  0  0  0  0  0  0  0  0  0  0  0
    0.9698   25.6709  -26.5233 H   0  0  0  0  0  0  0  0  0  0  0  0
   -0.6680   25.7178  -27.3149 H   0  0  0  0  0  0  0  0  0  0  0  0
    0.8029   27.8380  -25.8569 H   0  0  0  0  0  0  0  0  0  0  0  0
   -0.5347   27.9436  -27.0757 H   0  0  0  0  0  0  0  0  0  0  0  0
   -1.1839   28.8671  -24.8530 H   0  0  0  0  0  0  0  0  0  0  0  0
   -2.1879   27.4515  -25.3619 H   0  0  0  0  0  0  0  0  0  0  0  0
   -0.0981   27.6534  -23.1808 H   0  0  0  0  0  0  0  0  0  0  0  0
   -1.7569   26.9078  -23.1632 H   0  0  0  0  0  0  0  0  0  0  0  0
    0.8744   25.7306  -23.9862 H   0  0  0  0  0  0  0  0  0  0  0  0
   -0.5611   24.9666  -23.2084 H   0  0  0  0  0  0  0  0  0  0  0  0
   -1.5226   24.5699  -27.8081 H   0  0  0  0  0  0  0  0  0  0  0  0
  1  2  2  0
  2  3  1  0
  3  4  1  0
  4  5  2  0
  5  6  1  0
  6  7  1  0
  7  8  2  0
  7  9  2  0
  7 10  1  0
 10 11  1  0
 11 12  1  0
 12 13  1  0
 13 14  1  0
 14 15  1  0
  6 16  2  0
 16 17  1  0
 17 18  2  0
 18 19  1  0
  2 20  1  0
 20 21  2  0
 21 22  1  0
 22 23  2  0
 23 24  1  0
 24 25  1  0
 25 26  2  0
 25 27  2  0
 25 28  1  0
 28 29  1  0
 29 30  1  0
 30 31  1  0
 31 32  1  0
 32 33  1  0
 24 34  2  0
 18  4  1  0
 34 20  1  0
 15 10  1  0
 33 28  1  0
  5 35  1  0
 11 36  1  0
 11 37  1  0
 12 38  1  0
 12 39  1  0
 14 40  1  0
 14 41  1  0
 15 42  1  0
 15 43  1  0
 16 44  1  0
 17 45  1  0
 19 46  1  0
 21 47  1  0
 22 48  1  0
 23 49  1  0
 29 50  1  0
 29 51  1  0
 30 52  1  0
 30 53  1  0
 31 54  1  0
 31 55  1  0
 32 56  1  0
 32 57  1  0
 33 58  1  0
 33 59  1  0
 34 60  1  0
M  CHG  1   3  -1
M  END
>  <UniqueID>  (47) 
44

>  <SMILES>  (47) 
O=C([N-]c1cc(S(=O)(=O)N2CCOCC2)ccc1O)c1cccc(S(=O)(=O)N2CCCCC2)c1

>  <Energy>  (47) 
74.54750543187417

>  <Genealogy>  (47) 
O=C([N-]c1cc(S(=O)(=O)N2CCOCC2)ccc1O)c1cccc(S(=O)(=O)N2CCCCC2)c1 (protonated)
O=C([N-]c1cc(S(=O)(=O)N2CCOCC2)ccc1O)c1cccc(S(=O)(=O)N2CCCCC2)c1 (3D coordinates assigned)
O=C([N-]c1cc(S(=O)(=O)N2CCOCC2)ccc1O)c1cccc(S(=O)(=O)N2CCCCC2)c1 (nonaromatic ring conformer: 74.54750543187417 kcal/mol)

>  <smiles>  (47) 
O=C(Nc1cc(S(=O)(=O)N2CCOCC2)ccc1O)c1cccc(S(=O)(=O)N2CCCCC2)c1

>  <score_type>  (47) 
oracle

>  <origin>  (47) 
adgpu

>  <m_score__min__energy>  (47) 
-12.16

>  <m_primary>  (47) 
energy

$$$$
47:0
     RDKit          3D

 52 55  0  0  0  0  0  0  0  0999 V2000
   -4.6250   25.0070  -31.2210 O   0  0  0  0  0  0  0  0  0  0  0  0
   -5.7010   24.5800  -30.2620 S   0  0  0  0  0  0  0  0  0  0  0  0
   -6.6650   25.7150  -30.0660 O   0  0  0  0  0  0  0  0  0  0  0  0
   -4.9730   24.1750  -28.7380 N   0  0  0  0  0  0  0  0  0  0  0  0
   -3.7640   23.4020  -28.6270 C   0  0  0  0  0  0  0  0  0  0  0  0
   -3.7890   22.0740  -28.1680 C   0  0  0  0  0  0  0  0  0  0  0  0
   -2.6040   21.3380  -28.0270 C   0  0  0  0  0  0  0  0  0  0  0  0
   -1.3680   21.9420  -28.3310 C   0  0  0  0  0  0  0  0  0  0  0  0
   -1.3440   23.2540  -28.8260 C   0  0  0  0  0  0  0  0  0  0  0  0
   -2.5290   23.9810  -28.9690 C   0  0  0  0  0  0  0  0  0  0  0  0
   -2.4670   25.2880  -29.4430 O   0  0  0  0  0  0  0  0  0  0  0  0
   -0.0800   21.1590  -28.2290 C   0  0  0  0  0  0  0  0  0  0  0  0
   -0.1970   20.0080  -27.3230 N   0  0  0  0  0  0  0  0  0  0  0  0
   -1.3540   19.1790  -27.6830 C   0  0  0  0  0  0  0  0  0  0  0  0
   -2.6660   19.9420  -27.4610 C   0  0  0  0  0  0  0  0  0  0  0  0
   -6.5820   23.1930  -30.8960 C   0  0  0  0  0  0  0  0  0  0  0  0
   -7.9540   23.2840  -31.1660 C   0  0  0  0  0  0  0  0  0  0  0  0
   -8.6370   22.1890  -31.7030 C   0  0  0  0  0  0  0  0  0  0  0  0
   -7.9530   21.0010  -31.9780 C   0  0  0  0  0  0  0  0  0  0  0  0
   -6.5810   20.9020  -31.7080 C   0  0  0  0  0  0  0  0  0  0  0  0
   -5.6990   19.4160  -32.0470 S   0  0  0  0  0  0  0  0  0  0  0  0
   -5.7880   18.4810  -30.8720 O   0  0  0  0  0  0  0  0  0  0  0  0
   -6.3240   18.7480  -33.2420 O   0  0  0  0  0  0  0  0  0  0  0  0
   -4.0280   19.8000  -32.3810 N   0  0  0  0  0  0  0  0  0  0  0  0
   -3.9170   20.7970  -33.4710 C   0  0  0  0  0  0  0  0  0  0  0  0
   -3.5520   22.1950  -32.9410 C   0  0  0  0  0  0  0  0  0  0  0  0
   -2.3250   22.2150  -32.2230 O   0  0  0  0  0  0  0  0  0  0  0  0
   -2.0860   21.0350  -31.4640 C   0  0  0  0  0  0  0  0  0  0  0  0
   -3.3520   20.2240  -31.1410 C   0  0  0  0  0  0  0  0  0  0  0  0
   -5.9030   21.9950  -31.1550 C   0  0  0  0  0  0  0  0  0  0  0  0
   -5.5300   24.3880  -27.8810 H   0  0  0  0  0  0  0  0  0  0  0  0
   -4.7517   21.6054  -27.9158 H   0  0  0  0  0  0  0  0  0  0  0  0
   -0.3846   23.7146  -29.1040 H   0  0  0  0  0  0  0  0  0  0  0  0
    0.1926   20.7946  -29.2304 H   0  0  0  0  0  0  0  0  0  0  0  0
    0.6905   21.8304  -27.8221 H   0  0  0  0  0  0  0  0  0  0  0  0
   -0.3180   20.3590  -26.3420 H   0  0  0  0  0  0  0  0  0  0  0  0
   -1.2776   18.8953  -28.7430 H   0  0  0  0  0  0  0  0  0  0  0  0
   -1.3564   18.2835  -27.0441 H   0  0  0  0  0  0  0  0  0  0  0  0
   -3.4839   19.3945  -27.9523 H   0  0  0  0  0  0  0  0  0  0  0  0
   -2.8375   20.0196  -26.3772 H   0  0  0  0  0  0  0  0  0  0  0  0
   -8.4944   24.2186  -30.9550 H   0  0  0  0  0  0  0  0  0  0  0  0
   -9.7149   22.2621  -31.9097 H   0  0  0  0  0  0  0  0  0  0  0  0
   -8.4920   20.1432  -32.4066 H   0  0  0  0  0  0  0  0  0  0  0  0
   -3.1368   20.4691  -34.1737 H   0  0  0  0  0  0  0  0  0  0  0  0
   -4.8963   20.8675  -33.9670 H   0  0  0  0  0  0  0  0  0  0  0  0
   -3.4693   22.8830  -33.7953 H   0  0  0  0  0  0  0  0  0  0  0  0
   -4.3460   22.4995  -32.2433 H   0  0  0  0  0  0  0  0  0  0  0  0
   -1.4005   20.3912  -32.0346 H   0  0  0  0  0  0  0  0  0  0  0  0
   -1.6650   21.3594  -30.5009 H   0  0  0  0  0  0  0  0  0  0  0  0
   -3.0720   19.3333  -30.5594 H   0  0  0  0  0  0  0  0  0  0  0  0
   -4.0399   20.8569  -30.5611 H   0  0  0  0  0  0  0  0  0  0  0  0
   -4.8310   21.9128  -30.9225 H   0  0  0  0  0  0  0  0  0  0  0  0
  1  2  2  0
  2  3  2  0
  2  4  1  0
  4  5  1  0
  5  6  2  0
  6  7  1  0
  7  8  2  0
  8  9  1  0
  9 10  2  0
 10 11  1  0
  8 12  1  0
 12 13  1  0
 13 14  1  0
 14 15  1  0
  2 16  1  0
 16 17  2  0
 17 18  1  0
 18 19  2  0
 19 20  1  0
 20 21  1  0
 21 22  2  0
 21 23  2  0
 21 24  1  0
 24 25  1  0
 25 26  1  0
 26 27  1  0
 27 28  1  0
 28 29  1  0
 20 30  2  0
 10  5  1  0
 30 16  1  0
 15  7  1  0
 29 24  1  0
  4 31  1  0
  6 32  1  0
  9 33  1  0
 12 34  1  0
 12 35  1  0
 13 36  1  0
 14 37  1  0
 14 38  1  0
 15 39  1  0
 15 40  1  0
 17 41  1  0
 18 42  1  0
 19 43  1  0
 25 44  1  0
 25 45  1  0
 26 46  1  0
 26 47  1  0
 28 48  1  0
 28 49  1  0
 29 50  1  0
 29 51  1  0
 30 52  1  0
M  CHG  1  11  -1
M  END
>  <UniqueID>  (48) 
45

>  <SMILES>  (48) 
O=S(=O)(Nc1cc2c(cc1[O-])CNCC2)c1cccc(S(=O)(=O)N2CCOCC2)c1

>  <Energy>  (48) 
71.09377716225643

>  <Genealogy>  (48) 
O=S(=O)(Nc1cc2c(cc1[O-])CNCC2)c1cccc(S(=O)(=O)N2CCOCC2)c1 (protonated)
O=S(=O)(Nc1cc2c(cc1[O-])CNCC2)c1cccc(S(=O)(=O)N2CCOCC2)c1 (3D coordinates assigned)
O=S(=O)(Nc1cc2c(cc1[O-])CNCC2)c1cccc(S(=O)(=O)N2CCOCC2)c1 (nonaromatic ring conformer: 71.09377716225643 kcal/mol)

>  <smiles>  (48) 
O=S(=O)(Nc1cc2c(cc1O)CNCC2)c1cccc(S(=O)(=O)N2CCOCC2)c1

>  <score_type>  (48) 
oracle

>  <origin>  (48) 
adgpu

>  <m_score__min__energy>  (48) 
-13.880000000000001

>  <m_primary>  (48) 
energy

$$$$
48:0
     RDKit          3D

 50 53  0  0  0  0  0  0  0  0999 V2000
   -5.7400   26.2420  -31.2070 O   0  0  0  0  0  0  0  0  0  0  0  0
   -5.3250   25.0900  -30.3340 S   0  0  0  0  0  0  0  0  0  0  0  0
   -5.7250   25.3830  -28.9140 O   0  0  0  0  0  0  0  0  0  0  0  0
   -3.5910   24.9230  -30.4180 N   0  0  0  0  0  0  0  0  0  0  0  0
   -2.8020   24.1840  -29.4720 C   0  0  0  0  0  0  0  0  0  0  0  0
   -3.1740   22.8950  -29.0520 C   0  0  0  0  0  0  0  0  0  0  0  0
   -2.3120   22.1340  -28.2450 C   0  0  0  0  0  0  0  0  0  0  0  0
   -1.0840   22.6870  -27.8210 C   0  0  0  0  0  0  0  0  0  0  0  0
   -0.7670   24.0110  -28.1560 C   0  0  0  0  0  0  0  0  0  0  0  0
   -1.6160   24.7530  -28.9840 C   0  0  0  0  0  0  0  0  0  0  0  0
   -1.2610   26.0520  -29.3400 O   0  0  0  0  0  0  0  0  0  0  0  0
   -0.1510   21.8930  -26.9420 C   0  0  0  0  0  0  0  0  0  0  0  0
   -0.3450   20.4480  -27.1340 N   0  0  0  0  0  0  0  0  0  0  0  0
   -1.7470   20.0840  -26.8880 C   0  0  0  0  0  0  0  0  0  0  0  0
   -2.6460   20.6880  -27.9700 C   0  0  0  0  0  0  0  0  0  0  0  0
   -6.1520   23.6410  -30.9110 C   0  0  0  0  0  0  0  0  0  0  0  0
   -5.4670   22.4130  -30.9310 C   0  0  0  0  0  0  0  0  0  0  0  0
   -6.1370   21.2420  -31.2940 C   0  0  0  0  0  0  0  0  0  0  0  0
   -7.4900   21.2900  -31.6620 C   0  0  0  0  0  0  0  0  0  0  0  0
   -8.3410   19.8200  -32.1220 S   0  0  0  0  0  0  0  0  0  0  0  0
   -8.6900   19.0560  -30.8740 O   0  0  0  0  0  0  0  0  0  0  0  0
   -9.6080   20.1700  -32.8570 O   0  0  0  0  0  0  0  0  0  0  0  0
   -7.3120   18.8360  -33.1430 N   0  0  0  0  0  0  0  0  0  0  0  0
   -6.4650   17.9380  -32.3500 C   0  0  0  0  0  0  0  0  0  0  0  0
   -5.2140   17.6790  -33.1750 C   0  0  0  0  0  0  0  0  0  0  0  0
   -5.1620   18.8070  -34.1960 C   0  0  0  0  0  0  0  0  0  0  0  0
   -6.3870   19.6620  -33.9180 C   0  0  0  0  0  0  0  0  0  0  0  0
   -8.1660   22.5200  -31.6700 C   0  0  0  0  0  0  0  0  0  0  0  0
   -7.5040   23.6900  -31.2920 C   0  0  0  0  0  0  0  0  0  0  0  0
   -4.1459   22.4798  -29.3571 H   0  0  0  0  0  0  0  0  0  0  0  0
    0.1540   24.4687  -27.7658 H   0  0  0  0  0  0  0  0  0  0  0  0
    0.8879   22.1527  -27.1937 H   0  0  0  0  0  0  0  0  0  0  0  0
   -0.3669   22.1382  -25.8916 H   0  0  0  0  0  0  0  0  0  0  0  0
    0.2440   19.9530  -26.4260 H   0  0  0  0  0  0  0  0  0  0  0  0
   -1.8462   18.9886  -26.9025 H   0  0  0  0  0  0  0  0  0  0  0  0
   -2.0532   20.4750  -25.9065 H   0  0  0  0  0  0  0  0  0  0  0  0
   -2.5191   20.1121  -28.8985 H   0  0  0  0  0  0  0  0  0  0  0  0
   -3.6847   20.6431  -27.6107 H   0  0  0  0  0  0  0  0  0  0  0  0
   -4.4015   22.3743  -30.6603 H   0  0  0  0  0  0  0  0  0  0  0  0
   -5.6027   20.2805  -31.2913 H   0  0  0  0  0  0  0  0  0  0  0  0
   -6.1979   18.4135  -31.3947 H   0  0  0  0  0  0  0  0  0  0  0  0
   -6.9895   16.9990  -32.1195 H   0  0  0  0  0  0  0  0  0  0  0  0
   -4.3199   17.6982  -32.5345 H   0  0  0  0  0  0  0  0  0  0  0  0
   -5.2399   16.6911  -33.6580 H   0  0  0  0  0  0  0  0  0  0  0  0
   -4.2433   19.3985  -34.0691 H   0  0  0  0  0  0  0  0  0  0  0  0
   -5.1565   18.4244  -35.2273 H   0  0  0  0  0  0  0  0  0  0  0  0
   -6.1028   20.5548  -33.3417 H   0  0  0  0  0  0  0  0  0  0  0  0
   -6.8519   20.0019  -34.8552 H   0  0  0  0  0  0  0  0  0  0  0  0
   -9.2219   22.5625  -31.9754 H   0  0  0  0  0  0  0  0  0  0  0  0
   -8.0407   24.6502  -31.2924 H   0  0  0  0  0  0  0  0  0  0  0  0
  1  2  2  0
  2  3  2  0
  2  4  1  0
  4  5  1  0
  5  6  2  0
  6  7  1  0
  7  8  2  0
  8  9  1  0
  9 10  2  0
 10 11  1  0
  8 12  1  0
 12 13  1  0
 13 14  1  0
 14 15  1  0
  2 16  1  0
 16 17  2  0
 17 18  1  0
 18 19  2  0
 19 20  1  0
 20 21  2  0
 20 22  2  0
 20 23  1  0
 23 24  1  0
 24 25  1  0
 25 26  1  0
 26 27  1  0
 19 28  1  0
 28 29  2  0
 10  5  1  0
 29 16  1  0
 15  7  1  0
 27 23  1  0
  6 30  1  0
  9 31  1  0
 12 32  1  0
 12 33  1  0
 13 34  1  0
 14 35  1  0
 14 36  1  0
 15 37  1  0
 15 38  1  0
 17 39  1  0
 18 40  1  0
 24 41  1  0
 24 42  1  0
 25 43  1  0
 25 44  1  0
 26 45  1  0
 26 46  1  0
 27 47  1  0
 27 48  1  0
 28 49  1  0
 29 50  1  0
M  CHG  2   4  -1  11  -1
M  END
>  <UniqueID>  (49) 
46

>  <SMILES>  (49) 
O=S(=O)([N-]c1cc2c(cc1[O-])CNCC2)c1ccc(S(=O)(=O)N2CCCC2)cc1

>  <Energy>  (49) 
58.92025895727702

>  <Genealogy>  (49) 
O=S(=O)([N-]c1cc2c(cc1[O-])CNCC2)c1ccc(S(=O)(=O)N2CCCC2)cc1 (protonated)
O=S(=O)([N-]c1cc2c(cc1[O-])CNCC2)c1ccc(S(=O)(=O)N2CCCC2)cc1 (3D coordinates assigned)
O=S(=O)([N-]c1cc2c(cc1[O-])CNCC2)c1ccc(S(=O)(=O)N2CCCC2)cc1 (nonaromatic ring conformer: 58.92025895727702 kcal/mol)

>  <smiles>  (49) 
O=S(=O)(Nc1cc2c(cc1O)CNCC2)c1ccc(S(=O)(=O)N2CCCC2)cc1

>  <score_type>  (49) 
oracle

>  <origin>  (49) 
adgpu

>  <m_score__min__energy>  (49) 
-15.5

>  <m_primary>  (49) 
energy

$$$$
