0:0
     RDKit          3D

 59 62  0  0  0  0  0  0  0  0999 V2000
   -4.2060   24.8720  -26.5670 C   0  0  0  0  0  0  0  0  0  0  0  0
   -2.7530   25.2390  -26.7040 C   0  0  0  0  0  0  0  0  0  0  0  0
   -2.1070   25.8630  -25.6230 C   0  0  0  0  0  0  0  0  0  0  0  0
   -0.7550   26.2050  -25.7010 C   0  0  0  0  0  0  0  0  0  0  0  0
   -0.0300   25.9190  -26.8560 C   0  0  0  0  0  0  0  0  0  0  0  0
   -0.6500   25.2850  -27.9330 C   0  0  0  0  0  0  0  0  0  0  0  0
   -2.0070   24.9280  -27.8690 C   0  0  0  0  0  0  0  0  0  0  0  0
   -2.7470   24.1260  -29.2660 S   0  0  0  0  0  0  0  0  0  0  0  0
   -3.7410   23.1080  -28.7830 O   0  0  0  0  0  0  0  0  0  0  0  0
   -1.6980   23.4360  -30.0940 O   0  0  0  0  0  0  0  0  0  0  0  0
   -3.5770   25.2740  -30.2630 N   0  0  0  0  0  0  0  0  0  0  0  0
   -4.9590   25.1380  -30.6170 C   0  0  0  0  0  0  0  0  0  0  0  0
   -5.7380   26.1220  -30.4840 O   0  0  0  0  0  0  0  0  0  0  0  0
   -5.4730   23.8450  -31.1280 C   0  0  0  0  0  0  0  0  0  0  0  0
   -6.8510   23.5770  -31.1310 C   0  0  0  0  0  0  0  0  0  0  0  0
   -7.3370   22.3640  -31.6230 C   0  0  0  0  0  0  0  0  0  0  0  0
   -6.4600   21.3880  -32.1200 C   0  0  0  0  0  0  0  0  0  0  0  0
   -7.1130   19.8440  -32.6980 S   0  0  0  0  0  0  0  0  0  0  0  0
   -8.8660   19.7070  -32.4080 C   0  0  0  0  0  0  0  0  0  0  0  0
   -6.4450   18.7110  -31.9720 O   0  0  0  0  0  0  0  0  0  0  0  0
   -6.8550   19.7150  -34.1720 O   0  0  0  0  0  0  0  0  0  0  0  0
   -5.0710   21.6540  -32.1330 C   0  0  0  0  0  0  0  0  0  0  0  0
   -4.0980   20.6880  -32.6810 C   0  0  0  0  0  0  0  0  0  0  0  0
   -4.3130   20.1990  -33.8240 O   0  0  0  0  0  0  0  0  0  0  0  0
   -2.8850   20.2890  -31.9240 C   0  0  0  0  0  0  0  0  0  0  0  0
   -2.7540   20.6300  -30.5660 C   0  0  0  0  0  0  0  0  0  0  0  0
   -1.5990   20.2890  -29.8550 C   0  0  0  0  0  0  0  0  0  0  0  0
   -0.5530   19.6120  -30.4920 C   0  0  0  0  0  0  0  0  0  0  0  0
    0.9210   19.2140  -29.6030 S   0  0  0  0  0  0  0  0  0  0  0  0
    1.1040   20.2100  -28.4930 O   0  0  0  0  0  0  0  0  0  0  0  0
    2.0980   19.3260  -30.5290 O   0  0  0  0  0  0  0  0  0  0  0  0
    0.9150   17.5660  -28.8890 C   0  0  0  0  0  0  0  0  0  0  0  0
    1.7580   17.3910  -27.6350 C   0  0  0  0  0  0  0  0  0  0  0  0
    0.2410   17.4450  -27.5310 C   0  0  0  0  0  0  0  0  0  0  0  0
   -0.6780   19.2610  -31.8420 C   0  0  0  0  0  0  0  0  0  0  0  0
   -1.8310   19.5990  -32.5540 C   0  0  0  0  0  0  0  0  0  0  0  0
   -4.5910   22.8750  -31.6320 C   0  0  0  0  0  0  0  0  0  0  0  0
   -4.4685   24.8057  -25.5008 H   0  0  0  0  0  0  0  0  0  0  0  0
   -4.8257   25.6418  -27.0500 H   0  0  0  0  0  0  0  0  0  0  0  0
   -4.3859   23.9002  -27.0500 H   0  0  0  0  0  0  0  0  0  0  0  0
   -2.6722   26.0844  -24.7057 H   0  0  0  0  0  0  0  0  0  0  0  0
   -0.2628   26.7000  -24.8509 H   0  0  0  0  0  0  0  0  0  0  0  0
    1.0333   26.1937  -26.9188 H   0  0  0  0  0  0  0  0  0  0  0  0
   -0.0705   25.0625  -28.8411 H   0  0  0  0  0  0  0  0  0  0  0  0
   -7.5537   24.3288  -30.7425 H   0  0  0  0  0  0  0  0  0  0  0  0
   -8.4200   22.1713  -31.6209 H   0  0  0  0  0  0  0  0  0  0  0  0
   -9.0584   19.6920  -31.3251 H   0  0  0  0  0  0  0  0  0  0  0  0
   -9.3808   20.5677  -32.8600 H   0  0  0  0  0  0  0  0  0  0  0  0
   -9.2408   18.7768  -32.8600 H   0  0  0  0  0  0  0  0  0  0  0  0
   -3.5671   21.1697  -30.0585 H   0  0  0  0  0  0  0  0  0  0  0  0
   -1.5124   20.5540  -28.7909 H   0  0  0  0  0  0  0  0  0  0  0  0
    0.8316   17.0390  -29.8510 H   0  0  0  0  0  0  0  0  0  0  0  0
    2.2882   16.4439  -27.4564 H   0  0  0  0  0  0  0  0  0  0  0  0
    2.5896   17.9435  -27.1733 H   0  0  0  0  0  0  0  0  0  0  0  0
   -0.3256   16.5370  -27.2771 H   0  0  0  0  0  0  0  0  0  0  0  0
   -0.4786   18.0528  -26.9628 H   0  0  0  0  0  0  0  0  0  0  0  0
    0.1356   18.7167  -32.3438 H   0  0  0  0  0  0  0  0  0  0  0  0
   -1.9167   19.3241  -33.6156 H   0  0  0  0  0  0  0  0  0  0  0  0
   -3.5092   23.0745  -31.6343 H   0  0  0  0  0  0  0  0  0  0  0  0
  1  2  1  0
  2  3  2  0
  3  4  1  0
  4  5  2  0
  5  6  1  0
  6  7  2  0
  7  8  1  0
  8  9  2  0
  8 10  2  0
  8 11  1  0
 11 12  1  0
 12 13  2  0
 12 14  1  0
 14 15  2  0
 15 16  1  0
 16 17  2  0
 17 18  1  0
 18 19  1  0
 18 20  2  0
 18 21  2  0
 17 22  1  0
 22 23  1  0
 23 24  2  0
 23 25  1  0
 25 26  2  0
 26 27  1  0
 27 28  2  0
 28 29  1  0
 29 30  2  0
 29 31  2  0
 29 32  1  0
 32 33  1  0
 33 34  1  0
 28 35  1  0
 35 36  2  0
 22 37  2  0
  7  2  1  0
 37 14  1  0
 36 25  1  0
 34 32  1  0
  1 38  1  0
  1 39  1  0
  1 40  1  0
  3 41  1  0
  4 42  1  0
  5 43  1  0
  6 44  1  0
 15 45  1  0
 16 46  1  0
 19 47  1  0
 19 48  1  0
 19 49  1  0
 26 50  1  0
 27 51  1  0
 32 52  1  0
 33 53  1  0
 33 54  1  0
 34 55  1  0
 34 56  1  0
 35 57  1  0
 36 58  1  0
 37 59  1  0
M  CHG  1  11  -1
M  END
>  <UniqueID>  (1) 
1

>  <SMILES>  (1) 
Cc1ccccc1S(=O)(=O)[N-]C(=O)c1ccc(S(C)(=O)=O)c(C(=O)c2ccc(S(=O)(=O)C3CC3)cc2)c1

>  <Energy>  (1) 
336.9523789467392

>  <Genealogy>  (1) 
Cc1ccccc1S(=O)(=O)[N-]C(=O)c1ccc(S(C)(=O)=O)c(C(=O)c2ccc(S(=O)(=O)C3CC3)cc2)c1 (protonated)
Cc1ccccc1S(=O)(=O)[N-]C(=O)c1ccc(S(C)(=O)=O)c(C(=O)c2ccc(S(=O)(=O)C3CC3)cc2)c1 (3D coordinates assigned)
Cc1ccccc1S(=O)(=O)[N-]C(=O)c1ccc(S(C)(=O)=O)c(C(=O)c2ccc(S(=O)(=O)C3CC3)cc2)c1 (nonaromatic ring conformer: 336.9523789467392 kcal/mol)

>  <smiles>  (1) 
Cc1ccccc1S(=O)(=O)NC(=O)c1ccc(S(C)(=O)=O)c(C(=O)c2ccc(S(=O)(=O)C3CC3)cc2)c1

>  <score_type>  (1) 
oracle

>  <origin>  (1) 
adgpu

>  <m_score__min__energy>  (1) 
-12.609999999999999

>  <m_primary>  (1) 
energy

$$$$
1:0
     RDKit          3D

 54 57  0  0  0  0  0  0  0  0999 V2000
   -5.9660   25.5930  -28.9170 O   0  0  0  0  0  0  0  0  0  0  0  0
   -5.3940   25.2850  -30.2770 S   0  0  0  0  0  0  0  0  0  0  0  0
   -5.7300   26.4230  -31.2050 O   0  0  0  0  0  0  0  0  0  0  0  0
   -3.6750   25.0930  -30.1430 N   0  0  0  0  0  0  0  0  0  0  0  0
   -3.0750   23.9660  -29.4960 C   0  0  0  0  0  0  0  0  0  0  0  0
   -2.2520   23.0760  -30.2110 C   0  0  0  0  0  0  0  0  0  0  0  0
   -1.7720   21.9120  -29.6010 C   0  0  0  0  0  0  0  0  0  0  0  0
   -2.0850   21.6420  -28.2550 C   0  0  0  0  0  0  0  0  0  0  0  0
   -2.8770   22.5440  -27.5370 C   0  0  0  0  0  0  0  0  0  0  0  0
   -3.3670   23.7090  -28.1490 C   0  0  0  0  0  0  0  0  0  0  0  0
   -4.1720   24.5970  -27.4320 O   0  0  0  0  0  0  0  0  0  0  0  0
   -1.6700   20.3370  -27.6230 C   0  0  0  0  0  0  0  0  0  0  0  0
   -0.4250   19.7510  -28.3050 C   0  0  0  0  0  0  0  0  0  0  0  0
   -0.6240   19.6740  -29.8240 C   0  0  0  0  0  0  0  0  0  0  0  0
   -0.9750   20.9880  -30.3560 N   0  0  0  0  0  0  0  0  0  0  0  0
   -6.0790   23.7760  -30.8800 C   0  0  0  0  0  0  0  0  0  0  0  0
   -7.2180   23.2230  -30.2760 C   0  0  0  0  0  0  0  0  0  0  0  0
   -7.7030   21.9760  -30.6930 C   0  0  0  0  0  0  0  0  0  0  0  0
   -7.0460   21.2640  -31.7090 C   0  0  0  0  0  0  0  0  0  0  0  0
   -7.6210   19.6640  -32.1950 S   0  0  0  0  0  0  0  0  0  0  0  0
   -8.4190   19.7880  -33.4680 O   0  0  0  0  0  0  0  0  0  0  0  0
   -8.5330   19.1220  -31.1280 O   0  0  0  0  0  0  0  0  0  0  0  0
   -6.2990   18.5490  -32.4500 N   0  0  0  0  0  0  0  0  0  0  0  0
   -5.5240   18.9370  -33.6490 C   0  0  0  0  0  0  0  0  0  0  0  0
   -4.6470   17.7860  -34.1510 C   0  0  0  0  0  0  0  0  0  0  0  0
   -5.5040   16.5830  -34.5750 C   0  0  0  0  0  0  0  0  0  0  0  0
   -6.8590   16.5330  -33.8480 C   0  0  0  0  0  0  0  0  0  0  0  0
   -6.7600   17.1410  -32.4410 C   0  0  0  0  0  0  0  0  0  0  0  0
   -5.9110   21.8210  -32.3180 C   0  0  0  0  0  0  0  0  0  0  0  0
   -5.4360   23.0730  -31.9110 C   0  0  0  0  0  0  0  0  0  0  0  0
   -1.9847   23.2967  -31.2550 H   0  0  0  0  0  0  0  0  0  0  0  0
   -3.1182   22.3389  -26.4835 H   0  0  0  0  0  0  0  0  0  0  0  0
   -4.6110   25.3970  -27.8760 H   0  0  0  0  0  0  0  0  0  0  0  0
   -1.4469   20.5100  -26.5598 H   0  0  0  0  0  0  0  0  0  0  0  0
   -2.4961   19.6199  -27.7387 H   0  0  0  0  0  0  0  0  0  0  0  0
    0.4418   20.3921  -28.0865 H   0  0  0  0  0  0  0  0  0  0  0  0
   -0.2556   18.7351  -27.9188 H   0  0  0  0  0  0  0  0  0  0  0  0
    0.3081   19.3288  -30.2951 H   0  0  0  0  0  0  0  0  0  0  0  0
   -1.4399   18.9695  -30.0429 H   0  0  0  0  0  0  0  0  0  0  0  0
   -0.7090   21.2130  -31.3450 H   0  0  0  0  0  0  0  0  0  0  0  0
   -7.7323   23.7701  -29.4722 H   0  0  0  0  0  0  0  0  0  0  0  0
   -8.6027   21.5532  -30.2220 H   0  0  0  0  0  0  0  0  0  0  0  0
   -6.2230   19.2274  -34.4472 H   0  0  0  0  0  0  0  0  0  0  0  0
   -4.8671   19.7764  -33.3770 H   0  0  0  0  0  0  0  0  0  0  0  0
   -4.0602   18.1316  -35.0149 H   0  0  0  0  0  0  0  0  0  0  0  0
   -3.9818   17.4708  -33.3335 H   0  0  0  0  0  0  0  0  0  0  0  0
   -5.6878   16.6461  -35.6577 H   0  0  0  0  0  0  0  0  0  0  0  0
   -4.9504   15.6706  -34.3086 H   0  0  0  0  0  0  0  0  0  0  0  0
   -7.5999   17.0990  -34.4317 H   0  0  0  0  0  0  0  0  0  0  0  0
   -7.1623   15.4801  -33.7508 H   0  0  0  0  0  0  0  0  0  0  0  0
   -7.7537   17.1005  -31.9709 H   0  0  0  0  0  0  0  0  0  0  0  0
   -6.0166   16.5549  -31.8808 H   0  0  0  0  0  0  0  0  0  0  0  0
   -5.3929   21.2717  -33.1179 H   0  0  0  0  0  0  0  0  0  0  0  0
   -4.5534   23.5088  -32.4020 H   0  0  0  0  0  0  0  0  0  0  0  0
  1  2  2  0
  2  3  2  0
  2  4  1  0
  4  5  1  0
  5  6  2  0
  6  7  1  0
  7  8  2  0
  8  9  1  0
  9 10  2  0
 10 11  1  0
  8 12  1  0
 12 13  1  0
 13 14  1  0
 14 15  1  0
  2 16  1  0
 16 17  2  0
 17 18  1  0
 18 19  2  0
 19 20  1  0
 20 21  2  0
 20 22  2  0
 20 23  1  0
 23 24  1  0
 24 25  1  0
 25 26  1  0
 26 27  1  0
 27 28  1  0
 19 29  1  0
 29 30  2  0
 10  5  1  0
 30 16  1  0
 15  7  1  0
 28 23  1  0
  6 31  1  0
  9 32  1  0
 11 33  1  0
 12 34  1  0
 12 35  1  0
 13 36  1  0
 13 37  1  0
 14 38  1  0
 14 39  1  0
 15 40  1  0
 17 41  1  0
 18 42  1  0
 24 43  1  0
 24 44  1  0
 25 45  1  0
 25 46  1  0
 26 47  1  0
 26 48  1  0
 27 49  1  0
 27 50  1  0
 28 51  1  0
 28 52  1  0
 29 53  1  0
 30 54  1  0
M  CHG  1   4  -1
M  END
>  <UniqueID>  (2) 
2

>  <SMILES>  (2) 
O=S(=O)([N-]c1cc2c(cc1O)CCCN2)c1ccc(S(=O)(=O)N2CCCCC2)cc1

>  <Energy>  (2) 
65.87379865864489

>  <Genealogy>  (2) 
O=S(=O)([N-]c1cc2c(cc1O)CCCN2)c1ccc(S(=O)(=O)N2CCCCC2)cc1 (protonated)
O=S(=O)([N-]c1cc2c(cc1O)CCCN2)c1ccc(S(=O)(=O)N2CCCCC2)cc1 (3D coordinates assigned)
O=S(=O)([N-]c1cc2c(cc1O)CCCN2)c1ccc(S(=O)(=O)N2CCCCC2)cc1 (nonaromatic ring conformer: 65.87379865864489 kcal/mol)

>  <smiles>  (2) 
O=S(=O)(Nc1cc2c(cc1O)CCCN2)c1ccc(S(=O)(=O)N2CCCCC2)cc1

>  <score_type>  (2) 
oracle

>  <origin>  (2) 
adgpu

>  <m_score__min__energy>  (2) 
-12.630000000000001

>  <m_primary>  (2) 
energy

$$$$
2:0
     RDKit          3D

 62 65  0  0  0  0  0  0  0  0999 V2000
   -1.5030   26.0360  -26.9240 C   0  0  0  0  0  0  0  0  0  0  0  0
   -0.9320   25.4690  -28.1800 C   0  0  0  0  0  0  0  0  0  0  0  0
    0.2850   25.1450  -28.2200 O   0  0  0  0  0  0  0  0  0  0  0  0
   -1.7740   25.3090  -29.3290 N   0  0  0  0  0  0  0  0  0  0  0  0
   -2.7460   24.2700  -29.5210 C   0  0  0  0  0  0  0  0  0  0  0  0
   -2.3040   22.9540  -29.6960 C   0  0  0  0  0  0  0  0  0  0  0  0
   -3.2220   21.9190  -29.8950 C   0  0  0  0  0  0  0  0  0  0  0  0
   -4.5890   22.1980  -29.9570 C   0  0  0  0  0  0  0  0  0  0  0  0
   -5.0410   23.5150  -29.8200 C   0  0  0  0  0  0  0  0  0  0  0  0
   -6.7950   23.8880  -29.9330 S   0  0  0  0  0  0  0  0  0  0  0  0
   -7.2710   22.2530  -30.5920 C   0  0  0  0  0  0  0  0  0  0  0  0
   -7.2430   22.2770  -32.0880 C   0  0  0  0  0  0  0  0  0  0  0  0
   -7.7380   23.2540  -32.7120 O   0  0  0  0  0  0  0  0  0  0  0  0
   -6.7010   21.1730  -32.8180 N   0  0  0  0  0  0  0  0  0  0  0  0
   -5.2870   20.9830  -33.0310 C   0  0  0  0  0  0  0  0  0  0  0  0
   -4.4130   22.0860  -33.0910 C   0  0  0  0  0  0  0  0  0  0  0  0
   -3.0440   21.9010  -33.2850 C   0  0  0  0  0  0  0  0  0  0  0  0
   -2.5110   20.6130  -33.4310 C   0  0  0  0  0  0  0  0  0  0  0  0
   -1.0970   20.4280  -33.6300 N   0  0  0  0  0  0  0  0  0  0  0  0
   -0.2330   20.1930  -32.4650 C   0  0  0  0  0  0  0  0  0  0  0  0
    1.2430   20.2920  -32.8490 C   0  0  0  0  0  0  0  0  0  0  0  0
    1.4090   21.2850  -33.8350 O   0  0  0  0  0  0  0  0  0  0  0  0
    0.9160   20.8030  -35.0730 C   0  0  0  0  0  0  0  0  0  0  0  0
   -0.5570   20.3420  -34.9960 C   0  0  0  0  0  0  0  0  0  0  0  0
   -3.3730   19.5090  -33.3720 C   0  0  0  0  0  0  0  0  0  0  0  0
   -4.7520   19.6810  -33.1780 C   0  0  0  0  0  0  0  0  0  0  0  0
   -5.6070   18.5270  -33.1510 N   0  0  0  0  0  0  0  0  0  0  0  0
   -5.2870   17.3750  -33.9930 C   0  0  0  0  0  0  0  0  0  0  0  0
   -6.5690   16.5850  -34.2830 C   0  0  0  0  0  0  0  0  0  0  0  0
   -7.2410   16.2610  -33.0800 O   0  0  0  0  0  0  0  0  0  0  0  0
   -7.6770   17.4430  -32.4330 C   0  0  0  0  0  0  0  0  0  0  0  0
   -6.4810   18.2990  -32.0000 C   0  0  0  0  0  0  0  0  0  0  0  0
   -4.1230   24.5490  -29.5970 C   0  0  0  0  0  0  0  0  0  0  0  0
   -1.0237   25.5601  -26.0558 H   0  0  0  0  0  0  0  0  0  0  0  0
   -1.3203   27.1203  -26.8950 H   0  0  0  0  0  0  0  0  0  0  0  0
   -2.5860   25.8457  -26.8950 H   0  0  0  0  0  0  0  0  0  0  0  0
   -1.2267   22.7325  -29.6768 H   0  0  0  0  0  0  0  0  0  0  0  0
   -2.8673   20.8834  -30.0029 H   0  0  0  0  0  0  0  0  0  0  0  0
   -5.3103   21.3824  -30.1135 H   0  0  0  0  0  0  0  0  0  0  0  0
   -6.5647   21.4931  -30.2265 H   0  0  0  0  0  0  0  0  0  0  0  0
   -8.2888   22.0093  -30.2535 H   0  0  0  0  0  0  0  0  0  0  0  0
   -7.3930   20.5330  -33.2670 H   0  0  0  0  0  0  0  0  0  0  0  0
   -4.8144   23.1045  -32.9837 H   0  0  0  0  0  0  0  0  0  0  0  0
   -2.3764   22.7744  -33.3238 H   0  0  0  0  0  0  0  0  0  0  0  0
   -0.4555   20.9458  -31.6944 H   0  0  0  0  0  0  0  0  0  0  0  0
   -0.4284   19.1804  -32.0823 H   0  0  0  0  0  0  0  0  0  0  0  0
    1.8356   20.5555  -31.9605 H   0  0  0  0  0  0  0  0  0  0  0  0
    1.5835   19.3237  -33.2445 H   0  0  0  0  0  0  0  0  0  0  0  0
    0.9932   21.6079  -35.8187 H   0  0  0  0  0  0  0  0  0  0  0  0
    1.5215   19.9277  -35.3508 H   0  0  0  0  0  0  0  0  0  0  0  0
   -1.1625   20.9797  -35.6568 H   0  0  0  0  0  0  0  0  0  0  0  0
   -0.5972   19.2881  -35.3086 H   0  0  0  0  0  0  0  0  0  0  0  0
   -2.9627   18.4940  -33.4793 H   0  0  0  0  0  0  0  0  0  0  0  0
   -4.8481   17.7229  -34.9397 H   0  0  0  0  0  0  0  0  0  0  0  0
   -4.5662   16.7277  -33.4720 H   0  0  0  0  0  0  0  0  0  0  0  0
   -7.2329   17.1936  -34.9146 H   0  0  0  0  0  0  0  0  0  0  0  0
   -6.2997   15.6519  -34.7996 H   0  0  0  0  0  0  0  0  0  0  0  0
   -8.3038   18.0233  -33.1260 H   0  0  0  0  0  0  0  0  0  0  0  0
   -8.2531   17.1636  -31.5385 H   0  0  0  0  0  0  0  0  0  0  0  0
   -6.8406   19.2646  -31.6148 H   0  0  0  0  0  0  0  0  0  0  0  0
   -5.9211   17.7768  -31.2102 H   0  0  0  0  0  0  0  0  0  0  0  0
   -4.4798   25.5830  -29.4808 H   0  0  0  0  0  0  0  0  0  0  0  0
  1  2  1  0
  2  3  2  0
  2  4  1  0
  4  5  1  0
  5  6  2  0
  6  7  1  0
  7  8  2  0
  8  9  1  0
  9 10  1  0
 10 11  1  0
 11 12  1  0
 12 13  2  0
 12 14  1  0
 14 15  1  0
 15 16  2  0
 16 17  1  0
 17 18  2  0
 18 19  1  0
 19 20  1  0
 20 21  1  0
 21 22  1  0
 22 23  1  0
 23 24  1  0
 18 25  1  0
 25 26  2  0
 26 27  1  0
 27 28  1  0
 28 29  1  0
 29 30  1  0
 30 31  1  0
 31 32  1  0
  9 33  2  0
 33  5  1  0
 26 15  1  0
 32 27  1  0
 24 19  1  0
  1 34  1  0
  1 35  1  0
  1 36  1  0
  6 37  1  0
  7 38  1  0
  8 39  1  0
 11 40  1  0
 11 41  1  0
 14 42  1  0
 16 43  1  0
 17 44  1  0
 20 45  1  0
 20 46  1  0
 21 47  1  0
 21 48  1  0
 23 49  1  0
 23 50  1  0
 24 51  1  0
 24 52  1  0
 25 53  1  0
 28 54  1  0
 28 55  1  0
 29 56  1  0
 29 57  1  0
 31 58  1  0
 31 59  1  0
 32 60  1  0
 32 61  1  0
 33 62  1  0
M  CHG  1   4  -1
M  END
>  <UniqueID>  (3) 
3

>  <SMILES>  (3) 
CC(=O)[N-]c1cccc(SCC(=O)Nc2ccc(N3CCOCC3)cc2N2CCOCC2)c1

>  <Energy>  (3) 
83.7669823000039

>  <Genealogy>  (3) 
CC(=O)[N-]c1cccc(SCC(=O)Nc2ccc(N3CCOCC3)cc2N2CCOCC2)c1 (protonated)
CC(=O)[N-]c1cccc(SCC(=O)Nc2ccc(N3CCOCC3)cc2N2CCOCC2)c1 (3D coordinates assigned)
CC(=O)[N-]c1cccc(SCC(=O)Nc2ccc(N3CCOCC3)cc2N2CCOCC2)c1 (nonaromatic ring conformer: 83.7669823000039 kcal/mol)

>  <smiles>  (3) 
CC(=O)Nc1cccc(SCC(=O)Nc2ccc(N3CCOCC3)cc2N2CCOCC2)c1

>  <score_type>  (3) 
oracle

>  <origin>  (3) 
adgpu

>  <m_score__min__energy>  (3) 
-10.43

>  <m_primary>  (3) 
energy

$$$$
3:0
     RDKit          3D

 46 48  0  0  1  0  0  0  0  0999 V2000
   -2.9120   20.2540  -33.3070 C   0  0  0  0  0  0  0  0  0  0  0  0
   -3.4200   21.2920  -32.5250 O   0  0  0  0  0  0  0  0  0  0  0  0
   -4.7670   21.5410  -32.3170 C   0  0  0  0  0  0  0  0  0  0  0  0
   -5.7540   20.5750  -32.5830 C   0  0  0  0  0  0  0  0  0  0  0  0
   -7.0570   20.9020  -32.3500 C   0  0  0  0  0  0  0  0  0  0  0  0
   -8.0510   19.9890  -32.5970 C   0  0  0  0  0  0  0  0  0  0  0  0
   -7.8140   18.8630  -33.0280 N   0  0  0  0  0  0  0  0  0  0  0  0
   -6.7020   18.1560  -33.3810 C   0  0  0  0  0  0  0  0  0  0  0  0
   -6.0670   18.2720  -34.6440 C   0  0  0  0  0  0  0  0  0  0  0  0
   -5.0080   17.4270  -34.9370 C   0  0  0  0  0  0  0  0  0  0  0  0
   -4.5370   16.4830  -34.0700 C   0  0  0  0  0  0  0  0  0  0  0  0
   -3.4030   15.5730  -34.3710 C   0  0  0  0  0  0  0  0  0  0  0  0
   -5.1560   16.3730  -32.8420 C   0  0  0  0  0  0  0  0  0  0  0  0
   -6.2170   17.1770  -32.4780 C   0  0  0  0  0  0  0  0  0  0  0  0
   -9.3370   20.3480  -32.3550 N   0  0  0  0  0  0  0  0  0  0  0  0
   -9.6930   21.5510  -31.8860 C   0  0  0  0  0  0  0  0  0  0  0  0
   -8.7390   22.4600  -31.6370 N   0  0  0  0  0  0  0  0  0  0  0  0
   -7.4600   22.1200  -31.8720 C   0  0  0  0  0  0  0  0  0  0  0  0
   -6.5040   23.0670  -31.6100 C   0  0  0  0  0  0  0  0  0  0  0  0
   -5.1960   22.7340  -31.8450 C   0  0  0  0  0  0  0  0  0  0  0  0
   -4.2360   23.7010  -31.5760 O   0  0  0  0  0  0  0  0  0  0  0  0
   -4.1510   24.3950  -30.3810 C   0  0  0  0  0  0  0  0  0  0  0  0
   -4.2440   25.6630  -30.4620 O   0  0  0  0  0  0  0  0  0  0  0  0
   -3.9730   23.7390  -29.1330 N   0  0  0  0  0  0  0  0  0  0  0  0
   -3.8630   22.2990  -28.9990 C   0  0  0  0  0  0  0  0  0  0  0  0
   -3.8950   24.5370  -27.9290 C   0  0  0  0  0  0  0  0  0  0  0  0
   -2.5230   19.4592  -32.6536 H   0  0  0  0  0  0  0  0  0  0  0  0
   -3.7130   19.8475  -33.9420 H   0  0  0  0  0  0  0  0  0  0  0  0
   -2.0995   20.6371  -33.9420 H   0  0  0  0  0  0  0  0  0  0  0  0
   -5.4818   19.5815  -32.9690 H   0  0  0  0  0  0  0  0  0  0  0  0
   -6.4083   19.0180  -35.3767 H   0  0  0  0  0  0  0  0  0  0  0  0
   -4.5217   17.5218  -35.9191 H   0  0  0  0  0  0  0  0  0  0  0  0
   -2.9590   15.2167  -33.4298 H   0  0  0  0  0  0  0  0  0  0  0  0
   -3.7671   14.7136  -34.9531 H   0  0  0  0  0  0  0  0  0  0  0  0
   -2.6428   16.1146  -34.9531 H   0  0  0  0  0  0  0  0  0  0  0  0
   -4.7915   15.6189  -32.1289 H   0  0  0  0  0  0  0  0  0  0  0  0
   -6.6851   17.0584  -31.4897 H   0  0  0  0  0  0  0  0  0  0  0  0
  -10.1260   19.6740  -32.5320 H   0  0  0  0  0  0  0  0  0  0  0  0
  -10.7519   21.7898  -31.7078 H   0  0  0  0  0  0  0  0  0  0  0  0
   -6.7777   24.0601  -31.2243 H   0  0  0  0  0  0  0  0  0  0  0  0
   -3.8425   22.0305  -27.9325 H   0  0  0  0  0  0  0  0  0  0  0  0
   -4.7271   21.8188  -29.4815 H   0  0  0  0  0  0  0  0  0  0  0  0
   -2.9360   21.9556  -29.4815 H   0  0  0  0  0  0  0  0  0  0  0  0
   -3.9592   23.8802  -27.0490 H   0  0  0  0  0  0  0  0  0  0  0  0
   -2.9394   25.0815  -27.9112 H   0  0  0  0  0  0  0  0  0  0  0  0
   -4.7271   25.2562  -27.9112 H   0  0  0  0  0  0  0  0  0  0  0  0
  1  2  1  0
  2  3  1  0
  3  4  2  0
  4  5  1  0
  5  6  1  0
  6  7  2  0
  7  8  1  0
  8  9  2  0
  9 10  1  0
 10 11  2  0
 11 12  1  0
 11 13  1  0
 13 14  2  0
  6 15  1  0
 15 16  1  0
 16 17  2  0
 17 18  1  0
 18 19  1  0
 19 20  2  0
 20 21  1  0
 21 22  1  0
 22 23  2  0
 22 24  1  0
 24 25  1  0
 24 26  1  0
 20  3  1  0
 18  5  2  0
 14  8  1  0
  1 27  1  0
  1 28  1  0
  1 29  1  0
  4 30  1  0
  9 31  1  0
 10 32  1  0
 12 33  1  0
 12 34  1  0
 12 35  1  0
 13 36  1  0
 14 37  1  0
 15 38  1  0
 16 39  1  0
 19 40  1  0
 25 41  1  0
 25 42  1  0
 25 43  1  0
 26 44  1  0
 26 45  1  0
 26 46  1  0
M  END
>  <smiles>  (4) 
COc1cc2c(=Nc3ccc(C)cc3)[nH]cnc2cc1OC(=O)N(C)C

>  <score_type>  (4) 
oracle

>  <origin>  (4) 
adgpu

>  <m_score__min__energy>  (4) 
-8.6500000000000004

>  <m_primary>  (4) 
energy

$$$$
4:0
     RDKit          3D

 55 58  0  0  0  0  0  0  0  0999 V2000
   -5.9130   19.3120  -34.3920 O   0  0  0  0  0  0  0  0  0  0  0  0
   -5.1660   19.6730  -33.4420 C   0  0  0  0  0  0  0  0  0  0  0  0
   -5.7560   20.1040  -32.2050 N   0  0  0  0  0  0  0  0  0  0  0  0
   -7.1170   20.5520  -32.1130 C   0  0  0  0  0  0  0  0  0  0  0  0
   -8.1510   19.6300  -32.3400 C   0  0  0  0  0  0  0  0  0  0  0  0
   -9.4860   20.0370  -32.2910 C   0  0  0  0  0  0  0  0  0  0  0  0
   -9.8020   21.3650  -32.0010 C   0  0  0  0  0  0  0  0  0  0  0  0
   -8.7850   22.2870  -31.7460 C   0  0  0  0  0  0  0  0  0  0  0  0
   -7.4370   21.8910  -31.7860 C   0  0  0  0  0  0  0  0  0  0  0  0
   -6.4070   22.8320  -31.4350 N   0  0  0  0  0  0  0  0  0  0  0  0
   -5.0980   22.7540  -32.0870 C   0  0  0  0  0  0  0  0  0  0  0  0
   -4.0410   23.4170  -31.2000 C   0  0  0  0  0  0  0  0  0  0  0  0
   -4.4380   24.7290  -30.8470 O   0  0  0  0  0  0  0  0  0  0  0  0
   -5.5930   24.6750  -30.0310 C   0  0  0  0  0  0  0  0  0  0  0  0
   -6.7850   24.1000  -30.8040 C   0  0  0  0  0  0  0  0  0  0  0  0
   -3.6940   19.6280  -33.6090 C   0  0  0  0  0  0  0  0  0  0  0  0
   -3.0580   18.4730  -34.1010 C   0  0  0  0  0  0  0  0  0  0  0  0
   -1.6680   18.4310  -34.2310 C   0  0  0  0  0  0  0  0  0  0  0  0
   -0.8900   19.5360  -33.8670 C   0  0  0  0  0  0  0  0  0  0  0  0
    0.8610   19.4650  -34.0510 S   0  0  0  0  0  0  0  0  0  0  0  0
    1.3000   18.0390  -33.8650 O   0  0  0  0  0  0  0  0  0  0  0  0
    1.5220   20.3150  -33.0020 O   0  0  0  0  0  0  0  0  0  0  0  0
    1.2880   20.0260  -35.6550 N   0  0  0  0  0  0  0  0  0  0  0  0
    0.2380   20.8940  -36.2340 C   0  0  0  0  0  0  0  0  0  0  0  0
    0.5690   22.3920  -36.1090 C   0  0  0  0  0  0  0  0  0  0  0  0
    1.3010   22.6360  -34.9300 O   0  0  0  0  0  0  0  0  0  0  0  0
    2.5990   22.0750  -35.0330 C   0  0  0  0  0  0  0  0  0  0  0  0
    2.6170   20.6630  -35.6710 C   0  0  0  0  0  0  0  0  0  0  0  0
   -1.5140   20.6880  -33.3720 C   0  0  0  0  0  0  0  0  0  0  0  0
   -2.9060   20.7320  -33.2400 C   0  0  0  0  0  0  0  0  0  0  0  0
   -5.2410   19.9140  -31.3160 H   0  0  0  0  0  0  0  0  0  0  0  0
   -7.9080   18.5796  -32.5580 H   0  0  0  0  0  0  0  0  0  0  0  0
  -10.2893   19.3100  -32.4812 H   0  0  0  0  0  0  0  0  0  0  0  0
  -10.8538   21.6858  -31.9733 H   0  0  0  0  0  0  0  0  0  0  0  0
   -9.0406   23.3310  -31.5121 H   0  0  0  0  0  0  0  0  0  0  0  0
   -4.8315   21.6989  -32.2475 H   0  0  0  0  0  0  0  0  0  0  0  0
   -5.1409   23.2748  -33.0549 H   0  0  0  0  0  0  0  0  0  0  0  0
   -3.9110   22.8203  -30.2851 H   0  0  0  0  0  0  0  0  0  0  0  0
   -3.0941   23.4711  -31.7571 H   0  0  0  0  0  0  0  0  0  0  0  0
   -5.3879   24.0365  -29.1590 H   0  0  0  0  0  0  0  0  0  0  0  0
   -5.8434   25.6969  -29.7099 H   0  0  0  0  0  0  0  0  0  0  0  0
   -7.6204   23.9269  -30.1097 H   0  0  0  0  0  0  0  0  0  0  0  0
   -7.0899   24.8147  -31.5826 H   0  0  0  0  0  0  0  0  0  0  0  0
   -3.6598   17.5972  -34.3852 H   0  0  0  0  0  0  0  0  0  0  0  0
   -1.1822   17.5247  -34.6215 H   0  0  0  0  0  0  0  0  0  0  0  0
    0.1251   20.6464  -37.2998 H   0  0  0  0  0  0  0  0  0  0  0  0
   -0.6904   20.7112  -35.6730 H   0  0  0  0  0  0  0  0  0  0  0  0
    1.1664   22.7050  -36.9780 H   0  0  0  0  0  0  0  0  0  0  0  0
   -0.3703   22.9633  -36.0708 H   0  0  0  0  0  0  0  0  0  0  0  0
    3.2183   22.7429  -35.6497 H   0  0  0  0  0  0  0  0  0  0  0  0
    2.9869   21.9707  -34.0090 H   0  0  0  0  0  0  0  0  0  0  0  0
    2.9551   20.7502  -36.7141 H   0  0  0  0  0  0  0  0  0  0  0  0
    3.2990   20.0346  -35.0794 H   0  0  0  0  0  0  0  0  0  0  0  0
   -0.9080   21.5604  -33.0863 H   0  0  0  0  0  0  0  0  0  0  0  0
   -3.3879   21.6381  -32.8441 H   0  0  0  0  0  0  0  0  0  0  0  0
  1  2  2  0
  2  3  1  0
  3  4  1  0
  4  5  2  0
  5  6  1  0
  6  7  2  0
  7  8  1  0
  8  9  2  0
  9 10  1  0
 10 11  1  0
 11 12  1  0
 12 13  1  0
 13 14  1  0
 14 15  1  0
  2 16  1  0
 16 17  2  0
 17 18  1  0
 18 19  2  0
 19 20  1  0
 20 21  2  0
 20 22  2  0
 20 23  1  0
 23 24  1  0
 24 25  1  0
 25 26  1  0
 26 27  1  0
 27 28  1  0
 19 29  1  0
 29 30  2  0
  9  4  1  0
 15 10  1  0
 30 16  1  0
 28 23  1  0
  3 31  1  0
  5 32  1  0
  6 33  1  0
  7 34  1  0
  8 35  1  0
 11 36  1  0
 11 37  1  0
 12 38  1  0
 12 39  1  0
 14 40  1  0
 14 41  1  0
 15 42  1  0
 15 43  1  0
 17 44  1  0
 18 45  1  0
 24 46  1  0
 24 47  1  0
 25 48  1  0
 25 49  1  0
 27 50  1  0
 27 51  1  0
 28 52  1  0
 28 53  1  0
 29 54  1  0
 30 55  1  0
M  END
>  <UniqueID>  (5) 
4

>  <SMILES>  (5) 
O=C(Nc1ccccc1N1CCOCC1)c1ccc(S(=O)(=O)N2CCOCC2)cc1

>  <Energy>  (5) 
78.50107461470898

>  <Genealogy>  (5) 
O=C(Nc1ccccc1N1CCOCC1)c1ccc(S(=O)(=O)N2CCOCC2)cc1 (3D coordinates assigned)
O=C(Nc1ccccc1N1CCOCC1)c1ccc(S(=O)(=O)N2CCOCC2)cc1 (nonaromatic ring conformer: 78.50107461470898 kcal/mol)

>  <smiles>  (5) 
O=C(Nc1ccccc1N1CCOCC1)c1ccc(S(=O)(=O)N2CCOCC2)cc1

>  <score_type>  (5) 
oracle

>  <origin>  (5) 
adgpu

>  <m_score__min__energy>  (5) 
-9.5

>  <m_primary>  (5) 
energy

$$$$
5:0
     RDKit          3D

 49 51  0  0  0  0  0  0  0  0999 V2000
   -8.0767   24.2442  -32.6415 H   0  0  0  0  0  0  0  0  0  0  0  0
   -7.1760   23.7850  -32.2080 C   0  0  0  0  0  0  0  0  0  0  0  0
   -6.5470   22.6950  -32.6940 N   0  0  0  0  0  0  0  0  0  0  0  0
   -5.5110   22.4930  -31.8510 C   0  0  0  0  0  0  0  0  0  0  0  0
   -4.5230   21.3650  -32.0640 C   0  0  0  0  0  0  0  0  0  0  0  0
   -4.4430   20.8342  -31.1039 H   0  0  0  0  0  0  0  0  0  0  0  0
   -5.0280   20.3680  -33.1100 C   0  0  0  0  0  0  0  0  0  0  0  0
   -5.4692   19.4970  -32.6034 H   0  0  0  0  0  0  0  0  0  0  0  0
   -5.7901   20.8511  -33.7392 H   0  0  0  0  0  0  0  0  0  0  0  0
   -4.1876   20.0394  -33.7392 H   0  0  0  0  0  0  0  0  0  0  0  0
   -3.1150   21.8680  -32.4010 C   0  0  0  0  0  0  0  0  0  0  0  0
   -2.5634   22.0651  -31.4699 H   0  0  0  0  0  0  0  0  0  0  0  0
   -2.5834   21.1042  -32.9875 H   0  0  0  0  0  0  0  0  0  0  0  0
   -3.1877   22.7958  -32.9875 H   0  0  0  0  0  0  0  0  0  0  0  0
   -5.4690   23.4250  -30.8660 N   0  0  0  0  0  0  0  0  0  0  0  0
   -4.5450   23.5550  -29.7830 C   0  0  0  0  0  0  0  0  0  0  0  0
   -4.5810   22.6550  -28.7130 C   0  0  0  0  0  0  0  0  0  0  0  0
   -5.3243   21.8444  -28.6936 H   0  0  0  0  0  0  0  0  0  0  0  0
   -3.6640   22.7960  -27.6700 C   0  0  0  0  0  0  0  0  0  0  0  0
   -3.6876   22.0990  -26.8193 H   0  0  0  0  0  0  0  0  0  0  0  0
   -2.7420   23.7940  -27.7050 N   0  0  0  0  0  0  0  0  0  0  0  0
   -2.6720   24.6770  -28.7430 C   0  0  0  0  0  0  0  0  0  0  0  0
   -1.7820   25.6250  -28.7590 N   0  0  0  0  0  0  0  0  0  0  0  0
   -0.8590   25.9190  -27.6990 C   0  0  0  0  0  0  0  0  0  0  0  0
   -1.2350   26.8570  -26.7320 C   0  0  0  0  0  0  0  0  0  0  0  0
   -2.2291   27.3253  -26.7819 H   0  0  0  0  0  0  0  0  0  0  0  0
   -0.3570   27.2020  -25.7050 C   0  0  0  0  0  0  0  0  0  0  0  0
   -0.6619   27.9392  -24.9477 H   0  0  0  0  0  0  0  0  0  0  0  0
    0.9050   26.6160  -25.6350 C   0  0  0  0  0  0  0  0  0  0  0  0
    1.5967   26.9055  -24.8302 H   0  0  0  0  0  0  0  0  0  0  0  0
    1.3020   25.6580  -26.5840 C   0  0  0  0  0  0  0  0  0  0  0  0
    2.6450   25.0440  -26.4730 C   0  0  0  0  0  0  0  0  0  0  0  0
    3.2520   25.0770  -25.3670 O   0  0  0  0  0  0  0  0  0  0  0  0
    3.2780   24.4480  -27.6150 N   0  0  0  0  0  0  0  0  0  0  0  0
    2.8650   24.5750  -28.5650 H   0  0  0  0  0  0  0  0  0  0  0  0
    4.5270   23.7050  -27.4950 C   0  0  0  0  0  0  0  0  0  0  0  0
    4.7677   23.5618  -26.4313 H   0  0  0  0  0  0  0  0  0  0  0  0
    4.4185   22.7245  -27.9816 H   0  0  0  0  0  0  0  0  0  0  0  0
    5.3369   24.2683  -27.9816 H   0  0  0  0  0  0  0  0  0  0  0  0
    0.3930   25.2650  -27.5910 C   0  0  0  0  0  0  0  0  0  0  0  0
    0.7290   24.2100  -28.4490 O   0  0  0  0  0  0  0  0  0  0  0  0
    0.2250   22.8910  -28.2710 C   0  0  0  0  0  0  0  0  0  0  0  0
    0.1415   22.6723  -27.1962 H   0  0  0  0  0  0  0  0  0  0  0  0
   -0.7670   22.8112  -28.7396 H   0  0  0  0  0  0  0  0  0  0  0  0
    0.9110   22.1700  -28.7396 H   0  0  0  0  0  0  0  0  0  0  0  0
   -3.5630   24.5520  -29.8150 C   0  0  0  0  0  0  0  0  0  0  0  0
   -3.4921   25.2323  -30.6765 H   0  0  0  0  0  0  0  0  0  0  0  0
   -6.5170   24.2340  -31.0860 C   0  0  0  0  0  0  0  0  0  0  0  0
   -6.8001   25.1044  -30.4759 H   0  0  0  0  0  0  0  0  0  0  0  0
  1  2  1  0
  2  3  1  0
  3  4  2  0
  4  5  1  0
  5  6  1  0
  5  7  1  0
  7  8  1  0
  7  9  1  0
  7 10  1  0
  5 11  1  0
 11 12  1  0
 11 13  1  0
 11 14  1  0
  4 15  1  0
 15 16  1  0
 16 17  1  0
 17 18  1  0
 17 19  2  0
 19 20  1  0
 19 21  1  0
 21 22  1  0
 22 23  2  0
 23 24  1  0
 24 25  2  0
 25 26  1  0
 25 27  1  0
 27 28  1  0
 27 29  2  0
 29 30  1  0
 29 31  1  0
 31 32  1  0
 32 33  2  0
 32 34  1  0
 34 35  1  0
 34 36  1  0
 36 37  1  0
 36 38  1  0
 36 39  1  0
 31 40  2  0
 40 41  1  0
 41 42  1  0
 42 43  1  0
 42 44  1  0
 42 45  1  0
 22 46  1  0
 46 47  1  0
 15 48  1  0
 48 49  1  0
 48  2  2  0
 46 16  2  0
 40 24  1  0
M  CHG  1  21  -1
M  END
>  <UniqueID>  (6) 
5

>  <SMILES>  (6) 
CNC(=O)c1cccc(/N=c2/cc(-n3ccnc3C(C)C)cc[n-]2)c1OC

>  <Energy>  (6) 
98.35399445648505

>  <Genealogy>  (6) 
CNC(=O)c1cccc(N=c2cc(-n3ccnc3C(C)C)cc[n-]2)c1OC (protonated)
CNC(=O)c1cccc(/N=c2/cc(-n3ccnc3C(C)C)cc[n-]2)c1OC (cis-trans isomerization)
CNC(=O)c1cccc(/N=c2/cc(-n3ccnc3C(C)C)cc[n-]2)c1OC (3D coordinates assigned)
CNC(=O)c1cccc(/N=c2/cc(-n3ccnc3C(C)C)cc[n-]2)c1OC (optimized conformer: 98.35399445648505 kcal/mol)

>  <smiles>  (6) 
CNC(=O)c1cccc(N=c2cc(-n3ccnc3C(C)C)cc[nH]2)c1OC

>  <score_type>  (6) 
oracle

>  <origin>  (6) 
adgpu

>  <m_score__min__energy>  (6) 
-8.1099999999999994

>  <m_primary>  (6) 
energy

$$$$
6:0
     RDKit          3D

 29 30  0  0  0  0  0  0  0  0999 V2000
   -7.8880   20.5900  -32.3750 C   0  0  0  0  0  0  0  0  0  0  0  0
   -7.0950   21.7930  -31.9560 C   0  0  0  0  0  0  0  0  0  0  0  0
   -5.7510   21.9220  -32.3410 C   0  0  0  0  0  0  0  0  0  0  0  0
   -5.0210   23.0590  -31.9820 C   0  0  0  0  0  0  0  0  0  0  0  0
   -5.6310   24.0900  -31.2480 C   0  0  0  0  0  0  0  0  0  0  0  0
   -4.8460   25.3060  -30.8380 C   0  0  0  0  0  0  0  0  0  0  0  0
   -3.5010   24.9250  -30.4250 N   0  0  0  0  0  0  0  0  0  0  0  0
   -3.2110   24.2140  -29.2150 C   0  0  0  0  0  0  0  0  0  0  0  0
   -4.1590   23.7170  -28.5460 O   0  0  0  0  0  0  0  0  0  0  0  0
   -1.8100   24.0500  -28.7440 C   0  0  0  0  0  0  0  0  0  0  0  0
   -1.3400   22.7810  -28.3660 C   0  0  0  0  0  0  0  0  0  0  0  0
   -0.0630   22.6200  -27.9350 N   0  0  0  0  0  0  0  0  0  0  0  0
    0.7870   23.6730  -27.8570 C   0  0  0  0  0  0  0  0  0  0  0  0
    1.9660   23.5020  -27.4540 O   0  0  0  0  0  0  0  0  0  0  0  0
    0.3660   24.9120  -28.2130 N   0  0  0  0  0  0  0  0  0  0  0  0
   -0.9020   25.1290  -28.6510 C   0  0  0  0  0  0  0  0  0  0  0  0
   -1.2440   26.2990  -28.9670 O   0  0  0  0  0  0  0  0  0  0  0  0
   -6.9770   23.9650  -30.8750 C   0  0  0  0  0  0  0  0  0  0  0  0
   -7.7080   22.8270  -31.2340 C   0  0  0  0  0  0  0  0  0  0  0  0
   -8.2412   20.0543  -31.4815 H   0  0  0  0  0  0  0  0  0  0  0  0
   -8.7520   20.9112  -32.9753 H   0  0  0  0  0  0  0  0  0  0  0  0
   -7.2522   19.9226  -32.9753 H   0  0  0  0  0  0  0  0  0  0  0  0
   -5.2704   21.1252  -32.9275 H   0  0  0  0  0  0  0  0  0  0  0  0
   -3.9645   23.1467  -32.2755 H   0  0  0  0  0  0  0  0  0  0  0  0
   -4.7813   25.9999  -31.6890 H   0  0  0  0  0  0  0  0  0  0  0  0
   -5.3553   25.7922  -29.9929 H   0  0  0  0  0  0  0  0  0  0  0  0
   -2.0118   21.9116  -28.4197 H   0  0  0  0  0  0  0  0  0  0  0  0
   -7.4610   24.7660  -30.2969 H   0  0  0  0  0  0  0  0  0  0  0  0
   -8.7671   22.7433  -30.9488 H   0  0  0  0  0  0  0  0  0  0  0  0
  1  2  1  0
  2  3  2  0
  3  4  1  0
  4  5  2  0
  5  6  1  0
  6  7  1  0
  7  8  1  0
  8  9  2  0
  8 10  1  0
 10 11  2  0
 11 12  1  0
 12 13  1  0
 13 14  2  0
 13 15  1  0
 15 16  1  0
 16 17  2  0
  5 18  1  0
 18 19  2  0
 19  2  1  0
 16 10  1  0
  1 20  1  0
  1 21  1  0
  1 22  1  0
  3 23  1  0
  4 24  1  0
  6 25  1  0
  6 26  1  0
 11 27  1  0
 18 28  1  0
 19 29  1  0
M  CHG  3   7  -1  12  -1  15  -1
M  END
>  <UniqueID>  (7) 
6

>  <SMILES>  (7) 
Cc1ccc(C[N-]C(=O)c2c[n-]c(=O)[n-]c2=O)cc1

>  <Energy>  (7) 
30.446051316641558

>  <Genealogy>  (7) 
Cc1ccc(C[N-]C(=O)c2c[n-]c(=O)[n-]c2=O)cc1 (protonated)
Cc1ccc(C[N-]C(=O)c2c[n-]c(=O)[n-]c2=O)cc1 (3D coordinates assigned)
Cc1ccc(C[N-]C(=O)c2c[n-]c(=O)[n-]c2=O)cc1 (optimized conformer: 30.446051316641558 kcal/mol)

>  <smiles>  (7) 
Cc1ccc(CNC(=O)c2c[nH]c(=O)[nH]c2=O)cc1

>  <score_type>  (7) 
oracle

>  <origin>  (7) 
adgpu

>  <m_score__min__energy>  (7) 
-9.9700000000000006

>  <m_primary>  (7) 
energy

$$$$
7:0
     RDKit          3D

 34 36  0  0  0  0  0  0  0  0999 V2000
   -6.8720   17.0600  -33.0890 C   0  0  0  0  0  0  0  0  0  0  0  0
   -7.2500   18.4710  -32.7480 C   0  0  0  0  0  0  0  0  0  0  0  0
   -8.4110   18.7330  -32.0090 C   0  0  0  0  0  0  0  0  0  0  0  0
   -8.7460   20.0430  -31.6570 C   0  0  0  0  0  0  0  0  0  0  0  0
   -7.9170   21.1200  -32.0280 C   0  0  0  0  0  0  0  0  0  0  0  0
   -8.2540   22.5270  -31.6700 C   0  0  0  0  0  0  0  0  0  0  0  0
   -9.3810   22.9950  -31.9890 O   0  0  0  0  0  0  0  0  0  0  0  0
   -7.3080   23.4220  -30.9150 C   0  0  0  0  0  0  0  0  0  0  0  0
   -6.0350   24.1190  -32.0250 S   0  0  0  0  0  0  0  0  0  0  0  0
   -4.6790   23.8410  -30.8880 C   0  0  0  0  0  0  0  0  0  0  0  0
   -3.9980   24.8460  -30.3000 N   0  0  0  0  0  0  0  0  0  0  0  0
   -3.0930   24.2040  -29.5430 C   0  0  0  0  0  0  0  0  0  0  0  0
   -2.1020   24.8730  -28.6930 C   0  0  0  0  0  0  0  0  0  0  0  0
   -1.5710   24.3710  -27.5220 C   0  0  0  0  0  0  0  0  0  0  0  0
   -0.6920   25.3330  -27.0720 C   0  0  0  0  0  0  0  0  0  0  0  0
   -0.7410   26.3600  -27.9950 C   0  0  0  0  0  0  0  0  0  0  0  0
   -1.5920   26.0550  -28.9480 O   0  0  0  0  0  0  0  0  0  0  0  0
   -3.2420   22.8440  -29.6900 C   0  0  0  0  0  0  0  0  0  0  0  0
   -4.2510   22.6070  -30.5460 N   0  0  0  0  0  0  0  0  0  0  0  0
   -6.7420   20.8450  -32.7540 C   0  0  0  0  0  0  0  0  0  0  0  0
   -6.4090   19.5340  -33.1040 C   0  0  0  0  0  0  0  0  0  0  0  0
   -6.7186   16.4874  -32.1624 H   0  0  0  0  0  0  0  0  0  0  0  0
   -7.6777   16.5965  -33.6773 H   0  0  0  0  0  0  0  0  0  0  0  0
   -5.9426   17.0614  -33.6773 H   0  0  0  0  0  0  0  0  0  0  0  0
   -9.0634   17.9016  -31.7038 H   0  0  0  0  0  0  0  0  0  0  0  0
   -9.6656   20.2352  -31.0849 H   0  0  0  0  0  0  0  0  0  0  0  0
   -7.8782   24.2455  -30.4605 H   0  0  0  0  0  0  0  0  0  0  0  0
   -6.8062   22.8249  -30.1393 H   0  0  0  0  0  0  0  0  0  0  0  0
   -1.8010   23.4057  -27.0473 H   0  0  0  0  0  0  0  0  0  0  0  0
   -0.0759   25.2914  -26.1617 H   0  0  0  0  0  0  0  0  0  0  0  0
   -0.1569   27.2905  -27.9402 H   0  0  0  0  0  0  0  0  0  0  0  0
   -2.6345   22.0760  -29.1888 H   0  0  0  0  0  0  0  0  0  0  0  0
   -6.0789   21.6717  -33.0488 H   0  0  0  0  0  0  0  0  0  0  0  0
   -5.4820   19.3352  -33.6618 H   0  0  0  0  0  0  0  0  0  0  0  0
  1  2  1  0
  2  3  2  0
  3  4  1  0
  4  5  2  0
  5  6  1  0
  6  7  2  0
  6  8  1  0
  8  9  1  0
  9 10  1  0
 10 11  2  0
 11 12  1  0
 12 13  1  0
 13 14  2  0
 14 15  1  0
 15 16  2  0
 16 17  1  0
 12 18  2  0
 18 19  1  0
  5 20  1  0
 20 21  2  0
 21  2  1  0
 19 10  1  0
 17 13  1  0
  1 22  1  0
  1 23  1  0
  1 24  1  0
  3 25  1  0
  4 26  1  0
  8 27  1  0
  8 28  1  0
 14 29  1  0
 15 30  1  0
 16 31  1  0
 18 32  1  0
 20 33  1  0
 21 34  1  0
M  CHG  1  19  -1
M  END
>  <UniqueID>  (8) 
7

>  <SMILES>  (8) 
Cc1ccc(C(=O)CSc2nc(-c3ccco3)c[n-]2)cc1

>  <Energy>  (8) 
85.60601802098603

>  <Genealogy>  (8) 
Cc1ccc(C(=O)CSc2nc(-c3ccco3)c[n-]2)cc1 (protonated)
Cc1ccc(C(=O)CSc2nc(-c3ccco3)c[n-]2)cc1 (3D coordinates assigned)
Cc1ccc(C(=O)CSc2nc(-c3ccco3)c[n-]2)cc1 (optimized conformer: 85.60601802098603 kcal/mol)

>  <smiles>  (8) 
Cc1ccc(C(=O)CSc2nc(-c3ccco3)c[nH]2)cc1

>  <score_type>  (8) 
oracle

>  <origin>  (8) 
adgpu

>  <m_score__min__energy>  (8) 
-9.6099999999999994

>  <m_primary>  (8) 
energy

$$$$
8:0
     RDKit          3D

 45 47  0  0  0  0  0  0  0  0999 V2000
   -0.3520   26.8330  -23.0360 C   0  0  0  0  0  0  0  0  0  0  0  0
    0.5350   27.4990  -24.0830 C   0  0  0  0  0  0  0  0  0  0  0  0
   -0.2050   27.7730  -25.2730 O   0  0  0  0  0  0  0  0  0  0  0  0
   -0.8090   26.8110  -26.0990 C   0  0  0  0  0  0  0  0  0  0  0  0
   -1.9920   26.2080  -25.6560 C   0  0  0  0  0  0  0  0  0  0  0  0
   -2.6360   25.2430  -26.4350 C   0  0  0  0  0  0  0  0  0  0  0  0
   -2.1060   24.8710  -27.6800 C   0  0  0  0  0  0  0  0  0  0  0  0
   -2.7610   23.8690  -28.4750 N   0  0  0  0  0  0  0  0  0  0  0  0
   -2.8740   22.5460  -28.2090 C   0  0  0  0  0  0  0  0  0  0  0  0
   -2.3110   21.9030  -27.1080 O   0  0  0  0  0  0  0  0  0  0  0  0
   -3.5900   21.8970  -29.1980 C   0  0  0  0  0  0  0  0  0  0  0  0
   -3.9270   22.8790  -30.1130 C   0  0  0  0  0  0  0  0  0  0  0  0
   -4.6520   22.6790  -31.3410 N   0  0  0  0  0  0  0  0  0  0  0  0
   -5.7260   23.5670  -31.7110 C   0  0  0  0  0  0  0  0  0  0  0  0
   -7.0370   23.0420  -32.2120 C   0  0  0  0  0  0  0  0  0  0  0  0
   -5.5680   24.8140  -31.6170 O   0  0  0  0  0  0  0  0  0  0  0  0
   -4.3120   21.5670  -32.1960 C   0  0  0  0  0  0  0  0  0  0  0  0
   -5.2170   20.5060  -32.3790 C   0  0  0  0  0  0  0  0  0  0  0  0
   -4.8890   19.4310  -33.2110 C   0  0  0  0  0  0  0  0  0  0  0  0
   -3.6560   19.4060  -33.8690 C   0  0  0  0  0  0  0  0  0  0  0  0
   -2.7500   20.4550  -33.6950 C   0  0  0  0  0  0  0  0  0  0  0  0
   -3.0740   21.5310  -32.8640 C   0  0  0  0  0  0  0  0  0  0  0  0
   -3.3960   24.0670  -29.6480 C   0  0  0  0  0  0  0  0  0  0  0  0
   -3.4800   25.2970  -30.2920 O   0  0  0  0  0  0  0  0  0  0  0  0
   -0.9150   25.4620  -28.1230 C   0  0  0  0  0  0  0  0  0  0  0  0
   -0.2690   26.4260  -27.3430 C   0  0  0  0  0  0  0  0  0  0  0  0
    0.0041   27.1003  -22.0301 H   0  0  0  0  0  0  0  0  0  0  0  0
   -1.3891   27.1774  -23.1614 H   0  0  0  0  0  0  0  0  0  0  0  0
   -0.3106   25.7410  -23.1614 H   0  0  0  0  0  0  0  0  0  0  0  0
    0.9267   28.4430  -23.6763 H   0  0  0  0  0  0  0  0  0  0  0  0
    1.3618   26.8170  -24.3306 H   0  0  0  0  0  0  0  0  0  0  0  0
   -2.4192   26.4968  -24.6844 H   0  0  0  0  0  0  0  0  0  0  0  0
   -3.5617   24.7733  -26.0710 H   0  0  0  0  0  0  0  0  0  0  0  0
   -2.2200   22.3590  -26.2100 H   0  0  0  0  0  0  0  0  0  0  0  0
   -3.8390   20.8267  -29.2471 H   0  0  0  0  0  0  0  0  0  0  0  0
   -7.6797   22.7846  -31.3572 H   0  0  0  0  0  0  0  0  0  0  0  0
   -7.5307   23.8118  -32.8233 H   0  0  0  0  0  0  0  0  0  0  0  0
   -6.8630   22.1442  -32.8233 H   0  0  0  0  0  0  0  0  0  0  0  0
   -6.1890   20.5219  -31.8643 H   0  0  0  0  0  0  0  0  0  0  0  0
   -5.6018   18.6044  -33.3478 H   0  0  0  0  0  0  0  0  0  0  0  0
   -3.3991   18.5603  -34.5238 H   0  0  0  0  0  0  0  0  0  0  0  0
   -1.7798   20.4341  -34.2130 H   0  0  0  0  0  0  0  0  0  0  0  0
   -2.3570   22.3546  -32.7313 H   0  0  0  0  0  0  0  0  0  0  0  0
   -0.4853   25.1654  -29.0912 H   0  0  0  0  0  0  0  0  0  0  0  0
    0.6639   26.8856  -27.7013 H   0  0  0  0  0  0  0  0  0  0  0  0
  1  2  1  0
  2  3  1  0
  3  4  1  0
  4  5  2  0
  5  6  1  0
  6  7  2  0
  7  8  1  0
  8  9  1  0
  9 10  1  0
  9 11  2  0
 11 12  1  0
 12 13  1  0
 13 14  1  0
 14 15  1  0
 14 16  2  0
 13 17  1  0
 17 18  2  0
 18 19  1  0
 19 20  2  0
 20 21  1  0
 21 22  2  0
 12 23  2  0
 23 24  1  0
  7 25  1  0
 25 26  2  0
 26  4  1  0
 23  8  1  0
 22 17  1  0
  1 27  1  0
  1 28  1  0
  1 29  1  0
  2 30  1  0
  2 31  1  0
  5 32  1  0
  6 33  1  0
 10 34  1  0
 11 35  1  0
 15 36  1  0
 15 37  1  0
 15 38  1  0
 18 39  1  0
 19 40  1  0
 20 41  1  0
 21 42  1  0
 22 43  1  0
 25 44  1  0
 26 45  1  0
M  CHG  1  24  -1
M  END
>  <UniqueID>  (9) 
8

>  <SMILES>  (9) 
CCOc1ccc(-n2c(O)cc(N(C(C)=O)c3ccccc3)c2[O-])cc1

>  <Energy>  (9) 
89.31163672973548

>  <Genealogy>  (9) 
CCOc1ccc(-n2c(O)cc(N(C(C)=O)c3ccccc3)c2[O-])cc1 (protonated)
CCOc1ccc(-n2c(O)cc(N(C(C)=O)c3ccccc3)c2[O-])cc1 (3D coordinates assigned)
CCOc1ccc(-n2c(O)cc(N(C(C)=O)c3ccccc3)c2[O-])cc1 (optimized conformer: 89.31163672973548 kcal/mol)

>  <smiles>  (9) 
CCOc1ccc(-n2c(O)cc(N(C(C)=O)c3ccccc3)c2O)cc1

>  <score_type>  (9) 
oracle

>  <origin>  (9) 
adgpu

>  <m_score__min__energy>  (9) 
-9.8599999999999994

>  <m_primary>  (9) 
energy

$$$$
9:0
     RDKit          3D

 53 56  0  0  0  0  0  0  0  0999 V2000
   -4.2120   22.6120  -31.7810 O   0  0  0  0  0  0  0  0  0  0  0  0
   -5.0800   22.4970  -30.8740 C   0  0  0  0  0  0  0  0  0  0  0  0
   -4.7710   22.8910  -29.5250 N   0  0  0  0  0  0  0  0  0  0  0  0
   -3.4460   23.2290  -29.0810 C   0  0  0  0  0  0  0  0  0  0  0  0
   -2.7480   22.3940  -28.1900 C   0  0  0  0  0  0  0  0  0  0  0  0
   -1.4650   22.7400  -27.7470 C   0  0  0  0  0  0  0  0  0  0  0  0
   -0.5960   21.6580  -26.6640 S   0  0  0  0  0  0  0  0  0  0  0  0
    0.3980   22.4370  -25.8460 O   0  0  0  0  0  0  0  0  0  0  0  0
   -1.5780   21.0050  -25.7320 O   0  0  0  0  0  0  0  0  0  0  0  0
    0.2140   20.4340  -27.6080 N   0  0  0  0  0  0  0  0  0  0  0  0
   -0.4100   19.1240  -27.4250 C   0  0  0  0  0  0  0  0  0  0  0  0
   -0.1370   18.3340  -28.6950 C   0  0  0  0  0  0  0  0  0  0  0  0
    0.2020   19.3730  -29.7520 C   0  0  0  0  0  0  0  0  0  0  0  0
    0.1190   20.7150  -29.0400 C   0  0  0  0  0  0  0  0  0  0  0  0
   -0.8750   23.9290  -28.1920 C   0  0  0  0  0  0  0  0  0  0  0  0
   -1.5710   24.7760  -29.0570 C   0  0  0  0  0  0  0  0  0  0  0  0
   -2.8540   24.4340  -29.4980 C   0  0  0  0  0  0  0  0  0  0  0  0
   -3.5310   25.2890  -30.3610 O   0  0  0  0  0  0  0  0  0  0  0  0
   -6.4240   21.9840  -31.2220 C   0  0  0  0  0  0  0  0  0  0  0  0
   -7.5190   22.2840  -30.3910 C   0  0  0  0  0  0  0  0  0  0  0  0
   -8.8030   21.8450  -30.7210 C   0  0  0  0  0  0  0  0  0  0  0  0
   -9.0110   21.1010  -31.8820 C   0  0  0  0  0  0  0  0  0  0  0  0
   -7.9360   20.7930  -32.7180 C   0  0  0  0  0  0  0  0  0  0  0  0
   -6.6390   21.2390  -32.4070 C   0  0  0  0  0  0  0  0  0  0  0  0
   -5.5320   20.8510  -33.2400 N   0  0  0  0  0  0  0  0  0  0  0  0
   -5.1990   19.4880  -33.5550 C   0  0  0  0  0  0  0  0  0  0  0  0
   -6.1120   18.7060  -34.2800 C   0  0  0  0  0  0  0  0  0  0  0  0
   -5.8180   17.3730  -34.5810 C   0  0  0  0  0  0  0  0  0  0  0  0
   -4.6160   16.8050  -34.1490 C   0  0  0  0  0  0  0  0  0  0  0  0
   -3.7100   17.5690  -33.4100 C   0  0  0  0  0  0  0  0  0  0  0  0
   -3.9990   18.9030  -33.1070 C   0  0  0  0  0  0  0  0  0  0  0  0
   -5.5500   22.9680  -28.8330 H   0  0  0  0  0  0  0  0  0  0  0  0
   -3.2135   21.4615  -27.8382 H   0  0  0  0  0  0  0  0  0  0  0  0
    0.0300   18.6115  -26.5568 H   0  0  0  0  0  0  0  0  0  0  0  0
   -1.4902   19.2204  -27.2412 H   0  0  0  0  0  0  0  0  0  0  0  0
    0.7086   17.6464  -28.5462 H   0  0  0  0  0  0  0  0  0  0  0  0
   -1.0009   17.7193  -28.9880 H   0  0  0  0  0  0  0  0  0  0  0  0
    1.2165   19.2070  -30.1435 H   0  0  0  0  0  0  0  0  0  0  0  0
   -0.4837   19.3221  -30.6106 H   0  0  0  0  0  0  0  0  0  0  0  0
    0.9491   21.3641  -29.3554 H   0  0  0  0  0  0  0  0  0  0  0  0
   -0.8199   21.2349  -29.2811 H   0  0  0  0  0  0  0  0  0  0  0  0
    0.1389   24.1966  -27.8596 H   0  0  0  0  0  0  0  0  0  0  0  0
   -1.1087   25.7159  -29.3930 H   0  0  0  0  0  0  0  0  0  0  0  0
   -7.3623   22.8696  -29.4731 H   0  0  0  0  0  0  0  0  0  0  0  0
   -9.6516   22.0865  -30.0641 H   0  0  0  0  0  0  0  0  0  0  0  0
  -10.0234   20.7563  -32.1395 H   0  0  0  0  0  0  0  0  0  0  0  0
   -8.1048   20.1969  -33.6269 H   0  0  0  0  0  0  0  0  0  0  0  0
   -4.9210   21.6090  -33.6230 H   0  0  0  0  0  0  0  0  0  0  0  0
   -7.0641   19.1447  -34.6131 H   0  0  0  0  0  0  0  0  0  0  0  0
   -6.5338   16.7699  -35.1589 H   0  0  0  0  0  0  0  0  0  0  0  0
   -4.3839   15.7573  -34.3909 H   0  0  0  0  0  0  0  0  0  0  0  0
   -2.7667   17.1201  -33.0655 H   0  0  0  0  0  0  0  0  0  0  0  0
   -3.2864   19.4977  -32.5165 H   0  0  0  0  0  0  0  0  0  0  0  0
  1  2  2  0
  2  3  1  0
  3  4  1  0
  4  5  2  0
  5  6  1  0
  6  7  1  0
  7  8  2  0
  7  9  2  0
  7 10  1  0
 10 11  1  0
 11 12  1  0
 12 13  1  0
 13 14  1  0
  6 15  2  0
 15 16  1  0
 16 17  2  0
 17 18  1  0
  2 19  1  0
 19 20  2  0
 20 21  1  0
 21 22  2  0
 22 23  1  0
 23 24  2  0
 24 25  1  0
 25 26  1  0
 26 27  2  0
 27 28  1  0
 28 29  2  0
 29 30  1  0
 30 31  2  0
 17  4  1  0
 24 19  1  0
 31 26  1  0
 14 10  1  0
  3 32  1  0
  5 33  1  0
 11 34  1  0
 11 35  1  0
 12 36  1  0
 12 37  1  0
 13 38  1  0
 13 39  1  0
 14 40  1  0
 14 41  1  0
 15 42  1  0
 16 43  1  0
 20 44  1  0
 21 45  1  0
 22 46  1  0
 23 47  1  0
 25 48  1  0
 27 49  1  0
 28 50  1  0
 29 51  1  0
 30 52  1  0
 31 53  1  0
M  CHG  1  18  -1
M  END
>  <UniqueID>  (10) 
9

>  <SMILES>  (10) 
O=C(Nc1cc(S(=O)(=O)N2CCCC2)ccc1[O-])c1ccccc1Nc1ccccc1

>  <Energy>  (10) 
71.38209803997806

>  <Genealogy>  (10) 
O=C(Nc1cc(S(=O)(=O)N2CCCC2)ccc1[O-])c1ccccc1Nc1ccccc1 (protonated)
O=C(Nc1cc(S(=O)(=O)N2CCCC2)ccc1[O-])c1ccccc1Nc1ccccc1 (3D coordinates assigned)
O=C(Nc1cc(S(=O)(=O)N2CCCC2)ccc1[O-])c1ccccc1Nc1ccccc1 (nonaromatic ring conformer: 71.38209803997806 kcal/mol)

>  <smiles>  (10) 
O=C(Nc1cc(S(=O)(=O)N2CCCC2)ccc1O)c1ccccc1Nc1ccccc1

>  <score_type>  (10) 
oracle

>  <origin>  (10) 
adgpu

>  <m_score__min__energy>  (10) 
-13.199999999999999

>  <m_primary>  (10) 
energy

$$$$
10:0
     RDKit          3D

 46 48  0  0  0  0  0  0  0  0999 V2000
   -0.3720   21.9110  -34.5850 N   0  0  0  0  0  0  0  0  0  0  0  0
   -1.5050   21.0120  -33.6360 S   0  0  0  0  0  0  0  0  0  0  0  0
   -1.9510   19.7920  -34.3920 O   0  0  0  0  0  0  0  0  0  0  0  0
   -2.7000   21.8870  -33.3730 O   0  0  0  0  0  0  0  0  0  0  0  0
   -0.7580   20.5240  -32.1060 C   0  0  0  0  0  0  0  0  0  0  0  0
    0.5580   20.0330  -32.1300 C   0  0  0  0  0  0  0  0  0  0  0  0
    1.1690   19.5720  -30.9620 C   0  0  0  0  0  0  0  0  0  0  0  0
    0.4720   19.5930  -29.7550 C   0  0  0  0  0  0  0  0  0  0  0  0
   -0.8330   20.0860  -29.7080 C   0  0  0  0  0  0  0  0  0  0  0  0
   -1.4590   20.5680  -30.8720 C   0  0  0  0  0  0  0  0  0  0  0  0
   -2.8290   21.1150  -30.7510 C   0  0  0  0  0  0  0  0  0  0  0  0
   -3.7890   20.3470  -30.4740 O   0  0  0  0  0  0  0  0  0  0  0  0
   -3.0630   22.5180  -30.9460 N   0  0  0  0  0  0  0  0  0  0  0  0
   -4.3760   23.0970  -30.9360 C   0  0  0  0  0  0  0  0  0  0  0  0
   -5.4900   22.2690  -31.1340 C   0  0  0  0  0  0  0  0  0  0  0  0
   -6.7840   22.8070  -31.1530 C   0  0  0  0  0  0  0  0  0  0  0  0
   -8.1750   21.7660  -31.4700 S   0  0  0  0  0  0  0  0  0  0  0  0
   -9.1350   22.4850  -32.3770 O   0  0  0  0  0  0  0  0  0  0  0  0
   -8.8850   21.4790  -30.1760 O   0  0  0  0  0  0  0  0  0  0  0  0
   -7.6940   20.2590  -32.2180 N   0  0  0  0  0  0  0  0  0  0  0  0
   -6.9540   20.4880  -33.4790 C   0  0  0  0  0  0  0  0  0  0  0  0
   -5.4410   20.2460  -33.3110 C   0  0  0  0  0  0  0  0  0  0  0  0
   -5.1270   18.9340  -32.8680 O   0  0  0  0  0  0  0  0  0  0  0  0
   -6.1020   18.3730  -31.9970 C   0  0  0  0  0  0  0  0  0  0  0  0
   -6.9560   19.4170  -31.2580 C   0  0  0  0  0  0  0  0  0  0  0  0
   -6.9640   24.1790  -30.9340 C   0  0  0  0  0  0  0  0  0  0  0  0
   -5.8620   25.0050  -30.7030 C   0  0  0  0  0  0  0  0  0  0  0  0
   -4.5700   24.4700  -30.6960 C   0  0  0  0  0  0  0  0  0  0  0  0
   -3.4900   25.3040  -30.4260 O   0  0  0  0  0  0  0  0  0  0  0  0
   -0.9210   22.4360  -35.3020 H   0  0  0  0  0  0  0  0  0  0  0  0
    1.1133   20.0114  -33.0793 H   0  0  0  0  0  0  0  0  0  0  0  0
    2.2008   19.1921  -30.9944 H   0  0  0  0  0  0  0  0  0  0  0  0
    0.9514   19.2203  -28.8378 H   0  0  0  0  0  0  0  0  0  0  0  0
   -1.3770   20.0977  -28.7520 H   0  0  0  0  0  0  0  0  0  0  0  0
   -2.2420   23.1650  -30.8970 H   0  0  0  0  0  0  0  0  0  0  0  0
   -5.3471   21.1876  -31.2757 H   0  0  0  0  0  0  0  0  0  0  0  0
   -7.3404   19.8023  -34.2474 H   0  0  0  0  0  0  0  0  0  0  0  0
   -7.1002   21.5377  -33.7737 H   0  0  0  0  0  0  0  0  0  0  0  0
   -4.9510   20.4133  -34.2815 H   0  0  0  0  0  0  0  0  0  0  0  0
   -5.0834   20.9441  -32.5398 H   0  0  0  0  0  0  0  0  0  0  0  0
   -6.7728   17.7367  -32.5929 H   0  0  0  0  0  0  0  0  0  0  0  0
   -5.5543   17.8083  -31.2282 H   0  0  0  0  0  0  0  0  0  0  0  0
   -7.6740   18.8996  -30.6048 H   0  0  0  0  0  0  0  0  0  0  0  0
   -6.2920   20.0593  -30.6609 H   0  0  0  0  0  0  0  0  0  0  0  0
   -7.9772   24.6072  -30.9441 H   0  0  0  0  0  0  0  0  0  0  0  0
   -6.0108   26.0804  -30.5259 H   0  0  0  0  0  0  0  0  0  0  0  0
  1  2  1  0
  2  3  2  0
  2  4  2  0
  2  5  1  0
  5  6  2  0
  6  7  1  0
  7  8  2  0
  8  9  1  0
  9 10  2  0
 10 11  1  0
 11 12  2  0
 11 13  1  0
 13 14  1  0
 14 15  2  0
 15 16  1  0
 16 17  1  0
 17 18  2  0
 17 19  2  0
 17 20  1  0
 20 21  1  0
 21 22  1  0
 22 23  1  0
 23 24  1  0
 24 25  1  0
 16 26  2  0
 26 27  1  0
 27 28  2  0
 28 29  1  0
 10  5  1  0
 28 14  1  0
 25 20  1  0
  1 30  1  0
  6 31  1  0
  7 32  1  0
  8 33  1  0
  9 34  1  0
 13 35  1  0
 15 36  1  0
 21 37  1  0
 21 38  1  0
 22 39  1  0
 22 40  1  0
 24 41  1  0
 24 42  1  0
 25 43  1  0
 25 44  1  0
 26 45  1  0
 27 46  1  0
M  CHG  2   1  -1  29  -1
M  END
>  <UniqueID>  (11) 
10

>  <SMILES>  (11) 
[NH-]S(=O)(=O)c1ccccc1C(=O)Nc1cc(S(=O)(=O)N2CCOCC2)ccc1[O-]

>  <Energy>  (11) 
70.40186306103688

>  <Genealogy>  (11) 
[NH-]S(=O)(=O)c1ccccc1C(=O)Nc1cc(S(=O)(=O)N2CCOCC2)ccc1[O-] (protonated)
[NH-]S(=O)(=O)c1ccccc1C(=O)Nc1cc(S(=O)(=O)N2CCOCC2)ccc1[O-] (3D coordinates assigned)
[NH-]S(=O)(=O)c1ccccc1C(=O)Nc1cc(S(=O)(=O)N2CCOCC2)ccc1[O-] (nonaromatic ring conformer: 70.40186306103688 kcal/mol)

>  <smiles>  (11) 
NS(=O)(=O)c1ccccc1C(=O)Nc1cc(S(=O)(=O)N2CCOCC2)ccc1O

>  <score_type>  (11) 
oracle

>  <origin>  (11) 
adgpu

>  <m_score__min__energy>  (11) 
-13.9

>  <m_primary>  (11) 
energy

$$$$
11:0
     RDKit          3D

 47 50  0  0  0  0  0  0  0  0999 V2000
   -2.7380   20.6310  -27.7350 C   0  0  0  0  0  0  0  0  0  0  0  0
   -2.2130   21.9510  -27.8340 O   0  0  0  0  0  0  0  0  0  0  0  0
   -1.6040   22.6470  -26.7770 C   0  0  0  0  0  0  0  0  0  0  0  0
   -0.7380   22.0070  -25.8680 C   0  0  0  0  0  0  0  0  0  0  0  0
   -0.1150   22.7350  -24.8520 C   0  0  0  0  0  0  0  0  0  0  0  0
   -0.3480   24.1040  -24.7270 C   0  0  0  0  0  0  0  0  0  0  0  0
   -1.2160   24.7480  -25.6090 C   0  0  0  0  0  0  0  0  0  0  0  0
   -1.8610   24.0270  -26.6300 C   0  0  0  0  0  0  0  0  0  0  0  0
   -2.7670   24.7540  -27.5950 C   0  0  0  0  0  0  0  0  0  0  0  0
   -2.2390   24.6640  -28.9950 C   0  0  0  0  0  0  0  0  0  0  0  0
   -1.0290   24.3710  -29.1900 O   0  0  0  0  0  0  0  0  0  0  0  0
   -3.1160   24.9170  -30.0980 N   0  0  0  0  0  0  0  0  0  0  0  0
   -4.4910   24.5230  -30.2140 C   0  0  0  0  0  0  0  0  0  0  0  0
   -5.5260   25.3510  -29.7450 C   0  0  0  0  0  0  0  0  0  0  0  0
   -6.8620   25.0030  -29.9640 C   0  0  0  0  0  0  0  0  0  0  0  0
   -7.1770   23.8400  -30.6680 C   0  0  0  0  0  0  0  0  0  0  0  0
   -6.1580   23.0160  -31.1500 C   0  0  0  0  0  0  0  0  0  0  0  0
   -4.8120   23.3420  -30.9190 C   0  0  0  0  0  0  0  0  0  0  0  0
   -3.7520   22.4350  -31.4070 C   0  0  0  0  0  0  0  0  0  0  0  0
   -3.9400   21.7420  -32.5610 N   0  0  0  0  0  0  0  0  0  0  0  0
   -2.9880   20.9100  -33.0550 C   0  0  0  0  0  0  0  0  0  0  0  0
   -3.2060   20.2960  -34.1340 O   0  0  0  0  0  0  0  0  0  0  0  0
   -1.7800   20.7440  -32.3590 C   0  0  0  0  0  0  0  0  0  0  0  0
   -0.7550   19.9000  -32.8240 C   0  0  0  0  0  0  0  0  0  0  0  0
    0.4230   19.7580  -32.0840 C   0  0  0  0  0  0  0  0  0  0  0  0
    0.5840   20.4450  -30.8790 C   0  0  0  0  0  0  0  0  0  0  0  0
   -0.4280   21.2860  -30.4080 C   0  0  0  0  0  0  0  0  0  0  0  0
   -1.6090   21.4500  -31.1480 C   0  0  0  0  0  0  0  0  0  0  0  0
   -2.5930   22.2800  -30.7020 N   0  0  0  0  0  0  0  0  0  0  0  0
   -2.8465   20.3581  -26.6749 H   0  0  0  0  0  0  0  0  0  0  0  0
   -3.7211   20.5895  -28.2268 H   0  0  0  0  0  0  0  0  0  0  0  0
   -2.0519   19.9257  -28.2268 H   0  0  0  0  0  0  0  0  0  0  0  0
   -0.5515   20.9268  -25.9593 H   0  0  0  0  0  0  0  0  0  0  0  0
    0.5612   22.2271  -24.1486 H   0  0  0  0  0  0  0  0  0  0  0  0
    0.1529   24.6766  -23.9325 H   0  0  0  0  0  0  0  0  0  0  0  0
   -1.3974   25.8280  -25.5052 H   0  0  0  0  0  0  0  0  0  0  0  0
   -3.7692   24.3021  -27.5582 H   0  0  0  0  0  0  0  0  0  0  0  0
   -2.8127   25.8138  -27.3039 H   0  0  0  0  0  0  0  0  0  0  0  0
   -5.2833   26.2770  -29.2032 H   0  0  0  0  0  0  0  0  0  0  0  0
   -7.6669   25.6473  -29.5805 H   0  0  0  0  0  0  0  0  0  0  0  0
   -8.2294   23.5721  -30.8434 H   0  0  0  0  0  0  0  0  0  0  0  0
   -6.4112   22.1062  -31.7140 H   0  0  0  0  0  0  0  0  0  0  0  0
   -0.8802   19.3519  -33.7695 H   0  0  0  0  0  0  0  0  0  0  0  0
    1.2259   19.1026  -32.4525 H   0  0  0  0  0  0  0  0  0  0  0  0
    1.5105   20.3238  -30.2985 H   0  0  0  0  0  0  0  0  0  0  0  0
   -0.2985   21.8204  -29.4553 H   0  0  0  0  0  0  0  0  0  0  0  0
   -2.4670   22.7920  -29.7990 H   0  0  0  0  0  0  0  0  0  0  0  0
  1  2  1  0
  2  3  1  0
  3  4  2  0
  4  5  1  0
  5  6  2  0
  6  7  1  0
  7  8  2  0
  8  9  1  0
  9 10  1  0
 10 11  2  0
 10 12  1  0
 12 13  1  0
 13 14  2  0
 14 15  1  0
 15 16  2  0
 16 17  1  0
 17 18  2  0
 18 19  1  0
 19 20  2  0
 20 21  1  0
 21 22  2  0
 21 23  1  0
 23 24  2  0
 24 25  1  0
 25 26  2  0
 26 27  1  0
 27 28  2  0
 28 29  1  0
  8  3  1  0
 18 13  1  0
 29 19  1  0
 28 23  1  0
  1 30  1  0
  1 31  1  0
  1 32  1  0
  4 33  1  0
  5 34  1  0
  6 35  1  0
  7 36  1  0
  9 37  1  0
  9 38  1  0
 14 39  1  0
 15 40  1  0
 16 41  1  0
 17 42  1  0
 24 43  1  0
 25 44  1  0
 26 45  1  0
 27 46  1  0
 29 47  1  0
M  CHG  1  12  -1
M  END
>  <UniqueID>  (12) 
11

>  <SMILES>  (12) 
COc1ccccc1CC(=O)[N-]c1ccccc1-c1nc(=O)c2ccccc2[nH]1

>  <Energy>  (12) 
59.694771357201454

>  <Genealogy>  (12) 
COc1ccccc1CC(=O)[N-]c1ccccc1-c1nc(=O)c2ccccc2[nH]1 (protonated)
COc1ccccc1CC(=O)[N-]c1ccccc1-c1nc(=O)c2ccccc2[nH]1 (3D coordinates assigned)
COc1ccccc1CC(=O)[N-]c1ccccc1-c1nc(=O)c2ccccc2[nH]1 (optimized conformer: 59.694771357201454 kcal/mol)

>  <smiles>  (12) 
COc1ccccc1CC(=O)Nc1ccccc1-c1nc(=O)c2ccccc2[nH]1

>  <score_type>  (12) 
oracle

>  <origin>  (12) 
adgpu

>  <m_score__min__energy>  (12) 
-10.15

>  <m_primary>  (12) 
energy

$$$$
12:0
     RDKit          3D

 52 55  0  0  0  0  0  0  0  0999 V2000
    0.4530   23.9950  -25.1570 C   0  0  0  0  0  0  0  0  0  0  0  0
   -0.4170   23.8230  -26.3740 C   0  0  0  0  0  0  0  0  0  0  0  0
   -1.0180   22.5720  -26.5900 C   0  0  0  0  0  0  0  0  0  0  0  0
   -1.8510   22.3600  -27.6860 C   0  0  0  0  0  0  0  0  0  0  0  0
   -2.1190   23.3990  -28.5830 C   0  0  0  0  0  0  0  0  0  0  0  0
   -2.9740   23.1910  -29.7190 N   0  0  0  0  0  0  0  0  0  0  0  0
   -4.0860   24.0420  -30.0500 C   0  0  0  0  0  0  0  0  0  0  0  0
   -4.4890   24.9150  -29.2360 O   0  0  0  0  0  0  0  0  0  0  0  0
   -4.7730   23.8940  -31.2980 N   0  0  0  0  0  0  0  0  0  0  0  0
   -5.5580   22.7590  -31.6860 C   0  0  0  0  0  0  0  0  0  0  0  0
   -6.9340   22.9150  -31.8710 C   0  0  0  0  0  0  0  0  0  0  0  0
   -7.7220   21.8340  -32.2690 C   0  0  0  0  0  0  0  0  0  0  0  0
   -7.1390   20.5810  -32.5130 C   0  0  0  0  0  0  0  0  0  0  0  0
   -5.7500   20.4150  -32.3340 C   0  0  0  0  0  0  0  0  0  0  0  0
   -4.9650   21.5120  -31.9500 C   0  0  0  0  0  0  0  0  0  0  0  0
   -5.0770   19.1000  -32.6530 C   0  0  0  0  0  0  0  0  0  0  0  0
   -6.0050   17.9530  -32.6120 N   0  0  0  0  0  0  0  0  0  0  0  0
   -6.3050   17.5360  -31.2310 C   0  0  0  0  0  0  0  0  0  0  0  0
   -7.2220   18.2160  -33.4040 C   0  0  0  0  0  0  0  0  0  0  0  0
   -8.0220   19.4160  -32.8740 C   0  0  0  0  0  0  0  0  0  0  0  0
   -1.4990   24.6460  -28.4020 C   0  0  0  0  0  0  0  0  0  0  0  0
   -1.7800   25.6730  -29.2990 O   0  0  0  0  0  0  0  0  0  0  0  0
   -0.6230   24.8660  -27.3150 C   0  0  0  0  0  0  0  0  0  0  0  0
    0.1520   26.4590  -27.1300 S   0  0  0  0  0  0  0  0  0  0  0  0
    1.6110   26.3820  -27.4810 O   0  0  0  0  0  0  0  0  0  0  0  0
   -0.4850   27.4520  -28.0630 O   0  0  0  0  0  0  0  0  0  0  0  0
   -0.0910   27.0210  -25.4460 C   0  0  0  0  0  0  0  0  0  0  0  0
   -1.0350   28.1990  -25.2590 C   0  0  0  0  0  0  0  0  0  0  0  0
   -1.5000   26.7920  -24.9220 C   0  0  0  0  0  0  0  0  0  0  0  0
   -0.1574   23.8743  -24.2499 H   0  0  0  0  0  0  0  0  0  0  0  0
    1.2502   23.2371  -25.1661 H   0  0  0  0  0  0  0  0  0  0  0  0
    0.9018   24.9993  -25.1661 H   0  0  0  0  0  0  0  0  0  0  0  0
   -0.8284   21.7494  -25.8848 H   0  0  0  0  0  0  0  0  0  0  0  0
   -2.3009   21.3692  -27.8470 H   0  0  0  0  0  0  0  0  0  0  0  0
   -2.7090   22.4380  -30.3920 H   0  0  0  0  0  0  0  0  0  0  0  0
   -7.3997   23.8971  -31.7017 H   0  0  0  0  0  0  0  0  0  0  0  0
   -8.8072   21.9650  -32.3922 H   0  0  0  0  0  0  0  0  0  0  0  0
   -3.8754   21.3956  -31.8545 H   0  0  0  0  0  0  0  0  0  0  0  0
   -4.6429   19.1639  -33.6617 H   0  0  0  0  0  0  0  0  0  0  0  0
   -4.3079   18.9289  -31.8854 H   0  0  0  0  0  0  0  0  0  0  0  0
   -5.8120   18.2213  -30.5258 H   0  0  0  0  0  0  0  0  0  0  0  0
   -7.3926   17.5622  -31.0681 H   0  0  0  0  0  0  0  0  0  0  0  0
   -5.9344   16.5132  -31.0681 H   0  0  0  0  0  0  0  0  0  0  0  0
   -6.9285   18.4197  -34.4444 H   0  0  0  0  0  0  0  0  0  0  0  0
   -7.8660   17.3272  -33.3316 H   0  0  0  0  0  0  0  0  0  0  0  0
   -8.7316   19.7380  -33.6504 H   0  0  0  0  0  0  0  0  0  0  0  0
   -8.5427   19.0943  -31.9600 H   0  0  0  0  0  0  0  0  0  0  0  0
    0.9302   26.7966  -25.1043 H   0  0  0  0  0  0  0  0  0  0  0  0
   -0.8542   28.9262  -24.4537 H   0  0  0  0  0  0  0  0  0  0  0  0
   -1.4075   29.0074  -25.9053 H   0  0  0  0  0  0  0  0  0  0  0  0
   -1.6559   26.5009  -23.8727 H   0  0  0  0  0  0  0  0  0  0  0  0
   -2.3486   26.1604  -25.2235 H   0  0  0  0  0  0  0  0  0  0  0  0
  1  2  1  0
  2  3  2  0
  3  4  1  0
  4  5  2  0
  5  6  1  0
  6  7  1  0
  7  8  2  0
  7  9  1  0
  9 10  1  0
 10 11  2  0
 11 12  1  0
 12 13  2  0
 13 14  1  0
 14 15  2  0
 14 16  1  0
 16 17  1  0
 17 18  1  0
 17 19  1  0
 19 20  1  0
  5 21  1  0
 21 22  1  0
 21 23  2  0
 23 24  1  0
 24 25  2  0
 24 26  2  0
 24 27  1  0
 27 28  1  0
 28 29  1  0
 23  2  1  0
 29 27  1  0
 15 10  1  0
 20 13  1  0
  1 30  1  0
  1 31  1  0
  1 32  1  0
  3 33  1  0
  4 34  1  0
  6 35  1  0
 11 36  1  0
 12 37  1  0
 15 38  1  0
 16 39  1  0
 16 40  1  0
 18 41  1  0
 18 42  1  0
 18 43  1  0
 19 44  1  0
 19 45  1  0
 20 46  1  0
 20 47  1  0
 27 48  1  0
 28 49  1  0
 28 50  1  0
 29 51  1  0
 29 52  1  0
M  CHG  2   9  -1  22  -1
M  END
>  <UniqueID>  (13) 
12

>  <SMILES>  (13) 
Cc1ccc(NC(=O)[N-]c2ccc3c(c2)CN(C)CC3)c([O-])c1S(=O)(=O)C1CC1

>  <Energy>  (13) 
334.14805970568136

>  <Genealogy>  (13) 
Cc1ccc(NC(=O)[N-]c2ccc3c(c2)CN(C)CC3)c([O-])c1S(=O)(=O)C1CC1 (protonated)
Cc1ccc(NC(=O)[N-]c2ccc3c(c2)CN(C)CC3)c([O-])c1S(=O)(=O)C1CC1 (3D coordinates assigned)
Cc1ccc(NC(=O)[N-]c2ccc3c(c2)CN(C)CC3)c([O-])c1S(=O)(=O)C1CC1 (nonaromatic ring conformer: 334.14805970568136 kcal/mol)

>  <smiles>  (13) 
Cc1ccc(NC(=O)Nc2ccc3c(c2)CN(C)CC3)c(O)c1S(=O)(=O)C1CC1

>  <score_type>  (13) 
oracle

>  <origin>  (13) 
adgpu

>  <m_score__min__energy>  (13) 
-14.109999999999999

>  <m_primary>  (13) 
energy

$$$$
13:0
     RDKit          3D

 34 36  0  0  0  0  0  0  0  0999 V2000
   -3.1710   15.6950  -34.1030 C   0  0  0  0  0  0  0  0  0  0  0  0
   -4.0310   16.4870  -35.0800 C   0  0  0  0  0  0  0  0  0  0  0  0
   -4.6900   17.5730  -34.3290 C   0  0  0  0  0  0  0  0  0  0  0  0
   -4.1050   18.7560  -34.0880 N   0  0  0  0  0  0  0  0  0  0  0  0
   -4.6880   19.7570  -33.4070 C   0  0  0  0  0  0  0  0  0  0  0  0
   -4.3460   21.0030  -33.0300 N   0  0  0  0  0  0  0  0  0  0  0  0
   -5.3460   21.5860  -32.3400 C   0  0  0  0  0  0  0  0  0  0  0  0
   -5.3570   23.2300  -31.6370 S   0  0  0  0  0  0  0  0  0  0  0  0
   -4.1980   23.3170  -30.2830 C   0  0  0  0  0  0  0  0  0  0  0  0
   -3.9190   22.1800  -29.5730 C   0  0  0  0  0  0  0  0  0  0  0  0
   -3.0520   22.1310  -28.5210 C   0  0  0  0  0  0  0  0  0  0  0  0
   -2.7160   20.6640  -27.6330 Cl  0  0  0  0  0  0  0  0  0  0  0  0
   -2.4230   23.3240  -28.1640 C   0  0  0  0  0  0  0  0  0  0  0  0
   -2.6990   24.4900  -28.8770 C   0  0  0  0  0  0  0  0  0  0  0  0
   -3.5850   24.4990  -29.9410 C   0  0  0  0  0  0  0  0  0  0  0  0
   -3.8590   25.6740  -30.6570 O   0  0  0  0  0  0  0  0  0  0  0  0
   -6.3400   20.6690  -32.2870 N   0  0  0  0  0  0  0  0  0  0  0  0
   -5.9380   19.5630  -32.9340 N   0  0  0  0  0  0  0  0  0  0  0  0
   -6.5610   18.3890  -33.1560 C   0  0  0  0  0  0  0  0  0  0  0  0
   -7.7480   18.2180  -32.7020 N   0  0  0  0  0  0  0  0  0  0  0  0
   -5.9850   17.3470  -33.8500 C   0  0  0  0  0  0  0  0  0  0  0  0
   -6.6610   16.1040  -34.0770 C   0  0  0  0  0  0  0  0  0  0  0  0
   -7.2220   15.0840  -34.2480 N   0  0  0  0  0  0  0  0  0  0  0  0
   -3.4532   15.9549  -33.0721 H   0  0  0  0  0  0  0  0  0  0  0  0
   -3.3279   14.6185  -34.2658 H   0  0  0  0  0  0  0  0  0  0  0  0
   -2.1110   15.9398  -34.2658 H   0  0  0  0  0  0  0  0  0  0  0  0
   -3.3994   16.9119  -35.8740 H   0  0  0  0  0  0  0  0  0  0  0  0
   -4.7829   15.8326  -35.5453 H   0  0  0  0  0  0  0  0  0  0  0  0
   -3.1290   18.8910  -34.4630 H   0  0  0  0  0  0  0  0  0  0  0  0
   -4.4249   21.2492  -29.8690 H   0  0  0  0  0  0  0  0  0  0  0  0
   -1.7129   23.3447  -27.3242 H   0  0  0  0  0  0  0  0  0  0  0  0
   -2.2002   25.4265  -28.5869 H   0  0  0  0  0  0  0  0  0  0  0  0
   -4.2180   25.5630  -31.6110 H   0  0  0  0  0  0  0  0  0  0  0  0
   -8.2060   18.9770  -32.1790 H   0  0  0  0  0  0  0  0  0  0  0  0
  1  2  1  0
  2  3  1  0
  3  4  1  0
  4  5  1  0
  5  6  2  0
  6  7  1  0
  7  8  1  0
  8  9  1  0
  9 10  2  0
 10 11  1  0
 11 12  1  0
 11 13  2  0
 13 14  1  0
 14 15  2  0
 15 16  1  0
  7 17  2  0
 17 18  1  0
 18 19  1  0
 19 20  2  3
 19 21  1  0
 21 22  1  0
 22 23  3  0
 21  3  2  0
 18  5  1  0
 15  9  1  0
  1 24  1  0
  1 25  1  0
  1 26  1  0
  2 27  1  0
  2 28  1  0
  4 29  1  0
 10 30  1  0
 13 31  1  0
 14 32  1  0
 16 33  1  0
 20 34  1  0
M  END
>  <smiles>  (14) 
CCc1[nH]c2nc(Sc3cc(Cl)ccc3O)nn2c(=N)c1C#N

>  <score_type>  (14) 
oracle

>  <origin>  (14) 
adgpu

>  <m_score__min__energy>  (14) 
-8.8100000000000005

>  <m_primary>  (14) 
energy

$$$$
14:0
     RDKit          3D

 35 36  0  0  0  0  0  0  0  0999 V2000
   -2.7350   24.5390  -29.3280 C   0  0  0  0  0  0  0  0  0  0  0  0
   -3.4880   24.9200  -30.5180 N   0  0  0  0  0  0  0  0  0  0  0  0
   -5.1780   25.0300  -30.1320 S   0  0  0  0  0  0  0  0  0  0  0  0
   -5.7110   26.3460  -30.6230 O   0  0  0  0  0  0  0  0  0  0  0  0
   -5.3660   24.9670  -28.6410 O   0  0  0  0  0  0  0  0  0  0  0  0
   -6.0660   23.7230  -30.9120 C   0  0  0  0  0  0  0  0  0  0  0  0
   -7.4560   23.6190  -30.7650 C   0  0  0  0  0  0  0  0  0  0  0  0
   -8.1490   22.5610  -31.3590 C   0  0  0  0  0  0  0  0  0  0  0  0
   -7.4580   21.5940  -32.1080 C   0  0  0  0  0  0  0  0  0  0  0  0
   -8.1970   20.4230  -32.6940 C   0  0  0  0  0  0  0  0  0  0  0  0
   -8.0170   18.9390  -31.6410 S   0  0  0  0  0  0  0  0  0  0  0  0
   -6.6630   18.2250  -32.5900 C   0  0  0  0  0  0  0  0  0  0  0  0
   -6.4390   18.6970  -33.8910 C   0  0  0  0  0  0  0  0  0  0  0  0
   -5.3860   18.1880  -34.6550 C   0  0  0  0  0  0  0  0  0  0  0  0
   -4.5550   17.1990  -34.1290 C   0  0  0  0  0  0  0  0  0  0  0  0
   -4.7780   16.7110  -32.8390 C   0  0  0  0  0  0  0  0  0  0  0  0
   -5.8330   17.2100  -32.0610 C   0  0  0  0  0  0  0  0  0  0  0  0
   -6.0440   16.6790  -30.7460 N   0  0  0  0  0  0  0  0  0  0  0  0
   -6.0650   21.7020  -32.2540 C   0  0  0  0  0  0  0  0  0  0  0  0
   -5.3750   22.7590  -31.6560 C   0  0  0  0  0  0  0  0  0  0  0  0
   -3.3006   24.8252  -28.4290 H   0  0  0  0  0  0  0  0  0  0  0  0
   -2.5738   23.4509  -29.3289 H   0  0  0  0  0  0  0  0  0  0  0  0
   -1.7628   25.0537  -29.3289 H   0  0  0  0  0  0  0  0  0  0  0  0
   -8.0032   24.3729  -30.1800 H   0  0  0  0  0  0  0  0  0  0  0  0
   -9.2399   22.4850  -31.2397 H   0  0  0  0  0  0  0  0  0  0  0  0
   -9.2640   20.6769  -32.7781 H   0  0  0  0  0  0  0  0  0  0  0  0
   -7.7735   20.2023  -33.6849 H   0  0  0  0  0  0  0  0  0  0  0  0
   -7.0959   19.4722  -34.3124 H   0  0  0  0  0  0  0  0  0  0  0  0
   -5.2120   18.5677  -35.6726 H   0  0  0  0  0  0  0  0  0  0  0  0
   -3.7234   16.8029  -34.7303 H   0  0  0  0  0  0  0  0  0  0  0  0
   -4.1209   15.9292  -32.4302 H   0  0  0  0  0  0  0  0  0  0  0  0
   -6.7820   17.0490  -30.1100 H   0  0  0  0  0  0  0  0  0  0  0  0
   -5.4610   15.8860  -30.3970 H   0  0  0  0  0  0  0  0  0  0  0  0
   -5.5157   20.9515  -32.8414 H   0  0  0  0  0  0  0  0  0  0  0  0
   -4.2835   22.8344  -31.7701 H   0  0  0  0  0  0  0  0  0  0  0  0
  1  2  1  0
  2  3  1  0
  3  4  2  0
  3  5  2  0
  3  6  1  0
  6  7  2  0
  7  8  1  0
  8  9  2  0
  9 10  1  0
 10 11  1  0
 11 12  1  0
 12 13  2  0
 13 14  1  0
 14 15  2  0
 15 16  1  0
 16 17  2  0
 17 18  1  0
  9 19  1  0
 19 20  2  0
 20  6  1  0
 17 12  1  0
  1 21  1  0
  1 22  1  0
  1 23  1  0
  7 24  1  0
  8 25  1  0
 10 26  1  0
 10 27  1  0
 13 28  1  0
 14 29  1  0
 15 30  1  0
 16 31  1  0
 18 32  1  0
 18 33  1  0
 19 34  1  0
 20 35  1  0
M  CHG  1   2  -1
M  END
>  <UniqueID>  (15) 
13

>  <SMILES>  (15) 
C[N-]S(=O)(=O)c1ccc(CSc2ccccc2N)cc1

>  <Energy>  (15) 
27.299121284328553

>  <Genealogy>  (15) 
C[N-]S(=O)(=O)c1ccc(CSc2ccccc2N)cc1 (protonated)
C[N-]S(=O)(=O)c1ccc(CSc2ccccc2N)cc1 (3D coordinates assigned)
C[N-]S(=O)(=O)c1ccc(CSc2ccccc2N)cc1 (optimized conformer: 27.299121284328553 kcal/mol)

>  <smiles>  (15) 
CNS(=O)(=O)c1ccc(CSc2ccccc2N)cc1

>  <score_type>  (15) 
oracle

>  <origin>  (15) 
adgpu

>  <m_score__min__energy>  (15) 
-9.6300000000000008

>  <m_primary>  (15) 
energy

$$$$
15:0
     RDKit          3D

 60 63  0  0  0  0  0  0  0  0999 V2000
   -9.8200   21.5910  -30.5110 C   0  0  0  0  0  0  0  0  0  0  0  0
   -8.8960   22.1220  -31.4580 O   0  0  0  0  0  0  0  0  0  0  0  0
   -7.5010   22.1170  -31.2970 C   0  0  0  0  0  0  0  0  0  0  0  0
   -6.8650   22.8280  -30.2590 C   0  0  0  0  0  0  0  0  0  0  0  0
   -5.4660   22.8060  -30.1320 C   0  0  0  0  0  0  0  0  0  0  0  0
   -4.7990   23.5590  -29.1060 N   0  0  0  0  0  0  0  0  0  0  0  0
   -3.7090   24.4640  -29.3610 C   0  0  0  0  0  0  0  0  0  0  0  0
   -3.5310   24.9170  -30.5260 O   0  0  0  0  0  0  0  0  0  0  0  0
   -2.8280   24.9150  -28.2570 C   0  0  0  0  0  0  0  0  0  0  0  0
   -3.2260   24.7430  -26.9190 C   0  0  0  0  0  0  0  0  0  0  0  0
   -2.3920   25.1520  -25.8730 C   0  0  0  0  0  0  0  0  0  0  0  0
   -1.1570   25.7500  -26.1480 C   0  0  0  0  0  0  0  0  0  0  0  0
   -0.1020   26.2360  -24.8240 S   0  0  0  0  0  0  0  0  0  0  0  0
    0.6590   27.4730  -25.2170 O   0  0  0  0  0  0  0  0  0  0  0  0
   -0.9520   26.5610  -23.6260 O   0  0  0  0  0  0  0  0  0  0  0  0
    0.9940   24.9150  -24.4610 N   0  0  0  0  0  0  0  0  0  0  0  0
    0.5810   23.6590  -25.1280 C   0  0  0  0  0  0  0  0  0  0  0  0
    1.3120   23.4300  -26.4670 C   0  0  0  0  0  0  0  0  0  0  0  0
    1.6650   24.6610  -27.0590 O   0  0  0  0  0  0  0  0  0  0  0  0
    2.6640   25.3080  -26.2890 C   0  0  0  0  0  0  0  0  0  0  0  0
    2.3940   25.2600  -24.7650 C   0  0  0  0  0  0  0  0  0  0  0  0
   -0.7620   25.9380  -27.4780 C   0  0  0  0  0  0  0  0  0  0  0  0
   -1.5910   25.5260  -28.5260 C   0  0  0  0  0  0  0  0  0  0  0  0
   -4.7060   22.0840  -31.0590 C   0  0  0  0  0  0  0  0  0  0  0  0
   -5.3280   21.3700  -32.0840 C   0  0  0  0  0  0  0  0  0  0  0  0
   -6.7290   21.3860  -32.2150 C   0  0  0  0  0  0  0  0  0  0  0  0
   -7.3930   20.6970  -33.2440 O   0  0  0  0  0  0  0  0  0  0  0  0
   -8.0820   19.4530  -33.0970 C   0  0  0  0  0  0  0  0  0  0  0  0
   -7.1100   18.3220  -32.8830 C   0  0  0  0  0  0  0  0  0  0  0  0
   -6.4730   17.7210  -33.9800 C   0  0  0  0  0  0  0  0  0  0  0  0
   -5.5650   16.6760  -33.7830 C   0  0  0  0  0  0  0  0  0  0  0  0
   -5.2940   16.2190  -32.4910 C   0  0  0  0  0  0  0  0  0  0  0  0
   -5.9370   16.7990  -31.3950 C   0  0  0  0  0  0  0  0  0  0  0  0
   -6.8450   17.8440  -31.5870 C   0  0  0  0  0  0  0  0  0  0  0  0
   -9.4604   21.7977  -29.4922 H   0  0  0  0  0  0  0  0  0  0  0  0
  -10.8038   22.0615  -30.6551 H   0  0  0  0  0  0  0  0  0  0  0  0
   -9.9088   20.5041  -30.6551 H   0  0  0  0  0  0  0  0  0  0  0  0
   -7.4689   23.4046  -29.5428 H   0  0  0  0  0  0  0  0  0  0  0  0
   -5.2050   23.5360  -28.1420 H   0  0  0  0  0  0  0  0  0  0  0  0
   -4.1998   24.2837  -26.6935 H   0  0  0  0  0  0  0  0  0  0  0  0
   -2.7083   25.0029  -24.8300 H   0  0  0  0  0  0  0  0  0  0  0  0
    0.8013   22.8152  -24.4576 H   0  0  0  0  0  0  0  0  0  0  0  0
   -0.4948   23.7351  -25.3446 H   0  0  0  0  0  0  0  0  0  0  0  0
    2.2238   22.8423  -26.2848 H   0  0  0  0  0  0  0  0  0  0  0  0
    0.6395   22.8893  -27.1492 H   0  0  0  0  0  0  0  0  0  0  0  0
    3.6288   24.8184  -26.4876 H   0  0  0  0  0  0  0  0  0  0  0  0
    2.6663   26.3675  -26.5849 H   0  0  0  0  0  0  0  0  0  0  0  0
    3.0521   24.5040  -24.3118 H   0  0  0  0  0  0  0  0  0  0  0  0
    2.5934   26.2606  -24.3538 H   0  0  0  0  0  0  0  0  0  0  0  0
    0.2055   26.4122  -27.6996 H   0  0  0  0  0  0  0  0  0  0  0  0
   -1.2731   25.6810  -29.5676 H   0  0  0  0  0  0  0  0  0  0  0  0
   -3.6089   22.0792  -30.9790 H   0  0  0  0  0  0  0  0  0  0  0  0
   -4.7193   20.7910  -32.7941 H   0  0  0  0  0  0  0  0  0  0  0  0
   -8.7578   19.5157  -32.2313 H   0  0  0  0  0  0  0  0  0  0  0  0
   -8.6527   19.2566  -34.0166 H   0  0  0  0  0  0  0  0  0  0  0  0
   -6.6891   18.0737  -34.9993 H   0  0  0  0  0  0  0  0  0  0  0  0
   -5.0637   16.2134  -34.6460 H   0  0  0  0  0  0  0  0  0  0  0  0
   -4.5738   15.4019  -32.3367 H   0  0  0  0  0  0  0  0  0  0  0  0
   -5.7284   16.4326  -30.3790 H   0  0  0  0  0  0  0  0  0  0  0  0
   -7.3540   18.2940  -30.7219 H   0  0  0  0  0  0  0  0  0  0  0  0
  1  2  1  0
  2  3  1  0
  3  4  2  0
  4  5  1  0
  5  6  1  0
  6  7  1  0
  7  8  2  0
  7  9  1  0
  9 10  2  0
 10 11  1  0
 11 12  2  0
 12 13  1  0
 13 14  2  0
 13 15  2  0
 13 16  1  0
 16 17  1  0
 17 18  1  0
 18 19  1  0
 19 20  1  0
 20 21  1  0
 12 22  1  0
 22 23  2  0
  5 24  2  0
 24 25  1  0
 25 26  2  0
 26 27  1  0
 27 28  1  0
 28 29  1  0
 29 30  2  0
 30 31  1  0
 31 32  2  0
 32 33  1  0
 33 34  2  0
 26  3  1  0
 34 29  1  0
 23  9  1  0
 21 16  1  0
  1 35  1  0
  1 36  1  0
  1 37  1  0
  4 38  1  0
  6 39  1  0
 10 40  1  0
 11 41  1  0
 17 42  1  0
 17 43  1  0
 18 44  1  0
 18 45  1  0
 20 46  1  0
 20 47  1  0
 21 48  1  0
 21 49  1  0
 22 50  1  0
 23 51  1  0
 24 52  1  0
 25 53  1  0
 28 54  1  0
 28 55  1  0
 30 56  1  0
 31 57  1  0
 32 58  1  0
 33 59  1  0
 34 60  1  0
M  END
>  <UniqueID>  (16) 
14

>  <SMILES>  (16) 
COc1cc(NC(=O)c2ccc(S(=O)(=O)N3CCOCC3)cc2)ccc1OCc1ccccc1

>  <Energy>  (16) 
79.55135913971507

>  <Genealogy>  (16) 
COc1cc(NC(=O)c2ccc(S(=O)(=O)N3CCOCC3)cc2)ccc1OCc1ccccc1 (3D coordinates assigned)
COc1cc(NC(=O)c2ccc(S(=O)(=O)N3CCOCC3)cc2)ccc1OCc1ccccc1 (nonaromatic ring conformer: 79.55135913971507 kcal/mol)

>  <smiles>  (16) 
COc1cc(NC(=O)c2ccc(S(=O)(=O)N3CCOCC3)cc2)ccc1OCc1ccccc1

>  <score_type>  (16) 
oracle

>  <origin>  (16) 
adgpu

>  <m_score__min__energy>  (16) 
-9.3200000000000003

>  <m_primary>  (16) 
energy

$$$$
16:0
     RDKit          3D

 48 51  0  0  0  0  0  0  0  0999 V2000
   -9.8880   20.4690  -32.3980 C   0  0  0  0  0  0  0  0  0  0  0  0
   -8.6380   21.2030  -31.9850 C   0  0  0  0  0  0  0  0  0  0  0  0
   -8.7320   22.5800  -31.7290 C   0  0  0  0  0  0  0  0  0  0  0  0
   -7.6170   23.3100  -31.3240 C   0  0  0  0  0  0  0  0  0  0  0  0
   -6.3770   22.6790  -31.1610 C   0  0  0  0  0  0  0  0  0  0  0  0
   -5.1770   23.4330  -30.7220 C   0  0  0  0  0  0  0  0  0  0  0  0
   -4.9800   24.7990  -30.7730 C   0  0  0  0  0  0  0  0  0  0  0  0
   -3.7700   25.0870  -30.2650 N   0  0  0  0  0  0  0  0  0  0  0  0
   -3.2530   23.8840  -29.9300 C   0  0  0  0  0  0  0  0  0  0  0  0
   -1.9420   23.7070  -29.2650 C   0  0  0  0  0  0  0  0  0  0  0  0
   -1.4350   22.4010  -29.1260 C   0  0  0  0  0  0  0  0  0  0  0  0
   -0.2400   22.1700  -28.4420 C   0  0  0  0  0  0  0  0  0  0  0  0
    0.4650   23.2360  -27.8870 C   0  0  0  0  0  0  0  0  0  0  0  0
   -0.0110   24.5390  -28.0340 C   0  0  0  0  0  0  0  0  0  0  0  0
   -1.1970   24.7920  -28.7370 C   0  0  0  0  0  0  0  0  0  0  0  0
   -1.5730   26.1240  -28.9170 O   0  0  0  0  0  0  0  0  0  0  0  0
   -4.0900   22.8560  -30.1810 N   0  0  0  0  0  0  0  0  0  0  0  0
   -6.2750   21.3050  -31.4290 C   0  0  0  0  0  0  0  0  0  0  0  0
   -7.3800   20.5560  -31.8740 C   0  0  0  0  0  0  0  0  0  0  0  0
   -7.2060   18.8080  -32.2140 S   0  0  0  0  0  0  0  0  0  0  0  0
   -7.2760   18.0680  -30.9080 O   0  0  0  0  0  0  0  0  0  0  0  0
   -8.3540   18.3650  -33.0760 O   0  0  0  0  0  0  0  0  0  0  0  0
   -5.7400   18.3380  -33.0480 N   0  0  0  0  0  0  0  0  0  0  0  0
   -5.9620   18.1490  -34.4900 C   0  0  0  0  0  0  0  0  0  0  0  0
   -4.6580   17.7080  -35.1940 C   0  0  0  0  0  0  0  0  0  0  0  0
   -3.4810   17.9850  -34.4520 O   0  0  0  0  0  0  0  0  0  0  0  0
   -3.5700   19.2560  -33.8470 C   0  0  0  0  0  0  0  0  0  0  0  0
   -4.5950   19.2090  -32.7090 C   0  0  0  0  0  0  0  0  0  0  0  0
  -10.4371   20.1466  -31.5011 H   0  0  0  0  0  0  0  0  0  0  0  0
  -10.5243   21.1369  -32.9972 H   0  0  0  0  0  0  0  0  0  0  0  0
   -9.6148   19.5879  -32.9972 H   0  0  0  0  0  0  0  0  0  0  0  0
   -9.6994   23.0895  -31.8499 H   0  0  0  0  0  0  0  0  0  0  0  0
   -7.7108   24.3889  -31.1309 H   0  0  0  0  0  0  0  0  0  0  0  0
   -5.6984   25.5333  -31.1664 H   0  0  0  0  0  0  0  0  0  0  0  0
   -1.9860   21.5540  -29.5607 H   0  0  0  0  0  0  0  0  0  0  0  0
    0.1456   21.1447  -28.3411 H   0  0  0  0  0  0  0  0  0  0  0  0
    1.3969   23.0501  -27.3329 H   0  0  0  0  0  0  0  0  0  0  0  0
    0.5501   25.3765  -27.5937 H   0  0  0  0  0  0  0  0  0  0  0  0
   -2.5340   26.4300  -28.9720 H   0  0  0  0  0  0  0  0  0  0  0  0
   -5.3074   20.8013  -31.2877 H   0  0  0  0  0  0  0  0  0  0  0  0
   -6.7307   17.3763  -34.6381 H   0  0  0  0  0  0  0  0  0  0  0  0
   -6.2907   19.1048  -34.9240 H   0  0  0  0  0  0  0  0  0  0  0  0
   -4.7092   16.6233  -35.3696 H   0  0  0  0  0  0  0  0  0  0  0  0
   -4.5892   18.2848  -36.1281 H   0  0  0  0  0  0  0  0  0  0  0  0
   -2.5868   19.5397  -33.4435 H   0  0  0  0  0  0  0  0  0  0  0  0
   -3.8867   19.9972  -34.5956 H   0  0  0  0  0  0  0  0  0  0  0  0
   -4.1062   18.8207  -31.8033 H   0  0  0  0  0  0  0  0  0  0  0  0
   -4.9736   20.2283  -32.5428 H   0  0  0  0  0  0  0  0  0  0  0  0
  1  2  1  0
  2  3  2  0
  3  4  1  0
  4  5  2  0
  5  6  1  0
  6  7  2  0
  7  8  1  0
  8  9  1  0
  9 10  1  0
 10 11  2  0
 11 12  1  0
 12 13  2  0
 13 14  1  0
 14 15  2  0
 15 16  1  0
  9 17  2  0
  5 18  1  0
 18 19  2  0
 19 20  1  0
 20 21  2  0
 20 22  2  0
 20 23  1  0
 23 24  1  0
 24 25  1  0
 25 26  1  0
 26 27  1  0
 27 28  1  0
 19  2  1  0
 28 23  1  0
 17  6  1  0
 15 10  1  0
  1 29  1  0
  1 30  1  0
  1 31  1  0
  3 32  1  0
  4 33  1  0
  7 34  1  0
 11 35  1  0
 12 36  1  0
 13 37  1  0
 14 38  1  0
 16 39  1  0
 18 40  1  0
 24 41  1  0
 24 42  1  0
 25 43  1  0
 25 44  1  0
 27 45  1  0
 27 46  1  0
 28 47  1  0
 28 48  1  0
M  CHG  1   8  -1
M  END
>  <UniqueID>  (17) 
15

>  <SMILES>  (17) 
Cc1ccc(-c2c[n-]c(-c3ccccc3O)n2)cc1S(=O)(=O)N1CCOCC1

>  <Energy>  (17) 
100.2458044720714

>  <Genealogy>  (17) 
Cc1ccc(-c2c[n-]c(-c3ccccc3O)n2)cc1S(=O)(=O)N1CCOCC1 (protonated)
Cc1ccc(-c2c[n-]c(-c3ccccc3O)n2)cc1S(=O)(=O)N1CCOCC1 (3D coordinates assigned)
Cc1ccc(-c2c[n-]c(-c3ccccc3O)n2)cc1S(=O)(=O)N1CCOCC1 (nonaromatic ring conformer: 100.2458044720714 kcal/mol)

>  <smiles>  (17) 
Cc1ccc(-c2c[nH]c(-c3ccccc3O)n2)cc1S(=O)(=O)N1CCOCC1

>  <score_type>  (17) 
oracle

>  <origin>  (17) 
adgpu

>  <m_score__min__energy>  (17) 
-11.98

>  <m_primary>  (17) 
energy

$$$$
17:0
     RDKit          3D

 46 49  0  0  0  0  0  0  0  0999 V2000
   -3.5752   24.4771  -28.1117 H   0  0  0  0  0  0  0  0  0  0  0  0
   -4.0130   24.5180  -29.1200 C   0  0  0  0  0  0  0  0  0  0  0  0
   -3.4920   25.1360  -30.1580 O   0  0  0  0  0  0  0  0  0  0  0  0
   -4.2400   25.0070  -31.2150 N   0  0  0  0  0  0  0  0  0  0  0  0
   -5.2990   24.2690  -30.8420 C   0  0  0  0  0  0  0  0  0  0  0  0
   -6.2550   23.9440  -31.6580 N   0  0  0  0  0  0  0  0  0  0  0  0
   -7.6380   22.9940  -31.2170 S   0  0  0  0  0  0  0  0  0  0  0  0
   -8.8740   23.5590  -31.8610 O   0  0  0  0  0  0  0  0  0  0  0  0
   -7.8100   23.0040  -29.7230 O   0  0  0  0  0  0  0  0  0  0  0  0
   -7.3920   21.3420  -31.7700 C   0  0  0  0  0  0  0  0  0  0  0  0
   -8.4770   20.5860  -32.2330 C   0  0  0  0  0  0  0  0  0  0  0  0
   -9.4830   21.0301  -32.2584 H   0  0  0  0  0  0  0  0  0  0  0  0
   -8.2860   19.2690  -32.6630 C   0  0  0  0  0  0  0  0  0  0  0  0
   -9.1409   18.6834  -33.0322 H   0  0  0  0  0  0  0  0  0  0  0  0
   -7.0070   18.6920  -32.6250 C   0  0  0  0  0  0  0  0  0  0  0  0
   -6.7870   17.2840  -33.1080 C   0  0  0  0  0  0  0  0  0  0  0  0
   -7.3475   17.1284  -34.0416 H   0  0  0  0  0  0  0  0  0  0  0  0
   -7.1378   16.5814  -32.3377 H   0  0  0  0  0  0  0  0  0  0  0  0
   -5.3650   17.0510  -33.3540 N   0  0  0  0  0  0  0  0  0  0  0  0
   -4.8440   16.4640  -32.6670 H   0  0  0  0  0  0  0  0  0  0  0  0
   -4.6880   17.5860  -34.5020 C   0  0  0  0  0  0  0  0  0  0  0  0
   -5.3410   18.2070  -35.3850 O   0  0  0  0  0  0  0  0  0  0  0  0
   -3.2350   17.4260  -34.6790 C   0  0  0  0  0  0  0  0  0  0  0  0
   -2.6950   16.3900  -35.2960 O   0  0  0  0  0  0  0  0  0  0  0  0
   -1.3960   16.5540  -35.2860 C   0  0  0  0  0  0  0  0  0  0  0  0
   -0.4280   15.7110  -35.8230 C   0  0  0  0  0  0  0  0  0  0  0  0
   -0.7081   14.7767  -36.3316 H   0  0  0  0  0  0  0  0  0  0  0  0
    0.9190   16.0910  -35.6950 C   0  0  0  0  0  0  0  0  0  0  0  0
    1.7097   15.4470  -36.1074 H   0  0  0  0  0  0  0  0  0  0  0  0
    1.2650   17.2950  -35.0400 C   0  0  0  0  0  0  0  0  0  0  0  0
    2.3230   17.5815  -34.9476 H   0  0  0  0  0  0  0  0  0  0  0  0
    0.2600   18.1350  -34.5020 C   0  0  0  0  0  0  0  0  0  0  0  0
    0.5410   19.3410  -33.8430 O   0  0  0  0  0  0  0  0  0  0  0  0
    0.3180   20.6290  -34.4060 C   0  0  0  0  0  0  0  0  0  0  0  0
    0.1906   21.3651  -33.5985 H   0  0  0  0  0  0  0  0  0  0  0  0
    1.1805   20.9119  -35.0273 H   0  0  0  0  0  0  0  0  0  0  0  0
   -0.5894   20.6055  -35.0273 H   0  0  0  0  0  0  0  0  0  0  0  0
   -1.0650   17.7210  -34.6500 C   0  0  0  0  0  0  0  0  0  0  0  0
   -2.2430   18.3060  -34.2460 C   0  0  0  0  0  0  0  0  0  0  0  0
   -2.3732   19.2541  -33.7037 H   0  0  0  0  0  0  0  0  0  0  0  0
   -5.9230   19.4510  -32.1570 C   0  0  0  0  0  0  0  0  0  0  0  0
   -4.9168   19.0075  -32.1278 H   0  0  0  0  0  0  0  0  0  0  0  0
   -6.1150   20.7670  -31.7280 C   0  0  0  0  0  0  0  0  0  0  0  0
   -5.2614   21.3530  -31.3564 H   0  0  0  0  0  0  0  0  0  0  0  0
   -5.1990   23.9300  -29.5060 C   0  0  0  0  0  0  0  0  0  0  0  0
   -5.8965   23.3352  -28.8979 H   0  0  0  0  0  0  0  0  0  0  0  0
  1  2  1  0
  2  3  1  0
  3  4  1  0
  4  5  1  0
  5  6  2  0
  6  7  1  0
  7  8  2  0
  7  9  2  0
  7 10  1  0
 10 11  2  0
 11 12  1  0
 11 13  1  0
 13 14  1  0
 13 15  2  0
 15 16  1  0
 16 17  1  0
 16 18  1  0
 16 19  1  0
 19 20  1  0
 19 21  1  0
 21 22  2  0
 21 23  1  0
 23 24  1  0
 24 25  1  0
 25 26  2  0
 26 27  1  0
 26 28  1  0
 28 29  1  0
 28 30  2  0
 30 31  1  0
 30 32  1  0
 32 33  1  0
 33 34  1  0
 34 35  1  0
 34 36  1  0
 34 37  1  0
 32 38  2  0
 38 39  1  0
 39 40  1  0
 15 41  1  0
 41 42  1  0
 41 43  2  0
 43 44  1  0
  5 45  1  0
 45 46  1  0
 45  2  2  0
 43 10  1  0
 39 23  2  0
 38 25  1  0
M  CHG  1   4  -1
M  END
>  <UniqueID>  (18) 
16

>  <SMILES>  (18) 
COc1cccc2oc(C(=O)NCc3ccc(S(=O)(=O)/N=c4\cco[n-]4)cc3)cc12

>  <Energy>  (18) 
115.3291388379065

>  <Genealogy>  (18) 
COc1cccc2oc(C(=O)NCc3ccc(S(=O)(=O)N=c4cco[n-]4)cc3)cc12 (protonated)
COc1cccc2oc(C(=O)NCc3ccc(S(=O)(=O)/N=c4\cco[n-]4)cc3)cc12 (cis-trans isomerization)
COc1cccc2oc(C(=O)NCc3ccc(S(=O)(=O)/N=c4\cco[n-]4)cc3)cc12 (3D coordinates assigned)
COc1cccc2oc(C(=O)NCc3ccc(S(=O)(=O)/N=c4\cco[n-]4)cc3)cc12 (optimized conformer: 115.3291388379065 kcal/mol)

>  <smiles>  (18) 
COc1cccc2oc(C(=O)NCc3ccc(S(=O)(=O)N=c4cco[nH]4)cc3)cc12

>  <score_type>  (18) 
oracle

>  <origin>  (18) 
adgpu

>  <m_score__min__energy>  (18) 
-10.25

>  <m_primary>  (18) 
energy

$$$$
18:0
     RDKit          3D

 46 48  0  0  0  0  0  0  0  0999 V2000
   -6.5100   16.7650  -33.3810 C   0  0  0  0  0  0  0  0  0  0  0  0
   -6.2880   18.1560  -32.7730 C   0  0  0  0  0  0  0  0  0  0  0  0
   -7.2760   18.4270  -31.6120 C   0  0  0  0  0  0  0  0  0  0  0  0
   -8.5170   19.1970  -32.0920 C   0  0  0  0  0  0  0  0  0  0  0  0
   -8.1840   20.4950  -32.7310 N   0  0  0  0  0  0  0  0  0  0  0  0
   -8.5010   21.8410  -31.6590 S   0  0  0  0  0  0  0  0  0  0  0  0
   -9.1050   21.3260  -30.3820 O   0  0  0  0  0  0  0  0  0  0  0  0
   -9.4960   22.7690  -32.3020 O   0  0  0  0  0  0  0  0  0  0  0  0
   -7.0260   22.7360  -31.2890 C   0  0  0  0  0  0  0  0  0  0  0  0
   -7.0500   24.1340  -31.2070 C   0  0  0  0  0  0  0  0  0  0  0  0
   -5.8770   24.8440  -30.9330 C   0  0  0  0  0  0  0  0  0  0  0  0
   -4.6640   24.1680  -30.7490 C   0  0  0  0  0  0  0  0  0  0  0  0
   -3.4890   24.9350  -30.4510 N   0  0  0  0  0  0  0  0  0  0  0  0
   -2.5470   24.6860  -29.3970 C   0  0  0  0  0  0  0  0  0  0  0  0
   -1.9060   25.6480  -28.8920 O   0  0  0  0  0  0  0  0  0  0  0  0
   -2.3590   23.3120  -28.8550 C   0  0  0  0  0  0  0  0  0  0  0  0
   -3.3420   22.7660  -28.0020 C   0  0  0  0  0  0  0  0  0  0  0  0
   -3.1950   21.4800  -27.4750 C   0  0  0  0  0  0  0  0  0  0  0  0
   -2.0680   20.7200  -27.7870 C   0  0  0  0  0  0  0  0  0  0  0  0
   -1.0850   21.2420  -28.6280 C   0  0  0  0  0  0  0  0  0  0  0  0
   -1.2200   22.5290  -29.1640 C   0  0  0  0  0  0  0  0  0  0  0  0
   -0.2150   23.0060  -29.9980 O   0  0  0  0  0  0  0  0  0  0  0  0
   -4.6470   22.7620  -30.8000 C   0  0  0  0  0  0  0  0  0  0  0  0
   -5.8200   22.0530  -31.0740 C   0  0  0  0  0  0  0  0  0  0  0  0
   -6.8120   20.5830  -33.2760 C   0  0  0  0  0  0  0  0  0  0  0  0
   -6.3640   19.2450  -33.8690 C   0  0  0  0  0  0  0  0  0  0  0  0
   -6.6278   16.0267  -32.5741 H   0  0  0  0  0  0  0  0  0  0  0  0
   -7.4176   16.7770  -34.0024 H   0  0  0  0  0  0  0  0  0  0  0  0
   -5.6437   16.4939  -34.0024 H   0  0  0  0  0  0  0  0  0  0  0  0
   -5.2767   18.1896  -32.3415 H   0  0  0  0  0  0  0  0  0  0  0  0
   -7.5961   17.4655  -31.1840 H   0  0  0  0  0  0  0  0  0  0  0  0
   -6.7608   19.0408  -30.8585 H   0  0  0  0  0  0  0  0  0  0  0  0
   -9.0547   18.5746  -32.8224 H   0  0  0  0  0  0  0  0  0  0  0  0
   -9.1316   19.4149  -31.2061 H   0  0  0  0  0  0  0  0  0  0  0  0
   -7.9954   24.6755  -31.3588 H   0  0  0  0  0  0  0  0  0  0  0  0
   -5.9070   25.9413  -30.8614 H   0  0  0  0  0  0  0  0  0  0  0  0
   -4.2333   23.3590  -27.7493 H   0  0  0  0  0  0  0  0  0  0  0  0
   -3.9698   21.0664  -26.8127 H   0  0  0  0  0  0  0  0  0  0  0  0
   -1.9542   19.7086  -27.3698 H   0  0  0  0  0  0  0  0  0  0  0  0
   -0.1980   20.6389  -28.8718 H   0  0  0  0  0  0  0  0  0  0  0  0
   -3.7070   22.2187  -30.6236 H   0  0  0  0  0  0  0  0  0  0  0  0
   -5.7972   20.9543  -31.1212 H   0  0  0  0  0  0  0  0  0  0  0  0
   -6.7875   21.3505  -34.0636 H   0  0  0  0  0  0  0  0  0  0  0  0
   -6.1281   20.8464  -32.4557 H   0  0  0  0  0  0  0  0  0  0  0  0
   -7.0850   18.9323  -34.6387 H   0  0  0  0  0  0  0  0  0  0  0  0
   -5.3642   19.3719  -34.3097 H   0  0  0  0  0  0  0  0  0  0  0  0
  1  2  1  0
  2  3  1  0
  3  4  1  0
  4  5  1  0
  5  6  1  0
  6  7  2  0
  6  8  2  0
  6  9  1  0
  9 10  2  0
 10 11  1  0
 11 12  2  0
 12 13  1  0
 13 14  1  0
 14 15  2  0
 14 16  1  0
 16 17  2  0
 17 18  1  0
 18 19  2  0
 19 20  1  0
 20 21  2  0
 21 22  1  0
 12 23  1  0
 23 24  2  0
  5 25  1  0
 25 26  1  0
 26  2  1  0
 24  9  1  0
 21 16  1  0
  1 27  1  0
  1 28  1  0
  1 29  1  0
  2 30  1  0
  3 31  1  0
  3 32  1  0
  4 33  1  0
  4 34  1  0
 10 35  1  0
 11 36  1  0
 17 37  1  0
 18 38  1  0
 19 39  1  0
 20 40  1  0
 23 41  1  0
 24 42  1  0
 25 43  1  0
 25 44  1  0
 26 45  1  0
 26 46  1  0
M  CHG  2  13  -1  22  -1
M  END
>  <UniqueID>  (19) 
17

>  <SMILES>  (19) 
CC1CCN(S(=O)(=O)c2ccc([N-]C(=O)c3ccccc3[O-])cc2)CC1

>  <Energy>  (19) 
57.40427493102179

>  <Genealogy>  (19) 
CC1CCN(S(=O)(=O)c2ccc([N-]C(=O)c3ccccc3[O-])cc2)CC1 (protonated)
CC1CCN(S(=O)(=O)c2ccc([N-]C(=O)c3ccccc3[O-])cc2)CC1 (3D coordinates assigned)
CC1CCN(S(=O)(=O)c2ccc([N-]C(=O)c3ccccc3[O-])cc2)CC1 (nonaromatic ring conformer: 57.40427493102179 kcal/mol)

>  <smiles>  (19) 
CC1CCN(S(=O)(=O)c2ccc(NC(=O)c3ccccc3O)cc2)CC1

>  <score_type>  (19) 
oracle

>  <origin>  (19) 
adgpu

>  <m_score__min__energy>  (19) 
-13.51

>  <m_primary>  (19) 
energy

$$$$
19:0
     RDKit          3D

 45 47  0  0  0  0  0  0  0  0999 V2000
   -1.4320   20.0500  -28.5160 C   0  0  0  0  0  0  0  0  0  0  0  0
   -0.4190   20.5460  -27.4930 C   0  0  0  0  0  0  0  0  0  0  0  0
   -1.2530   21.2520  -26.0280 S   0  0  0  0  0  0  0  0  0  0  0  0
   -0.4770   22.8740  -26.1490 C   0  0  0  0  0  0  0  0  0  0  0  0
    0.4060   23.2670  -25.1340 C   0  0  0  0  0  0  0  0  0  0  0  0
    1.0800   24.4880  -25.2150 C   0  0  0  0  0  0  0  0  0  0  0  0
    0.8770   25.3250  -26.3130 C   0  0  0  0  0  0  0  0  0  0  0  0
   -0.0120   24.9510  -27.3240 C   0  0  0  0  0  0  0  0  0  0  0  0
   -0.7150   23.7400  -27.2410 C   0  0  0  0  0  0  0  0  0  0  0  0
   -1.6270   23.3960  -28.2950 N   0  0  0  0  0  0  0  0  0  0  0  0
   -2.3800   24.3810  -29.0200 C   0  0  0  0  0  0  0  0  0  0  0  0
   -2.0270   25.5930  -28.9690 O   0  0  0  0  0  0  0  0  0  0  0  0
   -3.5500   23.9930  -29.8420 C   0  0  0  0  0  0  0  0  0  0  0  0
   -3.4410   23.0050  -30.8370 C   0  0  0  0  0  0  0  0  0  0  0  0
   -4.5540   22.6330  -31.5960 C   0  0  0  0  0  0  0  0  0  0  0  0
   -5.8050   23.2300  -31.3670 C   0  0  0  0  0  0  0  0  0  0  0  0
   -6.9900   22.8540  -32.1750 C   0  0  0  0  0  0  0  0  0  0  0  0
   -7.6230   23.7590  -32.7860 O   0  0  0  0  0  0  0  0  0  0  0  0
   -7.4590   21.4510  -32.2930 C   0  0  0  0  0  0  0  0  0  0  0  0
   -8.7290   21.0700  -31.8190 C   0  0  0  0  0  0  0  0  0  0  0  0
   -9.1660   19.7480  -31.9520 C   0  0  0  0  0  0  0  0  0  0  0  0
   -8.3470   18.7990  -32.5680 C   0  0  0  0  0  0  0  0  0  0  0  0
   -7.0930   19.1700  -33.0570 C   0  0  0  0  0  0  0  0  0  0  0  0
   -6.6510   20.4900  -32.9260 C   0  0  0  0  0  0  0  0  0  0  0  0
   -5.9140   24.2240  -30.3810 C   0  0  0  0  0  0  0  0  0  0  0  0
   -4.8020   24.5950  -29.6210 C   0  0  0  0  0  0  0  0  0  0  0  0
   -2.3017   19.6242  -27.9941 H   0  0  0  0  0  0  0  0  0  0  0  0
   -1.7580   20.8904  -29.1464 H   0  0  0  0  0  0  0  0  0  0  0  0
   -0.9681   19.2771  -29.1464 H   0  0  0  0  0  0  0  0  0  0  0  0
    0.2125   19.7032  -27.1753 H   0  0  0  0  0  0  0  0  0  0  0  0
    0.1916   21.3329  -27.9599 H   0  0  0  0  0  0  0  0  0  0  0  0
    0.5695   22.6094  -24.2675 H   0  0  0  0  0  0  0  0  0  0  0  0
    1.7705   24.7895  -24.4135 H   0  0  0  0  0  0  0  0  0  0  0  0
    1.4176   26.2805  -26.3827 H   0  0  0  0  0  0  0  0  0  0  0  0
   -0.1617   25.6109  -28.1912 H   0  0  0  0  0  0  0  0  0  0  0  0
   -1.5770   22.4280  -28.6830 H   0  0  0  0  0  0  0  0  0  0  0  0
   -2.4705   22.5204  -31.0196 H   0  0  0  0  0  0  0  0  0  0  0  0
   -4.4498   21.8670  -32.3786 H   0  0  0  0  0  0  0  0  0  0  0  0
   -9.3811   21.8162  -31.3415 H   0  0  0  0  0  0  0  0  0  0  0  0
  -10.1556   19.4554  -31.5711 H   0  0  0  0  0  0  0  0  0  0  0  0
   -8.6902   17.7587  -32.6679 H   0  0  0  0  0  0  0  0  0  0  0  0
   -6.4515   18.4223  -33.5463 H   0  0  0  0  0  0  0  0  0  0  0  0
   -5.6655   20.7783  -33.3204 H   0  0  0  0  0  0  0  0  0  0  0  0
   -6.8828   24.7145  -30.2056 H   0  0  0  0  0  0  0  0  0  0  0  0
   -4.9065   25.3651  -28.8425 H   0  0  0  0  0  0  0  0  0  0  0  0
  1  2  1  0
  2  3  1  0
  3  4  1  0
  4  5  2  0
  5  6  1  0
  6  7  2  0
  7  8  1  0
  8  9  2  0
  9 10  1  0
 10 11  1  0
 11 12  2  0
 11 13  1  0
 13 14  2  0
 14 15  1  0
 15 16  2  0
 16 17  1  0
 17 18  2  0
 17 19  1  0
 19 20  2  0
 20 21  1  0
 21 22  2  0
 22 23  1  0
 23 24  2  0
 16 25  1  0
 25 26  2  0
  9  4  1  0
 26 13  1  0
 24 19  1  0
  1 27  1  0
  1 28  1  0
  1 29  1  0
  2 30  1  0
  2 31  1  0
  5 32  1  0
  6 33  1  0
  7 34  1  0
  8 35  1  0
 10 36  1  0
 14 37  1  0
 15 38  1  0
 20 39  1  0
 21 40  1  0
 22 41  1  0
 23 42  1  0
 24 43  1  0
 25 44  1  0
 26 45  1  0
M  END
>  <UniqueID>  (20) 
18

>  <SMILES>  (20) 
CCSc1ccccc1NC(=O)c1ccc(C(=O)c2ccccc2)cc1

>  <Energy>  (20) 
54.80900878111071

>  <Genealogy>  (20) 
CCSc1ccccc1NC(=O)c1ccc(C(=O)c2ccccc2)cc1 (3D coordinates assigned)
CCSc1ccccc1NC(=O)c1ccc(C(=O)c2ccccc2)cc1 (optimized conformer: 54.80900878111071 kcal/mol)

>  <smiles>  (20) 
CCSc1ccccc1NC(=O)c1ccc(C(=O)c2ccccc2)cc1

>  <score_type>  (20) 
oracle

>  <origin>  (20) 
adgpu

>  <m_score__min__energy>  (20) 
-9.3300000000000001

>  <m_primary>  (20) 
energy

$$$$
20:0
     RDKit          3D

 51 54  0  0  0  0  0  0  0  0999 V2000
   -0.2230   20.9820  -31.1290 N   0  0  0  0  0  0  0  0  0  0  0  0
   -1.3570   21.6130  -31.0280 C   0  0  0  0  0  0  0  0  0  0  0  0
   -2.1950   21.6610  -32.0490 N   0  0  0  0  0  0  0  0  0  0  0  0
   -3.4050   22.3080  -32.0100 C   0  0  0  0  0  0  0  0  0  0  0  0
   -4.1020   22.2920  -33.0080 N   0  0  0  0  0  0  0  0  0  0  0  0
   -3.6720   22.9140  -30.7810 C   0  0  0  0  0  0  0  0  0  0  0  0
   -4.8500   23.5960  -30.6070 C   0  0  0  0  0  0  0  0  0  0  0  0
   -6.0390   23.7290  -31.8910 S   0  0  0  0  0  0  0  0  0  0  0  0
   -7.2220   22.4400  -31.9340 C   0  0  0  0  0  0  0  0  0  0  0  0
   -8.4510   22.5770  -31.2990 C   0  0  0  0  0  0  0  0  0  0  0  0
   -9.3530   21.5370  -31.3590 C   0  0  0  0  0  0  0  0  0  0  0  0
   -9.0430   20.3670  -32.0410 C   0  0  0  0  0  0  0  0  0  0  0  0
   -7.8270   20.2310  -32.6690 C   0  0  0  0  0  0  0  0  0  0  0  0
   -7.4350   19.0680  -33.3860 N   0  0  0  0  0  0  0  0  0  0  0  0
   -7.2630   17.8300  -32.6600 C   0  0  0  0  0  0  0  0  0  0  0  0
   -7.4800   17.8900  -31.4340 O   0  0  0  0  0  0  0  0  0  0  0  0
   -6.8590   16.6620  -33.4380 C   0  0  0  0  0  0  0  0  0  0  0  0
   -5.8900   16.8790  -34.5450 C   0  0  0  0  0  0  0  0  0  0  0  0
   -4.6100   17.5000  -34.1690 C   0  0  0  0  0  0  0  0  0  0  0  0
   -4.3370   18.8460  -34.2070 C   0  0  0  0  0  0  0  0  0  0  0  0
   -3.1160   19.3850  -33.8260 C   0  0  0  0  0  0  0  0  0  0  0  0
   -2.1290   18.5270  -33.3880 C   0  0  0  0  0  0  0  0  0  0  0  0
   -2.3780   17.1570  -33.3410 C   0  0  0  0  0  0  0  0  0  0  0  0
   -3.6030   16.6360  -33.7260 C   0  0  0  0  0  0  0  0  0  0  0  0
   -6.9320   21.2730  -32.6050 C   0  0  0  0  0  0  0  0  0  0  0  0
   -5.0980   24.1870  -29.3950 C   0  0  0  0  0  0  0  0  0  0  0  0
   -4.2360   24.1420  -28.3300 C   0  0  0  0  0  0  0  0  0  0  0  0
   -3.0510   23.4580  -28.5010 C   0  0  0  0  0  0  0  0  0  0  0  0
   -2.8030   22.8640  -29.7220 C   0  0  0  0  0  0  0  0  0  0  0  0
   -1.6410   22.2050  -29.8580 N   0  0  0  0  0  0  0  0  0  0  0  0
    0.0030   20.5170  -32.0400 H   0  0  0  0  0  0  0  0  0  0  0  0
   -1.9130   21.1780  -32.9350 H   0  0  0  0  0  0  0  0  0  0  0  0
   -4.8850   22.5130  -33.5040 H   0  0  0  0  0  0  0  0  0  0  0  0
   -8.6996   23.5013  -30.7570 H   0  0  0  0  0  0  0  0  0  0  0  0
  -10.3292   21.6342  -30.8614 H   0  0  0  0  0  0  0  0  0  0  0  0
   -9.7736   19.5455  -32.0789 H   0  0  0  0  0  0  0  0  0  0  0  0
   -7.2850   19.1420  -34.4000 H   0  0  0  0  0  0  0  0  0  0  0  0
   -6.4073   15.9412  -32.7406 H   0  0  0  0  0  0  0  0  0  0  0  0
   -7.7803   16.3215  -33.9332 H   0  0  0  0  0  0  0  0  0  0  0  0
   -5.6696   15.9003  -34.9961 H   0  0  0  0  0  0  0  0  0  0  0  0
   -6.3754   17.5907  -35.2290 H   0  0  0  0  0  0  0  0  0  0  0  0
   -5.1245   19.5299  -34.5564 H   0  0  0  0  0  0  0  0  0  0  0  0
   -2.9399   20.4698  -33.8723 H   0  0  0  0  0  0  0  0  0  0  0  0
   -1.1505   18.9222  -33.0775 H   0  0  0  0  0  0  0  0  0  0  0  0
   -1.5876   16.4763  -32.9918 H   0  0  0  0  0  0  0  0  0  0  0  0
   -3.7821   15.5515  -33.6836 H   0  0  0  0  0  0  0  0  0  0  0  0
   -5.9569   21.1715  -33.1039 H   0  0  0  0  0  0  0  0  0  0  0  0
   -6.0462   24.7303  -29.2695 H   0  0  0  0  0  0  0  0  0  0  0  0
   -4.4802   24.6325  -27.3761 H   0  0  0  0  0  0  0  0  0  0  0  0
   -2.3195   23.3873  -27.6825 H   0  0  0  0  0  0  0  0  0  0  0  0
   -0.9730   22.1610  -29.0580 H   0  0  0  0  0  0  0  0  0  0  0  0
  1  2  2  3
  2  3  1  0
  3  4  1  0
  4  5  2  3
  4  6  1  0
  6  7  2  0
  7  8  1  0
  8  9  1  0
  9 10  2  0
 10 11  1  0
 11 12  2  0
 12 13  1  0
 13 14  1  0
 14 15  1  0
 15 16  2  0
 15 17  1  0
 17 18  1  0
 18 19  1  0
 19 20  2  0
 20 21  1  0
 21 22  2  0
 22 23  1  0
 23 24  2  0
 13 25  2  0
  7 26  1  0
 26 27  2  0
 27 28  1  0
 28 29  2  0
 29 30  1  0
 30  2  1  0
 29  6  1  0
 25  9  1  0
 24 19  1  0
  1 31  1  0
  3 32  1  0
  5 33  1  0
 10 34  1  0
 11 35  1  0
 12 36  1  0
 14 37  1  0
 17 38  1  0
 17 39  1  0
 18 40  1  0
 18 41  1  0
 20 42  1  0
 21 43  1  0
 22 44  1  0
 23 45  1  0
 24 46  1  0
 25 47  1  0
 26 48  1  0
 27 49  1  0
 28 50  1  0
 30 51  1  0
M  END
>  <smiles>  (21) 
N=c1[nH]c(=N)c2c(Sc3cccc(NC(=O)CCc4ccccc4)c3)cccc2[nH]1

>  <score_type>  (21) 
oracle

>  <origin>  (21) 
adgpu

>  <m_score__min__energy>  (21) 
-10.17

>  <m_primary>  (21) 
energy

$$$$
21:0
     RDKit          3D

 43 45  0  0  0  0  0  0  0  0999 V2000
   -1.5360   25.6930  -28.9620 O   0  0  0  0  0  0  0  0  0  0  0  0
   -2.3960   24.8430  -29.3180 C   0  0  0  0  0  0  0  0  0  0  0  0
   -3.4920   25.2800  -30.1350 N   0  0  0  0  0  0  0  0  0  0  0  0
   -4.6470   24.5060  -30.4880 C   0  0  0  0  0  0  0  0  0  0  0  0
   -4.4550   23.2260  -31.0220 C   0  0  0  0  0  0  0  0  0  0  0  0
   -5.5500   22.4320  -31.3880 C   0  0  0  0  0  0  0  0  0  0  0  0
   -5.2900   20.8260  -32.0720 S   0  0  0  0  0  0  0  0  0  0  0  0
   -4.1180   20.1820  -31.3840 O   0  0  0  0  0  0  0  0  0  0  0  0
   -4.9580   20.9540  -33.5330 O   0  0  0  0  0  0  0  0  0  0  0  0
   -6.6990   19.8110  -31.8830 N   0  0  0  0  0  0  0  0  0  0  0  0
   -7.7970   20.2940  -32.7350 C   0  0  0  0  0  0  0  0  0  0  0  0
   -9.1070   19.5610  -32.3880 C   0  0  0  0  0  0  0  0  0  0  0  0
   -8.8580   18.1890  -31.7380 C   0  0  0  0  0  0  0  0  0  0  0  0
   -7.6190   17.5150  -32.3310 C   0  0  0  0  0  0  0  0  0  0  0  0
   -6.3620   18.4070  -32.2010 C   0  0  0  0  0  0  0  0  0  0  0  0
   -6.8500   22.9210  -31.2040 C   0  0  0  0  0  0  0  0  0  0  0  0
   -7.0520   24.1830  -30.6430 C   0  0  0  0  0  0  0  0  0  0  0  0
   -5.9590   24.9770  -30.2680 C   0  0  0  0  0  0  0  0  0  0  0  0
   -6.1760   26.2110  -29.6590 O   0  0  0  0  0  0  0  0  0  0  0  0
   -2.2730   23.4430  -28.8480 C   0  0  0  0  0  0  0  0  0  0  0  0
   -1.2830   22.5860  -29.3550 C   0  0  0  0  0  0  0  0  0  0  0  0
   -1.1900   21.2720  -28.8960 C   0  0  0  0  0  0  0  0  0  0  0  0
   -2.0970   20.8170  -27.9380 C   0  0  0  0  0  0  0  0  0  0  0  0
   -3.0620   21.6480  -27.4660 N   0  0  0  0  0  0  0  0  0  0  0  0
   -3.1730   22.9330  -27.8970 C   0  0  0  0  0  0  0  0  0  0  0  0
   -3.4338   22.8396  -31.1556 H   0  0  0  0  0  0  0  0  0  0  0  0
   -7.9323   21.3738  -32.5748 H   0  0  0  0  0  0  0  0  0  0  0  0
   -7.5455   20.0972  -33.7876 H   0  0  0  0  0  0  0  0  0  0  0  0
   -9.6852   20.1831  -31.6890 H   0  0  0  0  0  0  0  0  0  0  0  0
   -9.6553   19.3925  -33.3266 H   0  0  0  0  0  0  0  0  0  0  0  0
   -8.7098   18.3254  -30.6566 H   0  0  0  0  0  0  0  0  0  0  0  0
   -9.7306   17.5476  -31.9309 H   0  0  0  0  0  0  0  0  0  0  0  0
   -7.4402   16.5683  -31.8001 H   0  0  0  0  0  0  0  0  0  0  0  0
   -7.8044   17.3395  -33.4010 H   0  0  0  0  0  0  0  0  0  0  0  0
   -5.7254   18.0059  -31.3986 H   0  0  0  0  0  0  0  0  0  0  0  0
   -5.8418   18.3977  -33.1702 H   0  0  0  0  0  0  0  0  0  0  0  0
   -7.7137   22.3087  -31.5025 H   0  0  0  0  0  0  0  0  0  0  0  0
   -8.0756   24.5572  -30.4941 H   0  0  0  0  0  0  0  0  0  0  0  0
   -5.4810   26.6380  -29.0580 H   0  0  0  0  0  0  0  0  0  0  0  0
   -0.5786   22.9519  -30.1165 H   0  0  0  0  0  0  0  0  0  0  0  0
   -0.4097   20.6014  -29.2852 H   0  0  0  0  0  0  0  0  0  0  0  0
   -2.0303   19.7844  -27.5648 H   0  0  0  0  0  0  0  0  0  0  0  0
   -3.9715   23.5765  -27.4991 H   0  0  0  0  0  0  0  0  0  0  0  0
  1  2  2  0
  2  3  1  0
  3  4  1  0
  4  5  2  0
  5  6  1  0
  6  7  1  0
  7  8  2  0
  7  9  2  0
  7 10  1  0
 10 11  1  0
 11 12  1  0
 12 13  1  0
 13 14  1  0
 14 15  1  0
  6 16  2  0
 16 17  1  0
 17 18  2  0
 18 19  1  0
  2 20  1  0
 20 21  2  0
 21 22  1  0
 22 23  2  0
 23 24  1  0
 24 25  2  0
 18  4  1  0
 25 20  1  0
 15 10  1  0
  5 26  1  0
 11 27  1  0
 11 28  1  0
 12 29  1  0
 12 30  1  0
 13 31  1  0
 13 32  1  0
 14 33  1  0
 14 34  1  0
 15 35  1  0
 15 36  1  0
 16 37  1  0
 17 38  1  0
 19 39  1  0
 21 40  1  0
 22 41  1  0
 23 42  1  0
 25 43  1  0
M  CHG  1   3  -1
M  END
>  <UniqueID>  (22) 
19

>  <SMILES>  (22) 
O=C([N-]c1cc(S(=O)(=O)N2CCCCC2)ccc1O)c1cccnc1

>  <Energy>  (22) 
55.65121236157873

>  <Genealogy>  (22) 
O=C([N-]c1cc(S(=O)(=O)N2CCCCC2)ccc1O)c1cccnc1 (protonated)
O=C([N-]c1cc(S(=O)(=O)N2CCCCC2)ccc1O)c1cccnc1 (3D coordinates assigned)
O=C([N-]c1cc(S(=O)(=O)N2CCCCC2)ccc1O)c1cccnc1 (nonaromatic ring conformer: 55.65121236157873 kcal/mol)

>  <smiles>  (22) 
O=C(Nc1cc(S(=O)(=O)N2CCCCC2)ccc1O)c1cccnc1

>  <score_type>  (22) 
oracle

>  <origin>  (22) 
adgpu

>  <m_score__min__energy>  (22) 
-10.630000000000001

>  <m_primary>  (22) 
energy

$$$$
22:0
     RDKit          3D

 51 54  0  0  0  0  0  0  0  0999 V2000
   -9.4670   19.3210  -32.3570 C   0  0  0  0  0  0  0  0  0  0  0  0
   -8.6790   20.4650  -32.6710 O   0  0  0  0  0  0  0  0  0  0  0  0
   -7.2790   20.4590  -32.7640 C   0  0  0  0  0  0  0  0  0  0  0  0
   -6.5630   21.5220  -32.1590 C   0  0  0  0  0  0  0  0  0  0  0  0
   -5.1590   21.5800  -32.2310 C   0  0  0  0  0  0  0  0  0  0  0  0
   -4.5090   20.5550  -32.9120 C   0  0  0  0  0  0  0  0  0  0  0  0
   -3.1990   20.4090  -33.1350 N   0  0  0  0  0  0  0  0  0  0  0  0
   -3.1220   19.2620  -33.8520 C   0  0  0  0  0  0  0  0  0  0  0  0
   -1.5770   18.6030  -34.4800 S   0  0  0  0  0  0  0  0  0  0  0  0
   -0.7810   20.2350  -34.6770 C   0  0  0  0  0  0  0  0  0  0  0  0
   -0.1920   20.7030  -33.3870 C   0  0  0  0  0  0  0  0  0  0  0  0
    0.6950   21.5970  -33.3960 O   0  0  0  0  0  0  0  0  0  0  0  0
   -0.5750   20.0570  -32.1660 N   0  0  0  0  0  0  0  0  0  0  0  0
   -0.9280   20.6970  -30.9330 C   0  0  0  0  0  0  0  0  0  0  0  0
   -0.4580   20.1480  -29.7350 C   0  0  0  0  0  0  0  0  0  0  0  0
   -0.7730   20.7450  -28.5120 C   0  0  0  0  0  0  0  0  0  0  0  0
   -1.5670   21.8930  -28.4770 C   0  0  0  0  0  0  0  0  0  0  0  0
   -2.0520   22.4500  -29.6670 C   0  0  0  0  0  0  0  0  0  0  0  0
   -3.0080   23.9300  -29.6220 S   0  0  0  0  0  0  0  0  0  0  0  0
   -3.5910   24.1840  -30.9840 O   0  0  0  0  0  0  0  0  0  0  0  0
   -4.1380   23.7630  -28.6470 O   0  0  0  0  0  0  0  0  0  0  0  0
   -2.0540   25.3020  -29.1560 N   0  0  0  0  0  0  0  0  0  0  0  0
   -0.9240   25.2110  -28.2850 C   0  0  0  0  0  0  0  0  0  0  0  0
    0.0720   24.5320  -28.6500 O   0  0  0  0  0  0  0  0  0  0  0  0
   -0.9200   25.8560  -26.9540 C   0  0  0  0  0  0  0  0  0  0  0  0
   -0.5510   27.2030  -26.8080 C   0  0  0  0  0  0  0  0  0  0  0  0
   -0.5350   27.7910  -25.5400 C   0  0  0  0  0  0  0  0  0  0  0  0
   -0.8960   27.0290  -24.4270 C   0  0  0  0  0  0  0  0  0  0  0  0
   -1.2690   25.7300  -24.5830 N   0  0  0  0  0  0  0  0  0  0  0  0
   -1.2980   25.1350  -25.8090 C   0  0  0  0  0  0  0  0  0  0  0  0
   -1.7470   21.8390  -30.8950 C   0  0  0  0  0  0  0  0  0  0  0  0
   -4.3250   18.6760  -34.0880 N   0  0  0  0  0  0  0  0  0  0  0  0
   -5.1830   19.5180  -33.4830 C   0  0  0  0  0  0  0  0  0  0  0  0
   -6.5720   19.4300  -33.4360 C   0  0  0  0  0  0  0  0  0  0  0  0
   -9.5402   19.2148  -31.2646 H   0  0  0  0  0  0  0  0  0  0  0  0
  -10.4744   19.4418  -32.7819 H   0  0  0  0  0  0  0  0  0  0  0  0
   -8.9951   18.4228  -32.7819 H   0  0  0  0  0  0  0  0  0  0  0  0
   -7.1122   22.3122  -31.6261 H   0  0  0  0  0  0  0  0  0  0  0  0
   -4.5968   22.4037  -31.7669 H   0  0  0  0  0  0  0  0  0  0  0  0
   -2.4230   21.0470  -32.8530 H   0  0  0  0  0  0  0  0  0  0  0  0
    0.0174   20.1572  -35.4296 H   0  0  0  0  0  0  0  0  0  0  0  0
   -1.5436   20.9602  -34.9973 H   0  0  0  0  0  0  0  0  0  0  0  0
    0.1634   19.2406  -29.7563 H   0  0  0  0  0  0  0  0  0  0  0  0
   -0.3949   20.3100  -27.5751 H   0  0  0  0  0  0  0  0  0  0  0  0
   -1.8122   22.3612  -27.5123 H   0  0  0  0  0  0  0  0  0  0  0  0
   -0.2743   27.7959  -27.6922 H   0  0  0  0  0  0  0  0  0  0  0  0
   -0.2408   28.8441  -25.4201 H   0  0  0  0  0  0  0  0  0  0  0  0
   -0.8788   27.4793  -23.4235 H   0  0  0  0  0  0  0  0  0  0  0  0
   -1.6184   24.0868  -25.9022 H   0  0  0  0  0  0  0  0  0  0  0  0
   -2.1504   22.2556  -31.8297 H   0  0  0  0  0  0  0  0  0  0  0  0
   -7.1037   18.5891  -33.9052 H   0  0  0  0  0  0  0  0  0  0  0  0
  1  2  1  0
  2  3  1  0
  3  4  2  0
  4  5  1  0
  5  6  2  0
  6  7  1  0
  7  8  1  0
  8  9  1  0
  9 10  1  0
 10 11  1  0
 11 12  2  0
 11 13  1  0
 13 14  1  0
 14 15  2  0
 15 16  1  0
 16 17  2  0
 17 18  1  0
 18 19  1  0
 19 20  2  0
 19 21  2  0
 19 22  1  0
 22 23  1  0
 23 24  2  0
 23 25  1  0
 25 26  2  0
 26 27  1  0
 27 28  2  0
 28 29  1  0
 29 30  2  0
 18 31  2  0
  8 32  2  0
 32 33  1  0
 33 34  2  0
 34  3  1  0
 33  6  1  0
 31 14  1  0
 30 25  1  0
  1 35  1  0
  1 36  1  0
  1 37  1  0
  4 38  1  0
  5 39  1  0
  7 40  1  0
 10 41  1  0
 10 42  1  0
 15 43  1  0
 16 44  1  0
 17 45  1  0
 26 46  1  0
 27 47  1  0
 28 48  1  0
 30 49  1  0
 31 50  1  0
 34 51  1  0
M  CHG  2  13  -1  22  -1
M  END
>  <UniqueID>  (23) 
20

>  <SMILES>  (23) 
COc1ccc2[nH]c(SCC(=O)[N-]c3cccc(S(=O)(=O)[N-]C(=O)c4cccnc4)c3)nc2c1

>  <Energy>  (23) 
95.16989904877725

>  <Genealogy>  (23) 
COc1ccc2[nH]c(SCC(=O)[N-]c3cccc(S(=O)(=O)[N-]C(=O)c4cccnc4)c3)nc2c1 (protonated)
COc1ccc2[nH]c(SCC(=O)[N-]c3cccc(S(=O)(=O)[N-]C(=O)c4cccnc4)c3)nc2c1 (3D coordinates assigned)
COc1ccc2[nH]c(SCC(=O)[N-]c3cccc(S(=O)(=O)[N-]C(=O)c4cccnc4)c3)nc2c1 (optimized conformer: 95.16989904877725 kcal/mol)

>  <smiles>  (23) 
COc1ccc2[nH]c(SCC(=O)Nc3cccc(S(=O)(=O)NC(=O)c4cccnc4)c3)nc2c1

>  <score_type>  (23) 
oracle

>  <origin>  (23) 
adgpu

>  <m_score__min__energy>  (23) 
-10.470000000000001

>  <m_primary>  (23) 
energy

$$$$
23:0
     RDKit          3D

 63 67  0  0  0  0  0  0  0  0999 V2000
   -0.7930   29.8280  -25.0400 C   0  0  0  0  0  0  0  0  0  0  0  0
   -0.7620   28.3770  -25.1730 N   0  0  0  0  0  0  0  0  0  0  0  0
   -0.7210   27.6850  -26.3270 C   0  0  0  0  0  0  0  0  0  0  0  0
   -0.7580   26.3460  -26.0090 C   0  0  0  0  0  0  0  0  0  0  0  0
   -0.7340   24.9920  -27.1260 S   0  0  0  0  0  0  0  0  0  0  0  0
    0.5770   24.9460  -27.8590 O   0  0  0  0  0  0  0  0  0  0  0  0
   -0.8920   23.7190  -26.3440 O   0  0  0  0  0  0  0  0  0  0  0  0
   -2.0330   25.1260  -28.2710 N   0  0  0  0  0  0  0  0  0  0  0  0
   -2.3680   24.1150  -29.2450 C   0  0  0  0  0  0  0  0  0  0  0  0
   -1.7850   22.8370  -29.2060 C   0  0  0  0  0  0  0  0  0  0  0  0
   -2.0240   21.8830  -30.2180 C   0  0  0  0  0  0  0  0  0  0  0  0
   -3.0510   22.1560  -31.1570 C   0  0  0  0  0  0  0  0  0  0  0  0
   -3.6390   23.4280  -31.1910 C   0  0  0  0  0  0  0  0  0  0  0  0
   -3.2880   24.4070  -30.2630 C   0  0  0  0  0  0  0  0  0  0  0  0
   -3.8760   25.6640  -30.3480 O   0  0  0  0  0  0  0  0  0  0  0  0
   -3.5390   21.1380  -32.1590 C   0  0  0  0  0  0  0  0  0  0  0  0
   -3.0240   19.7140  -31.9310 C   0  0  0  0  0  0  0  0  0  0  0  0
   -1.5720   19.6230  -31.4110 C   0  0  1  0  0  0  0  0  0  0  0  0
   -0.5160   19.7750  -32.4540 N   0  0  0  0  0  0  0  0  0  0  0  0
   -0.0520   21.1370  -32.7990 C   0  0  0  0  0  0  0  0  0  0  0  0
   -0.5490   21.5600  -34.1930 C   0  0  0  0  0  0  0  0  0  0  0  0
   -0.1090   20.7020  -35.2380 O   0  0  0  0  0  0  0  0  0  0  0  0
    0.1270   19.3630  -34.8220 C   0  0  0  0  0  0  0  0  0  0  0  0
   -0.7470   18.9190  -33.6380 C   0  0  0  0  0  0  0  0  0  0  0  0
   -1.3610   20.5070  -30.1460 C   0  0  1  0  0  0  0  0  0  0  0  0
    0.1100   20.4630  -29.6140 C   0  0  0  0  0  0  0  0  0  0  0  0
    0.5850   19.1440  -29.0370 C   0  0  0  0  0  0  0  0  0  0  0  0
   -0.1460   18.5320  -28.0010 C   0  0  0  0  0  0  0  0  0  0  0  0
    0.2870   17.3250  -27.4440 C   0  0  0  0  0  0  0  0  0  0  0  0
    1.4590   16.7210  -27.9040 C   0  0  0  0  0  0  0  0  0  0  0  0
    2.2040   17.3280  -28.9170 C   0  0  0  0  0  0  0  0  0  0  0  0
    3.3480   16.7480  -29.3550 F   0  0  0  0  0  0  0  0  0  0  0  0
    1.7780   18.5380  -29.4710 C   0  0  0  0  0  0  0  0  0  0  0  0
   -0.8250   26.2910  -24.6320 C   0  0  0  0  0  0  0  0  0  0  0  0
   -0.8290   27.5470  -24.1430 N   0  0  0  0  0  0  0  0  0  0  0  0
   -0.7988   30.0984  -23.9738 H   0  0  0  0  0  0  0  0  0  0  0  0
    0.0961   30.2595  -25.5229 H   0  0  0  0  0  0  0  0  0  0  0  0
   -1.6998   30.2212  -25.5229 H   0  0  0  0  0  0  0  0  0  0  0  0
   -0.6677   28.1116  -27.3395 H   0  0  0  0  0  0  0  0  0  0  0  0
   -2.6130   25.9940  -28.2110 H   0  0  0  0  0  0  0  0  0  0  0  0
   -1.1259   22.5737  -28.3656 H   0  0  0  0  0  0  0  0  0  0  0  0
   -4.3892   23.6572  -31.9621 H   0  0  0  0  0  0  0  0  0  0  0  0
   -4.6379   21.1153  -32.1162 H   0  0  0  0  0  0  0  0  0  0  0  0
   -3.1490   21.4552  -33.1374 H   0  0  0  0  0  0  0  0  0  0  0  0
   -3.6814   19.2265  -31.1960 H   0  0  0  0  0  0  0  0  0  0  0  0
   -3.0308   19.2222  -32.9149 H   0  0  0  0  0  0  0  0  0  0  0  0
   -1.4337   18.5798  -31.0909 H   0  0  0  0  0  0  0  0  0  0  0  0
   -0.4357   21.8466  -32.0511 H   0  0  0  0  0  0  0  0  0  0  0  0
    1.0480   21.1377  -32.8073 H   0  0  0  0  0  0  0  0  0  0  0  0
   -1.6490   21.5619  -34.1844 H   0  0  0  0  0  0  0  0  0  0  0  0
   -0.1308   22.5569  -34.3961 H   0  0  0  0  0  0  0  0  0  0  0  0
   -0.0750   18.6948  -35.6721 H   0  0  0  0  0  0  0  0  0  0  0  0
    1.1731   19.3112  -34.4857 H   0  0  0  0  0  0  0  0  0  0  0  0
   -1.8059   18.9859  -33.9284 H   0  0  0  0  0  0  0  0  0  0  0  0
   -0.4817   17.8838  -33.3773 H   0  0  0  0  0  0  0  0  0  0  0  0
   -1.9382   20.0336  -29.3381 H   0  0  0  0  0  0  0  0  0  0  0  0
    0.7754   20.7196  -30.4515 H   0  0  0  0  0  0  0  0  0  0  0  0
    0.1354   21.1725  -28.7738 H   0  0  0  0  0  0  0  0  0  0  0  0
   -1.0649   19.0072  -27.6269 H   0  0  0  0  0  0  0  0  0  0  0  0
   -0.2968   16.8501  -26.6417 H   0  0  0  0  0  0  0  0  0  0  0  0
    1.7949   15.7682  -27.4689 H   0  0  0  0  0  0  0  0  0  0  0  0
    2.3811   19.0212  -30.2538 H   0  0  0  0  0  0  0  0  0  0  0  0
   -0.8682   25.3710  -24.0306 H   0  0  0  0  0  0  0  0  0  0  0  0
  1  2  1  0
  2  3  1  0
  3  4  2  0
  4  5  1  0
  5  6  2  0
  5  7  2  0
  5  8  1  0
  8  9  1  0
  9 10  2  0
 10 11  1  0
 11 12  2  0
 12 13  1  0
 13 14  2  0
 14 15  1  0
 12 16  1  0
 16 17  1  0
 17 18  1  0
 18 19  1  0
 19 20  1  0
 20 21  1  0
 21 22  1  0
 22 23  1  0
 23 24  1  0
 18 25  1  0
 25 26  1  0
 26 27  1  0
 27 28  2  0
 28 29  1  0
 29 30  2  0
 30 31  1  0
 31 32  1  0
 31 33  2  0
  4 34  1  0
 34 35  2  0
 35  2  1  0
 14  9  1  0
 24 19  1  0
 33 27  1  0
 25 11  1  0
  1 36  1  0
  1 37  1  0
  1 38  1  0
  3 39  1  0
  8 40  1  0
 10 41  1  0
 13 42  1  0
 16 43  1  0
 16 44  1  0
 17 45  1  0
 17 46  1  0
 18 47  1  1
 20 48  1  0
 20 49  1  0
 21 50  1  0
 21 51  1  0
 23 52  1  0
 23 53  1  0
 24 54  1  0
 24 55  1  0
 25 56  1  1
 26 57  1  0
 26 58  1  0
 28 59  1  0
 29 60  1  0
 30 61  1  0
 33 62  1  0
 34 63  1  0
M  CHG  1  15  -1
M  END
>  <UniqueID>  (24) 
21

>  <SMILES>  (24) 
Cn1cc(S(=O)(=O)Nc2cc3c(cc2[O-])CC[C@@H](N2CCOCC2)[C@H]3Cc2cccc(F)c2)cn1

>  <Energy>  (24) 
129.05924815637258

>  <Genealogy>  (24) 
Cn1cc(S(=O)(=O)Nc2cc3c(cc2[O-])CCC(N2CCOCC2)C3Cc2cccc(F)c2)cn1 (protonated)
Cn1cc(S(=O)(=O)Nc2cc3c(cc2[O-])CC[C@@H](N2CCOCC2)[C@H]3Cc2cccc(F)c2)cn1 (chirality)
Cn1cc(S(=O)(=O)Nc2cc3c(cc2[O-])CC[C@@H](N2CCOCC2)[C@H]3Cc2cccc(F)c2)cn1 (3D coordinates assigned)
Cn1cc(S(=O)(=O)Nc2cc3c(cc2[O-])CC[C@@H](N2CCOCC2)[C@H]3Cc2cccc(F)c2)cn1 (nonaromatic ring conformer: 129.05924815637258 kcal/mol)

>  <smiles>  (24) 
Cn1cc(S(=O)(=O)Nc2cc3c(cc2O)CCC(N2CCOCC2)C3Cc2cccc(F)c2)cn1

>  <score_type>  (24) 
oracle

>  <origin>  (24) 
adgpu

>  <m_score__min__energy>  (24) 
-11.02

>  <m_primary>  (24) 
energy

$$$$
24:0
     RDKit          3D

 48 51  0  0  0  0  0  0  0  0999 V2000
   -2.2630   25.0910  -29.1690 N   0  0  0  0  0  0  0  0  0  0  0  0
   -1.0970   24.3370  -28.1330 S   0  0  0  0  0  0  0  0  0  0  0  0
   -1.1440   25.0400  -26.8080 O   0  0  0  0  0  0  0  0  0  0  0  0
    0.2600   24.5090  -28.7520 O   0  0  0  0  0  0  0  0  0  0  0  0
   -1.4340   22.6070  -27.9090 C   0  0  0  0  0  0  0  0  0  0  0  0
   -1.3940   22.0740  -26.6070 C   0  0  0  0  0  0  0  0  0  0  0  0
   -1.6330   20.7200  -26.3800 C   0  0  0  0  0  0  0  0  0  0  0  0
   -1.9160   19.8720  -27.4460 C   0  0  0  0  0  0  0  0  0  0  0  0
   -1.9700   20.3770  -28.7440 C   0  0  0  0  0  0  0  0  0  0  0  0
   -1.7420   21.7440  -28.9990 C   0  0  0  0  0  0  0  0  0  0  0  0
   -1.8510   22.2260  -30.4340 C   0  0  0  0  0  0  0  0  0  0  0  0
   -3.2200   22.1200  -30.9550 N   0  0  0  0  0  0  0  0  0  0  0  0
   -3.5360   21.3360  -32.1200 C   0  0  0  0  0  0  0  0  0  0  0  0
   -2.5930   20.8920  -32.8330 O   0  0  0  0  0  0  0  0  0  0  0  0
   -4.9100   21.0580  -32.4980 N   0  0  0  0  0  0  0  0  0  0  0  0
   -5.1690   20.4030  -33.7930 C   0  0  0  0  0  0  0  0  0  0  0  0
   -5.3870   18.9270  -33.5910 C   0  0  0  0  0  0  0  0  0  0  0  0
   -6.6850   18.4140  -33.4600 C   0  0  0  0  0  0  0  0  0  0  0  0
   -6.8650   17.0480  -33.2290 C   0  0  0  0  0  0  0  0  0  0  0  0
   -5.7870   16.2260  -33.1260 N   0  0  0  0  0  0  0  0  0  0  0  0
   -4.5170   16.6980  -33.2410 C   0  0  0  0  0  0  0  0  0  0  0  0
   -4.2930   18.0570  -33.4710 C   0  0  0  0  0  0  0  0  0  0  0  0
   -6.0460   21.4680  -31.6900 C   0  0  0  0  0  0  0  0  0  0  0  0
   -7.2620   20.8800  -31.8910 N   0  0  0  0  0  0  0  0  0  0  0  0
   -8.3740   21.2360  -31.1960 C   0  0  0  0  0  0  0  0  0  0  0  0
   -8.3010   22.2440  -30.2370 C   0  0  0  0  0  0  0  0  0  0  0  0
   -7.0790   22.8720  -30.0010 C   0  0  0  0  0  0  0  0  0  0  0  0
   -5.9470   22.4850  -30.7240 C   0  0  0  0  0  0  0  0  0  0  0  0
   -4.4120   23.2450  -30.4200 S   0  0  0  0  0  0  0  0  0  0  0  0
   -4.2980   24.5270  -31.1970 O   0  0  0  0  0  0  0  0  0  0  0  0
   -4.2580   23.5140  -28.9500 O   0  0  0  0  0  0  0  0  0  0  0  0
   -3.1110   25.2970  -28.5940 H   0  0  0  0  0  0  0  0  0  0  0  0
   -2.5300   24.4000  -29.9040 H   0  0  0  0  0  0  0  0  0  0  0  0
   -1.1710   22.7354  -25.7568 H   0  0  0  0  0  0  0  0  0  0  0  0
   -1.5978   20.3208  -25.3556 H   0  0  0  0  0  0  0  0  0  0  0  0
   -2.0972   18.8023  -27.2644 H   0  0  0  0  0  0  0  0  0  0  0  0
   -2.1937   19.6991  -29.5809 H   0  0  0  0  0  0  0  0  0  0  0  0
   -1.5362   23.2790  -30.4784 H   0  0  0  0  0  0  0  0  0  0  0  0
   -1.2047   21.5871  -31.0537 H   0  0  0  0  0  0  0  0  0  0  0  0
   -6.0666   20.8442  -34.2509 H   0  0  0  0  0  0  0  0  0  0  0  0
   -4.3011   20.5522  -34.4522 H   0  0  0  0  0  0  0  0  0  0  0  0
   -7.5554   19.0821  -33.5385 H   0  0  0  0  0  0  0  0  0  0  0  0
   -7.8805   16.6369  -33.1303 H   0  0  0  0  0  0  0  0  0  0  0  0
   -3.6647   16.0082  -33.1527 H   0  0  0  0  0  0  0  0  0  0  0  0
   -3.2664   18.4425  -33.5574 H   0  0  0  0  0  0  0  0  0  0  0  0
   -9.3307   20.7290  -31.3903 H   0  0  0  0  0  0  0  0  0  0  0  0
   -9.1973   22.5409  -29.6726 H   0  0  0  0  0  0  0  0  0  0  0  0
   -7.0057   23.6702  -29.2476 H   0  0  0  0  0  0  0  0  0  0  0  0
  1  2  1  0
  2  3  2  0
  2  4  2  0
  2  5  1  0
  5  6  2  0
  6  7  1  0
  7  8  2  0
  8  9  1  0
  9 10  2  0
 10 11  1  0
 11 12  1  0
 12 13  1  0
 13 14  2  0
 13 15  1  0
 15 16  1  0
 16 17  1  0
 17 18  2  0
 18 19  1  0
 19 20  2  0
 20 21  1  0
 21 22  2  0
 15 23  1  0
 23 24  2  0
 24 25  1  0
 25 26  2  0
 26 27  1  0
 27 28  2  0
 28 29  1  0
 29 30  2  0
 29 31  2  0
 10  5  1  0
 29 12  1  0
 22 17  1  0
 28 23  1  0
  1 32  1  0
  1 33  1  0
  6 34  1  0
  7 35  1  0
  8 36  1  0
  9 37  1  0
 11 38  1  0
 11 39  1  0
 16 40  1  0
 16 41  1  0
 18 42  1  0
 19 43  1  0
 21 44  1  0
 22 45  1  0
 25 46  1  0
 26 47  1  0
 27 48  1  0
M  END
>  <UniqueID>  (25) 
22

>  <SMILES>  (25) 
NS(=O)(=O)c1ccccc1CN1C(=O)N(Cc2ccncc2)c2ncccc2S1(=O)=O

>  <Energy>  (25) 
62.37009674119011

>  <Genealogy>  (25) 
NS(=O)(=O)c1ccccc1CN1C(=O)N(Cc2ccncc2)c2ncccc2S1(=O)=O (3D coordinates assigned)
NS(=O)(=O)c1ccccc1CN1C(=O)N(Cc2ccncc2)c2ncccc2S1(=O)=O (nonaromatic ring conformer: 62.37009674119011 kcal/mol)

>  <smiles>  (25) 
NS(=O)(=O)c1ccccc1CN1C(=O)N(Cc2ccncc2)c2ncccc2S1(=O)=O

>  <score_type>  (25) 
oracle

>  <origin>  (25) 
adgpu

>  <m_score__min__energy>  (25) 
-10.369999999999999

>  <m_primary>  (25) 
energy

$$$$
25:0
     RDKit          3D

 40 41  0  0  0  0  0  0  0  0999 V2000
   -7.5750   17.5500  -32.7210 C   0  0  0  0  0  0  0  0  0  0  0  0
   -8.2560   18.7620  -32.4090 O   0  0  0  0  0  0  0  0  0  0  0  0
   -7.6280   19.9240  -31.9360 C   0  0  0  0  0  0  0  0  0  0  0  0
   -6.2370   20.1180  -32.0210 C   0  0  0  0  0  0  0  0  0  0  0  0
   -5.6590   21.2940  -31.5350 C   0  0  0  0  0  0  0  0  0  0  0  0
   -6.4540   22.2970  -30.9510 C   0  0  0  0  0  0  0  0  0  0  0  0
   -5.8580   23.5180  -30.4600 N   0  0  0  0  0  0  0  0  0  0  0  0
   -6.6820   24.5320  -29.8010 C   0  0  0  0  0  0  0  0  0  0  0  0
   -4.1560   23.8300  -30.6720 S   0  0  0  0  0  0  0  0  0  0  0  0
   -3.6750   23.1310  -31.9130 O   0  0  0  0  0  0  0  0  0  0  0  0
   -3.9430   25.3090  -30.8420 O   0  0  0  0  0  0  0  0  0  0  0  0
   -3.2300   23.2540  -29.2810 C   0  0  0  0  0  0  0  0  0  0  0  0
   -3.3880   21.9500  -28.8150 C   0  0  0  0  0  0  0  0  0  0  0  0
   -2.6880   21.5110  -27.7320 N   0  0  0  0  0  0  0  0  0  0  0  0
   -2.8950   20.1430  -27.2400 C   0  0  0  0  0  0  0  0  0  0  0  0
   -1.8140   22.3480  -27.0900 C   0  0  0  0  0  0  0  0  0  0  0  0
   -1.1960   21.9380  -26.0660 O   0  0  0  0  0  0  0  0  0  0  0  0
   -1.6090   23.6270  -27.5480 N   0  0  0  0  0  0  0  0  0  0  0  0
   -0.6820   24.5250  -26.8380 C   0  0  0  0  0  0  0  0  0  0  0  0
   -2.3260   24.0930  -28.6190 C   0  0  0  0  0  0  0  0  0  0  0  0
   -2.1800   25.2820  -29.0180 O   0  0  0  0  0  0  0  0  0  0  0  0
   -7.8440   22.0980  -30.8760 C   0  0  0  0  0  0  0  0  0  0  0  0
   -8.4210   20.9210  -31.3610 C   0  0  0  0  0  0  0  0  0  0  0  0
   -7.2885   17.0401  -31.7894 H   0  0  0  0  0  0  0  0  0  0  0  0
   -8.2384   16.8971  -33.3073 H   0  0  0  0  0  0  0  0  0  0  0  0
   -6.6724   17.7770  -33.3073 H   0  0  0  0  0  0  0  0  0  0  0  0
   -5.6020   19.3411  -32.4717 H   0  0  0  0  0  0  0  0  0  0  0  0
   -4.5709   21.4369  -31.6099 H   0  0  0  0  0  0  0  0  0  0  0  0
   -6.5939   24.4236  -28.7099 H   0  0  0  0  0  0  0  0  0  0  0  0
   -6.3387   25.5337  -30.0989 H   0  0  0  0  0  0  0  0  0  0  0  0
   -7.7328   24.4009  -30.0989 H   0  0  0  0  0  0  0  0  0  0  0  0
   -4.0843   21.2691  -29.3264 H   0  0  0  0  0  0  0  0  0  0  0  0
   -2.8947   20.1450  -26.1400 H   0  0  0  0  0  0  0  0  0  0  0  0
   -3.8607   19.7640  -27.6057 H   0  0  0  0  0  0  0  0  0  0  0  0
   -2.0846   19.4953  -27.6057 H   0  0  0  0  0  0  0  0  0  0  0  0
   -0.8103   24.4007  -25.7526 H   0  0  0  0  0  0  0  0  0  0  0  0
    0.3532   24.2773  -27.1156 H   0  0  0  0  0  0  0  0  0  0  0  0
   -0.8966   25.5675  -27.1156 H   0  0  0  0  0  0  0  0  0  0  0  0
   -8.4828   22.8755  -30.4317 H   0  0  0  0  0  0  0  0  0  0  0  0
   -9.5093   20.7780  -31.2895 H   0  0  0  0  0  0  0  0  0  0  0  0
  1  2  1  0
  2  3  1  0
  3  4  2  0
  4  5  1  0
  5  6  2  0
  6  7  1  0
  7  8  1  0
  7  9  1  0
  9 10  2  0
  9 11  2  0
  9 12  1  0
 12 13  2  0
 13 14  1  0
 14 15  1  0
 14 16  1  0
 16 17  2  0
 16 18  1  0
 18 19  1  0
 18 20  1  0
 20 21  2  0
  6 22  1  0
 22 23  2  0
 23  3  1  0
 20 12  1  0
  1 24  1  0
  1 25  1  0
  1 26  1  0
  4 27  1  0
  5 28  1  0
  8 29  1  0
  8 30  1  0
  8 31  1  0
 13 32  1  0
 15 33  1  0
 15 34  1  0
 15 35  1  0
 19 36  1  0
 19 37  1  0
 19 38  1  0
 22 39  1  0
 23 40  1  0
M  END
>  <UniqueID>  (26) 
23

>  <SMILES>  (26) 
COc1ccc(N(C)S(=O)(=O)c2cn(C)c(=O)n(C)c2=O)cc1

>  <Energy>  (26) 
49.79273824992258

>  <Genealogy>  (26) 
COc1ccc(N(C)S(=O)(=O)c2cn(C)c(=O)n(C)c2=O)cc1 (3D coordinates assigned)
COc1ccc(N(C)S(=O)(=O)c2cn(C)c(=O)n(C)c2=O)cc1 (optimized conformer: 49.79273824992258 kcal/mol)

>  <smiles>  (26) 
COc1ccc(N(C)S(=O)(=O)c2cn(C)c(=O)n(C)c2=O)cc1

>  <score_type>  (26) 
oracle

>  <origin>  (26) 
adgpu

>  <m_score__min__energy>  (26) 
-7.4900000000000002

>  <m_primary>  (26) 
energy

$$$$
26:0
     RDKit          3D

 63 66  0  0  0  0  0  0  0  0999 V2000
   -6.2370   25.9230  -29.7660 O   0  0  0  0  0  0  0  0  0  0  0  0
   -5.1850   24.8680  -29.9610 S   0  0  0  0  0  0  0  0  0  0  0  0
   -4.2010   25.3490  -30.9880 O   0  0  0  0  0  0  0  0  0  0  0  0
   -4.3610   24.5800  -28.4620 N   0  0  0  0  0  0  0  0  0  0  0  0
   -3.1470   23.8210  -28.4250 C   0  0  0  0  0  0  0  0  0  0  0  0
   -3.1770   22.4970  -27.9710 C   0  0  0  0  0  0  0  0  0  0  0  0
   -1.9930   21.7510  -27.8710 C   0  0  0  0  0  0  0  0  0  0  0  0
   -2.0220   20.1250  -27.1980 S   0  0  0  0  0  0  0  0  0  0  0  0
   -3.4490   19.6620  -27.1150 O   0  0  0  0  0  0  0  0  0  0  0  0
   -1.4390   20.1330  -25.8110 O   0  0  0  0  0  0  0  0  0  0  0  0
   -1.1140   19.0430  -28.2230 N   0  0  0  0  0  0  0  0  0  0  0  0
   -0.9320   19.6430  -29.5610 C   0  0  0  0  0  0  0  0  0  0  0  0
    0.0580   18.8230  -30.3900 C   0  0  0  0  0  0  0  0  0  0  0  0
    1.4490   18.7890  -29.7340 C   0  0  0  0  0  0  0  0  0  0  0  0
    1.4130   19.1510  -28.2420 C   0  0  0  0  0  0  0  0  0  0  0  0
    0.1440   18.6070  -27.5660 C   0  0  0  0  0  0  0  0  0  0  0  0
   -0.7740   22.3390  -28.2160 C   0  0  0  0  0  0  0  0  0  0  0  0
   -0.7390   23.6470  -28.7050 C   0  0  0  0  0  0  0  0  0  0  0  0
   -1.9210   24.3860  -28.8200 C   0  0  0  0  0  0  0  0  0  0  0  0
   -1.8680   25.6740  -29.3420 O   0  0  0  0  0  0  0  0  0  0  0  0
   -5.9060   23.3640  -30.5290 C   0  0  0  0  0  0  0  0  0  0  0  0
   -7.2800   23.1440  -30.3490 C   0  0  0  0  0  0  0  0  0  0  0  0
   -7.8800   21.9890  -30.8580 C   0  0  0  0  0  0  0  0  0  0  0  0
   -7.1140   21.0470  -31.5570 C   0  0  0  0  0  0  0  0  0  0  0  0
   -7.8720   19.6280  -32.2720 S   0  0  0  0  0  0  0  0  0  0  0  0
   -8.7910   20.0460  -33.3880 O   0  0  0  0  0  0  0  0  0  0  0  0
   -8.6850   18.9320  -31.2160 O   0  0  0  0  0  0  0  0  0  0  0  0
   -6.6370   18.5530  -32.8770 N   0  0  0  0  0  0  0  0  0  0  0  0
   -6.1270   19.0580  -34.1600 C   0  0  0  0  0  0  0  0  0  0  0  0
   -4.9170   18.2310  -34.6380 C   0  0  0  0  0  0  0  0  0  0  0  0
   -4.8540   16.8470  -33.9730 C   0  0  0  0  0  0  0  0  0  0  0  0
   -6.2550   16.2520  -33.8120 C   0  0  0  0  0  0  0  0  0  0  0  0
   -7.1980   17.1960  -33.0330 C   0  0  0  0  0  0  0  0  0  0  0  0
   -5.7420   21.2690  -31.7400 C   0  0  0  0  0  0  0  0  0  0  0  0
   -5.1400   22.4190  -31.2240 C   0  0  0  0  0  0  0  0  0  0  0  0
   -4.5540   25.2460  -27.6800 H   0  0  0  0  0  0  0  0  0  0  0  0
   -4.1365   22.0380  -27.6905 H   0  0  0  0  0  0  0  0  0  0  0  0
   -1.9017   19.6704  -30.0796 H   0  0  0  0  0  0  0  0  0  0  0  0
   -0.5349   20.6618  -29.4412 H   0  0  0  0  0  0  0  0  0  0  0  0
   -0.3191   17.7938  -30.4821 H   0  0  0  0  0  0  0  0  0  0  0  0
    0.1540   19.2945  -31.3792 H   0  0  0  0  0  0  0  0  0  0  0  0
    1.8626   17.7752  -29.8397 H   0  0  0  0  0  0  0  0  0  0  0  0
    2.0727   19.5395  -30.2417 H   0  0  0  0  0  0  0  0  0  0  0  0
    2.2957   18.7196  -27.7472 H   0  0  0  0  0  0  0  0  0  0  0  0
    1.4126   20.2472  -28.1505 H   0  0  0  0  0  0  0  0  0  0  0  0
    0.1836   17.5079  -27.5857 H   0  0  0  0  0  0  0  0  0  0  0  0
    0.1279   19.0072  -26.5415 H   0  0  0  0  0  0  0  0  0  0  0  0
    0.1609   21.7706  -28.1023 H   0  0  0  0  0  0  0  0  0  0  0  0
    0.2204   24.0969  -29.0003 H   0  0  0  0  0  0  0  0  0  0  0  0
   -7.8869   23.8831  -29.8055 H   0  0  0  0  0  0  0  0  0  0  0  0
   -8.9566   21.8191  -30.7094 H   0  0  0  0  0  0  0  0  0  0  0  0
   -6.9255   18.9959  -34.9140 H   0  0  0  0  0  0  0  0  0  0  0  0
   -5.8062   20.1013  -34.0232 H   0  0  0  0  0  0  0  0  0  0  0  0
   -4.9891   18.0966  -35.7274 H   0  0  0  0  0  0  0  0  0  0  0  0
   -4.0049   18.7790  -34.3591 H   0  0  0  0  0  0  0  0  0  0  0  0
   -4.2473   16.1749  -34.5977 H   0  0  0  0  0  0  0  0  0  0  0  0
   -4.4032   16.9574  -32.9757 H   0  0  0  0  0  0  0  0  0  0  0  0
   -6.6802   16.0693  -34.8099 H   0  0  0  0  0  0  0  0  0  0  0  0
   -6.1634   15.3160  -33.2414 H   0  0  0  0  0  0  0  0  0  0  0  0
   -8.1518   17.2689  -33.5761 H   0  0  0  0  0  0  0  0  0  0  0  0
   -7.3369   16.7740  -32.0267 H   0  0  0  0  0  0  0  0  0  0  0  0
   -5.1371   20.5347  -32.2921 H   0  0  0  0  0  0  0  0  0  0  0  0
   -4.0613   22.5831  -31.3637 H   0  0  0  0  0  0  0  0  0  0  0  0
  1  2  2  0
  2  3  2  0
  2  4  1  0
  4  5  1  0
  5  6  2  0
  6  7  1  0
  7  8  1  0
  8  9  2  0
  8 10  2  0
  8 11  1  0
 11 12  1  0
 12 13  1  0
 13 14  1  0
 14 15  1  0
 15 16  1  0
  7 17  2  0
 17 18  1  0
 18 19  2  0
 19 20  1  0
  2 21  1  0
 21 22  2  0
 22 23  1  0
 23 24  2  0
 24 25  1  0
 25 26  2  0
 25 27  2  0
 25 28  1  0
 28 29  1  0
 29 30  1  0
 30 31  1  0
 31 32  1  0
 32 33  1  0
 24 34  1  0
 34 35  2  0
 19  5  1  0
 35 21  1  0
 16 11  1  0
 33 28  1  0
  4 36  1  0
  6 37  1  0
 12 38  1  0
 12 39  1  0
 13 40  1  0
 13 41  1  0
 14 42  1  0
 14 43  1  0
 15 44  1  0
 15 45  1  0
 16 46  1  0
 16 47  1  0
 17 48  1  0
 18 49  1  0
 22 50  1  0
 23 51  1  0
 29 52  1  0
 29 53  1  0
 30 54  1  0
 30 55  1  0
 31 56  1  0
 31 57  1  0
 32 58  1  0
 32 59  1  0
 33 60  1  0
 33 61  1  0
 34 62  1  0
 35 63  1  0
M  CHG  1  20  -1
M  END
>  <UniqueID>  (27) 
24

>  <SMILES>  (27) 
O=S(=O)(Nc1cc(S(=O)(=O)N2CCCCC2)ccc1[O-])c1ccc(S(=O)(=O)N2CCCCC2)cc1

>  <Energy>  (27) 
73.28044270383971

>  <Genealogy>  (27) 
O=S(=O)(Nc1cc(S(=O)(=O)N2CCCCC2)ccc1[O-])c1ccc(S(=O)(=O)N2CCCCC2)cc1 (protonated)
O=S(=O)(Nc1cc(S(=O)(=O)N2CCCCC2)ccc1[O-])c1ccc(S(=O)(=O)N2CCCCC2)cc1 (3D coordinates assigned)
O=S(=O)(Nc1cc(S(=O)(=O)N2CCCCC2)ccc1[O-])c1ccc(S(=O)(=O)N2CCCCC2)cc1 (nonaromatic ring conformer: 73.28044270383971 kcal/mol)

>  <smiles>  (27) 
O=S(=O)(Nc1cc(S(=O)(=O)N2CCCCC2)ccc1O)c1ccc(S(=O)(=O)N2CCCCC2)cc1

>  <score_type>  (27) 
oracle

>  <origin>  (27) 
adgpu

>  <m_score__min__energy>  (27) 
-16.129999999999999

>  <m_primary>  (27) 
energy

$$$$
27:0
     RDKit          3D

 50 52  0  0  0  0  0  0  0  0999 V2000
    1.9370   17.6930  -27.9190 C   0  0  0  0  0  0  0  0  0  0  0  0
    1.7400   19.1290  -28.3010 C   0  0  0  0  0  0  0  0  0  0  0  0
    2.5780   19.9780  -27.8930 O   0  0  0  0  0  0  0  0  0  0  0  0
    0.5920   19.5690  -29.1390 C   0  0  0  0  0  0  0  0  0  0  0  0
    0.5580   19.2500  -30.5100 C   0  0  0  0  0  0  0  0  0  0  0  0
   -0.5110   19.6620  -31.3120 C   0  0  0  0  0  0  0  0  0  0  0  0
   -1.5620   20.4020  -30.7580 C   0  0  0  0  0  0  0  0  0  0  0  0
   -2.8880   20.9700  -31.7700 S   0  0  0  0  0  0  0  0  0  0  0  0
   -2.5670   20.7810  -33.2270 O   0  0  0  0  0  0  0  0  0  0  0  0
   -4.1230   20.1810  -31.4350 O   0  0  0  0  0  0  0  0  0  0  0  0
   -3.1830   22.6540  -31.4710 N   0  0  0  0  0  0  0  0  0  0  0  0
   -4.4900   23.2070  -31.2230 C   0  0  0  0  0  0  0  0  0  0  0  0
   -5.6600   22.4640  -31.4740 C   0  0  0  0  0  0  0  0  0  0  0  0
   -6.9250   23.0190  -31.2440 C   0  0  0  0  0  0  0  0  0  0  0  0
   -8.3800   22.0740  -31.5720 S   0  0  0  0  0  0  0  0  0  0  0  0
   -8.9530   21.5790  -30.2740 O   0  0  0  0  0  0  0  0  0  0  0  0
   -9.4060   22.9570  -32.2270 O   0  0  0  0  0  0  0  0  0  0  0  0
   -8.0360   20.7070  -32.6070 N   0  0  0  0  0  0  0  0  0  0  0  0
   -6.7930   20.0320  -32.1750 C   0  0  0  0  0  0  0  0  0  0  0  0
   -6.6860   18.6230  -32.7660 C   0  0  0  0  0  0  0  0  0  0  0  0
   -7.8430   17.7300  -32.2800 C   0  0  0  0  0  0  0  0  0  0  0  0
   -9.0960   18.5350  -31.8960 C   0  0  0  0  0  0  0  0  0  0  0  0
   -9.2150   19.8140  -32.7390 C   0  0  0  0  0  0  0  0  0  0  0  0
   -7.0280   24.3250  -30.7510 C   0  0  0  0  0  0  0  0  0  0  0  0
   -5.8760   25.0660  -30.4830 C   0  0  0  0  0  0  0  0  0  0  0  0
   -4.6120   24.5150  -30.7160 C   0  0  0  0  0  0  0  0  0  0  0  0
   -3.4820   25.2800  -30.4490 O   0  0  0  0  0  0  0  0  0  0  0  0
   -1.5420   20.7190  -29.3970 C   0  0  0  0  0  0  0  0  0  0  0  0
   -0.4750   20.3100  -28.5920 C   0  0  0  0  0  0  0  0  0  0  0  0
    1.9493   17.6036  -26.8227 H   0  0  0  0  0  0  0  0  0  0  0  0
    1.1133   17.0887  -28.3270 H   0  0  0  0  0  0  0  0  0  0  0  0
    2.8930   17.3329  -28.3270 H   0  0  0  0  0  0  0  0  0  0  0  0
    1.3807   18.6708  -30.9548 H   0  0  0  0  0  0  0  0  0  0  0  0
   -0.5259   19.4038  -32.3812 H   0  0  0  0  0  0  0  0  0  0  0  0
   -2.3610   23.2930  -31.5540 H   0  0  0  0  0  0  0  0  0  0  0  0
   -5.5791   21.4354  -31.8553 H   0  0  0  0  0  0  0  0  0  0  0  0
   -5.9292   20.6260  -32.5080 H   0  0  0  0  0  0  0  0  0  0  0  0
   -6.8094   19.9464  -31.0785 H   0  0  0  0  0  0  0  0  0  0  0  0
   -6.7201   18.6899  -33.8634 H   0  0  0  0  0  0  0  0  0  0  0  0
   -5.7366   18.1762  -32.4359 H   0  0  0  0  0  0  0  0  0  0  0  0
   -8.1085   17.0294  -33.0854 H   0  0  0  0  0  0  0  0  0  0  0  0
   -7.4984   17.2030  -31.3780 H   0  0  0  0  0  0  0  0  0  0  0  0
   -9.9873   17.9120  -32.0615 H   0  0  0  0  0  0  0  0  0  0  0  0
   -9.0145   18.8221  -30.8373 H   0  0  0  0  0  0  0  0  0  0  0  0
   -9.3221   19.5286  -33.7959 H   0  0  0  0  0  0  0  0  0  0  0  0
  -10.0912   20.3692  -32.3731 H   0  0  0  0  0  0  0  0  0  0  0  0
   -8.0191   24.7683  -30.5744 H   0  0  0  0  0  0  0  0  0  0  0  0
   -5.9628   26.0884  -30.0866 H   0  0  0  0  0  0  0  0  0  0  0  0
   -2.3704   21.2935  -28.9569 H   0  0  0  0  0  0  0  0  0  0  0  0
   -0.4679   20.5685  -27.5228 H   0  0  0  0  0  0  0  0  0  0  0  0
  1  2  1  0
  2  3  2  0
  2  4  1  0
  4  5  2  0
  5  6  1  0
  6  7  2  0
  7  8  1  0
  8  9  2  0
  8 10  2  0
  8 11  1  0
 11 12  1  0
 12 13  2  0
 13 14  1  0
 14 15  1  0
 15 16  2  0
 15 17  2  0
 15 18  1  0
 18 19  1  0
 19 20  1  0
 20 21  1  0
 21 22  1  0
 22 23  1  0
 14 24  2  0
 24 25  1  0
 25 26  2  0
 26 27  1  0
  7 28  1  0
 28 29  2  0
 29  4  1  0
 26 12  1  0
 23 18  1  0
  1 30  1  0
  1 31  1  0
  1 32  1  0
  5 33  1  0
  6 34  1  0
 11 35  1  0
 13 36  1  0
 19 37  1  0
 19 38  1  0
 20 39  1  0
 20 40  1  0
 21 41  1  0
 21 42  1  0
 22 43  1  0
 22 44  1  0
 23 45  1  0
 23 46  1  0
 24 47  1  0
 25 48  1  0
 28 49  1  0
 29 50  1  0
M  CHG  1  27  -1
M  END
>  <UniqueID>  (28) 
25

>  <SMILES>  (28) 
CC(=O)c1ccc(S(=O)(=O)Nc2cc(S(=O)(=O)N3CCCCC3)ccc2[O-])cc1

>  <Energy>  (28) 
58.27797285129781

>  <Genealogy>  (28) 
CC(=O)c1ccc(S(=O)(=O)Nc2cc(S(=O)(=O)N3CCCCC3)ccc2[O-])cc1 (protonated)
CC(=O)c1ccc(S(=O)(=O)Nc2cc(S(=O)(=O)N3CCCCC3)ccc2[O-])cc1 (3D coordinates assigned)
CC(=O)c1ccc(S(=O)(=O)Nc2cc(S(=O)(=O)N3CCCCC3)ccc2[O-])cc1 (nonaromatic ring conformer: 58.27797285129781 kcal/mol)

>  <smiles>  (28) 
CC(=O)c1ccc(S(=O)(=O)Nc2cc(S(=O)(=O)N3CCCCC3)ccc2O)cc1

>  <score_type>  (28) 
oracle

>  <origin>  (28) 
adgpu

>  <m_score__min__energy>  (28) 
-13.640000000000001

>  <m_primary>  (28) 
energy

$$$$
28:0
     RDKit          3D

 62 66  0  0  0  0  0  0  0  0999 V2000
   -8.1480   19.7830  -33.1360 O   0  0  0  0  0  0  0  0  0  0  0  0
   -7.0270   19.8880  -32.5670 C   0  0  0  0  0  0  0  0  0  0  0  0
   -6.6230   21.2010  -32.0160 C   0  0  0  0  0  0  0  0  0  0  0  0
   -5.4390   21.8260  -32.4450 C   0  0  0  0  0  0  0  0  0  0  0  0
   -5.0590   23.0620  -31.9120 C   0  0  0  0  0  0  0  0  0  0  0  0
   -5.8480   23.6810  -30.9350 C   0  0  0  0  0  0  0  0  0  0  0  0
   -5.3860   25.2410  -30.2640 S   0  0  0  0  0  0  0  0  0  0  0  0
   -6.1250   25.4540  -28.9730 O   0  0  0  0  0  0  0  0  0  0  0  0
   -5.7360   26.3490  -31.2180 O   0  0  0  0  0  0  0  0  0  0  0  0
   -3.6750   25.2600  -29.9910 N   0  0  0  0  0  0  0  0  0  0  0  0
   -2.9980   24.2200  -29.2800 C   0  0  0  0  0  0  0  0  0  0  0  0
   -2.1210   23.3880  -29.9840 C   0  0  0  0  0  0  0  0  0  0  0  0
   -1.4700   22.3280  -29.3380 C   0  0  0  0  0  0  0  0  0  0  0  0
   -1.6740   22.1180  -27.9620 C   0  0  0  0  0  0  0  0  0  0  0  0
   -2.5440   22.9590  -27.2540 C   0  0  0  0  0  0  0  0  0  0  0  0
   -3.1890   24.0220  -27.8970 C   0  0  0  0  0  0  0  0  0  0  0  0
   -3.9850   24.8770  -27.1340 O   0  0  0  0  0  0  0  0  0  0  0  0
   -1.0120   20.9560  -27.2610 C   0  0  0  0  0  0  0  0  0  0  0  0
    0.2740   20.5220  -27.9750 C   0  0  0  0  0  0  0  0  0  0  0  0
    0.0080   20.2840  -29.4630 C   0  0  0  0  0  0  0  0  0  0  0  0
   -0.5780   21.4760  -30.0720 N   0  0  0  0  0  0  0  0  0  0  0  0
   -7.0220   23.0570  -30.4950 C   0  0  0  0  0  0  0  0  0  0  0  0
   -7.4030   21.8210  -31.0240 C   0  0  0  0  0  0  0  0  0  0  0  0
   -6.1780   18.7280  -32.4660 N   0  0  0  0  0  0  0  0  0  0  0  0
   -4.7160   18.8490  -32.5840 C   0  0  0  0  0  0  0  0  0  0  0  0
   -4.1680   17.7730  -33.5280 C   0  0  0  0  0  0  0  0  0  0  0  0
   -4.7540   16.4550  -33.2440 N   0  0  0  0  0  0  0  0  0  0  0  0
   -4.4610   15.3520  -34.1160 C   0  0  0  0  0  0  0  0  0  0  0  0
   -3.1640   15.1940  -34.6290 C   0  0  0  0  0  0  0  0  0  0  0  0
   -2.8630   14.1160  -35.4670 C   0  0  0  0  0  0  0  0  0  0  0  0
   -3.8560   13.1900  -35.7990 C   0  0  0  0  0  0  0  0  0  0  0  0
   -5.1510   13.3440  -35.2970 C   0  0  0  0  0  0  0  0  0  0  0  0
   -5.4590   14.4230  -34.4620 C   0  0  0  0  0  0  0  0  0  0  0  0
   -6.7590   14.5750  -33.9930 O   0  0  0  0  0  0  0  0  0  0  0  0
   -5.7480   16.3020  -32.1750 C   0  0  0  0  0  0  0  0  0  0  0  0
   -6.8010   17.4070  -32.2900 C   0  0  0  0  0  0  0  0  0  0  0  0
   -4.8081   21.3403  -33.2040 H   0  0  0  0  0  0  0  0  0  0  0  0
   -4.1370   23.5495  -32.2616 H   0  0  0  0  0  0  0  0  0  0  0  0
   -1.9406   23.5673  -31.0542 H   0  0  0  0  0  0  0  0  0  0  0  0
   -2.7215   22.7818  -26.1830 H   0  0  0  0  0  0  0  0  0  0  0  0
   -4.5340   25.6190  -27.5430 H   0  0  0  0  0  0  0  0  0  0  0  0
   -0.7650   21.2544  -26.2315 H   0  0  0  0  0  0  0  0  0  0  0  0
   -1.7116   20.1072  -27.2679 H   0  0  0  0  0  0  0  0  0  0  0  0
    1.0328   21.3107  -27.8648 H   0  0  0  0  0  0  0  0  0  0  0  0
    0.6319   19.5849  -27.5237 H   0  0  0  0  0  0  0  0  0  0  0  0
    0.9565   20.0480  -29.9677 H   0  0  0  0  0  0  0  0  0  0  0  0
   -0.6957   19.4454  -29.5703 H   0  0  0  0  0  0  0  0  0  0  0  0
   -0.4040   21.6550  -31.0880 H   0  0  0  0  0  0  0  0  0  0  0  0
   -7.6466   23.5416  -29.7301 H   0  0  0  0  0  0  0  0  0  0  0  0
   -8.3185   21.3302  -30.6622 H   0  0  0  0  0  0  0  0  0  0  0  0
   -4.4651   19.8432  -32.9823 H   0  0  0  0  0  0  0  0  0  0  0  0
   -4.2644   18.7166  -31.5897 H   0  0  0  0  0  0  0  0  0  0  0  0
   -4.4052   18.0533  -34.5649 H   0  0  0  0  0  0  0  0  0  0  0  0
   -3.0803   17.7055  -33.3785 H   0  0  0  0  0  0  0  0  0  0  0  0
   -2.3807   15.9217  -34.3705 H   0  0  0  0  0  0  0  0  0  0  0  0
   -1.8445   13.9966  -35.8651 H   0  0  0  0  0  0  0  0  0  0  0  0
   -3.6181   12.3400  -36.4554 H   0  0  0  0  0  0  0  0  0  0  0  0
   -5.9309   12.6141  -35.5595 H   0  0  0  0  0  0  0  0  0  0  0  0
   -6.2360   15.3205  -32.2668 H   0  0  0  0  0  0  0  0  0  0  0  0
   -5.2476   16.3749  -31.1981 H   0  0  0  0  0  0  0  0  0  0  0  0
   -7.4460   17.1976  -33.1561 H   0  0  0  0  0  0  0  0  0  0  0  0
   -7.3881   17.4230  -31.3599 H   0  0  0  0  0  0  0  0  0  0  0  0
  1  2  2  0
  2  3  1  0
  3  4  2  0
  4  5  1  0
  5  6  2  0
  6  7  1  0
  7  8  2  0
  7  9  2  0
  7 10  1  0
 10 11  1  0
 11 12  2  0
 12 13  1  0
 13 14  2  0
 14 15  1  0
 15 16  2  0
 16 17  1  0
 14 18  1  0
 18 19  1  0
 19 20  1  0
 20 21  1  0
  6 22  1  0
 22 23  2  0
  2 24  1  0
 24 25  1  0
 25 26  1  0
 26 27  1  0
 27 28  1  0
 28 29  2  0
 29 30  1  0
 30 31  2  0
 31 32  1  0
 32 33  2  0
 33 34  1  0
 27 35  1  0
 35 36  1  0
 23  3  1  0
 36 24  1  0
 16 11  1  0
 33 28  1  0
 21 13  1  0
  4 37  1  0
  5 38  1  0
 12 39  1  0
 15 40  1  0
 17 41  1  0
 18 42  1  0
 18 43  1  0
 19 44  1  0
 19 45  1  0
 20 46  1  0
 20 47  1  0
 21 48  1  0
 22 49  1  0
 23 50  1  0
 25 51  1  0
 25 52  1  0
 26 53  1  0
 26 54  1  0
 29 55  1  0
 30 56  1  0
 31 57  1  0
 32 58  1  0
 35 59  1  0
 35 60  1  0
 36 61  1  0
 36 62  1  0
M  CHG  2  10  -1  34  -1
M  END
>  <UniqueID>  (29) 
26

>  <SMILES>  (29) 
O=C(c1ccc(S(=O)(=O)[N-]c2cc3c(cc2O)CCCN3)cc1)N1CCN(c2ccccc2[O-])CC1

>  <Energy>  (29) 
85.87766796608202

>  <Genealogy>  (29) 
O=C(c1ccc(S(=O)(=O)[N-]c2cc3c(cc2O)CCCN3)cc1)N1CCN(c2ccccc2[O-])CC1 (protonated)
O=C(c1ccc(S(=O)(=O)[N-]c2cc3c(cc2O)CCCN3)cc1)N1CCN(c2ccccc2[O-])CC1 (3D coordinates assigned)
O=C(c1ccc(S(=O)(=O)[N-]c2cc3c(cc2O)CCCN3)cc1)N1CCN(c2ccccc2[O-])CC1 (nonaromatic ring conformer: 85.87766796608202 kcal/mol)

>  <smiles>  (29) 
O=C(c1ccc(S(=O)(=O)Nc2cc3c(cc2O)CCCN3)cc1)N1CCN(c2ccccc2O)CC1

>  <score_type>  (29) 
oracle

>  <origin>  (29) 
adgpu

>  <m_score__min__energy>  (29) 
-12.31

>  <m_primary>  (29) 
energy

$$$$
29:0
     RDKit          3D

 44 45  0  0  0  0  0  0  0  0999 V2000
   -1.2090   19.1220  -27.3250 C   0  0  0  0  0  0  0  0  0  0  0  0
   -1.7380   20.1880  -28.2840 C   0  0  0  0  0  0  0  0  0  0  0  0
   -2.8000   21.0930  -27.6390 C   0  0  0  0  0  0  0  0  0  0  0  0
   -3.0600   22.3460  -28.4510 C   0  0  0  0  0  0  0  0  0  0  0  0
   -4.2370   22.4100  -29.2160 C   0  0  0  0  0  0  0  0  0  0  0  0
   -4.5440   23.5420  -29.9750 C   0  0  0  0  0  0  0  0  0  0  0  0
   -6.0540   23.5900  -30.9590 S   0  0  0  0  0  0  0  0  0  0  0  0
   -5.7560   22.0600  -31.8780 C   0  0  0  0  0  0  0  0  0  0  0  0
   -4.4780   21.9300  -32.4480 C   0  0  0  0  0  0  0  0  0  0  0  0
   -4.1250   20.7970  -33.1740 C   0  0  0  0  0  0  0  0  0  0  0  0
   -5.0500   19.7770  -33.3610 C   0  0  0  0  0  0  0  0  0  0  0  0
   -6.3390   19.9000  -32.8460 C   0  0  0  0  0  0  0  0  0  0  0  0
   -6.7350   21.0480  -32.1250 C   0  0  0  0  0  0  0  0  0  0  0  0
   -8.1820   21.0690  -31.6330 C   0  0  0  0  0  0  0  0  0  0  0  0
   -8.8460   22.4120  -31.9450 C   0  0  0  0  0  0  0  0  0  0  0  0
   -9.0430   19.8770  -32.0750 C   0  0  0  0  0  0  0  0  0  0  0  0
   -3.6240   24.5960  -30.0410 C   0  0  0  0  0  0  0  0  0  0  0  0
   -3.8620   25.6820  -30.8770 O   0  0  0  0  0  0  0  0  0  0  0  0
   -2.4490   24.5570  -29.2830 C   0  0  0  0  0  0  0  0  0  0  0  0
   -1.5790   25.6420  -29.3380 O   0  0  0  0  0  0  0  0  0  0  0  0
   -2.1500   23.4350  -28.4820 C   0  0  0  0  0  0  0  0  0  0  0  0
   -0.9000   23.4310  -27.6330 C   0  0  0  0  0  0  0  0  0  0  0  0
   -1.3714   19.4492  -26.2874 H   0  0  0  0  0  0  0  0  0  0  0  0
   -1.7420   18.1756  -27.4987 H   0  0  0  0  0  0  0  0  0  0  0  0
   -0.1329   18.9740  -27.4987 H   0  0  0  0  0  0  0  0  0  0  0  0
   -0.8956   20.8139  -28.6135 H   0  0  0  0  0  0  0  0  0  0  0  0
   -2.2137   19.6680  -29.1285 H   0  0  0  0  0  0  0  0  0  0  0  0
   -3.7395   20.5278  -27.5506 H   0  0  0  0  0  0  0  0  0  0  0  0
   -2.4229   21.4036  -26.6535 H   0  0  0  0  0  0  0  0  0  0  0  0
   -4.9283   21.5544  -29.2172 H   0  0  0  0  0  0  0  0  0  0  0  0
   -3.7437   22.7386  -32.3178 H   0  0  0  0  0  0  0  0  0  0  0  0
   -3.1145   20.7086  -33.5996 H   0  0  0  0  0  0  0  0  0  0  0  0
   -4.7644   18.8714  -33.9162 H   0  0  0  0  0  0  0  0  0  0  0  0
   -7.0625   19.0867  -33.0042 H   0  0  0  0  0  0  0  0  0  0  0  0
   -8.1176   20.9516  -30.5412 H   0  0  0  0  0  0  0  0  0  0  0  0
   -9.0988   22.9233  -31.0044 H   0  0  0  0  0  0  0  0  0  0  0  0
   -8.1531   23.0371  -32.5274 H   0  0  0  0  0  0  0  0  0  0  0  0
   -9.7634   22.2410  -32.5274 H   0  0  0  0  0  0  0  0  0  0  0  0
   -9.4234   19.3503  -31.1874 H   0  0  0  0  0  0  0  0  0  0  0  0
   -9.8893   20.2393  -32.6771 H   0  0  0  0  0  0  0  0  0  0  0  0
   -8.4331   19.1875  -32.6771 H   0  0  0  0  0  0  0  0  0  0  0  0
   -1.1794   23.4319  -26.5691 H   0  0  0  0  0  0  0  0  0  0  0  0
   -0.3082   22.5310  -27.8559 H   0  0  0  0  0  0  0  0  0  0  0  0
   -0.3025   24.3272  -27.8559 H   0  0  0  0  0  0  0  0  0  0  0  0
  1  2  1  0
  2  3  1  0
  3  4  1  0
  4  5  2  0
  5  6  1  0
  6  7  1  0
  7  8  1  0
  8  9  2  0
  9 10  1  0
 10 11  2  0
 11 12  1  0
 12 13  2  0
 13 14  1  0
 14 15  1  0
 14 16  1  0
  6 17  2  0
 17 18  1  0
 17 19  1  0
 19 20  1  0
 19 21  2  0
 21 22  1  0
 21  4  1  0
 13  8  1  0
  1 23  1  0
  1 24  1  0
  1 25  1  0
  2 26  1  0
  2 27  1  0
  3 28  1  0
  3 29  1  0
  5 30  1  0
  9 31  1  0
 10 32  1  0
 11 33  1  0
 12 34  1  0
 14 35  1  0
 15 36  1  0
 15 37  1  0
 15 38  1  0
 16 39  1  0
 16 40  1  0
 16 41  1  0
 22 42  1  0
 22 43  1  0
 22 44  1  0
M  CHG  2  18  -1  20  -1
M  END
>  <UniqueID>  (30) 
27

>  <SMILES>  (30) 
CCCc1cc(Sc2ccccc2C(C)C)c([O-])c([O-])c1C

>  <Energy>  (30) 
44.80286614869333

>  <Genealogy>  (30) 
CCCc1cc(Sc2ccccc2C(C)C)c([O-])c([O-])c1C (protonated)
CCCc1cc(Sc2ccccc2C(C)C)c([O-])c([O-])c1C (3D coordinates assigned)
CCCc1cc(Sc2ccccc2C(C)C)c([O-])c([O-])c1C (optimized conformer: 44.80286614869333 kcal/mol)

>  <smiles>  (30) 
CCCc1cc(Sc2ccccc2C(C)C)c(O)c(O)c1C

>  <score_type>  (30) 
oracle

>  <origin>  (30) 
adgpu

>  <m_score__min__energy>  (30) 
-15.199999999999999

>  <m_primary>  (30) 
energy

$$$$
30:0
     RDKit          3D

 54 57  0  0  0  0  0  0  0  0999 V2000
   -8.9350   21.7800  -32.1020 O   0  0  0  0  0  0  0  0  0  0  0  0
   -7.5470   21.2250  -31.9490 S   0  0  0  0  0  0  0  0  0  0  0  0
   -7.5590   20.1830  -30.8650 O   0  0  0  0  0  0  0  0  0  0  0  0
   -7.0410   20.5270  -33.4510 N   0  0  0  0  0  0  0  0  0  0  0  0
   -6.1110   19.4400  -33.5220 C   0  0  0  0  0  0  0  0  0  0  0  0
   -6.5560   18.1090  -33.5360 C   0  0  0  0  0  0  0  0  0  0  0  0
   -5.6360   17.0550  -33.6020 C   0  0  0  0  0  0  0  0  0  0  0  0
   -4.2530   17.3280  -33.6020 C   0  0  0  0  0  0  0  0  0  0  0  0
   -3.8140   18.6590  -33.6160 C   0  0  0  0  0  0  0  0  0  0  0  0
   -4.7380   19.7130  -33.5850 C   0  0  0  0  0  0  0  0  0  0  0  0
   -4.2950   21.0360  -33.6000 O   0  0  0  0  0  0  0  0  0  0  0  0
   -3.2520   16.2000  -33.6630 C   0  0  0  0  0  0  0  0  0  0  0  0
   -3.8460   14.8720  -33.1750 C   0  0  0  0  0  0  0  0  0  0  0  0
   -5.1780   14.5870  -33.8740 C   0  0  0  0  0  0  0  0  0  0  0  0
   -6.1020   15.6980  -33.6620 N   0  0  0  0  0  0  0  0  0  0  0  0
   -6.4430   22.5380  -31.5580 C   0  0  0  0  0  0  0  0  0  0  0  0
   -6.8240   23.8730  -31.7300 C   0  0  0  0  0  0  0  0  0  0  0  0
   -5.9530   24.9040  -31.3610 C   0  0  0  0  0  0  0  0  0  0  0  0
   -4.7010   24.6100  -30.8110 C   0  0  0  0  0  0  0  0  0  0  0  0
   -3.8570   25.6590  -30.4500 O   0  0  0  0  0  0  0  0  0  0  0  0
   -4.3120   23.2670  -30.6280 C   0  0  0  0  0  0  0  0  0  0  0  0
   -2.7410   22.8420  -29.9250 S   0  0  0  0  0  0  0  0  0  0  0  0
   -1.9470   24.1010  -29.7130 O   0  0  0  0  0  0  0  0  0  0  0  0
   -1.9720   21.9770  -30.8870 O   0  0  0  0  0  0  0  0  0  0  0  0
   -2.9100   22.0180  -28.3910 N   0  0  0  0  0  0  0  0  0  0  0  0
   -1.8840   22.4530  -27.4090 C   0  0  0  0  0  0  0  0  0  0  0  0
   -0.7360   21.4400  -27.2570 C   0  0  0  0  0  0  0  0  0  0  0  0
   -1.2620   20.0600  -26.8130 C   0  0  0  0  0  0  0  0  0  0  0  0
   -2.6990   19.7850  -27.3000 C   0  0  0  0  0  0  0  0  0  0  0  0
   -2.9930   20.5530  -28.5940 C   0  0  0  0  0  0  0  0  0  0  0  0
   -5.1960   22.2410  -31.0000 C   0  0  0  0  0  0  0  0  0  0  0  0
   -7.6337   17.8923  -33.4949 H   0  0  0  0  0  0  0  0  0  0  0  0
   -2.7367   18.8782  -33.6516 H   0  0  0  0  0  0  0  0  0  0  0  0
   -4.9210   21.8050  -33.8100 H   0  0  0  0  0  0  0  0  0  0  0  0
   -2.9187   16.0778  -34.7042 H   0  0  0  0  0  0  0  0  0  0  0  0
   -2.4116   16.4577  -33.0017 H   0  0  0  0  0  0  0  0  0  0  0  0
   -3.1404   14.0576  -33.3962 H   0  0  0  0  0  0  0  0  0  0  0  0
   -4.0221   14.9398  -32.0913 H   0  0  0  0  0  0  0  0  0  0  0  0
   -5.0033   14.4595  -34.9525 H   0  0  0  0  0  0  0  0  0  0  0  0
   -5.6158   13.6688  -33.4554 H   0  0  0  0  0  0  0  0  0  0  0  0
   -7.1270   15.4990  -33.6420 H   0  0  0  0  0  0  0  0  0  0  0  0
   -7.8095   24.1125  -32.1559 H   0  0  0  0  0  0  0  0  0  0  0  0
   -6.2547   25.9521  -31.5043 H   0  0  0  0  0  0  0  0  0  0  0  0
   -1.4634   23.4132  -27.7423 H   0  0  0  0  0  0  0  0  0  0  0  0
   -2.3789   22.5416  -26.4306 H   0  0  0  0  0  0  0  0  0  0  0  0
   -0.2217   21.3335  -28.2235 H   0  0  0  0  0  0  0  0  0  0  0  0
   -0.0441   21.8121  -26.4871 H   0  0  0  0  0  0  0  0  0  0  0  0
   -0.5980   19.2830  -27.2197 H   0  0  0  0  0  0  0  0  0  0  0  0
   -1.2764   20.0485  -25.7132 H   0  0  0  0  0  0  0  0  0  0  0  0
   -2.8165   18.7072  -27.4860 H   0  0  0  0  0  0  0  0  0  0  0  0
   -3.4036   20.1194  -26.5243 H   0  0  0  0  0  0  0  0  0  0  0  0
   -2.2602   20.2568  -29.3590 H   0  0  0  0  0  0  0  0  0  0  0  0
   -4.0166   20.3080  -28.9138 H   0  0  0  0  0  0  0  0  0  0  0  0
   -4.9037   21.1911  -30.8505 H   0  0  0  0  0  0  0  0  0  0  0  0
  1  2  2  0
  2  3  2  0
  2  4  1  0
  4  5  1  0
  5  6  2  0
  6  7  1  0
  7  8  2  0
  8  9  1  0
  9 10  2  0
 10 11  1  0
  8 12  1  0
 12 13  1  0
 13 14  1  0
 14 15  1  0
  2 16  1  0
 16 17  2  0
 17 18  1  0
 18 19  2  0
 19 20  1  0
 19 21  1  0
 21 22  1  0
 22 23  2  0
 22 24  2  0
 22 25  1  0
 25 26  1  0
 26 27  1  0
 27 28  1  0
 28 29  1  0
 29 30  1  0
 21 31  2  0
 10  5  1  0
 31 16  1  0
 15  7  1  0
 30 25  1  0
  6 32  1  0
  9 33  1  0
 11 34  1  0
 12 35  1  0
 12 36  1  0
 13 37  1  0
 13 38  1  0
 14 39  1  0
 14 40  1  0
 15 41  1  0
 17 42  1  0
 18 43  1  0
 26 44  1  0
 26 45  1  0
 27 46  1  0
 27 47  1  0
 28 48  1  0
 28 49  1  0
 29 50  1  0
 29 51  1  0
 30 52  1  0
 30 53  1  0
 31 54  1  0
M  CHG  2   4  -1  20  -1
M  END
>  <UniqueID>  (31) 
28

>  <SMILES>  (31) 
O=S(=O)([N-]c1cc2c(cc1O)CCCN2)c1ccc([O-])c(S(=O)(=O)N2CCCCC2)c1

>  <Energy>  (31) 
66.377230135584

>  <Genealogy>  (31) 
O=S(=O)([N-]c1cc2c(cc1O)CCCN2)c1ccc([O-])c(S(=O)(=O)N2CCCCC2)c1 (protonated)
O=S(=O)([N-]c1cc2c(cc1O)CCCN2)c1ccc([O-])c(S(=O)(=O)N2CCCCC2)c1 (3D coordinates assigned)
O=S(=O)([N-]c1cc2c(cc1O)CCCN2)c1ccc([O-])c(S(=O)(=O)N2CCCCC2)c1 (nonaromatic ring conformer: 66.377230135584 kcal/mol)

>  <smiles>  (31) 
O=S(=O)(Nc1cc2c(cc1O)CCCN2)c1ccc(O)c(S(=O)(=O)N2CCCCC2)c1

>  <score_type>  (31) 
oracle

>  <origin>  (31) 
adgpu

>  <m_score__min__energy>  (31) 
-12.27

>  <m_primary>  (31) 
energy

$$$$
31:0
     RDKit          3D

 65 69  0  0  0  0  0  0  0  0999 V2000
   -9.7920   20.5900  -32.3200 O   0  0  0  0  0  0  0  0  0  0  0  0
   -8.5330   20.5610  -32.3660 C   0  0  0  0  0  0  0  0  0  0  0  0
   -7.8950   19.3960  -32.9050 N   0  0  0  0  0  0  0  0  0  0  0  0
   -6.4850   19.2290  -33.1010 C   0  0  0  0  0  0  0  0  0  0  0  0
   -5.5660   19.4810  -32.0680 C   0  0  0  0  0  0  0  0  0  0  0  0
   -4.2060   19.2350  -32.2620 C   0  0  0  0  0  0  0  0  0  0  0  0
   -3.7480   18.7350  -33.4890 C   0  0  0  0  0  0  0  0  0  0  0  0
   -2.0520   18.3080  -33.6950 S   0  0  0  0  0  0  0  0  0  0  0  0
   -1.5950   17.5360  -32.4880 O   0  0  0  0  0  0  0  0  0  0  0  0
   -1.9080   17.4110  -34.8950 O   0  0  0  0  0  0  0  0  0  0  0  0
   -1.0350   19.7220  -33.8960 N   0  0  0  0  0  0  0  0  0  0  0  0
    0.1580   19.6950  -33.0240 C   0  0  0  0  0  0  0  0  0  0  0  0
    0.0250   20.6120  -31.7980 C   0  0  0  0  0  0  0  0  0  0  0  0
   -1.3240   20.7250  -31.4120 O   0  0  0  0  0  0  0  0  0  0  0  0
   -2.0310   21.4770  -32.3770 C   0  0  0  0  0  0  0  0  0  0  0  0
   -1.7970   20.9850  -33.8260 C   0  0  0  0  0  0  0  0  0  0  0  0
   -4.6570   18.5390  -34.5380 C   0  0  0  0  0  0  0  0  0  0  0  0
   -6.0170   18.7950  -34.3470 C   0  0  0  0  0  0  0  0  0  0  0  0
   -7.7620   21.7040  -31.8200 C   0  0  0  0  0  0  0  0  0  0  0  0
   -6.9180   22.4500  -32.6610 C   0  0  0  0  0  0  0  0  0  0  0  0
   -6.1620   23.5060  -32.1490 C   0  0  0  0  0  0  0  0  0  0  0  0
   -6.2460   23.8430  -30.7920 C   0  0  0  0  0  0  0  0  0  0  0  0
   -5.2740   25.1680  -30.1620 S   0  0  0  0  0  0  0  0  0  0  0  0
   -5.4280   25.2630  -28.6690 O   0  0  0  0  0  0  0  0  0  0  0  0
   -5.7400   26.4610  -30.7730 O   0  0  0  0  0  0  0  0  0  0  0  0
   -3.6050   24.8820  -30.5280 N   0  0  0  0  0  0  0  0  0  0  0  0
   -2.7620   24.0990  -29.6800 C   0  0  0  0  0  0  0  0  0  0  0  0
   -3.1280   22.7840  -29.3810 C   0  0  0  0  0  0  0  0  0  0  0  0
   -2.3160   21.9820  -28.5630 C   0  0  0  0  0  0  0  0  0  0  0  0
   -1.1410   22.5320  -27.9980 C   0  0  0  0  0  0  0  0  0  0  0  0
   -0.7870   23.8570  -28.2940 C   0  0  0  0  0  0  0  0  0  0  0  0
   -1.5990   24.6430  -29.1150 C   0  0  0  0  0  0  0  0  0  0  0  0
   -1.2550   25.9710  -29.3420 O   0  0  0  0  0  0  0  0  0  0  0  0
   -0.2030   21.6960  -27.1580 C   0  0  0  0  0  0  0  0  0  0  0  0
   -0.8850   20.4550  -26.5720 C   0  0  0  0  0  0  0  0  0  0  0  0
   -1.6550   19.7080  -27.6600 C   0  0  0  0  0  0  0  0  0  0  0  0
   -2.7810   20.5860  -28.2180 C   0  0  0  0  0  0  0  0  0  0  0  0
   -7.1080   23.1230  -29.9530 C   0  0  0  0  0  0  0  0  0  0  0  0
   -7.8700   22.0700  -30.4650 C   0  0  0  0  0  0  0  0  0  0  0  0
   -5.9198   19.8735  -31.1032 H   0  0  0  0  0  0  0  0  0  0  0  0
   -3.4914   19.4340  -31.4498 H   0  0  0  0  0  0  0  0  0  0  0  0
    0.3143   18.6635  -32.6752 H   0  0  0  0  0  0  0  0  0  0  0  0
    1.0087   20.0602  -33.6180 H   0  0  0  0  0  0  0  0  0  0  0  0
    0.6059   20.1894  -30.9649 H   0  0  0  0  0  0  0  0  0  0  0  0
    0.4061   21.6108  -32.0572 H   0  0  0  0  0  0  0  0  0  0  0  0
   -3.1060   21.4089  -32.1541 H   0  0  0  0  0  0  0  0  0  0  0  0
   -1.6614   22.5115  -32.3197 H   0  0  0  0  0  0  0  0  0  0  0  0
   -2.7751   20.8301  -34.3048 H   0  0  0  0  0  0  0  0  0  0  0  0
   -1.2023   21.7543  -34.3402 H   0  0  0  0  0  0  0  0  0  0  0  0
   -4.2982   18.1824  -35.5148 H   0  0  0  0  0  0  0  0  0  0  0  0
   -6.7229   18.6550  -35.1789 H   0  0  0  0  0  0  0  0  0  0  0  0
   -6.8528   22.1999  -33.7302 H   0  0  0  0  0  0  0  0  0  0  0  0
   -5.4971   24.0762  -32.8144 H   0  0  0  0  0  0  0  0  0  0  0  0
   -4.0623   22.3727  -29.7908 H   0  0  0  0  0  0  0  0  0  0  0  0
    0.1381   24.2806  -27.8759 H   0  0  0  0  0  0  0  0  0  0  0  0
    0.6389   21.3714  -27.7871 H   0  0  0  0  0  0  0  0  0  0  0  0
    0.1358   22.3186  -26.3169 H   0  0  0  0  0  0  0  0  0  0  0  0
   -0.1208   19.7884  -26.1459 H   0  0  0  0  0  0  0  0  0  0  0  0
   -1.5895   20.7709  -25.7885 H   0  0  0  0  0  0  0  0  0  0  0  0
   -0.9652   19.4425  -28.4746 H   0  0  0  0  0  0  0  0  0  0  0  0
   -2.0947   18.7985  -27.2248 H   0  0  0  0  0  0  0  0  0  0  0  0
   -3.1783   20.1125  -29.1279 H   0  0  0  0  0  0  0  0  0  0  0  0
   -3.5503   20.6757  -27.4369 H   0  0  0  0  0  0  0  0  0  0  0  0
   -7.1846   23.3880  -28.8882 H   0  0  0  0  0  0  0  0  0  0  0  0
   -8.5592   21.5231  -29.8048 H   0  0  0  0  0  0  0  0  0  0  0  0
  1  2  2  0
  2  3  1  0
  3  4  1  0
  4  5  2  0
  5  6  1  0
  6  7  2  0
  7  8  1  0
  8  9  2  0
  8 10  2  0
  8 11  1  0
 11 12  1  0
 12 13  1  0
 13 14  1  0
 14 15  1  0
 15 16  1  0
  7 17  1  0
 17 18  2  0
  2 19  1  0
 19 20  2  0
 20 21  1  0
 21 22  2  0
 22 23  1  0
 23 24  2  0
 23 25  2  0
 23 26  1  0
 26 27  1  0
 27 28  2  0
 28 29  1  0
 29 30  2  0
 30 31  1  0
 31 32  2  0
 32 33  1  0
 30 34  1  0
 34 35  1  0
 35 36  1  0
 36 37  1  0
 22 38  1  0
 38 39  2  0
 18  4  1  0
 39 19  1  0
 16 11  1  0
 32 27  1  0
 37 29  1  0
  5 40  1  0
  6 41  1  0
 12 42  1  0
 12 43  1  0
 13 44  1  0
 13 45  1  0
 15 46  1  0
 15 47  1  0
 16 48  1  0
 16 49  1  0
 17 50  1  0
 18 51  1  0
 20 52  1  0
 21 53  1  0
 28 54  1  0
 31 55  1  0
 34 56  1  0
 34 57  1  0
 35 58  1  0
 35 59  1  0
 36 60  1  0
 36 61  1  0
 37 62  1  0
 37 63  1  0
 38 64  1  0
 39 65  1  0
M  CHG  3   3  -1  26  -1  33  -1
M  END
>  <UniqueID>  (32) 
29

>  <SMILES>  (32) 
O=C([N-]c1ccc(S(=O)(=O)N2CCOCC2)cc1)c1ccc(S(=O)(=O)[N-]c2cc3c(cc2[O-])CCCC3)cc1

>  <Energy>  (32) 
94.30482452302587

>  <Genealogy>  (32) 
O=C([N-]c1ccc(S(=O)(=O)N2CCOCC2)cc1)c1ccc(S(=O)(=O)[N-]c2cc3c(cc2[O-])CCCC3)cc1 (protonated)
O=C([N-]c1ccc(S(=O)(=O)N2CCOCC2)cc1)c1ccc(S(=O)(=O)[N-]c2cc3c(cc2[O-])CCCC3)cc1 (3D coordinates assigned)
O=C([N-]c1ccc(S(=O)(=O)N2CCOCC2)cc1)c1ccc(S(=O)(=O)[N-]c2cc3c(cc2[O-])CCCC3)cc1 (nonaromatic ring conformer: 94.30482452302587 kcal/mol)

>  <smiles>  (32) 
O=C(Nc1ccc(S(=O)(=O)N2CCOCC2)cc1)c1ccc(S(=O)(=O)Nc2cc3c(cc2O)CCCC3)cc1

>  <score_type>  (32) 
oracle

>  <origin>  (32) 
adgpu

>  <m_score__min__energy>  (32) 
-15.869999999999999

>  <m_primary>  (32) 
energy

$$$$
32:0
     RDKit          3D

 28 29  0  0  0  0  0  0  0  0999 V2000
   -6.7630   24.1750  -31.7170 C   0  0  0  0  0  0  0  0  0  0  0  0
   -5.3610   24.1570  -31.1990 C   0  0  0  0  0  0  0  0  0  0  0  0
   -4.7070   25.2690  -30.8080 N   0  0  0  0  0  0  0  0  0  0  0  0
   -3.5060   24.9070  -30.4620 O   0  0  0  0  0  0  0  0  0  0  0  0
   -3.3390   23.6130  -30.6010 C   0  0  0  0  0  0  0  0  0  0  0  0
   -2.0640   22.8960  -30.2990 C   0  0  0  0  0  0  0  0  0  0  0  0
   -4.5190   23.0620  -31.0690 C   0  0  0  0  0  0  0  0  0  0  0  0
   -4.7720   21.6430  -31.3970 C   0  0  0  0  0  0  0  0  0  0  0  0
   -4.2570   20.7510  -30.6700 O   0  0  0  0  0  0  0  0  0  0  0  0
   -5.5890   21.2800  -32.5230 N   0  0  0  0  0  0  0  0  0  0  0  0
   -5.8820   19.9250  -32.9010 C   0  0  0  0  0  0  0  0  0  0  0  0
   -7.0570   19.2820  -32.4760 C   0  0  0  0  0  0  0  0  0  0  0  0
   -7.3300   17.9720  -32.8790 C   0  0  0  0  0  0  0  0  0  0  0  0
   -6.4430   17.2940  -33.7230 C   0  0  0  0  0  0  0  0  0  0  0  0
   -6.8220   15.6470  -34.2090 Cl  0  0  0  0  0  0  0  0  0  0  0  0
   -5.2790   17.9390  -34.1730 C   0  0  0  0  0  0  0  0  0  0  0  0
   -4.1460   17.1280  -35.2450 Cl  0  0  0  0  0  0  0  0  0  0  0  0
   -5.0090   19.2510  -33.7680 C   0  0  0  0  0  0  0  0  0  0  0  0
   -7.4663   24.1840  -30.8712 H   0  0  0  0  0  0  0  0  0  0  0  0
   -6.9157   25.0752  -32.3305 H   0  0  0  0  0  0  0  0  0  0  0  0
   -6.9388   23.2790  -32.3305 H   0  0  0  0  0  0  0  0  0  0  0  0
   -1.9338   22.8228  -29.2092 H   0  0  0  0  0  0  0  0  0  0  0  0
   -2.0999   21.8857  -30.7327 H   0  0  0  0  0  0  0  0  0  0  0  0
   -1.2194   23.4514  -30.7327 H   0  0  0  0  0  0  0  0  0  0  0  0
   -5.9560   22.0360  -33.1420 H   0  0  0  0  0  0  0  0  0  0  0  0
   -7.7655   19.8125  -31.8228 H   0  0  0  0  0  0  0  0  0  0  0  0
   -8.2459   17.4717  -32.5314 H   0  0  0  0  0  0  0  0  0  0  0  0
   -4.1039   19.7585  -34.1328 H   0  0  0  0  0  0  0  0  0  0  0  0
  1  2  1  0
  2  3  2  0
  3  4  1  0
  4  5  1  0
  5  6  1  0
  5  7  2  0
  7  8  1  0
  8  9  2  0
  8 10  1  0
 10 11  1  0
 11 12  2  0
 12 13  1  0
 13 14  2  0
 14 15  1  0
 14 16  1  0
 16 17  1  0
 16 18  2  0
  7  2  1  0
 18 11  1  0
  1 19  1  0
  1 20  1  0
  1 21  1  0
  6 22  1  0
  6 23  1  0
  6 24  1  0
 10 25  1  0
 12 26  1  0
 13 27  1  0
 18 28  1  0
M  END
>  <UniqueID>  (33) 
30

>  <SMILES>  (33) 
Cc1noc(C)c1C(=O)Nc1ccc(Cl)c(Cl)c1

>  <Energy>  (33) 
64.97956975208604

>  <Genealogy>  (33) 
Cc1noc(C)c1C(=O)Nc1ccc(Cl)c(Cl)c1 (3D coordinates assigned)
Cc1noc(C)c1C(=O)Nc1ccc(Cl)c(Cl)c1 (optimized conformer: 64.97956975208604 kcal/mol)

>  <smiles>  (33) 
Cc1noc(C)c1C(=O)Nc1ccc(Cl)c(Cl)c1

>  <score_type>  (33) 
oracle

>  <origin>  (33) 
adgpu

>  <m_score__min__energy>  (33) 
-8

>  <m_primary>  (33) 
energy

$$$$
33:0
     RDKit          3D

 70 74  0  0  0  0  0  0  0  0999 V2000
    1.9200   25.1300  -35.8400 C   0  0  0  0  0  0  0  0  0  0  0  0
    1.6980   23.8360  -36.5030 N   0  0  0  0  0  0  0  0  0  0  0  0
    0.4000   23.2530  -36.0810 C   0  0  0  0  0  0  0  0  0  0  0  0
    0.3630   21.7350  -36.2880 C   0  0  0  0  0  0  0  0  0  0  0  0
    1.4440   21.0270  -35.4370 C   0  0  0  0  0  0  0  0  0  0  0  0
    0.7770   20.4230  -33.8790 S   0  0  0  0  0  0  0  0  0  0  0  0
    0.1420   21.5540  -33.1190 O   0  0  0  0  0  0  0  0  0  0  0  0
    1.9050   19.8890  -33.0390 O   0  0  0  0  0  0  0  0  0  0  0  0
   -0.3840   19.1110  -34.1880 C   0  0  0  0  0  0  0  0  0  0  0  0
    0.0110   17.8600  -34.7270 C   0  0  0  0  0  0  0  0  0  0  0  0
    1.6750   17.4810  -35.1640 Cl  0  0  0  0  0  0  0  0  0  0  0  0
   -0.9370   16.8460  -34.9020 C   0  0  0  0  0  0  0  0  0  0  0  0
   -2.2690   17.0490  -34.5490 C   0  0  0  0  0  0  0  0  0  0  0  0
   -2.6750   18.2790  -34.0270 C   0  0  0  0  0  0  0  0  0  0  0  0
   -4.0430   18.4750  -33.6600 N   0  0  0  0  0  0  0  0  0  0  0  0
   -5.1130   17.8990  -34.4160 C   0  0  0  0  0  0  0  0  0  0  0  0
   -4.8690   17.2510  -35.4680 O   0  0  0  0  0  0  0  0  0  0  0  0
   -6.4630   18.0960  -33.9800 N   0  0  0  0  0  0  0  0  0  0  0  0
   -6.9310   19.1550  -33.1330 C   0  0  0  0  0  0  0  0  0  0  0  0
   -8.2470   19.0750  -32.6120 C   0  0  0  0  0  0  0  0  0  0  0  0
   -8.7760   20.1110  -31.8210 C   0  0  0  0  0  0  0  0  0  0  0  0
   -7.9660   21.2150  -31.5860 C   0  0  0  0  0  0  0  0  0  0  0  0
   -8.1890   22.3940  -30.9150 C   0  0  0  0  0  0  0  0  0  0  0  0
   -7.0680   23.1430  -31.0500 N   0  0  0  0  0  0  0  0  0  0  0  0
   -6.8670   24.4820  -30.5030 C   0  0  0  0  0  0  0  0  0  0  0  0
   -5.5310   25.1050  -30.9670 C   0  0  0  0  0  0  0  0  0  0  0  0
   -4.3250   24.6750  -30.2220 N   0  0  0  0  0  0  0  0  0  0  0  0
   -3.6150   23.5190  -30.7880 C   0  0  0  0  0  0  0  0  0  0  0  0
   -2.2380   23.3770  -30.1050 C   0  0  0  0  0  0  0  0  0  0  0  0
   -2.1520   24.0710  -28.8690 O   0  0  0  0  0  0  0  0  0  0  0  0
   -3.3210   23.8570  -28.1020 C   0  0  0  0  0  0  0  0  0  0  0  0
   -4.5250   24.5520  -28.7630 C   0  0  0  0  0  0  0  0  0  0  0  0
   -6.1500   22.4930  -31.7610 N   0  0  0  0  0  0  0  0  0  0  0  0
   -6.7000   21.3110  -32.0920 C   0  0  0  0  0  0  0  0  0  0  0  0
   -6.1440   20.3050  -32.8760 C   0  0  0  0  0  0  0  0  0  0  0  0
   -1.7370   19.3030  -33.8330 C   0  0  0  0  0  0  0  0  0  0  0  0
   -2.1550   20.5060  -33.2670 O   0  0  0  0  0  0  0  0  0  0  0  0
    2.6680   21.9350  -35.1790 C   0  0  0  0  0  0  0  0  0  0  0  0
    2.8650   22.9320  -36.3290 C   0  0  0  0  0  0  0  0  0  0  0  0
    1.8963   24.9918  -34.7490 H   0  0  0  0  0  0  0  0  0  0  0  0
    2.9001   25.5311  -36.1376 H   0  0  0  0  0  0  0  0  0  0  0  0
    1.1297   25.8348  -36.1376 H   0  0  0  0  0  0  0  0  0  0  0  0
    0.2420   23.4707  -35.0144 H   0  0  0  0  0  0  0  0  0  0  0  0
   -0.3926   23.7013  -36.6981 H   0  0  0  0  0  0  0  0  0  0  0  0
   -0.6279   21.3572  -35.9957 H   0  0  0  0  0  0  0  0  0  0  0  0
    0.5617   21.5235  -37.3490 H   0  0  0  0  0  0  0  0  0  0  0  0
    1.7825   20.1618  -36.0260 H   0  0  0  0  0  0  0  0  0  0  0  0
   -0.6271   15.8781  -35.3229 H   0  0  0  0  0  0  0  0  0  0  0  0
   -3.0020   16.2396  -34.6815 H   0  0  0  0  0  0  0  0  0  0  0  0
   -4.2560   18.9220  -32.7400 H   0  0  0  0  0  0  0  0  0  0  0  0
   -8.8633   18.1902  -32.8294 H   0  0  0  0  0  0  0  0  0  0  0  0
   -9.7922   20.0494  -31.4044 H   0  0  0  0  0  0  0  0  0  0  0  0
   -9.1033   22.6756  -30.3720 H   0  0  0  0  0  0  0  0  0  0  0  0
   -7.6935   25.1281  -30.8339 H   0  0  0  0  0  0  0  0  0  0  0  0
   -6.8395   24.3993  -29.4065 H   0  0  0  0  0  0  0  0  0  0  0  0
   -5.3855   24.8418  -32.0251 H   0  0  0  0  0  0  0  0  0  0  0  0
   -5.6258   26.1854  -30.7831 H   0  0  0  0  0  0  0  0  0  0  0  0
   -4.2050   22.6065  -30.6171 H   0  0  0  0  0  0  0  0  0  0  0  0
   -3.4749   23.6676  -31.8689 H   0  0  0  0  0  0  0  0  0  0  0  0
   -2.0478   22.3094  -29.9204 H   0  0  0  0  0  0  0  0  0  0  0  0
   -1.4910   23.8192  -30.7806 H   0  0  0  0  0  0  0  0  0  0  0  0
   -3.5177   22.7769  -28.0331 H   0  0  0  0  0  0  0  0  0  0  0  0
   -3.1721   24.2765  -27.0961 H   0  0  0  0  0  0  0  0  0  0  0  0
   -5.4323   23.9601  -28.5722 H   0  0  0  0  0  0  0  0  0  0  0  0
   -4.6281   25.5602  -28.3354 H   0  0  0  0  0  0  0  0  0  0  0  0
   -5.1265   20.3993  -33.2831 H   0  0  0  0  0  0  0  0  0  0  0  0
    2.5122   22.4916  -34.2431 H   0  0  0  0  0  0  0  0  0  0  0  0
    3.5648   21.3022  -35.1062 H   0  0  0  0  0  0  0  0  0  0  0  0
    3.7558   23.5420  -36.1186 H   0  0  0  0  0  0  0  0  0  0  0  0
    2.9818   22.3536  -37.2573 H   0  0  0  0  0  0  0  0  0  0  0  0
  1  2  1  0
  2  3  1  0
  3  4  1  0
  4  5  1  0
  5  6  1  0
  6  7  2  0
  6  8  2  0
  6  9  1  0
  9 10  2  0
 10 11  1  0
 10 12  1  0
 12 13  2  0
 13 14  1  0
 14 15  1  0
 15 16  1  0
 16 17  2  0
 16 18  1  0
 18 19  1  0
 19 20  1  0
 20 21  2  0
 21 22  1  0
 22 23  2  0
 23 24  1  0
 24 25  1  0
 25 26  1  0
 26 27  1  0
 27 28  1  0
 28 29  1  0
 29 30  1  0
 30 31  1  0
 31 32  1  0
 24 33  1  0
 33 34  2  0
 34 35  1  0
 14 36  2  0
 36 37  1  0
  5 38  1  0
 38 39  1  0
 39  2  1  0
 36  9  1  0
 35 19  2  0
 34 22  1  0
 32 27  1  0
  1 40  1  0
  1 41  1  0
  1 42  1  0
  3 43  1  0
  3 44  1  0
  4 45  1  0
  4 46  1  0
  5 47  1  0
 12 48  1  0
 13 49  1  0
 15 50  1  0
 20 51  1  0
 21 52  1  0
 23 53  1  0
 25 54  1  0
 25 55  1  0
 26 56  1  0
 26 57  1  0
 28 58  1  0
 28 59  1  0
 29 60  1  0
 29 61  1  0
 31 62  1  0
 31 63  1  0
 32 64  1  0
 32 65  1  0
 35 66  1  0
 38 67  1  0
 38 68  1  0
 39 69  1  0
 39 70  1  0
M  CHG  2  18  -1  37  -1
M  END
>  <UniqueID>  (34) 
31

>  <SMILES>  (34) 
CN1CCC(S(=O)(=O)c2c(Cl)ccc(NC(=O)[N-]c3ccc4cn(CCN5CCOCC5)nc4c3)c2[O-])CC1

>  <Energy>  (34) 
142.71907663679028

>  <Genealogy>  (34) 
CN1CCC(S(=O)(=O)c2c(Cl)ccc(NC(=O)[N-]c3ccc4cn(CCN5CCOCC5)nc4c3)c2[O-])CC1 (protonated)
CN1CCC(S(=O)(=O)c2c(Cl)ccc(NC(=O)[N-]c3ccc4cn(CCN5CCOCC5)nc4c3)c2[O-])CC1 (3D coordinates assigned)
CN1CCC(S(=O)(=O)c2c(Cl)ccc(NC(=O)[N-]c3ccc4cn(CCN5CCOCC5)nc4c3)c2[O-])CC1 (nonaromatic ring conformer: 142.71907663679028 kcal/mol)

>  <smiles>  (34) 
CN1CCC(S(=O)(=O)c2c(Cl)ccc(NC(=O)Nc3ccc4cn(CCN5CCOCC5)nc4c3)c2O)CC1

>  <score_type>  (34) 
oracle

>  <origin>  (34) 
adgpu

>  <m_score__min__energy>  (34) 
-13.75

>  <m_primary>  (34) 
energy

$$$$
34:0
     RDKit          3D

 44 47  0  0  0  0  0  0  0  0999 V2000
   -0.6938   16.1105  -35.8823 H   0  0  0  0  0  0  0  0  0  0  0  0
   -1.4120   16.7360  -35.3320 C   0  0  0  0  0  0  0  0  0  0  0  0
   -1.1250   17.9160  -34.7480 N   0  0  0  0  0  0  0  0  0  0  0  0
   -2.2350   18.3700  -34.1870 N   0  0  0  0  0  0  0  0  0  0  0  0
   -2.2830   19.6160  -33.4270 C   0  0  0  0  0  0  0  0  0  0  0  0
   -2.2743   19.3895  -32.3506 H   0  0  0  0  0  0  0  0  0  0  0  0
   -1.4080   20.2331  -33.6789 H   0  0  0  0  0  0  0  0  0  0  0  0
   -3.2029   20.1640  -33.6789 H   0  0  0  0  0  0  0  0  0  0  0  0
   -3.2440   17.4990  -34.4140 C   0  0  0  0  0  0  0  0  0  0  0  0
   -4.6440   17.6300  -33.9480 C   0  0  0  0  0  0  0  0  0  0  0  0
   -5.3710   16.5120  -33.5100 C   0  0  0  0  0  0  0  0  0  0  0  0
   -4.9028   15.5166  -33.5186 H   0  0  0  0  0  0  0  0  0  0  0  0
   -6.6870   16.6580  -33.0630 C   0  0  0  0  0  0  0  0  0  0  0  0
   -7.2565   15.7752  -32.7370 H   0  0  0  0  0  0  0  0  0  0  0  0
   -7.2810   17.9210  -33.0290 C   0  0  0  0  0  0  0  0  0  0  0  0
   -8.3209   18.0273  -32.6866 H   0  0  0  0  0  0  0  0  0  0  0  0
   -6.5610   19.0520  -33.4280 C   0  0  0  0  0  0  0  0  0  0  0  0
   -7.1870   20.3060  -33.3670 O   0  0  0  0  0  0  0  0  0  0  0  0
   -6.7210   21.3820  -32.5980 C   0  0  0  0  0  0  0  0  0  0  0  0
   -5.3780   21.7580  -32.7150 C   0  0  0  0  0  0  0  0  0  0  0  0
   -4.7238   21.2354  -33.4284 H   0  0  0  0  0  0  0  0  0  0  0  0
   -4.8640   22.7930  -31.9310 C   0  0  0  0  0  0  0  0  0  0  0  0
   -3.8023   23.0683  -32.0153 H   0  0  0  0  0  0  0  0  0  0  0  0
   -5.6940   23.4820  -31.0380 C   0  0  0  0  0  0  0  0  0  0  0  0
   -5.0150   24.7320  -30.0000 S   0  0  0  0  0  0  0  0  0  0  0  0
   -6.1070   25.5140  -29.3250 O   0  0  0  0  0  0  0  0  0  0  0  0
   -4.1990   25.6750  -30.8370 O   0  0  0  0  0  0  0  0  0  0  0  0
   -3.9990   24.0020  -28.8010 N   0  0  0  0  0  0  0  0  0  0  0  0
   -2.7610   24.3440  -28.6180 C   0  0  0  0  0  0  0  0  0  0  0  0
   -2.1160   25.2910  -29.3250 N   0  0  0  0  0  0  0  0  0  0  0  0
   -0.9090   25.3430  -28.8390 O   0  0  0  0  0  0  0  0  0  0  0  0
   -0.7460   24.4800  -27.8590 C   0  0  0  0  0  0  0  0  0  0  0  0
    0.1802   24.3289  -27.2851 H   0  0  0  0  0  0  0  0  0  0  0  0
   -1.9280   23.7970  -27.6710 C   0  0  0  0  0  0  0  0  0  0  0  0
   -2.1510   23.0057  -26.9402 H   0  0  0  0  0  0  0  0  0  0  0  0
   -7.0500   23.1380  -30.9480 C   0  0  0  0  0  0  0  0  0  0  0  0
   -7.7090   23.6884  -30.2604 H   0  0  0  0  0  0  0  0  0  0  0  0
   -7.5710   22.0980  -31.7280 C   0  0  0  0  0  0  0  0  0  0  0  0
   -8.9780   21.7950  -31.6410 C   0  0  0  0  0  0  0  0  0  0  0  0
  -10.1070   21.5500  -31.5720 N   0  0  0  0  0  0  0  0  0  0  0  0
   -5.2430   18.8990  -33.8990 C   0  0  0  0  0  0  0  0  0  0  0  0
   -4.6773   19.7818  -34.2317 H   0  0  0  0  0  0  0  0  0  0  0  0
   -2.7440   16.4310  -35.1350 C   0  0  0  0  0  0  0  0  0  0  0  0
   -3.2866   15.5370  -35.4760 H   0  0  0  0  0  0  0  0  0  0  0  0
  1  2  1  0
  2  3  2  0
  3  4  1  0
  4  5  1  0
  5  6  1  0
  5  7  1  0
  5  8  1  0
  4  9  1  0
  9 10  1  0
 10 11  2  0
 11 12  1  0
 11 13  1  0
 13 14  1  0
 13 15  2  0
 15 16  1  0
 15 17  1  0
 17 18  1  0
 18 19  1  0
 19 20  2  0
 20 21  1  0
 20 22  1  0
 22 23  1  0
 22 24  2  0
 24 25  1  0
 25 26  2  0
 25 27  2  0
 25 28  1  0
 28 29  2  0
 29 30  1  0
 30 31  1  0
 31 32  1  0
 32 33  1  0
 32 34  2  0
 34 35  1  0
 24 36  1  0
 36 37  1  0
 36 38  2  0
 38 39  1  0
 39 40  3  0
 17 41  2  0
 41 42  1  0
  9 43  2  0
 43 44  1  0
 43  2  1  0
 41 10  1  0
 38 19  1  0
 34 29  1  0
M  CHG  1  30  -1
M  END
>  <UniqueID>  (35) 
32

>  <SMILES>  (35) 
Cn1nccc1-c1cccc(Oc2ccc(S(=O)(=O)/N=c3/cco[n-]3)cc2C#N)c1

>  <Energy>  (35) 
123.20713381842137

>  <Genealogy>  (35) 
Cn1nccc1-c1cccc(Oc2ccc(S(=O)(=O)N=c3cco[n-]3)cc2C#N)c1 (protonated)
Cn1nccc1-c1cccc(Oc2ccc(S(=O)(=O)/N=c3/cco[n-]3)cc2C#N)c1 (cis-trans isomerization)
Cn1nccc1-c1cccc(Oc2ccc(S(=O)(=O)/N=c3/cco[n-]3)cc2C#N)c1 (3D coordinates assigned)
Cn1nccc1-c1cccc(Oc2ccc(S(=O)(=O)/N=c3/cco[n-]3)cc2C#N)c1 (optimized conformer: 123.20713381842137 kcal/mol)

>  <smiles>  (35) 
Cn1nccc1-c1cccc(Oc2ccc(S(=O)(=O)N=c3cco[nH]3)cc2C#N)c1

>  <score_type>  (35) 
oracle

>  <origin>  (35) 
adgpu

>  <m_score__min__energy>  (35) 
-11.609999999999999

>  <m_primary>  (35) 
energy

$$$$
35:0
     RDKit          3D

 42 44  0  0  0  0  0  0  0  0999 V2000
   -6.4020   19.1650  -33.5270 C   0  0  0  0  0  0  0  0  0  0  0  0
   -4.9560   18.8260  -33.6680 C   0  0  0  0  0  0  0  0  0  0  0  0
   -4.3850   18.1070  -34.6920 C   0  0  0  0  0  0  0  0  0  0  0  0
   -3.0710   17.9640  -34.4450 N   0  0  0  0  0  0  0  0  0  0  0  0
   -2.8910   18.6060  -33.2700 C   0  0  0  0  0  0  0  0  0  0  0  0
   -1.5720   18.6710  -32.5670 C   0  0  0  0  0  0  0  0  0  0  0  0
   -0.6280   19.5060  -33.3480 N   0  0  0  0  0  0  0  0  0  0  0  0
   -0.0660   18.7110  -34.4580 C   0  0  0  0  0  0  0  0  0  0  0  0
   -1.2880   20.7360  -33.8580 C   0  0  2  0  0  0  0  0  0  0  0  0
   -0.3670   21.5760  -34.5090 O   0  0  0  0  0  0  0  0  0  0  0  0
   -1.9310   21.5090  -32.7330 C   0  0  0  0  0  0  0  0  0  0  0  0
   -1.3150   21.9270  -31.5650 C   0  0  0  0  0  0  0  0  0  0  0  0
   -2.2820   22.6140  -30.8620 C   0  0  0  0  0  0  0  0  0  0  0  0
   -2.0950   23.1470  -29.5890 O   0  0  0  0  0  0  0  0  0  0  0  0
   -3.4400   22.6580  -31.5580 N   0  0  0  0  0  0  0  0  0  0  0  0
   -4.6720   23.2860  -31.1730 C   0  0  0  0  0  0  0  0  0  0  0  0
   -5.8890   22.6170  -31.3810 C   0  0  0  0  0  0  0  0  0  0  0  0
   -7.0980   23.2190  -31.0160 C   0  0  0  0  0  0  0  0  0  0  0  0
   -8.6100   22.3690  -31.2640 Cl  0  0  0  0  0  0  0  0  0  0  0  0
   -7.0980   24.4970  -30.4500 C   0  0  0  0  0  0  0  0  0  0  0  0
   -5.8930   25.1780  -30.2570 C   0  0  0  0  0  0  0  0  0  0  0  0
   -4.6820   24.5810  -30.6230 C   0  0  0  0  0  0  0  0  0  0  0  0
   -3.4950   25.2880  -30.4570 O   0  0  0  0  0  0  0  0  0  0  0  0
   -3.2320   21.9770  -32.7020 C   0  0  0  0  0  0  0  0  0  0  0  0
   -4.0200   19.1370  -32.7550 N   0  0  0  0  0  0  0  0  0  0  0  0
   -6.6620   19.2259  -32.4599 H   0  0  0  0  0  0  0  0  0  0  0  0
   -6.6001   20.1339  -34.0086 H   0  0  0  0  0  0  0  0  0  0  0  0
   -7.0101   18.3851  -34.0086 H   0  0  0  0  0  0  0  0  0  0  0  0
   -4.9169   17.7129  -35.5705 H   0  0  0  0  0  0  0  0  0  0  0  0
   -1.7112   19.1129  -31.5693 H   0  0  0  0  0  0  0  0  0  0  0  0
   -1.1623   17.6549  -32.4681 H   0  0  0  0  0  0  0  0  0  0  0  0
    0.5236   17.8769  -34.0498 H   0  0  0  0  0  0  0  0  0  0  0  0
   -0.8849   18.3134  -35.0756 H   0  0  0  0  0  0  0  0  0  0  0  0
    0.5819   19.3504  -35.0756 H   0  0  0  0  0  0  0  0  0  0  0  0
   -2.0580   20.4133  -34.5742 H   0  0  0  0  0  0  0  0  0  0  0  0
   -0.8890   22.2310  -35.0430 H   0  0  0  0  0  0  0  0  0  0  0  0
   -0.2728   21.7484  -31.2618 H   0  0  0  0  0  0  0  0  0  0  0  0
   -2.5900   23.9740  -29.2800 H   0  0  0  0  0  0  0  0  0  0  0  0
   -5.8918   21.6143  -31.8333 H   0  0  0  0  0  0  0  0  0  0  0  0
   -8.0479   24.9674  -30.1560 H   0  0  0  0  0  0  0  0  0  0  0  0
   -5.8968   26.1858  -29.8163 H   0  0  0  0  0  0  0  0  0  0  0  0
   -3.9822   21.8177  -33.4905 H   0  0  0  0  0  0  0  0  0  0  0  0
  1  2  1  0
  2  3  2  0
  3  4  1  0
  4  5  1  0
  5  6  1  0
  6  7  1  0
  7  8  1  0
  7  9  1  0
  9 10  1  0
  9 11  1  0
 11 12  1  0
 12 13  2  0
 13 14  1  0
 13 15  1  0
 15 16  1  0
 16 17  2  0
 17 18  1  0
 18 19  1  0
 18 20  2  0
 20 21  1  0
 21 22  2  0
 22 23  1  0
 15 24  1  0
  5 25  2  0
 25  2  1  0
 24 11  2  0
 22 16  1  0
  1 26  1  0
  1 27  1  0
  1 28  1  0
  3 29  1  0
  6 30  1  0
  6 31  1  0
  8 32  1  0
  8 33  1  0
  8 34  1  0
  9 35  1  6
 10 36  1  0
 12 37  1  0
 14 38  1  0
 17 39  1  0
 20 40  1  0
 21 41  1  0
 24 42  1  0
M  CHG  2   4  -1  23  -1
M  END
>  <UniqueID>  (36) 
33

>  <SMILES>  (36) 
Cc1c[n-]c(CN(C)[C@H](O)c2cc(O)n(-c3cc(Cl)ccc3[O-])c2)n1

>  <Energy>  (36) 
105.46887170467616

>  <Genealogy>  (36) 
Cc1c[n-]c(CN(C)C(O)c2cc(O)n(-c3cc(Cl)ccc3[O-])c2)n1 (protonated)
Cc1c[n-]c(CN(C)[C@H](O)c2cc(O)n(-c3cc(Cl)ccc3[O-])c2)n1 (chirality)
Cc1c[n-]c(CN(C)[C@H](O)c2cc(O)n(-c3cc(Cl)ccc3[O-])c2)n1 (3D coordinates assigned)
Cc1c[n-]c(CN(C)[C@H](O)c2cc(O)n(-c3cc(Cl)ccc3[O-])c2)n1 (optimized conformer: 105.46887170467616 kcal/mol)

>  <smiles>  (36) 
Cc1c[nH]c(CN(C)C(O)c2cc(O)n(-c3cc(Cl)ccc3O)c2)n1

>  <score_type>  (36) 
oracle

>  <origin>  (36) 
adgpu

>  <m_score__min__energy>  (36) 
-10.359999999999999

>  <m_primary>  (36) 
energy

$$$$
36:0
     RDKit          3D

 53 56  0  0  0  0  0  0  0  0999 V2000
   -0.9860   22.6750  -27.0560 C   0  0  0  0  0  0  0  0  0  0  0  0
   -1.0240   22.2380  -28.4980 C   0  0  0  0  0  0  0  0  0  0  0  0
   -0.4160   21.0100  -28.8130 C   0  0  0  0  0  0  0  0  0  0  0  0
   -0.4530   20.5040  -30.1110 C   0  0  0  0  0  0  0  0  0  0  0  0
   -1.1190   21.2050  -31.1180 C   0  0  0  0  0  0  0  0  0  0  0  0
   -1.1540   20.5780  -32.7620 S   0  0  0  0  0  0  0  0  0  0  0  0
    0.0450   19.7040  -33.0020 O   0  0  0  0  0  0  0  0  0  0  0  0
   -1.1110   21.7120  -33.7480 O   0  0  0  0  0  0  0  0  0  0  0  0
   -2.6290   19.6450  -32.9850 C   0  0  0  0  0  0  0  0  0  0  0  0
   -2.8240   18.9000  -34.1560 C   0  0  0  0  0  0  0  0  0  0  0  0
   -4.0070   18.1770  -34.3410 C   0  0  0  0  0  0  0  0  0  0  0  0
   -5.0020   18.2000  -33.3590 C   0  0  0  0  0  0  0  0  0  0  0  0
   -6.4870   17.2950  -33.5910 Cl  0  0  0  0  0  0  0  0  0  0  0  0
   -4.8150   18.9500  -32.1920 C   0  0  0  0  0  0  0  0  0  0  0  0
   -3.6330   19.6730  -32.0070 C   0  0  0  0  0  0  0  0  0  0  0  0
   -1.7380   22.4230  -30.8210 C   0  0  0  0  0  0  0  0  0  0  0  0
   -1.7040   22.9580  -29.5200 C   0  0  0  0  0  0  0  0  0  0  0  0
   -2.5430   24.5010  -29.2430 S   0  0  0  0  0  0  0  0  0  0  0  0
   -1.5380   25.6180  -29.2690 O   0  0  0  0  0  0  0  0  0  0  0  0
   -3.2060   24.5320  -27.8950 O   0  0  0  0  0  0  0  0  0  0  0  0
   -3.6890   24.7950  -30.5090 N   0  0  0  0  0  0  0  0  0  0  0  0
   -4.9390   24.1100  -30.6000 C   0  0  0  0  0  0  0  0  0  0  0  0
   -5.1210   23.1650  -31.6140 C   0  0  0  0  0  0  0  0  0  0  0  0
   -6.3200   22.4450  -31.7160 C   0  0  0  0  0  0  0  0  0  0  0  0
   -7.3780   22.7260  -30.8180 C   0  0  0  0  0  0  0  0  0  0  0  0
   -7.1950   23.6900  -29.8160 C   0  0  0  0  0  0  0  0  0  0  0  0
   -5.9880   24.3940  -29.7120 C   0  0  0  0  0  0  0  0  0  0  0  0
   -5.8360   25.3800  -28.7400 O   0  0  0  0  0  0  0  0  0  0  0  0
   -8.6660   21.9350  -30.8430 C   0  0  0  0  0  0  0  0  0  0  0  0
   -8.8960   21.2250  -32.1800 C   0  0  0  0  0  0  0  0  0  0  0  0
   -7.6350   20.4750  -32.6090 C   0  0  0  0  0  0  0  0  0  0  0  0
   -6.4870   21.4590  -32.8480 C   0  0  0  0  0  0  0  0  0  0  0  0
   -1.0627   21.7928  -26.4034 H   0  0  0  0  0  0  0  0  0  0  0  0
   -0.0390   23.1977  -26.8561 H   0  0  0  0  0  0  0  0  0  0  0  0
   -1.8285   23.3534  -26.8561 H   0  0  0  0  0  0  0  0  0  0  0  0
    0.0963   20.4405  -28.0236 H   0  0  0  0  0  0  0  0  0  0  0  0
    0.0436   19.5502  -30.3426 H   0  0  0  0  0  0  0  0  0  0  0  0
   -2.0444   18.8838  -34.9319 H   0  0  0  0  0  0  0  0  0  0  0  0
   -4.1546   17.5900  -35.2595 H   0  0  0  0  0  0  0  0  0  0  0  0
   -5.5985   18.9705  -31.4202 H   0  0  0  0  0  0  0  0  0  0  0  0
   -3.4903   20.2656  -31.0914 H   0  0  0  0  0  0  0  0  0  0  0  0
   -2.2605   22.9724  -31.6180 H   0  0  0  0  0  0  0  0  0  0  0  0
   -4.3146   22.9842  -32.3400 H   0  0  0  0  0  0  0  0  0  0  0  0
   -8.0079   23.8957  -29.1040 H   0  0  0  0  0  0  0  0  0  0  0  0
   -4.9220   25.6690  -28.4140 H   0  0  0  0  0  0  0  0  0  0  0  0
   -8.6307   21.1793  -30.0445 H   0  0  0  0  0  0  0  0  0  0  0  0
   -9.4945   22.6434  -30.6955 H   0  0  0  0  0  0  0  0  0  0  0  0
   -9.7244   20.5094  -32.0725 H   0  0  0  0  0  0  0  0  0  0  0  0
   -9.1421   21.9760  -32.9451 H   0  0  0  0  0  0  0  0  0  0  0  0
   -7.3472   19.7669  -31.8180 H   0  0  0  0  0  0  0  0  0  0  0  0
   -7.8417   19.9326  -33.5434 H   0  0  0  0  0  0  0  0  0  0  0  0
   -5.5526   20.8894  -32.9594 H   0  0  0  0  0  0  0  0  0  0  0  0
   -6.7242   22.0325  -33.7562 H   0  0  0  0  0  0  0  0  0  0  0  0
  1  2  1  0
  2  3  2  0
  3  4  1  0
  4  5  2  0
  5  6  1  0
  6  7  2  0
  6  8  2  0
  6  9  1  0
  9 10  2  0
 10 11  1  0
 11 12  2  0
 12 13  1  0
 12 14  1  0
 14 15  2  0
  5 16  1  0
 16 17  2  0
 17 18  1  0
 18 19  2  0
 18 20  2  0
 18 21  1  0
 21 22  1  0
 22 23  2  0
 23 24  1  0
 24 25  2  0
 25 26  1  0
 26 27  2  0
 27 28  1  0
 25 29  1  0
 29 30  1  0
 30 31  1  0
 31 32  1  0
 17  2  1  0
 27 22  1  0
 15  9  1  0
 32 24  1  0
  1 33  1  0
  1 34  1  0
  1 35  1  0
  3 36  1  0
  4 37  1  0
 10 38  1  0
 11 39  1  0
 14 40  1  0
 15 41  1  0
 16 42  1  0
 23 43  1  0
 26 44  1  0
 28 45  1  0
 29 46  1  0
 29 47  1  0
 30 48  1  0
 30 49  1  0
 31 50  1  0
 31 51  1  0
 32 52  1  0
 32 53  1  0
M  CHG  1  21  -1
M  END
>  <UniqueID>  (37) 
34

>  <SMILES>  (37) 
Cc1ccc(S(=O)(=O)c2ccc(Cl)cc2)cc1S(=O)(=O)[N-]c1cc2c(cc1O)CCCC2

>  <Energy>  (37) 
69.26435731483295

>  <Genealogy>  (37) 
Cc1ccc(S(=O)(=O)c2ccc(Cl)cc2)cc1S(=O)(=O)[N-]c1cc2c(cc1O)CCCC2 (protonated)
Cc1ccc(S(=O)(=O)c2ccc(Cl)cc2)cc1S(=O)(=O)[N-]c1cc2c(cc1O)CCCC2 (3D coordinates assigned)
Cc1ccc(S(=O)(=O)c2ccc(Cl)cc2)cc1S(=O)(=O)[N-]c1cc2c(cc1O)CCCC2 (nonaromatic ring conformer: 69.26435731483295 kcal/mol)

>  <smiles>  (37) 
Cc1ccc(S(=O)(=O)c2ccc(Cl)cc2)cc1S(=O)(=O)Nc1cc2c(cc1O)CCCC2

>  <score_type>  (37) 
oracle

>  <origin>  (37) 
adgpu

>  <m_score__min__energy>  (37) 
-12.460000000000001

>  <m_primary>  (37) 
energy

$$$$
37:0
     RDKit          3D

 44 47  0  0  0  0  0  0  0  0999 V2000
    0.6390   25.2450  -27.4540 C   0  0  0  0  0  0  0  0  0  0  0  0
   -0.6100   24.6780  -28.0350 C   0  0  0  0  0  0  0  0  0  0  0  0
   -1.0780   23.4290  -27.7180 N   0  0  0  0  0  0  0  0  0  0  0  0
   -2.2110   23.4300  -28.4360 C   0  0  0  0  0  0  0  0  0  0  0  0
   -3.4310   22.3080  -28.6790 S   0  0  0  0  0  0  0  0  0  0  0  0
   -4.2760   23.3910  -29.7260 C   0  0  0  0  0  0  0  0  0  0  0  0
   -5.5610   23.0810  -30.3960 C   0  0  0  0  0  0  0  0  0  0  0  0
   -6.5430   24.0640  -30.5630 C   0  0  0  0  0  0  0  0  0  0  0  0
   -7.7490   23.7590  -31.1930 C   0  0  0  0  0  0  0  0  0  0  0  0
   -8.0030   22.4650  -31.6740 C   0  0  0  0  0  0  0  0  0  0  0  0
   -9.3290   22.1870  -32.3310 C   0  0  0  0  0  0  0  0  0  0  0  0
   -7.0280   21.4520  -31.4900 C   0  0  0  0  0  0  0  0  0  0  0  0
   -7.3160   19.7850  -32.0510 S   0  0  0  0  0  0  0  0  0  0  0  0
   -7.7980   19.8380  -33.4740 O   0  0  0  0  0  0  0  0  0  0  0  0
   -8.3910   19.1830  -31.1890 O   0  0  0  0  0  0  0  0  0  0  0  0
   -5.8740   18.7830  -31.9540 N   0  0  0  0  0  0  0  0  0  0  0  0
   -4.8450   19.2040  -32.9400 C   0  0  0  0  0  0  0  0  0  0  0  0
   -4.8400   18.3300  -34.2090 C   0  0  0  0  0  0  0  0  0  0  0  0
   -6.1480   17.9020  -34.5140 O   0  0  0  0  0  0  0  0  0  0  0  0
   -6.6050   16.9780  -33.5400 C   0  0  0  0  0  0  0  0  0  0  0  0
   -6.2050   17.3490  -32.0920 C   0  0  0  0  0  0  0  0  0  0  0  0
   -5.8170   21.7780  -30.8520 C   0  0  0  0  0  0  0  0  0  0  0  0
   -3.5320   24.5860  -29.8330 C   0  0  0  0  0  0  0  0  0  0  0  0
   -3.8710   25.6780  -30.6220 O   0  0  0  0  0  0  0  0  0  0  0  0
   -2.4070   24.5400  -29.0930 N   0  0  0  0  0  0  0  0  0  0  0  0
   -1.4220   25.3820  -28.8750 N   0  0  0  0  0  0  0  0  0  0  0  0
    0.5781   25.2174  -26.3560 H   0  0  0  0  0  0  0  0  0  0  0  0
    1.5019   24.6503  -27.7885 H   0  0  0  0  0  0  0  0  0  0  0  0
    0.7593   26.2860  -27.7885 H   0  0  0  0  0  0  0  0  0  0  0  0
   -6.3622   25.0846  -30.1946 H   0  0  0  0  0  0  0  0  0  0  0  0
   -8.5113   24.5427  -31.3146 H   0  0  0  0  0  0  0  0  0  0  0  0
  -10.0948   22.0265  -31.5578 H   0  0  0  0  0  0  0  0  0  0  0  0
   -9.6147   23.0448  -32.9576 H   0  0  0  0  0  0  0  0  0  0  0  0
   -9.2462   21.2867  -32.9576 H   0  0  0  0  0  0  0  0  0  0  0  0
   -5.4850   18.9060  -30.9910 H   0  0  0  0  0  0  0  0  0  0  0  0
   -5.0435   20.2459  -33.2318 H   0  0  0  0  0  0  0  0  0  0  0  0
   -3.8617   19.0947  -32.4591 H   0  0  0  0  0  0  0  0  0  0  0  0
   -4.4443   18.9161  -35.0516 H   0  0  0  0  0  0  0  0  0  0  0  0
   -4.2070   17.4478  -34.0331 H   0  0  0  0  0  0  0  0  0  0  0  0
   -7.7026   16.9301  -33.5953 H   0  0  0  0  0  0  0  0  0  0  0  0
   -6.1298   16.0121  -33.7665 H   0  0  0  0  0  0  0  0  0  0  0  0
   -7.0442   17.1130  -31.4212 H   0  0  0  0  0  0  0  0  0  0  0  0
   -5.3079   16.7687  -31.8304 H   0  0  0  0  0  0  0  0  0  0  0  0
   -5.0561   20.9969  -30.7077 H   0  0  0  0  0  0  0  0  0  0  0  0
  1  2  1  0
  2  3  1  0
  3  4  2  0
  4  5  1  0
  5  6  1  0
  6  7  1  0
  7  8  2  0
  8  9  1  0
  9 10  2  0
 10 11  1  0
 10 12  1  0
 12 13  1  0
 13 14  2  0
 13 15  2  0
 13 16  1  0
 16 17  1  0
 17 18  1  0
 18 19  1  0
 19 20  1  0
 20 21  1  0
 12 22  2  0
  6 23  2  0
 23 24  1  0
 23 25  1  0
 25 26  1  0
 26  2  2  0
 25  4  1  0
 22  7  1  0
 21 16  1  0
  1 27  1  0
  1 28  1  0
  1 29  1  0
  8 30  1  0
  9 31  1  0
 11 32  1  0
 11 33  1  0
 11 34  1  0
 16 35  1  0
 17 36  1  0
 17 37  1  0
 18 38  1  0
 18 39  1  0
 20 40  1  0
 20 41  1  0
 21 42  1  0
 21 43  1  0
 22 44  1  0
M  CHG  2  16   1  24  -1
M  END
>  <UniqueID>  (38) 
35

>  <SMILES>  (38) 
Cc1nc2sc(-c3ccc(C)c(S(=O)(=O)[NH+]4CCOCC4)c3)c([O-])n2n1

>  <Energy>  (38) 
147.52092929846725

>  <Genealogy>  (38) 
Cc1nc2sc(-c3ccc(C)c(S(=O)(=O)[NH+]4CCOCC4)c3)c([O-])n2n1 (protonated)
Cc1nc2sc(-c3ccc(C)c(S(=O)(=O)[NH+]4CCOCC4)c3)c([O-])n2n1 (3D coordinates assigned)
Cc1nc2sc(-c3ccc(C)c(S(=O)(=O)[NH+]4CCOCC4)c3)c([O-])n2n1 (nonaromatic ring conformer: 147.52092929846725 kcal/mol)

>  <smiles>  (38) 
Cc1nc2sc(-c3ccc(C)c(S(=O)(=O)N4CCOCC4)c3)c(O)n2n1

>  <score_type>  (38) 
oracle

>  <origin>  (38) 
adgpu

>  <m_score__min__energy>  (38) 
-11.98

>  <m_primary>  (38) 
energy

$$$$
38:0
     RDKit          3D

 47 49  0  0  0  0  0  0  0  0999 V2000
   -0.9130   19.1760  -31.4970 C   0  0  0  0  0  0  0  0  0  0  0  0
   -1.4000   20.5060  -31.0020 C   0  0  0  0  0  0  0  0  0  0  0  0
   -0.4890   21.4660  -30.5370 C   0  0  0  0  0  0  0  0  0  0  0  0
   -0.9460   22.6890  -30.0390 C   0  0  0  0  0  0  0  0  0  0  0  0
   -2.3190   22.9610  -29.9900 C   0  0  0  0  0  0  0  0  0  0  0  0
   -2.8780   24.5000  -29.3360 S   0  0  0  0  0  0  0  0  0  0  0  0
   -3.6910   24.2290  -28.1010 O   0  0  0  0  0  0  0  0  0  0  0  0
   -1.7050   25.3600  -28.9520 O   0  0  0  0  0  0  0  0  0  0  0  0
   -3.8680   25.3520  -30.4890 N   0  0  0  0  0  0  0  0  0  0  0  0
   -5.2840   25.3220  -30.1110 C   0  0  0  0  0  0  0  0  0  0  0  0
   -5.9770   24.1130  -30.6790 C   0  0  0  0  0  0  0  0  0  0  0  0
   -6.3560   23.0500  -29.8430 C   0  0  0  0  0  0  0  0  0  0  0  0
   -6.9840   21.9220  -30.3780 C   0  0  0  0  0  0  0  0  0  0  0  0
   -7.2480   21.8460  -31.7510 C   0  0  0  0  0  0  0  0  0  0  0  0
   -8.0410   20.4190  -32.4110 S   0  0  0  0  0  0  0  0  0  0  0  0
   -7.5600   20.2170  -33.8220 O   0  0  0  0  0  0  0  0  0  0  0  0
   -9.5320   20.6200  -32.4230 O   0  0  0  0  0  0  0  0  0  0  0  0
   -7.6370   19.0180  -31.4420 N   0  0  0  0  0  0  0  0  0  0  0  0
   -8.2370   17.8060  -32.0100 C   0  0  0  0  0  0  0  0  0  0  0  0
   -7.2090   17.1450  -32.9170 C   0  0  0  0  0  0  0  0  0  0  0  0
   -5.8820   17.7920  -32.5710 C   0  0  0  0  0  0  0  0  0  0  0  0
   -6.1880   18.7820  -31.4570 C   0  0  0  0  0  0  0  0  0  0  0  0
   -6.8740   22.9060  -32.5880 C   0  0  0  0  0  0  0  0  0  0  0  0
   -6.2430   24.0350  -32.0550 C   0  0  0  0  0  0  0  0  0  0  0  0
   -3.2330   21.9980  -30.4380 C   0  0  0  0  0  0  0  0  0  0  0  0
   -2.7760   20.7730  -30.9350 C   0  0  0  0  0  0  0  0  0  0  0  0
   -0.6763   18.5297  -30.6389 H   0  0  0  0  0  0  0  0  0  0  0  0
   -1.6962   18.7028  -32.1075 H   0  0  0  0  0  0  0  0  0  0  0  0
   -0.0094   19.3204  -32.1075 H   0  0  0  0  0  0  0  0  0  0  0  0
    0.5902   21.2550  -30.5645 H   0  0  0  0  0  0  0  0  0  0  0  0
   -0.2252   23.4404  -29.6844 H   0  0  0  0  0  0  0  0  0  0  0  0
   -5.3614   25.2968  -29.0140 H   0  0  0  0  0  0  0  0  0  0  0  0
   -5.7700   26.2222  -30.5153 H   0  0  0  0  0  0  0  0  0  0  0  0
   -6.1577   23.1055  -28.7625 H   0  0  0  0  0  0  0  0  0  0  0  0
   -7.2720   21.0906  -29.7179 H   0  0  0  0  0  0  0  0  0  0  0  0
   -8.5181   17.1157  -31.2010 H   0  0  0  0  0  0  0  0  0  0  0  0
   -9.1398   18.0626  -32.5836 H   0  0  0  0  0  0  0  0  0  0  0  0
   -7.1692   16.0623  -32.7268 H   0  0  0  0  0  0  0  0  0  0  0  0
   -7.4604   17.2764  -33.9798 H   0  0  0  0  0  0  0  0  0  0  0  0
   -5.1639   17.0341  -32.2247 H   0  0  0  0  0  0  0  0  0  0  0  0
   -5.4308   18.2874  -33.4434 H   0  0  0  0  0  0  0  0  0  0  0  0
   -5.8679   18.3661  -30.4903 H   0  0  0  0  0  0  0  0  0  0  0  0
   -5.6498   19.7261  -31.6276 H   0  0  0  0  0  0  0  0  0  0  0  0
   -7.0773   22.8500  -33.6676 H   0  0  0  0  0  0  0  0  0  0  0  0
   -5.9542   24.8648  -32.7168 H   0  0  0  0  0  0  0  0  0  0  0  0
   -4.3125   22.2059  -30.3987 H   0  0  0  0  0  0  0  0  0  0  0  0
   -3.4981   20.0159  -31.2747 H   0  0  0  0  0  0  0  0  0  0  0  0
  1  2  1  0
  2  3  2  0
  3  4  1  0
  4  5  2  0
  5  6  1  0
  6  7  2  0
  6  8  2  0
  6  9  1  0
  9 10  1  0
 10 11  1  0
 11 12  2  0
 12 13  1  0
 13 14  2  0
 14 15  1  0
 15 16  2  0
 15 17  2  0
 15 18  1  0
 18 19  1  0
 19 20  1  0
 20 21  1  0
 21 22  1  0
 14 23  1  0
 23 24  2  0
  5 25  1  0
 25 26  2  0
 26  2  1  0
 24 11  1  0
 22 18  1  0
  1 27  1  0
  1 28  1  0
  1 29  1  0
  3 30  1  0
  4 31  1  0
 10 32  1  0
 10 33  1  0
 12 34  1  0
 13 35  1  0
 19 36  1  0
 19 37  1  0
 20 38  1  0
 20 39  1  0
 21 40  1  0
 21 41  1  0
 22 42  1  0
 22 43  1  0
 23 44  1  0
 24 45  1  0
 25 46  1  0
 26 47  1  0
M  CHG  1   9  -1
M  END
>  <UniqueID>  (39) 
36

>  <SMILES>  (39) 
Cc1ccc(S(=O)(=O)[N-]Cc2ccc(S(=O)(=O)N3CCCC3)cc2)cc1

>  <Energy>  (39) 
46.40978961830305

>  <Genealogy>  (39) 
Cc1ccc(S(=O)(=O)[N-]Cc2ccc(S(=O)(=O)N3CCCC3)cc2)cc1 (protonated)
Cc1ccc(S(=O)(=O)[N-]Cc2ccc(S(=O)(=O)N3CCCC3)cc2)cc1 (3D coordinates assigned)
Cc1ccc(S(=O)(=O)[N-]Cc2ccc(S(=O)(=O)N3CCCC3)cc2)cc1 (nonaromatic ring conformer: 46.40978961830305 kcal/mol)

>  <smiles>  (39) 
Cc1ccc(S(=O)(=O)NCc2ccc(S(=O)(=O)N3CCCC3)cc2)cc1

>  <score_type>  (39) 
oracle

>  <origin>  (39) 
adgpu

>  <m_score__min__energy>  (39) 
-11.19

>  <m_primary>  (39) 
energy

$$$$
39:0
     RDKit          3D

 57 60  0  0  0  0  0  0  0  0999 V2000
    1.1440   16.1040  -27.1390 C   0  0  0  0  0  0  0  0  0  0  0  0
    0.7030   17.0810  -28.1820 C   0  0  0  0  0  0  0  0  0  0  0  0
    0.8650   16.8570  -29.5440 C   0  0  0  0  0  0  0  0  0  0  0  0
    0.3050   18.2120  -30.3590 S   0  0  0  0  0  0  0  0  0  0  0  0
   -0.1400   19.1070  -28.9980 C   0  0  0  0  0  0  0  0  0  0  0  0
   -0.7520   20.4630  -29.0190 C   0  0  0  0  0  0  0  0  0  0  0  0
   -1.6030   20.8700  -27.9780 C   0  0  0  0  0  0  0  0  0  0  0  0
   -2.1470   22.1560  -27.9680 C   0  0  0  0  0  0  0  0  0  0  0  0
   -1.8710   23.0540  -29.0070 C   0  0  0  0  0  0  0  0  0  0  0  0
   -2.5100   24.6940  -28.9530 S   0  0  0  0  0  0  0  0  0  0  0  0
   -3.2910   24.9260  -27.6950 O   0  0  0  0  0  0  0  0  0  0  0  0
   -1.3640   25.6650  -28.9690 O   0  0  0  0  0  0  0  0  0  0  0  0
   -3.4880   24.9850  -30.3580 N   0  0  0  0  0  0  0  0  0  0  0  0
   -4.6550   24.2460  -30.7470 C   0  0  0  0  0  0  0  0  0  0  0  0
   -4.5720   23.0100  -31.4130 C   0  0  0  0  0  0  0  0  0  0  0  0
   -5.7370   22.3230  -31.7910 C   0  0  0  0  0  0  0  0  0  0  0  0
   -5.6440   21.0600  -32.4740 N   0  0  0  0  0  0  0  0  0  0  0  0
   -4.6010   20.8200  -33.4700 C   0  0  0  0  0  0  0  0  0  0  0  0
   -3.8730   19.5010  -33.1500 C   0  0  1  0  0  0  0  0  0  0  0  0
   -2.9160   19.6670  -31.9560 C   0  0  0  0  0  0  0  0  0  0  0  0
   -4.8400   18.3980  -32.9420 N   0  0  0  0  0  0  0  0  0  0  0  0
   -5.8480   18.6880  -31.8990 C   0  0  2  0  0  0  0  0  0  0  0  0
   -6.8320   17.5200  -31.7640 C   0  0  0  0  0  0  0  0  0  0  0  0
   -6.6080   19.9860  -32.2220 C   0  0  0  0  0  0  0  0  0  0  0  0
   -6.9910   22.8810  -31.4960 C   0  0  0  0  0  0  0  0  0  0  0  0
   -7.0760   24.0930  -30.8120 C   0  0  0  0  0  0  0  0  0  0  0  0
   -5.9160   24.7680  -30.4280 C   0  0  0  0  0  0  0  0  0  0  0  0
   -6.0160   25.9510  -29.7720 F   0  0  0  0  0  0  0  0  0  0  0  0
   -1.0440   22.6520  -30.0590 C   0  0  0  0  0  0  0  0  0  0  0  0
   -0.4850   21.3720  -30.0670 C   0  0  0  0  0  0  0  0  0  0  0  0
    0.1560   18.3340  -27.8730 C   0  0  0  0  0  0  0  0  0  0  0  0
    0.9546   16.5237  -26.1400 H   0  0  0  0  0  0  0  0  0  0  0  0
    0.5823   15.1654  -27.2549 H   0  0  0  0  0  0  0  0  0  0  0  0
    2.2195   15.9044  -27.2549 H   0  0  0  0  0  0  0  0  0  0  0  0
    1.2858   15.9516  -30.0057 H   0  0  0  0  0  0  0  0  0  0  0  0
   -1.8428   20.1699  -27.1641 H   0  0  0  0  0  0  0  0  0  0  0  0
   -2.7977   22.4665  -27.1372 H   0  0  0  0  0  0  0  0  0  0  0  0
   -3.5862   22.5778  -31.6397 H   0  0  0  0  0  0  0  0  0  0  0  0
   -5.0572   20.7531  -34.4687 H   0  0  0  0  0  0  0  0  0  0  0  0
   -3.8789   21.6496  -33.4492 H   0  0  0  0  0  0  0  0  0  0  0  0
   -3.2551   19.2314  -34.0192 H   0  0  0  0  0  0  0  0  0  0  0  0
   -3.4807   19.5690  -31.0171 H   0  0  0  0  0  0  0  0  0  0  0  0
   -2.1382   18.8904  -31.9988 H   0  0  0  0  0  0  0  0  0  0  0  0
   -2.4452   20.6602  -31.9988 H   0  0  0  0  0  0  0  0  0  0  0  0
   -4.3150   17.5290  -32.6850 H   0  0  0  0  0  0  0  0  0  0  0  0
   -5.3280   18.2140  -33.8510 H   0  0  0  0  0  0  0  0  0  0  0  0
   -5.3222   18.8201  -30.9419 H   0  0  0  0  0  0  0  0  0  0  0  0
   -7.0085   17.3105  -30.6987 H   0  0  0  0  0  0  0  0  0  0  0  0
   -7.7836   17.7844  -32.2482 H   0  0  0  0  0  0  0  0  0  0  0  0
   -6.4099   16.6271  -32.2482 H   0  0  0  0  0  0  0  0  0  0  0  0
   -7.2315   19.8344  -33.1155 H   0  0  0  0  0  0  0  0  0  0  0  0
   -7.2505   20.2588  -31.3719 H   0  0  0  0  0  0  0  0  0  0  0  0
   -7.9093   22.3604  -31.8054 H   0  0  0  0  0  0  0  0  0  0  0  0
   -8.0617   24.5193  -30.5739 H   0  0  0  0  0  0  0  0  0  0  0  0
   -0.8321   23.3469  -30.8849 H   0  0  0  0  0  0  0  0  0  0  0  0
    0.1695   21.0687  -30.8974 H   0  0  0  0  0  0  0  0  0  0  0  0
   -0.0230   18.6759  -26.8429 H   0  0  0  0  0  0  0  0  0  0  0  0
  1  2  1  0
  2  3  2  0
  3  4  1  0
  4  5  1  0
  5  6  1  0
  6  7  2  0
  7  8  1  0
  8  9  2  0
  9 10  1  0
 10 11  2  0
 10 12  2  0
 10 13  1  0
 13 14  1  0
 14 15  2  0
 15 16  1  0
 16 17  1  0
 17 18  1  0
 18 19  1  0
 19 20  1  0
 19 21  1  0
 21 22  1  0
 22 23  1  0
 22 24  1  0
 16 25  2  0
 25 26  1  0
 26 27  2  0
 27 28  1  0
  9 29  1  0
 29 30  2  0
  5 31  2  0
 31  2  1  0
 30  6  1  0
 27 14  1  0
 24 17  1  0
  1 32  1  0
  1 33  1  0
  1 34  1  0
  3 35  1  0
  7 36  1  0
  8 37  1  0
 15 38  1  0
 18 39  1  0
 18 40  1  0
 19 41  1  6
 20 42  1  0
 20 43  1  0
 20 44  1  0
 21 45  1  0
 21 46  1  0
 22 47  1  1
 23 48  1  0
 23 49  1  0
 23 50  1  0
 24 51  1  0
 24 52  1  0
 25 53  1  0
 26 54  1  0
 29 55  1  0
 30 56  1  0
 31 57  1  0
M  CHG  2  13  -1  21   1
M  END
>  <UniqueID>  (40) 
37

>  <SMILES>  (40) 
Cc1csc(-c2ccc(S(=O)(=O)[N-]c3cc(N4C[C@@H](C)[NH2+][C@H](C)C4)ccc3F)cc2)c1

>  <Energy>  (40) 
94.10188485988797

>  <Genealogy>  (40) 
Cc1csc(-c2ccc(S(=O)(=O)[N-]c3cc(N4CC(C)[NH2+]C(C)C4)ccc3F)cc2)c1 (protonated)
Cc1csc(-c2ccc(S(=O)(=O)[N-]c3cc(N4C[C@@H](C)[NH2+][C@H](C)C4)ccc3F)cc2)c1 (chirality)
Cc1csc(-c2ccc(S(=O)(=O)[N-]c3cc(N4C[C@@H](C)[NH2+][C@H](C)C4)ccc3F)cc2)c1 (3D coordinates assigned)
Cc1csc(-c2ccc(S(=O)(=O)[N-]c3cc(N4C[C@@H](C)[NH2+][C@H](C)C4)ccc3F)cc2)c1 (nonaromatic ring conformer: 94.10188485988797 kcal/mol)

>  <smiles>  (40) 
Cc1csc(-c2ccc(S(=O)(=O)Nc3cc(N4CC(C)NC(C)C4)ccc3F)cc2)c1

>  <score_type>  (40) 
oracle

>  <origin>  (40) 
adgpu

>  <m_score__min__energy>  (40) 
-12.050000000000001

>  <m_primary>  (40) 
energy

$$$$
40:0
     RDKit          3D

 54 57  0  0  0  0  0  0  0  0999 V2000
   -6.2010   15.1910  -34.2030 C   0  0  0  0  0  0  0  0  0  0  0  0
   -5.5060   16.4120  -33.7660 N   0  0  0  0  0  0  0  0  0  0  0  0
   -5.4760   16.5180  -32.2860 C   0  0  0  0  0  0  0  0  0  0  0  0
   -6.4900   17.5420  -31.7540 C   0  0  0  0  0  0  0  0  0  0  0  0
   -6.2150   18.8910  -32.2890 N   0  0  0  0  0  0  0  0  0  0  0  0
   -7.6360   19.8940  -32.1230 S   0  0  0  0  0  0  0  0  0  0  0  0
   -8.6150   19.2440  -31.1840 O   0  0  0  0  0  0  0  0  0  0  0  0
   -8.2980   20.0640  -33.4630 O   0  0  0  0  0  0  0  0  0  0  0  0
   -7.1750   21.4850  -31.5100 C   0  0  0  0  0  0  0  0  0  0  0  0
   -5.9410   21.6620  -30.8680 C   0  0  0  0  0  0  0  0  0  0  0  0
   -5.5490   22.9330  -30.4020 C   0  0  0  0  0  0  0  0  0  0  0  0
   -4.2460   23.1420  -29.7220 C   0  0  0  0  0  0  0  0  0  0  0  0
   -3.0730   22.4950  -30.1550 C   0  0  0  0  0  0  0  0  0  0  0  0
   -1.8700   22.7310  -29.4890 C   0  0  0  0  0  0  0  0  0  0  0  0
   -1.8330   23.6040  -28.3980 C   0  0  0  0  0  0  0  0  0  0  0  0
   -0.3150   23.9300  -27.5720 S   0  0  0  0  0  0  0  0  0  0  0  0
    0.6870   24.4810  -28.5500 O   0  0  0  0  0  0  0  0  0  0  0  0
    0.2450   22.6580  -26.9970 O   0  0  0  0  0  0  0  0  0  0  0  0
   -0.6000   25.0910  -26.2820 C   0  0  0  0  0  0  0  0  0  0  0  0
   -0.4860   24.6950  -24.9410 C   0  0  0  0  0  0  0  0  0  0  0  0
   -0.7320   25.6130  -23.9140 C   0  0  0  0  0  0  0  0  0  0  0  0
   -1.1000   26.9260  -24.2230 C   0  0  0  0  0  0  0  0  0  0  0  0
   -1.2240   27.3230  -25.5580 C   0  0  0  0  0  0  0  0  0  0  0  0
   -0.9780   26.4070  -26.5860 C   0  0  0  0  0  0  0  0  0  0  0  0
   -3.0110   24.2440  -28.0030 C   0  0  0  0  0  0  0  0  0  0  0  0
   -4.1740   24.0010  -28.6660 N   0  0  0  0  0  0  0  0  0  0  0  0
   -6.4280   24.0180  -30.5740 C   0  0  0  0  0  0  0  0  0  0  0  0
   -7.6540   23.8420  -31.2190 C   0  0  0  0  0  0  0  0  0  0  0  0
   -8.0260   22.5830  -31.6930 C   0  0  0  0  0  0  0  0  0  0  0  0
   -9.2140   22.4390  -32.3330 F   0  0  0  0  0  0  0  0  0  0  0  0
   -5.7260   18.8910  -33.6890 C   0  0  0  0  0  0  0  0  0  0  0  0
   -6.0860   17.5990  -34.4370 C   0  0  0  0  0  0  0  0  0  0  0  0
   -6.5266   14.6190  -33.3216 H   0  0  0  0  0  0  0  0  0  0  0  0
   -7.0786   15.4649  -34.8070 H   0  0  0  0  0  0  0  0  0  0  0  0
   -5.5175   14.5763  -34.8070 H   0  0  0  0  0  0  0  0  0  0  0  0
   -5.7095   15.5328  -31.8560 H   0  0  0  0  0  0  0  0  0  0  0  0
   -4.4711   16.8563  -31.9932 H   0  0  0  0  0  0  0  0  0  0  0  0
   -7.5023   17.2353  -32.0561 H   0  0  0  0  0  0  0  0  0  0  0  0
   -6.4075   17.5778  -30.6577 H   0  0  0  0  0  0  0  0  0  0  0  0
   -5.2722   20.8002  -30.7267 H   0  0  0  0  0  0  0  0  0  0  0  0
   -3.1048   21.8076  -31.0132 H   0  0  0  0  0  0  0  0  0  0  0  0
   -0.9496   22.2295  -29.8228 H   0  0  0  0  0  0  0  0  0  0  0  0
   -0.2026   23.6607  -24.6964 H   0  0  0  0  0  0  0  0  0  0  0  0
   -0.6358   25.3016  -22.8634 H   0  0  0  0  0  0  0  0  0  0  0  0
   -1.2922   27.6474  -23.4151 H   0  0  0  0  0  0  0  0  0  0  0  0
   -1.5151   28.3559  -25.7998 H   0  0  0  0  0  0  0  0  0  0  0  0
   -1.0813   26.7195  -27.6356 H   0  0  0  0  0  0  0  0  0  0  0  0
   -2.9979   24.9449  -27.1553 H   0  0  0  0  0  0  0  0  0  0  0  0
   -6.1473   25.0127  -30.1975 H   0  0  0  0  0  0  0  0  0  0  0  0
   -8.3296   24.6995  -31.3541 H   0  0  0  0  0  0  0  0  0  0  0  0
   -6.1757   19.7431  -34.2198 H   0  0  0  0  0  0  0  0  0  0  0  0
   -4.6290   18.9662  -33.6601 H   0  0  0  0  0  0  0  0  0  0  0  0
   -7.1807   17.4950  -34.4671 H   0  0  0  0  0  0  0  0  0  0  0  0
   -5.6740   17.6596  -35.4551 H   0  0  0  0  0  0  0  0  0  0  0  0
  1  2  1  0
  2  3  1  0
  3  4  1  0
  4  5  1  0
  5  6  1  0
  6  7  2  0
  6  8  2  0
  6  9  1  0
  9 10  2  0
 10 11  1  0
 11 12  1  0
 12 13  2  0
 13 14  1  0
 14 15  2  0
 15 16  1  0
 16 17  2  0
 16 18  2  0
 16 19  1  0
 19 20  2  0
 20 21  1  0
 21 22  2  0
 22 23  1  0
 23 24  2  0
 15 25  1  0
 25 26  2  0
 11 27  2  0
 27 28  1  0
 28 29  2  0
 29 30  1  0
  5 31  1  0
 31 32  1  0
 32  2  1  0
 29  9  1  0
 26 12  1  0
 24 19  1  0
  1 33  1  0
  1 34  1  0
  1 35  1  0
  3 36  1  0
  3 37  1  0
  4 38  1  0
  4 39  1  0
 10 40  1  0
 13 41  1  0
 14 42  1  0
 20 43  1  0
 21 44  1  0
 22 45  1  0
 23 46  1  0
 24 47  1  0
 25 48  1  0
 27 49  1  0
 28 50  1  0
 31 51  1  0
 31 52  1  0
 32 53  1  0
 32 54  1  0
M  END
>  <UniqueID>  (41) 
38

>  <SMILES>  (41) 
CN1CCN(S(=O)(=O)c2cc(-c3ccc(S(=O)(=O)c4ccccc4)cn3)ccc2F)CC1

>  <Energy>  (41) 
74.49674370853694

>  <Genealogy>  (41) 
CN1CCN(S(=O)(=O)c2cc(-c3ccc(S(=O)(=O)c4ccccc4)cn3)ccc2F)CC1 (3D coordinates assigned)
CN1CCN(S(=O)(=O)c2cc(-c3ccc(S(=O)(=O)c4ccccc4)cn3)ccc2F)CC1 (nonaromatic ring conformer: 74.49674370853694 kcal/mol)

>  <smiles>  (41) 
CN1CCN(S(=O)(=O)c2cc(-c3ccc(S(=O)(=O)c4ccccc4)cn3)ccc2F)CC1

>  <score_type>  (41) 
oracle

>  <origin>  (41) 
adgpu

>  <m_score__min__energy>  (41) 
-10.16

>  <m_primary>  (41) 
energy

$$$$
41:0
     RDKit          3D

 45 47  0  0  0  0  0  0  0  0999 V2000
   -4.2090   24.5470  -28.6740 O   0  0  0  0  0  0  0  0  0  0  0  0
   -3.2860   24.5620  -29.5330 C   0  0  0  0  0  0  0  0  0  0  0  0
   -3.5120   24.0410  -30.8490 N   0  0  0  0  0  0  0  0  0  0  0  0
   -3.3500   22.6780  -31.2640 C   0  0  0  0  0  0  0  0  0  0  0  0
   -2.0920   22.0490  -31.2850 C   0  0  0  0  0  0  0  0  0  0  0  0
   -1.9760   20.7260  -31.7180 C   0  0  0  0  0  0  0  0  0  0  0  0
   -3.1060   20.0230  -32.1410 C   0  0  0  0  0  0  0  0  0  0  0  0
   -4.3620   20.6430  -32.1390 C   0  0  0  0  0  0  0  0  0  0  0  0
   -5.7930   19.7530  -32.6650 S   0  0  0  0  0  0  0  0  0  0  0  0
   -5.3980   18.3440  -33.0100 O   0  0  0  0  0  0  0  0  0  0  0  0
   -6.3470   20.3960  -33.9060 O   0  0  0  0  0  0  0  0  0  0  0  0
   -7.0330   19.7140  -31.4280 N   0  0  0  0  0  0  0  0  0  0  0  0
   -7.8930   20.9000  -31.5030 C   0  0  0  0  0  0  0  0  0  0  0  0
   -9.1510   20.5290  -32.2730 C   0  0  0  0  0  0  0  0  0  0  0  0
   -9.1830   19.0150  -32.3050 C   0  0  0  0  0  0  0  0  0  0  0  0
   -7.9170   18.5560  -31.5980 C   0  0  0  0  0  0  0  0  0  0  0  0
   -4.4750   21.9740  -31.7140 C   0  0  0  0  0  0  0  0  0  0  0  0
   -2.0280   25.1870  -29.2370 N   0  0  0  0  0  0  0  0  0  0  0  0
   -1.6080   25.5710  -27.9160 C   0  0  0  0  0  0  0  0  0  0  0  0
   -1.9890   24.7850  -26.8220 C   0  0  0  0  0  0  0  0  0  0  0  0
   -1.6140   25.1460  -25.5280 C   0  0  0  0  0  0  0  0  0  0  0  0
   -0.8610   26.3020  -25.3030 C   0  0  0  0  0  0  0  0  0  0  0  0
   -0.4260   26.6960  -23.6420 Cl  0  0  0  0  0  0  0  0  0  0  0  0
   -0.4820   27.1220  -26.3900 C   0  0  0  0  0  0  0  0  0  0  0  0
    0.3150   28.3890  -26.1610 C   0  0  0  0  0  0  0  0  0  0  0  0
    0.5260   29.0290  -27.3670 F   0  0  0  0  0  0  0  0  0  0  0  0
   -0.3830   29.2300  -25.3150 F   0  0  0  0  0  0  0  0  0  0  0  0
    1.5470   28.1260  -25.5870 F   0  0  0  0  0  0  0  0  0  0  0  0
   -0.8750   26.7500  -27.6930 C   0  0  0  0  0  0  0  0  0  0  0  0
   -1.1974   22.6003  -30.9597 H   0  0  0  0  0  0  0  0  0  0  0  0
   -0.9911   20.2362  -31.7258 H   0  0  0  0  0  0  0  0  0  0  0  0
   -3.0095   18.9799  -32.4766 H   0  0  0  0  0  0  0  0  0  0  0  0
   -8.1614   21.2297  -30.4885 H   0  0  0  0  0  0  0  0  0  0  0  0
   -7.3649   21.7199  -32.0118 H   0  0  0  0  0  0  0  0  0  0  0  0
  -10.0427   20.9204  -31.7615 H   0  0  0  0  0  0  0  0  0  0  0  0
   -9.1460   20.9556  -33.2869 H   0  0  0  0  0  0  0  0  0  0  0  0
  -10.0728   18.6399  -31.7782 H   0  0  0  0  0  0  0  0  0  0  0  0
   -9.2306   18.6339  -33.3358 H   0  0  0  0  0  0  0  0  0  0  0  0
   -8.1729   18.1368  -30.6137 H   0  0  0  0  0  0  0  0  0  0  0  0
   -7.4125   17.7810  -32.1937 H   0  0  0  0  0  0  0  0  0  0  0  0
   -5.4563   22.4707  -31.7339 H   0  0  0  0  0  0  0  0  0  0  0  0
   -1.4200   25.4460  -30.0450 H   0  0  0  0  0  0  0  0  0  0  0  0
   -2.5880   23.8767  -26.9840 H   0  0  0  0  0  0  0  0  0  0  0  0
   -1.9133   24.5158  -24.6775 H   0  0  0  0  0  0  0  0  0  0  0  0
   -0.6045   27.3905  -28.5454 H   0  0  0  0  0  0  0  0  0  0  0  0
  1  2  2  0
  2  3  1  0
  3  4  1  0
  4  5  2  0
  5  6  1  0
  6  7  2  0
  7  8  1  0
  8  9  1  0
  9 10  2  0
  9 11  2  0
  9 12  1  0
 12 13  1  0
 13 14  1  0
 14 15  1  0
 15 16  1  0
  8 17  2  0
  2 18  1  0
 18 19  1  0
 19 20  2  0
 20 21  1  0
 21 22  2  0
 22 23  1  0
 22 24  1  0
 24 25  1  0
 25 26  1  0
 25 27  1  0
 25 28  1  0
 24 29  2  0
 17  4  1  0
 29 19  1  0
 16 12  1  0
  5 30  1  0
  6 31  1  0
  7 32  1  0
 13 33  1  0
 13 34  1  0
 14 35  1  0
 14 36  1  0
 15 37  1  0
 15 38  1  0
 16 39  1  0
 16 40  1  0
 17 41  1  0
 18 42  1  0
 20 43  1  0
 21 44  1  0
 29 45  1  0
M  CHG  1   3  -1
M  END
>  <UniqueID>  (42) 
39

>  <SMILES>  (42) 
O=C([N-]c1cccc(S(=O)(=O)N2CCCC2)c1)Nc1ccc(Cl)c(C(F)(F)F)c1

>  <Energy>  (42) 
55.1660573519813

>  <Genealogy>  (42) 
O=C([N-]c1cccc(S(=O)(=O)N2CCCC2)c1)Nc1ccc(Cl)c(C(F)(F)F)c1 (protonated)
O=C([N-]c1cccc(S(=O)(=O)N2CCCC2)c1)Nc1ccc(Cl)c(C(F)(F)F)c1 (3D coordinates assigned)
O=C([N-]c1cccc(S(=O)(=O)N2CCCC2)c1)Nc1ccc(Cl)c(C(F)(F)F)c1 (nonaromatic ring conformer: 55.1660573519813 kcal/mol)

>  <smiles>  (42) 
O=C(Nc1cccc(S(=O)(=O)N2CCCC2)c1)Nc1ccc(Cl)c(C(F)(F)F)c1

>  <score_type>  (42) 
oracle

>  <origin>  (42) 
adgpu

>  <m_score__min__energy>  (42) 
-10.74

>  <m_primary>  (42) 
energy

$$$$
42:0
     RDKit          3D

 39 41  0  0  0  0  0  0  0  0999 V2000
   -3.5090   24.7360  -30.8080 N   0  0  0  0  0  0  0  0  0  0  0  0
   -5.0080   25.0580  -30.0070 S   0  0  0  0  0  0  0  0  0  0  0  0
   -4.8330   24.9150  -28.5220 O   0  0  0  0  0  0  0  0  0  0  0  0
   -5.4250   26.4690  -30.3190 O   0  0  0  0  0  0  0  0  0  0  0  0
   -6.2380   23.9270  -30.5690 C   0  0  0  0  0  0  0  0  0  0  0  0
   -6.6050   23.8840  -31.9220 C   0  0  0  0  0  0  0  0  0  0  0  0
   -7.5780   22.9800  -32.3610 C   0  0  0  0  0  0  0  0  0  0  0  0
   -8.1950   22.1040  -31.4490 C   0  0  0  0  0  0  0  0  0  0  0  0
   -9.1830   21.1480  -31.8570 N   0  0  0  0  0  0  0  0  0  0  0  0
   -8.8940   19.4560  -32.0990 S   0  0  0  0  0  0  0  0  0  0  0  0
   -9.7810   18.9560  -33.2030 O   0  0  0  0  0  0  0  0  0  0  0  0
   -9.2270   18.7120  -30.8350 O   0  0  0  0  0  0  0  0  0  0  0  0
   -7.2140   19.2030  -32.5600 C   0  0  0  0  0  0  0  0  0  0  0  0
   -6.5820   20.0590  -33.4740 C   0  0  0  0  0  0  0  0  0  0  0  0
   -5.2500   19.8370  -33.8390 C   0  0  0  0  0  0  0  0  0  0  0  0
   -4.5290   18.7710  -33.2800 C   0  0  0  0  0  0  0  0  0  0  0  0
   -3.1690   18.5480  -33.6820 N   0  0  0  0  0  0  0  0  0  0  0  0
   -2.2140   19.6020  -33.8490 C   0  0  0  0  0  0  0  0  0  0  0  0
   -0.9720   19.6840  -34.4520 C   0  0  0  0  0  0  0  0  0  0  0  0
   -0.1410   18.7900  -35.1180 O   0  0  0  0  0  0  0  0  0  0  0  0
   -0.8940   21.0210  -34.1210 C   0  0  0  0  0  0  0  0  0  0  0  0
   -0.0420   21.9330  -34.2920 O   0  0  0  0  0  0  0  0  0  0  0  0
   -2.1430   20.9510  -33.5380 C   0  0  0  0  0  0  0  0  0  0  0  0
   -2.9020   21.7800  -32.9680 O   0  0  0  0  0  0  0  0  0  0  0  0
   -5.1740   17.9010  -32.3820 C   0  0  0  0  0  0  0  0  0  0  0  0
   -6.5060   18.1220  -32.0200 C   0  0  0  0  0  0  0  0  0  0  0  0
   -7.8260   22.1530  -30.0980 C   0  0  0  0  0  0  0  0  0  0  0  0
   -6.8590   23.0620  -29.6590 C   0  0  0  0  0  0  0  0  0  0  0  0
   -3.1730   25.6400  -31.2070 H   0  0  0  0  0  0  0  0  0  0  0  0
   -6.1255   24.5643  -32.6412 H   0  0  0  0  0  0  0  0  0  0  0  0
   -7.8619   22.9538  -33.4234 H   0  0  0  0  0  0  0  0  0  0  0  0
   -7.1350   20.9067  -33.9047 H   0  0  0  0  0  0  0  0  0  0  0  0
   -4.7649   20.5021  -34.5686 H   0  0  0  0  0  0  0  0  0  0  0  0
   -2.8770   17.5800  -33.9530 H   0  0  0  0  0  0  0  0  0  0  0  0
    0.8250   19.0310  -35.3060 H   0  0  0  0  0  0  0  0  0  0  0  0
   -4.6278   17.0431  -31.9629 H   0  0  0  0  0  0  0  0  0  0  0  0
   -7.0000   17.4442  -31.3082 H   0  0  0  0  0  0  0  0  0  0  0  0
   -8.3009   21.4709  -29.3774 H   0  0  0  0  0  0  0  0  0  0  0  0
   -6.5846   23.0981  -28.5944 H   0  0  0  0  0  0  0  0  0  0  0  0
  1  2  1  0
  2  3  2  0
  2  4  2  0
  2  5  1  0
  5  6  2  0
  6  7  1  0
  7  8  2  0
  8  9  1  0
  9 10  1  0
 10 11  2  0
 10 12  2  0
 10 13  1  0
 13 14  2  0
 14 15  1  0
 15 16  2  0
 16 17  1  0
 17 18  1  0
 18 19  2  0
 19 20  1  0
 19 21  1  0
 21 22  2  0
 21 23  1  0
 23 24  2  0
 16 25  1  0
 25 26  2  0
  8 27  1  0
 27 28  2  0
 28  5  1  0
 26 13  1  0
 23 18  1  0
  1 29  1  0
  6 30  1  0
  7 31  1  0
 14 32  1  0
 15 33  1  0
 17 34  1  0
 20 35  1  0
 25 36  1  0
 26 37  1  0
 27 38  1  0
 28 39  1  0
M  CHG  2   1  -1   9  -1
M  END
>  <UniqueID>  (43) 
40

>  <SMILES>  (43) 
[NH-]S(=O)(=O)c1ccc([N-]S(=O)(=O)c2ccc(Nc3c(O)c(=O)c3=O)cc2)cc1

>  <Energy>  (43) 
38.73470995716094

>  <Genealogy>  (43) 
[NH-]S(=O)(=O)c1ccc([N-]S(=O)(=O)c2ccc(Nc3c(O)c(=O)c3=O)cc2)cc1 (protonated)
[NH-]S(=O)(=O)c1ccc([N-]S(=O)(=O)c2ccc(Nc3c(O)c(=O)c3=O)cc2)cc1 (3D coordinates assigned)
[NH-]S(=O)(=O)c1ccc([N-]S(=O)(=O)c2ccc(Nc3c(O)c(=O)c3=O)cc2)cc1 (optimized conformer: 38.73470995716094 kcal/mol)

>  <smiles>  (43) 
NS(=O)(=O)c1ccc(NS(=O)(=O)c2ccc(Nc3c(O)c(=O)c3=O)cc2)cc1

>  <score_type>  (43) 
oracle

>  <origin>  (43) 
adgpu

>  <m_score__min__energy>  (43) 
-10.779999999999999

>  <m_primary>  (43) 
energy

$$$$
43:0
     RDKit          3D

 42 44  0  0  0  0  0  0  0  0999 V2000
   -6.4920   25.5800  -29.3800 C   0  0  0  0  0  0  0  0  0  0  0  0
   -6.9080   24.5520  -30.4310 C   0  0  0  0  0  0  0  0  0  0  0  0
   -6.5670   23.1130  -30.0210 C   0  0  0  0  0  0  0  0  0  0  0  0
   -5.4660   22.5260  -30.8760 C   0  0  0  0  0  0  0  0  0  0  0  0
   -4.1840   23.0370  -31.0890 C   0  0  0  0  0  0  0  0  0  0  0  0
   -3.4990   24.1970  -30.4830 C   0  0  0  0  0  0  0  0  0  0  0  0
   -3.9000   25.3590  -30.7640 O   0  0  0  0  0  0  0  0  0  0  0  0
   -2.4300   24.0150  -29.5480 N   0  0  0  0  0  0  0  0  0  0  0  0
   -2.1950   24.7660  -28.3490 C   0  0  0  0  0  0  0  0  0  0  0  0
   -3.0500   24.5680  -27.2560 C   0  0  0  0  0  0  0  0  0  0  0  0
   -2.8450   25.2640  -26.0610 C   0  0  0  0  0  0  0  0  0  0  0  0
   -1.7730   26.1530  -25.9400 C   0  0  0  0  0  0  0  0  0  0  0  0
   -1.5820   26.8400  -24.7430 O   0  0  0  0  0  0  0  0  0  0  0  0
   -0.9000   26.3380  -27.0190 C   0  0  0  0  0  0  0  0  0  0  0  0
   -1.1030   25.6440  -28.2170 C   0  0  0  0  0  0  0  0  0  0  0  0
   -3.6430   22.2280  -32.0730 C   0  0  0  0  0  0  0  0  0  0  0  0
   -4.5410   21.2990  -32.4420 N   0  0  0  0  0  0  0  0  0  0  0  0
   -5.6330   21.4760  -31.7160 N   0  0  0  0  0  0  0  0  0  0  0  0
   -6.8090   20.6730  -31.8860 C   0  0  0  0  0  0  0  0  0  0  0  0
   -8.0440   21.2870  -32.1350 C   0  0  0  0  0  0  0  0  0  0  0  0
   -9.1920   20.5120  -32.3190 C   0  0  0  0  0  0  0  0  0  0  0  0
   -9.1100   19.1170  -32.2690 C   0  0  0  0  0  0  0  0  0  0  0  0
   -7.8770   18.4970  -32.0420 C   0  0  0  0  0  0  0  0  0  0  0  0
   -6.7270   19.2710  -31.8590 C   0  0  0  0  0  0  0  0  0  0  0  0
   -6.6598   25.1654  -28.3750 H   0  0  0  0  0  0  0  0  0  0  0  0
   -5.4258   25.8204  -29.5041 H   0  0  0  0  0  0  0  0  0  0  0  0
   -7.0909   26.4943  -29.5041 H   0  0  0  0  0  0  0  0  0  0  0  0
   -7.9947   24.6259  -30.5844 H   0  0  0  0  0  0  0  0  0  0  0  0
   -6.3504   24.7754  -31.3525 H   0  0  0  0  0  0  0  0  0  0  0  0
   -6.2403   23.1110  -28.9706 H   0  0  0  0  0  0  0  0  0  0  0  0
   -7.4685   22.4979  -30.1585 H   0  0  0  0  0  0  0  0  0  0  0  0
   -3.8879   23.8602  -27.3391 H   0  0  0  0  0  0  0  0  0  0  0  0
   -3.5293   25.1116  -25.2134 H   0  0  0  0  0  0  0  0  0  0  0  0
   -2.3670   27.1600  -24.1860 H   0  0  0  0  0  0  0  0  0  0  0  0
   -0.0514   27.0315  -26.9245 H   0  0  0  0  0  0  0  0  0  0  0  0
   -0.4075   25.7850  -29.0575 H   0  0  0  0  0  0  0  0  0  0  0  0
   -2.6303   22.3301  -32.4902 H   0  0  0  0  0  0  0  0  0  0  0  0
   -8.1098   22.3839  -32.1858 H   0  0  0  0  0  0  0  0  0  0  0  0
  -10.1607   20.9995  -32.5033 H   0  0  0  0  0  0  0  0  0  0  0  0
  -10.0150   18.5074  -32.4082 H   0  0  0  0  0  0  0  0  0  0  0  0
   -7.8119   17.3995  -32.0074 H   0  0  0  0  0  0  0  0  0  0  0  0
   -5.7562   18.7810  -31.6936 H   0  0  0  0  0  0  0  0  0  0  0  0
  1  2  1  0
  2  3  1  0
  3  4  1  0
  4  5  2  0
  5  6  1  0
  6  7  2  0
  6  8  1  0
  8  9  1  0
  9 10  2  0
 10 11  1  0
 11 12  2  0
 12 13  1  0
 12 14  1  0
 14 15  2  0
  5 16  1  0
 16 17  2  0
 17 18  1  0
 18 19  1  0
 19 20  2  0
 20 21  1  0
 21 22  2  0
 22 23  1  0
 23 24  2  0
 18  4  1  0
 24 19  1  0
 15  9  1  0
  1 25  1  0
  1 26  1  0
  1 27  1  0
  2 28  1  0
  2 29  1  0
  3 30  1  0
  3 31  1  0
 10 32  1  0
 11 33  1  0
 13 34  1  0
 14 35  1  0
 15 36  1  0
 16 37  1  0
 20 38  1  0
 21 39  1  0
 22 40  1  0
 23 41  1  0
 24 42  1  0
M  CHG  1   8  -1
M  END
>  <UniqueID>  (44) 
41

>  <SMILES>  (44) 
CCCc1c(C(=O)[N-]c2ccc(O)cc2)cnn1-c1ccccc1

>  <Energy>  (44) 
79.76269622930738

>  <Genealogy>  (44) 
CCCc1c(C(=O)[N-]c2ccc(O)cc2)cnn1-c1ccccc1 (protonated)
CCCc1c(C(=O)[N-]c2ccc(O)cc2)cnn1-c1ccccc1 (3D coordinates assigned)
CCCc1c(C(=O)[N-]c2ccc(O)cc2)cnn1-c1ccccc1 (optimized conformer: 79.76269622930738 kcal/mol)

>  <smiles>  (44) 
CCCc1c(C(=O)Nc2ccc(O)cc2)cnn1-c1ccccc1

>  <score_type>  (44) 
oracle

>  <origin>  (44) 
adgpu

>  <m_score__min__energy>  (44) 
-9.9700000000000006

>  <m_primary>  (44) 
energy

$$$$
44:0
     RDKit          3D

 61 64  0  0  0  0  0  0  0  0999 V2000
   -4.1130   22.1730  -28.5880 O   0  0  0  0  0  0  0  0  0  0  0  0
   -3.4030   22.4210  -29.6000 C   0  0  0  0  0  0  0  0  0  0  0  0
   -1.9920   22.6150  -29.4600 N   0  0  0  0  0  0  0  0  0  0  0  0
   -1.3680   23.7440  -28.8330 C   0  0  0  0  0  0  0  0  0  0  0  0
   -0.1670   23.5460  -28.1410 C   0  0  0  0  0  0  0  0  0  0  0  0
    0.4780   24.6170  -27.5070 C   0  0  0  0  0  0  0  0  0  0  0  0
    1.9680   24.3490  -26.6010 S   0  0  0  0  0  0  0  0  0  0  0  0
    2.9220   25.4720  -26.8970 O   0  0  0  0  0  0  0  0  0  0  0  0
    2.6060   23.0700  -27.0670 O   0  0  0  0  0  0  0  0  0  0  0  0
    1.6980   24.2640  -24.8720 N   0  0  0  0  0  0  0  0  0  0  0  0
    0.5230   23.4440  -24.5220 C   0  0  0  0  0  0  0  0  0  0  0  0
   -0.8120   24.2180  -24.6290 C   0  0  0  0  0  0  0  0  0  0  0  0
   -0.6400   25.6080  -24.8230 O   0  0  0  0  0  0  0  0  0  0  0  0
    0.2930   26.1050  -23.8920 C   0  0  0  0  0  0  0  0  0  0  0  0
    1.7040   25.5940  -24.2240 C   0  0  0  0  0  0  0  0  0  0  0  0
   -0.0680   25.9040  -27.5980 C   0  0  0  0  0  0  0  0  0  0  0  0
   -1.2470   26.1170  -28.3160 C   0  0  0  0  0  0  0  0  0  0  0  0
   -1.8940   25.0480  -28.9460 C   0  0  0  0  0  0  0  0  0  0  0  0
   -3.0300   25.2990  -29.7060 O   0  0  0  0  0  0  0  0  0  0  0  0
   -3.9820   22.4190  -30.9120 N   0  0  0  0  0  0  0  0  0  0  0  0
   -5.3960   22.4500  -31.1740 C   0  0  0  0  0  0  0  0  0  0  0  0
   -6.1140   23.6600  -31.1870 C   0  0  0  0  0  0  0  0  0  0  0  0
   -7.4830   23.6650  -31.4700 C   0  0  0  0  0  0  0  0  0  0  0  0
   -8.1440   22.4690  -31.7580 C   0  0  0  0  0  0  0  0  0  0  0  0
   -7.4370   21.2590  -31.7740 C   0  0  0  0  0  0  0  0  0  0  0  0
   -8.2630   19.7490  -32.1680 S   0  0  0  0  0  0  0  0  0  0  0  0
   -8.7450   19.1080  -30.8960 O   0  0  0  0  0  0  0  0  0  0  0  0
   -9.4630   20.0460  -33.0230 O   0  0  0  0  0  0  0  0  0  0  0  0
   -7.2080   18.6400  -33.0090 N   0  0  0  0  0  0  0  0  0  0  0  0
   -6.3470   19.3770  -33.9580 C   0  0  0  0  0  0  0  0  0  0  0  0
   -5.2000   18.5030  -34.5150 C   0  0  0  0  0  0  0  0  0  0  0  0
   -5.4510   17.0130  -34.2660 C   0  0  0  0  0  0  0  0  0  0  0  0
   -5.6540   16.7310  -32.7680 C   0  0  0  0  0  0  0  0  0  0  0  0
   -6.3990   17.8730  -32.0490 C   0  0  0  0  0  0  0  0  0  0  0  0
   -6.0640   21.2570  -31.4860 C   0  0  0  0  0  0  0  0  0  0  0  0
    0.2749   22.5397  -28.0944 H   0  0  0  0  0  0  0  0  0  0  0  0
    0.4829   22.5813  -25.2033 H   0  0  0  0  0  0  0  0  0  0  0  0
    0.6396   23.1356  -23.4726 H   0  0  0  0  0  0  0  0  0  0  0  0
   -1.3818   23.8149  -25.4792 H   0  0  0  0  0  0  0  0  0  0  0  0
   -1.3419   24.0860  -23.6741 H   0  0  0  0  0  0  0  0  0  0  0  0
    0.2883   27.2045  -23.9256 H   0  0  0  0  0  0  0  0  0  0  0  0
    0.0144   25.7568  -22.8864 H   0  0  0  0  0  0  0  0  0  0  0  0
    2.1867   26.3127  -24.9026 H   0  0  0  0  0  0  0  0  0  0  0  0
    2.2509   25.4957  -23.2747 H   0  0  0  0  0  0  0  0  0  0  0  0
    0.4330   26.7488  -27.1028 H   0  0  0  0  0  0  0  0  0  0  0  0
   -1.6691   27.1303  -28.3866 H   0  0  0  0  0  0  0  0  0  0  0  0
   -3.3320   22.3210  -31.7250 H   0  0  0  0  0  0  0  0  0  0  0  0
   -5.5957   24.6064  -30.9735 H   0  0  0  0  0  0  0  0  0  0  0  0
   -8.0408   24.6131  -31.4658 H   0  0  0  0  0  0  0  0  0  0  0  0
   -9.2228   22.4767  -31.9729 H   0  0  0  0  0  0  0  0  0  0  0  0
   -6.9653   19.7257  -34.7983 H   0  0  0  0  0  0  0  0  0  0  0  0
   -5.8932   20.2189  -33.4145 H   0  0  0  0  0  0  0  0  0  0  0  0
   -5.1153   18.6741  -35.5983 H   0  0  0  0  0  0  0  0  0  0  0  0
   -4.2713   18.7854  -33.9975 H   0  0  0  0  0  0  0  0  0  0  0  0
   -6.3521   16.7033  -34.8157 H   0  0  0  0  0  0  0  0  0  0  0  0
   -4.5740   16.4471  -34.6134 H   0  0  0  0  0  0  0  0  0  0  0  0
   -6.2379   15.8051  -32.6591 H   0  0  0  0  0  0  0  0  0  0  0  0
   -4.6595   16.6379  -32.3072 H   0  0  0  0  0  0  0  0  0  0  0  0
   -7.0580   17.4473  -31.2780 H   0  0  0  0  0  0  0  0  0  0  0  0
   -5.6615   18.5450  -31.5858 H   0  0  0  0  0  0  0  0  0  0  0  0
   -5.5054   20.3096  -31.5051 H   0  0  0  0  0  0  0  0  0  0  0  0
  1  2  2  0
  2  3  1  0
  3  4  1  0
  4  5  2  0
  5  6  1  0
  6  7  1  0
  7  8  2  0
  7  9  2  0
  7 10  1  0
 10 11  1  0
 11 12  1  0
 12 13  1  0
 13 14  1  0
 14 15  1  0
  6 16  2  0
 16 17  1  0
 17 18  2  0
 18 19  1  0
  2 20  1  0
 20 21  1  0
 21 22  2  0
 22 23  1  0
 23 24  2  0
 24 25  1  0
 25 26  1  0
 26 27  2  0
 26 28  2  0
 26 29  1  0
 29 30  1  0
 30 31  1  0
 31 32  1  0
 32 33  1  0
 33 34  1  0
 25 35  2  0
 18  4  1  0
 35 21  1  0
 15 10  1  0
 34 29  1  0
  5 36  1  0
 11 37  1  0
 11 38  1  0
 12 39  1  0
 12 40  1  0
 14 41  1  0
 14 42  1  0
 15 43  1  0
 15 44  1  0
 16 45  1  0
 17 46  1  0
 20 47  1  0
 22 48  1  0
 23 49  1  0
 24 50  1  0
 30 51  1  0
 30 52  1  0
 31 53  1  0
 31 54  1  0
 32 55  1  0
 32 56  1  0
 33 57  1  0
 33 58  1  0
 34 59  1  0
 34 60  1  0
 35 61  1  0
M  CHG  2   3  -1  19  -1
M  END
>  <UniqueID>  (45) 
42

>  <SMILES>  (45) 
O=C([N-]c1cc(S(=O)(=O)N2CCOCC2)ccc1[O-])Nc1cccc(S(=O)(=O)N2CCCCC2)c1

>  <Energy>  (45) 
84.54392757503761

>  <Genealogy>  (45) 
O=C([N-]c1cc(S(=O)(=O)N2CCOCC2)ccc1[O-])Nc1cccc(S(=O)(=O)N2CCCCC2)c1 (protonated)
O=C([N-]c1cc(S(=O)(=O)N2CCOCC2)ccc1[O-])Nc1cccc(S(=O)(=O)N2CCCCC2)c1 (3D coordinates assigned)
O=C([N-]c1cc(S(=O)(=O)N2CCOCC2)ccc1[O-])Nc1cccc(S(=O)(=O)N2CCCCC2)c1 (nonaromatic ring conformer: 84.54392757503761 kcal/mol)

>  <smiles>  (45) 
O=C(Nc1cccc(S(=O)(=O)N2CCCCC2)c1)Nc1cc(S(=O)(=O)N2CCOCC2)ccc1O

>  <score_type>  (45) 
oracle

>  <origin>  (45) 
adgpu

>  <m_score__min__energy>  (45) 
-15.369999999999999

>  <m_primary>  (45) 
energy

$$$$
45:0
     RDKit          3D

 44 46  0  0  0  0  0  0  0  0999 V2000
   -8.8930   23.5050  -32.4790 O   0  0  0  0  0  0  0  0  0  0  0  0
   -8.2820   22.3930  -31.6720 S   0  0  0  0  0  0  0  0  0  0  0  0
   -9.2740   21.9560  -30.6290 O   0  0  0  0  0  0  0  0  0  0  0  0
   -6.8200   22.9940  -30.8940 C   0  0  0  0  0  0  0  0  0  0  0  0
   -5.9990   23.9250  -31.5430 C   0  0  0  0  0  0  0  0  0  0  0  0
   -4.8520   24.4150  -30.9110 C   0  0  0  0  0  0  0  0  0  0  0  0
   -4.5120   23.9800  -29.6150 C   0  0  0  0  0  0  0  0  0  0  0  0
   -3.3390   24.4650  -28.9350 N   0  0  0  0  0  0  0  0  0  0  0  0
   -3.1330   24.3310  -27.4910 C   0  0  0  0  0  0  0  0  0  0  0  0
   -1.7270   24.7250  -27.1150 C   0  0  0  0  0  0  0  0  0  0  0  0
   -1.1240   24.1630  -25.9760 C   0  0  0  0  0  0  0  0  0  0  0  0
    0.1700   24.5460  -25.5970 C   0  0  0  0  0  0  0  0  0  0  0  0
    0.7760   23.9860  -24.4740 O   0  0  0  0  0  0  0  0  0  0  0  0
    0.8620   25.5000  -26.3490 C   0  0  0  0  0  0  0  0  0  0  0  0
    0.2630   26.0760  -27.4720 C   0  0  0  0  0  0  0  0  0  0  0  0
   -1.0280   25.6980  -27.8540 C   0  0  0  0  0  0  0  0  0  0  0  0
   -1.6110   26.2970  -28.9670 O   0  0  0  0  0  0  0  0  0  0  0  0
   -5.3440   23.0510  -28.9700 C   0  0  0  0  0  0  0  0  0  0  0  0
   -6.4900   22.5640  -29.6030 C   0  0  0  0  0  0  0  0  0  0  0  0
   -7.8910   21.0520  -32.7220 N   0  0  0  0  0  0  0  0  0  0  0  0
   -6.6190   20.4360  -32.2980 C   0  0  0  0  0  0  0  0  0  0  0  0
   -6.5090   19.0000  -32.8350 C   0  0  0  0  0  0  0  0  0  0  0  0
   -7.5460   18.1310  -32.3960 O   0  0  0  0  0  0  0  0  0  0  0  0
   -8.7220   18.8090  -31.9770 C   0  0  0  0  0  0  0  0  0  0  0  0
   -9.0080   20.0840  -32.7900 C   0  0  0  0  0  0  0  0  0  0  0  0
   -6.2577   24.2721  -32.5542 H   0  0  0  0  0  0  0  0  0  0  0  0
   -4.2116   25.1443  -31.4287 H   0  0  0  0  0  0  0  0  0  0  0  0
   -2.5990   24.9370  -29.5060 H   0  0  0  0  0  0  0  0  0  0  0  0
   -3.8443   24.9828  -26.9626 H   0  0  0  0  0  0  0  0  0  0  0  0
   -3.2943   23.2808  -27.2065 H   0  0  0  0  0  0  0  0  0  0  0  0
   -1.6709   23.4184  -25.3789 H   0  0  0  0  0  0  0  0  0  0  0  0
    0.5740   24.3230  -23.5400 H   0  0  0  0  0  0  0  0  0  0  0  0
    1.8797   25.7975  -26.0560 H   0  0  0  0  0  0  0  0  0  0  0  0
    0.8091   26.8299  -28.0581 H   0  0  0  0  0  0  0  0  0  0  0  0
   -5.0912   22.7036  -27.9574 H   0  0  0  0  0  0  0  0  0  0  0  0
   -7.1359   21.8397  -29.0851 H   0  0  0  0  0  0  0  0  0  0  0  0
   -5.7808   21.0328  -32.6869 H   0  0  0  0  0  0  0  0  0  0  0  0
   -6.5874   20.4074  -31.1988 H   0  0  0  0  0  0  0  0  0  0  0  0
   -6.5349   19.0400  -33.9340 H   0  0  0  0  0  0  0  0  0  0  0  0
   -5.5663   18.5886  -32.4449 H   0  0  0  0  0  0  0  0  0  0  0  0
   -9.5772   18.1257  -32.0857 H   0  0  0  0  0  0  0  0  0  0  0  0
   -8.5684   19.1150  -30.9317 H   0  0  0  0  0  0  0  0  0  0  0  0
   -9.1713   19.8047  -33.8413 H   0  0  0  0  0  0  0  0  0  0  0  0
   -9.8991   20.5656  -32.3609 H   0  0  0  0  0  0  0  0  0  0  0  0
  1  2  2  0
  2  3  2  0
  2  4  1  0
  4  5  2  0
  5  6  1  0
  6  7  2  0
  7  8  1  0
  8  9  1  0
  9 10  1  0
 10 11  2  0
 11 12  1  0
 12 13  1  0
 12 14  2  0
 14 15  1  0
 15 16  2  0
 16 17  1  0
  7 18  1  0
 18 19  2  0
  2 20  1  0
 20 21  1  0
 21 22  1  0
 22 23  1  0
 23 24  1  0
 24 25  1  0
 19  4  1  0
 25 20  1  0
 16 10  1  0
  5 26  1  0
  6 27  1  0
  8 28  1  0
  9 29  1  0
  9 30  1  0
 11 31  1  0
 13 32  1  0
 14 33  1  0
 15 34  1  0
 18 35  1  0
 19 36  1  0
 21 37  1  0
 21 38  1  0
 22 39  1  0
 22 40  1  0
 24 41  1  0
 24 42  1  0
 25 43  1  0
 25 44  1  0
M  CHG  1  17  -1
M  END
>  <UniqueID>  (46) 
43

>  <SMILES>  (46) 
O=S(=O)(c1ccc(NCc2cc(O)ccc2[O-])cc1)N1CCOCC1

>  <Energy>  (46) 
57.345818440577865

>  <Genealogy>  (46) 
O=S(=O)(c1ccc(NCc2cc(O)ccc2[O-])cc1)N1CCOCC1 (protonated)
O=S(=O)(c1ccc(NCc2cc(O)ccc2[O-])cc1)N1CCOCC1 (3D coordinates assigned)
O=S(=O)(c1ccc(NCc2cc(O)ccc2[O-])cc1)N1CCOCC1 (nonaromatic ring conformer: 57.345818440577865 kcal/mol)

>  <smiles>  (46) 
O=S(=O)(c1ccc(NCc2cc(O)ccc2O)cc1)N1CCOCC1

>  <score_type>  (46) 
oracle

>  <origin>  (46) 
adgpu

>  <m_score__min__energy>  (46) 
-11.720000000000001

>  <m_primary>  (46) 
energy

$$$$
46:0
     RDKit          3D

 57 60  0  0  0  0  0  0  0  0999 V2000
   -5.1940   24.6320  -29.8230 O   0  0  0  0  0  0  0  0  0  0  0  0
   -4.0630   24.1730  -30.1330 C   0  0  0  0  0  0  0  0  0  0  0  0
   -2.8970   24.9300  -29.7800 N   0  0  0  0  0  0  0  0  0  0  0  0
   -2.0450   24.6940  -28.6500 C   0  0  0  0  0  0  0  0  0  0  0  0
   -0.7220   24.2980  -28.8710 C   0  0  0  0  0  0  0  0  0  0  0  0
    0.1370   24.0710  -27.7920 C   0  0  0  0  0  0  0  0  0  0  0  0
   -0.3140   24.2520  -26.4790 C   0  0  0  0  0  0  0  0  0  0  0  0
    0.7900   23.9880  -25.1340 S   0  0  0  0  0  0  0  0  0  0  0  0
    2.1830   23.8060  -25.6730 O   0  0  0  0  0  0  0  0  0  0  0  0
    0.4000   22.7440  -24.3820 O   0  0  0  0  0  0  0  0  0  0  0  0
    0.7490   25.3720  -24.0730 N   0  0  0  0  0  0  0  0  0  0  0  0
   -0.6150   25.6900  -23.6400 C   0  0  0  0  0  0  0  0  0  0  0  0
   -0.6420   27.1840  -23.3450 C   0  0  0  0  0  0  0  0  0  0  0  0
    0.5850   27.7600  -24.0380 C   0  0  0  0  0  0  0  0  0  0  0  0
    1.2480   26.5800  -24.7330 C   0  0  0  0  0  0  0  0  0  0  0  0
   -1.6310   24.6780  -26.2530 C   0  0  0  0  0  0  0  0  0  0  0  0
   -2.4920   24.9010  -27.3320 C   0  0  0  0  0  0  0  0  0  0  0  0
   -3.9780   22.9060  -30.8980 C   0  0  0  0  0  0  0  0  0  0  0  0
   -5.0650   22.4500  -31.6650 C   0  0  0  0  0  0  0  0  0  0  0  0
   -4.9750   21.2520  -32.3760 C   0  0  0  0  0  0  0  0  0  0  0  0
   -3.8080   20.4780  -32.3170 C   0  0  0  0  0  0  0  0  0  0  0  0
   -3.7070   18.9490  -33.1970 S   0  0  0  0  0  0  0  0  0  0  0  0
   -3.1980   19.2120  -34.5860 O   0  0  0  0  0  0  0  0  0  0  0  0
   -2.7250   18.0460  -32.5050 O   0  0  0  0  0  0  0  0  0  0  0  0
   -5.2610   18.1540  -33.2920 N   0  0  0  0  0  0  0  0  0  0  0  0
   -5.8300   17.9680  -31.9430 C   0  0  0  0  0  0  0  0  0  0  0  0
   -7.3530   17.7760  -32.0190 C   0  0  0  0  0  0  0  0  0  0  0  0
   -8.0460   18.8800  -32.5910 O   0  0  0  0  0  0  0  0  0  0  0  0
   -7.2490   19.6660  -33.4670 C   0  0  0  0  0  0  0  0  0  0  0  0
   -6.1790   18.8520  -34.2180 C   0  0  0  0  0  0  0  0  0  0  0  0
   -2.7260   20.9230  -31.5460 C   0  0  0  0  0  0  0  0  0  0  0  0
   -2.8120   22.1240  -30.8370 C   0  0  0  0  0  0  0  0  0  0  0  0
   -0.3555   24.1645  -29.8995 H   0  0  0  0  0  0  0  0  0  0  0  0
    1.1726   23.7485  -27.9754 H   0  0  0  0  0  0  0  0  0  0  0  0
    1.3390   25.1690  -23.2310 H   0  0  0  0  0  0  0  0  0  0  0  0
   -1.3324   25.4479  -24.4379 H   0  0  0  0  0  0  0  0  0  0  0  0
   -0.8949   25.1055  -22.7512 H   0  0  0  0  0  0  0  0  0  0  0  0
   -1.5592   27.6384  -23.7477 H   0  0  0  0  0  0  0  0  0  0  0  0
   -0.6312   27.3858  -22.2637 H   0  0  0  0  0  0  0  0  0  0  0  0
    0.2891   28.5229  -24.7731 H   0  0  0  0  0  0  0  0  0  0  0  0
    1.2650   28.2497  -23.3254 H   0  0  0  0  0  0  0  0  0  0  0  0
    0.9798   26.5681  -25.7997 H   0  0  0  0  0  0  0  0  0  0  0  0
    2.3441   26.6448  -24.6662 H   0  0  0  0  0  0  0  0  0  0  0  0
   -1.9874   24.8371  -25.2246 H   0  0  0  0  0  0  0  0  0  0  0  0
   -3.5226   25.2395  -27.1497 H   0  0  0  0  0  0  0  0  0  0  0  0
   -5.9919   23.0410  -31.7049 H   0  0  0  0  0  0  0  0  0  0  0  0
   -5.8252   20.9134  -32.9863 H   0  0  0  0  0  0  0  0  0  0  0  0
   -5.3765   17.0798  -31.4789 H   0  0  0  0  0  0  0  0  0  0  0  0
   -5.6155   18.8636  -31.3415 H   0  0  0  0  0  0  0  0  0  0  0  0
   -7.5596   16.8840  -32.6286 H   0  0  0  0  0  0  0  0  0  0  0  0
   -7.7138   17.6738  -30.9849 H   0  0  0  0  0  0  0  0  0  0  0  0
   -7.9095   20.1404  -34.2077 H   0  0  0  0  0  0  0  0  0  0  0  0
   -6.7191   20.4049  -32.8480 H   0  0  0  0  0  0  0  0  0  0  0  0
   -6.6806   18.1049  -34.8507 H   0  0  0  0  0  0  0  0  0  0  0  0
   -5.5834   19.5514  -34.8231 H   0  0  0  0  0  0  0  0  0  0  0  0
   -1.8045   20.3241  -31.4986 H   0  0  0  0  0  0  0  0  0  0  0  0
   -1.9607   22.4598  -30.2266 H   0  0  0  0  0  0  0  0  0  0  0  0
  1  2  2  0
  2  3  1  0
  3  4  1  0
  4  5  2  0
  5  6  1  0
  6  7  2  0
  7  8  1  0
  8  9  2  0
  8 10  2  0
  8 11  1  0
 11 12  1  0
 12 13  1  0
 13 14  1  0
 14 15  1  0
  7 16  1  0
 16 17  2  0
  2 18  1  0
 18 19  2  0
 19 20  1  0
 20 21  2  0
 21 22  1  0
 22 23  2  0
 22 24  2  0
 22 25  1  0
 25 26  1  0
 26 27  1  0
 27 28  1  0
 28 29  1  0
 29 30  1  0
 21 31  1  0
 31 32  2  0
 17  4  1  0
 32 18  1  0
 15 11  1  0
 30 25  1  0
  5 33  1  0
  6 34  1  0
 11 35  1  0
 12 36  1  0
 12 37  1  0
 13 38  1  0
 13 39  1  0
 14 40  1  0
 14 41  1  0
 15 42  1  0
 15 43  1  0
 16 44  1  0
 17 45  1  0
 19 46  1  0
 20 47  1  0
 26 48  1  0
 26 49  1  0
 27 50  1  0
 27 51  1  0
 29 52  1  0
 29 53  1  0
 30 54  1  0
 30 55  1  0
 31 56  1  0
 32 57  1  0
M  CHG  2   3  -1  11   1
M  END
>  <UniqueID>  (47) 
44

>  <SMILES>  (47) 
O=C([N-]c1ccc(S(=O)(=O)[NH+]2CCCC2)cc1)c1ccc(S(=O)(=O)N2CCOCC2)cc1

>  <Energy>  (47) 
78.17908288763029

>  <Genealogy>  (47) 
O=C([N-]c1ccc(S(=O)(=O)[NH+]2CCCC2)cc1)c1ccc(S(=O)(=O)N2CCOCC2)cc1 (protonated)
O=C([N-]c1ccc(S(=O)(=O)[NH+]2CCCC2)cc1)c1ccc(S(=O)(=O)N2CCOCC2)cc1 (3D coordinates assigned)
O=C([N-]c1ccc(S(=O)(=O)[NH+]2CCCC2)cc1)c1ccc(S(=O)(=O)N2CCOCC2)cc1 (nonaromatic ring conformer: 78.17908288763029 kcal/mol)

>  <smiles>  (47) 
O=C(Nc1ccc(S(=O)(=O)N2CCCC2)cc1)c1ccc(S(=O)(=O)N2CCOCC2)cc1

>  <score_type>  (47) 
oracle

>  <origin>  (47) 
adgpu

>  <m_score__min__energy>  (47) 
-12.859999999999999

>  <m_primary>  (47) 
energy

$$$$
47:0
     RDKit          3D

 56 59  0  0  0  0  0  0  0  0999 V2000
   -0.6200   21.1720  -34.7140 N   0  0  0  0  0  0  0  0  0  0  0  0
   -1.2120   20.9850  -33.4220 C   0  0  0  0  0  0  0  0  0  0  0  0
   -2.3340   21.5810  -33.1410 N   0  0  0  0  0  0  0  0  0  0  0  0
   -0.5560   20.1000  -32.4230 C   0  0  0  0  0  0  0  0  0  0  0  0
    0.6870   20.4500  -31.8750 C   0  0  0  0  0  0  0  0  0  0  0  0
    1.3270   19.5970  -30.9670 C   0  0  0  0  0  0  0  0  0  0  0  0
    0.7310   18.3840  -30.5820 C   0  0  0  0  0  0  0  0  0  0  0  0
    1.4250   17.5130  -29.6670 N   0  0  0  0  0  0  0  0  0  0  0  0
    1.4310   17.6820  -28.2110 C   0  0  0  0  0  0  0  0  0  0  0  0
    0.2150   18.4490  -27.7670 C   0  0  0  0  0  0  0  0  0  0  0  0
   -0.8440   17.8060  -27.1030 C   0  0  0  0  0  0  0  0  0  0  0  0
   -1.9940   18.5190  -26.7540 C   0  0  0  0  0  0  0  0  0  0  0  0
   -2.0940   19.8800  -27.0610 C   0  0  0  0  0  0  0  0  0  0  0  0
   -1.0280   20.5470  -27.6920 C   0  0  0  0  0  0  0  0  0  0  0  0
   -1.1390   21.9820  -28.0510 C   0  0  0  0  0  0  0  0  0  0  0  0
   -2.1250   22.3710  -28.9730 C   0  0  0  0  0  0  0  0  0  0  0  0
   -2.2940   23.7200  -29.3400 C   0  0  0  0  0  0  0  0  0  0  0  0
   -3.3180   24.0790  -30.3610 C   0  0  0  0  0  0  0  0  0  0  0  0
   -3.6710   25.2810  -30.5150 O   0  0  0  0  0  0  0  0  0  0  0  0
   -3.8390   23.0670  -31.2310 N   0  0  0  0  0  0  0  0  0  0  0  0
   -5.2160   22.6940  -31.4010 C   0  0  0  0  0  0  0  0  0  0  0  0
   -6.2200   23.1040  -30.5040 C   0  0  0  0  0  0  0  0  0  0  0  0
   -7.5410   22.7050  -30.7150 C   0  0  0  0  0  0  0  0  0  0  0  0
   -7.8490   21.8840  -31.8000 C   0  0  0  0  0  0  0  0  0  0  0  0
   -6.8640   21.4710  -32.6410 N   0  0  0  0  0  0  0  0  0  0  0  0
   -5.5690   21.8470  -32.4680 C   0  0  0  0  0  0  0  0  0  0  0  0
   -4.6910   21.4360  -33.2740 O   0  0  0  0  0  0  0  0  0  0  0  0
   -1.4670   24.6940  -28.7360 C   0  0  0  0  0  0  0  0  0  0  0  0
   -1.6030   26.0470  -29.0400 O   0  0  0  0  0  0  0  0  0  0  0  0
   -0.4810   24.3110  -27.8230 C   0  0  0  0  0  0  0  0  0  0  0  0
   -0.2890   22.9650  -27.4940 C   0  0  0  0  0  0  0  0  0  0  0  0
    0.7680   22.6400  -26.6390 O   0  0  0  0  0  0  0  0  0  0  0  0
    0.1200   19.8210  -28.0470 C   0  0  0  0  0  0  0  0  0  0  0  0
   -0.5220   18.0420  -31.1210 C   0  0  0  0  0  0  0  0  0  0  0  0
   -1.1580   18.8920  -32.0260 C   0  0  0  0  0  0  0  0  0  0  0  0
    0.3210   20.7800  -34.9440 H   0  0  0  0  0  0  0  0  0  0  0  0
   -1.1060   21.7400  -35.4420 H   0  0  0  0  0  0  0  0  0  0  0  0
   -2.8020   22.2020  -33.8430 H   0  0  0  0  0  0  0  0  0  0  0  0
   -2.8210   21.4410  -32.2250 H   0  0  0  0  0  0  0  0  0  0  0  0
    1.1620   21.4003  -32.1602 H   0  0  0  0  0  0  0  0  0  0  0  0
    2.3055   19.8793  -30.5513 H   0  0  0  0  0  0  0  0  0  0  0  0
    2.0190   16.7440  -30.0610 H   0  0  0  0  0  0  0  0  0  0  0  0
    1.4303   16.6921  -27.7312 H   0  0  0  0  0  0  0  0  0  0  0  0
    2.3320   18.2422  -27.9205 H   0  0  0  0  0  0  0  0  0  0  0  0
   -0.7671   16.7366  -26.8570 H   0  0  0  0  0  0  0  0  0  0  0  0
   -2.8210   18.0097  -26.2376 H   0  0  0  0  0  0  0  0  0  0  0  0
   -3.0112   20.4319  -26.8077 H   0  0  0  0  0  0  0  0  0  0  0  0
   -2.7786   21.6060  -29.4175 H   0  0  0  0  0  0  0  0  0  0  0  0
   -5.9650   23.7360  -29.6406 H   0  0  0  0  0  0  0  0  0  0  0  0
   -8.3349   23.0362  -30.0294 H   0  0  0  0  0  0  0  0  0  0  0  0
   -8.8888   21.5708  -31.9750 H   0  0  0  0  0  0  0  0  0  0  0  0
    0.1533   25.0790  -27.3563 H   0  0  0  0  0  0  0  0  0  0  0  0
    1.1240   23.2740  -25.9340 H   0  0  0  0  0  0  0  0  0  0  0  0
    0.9538   20.3328  -28.5499 H   0  0  0  0  0  0  0  0  0  0  0  0
   -1.0039   17.0979  -30.8270 H   0  0  0  0  0  0  0  0  0  0  0  0
   -2.1412   18.6146  -32.4338 H   0  0  0  0  0  0  0  0  0  0  0  0
  1  2  1  0
  2  3  2  0
  2  4  1  0
  4  5  2  0
  5  6  1  0
  6  7  2  0
  7  8  1  0
  8  9  1  0
  9 10  1  0
 10 11  2  0
 11 12  1  0
 12 13  2  0
 13 14  1  0
 14 15  1  0
 15 16  2  0
 16 17  1  0
 17 18  1  0
 18 19  2  0
 18 20  1  0
 20 21  1  0
 21 22  2  0
 22 23  1  0
 23 24  2  0
 24 25  1  0
 25 26  1  0
 26 27  2  0
 17 28  2  0
 28 29  1  0
 28 30  1  0
 30 31  2  0
 31 32  1  0
 14 33  2  0
  7 34  1  0
 34 35  2  0
 35  4  1  0
 33 10  1  0
 31 15  1  0
 26 21  1  0
  1 36  1  0
  1 37  1  0
  3 38  1  0
  3 39  1  0
  5 40  1  0
  6 41  1  0
  8 42  1  0
  9 43  1  0
  9 44  1  0
 11 45  1  0
 12 46  1  0
 13 47  1  0
 16 48  1  0
 22 49  1  0
 23 50  1  0
 24 51  1  0
 30 52  1  0
 32 53  1  0
 33 54  1  0
 34 55  1  0
 35 56  1  0
M  CHG  4   3   1  20  -1  25  -1  29  -1
M  END
>  <UniqueID>  (48) 
45

>  <SMILES>  (48) 
NC(=[NH2+])c1ccc(NCc2cccc(-c3cc(C(=O)[N-]c4ccc[n-]c4=O)c([O-])cc3O)c2)cc1

>  <Energy>  (48) 
77.25096713102957

>  <Genealogy>  (48) 
NC(=[NH2+])c1ccc(NCc2cccc(-c3cc(C(=O)[N-]c4ccc[n-]c4=O)c([O-])cc3O)c2)cc1 (protonated)
NC(=[NH2+])c1ccc(NCc2cccc(-c3cc(C(=O)[N-]c4ccc[n-]c4=O)c([O-])cc3O)c2)cc1 (3D coordinates assigned)
NC(=[NH2+])c1ccc(NCc2cccc(-c3cc(C(=O)[N-]c4ccc[n-]c4=O)c([O-])cc3O)c2)cc1 (optimized conformer: 77.25096713102957 kcal/mol)

>  <smiles>  (48) 
N=C(N)c1ccc(NCc2cccc(-c3cc(C(=O)Nc4ccc[nH]c4=O)c(O)cc3O)c2)cc1

>  <score_type>  (48) 
oracle

>  <origin>  (48) 
adgpu

>  <m_score__min__energy>  (48) 
-12.34

>  <m_primary>  (48) 
energy

$$$$
48:0
     RDKit          3D

 60 63  0  0  0  0  0  0  0  0999 V2000
   -2.3900   23.2190  -29.0040 O   0  0  0  0  0  0  0  0  0  0  0  0
   -2.6780   23.0320  -30.2150 C   0  0  0  0  0  0  0  0  0  0  0  0
   -1.6690   22.6360  -31.1590 N   0  0  0  0  0  0  0  0  0  0  0  0
   -1.2170   21.3230  -31.5320 C   0  0  0  0  0  0  0  0  0  0  0  0
   -0.4080   20.5260  -30.6970 C   0  0  0  0  0  0  0  0  0  0  0  0
   -0.0270   19.2360  -31.0970 C   0  0  0  0  0  0  0  0  0  0  0  0
    0.9770   18.2370  -30.0410 S   0  0  0  0  0  0  0  0  0  0  0  0
    2.4260   18.5420  -30.2990 O   0  0  0  0  0  0  0  0  0  0  0  0
    0.7450   16.7860  -30.3650 O   0  0  0  0  0  0  0  0  0  0  0  0
    0.6100   18.5130  -28.3540 N   0  0  0  0  0  0  0  0  0  0  0  0
   -0.8480   18.4080  -28.1250 C   0  0  0  0  0  0  0  0  0  0  0  0
   -1.2380   18.9930  -26.7640 C   0  0  0  0  0  0  0  0  0  0  0  0
   -0.9040   20.4930  -26.6860 C   0  0  0  0  0  0  0  0  0  0  0  0
    0.2130   20.9040  -27.6610 C   0  0  0  0  0  0  0  0  0  0  0  0
    1.2280   19.7670  -27.8510 C   0  0  0  0  0  0  0  0  0  0  0  0
   -0.4610   18.7390  -32.3300 C   0  0  0  0  0  0  0  0  0  0  0  0
   -1.2760   19.5150  -33.1550 C   0  0  0  0  0  0  0  0  0  0  0  0
   -1.6610   20.8010  -32.7570 C   0  0  0  0  0  0  0  0  0  0  0  0
   -2.4910   21.5670  -33.5770 O   0  0  0  0  0  0  0  0  0  0  0  0
   -4.0680   23.2420  -30.6870 C   0  0  0  0  0  0  0  0  0  0  0  0
   -4.8770   22.1280  -30.9820 C   0  0  0  0  0  0  0  0  0  0  0  0
   -6.2110   22.2920  -31.3770 C   0  0  0  0  0  0  0  0  0  0  0  0
   -7.2130   20.8790  -31.7060 S   0  0  0  0  0  0  0  0  0  0  0  0
   -7.7720   20.9940  -33.0980 O   0  0  0  0  0  0  0  0  0  0  0  0
   -8.3720   20.8620  -30.7480 O   0  0  0  0  0  0  0  0  0  0  0  0
   -6.3280   19.3750  -31.5500 N   0  0  0  0  0  0  0  0  0  0  0  0
   -5.0380   19.4080  -32.2650 C   0  0  0  0  0  0  0  0  0  0  0  0
   -5.1740   19.0880  -33.7740 C   0  0  0  0  0  0  0  0  0  0  0  0
   -6.4340   18.5490  -34.1290 O   0  0  0  0  0  0  0  0  0  0  0  0
   -6.8050   17.5500  -33.2090 C   0  0  0  0  0  0  0  0  0  0  0  0
   -7.1490   18.1810  -31.8510 C   0  0  0  0  0  0  0  0  0  0  0  0
   -6.7390   23.5790  -31.5060 C   0  0  0  0  0  0  0  0  0  0  0  0
   -5.9440   24.6930  -31.2390 C   0  0  0  0  0  0  0  0  0  0  0  0
   -4.6170   24.5350  -30.8260 C   0  0  0  0  0  0  0  0  0  0  0  0
   -3.8640   25.6690  -30.5440 O   0  0  0  0  0  0  0  0  0  0  0  0
   -0.0731   20.9179  -29.7253 H   0  0  0  0  0  0  0  0  0  0  0  0
   -1.3763   18.9589  -28.9171 H   0  0  0  0  0  0  0  0  0  0  0  0
   -1.1275   17.3442  -28.1401 H   0  0  0  0  0  0  0  0  0  0  0  0
   -2.3190   18.8579  -26.6120 H   0  0  0  0  0  0  0  0  0  0  0  0
   -0.6676   18.4684  -25.9833 H   0  0  0  0  0  0  0  0  0  0  0  0
   -1.8102   21.0683  -26.9264 H   0  0  0  0  0  0  0  0  0  0  0  0
   -0.5483   20.7016  -25.6662 H   0  0  0  0  0  0  0  0  0  0  0  0
   -0.2339   21.1529  -28.6348 H   0  0  0  0  0  0  0  0  0  0  0  0
    0.7387   21.7750  -27.2425 H   0  0  0  0  0  0  0  0  0  0  0  0
    1.9908   20.0954  -28.5723 H   0  0  0  0  0  0  0  0  0  0  0  0
    1.6623   19.5464  -26.8647 H   0  0  0  0  0  0  0  0  0  0  0  0
   -0.1584   17.7314  -32.6511 H   0  0  0  0  0  0  0  0  0  0  0  0
   -1.6172   19.1151  -34.1213 H   0  0  0  0  0  0  0  0  0  0  0  0
   -2.8290   22.4810  -33.2900 H   0  0  0  0  0  0  0  0  0  0  0  0
   -4.4558   21.1151  -30.9012 H   0  0  0  0  0  0  0  0  0  0  0  0
   -4.6033   20.4128  -32.1576 H   0  0  0  0  0  0  0  0  0  0  0  0
   -4.3959   18.6331  -31.8210 H   0  0  0  0  0  0  0  0  0  0  0  0
   -5.0214   20.0178  -34.3415 H   0  0  0  0  0  0  0  0  0  0  0  0
   -4.4188   18.3240  -34.0105 H   0  0  0  0  0  0  0  0  0  0  0  0
   -7.6840   17.0112  -33.5925 H   0  0  0  0  0  0  0  0  0  0  0  0
   -5.9646   16.8524  -33.0782 H   0  0  0  0  0  0  0  0  0  0  0  0
   -8.2087   18.4758  -31.8586 H   0  0  0  0  0  0  0  0  0  0  0  0
   -6.9402   17.4306  -31.0743 H   0  0  0  0  0  0  0  0  0  0  0  0
   -7.7848   23.7139  -31.8191 H   0  0  0  0  0  0  0  0  0  0  0  0
   -6.3635   25.7034  -31.3540 H   0  0  0  0  0  0  0  0  0  0  0  0
  1  2  2  0
  2  3  1  0
  3  4  1  0
  4  5  2  0
  5  6  1  0
  6  7  1  0
  7  8  2  0
  7  9  2  0
  7 10  1  0
 10 11  1  0
 11 12  1  0
 12 13  1  0
 13 14  1  0
 14 15  1  0
  6 16  2  0
 16 17  1  0
 17 18  2  0
 18 19  1  0
  2 20  1  0
 20 21  2  0
 21 22  1  0
 22 23  1  0
 23 24  2  0
 23 25  2  0
 23 26  1  0
 26 27  1  0
 27 28  1  0
 28 29  1  0
 29 30  1  0
 30 31  1  0
 22 32  2  0
 32 33  1  0
 33 34  2  0
 34 35  1  0
 18  4  1  0
 34 20  1  0
 15 10  1  0
 31 26  1  0
  5 36  1  0
 11 37  1  0
 11 38  1  0
 12 39  1  0
 12 40  1  0
 13 41  1  0
 13 42  1  0
 14 43  1  0
 14 44  1  0
 15 45  1  0
 15 46  1  0
 16 47  1  0
 17 48  1  0
 19 49  1  0
 21 50  1  0
 27 51  1  0
 27 52  1  0
 28 53  1  0
 28 54  1  0
 30 55  1  0
 30 56  1  0
 31 57  1  0
 31 58  1  0
 32 59  1  0
 33 60  1  0
M  CHG  2   3  -1  35  -1
M  END
>  <UniqueID>  (49) 
46

>  <SMILES>  (49) 
O=C([N-]c1cc(S(=O)(=O)N2CCCCC2)ccc1O)c1cc(S(=O)(=O)N2CCOCC2)ccc1[O-]

>  <Energy>  (49) 
83.7911153373362

>  <Genealogy>  (49) 
O=C([N-]c1cc(S(=O)(=O)N2CCCCC2)ccc1O)c1cc(S(=O)(=O)N2CCOCC2)ccc1[O-] (protonated)
O=C([N-]c1cc(S(=O)(=O)N2CCCCC2)ccc1O)c1cc(S(=O)(=O)N2CCOCC2)ccc1[O-] (3D coordinates assigned)
O=C([N-]c1cc(S(=O)(=O)N2CCCCC2)ccc1O)c1cc(S(=O)(=O)N2CCOCC2)ccc1[O-] (nonaromatic ring conformer: 83.7911153373362 kcal/mol)

>  <smiles>  (49) 
O=C(Nc1cc(S(=O)(=O)N2CCCCC2)ccc1O)c1cc(S(=O)(=O)N2CCOCC2)ccc1O

>  <score_type>  (49) 
oracle

>  <origin>  (49) 
adgpu

>  <m_score__min__energy>  (49) 
-13.6

>  <m_primary>  (49) 
energy

$$$$
