0:0
     RDKit          3D

 28 29  0  0  0  0  0  0  0  0999 V2000
   -6.1760   25.6930  -29.3920 C   0  0  0  0  0  0  0  0  0  0  0  0
   -5.9480   24.5100  -30.2950 C   0  0  0  0  0  0  0  0  0  0  0  0
   -7.0560   23.7340  -30.6780 C   0  0  0  0  0  0  0  0  0  0  0  0
   -6.8860   22.5910  -31.4650 C   0  0  0  0  0  0  0  0  0  0  0  0
   -8.4010   21.5400  -31.9640 Br  0  0  0  0  0  0  0  0  0  0  0  0
   -5.6070   22.2090  -31.8720 C   0  0  0  0  0  0  0  0  0  0  0  0
   -4.5000   22.9830  -31.5180 C   0  0  0  0  0  0  0  0  0  0  0  0
   -4.6590   24.1520  -30.7640 C   0  0  0  0  0  0  0  0  0  0  0  0
   -3.4890   24.9270  -30.4640 N   0  0  0  0  0  0  0  0  0  0  0  0
   -2.5310   24.6410  -29.4350 C   0  0  0  0  0  0  0  0  0  0  0  0
   -1.8620   25.5950  -28.9540 O   0  0  0  0  0  0  0  0  0  0  0  0
   -2.3250   23.2730  -28.9020 C   0  0  0  0  0  0  0  0  0  0  0  0
   -3.3170   22.6360  -28.1340 C   0  0  0  0  0  0  0  0  0  0  0  0
   -3.1080   21.3430  -27.6440 C   0  0  0  0  0  0  0  0  0  0  0  0
   -1.9070   20.6800  -27.9030 C   0  0  0  0  0  0  0  0  0  0  0  0
   -0.9080   21.3100  -28.6470 C   0  0  0  0  0  0  0  0  0  0  0  0
   -1.1110   22.6030  -29.1400 C   0  0  0  0  0  0  0  0  0  0  0  0
   -6.1138   25.3703  -28.3422 H   0  0  0  0  0  0  0  0  0  0  0  0
   -5.4085   26.4565  -29.5870 H   0  0  0  0  0  0  0  0  0  0  0  0
   -7.1723   26.1165  -29.5870 H   0  0  0  0  0  0  0  0  0  0  0  0
   -8.0656   24.0287  -30.3556 H   0  0  0  0  0  0  0  0  0  0  0  0
   -5.4708   21.2973  -32.4722 H   0  0  0  0  0  0  0  0  0  0  0  0
   -3.4936   22.6714  -31.8345 H   0  0  0  0  0  0  0  0  0  0  0  0
   -4.2612   23.1574  -27.9180 H   0  0  0  0  0  0  0  0  0  0  0  0
   -3.8920   20.8470  -27.0529 H   0  0  0  0  0  0  0  0  0  0  0  0
   -1.7479   19.6609  -27.5207 H   0  0  0  0  0  0  0  0  0  0  0  0
    0.0401   20.7889  -28.8458 H   0  0  0  0  0  0  0  0  0  0  0  0
   -0.3168   23.0990  -29.7172 H   0  0  0  0  0  0  0  0  0  0  0  0
  1  2  1  0
  2  3  2  0
  3  4  1  0
  4  5  1  0
  4  6  2  0
  6  7  1  0
  7  8  2  0
  8  9  1  0
  9 10  1  0
 10 11  2  0
 10 12  1  0
 12 13  2  0
 13 14  1  0
 14 15  2  0
 15 16  1  0
 16 17  2  0
  8  2  1  0
 17 12  1  0
  1 18  1  0
  1 19  1  0
  1 20  1  0
  3 21  1  0
  6 22  1  0
  7 23  1  0
 13 24  1  0
 14 25  1  0
 15 26  1  0
 16 27  1  0
 17 28  1  0
M  CHG  1   9  -1
M  END
>  <UniqueID>  (1) 
1

>  <SMILES>  (1) 
Cc1cc(Br)ccc1[N-]C(=O)c1ccccc1

>  <Energy>  (1) 
38.028522148408285

>  <Genealogy>  (1) 
Cc1cc(Br)ccc1[N-]C(=O)c1ccccc1 (protonated)
Cc1cc(Br)ccc1[N-]C(=O)c1ccccc1 (3D coordinates assigned)
Cc1cc(Br)ccc1[N-]C(=O)c1ccccc1 (optimized conformer: 38.028522148408285 kcal/mol)

>  <smiles>  (1) 
Cc1cc(Br)ccc1NC(=O)c1ccccc1

>  <score_type>  (1) 
oracle

>  <origin>  (1) 
adgpu

>  <m_score__min__energy>  (1) 
-8.9800000000000004

>  <m_primary>  (1) 
energy

$$$$
1:0
     RDKit          3D

 19 20  0  0  0  0  0  0  0  0999 V2000
   -3.5240   21.8830  -29.4730 N   0  0  0  0  0  0  0  0  0  0  0  0
   -3.8180   23.1120  -30.0860 N   0  0  0  0  0  0  0  0  0  0  0  0
   -4.8880   23.4310  -30.8420 C   0  0  0  0  0  0  0  0  0  0  0  0
   -5.9100   22.4930  -31.3360 C   0  0  0  0  0  0  0  0  0  0  0  0
   -5.5580   21.1970  -31.5600 N   0  0  0  0  0  0  0  0  0  0  0  0
   -6.4530   20.2720  -31.9970 C   0  0  0  0  0  0  0  0  0  0  0  0
   -7.7830   20.6360  -32.2180 C   0  0  0  0  0  0  0  0  0  0  0  0
   -8.1790   21.9510  -31.9730 C   0  0  0  0  0  0  0  0  0  0  0  0
   -7.2470   22.8880  -31.5210 C   0  0  0  0  0  0  0  0  0  0  0  0
   -7.6560   24.1460  -31.2190 F   0  0  0  0  0  0  0  0  0  0  0  0
   -4.9290   24.7580  -31.0800 N   0  0  0  0  0  0  0  0  0  0  0  0
   -3.8740   25.2980  -30.4810 N   0  0  0  0  0  0  0  0  0  0  0  0
   -3.2080   24.2950  -29.8820 C   0  0  0  0  0  0  0  0  0  0  0  0
   -1.8710   24.5160  -28.9670 S   0  0  0  0  0  0  0  0  0  0  0  0
   -3.9980   21.0060  -29.7820 H   0  0  0  0  0  0  0  0  0  0  0  0
   -2.7810   21.8110  -28.7440 H   0  0  0  0  0  0  0  0  0  0  0  0
   -6.1295   19.2361  -32.1767 H   0  0  0  0  0  0  0  0  0  0  0  0
   -8.5099   19.8945  -32.5810 H   0  0  0  0  0  0  0  0  0  0  0  0
   -9.2250   22.2499  -32.1357 H   0  0  0  0  0  0  0  0  0  0  0  0
  1  2  1  0
  2  3  1  0
  3  4  1  0
  4  5  2  0
  5  6  1  0
  6  7  2  0
  7  8  1  0
  8  9  2  0
  9 10  1  0
  3 11  2  0
 11 12  1  0
 12 13  1  0
 13 14  2  0
 13  2  1  0
  9  4  1  0
  1 15  1  0
  1 16  1  0
  6 17  1  0
  7 18  1  0
  8 19  1  0
M  CHG  1  12  -1
M  END
>  <UniqueID>  (2) 
2

>  <SMILES>  (2) 
Nn1c(-c2ncccc2F)n[n-]c1=S

>  <Energy>  (2) 
62.7710947089101

>  <Genealogy>  (2) 
Nn1c(-c2ncccc2F)n[n-]c1=S (protonated)
Nn1c(-c2ncccc2F)n[n-]c1=S (3D coordinates assigned)
Nn1c(-c2ncccc2F)n[n-]c1=S (optimized conformer: 62.7710947089101 kcal/mol)

>  <smiles>  (2) 
Nn1c(-c2ncccc2F)n[nH]c1=S

>  <score_type>  (2) 
oracle

>  <origin>  (2) 
adgpu

>  <m_score__min__energy>  (2) 
-6.1200000000000001

>  <m_primary>  (2) 
energy

$$$$
2:0
     RDKit          3D

 34 36  0  0  0  0  0  0  0  0999 V2000
   -1.8840   26.3770  -29.1160 H   0  0  0  0  0  0  0  0  0  0  0  0
   -1.9620   25.3440  -28.9780 N   0  0  0  0  0  0  0  0  0  0  0  0
   -2.9230   24.6590  -29.5120 C   0  0  0  0  0  0  0  0  0  0  0  0
   -3.8620   25.2840  -30.2700 N   0  0  0  0  0  0  0  0  0  0  0  0
   -4.8820   24.5990  -30.8490 C   0  0  0  0  0  0  0  0  0  0  0  0
   -5.6313   25.1294  -31.4549 H   0  0  0  0  0  0  0  0  0  0  0  0
   -4.9740   23.2080  -30.6690 C   0  0  0  0  0  0  0  0  0  0  0  0
   -6.0640   22.3950  -31.2580 C   0  0  0  0  0  0  0  0  0  0  0  0
   -7.3360   22.8790  -31.2080 N   0  0  0  0  0  0  0  0  0  0  0  0
   -8.3930   22.1930  -31.7150 C   0  0  0  0  0  0  0  0  0  0  0  0
   -9.4041   22.6225  -31.6576 H   0  0  0  0  0  0  0  0  0  0  0  0
   -8.2000   20.9460  -32.3080 C   0  0  0  0  0  0  0  0  0  0  0  0
   -9.0553   20.3936  -32.7244 H   0  0  0  0  0  0  0  0  0  0  0  0
   -6.9090   20.3990  -32.3710 C   0  0  0  0  0  0  0  0  0  0  0  0
   -6.6820   19.0670  -32.9870 C   0  0  0  0  0  0  0  0  0  0  0  0
   -7.4560   17.9590  -32.6030 C   0  0  0  0  0  0  0  0  0  0  0  0
   -8.2404   18.0720  -31.8401 H   0  0  0  0  0  0  0  0  0  0  0  0
   -7.2270   16.7150  -33.1920 C   0  0  0  0  0  0  0  0  0  0  0  0
   -7.8328   15.8476  -32.8911 H   0  0  0  0  0  0  0  0  0  0  0  0
   -6.2590   16.5690  -34.1360 N   0  0  0  0  0  0  0  0  0  0  0  0
   -6.1100   15.6260  -34.5600 H   0  0  0  0  0  0  0  0  0  0  0  0
   -5.4880   17.6210  -34.5350 C   0  0  0  0  0  0  0  0  0  0  0  0
   -4.5770   17.4420  -35.4400 N   0  0  0  0  0  0  0  0  0  0  0  0
   -3.9620   18.2150  -35.7790 H   0  0  0  0  0  0  0  0  0  0  0  0
   -5.6880   18.8880  -33.9640 C   0  0  0  0  0  0  0  0  0  0  0  0
   -5.0675   19.7392  -34.2810 H   0  0  0  0  0  0  0  0  0  0  0  0
   -5.8350   21.1310  -31.8350 C   0  0  0  0  0  0  0  0  0  0  0  0
   -4.8165   20.7167  -31.8663 H   0  0  0  0  0  0  0  0  0  0  0  0
   -4.0390   22.5900  -29.8960 N   0  0  0  0  0  0  0  0  0  0  0  0
   -3.0150   23.2710  -29.3150 C   0  0  0  0  0  0  0  0  0  0  0  0
   -2.0150   22.5240  -28.4810 C   0  0  0  0  0  0  0  0  0  0  0  0
   -2.2323   22.6864  -27.4150 H   0  0  0  0  0  0  0  0  0  0  0  0
   -2.0775   21.4496  -28.7085 H   0  0  0  0  0  0  0  0  0  0  0  0
   -1.0024   22.8887  -28.7085 H   0  0  0  0  0  0  0  0  0  0  0  0
  1  2  1  0
  2  3  2  0
  3  4  1  0
  4  5  1  0
  5  6  1  0
  5  7  2  0
  7  8  1  0
  8  9  2  0
  9 10  1  0
 10 11  1  0
 10 12  2  0
 12 13  1  0
 12 14  1  0
 14 15  1  0
 15 16  1  0
 16 17  1  0
 16 18  2  0
 18 19  1  0
 18 20  1  0
 20 21  1  0
 20 22  1  0
 22 23  2  0
 23 24  1  0
 22 25  1  0
 25 26  1  0
 14 27  2  0
 27 28  1  0
  7 29  1  0
 29 30  2  0
 30 31  1  0
 31 32  1  0
 31 33  1  0
 31 34  1  0
 30  3  1  0
 27  8  1  0
 25 15  2  0
M  CHG  1   4  -1
M  END
>  <UniqueID>  (3) 
3

>  <SMILES>  (3) 
[H]/N=c1\[n-]cc(-c2cc(-c3cc[nH]/c(=N/[H])c3)ccn2)nc1C

>  <Energy>  (3) 
47.616153749809364

>  <Genealogy>  (3) 
Cc1nc(-c2cc(-c3cc[nH]c(=N)c3)ccn2)c[n-]c1=N (protonated)
[H]/N=c1\[n-]cc(-c2cc(-c3cc[nH]/c(=N/[H])c3)ccn2)nc1C (cis-trans isomerization)
[H]/N=c1\[n-]cc(-c2cc(-c3cc[nH]/c(=N/[H])c3)ccn2)nc1C (3D coordinates assigned)
[H]/N=c1\[n-]cc(-c2cc(-c3cc[nH]/c(=N/[H])c3)ccn2)nc1C (optimized conformer: 47.616153749809364 kcal/mol)

>  <smiles>  (3) 
Cc1nc(-c2cc(-c3cc[nH]c(=N)c3)ccn2)c[nH]c1=N

>  <score_type>  (3) 
oracle

>  <origin>  (3) 
adgpu

>  <m_score__min__energy>  (3) 
-9.6300000000000008

>  <m_primary>  (3) 
energy

$$$$
3:0
     RDKit          3D

 46 48  0  0  0  0  0  0  0  0999 V2000
   -9.1073   21.6841  -32.7358 H   0  0  0  0  0  0  0  0  0  0  0  0
   -8.4920   22.1790  -31.9700 C   0  0  0  0  0  0  0  0  0  0  0  0
   -7.4040   23.4310  -32.2440 S   0  0  0  0  0  0  0  0  0  0  0  0
   -6.9090   23.5770  -30.6460 C   0  0  0  0  0  0  0  0  0  0  0  0
   -5.7530   24.7530  -30.0520 S   0  0  0  0  0  0  0  0  0  0  0  0
   -6.5040   25.8770  -29.3990 O   0  0  0  0  0  0  0  0  0  0  0  0
   -4.9550   25.3140  -31.1940 O   0  0  0  0  0  0  0  0  0  0  0  0
   -4.6780   24.0350  -28.8880 N   0  0  0  0  0  0  0  0  0  0  0  0
   -4.9330   24.1720  -27.8870 H   0  0  0  0  0  0  0  0  0  0  0  0
   -3.5900   23.3870  -29.2130 C   0  0  0  0  0  0  0  0  0  0  0  0
   -2.6260   22.9370  -28.1720 C   0  0  0  0  0  0  0  0  0  0  0  0
   -1.9390   23.8870  -27.3940 C   0  0  0  0  0  0  0  0  0  0  0  0
   -2.1030   24.9598  -27.5735 H   0  0  0  0  0  0  0  0  0  0  0  0
   -1.0500   23.4800  -26.3950 C   0  0  0  0  0  0  0  0  0  0  0  0
   -0.5154   24.2323  -25.7965 H   0  0  0  0  0  0  0  0  0  0  0  0
   -0.8390   22.1210  -26.1550 C   0  0  0  0  0  0  0  0  0  0  0  0
   -0.1336   21.8025  -25.3733 H   0  0  0  0  0  0  0  0  0  0  0  0
   -1.5250   21.1670  -26.9090 C   0  0  0  0  0  0  0  0  0  0  0  0
   -1.3634   20.0962  -26.7160 H   0  0  0  0  0  0  0  0  0  0  0  0
   -2.4170   21.5680  -27.9090 C   0  0  0  0  0  0  0  0  0  0  0  0
   -2.9589   20.8102  -28.4939 H   0  0  0  0  0  0  0  0  0  0  0  0
   -3.2990   23.0980  -30.5890 N   0  0  0  0  0  0  0  0  0  0  0  0
   -2.6020   23.7070  -31.0750 H   0  0  0  0  0  0  0  0  0  0  0  0
   -3.8970   22.0000  -31.3010 C   0  0  0  0  0  0  0  0  0  0  0  0
   -4.1620   22.1280  -32.6680 C   0  0  0  0  0  0  0  0  0  0  0  0
   -3.8738   23.0497  -33.1947 H   0  0  0  0  0  0  0  0  0  0  0  0
   -4.7890   21.0970  -33.3710 C   0  0  0  0  0  0  0  0  0  0  0  0
   -4.9952   21.2192  -34.4446 H   0  0  0  0  0  0  0  0  0  0  0  0
   -5.1610   19.9020  -32.7230 C   0  0  0  0  0  0  0  0  0  0  0  0
   -5.8470   18.8450  -33.4430 N   0  0  0  0  0  0  0  0  0  0  0  0
   -7.1800   18.3990  -33.0190 C   0  0  0  0  0  0  0  0  0  0  0  0
   -7.2289   18.3826  -31.9202 H   0  0  0  0  0  0  0  0  0  0  0  0
   -7.9399   19.0918  -33.4096 H   0  0  0  0  0  0  0  0  0  0  0  0
   -7.3699   17.3884  -33.4096 H   0  0  0  0  0  0  0  0  0  0  0  0
   -5.2290   18.2160  -34.6160 C   0  0  0  0  0  0  0  0  0  0  0  0
   -4.4936   17.4675  -34.2859 H   0  0  0  0  0  0  0  0  0  0  0  0
   -6.0057   17.7250  -35.2207 H   0  0  0  0  0  0  0  0  0  0  0  0
   -4.7244   18.9840  -35.2207 H   0  0  0  0  0  0  0  0  0  0  0  0
   -4.8580   19.7670  -31.3530 C   0  0  0  0  0  0  0  0  0  0  0  0
   -5.1175   18.8354  -30.8288 H   0  0  0  0  0  0  0  0  0  0  0  0
   -4.2330   20.8000  -30.6530 C   0  0  0  0  0  0  0  0  0  0  0  0
   -4.0016   20.6734  -29.5851 H   0  0  0  0  0  0  0  0  0  0  0  0
   -7.6010   22.6630  -29.8690 C   0  0  0  0  0  0  0  0  0  0  0  0
   -7.4705   22.5673  -28.7810 H   0  0  0  0  0  0  0  0  0  0  0  0
   -8.4840   21.8740  -30.6150 C   0  0  0  0  0  0  0  0  0  0  0  0
   -9.1117   21.0875  -30.1707 H   0  0  0  0  0  0  0  0  0  0  0  0
  1  2  1  0
  2  3  1  0
  3  4  1  0
  4  5  1  0
  5  6  2  0
  5  7  2  0
  5  8  1  0
  8  9  1  0
  8 10  2  0
 10 11  1  0
 11 12  2  0
 12 13  1  0
 12 14  1  0
 14 15  1  0
 14 16  2  0
 16 17  1  0
 16 18  1  0
 18 19  1  0
 18 20  2  0
 20 21  1  0
 10 22  1  0
 22 23  1  0
 22 24  1  0
 24 25  2  0
 25 26  1  0
 25 27  1  0
 27 28  1  0
 27 29  2  0
 29 30  1  0
 30 31  1  0
 31 32  1  0
 31 33  1  0
 31 34  1  0
 30 35  1  0
 35 36  1  0
 35 37  1  0
 35 38  1  0
 29 39  1  0
 39 40  1  0
 39 41  2  0
 41 42  1  0
  4 43  2  0
 43 44  1  0
 43 45  1  0
 45 46  1  0
 45  2  2  0
 20 11  1  0
 41 24  1  0
M  CHG  1   8   1
M  END
>  <UniqueID>  (4) 
4

>  <SMILES>  (4) 
CN(C)c1ccc(N/C(=[NH+]\S(=O)(=O)c2cccs2)c2ccccc2)cc1

>  <Energy>  (4) 
84.97771414727413

>  <Genealogy>  (4) 
CN(C)c1ccc(NC(=[NH+]S(=O)(=O)c2cccs2)c2ccccc2)cc1 (protonated)
CN(C)c1ccc(N/C(=[NH+]\S(=O)(=O)c2cccs2)c2ccccc2)cc1 (cis-trans isomerization)
CN(C)c1ccc(N/C(=[NH+]\S(=O)(=O)c2cccs2)c2ccccc2)cc1 (3D coordinates assigned)
CN(C)c1ccc(N/C(=[NH+]\S(=O)(=O)c2cccs2)c2ccccc2)cc1 (optimized conformer: 84.97771414727413 kcal/mol)

>  <smiles>  (4) 
CN(C)c1ccc(NC(=NS(=O)(=O)c2cccs2)c2ccccc2)cc1

>  <score_type>  (4) 
oracle

>  <origin>  (4) 
adgpu

>  <m_score__min__energy>  (4) 
-7.9199999999999999

>  <m_primary>  (4) 
energy

$$$$
4:0
     RDKit          3D

 31 32  0  0  0  0  0  0  0  0999 V2000
   -1.8310   25.3040  -29.3280 O   0  0  0  0  0  0  0  0  0  0  0  0
   -2.7660   24.5130  -29.6200 C   0  0  0  0  0  0  0  0  0  0  0  0
   -3.8370   24.9880  -30.4450 N   0  0  0  0  0  0  0  0  0  0  0  0
   -5.2470   24.6590  -30.2570 C   0  0  0  0  0  0  0  0  0  0  0  0
   -5.9400   24.5210  -31.6120 C   0  0  0  0  0  0  0  0  0  0  0  0
   -6.6440   23.1940  -31.7370 C   0  0  0  0  0  0  0  0  0  0  0  0
   -8.0340   23.1050  -31.5520 C   0  0  0  0  0  0  0  0  0  0  0  0
   -8.6770   21.8670  -31.6330 C   0  0  0  0  0  0  0  0  0  0  0  0
   -7.9400   20.7080  -31.8930 C   0  0  0  0  0  0  0  0  0  0  0  0
   -8.7490   19.1550  -31.9920 Cl  0  0  0  0  0  0  0  0  0  0  0  0
   -6.5540   20.7870  -32.0670 C   0  0  0  0  0  0  0  0  0  0  0  0
   -5.9070   22.0240  -31.9860 C   0  0  0  0  0  0  0  0  0  0  0  0
   -2.7440   23.1430  -29.0690 C   0  0  0  0  0  0  0  0  0  0  0  0
   -2.3480   22.9330  -27.7380 C   0  0  0  0  0  0  0  0  0  0  0  0
   -2.3130   21.6400  -27.2080 C   0  0  0  0  0  0  0  0  0  0  0  0
   -2.6570   20.5460  -28.0080 C   0  0  0  0  0  0  0  0  0  0  0  0
   -2.6190   19.2910  -27.4950 F   0  0  0  0  0  0  0  0  0  0  0  0
   -3.0290   20.7440  -29.3400 C   0  0  0  0  0  0  0  0  0  0  0  0
   -3.0670   22.0360  -29.8730 C   0  0  0  0  0  0  0  0  0  0  0  0
   -5.3288   23.7092  -29.7083 H   0  0  0  0  0  0  0  0  0  0  0  0
   -5.7313   25.4646  -29.6857 H   0  0  0  0  0  0  0  0  0  0  0  0
   -6.6781   25.3294  -31.7205 H   0  0  0  0  0  0  0  0  0  0  0  0
   -5.1750   24.5827  -32.4000 H   0  0  0  0  0  0  0  0  0  0  0  0
   -8.6182   24.0132  -31.3426 H   0  0  0  0  0  0  0  0  0  0  0  0
   -9.7661   21.8043  -31.4918 H   0  0  0  0  0  0  0  0  0  0  0  0
   -5.9726   19.8750  -32.2677 H   0  0  0  0  0  0  0  0  0  0  0  0
   -4.8164   22.0813  -32.1178 H   0  0  0  0  0  0  0  0  0  0  0  0
   -2.0640   23.7901  -27.1096 H   0  0  0  0  0  0  0  0  0  0  0  0
   -2.0147   21.4830  -26.1609 H   0  0  0  0  0  0  0  0  0  0  0  0
   -3.2924   19.8820  -29.9705 H   0  0  0  0  0  0  0  0  0  0  0  0
   -3.3506   22.1868  -30.9251 H   0  0  0  0  0  0  0  0  0  0  0  0
  1  2  2  0
  2  3  1  0
  3  4  1  0
  4  5  1  0
  5  6  1  0
  6  7  2  0
  7  8  1  0
  8  9  2  0
  9 10  1  0
  9 11  1  0
 11 12  2  0
  2 13  1  0
 13 14  2  0
 14 15  1  0
 15 16  2  0
 16 17  1  0
 16 18  1  0
 18 19  2  0
 12  6  1  0
 19 13  1  0
  4 20  1  0
  4 21  1  0
  5 22  1  0
  5 23  1  0
  7 24  1  0
  8 25  1  0
 11 26  1  0
 12 27  1  0
 14 28  1  0
 15 29  1  0
 18 30  1  0
 19 31  1  0
M  CHG  1   3  -1
M  END
>  <UniqueID>  (5) 
5

>  <SMILES>  (5) 
O=C([N-]CCc1ccc(Cl)cc1)c1ccc(F)cc1

>  <Energy>  (5) 
32.6527145934578

>  <Genealogy>  (5) 
O=C([N-]CCc1ccc(Cl)cc1)c1ccc(F)cc1 (protonated)
O=C([N-]CCc1ccc(Cl)cc1)c1ccc(F)cc1 (3D coordinates assigned)
O=C([N-]CCc1ccc(Cl)cc1)c1ccc(F)cc1 (optimized conformer: 32.6527145934578 kcal/mol)

>  <smiles>  (5) 
O=C(NCCc1ccc(Cl)cc1)c1ccc(F)cc1

>  <score_type>  (5) 
oracle

>  <origin>  (5) 
adgpu

>  <m_score__min__energy>  (5) 
-8.8800000000000008

>  <m_primary>  (5) 
energy

$$$$
5:0
     RDKit          3D

 32 33  0  0  0  0  0  0  0  0999 V2000
   -0.8624   23.2517  -28.2170 H   0  0  0  0  0  0  0  0  0  0  0  0
   -1.7060   23.2500  -28.9230 C   0  0  0  0  0  0  0  0  0  0  0  0
   -2.2870   24.4500  -29.3090 C   0  0  0  0  0  0  0  0  0  0  0  0
   -1.7800   25.6820  -28.7780 N   0  0  0  0  0  0  0  0  0  0  0  0
   -0.9120   25.7110  -28.1980 H   0  0  0  0  0  0  0  0  0  0  0  0
   -2.2720   26.5840  -28.9620 H   0  0  0  0  0  0  0  0  0  0  0  0
   -3.3610   24.4420  -30.2090 C   0  0  0  0  0  0  0  0  0  0  0  0
   -3.9180   25.6680  -30.5720 O   0  0  0  0  0  0  0  0  0  0  0  0
   -3.8720   23.2200  -30.7440 C   0  0  0  0  0  0  0  0  0  0  0  0
   -4.9630   23.3330  -31.6290 C   0  0  0  0  0  0  0  0  0  0  0  0
   -5.3555   24.3545  -31.7405 H   0  0  0  0  0  0  0  0  0  0  0  0
   -5.6280   22.3750  -32.3850 C   0  0  0  0  0  0  0  0  0  0  0  0
   -6.4327   22.7709  -33.0219 H   0  0  0  0  0  0  0  0  0  0  0  0
   -5.4450   20.9990  -32.4700 C   0  0  0  0  0  0  0  0  0  0  0  0
   -6.2100   20.3940  -33.3450 N   0  0  0  0  0  0  0  0  0  0  0  0
   -6.2100   19.0250  -33.7790 C   0  0  0  0  0  0  0  0  0  0  0  0
   -5.2860   18.5780  -34.5130 O   0  0  0  0  0  0  0  0  0  0  0  0
   -7.3040   18.2170  -33.4530 O   0  0  0  0  0  0  0  0  0  0  0  0
   -8.0030   18.3020  -32.2120 C   0  0  0  0  0  0  0  0  0  0  0  0
   -7.2937   18.5726  -31.4159 H   0  0  0  0  0  0  0  0  0  0  0  0
   -8.4631   17.3261  -31.9979 H   0  0  0  0  0  0  0  0  0  0  0  0
   -9.1010   19.3560  -32.2830 C   0  0  0  0  0  0  0  0  0  0  0  0
   -9.4001   19.6431  -31.2641 H   0  0  0  0  0  0  0  0  0  0  0  0
   -8.7258   20.2408  -32.8181 H   0  0  0  0  0  0  0  0  0  0  0  0
   -9.9698   18.9450  -32.8181 H   0  0  0  0  0  0  0  0  0  0  0  0
   -4.5770   20.2620  -31.6550 C   0  0  0  0  0  0  0  0  0  0  0  0
   -4.6503   19.1697  -31.7624 H   0  0  0  0  0  0  0  0  0  0  0  0
   -3.6370   20.7020  -30.7310 C   0  0  0  0  0  0  0  0  0  0  0  0
   -3.0913   19.8960  -30.2186 H   0  0  0  0  0  0  0  0  0  0  0  0
   -3.2630   21.9970  -30.3380 C   0  0  0  0  0  0  0  0  0  0  0  0
   -2.1850   22.0490  -29.4240 C   0  0  0  0  0  0  0  0  0  0  0  0
   -1.7128   21.1094  -29.1012 H   0  0  0  0  0  0  0  0  0  0  0  0
  1  2  1  0
  2  3  2  0
  3  4  1  0
  4  5  1  0
  4  6  1  0
  3  7  1  0
  7  8  1  0
  7  9  2  0
  9 10  1  0
 10 11  1  0
 10 12  2  0
 12 13  1  0
 12 14  1  0
 14 15  2  0
 15 16  1  0
 16 17  2  0
 16 18  1  0
 18 19  1  0
 19 20  1  0
 19 21  1  0
 19 22  1  0
 22 23  1  0
 22 24  1  0
 22 25  1  0
 14 26  1  0
 26 27  1  0
 26 28  2  0
 28 29  1  0
 28 30  1  0
 30 31  2  0
 31 32  1  0
 31  2  1  0
 30  9  1  0
M  CHG  1   8  -1
M  END
>  <UniqueID>  (6) 
6

>  <SMILES>  (6) 
CCOC(=O)/N=c1\ccc2ccc(N)c([O-])c2cc1

>  <Energy>  (6) 
66.63769347885953

>  <Genealogy>  (6) 
CCOC(=O)N=c1ccc2ccc(N)c([O-])c2cc1 (protonated)
CCOC(=O)/N=c1\ccc2ccc(N)c([O-])c2cc1 (cis-trans isomerization)
CCOC(=O)/N=c1\ccc2ccc(N)c([O-])c2cc1 (3D coordinates assigned)
CCOC(=O)/N=c1\ccc2ccc(N)c([O-])c2cc1 (optimized conformer: 66.63769347885953 kcal/mol)

>  <smiles>  (6) 
CCOC(=O)N=c1ccc2ccc(N)c(O)c2cc1

>  <score_type>  (6) 
oracle

>  <origin>  (6) 
adgpu

>  <m_score__min__energy>  (6) 
-9.9700000000000006

>  <m_primary>  (6) 
energy

$$$$
6:0
     RDKit          3D

 32 34  0  0  0  0  0  0  0  0999 V2000
   -4.2350   25.6470  -29.2280 H   0  0  0  0  0  0  0  0  0  0  0  0
   -3.5660   24.9270  -29.5810 N   0  0  0  0  0  0  0  0  0  0  0  0
   -3.8940   24.1040  -30.5240 C   0  0  0  0  0  0  0  0  0  0  0  0
   -5.1310   24.1590  -31.0820 N   0  0  0  0  0  0  0  0  0  0  0  0
   -5.4730   23.2930  -32.0690 C   0  0  0  0  0  0  0  0  0  0  0  0
   -6.7830   23.3570  -32.6460 N   0  0  0  0  0  0  0  0  0  0  0  0
   -6.8960   23.8070  -33.5830 H   0  0  0  0  0  0  0  0  0  0  0  0
   -7.9810   22.8790  -31.9560 C   0  0  0  0  0  0  0  0  0  0  0  0
   -7.9186   23.1610  -30.8946 H   0  0  0  0  0  0  0  0  0  0  0  0
   -8.8598   23.3382  -32.4323 H   0  0  0  0  0  0  0  0  0  0  0  0
   -8.1160   21.3900  -32.0570 C   0  0  0  0  0  0  0  0  0  0  0  0
   -7.1680   20.4140  -33.0440 S   0  0  0  0  0  0  0  0  0  0  0  0
   -7.8110   18.9470  -32.5320 C   0  0  0  0  0  0  0  0  0  0  0  0
   -7.5246   17.9523  -32.9043 H   0  0  0  0  0  0  0  0  0  0  0  0
   -8.7660   19.2080  -31.5580 C   0  0  0  0  0  0  0  0  0  0  0  0
   -9.3409   18.4179  -31.0527 H   0  0  0  0  0  0  0  0  0  0  0  0
   -8.9290   20.5710  -31.2790 C   0  0  0  0  0  0  0  0  0  0  0  0
   -9.6285   20.9550  -30.5219 H   0  0  0  0  0  0  0  0  0  0  0  0
   -4.5700   22.3730  -32.4990 N   0  0  0  0  0  0  0  0  0  0  0  0
   -3.3280   22.3140  -31.9490 C   0  0  0  0  0  0  0  0  0  0  0  0
   -2.3690   21.3380  -32.3960 N   0  0  0  0  0  0  0  0  0  0  0  0
   -2.5740   20.1660  -33.0460 C   0  0  0  0  0  0  0  0  0  0  0  0
   -3.9070   19.6390  -33.4740 C   0  0  0  0  0  0  0  0  0  0  0  0
   -4.5097   19.4007  -32.5852 H   0  0  0  0  0  0  0  0  0  0  0  0
   -4.4260   20.3996  -34.0758 H   0  0  0  0  0  0  0  0  0  0  0  0
   -3.7656   18.7291  -34.0758 H   0  0  0  0  0  0  0  0  0  0  0  0
   -1.4230   19.5110  -33.3100 N   0  0  0  0  0  0  0  0  0  0  0  0
   -0.4610   20.3060  -32.8040 C   0  0  0  0  0  0  0  0  0  0  0  0
    0.6178   20.0929  -32.8316 H   0  0  0  0  0  0  0  0  0  0  0  0
   -1.0350   21.4260  -32.2470 C   0  0  0  0  0  0  0  0  0  0  0  0
   -0.4948   22.2526  -31.7624 H   0  0  0  0  0  0  0  0  0  0  0  0
   -2.9990   23.1830  -30.9570 N   0  0  0  0  0  0  0  0  0  0  0  0
  1  2  1  0
  2  3  2  0
  3  4  1  0
  4  5  2  0
  5  6  1  0
  6  7  1  0
  6  8  1  0
  8  9  1  0
  8 10  1  0
  8 11  1  0
 11 12  1  0
 12 13  1  0
 13 14  1  0
 13 15  2  0
 15 16  1  0
 15 17  1  0
 17 18  1  0
  5 19  1  0
 19 20  1  0
 20 21  1  0
 21 22  1  0
 22 23  1  0
 23 24  1  0
 23 25  1  0
 23 26  1  0
 22 27  2  0
 27 28  1  0
 28 29  1  0
 28 30  2  0
 30 31  1  0
 20 32  2  0
 32  3  1  0
 17 11  2  0
 30 21  1  0
M  CHG  1  19  -1
M  END
>  <UniqueID>  (7) 
7

>  <SMILES>  (7) 
[H]/N=c1\nc(NCc2cccs2)[n-]c(-n2ccnc2C)n1

>  <Energy>  (7) 
85.89241347906227

>  <Genealogy>  (7) 
Cc1nccn1-c1nc(=N)nc(NCc2cccs2)[n-]1 (protonated)
[H]/N=c1\nc(NCc2cccs2)[n-]c(-n2ccnc2C)n1 (cis-trans isomerization)
[H]/N=c1\nc(NCc2cccs2)[n-]c(-n2ccnc2C)n1 (3D coordinates assigned)
[H]/N=c1\nc(NCc2cccs2)[n-]c(-n2ccnc2C)n1 (optimized conformer: 85.89241347906227 kcal/mol)

>  <smiles>  (7) 
Cc1nccn1-c1nc(=N)nc(NCc2cccs2)[nH]1

>  <score_type>  (7) 
oracle

>  <origin>  (7) 
adgpu

>  <m_score__min__energy>  (7) 
-7.7199999999999998

>  <m_primary>  (7) 
energy

$$$$
7:0
     RDKit          3D

 31 32  0  0  0  0  0  0  0  0999 V2000
   -2.2800   24.5630  -28.1730 C   0  0  0  0  0  0  0  0  0  0  0  0
   -2.8170   25.1600  -29.3490 O   0  0  0  0  0  0  0  0  0  0  0  0
   -3.8490   24.6050  -30.1200 C   0  0  0  0  0  0  0  0  0  0  0  0
   -5.0610   25.2970  -30.2070 C   0  0  0  0  0  0  0  0  0  0  0  0
   -6.1190   24.7850  -30.9630 C   0  0  0  0  0  0  0  0  0  0  0  0
   -5.9830   23.5710  -31.6520 C   0  0  0  0  0  0  0  0  0  0  0  0
   -7.0920   23.0740  -32.4280 N   0  0  0  0  0  0  0  0  0  0  0  0
   -8.1690   22.2390  -31.8930 C   0  0  0  0  0  0  0  0  0  0  0  0
   -7.9110   20.7840  -32.1890 C   0  0  0  0  0  0  0  0  0  0  0  0
   -8.7330   19.7950  -31.6230 C   0  0  0  0  0  0  0  0  0  0  0  0
   -8.4940   18.4420  -31.8900 C   0  0  0  0  0  0  0  0  0  0  0  0
   -7.4290   18.0690  -32.7160 C   0  0  0  0  0  0  0  0  0  0  0  0
   -7.1990   16.7590  -32.9730 F   0  0  0  0  0  0  0  0  0  0  0  0
   -6.6010   19.0480  -33.2720 C   0  0  0  0  0  0  0  0  0  0  0  0
   -6.8360   20.4000  -33.0080 C   0  0  0  0  0  0  0  0  0  0  0  0
   -4.7650   22.8700  -31.5590 C   0  0  0  0  0  0  0  0  0  0  0  0
   -3.7080   23.3830  -30.8020 C   0  0  0  0  0  0  0  0  0  0  0  0
   -2.7145   25.0461  -27.2854 H   0  0  0  0  0  0  0  0  0  0  0  0
   -2.5231   23.4902  -28.1626 H   0  0  0  0  0  0  0  0  0  0  0  0
   -1.1876   24.6915  -28.1626 H   0  0  0  0  0  0  0  0  0  0  0  0
   -5.1827   26.2525  -29.6758 H   0  0  0  0  0  0  0  0  0  0  0  0
   -7.0675   25.3394  -31.0182 H   0  0  0  0  0  0  0  0  0  0  0  0
   -7.1170   23.2860  -33.4510 H   0  0  0  0  0  0  0  0  0  0  0  0
   -8.2291   22.3809  -30.8039 H   0  0  0  0  0  0  0  0  0  0  0  0
   -9.1157   22.5346  -32.3688 H   0  0  0  0  0  0  0  0  0  0  0  0
   -9.5675   20.0851  -30.9676 H   0  0  0  0  0  0  0  0  0  0  0  0
   -9.1442   17.6716  -31.4499 H   0  0  0  0  0  0  0  0  0  0  0  0
   -5.7618   18.7535  -33.9193 H   0  0  0  0  0  0  0  0  0  0  0  0
   -6.1772   21.1661  -33.4428 H   0  0  0  0  0  0  0  0  0  0  0  0
   -4.6447   21.9119  -32.0859 H   0  0  0  0  0  0  0  0  0  0  0  0
   -2.7604   22.8279  -30.7392 H   0  0  0  0  0  0  0  0  0  0  0  0
  1  2  1  0
  2  3  1  0
  3  4  2  0
  4  5  1  0
  5  6  2  0
  6  7  1  0
  7  8  1  0
  8  9  1  0
  9 10  2  0
 10 11  1  0
 11 12  2  0
 12 13  1  0
 12 14  1  0
 14 15  2  0
  6 16  1  0
 16 17  2  0
 17  3  1  0
 15  9  1  0
  1 18  1  0
  1 19  1  0
  1 20  1  0
  4 21  1  0
  5 22  1  0
  7 23  1  0
  8 24  1  0
  8 25  1  0
 10 26  1  0
 11 27  1  0
 14 28  1  0
 15 29  1  0
 16 30  1  0
 17 31  1  0
M  END
>  <UniqueID>  (8) 
8

>  <SMILES>  (8) 
COc1ccc(NCc2ccc(F)cc2)cc1

>  <Energy>  (8) 
30.027235664381003

>  <Genealogy>  (8) 
COc1ccc(NCc2ccc(F)cc2)cc1 (3D coordinates assigned)
COc1ccc(NCc2ccc(F)cc2)cc1 (optimized conformer: 30.027235664381003 kcal/mol)

>  <smiles>  (8) 
COc1ccc(NCc2ccc(F)cc2)cc1

>  <score_type>  (8) 
oracle

>  <origin>  (8) 
adgpu

>  <m_score__min__energy>  (8) 
-7.3200000000000003

>  <m_primary>  (8) 
energy

$$$$
8:0
     RDKit          3D

 28 29  0  0  0  0  0  0  0  0999 V2000
   -4.3420   24.9190  -30.5990 N   0  0  0  0  0  0  0  0  0  0  0  0
   -5.4640   24.0930  -30.9220 C   0  0  0  0  0  0  0  0  0  0  0  0
   -5.7630   23.7990  -32.2610 C   0  0  0  0  0  0  0  0  0  0  0  0
   -6.8600   22.9920  -32.5770 C   0  0  0  0  0  0  0  0  0  0  0  0
   -7.6630   22.4700  -31.5570 C   0  0  0  0  0  0  0  0  0  0  0  0
   -9.0710   21.4360  -31.9630 S   0  0  0  0  0  0  0  0  0  0  0  0
   -8.3460   19.9430  -31.2120 C   0  0  0  0  0  0  0  0  0  0  0  0
   -7.5450   19.2020  -32.2440 C   0  0  0  0  0  0  0  0  0  0  0  0
   -6.8260   19.9070  -33.2230 C   0  0  0  0  0  0  0  0  0  0  0  0
   -6.1080   19.2160  -34.2030 C   0  0  0  0  0  0  0  0  0  0  0  0
   -6.1120   17.8180  -34.2180 C   0  0  0  0  0  0  0  0  0  0  0  0
   -6.8360   17.1100  -33.2560 C   0  0  0  0  0  0  0  0  0  0  0  0
   -7.5550   17.7980  -32.2730 C   0  0  0  0  0  0  0  0  0  0  0  0
   -7.3710   22.7640  -30.2200 C   0  0  0  0  0  0  0  0  0  0  0  0
   -6.2740   23.5720  -29.9030 C   0  0  0  0  0  0  0  0  0  0  0  0
   -3.4870   24.9170  -31.1990 H   0  0  0  0  0  0  0  0  0  0  0  0
   -4.3590   25.5380  -29.7590 H   0  0  0  0  0  0  0  0  0  0  0  0
   -5.1318   24.2050  -33.0652 H   0  0  0  0  0  0  0  0  0  0  0  0
   -7.0920   22.7672  -33.6285 H   0  0  0  0  0  0  0  0  0  0  0  0
   -7.6902   20.2336  -30.3780 H   0  0  0  0  0  0  0  0  0  0  0  0
   -9.1507   19.2937  -30.8367 H   0  0  0  0  0  0  0  0  0  0  0  0
   -6.8280   21.0070  -33.2185 H   0  0  0  0  0  0  0  0  0  0  0  0
   -5.5395   19.7723  -34.9628 H   0  0  0  0  0  0  0  0  0  0  0  0
   -5.5444   17.2751  -34.9882 H   0  0  0  0  0  0  0  0  0  0  0  0
   -6.8408   16.0101  -33.2714 H   0  0  0  0  0  0  0  0  0  0  0  0
   -8.1297   17.2379  -31.5207 H   0  0  0  0  0  0  0  0  0  0  0  0
   -8.0050   22.3591  -29.4175 H   0  0  0  0  0  0  0  0  0  0  0  0
   -6.0462   23.7993  -28.8511 H   0  0  0  0  0  0  0  0  0  0  0  0
  1  2  1  0
  2  3  2  0
  3  4  1  0
  4  5  2  0
  5  6  1  0
  6  7  1  0
  7  8  1  0
  8  9  2  0
  9 10  1  0
 10 11  2  0
 11 12  1  0
 12 13  2  0
  5 14  1  0
 14 15  2  0
 15  2  1  0
 13  8  1  0
  1 16  1  0
  1 17  1  0
  3 18  1  0
  4 19  1  0
  7 20  1  0
  7 21  1  0
  9 22  1  0
 10 23  1  0
 11 24  1  0
 12 25  1  0
 13 26  1  0
 14 27  1  0
 15 28  1  0
M  END
>  <UniqueID>  (9) 
9

>  <SMILES>  (9) 
Nc1ccc(SCc2ccccc2)cc1

>  <Energy>  (9) 
22.845593120423818

>  <Genealogy>  (9) 
Nc1ccc(SCc2ccccc2)cc1 (3D coordinates assigned)
Nc1ccc(SCc2ccccc2)cc1 (optimized conformer: 22.845593120423818 kcal/mol)

>  <smiles>  (9) 
Nc1ccc(SCc2ccccc2)cc1

>  <score_type>  (9) 
oracle

>  <origin>  (9) 
adgpu

>  <m_score__min__energy>  (9) 
-7.5

>  <m_primary>  (9) 
energy

$$$$
9:0
     RDKit          3D

 36 37  0  0  0  0  0  0  0  0999 V2000
   -1.9210   23.8710  -27.2780 C   0  0  0  0  0  0  0  0  0  0  0  0
   -1.5160   24.6960  -28.4610 C   0  0  0  0  0  0  0  0  0  0  0  0
   -0.2920   24.9050  -28.6670 O   0  0  0  0  0  0  0  0  0  0  0  0
   -2.4790   25.2880  -29.3440 N   0  0  0  0  0  0  0  0  0  0  0  0
   -3.5340   24.6110  -30.0390 C   0  0  0  0  0  0  0  0  0  0  0  0
   -4.6930   25.3220  -30.3690 C   0  0  0  0  0  0  0  0  0  0  0  0
   -5.7310   24.7020  -31.0710 C   0  0  0  0  0  0  0  0  0  0  0  0
   -5.6090   23.3620  -31.4810 C   0  0  0  0  0  0  0  0  0  0  0  0
   -6.6710   22.6870  -32.1790 N   0  0  0  0  0  0  0  0  0  0  0  0
   -7.8060   22.0860  -31.5360 C   0  0  0  0  0  0  0  0  0  0  0  0
   -8.0960   22.3740  -30.3430 O   0  0  0  0  0  0  0  0  0  0  0  0
   -8.6910   21.1480  -32.3000 C   0  0  0  0  0  0  0  0  0  0  0  0
   -8.6910   19.4810  -31.5510 S   0  0  0  0  0  0  0  0  0  0  0  0
   -7.4320   18.8140  -32.6450 C   0  0  0  0  0  0  0  0  0  0  0  0
   -7.2090   17.4330  -32.7010 C   0  0  0  0  0  0  0  0  0  0  0  0
   -6.2240   16.9180  -33.5520 C   0  0  0  0  0  0  0  0  0  0  0  0
   -5.4670   17.7810  -34.3500 C   0  0  0  0  0  0  0  0  0  0  0  0
   -5.6960   19.1600  -34.3020 C   0  0  0  0  0  0  0  0  0  0  0  0
   -6.6810   19.6760  -33.4540 C   0  0  0  0  0  0  0  0  0  0  0  0
   -4.4430   22.6540  -31.1570 C   0  0  0  0  0  0  0  0  0  0  0  0
   -3.4060   23.2750  -30.4560 C   0  0  0  0  0  0  0  0  0  0  0  0
   -1.6592   24.4043  -26.3522 H   0  0  0  0  0  0  0  0  0  0  0  0
   -3.0068   23.6973  -27.3066 H   0  0  0  0  0  0  0  0  0  0  0  0
   -1.3943   22.9057  -27.3066 H   0  0  0  0  0  0  0  0  0  0  0  0
   -4.7883   26.3773  -30.0737 H   0  0  0  0  0  0  0  0  0  0  0  0
   -6.6472   25.2646  -31.3037 H   0  0  0  0  0  0  0  0  0  0  0  0
   -6.6450   22.6780  -33.2230 H   0  0  0  0  0  0  0  0  0  0  0  0
   -9.7180   21.5421  -32.2981 H   0  0  0  0  0  0  0  0  0  0  0  0
   -8.3081   21.0677  -33.3281 H   0  0  0  0  0  0  0  0  0  0  0  0
   -7.8074   16.7531  -32.0767 H   0  0  0  0  0  0  0  0  0  0  0  0
   -6.0454   15.8334  -33.5929 H   0  0  0  0  0  0  0  0  0  0  0  0
   -4.6910   17.3754  -35.0158 H   0  0  0  0  0  0  0  0  0  0  0  0
   -5.1013   19.8386  -34.9312 H   0  0  0  0  0  0  0  0  0  0  0  0
   -6.8661   20.7598  -33.4223 H   0  0  0  0  0  0  0  0  0  0  0  0
   -4.3437   21.6004  -31.4573 H   0  0  0  0  0  0  0  0  0  0  0  0
   -2.4860   22.7161  -30.2297 H   0  0  0  0  0  0  0  0  0  0  0  0
  1  2  1  0
  2  3  2  0
  2  4  1  0
  4  5  1  0
  5  6  2  0
  6  7  1  0
  7  8  2  0
  8  9  1  0
  9 10  1  0
 10 11  2  0
 10 12  1  0
 12 13  1  0
 13 14  1  0
 14 15  2  0
 15 16  1  0
 16 17  2  0
 17 18  1  0
 18 19  2  0
  8 20  1  0
 20 21  2  0
 21  5  1  0
 19 14  1  0
  1 22  1  0
  1 23  1  0
  1 24  1  0
  6 25  1  0
  7 26  1  0
  9 27  1  0
 12 28  1  0
 12 29  1  0
 15 30  1  0
 16 31  1  0
 17 32  1  0
 18 33  1  0
 19 34  1  0
 20 35  1  0
 21 36  1  0
M  CHG  1   4  -1
M  END
>  <UniqueID>  (10) 
10

>  <SMILES>  (10) 
CC(=O)[N-]c1ccc(NC(=O)CSc2ccccc2)cc1

>  <Energy>  (10) 
36.90260203108003

>  <Genealogy>  (10) 
CC(=O)[N-]c1ccc(NC(=O)CSc2ccccc2)cc1 (protonated)
CC(=O)[N-]c1ccc(NC(=O)CSc2ccccc2)cc1 (3D coordinates assigned)
CC(=O)[N-]c1ccc(NC(=O)CSc2ccccc2)cc1 (optimized conformer: 36.90260203108003 kcal/mol)

>  <smiles>  (10) 
CC(=O)Nc1ccc(NC(=O)CSc2ccccc2)cc1

>  <score_type>  (10) 
oracle

>  <origin>  (10) 
adgpu

>  <m_score__min__energy>  (10) 
-10.210000000000001

>  <m_primary>  (10) 
energy

$$$$
10:0
     RDKit          3D

 33 35  0  0  0  0  0  0  0  0999 V2000
   -4.2300   17.9620  -34.6060 C   0  0  0  0  0  0  0  0  0  0  0  0
   -5.0310   19.0550  -34.0480 N   0  0  0  0  0  0  0  0  0  0  0  0
   -6.4880   19.0680  -34.1960 C   0  0  0  0  0  0  0  0  0  0  0  0
   -4.3670   20.1210  -33.3450 C   0  0  0  0  0  0  0  0  0  0  0  0
   -5.0280   21.1070  -32.7030 N   0  0  0  0  0  0  0  0  0  0  0  0
   -4.1820   22.0010  -32.1240 C   0  0  0  0  0  0  0  0  0  0  0  0
   -4.6690   23.1600  -31.3480 C   0  0  0  0  0  0  0  0  0  0  0  0
   -3.8490   24.1070  -30.8460 N   0  0  0  0  0  0  0  0  0  0  0  0
   -4.6160   24.9450  -30.1660 N   0  0  0  0  0  0  0  0  0  0  0  0
   -5.8830   24.5100  -30.2530 C   0  0  0  0  0  0  0  0  0  0  0  0
   -7.1620   25.2960  -29.5950 S   0  0  0  0  0  0  0  0  0  0  0  0
   -5.9580   23.3870  -30.9940 N   0  0  0  0  0  0  0  0  0  0  0  0
   -7.1380   22.6550  -31.3660 C   0  0  0  0  0  0  0  0  0  0  0  0
   -8.2340   23.3220  -31.9330 C   0  0  0  0  0  0  0  0  0  0  0  0
   -9.3740   22.6060  -32.3070 C   0  0  0  0  0  0  0  0  0  0  0  0
   -9.4280   21.2230  -32.1120 C   0  0  0  0  0  0  0  0  0  0  0  0
   -8.3420   20.5540  -31.5380 C   0  0  0  0  0  0  0  0  0  0  0  0
   -8.4110   18.8180  -31.2940 Cl  0  0  0  0  0  0  0  0  0  0  0  0
   -7.1990   21.2680  -31.1620 C   0  0  0  0  0  0  0  0  0  0  0  0
   -2.8270   21.7200  -32.2960 C   0  0  0  0  0  0  0  0  0  0  0  0
   -2.6990   20.3140  -33.2120 S   0  0  0  0  0  0  0  0  0  0  0  0
   -3.7962   17.3700  -33.7866 H   0  0  0  0  0  0  0  0  0  0  0  0
   -4.8707   17.3169  -35.2251 H   0  0  0  0  0  0  0  0  0  0  0  0
   -3.4219   18.3787  -35.2251 H   0  0  0  0  0  0  0  0  0  0  0  0
   -6.9576   19.0722  -33.2013 H   0  0  0  0  0  0  0  0  0  0  0  0
   -6.7924   19.9689  -34.7489 H   0  0  0  0  0  0  0  0  0  0  0  0
   -6.8084   18.1727  -34.7489 H   0  0  0  0  0  0  0  0  0  0  0  0
   -4.2710   25.7950  -29.6670 H   0  0  0  0  0  0  0  0  0  0  0  0
   -8.1959   24.4110  -32.0835 H   0  0  0  0  0  0  0  0  0  0  0  0
  -10.2301   23.1314  -32.7555 H   0  0  0  0  0  0  0  0  0  0  0  0
  -10.3250   20.6604  -32.4101 H   0  0  0  0  0  0  0  0  0  0  0  0
   -6.3475   20.7416  -30.7061 H   0  0  0  0  0  0  0  0  0  0  0  0
   -1.9887   22.3133  -31.9020 H   0  0  0  0  0  0  0  0  0  0  0  0
  1  2  1  0
  2  3  1  0
  2  4  1  0
  4  5  2  0
  5  6  1  0
  6  7  1  0
  7  8  2  0
  8  9  1  0
  9 10  1  0
 10 11  2  0
 10 12  1  0
 12 13  1  0
 13 14  2  0
 14 15  1  0
 15 16  2  0
 16 17  1  0
 17 18  1  0
 17 19  2  0
  6 20  2  0
 20 21  1  0
 21  4  1  0
 12  7  1  0
 19 13  1  0
  1 22  1  0
  1 23  1  0
  1 24  1  0
  3 25  1  0
  3 26  1  0
  3 27  1  0
  9 28  1  0
 14 29  1  0
 15 30  1  0
 16 31  1  0
 19 32  1  0
 20 33  1  0
M  END
>  <UniqueID>  (11) 
11

>  <SMILES>  (11) 
CN(C)c1nc(-c2n[nH]c(=S)n2-c2cccc(Cl)c2)cs1

>  <Energy>  (11) 
104.15417942507246

>  <Genealogy>  (11) 
CN(C)c1nc(-c2n[nH]c(=S)n2-c2cccc(Cl)c2)cs1 (3D coordinates assigned)
CN(C)c1nc(-c2n[nH]c(=S)n2-c2cccc(Cl)c2)cs1 (optimized conformer: 104.15417942507246 kcal/mol)

>  <smiles>  (11) 
CN(C)c1nc(-c2n[nH]c(=S)n2-c2cccc(Cl)c2)cs1

>  <score_type>  (11) 
oracle

>  <origin>  (11) 
adgpu

>  <m_score__min__energy>  (11) 
-7.9699999999999998

>  <m_primary>  (11) 
energy

$$$$
11:0
     RDKit          3D

 25 27  0  0  0  0  0  0  0  0999 V2000
   -0.7190   21.2170  -32.4860 C   0  0  0  0  0  0  0  0  0  0  0  0
   -2.2040   21.3140  -32.3020 C   0  0  0  0  0  0  0  0  0  0  0  0
   -3.0340   20.2140  -32.6360 C   0  0  0  0  0  0  0  0  0  0  0  0
   -4.4240   20.2750  -32.4340 C   0  0  0  0  0  0  0  0  0  0  0  0
   -4.9560   21.4400  -31.8870 C   0  0  0  0  0  0  0  0  0  0  0  0
   -6.2550   21.6890  -31.6140 N   0  0  0  0  0  0  0  0  0  0  0  0
   -6.2650   22.9340  -31.0920 C   0  0  0  0  0  0  0  0  0  0  0  0
   -7.3790   23.6470  -30.6490 C   0  0  0  0  0  0  0  0  0  0  0  0
   -7.1730   24.9400  -30.1340 C   0  0  0  0  0  0  0  0  0  0  0  0
   -5.8740   25.4910  -30.0720 C   0  0  0  0  0  0  0  0  0  0  0  0
   -4.7650   24.7540  -30.5250 C   0  0  0  0  0  0  0  0  0  0  0  0
   -3.4860   25.2940  -30.4650 O   0  0  0  0  0  0  0  0  0  0  0  0
   -4.9940   23.4720  -31.0320 C   0  0  0  0  0  0  0  0  0  0  0  0
   -4.1510   22.5080  -31.5460 C   0  0  0  0  0  0  0  0  0  0  0  0
   -2.7700   22.4770  -31.7340 C   0  0  0  0  0  0  0  0  0  0  0  0
   -0.2289   21.1850  -31.5017 H   0  0  0  0  0  0  0  0  0  0  0  0
   -0.4779   20.3012  -33.0456 H   0  0  0  0  0  0  0  0  0  0  0  0
   -0.3608   22.0937  -33.0456 H   0  0  0  0  0  0  0  0  0  0  0  0
   -2.5853   19.3026  -33.0579 H   0  0  0  0  0  0  0  0  0  0  0  0
   -5.0724   19.4273  -32.7002 H   0  0  0  0  0  0  0  0  0  0  0  0
   -7.0710   21.0560  -31.7700 H   0  0  0  0  0  0  0  0  0  0  0  0
   -8.3879   23.2116  -30.7007 H   0  0  0  0  0  0  0  0  0  0  0  0
   -8.0316   25.5272  -29.7763 H   0  0  0  0  0  0  0  0  0  0  0  0
   -5.7287   26.5032  -29.6667 H   0  0  0  0  0  0  0  0  0  0  0  0
   -2.1400   23.3324  -31.4486 H   0  0  0  0  0  0  0  0  0  0  0  0
  1  2  1  0
  2  3  2  0
  3  4  1  0
  4  5  2  0
  5  6  1  0
  6  7  1  0
  7  8  2  0
  8  9  1  0
  9 10  2  0
 10 11  1  0
 11 12  1  0
 11 13  2  0
 13 14  1  0
 14 15  2  0
 15  2  1  0
 14  5  1  0
 13  7  1  0
  1 16  1  0
  1 17  1  0
  1 18  1  0
  3 19  1  0
  4 20  1  0
  6 21  1  0
  8 22  1  0
  9 23  1  0
 10 24  1  0
 15 25  1  0
M  CHG  1  12  -1
M  END
>  <UniqueID>  (12) 
12

>  <SMILES>  (12) 
Cc1ccc2[nH]c3cccc([O-])c3c2c1

>  <Energy>  (12) 
67.7864574046565

>  <Genealogy>  (12) 
Cc1ccc2[nH]c3cccc([O-])c3c2c1 (protonated)
Cc1ccc2[nH]c3cccc([O-])c3c2c1 (3D coordinates assigned)
Cc1ccc2[nH]c3cccc([O-])c3c2c1 (optimized conformer: 67.7864574046565 kcal/mol)

>  <smiles>  (12) 
Cc1ccc2[nH]c3cccc(O)c3c2c1

>  <score_type>  (12) 
oracle

>  <origin>  (12) 
adgpu

>  <m_score__min__energy>  (12) 
-8.9100000000000001

>  <m_primary>  (12) 
energy

$$$$
12:0
     RDKit          3D

 36 38  0  0  0  0  0  0  0  0999 V2000
   -4.5730   25.6830  -30.9100 O   0  0  0  0  0  0  0  0  0  0  0  0
   -3.9570   24.6940  -30.4360 C   0  0  0  0  0  0  0  0  0  0  0  0
   -2.7370   24.9160  -29.7160 N   0  0  0  0  0  0  0  0  0  0  0  0
   -1.9690   23.9170  -29.0340 C   0  0  0  0  0  0  0  0  0  0  0  0
   -0.6010   24.0980  -28.7630 C   0  0  0  0  0  0  0  0  0  0  0  0
    0.1230   23.0990  -28.1070 C   0  0  0  0  0  0  0  0  0  0  0  0
   -0.5140   21.9250  -27.6980 C   0  0  0  0  0  0  0  0  0  0  0  0
   -1.8810   21.7530  -27.9340 C   0  0  0  0  0  0  0  0  0  0  0  0
   -2.6850   20.2840  -27.4130 Cl  0  0  0  0  0  0  0  0  0  0  0  0
   -2.6090   22.7530  -28.5910 C   0  0  0  0  0  0  0  0  0  0  0  0
   -4.5120   23.3810  -30.6100 N   0  0  0  0  0  0  0  0  0  0  0  0
   -4.0880   22.4070  -31.5770 C   0  0  0  0  0  0  0  0  0  0  0  0
   -2.7150   22.2930  -31.8320 C   0  0  0  0  0  0  0  0  0  0  0  0
   -2.2320   21.3080  -32.6930 C   0  0  0  0  0  0  0  0  0  0  0  0
   -3.1180   20.4350  -33.3230 C   0  0  0  0  0  0  0  0  0  0  0  0
   -4.4930   20.5620  -33.1150 C   0  0  0  0  0  0  0  0  0  0  0  0
   -4.9990   21.5570  -32.2580 C   0  0  0  0  0  0  0  0  0  0  0  0
   -6.4700   21.7230  -32.1510 C   0  0  0  0  0  0  0  0  0  0  0  0
   -7.0380   23.0090  -32.1040 C   0  0  0  0  0  0  0  0  0  0  0  0
   -8.4240   23.1650  -32.0030 C   0  0  0  0  0  0  0  0  0  0  0  0
   -9.2520   22.0430  -31.9350 C   0  0  0  0  0  0  0  0  0  0  0  0
   -8.6950   20.7610  -31.9620 C   0  0  0  0  0  0  0  0  0  0  0  0
   -7.3110   20.5990  -32.0640 C   0  0  0  0  0  0  0  0  0  0  0  0
   -0.0996   25.0283  -29.0682 H   0  0  0  0  0  0  0  0  0  0  0  0
    1.1968   23.2373  -27.9123 H   0  0  0  0  0  0  0  0  0  0  0  0
    0.0601   21.1359  -27.1903 H   0  0  0  0  0  0  0  0  0  0  0  0
   -3.6882   22.6234  -28.7597 H   0  0  0  0  0  0  0  0  0  0  0  0
   -2.0115   22.9869  -31.3486 H   0  0  0  0  0  0  0  0  0  0  0  0
   -1.1508   21.2197  -32.8753 H   0  0  0  0  0  0  0  0  0  0  0  0
   -2.7333   19.6451  -33.9848 H   0  0  0  0  0  0  0  0  0  0  0  0
   -5.1869   19.8781  -33.6257 H   0  0  0  0  0  0  0  0  0  0  0  0
   -6.3889   23.8961  -32.1469 H   0  0  0  0  0  0  0  0  0  0  0  0
   -8.8626   24.1734  -31.9771 H   0  0  0  0  0  0  0  0  0  0  0  0
  -10.3424   22.1676  -31.8602 H   0  0  0  0  0  0  0  0  0  0  0  0
   -9.3479   19.8777  -31.9028 H   0  0  0  0  0  0  0  0  0  0  0  0
   -6.8773   19.5882  -32.0763 H   0  0  0  0  0  0  0  0  0  0  0  0
  1  2  2  0
  2  3  1  0
  3  4  1  0
  4  5  2  0
  5  6  1  0
  6  7  2  0
  7  8  1  0
  8  9  1  0
  8 10  2  0
  2 11  1  0
 11 12  1  0
 12 13  2  0
 13 14  1  0
 14 15  2  0
 15 16  1  0
 16 17  2  0
 17 18  1  0
 18 19  2  0
 19 20  1  0
 20 21  2  0
 21 22  1  0
 22 23  2  0
 10  4  1  0
 17 12  1  0
 23 18  1  0
  5 24  1  0
  6 25  1  0
  7 26  1  0
 10 27  1  0
 13 28  1  0
 14 29  1  0
 15 30  1  0
 16 31  1  0
 19 32  1  0
 20 33  1  0
 21 34  1  0
 22 35  1  0
 23 36  1  0
M  CHG  2   3  -1  11  -1
M  END
>  <UniqueID>  (13) 
13

>  <SMILES>  (13) 
O=C([N-]c1cccc(Cl)c1)[N-]c1ccccc1-c1ccccc1

>  <Energy>  (13) 
52.948528201302416

>  <Genealogy>  (13) 
O=C([N-]c1cccc(Cl)c1)[N-]c1ccccc1-c1ccccc1 (protonated)
O=C([N-]c1cccc(Cl)c1)[N-]c1ccccc1-c1ccccc1 (3D coordinates assigned)
O=C([N-]c1cccc(Cl)c1)[N-]c1ccccc1-c1ccccc1 (optimized conformer: 52.948528201302416 kcal/mol)

>  <smiles>  (13) 
O=C(Nc1cccc(Cl)c1)Nc1ccccc1-c1ccccc1

>  <score_type>  (13) 
oracle

>  <origin>  (13) 
adgpu

>  <m_score__min__energy>  (13) 
-11.08

>  <m_primary>  (13) 
energy

$$$$
13:0
     RDKit          3D

 41 43  0  0  0  0  0  0  0  0999 V2000
   -5.6160   26.3080  -30.3360 O   0  0  0  0  0  0  0  0  0  0  0  0
   -5.0530   25.2220  -30.6390 C   0  0  0  0  0  0  0  0  0  0  0  0
   -3.6390   25.0800  -30.4690 N   0  0  0  0  0  0  0  0  0  0  0  0
   -3.0230   24.0210  -29.6840 C   0  0  0  0  0  0  0  0  0  0  0  0
   -2.1880   24.6400  -28.6020 C   0  0  0  0  0  0  0  0  0  0  0  0
   -2.7200   24.8580  -27.3230 C   0  0  0  0  0  0  0  0  0  0  0  0
   -1.9150   25.3890  -26.3130 C   0  0  0  0  0  0  0  0  0  0  0  0
   -0.5770   25.6780  -26.5870 C   0  0  0  0  0  0  0  0  0  0  0  0
   -0.0680   25.4440  -27.8250 N   0  0  0  0  0  0  0  0  0  0  0  0
   -0.8340   24.9330  -28.8280 C   0  0  0  0  0  0  0  0  0  0  0  0
   -5.8490   24.0830  -31.1470 C   0  0  0  0  0  0  0  0  0  0  0  0
   -7.2550   24.1230  -31.1350 C   0  0  0  0  0  0  0  0  0  0  0  0
   -7.9950   23.0240  -31.5790 C   0  0  0  0  0  0  0  0  0  0  0  0
   -7.3450   21.8740  -32.0350 C   0  0  0  0  0  0  0  0  0  0  0  0
   -5.9450   21.8230  -32.0670 C   0  0  0  0  0  0  0  0  0  0  0  0
   -5.1110   20.3670  -32.6130 S   0  0  0  0  0  0  0  0  0  0  0  0
   -5.5510   19.9940  -34.0000 O   0  0  0  0  0  0  0  0  0  0  0  0
   -5.4550   19.2260  -31.6970 O   0  0  0  0  0  0  0  0  0  0  0  0
   -3.3930   20.6160  -32.5530 N   0  0  0  0  0  0  0  0  0  0  0  0
   -2.6050   20.8640  -31.3800 C   0  0  0  0  0  0  0  0  0  0  0  0
   -3.0940   20.6500  -30.0780 C   0  0  0  0  0  0  0  0  0  0  0  0
   -2.2790   20.8920  -28.9680 C   0  0  0  0  0  0  0  0  0  0  0  0
   -0.9750   21.3650  -29.1440 C   0  0  0  0  0  0  0  0  0  0  0  0
    0.0460   21.6740  -27.7520 Cl  0  0  0  0  0  0  0  0  0  0  0  0
   -0.4900   21.6010  -30.4340 C   0  0  0  0  0  0  0  0  0  0  0  0
   -1.3030   21.3580  -31.5440 C   0  0  0  0  0  0  0  0  0  0  0  0
   -5.2050   22.9310  -31.6310 C   0  0  0  0  0  0  0  0  0  0  0  0
   -3.8055   23.3931  -29.2328 H   0  0  0  0  0  0  0  0  0  0  0  0
   -2.3899   23.3972  -30.3321 H   0  0  0  0  0  0  0  0  0  0  0  0
   -3.7715   24.6107  -27.1153 H   0  0  0  0  0  0  0  0  0  0  0  0
   -2.3307   25.5775  -25.3122 H   0  0  0  0  0  0  0  0  0  0  0  0
    0.0667   26.0961  -25.7990 H   0  0  0  0  0  0  0  0  0  0  0  0
   -0.3907   24.7493  -29.8178 H   0  0  0  0  0  0  0  0  0  0  0  0
   -7.7742   25.0233  -30.7746 H   0  0  0  0  0  0  0  0  0  0  0  0
   -9.0942   23.0642  -31.5695 H   0  0  0  0  0  0  0  0  0  0  0  0
   -7.9336   21.0070  -32.3695 H   0  0  0  0  0  0  0  0  0  0  0  0
   -4.1233   20.2903  -29.9327 H   0  0  0  0  0  0  0  0  0  0  0  0
   -2.6645   20.7099  -27.9540 H   0  0  0  0  0  0  0  0  0  0  0  0
    0.5334   21.9786  -30.5752 H   0  0  0  0  0  0  0  0  0  0  0  0
   -0.9183   21.5559  -32.5554 H   0  0  0  0  0  0  0  0  0  0  0  0
   -4.1061   22.8985  -31.6681 H   0  0  0  0  0  0  0  0  0  0  0  0
  1  2  2  0
  2  3  1  0
  3  4  1  0
  4  5  1  0
  5  6  2  0
  6  7  1  0
  7  8  2  0
  8  9  1  0
  9 10  2  0
  2 11  1  0
 11 12  2  0
 12 13  1  0
 13 14  2  0
 14 15  1  0
 15 16  1  0
 16 17  2  0
 16 18  2  0
 16 19  1  0
 19 20  1  0
 20 21  2  0
 21 22  1  0
 22 23  2  0
 23 24  1  0
 23 25  1  0
 25 26  2  0
 15 27  2  0
 10  5  1  0
 27 11  1  0
 26 20  1  0
  4 28  1  0
  4 29  1  0
  6 30  1  0
  7 31  1  0
  8 32  1  0
 10 33  1  0
 12 34  1  0
 13 35  1  0
 14 36  1  0
 21 37  1  0
 22 38  1  0
 25 39  1  0
 26 40  1  0
 27 41  1  0
M  CHG  2   3  -1  19  -1
M  END
>  <UniqueID>  (14) 
14

>  <SMILES>  (14) 
O=C([N-]Cc1cccnc1)c1cccc(S(=O)(=O)[N-]c2ccc(Cl)cc2)c1

>  <Energy>  (14) 
45.44818318844261

>  <Genealogy>  (14) 
O=C([N-]Cc1cccnc1)c1cccc(S(=O)(=O)[N-]c2ccc(Cl)cc2)c1 (protonated)
O=C([N-]Cc1cccnc1)c1cccc(S(=O)(=O)[N-]c2ccc(Cl)cc2)c1 (3D coordinates assigned)
O=C([N-]Cc1cccnc1)c1cccc(S(=O)(=O)[N-]c2ccc(Cl)cc2)c1 (optimized conformer: 45.44818318844261 kcal/mol)

>  <smiles>  (14) 
O=C(NCc1cccnc1)c1cccc(S(=O)(=O)Nc2ccc(Cl)cc2)c1

>  <score_type>  (14) 
oracle

>  <origin>  (14) 
adgpu

>  <m_score__min__energy>  (14) 
-10.52

>  <m_primary>  (14) 
energy

$$$$
14:0
     RDKit          3D

 32 34  0  0  0  0  0  0  0  0999 V2000
   -7.9430   16.3370  -33.1780 H   0  0  0  0  0  0  0  0  0  0  0  0
   -7.1150   16.0120  -33.7180 N   0  0  0  0  0  0  0  0  0  0  0  0
   -6.0090   16.6700  -33.9110 C   0  0  0  0  0  0  0  0  0  0  0  0
   -5.7860   17.9770  -33.3840 C   0  0  0  0  0  0  0  0  0  0  0  0
   -6.7410   18.6800  -32.6120 C   0  0  0  0  0  0  0  0  0  0  0  0
   -7.7088   18.2070  -32.3890 H   0  0  0  0  0  0  0  0  0  0  0  0
   -6.4760   19.9710  -32.1250 C   0  0  0  0  0  0  0  0  0  0  0  0
   -7.5430   20.6810  -31.3290 C   0  0  0  0  0  0  0  0  0  0  0  0
   -7.3468   20.5504  -30.2545 H   0  0  0  0  0  0  0  0  0  0  0  0
   -7.5325   21.7528  -31.5760 H   0  0  0  0  0  0  0  0  0  0  0  0
   -8.5276   20.2574  -31.5760 H   0  0  0  0  0  0  0  0  0  0  0  0
   -5.2180   20.5670  -32.3730 C   0  0  0  0  0  0  0  0  0  0  0  0
   -4.8640   21.9020  -31.8400 C   0  0  0  0  0  0  0  0  0  0  0  0
   -5.7740   22.9690  -31.9260 C   0  0  0  0  0  0  0  0  0  0  0  0
   -6.7547   22.8156  -32.4001 H   0  0  0  0  0  0  0  0  0  0  0  0
   -5.4380   24.2260  -31.4110 C   0  0  0  0  0  0  0  0  0  0  0  0
   -6.3240   25.2490  -31.5020 F   0  0  0  0  0  0  0  0  0  0  0  0
   -4.1950   24.4240  -30.7990 C   0  0  0  0  0  0  0  0  0  0  0  0
   -3.8620   25.6730  -30.2890 O   0  0  0  0  0  0  0  0  0  0  0  0
   -3.2890   23.3620  -30.7010 C   0  0  0  0  0  0  0  0  0  0  0  0
   -2.0840   23.5490  -30.1060 F   0  0  0  0  0  0  0  0  0  0  0  0
   -3.6230   22.1050  -31.2150 C   0  0  0  0  0  0  0  0  0  0  0  0
   -2.9103   21.2715  -31.1293 H   0  0  0  0  0  0  0  0  0  0  0  0
   -4.2730   19.8830  -33.1470 C   0  0  0  0  0  0  0  0  0  0  0  0
   -3.3040   20.3566  -33.3632 H   0  0  0  0  0  0  0  0  0  0  0  0
   -4.5440   18.6040  -33.6500 C   0  0  0  0  0  0  0  0  0  0  0  0
   -3.5780   17.9440  -34.4160 C   0  0  0  0  0  0  0  0  0  0  0  0
   -2.6138   18.4292  -34.6278 H   0  0  0  0  0  0  0  0  0  0  0  0
   -3.8430   16.6720  -34.9080 C   0  0  0  0  0  0  0  0  0  0  0  0
   -3.0846   16.1492  -35.5093 H   0  0  0  0  0  0  0  0  0  0  0  0
   -5.0320   16.0710  -34.6510 N   0  0  0  0  0  0  0  0  0  0  0  0
   -5.1930   15.1130  -35.0390 H   0  0  0  0  0  0  0  0  0  0  0  0
  1  2  1  0
  2  3  2  0
  3  4  1  0
  4  5  2  0
  5  6  1  0
  5  7  1  0
  7  8  1  0
  8  9  1  0
  8 10  1  0
  8 11  1  0
  7 12  2  0
 12 13  1  0
 13 14  2  0
 14 15  1  0
 14 16  1  0
 16 17  1  0
 16 18  2  0
 18 19  1  0
 18 20  1  0
 20 21  1  0
 20 22  2  0
 22 23  1  0
 12 24  1  0
 24 25  1  0
 24 26  2  0
 26 27  1  0
 27 28  1  0
 27 29  2  0
 29 30  1  0
 29 31  1  0
 31 32  1  0
 31  3  1  0
 26  4  1  0
 22 13  1  0
M  CHG  1  19  -1
M  END
>  <UniqueID>  (15) 
15

>  <SMILES>  (15) 
[H]/N=c1/[nH]ccc2cc(-c3cc(F)c([O-])c(F)c3)c(C)cc12

>  <Energy>  (15) 
51.05611017052581

>  <Genealogy>  (15) 
Cc1cc2c(=N)[nH]ccc2cc1-c1cc(F)c([O-])c(F)c1 (protonated)
[H]/N=c1/[nH]ccc2cc(-c3cc(F)c([O-])c(F)c3)c(C)cc12 (cis-trans isomerization)
[H]/N=c1/[nH]ccc2cc(-c3cc(F)c([O-])c(F)c3)c(C)cc12 (3D coordinates assigned)
[H]/N=c1/[nH]ccc2cc(-c3cc(F)c([O-])c(F)c3)c(C)cc12 (optimized conformer: 51.05611017052581 kcal/mol)

>  <smiles>  (15) 
Cc1cc2c(=N)[nH]ccc2cc1-c1cc(F)c(O)c(F)c1

>  <score_type>  (15) 
oracle

>  <origin>  (15) 
adgpu

>  <m_score__min__energy>  (15) 
-9.6199999999999992

>  <m_primary>  (15) 
energy

$$$$
15:0
     RDKit          3D

 41 43  0  0  0  0  0  0  0  0999 V2000
   -3.9540   17.3510  -34.4270 C   0  0  0  0  0  0  0  0  0  0  0  0
   -5.3300   17.5820  -34.7160 O   0  0  0  0  0  0  0  0  0  0  0  0
   -6.2240   18.2250  -33.8470 C   0  0  0  0  0  0  0  0  0  0  0  0
   -7.0580   17.5150  -32.9610 C   0  0  0  0  0  0  0  0  0  0  0  0
   -7.9370   18.2030  -32.1180 C   0  0  0  0  0  0  0  0  0  0  0  0
   -7.9920   19.6040  -32.1410 C   0  0  0  0  0  0  0  0  0  0  0  0
   -8.9810   20.3400  -31.2730 C   0  0  0  0  0  0  0  0  0  0  0  0
   -8.9730   21.8440  -31.5640 C   0  0  0  0  0  0  0  0  0  0  0  0
   -7.8530   22.4960  -30.8840 N   0  0  0  0  0  0  0  0  0  0  0  0
   -6.9530   23.3890  -31.5590 C   0  0  0  0  0  0  0  0  0  0  0  0
   -7.2210   23.8100  -32.7170 O   0  0  0  0  0  0  0  0  0  0  0  0
   -5.7040   23.8070  -30.9120 C   0  0  0  0  0  0  0  0  0  0  0  0
   -4.9930   24.8930  -31.2690 N   0  0  0  0  0  0  0  0  0  0  0  0
   -3.9400   24.9270  -30.4670 N   0  0  0  0  0  0  0  0  0  0  0  0
   -4.0490   23.8590  -29.6510 C   0  0  0  0  0  0  0  0  0  0  0  0
   -3.0800   23.5110  -28.5940 C   0  0  0  0  0  0  0  0  0  0  0  0
   -2.3940   24.5240  -27.9040 C   0  0  0  0  0  0  0  0  0  0  0  0
   -1.4750   24.1990  -26.9010 C   0  0  0  0  0  0  0  0  0  0  0  0
   -1.2350   22.8610  -26.5790 C   0  0  0  0  0  0  0  0  0  0  0  0
   -1.9120   21.8450  -27.2590 C   0  0  0  0  0  0  0  0  0  0  0  0
   -2.8320   22.1660  -28.2640 C   0  0  0  0  0  0  0  0  0  0  0  0
   -5.1320   23.1680  -29.9200 O   0  0  0  0  0  0  0  0  0  0  0  0
   -7.1640   20.3100  -33.0290 C   0  0  0  0  0  0  0  0  0  0  0  0
   -6.2880   19.6230  -33.8720 C   0  0  0  0  0  0  0  0  0  0  0  0
   -3.8074   17.3264  -33.3371 H   0  0  0  0  0  0  0  0  0  0  0  0
   -3.6449   16.3884  -34.8604 H   0  0  0  0  0  0  0  0  0  0  0  0
   -3.3475   18.1599  -34.8604 H   0  0  0  0  0  0  0  0  0  0  0  0
   -7.0178   16.4161  -32.9320 H   0  0  0  0  0  0  0  0  0  0  0  0
   -8.5891   17.6416  -31.4328 H   0  0  0  0  0  0  0  0  0  0  0  0
   -9.9891   19.9441  -31.4651 H   0  0  0  0  0  0  0  0  0  0  0  0
   -8.6954   20.1904  -30.2213 H   0  0  0  0  0  0  0  0  0  0  0  0
   -8.8782   22.0015  -32.6485 H   0  0  0  0  0  0  0  0  0  0  0  0
   -9.9131   22.2807  -31.1959 H   0  0  0  0  0  0  0  0  0  0  0  0
   -7.6190   22.1760  -29.9170 H   0  0  0  0  0  0  0  0  0  0  0  0
   -2.5806   25.5789  -28.1539 H   0  0  0  0  0  0  0  0  0  0  0  0
   -0.9408   24.9976  -26.3653 H   0  0  0  0  0  0  0  0  0  0  0  0
   -0.5125   22.6069  -25.7895 H   0  0  0  0  0  0  0  0  0  0  0  0
   -1.7217   20.7920  -27.0042 H   0  0  0  0  0  0  0  0  0  0  0  0
   -3.3629   21.3639  -28.7976 H   0  0  0  0  0  0  0  0  0  0  0  0
   -7.2057   21.4088  -33.0606 H   0  0  0  0  0  0  0  0  0  0  0  0
   -5.6422   20.1858  -34.5621 H   0  0  0  0  0  0  0  0  0  0  0  0
  1  2  1  0
  2  3  1  0
  3  4  2  0
  4  5  1  0
  5  6  2  0
  6  7  1  0
  7  8  1  0
  8  9  1  0
  9 10  1  0
 10 11  2  0
 10 12  1  0
 12 13  2  0
 13 14  1  0
 14 15  2  0
 15 16  1  0
 16 17  2  0
 17 18  1  0
 18 19  2  0
 19 20  1  0
 20 21  2  0
 15 22  1  0
  6 23  1  0
 23 24  2  0
 24  3  1  0
 22 12  1  0
 21 16  1  0
  1 25  1  0
  1 26  1  0
  1 27  1  0
  4 28  1  0
  5 29  1  0
  7 30  1  0
  7 31  1  0
  8 32  1  0
  8 33  1  0
  9 34  1  0
 17 35  1  0
 18 36  1  0
 19 37  1  0
 20 38  1  0
 21 39  1  0
 23 40  1  0
 24 41  1  0
M  END
>  <UniqueID>  (16) 
16

>  <SMILES>  (16) 
COc1ccc(CCNC(=O)c2nnc(-c3ccccc3)o2)cc1

>  <Energy>  (16) 
70.99730150911411

>  <Genealogy>  (16) 
COc1ccc(CCNC(=O)c2nnc(-c3ccccc3)o2)cc1 (3D coordinates assigned)
COc1ccc(CCNC(=O)c2nnc(-c3ccccc3)o2)cc1 (optimized conformer: 70.99730150911411 kcal/mol)

>  <smiles>  (16) 
COc1ccc(CCNC(=O)c2nnc(-c3ccccc3)o2)cc1

>  <score_type>  (16) 
oracle

>  <origin>  (16) 
adgpu

>  <m_score__min__energy>  (16) 
-8.4900000000000002

>  <m_primary>  (16) 
energy

$$$$
16:0
     RDKit          3D

 28 29  0  0  0  0  0  0  0  0999 V2000
   -1.3130   26.0270  -29.3410 O   0  0  0  0  0  0  0  0  0  0  0  0
   -0.9310   25.3360  -28.1960 C   0  0  0  0  0  0  0  0  0  0  0  0
    0.1570   25.8030  -27.4510 C   0  0  0  0  0  0  0  0  0  0  0  0
    0.5670   25.1260  -26.3010 C   0  0  0  0  0  0  0  0  0  0  0  0
   -0.1150   23.9800  -25.8870 C   0  0  0  0  0  0  0  0  0  0  0  0
    0.3970   23.1320  -24.4380 Cl  0  0  0  0  0  0  0  0  0  0  0  0
   -1.2070   23.5080  -26.6240 C   0  0  0  0  0  0  0  0  0  0  0  0
   -1.6260   24.1780  -27.7910 C   0  0  0  0  0  0  0  0  0  0  0  0
   -2.7440   23.7050  -28.5700 N   0  0  0  0  0  0  0  0  0  0  0  0
   -4.1470   23.8420  -28.1720 C   0  0  0  0  0  0  0  0  0  0  0  0
   -5.0500   23.8480  -29.3830 C   0  0  0  0  0  0  0  0  0  0  0  0
   -6.2300   23.0830  -29.3680 C   0  0  0  0  0  0  0  0  0  0  0  0
   -7.0790   23.0650  -30.4780 C   0  0  0  0  0  0  0  0  0  0  0  0
   -6.7550   23.8010  -31.6180 C   0  0  0  0  0  0  0  0  0  0  0  0
   -5.5770   24.5510  -31.6540 C   0  0  0  0  0  0  0  0  0  0  0  0
   -4.7170   24.5750  -30.5460 C   0  0  0  0  0  0  0  0  0  0  0  0
   -3.5370   25.3170  -30.6030 O   0  0  0  0  0  0  0  0  0  0  0  0
    0.6923   26.7084  -27.7730 H   0  0  0  0  0  0  0  0  0  0  0  0
    1.4263   25.4949  -25.7217 H   0  0  0  0  0  0  0  0  0  0  0  0
   -1.7425   22.6071  -26.2899 H   0  0  0  0  0  0  0  0  0  0  0  0
   -2.5590   23.1930  -29.4630 H   0  0  0  0  0  0  0  0  0  0  0  0
   -4.4214   22.9983  -27.5217 H   0  0  0  0  0  0  0  0  0  0  0  0
   -4.2700   24.7945  -27.6358 H   0  0  0  0  0  0  0  0  0  0  0  0
   -6.4868   22.4939  -28.4752 H   0  0  0  0  0  0  0  0  0  0  0  0
   -8.0037   22.4698  -30.4528 H   0  0  0  0  0  0  0  0  0  0  0  0
   -7.4272   23.7908  -32.4886 H   0  0  0  0  0  0  0  0  0  0  0  0
   -5.3223   25.1261  -32.5564 H   0  0  0  0  0  0  0  0  0  0  0  0
   -3.0970   25.6800  -29.7660 H   0  0  0  0  0  0  0  0  0  0  0  0
  1  2  1  0
  2  3  2  0
  3  4  1  0
  4  5  2  0
  5  6  1  0
  5  7  1  0
  7  8  2  0
  8  9  1  0
  9 10  1  0
 10 11  1  0
 11 12  2  0
 12 13  1  0
 13 14  2  0
 14 15  1  0
 15 16  2  0
 16 17  1  0
  8  2  1  0
 16 11  1  0
  3 18  1  0
  4 19  1  0
  7 20  1  0
  9 21  1  0
 10 22  1  0
 10 23  1  0
 12 24  1  0
 13 25  1  0
 14 26  1  0
 15 27  1  0
 17 28  1  0
M  CHG  1   1  -1
M  END
>  <UniqueID>  (17) 
17

>  <SMILES>  (17) 
[O-]c1ccc(Cl)cc1NCc1ccccc1O

>  <Energy>  (17) 
29.096090478611018

>  <Genealogy>  (17) 
[O-]c1ccc(Cl)cc1NCc1ccccc1O (protonated)
[O-]c1ccc(Cl)cc1NCc1ccccc1O (3D coordinates assigned)
[O-]c1ccc(Cl)cc1NCc1ccccc1O (optimized conformer: 29.096090478611018 kcal/mol)

>  <smiles>  (17) 
Oc1ccccc1CNc1cc(Cl)ccc1O

>  <score_type>  (17) 
oracle

>  <origin>  (17) 
adgpu

>  <m_score__min__energy>  (17) 
-10.43

>  <m_primary>  (17) 
energy

$$$$
17:0
     RDKit          3D

 39 41  0  0  0  0  0  0  0  0999 V2000
   -5.8010   25.0150  -30.1630 C   0  0  0  0  0  0  0  0  0  0  0  0
   -4.5930   24.7180  -30.8570 O   0  0  0  0  0  0  0  0  0  0  0  0
   -4.1040   23.4210  -31.0910 C   0  0  0  0  0  0  0  0  0  0  0  0
   -4.6140   22.6140  -32.1280 C   0  0  0  0  0  0  0  0  0  0  0  0
   -4.0870   21.3420  -32.3610 C   0  0  0  0  0  0  0  0  0  0  0  0
   -3.0470   20.8590  -31.5660 C   0  0  0  0  0  0  0  0  0  0  0  0
   -2.5370   19.6250  -31.7970 F   0  0  0  0  0  0  0  0  0  0  0  0
   -2.5350   21.6440  -30.5320 C   0  0  0  0  0  0  0  0  0  0  0  0
   -3.0600   22.9230  -30.2770 C   0  0  0  0  0  0  0  0  0  0  0  0
   -2.5060   23.7280  -29.1620 C   0  0  0  0  0  0  0  0  0  0  0  0
   -3.2770   24.0160  -28.0260 C   0  0  0  0  0  0  0  0  0  0  0  0
   -2.7370   24.7680  -26.9830 C   0  0  0  0  0  0  0  0  0  0  0  0
   -1.4110   25.2230  -27.0690 C   0  0  0  0  0  0  0  0  0  0  0  0
   -0.8270   26.0190  -26.0210 N   0  0  0  0  0  0  0  0  0  0  0  0
   -0.1120   25.4030  -24.8970 C   0  0  0  0  0  0  0  0  0  0  0  0
   -0.4880   26.0920  -23.5680 C   0  0  0  0  0  0  0  0  0  0  0  0
   -0.8980   27.5030  -23.7180 N   0  0  0  0  0  0  0  0  0  0  0  0
   -0.2850   28.1480  -24.8860 C   0  0  0  0  0  0  0  0  0  0  0  0
   -0.7660   27.4770  -26.1810 C   0  0  0  0  0  0  0  0  0  0  0  0
   -0.6840   24.9390  -28.1860 N   0  0  0  0  0  0  0  0  0  0  0  0
   -1.1890   24.2090  -29.2150 C   0  0  0  0  0  0  0  0  0  0  0  0
   -5.6213   24.9708  -29.0787 H   0  0  0  0  0  0  0  0  0  0  0  0
   -6.1428   26.0239  -30.4372 H   0  0  0  0  0  0  0  0  0  0  0  0
   -6.5717   24.2796  -30.4372 H   0  0  0  0  0  0  0  0  0  0  0  0
   -5.4335   22.9891  -32.7586 H   0  0  0  0  0  0  0  0  0  0  0  0
   -4.4924   20.7198  -33.1725 H   0  0  0  0  0  0  0  0  0  0  0  0
   -1.7131   21.2585  -29.9108 H   0  0  0  0  0  0  0  0  0  0  0  0
   -4.3111   23.6474  -27.9576 H   0  0  0  0  0  0  0  0  0  0  0  0
   -3.3462   25.0035  -26.0979 H   0  0  0  0  0  0  0  0  0  0  0  0
   -0.3791   24.3375  -24.8395 H   0  0  0  0  0  0  0  0  0  0  0  0
    0.9697   25.5170  -25.0608 H   0  0  0  0  0  0  0  0  0  0  0  0
   -1.3214   25.5360  -23.1138 H   0  0  0  0  0  0  0  0  0  0  0  0
    0.4155   26.0880  -22.9406 H   0  0  0  0  0  0  0  0  0  0  0  0
   -1.9400   27.5420  -23.8270 H   0  0  0  0  0  0  0  0  0  0  0  0
   -0.5664   29.2113  -24.9024 H   0  0  0  0  0  0  0  0  0  0  0  0
    0.8082   28.0478  -24.8166 H   0  0  0  0  0  0  0  0  0  0  0  0
   -1.7682   27.8545  -26.4321 H   0  0  0  0  0  0  0  0  0  0  0  0
   -0.0549   27.7139  -26.9861 H   0  0  0  0  0  0  0  0  0  0  0  0
   -0.5625   23.9943  -30.0933 H   0  0  0  0  0  0  0  0  0  0  0  0
  1  2  1  0
  2  3  1  0
  3  4  2  0
  4  5  1  0
  5  6  2  0
  6  7  1  0
  6  8  1  0
  8  9  2  0
  9 10  1  0
 10 11  2  0
 11 12  1  0
 12 13  2  0
 13 14  1  0
 14 15  1  0
 15 16  1  0
 16 17  1  0
 17 18  1  0
 18 19  1  0
 13 20  1  0
 20 21  2  0
  9  3  1  0
 21 10  1  0
 19 14  1  0
  1 22  1  0
  1 23  1  0
  1 24  1  0
  4 25  1  0
  5 26  1  0
  8 27  1  0
 11 28  1  0
 12 29  1  0
 15 30  1  0
 15 31  1  0
 16 32  1  0
 16 33  1  0
 17 34  1  0
 18 35  1  0
 18 36  1  0
 19 37  1  0
 19 38  1  0
 21 39  1  0
M  END
>  <UniqueID>  (18) 
18

>  <SMILES>  (18) 
COc1ccc(F)cc1-c1ccc(N2CCNCC2)nc1

>  <Energy>  (18) 
54.47371518967883

>  <Genealogy>  (18) 
COc1ccc(F)cc1-c1ccc(N2CCNCC2)nc1 (3D coordinates assigned)
COc1ccc(F)cc1-c1ccc(N2CCNCC2)nc1 (nonaromatic ring conformer: 54.47371518967883 kcal/mol)

>  <smiles>  (18) 
COc1ccc(F)cc1-c1ccc(N2CCNCC2)nc1

>  <score_type>  (18) 
oracle

>  <origin>  (18) 
adgpu

>  <m_score__min__energy>  (18) 
-6.8499999999999996

>  <m_primary>  (18) 
energy

$$$$
18:0
     RDKit          3D

 29 30  0  0  0  0  0  0  0  0999 V2000
   -9.1361   22.6264  -30.2072 H   0  0  0  0  0  0  0  0  0  0  0  0
   -8.2350   22.1830  -30.6560 C   0  0  0  0  0  0  0  0  0  0  0  0
   -8.3400   20.9960  -31.1850 N   0  0  0  0  0  0  0  0  0  0  0  0
   -7.3540   20.2980  -31.9620 C   0  0  0  0  0  0  0  0  0  0  0  0
   -6.7350   20.8980  -33.0740 C   0  0  0  0  0  0  0  0  0  0  0  0
   -6.9946   21.9292  -33.3554 H   0  0  0  0  0  0  0  0  0  0  0  0
   -5.7920   20.1890  -33.8220 C   0  0  0  0  0  0  0  0  0  0  0  0
   -5.2967   20.6692  -34.6788 H   0  0  0  0  0  0  0  0  0  0  0  0
   -5.4770   18.8700  -33.4830 C   0  0  0  0  0  0  0  0  0  0  0  0
   -4.7281   18.3153  -34.0673 H   0  0  0  0  0  0  0  0  0  0  0  0
   -6.1150   18.2560  -32.4000 C   0  0  0  0  0  0  0  0  0  0  0  0
   -5.7310   16.5950  -31.9840 Cl  0  0  0  0  0  0  0  0  0  0  0  0
   -7.0590   18.9650  -31.6500 C   0  0  0  0  0  0  0  0  0  0  0  0
   -7.5724   18.4730  -30.8107 H   0  0  0  0  0  0  0  0  0  0  0  0
   -6.9840   22.9740  -30.6190 C   0  0  0  0  0  0  0  0  0  0  0  0
   -7.0580   24.3720  -30.6660 C   0  0  0  0  0  0  0  0  0  0  0  0
   -8.0382   24.8654  -30.7420 H   0  0  0  0  0  0  0  0  0  0  0  0
   -5.8950   25.1430  -30.6170 C   0  0  0  0  0  0  0  0  0  0  0  0
   -5.9613   26.2398  -30.6674 H   0  0  0  0  0  0  0  0  0  0  0  0
   -4.6460   24.5240  -30.5040 C   0  0  0  0  0  0  0  0  0  0  0  0
   -3.4950   25.3030  -30.4660 O   0  0  0  0  0  0  0  0  0  0  0  0
   -4.5520   23.1280  -30.4270 C   0  0  0  0  0  0  0  0  0  0  0  0
   -3.2800   22.5450  -30.3150 O   0  0  0  0  0  0  0  0  0  0  0  0
   -2.6320   21.8190  -31.3540 C   0  0  0  0  0  0  0  0  0  0  0  0
   -1.9611   21.0673  -30.9127 H   0  0  0  0  0  0  0  0  0  0  0  0
   -3.3872   21.3163  -31.9761 H   0  0  0  0  0  0  0  0  0  0  0  0
   -2.0471   22.5124  -31.9761 H   0  0  0  0  0  0  0  0  0  0  0  0
   -5.7290   22.3570  -30.4650 C   0  0  0  0  0  0  0  0  0  0  0  0
   -5.6671   21.2626  -30.3735 H   0  0  0  0  0  0  0  0  0  0  0  0
  1  2  1  0
  2  3  2  0
  3  4  1  0
  4  5  2  0
  5  6  1  0
  5  7  1  0
  7  8  1  0
  7  9  2  0
  9 10  1  0
  9 11  1  0
 11 12  1  0
 11 13  2  0
 13 14  1  0
  2 15  1  0
 15 16  2  0
 16 17  1  0
 16 18  1  0
 18 19  1  0
 18 20  2  0
 20 21  1  0
 20 22  1  0
 22 23  1  0
 23 24  1  0
 24 25  1  0
 24 26  1  0
 24 27  1  0
 22 28  2  0
 28 29  1  0
 13  4  1  0
 28 15  1  0
M  CHG  1  21  -1
M  END
>  <UniqueID>  (19) 
19

>  <SMILES>  (19) 
COc1cc(/C=N\c2cccc(Cl)c2)ccc1[O-]

>  <Energy>  (19) 
39.73337076128678

>  <Genealogy>  (19) 
COc1cc(C=Nc2cccc(Cl)c2)ccc1[O-] (protonated)
COc1cc(/C=N\c2cccc(Cl)c2)ccc1[O-] (cis-trans isomerization)
COc1cc(/C=N\c2cccc(Cl)c2)ccc1[O-] (3D coordinates assigned)
COc1cc(/C=N\c2cccc(Cl)c2)ccc1[O-] (optimized conformer: 39.73337076128678 kcal/mol)

>  <smiles>  (19) 
COc1cc(C=Nc2cccc(Cl)c2)ccc1O

>  <score_type>  (19) 
oracle

>  <origin>  (19) 
adgpu

>  <m_score__min__energy>  (19) 
-10.1

>  <m_primary>  (19) 
energy

$$$$
19:0
     RDKit          3D

 35 37  0  0  0  0  0  0  0  0999 V2000
   -9.3483   19.7060  -32.6745 H   0  0  0  0  0  0  0  0  0  0  0  0
   -8.6240   20.4650  -32.3440 C   0  0  0  0  0  0  0  0  0  0  0  0
   -7.2900   20.4040  -32.7730 C   0  0  0  0  0  0  0  0  0  0  0  0
   -6.8520   19.4010  -33.6980 N   0  0  0  0  0  0  0  0  0  0  0  0
   -6.3560   18.2270  -33.4150 C   0  0  0  0  0  0  0  0  0  0  0  0
   -6.0880   17.3440  -34.4690 C   0  0  0  0  0  0  0  0  0  0  0  0
   -6.2977   17.6427  -35.5067 H   0  0  0  0  0  0  0  0  0  0  0  0
   -5.5540   16.0840  -34.1970 C   0  0  0  0  0  0  0  0  0  0  0  0
   -5.3496   15.3826  -35.0193 H   0  0  0  0  0  0  0  0  0  0  0  0
   -5.2800   15.7160  -32.8800 C   0  0  0  0  0  0  0  0  0  0  0  0
   -4.6070   14.1370  -32.5210 Cl  0  0  0  0  0  0  0  0  0  0  0  0
   -5.5360   16.6260  -31.8510 C   0  0  0  0  0  0  0  0  0  0  0  0
   -5.3163   16.3497  -30.8092 H   0  0  0  0  0  0  0  0  0  0  0  0
   -6.0560   17.8530  -32.1310 N   0  0  0  0  0  0  0  0  0  0  0  0
   -6.1830   18.5090  -31.3300 H   0  0  0  0  0  0  0  0  0  0  0  0
   -6.4220   21.3800  -32.3960 N   0  0  0  0  0  0  0  0  0  0  0  0
   -6.7790   22.4010  -31.5640 C   0  0  0  0  0  0  0  0  0  0  0  0
   -5.7970   23.3940  -31.1950 N   0  0  0  0  0  0  0  0  0  0  0  0
   -6.1530   24.8180  -31.1130 C   0  0  0  0  0  0  0  0  0  0  0  0
   -6.0639   25.2721  -32.1109 H   0  0  0  0  0  0  0  0  0  0  0  0
   -7.1870   24.9072  -30.7485 H   0  0  0  0  0  0  0  0  0  0  0  0
   -5.2190   25.5460  -30.1420 C   0  0  0  0  0  0  0  0  0  0  0  0
   -5.4010   26.6286  -30.2110 H   0  0  0  0  0  0  0  0  0  0  0  0
   -5.4224   25.1858  -29.1227 H   0  0  0  0  0  0  0  0  0  0  0  0
   -3.8650   25.2840  -30.4510 O   0  0  0  0  0  0  0  0  0  0  0  0
   -3.5890   23.9140  -30.2350 C   0  0  0  0  0  0  0  0  0  0  0  0
   -2.5121   23.7369  -30.3722 H   0  0  0  0  0  0  0  0  0  0  0  0
   -3.8926   23.6499  -29.2112 H   0  0  0  0  0  0  0  0  0  0  0  0
   -4.3710   23.0410  -31.2200 C   0  0  0  0  0  0  0  0  0  0  0  0
   -3.9766   23.1968  -32.2350 H   0  0  0  0  0  0  0  0  0  0  0  0
   -4.2589   21.9860  -30.9294 H   0  0  0  0  0  0  0  0  0  0  0  0
   -8.1040   22.4670  -31.0980 C   0  0  0  0  0  0  0  0  0  0  0  0
   -8.4135   23.2796  -30.4243 H   0  0  0  0  0  0  0  0  0  0  0  0
   -9.0240   21.4960  -31.4950 C   0  0  0  0  0  0  0  0  0  0  0  0
  -10.0636   21.5439  -31.1386 H   0  0  0  0  0  0  0  0  0  0  0  0
  1  2  1  0
  2  3  2  0
  3  4  1  0
  4  5  2  0
  5  6  1  0
  6  7  1  0
  6  8  2  0
  8  9  1  0
  8 10  1  0
 10 11  1  0
 10 12  2  0
 12 13  1  0
 12 14  1  0
 14 15  1  0
  3 16  1  0
 16 17  2  0
 17 18  1  0
 18 19  1  0
 19 20  1  0
 19 21  1  0
 19 22  1  0
 22 23  1  0
 22 24  1  0
 22 25  1  0
 25 26  1  0
 26 27  1  0
 26 28  1  0
 26 29  1  0
 29 30  1  0
 29 31  1  0
 17 32  1  0
 32 33  1  0
 32 34  2  0
 34 35  1  0
 34  2  1  0
 14  5  1  0
 29 18  1  0
M  END
>  <UniqueID>  (20) 
20

>  <SMILES>  (20) 
Clc1cc/c(=N/c2cccc(N3CCOCC3)n2)[nH]c1

>  <Energy>  (20) 
50.438480604103994

>  <Genealogy>  (20) 
Clc1cc/c(=N/c2cccc(N3CCOCC3)n2)[nH]c1 (cis-trans isomerization)
Clc1cc/c(=N/c2cccc(N3CCOCC3)n2)[nH]c1 (3D coordinates assigned)
Clc1cc/c(=N/c2cccc(N3CCOCC3)n2)[nH]c1 (nonaromatic ring conformer: 50.438480604103994 kcal/mol)

>  <smiles>  (20) 
Clc1ccc(=Nc2cccc(N3CCOCC3)n2)[nH]c1

>  <score_type>  (20) 
oracle

>  <origin>  (20) 
adgpu

>  <m_score__min__energy>  (20) 
-8.0299999999999994

>  <m_primary>  (20) 
energy

$$$$
20:0
     RDKit          3D

 25 27  0  0  0  0  0  0  0  0999 V2000
   -1.2560   26.0530  -29.3430 O   0  0  0  0  0  0  0  0  0  0  0  0
   -1.2300   25.0130  -28.4210 C   0  0  0  0  0  0  0  0  0  0  0  0
   -0.1650   24.9510  -27.5140 C   0  0  0  0  0  0  0  0  0  0  0  0
   -0.0980   23.9250  -26.5720 C   0  0  0  0  0  0  0  0  0  0  0  0
   -1.0960   22.9530  -26.5300 C   0  0  0  0  0  0  0  0  0  0  0  0
   -2.1640   23.0030  -27.4300 C   0  0  0  0  0  0  0  0  0  0  0  0
   -2.2510   24.0330  -28.3900 C   0  0  0  0  0  0  0  0  0  0  0  0
   -3.3930   24.0770  -29.3440 C   0  0  0  0  0  0  0  0  0  0  0  0
   -4.5250   23.2770  -29.3260 C   0  0  0  0  0  0  0  0  0  0  0  0
   -5.2640   23.7130  -30.4060 C   0  0  0  0  0  0  0  0  0  0  0  0
   -6.5670   23.1870  -30.8360 C   0  0  0  0  0  0  0  0  0  0  0  0
   -7.4040   22.3740  -30.0820 C   0  0  0  0  0  0  0  0  0  0  0  0
   -8.5840   22.0260  -30.7510 C   0  0  0  0  0  0  0  0  0  0  0  0
   -8.6800   22.5610  -32.0290 C   0  0  0  0  0  0  0  0  0  0  0  0
   -7.2950   23.4670  -32.3270 S   0  0  0  0  0  0  0  0  0  0  0  0
   -4.6130   24.7100  -31.0310 N   0  0  0  0  0  0  0  0  0  0  0  0
   -3.4780   24.9310  -30.3860 N   0  0  0  0  0  0  0  0  0  0  0  0
    0.6241   25.7168  -27.5448 H   0  0  0  0  0  0  0  0  0  0  0  0
    0.7417   23.8828  -25.8627 H   0  0  0  0  0  0  0  0  0  0  0  0
   -1.0429   22.1442  -25.7863 H   0  0  0  0  0  0  0  0  0  0  0  0
   -2.9458   22.2303  -27.3894 H   0  0  0  0  0  0  0  0  0  0  0  0
   -4.7764   22.4775  -28.6135 H   0  0  0  0  0  0  0  0  0  0  0  0
   -7.1641   22.0376  -29.0625 H   0  0  0  0  0  0  0  0  0  0  0  0
   -9.3621   21.3885  -30.3059 H   0  0  0  0  0  0  0  0  0  0  0  0
   -9.5182   22.4168  -32.7266 H   0  0  0  0  0  0  0  0  0  0  0  0
  1  2  1  0
  2  3  2  0
  3  4  1  0
  4  5  2  0
  5  6  1  0
  6  7  2  0
  7  8  1  0
  8  9  1  0
  9 10  2  0
 10 11  1  0
 11 12  2  0
 12 13  1  0
 13 14  2  0
 14 15  1  0
 10 16  1  0
 16 17  1  0
  7  2  1  0
 17  8  2  0
 15 11  1  0
  3 18  1  0
  4 19  1  0
  5 20  1  0
  6 21  1  0
  9 22  1  0
 12 23  1  0
 13 24  1  0
 14 25  1  0
M  CHG  2   1  -1  16  -1
M  END
>  <UniqueID>  (21) 
21

>  <SMILES>  (21) 
[O-]c1ccccc1-c1cc(-c2cccs2)[n-]n1

>  <Energy>  (21) 
85.8258456942446

>  <Genealogy>  (21) 
[O-]c1ccccc1-c1cc(-c2cccs2)[n-]n1 (protonated)
[O-]c1ccccc1-c1cc(-c2cccs2)[n-]n1 (3D coordinates assigned)
[O-]c1ccccc1-c1cc(-c2cccs2)[n-]n1 (optimized conformer: 85.8258456942446 kcal/mol)

>  <smiles>  (21) 
Oc1ccccc1-c1cc(-c2cccs2)[nH]n1

>  <score_type>  (21) 
oracle

>  <origin>  (21) 
adgpu

>  <m_score__min__energy>  (21) 
-11.699999999999999

>  <m_primary>  (21) 
energy

$$$$
21:0
     RDKit          3D

 21 21  0  0  0  0  0  0  0  0999 V2000
   -7.9220   22.9610  -31.9110 C   0  0  0  0  0  0  0  0  0  0  0  0
   -6.8320   23.7040  -31.6980 C   0  0  0  0  0  0  0  0  0  0  0  0
   -6.4740   24.1980  -30.3270 C   0  0  0  0  0  0  0  0  0  0  0  0
   -5.3090   25.5960  -30.4490 S   0  0  0  0  0  0  0  0  0  0  0  0
   -3.8640   24.5530  -30.2930 C   0  0  0  0  0  0  0  0  0  0  0  0
   -2.8430   24.9240  -29.4770 N   0  0  0  0  0  0  0  0  0  0  0  0
   -1.7380   24.1480  -29.3450 C   0  0  0  0  0  0  0  0  0  0  0  0
   -0.8030   24.5110  -28.5850 O   0  0  0  0  0  0  0  0  0  0  0  0
   -1.6410   22.9480  -30.0540 C   0  0  0  0  0  0  0  0  0  0  0  0
   -2.7020   22.5790  -30.8880 C   0  0  0  0  0  0  0  0  0  0  0  0
   -2.6450   21.3040  -31.6660 C   0  0  0  0  0  0  0  0  0  0  0  0
   -3.7900   23.3880  -30.9880 N   0  0  0  0  0  0  0  0  0  0  0  0
   -8.1602   22.6124  -32.9268 H   0  0  0  0  0  0  0  0  0  0  0  0
   -8.5811   22.6979  -31.0706 H   0  0  0  0  0  0  0  0  0  0  0  0
   -6.1818   23.9595  -32.5477 H   0  0  0  0  0  0  0  0  0  0  0  0
   -7.3866   24.5290  -29.8097 H   0  0  0  0  0  0  0  0  0  0  0  0
   -5.9991   23.3818  -29.7628 H   0  0  0  0  0  0  0  0  0  0  0  0
   -0.7512   22.3083  -29.9587 H   0  0  0  0  0  0  0  0  0  0  0  0
   -2.6069   20.4520  -30.9713 H   0  0  0  0  0  0  0  0  0  0  0  0
   -3.5403   21.2208  -32.2996 H   0  0  0  0  0  0  0  0  0  0  0  0
   -1.7458   21.3010  -32.2996 H   0  0  0  0  0  0  0  0  0  0  0  0
  1  2  2  0
  2  3  1  0
  3  4  1  0
  4  5  1  0
  5  6  2  0
  6  7  1  0
  7  8  2  0
  7  9  1  0
  9 10  2  0
 10 11  1  0
 10 12  1  0
 12  5  1  0
  1 13  1  0
  1 14  1  0
  2 15  1  0
  3 16  1  0
  3 17  1  0
  9 18  1  0
 11 19  1  0
 11 20  1  0
 11 21  1  0
M  CHG  1  12  -1
M  END
>  <UniqueID>  (22) 
22

>  <SMILES>  (22) 
C=CCSc1nc(=O)cc(C)[n-]1

>  <Energy>  (22) 
11.867758222244465

>  <Genealogy>  (22) 
C=CCSc1nc(=O)cc(C)[n-]1 (protonated)
C=CCSc1nc(=O)cc(C)[n-]1 (3D coordinates assigned)
C=CCSc1nc(=O)cc(C)[n-]1 (optimized conformer: 11.867758222244465 kcal/mol)

>  <smiles>  (22) 
C=CCSc1nc(=O)cc(C)[nH]1

>  <score_type>  (22) 
oracle

>  <origin>  (22) 
adgpu

>  <m_score__min__energy>  (22) 
-5.8700000000000001

>  <m_primary>  (22) 
energy

$$$$
22:0
     RDKit          3D

 39 42  0  0  0  0  0  0  0  0999 V2000
   -0.4580   18.2740  -27.4620 C   0  0  0  0  0  0  0  0  0  0  0  0
   -0.3520   19.6440  -27.8360 O   0  0  0  0  0  0  0  0  0  0  0  0
   -1.0100   20.2190  -28.9340 C   0  0  0  0  0  0  0  0  0  0  0  0
   -2.3080   20.7560  -28.8420 C   0  0  0  0  0  0  0  0  0  0  0  0
   -2.9210   21.3170  -29.9660 C   0  0  0  0  0  0  0  0  0  0  0  0
   -2.2480   21.3540  -31.1970 C   0  0  0  0  0  0  0  0  0  0  0  0
   -2.9250   21.9220  -32.4170 C   0  0  0  0  0  0  0  0  0  0  0  0
   -4.3460   21.5430  -32.4340 N   0  0  0  0  0  0  0  0  0  0  0  0
   -4.7340   20.1730  -32.6580 C   0  0  0  0  0  0  0  0  0  0  0  0
   -3.8620   19.3060  -32.9420 O   0  0  0  0  0  0  0  0  0  0  0  0
   -6.1590   19.7800  -32.5620 C   0  0  0  0  0  0  0  0  0  0  0  0
   -6.5460   18.4450  -32.7690 C   0  0  0  0  0  0  0  0  0  0  0  0
   -7.8880   18.0730  -32.6760 C   0  0  0  0  0  0  0  0  0  0  0  0
   -8.8630   19.0250  -32.3770 C   0  0  0  0  0  0  0  0  0  0  0  0
   -8.5010   20.3630  -32.1650 C   0  0  0  0  0  0  0  0  0  0  0  0
   -9.4820   21.3190  -31.8640 C   0  0  0  0  0  0  0  0  0  0  0  0
   -9.1220   22.6500  -31.6540 C   0  0  0  0  0  0  0  0  0  0  0  0
   -7.7850   23.0410  -31.7430 C   0  0  0  0  0  0  0  0  0  0  0  0
   -6.7840   22.1000  -32.0440 C   0  0  0  0  0  0  0  0  0  0  0  0
   -7.1400   20.7500  -32.2570 C   0  0  0  0  0  0  0  0  0  0  0  0
   -5.3660   22.5170  -32.1360 C   0  0  0  0  0  0  0  0  0  0  0  0
   -5.0540   23.7260  -31.9550 O   0  0  0  0  0  0  0  0  0  0  0  0
   -0.9570   20.8130  -31.2890 C   0  0  0  0  0  0  0  0  0  0  0  0
   -0.3440   20.2530  -30.1650 C   0  0  0  0  0  0  0  0  0  0  0  0
   -0.4643   18.1928  -26.3650 H   0  0  0  0  0  0  0  0  0  0  0  0
   -1.3913   17.8548  -27.8660 H   0  0  0  0  0  0  0  0  0  0  0  0
    0.3997   17.7162  -27.8660 H   0  0  0  0  0  0  0  0  0  0  0  0
   -2.8425   20.7340  -27.8808 H   0  0  0  0  0  0  0  0  0  0  0  0
   -3.9366   21.7318  -29.8852 H   0  0  0  0  0  0  0  0  0  0  0  0
   -2.8419   23.0187  -32.4008 H   0  0  0  0  0  0  0  0  0  0  0  0
   -2.4364   21.5209  -33.3172 H   0  0  0  0  0  0  0  0  0  0  0  0
   -5.7850   17.6870  -33.0063 H   0  0  0  0  0  0  0  0  0  0  0  0
   -8.1782   17.0246  -32.8392 H   0  0  0  0  0  0  0  0  0  0  0  0
   -9.9190   18.7251  -32.3073 H   0  0  0  0  0  0  0  0  0  0  0  0
  -10.5378   21.0184  -31.7934 H   0  0  0  0  0  0  0  0  0  0  0  0
   -9.8955   23.3953  -31.4171 H   0  0  0  0  0  0  0  0  0  0  0  0
   -7.5121   24.0935  -31.5764 H   0  0  0  0  0  0  0  0  0  0  0  0
   -0.4243   20.8297  -32.2512 H   0  0  0  0  0  0  0  0  0  0  0  0
    0.6703   19.8354  -30.2481 H   0  0  0  0  0  0  0  0  0  0  0  0
  1  2  1  0
  2  3  1  0
  3  4  2  0
  4  5  1  0
  5  6  2  0
  6  7  1  0
  7  8  1  0
  8  9  1  0
  9 10  2  0
  9 11  1  0
 11 12  2  0
 12 13  1  0
 13 14  2  0
 14 15  1  0
 15 16  2  0
 16 17  1  0
 17 18  2  0
 18 19  1  0
 19 20  2  0
 19 21  1  0
 21 22  2  0
  6 23  1  0
 23 24  2  0
 24  3  1  0
 21  8  1  0
 20 11  1  0
 20 15  1  0
  1 25  1  0
  1 26  1  0
  1 27  1  0
  4 28  1  0
  5 29  1  0
  7 30  1  0
  7 31  1  0
 12 32  1  0
 13 33  1  0
 14 34  1  0
 16 35  1  0
 17 36  1  0
 18 37  1  0
 23 38  1  0
 24 39  1  0
M  END
>  <UniqueID>  (23) 
23

>  <SMILES>  (23) 
COc1ccc(CN2C(=O)c3cccc4cccc(c34)C2=O)cc1

>  <Energy>  (23) 
48.27360205197396

>  <Genealogy>  (23) 
COc1ccc(CN2C(=O)c3cccc4cccc(c34)C2=O)cc1 (3D coordinates assigned)
COc1ccc(CN2C(=O)c3cccc4cccc(c34)C2=O)cc1 (nonaromatic ring conformer: 48.27360205197396 kcal/mol)

>  <smiles>  (23) 
COc1ccc(CN2C(=O)c3cccc4cccc(c34)C2=O)cc1

>  <score_type>  (23) 
oracle

>  <origin>  (23) 
adgpu

>  <m_score__min__energy>  (23) 
-8.5800000000000001

>  <m_primary>  (23) 
energy

$$$$
23:0
     RDKit          3D

 30 30  0  0  0  0  0  0  0  0999 V2000
   -6.7680   17.8020  -31.3390 C   0  0  0  0  0  0  0  0  0  0  0  0
   -7.8900   18.0030  -32.3650 C   0  0  0  0  0  0  0  0  0  0  0  0
   -7.8990   19.3790  -32.9320 N   0  0  0  0  0  0  0  0  0  0  0  0
   -6.5120   19.8460  -33.1770 C   0  0  0  0  0  0  0  0  0  0  0  0
   -5.7920   19.0390  -34.2640 C   0  0  0  0  0  0  0  0  0  0  0  0
   -8.7620   20.4790  -31.8610 S   0  0  0  0  0  0  0  0  0  0  0  0
   -9.1130   19.7850  -30.5750 O   0  0  0  0  0  0  0  0  0  0  0  0
  -10.0530   20.9010  -32.5070 O   0  0  0  0  0  0  0  0  0  0  0  0
   -7.8100   21.9160  -31.4700 C   0  0  0  0  0  0  0  0  0  0  0  0
   -7.2570   22.6980  -32.4950 C   0  0  0  0  0  0  0  0  0  0  0  0
   -6.5070   23.8360  -32.1890 C   0  0  0  0  0  0  0  0  0  0  0  0
   -6.2970   24.1990  -30.8540 C   0  0  0  0  0  0  0  0  0  0  0  0
   -5.3550   25.6280  -30.4690 Cl  0  0  0  0  0  0  0  0  0  0  0  0
   -6.8340   23.4160  -29.8270 C   0  0  0  0  0  0  0  0  0  0  0  0
   -7.5840   22.2770  -30.1330 C   0  0  0  0  0  0  0  0  0  0  0  0
   -7.1827   17.8763  -30.3229 H   0  0  0  0  0  0  0  0  0  0  0  0
   -6.3166   16.8087  -31.4791 H   0  0  0  0  0  0  0  0  0  0  0  0
   -5.9999   18.5768  -31.4791 H   0  0  0  0  0  0  0  0  0  0  0  0
   -7.7517   17.2835  -33.1855 H   0  0  0  0  0  0  0  0  0  0  0  0
   -8.8488   17.8460  -31.8493 H   0  0  0  0  0  0  0  0  0  0  0  0
   -8.4040   19.3680  -33.8490 H   0  0  0  0  0  0  0  0  0  0  0  0
   -6.5469   20.9005  -33.4883 H   0  0  0  0  0  0  0  0  0  0  0  0
   -5.9496   19.7129  -32.2411 H   0  0  0  0  0  0  0  0  0  0  0  0
   -5.1304   18.2974  -33.7925 H   0  0  0  0  0  0  0  0  0  0  0  0
   -6.5347   18.5224  -34.8897 H   0  0  0  0  0  0  0  0  0  0  0  0
   -5.1944   19.7182  -34.8897 H   0  0  0  0  0  0  0  0  0  0  0  0
   -7.4149   22.4134  -33.5457 H   0  0  0  0  0  0  0  0  0  0  0  0
   -6.0811   24.4474  -32.9982 H   0  0  0  0  0  0  0  0  0  0  0  0
   -6.6658   23.6970  -28.7769 H   0  0  0  0  0  0  0  0  0  0  0  0
   -7.9991   21.6607  -29.3219 H   0  0  0  0  0  0  0  0  0  0  0  0
  1  2  1  0
  2  3  1  0
  3  4  1  0
  4  5  1  0
  3  6  1  0
  6  7  2  0
  6  8  2  0
  6  9  1  0
  9 10  2  0
 10 11  1  0
 11 12  2  0
 12 13  1  0
 12 14  1  0
 14 15  2  0
 15  9  1  0
  1 16  1  0
  1 17  1  0
  1 18  1  0
  2 19  1  0
  2 20  1  0
  3 21  1  0
  4 22  1  0
  4 23  1  0
  5 24  1  0
  5 25  1  0
  5 26  1  0
 10 27  1  0
 11 28  1  0
 14 29  1  0
 15 30  1  0
M  CHG  1   3   1
M  END
>  <UniqueID>  (24) 
24

>  <SMILES>  (24) 
CC[NH+](CC)S(=O)(=O)c1ccc(Cl)cc1

>  <Energy>  (24) 
28.146220952491927

>  <Genealogy>  (24) 
CC[NH+](CC)S(=O)(=O)c1ccc(Cl)cc1 (protonated)
CC[NH+](CC)S(=O)(=O)c1ccc(Cl)cc1 (3D coordinates assigned)
CC[NH+](CC)S(=O)(=O)c1ccc(Cl)cc1 (optimized conformer: 28.146220952491927 kcal/mol)

>  <smiles>  (24) 
CCN(CC)S(=O)(=O)c1ccc(Cl)cc1

>  <score_type>  (24) 
oracle

>  <origin>  (24) 
adgpu

>  <m_score__min__energy>  (24) 
-6.1200000000000001

>  <m_primary>  (24) 
energy

$$$$
24:0
     RDKit          3D

 27 29  0  0  0  0  0  0  0  0999 V2000
   -8.3440   18.1520  -31.1610 F   0  0  0  0  0  0  0  0  0  0  0  0
   -7.4860   18.3270  -32.1980 C   0  0  0  0  0  0  0  0  0  0  0  0
   -6.7510   17.2350  -32.6710 C   0  0  0  0  0  0  0  0  0  0  0  0
   -5.8530   17.3990  -33.7300 C   0  0  0  0  0  0  0  0  0  0  0  0
   -5.6930   18.6540  -34.3220 C   0  0  0  0  0  0  0  0  0  0  0  0
   -6.4270   19.7480  -33.8530 C   0  0  0  0  0  0  0  0  0  0  0  0
   -7.3180   19.5970  -32.7770 C   0  0  0  0  0  0  0  0  0  0  0  0
   -8.0860   20.7160  -32.3020 N   0  0  0  0  0  0  0  0  0  0  0  0
   -9.4090   20.7590  -32.3410 N   0  0  0  0  0  0  0  0  0  0  0  0
   -9.8510   21.9400  -31.9330 N   0  0  0  0  0  0  0  0  0  0  0  0
   -8.7710   22.6850  -31.6270 C   0  0  0  0  0  0  0  0  0  0  0  0
   -7.6490   21.9120  -31.8510 C   0  0  0  0  0  0  0  0  0  0  0  0
   -6.2530   22.3010  -31.5540 C   0  0  0  0  0  0  0  0  0  0  0  0
   -5.2720   21.3330  -31.2840 C   0  0  0  0  0  0  0  0  0  0  0  0
   -3.9640   21.7240  -30.9930 C   0  0  0  0  0  0  0  0  0  0  0  0
   -3.6480   23.0830  -30.9600 C   0  0  0  0  0  0  0  0  0  0  0  0
   -4.6110   24.0110  -31.2040 N   0  0  0  0  0  0  0  0  0  0  0  0
   -5.8910   23.6560  -31.4910 C   0  0  0  0  0  0  0  0  0  0  0  0
   -6.8798   16.2451  -32.2088 H   0  0  0  0  0  0  0  0  0  0  0  0
   -5.2725   16.5397  -34.0970 H   0  0  0  0  0  0  0  0  0  0  0  0
   -4.9892   18.7819  -35.1576 H   0  0  0  0  0  0  0  0  0  0  0  0
   -6.3062   20.7323  -34.3291 H   0  0  0  0  0  0  0  0  0  0  0  0
   -8.7812   23.7232  -31.2637 H   0  0  0  0  0  0  0  0  0  0  0  0
   -5.5348   20.2650  -31.3019 H   0  0  0  0  0  0  0  0  0  0  0  0
   -3.1901   20.9686  -30.7917 H   0  0  0  0  0  0  0  0  0  0  0  0
   -2.6196   23.4032  -30.7365 H   0  0  0  0  0  0  0  0  0  0  0  0
   -6.6468   24.4338  -31.6748 H   0  0  0  0  0  0  0  0  0  0  0  0
  1  2  1  0
  2  3  2  0
  3  4  1  0
  4  5  2  0
  5  6  1  0
  6  7  2  0
  7  8  1  0
  8  9  1  0
  9 10  2  0
 10 11  1  0
 11 12  2  0
 12 13  1  0
 13 14  2  0
 14 15  1  0
 15 16  2  0
 16 17  1  0
 17 18  2  0
  7  2  1  0
 12  8  1  0
 18 13  1  0
  3 19  1  0
  4 20  1  0
  5 21  1  0
  6 22  1  0
 11 23  1  0
 14 24  1  0
 15 25  1  0
 16 26  1  0
 18 27  1  0
M  END
>  <UniqueID>  (25) 
25

>  <SMILES>  (25) 
Fc1ccccc1-n1nncc1-c1cccnc1

>  <Energy>  (25) 
75.21179706856198

>  <Genealogy>  (25) 
Fc1ccccc1-n1nncc1-c1cccnc1 (3D coordinates assigned)
Fc1ccccc1-n1nncc1-c1cccnc1 (optimized conformer: 75.21179706856198 kcal/mol)

>  <smiles>  (25) 
Fc1ccccc1-n1nncc1-c1cccnc1

>  <score_type>  (25) 
oracle

>  <origin>  (25) 
adgpu

>  <m_score__min__energy>  (25) 
-7.25

>  <m_primary>  (25) 
energy

$$$$
25:0
     RDKit          3D

 30 31  0  0  0  0  0  0  0  0999 V2000
   -5.3790   19.7810  -33.7690 C   0  0  0  0  0  0  0  0  0  0  0  0
   -6.6720   19.6750  -33.0060 C   0  0  0  0  0  0  0  0  0  0  0  0
   -7.2290   18.4080  -32.7780 C   0  0  0  0  0  0  0  0  0  0  0  0
   -8.4340   18.2780  -32.0870 C   0  0  0  0  0  0  0  0  0  0  0  0
   -9.0930   19.4100  -31.6080 C   0  0  0  0  0  0  0  0  0  0  0  0
   -8.5430   20.6870  -31.8000 C   0  0  0  0  0  0  0  0  0  0  0  0
   -9.2590   21.8970  -31.2660 C   0  0  0  0  0  0  0  0  0  0  0  0
   -7.3190   20.8220  -32.4910 C   0  0  0  0  0  0  0  0  0  0  0  0
   -6.7540   22.1280  -32.6860 N   0  0  0  0  0  0  0  0  0  0  0  0
   -5.8000   22.7200  -31.7870 C   0  0  0  0  0  0  0  0  0  0  0  0
   -4.5910   22.0540  -31.5280 C   0  0  0  0  0  0  0  0  0  0  0  0
   -3.6450   22.6110  -30.6640 C   0  0  0  0  0  0  0  0  0  0  0  0
   -3.8940   23.8440  -30.0530 C   0  0  0  0  0  0  0  0  0  0  0  0
   -2.7050   24.5430  -28.9690 Cl  0  0  0  0  0  0  0  0  0  0  0  0
   -5.0890   24.5220  -30.3120 C   0  0  0  0  0  0  0  0  0  0  0  0
   -6.0370   23.9670  -31.1770 C   0  0  0  0  0  0  0  0  0  0  0  0
   -4.5400   19.8498  -33.0609 H   0  0  0  0  0  0  0  0  0  0  0  0
   -5.2526   18.8902  -34.4019 H   0  0  0  0  0  0  0  0  0  0  0  0
   -5.3994   20.6805  -34.4019 H   0  0  0  0  0  0  0  0  0  0  0  0
   -6.7117   17.5100  -33.1469 H   0  0  0  0  0  0  0  0  0  0  0  0
   -8.8654   17.2801  -31.9195 H   0  0  0  0  0  0  0  0  0  0  0  0
  -10.0499   19.3013  -31.0764 H   0  0  0  0  0  0  0  0  0  0  0  0
   -9.2460   21.8751  -30.1663 H   0  0  0  0  0  0  0  0  0  0  0  0
   -8.7544   22.8078  -31.6206 H   0  0  0  0  0  0  0  0  0  0  0  0
  -10.3003   21.8931  -31.6206 H   0  0  0  0  0  0  0  0  0  0  0  0
   -7.1130   22.6960  -33.4860 H   0  0  0  0  0  0  0  0  0  0  0  0
   -4.3873   21.0861  -32.0093 H   0  0  0  0  0  0  0  0  0  0  0  0
   -2.7031   22.0791  -30.4641 H   0  0  0  0  0  0  0  0  0  0  0  0
   -5.2837   25.4936  -29.8345 H   0  0  0  0  0  0  0  0  0  0  0  0
   -6.9730   24.5073  -31.3822 H   0  0  0  0  0  0  0  0  0  0  0  0
  1  2  1  0
  2  3  2  0
  3  4  1  0
  4  5  2  0
  5  6  1  0
  6  7  1  0
  6  8  2  0
  8  9  1  0
  9 10  1  0
 10 11  2  0
 11 12  1  0
 12 13  2  0
 13 14  1  0
 13 15  1  0
 15 16  2  0
  8  2  1  0
 16 10  1  0
  1 17  1  0
  1 18  1  0
  1 19  1  0
  3 20  1  0
  4 21  1  0
  5 22  1  0
  7 23  1  0
  7 24  1  0
  7 25  1  0
  9 26  1  0
 11 27  1  0
 12 28  1  0
 15 29  1  0
 16 30  1  0
M  END
>  <UniqueID>  (26) 
26

>  <SMILES>  (26) 
Cc1cccc(C)c1Nc1ccc(Cl)cc1

>  <Energy>  (26) 
37.107491789788654

>  <Genealogy>  (26) 
Cc1cccc(C)c1Nc1ccc(Cl)cc1 (3D coordinates assigned)
Cc1cccc(C)c1Nc1ccc(Cl)cc1 (optimized conformer: 37.107491789788654 kcal/mol)

>  <smiles>  (26) 
Cc1cccc(C)c1Nc1ccc(Cl)cc1

>  <score_type>  (26) 
oracle

>  <origin>  (26) 
adgpu

>  <m_score__min__energy>  (26) 
-7.3200000000000003

>  <m_primary>  (26) 
energy

$$$$
26:0
     RDKit          3D

 34 34  0  0  0  0  0  0  0  0999 V2000
   -3.0490   23.5710  -28.2960 C   0  0  0  0  0  0  0  0  0  0  0  0
   -3.1040   24.0750  -29.7360 C   0  0  0  0  0  0  0  0  0  0  0  0
   -4.4080   23.6860  -30.3940 C   0  0  0  0  0  0  0  0  0  0  0  0
   -4.3830   22.7060  -31.4000 C   0  0  0  0  0  0  0  0  0  0  0  0
   -5.5620   22.2860  -32.0340 C   0  0  0  0  0  0  0  0  0  0  0  0
   -5.5160   21.3020  -33.0820 N   0  0  0  0  0  0  0  0  0  0  0  0
   -6.0680   19.9820  -32.9630 C   0  0  0  0  0  0  0  0  0  0  0  0
   -5.4890   18.7890  -33.9270 S   0  0  0  0  0  0  0  0  0  0  0  0
   -7.1870   19.7300  -32.0980 N   0  0  0  0  0  0  0  0  0  0  0  0
   -7.6840   18.4740  -31.9310 O   0  0  0  0  0  0  0  0  0  0  0  0
   -9.0840   18.5960  -31.9120 C   0  0  0  0  0  0  0  0  0  0  0  0
   -6.7880   22.8730  -31.6810 C   0  0  0  0  0  0  0  0  0  0  0  0
   -7.9510   22.4550  -32.3490 O   0  0  0  0  0  0  0  0  0  0  0  0
   -9.2210   22.2800  -31.7280 C   0  0  0  0  0  0  0  0  0  0  0  0
   -6.8210   23.8460  -30.6670 C   0  0  0  0  0  0  0  0  0  0  0  0
   -5.6490   24.2470  -30.0090 C   0  0  0  0  0  0  0  0  0  0  0  0
   -5.7490   25.2190  -28.9570 N   0  0  0  0  0  0  0  0  0  0  0  0
   -3.1419   24.4224  -27.6057 H   0  0  0  0  0  0  0  0  0  0  0  0
   -3.8756   22.8663  -28.1223 H   0  0  0  0  0  0  0  0  0  0  0  0
   -2.0899   23.0612  -28.1223 H   0  0  0  0  0  0  0  0  0  0  0  0
   -3.0127   25.1712  -29.7377 H   0  0  0  0  0  0  0  0  0  0  0  0
   -2.2763   23.6197  -30.2996 H   0  0  0  0  0  0  0  0  0  0  0  0
   -3.4220   22.2600  -31.6960 H   0  0  0  0  0  0  0  0  0  0  0  0
   -5.0510   21.5590  -33.9820 H   0  0  0  0  0  0  0  0  0  0  0  0
   -7.5990   20.5090  -31.5380 H   0  0  0  0  0  0  0  0  0  0  0  0
   -9.4353   18.6266  -30.8700 H   0  0  0  0  0  0  0  0  0  0  0  0
   -9.3783   19.5232  -32.4255 H   0  0  0  0  0  0  0  0  0  0  0  0
   -9.5342   17.7337  -32.4255 H   0  0  0  0  0  0  0  0  0  0  0  0
   -9.1000   22.2967  -30.6348 H   0  0  0  0  0  0  0  0  0  0  0  0
   -9.8944   23.0938  -32.0348 H   0  0  0  0  0  0  0  0  0  0  0  0
   -9.6492   21.3144  -32.0348 H   0  0  0  0  0  0  0  0  0  0  0  0
   -7.7821   24.3006  -30.3848 H   0  0  0  0  0  0  0  0  0  0  0  0
   -6.1150   24.9900  -28.0090 H   0  0  0  0  0  0  0  0  0  0  0  0
   -5.4890   26.2160  -29.1340 H   0  0  0  0  0  0  0  0  0  0  0  0
  1  2  1  0
  2  3  1  0
  3  4  2  0
  4  5  1  0
  5  6  1  0
  6  7  1  0
  7  8  2  0
  7  9  1  0
  9 10  1  0
 10 11  1  0
  5 12  2  0
 12 13  1  0
 13 14  1  0
 12 15  1  0
 15 16  2  0
 16 17  1  0
 16  3  1  0
  1 18  1  0
  1 19  1  0
  1 20  1  0
  2 21  1  0
  2 22  1  0
  4 23  1  0
  6 24  1  0
  9 25  1  0
 11 26  1  0
 11 27  1  0
 11 28  1  0
 14 29  1  0
 14 30  1  0
 14 31  1  0
 15 32  1  0
 17 33  1  0
 17 34  1  0
M  END
>  <UniqueID>  (27) 
27

>  <SMILES>  (27) 
CCc1cc(NC(=S)NOC)c(OC)cc1N

>  <Energy>  (27) 
31.618458618397508

>  <Genealogy>  (27) 
CCc1cc(NC(=S)NOC)c(OC)cc1N (3D coordinates assigned)
CCc1cc(NC(=S)NOC)c(OC)cc1N (optimized conformer: 31.618458618397508 kcal/mol)

>  <smiles>  (27) 
CCc1cc(NC(=S)NOC)c(OC)cc1N

>  <score_type>  (27) 
oracle

>  <origin>  (27) 
adgpu

>  <m_score__min__energy>  (27) 
-5.8499999999999996

>  <m_primary>  (27) 
energy

$$$$
27:0
     RDKit          3D

 40 44  0  0  0  0  0  0  0  0999 V2000
   -5.1960   26.4820  -31.2710 H   0  0  0  0  0  0  0  0  0  0  0  0
   -4.8160   25.6100  -30.8410 N   0  0  0  0  0  0  0  0  0  0  0  0
   -5.3430   24.4430  -31.0520 C   0  0  0  0  0  0  0  0  0  0  0  0
   -4.7990   23.2850  -30.4480 C   0  0  0  0  0  0  0  0  0  0  0  0
   -3.6080   23.3260  -29.5530 C   0  0  0  0  0  0  0  0  0  0  0  0
   -2.5510   24.1630  -29.7430 N   0  0  0  0  0  0  0  0  0  0  0  0
   -1.7380   23.8570  -28.7230 C   0  0  0  0  0  0  0  0  0  0  0  0
   -0.4980   24.4160  -28.4250 C   0  0  0  0  0  0  0  0  0  0  0  0
   -0.0683   25.2081  -29.0559 H   0  0  0  0  0  0  0  0  0  0  0  0
    0.1940   23.9360  -27.2870 C   0  0  0  0  0  0  0  0  0  0  0  0
    1.5180   24.5070  -26.9390 C   0  0  0  0  0  0  0  0  0  0  0  0
    2.3520   25.0650  -27.8390 N   0  0  0  0  0  0  0  0  0  0  0  0
    3.4410   25.4740  -27.2080 N   0  0  0  0  0  0  0  0  0  0  0  0
    3.3130   25.1810  -25.9000 C   0  0  0  0  0  0  0  0  0  0  0  0
    4.0599   25.4016  -25.1232 H   0  0  0  0  0  0  0  0  0  0  0  0
    2.1010   24.5620  -25.6860 C   0  0  0  0  0  0  0  0  0  0  0  0
    1.6900   24.1947  -24.7341 H   0  0  0  0  0  0  0  0  0  0  0  0
   -0.3960   22.9100  -26.4960 C   0  0  0  0  0  0  0  0  0  0  0  0
    0.1359   22.5319  -25.6105 H   0  0  0  0  0  0  0  0  0  0  0  0
   -1.6530   22.3740  -26.8350 C   0  0  0  0  0  0  0  0  0  0  0  0
   -2.1148   21.5809  -26.2286 H   0  0  0  0  0  0  0  0  0  0  0  0
   -2.2910   22.8800  -27.9610 C   0  0  0  0  0  0  0  0  0  0  0  0
   -3.4800   22.5200  -28.4630 N   0  0  0  0  0  0  0  0  0  0  0  0
   -5.4120   22.0490  -30.7110 C   0  0  0  0  0  0  0  0  0  0  0  0
   -5.0065   21.1350  -30.2525 H   0  0  0  0  0  0  0  0  0  0  0  0
   -6.5330   21.9620  -31.5490 C   0  0  0  0  0  0  0  0  0  0  0  0
   -7.1800   20.6530  -31.8240 C   0  0  0  0  0  0  0  0  0  0  0  0
   -6.4160   19.4780  -31.9320 C   0  0  0  0  0  0  0  0  0  0  0  0
   -5.3233   19.5235  -31.8137 H   0  0  0  0  0  0  0  0  0  0  0  0
   -7.0200   18.2850  -32.1820 N   0  0  0  0  0  0  0  0  0  0  0  0
   -8.3660   18.1840  -32.3380 C   0  0  0  0  0  0  0  0  0  0  0  0
   -8.8236   17.2047  -32.5418 H   0  0  0  0  0  0  0  0  0  0  0  0
   -9.1680   19.3210  -32.2400 C   0  0  0  0  0  0  0  0  0  0  0  0
  -10.2582   19.2439  -32.3648 H   0  0  0  0  0  0  0  0  0  0  0  0
   -8.5740   20.5580  -31.9820 C   0  0  0  0  0  0  0  0  0  0  0  0
   -9.1980   21.4603  -31.9022 H   0  0  0  0  0  0  0  0  0  0  0  0
   -7.0290   23.1400  -32.1210 C   0  0  0  0  0  0  0  0  0  0  0  0
   -7.9069   23.0973  -32.7824 H   0  0  0  0  0  0  0  0  0  0  0  0
   -6.4350   24.3360  -31.8660 N   0  0  0  0  0  0  0  0  0  0  0  0
   -6.8420   25.1900  -32.3110 H   0  0  0  0  0  0  0  0  0  0  0  0
  1  2  1  0
  2  3  2  0
  3  4  1  0
  4  5  1  0
  5  6  2  0
  6  7  1  0
  7  8  2  0
  8  9  1  0
  8 10  1  0
 10 11  1  0
 11 12  2  0
 12 13  1  0
 13 14  1  0
 14 15  1  0
 14 16  2  0
 16 17  1  0
 10 18  2  0
 18 19  1  0
 18 20  1  0
 20 21  1  0
 20 22  2  0
 22 23  1  0
  4 24  2  0
 24 25  1  0
 24 26  1  0
 26 27  1  0
 27 28  2  0
 28 29  1  0
 28 30  1  0
 30 31  2  0
 31 32  1  0
 31 33  1  0
 33 34  1  0
 33 35  2  0
 35 36  1  0
 26 37  2  0
 37 38  1  0
 37 39  1  0
 39 40  1  0
 39  3  1  0
 23  5  1  0
 35 27  1  0
 22  7  1  0
 16 11  1  0
M  CHG  2  13  -1  23  -1
M  END
>  <UniqueID>  (28) 
28

>  <SMILES>  (28) 
[H]/N=c1\[nH]cc(-c2cccnc2)cc1-c1nc2cc(-c3cc[n-]n3)ccc2[n-]1

>  <Energy>  (28) 
121.95116361634355

>  <Genealogy>  (28) 
N=c1[nH]cc(-c2cccnc2)cc1-c1nc2cc(-c3cc[n-]n3)ccc2[n-]1 (protonated)
[H]/N=c1\[nH]cc(-c2cccnc2)cc1-c1nc2cc(-c3cc[n-]n3)ccc2[n-]1 (cis-trans isomerization)
[H]/N=c1\[nH]cc(-c2cccnc2)cc1-c1nc2cc(-c3cc[n-]n3)ccc2[n-]1 (3D coordinates assigned)
[H]/N=c1\[nH]cc(-c2cccnc2)cc1-c1nc2cc(-c3cc[n-]n3)ccc2[n-]1 (optimized conformer: 121.95116361634355 kcal/mol)

>  <smiles>  (28) 
N=c1[nH]cc(-c2cccnc2)cc1-c1nc2cc(-c3cc[nH]n3)ccc2[nH]1

>  <score_type>  (28) 
oracle

>  <origin>  (28) 
adgpu

>  <m_score__min__energy>  (28) 
-9.4499999999999993

>  <m_primary>  (28) 
energy

$$$$
28:0
     RDKit          3D

 54 57  0  0  0  0  0  0  0  0999 V2000
   -9.0832   20.9857  -32.0865 H   0  0  0  0  0  0  0  0  0  0  0  0
   -8.1410   21.5380  -31.9550 C   0  0  0  0  0  0  0  0  0  0  0  0
   -6.9750   21.0830  -32.5730 C   0  0  0  0  0  0  0  0  0  0  0  0
   -7.0025   20.1699  -33.1858 H   0  0  0  0  0  0  0  0  0  0  0  0
   -5.7660   21.7830  -32.4180 C   0  0  0  0  0  0  0  0  0  0  0  0
   -4.5210   21.2440  -33.0780 C   0  0  0  0  0  0  0  0  0  0  0  0
   -3.8021   20.9328  -32.3058 H   0  0  0  0  0  0  0  0  0  0  0  0
   -4.7834   20.3789  -33.7047 H   0  0  0  0  0  0  0  0  0  0  0  0
   -4.0698   22.0273  -33.7047 H   0  0  0  0  0  0  0  0  0  0  0  0
   -5.7480   22.9870  -31.6720 C   0  0  0  0  0  0  0  0  0  0  0  0
   -4.5820   23.7640  -31.5730 O   0  0  0  0  0  0  0  0  0  0  0  0
   -3.6870   23.6510  -30.5050 C   0  0  0  0  0  0  0  0  0  0  0  0
   -3.3780   22.4360  -29.9860 N   0  0  0  0  0  0  0  0  0  0  0  0
   -2.5000   22.3250  -28.9560 C   0  0  0  0  0  0  0  0  0  0  0  0
   -2.1640   21.0280  -28.4210 N   0  0  0  0  0  0  0  0  0  0  0  0
   -3.0550   20.4430  -27.4020 C   0  0  0  0  0  0  0  0  0  0  0  0
   -3.0882   21.1163  -26.5327 H   0  0  0  0  0  0  0  0  0  0  0  0
   -4.0501   20.3219  -27.8550 H   0  0  0  0  0  0  0  0  0  0  0  0
   -2.5840   19.0720  -26.9410 C   0  0  0  0  0  0  0  0  0  0  0  0
   -3.0706   18.8153  -25.9885 H   0  0  0  0  0  0  0  0  0  0  0  0
   -2.8465   18.3147  -27.6943 H   0  0  0  0  0  0  0  0  0  0  0  0
   -1.1360   19.1070  -26.7580 N   0  0  0  0  0  0  0  0  0  0  0  0
   -0.8450   18.2320  -26.2760 H   0  0  0  0  0  0  0  0  0  0  0  0
   -0.4870   19.1440  -28.0650 C   0  0  0  0  0  0  0  0  0  0  0  0
    0.6016   19.2010  -27.9179 H   0  0  0  0  0  0  0  0  0  0  0  0
   -0.7717   18.2307  -28.6080 H   0  0  0  0  0  0  0  0  0  0  0  0
   -0.9390   20.3580  -28.9110 C   0  0  0  0  0  0  0  0  0  0  0  0
   -0.1230   21.0957  -28.9160 H   0  0  0  0  0  0  0  0  0  0  0  0
   -1.1754   19.9695  -29.9126 H   0  0  0  0  0  0  0  0  0  0  0  0
   -1.9260   23.4510  -28.4530 N   0  0  0  0  0  0  0  0  0  0  0  0
   -2.2300   24.6740  -28.9630 C   0  0  0  0  0  0  0  0  0  0  0  0
   -1.6560   25.7540  -28.5190 N   0  0  0  0  0  0  0  0  0  0  0  0
   -0.7330   25.8490  -27.4210 C   0  0  0  0  0  0  0  0  0  0  0  0
    0.5210   25.2110  -27.4420 C   0  0  0  0  0  0  0  0  0  0  0  0
    0.8325   24.6424  -28.3307 H   0  0  0  0  0  0  0  0  0  0  0  0
    1.3730   25.2980  -26.3350 C   0  0  0  0  0  0  0  0  0  0  0  0
    2.3526   24.7981  -26.3580 H   0  0  0  0  0  0  0  0  0  0  0  0
    0.9840   26.0200  -25.1950 C   0  0  0  0  0  0  0  0  0  0  0  0
    1.8640   26.0660  -23.9840 C   0  0  0  0  0  0  0  0  0  0  0  0
    1.2420   26.0335  -23.0773 H   0  0  0  0  0  0  0  0  0  0  0  0
    2.5450   25.2022  -23.9926 H   0  0  0  0  0  0  0  0  0  0  0  0
    2.4513   26.9961  -23.9926 H   0  0  0  0  0  0  0  0  0  0  0  0
   -0.2830   26.6190  -25.1600 C   0  0  0  0  0  0  0  0  0  0  0  0
   -0.6078   27.1613  -24.2598 H   0  0  0  0  0  0  0  0  0  0  0  0
   -1.1350   26.5300  -26.2640 C   0  0  0  0  0  0  0  0  0  0  0  0
   -2.1295   26.9984  -26.2246 H   0  0  0  0  0  0  0  0  0  0  0  0
   -3.1070   24.7660  -29.9940 N   0  0  0  0  0  0  0  0  0  0  0  0
   -6.9170   23.4160  -31.0090 C   0  0  0  0  0  0  0  0  0  0  0  0
   -6.9170   24.6930  -30.2110 C   0  0  0  0  0  0  0  0  0  0  0  0
   -5.8799   25.0039  -30.0167 H   0  0  0  0  0  0  0  0  0  0  0  0
   -7.4355   25.4799  -30.7783 H   0  0  0  0  0  0  0  0  0  0  0  0
   -7.4355   24.5280  -29.2550 H   0  0  0  0  0  0  0  0  0  0  0  0
   -8.1140   22.6930  -31.1700 C   0  0  0  0  0  0  0  0  0  0  0  0
   -9.0331   23.0395  -30.6749 H   0  0  0  0  0  0  0  0  0  0  0  0
  1  2  1  0
  2  3  2  0
  3  4  1  0
  3  5  1  0
  5  6  1  0
  6  7  1  0
  6  8  1  0
  6  9  1  0
  5 10  2  0
 10 11  1  0
 11 12  1  0
 12 13  2  0
 13 14  1  0
 14 15  1  0
 15 16  1  0
 16 17  1  0
 16 18  1  0
 16 19  1  0
 19 20  1  0
 19 21  1  0
 19 22  1  0
 22 23  1  0
 22 24  1  0
 24 25  1  0
 24 26  1  0
 24 27  1  0
 27 28  1  0
 27 29  1  0
 14 30  2  0
 30 31  1  0
 31 32  2  0
 32 33  1  0
 33 34  2  0
 34 35  1  0
 34 36  1  0
 36 37  1  0
 36 38  2  0
 38 39  1  0
 39 40  1  0
 39 41  1  0
 39 42  1  0
 38 43  1  0
 43 44  1  0
 43 45  2  0
 45 46  1  0
 31 47  1  0
 10 48  1  0
 48 49  1  0
 49 50  1  0
 49 51  1  0
 49 52  1  0
 48 53  2  0
 53 54  1  0
 53  2  1  0
 47 12  1  0
 27 15  1  0
 45 33  1  0
M  CHG  1  47  -1
M  END
>  <UniqueID>  (29) 
29

>  <SMILES>  (29) 
Cc1ccc(/N=c2\nc(N3CCNCC3)nc(Oc3c(C)cccc3C)[n-]2)cc1

>  <Energy>  (29) 
71.29132776621745

>  <Genealogy>  (29) 
Cc1ccc(N=c2nc(N3CCNCC3)nc(Oc3c(C)cccc3C)[n-]2)cc1 (protonated)
Cc1ccc(/N=c2\nc(N3CCNCC3)nc(Oc3c(C)cccc3C)[n-]2)cc1 (cis-trans isomerization)
Cc1ccc(/N=c2\nc(N3CCNCC3)nc(Oc3c(C)cccc3C)[n-]2)cc1 (3D coordinates assigned)
Cc1ccc(/N=c2\nc(N3CCNCC3)nc(Oc3c(C)cccc3C)[n-]2)cc1 (nonaromatic ring conformer: 71.29132776621745 kcal/mol)

>  <smiles>  (29) 
Cc1ccc(N=c2nc(N3CCNCC3)nc(Oc3c(C)cccc3C)[nH]2)cc1

>  <score_type>  (29) 
oracle

>  <origin>  (29) 
adgpu

>  <m_score__min__energy>  (29) 
-9.9499999999999993

>  <m_primary>  (29) 
energy

$$$$
29:0
     RDKit          3D

 24 25  0  0  0  0  0  0  0  0999 V2000
   -3.8220   25.2890  -30.1290 N   0  0  0  0  0  0  0  0  0  0  0  0
   -4.9140   24.4970  -30.6030 C   0  0  0  0  0  0  0  0  0  0  0  0
   -6.2330   24.9080  -30.3730 C   0  0  0  0  0  0  0  0  0  0  0  0
   -7.3000   24.1370  -30.8390 C   0  0  0  0  0  0  0  0  0  0  0  0
   -7.0580   22.9510  -31.5370 C   0  0  0  0  0  0  0  0  0  0  0  0
   -5.7390   22.5210  -31.7770 C   0  0  0  0  0  0  0  0  0  0  0  0
   -5.4790   21.2600  -32.5170 C   0  0  0  0  0  0  0  0  0  0  0  0
   -6.5470   20.4630  -32.9710 C   0  0  0  0  0  0  0  0  0  0  0  0
   -6.2980   19.2760  -33.6690 C   0  0  0  0  0  0  0  0  0  0  0  0
   -4.9850   18.8730  -33.9190 C   0  0  0  0  0  0  0  0  0  0  0  0
   -3.9170   19.6540  -33.4740 C   0  0  0  0  0  0  0  0  0  0  0  0
   -4.1600   20.8420  -32.7770 C   0  0  0  0  0  0  0  0  0  0  0  0
   -4.6710   23.3060  -31.3020 C   0  0  0  0  0  0  0  0  0  0  0  0
   -3.7150   25.4990  -29.1120 H   0  0  0  0  0  0  0  0  0  0  0  0
   -3.1110   25.6720  -30.7930 H   0  0  0  0  0  0  0  0  0  0  0  0
   -6.4290   25.8407  -29.8238 H   0  0  0  0  0  0  0  0  0  0  0  0
   -8.3341   24.4643  -30.6560 H   0  0  0  0  0  0  0  0  0  0  0  0
   -7.9036   22.3493  -31.9014 H   0  0  0  0  0  0  0  0  0  0  0  0
   -7.5835   20.7752  -32.7759 H   0  0  0  0  0  0  0  0  0  0  0  0
   -7.1382   18.6595  -34.0212 H   0  0  0  0  0  0  0  0  0  0  0  0
   -4.7918   17.9391  -34.4672 H   0  0  0  0  0  0  0  0  0  0  0  0
   -2.8831   19.3347  -33.6717 H   0  0  0  0  0  0  0  0  0  0  0  0
   -3.3146   21.4540  -32.4295 H   0  0  0  0  0  0  0  0  0  0  0  0
   -3.6353   22.9816  -31.4811 H   0  0  0  0  0  0  0  0  0  0  0  0
  1  2  1  0
  2  3  2  0
  3  4  1  0
  4  5  2  0
  5  6  1  0
  6  7  1  0
  7  8  2  0
  8  9  1  0
  9 10  2  0
 10 11  1  0
 11 12  2  0
  6 13  2  0
 13  2  1  0
 12  7  1  0
  1 14  1  0
  1 15  1  0
  3 16  1  0
  4 17  1  0
  5 18  1  0
  8 19  1  0
  9 20  1  0
 10 21  1  0
 11 22  1  0
 12 23  1  0
 13 24  1  0
M  END
>  <UniqueID>  (30) 
30

>  <SMILES>  (30) 
Nc1cccc(-c2ccccc2)c1

>  <Energy>  (30) 
29.031434968366664

>  <Genealogy>  (30) 
Nc1cccc(-c2ccccc2)c1 (3D coordinates assigned)
Nc1cccc(-c2ccccc2)c1 (optimized conformer: 29.031434968366664 kcal/mol)

>  <smiles>  (30) 
Nc1cccc(-c2ccccc2)c1

>  <score_type>  (30) 
oracle

>  <origin>  (30) 
adgpu

>  <m_score__min__energy>  (30) 
-6.6200000000000001

>  <m_primary>  (30) 
energy

$$$$
30:0
     RDKit          3D

 35 36  0  0  0  0  0  0  0  0999 V2000
   -7.0470   18.5510  -31.3430 O   0  0  0  0  0  0  0  0  0  0  0  0
   -7.1580   18.9450  -32.5360 C   0  0  0  0  0  0  0  0  0  0  0  0
   -6.1400   18.5220  -33.5510 C   0  0  0  0  0  0  0  0  0  0  0  0
   -4.9530   19.4450  -33.5080 C   0  0  0  0  0  0  0  0  0  0  0  0
   -3.6730   18.9720  -33.8380 C   0  0  0  0  0  0  0  0  0  0  0  0
   -2.5670   19.8250  -33.7650 C   0  0  0  0  0  0  0  0  0  0  0  0
   -2.7310   21.1510  -33.3550 C   0  0  0  0  0  0  0  0  0  0  0  0
   -4.0000   21.6260  -33.0140 C   0  0  0  0  0  0  0  0  0  0  0  0
   -5.1090   20.7770  -33.0860 C   0  0  0  0  0  0  0  0  0  0  0  0
   -8.2710   19.7550  -32.9300 N   0  0  0  0  0  0  0  0  0  0  0  0
   -9.2960   20.1620  -31.9690 C   0  0  0  0  0  0  0  0  0  0  0  0
   -9.4950   21.6830  -31.9630 C   0  0  0  0  0  0  0  0  0  0  0  0
   -8.2540   22.4050  -31.5010 C   0  0  0  0  0  0  0  0  0  0  0  0
   -7.8080   22.2640  -30.1760 C   0  0  0  0  0  0  0  0  0  0  0  0
   -6.6470   22.9150  -29.7500 C   0  0  0  0  0  0  0  0  0  0  0  0
   -5.9190   23.7100  -30.6420 C   0  0  0  0  0  0  0  0  0  0  0  0
   -4.4610   24.5240  -30.1060 Cl  0  0  0  0  0  0  0  0  0  0  0  0
   -6.3550   23.8520  -31.9640 C   0  0  0  0  0  0  0  0  0  0  0  0
   -7.5170   23.2020  -32.3930 C   0  0  0  0  0  0  0  0  0  0  0  0
   -5.8111   17.4957  -33.3306 H   0  0  0  0  0  0  0  0  0  0  0  0
   -6.5919   18.5630  -34.5530 H   0  0  0  0  0  0  0  0  0  0  0  0
   -3.5395   17.9272  -34.1550 H   0  0  0  0  0  0  0  0  0  0  0  0
   -1.5669   19.4518  -34.0306 H   0  0  0  0  0  0  0  0  0  0  0  0
   -1.8604   21.8212  -33.3007 H   0  0  0  0  0  0  0  0  0  0  0  0
   -4.1269   22.6690  -32.6885 H   0  0  0  0  0  0  0  0  0  0  0  0
   -6.1059   21.1524  -32.8117 H   0  0  0  0  0  0  0  0  0  0  0  0
   -8.3470   20.0430  -33.9320 H   0  0  0  0  0  0  0  0  0  0  0  0
  -10.2474   19.6789  -32.2363 H   0  0  0  0  0  0  0  0  0  0  0  0
   -8.9668   19.8549  -30.9653 H   0  0  0  0  0  0  0  0  0  0  0  0
   -9.7418   22.0145  -32.9824 H   0  0  0  0  0  0  0  0  0  0  0  0
  -10.3105   21.9199  -31.2638 H   0  0  0  0  0  0  0  0  0  0  0  0
   -8.3751   21.6385  -29.4710 H   0  0  0  0  0  0  0  0  0  0  0  0
   -6.3047   22.8021  -28.7107 H   0  0  0  0  0  0  0  0  0  0  0  0
   -5.7832   24.4757  -32.6669 H   0  0  0  0  0  0  0  0  0  0  0  0
   -7.8553   23.3154  -33.4335 H   0  0  0  0  0  0  0  0  0  0  0  0
  1  2  2  0
  2  3  1  0
  3  4  1  0
  4  5  2  0
  5  6  1  0
  6  7  2  0
  7  8  1  0
  8  9  2  0
  2 10  1  0
 10 11  1  0
 11 12  1  0
 12 13  1  0
 13 14  2  0
 14 15  1  0
 15 16  2  0
 16 17  1  0
 16 18  1  0
 18 19  2  0
  9  4  1  0
 19 13  1  0
  3 20  1  0
  3 21  1  0
  5 22  1  0
  6 23  1  0
  7 24  1  0
  8 25  1  0
  9 26  1  0
 10 27  1  0
 11 28  1  0
 11 29  1  0
 12 30  1  0
 12 31  1  0
 14 32  1  0
 15 33  1  0
 18 34  1  0
 19 35  1  0
M  END
>  <UniqueID>  (31) 
31

>  <SMILES>  (31) 
O=C(Cc1ccccc1)NCCc1ccc(Cl)cc1

>  <Energy>  (31) 
28.234657759141008

>  <Genealogy>  (31) 
O=C(Cc1ccccc1)NCCc1ccc(Cl)cc1 (3D coordinates assigned)
O=C(Cc1ccccc1)NCCc1ccc(Cl)cc1 (optimized conformer: 28.234657759141008 kcal/mol)

>  <smiles>  (31) 
O=C(Cc1ccccc1)NCCc1ccc(Cl)cc1

>  <score_type>  (31) 
oracle

>  <origin>  (31) 
adgpu

>  <m_score__min__energy>  (31) 
-8.3599999999999994

>  <m_primary>  (31) 
energy

$$$$
31:0
     RDKit          3D

 30 31  0  0  0  0  0  0  0  0999 V2000
   -2.3320   22.6430  -31.6660 O   0  0  0  0  0  0  0  0  0  0  0  0
   -2.7600   23.2600  -30.6540 C   0  0  0  0  0  0  0  0  0  0  0  0
   -3.5200   24.4610  -30.8200 N   0  0  0  0  0  0  0  0  0  0  0  0
   -5.1030   24.6550  -30.1450 S   0  0  0  0  0  0  0  0  0  0  0  0
   -5.6440   26.0020  -30.5310 O   0  0  0  0  0  0  0  0  0  0  0  0
   -5.0080   24.5710  -28.6470 O   0  0  0  0  0  0  0  0  0  0  0  0
   -6.1760   23.4040  -30.7650 C   0  0  0  0  0  0  0  0  0  0  0  0
   -7.2810   22.9900  -30.0070 C   0  0  0  0  0  0  0  0  0  0  0  0
   -8.1400   22.0020  -30.4980 C   0  0  0  0  0  0  0  0  0  0  0  0
   -7.8960   21.4190  -31.7470 C   0  0  0  0  0  0  0  0  0  0  0  0
   -8.9740   20.1800  -32.3630 Cl  0  0  0  0  0  0  0  0  0  0  0  0
   -6.7910   21.8250  -32.5030 C   0  0  0  0  0  0  0  0  0  0  0  0
   -5.9320   22.8140  -32.0120 C   0  0  0  0  0  0  0  0  0  0  0  0
   -2.5050   22.7310  -29.2960 C   0  0  0  0  0  0  0  0  0  0  0  0
   -3.1080   21.5150  -28.9240 C   0  0  0  0  0  0  0  0  0  0  0  0
   -2.8250   20.9270  -27.6910 C   0  0  0  0  0  0  0  0  0  0  0  0
   -1.9340   21.5400  -26.8130 C   0  0  0  0  0  0  0  0  0  0  0  0
   -1.3400   22.7560  -27.1550 C   0  0  0  0  0  0  0  0  0  0  0  0
   -1.6290   23.3760  -28.3830 C   0  0  0  0  0  0  0  0  0  0  0  0
   -1.0710   24.6730  -28.6530 N   0  0  0  0  0  0  0  0  0  0  0  0
   -1.8150   25.6250  -28.9640 O   0  0  0  0  0  0  0  0  0  0  0  0
    0.2450   24.9320  -28.3430 O   0  0  0  0  0  0  0  0  0  0  0  0
   -7.4724   23.4438  -29.0234 H   0  0  0  0  0  0  0  0  0  0  0  0
   -9.0080   21.6827  -29.9025 H   0  0  0  0  0  0  0  0  0  0  0  0
   -6.5975   21.3663  -33.4839 H   0  0  0  0  0  0  0  0  0  0  0  0
   -5.0622   23.1294  -32.6070 H   0  0  0  0  0  0  0  0  0  0  0  0
   -3.8101   21.0228  -29.6130 H   0  0  0  0  0  0  0  0  0  0  0  0
   -3.3061   19.9780  -27.4117 H   0  0  0  0  0  0  0  0  0  0  0  0
   -1.6983   21.0653  -25.8491 H   0  0  0  0  0  0  0  0  0  0  0  0
   -0.6381   23.2343  -26.4560 H   0  0  0  0  0  0  0  0  0  0  0  0
  1  2  2  0
  2  3  1  0
  3  4  1  0
  4  5  2  0
  4  6  2  0
  4  7  1  0
  7  8  2  0
  8  9  1  0
  9 10  2  0
 10 11  1  0
 10 12  1  0
 12 13  2  0
  2 14  1  0
 14 15  2  0
 15 16  1  0
 16 17  2  0
 17 18  1  0
 18 19  2  0
 19 20  1  0
 20 21  2  0
 20 22  1  0
 13  7  1  0
 19 14  1  0
  8 23  1  0
  9 24  1  0
 12 25  1  0
 13 26  1  0
 15 27  1  0
 16 28  1  0
 17 29  1  0
 18 30  1  0
M  CHG  3   3  -1  20   1  22  -1
M  END
>  <UniqueID>  (32) 
32

>  <SMILES>  (32) 
O=C([N-]S(=O)(=O)c1ccc(Cl)cc1)c1ccccc1[N+](=O)[O-]

>  <Energy>  (32) 
41.113062776613695

>  <Genealogy>  (32) 
O=C([N-]S(=O)(=O)c1ccc(Cl)cc1)c1ccccc1[N+](=O)[O-] (protonated)
O=C([N-]S(=O)(=O)c1ccc(Cl)cc1)c1ccccc1[N+](=O)[O-] (3D coordinates assigned)
O=C([N-]S(=O)(=O)c1ccc(Cl)cc1)c1ccccc1[N+](=O)[O-] (optimized conformer: 41.113062776613695 kcal/mol)

>  <smiles>  (32) 
O=C(NS(=O)(=O)c1ccc(Cl)cc1)c1ccccc1[N+](=O)[O-]

>  <score_type>  (32) 
oracle

>  <origin>  (32) 
adgpu

>  <m_score__min__energy>  (32) 
-9.8300000000000001

>  <m_primary>  (32) 
energy

$$$$
32:0
     RDKit          3D

 28 29  0  0  0  0  0  0  0  0999 V2000
   -2.3180   24.1280  -29.2500 C   0  0  0  0  0  0  0  0  0  0  0  0
   -3.1440   24.9190  -30.0980 O   0  0  0  0  0  0  0  0  0  0  0  0
   -4.4950   24.6530  -30.3620 C   0  0  0  0  0  0  0  0  0  0  0  0
   -5.4610   25.2580  -29.5480 C   0  0  0  0  0  0  0  0  0  0  0  0
   -6.8200   25.0170  -29.7640 C   0  0  0  0  0  0  0  0  0  0  0  0
   -7.2270   24.1760  -30.8020 C   0  0  0  0  0  0  0  0  0  0  0  0
   -6.2740   23.5790  -31.6450 C   0  0  0  0  0  0  0  0  0  0  0  0
   -6.6690   22.6880  -32.7030 N   0  0  0  0  0  0  0  0  0  0  0  0
   -6.4140   21.2730  -32.7100 C   0  0  0  0  0  0  0  0  0  0  0  0
   -5.1270   20.7630  -32.9670 C   0  0  0  0  0  0  0  0  0  0  0  0
   -4.8970   19.3840  -32.9410 C   0  0  0  0  0  0  0  0  0  0  0  0
   -5.9420   18.5030  -32.6440 C   0  0  0  0  0  0  0  0  0  0  0  0
   -5.6250   16.6210  -32.6070 Br  0  0  0  0  0  0  0  0  0  0  0  0
   -7.2170   19.0040  -32.3650 C   0  0  0  0  0  0  0  0  0  0  0  0
   -7.4500   20.3830  -32.3890 C   0  0  0  0  0  0  0  0  0  0  0  0
   -4.9100   23.8070  -31.4080 C   0  0  0  0  0  0  0  0  0  0  0  0
   -2.5514   24.3515  -28.1985 H   0  0  0  0  0  0  0  0  0  0  0  0
   -2.5034   23.0620  -29.4481 H   0  0  0  0  0  0  0  0  0  0  0  0
   -1.2610   24.3594  -29.4481 H   0  0  0  0  0  0  0  0  0  0  0  0
   -5.1475   25.9273  -28.7333 H   0  0  0  0  0  0  0  0  0  0  0  0
   -7.5712   25.4907  -29.1150 H   0  0  0  0  0  0  0  0  0  0  0  0
   -8.2978   23.9801  -30.9604 H   0  0  0  0  0  0  0  0  0  0  0  0
   -7.1760   23.0960  -33.5210 H   0  0  0  0  0  0  0  0  0  0  0  0
   -4.2990   21.4523  -33.1892 H   0  0  0  0  0  0  0  0  0  0  0  0
   -3.8920   18.9911  -33.1546 H   0  0  0  0  0  0  0  0  0  0  0  0
   -8.0384   18.3125  -32.1262 H   0  0  0  0  0  0  0  0  0  0  0  0
   -8.4518   20.7721  -32.1547 H   0  0  0  0  0  0  0  0  0  0  0  0
   -4.1576   23.3200  -32.0457 H   0  0  0  0  0  0  0  0  0  0  0  0
  1  2  1  0
  2  3  1  0
  3  4  2  0
  4  5  1  0
  5  6  2  0
  6  7  1  0
  7  8  1  0
  8  9  1  0
  9 10  2  0
 10 11  1  0
 11 12  2  0
 12 13  1  0
 12 14  1  0
 14 15  2  0
  7 16  2  0
 16  3  1  0
 15  9  1  0
  1 17  1  0
  1 18  1  0
  1 19  1  0
  4 20  1  0
  5 21  1  0
  6 22  1  0
  8 23  1  0
 10 24  1  0
 11 25  1  0
 14 26  1  0
 15 27  1  0
 16 28  1  0
M  END
>  <UniqueID>  (33) 
33

>  <SMILES>  (33) 
COc1cccc(Nc2ccc(Br)cc2)c1

>  <Energy>  (33) 
33.11449501569239

>  <Genealogy>  (33) 
COc1cccc(Nc2ccc(Br)cc2)c1 (3D coordinates assigned)
COc1cccc(Nc2ccc(Br)cc2)c1 (optimized conformer: 33.11449501569239 kcal/mol)

>  <smiles>  (33) 
COc1cccc(Nc2ccc(Br)cc2)c1

>  <score_type>  (33) 
oracle

>  <origin>  (33) 
adgpu

>  <m_score__min__energy>  (33) 
-7.1900000000000004

>  <m_primary>  (33) 
energy

$$$$
33:0
     RDKit          3D

 36 38  0  0  1  0  0  0  0  0999 V2000
   -6.4500   16.3190  -33.5850 C   0  0  0  0  0  0  0  0  0  0  0  0
   -6.8400   17.7220  -33.2640 C   0  0  0  0  0  0  0  0  0  0  0  0
   -6.2010   18.7780  -33.8820 C   0  0  0  0  0  0  0  0  0  0  0  0
   -6.6050   20.0630  -33.5440 C   0  0  0  0  0  0  0  0  0  0  0  0
   -7.6030   20.3020  -32.6310 C   0  0  0  0  0  0  0  0  0  0  0  0
   -8.0090   21.6250  -32.2920 N   0  0  0  0  0  0  0  0  0  0  0  0
   -7.2350   22.2810  -31.5310 C   0  0  0  0  0  0  0  0  0  0  0  0
   -7.2900   23.4810  -31.0320 N   0  0  0  0  0  0  0  0  0  0  0  0
   -6.3850   23.9690  -30.2650 N   0  0  0  0  0  0  0  0  0  0  0  0
   -6.4910   25.3530  -29.7260 C   0  0  0  0  0  0  0  0  0  0  0  0
   -5.3220   23.2200  -29.9520 C   0  0  0  0  0  0  0  0  0  0  0  0
   -4.1280   23.3580  -29.1670 C   0  0  0  0  0  0  0  0  0  0  0  0
   -3.7260   22.5660  -28.1310 C   0  0  0  0  0  0  0  0  0  0  0  0
   -2.5530   22.7650  -27.4060 C   0  0  0  0  0  0  0  0  0  0  0  0
   -1.7380   23.8090  -27.7290 C   0  0  0  0  0  0  0  0  0  0  0  0
   -2.0910   24.6280  -28.7530 C   0  0  0  0  0  0  0  0  0  0  0  0
   -3.2490   24.4230  -29.4620 C   0  0  0  0  0  0  0  0  0  0  0  0
   -3.5060   25.2990  -30.4620 F   0  0  0  0  0  0  0  0  0  0  0  0
   -5.6580   21.6370  -30.8570 S   0  0  0  0  0  0  0  0  0  0  0  0
   -8.2280   19.2430  -32.0250 C   0  0  0  0  0  0  0  0  0  0  0  0
   -7.8390   17.9590  -32.3500 C   0  0  0  0  0  0  0  0  0  0  0  0
   -6.2943   15.7589  -32.6512 H   0  0  0  0  0  0  0  0  0  0  0  0
   -7.2493   15.8410  -34.1703 H   0  0  0  0  0  0  0  0  0  0  0  0
   -5.5187   16.3221  -34.1703 H   0  0  0  0  0  0  0  0  0  0  0  0
   -5.4000   18.6077  -34.6164 H   0  0  0  0  0  0  0  0  0  0  0  0
   -6.1085   20.9191  -34.0241 H   0  0  0  0  0  0  0  0  0  0  0  0
   -8.1720   24.0880  -31.2980 H   0  0  0  0  0  0  0  0  0  0  0  0
   -6.4884   25.3195  -28.6265 H   0  0  0  0  0  0  0  0  0  0  0  0
   -5.6359   25.9495  -30.0767 H   0  0  0  0  0  0  0  0  0  0  0  0
   -7.4270   25.8124  -30.0767 H   0  0  0  0  0  0  0  0  0  0  0  0
   -4.3679   21.7178  -27.8509 H   0  0  0  0  0  0  0  0  0  0  0  0
   -2.2873   22.0869  -26.5817 H   0  0  0  0  0  0  0  0  0  0  0  0
   -0.8082   23.9853  -27.1684 H   0  0  0  0  0  0  0  0  0  0  0  0
   -1.4371   25.4714  -29.0195 H   0  0  0  0  0  0  0  0  0  0  0  0
   -9.0283   19.4140  -31.2900 H   0  0  0  0  0  0  0  0  0  0  0  0
   -8.3394   17.1068  -31.8670 H   0  0  0  0  0  0  0  0  0  0  0  0
  1  2  1  0
  2  3  2  0
  3  4  1  0
  4  5  2  0
  5  6  1  0
  6  7  2  0
  7  8  1  0
  8  9  1  0
  9 10  1  0
  9 11  2  0
 11 12  1  0
 12 13  2  0
 13 14  1  0
 14 15  2  0
 15 16  1  0
 16 17  2  0
 17 18  1  0
 11 19  1  0
  5 20  1  0
 20 21  2  0
 21  2  1  0
 19  7  1  0
 17 12  1  0
  1 22  1  0
  1 23  1  0
  1 24  1  0
  3 25  1  0
  4 26  1  0
  8 27  1  0
 10 28  1  0
 10 29  1  0
 10 30  1  0
 13 31  1  0
 14 32  1  0
 15 33  1  0
 16 34  1  0
 20 35  1  0
 21 36  1  0
M  CHG  1   9   1
M  END
>  <smiles>  (34) 
Cc1ccc(N=c2[nH][n+](C)c(-c3ccccc3F)s2)cc1

>  <score_type>  (34) 
oracle

>  <origin>  (34) 
adgpu

>  <m_score__min__energy>  (34) 
-7.5499999999999998

>  <m_primary>  (34) 
energy

$$$$
34:0
     RDKit          3D

 51 54  0  0  0  0  0  0  0  0999 V2000
   -0.8390   26.5010  -23.6020 C   0  0  0  0  0  0  0  0  0  0  0  0
   -0.6960   27.6470  -25.0090 S   0  0  0  0  0  0  0  0  0  0  0  0
   -1.2630   26.4380  -26.2060 C   0  0  0  0  0  0  0  0  0  0  0  0
   -2.3950   25.6610  -25.9370 C   0  0  0  0  0  0  0  0  0  0  0  0
   -2.8340   24.7150  -26.8670 C   0  0  0  0  0  0  0  0  0  0  0  0
   -2.1550   24.5460  -28.0840 C   0  0  0  0  0  0  0  0  0  0  0  0
   -2.6160   23.5530  -29.0140 N   0  0  0  0  0  0  0  0  0  0  0  0
   -3.3890   23.8510  -30.1910 C   0  0  0  0  0  0  0  0  0  0  0  0
   -3.6680   25.0450  -30.4860 O   0  0  0  0  0  0  0  0  0  0  0  0
   -3.8640   22.7680  -31.0750 C   0  0  0  0  0  0  0  0  0  0  0  0
   -5.2420   22.4740  -31.1750 C   0  0  0  0  0  0  0  0  0  0  0  0
   -5.6950   21.4190  -32.0170 C   0  0  0  0  0  0  0  0  0  0  0  0
   -7.1380   21.0880  -32.1360 C   0  0  0  0  0  0  0  0  0  0  0  0
   -8.1070   22.0320  -31.7410 C   0  0  0  0  0  0  0  0  0  0  0  0
   -9.4690   21.7360  -31.8410 C   0  0  0  0  0  0  0  0  0  0  0  0
   -9.8820   20.4950  -32.3280 C   0  0  0  0  0  0  0  0  0  0  0  0
   -8.9330   19.5440  -32.7110 C   0  0  0  0  0  0  0  0  0  0  0  0
   -7.5680   19.8350  -32.6140 C   0  0  0  0  0  0  0  0  0  0  0  0
   -4.7830   20.6700  -32.7120 N   0  0  0  0  0  0  0  0  0  0  0  0
   -3.4640   20.9590  -32.6060 C   0  0  0  0  0  0  0  0  0  0  0  0
   -2.9940   21.9630  -31.8170 C   0  0  0  0  0  0  0  0  0  0  0  0
   -1.6160   21.8570  -31.8940 C   0  0  0  0  0  0  0  0  0  0  0  0
   -1.3070   20.8230  -32.7160 N   0  0  0  0  0  0  0  0  0  0  0  0
   -2.4410   20.2870  -33.1580 N   0  0  0  0  0  0  0  0  0  0  0  0
   -2.5240   19.0850  -33.9940 C   0  0  0  0  0  0  0  0  0  0  0  0
   -3.4300   18.0500  -33.3260 C   0  0  0  0  0  0  0  0  0  0  0  0
   -1.1270   18.5130  -34.2440 C   0  0  0  0  0  0  0  0  0  0  0  0
   -1.0010   25.3100  -28.3370 C   0  0  0  0  0  0  0  0  0  0  0  0
   -0.5610   26.2530  -27.4030 C   0  0  0  0  0  0  0  0  0  0  0  0
   -0.7685   27.0656  -22.6606 H   0  0  0  0  0  0  0  0  0  0  0  0
   -1.8087   25.9836  -23.6476 H   0  0  0  0  0  0  0  0  0  0  0  0
   -0.0262   25.7612  -23.6476 H   0  0  0  0  0  0  0  0  0  0  0  0
   -2.9406   25.7951  -24.9913 H   0  0  0  0  0  0  0  0  0  0  0  0
   -3.7174   24.0987  -26.6440 H   0  0  0  0  0  0  0  0  0  0  0  0
   -2.4280   22.5530  -28.7810 H   0  0  0  0  0  0  0  0  0  0  0  0
   -5.9698   23.0640  -30.5986 H   0  0  0  0  0  0  0  0  0  0  0  0
   -7.7886   23.0099  -31.3507 H   0  0  0  0  0  0  0  0  0  0  0  0
  -10.2170   22.4824  -31.5353 H   0  0  0  0  0  0  0  0  0  0  0  0
  -10.9547   20.2657  -32.4103 H   0  0  0  0  0  0  0  0  0  0  0  0
   -9.2597   18.5643  -33.0897 H   0  0  0  0  0  0  0  0  0  0  0  0
   -6.8258   19.0802  -32.9130 H   0  0  0  0  0  0  0  0  0  0  0  0
   -0.8925   22.5032  -31.3754 H   0  0  0  0  0  0  0  0  0  0  0  0
   -2.9595   19.3518  -34.9682 H   0  0  0  0  0  0  0  0  0  0  0  0
   -3.3488   18.1427  -32.2329 H   0  0  0  0  0  0  0  0  0  0  0  0
   -4.4723   18.2229  -33.6323 H   0  0  0  0  0  0  0  0  0  0  0  0
   -3.1206   17.0398  -33.6323 H   0  0  0  0  0  0  0  0  0  0  0  0
   -0.6354   18.3117  -33.2808 H   0  0  0  0  0  0  0  0  0  0  0  0
   -1.2110   17.5769  -34.8155 H   0  0  0  0  0  0  0  0  0  0  0  0
   -0.5303   19.2392  -34.8155 H   0  0  0  0  0  0  0  0  0  0  0  0
   -0.4425   25.1649  -29.2735 H   0  0  0  0  0  0  0  0  0  0  0  0
    0.3389   26.8509  -27.6093 H   0  0  0  0  0  0  0  0  0  0  0  0
  1  2  1  0
  2  3  1  0
  3  4  2  0
  4  5  1  0
  5  6  2  0
  6  7  1  0
  7  8  1  0
  8  9  2  0
  8 10  1  0
 10 11  2  0
 11 12  1  0
 12 13  1  0
 13 14  2  0
 14 15  1  0
 15 16  2  0
 16 17  1  0
 17 18  2  0
 12 19  2  0
 19 20  1  0
 20 21  2  0
 21 22  1  0
 22 23  2  0
 23 24  1  0
 24 25  1  0
 25 26  1  0
 25 27  1  0
  6 28  1  0
 28 29  2  0
 29  3  1  0
 21 10  1  0
 18 13  1  0
 24 20  1  0
  1 30  1  0
  1 31  1  0
  1 32  1  0
  4 33  1  0
  5 34  1  0
  7 35  1  0
 11 36  1  0
 14 37  1  0
 15 38  1  0
 16 39  1  0
 17 40  1  0
 18 41  1  0
 22 42  1  0
 25 43  1  0
 26 44  1  0
 26 45  1  0
 26 46  1  0
 27 47  1  0
 27 48  1  0
 27 49  1  0
 28 50  1  0
 29 51  1  0
M  END
>  <UniqueID>  (35) 
34

>  <SMILES>  (35) 
CSc1ccc(NC(=O)c2cc(-c3ccccc3)nc3c2cnn3C(C)C)cc1

>  <Energy>  (35) 
98.67991708821103

>  <Genealogy>  (35) 
CSc1ccc(NC(=O)c2cc(-c3ccccc3)nc3c2cnn3C(C)C)cc1 (3D coordinates assigned)
CSc1ccc(NC(=O)c2cc(-c3ccccc3)nc3c2cnn3C(C)C)cc1 (optimized conformer: 98.67991708821103 kcal/mol)

>  <smiles>  (35) 
CSc1ccc(NC(=O)c2cc(-c3ccccc3)nc3c2cnn3C(C)C)cc1

>  <score_type>  (35) 
oracle

>  <origin>  (35) 
adgpu

>  <m_score__min__energy>  (35) 
-9.7799999999999994

>  <m_primary>  (35) 
energy

$$$$
35:0
     RDKit          3D

 27 28  0  0  0  0  0  0  0  0999 V2000
   -2.6770   24.5510  -28.6930 C   0  0  0  0  0  0  0  0  0  0  0  0
   -3.3950   24.9310  -29.8620 O   0  0  0  0  0  0  0  0  0  0  0  0
   -4.1460   24.0470  -30.6520 C   0  0  0  0  0  0  0  0  0  0  0  0
   -5.3710   24.4900  -31.1610 C   0  0  0  0  0  0  0  0  0  0  0  0
   -6.1540   23.6510  -31.9560 C   0  0  0  0  0  0  0  0  0  0  0  0
   -5.7180   22.3590  -32.2730 C   0  0  0  0  0  0  0  0  0  0  0  0
   -6.5390   21.5700  -33.0910 O   0  0  0  0  0  0  0  0  0  0  0  0
   -7.2340   20.4210  -32.6820 C   0  0  0  0  0  0  0  0  0  0  0  0
   -6.8980   19.1300  -33.1520 C   0  0  0  0  0  0  0  0  0  0  0  0
   -5.6480   18.8690  -34.3630 Cl  0  0  0  0  0  0  0  0  0  0  0  0
   -7.6160   18.0160  -32.7000 C   0  0  0  0  0  0  0  0  0  0  0  0
   -8.6710   18.1760  -31.8000 C   0  0  0  0  0  0  0  0  0  0  0  0
   -9.0250   19.4500  -31.3560 C   0  0  0  0  0  0  0  0  0  0  0  0
   -8.3160   20.5710  -31.8000 C   0  0  0  0  0  0  0  0  0  0  0  0
   -8.7750   22.1630  -31.2150 Cl  0  0  0  0  0  0  0  0  0  0  0  0
   -4.4950   21.8920  -31.7390 C   0  0  0  0  0  0  0  0  0  0  0  0
   -3.9440   20.2360  -31.9670 Cl  0  0  0  0  0  0  0  0  0  0  0  0
   -3.7160   22.7390  -30.9410 C   0  0  0  0  0  0  0  0  0  0  0  0
   -3.2448   24.8515  -27.8001 H   0  0  0  0  0  0  0  0  0  0  0  0
   -2.5358   23.4601  -28.6878 H   0  0  0  0  0  0  0  0  0  0  0  0
   -1.6956   25.0478  -28.6878 H   0  0  0  0  0  0  0  0  0  0  0  0
   -5.7204   25.5078  -30.9331 H   0  0  0  0  0  0  0  0  0  0  0  0
   -7.1222   24.0083  -32.3367 H   0  0  0  0  0  0  0  0  0  0  0  0
   -7.3475   17.0103  -33.0557 H   0  0  0  0  0  0  0  0  0  0  0  0
   -9.2241   17.2958  -31.4403 H   0  0  0  0  0  0  0  0  0  0  0  0
   -9.8637   19.5734  -30.6550 H   0  0  0  0  0  0  0  0  0  0  0  0
   -2.7589   22.3782  -30.5363 H   0  0  0  0  0  0  0  0  0  0  0  0
  1  2  1  0
  2  3  1  0
  3  4  2  0
  4  5  1  0
  5  6  2  0
  6  7  1  0
  7  8  1  0
  8  9  2  0
  9 10  1  0
  9 11  1  0
 11 12  2  0
 12 13  1  0
 13 14  2  0
 14 15  1  0
  6 16  1  0
 16 17  1  0
 16 18  2  0
 18  3  1  0
 14  8  1  0
  1 19  1  0
  1 20  1  0
  1 21  1  0
  4 22  1  0
  5 23  1  0
 11 24  1  0
 12 25  1  0
 13 26  1  0
 18 27  1  0
M  END
>  <UniqueID>  (36) 
35

>  <SMILES>  (36) 
COc1ccc(Oc2c(Cl)cccc2Cl)c(Cl)c1

>  <Energy>  (36) 
38.805110527306084

>  <Genealogy>  (36) 
COc1ccc(Oc2c(Cl)cccc2Cl)c(Cl)c1 (3D coordinates assigned)
COc1ccc(Oc2c(Cl)cccc2Cl)c(Cl)c1 (optimized conformer: 38.805110527306084 kcal/mol)

>  <smiles>  (36) 
COc1ccc(Oc2c(Cl)cccc2Cl)c(Cl)c1

>  <score_type>  (36) 
oracle

>  <origin>  (36) 
adgpu

>  <m_score__min__energy>  (36) 
-7.5300000000000002

>  <m_primary>  (36) 
energy

$$$$
36:0
     RDKit          3D

 30 31  0  0  0  0  0  0  0  0999 V2000
   -4.5110   24.2230  -28.7030 O   0  0  0  0  0  0  0  0  0  0  0  0
   -3.7640   24.7170  -29.5880 C   0  0  0  0  0  0  0  0  0  0  0  0
   -4.3380   25.0960  -30.8450 N   0  0  0  0  0  0  0  0  0  0  0  0
   -5.7550   24.9860  -31.1800 C   0  0  0  0  0  0  0  0  0  0  0  0
   -6.0960   23.5750  -31.5820 C   0  0  0  0  0  0  0  0  0  0  0  0
   -7.4210   23.1130  -31.5200 C   0  0  0  0  0  0  0  0  0  0  0  0
   -7.7300   21.8080  -31.9150 C   0  0  0  0  0  0  0  0  0  0  0  0
   -6.7200   20.9540  -32.3700 C   0  0  0  0  0  0  0  0  0  0  0  0
   -5.4000   21.4050  -32.4290 C   0  0  0  0  0  0  0  0  0  0  0  0
   -5.0860   22.7100  -32.0360 C   0  0  0  0  0  0  0  0  0  0  0  0
   -2.3660   24.9150  -29.3240 N   0  0  0  0  0  0  0  0  0  0  0  0
   -1.6320   24.1490  -28.3510 C   0  0  0  0  0  0  0  0  0  0  0  0
   -1.3080   24.7110  -27.1030 C   0  0  0  0  0  0  0  0  0  0  0  0
   -0.6270   23.9610  -26.1430 C   0  0  0  0  0  0  0  0  0  0  0  0
   -0.2700   22.6400  -26.4100 C   0  0  0  0  0  0  0  0  0  0  0  0
   -0.5960   22.0570  -27.6390 C   0  0  0  0  0  0  0  0  0  0  0  0
   -0.1290   20.3860  -27.9290 Cl  0  0  0  0  0  0  0  0  0  0  0  0
   -1.2820   22.8060  -28.6130 C   0  0  0  0  0  0  0  0  0  0  0  0
   -1.6710   22.0690  -30.1700 Cl  0  0  0  0  0  0  0  0  0  0  0  0
   -6.3568   25.2677  -30.3034 H   0  0  0  0  0  0  0  0  0  0  0  0
   -5.9736   25.6579  -32.0230 H   0  0  0  0  0  0  0  0  0  0  0  0
   -8.2180   23.7800  -31.1596 H   0  0  0  0  0  0  0  0  0  0  0  0
   -8.7697   21.4520  -31.8679 H   0  0  0  0  0  0  0  0  0  0  0  0
   -6.9655   19.9279  -32.6811 H   0  0  0  0  0  0  0  0  0  0  0  0
   -4.6055   20.7327  -32.7852 H   0  0  0  0  0  0  0  0  0  0  0  0
   -4.0444   23.0606  -32.0825 H   0  0  0  0  0  0  0  0  0  0  0  0
   -1.8710   25.6740  -29.8390 H   0  0  0  0  0  0  0  0  0  0  0  0
   -1.5936   25.7500  -26.8818 H   0  0  0  0  0  0  0  0  0  0  0  0
   -0.3713   24.4132  -25.1734 H   0  0  0  0  0  0  0  0  0  0  0  0
    0.2699   22.0542  -25.6515 H   0  0  0  0  0  0  0  0  0  0  0  0
  1  2  2  0
  2  3  1  0
  3  4  1  0
  4  5  1  0
  5  6  2  0
  6  7  1  0
  7  8  2  0
  8  9  1  0
  9 10  2  0
  2 11  1  0
 11 12  1  0
 12 13  2  0
 13 14  1  0
 14 15  2  0
 15 16  1  0
 16 17  1  0
 16 18  2  0
 18 19  1  0
 10  5  1  0
 18 12  1  0
  4 20  1  0
  4 21  1  0
  6 22  1  0
  7 23  1  0
  8 24  1  0
  9 25  1  0
 10 26  1  0
 11 27  1  0
 13 28  1  0
 14 29  1  0
 15 30  1  0
M  CHG  1   3  -1
M  END
>  <UniqueID>  (37) 
36

>  <SMILES>  (37) 
O=C([N-]Cc1ccccc1)Nc1cccc(Cl)c1Cl

>  <Energy>  (37) 
33.71776950800232

>  <Genealogy>  (37) 
O=C([N-]Cc1ccccc1)Nc1cccc(Cl)c1Cl (protonated)
O=C([N-]Cc1ccccc1)Nc1cccc(Cl)c1Cl (3D coordinates assigned)
O=C([N-]Cc1ccccc1)Nc1cccc(Cl)c1Cl (optimized conformer: 33.71776950800232 kcal/mol)

>  <smiles>  (37) 
O=C(NCc1ccccc1)Nc1cccc(Cl)c1Cl

>  <score_type>  (37) 
oracle

>  <origin>  (37) 
adgpu

>  <m_score__min__energy>  (37) 
-8.6999999999999993

>  <m_primary>  (37) 
energy

$$$$
37:0
     RDKit          3D

 43 45  0  0  0  0  0  0  0  0999 V2000
   -5.9010   16.3110  -34.2250 C   0  0  0  0  0  0  0  0  0  0  0  0
   -6.7680   17.3530  -33.6830 N   0  0  0  0  0  0  0  0  0  0  0  0
   -6.3060   18.6800  -33.3610 C   0  0  0  0  0  0  0  0  0  0  0  0
   -4.9910   19.0710  -33.6740 C   0  0  0  0  0  0  0  0  0  0  0  0
   -4.5550   20.3830  -33.4620 C   0  0  0  0  0  0  0  0  0  0  0  0
   -3.2090   20.7290  -33.8110 N   0  0  0  0  0  0  0  0  0  0  0  0
   -2.1000   20.6130  -32.8990 C   0  0  0  0  0  0  0  0  0  0  0  0
   -2.2450   20.0150  -31.6310 C   0  0  0  0  0  0  0  0  0  0  0  0
   -1.1490   19.9150  -30.7690 C   0  0  0  0  0  0  0  0  0  0  0  0
    0.0970   20.4130  -31.1580 C   0  0  0  0  0  0  0  0  0  0  0  0
    0.2490   21.0120  -32.4110 C   0  0  0  0  0  0  0  0  0  0  0  0
   -0.8440   21.1130  -33.2770 C   0  0  0  0  0  0  0  0  0  0  0  0
   -5.4250   21.3310  -32.8880 C   0  0  0  0  0  0  0  0  0  0  0  0
   -4.9690   22.6720  -32.6160 N   0  0  0  0  0  0  0  0  0  0  0  0
   -4.5710   23.1310  -31.3160 C   0  0  0  0  0  0  0  0  0  0  0  0
   -3.2370   22.9740  -30.9180 C   0  0  0  0  0  0  0  0  0  0  0  0
   -2.8180   23.4110  -29.6590 C   0  0  0  0  0  0  0  0  0  0  0  0
   -3.7340   23.9950  -28.7800 C   0  0  0  0  0  0  0  0  0  0  0  0
   -3.2080   24.5420  -27.1980 Cl  0  0  0  0  0  0  0  0  0  0  0  0
   -5.0740   24.1310  -29.1570 C   0  0  0  0  0  0  0  0  0  0  0  0
   -5.5020   23.6950  -30.4180 C   0  0  0  0  0  0  0  0  0  0  0  0
   -7.2120   23.8080  -30.8120 Cl  0  0  0  0  0  0  0  0  0  0  0  0
   -6.7410   20.9460  -32.5780 C   0  0  0  0  0  0  0  0  0  0  0  0
   -7.1850   19.6300  -32.7900 C   0  0  0  0  0  0  0  0  0  0  0  0
   -8.5120   19.2660  -32.3780 N   0  0  0  0  0  0  0  0  0  0  0  0
   -8.7320   18.1360  -31.8950 O   0  0  0  0  0  0  0  0  0  0  0  0
   -9.5820   20.0630  -32.7150 O   0  0  0  0  0  0  0  0  0  0  0  0
   -5.4370   15.7533  -33.3982 H   0  0  0  0  0  0  0  0  0  0  0  0
   -6.4968   15.6228  -34.8426 H   0  0  0  0  0  0  0  0  0  0  0  0
   -5.1160   16.7717  -34.8426 H   0  0  0  0  0  0  0  0  0  0  0  0
   -7.7700   17.1020  -33.5260 H   0  0  0  0  0  0  0  0  0  0  0  0
   -4.2931   18.3312  -34.0931 H   0  0  0  0  0  0  0  0  0  0  0  0
   -3.0620   21.2210  -34.7210 H   0  0  0  0  0  0  0  0  0  0  0  0
   -3.2249   19.6252  -31.3183 H   0  0  0  0  0  0  0  0  0  0  0  0
   -1.2679   19.4433  -29.7824 H   0  0  0  0  0  0  0  0  0  0  0  0
    0.9580   20.3335  -30.4780 H   0  0  0  0  0  0  0  0  0  0  0  0
    1.2300   21.4047  -32.7166 H   0  0  0  0  0  0  0  0  0  0  0  0
   -0.7188   21.5876  -34.2614 H   0  0  0  0  0  0  0  0  0  0  0  0
   -5.0220   23.3910  -33.3710 H   0  0  0  0  0  0  0  0  0  0  0  0
   -2.5147   22.5035  -31.6013 H   0  0  0  0  0  0  0  0  0  0  0  0
   -1.7660   23.2953  -29.3593 H   0  0  0  0  0  0  0  0  0  0  0  0
   -5.7955   24.5825  -28.4601 H   0  0  0  0  0  0  0  0  0  0  0  0
   -7.4365   21.6894  -32.1614 H   0  0  0  0  0  0  0  0  0  0  0  0
  1  2  1  0
  2  3  1  0
  3  4  2  0
  4  5  1  0
  5  6  1  0
  6  7  1  0
  7  8  2  0
  8  9  1  0
  9 10  2  0
 10 11  1  0
 11 12  2  0
  5 13  2  0
 13 14  1  0
 14 15  1  0
 15 16  2  0
 16 17  1  0
 17 18  2  0
 18 19  1  0
 18 20  1  0
 20 21  2  0
 21 22  1  0
 13 23  1  0
 23 24  2  0
 24 25  1  0
 25 26  2  0
 25 27  1  0
 24  3  1  0
 12  7  1  0
 21 15  1  0
  1 28  1  0
  1 29  1  0
  1 30  1  0
  2 31  1  0
  4 32  1  0
  6 33  1  0
  8 34  1  0
  9 35  1  0
 10 36  1  0
 11 37  1  0
 12 38  1  0
 14 39  1  0
 16 40  1  0
 17 41  1  0
 20 42  1  0
 23 43  1  0
M  CHG  2  25   1  27  -1
M  END
>  <UniqueID>  (38) 
37

>  <SMILES>  (38) 
CNc1cc(Nc2ccccc2)c(Nc2ccc(Cl)cc2Cl)cc1[N+](=O)[O-]

>  <Energy>  (38) 
65.99039277226134

>  <Genealogy>  (38) 
CNc1cc(Nc2ccccc2)c(Nc2ccc(Cl)cc2Cl)cc1[N+](=O)[O-] (3D coordinates assigned)
CNc1cc(Nc2ccccc2)c(Nc2ccc(Cl)cc2Cl)cc1[N+](=O)[O-] (optimized conformer: 65.99039277226134 kcal/mol)

>  <smiles>  (38) 
CNc1cc(Nc2ccccc2)c(Nc2ccc(Cl)cc2Cl)cc1[N+](=O)[O-]

>  <score_type>  (38) 
oracle

>  <origin>  (38) 
adgpu

>  <m_score__min__energy>  (38) 
-8.9399999999999995

>  <m_primary>  (38) 
energy

$$$$
38:0
     RDKit          3D

 34 35  0  0  0  0  0  0  0  0999 V2000
   -9.3240   18.5850  -32.3120 C   0  0  0  0  0  0  0  0  0  0  0  0
   -8.6270   19.8350  -32.6810 N   0  0  0  0  0  0  0  0  0  0  0  0
   -9.4980   20.9780  -32.3350 C   0  0  0  0  0  0  0  0  0  0  0  0
   -7.3040   19.9380  -31.9890 C   0  0  1  0  0  0  0  0  0  0  0  0
   -6.1620   19.3050  -32.7780 C   0  0  0  0  0  0  0  0  0  0  0  0
   -6.3680   18.7280  -34.0480 C   0  0  0  0  0  0  0  0  0  0  0  0
   -5.2970   18.1820  -34.7610 C   0  0  0  0  0  0  0  0  0  0  0  0
   -4.0080   18.2130  -34.2260 C   0  0  0  0  0  0  0  0  0  0  0  0
   -2.9710   17.6840  -34.9210 F   0  0  0  0  0  0  0  0  0  0  0  0
   -3.7870   18.7940  -32.9760 C   0  0  0  0  0  0  0  0  0  0  0  0
   -4.8540   19.3420  -32.2580 C   0  0  0  0  0  0  0  0  0  0  0  0
   -6.9180   21.3720  -31.6400 C   0  0  0  0  0  0  0  0  0  0  0  0
   -7.3190   21.9170  -30.4050 C   0  0  0  0  0  0  0  0  0  0  0  0
   -6.9540   23.2180  -30.0500 C   0  0  0  0  0  0  0  0  0  0  0  0
   -6.1750   23.9900  -30.9160 C   0  0  0  0  0  0  0  0  0  0  0  0
   -5.7160   25.6220  -30.4670 Cl  0  0  0  0  0  0  0  0  0  0  0  0
   -5.7580   23.4570  -32.1390 C   0  0  0  0  0  0  0  0  0  0  0  0
   -6.1210   22.1550  -32.4980 C   0  0  0  0  0  0  0  0  0  0  0  0
   -9.3708   18.5010  -31.2162 H   0  0  0  0  0  0  0  0  0  0  0  0
  -10.3444   18.5992  -32.7226 H   0  0  0  0  0  0  0  0  0  0  0  0
   -8.7755   17.7244  -32.7226 H   0  0  0  0  0  0  0  0  0  0  0  0
   -8.5040   19.8340  -33.7180 H   0  0  0  0  0  0  0  0  0  0  0  0
   -9.5669   21.0684  -31.2409 H   0  0  0  0  0  0  0  0  0  0  0  0
   -9.0733   21.9025  -32.7533 H   0  0  0  0  0  0  0  0  0  0  0  0
  -10.5020   20.8137  -32.7533 H   0  0  0  0  0  0  0  0  0  0  0  0
   -7.4499   19.3718  -31.0573 H   0  0  0  0  0  0  0  0  0  0  0  0
   -7.3791   18.7074  -34.4808 H   0  0  0  0  0  0  0  0  0  0  0  0
   -5.4704   17.7263  -35.7470 H   0  0  0  0  0  0  0  0  0  0  0  0
   -2.7711   18.8207  -32.5551 H   0  0  0  0  0  0  0  0  0  0  0  0
   -4.6701   19.8063  -31.2779 H   0  0  0  0  0  0  0  0  0  0  0  0
   -7.9250   21.3130  -29.7137 H   0  0  0  0  0  0  0  0  0  0  0  0
   -7.2807   23.6358  -29.0863 H   0  0  0  0  0  0  0  0  0  0  0  0
   -5.1430   24.0629  -32.8206 H   0  0  0  0  0  0  0  0  0  0  0  0
   -5.7815   21.7390  -33.4580 H   0  0  0  0  0  0  0  0  0  0  0  0
  1  2  1  0
  2  3  1  0
  2  4  1  0
  4  5  1  0
  5  6  2  0
  6  7  1  0
  7  8  2  0
  8  9  1  0
  8 10  1  0
 10 11  2  0
  4 12  1  0
 12 13  2  0
 13 14  1  0
 14 15  2  0
 15 16  1  0
 15 17  1  0
 17 18  2  0
 11  5  1  0
 18 12  1  0
  1 19  1  0
  1 20  1  0
  1 21  1  0
  2 22  1  0
  3 23  1  0
  3 24  1  0
  3 25  1  0
  4 26  1  1
  6 27  1  0
  7 28  1  0
 10 29  1  0
 11 30  1  0
 13 31  1  0
 14 32  1  0
 17 33  1  0
 18 34  1  0
M  CHG  1   2   1
M  END
>  <UniqueID>  (39) 
38

>  <SMILES>  (39) 
C[NH+](C)[C@@H](c1ccc(F)cc1)c1ccc(Cl)cc1

>  <Energy>  (39) 
40.28491235782852

>  <Genealogy>  (39) 
C[NH+](C)C(c1ccc(F)cc1)c1ccc(Cl)cc1 (protonated)
C[NH+](C)[C@@H](c1ccc(F)cc1)c1ccc(Cl)cc1 (chirality)
C[NH+](C)[C@@H](c1ccc(F)cc1)c1ccc(Cl)cc1 (3D coordinates assigned)
C[NH+](C)[C@@H](c1ccc(F)cc1)c1ccc(Cl)cc1 (optimized conformer: 40.28491235782852 kcal/mol)

>  <smiles>  (39) 
CN(C)C(c1ccc(F)cc1)c1ccc(Cl)cc1

>  <score_type>  (39) 
oracle

>  <origin>  (39) 
adgpu

>  <m_score__min__energy>  (39) 
-6.3899999999999997

>  <m_primary>  (39) 
energy

$$$$
39:0
     RDKit          3D

 27 28  0  0  0  0  0  0  0  0999 V2000
   -9.4450   17.8840  -31.5400 N   0  0  0  0  0  0  0  0  0  0  0  0
   -8.2850   18.4270  -32.1830 C   0  0  0  0  0  0  0  0  0  0  0  0
   -7.3160   17.5520  -32.7000 C   0  0  0  0  0  0  0  0  0  0  0  0
   -6.1860   18.0510  -33.3510 C   0  0  0  0  0  0  0  0  0  0  0  0
   -6.0120   19.4290  -33.4950 C   0  0  0  0  0  0  0  0  0  0  0  0
   -6.9660   20.3100  -32.9800 C   0  0  0  0  0  0  0  0  0  0  0  0
   -8.0990   19.8220  -32.3160 C   0  0  0  0  0  0  0  0  0  0  0  0
   -9.2790   21.0050  -31.6500 S   0  0  0  0  0  0  0  0  0  0  0  0
   -8.0170   22.2420  -31.3400 C   0  0  0  0  0  0  0  0  0  0  0  0
   -7.6590   23.1450  -32.3460 C   0  0  0  0  0  0  0  0  0  0  0  0
   -6.6730   24.1070  -32.1110 C   0  0  0  0  0  0  0  0  0  0  0  0
   -6.0340   24.1820  -30.8580 C   0  0  0  0  0  0  0  0  0  0  0  0
   -5.0180   25.1700  -30.6100 N   0  0  0  0  0  0  0  0  0  0  0  0
   -5.3200   26.3730  -30.4690 O   0  0  0  0  0  0  0  0  0  0  0  0
   -3.6940   24.8050  -30.5230 O   0  0  0  0  0  0  0  0  0  0  0  0
   -6.4070   23.2760  -29.8490 C   0  0  0  0  0  0  0  0  0  0  0  0
   -7.3930   22.3130  -30.0890 C   0  0  0  0  0  0  0  0  0  0  0  0
   -9.8380   18.2940  -30.6660 H   0  0  0  0  0  0  0  0  0  0  0  0
   -9.9520   17.0720  -31.9600 H   0  0  0  0  0  0  0  0  0  0  0  0
   -7.4481   16.4654  -32.5913 H   0  0  0  0  0  0  0  0  0  0  0  0
   -5.4317   17.3575  -33.7511 H   0  0  0  0  0  0  0  0  0  0  0  0
   -5.1244   19.8205  -34.0136 H   0  0  0  0  0  0  0  0  0  0  0  0
   -6.8266   21.3949  -33.0967 H   0  0  0  0  0  0  0  0  0  0  0  0
   -8.1556   23.0979  -33.3264 H   0  0  0  0  0  0  0  0  0  0  0  0
   -6.3941   24.8101  -32.9096 H   0  0  0  0  0  0  0  0  0  0  0  0
   -5.9199   23.3249  -28.8639 H   0  0  0  0  0  0  0  0  0  0  0  0
   -7.6786   21.6099  -29.2927 H   0  0  0  0  0  0  0  0  0  0  0  0
  1  2  1  0
  2  3  2  0
  3  4  1  0
  4  5  2  0
  5  6  1  0
  6  7  2  0
  7  8  1  0
  8  9  1  0
  9 10  2  0
 10 11  1  0
 11 12  2  0
 12 13  1  0
 13 14  2  0
 13 15  1  0
 12 16  1  0
 16 17  2  0
  7  2  1  0
 17  9  1  0
  1 18  1  0
  1 19  1  0
  3 20  1  0
  4 21  1  0
  5 22  1  0
  6 23  1  0
 10 24  1  0
 11 25  1  0
 16 26  1  0
 17 27  1  0
M  CHG  2  13   1  15  -1
M  END
>  <UniqueID>  (40) 
39

>  <SMILES>  (40) 
Nc1ccccc1Sc1ccc([N+](=O)[O-])cc1

>  <Energy>  (40) 
24.86289329735776

>  <Genealogy>  (40) 
Nc1ccccc1Sc1ccc([N+](=O)[O-])cc1 (3D coordinates assigned)
Nc1ccccc1Sc1ccc([N+](=O)[O-])cc1 (optimized conformer: 24.86289329735776 kcal/mol)

>  <smiles>  (40) 
Nc1ccccc1Sc1ccc([N+](=O)[O-])cc1

>  <score_type>  (40) 
oracle

>  <origin>  (40) 
adgpu

>  <m_score__min__energy>  (40) 
-8.0299999999999994

>  <m_primary>  (40) 
energy

$$$$
40:0
     RDKit          3D

 30 32  0  0  0  0  0  0  0  0999 V2000
   -9.4900   21.5720  -30.9130 C   0  0  0  0  0  0  0  0  0  0  0  0
   -8.3060   22.8340  -31.4840 S   0  0  0  0  0  0  0  0  0  0  0  0
   -7.1270   21.6330  -32.1230 C   0  0  0  0  0  0  0  0  0  0  0  0
   -7.6120   20.4810  -32.7370 C   0  0  0  0  0  0  0  0  0  0  0  0
   -6.7480   19.5800  -33.2630 N   0  0  0  0  0  0  0  0  0  0  0  0
   -5.4240   19.7580  -33.2270 N   0  0  0  0  0  0  0  0  0  0  0  0
   -4.5890   18.7380  -33.8090 C   0  0  0  0  0  0  0  0  0  0  0  0
   -5.0270   18.0390  -34.9480 C   0  0  0  0  0  0  0  0  0  0  0  0
   -4.2340   17.0310  -35.5060 C   0  0  0  0  0  0  0  0  0  0  0  0
   -3.0050   16.7050  -34.9280 C   0  0  0  0  0  0  0  0  0  0  0  0
   -2.5680   17.3810  -33.7860 C   0  0  0  0  0  0  0  0  0  0  0  0
   -3.3580   18.3900  -33.2230 C   0  0  0  0  0  0  0  0  0  0  0  0
   -4.8920   20.8930  -32.6720 C   0  0  0  0  0  0  0  0  0  0  0  0
   -3.6440   21.0900  -32.6880 O   0  0  0  0  0  0  0  0  0  0  0  0
   -5.7380   21.8550  -32.0930 C   0  0  0  0  0  0  0  0  0  0  0  0
   -5.1830   23.0720  -31.5640 N   0  0  0  0  0  0  0  0  0  0  0  0
   -4.0870   23.2320  -30.8020 C   0  0  0  0  0  0  0  0  0  0  0  0
   -3.8820   24.5420  -30.5730 N   0  0  0  0  0  0  0  0  0  0  0  0
   -4.8630   25.1670  -31.2120 N   0  0  0  0  0  0  0  0  0  0  0  0
   -5.6440   24.2840  -31.8150 N   0  0  0  0  0  0  0  0  0  0  0  0
   -9.5059   21.5551  -29.8132 H   0  0  0  0  0  0  0  0  0  0  0  0
  -10.4944   21.8141  -31.2905 H   0  0  0  0  0  0  0  0  0  0  0  0
   -9.1844   20.5850  -31.2905 H   0  0  0  0  0  0  0  0  0  0  0  0
   -8.6959   20.3028  -32.7948 H   0  0  0  0  0  0  0  0  0  0  0  0
   -5.9979   18.2862  -35.4022 H   0  0  0  0  0  0  0  0  0  0  0  0
   -4.5789   16.4939  -36.4019 H   0  0  0  0  0  0  0  0  0  0  0  0
   -2.3808   15.9156  -35.3721 H   0  0  0  0  0  0  0  0  0  0  0  0
   -1.6021   17.1200  -33.3289 H   0  0  0  0  0  0  0  0  0  0  0  0
   -3.0149   18.9133  -32.3183 H   0  0  0  0  0  0  0  0  0  0  0  0
   -3.4540   22.4160  -30.4233 H   0  0  0  0  0  0  0  0  0  0  0  0
  1  2  1  0
  2  3  1  0
  3  4  1  0
  4  5  2  0
  5  6  1  0
  6  7  1  0
  7  8  2  0
  8  9  1  0
  9 10  2  0
 10 11  1  0
 11 12  2  0
  6 13  1  0
 13 14  2  0
 13 15  1  0
 15 16  1  0
 16 17  1  0
 17 18  2  0
 18 19  1  0
 19 20  2  0
 15  3  2  0
 20 16  1  0
 12  7  1  0
  1 21  1  0
  1 22  1  0
  1 23  1  0
  4 24  1  0
  8 25  1  0
  9 26  1  0
 10 27  1  0
 11 28  1  0
 12 29  1  0
 17 30  1  0
M  END
>  <UniqueID>  (41) 
40

>  <SMILES>  (41) 
CSc1cnn(-c2ccccc2)c(=O)c1-n1cnnn1

>  <Energy>  (41) 
84.38262775620623

>  <Genealogy>  (41) 
CSc1cnn(-c2ccccc2)c(=O)c1-n1cnnn1 (3D coordinates assigned)
CSc1cnn(-c2ccccc2)c(=O)c1-n1cnnn1 (optimized conformer: 84.38262775620623 kcal/mol)

>  <smiles>  (41) 
CSc1cnn(-c2ccccc2)c(=O)c1-n1cnnn1

>  <score_type>  (41) 
oracle

>  <origin>  (41) 
adgpu

>  <m_score__min__energy>  (41) 
-7.6900000000000004

>  <m_primary>  (41) 
energy

$$$$
41:0
     RDKit          3D

 33 35  0  0  0  0  0  0  0  0999 V2000
   -1.1846   26.8793  -23.8390 H   0  0  0  0  0  0  0  0  0  0  0  0
   -1.0200   26.7210  -24.9150 C   0  0  0  0  0  0  0  0  0  0  0  0
    0.0160   27.3400  -25.5400 N   0  0  0  0  0  0  0  0  0  0  0  0
    0.2490   27.1710  -26.8670 C   0  0  0  0  0  0  0  0  0  0  0  0
    1.0949   27.6864  -27.3453 H   0  0  0  0  0  0  0  0  0  0  0  0
   -0.5830   26.3440  -27.6270 C   0  0  0  0  0  0  0  0  0  0  0  0
   -0.3941   26.2083  -28.7021 H   0  0  0  0  0  0  0  0  0  0  0  0
   -1.6630   25.6860  -27.0110 C   0  0  0  0  0  0  0  0  0  0  0  0
   -2.5610   24.8030  -27.7960 C   0  0  0  0  0  0  0  0  0  0  0  0
   -3.3010   23.7610  -27.2280 C   0  0  0  0  0  0  0  0  0  0  0  0
   -3.3130   23.4858  -26.1630 H   0  0  0  0  0  0  0  0  0  0  0  0
   -4.1700   23.0000  -28.4520 S   0  0  0  0  0  0  0  0  0  0  0  0
   -3.5910   24.0310  -29.6530 C   0  0  0  0  0  0  0  0  0  0  0  0
   -3.8580   23.9640  -30.9250 N   0  0  0  0  0  0  0  0  0  0  0  0
   -4.7860   23.0680  -31.5560 C   0  0  0  0  0  0  0  0  0  0  0  0
   -4.3550   21.9060  -32.2190 C   0  0  0  0  0  0  0  0  0  0  0  0
   -3.2803   21.6830  -32.2922 H   0  0  0  0  0  0  0  0  0  0  0  0
   -5.2870   21.0340  -32.7850 C   0  0  0  0  0  0  0  0  0  0  0  0
   -4.9432   20.1348  -33.3173 H   0  0  0  0  0  0  0  0  0  0  0  0
   -6.6550   21.2990  -32.6780 C   0  0  0  0  0  0  0  0  0  0  0  0
   -7.3844   20.6142  -33.1352 H   0  0  0  0  0  0  0  0  0  0  0  0
   -7.1010   22.4410  -31.9860 C   0  0  0  0  0  0  0  0  0  0  0  0
   -8.4620   22.7440  -31.8360 O   0  0  0  0  0  0  0  0  0  0  0  0
   -9.4750   21.7810  -31.5650 C   0  0  0  0  0  0  0  0  0  0  0  0
   -9.5928   21.6690  -30.4771 H   0  0  0  0  0  0  0  0  0  0  0  0
  -10.4262   22.1159  -32.0043 H   0  0  0  0  0  0  0  0  0  0  0  0
   -9.1886   20.8140  -32.0043 H   0  0  0  0  0  0  0  0  0  0  0  0
   -6.1590   23.3100  -31.4210 C   0  0  0  0  0  0  0  0  0  0  0  0
   -6.5020   24.1943  -30.8639 H   0  0  0  0  0  0  0  0  0  0  0  0
   -2.7280   24.9370  -29.1440 N   0  0  0  0  0  0  0  0  0  0  0  0
   -2.2650   25.6690  -29.7260 H   0  0  0  0  0  0  0  0  0  0  0  0
   -1.8770   25.8840  -25.6350 C   0  0  0  0  0  0  0  0  0  0  0  0
   -2.7147   25.3826  -25.1281 H   0  0  0  0  0  0  0  0  0  0  0  0
  1  2  1  0
  2  3  2  0
  3  4  1  0
  4  5  1  0
  4  6  2  0
  6  7  1  0
  6  8  1  0
  8  9  1  0
  9 10  2  0
 10 11  1  0
 10 12  1  0
 12 13  1  0
 13 14  2  0
 14 15  1  0
 15 16  2  0
 16 17  1  0
 16 18  1  0
 18 19  1  0
 18 20  2  0
 20 21  1  0
 20 22  1  0
 22 23  1  0
 23 24  1  0
 24 25  1  0
 24 26  1  0
 24 27  1  0
 22 28  2  0
 28 29  1  0
 13 30  1  0
 30 31  1  0
  8 32  2  0
 32 33  1  0
 32  2  1  0
 30  9  1  0
 28 15  1  0
M  END
>  <UniqueID>  (42) 
41

>  <SMILES>  (42) 
COc1cccc(/N=c2/[nH]c(-c3ccncc3)cs2)c1

>  <Energy>  (42) 
76.34727973728202

>  <Genealogy>  (42) 
COc1cccc(/N=c2/[nH]c(-c3ccncc3)cs2)c1 (cis-trans isomerization)
COc1cccc(/N=c2/[nH]c(-c3ccncc3)cs2)c1 (3D coordinates assigned)
COc1cccc(/N=c2/[nH]c(-c3ccncc3)cs2)c1 (optimized conformer: 76.34727973728202 kcal/mol)

>  <smiles>  (42) 
COc1cccc(N=c2[nH]c(-c3ccncc3)cs2)c1

>  <score_type>  (42) 
oracle

>  <origin>  (42) 
adgpu

>  <m_score__min__energy>  (42) 
-7.1200000000000001

>  <m_primary>  (42) 
energy

$$$$
42:0
     RDKit          3D

 24 25  0  0  0  0  0  0  0  0999 V2000
   -6.9430   17.4080  -33.3670 C   0  0  0  0  0  0  0  0  0  0  0  0
   -7.1510   18.7790  -32.8160 C   0  0  0  0  0  0  0  0  0  0  0  0
   -8.3440   19.4650  -32.7130 C   0  0  0  0  0  0  0  0  0  0  0  0
   -8.0970   20.7090  -32.2630 N   0  0  0  0  0  0  0  0  0  0  0  0
   -6.7880   20.8320  -32.0850 N   0  0  0  0  0  0  0  0  0  0  0  0
   -6.1570   22.0460  -31.6250 C   0  0  0  0  0  0  0  0  0  0  0  0
   -6.8700   23.2580  -31.5500 C   0  0  0  0  0  0  0  0  0  0  0  0
   -6.2420   24.4260  -31.1050 C   0  0  0  0  0  0  0  0  0  0  0  0
   -4.8920   24.4040  -30.7300 C   0  0  0  0  0  0  0  0  0  0  0  0
   -4.2520   25.5990  -30.2760 N   0  0  0  0  0  0  0  0  0  0  0  0
   -4.1750   23.2040  -30.8070 C   0  0  0  0  0  0  0  0  0  0  0  0
   -4.8000   22.0360  -31.2530 C   0  0  0  0  0  0  0  0  0  0  0  0
   -6.1790   19.6750  -32.4260 C   0  0  0  0  0  0  0  0  0  0  0  0
   -6.8344   16.6925  -32.5386 H   0  0  0  0  0  0  0  0  0  0  0  0
   -7.8086   17.1257  -33.9843 H   0  0  0  0  0  0  0  0  0  0  0  0
   -6.0326   17.3951  -33.9843 H   0  0  0  0  0  0  0  0  0  0  0  0
   -9.3368   19.0602  -32.9591 H   0  0  0  0  0  0  0  0  0  0  0  0
   -7.9297   23.2865  -31.8438 H   0  0  0  0  0  0  0  0  0  0  0  0
   -6.8105   25.3661  -31.0492 H   0  0  0  0  0  0  0  0  0  0  0  0
   -3.5030   26.0530  -30.8430 H   0  0  0  0  0  0  0  0  0  0  0  0
   -4.5230   26.0380  -29.3670 H   0  0  0  0  0  0  0  0  0  0  0  0
   -3.1147   23.1802  -30.5151 H   0  0  0  0  0  0  0  0  0  0  0  0
   -4.2255   21.0999  -31.3138 H   0  0  0  0  0  0  0  0  0  0  0  0
   -5.0965   19.4819  -32.3973 H   0  0  0  0  0  0  0  0  0  0  0  0
  1  2  1  0
  2  3  1  0
  3  4  2  0
  4  5  1  0
  5  6  1  0
  6  7  2  0
  7  8  1  0
  8  9  2  0
  9 10  1  0
  9 11  1  0
 11 12  2  0
  5 13  1  0
 13  2  2  0
 12  6  1  0
  1 14  1  0
  1 15  1  0
  1 16  1  0
  3 17  1  0
  7 18  1  0
  8 19  1  0
 10 20  1  0
 10 21  1  0
 11 22  1  0
 12 23  1  0
 13 24  1  0
M  END
>  <UniqueID>  (43) 
42

>  <SMILES>  (43) 
Cc1cnn(-c2ccc(N)cc2)c1

>  <Energy>  (43) 
54.67068516642469

>  <Genealogy>  (43) 
Cc1cnn(-c2ccc(N)cc2)c1 (3D coordinates assigned)
Cc1cnn(-c2ccc(N)cc2)c1 (optimized conformer: 54.67068516642469 kcal/mol)

>  <smiles>  (43) 
Cc1cnn(-c2ccc(N)cc2)c1

>  <score_type>  (43) 
oracle

>  <origin>  (43) 
adgpu

>  <m_score__min__energy>  (43) 
-6.2800000000000002

>  <m_primary>  (43) 
energy

$$$$
43:0
     RDKit          3D

 20 20  0  0  0  0  0  0  0  0999 V2000
   -4.4050   22.5210  -34.1840 H   0  0  0  0  0  0  0  0  0  0  0  0
   -4.2370   21.8120  -33.4810 O   0  0  0  0  0  0  0  0  0  0  0  0
   -5.2450   21.0260  -32.9520 N   0  0  0  0  0  0  0  0  0  0  0  0
   -6.1210   21.4840  -32.0950 C   0  0  0  0  0  0  0  0  0  0  0  0
   -6.9847   20.8497  -31.8469 H   0  0  0  0  0  0  0  0  0  0  0  0
   -6.0160   22.8040  -31.4420 C   0  0  0  0  0  0  0  0  0  0  0  0
   -7.1600   23.3860  -30.8770 C   0  0  0  0  0  0  0  0  0  0  0  0
   -8.1306   22.8748  -30.9584 H   0  0  0  0  0  0  0  0  0  0  0  0
   -7.0740   24.6120  -30.2110 C   0  0  0  0  0  0  0  0  0  0  0  0
   -7.9786   25.0711  -29.7858 H   0  0  0  0  0  0  0  0  0  0  0  0
   -5.8390   25.2550  -30.0850 C   0  0  0  0  0  0  0  0  0  0  0  0
   -5.7739   26.2235  -29.5676 H   0  0  0  0  0  0  0  0  0  0  0  0
   -4.6870   24.6680  -30.6160 C   0  0  0  0  0  0  0  0  0  0  0  0
   -3.4570   25.2980  -30.4760 O   0  0  0  0  0  0  0  0  0  0  0  0
   -4.7710   23.4410  -31.2840 C   0  0  0  0  0  0  0  0  0  0  0  0
   -3.8608   22.9729  -31.6869 H   0  0  0  0  0  0  0  0  0  0  0  0
   -5.3910   19.6690  -33.4730 C   0  0  0  0  0  0  0  0  0  0  0  0
   -5.4672   18.9607  -32.6349 H   0  0  0  0  0  0  0  0  0  0  0  0
   -6.3009   19.6084  -34.0882 H   0  0  0  0  0  0  0  0  0  0  0  0
   -4.5149   19.4162  -34.0882 H   0  0  0  0  0  0  0  0  0  0  0  0
  1  2  1  0
  2  3  1  0
  3  4  2  0
  4  5  1  0
  4  6  1  0
  6  7  2  0
  7  8  1  0
  7  9  1  0
  9 10  1  0
  9 11  2  0
 11 12  1  0
 11 13  1  0
 13 14  1  0
 13 15  2  0
 15 16  1  0
  3 17  1  0
 17 18  1  0
 17 19  1  0
 17 20  1  0
 15  6  1  0
M  CHG  2   3   1  14  -1
M  END
>  <UniqueID>  (44) 
43

>  <SMILES>  (44) 
C/[N+](O)=C/c1cccc([O-])c1

>  <Energy>  (44) 
24.46229759571141

>  <Genealogy>  (44) 
C[N+](O)=Cc1cccc([O-])c1 (protonated)
C/[N+](O)=C/c1cccc([O-])c1 (cis-trans isomerization)
C/[N+](O)=C/c1cccc([O-])c1 (3D coordinates assigned)
C/[N+](O)=C/c1cccc([O-])c1 (optimized conformer: 24.46229759571141 kcal/mol)

>  <smiles>  (44) 
C[N+]([O-])=Cc1cccc(O)c1

>  <score_type>  (44) 
oracle

>  <origin>  (44) 
adgpu

>  <m_score__min__energy>  (44) 
-7.96

>  <m_primary>  (44) 
energy

$$$$
44:0
     RDKit          3D

 30 32  0  0  0  0  0  0  0  0999 V2000
   -6.5300   16.6900  -33.3010 Cl  0  0  0  0  0  0  0  0  0  0  0  0
   -6.6670   18.4250  -33.0800 C   0  0  0  0  0  0  0  0  0  0  0  0
   -5.5690   19.2520  -33.3340 C   0  0  0  0  0  0  0  0  0  0  0  0
   -5.6780   20.6340  -33.1590 C   0  0  0  0  0  0  0  0  0  0  0  0
   -6.8870   21.2080  -32.7310 C   0  0  0  0  0  0  0  0  0  0  0  0
   -6.9650   22.6380  -32.5640 N   0  0  0  0  0  0  0  0  0  0  0  0
   -7.1530   23.3120  -31.2800 C   0  0  0  0  0  0  0  0  0  0  0  0
   -5.8810   23.9610  -30.8400 C   0  0  0  0  0  0  0  0  0  0  0  0
   -5.1940   23.6030  -29.7380 N   0  0  0  0  0  0  0  0  0  0  0  0
   -4.1560   24.4660  -29.7820 C   0  0  0  0  0  0  0  0  0  0  0  0
   -3.0800   24.4900  -28.7790 C   0  0  0  0  0  0  0  0  0  0  0  0
   -3.1340   23.6890  -27.6290 C   0  0  0  0  0  0  0  0  0  0  0  0
   -2.1180   23.7430  -26.7270 N   0  0  0  0  0  0  0  0  0  0  0  0
   -1.0480   24.5580  -26.9190 C   0  0  0  0  0  0  0  0  0  0  0  0
   -0.9900   25.3550  -28.0620 C   0  0  0  0  0  0  0  0  0  0  0  0
   -2.0050   25.3030  -28.9650 N   0  0  0  0  0  0  0  0  0  0  0  0
   -4.2190   25.2940  -30.8440 N   0  0  0  0  0  0  0  0  0  0  0  0
   -5.3010   24.9500  -31.4730 O   0  0  0  0  0  0  0  0  0  0  0  0
   -7.9870   20.3650  -32.4740 C   0  0  0  0  0  0  0  0  0  0  0  0
   -7.8740   18.9820  -32.6500 C   0  0  0  0  0  0  0  0  0  0  0  0
   -4.6181   18.8143  -33.6720 H   0  0  0  0  0  0  0  0  0  0  0  0
   -4.8092   21.2786  -33.3582 H   0  0  0  0  0  0  0  0  0  0  0  0
   -6.8990   23.2430  -33.4140 H   0  0  0  0  0  0  0  0  0  0  0  0
   -7.9339   24.0796  -31.3847 H   0  0  0  0  0  0  0  0  0  0  0  0
   -7.4522   22.5678  -30.5273 H   0  0  0  0  0  0  0  0  0  0  0  0
   -3.9919   23.0221  -27.4580 H   0  0  0  0  0  0  0  0  0  0  0  0
   -0.2345   24.5889  -26.1793 H   0  0  0  0  0  0  0  0  0  0  0  0
   -0.1303   26.0200  -28.2315 H   0  0  0  0  0  0  0  0  0  0  0  0
   -8.9395   20.7971  -32.1332 H   0  0  0  0  0  0  0  0  0  0  0  0
   -8.7378   18.3311  -32.4493 H   0  0  0  0  0  0  0  0  0  0  0  0
  1  2  1  0
  2  3  2  0
  3  4  1  0
  4  5  2  0
  5  6  1  0
  6  7  1  0
  7  8  1  0
  8  9  2  0
  9 10  1  0
 10 11  1  0
 11 12  2  0
 12 13  1  0
 13 14  2  0
 14 15  1  0
 15 16  2  0
 10 17  2  0
 17 18  1  0
  5 19  1  0
 19 20  2  0
 20  2  1  0
 18  8  1  0
 16 11  1  0
  3 21  1  0
  4 22  1  0
  6 23  1  0
  7 24  1  0
  7 25  1  0
 12 26  1  0
 14 27  1  0
 15 28  1  0
 19 29  1  0
 20 30  1  0
M  END
>  <UniqueID>  (45) 
44

>  <SMILES>  (45) 
Clc1ccc(NCc2nc(-c3cnccn3)no2)cc1

>  <Energy>  (45) 
65.77850060929148

>  <Genealogy>  (45) 
Clc1ccc(NCc2nc(-c3cnccn3)no2)cc1 (3D coordinates assigned)
Clc1ccc(NCc2nc(-c3cnccn3)no2)cc1 (optimized conformer: 65.77850060929148 kcal/mol)

>  <smiles>  (45) 
Clc1ccc(NCc2nc(-c3cnccn3)no2)cc1

>  <score_type>  (45) 
oracle

>  <origin>  (45) 
adgpu

>  <m_score__min__energy>  (45) 
-8.4299999999999997

>  <m_primary>  (45) 
energy

$$$$
45:0
     RDKit          3D

 30 32  0  0  0  0  0  0  0  0999 V2000
   -0.8700   24.2810  -27.9050 C   0  0  0  0  0  0  0  0  0  0  0  0
   -2.0800   23.9280  -28.7110 C   0  0  0  0  0  0  0  0  0  0  0  0
   -2.5540   22.5990  -28.7350 C   0  0  0  0  0  0  0  0  0  0  0  0
   -3.7030   22.3030  -29.4780 C   0  0  0  0  0  0  0  0  0  0  0  0
   -4.3040   23.3160  -30.1550 N   0  0  0  0  0  0  0  0  0  0  0  0
   -5.4150   23.3610  -30.9130 C   0  0  0  0  0  0  0  0  0  0  0  0
   -6.2710   22.2150  -31.2900 C   0  0  0  0  0  0  0  0  0  0  0  0
   -5.7310   21.1470  -32.0230 C   0  0  0  0  0  0  0  0  0  0  0  0
   -6.5280   20.0520  -32.3700 C   0  0  0  0  0  0  0  0  0  0  0  0
   -7.8810   20.0080  -31.9940 C   0  0  0  0  0  0  0  0  0  0  0  0
   -8.7270   18.8040  -32.3250 C   0  0  0  0  0  0  0  0  0  0  0  0
   -9.1950   18.2040  -31.1680 F   0  0  0  0  0  0  0  0  0  0  0  0
   -7.9900   17.8690  -33.0300 F   0  0  0  0  0  0  0  0  0  0  0  0
   -9.8050   19.2020  -33.0930 F   0  0  0  0  0  0  0  0  0  0  0  0
   -8.4070   21.0570  -31.2200 C   0  0  0  0  0  0  0  0  0  0  0  0
   -7.6090   22.1520  -30.8750 C   0  0  0  0  0  0  0  0  0  0  0  0
   -5.6110   24.6840  -31.2830 C   0  0  0  0  0  0  0  0  0  0  0  0
   -4.6250   25.4600  -30.7720 N   0  0  0  0  0  0  0  0  0  0  0  0
   -3.8590   24.5800  -30.0970 C   0  0  0  0  0  0  0  0  0  0  0  0
   -2.7530   24.9070  -29.3850 N   0  0  0  0  0  0  0  0  0  0  0  0
   -1.1098   24.2110  -26.8337 H   0  0  0  0  0  0  0  0  0  0  0  0
   -0.0537   23.5835  -28.1443 H   0  0  0  0  0  0  0  0  0  0  0  0
   -0.5568   25.3080  -28.1443 H   0  0  0  0  0  0  0  0  0  0  0  0
   -2.0291   21.8083  -28.1788 H   0  0  0  0  0  0  0  0  0  0  0  0
   -4.1072   21.2805  -29.5126 H   0  0  0  0  0  0  0  0  0  0  0  0
   -4.6740   21.1716  -32.3264 H   0  0  0  0  0  0  0  0  0  0  0  0
   -6.0927   19.2190  -32.9415 H   0  0  0  0  0  0  0  0  0  0  0  0
   -9.4535   21.0161  -30.8835 H   0  0  0  0  0  0  0  0  0  0  0  0
   -8.0336   22.9696  -30.2740 H   0  0  0  0  0  0  0  0  0  0  0  0
   -6.4447   25.0492  -31.9007 H   0  0  0  0  0  0  0  0  0  0  0  0
  1  2  1  0
  2  3  1  0
  3  4  2  0
  4  5  1  0
  5  6  1  0
  6  7  1  0
  7  8  2  0
  8  9  1  0
  9 10  2  0
 10 11  1  0
 11 12  1  0
 11 13  1  0
 11 14  1  0
 10 15  1  0
 15 16  2  0
  6 17  2  0
 17 18  1  0
 18 19  2  0
 19 20  1  0
 20  2  2  0
 19  5  1  0
 16  7  1  0
  1 21  1  0
  1 22  1  0
  1 23  1  0
  3 24  1  0
  4 25  1  0
  8 26  1  0
  9 27  1  0
 15 28  1  0
 16 29  1  0
 17 30  1  0
M  END
>  <UniqueID>  (46) 
45

>  <SMILES>  (46) 
Cc1ccn2c(-c3ccc(C(F)(F)F)cc3)cnc2n1

>  <Energy>  (46) 
73.10047671940656

>  <Genealogy>  (46) 
Cc1ccn2c(-c3ccc(C(F)(F)F)cc3)cnc2n1 (3D coordinates assigned)
Cc1ccn2c(-c3ccc(C(F)(F)F)cc3)cnc2n1 (optimized conformer: 73.10047671940656 kcal/mol)

>  <smiles>  (46) 
Cc1ccn2c(-c3ccc(C(F)(F)F)cc3)cnc2n1

>  <score_type>  (46) 
oracle

>  <origin>  (46) 
adgpu

>  <m_score__min__energy>  (46) 
-7.1500000000000004

>  <m_primary>  (46) 
energy

$$$$
46:0
     RDKit          3D

 34 35  0  0  0  0  0  0  0  0999 V2000
   -3.0990   23.9400  -28.3400 C   0  0  0  0  0  0  0  0  0  0  0  0
   -4.0200   24.4820  -29.3840 C   0  0  0  0  0  0  0  0  0  0  0  0
   -3.5470   24.9240  -30.4660 O   0  0  0  0  0  0  0  0  0  0  0  0
   -5.4310   24.5120  -29.1440 N   0  0  0  0  0  0  0  0  0  0  0  0
   -6.3760   24.9550  -30.1710 C   0  0  0  0  0  0  0  0  0  0  0  0
   -7.2300   23.7870  -30.6960 C   0  0  0  0  0  0  0  0  0  0  0  0
   -6.9440   23.4420  -32.1700 C   0  0  0  0  0  0  0  0  0  0  0  0
   -6.2970   22.0810  -32.3400 C   0  0  0  0  0  0  0  0  0  0  0  0
   -4.8990   22.0310  -32.4950 C   0  0  0  0  0  0  0  0  0  0  0  0
   -4.2330   20.8120  -32.6010 C   0  0  0  0  0  0  0  0  0  0  0  0
   -4.9440   19.6160  -32.5540 C   0  0  0  0  0  0  0  0  0  0  0  0
   -6.3370   19.6270  -32.4000 C   0  0  0  0  0  0  0  0  0  0  0  0
   -7.0430   18.4150  -32.3490 C   0  0  0  0  0  0  0  0  0  0  0  0
   -8.4280   18.4140  -32.1920 C   0  0  0  0  0  0  0  0  0  0  0  0
   -9.1220   19.6180  -32.0840 C   0  0  0  0  0  0  0  0  0  0  0  0
   -8.4360   20.8340  -32.1330 C   0  0  0  0  0  0  0  0  0  0  0  0
   -7.0320   20.8640  -32.2920 C   0  0  0  0  0  0  0  0  0  0  0  0
   -3.4976   24.1745  -27.3419 H   0  0  0  0  0  0  0  0  0  0  0  0
   -3.0162   22.8491  -28.4547 H   0  0  0  0  0  0  0  0  0  0  0  0
   -2.1051   24.3972  -28.4547 H   0  0  0  0  0  0  0  0  0  0  0  0
   -5.7790   24.1960  -28.2110 H   0  0  0  0  0  0  0  0  0  0  0  0
   -7.0408   25.7177  -29.7394 H   0  0  0  0  0  0  0  0  0  0  0  0
   -5.8009   25.3669  -31.0134 H   0  0  0  0  0  0  0  0  0  0  0  0
   -7.0223   22.8982  -30.0821 H   0  0  0  0  0  0  0  0  0  0  0  0
   -8.2835   24.0966  -30.6308 H   0  0  0  0  0  0  0  0  0  0  0  0
   -7.8943   23.4510  -32.7239 H   0  0  0  0  0  0  0  0  0  0  0  0
   -6.2399   24.1940  -32.5556 H   0  0  0  0  0  0  0  0  0  0  0  0
   -4.3240   22.9680  -32.5330 H   0  0  0  0  0  0  0  0  0  0  0  0
   -3.1399   20.7944  -32.7224 H   0  0  0  0  0  0  0  0  0  0  0  0
   -4.4100   18.6580  -32.6381 H   0  0  0  0  0  0  0  0  0  0  0  0
   -6.5009   17.4616  -32.4333 H   0  0  0  0  0  0  0  0  0  0  0  0
   -8.9749   17.4604  -32.1532 H   0  0  0  0  0  0  0  0  0  0  0  0
  -10.2149   19.6106  -31.9596 H   0  0  0  0  0  0  0  0  0  0  0  0
   -8.9944   21.7778  -32.0469 H   0  0  0  0  0  0  0  0  0  0  0  0
  1  2  1  0
  2  3  2  0
  2  4  1  0
  4  5  1  0
  5  6  1  0
  6  7  1  0
  7  8  1  0
  8  9  2  0
  9 10  1  0
 10 11  2  0
 11 12  1  0
 12 13  2  0
 13 14  1  0
 14 15  2  0
 15 16  1  0
 16 17  2  0
 17  8  1  0
 17 12  1  0
  1 18  1  0
  1 19  1  0
  1 20  1  0
  4 21  1  0
  5 22  1  0
  5 23  1  0
  6 24  1  0
  6 25  1  0
  7 26  1  0
  7 27  1  0
  9 28  1  0
 10 29  1  0
 11 30  1  0
 13 31  1  0
 14 32  1  0
 15 33  1  0
 16 34  1  0
M  END
>  <UniqueID>  (47) 
46

>  <SMILES>  (47) 
CC(=O)NCCCc1cccc2ccccc12

>  <Energy>  (47) 
31.38989276220297

>  <Genealogy>  (47) 
CC(=O)NCCCc1cccc2ccccc12 (3D coordinates assigned)
CC(=O)NCCCc1cccc2ccccc12 (optimized conformer: 31.38989276220297 kcal/mol)

>  <smiles>  (47) 
CC(=O)NCCCc1cccc2ccccc12

>  <score_type>  (47) 
oracle

>  <origin>  (47) 
adgpu

>  <m_score__min__energy>  (47) 
-8.2699999999999996

>  <m_primary>  (47) 
energy

$$$$
47:0
     RDKit          3D

 40 43  0  0  0  0  0  0  0  0999 V2000
   -0.3400   24.5540  -26.6260 C   0  0  0  0  0  0  0  0  0  0  0  0
   -1.6200   24.8900  -26.1800 C   0  0  0  0  0  0  0  0  0  0  0  0
   -2.6970   24.8850  -27.0720 C   0  0  0  0  0  0  0  0  0  0  0  0
   -2.5000   24.5420  -28.4210 C   0  0  0  0  0  0  0  0  0  0  0  0
   -3.6400   24.5400  -29.3610 C   0  0  0  0  0  0  0  0  0  0  0  0
   -4.5000   23.5070  -29.4930 N   0  0  0  0  0  0  0  0  0  0  0  0
   -5.3500   23.9380  -30.4440 C   0  0  0  0  0  0  0  0  0  0  0  0
   -6.5100   23.1440  -30.9580 C   0  0  0  0  0  0  0  0  0  0  0  0
   -6.0480   21.8670  -31.5260 N   0  0  0  0  0  0  0  0  0  0  0  0
   -4.6250   21.7040  -31.8530 C   0  0  0  0  0  0  0  0  0  0  0  0
   -4.4830   21.0480  -33.2230 C   0  0  0  0  0  0  0  0  0  0  0  0
   -5.1480   19.6690  -33.2170 C   0  0  0  0  0  0  0  0  0  0  0  0
   -6.5430   19.7090  -32.6420 C   0  0  0  0  0  0  0  0  0  0  0  0
   -7.4150   18.6400  -32.9010 C   0  0  0  0  0  0  0  0  0  0  0  0
   -8.6940   18.6200  -32.3440 C   0  0  0  0  0  0  0  0  0  0  0  0
   -9.1110   19.6600  -31.5150 C   0  0  0  0  0  0  0  0  0  0  0  0
   -8.2510   20.7250  -31.2360 C   0  0  0  0  0  0  0  0  0  0  0  0
   -6.9550   20.7660  -31.7910 C   0  0  0  0  0  0  0  0  0  0  0  0
   -4.9880   25.2020  -30.8500 C   0  0  0  0  0  0  0  0  0  0  0  0
   -3.9270   25.5430  -30.1610 O   0  0  0  0  0  0  0  0  0  0  0  0
   -1.2060   24.2050  -28.8600 C   0  0  0  0  0  0  0  0  0  0  0  0
   -0.1330   24.2120  -27.9650 C   0  0  0  0  0  0  0  0  0  0  0  0
    0.5059   24.5586  -25.9228 H   0  0  0  0  0  0  0  0  0  0  0  0
   -1.7813   25.1589  -25.1257 H   0  0  0  0  0  0  0  0  0  0  0  0
   -3.7034   25.1508  -26.7163 H   0  0  0  0  0  0  0  0  0  0  0  0
   -7.2056   22.9417  -30.1303 H   0  0  0  0  0  0  0  0  0  0  0  0
   -7.0162   23.7217  -31.7454 H   0  0  0  0  0  0  0  0  0  0  0  0
   -4.1381   22.6903  -31.8678 H   0  0  0  0  0  0  0  0  0  0  0  0
   -4.1478   21.0673  -31.0935 H   0  0  0  0  0  0  0  0  0  0  0  0
   -4.9658   21.6815  -33.9816 H   0  0  0  0  0  0  0  0  0  0  0  0
   -3.4146   20.9317  -33.4577 H   0  0  0  0  0  0  0  0  0  0  0  0
   -5.2020   19.2977  -34.2510 H   0  0  0  0  0  0  0  0  0  0  0  0
   -4.5414   19.0053  -32.5833 H   0  0  0  0  0  0  0  0  0  0  0  0
   -7.0877   17.8124  -33.5475 H   0  0  0  0  0  0  0  0  0  0  0  0
   -9.3740   17.7826  -32.5593 H   0  0  0  0  0  0  0  0  0  0  0  0
  -10.1207   19.6421  -31.0789 H   0  0  0  0  0  0  0  0  0  0  0  0
   -8.5877   21.5391  -30.5774 H   0  0  0  0  0  0  0  0  0  0  0  0
   -5.4951   25.8127  -31.6115 H   0  0  0  0  0  0  0  0  0  0  0  0
   -1.0385   23.9347  -29.9130 H   0  0  0  0  0  0  0  0  0  0  0  0
    0.8759   23.9480  -28.3149 H   0  0  0  0  0  0  0  0  0  0  0  0
  1  2  2  0
  2  3  1  0
  3  4  2  0
  4  5  1  0
  5  6  2  0
  6  7  1  0
  7  8  1  0
  8  9  1  0
  9 10  1  0
 10 11  1  0
 11 12  1  0
 12 13  1  0
 13 14  2  0
 14 15  1  0
 15 16  2  0
 16 17  1  0
 17 18  2  0
  7 19  2  0
 19 20  1  0
  4 21  1  0
 21 22  2  0
 22  1  1  0
 20  5  1  0
 18  9  1  0
 18 13  1  0
  1 23  1  0
  2 24  1  0
  3 25  1  0
  8 26  1  0
  8 27  1  0
 10 28  1  0
 10 29  1  0
 11 30  1  0
 11 31  1  0
 12 32  1  0
 12 33  1  0
 14 34  1  0
 15 35  1  0
 16 36  1  0
 17 37  1  0
 19 38  1  0
 21 39  1  0
 22 40  1  0
M  END
>  <UniqueID>  (48) 
47

>  <SMILES>  (48) 
c1ccc(-c2nc(CN3CCCc4ccccc43)co2)cc1

>  <Energy>  (48) 
73.02843938105154

>  <Genealogy>  (48) 
c1ccc(-c2nc(CN3CCCc4ccccc43)co2)cc1 (3D coordinates assigned)
c1ccc(-c2nc(CN3CCCc4ccccc43)co2)cc1 (nonaromatic ring conformer: 73.02843938105154 kcal/mol)

>  <smiles>  (48) 
c1ccc(-c2nc(CN3CCCc4ccccc43)co2)cc1

>  <score_type>  (48) 
oracle

>  <origin>  (48) 
adgpu

>  <m_score__min__energy>  (48) 
-8.3399999999999999

>  <m_primary>  (48) 
energy

$$$$
