0:0
     RDKit          3D

 40 42  0  0  0  0  0  0  0  0999 V2000
   -7.8670   18.7360  -32.5930 C   0  0  0  0  0  0  0  0  0  0  0  0
   -7.5120   20.1380  -32.2220 C   0  0  0  0  0  0  0  0  0  0  0  0
   -8.3490   21.2340  -32.3040 C   0  0  0  0  0  0  0  0  0  0  0  0
   -7.6100   22.2990  -31.8320 C   0  0  0  0  0  0  0  0  0  0  0  0
   -6.3710   21.7810  -31.4750 C   0  0  0  0  0  0  0  0  0  0  0  0
   -5.2120   22.5160  -30.9140 C   0  0  0  0  0  0  0  0  0  0  0  0
   -5.2340   23.9200  -30.9430 C   0  0  0  0  0  0  0  0  0  0  0  0
   -4.1740   24.6660  -30.4230 C   0  0  0  0  0  0  0  0  0  0  0  0
   -4.2380   26.0570  -30.4450 O   0  0  0  0  0  0  0  0  0  0  0  0
   -3.0580   24.0220  -29.8730 C   0  0  0  0  0  0  0  0  0  0  0  0
   -1.9910   24.8220  -29.3410 N   0  0  0  0  0  0  0  0  0  0  0  0
   -1.0050   24.4070  -27.9720 S   0  0  0  0  0  0  0  0  0  0  0  0
   -1.6310   24.9690  -26.7270 O   0  0  0  0  0  0  0  0  0  0  0  0
    0.3630   25.0130  -28.1430 O   0  0  0  0  0  0  0  0  0  0  0  0
   -0.9010   22.6570  -27.8110 C   0  0  0  0  0  0  0  0  0  0  0  0
   -1.6250   22.0080  -26.8020 C   0  0  0  0  0  0  0  0  0  0  0  0
   -1.5460   20.6190  -26.6610 C   0  0  0  0  0  0  0  0  0  0  0  0
   -0.7340   19.8650  -27.5230 C   0  0  0  0  0  0  0  0  0  0  0  0
   -0.6600   18.3730  -27.3840 C   0  0  0  0  0  0  0  0  0  0  0  0
   -0.0270   20.5160  -28.5500 C   0  0  0  0  0  0  0  0  0  0  0  0
    0.7440   19.8090  -29.4160 F   0  0  0  0  0  0  0  0  0  0  0  0
   -0.1080   21.9050  -28.6880 C   0  0  0  0  0  0  0  0  0  0  0  0
   -3.0130   22.6170  -29.8610 C   0  0  0  0  0  0  0  0  0  0  0  0
   -4.0760   21.8640  -30.3830 C   0  0  0  0  0  0  0  0  0  0  0  0
   -3.9840   20.4750  -30.3900 O   0  0  0  0  0  0  0  0  0  0  0  0
   -6.3490   20.4900  -31.7260 O   0  0  0  0  0  0  0  0  0  0  0  0
   -8.0174   18.1419  -31.6795 H   0  0  0  0  0  0  0  0  0  0  0  0
   -8.7932   18.7371  -33.1864 H   0  0  0  0  0  0  0  0  0  0  0  0
   -7.0519   18.2961  -33.1864 H   0  0  0  0  0  0  0  0  0  0  0  0
   -9.3865   21.2534  -32.6689 H   0  0  0  0  0  0  0  0  0  0  0  0
   -7.9358   23.3467  -31.7540 H   0  0  0  0  0  0  0  0  0  0  0  0
   -6.0986   24.4396  -31.3816 H   0  0  0  0  0  0  0  0  0  0  0  0
   -2.2577   22.5932  -26.1184 H   0  0  0  0  0  0  0  0  0  0  0  0
   -2.1225   20.1150  -25.8713 H   0  0  0  0  0  0  0  0  0  0  0  0
   -0.6467   18.1043  -26.3174 H   0  0  0  0  0  0  0  0  0  0  0  0
   -1.5366   17.9159  -27.8663 H   0  0  0  0  0  0  0  0  0  0  0  0
    0.2575   18.0049  -27.8663 H   0  0  0  0  0  0  0  0  0  0  0  0
    0.4531   22.4095  -29.4884 H   0  0  0  0  0  0  0  0  0  0  0  0
   -2.1368   22.1033  -29.4387 H   0  0  0  0  0  0  0  0  0  0  0  0
   -4.6930   19.8940  -30.8250 H   0  0  0  0  0  0  0  0  0  0  0  0
  1  2  1  0
  2  3  2  0
  3  4  1  0
  4  5  2  0
  5  6  1  0
  6  7  2  0
  7  8  1  0
  8  9  1  0
  8 10  2  0
 10 11  1  0
 11 12  1  0
 12 13  2  0
 12 14  2  0
 12 15  1  0
 15 16  2  0
 16 17  1  0
 17 18  2  0
 18 19  1  0
 18 20  1  0
 20 21  1  0
 20 22  2  0
 10 23  1  0
 23 24  2  0
 24 25  1  0
  5 26  1  0
 26  2  1  0
 24  6  1  0
 22 15  1  0
  1 27  1  0
  1 28  1  0
  1 29  1  0
  3 30  1  0
  4 31  1  0
  7 32  1  0
 16 33  1  0
 17 34  1  0
 19 35  1  0
 19 36  1  0
 19 37  1  0
 22 38  1  0
 23 39  1  0
 25 40  1  0
M  CHG  2   9  -1  11  -1
M  END
>  <UniqueID>  (1) 
1

>  <SMILES>  (1) 
Cc1ccc(-c2cc([O-])c([N-]S(=O)(=O)c3ccc(C)c(F)c3)cc2O)o1

>  <Energy>  (1) 
73.67021548089375

>  <Genealogy>  (1) 
Cc1ccc(-c2cc([O-])c([N-]S(=O)(=O)c3ccc(C)c(F)c3)cc2O)o1 (protonated)
Cc1ccc(-c2cc([O-])c([N-]S(=O)(=O)c3ccc(C)c(F)c3)cc2O)o1 (3D coordinates assigned)
Cc1ccc(-c2cc([O-])c([N-]S(=O)(=O)c3ccc(C)c(F)c3)cc2O)o1 (optimized conformer: 73.67021548089375 kcal/mol)

>  <smiles>  (1) 
Cc1ccc(-c2cc(O)c(NS(=O)(=O)c3ccc(C)c(F)c3)cc2O)o1

>  <score_type>  (1) 
oracle

>  <origin>  (1) 
adgpu

>  <m_score__min__energy>  (1) 
-11.4

>  <m_primary>  (1) 
energy

$$$$
1:0
     RDKit          3D

 78 82  0  0  0  0  0  0  0  0999 V2000
    0.0220   16.3000  -35.1210 C   0  0  0  0  0  0  0  0  0  0  0  0
   -1.3310   16.9670  -34.9030 C   0  0  0  0  0  0  0  0  0  0  0  0
   -1.2060   18.3870  -34.9660 O   0  0  0  0  0  0  0  0  0  0  0  0
   -1.9840   19.3170  -34.2500 C   0  0  0  0  0  0  0  0  0  0  0  0
   -3.2630   19.0090  -33.7640 C   0  0  0  0  0  0  0  0  0  0  0  0
   -4.0230   19.9910  -33.1250 C   0  0  0  0  0  0  0  0  0  0  0  0
   -5.1830   19.7020  -32.7260 O   0  0  0  0  0  0  0  0  0  0  0  0
   -3.5150   21.2490  -32.9410 N   0  0  0  0  0  0  0  0  0  0  0  0
   -4.3430   22.2880  -32.3180 C   0  0  0  0  0  0  0  0  0  0  0  0
   -2.2520   21.5540  -33.3620 C   0  0  0  0  0  0  0  0  0  0  0  0
   -1.4740   20.6110  -34.0500 C   0  0  0  0  0  0  0  0  0  0  0  0
   -0.1600   21.0040  -34.6200 C   0  0  0  0  0  0  0  0  0  0  0  0
   -0.0670   22.2090  -35.3380 C   0  0  0  0  0  0  0  0  0  0  0  0
    1.1460   22.6180  -35.9120 C   0  0  0  0  0  0  0  0  0  0  0  0
    1.2030   23.8740  -36.6120 N   0  0  0  0  0  0  0  0  0  0  0  0
    1.7850   25.0980  -36.0590 C   0  0  0  0  0  0  0  0  0  0  0  0
    0.7980   26.2350  -36.1450 C   0  0  0  0  0  0  0  0  0  0  0  0
   -0.3530   26.1020  -36.9370 C   0  0  0  0  0  0  0  0  0  0  0  0
   -1.2820   27.1440  -37.0080 C   0  0  0  0  0  0  0  0  0  0  0  0
   -1.0680   28.3240  -36.2900 C   0  0  0  0  0  0  0  0  0  0  0  0
    0.0740   28.4750  -35.4930 C   0  0  0  0  0  0  0  0  0  0  0  0
    0.2330   29.6720  -34.7800 O   0  0  0  0  0  0  0  0  0  0  0  0
    0.7710   30.8700  -35.3310 C   0  0  0  0  0  0  0  0  0  0  0  0
    1.0120   27.4250  -35.4290 C   0  0  0  0  0  0  0  0  0  0  0  0
    2.2710   21.7820  -35.7970 C   0  0  0  0  0  0  0  0  0  0  0  0
    2.1890   20.5810  -35.0920 C   0  0  0  0  0  0  0  0  0  0  0  0
    0.9960   20.1920  -34.4760 C   0  0  0  0  0  0  0  0  0  0  0  0
    0.9940   18.9810  -33.7640 O   0  0  0  0  0  0  0  0  0  0  0  0
    0.6870   18.8500  -32.4030 C   0  0  0  0  0  0  0  0  0  0  0  0
    0.6370   20.0020  -31.6110 C   0  0  0  0  0  0  0  0  0  0  0  0
    0.4310   19.9000  -30.2340 C   0  0  0  0  0  0  0  0  0  0  0  0
    0.2440   18.6460  -29.6390 C   0  0  0  0  0  0  0  0  0  0  0  0
    0.0140   18.5570  -27.8970 S   0  0  0  0  0  0  0  0  0  0  0  0
   -0.0670   17.1300  -27.4290 O   0  0  0  0  0  0  0  0  0  0  0  0
    1.1820   19.2190  -27.2230 O   0  0  0  0  0  0  0  0  0  0  0  0
   -1.4370   19.4100  -27.4900 N   0  0  0  0  0  0  0  0  0  0  0  0
   -1.7230   20.7210  -27.9830 C   0  0  0  0  0  0  0  0  0  0  0  0
   -1.2240   21.8320  -27.2910 C   0  0  0  0  0  0  0  0  0  0  0  0
   -1.4700   23.1270  -27.7590 C   0  0  0  0  0  0  0  0  0  0  0  0
   -2.2490   23.3260  -28.9170 C   0  0  0  0  0  0  0  0  0  0  0  0
   -2.5250   24.6920  -29.4140 C   0  0  0  0  0  0  0  0  0  0  0  0
   -1.8700   25.6770  -28.9750 O   0  0  0  0  0  0  0  0  0  0  0  0
   -3.5090   24.9060  -30.3730 O   0  0  0  0  0  0  0  0  0  0  0  0
   -2.7700   22.2070  -29.5950 C   0  0  0  0  0  0  0  0  0  0  0  0
   -2.5030   20.9140  -29.1350 C   0  0  0  0  0  0  0  0  0  0  0  0
    0.2290   17.4930  -30.4370 C   0  0  0  0  0  0  0  0  0  0  0  0
    0.4420   17.5950  -31.8170 C   0  0  0  0  0  0  0  0  0  0  0  0
    0.4805   16.0740  -34.1470 H   0  0  0  0  0  0  0  0  0  0  0  0
   -0.1162   15.3668  -35.6867 H   0  0  0  0  0  0  0  0  0  0  0  0
    0.6781   16.9779  -35.6867 H   0  0  0  0  0  0  0  0  0  0  0  0
   -2.0299   16.6305  -35.6829 H   0  0  0  0  0  0  0  0  0  0  0  0
   -1.7083   16.6877  -33.9082 H   0  0  0  0  0  0  0  0  0  0  0  0
   -3.6677   17.9935  -33.8862 H   0  0  0  0  0  0  0  0  0  0  0  0
   -4.2755   22.2033  -31.2233 H   0  0  0  0  0  0  0  0  0  0  0  0
   -3.9847   23.2795  -32.6318 H   0  0  0  0  0  0  0  0  0  0  0  0
   -5.3895   22.1600  -32.6318 H   0  0  0  0  0  0  0  0  0  0  0  0
   -1.8391   22.5531  -33.1587 H   0  0  0  0  0  0  0  0  0  0  0  0
   -0.9598   22.8415  -35.4516 H   0  0  0  0  0  0  0  0  0  0  0  0
    0.7040   23.9570  -37.5270 H   0  0  0  0  0  0  0  0  0  0  0  0
    2.0518   24.9286  -35.0054 H   0  0  0  0  0  0  0  0  0  0  0  0
    2.6824   25.3599  -36.6388 H   0  0  0  0  0  0  0  0  0  0  0  0
   -0.5246   25.1749  -37.5036 H   0  0  0  0  0  0  0  0  0  0  0  0
   -2.1828   27.0352  -37.6298 H   0  0  0  0  0  0  0  0  0  0  0  0
   -1.8023   29.1407  -36.3513 H   0  0  0  0  0  0  0  0  0  0  0  0
    1.0739   31.5445  -34.5165 H   0  0  0  0  0  0  0  0  0  0  0  0
    1.6466   30.6275  -35.9510 H   0  0  0  0  0  0  0  0  0  0  0  0
    0.0080   31.3634  -35.9510 H   0  0  0  0  0  0  0  0  0  0  0  0
    1.9174   27.5378  -34.8146 H   0  0  0  0  0  0  0  0  0  0  0  0
    3.2214   22.0769  -36.2658 H   0  0  0  0  0  0  0  0  0  0  0  0
    3.0742   19.9320  -35.0199 H   0  0  0  0  0  0  0  0  0  0  0  0
    0.7604   20.9918  -32.0748 H   0  0  0  0  0  0  0  0  0  0  0  0
    0.4155   20.8083  -29.6137 H   0  0  0  0  0  0  0  0  0  0  0  0
   -0.6349   21.6851  -26.3737 H   0  0  0  0  0  0  0  0  0  0  0  0
   -1.0545   23.9925  -27.2220 H   0  0  0  0  0  0  0  0  0  0  0  0
   -3.3906   22.3511  -30.4917 H   0  0  0  0  0  0  0  0  0  0  0  0
   -2.9050   20.0453  -29.6769 H   0  0  0  0  0  0  0  0  0  0  0  0
    0.0500   16.5090  -29.9790 H   0  0  0  0  0  0  0  0  0  0  0  0
    0.4177   16.6917  -32.4443 H   0  0  0  0  0  0  0  0  0  0  0  0
  1  2  1  0
  2  3  1  0
  3  4  1  0
  4  5  2  0
  5  6  1  0
  6  7  2  0
  6  8  1  0
  8  9  1  0
  8 10  1  0
 10 11  2  0
 11 12  1  0
 12 13  2  0
 13 14  1  0
 14 15  1  0
 15 16  1  0
 16 17  1  0
 17 18  2  0
 18 19  1  0
 19 20  2  0
 20 21  1  0
 21 22  1  0
 22 23  1  0
 21 24  2  0
 14 25  2  0
 25 26  1  0
 26 27  2  0
 27 28  1  0
 28 29  1  0
 29 30  2  0
 30 31  1  0
 31 32  2  0
 32 33  1  0
 33 34  2  0
 33 35  2  0
 33 36  1  0
 36 37  1  0
 37 38  2  0
 38 39  1  0
 39 40  2  0
 40 41  1  0
 41 42  2  0
 41 43  1  0
 40 44  1  0
 44 45  2  0
 32 46  1  0
 46 47  2  0
 11  4  1  0
 27 12  1  0
 47 29  1  0
 24 17  1  0
 45 37  1  0
  1 48  1  0
  1 49  1  0
  1 50  1  0
  2 51  1  0
  2 52  1  0
  5 53  1  0
  9 54  1  0
  9 55  1  0
  9 56  1  0
 10 57  1  0
 13 58  1  0
 15 59  1  0
 16 60  1  0
 16 61  1  0
 18 62  1  0
 19 63  1  0
 20 64  1  0
 23 65  1  0
 23 66  1  0
 23 67  1  0
 24 68  1  0
 25 69  1  0
 26 70  1  0
 30 71  1  0
 31 72  1  0
 38 73  1  0
 39 74  1  0
 44 75  1  0
 45 76  1  0
 46 77  1  0
 47 78  1  0
M  CHG  2  36  -1  43  -1
M  END
>  <UniqueID>  (2) 
2

>  <SMILES>  (2) 
CCOc1cc(=O)n(C)cc1-c1cc(NCc2cccc(OC)c2)ccc1Oc1ccc(S(=O)(=O)[N-]c2ccc(C(=O)[O-])cc2)cc1

>  <Energy>  (2) 
101.78776938417766

>  <Genealogy>  (2) 
CCOc1cc(=O)n(C)cc1-c1cc(NCc2cccc(OC)c2)ccc1Oc1ccc(S(=O)(=O)[N-]c2ccc(C(=O)[O-])cc2)cc1 (protonated)
CCOc1cc(=O)n(C)cc1-c1cc(NCc2cccc(OC)c2)ccc1Oc1ccc(S(=O)(=O)[N-]c2ccc(C(=O)[O-])cc2)cc1 (3D coordinates assigned)
CCOc1cc(=O)n(C)cc1-c1cc(NCc2cccc(OC)c2)ccc1Oc1ccc(S(=O)(=O)[N-]c2ccc(C(=O)[O-])cc2)cc1 (optimized conformer: 101.78776938417766 kcal/mol)

>  <smiles>  (2) 
CCOc1cc(=O)n(C)cc1-c1cc(NCc2cccc(OC)c2)ccc1Oc1ccc(S(=O)(=O)Nc2ccc(C(=O)O)cc2)cc1

>  <score_type>  (2) 
oracle

>  <origin>  (2) 
adgpu

>  <m_score__min__energy>  (2) 
-11.98

>  <m_primary>  (2) 
energy

$$$$
2:0
     RDKit          3D

 57 60  0  0  0  0  0  0  0  0999 V2000
    1.1960   18.2760  -29.7160 C   0  0  0  0  0  0  0  0  0  0  0  0
    0.1930   19.2350  -30.2850 C   0  0  0  0  0  0  0  0  0  0  0  0
   -0.0270   20.4780  -29.6730 C   0  0  0  0  0  0  0  0  0  0  0  0
   -0.9860   21.3560  -30.1860 C   0  0  0  0  0  0  0  0  0  0  0  0
   -1.7560   20.9970  -31.2980 C   0  0  0  0  0  0  0  0  0  0  0  0
   -2.7130   21.9380  -31.8030 N   0  0  0  0  0  0  0  0  0  0  0  0
   -3.8250   21.6550  -32.6620 C   0  0  0  0  0  0  0  0  0  0  0  0
   -3.6330   21.2920  -33.8540 O   0  0  0  0  0  0  0  0  0  0  0  0
   -5.2070   21.7700  -32.1480 C   0  0  0  0  0  0  0  0  0  0  0  0
   -6.0080   20.6160  -32.1230 C   0  0  0  0  0  0  0  0  0  0  0  0
   -7.3660   20.6800  -31.7720 C   0  0  0  0  0  0  0  0  0  0  0  0
   -8.1770   19.4490  -31.8540 C   0  0  0  0  0  0  0  0  0  0  0  0
   -9.0480   19.2180  -30.9710 O   0  0  0  0  0  0  0  0  0  0  0  0
   -7.8900   18.4680  -32.8600 N   0  0  0  0  0  0  0  0  0  0  0  0
   -6.5920   17.9660  -33.2090 C   0  0  0  0  0  0  0  0  0  0  0  0
   -6.0430   18.3230  -34.4460 C   0  0  0  0  0  0  0  0  0  0  0  0
   -4.7870   17.8420  -34.8290 C   0  0  0  0  0  0  0  0  0  0  0  0
   -4.0740   16.9810  -33.9850 C   0  0  0  0  0  0  0  0  0  0  0  0
   -2.7870   16.4930  -34.3740 N   0  0  0  0  0  0  0  0  0  0  0  0
   -4.6320   16.5980  -32.7570 C   0  0  0  0  0  0  0  0  0  0  0  0
   -5.8860   17.0820  -32.3720 C   0  0  0  0  0  0  0  0  0  0  0  0
   -7.9240   21.9230  -31.3990 C   0  0  0  0  0  0  0  0  0  0  0  0
   -9.2470   22.0500  -30.9700 O   0  0  0  0  0  0  0  0  0  0  0  0
   -7.1280   23.0700  -31.4170 C   0  0  0  0  0  0  0  0  0  0  0  0
   -5.7710   23.0070  -31.7500 C   0  0  0  0  0  0  0  0  0  0  0  0
   -4.9990   24.2130  -31.6350 N   0  0  0  0  0  0  0  0  0  0  0  0
   -4.5220   24.7980  -30.4130 C   0  0  0  0  0  0  0  0  0  0  0  0
   -4.7630   26.0140  -30.1960 O   0  0  0  0  0  0  0  0  0  0  0  0
   -3.7820   24.0110  -29.4000 C   0  0  0  0  0  0  0  0  0  0  0  0
   -4.3110   22.8010  -28.9180 C   0  0  0  0  0  0  0  0  0  0  0  0
   -3.6150   22.0530  -27.9640 C   0  0  0  0  0  0  0  0  0  0  0  0
   -2.3930   22.5120  -27.4700 C   0  0  0  0  0  0  0  0  0  0  0  0
   -1.8620   23.7180  -27.9310 C   0  0  0  0  0  0  0  0  0  0  0  0
   -2.5490   24.4700  -28.8900 C   0  0  0  0  0  0  0  0  0  0  0  0
   -1.9910   25.6620  -29.3420 O   0  0  0  0  0  0  0  0  0  0  0  0
   -1.5340   19.7540  -31.9160 C   0  0  0  0  0  0  0  0  0  0  0  0
   -0.5740   18.8740  -31.4030 C   0  0  0  0  0  0  0  0  0  0  0  0
    1.1568   18.3135  -28.6173 H   0  0  0  0  0  0  0  0  0  0  0  0
    0.9627   17.2564  -30.0567 H   0  0  0  0  0  0  0  0  0  0  0  0
    2.2041   18.5548  -30.0567 H   0  0  0  0  0  0  0  0  0  0  0  0
    0.5576   20.7629  -28.7858 H   0  0  0  0  0  0  0  0  0  0  0  0
   -1.1367   22.3370  -29.7118 H   0  0  0  0  0  0  0  0  0  0  0  0
   -5.5630   19.6443  -32.3833 H   0  0  0  0  0  0  0  0  0  0  0  0
   -6.6032   18.9863  -35.1214 H   0  0  0  0  0  0  0  0  0  0  0  0
   -4.3574   18.1409  -35.7965 H   0  0  0  0  0  0  0  0  0  0  0  0
   -2.4990   16.4890  -35.3780 H   0  0  0  0  0  0  0  0  0  0  0  0
   -2.1130   16.1340  -33.6610 H   0  0  0  0  0  0  0  0  0  0  0  0
   -4.0813   15.9144  -32.0942 H   0  0  0  0  0  0  0  0  0  0  0  0
   -6.3223   16.7707  -31.4114 H   0  0  0  0  0  0  0  0  0  0  0  0
   -9.8430   21.2590  -30.7700 H   0  0  0  0  0  0  0  0  0  0  0  0
   -7.5768   24.0420  -31.1644 H   0  0  0  0  0  0  0  0  0  0  0  0
   -5.2796   22.4402  -29.2943 H   0  0  0  0  0  0  0  0  0  0  0  0
   -4.0310   21.1012  -27.6021 H   0  0  0  0  0  0  0  0  0  0  0  0
   -1.8482   21.9233  -26.7172 H   0  0  0  0  0  0  0  0  0  0  0  0
   -0.8996   24.0784  -27.5386 H   0  0  0  0  0  0  0  0  0  0  0  0
   -2.1165   19.4721  -32.8055 H   0  0  0  0  0  0  0  0  0  0  0  0
   -0.4201   17.8943  -31.8789 H   0  0  0  0  0  0  0  0  0  0  0  0
  1  2  1  0
  2  3  2  0
  3  4  1  0
  4  5  2  0
  5  6  1  0
  6  7  1  0
  7  8  2  0
  7  9  1  0
  9 10  2  0
 10 11  1  0
 11 12  1  0
 12 13  2  0
 12 14  1  0
 14 15  1  0
 15 16  2  0
 16 17  1  0
 17 18  2  0
 18 19  1  0
 18 20  1  0
 20 21  2  0
 11 22  2  0
 22 23  1  0
 22 24  1  0
 24 25  2  0
 25 26  1  0
 26 27  1  0
 27 28  2  0
 27 29  1  0
 29 30  2  0
 30 31  1  0
 31 32  2  0
 32 33  1  0
 33 34  2  0
 34 35  1  0
  5 36  1  0
 36 37  2  0
 37  2  1  0
 25  9  1  0
 34 29  1  0
 21 15  1  0
  1 38  1  0
  1 39  1  0
  1 40  1  0
  3 41  1  0
  4 42  1  0
 10 43  1  0
 16 44  1  0
 17 45  1  0
 19 46  1  0
 19 47  1  0
 20 48  1  0
 21 49  1  0
 23 50  1  0
 24 51  1  0
 30 52  1  0
 31 53  1  0
 32 54  1  0
 33 55  1  0
 36 56  1  0
 37 57  1  0
M  CHG  4   6  -1  14  -1  26  -1  35  -1
M  END
>  <UniqueID>  (3) 
3

>  <SMILES>  (3) 
Cc1ccc([N-]C(=O)c2cc(C(=O)[N-]c3ccc(N)cc3)c(O)cc2[N-]C(=O)c2ccccc2[O-])cc1

>  <Energy>  (3) 
85.91512406830684

>  <Genealogy>  (3) 
Cc1ccc([N-]C(=O)c2cc(C(=O)[N-]c3ccc(N)cc3)c(O)cc2[N-]C(=O)c2ccccc2[O-])cc1 (protonated)
Cc1ccc([N-]C(=O)c2cc(C(=O)[N-]c3ccc(N)cc3)c(O)cc2[N-]C(=O)c2ccccc2[O-])cc1 (3D coordinates assigned)
Cc1ccc([N-]C(=O)c2cc(C(=O)[N-]c3ccc(N)cc3)c(O)cc2[N-]C(=O)c2ccccc2[O-])cc1 (optimized conformer: 85.91512406830684 kcal/mol)

>  <smiles>  (3) 
Cc1ccc(NC(=O)c2cc(C(=O)Nc3ccc(N)cc3)c(O)cc2NC(=O)c2ccccc2O)cc1

>  <score_type>  (3) 
oracle

>  <origin>  (3) 
adgpu

>  <m_score__min__energy>  (3) 
-14.08

>  <m_primary>  (3) 
energy

$$$$
3:0
     RDKit          3D

 54 56  0  0  0  0  0  0  0  0999 V2000
   -6.0730   14.8010  -34.2460 C   0  0  0  0  0  0  0  0  0  0  0  0
   -4.7400   15.2290  -33.6340 C   0  0  0  0  0  0  0  0  0  0  0  0
   -4.9750   16.1310  -32.4200 C   0  0  0  0  0  0  0  0  0  0  0  0
   -3.9670   15.9570  -34.6450 N   0  0  0  0  0  0  0  0  0  0  0  0
   -2.3830   16.3710  -34.0580 S   0  0  0  0  0  0  0  0  0  0  0  0
   -2.0340   15.4750  -32.9030 O   0  0  0  0  0  0  0  0  0  0  0  0
   -1.3600   16.1720  -35.1430 O   0  0  0  0  0  0  0  0  0  0  0  0
   -2.3720   18.0450  -33.5070 C   0  0  0  0  0  0  0  0  0  0  0  0
   -1.4360   18.4800  -32.5590 C   0  0  0  0  0  0  0  0  0  0  0  0
   -1.4320   19.8130  -32.1350 C   0  0  0  0  0  0  0  0  0  0  0  0
   -2.3720   20.7240  -32.6490 C   0  0  0  0  0  0  0  0  0  0  0  0
   -2.3980   22.1020  -32.2490 N   0  0  0  0  0  0  0  0  0  0  0  0
   -2.7230   22.6150  -30.9480 C   0  0  0  0  0  0  0  0  0  0  0  0
   -1.9020   22.4880  -30.0000 O   0  0  0  0  0  0  0  0  0  0  0  0
   -4.0540   23.2370  -30.7090 C   0  0  0  0  0  0  0  0  0  0  0  0
   -5.2230   22.5280  -31.0460 C   0  0  0  0  0  0  0  0  0  0  0  0
   -6.4910   23.0810  -30.8180 C   0  0  0  0  0  0  0  0  0  0  0  0
   -7.9470   22.1670  -31.2250 S   0  0  0  0  0  0  0  0  0  0  0  0
   -8.6860   22.8760  -32.3270 O   0  0  0  0  0  0  0  0  0  0  0  0
   -8.8470   22.1150  -30.0230 O   0  0  0  0  0  0  0  0  0  0  0  0
   -7.5720   20.5380  -31.7330 N   0  0  0  0  0  0  0  0  0  0  0  0
   -6.9660   20.5400  -33.0710 C   0  0  0  0  0  0  0  0  0  0  0  0
   -6.6230   19.0960  -33.4960 C   0  0  0  0  0  0  0  0  0  0  0  0
   -7.1280   18.1340  -32.5860 O   0  0  0  0  0  0  0  0  0  0  0  0
   -8.5140   18.3400  -32.3940 C   0  0  0  0  0  0  0  0  0  0  0  0
   -8.7860   19.7010  -31.7230 C   0  0  0  0  0  0  0  0  0  0  0  0
   -6.5970   24.3570  -30.2570 C   0  0  0  0  0  0  0  0  0  0  0  0
   -5.4490   25.0750  -29.9250 C   0  0  0  0  0  0  0  0  0  0  0  0
   -4.1810   24.5280  -30.1450 C   0  0  0  0  0  0  0  0  0  0  0  0
   -3.0640   25.2800  -29.8030 O   0  0  0  0  0  0  0  0  0  0  0  0
   -3.2780   20.2920  -33.6250 C   0  0  0  0  0  0  0  0  0  0  0  0
   -3.2810   18.9600  -34.0490 C   0  0  0  0  0  0  0  0  0  0  0  0
   -6.7884   14.5713  -33.4426 H   0  0  0  0  0  0  0  0  0  0  0  0
   -6.4697   15.6169  -34.8680 H   0  0  0  0  0  0  0  0  0  0  0  0
   -5.9206   13.9066  -34.8680 H   0  0  0  0  0  0  0  0  0  0  0  0
   -4.1876   14.3365  -33.3051 H   0  0  0  0  0  0  0  0  0  0  0  0
   -4.8239   15.5511  -31.4976 H   0  0  0  0  0  0  0  0  0  0  0  0
   -4.2659   16.9715  -32.4450 H   0  0  0  0  0  0  0  0  0  0  0  0
   -6.0041   16.5187  -32.4450 H   0  0  0  0  0  0  0  0  0  0  0  0
   -0.7025   17.7712  -32.1472 H   0  0  0  0  0  0  0  0  0  0  0  0
   -0.6902   20.1502  -31.3961 H   0  0  0  0  0  0  0  0  0  0  0  0
   -5.1402   21.5268  -31.4942 H   0  0  0  0  0  0  0  0  0  0  0  0
   -7.6751   20.9734  -33.7917 H   0  0  0  0  0  0  0  0  0  0  0  0
   -6.0439   21.1393  -33.0494 H   0  0  0  0  0  0  0  0  0  0  0  0
   -7.0576   18.9066  -34.4886 H   0  0  0  0  0  0  0  0  0  0  0  0
   -5.5272   19.0011  -33.5129 H   0  0  0  0  0  0  0  0  0  0  0  0
   -9.0196   18.3137  -33.3706 H   0  0  0  0  0  0  0  0  0  0  0  0
   -8.8975   17.5446  -31.7380 H   0  0  0  0  0  0  0  0  0  0  0  0
   -9.5870   20.2198  -32.2700 H   0  0  0  0  0  0  0  0  0  0  0  0
   -9.0876   19.5273  -30.6795 H   0  0  0  0  0  0  0  0  0  0  0  0
   -7.5894   24.7960  -30.0769 H   0  0  0  0  0  0  0  0  0  0  0  0
   -5.5414   26.0796  -29.4866 H   0  0  0  0  0  0  0  0  0  0  0  0
   -3.9924   21.0057  -34.0612 H   0  0  0  0  0  0  0  0  0  0  0  0
   -4.0012   18.6298  -34.8121 H   0  0  0  0  0  0  0  0  0  0  0  0
  1  2  1  0
  2  3  1  0
  2  4  1  0
  4  5  1  0
  5  6  2  0
  5  7  2  0
  5  8  1  0
  8  9  2  0
  9 10  1  0
 10 11  2  0
 11 12  1  0
 12 13  1  0
 13 14  2  0
 13 15  1  0
 15 16  2  0
 16 17  1  0
 17 18  1  0
 18 19  2  0
 18 20  2  0
 18 21  1  0
 21 22  1  0
 22 23  1  0
 23 24  1  0
 24 25  1  0
 25 26  1  0
 17 27  2  0
 27 28  1  0
 28 29  2  0
 29 30  1  0
 11 31  1  0
 31 32  2  0
 32  8  1  0
 29 15  1  0
 26 21  1  0
  1 33  1  0
  1 34  1  0
  1 35  1  0
  2 36  1  0
  3 37  1  0
  3 38  1  0
  3 39  1  0
  9 40  1  0
 10 41  1  0
 16 42  1  0
 22 43  1  0
 22 44  1  0
 23 45  1  0
 23 46  1  0
 25 47  1  0
 25 48  1  0
 26 49  1  0
 26 50  1  0
 27 51  1  0
 28 52  1  0
 31 53  1  0
 32 54  1  0
M  CHG  3   4  -1  12  -1  30  -1
M  END
>  <UniqueID>  (4) 
4

>  <SMILES>  (4) 
CC(C)[N-]S(=O)(=O)c1ccc([N-]C(=O)c2cc(S(=O)(=O)N3CCOCC3)ccc2[O-])cc1

>  <Energy>  (4) 
63.23836866741192

>  <Genealogy>  (4) 
CC(C)[N-]S(=O)(=O)c1ccc([N-]C(=O)c2cc(S(=O)(=O)N3CCOCC3)ccc2[O-])cc1 (protonated)
CC(C)[N-]S(=O)(=O)c1ccc([N-]C(=O)c2cc(S(=O)(=O)N3CCOCC3)ccc2[O-])cc1 (3D coordinates assigned)
CC(C)[N-]S(=O)(=O)c1ccc([N-]C(=O)c2cc(S(=O)(=O)N3CCOCC3)ccc2[O-])cc1 (nonaromatic ring conformer: 63.23836866741192 kcal/mol)

>  <smiles>  (4) 
CC(C)NS(=O)(=O)c1ccc(NC(=O)c2cc(S(=O)(=O)N3CCOCC3)ccc2O)cc1

>  <score_type>  (4) 
oracle

>  <origin>  (4) 
adgpu

>  <m_score__min__energy>  (4) 
-13.130000000000001

>  <m_primary>  (4) 
energy

$$$$
4:0
     RDKit          3D

 24 25  0  0  0  0  0  0  0  0999 V2000
   -6.7283   24.7099  -30.5934 H   0  0  0  0  0  0  0  0  0  0  0  0
   -6.3070   23.7460  -30.9150 C   0  0  0  0  0  0  0  0  0  0  0  0
   -7.1020   22.9290  -31.6310 C   0  0  0  0  0  0  0  0  0  0  0  0
   -8.4070   23.4080  -32.0190 C   0  0  0  0  0  0  0  0  0  0  0  0
   -9.4530   23.7930  -32.3300 N   0  0  0  0  0  0  0  0  0  0  0  0
   -6.7420   21.5340  -31.9810 C   0  0  0  0  0  0  0  0  0  0  0  0
   -5.5820   21.2730  -32.7310 C   0  0  0  0  0  0  0  0  0  0  0  0
   -4.9366   22.1057  -33.0474 H   0  0  0  0  0  0  0  0  0  0  0  0
   -5.2440   19.9620  -33.0770 C   0  0  0  0  0  0  0  0  0  0  0  0
   -4.3289   19.7654  -33.6549 H   0  0  0  0  0  0  0  0  0  0  0  0
   -6.0670   18.8990  -32.6900 C   0  0  0  0  0  0  0  0  0  0  0  0
   -5.6030   17.1080  -33.1640 Br  0  0  0  0  0  0  0  0  0  0  0  0
   -7.2340   19.1510  -31.9610 C   0  0  0  0  0  0  0  0  0  0  0  0
   -7.8845   18.3164  -31.6603 H   0  0  0  0  0  0  0  0  0  0  0  0
   -7.5750   20.4610  -31.6140 C   0  0  0  0  0  0  0  0  0  0  0  0
   -8.4998   20.6545  -31.0508 H   0  0  0  0  0  0  0  0  0  0  0  0
   -4.9140   23.4490  -30.5280 C   0  0  0  0  0  0  0  0  0  0  0  0
   -3.8430   24.3180  -30.4450 C   0  0  0  0  0  0  0  0  0  0  0  0
   -3.8650   25.6760  -30.7390 O   0  0  0  0  0  0  0  0  0  0  0  0
   -2.7520   23.6790  -29.9830 N   0  0  0  0  0  0  0  0  0  0  0  0
   -3.2040   22.4230  -29.7780 C   0  0  0  0  0  0  0  0  0  0  0  0
   -2.4740   21.4980  -29.3340 O   0  0  0  0  0  0  0  0  0  0  0  0
   -4.5050   22.2510  -30.0820 N   0  0  0  0  0  0  0  0  0  0  0  0
   -5.0700   21.3770  -29.9910 H   0  0  0  0  0  0  0  0  0  0  0  0
  1  2  1  0
  2  3  2  0
  3  4  1  0
  4  5  3  0
  3  6  1  0
  6  7  2  0
  7  8  1  0
  7  9  1  0
  9 10  1  0
  9 11  2  0
 11 12  1  0
 11 13  1  0
 13 14  1  0
 13 15  2  0
 15 16  1  0
  2 17  1  0
 17 18  2  0
 18 19  1  0
 18 20  1  0
 20 21  1  0
 21 22  2  0
 21 23  1  0
 23 24  1  0
 15  6  1  0
 23 17  1  0
M  CHG  2  19  -1  20  -1
M  END
>  <UniqueID>  (5) 
5

>  <SMILES>  (5) 
N#C/C(=C/c1[nH]c(=O)[n-]c1[O-])c1ccc(Br)cc1

>  <Energy>  (5) 
65.06246314212115

>  <Genealogy>  (5) 
N#CC(=Cc1[nH]c(=O)[n-]c1[O-])c1ccc(Br)cc1 (protonated)
N#C/C(=C/c1[nH]c(=O)[n-]c1[O-])c1ccc(Br)cc1 (cis-trans isomerization)
N#C/C(=C/c1[nH]c(=O)[n-]c1[O-])c1ccc(Br)cc1 (3D coordinates assigned)
N#C/C(=C/c1[nH]c(=O)[n-]c1[O-])c1ccc(Br)cc1 (optimized conformer: 65.06246314212115 kcal/mol)

>  <smiles>  (5) 
N#CC(=Cc1[nH]c(=O)[nH]c1O)c1ccc(Br)cc1

>  <score_type>  (5) 
oracle

>  <origin>  (5) 
adgpu

>  <m_score__min__energy>  (5) 
-10.82

>  <m_primary>  (5) 
energy

$$$$
5:0
     RDKit          3D

 28 29  0  0  0  0  0  0  0  0999 V2000
   -6.8680   22.4888  -31.8324 H   0  0  0  0  0  0  0  0  0  0  0  0
   -6.4780   21.4630  -31.7570 C   0  0  0  0  0  0  0  0  0  0  0  0
   -7.3120   20.3490  -32.2560 C   0  0  0  0  0  0  0  0  0  0  0  0
   -8.5630   20.4460  -32.1320 O   0  0  0  0  0  0  0  0  0  0  0  0
   -6.7470   19.1250  -32.8720 C   0  0  0  0  0  0  0  0  0  0  0  0
   -6.8590   17.8910  -32.2100 C   0  0  0  0  0  0  0  0  0  0  0  0
   -7.3811   17.8347  -31.2434 H   0  0  0  0  0  0  0  0  0  0  0  0
   -6.3110   16.7340  -32.7720 C   0  0  0  0  0  0  0  0  0  0  0  0
   -6.4119   15.7701  -32.2518 H   0  0  0  0  0  0  0  0  0  0  0  0
   -5.6350   16.8000  -33.9940 C   0  0  0  0  0  0  0  0  0  0  0  0
   -5.0910   15.6490  -34.5520 O   0  0  0  0  0  0  0  0  0  0  0  0
   -5.5020   18.0260  -34.6520 C   0  0  0  0  0  0  0  0  0  0  0  0
   -4.9665   18.0793  -35.6114 H   0  0  0  0  0  0  0  0  0  0  0  0
   -6.0490   19.1850  -34.0920 C   0  0  0  0  0  0  0  0  0  0  0  0
   -5.9328   20.1492  -34.6085 H   0  0  0  0  0  0  0  0  0  0  0  0
   -5.2650   21.2740  -31.2160 C   0  0  0  0  0  0  0  0  0  0  0  0
   -4.8873   20.2436  -31.1406 H   0  0  0  0  0  0  0  0  0  0  0  0
   -4.4020   22.3720  -30.7130 C   0  0  0  0  0  0  0  0  0  0  0  0
   -3.1690   22.0390  -30.1280 C   0  0  0  0  0  0  0  0  0  0  0  0
   -2.8706   20.9833  -30.0476 H   0  0  0  0  0  0  0  0  0  0  0  0
   -2.3180   23.0390  -29.6470 C   0  0  0  0  0  0  0  0  0  0  0  0
   -1.3582   22.7664  -29.1838 H   0  0  0  0  0  0  0  0  0  0  0  0
   -2.6830   24.3820  -29.7530 C   0  0  0  0  0  0  0  0  0  0  0  0
   -1.8330   25.3700  -29.2700 O   0  0  0  0  0  0  0  0  0  0  0  0
   -3.9000   24.7300  -30.3470 C   0  0  0  0  0  0  0  0  0  0  0  0
   -4.2620   26.0670  -30.4670 O   0  0  0  0  0  0  0  0  0  0  0  0
   -4.7560   23.7330  -30.8300 C   0  0  0  0  0  0  0  0  0  0  0  0
   -5.7091   24.0119  -31.3030 H   0  0  0  0  0  0  0  0  0  0  0  0
  1  2  1  0
  2  3  1  0
  3  4  2  0
  3  5  1  0
  5  6  2  0
  6  7  1  0
  6  8  1  0
  8  9  1  0
  8 10  2  0
 10 11  1  0
 10 12  1  0
 12 13  1  0
 12 14  2  0
 14 15  1  0
  2 16  2  0
 16 17  1  0
 16 18  1  0
 18 19  2  0
 19 20  1  0
 19 21  1  0
 21 22  1  0
 21 23  2  0
 23 24  1  0
 23 25  1  0
 25 26  1  0
 25 27  2  0
 27 28  1  0
 14  5  1  0
 27 18  1  0
M  CHG  3  11  -1  24  -1  26  -1
M  END
>  <UniqueID>  (6) 
6

>  <SMILES>  (6) 
O=C(/C=C/c1ccc([O-])c([O-])c1)c1ccc([O-])cc1

>  <Energy>  (6) 
36.60481327408217

>  <Genealogy>  (6) 
O=C(C=Cc1ccc([O-])c([O-])c1)c1ccc([O-])cc1 (protonated)
O=C(/C=C/c1ccc([O-])c([O-])c1)c1ccc([O-])cc1 (cis-trans isomerization)
O=C(/C=C/c1ccc([O-])c([O-])c1)c1ccc([O-])cc1 (3D coordinates assigned)
O=C(/C=C/c1ccc([O-])c([O-])c1)c1ccc([O-])cc1 (optimized conformer: 36.60481327408217 kcal/mol)

>  <smiles>  (6) 
O=C(C=Cc1ccc(O)c(O)c1)c1ccc(O)cc1

>  <score_type>  (6) 
oracle

>  <origin>  (6) 
adgpu

>  <m_score__min__energy>  (6) 
-12.19

>  <m_primary>  (6) 
energy

$$$$
6:0
     RDKit          3D

 34 36  0  0  0  0  0  0  0  0999 V2000
   -7.1310   17.2420  -33.0000 C   0  0  0  0  0  0  0  0  0  0  0  0
   -7.4600   18.6570  -32.6260 C   0  0  0  0  0  0  0  0  0  0  0  0
   -8.7800   19.1230  -32.7220 C   0  0  0  0  0  0  0  0  0  0  0  0
   -9.0990   20.4290  -32.3410 C   0  0  0  0  0  0  0  0  0  0  0  0
   -8.1030   21.2830  -31.8460 C   0  0  0  0  0  0  0  0  0  0  0  0
   -8.4130   22.5950  -31.4590 C   0  0  0  0  0  0  0  0  0  0  0  0
   -7.4140   23.4360  -30.9640 C   0  0  0  0  0  0  0  0  0  0  0  0
   -6.0950   22.9790  -30.8500 C   0  0  0  0  0  0  0  0  0  0  0  0
   -4.8440   24.0560  -30.2350 S   0  0  0  0  0  0  0  0  0  0  0  0
   -4.6500   25.1790  -31.2150 O   0  0  0  0  0  0  0  0  0  0  0  0
   -5.2450   24.6340  -28.9050 O   0  0  0  0  0  0  0  0  0  0  0  0
   -3.3460   23.1950  -30.0540 N   0  0  0  0  0  0  0  0  0  0  0  0
   -2.2580   23.6430  -29.4960 C   0  0  0  0  0  0  0  0  0  0  0  0
   -2.1570   24.9400  -28.9520 C   0  0  0  0  0  0  0  0  0  0  0  0
   -0.9570   25.3470  -28.3620 C   0  0  0  0  0  0  0  0  0  0  0  0
    0.1040   24.4990  -28.3150 N   0  0  0  0  0  0  0  0  0  0  0  0
    0.0360   23.2450  -28.8320 C   0  0  0  0  0  0  0  0  0  0  0  0
   -1.1430   22.7970  -29.4310 C   0  0  0  0  0  0  0  0  0  0  0  0
   -5.7770   21.6670  -31.2280 C   0  0  0  0  0  0  0  0  0  0  0  0
   -6.7730   20.8140  -31.7290 C   0  0  0  0  0  0  0  0  0  0  0  0
   -6.4620   19.5010  -32.1140 C   0  0  0  0  0  0  0  0  0  0  0  0
   -6.9920   16.6443  -32.0871 H   0  0  0  0  0  0  0  0  0  0  0  0
   -7.9547   16.8187  -33.5936 H   0  0  0  0  0  0  0  0  0  0  0  0
   -6.2051   17.2255  -33.5936 H   0  0  0  0  0  0  0  0  0  0  0  0
   -9.5689   18.4559  -33.0997 H   0  0  0  0  0  0  0  0  0  0  0  0
  -10.1349   20.7884  -32.4297 H   0  0  0  0  0  0  0  0  0  0  0  0
   -9.4461   22.9626  -31.5456 H   0  0  0  0  0  0  0  0  0  0  0  0
   -7.6646   24.4636  -30.6618 H   0  0  0  0  0  0  0  0  0  0  0  0
   -3.0159   25.6261  -28.9916 H   0  0  0  0  0  0  0  0  0  0  0  0
   -0.8711   26.3568  -27.9344 H   0  0  0  0  0  0  0  0  0  0  0  0
    0.9114   22.5810  -28.7787 H   0  0  0  0  0  0  0  0  0  0  0  0
   -1.1964   21.7818  -29.8511 H   0  0  0  0  0  0  0  0  0  0  0  0
   -4.7429   21.3045  -31.1316 H   0  0  0  0  0  0  0  0  0  0  0  0
   -5.4309   19.1312  -32.0141 H   0  0  0  0  0  0  0  0  0  0  0  0
  1  2  1  0
  2  3  2  0
  3  4  1  0
  4  5  2  0
  5  6  1  0
  6  7  2  0
  7  8  1  0
  8  9  1  0
  9 10  2  0
  9 11  2  0
  9 12  1  0
 12 13  2  3
 13 14  1  0
 14 15  2  0
 15 16  1  0
 16 17  1  0
 17 18  2  0
  8 19  2  0
 19 20  1  0
 20 21  2  0
 21  2  1  0
 20  5  1  0
 18 13  1  0
  1 22  1  0
  1 23  1  0
  1 24  1  0
  3 25  1  0
  4 26  1  0
  6 27  1  0
  7 28  1  0
 14 29  1  0
 15 30  1  0
 17 31  1  0
 18 32  1  0
 19 33  1  0
 21 34  1  0
M  CHG  1  16  -1
M  END
>  <UniqueID>  (7) 
7

>  <SMILES>  (7) 
Cc1ccc2ccc(S(=O)(=O)N=c3cc[n-]cc3)cc2c1

>  <Energy>  (7) 
44.9650236318632

>  <Genealogy>  (7) 
Cc1ccc2ccc(S(=O)(=O)N=c3cc[n-]cc3)cc2c1 (protonated)
Cc1ccc2ccc(S(=O)(=O)N=c3cc[n-]cc3)cc2c1 (3D coordinates assigned)
Cc1ccc2ccc(S(=O)(=O)N=c3cc[n-]cc3)cc2c1 (optimized conformer: 44.9650236318632 kcal/mol)

>  <smiles>  (7) 
Cc1ccc2ccc(S(=O)(=O)N=c3cc[nH]cc3)cc2c1

>  <score_type>  (7) 
oracle

>  <origin>  (7) 
adgpu

>  <m_score__min__energy>  (7) 
-9.9299999999999997

>  <m_primary>  (7) 
energy

$$$$
7:0
     RDKit          3D

 48 51  0  0  0  0  0  0  0  0999 V2000
    0.8920   18.2390  -28.0790 C   0  0  0  0  0  0  0  0  0  0  0  0
   -0.4940   18.4860  -27.8670 O   0  0  0  0  0  0  0  0  0  0  0  0
   -1.2010   19.5710  -28.4100 C   0  0  0  0  0  0  0  0  0  0  0  0
   -0.9750   20.0270  -29.7220 C   0  0  0  0  0  0  0  0  0  0  0  0
   -1.6990   21.1080  -30.2280 C   0  0  0  0  0  0  0  0  0  0  0  0
   -2.6480   21.7570  -29.4310 C   0  0  0  0  0  0  0  0  0  0  0  0
   -3.4190   22.8940  -29.9700 C   0  0  0  0  0  0  0  0  0  0  0  0
   -4.2200   22.8980  -31.0990 C   0  0  0  0  0  0  0  0  0  0  0  0
   -4.5550   21.7460  -32.0020 C   0  0  0  0  0  0  0  0  0  0  0  0
   -6.0330   21.4530  -31.9960 C   0  0  0  0  0  0  0  0  0  0  0  0
   -6.9130   22.2450  -31.2370 C   0  0  0  0  0  0  0  0  0  0  0  0
   -8.2830   21.9630  -31.2230 C   0  0  0  0  0  0  0  0  0  0  0  0
   -8.7830   20.8820  -31.9520 C   0  0  0  0  0  0  0  0  0  0  0  0
   -7.9140   20.0770  -32.6930 C   0  0  0  0  0  0  0  0  0  0  0  0
   -6.5440   20.3560  -32.7130 C   0  0  0  0  0  0  0  0  0  0  0  0
   -4.6090   24.1690  -31.3280 N   0  0  0  0  0  0  0  0  0  0  0  0
   -4.0630   24.9190  -30.3810 N   0  0  0  0  0  0  0  0  0  0  0  0
   -3.3410   24.1760  -29.5540 N   0  0  0  0  0  0  0  0  0  0  0  0
   -2.6220   24.7130  -28.4280 C   0  0  0  0  0  0  0  0  0  0  0  0
   -1.3480   25.2820  -28.5860 C   0  0  0  0  0  0  0  0  0  0  0  0
   -0.6790   25.7920  -27.4700 C   0  0  0  0  0  0  0  0  0  0  0  0
   -1.2510   25.7230  -26.2400 N   0  0  0  0  0  0  0  0  0  0  0  0
   -2.4750   25.1620  -26.0550 C   0  0  0  0  0  0  0  0  0  0  0  0
   -3.1790   24.6420  -27.1430 C   0  0  0  0  0  0  0  0  0  0  0  0
   -2.8800   21.3050  -28.1260 C   0  0  0  0  0  0  0  0  0  0  0  0
   -2.1620   20.2080  -27.6100 C   0  0  0  0  0  0  0  0  0  0  0  0
   -2.3760   19.7250  -26.3090 O   0  0  0  0  0  0  0  0  0  0  0  0
   -3.1510   18.5730  -25.9950 C   0  0  0  0  0  0  0  0  0  0  0  0
    1.4010   18.1483  -27.1081 H   0  0  0  0  0  0  0  0  0  0  0  0
    1.0154   17.3047  -28.6464 H   0  0  0  0  0  0  0  0  0  0  0  0
    1.3305   19.0731  -28.6464 H   0  0  0  0  0  0  0  0  0  0  0  0
   -0.2237   19.5289  -30.3523 H   0  0  0  0  0  0  0  0  0  0  0  0
   -1.5225   21.4511  -31.2581 H   0  0  0  0  0  0  0  0  0  0  0  0
   -4.2435   21.9931  -33.0276 H   0  0  0  0  0  0  0  0  0  0  0  0
   -4.0244   20.8545  -31.6364 H   0  0  0  0  0  0  0  0  0  0  0  0
   -6.5221   23.0903  -30.6516 H   0  0  0  0  0  0  0  0  0  0  0  0
   -8.9675   22.5937  -30.6368 H   0  0  0  0  0  0  0  0  0  0  0  0
   -9.8612   20.6642  -31.9429 H   0  0  0  0  0  0  0  0  0  0  0  0
   -8.3084   19.2221  -33.2618 H   0  0  0  0  0  0  0  0  0  0  0  0
   -5.8629   19.7149  -33.2919 H   0  0  0  0  0  0  0  0  0  0  0  0
   -0.8801   25.3260  -29.5806 H   0  0  0  0  0  0  0  0  0  0  0  0
    0.3138   26.2507  -27.5881 H   0  0  0  0  0  0  0  0  0  0  0  0
   -2.9118   25.1175  -25.0464 H   0  0  0  0  0  0  0  0  0  0  0  0
   -4.1655   24.1790  -26.9929 H   0  0  0  0  0  0  0  0  0  0  0  0
   -3.6289   21.8105  -27.4987 H   0  0  0  0  0  0  0  0  0  0  0  0
   -3.2229   18.4661  -24.9026 H   0  0  0  0  0  0  0  0  0  0  0  0
   -4.1597   18.6827  -26.4199 H   0  0  0  0  0  0  0  0  0  0  0  0
   -2.6693   17.6800  -26.4199 H   0  0  0  0  0  0  0  0  0  0  0  0
  1  2  1  0
  2  3  1  0
  3  4  2  0
  4  5  1  0
  5  6  2  0
  6  7  1  0
  7  8  2  0
  8  9  1  0
  9 10  1  0
 10 11  2  0
 11 12  1  0
 12 13  2  0
 13 14  1  0
 14 15  2  0
  8 16  1  0
 16 17  2  0
 17 18  1  0
 18 19  1  0
 19 20  2  0
 20 21  1  0
 21 22  2  0
 22 23  1  0
 23 24  2  0
  6 25  1  0
 25 26  2  0
 26 27  1  0
 27 28  1  0
 26  3  1  0
 18  7  1  0
 24 19  1  0
 15 10  1  0
  1 29  1  0
  1 30  1  0
  1 31  1  0
  4 32  1  0
  5 33  1  0
  9 34  1  0
  9 35  1  0
 11 36  1  0
 12 37  1  0
 13 38  1  0
 14 39  1  0
 15 40  1  0
 20 41  1  0
 21 42  1  0
 23 43  1  0
 24 44  1  0
 25 45  1  0
 28 46  1  0
 28 47  1  0
 28 48  1  0
M  END
>  <UniqueID>  (8) 
8

>  <SMILES>  (8) 
COc1ccc(-c2c(Cc3ccccc3)nnn2-c2ccncc2)cc1OC

>  <Energy>  (8) 
95.47520208594702

>  <Genealogy>  (8) 
COc1ccc(-c2c(Cc3ccccc3)nnn2-c2ccncc2)cc1OC (3D coordinates assigned)
COc1ccc(-c2c(Cc3ccccc3)nnn2-c2ccncc2)cc1OC (optimized conformer: 95.47520208594702 kcal/mol)

>  <smiles>  (8) 
COc1ccc(-c2c(Cc3ccccc3)nnn2-c2ccncc2)cc1OC

>  <score_type>  (8) 
oracle

>  <origin>  (8) 
adgpu

>  <m_score__min__energy>  (8) 
-8.8599999999999994

>  <m_primary>  (8) 
energy

$$$$
8:0
     RDKit          3D

 33 35  0  0  0  0  0  0  0  0999 V2000
   -4.4400   25.3390  -30.5870 N   0  0  0  0  0  0  0  0  0  0  0  0
   -4.3950   23.9750  -30.2580 N   0  0  0  0  0  0  0  0  0  0  0  0
   -4.7830   22.9390  -31.0190 C   0  0  0  0  0  0  0  0  0  0  0  0
   -5.6000   23.0780  -32.6080 S   0  0  0  0  0  0  0  0  0  0  0  0
   -7.2470   22.7100  -31.9220 C   0  0  0  0  0  0  0  0  0  0  0  0
   -7.5880   21.2730  -32.1850 C   0  0  0  0  0  0  0  0  0  0  0  0
   -8.8280   20.7540  -31.7810 C   0  0  0  0  0  0  0  0  0  0  0  0
   -9.1140   19.4050  -32.0050 C   0  0  0  0  0  0  0  0  0  0  0  0
   -8.1910   18.6010  -32.6000 N   0  0  0  0  0  0  0  0  0  0  0  0
   -6.9790   19.0750  -32.9900 C   0  0  0  0  0  0  0  0  0  0  0  0
   -6.6510   20.4180  -32.7840 C   0  0  0  0  0  0  0  0  0  0  0  0
   -4.4420   21.7660  -30.4530 N   0  0  0  0  0  0  0  0  0  0  0  0
   -3.8210   22.0520  -29.3140 N   0  0  0  0  0  0  0  0  0  0  0  0
   -3.8010   23.3960  -29.1990 C   0  0  0  0  0  0  0  0  0  0  0  0
   -3.1570   24.1090  -28.0810 C   0  0  0  0  0  0  0  0  0  0  0  0
   -3.9610   24.6300  -27.0550 C   0  0  0  0  0  0  0  0  0  0  0  0
   -3.3830   25.3050  -25.9770 C   0  0  0  0  0  0  0  0  0  0  0  0
   -1.9980   25.4760  -25.9190 C   0  0  0  0  0  0  0  0  0  0  0  0
   -1.2740   26.3260  -24.5660 Cl  0  0  0  0  0  0  0  0  0  0  0  0
   -1.1890   24.9810  -26.9470 C   0  0  0  0  0  0  0  0  0  0  0  0
   -1.7600   24.3040  -28.0320 C   0  0  0  0  0  0  0  0  0  0  0  0
   -0.7040   23.7850  -29.3420 Cl  0  0  0  0  0  0  0  0  0  0  0  0
   -4.2350   25.6600  -31.5600 H   0  0  0  0  0  0  0  0  0  0  0  0
   -4.6420   26.0590  -29.8580 H   0  0  0  0  0  0  0  0  0  0  0  0
   -7.2418   22.8931  -30.8374 H   0  0  0  0  0  0  0  0  0  0  0  0
   -7.9965   23.3583  -32.3995 H   0  0  0  0  0  0  0  0  0  0  0  0
   -9.5685   21.4041  -31.2920 H   0  0  0  0  0  0  0  0  0  0  0  0
  -10.0868   18.9920  -31.7000 H   0  0  0  0  0  0  0  0  0  0  0  0
   -6.2542   18.4003  -33.4690 H   0  0  0  0  0  0  0  0  0  0  0  0
   -5.6661   20.8013  -33.0891 H   0  0  0  0  0  0  0  0  0  0  0  0
   -5.0531   24.5060  -27.1001 H   0  0  0  0  0  0  0  0  0  0  0  0
   -4.0196   25.7024  -25.1727 H   0  0  0  0  0  0  0  0  0  0  0  0
   -0.0992   25.1241  -26.9031 H   0  0  0  0  0  0  0  0  0  0  0  0
  1  2  1  0
  2  3  1  0
  3  4  1  0
  4  5  1  0
  5  6  1  0
  6  7  2  0
  7  8  1  0
  8  9  2  0
  9 10  1  0
 10 11  2  0
  3 12  2  0
 12 13  1  0
 13 14  2  0
 14 15  1  0
 15 16  2  0
 16 17  1  0
 17 18  2  0
 18 19  1  0
 18 20  1  0
 20 21  2  0
 21 22  1  0
 14  2  1  0
 21 15  1  0
 11  6  1  0
  1 23  1  0
  1 24  1  0
  5 25  1  0
  5 26  1  0
  7 27  1  0
  8 28  1  0
 10 29  1  0
 11 30  1  0
 16 31  1  0
 17 32  1  0
 20 33  1  0
M  END
>  <UniqueID>  (9) 
9

>  <SMILES>  (9) 
Nn1c(SCc2ccncc2)nnc1-c1ccc(Cl)cc1Cl

>  <Energy>  (9) 
74.81540053813703

>  <Genealogy>  (9) 
Nn1c(SCc2ccncc2)nnc1-c1ccc(Cl)cc1Cl (3D coordinates assigned)
Nn1c(SCc2ccncc2)nnc1-c1ccc(Cl)cc1Cl (optimized conformer: 74.81540053813703 kcal/mol)

>  <smiles>  (9) 
Nn1c(SCc2ccncc2)nnc1-c1ccc(Cl)cc1Cl

>  <score_type>  (9) 
oracle

>  <origin>  (9) 
adgpu

>  <m_score__min__energy>  (9) 
-8.5500000000000007

>  <m_primary>  (9) 
energy

$$$$
9:0
     RDKit          3D

 31 33  0  0  0  0  0  0  0  0999 V2000
   -8.4120   22.3200  -31.6050 C   0  0  0  0  0  0  0  0  0  0  0  0
   -7.1250   23.0320  -31.2940 C   0  0  0  0  0  0  0  0  0  0  0  0
   -7.1480   24.2340  -30.5660 C   0  0  0  0  0  0  0  0  0  0  0  0
   -5.9590   24.9060  -30.2720 C   0  0  0  0  0  0  0  0  0  0  0  0
   -4.7250   24.3790  -30.6890 C   0  0  0  0  0  0  0  0  0  0  0  0
   -3.4890   25.0540  -30.4180 N   0  0  0  0  0  0  0  0  0  0  0  0
   -2.5850   24.7610  -29.3450 C   0  0  0  0  0  0  0  0  0  0  0  0
   -1.7810   25.6530  -28.9690 O   0  0  0  0  0  0  0  0  0  0  0  0
   -2.5290   23.4310  -28.7110 C   0  0  0  0  0  0  0  0  0  0  0  0
   -3.5210   22.8360  -27.9330 C   0  0  0  0  0  0  0  0  0  0  0  0
   -3.2310   21.5810  -27.4980 N   0  0  0  0  0  0  0  0  0  0  0  0
   -2.0180   21.1690  -27.9310 C   0  0  0  0  0  0  0  0  0  0  0  0
   -1.4690   19.8820  -27.6190 N   0  0  0  0  0  0  0  0  0  0  0  0
   -0.3270   19.3480  -28.0840 C   0  0  0  0  0  0  0  0  0  0  0  0
   -0.1860   18.0990  -27.5230 C   0  0  0  0  0  0  0  0  0  0  0  0
   -1.2330   17.8470  -26.7100 N   0  0  0  0  0  0  0  0  0  0  0  0
   -1.9960   18.9570  -26.7930 C   0  0  0  0  0  0  0  0  0  0  0  0
   -1.2590   22.3370  -28.8760 S   0  0  0  0  0  0  0  0  0  0  0  0
   -4.7020   23.1970  -31.4360 C   0  0  0  0  0  0  0  0  0  0  0  0
   -5.8890   22.5170  -31.7350 C   0  0  0  0  0  0  0  0  0  0  0  0
   -5.7950   21.0260  -32.6650 Cl  0  0  0  0  0  0  0  0  0  0  0  0
   -8.9136   22.0425  -30.6662 H   0  0  0  0  0  0  0  0  0  0  0  0
   -9.0668   22.9842  -32.1882 H   0  0  0  0  0  0  0  0  0  0  0  0
   -8.1973   21.4124  -32.1882 H   0  0  0  0  0  0  0  0  0  0  0  0
   -8.1084   24.6483  -30.2255 H   0  0  0  0  0  0  0  0  0  0  0  0
   -5.9890   25.8520  -29.7115 H   0  0  0  0  0  0  0  0  0  0  0  0
   -4.4663   23.3432  -27.6896 H   0  0  0  0  0  0  0  0  0  0  0  0
    0.3712   19.8244  -28.7880 H   0  0  0  0  0  0  0  0  0  0  0  0
    0.6522   17.4113  -27.7090 H   0  0  0  0  0  0  0  0  0  0  0  0
   -2.9418   19.0915  -26.2477 H   0  0  0  0  0  0  0  0  0  0  0  0
   -3.7412   22.7972  -31.7925 H   0  0  0  0  0  0  0  0  0  0  0  0
  1  2  1  0
  2  3  2  0
  3  4  1  0
  4  5  2  0
  5  6  1  0
  6  7  1  0
  7  8  2  0
  7  9  1  0
  9 10  2  0
 10 11  1  0
 11 12  2  0
 12 13  1  0
 13 14  1  0
 14 15  2  0
 15 16  1  0
 16 17  2  0
 12 18  1  0
  5 19  1  0
 19 20  2  0
 20 21  1  0
 20  2  1  0
 18  9  1  0
 17 13  1  0
  1 22  1  0
  1 23  1  0
  1 24  1  0
  3 25  1  0
  4 26  1  0
 10 27  1  0
 14 28  1  0
 15 29  1  0
 17 30  1  0
 19 31  1  0
M  CHG  1   6  -1
M  END
>  <UniqueID>  (10) 
10

>  <SMILES>  (10) 
Cc1ccc([N-]C(=O)c2cnc(-n3ccnc3)s2)cc1Cl

>  <Energy>  (10) 
98.56130828804699

>  <Genealogy>  (10) 
Cc1ccc([N-]C(=O)c2cnc(-n3ccnc3)s2)cc1Cl (protonated)
Cc1ccc([N-]C(=O)c2cnc(-n3ccnc3)s2)cc1Cl (3D coordinates assigned)
Cc1ccc([N-]C(=O)c2cnc(-n3ccnc3)s2)cc1Cl (optimized conformer: 98.56130828804699 kcal/mol)

>  <smiles>  (10) 
Cc1ccc(NC(=O)c2cnc(-n3ccnc3)s2)cc1Cl

>  <score_type>  (10) 
oracle

>  <origin>  (10) 
adgpu

>  <m_score__min__energy>  (10) 
-9.1699999999999999

>  <m_primary>  (10) 
energy

$$$$
10:0
     RDKit          3D

 38 39  0  0  0  0  0  0  0  0999 V2000
   -5.4822   22.7494  -28.6462 H   0  0  0  0  0  0  0  0  0  0  0  0
   -4.5860   23.3870  -28.6660 C   0  0  0  0  0  0  0  0  0  0  0  0
   -4.2910   24.1580  -29.8010 C   0  0  0  0  0  0  0  0  0  0  0  0
   -5.1170   24.1230  -30.9770 N   0  0  0  0  0  0  0  0  0  0  0  0
   -5.0530   24.9290  -31.6380 H   0  0  0  0  0  0  0  0  0  0  0  0
   -6.0530   23.0770  -31.2860 C   0  0  0  0  0  0  0  0  0  0  0  0
   -7.2830   23.0090  -30.6090 C   0  0  0  0  0  0  0  0  0  0  0  0
   -7.4921   23.7100  -29.7875 H   0  0  0  0  0  0  0  0  0  0  0  0
   -8.2410   22.0610  -30.9690 C   0  0  0  0  0  0  0  0  0  0  0  0
   -9.1956   22.0134  -30.4245 H   0  0  0  0  0  0  0  0  0  0  0  0
   -7.9930   21.1690  -32.0210 C   0  0  0  0  0  0  0  0  0  0  0  0
   -9.0420   20.1840  -32.4410 C   0  0  0  0  0  0  0  0  0  0  0  0
   -9.5104   19.7442  -31.5482 H   0  0  0  0  0  0  0  0  0  0  0  0
   -9.8075   20.6973  -33.0415 H   0  0  0  0  0  0  0  0  0  0  0  0
   -8.5779   19.3878  -33.0415 H   0  0  0  0  0  0  0  0  0  0  0  0
   -6.7830   21.2550  -32.7240 C   0  0  0  0  0  0  0  0  0  0  0  0
   -6.5994   20.5827  -33.5750 H   0  0  0  0  0  0  0  0  0  0  0  0
   -5.8040   22.1890  -32.3540 C   0  0  0  0  0  0  0  0  0  0  0  0
   -4.5660   22.2200  -33.0770 N   0  0  0  0  0  0  0  0  0  0  0  0
   -4.5830   22.5480  -34.0680 H   0  0  0  0  0  0  0  0  0  0  0  0
   -3.2180   21.2330  -32.6080 S   0  0  0  0  0  0  0  0  0  0  0  0
   -2.0630   21.5190  -33.5260 O   0  0  0  0  0  0  0  0  0  0  0  0
   -2.8130   21.5490  -31.1960 O   0  0  0  0  0  0  0  0  0  0  0  0
   -3.6310   19.5070  -32.7490 C   0  0  0  0  0  0  0  0  0  0  0  0
   -3.7352   19.0716  -31.7442 H   0  0  0  0  0  0  0  0  0  0  0  0
   -4.5800   19.4005  -33.2950 H   0  0  0  0  0  0  0  0  0  0  0  0
   -2.8330   18.9824  -33.2950 H   0  0  0  0  0  0  0  0  0  0  0  0
   -3.1600   24.9160  -29.8140 N   0  0  0  0  0  0  0  0  0  0  0  0
   -2.3070   24.9850  -28.7560 C   0  0  0  0  0  0  0  0  0  0  0  0
   -1.2520   25.7430  -28.8560 N   0  0  0  0  0  0  0  0  0  0  0  0
   -0.2320   25.9370  -27.8290 C   0  0  0  0  0  0  0  0  0  0  0  0
   -0.6924   25.8494  -26.8338 H   0  0  0  0  0  0  0  0  0  0  0  0
    0.5501   25.1715  -27.9398 H   0  0  0  0  0  0  0  0  0  0  0  0
    0.2145   26.9362  -27.9398 H   0  0  0  0  0  0  0  0  0  0  0  0
   -2.5910   24.2350  -27.5970 C   0  0  0  0  0  0  0  0  0  0  0  0
   -1.9183   24.2796  -26.7278 H   0  0  0  0  0  0  0  0  0  0  0  0
   -3.7330   23.4360  -27.5630 C   0  0  0  0  0  0  0  0  0  0  0  0
   -3.9619   22.8433  -26.6651 H   0  0  0  0  0  0  0  0  0  0  0  0
  1  2  1  0
  2  3  2  0
  3  4  1  0
  4  5  1  0
  4  6  1  0
  6  7  2  0
  7  8  1  0
  7  9  1  0
  9 10  1  0
  9 11  2  0
 11 12  1  0
 12 13  1  0
 12 14  1  0
 12 15  1  0
 11 16  1  0
 16 17  1  0
 16 18  2  0
 18 19  1  0
 19 20  1  0
 19 21  1  0
 21 22  2  0
 21 23  2  0
 21 24  1  0
 24 25  1  0
 24 26  1  0
 24 27  1  0
  3 28  1  0
 28 29  1  0
 29 30  2  0
 30 31  1  0
 31 32  1  0
 31 33  1  0
 31 34  1  0
 29 35  1  0
 35 36  1  0
 35 37  2  0
 37 38  1  0
 37  2  1  0
 18  6  1  0
M  CHG  1  28  -1
M  END
>  <UniqueID>  (11) 
11

>  <SMILES>  (11) 
C/N=c1\cccc(Nc2ccc(C)cc2NS(C)(=O)=O)[n-]1

>  <Energy>  (11) 
45.29054798309164

>  <Genealogy>  (11) 
CN=c1cccc(Nc2ccc(C)cc2NS(C)(=O)=O)[n-]1 (protonated)
C/N=c1\cccc(Nc2ccc(C)cc2NS(C)(=O)=O)[n-]1 (cis-trans isomerization)
C/N=c1\cccc(Nc2ccc(C)cc2NS(C)(=O)=O)[n-]1 (3D coordinates assigned)
C/N=c1\cccc(Nc2ccc(C)cc2NS(C)(=O)=O)[n-]1 (optimized conformer: 45.29054798309164 kcal/mol)

>  <smiles>  (11) 
CN=c1cccc(Nc2ccc(C)cc2NS(C)(=O)=O)[nH]1

>  <score_type>  (11) 
oracle

>  <origin>  (11) 
adgpu

>  <m_score__min__energy>  (11) 
-9.3900000000000006

>  <m_primary>  (11) 
energy

$$$$
11:0
     RDKit          3D

 45 47  0  0  0  0  0  0  0  0999 V2000
   -8.5290   20.8300  -32.2110 C   0  0  0  0  0  0  0  0  0  0  0  0
   -7.0480   20.4630  -32.4370 C   0  0  0  0  0  0  0  0  0  0  0  0
   -6.6660   19.3080  -31.4930 C   0  0  0  0  0  0  0  0  0  0  0  0
   -6.8620   20.0190  -33.9010 C   0  0  0  0  0  0  0  0  0  0  0  0
   -6.1520   21.6570  -32.1530 C   0  0  0  0  0  0  0  0  0  0  0  0
   -6.4520   22.7160  -31.3160 C   0  0  0  0  0  0  0  0  0  0  0  0
   -5.3540   23.5450  -31.4320 C   0  0  0  0  0  0  0  0  0  0  0  0
   -5.1340   24.8320  -30.7490 C   0  0  0  0  0  0  0  0  0  0  0  0
   -6.1210   25.5810  -30.5280 O   0  0  0  0  0  0  0  0  0  0  0  0
   -3.8250   25.2850  -30.3770 N   0  0  0  0  0  0  0  0  0  0  0  0
   -2.8560   24.5420  -29.6220 C   0  0  0  0  0  0  0  0  0  0  0  0
   -2.3390   25.0260  -28.4080 C   0  0  0  0  0  0  0  0  0  0  0  0
   -1.4000   24.2780  -27.6980 C   0  0  0  0  0  0  0  0  0  0  0  0
   -0.9480   23.0560  -28.2030 C   0  0  0  0  0  0  0  0  0  0  0  0
   -1.4200   22.5860  -29.4410 C   0  0  0  0  0  0  0  0  0  0  0  0
   -0.9960   21.3620  -29.9820 O   0  0  0  0  0  0  0  0  0  0  0  0
   -0.7190   20.2000  -29.2470 C   0  0  0  0  0  0  0  0  0  0  0  0
   -1.4460   19.8580  -28.0910 C   0  0  0  0  0  0  0  0  0  0  0  0
   -1.1270   18.7000  -27.3760 C   0  0  0  0  0  0  0  0  0  0  0  0
   -0.0720   17.8790  -27.8000 C   0  0  0  0  0  0  0  0  0  0  0  0
    0.2540   16.7220  -27.0970 O   0  0  0  0  0  0  0  0  0  0  0  0
    0.6640   18.2280  -28.9360 C   0  0  0  0  0  0  0  0  0  0  0  0
    0.3460   19.3870  -29.6520 C   0  0  0  0  0  0  0  0  0  0  0  0
   -2.3790   23.3310  -30.1380 C   0  0  0  0  0  0  0  0  0  0  0  0
   -4.4950   22.9930  -32.2550 O   0  0  0  0  0  0  0  0  0  0  0  0
   -4.9420   21.8620  -32.7130 N   0  0  0  0  0  0  0  0  0  0  0  0
   -8.7336   20.8807  -31.1314 H   0  0  0  0  0  0  0  0  0  0  0  0
   -8.7388   21.8073  -32.6702 H   0  0  0  0  0  0  0  0  0  0  0  0
   -9.1708   20.0637  -32.6702 H   0  0  0  0  0  0  0  0  0  0  0  0
   -6.7747   19.6366  -30.4489 H   0  0  0  0  0  0  0  0  0  0  0  0
   -7.3279   18.4491  -31.6779 H   0  0  0  0  0  0  0  0  0  0  0  0
   -5.6225   19.0132  -31.6779 H   0  0  0  0  0  0  0  0  0  0  0  0
   -6.4371   19.0047  -33.9254 H   0  0  0  0  0  0  0  0  0  0  0  0
   -7.8365   20.0207  -34.4113 H   0  0  0  0  0  0  0  0  0  0  0  0
   -6.1797   20.7147  -34.4113 H   0  0  0  0  0  0  0  0  0  0  0  0
   -7.3530   22.8633  -30.7024 H   0  0  0  0  0  0  0  0  0  0  0  0
   -2.6758   25.9973  -28.0168 H   0  0  0  0  0  0  0  0  0  0  0  0
   -1.0142   24.6511  -26.7378 H   0  0  0  0  0  0  0  0  0  0  0  0
   -0.2214   22.4606  -27.6307 H   0  0  0  0  0  0  0  0  0  0  0  0
   -2.2679   20.5043  -27.7492 H   0  0  0  0  0  0  0  0  0  0  0  0
   -1.7046   18.4322  -26.4790 H   0  0  0  0  0  0  0  0  0  0  0  0
   -0.4000   16.2920  -26.4530 H   0  0  0  0  0  0  0  0  0  0  0  0
    1.4958   17.5893  -29.2680 H   0  0  0  0  0  0  0  0  0  0  0  0
    0.9365   19.6611  -30.5387 H   0  0  0  0  0  0  0  0  0  0  0  0
   -2.7615   22.9611  -31.1007 H   0  0  0  0  0  0  0  0  0  0  0  0
  1  2  1  0
  2  3  1  0
  2  4  1  0
  2  5  1  0
  5  6  1  0
  6  7  2  0
  7  8  1  0
  8  9  2  0
  8 10  1  0
 10 11  1  0
 11 12  2  0
 12 13  1  0
 13 14  2  0
 14 15  1  0
 15 16  1  0
 16 17  1  0
 17 18  2  0
 18 19  1  0
 19 20  2  0
 20 21  1  0
 20 22  1  0
 22 23  2  0
 15 24  2  0
  7 25  1  0
 25 26  1  0
 26  5  2  0
 24 11  1  0
 23 17  1  0
  1 27  1  0
  1 28  1  0
  1 29  1  0
  3 30  1  0
  3 31  1  0
  3 32  1  0
  4 33  1  0
  4 34  1  0
  4 35  1  0
  6 36  1  0
 12 37  1  0
 13 38  1  0
 14 39  1  0
 18 40  1  0
 19 41  1  0
 21 42  1  0
 22 43  1  0
 23 44  1  0
 24 45  1  0
M  CHG  1  10  -1
M  END
>  <UniqueID>  (12) 
12

>  <SMILES>  (12) 
CC(C)(C)c1cc(C(=O)[N-]c2cccc(Oc3ccc(O)cc3)c2)on1

>  <Energy>  (12) 
83.76744469198272

>  <Genealogy>  (12) 
CC(C)(C)c1cc(C(=O)[N-]c2cccc(Oc3ccc(O)cc3)c2)on1 (protonated)
CC(C)(C)c1cc(C(=O)[N-]c2cccc(Oc3ccc(O)cc3)c2)on1 (3D coordinates assigned)
CC(C)(C)c1cc(C(=O)[N-]c2cccc(Oc3ccc(O)cc3)c2)on1 (optimized conformer: 83.76744469198272 kcal/mol)

>  <smiles>  (12) 
CC(C)(C)c1cc(C(=O)Nc2cccc(Oc3ccc(O)cc3)c2)on1

>  <score_type>  (12) 
oracle

>  <origin>  (12) 
adgpu

>  <m_score__min__energy>  (12) 
-10.42

>  <m_primary>  (12) 
energy

$$$$
12:0
     RDKit          3D

 45 48  0  0  0  0  0  0  0  0999 V2000
   -7.6100   22.7090  -29.7350 C   0  0  0  0  0  0  0  0  0  0  0  0
   -6.8770   22.1070  -30.8910 C   0  0  0  0  0  0  0  0  0  0  0  0
   -7.4490   21.2380  -31.7490 N   0  0  0  0  0  0  0  0  0  0  0  0
   -6.5450   20.9190  -32.6620 N   0  0  0  0  0  0  0  0  0  0  0  0
   -6.8270   20.0420  -33.7950 C   0  0  0  0  0  0  0  0  0  0  0  0
   -6.3430   18.6480  -33.4990 C   0  0  0  0  0  0  0  0  0  0  0  0
   -5.7520   17.8800  -34.5160 C   0  0  0  0  0  0  0  0  0  0  0  0
   -5.2720   16.5950  -34.2380 C   0  0  0  0  0  0  0  0  0  0  0  0
   -5.3730   16.0740  -32.9450 C   0  0  0  0  0  0  0  0  0  0  0  0
   -5.9520   16.8370  -31.9270 C   0  0  0  0  0  0  0  0  0  0  0  0
   -6.4340   18.1210  -32.2000 C   0  0  0  0  0  0  0  0  0  0  0  0
   -5.3960   21.5820  -32.4170 C   0  0  0  0  0  0  0  0  0  0  0  0
   -3.9360   21.4550  -33.3920 Cl  0  0  0  0  0  0  0  0  0  0  0  0
   -5.5610   22.3440  -31.2730 C   0  0  0  0  0  0  0  0  0  0  0  0
   -4.5670   23.2400  -30.6450 C   0  0  0  0  0  0  0  0  0  0  0  0
   -4.3400   24.3690  -31.1570 O   0  0  0  0  0  0  0  0  0  0  0  0
   -3.8200   22.8130  -29.4960 N   0  0  0  0  0  0  0  0  0  0  0  0
   -3.1920   23.7160  -28.5700 C   0  0  0  0  0  0  0  0  0  0  0  0
   -3.8130   24.0580  -27.3380 C   0  0  0  0  0  0  0  0  0  0  0  0
   -3.1780   24.9250  -26.4280 C   0  0  0  0  0  0  0  0  0  0  0  0
   -1.9230   25.4210  -26.7770 C   0  0  0  0  0  0  0  0  0  0  0  0
   -1.3100   25.0800  -27.9480 C   0  0  0  0  0  0  0  0  0  0  0  0
   -1.9080   24.2250  -28.8690 C   0  0  0  0  0  0  0  0  0  0  0  0
   -0.0950   25.6570  -28.0370 N   0  0  0  0  0  0  0  0  0  0  0  0
   -0.0170   26.3540  -26.8740 C   0  0  0  0  0  0  0  0  0  0  0  0
    0.9950   27.0340  -26.5570 O   0  0  0  0  0  0  0  0  0  0  0  0
   -1.1170   26.2440  -26.0870 N   0  0  0  0  0  0  0  0  0  0  0  0
   -1.3280   26.7950  -24.7510 C   0  0  0  0  0  0  0  0  0  0  0  0
   -7.1702   22.3478  -28.7937 H   0  0  0  0  0  0  0  0  0  0  0  0
   -7.5295   23.8051  -29.7805 H   0  0  0  0  0  0  0  0  0  0  0  0
   -8.6696   22.4170  -29.7805 H   0  0  0  0  0  0  0  0  0  0  0  0
   -7.9115   20.0201  -33.9777 H   0  0  0  0  0  0  0  0  0  0  0  0
   -6.3065   20.4237  -34.6857 H   0  0  0  0  0  0  0  0  0  0  0  0
   -5.6663   18.2895  -35.5333 H   0  0  0  0  0  0  0  0  0  0  0  0
   -4.8147   15.9944  -35.0381 H   0  0  0  0  0  0  0  0  0  0  0  0
   -4.9968   15.0633  -32.7285 H   0  0  0  0  0  0  0  0  0  0  0  0
   -6.0286   16.4267  -30.9093 H   0  0  0  0  0  0  0  0  0  0  0  0
   -6.8856   18.7199  -31.3954 H   0  0  0  0  0  0  0  0  0  0  0  0
   -3.6330   21.7900  -29.3890 H   0  0  0  0  0  0  0  0  0  0  0  0
   -4.8008   23.6407  -27.0927 H   0  0  0  0  0  0  0  0  0  0  0  0
   -3.6552   25.2009  -25.4761 H   0  0  0  0  0  0  0  0  0  0  0  0
   -1.3955   23.9530  -29.8036 H   0  0  0  0  0  0  0  0  0  0  0  0
   -1.0417   26.0474  -23.9966 H   0  0  0  0  0  0  0  0  0  0  0  0
   -0.7119   27.6975  -24.6251 H   0  0  0  0  0  0  0  0  0  0  0  0
   -2.3894   27.0551  -24.6251 H   0  0  0  0  0  0  0  0  0  0  0  0
  1  2  1  0
  2  3  2  0
  3  4  1  0
  4  5  1  0
  5  6  1  0
  6  7  2  0
  7  8  1  0
  8  9  2  0
  9 10  1  0
 10 11  2  0
  4 12  1  0
 12 13  1  0
 12 14  2  0
 14 15  1  0
 15 16  2  0
 15 17  1  0
 17 18  1  0
 18 19  2  0
 19 20  1  0
 20 21  2  0
 21 22  1  0
 22 23  2  0
 22 24  1  0
 24 25  1  0
 25 26  2  0
 25 27  1  0
 27 28  1  0
 14  2  1  0
 23 18  1  0
 11  6  1  0
 27 21  1  0
  1 29  1  0
  1 30  1  0
  1 31  1  0
  5 32  1  0
  5 33  1  0
  7 34  1  0
  8 35  1  0
  9 36  1  0
 10 37  1  0
 11 38  1  0
 17 39  1  0
 19 40  1  0
 20 41  1  0
 23 42  1  0
 28 43  1  0
 28 44  1  0
 28 45  1  0
M  CHG  1  24  -1
M  END
>  <UniqueID>  (13) 
13

>  <SMILES>  (13) 
Cc1nn(Cc2ccccc2)c(Cl)c1C(=O)Nc1ccc2c(c1)[n-]c(=O)n2C

>  <Energy>  (13) 
121.15293553636423

>  <Genealogy>  (13) 
Cc1nn(Cc2ccccc2)c(Cl)c1C(=O)Nc1ccc2c(c1)[n-]c(=O)n2C (protonated)
Cc1nn(Cc2ccccc2)c(Cl)c1C(=O)Nc1ccc2c(c1)[n-]c(=O)n2C (3D coordinates assigned)
Cc1nn(Cc2ccccc2)c(Cl)c1C(=O)Nc1ccc2c(c1)[n-]c(=O)n2C (optimized conformer: 121.15293553636423 kcal/mol)

>  <smiles>  (13) 
Cc1nn(Cc2ccccc2)c(Cl)c1C(=O)Nc1ccc2c(c1)[nH]c(=O)n2C

>  <score_type>  (13) 
oracle

>  <origin>  (13) 
adgpu

>  <m_score__min__energy>  (13) 
-9.7699999999999996

>  <m_primary>  (13) 
energy

$$$$
13:0
     RDKit          3D

 34 35  0  0  0  0  0  0  0  0999 V2000
   -6.6930   15.2960  -34.2180 C   0  0  0  0  0  0  0  0  0  0  0  0
   -6.3580   16.6530  -33.6540 C   0  0  0  0  0  0  0  0  0  0  0  0
   -7.2210   17.2240  -32.7110 C   0  0  0  0  0  0  0  0  0  0  0  0
   -6.9700   18.4900  -32.1940 C   0  0  0  0  0  0  0  0  0  0  0  0
   -5.8380   19.2120  -32.5880 C   0  0  0  0  0  0  0  0  0  0  0  0
   -5.6650   20.5810  -32.0470 C   0  0  0  0  0  0  0  0  0  0  0  0
   -6.6250   21.5730  -32.3040 C   0  0  0  0  0  0  0  0  0  0  0  0
   -6.4670   22.8600  -31.7810 C   0  0  0  0  0  0  0  0  0  0  0  0
   -5.3560   23.1660  -30.9840 C   0  0  0  0  0  0  0  0  0  0  0  0
   -5.1520   24.7910  -30.3400 S   0  0  0  0  0  0  0  0  0  0  0  0
   -3.5020   25.2770  -30.5100 N   0  0  0  0  0  0  0  0  0  0  0  0
   -6.0380   25.7500  -31.0850 O   0  0  0  0  0  0  0  0  0  0  0  0
   -5.5310   24.8150  -28.8860 O   0  0  0  0  0  0  0  0  0  0  0  0
   -4.3980   22.1770  -30.7230 C   0  0  0  0  0  0  0  0  0  0  0  0
   -4.5550   20.8890  -31.2450 C   0  0  0  0  0  0  0  0  0  0  0  0
   -4.9140   18.6300  -33.4960 C   0  0  0  0  0  0  0  0  0  0  0  0
   -3.6250   19.3410  -33.8450 C   0  0  0  0  0  0  0  0  0  0  0  0
   -5.2010   17.3600  -34.0660 C   0  0  0  0  0  0  0  0  0  0  0  0
   -4.3310   16.7970  -35.0670 N   0  0  0  0  0  0  0  0  0  0  0  0
   -6.8675   14.5891  -33.3935 H   0  0  0  0  0  0  0  0  0  0  0  0
   -7.6000   15.3695  -34.8361 H   0  0  0  0  0  0  0  0  0  0  0  0
   -5.8560   14.9390  -34.8361 H   0  0  0  0  0  0  0  0  0  0  0  0
   -8.1071   16.6651  -32.3756 H   0  0  0  0  0  0  0  0  0  0  0  0
   -7.6692   18.9290  -31.4671 H   0  0  0  0  0  0  0  0  0  0  0  0
   -7.5054   21.3365  -32.9196 H   0  0  0  0  0  0  0  0  0  0  0  0
   -7.2175   23.6350  -31.9960 H   0  0  0  0  0  0  0  0  0  0  0  0
   -3.4820   26.0420  -31.2220 H   0  0  0  0  0  0  0  0  0  0  0  0
   -3.5194   22.4146  -30.1053 H   0  0  0  0  0  0  0  0  0  0  0  0
   -3.8055   20.1142  -31.0261 H   0  0  0  0  0  0  0  0  0  0  0  0
   -3.1031   19.6289  -32.9205 H   0  0  0  0  0  0  0  0  0  0  0  0
   -2.9835   18.6691  -34.4341 H   0  0  0  0  0  0  0  0  0  0  0  0
   -3.8511   20.2420  -34.4341 H   0  0  0  0  0  0  0  0  0  0  0  0
   -4.4310   17.0280  -36.0790 H   0  0  0  0  0  0  0  0  0  0  0  0
   -3.5280   16.1810  -34.8170 H   0  0  0  0  0  0  0  0  0  0  0  0
  1  2  1  0
  2  3  2  0
  3  4  1  0
  4  5  2  0
  5  6  1  0
  6  7  2  0
  7  8  1  0
  8  9  2  0
  9 10  1  0
 10 11  1  0
 10 12  2  0
 10 13  2  0
  9 14  1  0
 14 15  2  0
  5 16  1  0
 16 17  1  0
 16 18  2  0
 18 19  1  0
 18  2  1  0
 15  6  1  0
  1 20  1  0
  1 21  1  0
  1 22  1  0
  3 23  1  0
  4 24  1  0
  7 25  1  0
  8 26  1  0
 11 27  1  0
 14 28  1  0
 15 29  1  0
 17 30  1  0
 17 31  1  0
 17 32  1  0
 19 33  1  0
 19 34  1  0
M  CHG  1  11  -1
M  END
>  <UniqueID>  (14) 
14

>  <SMILES>  (14) 
Cc1ccc(-c2ccc(S([NH-])(=O)=O)cc2)c(C)c1N

>  <Energy>  (14) 
45.16888830694939

>  <Genealogy>  (14) 
Cc1ccc(-c2ccc(S([NH-])(=O)=O)cc2)c(C)c1N (protonated)
Cc1ccc(-c2ccc(S([NH-])(=O)=O)cc2)c(C)c1N (3D coordinates assigned)
Cc1ccc(-c2ccc(S([NH-])(=O)=O)cc2)c(C)c1N (optimized conformer: 45.16888830694939 kcal/mol)

>  <smiles>  (14) 
Cc1ccc(-c2ccc(S(N)(=O)=O)cc2)c(C)c1N

>  <score_type>  (14) 
oracle

>  <origin>  (14) 
adgpu

>  <m_score__min__energy>  (14) 
-9.7699999999999996

>  <m_primary>  (14) 
energy

$$$$
14:0
     RDKit          3D

 40 43  0  0  0  0  0  0  0  0999 V2000
   -2.9400   13.1910  -37.0780 C   0  0  0  0  0  0  0  0  0  0  0  0
   -1.9670   14.6750  -36.6760 S   0  0  0  0  0  0  0  0  0  0  0  0
   -3.0890   15.2000  -35.3870 C   0  0  0  0  0  0  0  0  0  0  0  0
   -3.2500   14.4290  -34.2700 N   0  0  0  0  0  0  0  0  0  0  0  0
   -4.0990   14.8040  -33.2700 C   0  0  0  0  0  0  0  0  0  0  0  0
   -4.8020   15.9950  -33.4120 C   0  0  0  0  0  0  0  0  0  0  0  0
   -4.6300   16.7490  -34.5360 C   0  0  0  0  0  0  0  0  0  0  0  0
   -3.7840   16.3670  -35.5240 N   0  0  0  0  0  0  0  0  0  0  0  0
   -5.4610   17.9700  -34.4990 C   0  0  0  0  0  0  0  0  0  0  0  0
   -6.1580   17.8560  -33.2100 N   0  0  0  0  0  0  0  0  0  0  0  0
   -7.1040   18.8280  -32.7070 C   0  0  0  0  0  0  0  0  0  0  0  0
   -8.4840   18.5560  -32.7150 C   0  0  0  0  0  0  0  0  0  0  0  0
   -9.3960   19.4960  -32.2340 C   0  0  0  0  0  0  0  0  0  0  0  0
   -8.9490   20.7180  -31.7320 C   0  0  0  0  0  0  0  0  0  0  0  0
   -7.5760   21.0150  -31.7000 C   0  0  0  0  0  0  0  0  0  0  0  0
   -7.0900   22.3150  -31.1750 C   0  0  0  0  0  0  0  0  0  0  0  0
   -7.6390   22.8140  -30.1560 O   0  0  0  0  0  0  0  0  0  0  0  0
   -6.0350   23.0290  -31.8410 N   0  0  0  0  0  0  0  0  0  0  0  0
   -5.2540   24.0600  -31.2190 C   0  0  0  0  0  0  0  0  0  0  0  0
   -5.6450   25.3630  -31.0260 C   0  0  0  0  0  0  0  0  0  0  0  0
   -4.6220   26.0390  -30.4690 N   0  0  0  0  0  0  0  0  0  0  0  0
   -3.5980   25.2110  -30.3160 N   0  0  0  0  0  0  0  0  0  0  0  0
   -3.9530   23.9930  -30.7700 C   0  0  0  0  0  0  0  0  0  0  0  0
   -6.6630   20.0670  -32.1980 C   0  0  0  0  0  0  0  0  0  0  0  0
   -5.7740   16.6300  -32.4940 C   0  0  0  0  0  0  0  0  0  0  0  0
   -3.2617   12.7003  -36.1475 H   0  0  0  0  0  0  0  0  0  0  0  0
   -3.8244   13.4802  -37.6647 H   0  0  0  0  0  0  0  0  0  0  0  0
   -2.3222   12.4953  -37.6647 H   0  0  0  0  0  0  0  0  0  0  0  0
   -4.2242   14.1793  -32.3733 H   0  0  0  0  0  0  0  0  0  0  0  0
   -4.8362   18.8747  -34.5320 H   0  0  0  0  0  0  0  0  0  0  0  0
   -6.1453   18.0550  -35.3560 H   0  0  0  0  0  0  0  0  0  0  0  0
   -8.8475   17.5934  -33.1040 H   0  0  0  0  0  0  0  0  0  0  0  0
  -10.4729   19.2722  -32.2508 H   0  0  0  0  0  0  0  0  0  0  0  0
   -9.6761   21.4542  -31.3587 H   0  0  0  0  0  0  0  0  0  0  0  0
   -5.8600   22.8370  -32.8520 H   0  0  0  0  0  0  0  0  0  0  0  0
   -6.6284   25.7834  -31.2832 H   0  0  0  0  0  0  0  0  0  0  0  0
   -3.3135   23.0981  -30.7804 H   0  0  0  0  0  0  0  0  0  0  0  0
   -5.5872   20.2963  -32.1901 H   0  0  0  0  0  0  0  0  0  0  0  0
   -5.3067   16.8675  -31.5270 H   0  0  0  0  0  0  0  0  0  0  0  0
   -6.6306   15.9822  -32.2561 H   0  0  0  0  0  0  0  0  0  0  0  0
  1  2  1  0
  2  3  1  0
  3  4  2  0
  4  5  1  0
  5  6  2  0
  6  7  1  0
  7  8  2  0
  7  9  1  0
  9 10  1  0
 10 11  1  0
 11 12  2  0
 12 13  1  0
 13 14  2  0
 14 15  1  0
 15 16  1  0
 16 17  2  0
 16 18  1  0
 18 19  1  0
 19 20  1  0
 20 21  2  0
 21 22  1  0
 22 23  1  0
 15 24  2  0
 10 25  1  0
  8  3  1  0
 24 11  1  0
 25  6  1  0
 23 19  2  0
  1 26  1  0
  1 27  1  0
  1 28  1  0
  5 29  1  0
  9 30  1  0
  9 31  1  0
 12 32  1  0
 13 33  1  0
 14 34  1  0
 18 35  1  0
 20 36  1  0
 23 37  1  0
 24 38  1  0
 25 39  1  0
 25 40  1  0
M  CHG  1  22  -1
M  END
>  <UniqueID>  (15) 
15

>  <SMILES>  (15) 
CSc1ncc2c(n1)CN(c1cccc(C(=O)Nc3cn[n-]c3)c1)C2

>  <Energy>  (15) 
88.69506050288331

>  <Genealogy>  (15) 
CSc1ncc2c(n1)CN(c1cccc(C(=O)Nc3cn[n-]c3)c1)C2 (protonated)
CSc1ncc2c(n1)CN(c1cccc(C(=O)Nc3cn[n-]c3)c1)C2 (3D coordinates assigned)
CSc1ncc2c(n1)CN(c1cccc(C(=O)Nc3cn[n-]c3)c1)C2 (nonaromatic ring conformer: 88.69506050288331 kcal/mol)

>  <smiles>  (15) 
CSc1ncc2c(n1)CN(c1cccc(C(=O)Nc3cn[nH]c3)c1)C2

>  <score_type>  (15) 
oracle

>  <origin>  (15) 
adgpu

>  <m_score__min__energy>  (15) 
-9.7799999999999994

>  <m_primary>  (15) 
energy

$$$$
15:0
     RDKit          3D

 53 57  0  0  0  0  0  0  0  0999 V2000
    0.1770   17.5990  -31.2230 C   0  0  0  0  0  0  0  0  0  0  0  0
    0.0820   18.7050  -30.2260 C   0  0  0  0  0  0  0  0  0  0  0  0
   -0.0910   18.5680  -28.8640 C   0  0  0  0  0  0  0  0  0  0  0  0
   -0.1300   19.8740  -28.4320 C   0  0  0  0  0  0  0  0  0  0  0  0
   -0.2910   20.2370  -27.1970 N   0  0  0  0  0  0  0  0  0  0  0  0
   -0.3570   21.8940  -26.6900 S   0  0  0  0  0  0  0  0  0  0  0  0
   -0.9140   21.9560  -25.2950 O   0  0  0  0  0  0  0  0  0  0  0  0
    1.0260   22.4830  -26.6690 O   0  0  0  0  0  0  0  0  0  0  0  0
   -1.3940   22.8070  -27.7800 C   0  0  0  0  0  0  0  0  0  0  0  0
   -2.7400   22.4490  -27.9400 C   0  0  0  0  0  0  0  0  0  0  0  0
   -3.5680   23.1850  -28.7950 C   0  0  0  0  0  0  0  0  0  0  0  0
   -3.0590   24.2970  -29.4900 C   0  0  0  0  0  0  0  0  0  0  0  0
   -3.8670   25.0600  -30.3960 N   0  0  0  0  0  0  0  0  0  0  0  0
   -5.0820   24.6280  -31.0230 C   0  0  0  0  0  0  0  0  0  0  0  0
   -6.0350   25.4370  -31.1840 O   0  0  0  0  0  0  0  0  0  0  0  0
   -5.1660   23.2610  -31.5850 C   0  0  0  0  0  0  0  0  0  0  0  0
   -3.9800   22.6610  -32.0410 C   0  0  0  0  0  0  0  0  0  0  0  0
   -4.0080   21.3930  -32.6400 C   0  0  0  0  0  0  0  0  0  0  0  0
   -2.7720   20.7410  -33.1460 C   0  0  0  0  0  0  0  0  0  0  0  0
   -1.5390   21.4120  -33.0480 C   0  0  0  0  0  0  0  0  0  0  0  0
   -0.3640   20.8110  -33.5130 C   0  0  0  0  0  0  0  0  0  0  0  0
   -0.4060   19.5330  -34.0720 C   0  0  0  0  0  0  0  0  0  0  0  0
   -1.6200   18.8500  -34.1650 C   0  0  0  0  0  0  0  0  0  0  0  0
   -2.7980   19.4460  -33.7020 C   0  0  0  0  0  0  0  0  0  0  0  0
   -5.1940   20.7380  -32.7500 N   0  0  0  0  0  0  0  0  0  0  0  0
   -6.3640   21.2640  -32.3050 C   0  0  0  0  0  0  0  0  0  0  0  0
   -7.5440   20.5240  -32.4400 C   0  0  0  0  0  0  0  0  0  0  0  0
   -8.7510   21.0330  -31.9590 C   0  0  0  0  0  0  0  0  0  0  0  0
   -8.7830   22.2800  -31.3330 C   0  0  0  0  0  0  0  0  0  0  0  0
   -7.6120   23.0310  -31.1940 C   0  0  0  0  0  0  0  0  0  0  0  0
   -6.3860   22.5440  -31.6970 C   0  0  0  0  0  0  0  0  0  0  0  0
   -1.7090   24.6360  -29.3440 C   0  0  0  0  0  0  0  0  0  0  0  0
   -0.8830   23.9040  -28.4850 C   0  0  0  0  0  0  0  0  0  0  0  0
    0.0080   20.7240  -29.4680 N   0  0  0  0  0  0  0  0  0  0  0  0
    0.1330   19.9820  -30.5310 O   0  0  0  0  0  0  0  0  0  0  0  0
    0.2597   16.6368  -30.6964 H   0  0  0  0  0  0  0  0  0  0  0  0
   -0.7242   17.5956  -31.8538 H   0  0  0  0  0  0  0  0  0  0  0  0
    1.0655   17.7493  -31.8538 H   0  0  0  0  0  0  0  0  0  0  0  0
   -0.1764   17.6452  -28.2714 H   0  0  0  0  0  0  0  0  0  0  0  0
   -3.1467   21.5866  -27.3915 H   0  0  0  0  0  0  0  0  0  0  0  0
   -4.6206   22.8929  -28.9240 H   0  0  0  0  0  0  0  0  0  0  0  0
   -3.0222   23.1898  -31.9273 H   0  0  0  0  0  0  0  0  0  0  0  0
   -1.4985   22.4169  -32.6024 H   0  0  0  0  0  0  0  0  0  0  0  0
    0.5939   21.3465  -33.4378 H   0  0  0  0  0  0  0  0  0  0  0  0
    0.5183   19.0634  -34.4397 H   0  0  0  0  0  0  0  0  0  0  0  0
   -1.6504   17.8415  -34.6031 H   0  0  0  0  0  0  0  0  0  0  0  0
   -3.7506   18.9005  -33.7723 H   0  0  0  0  0  0  0  0  0  0  0  0
   -7.5200   19.5379  -32.9268 H   0  0  0  0  0  0  0  0  0  0  0  0
   -9.6775   20.4512  -32.0733 H   0  0  0  0  0  0  0  0  0  0  0  0
   -9.7347   22.6740  -30.9469 H   0  0  0  0  0  0  0  0  0  0  0  0
   -7.6461   24.0078  -30.6894 H   0  0  0  0  0  0  0  0  0  0  0  0
   -1.2947   25.4841  -29.9088 H   0  0  0  0  0  0  0  0  0  0  0  0
    0.1719   24.1909  -28.3626 H   0  0  0  0  0  0  0  0  0  0  0  0
  1  2  1  0
  2  3  2  0
  3  4  1  0
  4  5  2  3
  5  6  1  0
  6  7  2  0
  6  8  2  0
  6  9  1  0
  9 10  2  0
 10 11  1  0
 11 12  2  0
 12 13  1  0
 13 14  1  0
 14 15  2  0
 14 16  1  0
 16 17  2  0
 17 18  1  0
 18 19  1  0
 19 20  2  0
 20 21  1  0
 21 22  2  0
 22 23  1  0
 23 24  2  0
 18 25  2  0
 25 26  1  0
 26 27  2  0
 27 28  1  0
 28 29  2  0
 29 30  1  0
 30 31  2  0
 12 32  1  0
 32 33  2  0
  4 34  1  0
 34 35  1  0
 35  2  1  0
 33  9  1  0
 31 16  1  0
 24 19  1  0
 31 26  1  0
  1 36  1  0
  1 37  1  0
  1 38  1  0
  3 39  1  0
 10 40  1  0
 11 41  1  0
 17 42  1  0
 20 43  1  0
 21 44  1  0
 22 45  1  0
 23 46  1  0
 24 47  1  0
 27 48  1  0
 28 49  1  0
 29 50  1  0
 30 51  1  0
 32 52  1  0
 33 53  1  0
M  CHG  2  13  -1  34  -1
M  END
>  <UniqueID>  (16) 
16

>  <SMILES>  (16) 
Cc1cc(=NS(=O)(=O)c2ccc([N-]C(=O)c3cc(-c4ccccc4)nc4ccccc34)cc2)[n-]o1

>  <Energy>  (16) 
110.1978663691679

>  <Genealogy>  (16) 
Cc1cc(=NS(=O)(=O)c2ccc([N-]C(=O)c3cc(-c4ccccc4)nc4ccccc34)cc2)[n-]o1 (protonated)
Cc1cc(=NS(=O)(=O)c2ccc([N-]C(=O)c3cc(-c4ccccc4)nc4ccccc34)cc2)[n-]o1 (3D coordinates assigned)
Cc1cc(=NS(=O)(=O)c2ccc([N-]C(=O)c3cc(-c4ccccc4)nc4ccccc34)cc2)[n-]o1 (optimized conformer: 110.1978663691679 kcal/mol)

>  <smiles>  (16) 
Cc1cc(=NS(=O)(=O)c2ccc(NC(=O)c3cc(-c4ccccc4)nc4ccccc34)cc2)[nH]o1

>  <score_type>  (16) 
oracle

>  <origin>  (16) 
adgpu

>  <m_score__min__energy>  (16) 
-12.890000000000001

>  <m_primary>  (16) 
energy

$$$$
16:0
     RDKit          3D

 57 60  0  0  0  0  0  0  0  0999 V2000
   -0.4636   16.0805  -36.5371 H   0  0  0  0  0  0  0  0  0  0  0  0
   -0.7020   16.7820  -35.7240 C   0  0  0  0  0  0  0  0  0  0  0  0
   -0.0570   18.0190  -35.6570 C   0  0  0  0  0  0  0  0  0  0  0  0
    0.6935   18.2889  -36.4146 H   0  0  0  0  0  0  0  0  0  0  0  0
   -0.3640   18.9150  -34.6280 C   0  0  0  0  0  0  0  0  0  0  0  0
    0.1565   19.8824  -34.5718 H   0  0  0  0  0  0  0  0  0  0  0  0
   -1.3320   18.5870  -33.6670 C   0  0  0  0  0  0  0  0  0  0  0  0
   -1.6160   19.5160  -32.6070 N   0  0  0  0  0  0  0  0  0  0  0  0
   -0.8060   19.9460  -32.1040 H   0  0  0  0  0  0  0  0  0  0  0  0
   -2.9210   20.0310  -32.3110 C   0  0  0  0  0  0  0  0  0  0  0  0
   -3.9120   19.7200  -33.0280 O   0  0  0  0  0  0  0  0  0  0  0  0
   -3.0990   20.8680  -31.1610 N   0  0  0  0  0  0  0  0  0  0  0  0
   -2.6210   20.5350  -30.2950 H   0  0  0  0  0  0  0  0  0  0  0  0
   -3.7500   22.0070  -31.1260 C   0  0  0  0  0  0  0  0  0  0  0  0
   -3.9020   22.6910  -29.8580 N   0  0  0  0  0  0  0  0  0  0  0  0
   -3.0170   22.3710  -28.7710 C   0  0  0  0  0  0  0  0  0  0  0  0
   -3.1090   21.1110  -28.1620 C   0  0  0  0  0  0  0  0  0  0  0  0
   -3.8464   20.3806  -28.5262 H   0  0  0  0  0  0  0  0  0  0  0  0
   -2.2710   20.7780  -27.0970 C   0  0  0  0  0  0  0  0  0  0  0  0
   -2.3490   19.7874  -26.6252 H   0  0  0  0  0  0  0  0  0  0  0  0
   -1.3340   21.7010  -26.6300 C   0  0  0  0  0  0  0  0  0  0  0  0
   -0.6802   21.4398  -25.7848 H   0  0  0  0  0  0  0  0  0  0  0  0
   -1.2250   22.9560  -27.2340 C   0  0  0  0  0  0  0  0  0  0  0  0
   -0.4882   23.6812  -26.8582 H   0  0  0  0  0  0  0  0  0  0  0  0
   -2.0510   23.2980  -28.3190 C   0  0  0  0  0  0  0  0  0  0  0  0
   -1.9140   24.6530  -28.9530 C   0  0  0  0  0  0  0  0  0  0  0  0
   -1.8365   25.4192  -28.1675 H   0  0  0  0  0  0  0  0  0  0  0  0
   -1.0090   24.6756  -29.5778 H   0  0  0  0  0  0  0  0  0  0  0  0
   -2.7962   24.8563  -29.5778 H   0  0  0  0  0  0  0  0  0  0  0  0
   -5.0920   23.5060  -29.5670 C   0  0  0  0  0  0  0  0  0  0  0  0
   -5.0850   23.7826  -28.5024 H   0  0  0  0  0  0  0  0  0  0  0  0
   -5.0619   24.4030  -30.2030 H   0  0  0  0  0  0  0  0  0  0  0  0
   -6.3840   22.7380  -29.8750 C   0  0  0  0  0  0  0  0  0  0  0  0
   -6.3774   21.7925  -29.3129 H   0  0  0  0  0  0  0  0  0  0  0  0
   -7.2337   23.3711  -29.5797 H   0  0  0  0  0  0  0  0  0  0  0  0
   -6.5190   22.4370  -31.3090 N   0  0  0  0  0  0  0  0  0  0  0  0
   -7.4160   21.3970  -31.7610 C   0  0  0  0  0  0  0  0  0  0  0  0
   -8.7980   21.6390  -31.8720 C   0  0  0  0  0  0  0  0  0  0  0  0
   -9.1989   22.6336  -31.6267 H   0  0  0  0  0  0  0  0  0  0  0  0
   -9.6650   20.6270  -32.2910 C   0  0  0  0  0  0  0  0  0  0  0  0
  -10.7442   20.8256  -32.3672 H   0  0  0  0  0  0  0  0  0  0  0  0
   -9.1650   19.3650  -32.6130 C   0  0  0  0  0  0  0  0  0  0  0  0
   -9.8502   18.5691  -32.9401 H   0  0  0  0  0  0  0  0  0  0  0  0
   -7.7940   19.1120  -32.5200 C   0  0  0  0  0  0  0  0  0  0  0  0
   -7.1650   17.5280  -32.9350 Cl  0  0  0  0  0  0  0  0  0  0  0  0
   -6.9220   20.1220  -32.0980 C   0  0  0  0  0  0  0  0  0  0  0  0
   -5.8432   19.9185  -32.0291 H   0  0  0  0  0  0  0  0  0  0  0  0
   -5.7210   23.2060  -32.2770 C   0  0  0  0  0  0  0  0  0  0  0  0
   -6.1996   23.1342  -33.2648 H   0  0  0  0  0  0  0  0  0  0  0  0
   -5.6781   24.2466  -31.9230 H   0  0  0  0  0  0  0  0  0  0  0  0
   -4.2680   22.6880  -32.3910 C   0  0  0  0  0  0  0  0  0  0  0  0
   -4.2231   21.9631  -33.2172 H   0  0  0  0  0  0  0  0  0  0  0  0
   -3.6295   23.5670  -32.5633 H   0  0  0  0  0  0  0  0  0  0  0  0
   -1.9620   17.3300  -33.7290 C   0  0  0  0  0  0  0  0  0  0  0  0
   -2.7024   17.0498  -32.9653 H   0  0  0  0  0  0  0  0  0  0  0  0
   -1.6500   16.4360  -34.7580 C   0  0  0  0  0  0  0  0  0  0  0  0
   -2.1520   15.4584  -34.8069 H   0  0  0  0  0  0  0  0  0  0  0  0
  1  2  1  0
  2  3  2  0
  3  4  1  0
  3  5  1  0
  5  6  1  0
  5  7  2  0
  7  8  1  0
  8  9  1  0
  8 10  1  0
 10 11  2  0
 10 12  1  0
 12 13  1  0
 12 14  2  0
 14 15  1  0
 15 16  1  0
 16 17  2  0
 17 18  1  0
 17 19  1  0
 19 20  1  0
 19 21  2  0
 21 22  1  0
 21 23  1  0
 23 24  1  0
 23 25  2  0
 25 26  1  0
 26 27  1  0
 26 28  1  0
 26 29  1  0
 15 30  1  0
 30 31  1  0
 30 32  1  0
 30 33  1  0
 33 34  1  0
 33 35  1  0
 33 36  1  0
 36 37  1  0
 37 38  2  0
 38 39  1  0
 38 40  1  0
 40 41  1  0
 40 42  2  0
 42 43  1  0
 42 44  1  0
 44 45  1  0
 44 46  2  0
 46 47  1  0
 36 48  1  0
 48 49  1  0
 48 50  1  0
 48 51  1  0
 51 52  1  0
 51 53  1  0
  7 54  1  0
 54 55  1  0
 54 56  2  0
 56 57  1  0
 56  2  1  0
 51 14  1  0
 25 16  1  0
 46 37  1  0
M  CHG  1  12   1
M  END
>  <UniqueID>  (17) 
17

>  <SMILES>  (17) 
Cc1ccccc1N1CCN(c2cccc(Cl)c2)CC/C1=[NH+]\C(=O)Nc1ccccc1

>  <Energy>  (17) 
86.68947335727994

>  <Genealogy>  (17) 
Cc1ccccc1N1CCN(c2cccc(Cl)c2)CCC1=[NH+]C(=O)Nc1ccccc1 (protonated)
Cc1ccccc1N1CCN(c2cccc(Cl)c2)CC/C1=[NH+]\C(=O)Nc1ccccc1 (cis-trans isomerization)
Cc1ccccc1N1CCN(c2cccc(Cl)c2)CC/C1=[NH+]\C(=O)Nc1ccccc1 (3D coordinates assigned)
Cc1ccccc1N1CCN(c2cccc(Cl)c2)CC/C1=[NH+]\C(=O)Nc1ccccc1 (nonaromatic ring conformer: 86.68947335727994 kcal/mol)

>  <smiles>  (17) 
Cc1ccccc1N1CCN(c2cccc(Cl)c2)CCC1=NC(=O)Nc1ccccc1

>  <score_type>  (17) 
oracle

>  <origin>  (17) 
adgpu

>  <m_score__min__energy>  (17) 
-6.0999999999999996

>  <m_primary>  (17) 
energy

$$$$
17:0
     RDKit          3D

 63 67  0  0  0  0  0  0  0  0999 V2000
   -4.6510   25.9680  -30.4130 O   0  0  0  0  0  0  0  0  0  0  0  0
   -4.4340   24.7430  -30.6280 C   0  0  0  0  0  0  0  0  0  0  0  0
   -3.1130   24.2110  -30.4740 N   0  0  0  0  0  0  0  0  0  0  0  0
   -2.4150   24.0110  -29.2380 C   0  0  0  0  0  0  0  0  0  0  0  0
   -2.8100   23.0300  -28.3110 C   0  0  0  0  0  0  0  0  0  0  0  0
   -2.1030   22.8640  -27.1170 C   0  0  0  0  0  0  0  0  0  0  0  0
   -1.0030   23.6810  -26.8290 C   0  0  0  0  0  0  0  0  0  0  0  0
   -0.1000   23.4350  -25.3340 S   0  0  0  0  0  0  0  0  0  0  0  0
   -0.7180   22.2910  -24.5830 O   0  0  0  0  0  0  0  0  0  0  0  0
    1.3310   23.0970  -25.6490 O   0  0  0  0  0  0  0  0  0  0  0  0
   -0.1740   24.8800  -24.3540 N   0  0  0  0  0  0  0  0  0  0  0  0
    1.0430   25.6870  -24.4700 C   0  0  0  0  0  0  0  0  0  0  0  0
    0.6350   27.1390  -24.2470 C   0  0  0  0  0  0  0  0  0  0  0  0
   -0.8830   27.1610  -24.3400 C   0  0  0  0  0  0  0  0  0  0  0  0
   -1.2790   25.7530  -24.7520 C   0  0  0  0  0  0  0  0  0  0  0  0
   -0.6260   24.6770  -27.7390 C   0  0  0  0  0  0  0  0  0  0  0  0
   -1.3370   24.8480  -28.9310 C   0  0  0  0  0  0  0  0  0  0  0  0
   -5.5560   23.8480  -31.0020 C   0  0  0  0  0  0  0  0  0  0  0  0
   -6.8890   24.2790  -30.8740 C   0  0  0  0  0  0  0  0  0  0  0  0
   -7.9450   23.4230  -31.2020 C   0  0  0  0  0  0  0  0  0  0  0  0
   -7.6880   22.1340  -31.6730 C   0  0  0  0  0  0  0  0  0  0  0  0
   -8.7310   21.3140  -31.9500 F   0  0  0  0  0  0  0  0  0  0  0  0
   -6.3630   21.6980  -31.8340 C   0  0  0  0  0  0  0  0  0  0  0  0
   -6.0040   20.0720  -32.4200 S   0  0  0  0  0  0  0  0  0  0  0  0
   -7.0080   19.6570  -33.4620 O   0  0  0  0  0  0  0  0  0  0  0  0
   -6.0780   19.1230  -31.2570 O   0  0  0  0  0  0  0  0  0  0  0  0
   -4.4010   20.0350  -33.1150 N   0  0  0  0  0  0  0  0  0  0  0  0
   -4.2520   18.8720  -34.0280 C   0  0  0  0  0  0  0  0  0  0  0  0
   -2.8010   18.3420  -34.1730 C   0  0  0  0  0  0  0  0  0  0  0  0
   -1.7720   19.3680  -33.7850 C   0  0  0  0  0  0  0  0  0  0  0  0
   -0.5330   19.4490  -34.4390 C   0  0  0  0  0  0  0  0  0  0  0  0
    0.4220   20.3790  -34.0080 C   0  0  0  0  0  0  0  0  0  0  0  0
    0.1480   21.2160  -32.9220 C   0  0  0  0  0  0  0  0  0  0  0  0
   -1.0790   21.1230  -32.2560 C   0  0  0  0  0  0  0  0  0  0  0  0
   -2.0390   20.1940  -32.6900 C   0  0  0  0  0  0  0  0  0  0  0  0
   -3.3870   20.0720  -32.0490 C   0  0  0  0  0  0  0  0  0  0  0  0
   -5.3060   22.5500  -31.4840 C   0  0  0  0  0  0  0  0  0  0  0  0
   -3.6789   22.3908  -28.5266 H   0  0  0  0  0  0  0  0  0  0  0  0
   -2.4119   22.0885  -26.4007 H   0  0  0  0  0  0  0  0  0  0  0  0
   -0.3030   24.5990  -23.3520 H   0  0  0  0  0  0  0  0  0  0  0  0
    1.7751   25.3788  -23.7091 H   0  0  0  0  0  0  0  0  0  0  0  0
    1.5091   25.5564  -25.4578 H   0  0  0  0  0  0  0  0  0  0  0  0
    0.9631   27.4811  -23.2544 H   0  0  0  0  0  0  0  0  0  0  0  0
    1.0961   27.8079  -24.9886 H   0  0  0  0  0  0  0  0  0  0  0  0
   -1.3252   27.4163  -23.3657 H   0  0  0  0  0  0  0  0  0  0  0  0
   -1.2394   27.9143  -25.0580 H   0  0  0  0  0  0  0  0  0  0  0  0
   -2.2047   25.4527  -24.2393 H   0  0  0  0  0  0  0  0  0  0  0  0
   -1.4657   25.6918  -25.8343 H   0  0  0  0  0  0  0  0  0  0  0  0
    0.2326   25.3271  -27.5151 H   0  0  0  0  0  0  0  0  0  0  0  0
   -1.0469   25.6452  -29.6312 H   0  0  0  0  0  0  0  0  0  0  0  0
   -7.1021   25.2962  -30.5135 H   0  0  0  0  0  0  0  0  0  0  0  0
   -8.9836   23.7670  -31.0883 H   0  0  0  0  0  0  0  0  0  0  0  0
   -4.8789   18.0533  -33.6449 H   0  0  0  0  0  0  0  0  0  0  0  0
   -4.5563   19.2202  -35.0261 H   0  0  0  0  0  0  0  0  0  0  0  0
   -2.6812   17.4602  -33.5265 H   0  0  0  0  0  0  0  0  0  0  0  0
   -2.6407   18.0916  -35.2321 H   0  0  0  0  0  0  0  0  0  0  0  0
   -0.3124   18.7844  -35.2873 H   0  0  0  0  0  0  0  0  0  0  0  0
    1.3901   20.4509  -34.5254 H   0  0  0  0  0  0  0  0  0  0  0  0
    0.8984   21.9489  -32.5906 H   0  0  0  0  0  0  0  0  0  0  0  0
   -1.2910   21.7750  -31.3958 H   0  0  0  0  0  0  0  0  0  0  0  0
   -3.4353   19.1463  -31.4567 H   0  0  0  0  0  0  0  0  0  0  0  0
   -3.5689   20.9266  -31.3808 H   0  0  0  0  0  0  0  0  0  0  0  0
   -4.2685   22.1994  -31.5875 H   0  0  0  0  0  0  0  0  0  0  0  0
  1  2  2  0
  2  3  1  0
  3  4  1  0
  4  5  2  0
  5  6  1  0
  6  7  2  0
  7  8  1  0
  8  9  2  0
  8 10  2  0
  8 11  1  0
 11 12  1  0
 12 13  1  0
 13 14  1  0
 14 15  1  0
  7 16  1  0
 16 17  2  0
  2 18  1  0
 18 19  2  0
 19 20  1  0
 20 21  2  0
 21 22  1  0
 21 23  1  0
 23 24  1  0
 24 25  2  0
 24 26  2  0
 24 27  1  0
 27 28  1  0
 28 29  1  0
 29 30  1  0
 30 31  2  0
 31 32  1  0
 32 33  2  0
 33 34  1  0
 34 35  2  0
 35 36  1  0
 23 37  2  0
 17  4  1  0
 37 18  1  0
 15 11  1  0
 36 27  1  0
 35 30  1  0
  5 38  1  0
  6 39  1  0
 11 40  1  0
 12 41  1  0
 12 42  1  0
 13 43  1  0
 13 44  1  0
 14 45  1  0
 14 46  1  0
 15 47  1  0
 15 48  1  0
 16 49  1  0
 17 50  1  0
 19 51  1  0
 20 52  1  0
 28 53  1  0
 28 54  1  0
 29 55  1  0
 29 56  1  0
 31 57  1  0
 32 58  1  0
 33 59  1  0
 34 60  1  0
 36 61  1  0
 36 62  1  0
 37 63  1  0
M  CHG  2   3  -1  11   1
M  END
>  <UniqueID>  (18) 
18

>  <SMILES>  (18) 
O=C([N-]c1ccc(S(=O)(=O)[NH+]2CCCC2)cc1)c1ccc(F)c(S(=O)(=O)N2CCc3ccccc3C2)c1

>  <Energy>  (18) 
81.5142334999641

>  <Genealogy>  (18) 
O=C([N-]c1ccc(S(=O)(=O)[NH+]2CCCC2)cc1)c1ccc(F)c(S(=O)(=O)N2CCc3ccccc3C2)c1 (protonated)
O=C([N-]c1ccc(S(=O)(=O)[NH+]2CCCC2)cc1)c1ccc(F)c(S(=O)(=O)N2CCc3ccccc3C2)c1 (3D coordinates assigned)
O=C([N-]c1ccc(S(=O)(=O)[NH+]2CCCC2)cc1)c1ccc(F)c(S(=O)(=O)N2CCc3ccccc3C2)c1 (nonaromatic ring conformer: 81.5142334999641 kcal/mol)

>  <smiles>  (18) 
O=C(Nc1ccc(S(=O)(=O)N2CCCC2)cc1)c1ccc(F)c(S(=O)(=O)N2CCc3ccccc3C2)c1

>  <score_type>  (18) 
oracle

>  <origin>  (18) 
adgpu

>  <m_score__min__energy>  (18) 
-12.859999999999999

>  <m_primary>  (18) 
energy

$$$$
18:0
     RDKit          3D

 81 84  0  0  0  0  0  0  0  0999 V2000
   -0.0720   19.1400  -28.1600 C   0  0  0  0  0  0  0  0  0  0  0  0
   -0.9480   20.1060  -27.3420 C   0  0  0  0  0  0  0  0  0  0  0  0
   -2.1730   19.3880  -26.7620 C   0  0  0  0  0  0  0  0  0  0  0  0
   -1.3060   21.4330  -28.0760 C   0  0  0  0  0  0  0  0  0  0  0  0
   -0.3910   21.8970  -29.2400 C   0  0  2  0  0  0  0  0  0  0  0  0
   -0.5240   23.3470  -29.3760 N   0  0  0  0  0  0  0  0  0  0  0  0
   -1.7830   24.0240  -29.4530 C   0  0  0  0  0  0  0  0  0  0  0  0
   -1.8580   25.2550  -29.1760 O   0  0  0  0  0  0  0  0  0  0  0  0
   -2.9390   23.2940  -29.8860 N   0  0  0  0  0  0  0  0  0  0  0  0
   -4.2620   23.8460  -30.0080 C   0  0  0  0  0  0  0  0  0  0  0  0
   -5.3710   23.0380  -29.6990 C   0  0  0  0  0  0  0  0  0  0  0  0
   -6.6680   23.5510  -29.7910 C   0  0  0  0  0  0  0  0  0  0  0  0
   -6.8700   24.8800  -30.1780 C   0  0  0  0  0  0  0  0  0  0  0  0
   -5.7740   25.7040  -30.4620 C   0  0  0  0  0  0  0  0  0  0  0  0
   -4.4740   25.1940  -30.3690 C   0  0  0  0  0  0  0  0  0  0  0  0
   -0.7390   21.2440  -30.5550 C   0  0  0  0  0  0  0  0  0  0  0  0
   -1.7260   20.4680  -30.6200 O   0  0  0  0  0  0  0  0  0  0  0  0
    0.1130   21.4280  -31.6990 N   0  0  0  0  0  0  0  0  0  0  0  0
   -0.2200   21.1620  -33.1050 C   0  0  2  0  0  0  0  0  0  0  0  0
   -0.6480   19.7000  -33.3280 C   0  0  0  0  0  0  0  0  0  0  0  0
   -2.1410   19.5750  -33.4940 C   0  0  0  0  0  0  0  0  0  0  0  0
   -2.9700   20.6770  -33.2470 C   0  0  0  0  0  0  0  0  0  0  0  0
   -4.3540   20.5670  -33.4080 C   0  0  0  0  0  0  0  0  0  0  0  0
   -4.9310   19.3590  -33.8140 C   0  0  0  0  0  0  0  0  0  0  0  0
   -6.3240   19.2930  -33.9590 O   0  0  0  0  0  0  0  0  0  0  0  0
   -7.2680   19.7980  -33.0490 C   0  0  0  0  0  0  0  0  0  0  0  0
   -7.3270   21.1670  -32.7140 C   0  0  0  0  0  0  0  0  0  0  0  0
   -8.2640   21.6250  -31.7840 C   0  0  0  0  0  0  0  0  0  0  0  0
   -9.1440   20.7250  -31.1730 C   0  0  0  0  0  0  0  0  0  0  0  0
   -9.0830   19.3630  -31.4900 C   0  0  0  0  0  0  0  0  0  0  0  0
   -8.1400   18.9010  -32.4170 C   0  0  0  0  0  0  0  0  0  0  0  0
   -4.1050   18.2400  -34.0190 C   0  0  0  0  0  0  0  0  0  0  0  0
   -2.7190   18.3520  -33.8690 C   0  0  0  0  0  0  0  0  0  0  0  0
    0.9140   21.5240  -34.0350 C   0  0  0  0  0  0  0  0  0  0  0  0
    1.9880   20.8670  -34.0270 O   0  0  0  0  0  0  0  0  0  0  0  0
    0.7210   22.5590  -35.0010 N   0  0  0  0  0  0  0  0  0  0  0  0
    1.6780   22.8140  -36.0740 C   0  0  0  0  0  0  0  0  0  0  0  0
    2.0240   24.3020  -36.1300 C   0  0  0  0  0  0  0  0  0  0  0  0
    1.6040   24.8990  -37.4000 N   0  0  0  0  0  0  0  0  0  0  0  0
    0.6450   25.7660  -37.5910 C   0  0  0  0  0  0  0  0  0  0  0  0
    0.4110   26.2300  -38.8920 C   0  0  0  0  0  0  0  0  0  0  0  0
   -0.5950   27.1740  -39.1220 C   0  0  0  0  0  0  0  0  0  0  0  0
   -1.3520   27.6330  -38.0920 N   0  0  0  0  0  0  0  0  0  0  0  0
   -1.1530   27.2030  -36.8190 C   0  0  0  0  0  0  0  0  0  0  0  0
   -0.1520   26.2660  -36.5400 C   0  0  0  0  0  0  0  0  0  0  0  0
    0.5069   18.5017  -27.4763 H   0  0  0  0  0  0  0  0  0  0  0  0
   -0.7138   18.5107  -28.7941 H   0  0  0  0  0  0  0  0  0  0  0  0
    0.6169   19.7174  -28.7941 H   0  0  0  0  0  0  0  0  0  0  0  0
   -0.3262   20.4363  -26.4969 H   0  0  0  0  0  0  0  0  0  0  0  0
   -2.1275   19.4147  -25.6633 H   0  0  0  0  0  0  0  0  0  0  0  0
   -3.0892   19.8921  -27.1034 H   0  0  0  0  0  0  0  0  0  0  0  0
   -2.1809   18.3423  -27.1034 H   0  0  0  0  0  0  0  0  0  0  0  0
   -2.3203   21.3159  -28.4853 H   0  0  0  0  0  0  0  0  0  0  0  0
   -1.1849   22.2107  -27.3075 H   0  0  0  0  0  0  0  0  0  0  0  0
    0.6408   21.6030  -28.9974 H   0  0  0  0  0  0  0  0  0  0  0  0
   -2.7880   22.3040  -30.1990 H   0  0  0  0  0  0  0  0  0  0  0  0
   -5.2167   21.9958  -29.3829 H   0  0  0  0  0  0  0  0  0  0  0  0
   -7.5306   22.9091  -29.5589 H   0  0  0  0  0  0  0  0  0  0  0  0
   -7.8920   25.2786  -30.2594 H   0  0  0  0  0  0  0  0  0  0  0  0
   -5.9347   26.7512  -30.7579 H   0  0  0  0  0  0  0  0  0  0  0  0
   -3.6136   25.8466  -30.5782 H   0  0  0  0  0  0  0  0  0  0  0  0
   -1.0761   21.8095  -33.3455 H   0  0  0  0  0  0  0  0  0  0  0  0
   -0.1554   19.3187  -34.2346 H   0  0  0  0  0  0  0  0  0  0  0  0
   -0.3515   19.1173  -32.4434 H   0  0  0  0  0  0  0  0  0  0  0  0
   -2.5300   21.6324  -32.9251 H   0  0  0  0  0  0  0  0  0  0  0  0
   -4.9959   21.4389  -33.2136 H   0  0  0  0  0  0  0  0  0  0  0  0
   -6.6325   21.8770  -33.1868 H   0  0  0  0  0  0  0  0  0  0  0  0
   -8.3098   22.6947  -31.5319 H   0  0  0  0  0  0  0  0  0  0  0  0
   -9.8835   21.0876  -30.4438 H   0  0  0  0  0  0  0  0  0  0  0  0
   -9.7757   18.6554  -31.0111 H   0  0  0  0  0  0  0  0  0  0  0  0
   -8.0835   17.8275  -32.6504 H   0  0  0  0  0  0  0  0  0  0  0  0
   -4.5501   17.2736  -34.2982 H   0  0  0  0  0  0  0  0  0  0  0  0
   -2.0777   17.4760  -34.0460 H   0  0  0  0  0  0  0  0  0  0  0  0
    2.5945   22.2345  -35.8888 H   0  0  0  0  0  0  0  0  0  0  0  0
    1.2308   22.5131  -37.0329 H   0  0  0  0  0  0  0  0  0  0  0  0
    1.5136   24.8198  -35.3046 H   0  0  0  0  0  0  0  0  0  0  0  0
    3.1152   24.4082  -36.0407 H   0  0  0  0  0  0  0  0  0  0  0  0
    1.0163   25.8532  -39.7296 H   0  0  0  0  0  0  0  0  0  0  0  0
   -0.7739   27.5463  -40.1415 H   0  0  0  0  0  0  0  0  0  0  0  0
   -1.7811   27.5928  -36.0044 H   0  0  0  0  0  0  0  0  0  0  0  0
    0.0123   25.9217  -35.5083 H   0  0  0  0  0  0  0  0  0  0  0  0
  1  2  1  0
  2  3  1  0
  2  4  1  0
  4  5  1  0
  5  6  1  0
  6  7  1  0
  7  8  2  0
  7  9  1  0
  9 10  1  0
 10 11  2  0
 11 12  1  0
 12 13  2  0
 13 14  1  0
 14 15  2  0
  5 16  1  0
 16 17  2  0
 16 18  1  0
 18 19  1  0
 19 20  1  0
 20 21  1  0
 21 22  2  0
 22 23  1  0
 23 24  2  0
 24 25  1  0
 25 26  1  0
 26 27  2  0
 27 28  1  0
 28 29  2  0
 29 30  1  0
 30 31  2  0
 24 32  1  0
 32 33  2  0
 19 34  1  0
 34 35  2  0
 34 36  1  0
 36 37  1  0
 37 38  1  0
 38 39  1  0
 39 40  2  3
 40 41  1  0
 41 42  2  0
 42 43  1  0
 43 44  1  0
 44 45  2  0
 15 10  1  0
 33 21  1  0
 45 40  1  0
 31 26  1  0
  1 46  1  0
  1 47  1  0
  1 48  1  0
  2 49  1  0
  3 50  1  0
  3 51  1  0
  3 52  1  0
  4 53  1  0
  4 54  1  0
  5 55  1  1
  9 56  1  0
 11 57  1  0
 12 58  1  0
 13 59  1  0
 14 60  1  0
 15 61  1  0
 19 62  1  6
 20 63  1  0
 20 64  1  0
 22 65  1  0
 23 66  1  0
 27 67  1  0
 28 68  1  0
 29 69  1  0
 30 70  1  0
 31 71  1  0
 32 72  1  0
 33 73  1  0
 37 74  1  0
 37 75  1  0
 38 76  1  0
 38 77  1  0
 41 78  1  0
 42 79  1  0
 44 80  1  0
 45 81  1  0
M  CHG  4   6  -1  18  -1  36  -1  43  -1
M  END
>  <UniqueID>  (19) 
19

>  <SMILES>  (19) 
CC(C)C[C@H]([N-]C(=O)Nc1ccccc1)C(=O)[N-][C@H](Cc1ccc(Oc2ccccc2)cc1)C(=O)[N-]CCN=c1cc[n-]cc1

>  <Energy>  (19) 
91.39630222053465

>  <Genealogy>  (19) 
CC(C)CC([N-]C(=O)Nc1ccccc1)C(=O)[N-]C(Cc1ccc(Oc2ccccc2)cc1)C(=O)[N-]CCN=c1cc[n-]cc1 (protonated)
CC(C)C[C@H]([N-]C(=O)Nc1ccccc1)C(=O)[N-][C@H](Cc1ccc(Oc2ccccc2)cc1)C(=O)[N-]CCN=c1cc[n-]cc1 (chirality)
CC(C)C[C@H]([N-]C(=O)Nc1ccccc1)C(=O)[N-][C@H](Cc1ccc(Oc2ccccc2)cc1)C(=O)[N-]CCN=c1cc[n-]cc1 (3D coordinates assigned)
CC(C)C[C@H]([N-]C(=O)Nc1ccccc1)C(=O)[N-][C@H](Cc1ccc(Oc2ccccc2)cc1)C(=O)[N-]CCN=c1cc[n-]cc1 (optimized conformer: 91.39630222053465 kcal/mol)

>  <smiles>  (19) 
CC(C)CC(NC(=O)Nc1ccccc1)C(=O)NC(Cc1ccc(Oc2ccccc2)cc1)C(=O)NCCN=c1cc[nH]cc1

>  <score_type>  (19) 
oracle

>  <origin>  (19) 
adgpu

>  <m_score__min__energy>  (19) 
-14.4

>  <m_primary>  (19) 
energy

$$$$
19:0
     RDKit          3D

 46 49  0  0  0  0  0  0  0  0999 V2000
   -2.7430   21.0150  -34.7380 H   0  0  0  0  0  0  0  0  0  0  0  0
   -2.3450   21.1120  -33.7770 N   0  0  0  0  0  0  0  0  0  0  0  0
   -2.9780   21.7270  -32.8230 C   0  0  0  0  0  0  0  0  0  0  0  0
   -2.4000   21.8290  -31.5450 C   0  0  0  0  0  0  0  0  0  0  0  0
   -1.1080   21.2240  -31.2840 C   0  0  0  0  0  0  0  0  0  0  0  0
   -0.0780   20.7420  -31.0740 N   0  0  0  0  0  0  0  0  0  0  0  0
   -3.1010   22.5020  -30.5200 C   0  0  0  0  0  0  0  0  0  0  0  0
   -2.5120   22.6230  -29.1630 C   0  0  0  0  0  0  0  0  0  0  0  0
   -2.2540   21.4740  -28.4020 C   0  0  0  0  0  0  0  0  0  0  0  0
   -2.4918   20.4808  -28.8105 H   0  0  0  0  0  0  0  0  0  0  0  0
   -1.6960   21.5870  -27.1270 C   0  0  0  0  0  0  0  0  0  0  0  0
   -1.4944   20.6825  -26.5343 H   0  0  0  0  0  0  0  0  0  0  0  0
   -1.3930   22.8460  -26.6020 C   0  0  0  0  0  0  0  0  0  0  0  0
   -0.9533   22.9271  -25.5970 H   0  0  0  0  0  0  0  0  0  0  0  0
   -1.6460   24.0100  -27.3490 C   0  0  0  0  0  0  0  0  0  0  0  0
   -1.3230   25.3490  -26.7930 C   0  0  0  0  0  0  0  0  0  0  0  0
   -0.7460   26.3420  -27.6070 C   0  0  0  0  0  0  0  0  0  0  0  0
   -0.5322   26.1257  -28.6641 H   0  0  0  0  0  0  0  0  0  0  0  0
   -0.4430   27.6010  -27.0810 C   0  0  0  0  0  0  0  0  0  0  0  0
    0.0069   28.3709  -27.7251 H   0  0  0  0  0  0  0  0  0  0  0  0
   -0.7100   27.8840  -25.7400 C   0  0  0  0  0  0  0  0  0  0  0  0
   -0.4701   28.8754  -25.3282 H   0  0  0  0  0  0  0  0  0  0  0  0
   -1.2820   26.9070  -24.9220 C   0  0  0  0  0  0  0  0  0  0  0  0
   -1.4915   27.1299  -23.8654 H   0  0  0  0  0  0  0  0  0  0  0  0
   -1.5890   25.6460  -25.4430 C   0  0  0  0  0  0  0  0  0  0  0  0
   -2.0411   24.8816  -24.7939 H   0  0  0  0  0  0  0  0  0  0  0  0
   -2.2090   23.8870  -28.6330 C   0  0  0  0  0  0  0  0  0  0  0  0
   -2.4135   24.7900  -29.2269 H   0  0  0  0  0  0  0  0  0  0  0  0
   -4.3680   23.0560  -30.8020 C   0  0  0  0  0  0  0  0  0  0  0  0
   -5.0920   23.7930  -29.7880 C   0  0  0  0  0  0  0  0  0  0  0  0
   -5.6700   24.3820  -28.9760 N   0  0  0  0  0  0  0  0  0  0  0  0
   -4.9090   22.9150  -32.0920 C   0  0  0  0  0  0  0  0  0  0  0  0
   -6.5340   23.5810  -32.5010 S   0  0  0  0  0  0  0  0  0  0  0  0
   -7.3490   22.0060  -32.2240 C   0  0  0  0  0  0  0  0  0  0  0  0
   -6.8160   20.8350  -32.7780 C   0  0  0  0  0  0  0  0  0  0  0  0
   -5.9011   20.8817  -33.3869 H   0  0  0  0  0  0  0  0  0  0  0  0
   -7.4470   19.6060  -32.5570 C   0  0  0  0  0  0  0  0  0  0  0  0
   -7.0256   18.6863  -32.9890 H   0  0  0  0  0  0  0  0  0  0  0  0
   -8.6120   19.5460  -31.7880 C   0  0  0  0  0  0  0  0  0  0  0  0
   -9.1068   18.5791  -31.6137 H   0  0  0  0  0  0  0  0  0  0  0  0
   -9.1490   20.7150  -31.2400 C   0  0  0  0  0  0  0  0  0  0  0  0
  -10.0669   20.6669  -30.6357 H   0  0  0  0  0  0  0  0  0  0  0  0
   -8.5210   21.9450  -31.4590 C   0  0  0  0  0  0  0  0  0  0  0  0
   -8.9470   22.8643  -31.0308 H   0  0  0  0  0  0  0  0  0  0  0  0
   -4.2050   22.2710  -33.0610 N   0  0  0  0  0  0  0  0  0  0  0  0
   -4.6290   22.1880  -34.0130 H   0  0  0  0  0  0  0  0  0  0  0  0
  1  2  1  0
  2  3  2  0
  3  4  1  0
  4  5  1  0
  5  6  3  0
  4  7  2  0
  7  8  1  0
  8  9  2  0
  9 10  1  0
  9 11  1  0
 11 12  1  0
 11 13  2  0
 13 14  1  0
 13 15  1  0
 15 16  1  0
 16 17  2  0
 17 18  1  0
 17 19  1  0
 19 20  1  0
 19 21  2  0
 21 22  1  0
 21 23  1  0
 23 24  1  0
 23 25  2  0
 25 26  1  0
 15 27  2  0
 27 28  1  0
  7 29  1  0
 29 30  1  0
 30 31  3  0
 29 32  2  0
 32 33  1  0
 33 34  1  0
 34 35  2  0
 35 36  1  0
 35 37  1  0
 37 38  1  0
 37 39  2  0
 39 40  1  0
 39 41  1  0
 41 42  1  0
 41 43  2  0
 43 44  1  0
 32 45  1  0
 45 46  1  0
 45  3  1  0
 27  8  1  0
 43 34  1  0
 25 16  1  0
M  END
>  <UniqueID>  (20) 
20

>  <SMILES>  (20) 
[H]/N=c1\[nH]c(Sc2ccccc2)c(C#N)c(-c2cccc(-c3ccccc3)c2)c1C#N

>  <Energy>  (20) 
62.25973571103721

>  <Genealogy>  (20) 
[H]/N=c1\[nH]c(Sc2ccccc2)c(C#N)c(-c2cccc(-c3ccccc3)c2)c1C#N (cis-trans isomerization)
[H]/N=c1\[nH]c(Sc2ccccc2)c(C#N)c(-c2cccc(-c3ccccc3)c2)c1C#N (3D coordinates assigned)
[H]/N=c1\[nH]c(Sc2ccccc2)c(C#N)c(-c2cccc(-c3ccccc3)c2)c1C#N (optimized conformer: 62.25973571103721 kcal/mol)

>  <smiles>  (20) 
N#Cc1c(Sc2ccccc2)[nH]c(=N)c(C#N)c1-c1cccc(-c2ccccc2)c1

>  <score_type>  (20) 
oracle

>  <origin>  (20) 
adgpu

>  <m_score__min__energy>  (20) 
-10.210000000000001

>  <m_primary>  (20) 
energy

$$$$
20:0
     RDKit          3D

 34 35  0  0  0  0  0  0  0  0999 V2000
    0.6410   15.0590  -26.1340 H   0  0  0  0  0  0  0  0  0  0  0  0
    1.5770   14.6010  -26.0600 N   0  0  0  0  0  0  0  0  0  0  0  0
    2.7380   15.7100  -26.7030 S   0  0  0  0  0  0  0  0  0  0  0  0
    3.5500   14.9800  -27.7340 O   0  0  0  0  0  0  0  0  0  0  0  0
    3.6310   16.1710  -25.5870 O   0  0  0  0  0  0  0  0  0  0  0  0
    1.9160   17.1100  -27.4210 C   0  0  0  0  0  0  0  0  0  0  0  0
    0.5140   17.1310  -27.3850 C   0  0  0  0  0  0  0  0  0  0  0  0
   -0.0271   16.2953  -26.9172 H   0  0  0  0  0  0  0  0  0  0  0  0
   -0.2060   18.1930  -27.9320 C   0  0  0  0  0  0  0  0  0  0  0  0
   -1.3051   18.1887  -27.8882 H   0  0  0  0  0  0  0  0  0  0  0  0
    0.4640   19.2670  -28.5380 C   0  0  0  0  0  0  0  0  0  0  0  0
   -0.2540   20.4230  -29.1290 C   0  0  0  0  0  0  0  0  0  0  0  0
   -0.0227   20.7027  -30.1674 H   0  0  0  0  0  0  0  0  0  0  0  0
   -1.1710   21.1470  -28.4660 C   0  0  0  0  0  0  0  0  0  0  0  0
   -1.4009   20.8677  -27.4272 H   0  0  0  0  0  0  0  0  0  0  0  0
   -1.8910   22.3020  -29.0560 C   0  0  0  0  0  0  0  0  0  0  0  0
   -1.4420   23.5990  -28.7520 C   0  0  0  0  0  0  0  0  0  0  0  0
   -0.5706   23.7335  -28.0943 H   0  0  0  0  0  0  0  0  0  0  0  0
   -2.0930   24.7210  -29.2780 C   0  0  0  0  0  0  0  0  0  0  0  0
   -1.6270   25.9950  -28.9740 O   0  0  0  0  0  0  0  0  0  0  0  0
   -3.2100   24.5590  -30.1040 C   0  0  0  0  0  0  0  0  0  0  0  0
   -3.8560   25.6740  -30.6270 O   0  0  0  0  0  0  0  0  0  0  0  0
   -3.6790   23.2750  -30.4000 C   0  0  0  0  0  0  0  0  0  0  0  0
   -4.7970   23.1100  -31.2100 O   0  0  0  0  0  0  0  0  0  0  0  0
   -3.0280   22.1520  -29.8770 C   0  0  0  0  0  0  0  0  0  0  0  0
   -3.4058   21.1450  -30.1079 H   0  0  0  0  0  0  0  0  0  0  0  0
    1.8660   19.2700  -28.5490 C   0  0  0  0  0  0  0  0  0  0  0  0
    2.3987   20.1198  -29.0007 H   0  0  0  0  0  0  0  0  0  0  0  0
    2.6060   18.2100  -27.9950 C   0  0  0  0  0  0  0  0  0  0  0  0
    4.3780   18.3160  -28.0590 S   0  0  0  0  0  0  0  0  0  0  0  0
    4.7940   19.3780  -29.0390 O   0  0  0  0  0  0  0  0  0  0  0  0
    4.9470   17.0010  -28.5090 O   0  0  0  0  0  0  0  0  0  0  0  0
    5.0220   18.7380  -26.5110 N   0  0  0  0  0  0  0  0  0  0  0  0
    4.5740   18.1050  -25.8120 H   0  0  0  0  0  0  0  0  0  0  0  0
  1  2  1  0
  2  3  1  0
  3  4  2  0
  3  5  2  0
  3  6  1  0
  6  7  2  0
  7  8  1  0
  7  9  1  0
  9 10  1  0
  9 11  2  0
 11 12  1  0
 12 13  1  0
 12 14  2  0
 14 15  1  0
 14 16  1  0
 16 17  2  0
 17 18  1  0
 17 19  1  0
 19 20  1  0
 19 21  2  0
 21 22  1  0
 21 23  1  0
 23 24  1  0
 23 25  2  0
 25 26  1  0
 11 27  1  0
 27 28  1  0
 27 29  2  0
 29 30  1  0
 30 31  2  0
 30 32  2  0
 30 33  1  0
 33 34  1  0
 29  6  1  0
 25 16  1  0
M  CHG  5   2  -1  20  -1  22  -1  24  -1  33  -1
M  END
>  <UniqueID>  (21) 
21

>  <SMILES>  (21) 
[NH-]S(=O)(=O)c1ccc(/C=C/c2cc([O-])c([O-])c([O-])c2)cc1S([NH-])(=O)=O

>  <Energy>  (21) 
44.508087736234096

>  <Genealogy>  (21) 
[NH-]S(=O)(=O)c1ccc(C=Cc2cc([O-])c([O-])c([O-])c2)cc1S([NH-])(=O)=O (protonated)
[NH-]S(=O)(=O)c1ccc(/C=C/c2cc([O-])c([O-])c([O-])c2)cc1S([NH-])(=O)=O (cis-trans isomerization)
[NH-]S(=O)(=O)c1ccc(/C=C/c2cc([O-])c([O-])c([O-])c2)cc1S([NH-])(=O)=O (3D coordinates assigned)
[NH-]S(=O)(=O)c1ccc(/C=C/c2cc([O-])c([O-])c([O-])c2)cc1S([NH-])(=O)=O (optimized conformer: 44.508087736234096 kcal/mol)

>  <smiles>  (21) 
NS(=O)(=O)c1ccc(C=Cc2cc(O)c(O)c(O)c2)cc1S(N)(=O)=O

>  <score_type>  (21) 
oracle

>  <origin>  (21) 
adgpu

>  <m_score__min__energy>  (21) 
-12.539999999999999

>  <m_primary>  (21) 
energy

$$$$
21:0
     RDKit          3D

 35 37  0  0  0  0  0  0  0  0999 V2000
    0.1720   26.3250  -26.7640 C   0  0  0  0  0  0  0  0  0  0  0  0
   -0.9350   25.7030  -27.5420 C   0  0  0  0  0  0  0  0  0  0  0  0
   -1.2170   26.0210  -28.8260 N   0  0  0  0  0  0  0  0  0  0  0  0
   -2.2050   25.2920  -29.3430 N   0  0  0  0  0  0  0  0  0  0  0  0
   -2.6980   24.3850  -28.4720 C   0  0  0  0  0  0  0  0  0  0  0  0
   -3.6560   23.5560  -28.7510 N   0  0  0  0  0  0  0  0  0  0  0  0
   -4.4430   23.5040  -30.2950 S   0  0  0  0  0  0  0  0  0  0  0  0
   -4.6300   24.9080  -30.7960 O   0  0  0  0  0  0  0  0  0  0  0  0
   -5.7880   22.8540  -30.1420 O   0  0  0  0  0  0  0  0  0  0  0  0
   -3.4790   22.5660  -31.4310 C   0  0  0  0  0  0  0  0  0  0  0  0
   -4.0530   22.0650  -32.6070 C   0  0  0  0  0  0  0  0  0  0  0  0
   -3.2810   21.3250  -33.5060 C   0  0  0  0  0  0  0  0  0  0  0  0
   -1.9230   21.0860  -33.2500 C   0  0  0  0  0  0  0  0  0  0  0  0
   -1.1560   20.3040  -34.1830 N   0  0  0  0  0  0  0  0  0  0  0  0
   -0.0030   20.8000  -34.8830 C   0  0  0  0  0  0  0  0  0  0  0  0
    0.2070   22.0410  -34.9620 O   0  0  0  0  0  0  0  0  0  0  0  0
    0.9280   19.8810  -35.5570 C   0  0  0  0  0  0  0  0  0  0  0  0
    1.4000   18.6760  -35.0680 C   0  0  0  0  0  0  0  0  0  0  0  0
    2.2430   18.1850  -36.0410 C   0  0  0  0  0  0  0  0  0  0  0  0
    2.2350   19.1130  -37.0610 C   0  0  0  0  0  0  0  0  0  0  0  0
    1.4440   20.1120  -36.7440 O   0  0  0  0  0  0  0  0  0  0  0  0
   -1.3580   21.5660  -32.0560 C   0  0  0  0  0  0  0  0  0  0  0  0
   -2.1310   22.3050  -31.1560 C   0  0  0  0  0  0  0  0  0  0  0  0
   -1.9110   24.4430  -26.9880 S   0  0  0  0  0  0  0  0  0  0  0  0
   -0.0278   26.2127  -25.6881 H   0  0  0  0  0  0  0  0  0  0  0  0
    1.1207   25.8278  -27.0146 H   0  0  0  0  0  0  0  0  0  0  0  0
    0.2408   27.3939  -27.0146 H   0  0  0  0  0  0  0  0  0  0  0  0
   -5.1147   22.2549  -32.8230 H   0  0  0  0  0  0  0  0  0  0  0  0
   -3.7420   20.9267  -34.4219 H   0  0  0  0  0  0  0  0  0  0  0  0
   -1.5190   19.3590  -34.4370 H   0  0  0  0  0  0  0  0  0  0  0  0
    1.1537   18.2076  -34.1037 H   0  0  0  0  0  0  0  0  0  0  0  0
    2.8088   17.2421  -36.0103 H   0  0  0  0  0  0  0  0  0  0  0  0
    2.8049   19.0291  -37.9981 H   0  0  0  0  0  0  0  0  0  0  0  0
   -0.3019   21.3590  -31.8286 H   0  0  0  0  0  0  0  0  0  0  0  0
   -1.6784   22.6833  -30.2275 H   0  0  0  0  0  0  0  0  0  0  0  0
  1  2  1  0
  2  3  2  0
  3  4  1  0
  4  5  1  0
  5  6  2  3
  6  7  1  0
  7  8  2  0
  7  9  2  0
  7 10  1  0
 10 11  2  0
 11 12  1  0
 12 13  2  0
 13 14  1  0
 14 15  1  0
 15 16  2  0
 15 17  1  0
 17 18  2  0
 18 19  1  0
 19 20  2  0
 20 21  1  0
 13 22  1  0
 22 23  2  0
  5 24  1  0
 24  2  1  0
 23 10  1  0
 21 17  1  0
  1 25  1  0
  1 26  1  0
  1 27  1  0
 11 28  1  0
 12 29  1  0
 14 30  1  0
 18 31  1  0
 19 32  1  0
 20 33  1  0
 22 34  1  0
 23 35  1  0
M  CHG  1   4  -1
M  END
>  <UniqueID>  (22) 
22

>  <SMILES>  (22) 
Cc1n[n-]c(=NS(=O)(=O)c2ccc(NC(=O)c3ccco3)cc2)s1

>  <Energy>  (22) 
101.56421303931943

>  <Genealogy>  (22) 
Cc1n[n-]c(=NS(=O)(=O)c2ccc(NC(=O)c3ccco3)cc2)s1 (protonated)
Cc1n[n-]c(=NS(=O)(=O)c2ccc(NC(=O)c3ccco3)cc2)s1 (3D coordinates assigned)
Cc1n[n-]c(=NS(=O)(=O)c2ccc(NC(=O)c3ccco3)cc2)s1 (optimized conformer: 101.56421303931943 kcal/mol)

>  <smiles>  (22) 
Cc1n[nH]c(=NS(=O)(=O)c2ccc(NC(=O)c3ccco3)cc2)s1

>  <score_type>  (22) 
oracle

>  <origin>  (22) 
adgpu

>  <m_score__min__energy>  (22) 
-9.4199999999999999

>  <m_primary>  (22) 
energy

$$$$
22:0
     RDKit          3D

 59 62  0  0  0  0  0  0  0  0999 V2000
    0.2970   20.0630  -35.7220 C   0  0  0  0  0  0  0  0  0  0  0  0
   -0.3580   19.3330  -34.6900 O   0  0  0  0  0  0  0  0  0  0  0  0
   -1.4250   19.8290  -33.9260 C   0  0  0  0  0  0  0  0  0  0  0  0
   -1.4650   21.1540  -33.4560 C   0  0  0  0  0  0  0  0  0  0  0  0
   -2.5570   21.6040  -32.7070 C   0  0  0  0  0  0  0  0  0  0  0  0
   -3.6220   20.7340  -32.4080 C   0  0  0  0  0  0  0  0  0  0  0  0
   -4.7570   21.1480  -31.6920 O   0  0  0  0  0  0  0  0  0  0  0  0
   -4.9130   22.3810  -31.0400 C   0  0  0  0  0  0  0  0  0  0  0  0
   -5.9950   23.2090  -31.3750 C   0  0  0  0  0  0  0  0  0  0  0  0
   -7.0200   22.7990  -32.4030 C   0  0  0  0  0  0  0  0  0  0  0  0
   -8.3570   21.7990  -31.6590 S   0  0  0  0  0  0  0  0  0  0  0  0
   -7.7330   20.2180  -32.2370 C   0  0  0  0  0  0  0  0  0  0  0  0
   -8.0980   19.0350  -31.5810 C   0  0  0  0  0  0  0  0  0  0  0  0
   -7.6480   17.8000  -32.0610 C   0  0  0  0  0  0  0  0  0  0  0  0
   -6.8490   17.7440  -33.2070 C   0  0  0  0  0  0  0  0  0  0  0  0
   -6.4900   18.9240  -33.8670 C   0  0  0  0  0  0  0  0  0  0  0  0
   -6.9240   20.1600  -33.3780 C   0  0  0  0  0  0  0  0  0  0  0  0
   -6.1320   24.4310  -30.7130 C   0  0  0  0  0  0  0  0  0  0  0  0
   -5.2280   24.7950  -29.7710 N   0  0  0  0  0  0  0  0  0  0  0  0
   -4.2000   24.0140  -29.4270 N   0  0  0  0  0  0  0  0  0  0  0  0
   -3.2960   24.4920  -28.4140 C   0  0  0  0  0  0  0  0  0  0  0  0
   -1.9870   24.8620  -28.7590 C   0  0  0  0  0  0  0  0  0  0  0  0
   -1.0950   25.3080  -27.7800 C   0  0  0  0  0  0  0  0  0  0  0  0
   -1.4920   25.3830  -26.4310 C   0  0  0  0  0  0  0  0  0  0  0  0
   -0.5350   25.8640  -25.3580 C   0  0  0  0  0  0  0  0  0  0  0  0
    0.1560   24.6840  -24.6650 C   0  0  0  0  0  0  0  0  0  0  0  0
   -1.2520   26.7600  -24.3390 C   0  0  0  0  0  0  0  0  0  0  0  0
   -2.7990   24.9950  -26.0860 C   0  0  0  0  0  0  0  0  0  0  0  0
   -3.6900   24.5500  -27.0670 C   0  0  0  0  0  0  0  0  0  0  0  0
   -4.0400   22.7840  -30.0130 C   0  0  0  0  0  0  0  0  0  0  0  0
   -3.1420   21.9960  -29.6080 O   0  0  0  0  0  0  0  0  0  0  0  0
   -3.5780   19.4180  -32.8810 C   0  0  0  0  0  0  0  0  0  0  0  0
   -2.4880   18.9680  -33.6300 C   0  0  0  0  0  0  0  0  0  0  0  0
    0.9677   20.8105  -35.2733 H   0  0  0  0  0  0  0  0  0  0  0  0
    0.8832   19.3714  -36.3450 H   0  0  0  0  0  0  0  0  0  0  0  0
   -0.4538   20.5711  -36.3450 H   0  0  0  0  0  0  0  0  0  0  0  0
   -0.6338   21.8393  -33.6785 H   0  0  0  0  0  0  0  0  0  0  0  0
   -2.5836   22.6440  -32.3495 H   0  0  0  0  0  0  0  0  0  0  0  0
   -7.4577   23.7033  -32.8510 H   0  0  0  0  0  0  0  0  0  0  0  0
   -6.5164   22.1869  -33.1657 H   0  0  0  0  0  0  0  0  0  0  0  0
   -8.7388   19.0771  -30.6879 H   0  0  0  0  0  0  0  0  0  0  0  0
   -7.9229   16.8730  -31.5366 H   0  0  0  0  0  0  0  0  0  0  0  0
   -6.5028   16.7725  -33.5895 H   0  0  0  0  0  0  0  0  0  0  0  0
   -5.8657   18.8795  -34.7716 H   0  0  0  0  0  0  0  0  0  0  0  0
   -6.6294   21.0877  -33.8904 H   0  0  0  0  0  0  0  0  0  0  0  0
   -6.9728   25.0975  -30.9558 H   0  0  0  0  0  0  0  0  0  0  0  0
   -1.6607   24.8005  -29.8077 H   0  0  0  0  0  0  0  0  0  0  0  0
   -0.0744   25.6029  -28.0655 H   0  0  0  0  0  0  0  0  0  0  0  0
    0.2426   26.4681  -25.8482 H   0  0  0  0  0  0  0  0  0  0  0  0
    0.0844   24.8063  -23.5742 H   0  0  0  0  0  0  0  0  0  0  0  0
   -0.3353   23.7456  -24.9618 H   0  0  0  0  0  0  0  0  0  0  0  0
    1.2148   24.6533  -24.9618 H   0  0  0  0  0  0  0  0  0  0  0  0
   -0.9931   26.4364  -23.3201 H   0  0  0  0  0  0  0  0  0  0  0  0
   -0.9372   27.8041  -24.4833 H   0  0  0  0  0  0  0  0  0  0  0  0
   -2.3397   26.6817  -24.4833 H   0  0  0  0  0  0  0  0  0  0  0  0
   -3.1228   25.0421  -25.0358 H   0  0  0  0  0  0  0  0  0  0  0  0
   -4.7071   24.2430  -26.7820 H   0  0  0  0  0  0  0  0  0  0  0  0
   -4.4090   18.7316  -32.6612 H   0  0  0  0  0  0  0  0  0  0  0  0
   -2.4650   17.9288  -33.9900 H   0  0  0  0  0  0  0  0  0  0  0  0
  1  2  1  0
  2  3  1  0
  3  4  2  0
  4  5  1  0
  5  6  2  0
  6  7  1  0
  7  8  1  0
  8  9  2  0
  9 10  1  0
 10 11  1  0
 11 12  1  0
 12 13  2  0
 13 14  1  0
 14 15  2  0
 15 16  1  0
 16 17  2  0
  9 18  1  0
 18 19  2  0
 19 20  1  0
 20 21  1  0
 21 22  2  0
 22 23  1  0
 23 24  2  0
 24 25  1  0
 25 26  1  0
 25 27  1  0
 24 28  1  0
 28 29  2  0
 20 30  1  0
 30 31  2  0
  6 32  1  0
 32 33  2  0
 33  3  1  0
 30  8  1  0
 17 12  1  0
 29 21  1  0
  1 34  1  0
  1 35  1  0
  1 36  1  0
  4 37  1  0
  5 38  1  0
 10 39  1  0
 10 40  1  0
 13 41  1  0
 14 42  1  0
 15 43  1  0
 16 44  1  0
 17 45  1  0
 18 46  1  0
 22 47  1  0
 23 48  1  0
 25 49  1  0
 26 50  1  0
 26 51  1  0
 26 52  1  0
 27 53  1  0
 27 54  1  0
 27 55  1  0
 28 56  1  0
 29 57  1  0
 32 58  1  0
 33 59  1  0
M  END
>  <UniqueID>  (23) 
23

>  <SMILES>  (23) 
COc1ccc(Oc2c(CSc3ccccc3)cnn(-c3ccc(C(C)C)cc3)c2=O)cc1

>  <Energy>  (23) 
67.1773918086208

>  <Genealogy>  (23) 
COc1ccc(Oc2c(CSc3ccccc3)cnn(-c3ccc(C(C)C)cc3)c2=O)cc1 (3D coordinates assigned)
COc1ccc(Oc2c(CSc3ccccc3)cnn(-c3ccc(C(C)C)cc3)c2=O)cc1 (optimized conformer: 67.1773918086208 kcal/mol)

>  <smiles>  (23) 
COc1ccc(Oc2c(CSc3ccccc3)cnn(-c3ccc(C(C)C)cc3)c2=O)cc1

>  <score_type>  (23) 
oracle

>  <origin>  (23) 
adgpu

>  <m_score__min__energy>  (23) 
-9.6300000000000008

>  <m_primary>  (23) 
energy

$$$$
23:0
     RDKit          3D

 29 31  0  0  0  0  0  0  0  0999 V2000
   -3.4870   25.2970  -30.4710 O   0  0  0  0  0  0  0  0  0  0  0  0
   -4.7780   24.7800  -30.4810 C   0  0  0  0  0  0  0  0  0  0  0  0
   -5.8170   25.5300  -29.9200 C   0  0  0  0  0  0  0  0  0  0  0  0
   -7.1220   25.0350  -29.9170 C   0  0  0  0  0  0  0  0  0  0  0  0
   -7.4030   23.7860  -30.4740 C   0  0  0  0  0  0  0  0  0  0  0  0
   -6.3730   23.0180  -31.0410 C   0  0  0  0  0  0  0  0  0  0  0  0
   -6.6510   21.7620  -31.6020 C   0  0  0  0  0  0  0  0  0  0  0  0
   -5.6240   20.9900  -32.1730 C   0  0  0  0  0  0  0  0  0  0  0  0
   -5.9210   19.6610  -32.7660 C   0  0  0  0  0  0  0  0  0  0  0  0
   -5.1910   19.1920  -33.8730 C   0  0  0  0  0  0  0  0  0  0  0  0
   -5.4740   17.9410  -34.4310 C   0  0  0  0  0  0  0  0  0  0  0  0
   -6.4880   17.1420  -33.8900 C   0  0  0  0  0  0  0  0  0  0  0  0
   -6.7770   15.8940  -34.4370 O   0  0  0  0  0  0  0  0  0  0  0  0
   -7.2180   17.6000  -32.7900 C   0  0  0  0  0  0  0  0  0  0  0  0
   -6.9400   18.8510  -32.2310 C   0  0  0  0  0  0  0  0  0  0  0  0
   -4.3120   21.4940  -32.1760 C   0  0  0  0  0  0  0  0  0  0  0  0
   -4.0250   22.7430  -31.6190 C   0  0  0  0  0  0  0  0  0  0  0  0
   -5.0480   23.5170  -31.0480 C   0  0  0  0  0  0  0  0  0  0  0  0
   -5.6044   26.5150  -29.4789 H   0  0  0  0  0  0  0  0  0  0  0  0
   -7.9328   25.6317  -29.4737 H   0  0  0  0  0  0  0  0  0  0  0  0
   -8.4340   23.4025  -30.4687 H   0  0  0  0  0  0  0  0  0  0  0  0
   -7.6818   21.3780  -31.5949 H   0  0  0  0  0  0  0  0  0  0  0  0
   -4.3918   19.8135  -34.3030 H   0  0  0  0  0  0  0  0  0  0  0  0
   -4.8980   17.5840  -35.2975 H   0  0  0  0  0  0  0  0  0  0  0  0
   -6.3530   15.0470  -34.0760 H   0  0  0  0  0  0  0  0  0  0  0  0
   -8.0147   16.9737  -32.3621 H   0  0  0  0  0  0  0  0  0  0  0  0
   -7.5218   19.2046  -31.3670 H   0  0  0  0  0  0  0  0  0  0  0  0
   -3.5018   20.8984  -32.6219 H   0  0  0  0  0  0  0  0  0  0  0  0
   -2.9923   23.1218  -31.6279 H   0  0  0  0  0  0  0  0  0  0  0  0
  1  2  1  0
  2  3  2  0
  3  4  1  0
  4  5  2  0
  5  6  1  0
  6  7  2  0
  7  8  1  0
  8  9  1  0
  9 10  2  0
 10 11  1  0
 11 12  2  0
 12 13  1  0
 12 14  1  0
 14 15  2  0
  8 16  2  0
 16 17  1  0
 17 18  2  0
 18  2  1  0
 18  6  1  0
 15  9  1  0
  3 19  1  0
  4 20  1  0
  5 21  1  0
  7 22  1  0
 10 23  1  0
 11 24  1  0
 13 25  1  0
 14 26  1  0
 15 27  1  0
 16 28  1  0
 17 29  1  0
M  CHG  1   1  -1
M  END
>  <UniqueID>  (24) 
24

>  <SMILES>  (24) 
[O-]c1cccc2cc(-c3ccc(O)cc3)ccc12

>  <Energy>  (24) 
40.86275537057885

>  <Genealogy>  (24) 
[O-]c1cccc2cc(-c3ccc(O)cc3)ccc12 (protonated)
[O-]c1cccc2cc(-c3ccc(O)cc3)ccc12 (3D coordinates assigned)
[O-]c1cccc2cc(-c3ccc(O)cc3)ccc12 (optimized conformer: 40.86275537057885 kcal/mol)

>  <smiles>  (24) 
Oc1ccc(-c2ccc3c(O)cccc3c2)cc1

>  <score_type>  (24) 
oracle

>  <origin>  (24) 
adgpu

>  <m_score__min__energy>  (24) 
-10.52

>  <m_primary>  (24) 
energy

$$$$
24:0
     RDKit          3D

 49 51  0  0  0  0  0  0  0  0999 V2000
   -5.7950   20.8710  -32.7530 C   0  0  0  0  0  0  0  0  0  0  0  0
   -6.4730   22.0720  -32.1040 C   0  0  0  0  0  0  0  0  0  0  0  0
   -5.4700   22.9080  -31.3550 C   0  0  0  0  0  0  0  0  0  0  0  0
   -4.0980   22.6320  -31.4600 C   0  0  0  0  0  0  0  0  0  0  0  0
   -3.1650   23.4270  -30.7880 C   0  0  0  0  0  0  0  0  0  0  0  0
   -3.5850   24.5230  -30.0220 C   0  0  0  0  0  0  0  0  0  0  0  0
   -2.5950   25.3000  -29.3360 N   0  0  0  0  0  0  0  0  0  0  0  0
   -1.2770   24.8740  -28.9620 C   0  0  0  0  0  0  0  0  0  0  0  0
   -0.6330   24.0750  -29.6930 O   0  0  0  0  0  0  0  0  0  0  0  0
   -0.6670   25.3100  -27.6610 C   0  0  0  0  0  0  0  0  0  0  0  0
   -1.2960   24.3670  -26.2240 S   0  0  0  0  0  0  0  0  0  0  0  0
   -1.8990   22.9870  -27.2040 C   0  0  0  0  0  0  0  0  0  0  0  0
   -3.2040   22.7600  -27.4440 N   0  0  0  0  0  0  0  0  0  0  0  0
   -3.2730   21.6810  -28.2110 N   0  0  0  0  0  0  0  0  0  0  0  0
   -2.0090   21.2710  -28.4280 C   0  0  0  0  0  0  0  0  0  0  0  0
   -1.6590   20.0650  -29.2480 C   0  0  0  0  0  0  0  0  0  0  0  0
   -2.3500   20.0960  -30.5380 N   0  0  0  0  0  0  0  0  0  0  0  0
   -1.6890   20.3980  -31.7810 C   0  0  0  0  0  0  0  0  0  0  0  0
   -0.3760   20.9090  -31.8190 C   0  0  0  0  0  0  0  0  0  0  0  0
    0.2370   21.1920  -33.0430 C   0  0  0  0  0  0  0  0  0  0  0  0
   -0.4490   20.9700  -34.2410 C   0  0  0  0  0  0  0  0  0  0  0  0
    0.3240   21.3250  -35.7750 Cl  0  0  0  0  0  0  0  0  0  0  0  0
   -1.7520   20.4650  -34.2140 C   0  0  0  0  0  0  0  0  0  0  0  0
   -2.3690   20.1810  -32.9910 C   0  0  0  0  0  0  0  0  0  0  0  0
   -1.1200   22.0570  -27.7870 N   0  0  0  0  0  0  0  0  0  0  0  0
    0.3390   22.0020  -27.8350 C   0  0  0  0  0  0  0  0  0  0  0  0
   -4.9610   24.7930  -29.9060 C   0  0  0  0  0  0  0  0  0  0  0  0
   -5.8950   23.9980  -30.5780 C   0  0  0  0  0  0  0  0  0  0  0  0
   -5.4148   20.1976  -31.9707 H   0  0  0  0  0  0  0  0  0  0  0  0
   -6.5226   20.3328  -33.3783 H   0  0  0  0  0  0  0  0  0  0  0  0
   -4.9583   21.2159  -33.3783 H   0  0  0  0  0  0  0  0  0  0  0  0
   -6.9440   22.6867  -32.8852 H   0  0  0  0  0  0  0  0  0  0  0  0
   -7.2317   21.7096  -31.3948 H   0  0  0  0  0  0  0  0  0  0  0  0
   -3.7552   21.7861  -32.0740 H   0  0  0  0  0  0  0  0  0  0  0  0
   -2.0932   23.1906  -30.8609 H   0  0  0  0  0  0  0  0  0  0  0  0
    0.4226   25.1718  -27.7211 H   0  0  0  0  0  0  0  0  0  0  0  0
   -0.9395   26.3645  -27.5071 H   0  0  0  0  0  0  0  0  0  0  0  0
   -0.5728   20.0491  -29.4209 H   0  0  0  0  0  0  0  0  0  0  0  0
   -1.9726   19.1634  -28.7013 H   0  0  0  0  0  0  0  0  0  0  0  0
   -3.3740   19.8800  -30.5650 H   0  0  0  0  0  0  0  0  0  0  0  0
    0.1694   21.0861  -30.8803 H   0  0  0  0  0  0  0  0  0  0  0  0
    1.2621   21.5905  -33.0638 H   0  0  0  0  0  0  0  0  0  0  0  0
   -2.2931   20.2906  -35.1557 H   0  0  0  0  0  0  0  0  0  0  0  0
   -3.3950   19.7845  -32.9767 H   0  0  0  0  0  0  0  0  0  0  0  0
    0.7393   21.9869  -26.8105 H   0  0  0  0  0  0  0  0  0  0  0  0
    0.6544   21.0913  -28.3653 H   0  0  0  0  0  0  0  0  0  0  0  0
    0.7220   22.8863  -28.3653 H   0  0  0  0  0  0  0  0  0  0  0  0
   -5.3036   25.6331  -29.2840 H   0  0  0  0  0  0  0  0  0  0  0  0
   -6.9678   24.2276  -30.4976 H   0  0  0  0  0  0  0  0  0  0  0  0
  1  2  1  0
  2  3  1  0
  3  4  2  0
  4  5  1  0
  5  6  2  0
  6  7  1  0
  7  8  1  0
  8  9  2  0
  8 10  1  0
 10 11  1  0
 11 12  1  0
 12 13  2  0
 13 14  1  0
 14 15  2  0
 15 16  1  0
 16 17  1  0
 17 18  1  0
 18 19  2  0
 19 20  1  0
 20 21  2  0
 21 22  1  0
 21 23  1  0
 23 24  2  0
 15 25  1  0
 25 26  1  0
  6 27  1  0
 27 28  2  0
 28  3  1  0
 25 12  1  0
 24 18  1  0
  1 29  1  0
  1 30  1  0
  1 31  1  0
  2 32  1  0
  2 33  1  0
  4 34  1  0
  5 35  1  0
 10 36  1  0
 10 37  1  0
 16 38  1  0
 16 39  1  0
 17 40  1  0
 19 41  1  0
 20 42  1  0
 23 43  1  0
 24 44  1  0
 26 45  1  0
 26 46  1  0
 26 47  1  0
 27 48  1  0
 28 49  1  0
M  CHG  1   7  -1
M  END
>  <UniqueID>  (25) 
25

>  <SMILES>  (25) 
CCc1ccc([N-]C(=O)CSc2nnc(CNc3ccc(Cl)cc3)n2C)cc1

>  <Energy>  (25) 
80.83854723346705

>  <Genealogy>  (25) 
CCc1ccc([N-]C(=O)CSc2nnc(CNc3ccc(Cl)cc3)n2C)cc1 (protonated)
CCc1ccc([N-]C(=O)CSc2nnc(CNc3ccc(Cl)cc3)n2C)cc1 (3D coordinates assigned)
CCc1ccc([N-]C(=O)CSc2nnc(CNc3ccc(Cl)cc3)n2C)cc1 (optimized conformer: 80.83854723346705 kcal/mol)

>  <smiles>  (25) 
CCc1ccc(NC(=O)CSc2nnc(CNc3ccc(Cl)cc3)n2C)cc1

>  <score_type>  (25) 
oracle

>  <origin>  (25) 
adgpu

>  <m_score__min__energy>  (25) 
-10.99

>  <m_primary>  (25) 
energy

$$$$
25:0
     RDKit          3D

 47 49  0  0  0  0  0  0  0  0999 V2000
   -1.6214   17.5982  -26.0015 H   0  0  0  0  0  0  0  0  0  0  0  0
   -1.4890   18.4300  -26.7090 C   0  0  0  0  0  0  0  0  0  0  0  0
   -0.4840   18.3900  -27.6220 N   0  0  0  0  0  0  0  0  0  0  0  0
   -0.2930   19.3960  -28.5150 C   0  0  0  0  0  0  0  0  0  0  0  0
    0.5337   19.3372  -29.2382 H   0  0  0  0  0  0  0  0  0  0  0  0
   -1.1430   20.5050  -28.5180 C   0  0  0  0  0  0  0  0  0  0  0  0
   -0.9926   21.3169  -29.2448 H   0  0  0  0  0  0  0  0  0  0  0  0
   -2.1950   20.5750  -27.5820 C   0  0  0  0  0  0  0  0  0  0  0  0
   -2.9970   21.6010  -27.5010 N   0  0  0  0  0  0  0  0  0  0  0  0
   -3.0310   22.7230  -28.3900 C   0  0  0  0  0  0  0  0  0  0  0  0
   -3.8630   22.7280  -29.4670 N   0  0  0  0  0  0  0  0  0  0  0  0
   -3.9190   23.7960  -30.3110 C   0  0  0  0  0  0  0  0  0  0  0  0
   -4.7450   23.8300  -31.3150 N   0  0  0  0  0  0  0  0  0  0  0  0
   -5.6660   22.8150  -31.7540 C   0  0  0  0  0  0  0  0  0  0  0  0
   -5.1540   21.7340  -32.4710 C   0  0  0  0  0  0  0  0  0  0  0  0
   -4.0781   21.6941  -32.6963 H   0  0  0  0  0  0  0  0  0  0  0  0
   -5.9920   20.6950  -32.9100 C   0  0  0  0  0  0  0  0  0  0  0  0
   -5.4980   19.6060  -33.6460 O   0  0  0  0  0  0  0  0  0  0  0  0
   -4.8540   18.4690  -33.0790 C   0  0  0  0  0  0  0  0  0  0  0  0
   -4.8917   18.5355  -31.9817 H   0  0  0  0  0  0  0  0  0  0  0  0
   -5.3680   17.5541  -33.4087 H   0  0  0  0  0  0  0  0  0  0  0  0
   -3.8050   18.4394  -33.4087 H   0  0  0  0  0  0  0  0  0  0  0  0
   -7.3630   20.7280  -32.6150 C   0  0  0  0  0  0  0  0  0  0  0  0
   -8.1380   19.6560  -33.0990 O   0  0  0  0  0  0  0  0  0  0  0  0
   -8.9970   18.8160  -32.3360 C   0  0  0  0  0  0  0  0  0  0  0  0
   -8.8208   18.9883  -31.2640 H   0  0  0  0  0  0  0  0  0  0  0  0
  -10.0450   19.0474  -32.5772 H   0  0  0  0  0  0  0  0  0  0  0  0
   -8.7891   17.7631  -32.5772 H   0  0  0  0  0  0  0  0  0  0  0  0
   -7.8940   21.8070  -31.8610 C   0  0  0  0  0  0  0  0  0  0  0  0
   -9.2620   21.8360  -31.5530 O   0  0  0  0  0  0  0  0  0  0  0  0
   -9.8190   21.5690  -30.2710 C   0  0  0  0  0  0  0  0  0  0  0  0
   -9.1200   21.9041  -29.4905 H   0  0  0  0  0  0  0  0  0  0  0  0
  -10.7720   22.1082  -30.1658 H   0  0  0  0  0  0  0  0  0  0  0  0
   -9.9955   20.4884  -30.1658 H   0  0  0  0  0  0  0  0  0  0  0  0
   -7.0310   22.8350  -31.4260 C   0  0  0  0  0  0  0  0  0  0  0  0
   -7.4326   23.6623  -30.8224 H   0  0  0  0  0  0  0  0  0  0  0  0
   -3.1400   24.8830  -30.0640 N   0  0  0  0  0  0  0  0  0  0  0  0
   -2.3100   24.9310  -28.9870 C   0  0  0  0  0  0  0  0  0  0  0  0
   -1.5180   26.0570  -28.7420 O   0  0  0  0  0  0  0  0  0  0  0  0
   -0.8620   26.2800  -27.4990 C   0  0  0  0  0  0  0  0  0  0  0  0
   -1.5506   26.0459  -26.6738 H   0  0  0  0  0  0  0  0  0  0  0  0
    0.0249   25.6329  -27.4312 H   0  0  0  0  0  0  0  0  0  0  0  0
   -0.5532   27.3336  -27.4312 H   0  0  0  0  0  0  0  0  0  0  0  0
   -2.2520   23.8470  -28.1130 C   0  0  0  0  0  0  0  0  0  0  0  0
   -1.6056   23.8769  -27.2234 H   0  0  0  0  0  0  0  0  0  0  0  0
   -2.3550   19.5260  -26.6670 C   0  0  0  0  0  0  0  0  0  0  0  0
   -3.1597   19.5650  -25.9180 H   0  0  0  0  0  0  0  0  0  0  0  0
  1  2  1  0
  2  3  1  0
  3  4  1  0
  4  5  1  0
  4  6  2  0
  6  7  1  0
  6  8  1  0
  8  9  2  3
  9 10  1  0
 10 11  1  0
 11 12  1  0
 12 13  2  0
 13 14  1  0
 14 15  2  0
 15 16  1  0
 15 17  1  0
 17 18  1  0
 18 19  1  0
 19 20  1  0
 19 21  1  0
 19 22  1  0
 17 23  2  0
 23 24  1  0
 24 25  1  0
 25 26  1  0
 25 27  1  0
 25 28  1  0
 23 29  1  0
 29 30  1  0
 30 31  1  0
 31 32  1  0
 31 33  1  0
 31 34  1  0
 29 35  2  0
 35 36  1  0
 12 37  1  0
 37 38  2  0
 38 39  1  0
 39 40  1  0
 40 41  1  0
 40 42  1  0
 40 43  1  0
 38 44  1  0
 44 45  1  0
  8 46  1  0
 46 47  1  0
 46  2  2  0
 44 10  2  0
 35 14  1  0
M  CHG  2   3  -1  11  -1
M  END
>  <UniqueID>  (26) 
26

>  <SMILES>  (26) 
COc1cc(N=c2cc[n-]cc2)[n-]/c(=N\c2cc(OC)c(OC)c(OC)c2)n1

>  <Energy>  (26) 
64.0152362750359

>  <Genealogy>  (26) 
COc1cc(N=c2cc[n-]cc2)[n-]c(=Nc2cc(OC)c(OC)c(OC)c2)n1 (protonated)
COc1cc(N=c2cc[n-]cc2)[n-]/c(=N\c2cc(OC)c(OC)c(OC)c2)n1 (cis-trans isomerization)
COc1cc(N=c2cc[n-]cc2)[n-]/c(=N\c2cc(OC)c(OC)c(OC)c2)n1 (3D coordinates assigned)
COc1cc(N=c2cc[n-]cc2)[n-]/c(=N\c2cc(OC)c(OC)c(OC)c2)n1 (optimized conformer: 64.0152362750359 kcal/mol)

>  <smiles>  (26) 
COc1cc(N=c2cc[nH]cc2)[nH]c(=Nc2cc(OC)c(OC)c(OC)c2)n1

>  <score_type>  (26) 
oracle

>  <origin>  (26) 
adgpu

>  <m_score__min__energy>  (26) 
-8.5

>  <m_primary>  (26) 
energy

$$$$
26:0
     RDKit          3D

 51 54  0  0  0  0  0  0  0  0999 V2000
   -9.4810   22.9870  -32.3050 C   0  0  0  0  0  0  0  0  0  0  0  0
   -8.1330   23.4350  -31.9810 N   0  0  0  0  0  0  0  0  0  0  0  0
   -7.4780   23.0340  -30.7670 C   0  0  0  0  0  0  0  0  0  0  0  0
   -8.0200   22.1680  -30.0280 O   0  0  0  0  0  0  0  0  0  0  0  0
   -6.1660   23.6060  -30.3760 C   0  0  0  0  0  0  0  0  0  0  0  0
   -5.6330   24.6930  -31.0890 C   0  0  0  0  0  0  0  0  0  0  0  0
   -4.3970   25.2400  -30.7320 C   0  0  0  0  0  0  0  0  0  0  0  0
   -3.6770   24.7180  -29.6530 C   0  0  0  0  0  0  0  0  0  0  0  0
   -2.4060   25.2970  -29.3220 N   0  0  0  0  0  0  0  0  0  0  0  0
   -1.2070   24.5760  -29.0040 C   0  0  0  0  0  0  0  0  0  0  0  0
   -0.2550   25.2010  -28.4630 O   0  0  0  0  0  0  0  0  0  0  0  0
   -1.0780   23.1200  -29.2420 C   0  0  0  0  0  0  0  0  0  0  0  0
   -0.3010   22.3170  -28.3900 C   0  0  0  0  0  0  0  0  0  0  0  0
   -0.1740   20.9480  -28.6300 C   0  0  0  0  0  0  0  0  0  0  0  0
   -0.8180   20.3630  -29.7220 C   0  0  0  0  0  0  0  0  0  0  0  0
   -1.6040   21.1450  -30.5850 C   0  0  0  0  0  0  0  0  0  0  0  0
   -2.2440   20.5360  -31.7210 N   0  0  0  0  0  0  0  0  0  0  0  0
   -3.5570   20.2950  -31.6470 N   0  0  0  0  0  0  0  0  0  0  0  0
   -4.2590   19.7190  -32.6620 C   0  0  0  0  0  0  0  0  0  0  0  0
   -5.7180   19.4890  -32.5000 C   0  0  0  0  0  0  0  0  0  0  0  0
   -6.6680   20.3770  -33.0430 C   0  0  0  0  0  0  0  0  0  0  0  0
   -8.0360   20.1340  -32.8850 C   0  0  0  0  0  0  0  0  0  0  0  0
   -8.4730   19.0030  -32.1910 C   0  0  0  0  0  0  0  0  0  0  0  0
   -7.5420   18.1100  -31.6580 C   0  0  0  0  0  0  0  0  0  0  0  0
   -6.1730   18.3470  -31.8130 C   0  0  0  0  0  0  0  0  0  0  0  0
   -3.5780   19.3800  -33.8390 C   0  0  0  0  0  0  0  0  0  0  0  0
   -2.2160   19.6370  -33.9350 C   0  0  0  0  0  0  0  0  0  0  0  0
   -1.5500   20.2280  -32.8620 C   0  0  0  0  0  0  0  0  0  0  0  0
   -0.3210   20.4930  -32.9690 O   0  0  0  0  0  0  0  0  0  0  0  0
   -1.7120   22.5280  -30.3490 C   0  0  0  0  0  0  0  0  0  0  0  0
   -4.1860   23.6080  -28.9600 C   0  0  0  0  0  0  0  0  0  0  0  0
   -5.4220   23.0600  -29.3140 C   0  0  0  0  0  0  0  0  0  0  0  0
  -10.0391   22.8015  -31.3754 H   0  0  0  0  0  0  0  0  0  0  0  0
   -9.9941   23.7629  -32.8921 H   0  0  0  0  0  0  0  0  0  0  0  0
   -9.4276   22.0583  -32.8921 H   0  0  0  0  0  0  0  0  0  0  0  0
   -7.6290   24.0230  -32.6820 H   0  0  0  0  0  0  0  0  0  0  0  0
   -6.1930   25.1173  -31.9354 H   0  0  0  0  0  0  0  0  0  0  0  0
   -3.9883   26.0864  -31.3035 H   0  0  0  0  0  0  0  0  0  0  0  0
    0.2106   22.7704  -27.5282 H   0  0  0  0  0  0  0  0  0  0  0  0
    0.4356   20.3277  -27.9565 H   0  0  0  0  0  0  0  0  0  0  0  0
   -0.7094   19.2842  -29.9077 H   0  0  0  0  0  0  0  0  0  0  0  0
   -6.3313   21.2671  -33.5947 H   0  0  0  0  0  0  0  0  0  0  0  0
   -8.7701   20.8353  -33.3083 H   0  0  0  0  0  0  0  0  0  0  0  0
   -9.5497   18.8164  -32.0647 H   0  0  0  0  0  0  0  0  0  0  0  0
   -7.8863   17.2177  -31.1147 H   0  0  0  0  0  0  0  0  0  0  0  0
   -5.4454   17.6358  -31.3950 H   0  0  0  0  0  0  0  0  0  0  0  0
   -4.1163   18.9152  -34.6782 H   0  0  0  0  0  0  0  0  0  0  0  0
   -1.6666   19.3759  -34.8515 H   0  0  0  0  0  0  0  0  0  0  0  0
   -2.2989   23.1531  -31.0381 H   0  0  0  0  0  0  0  0  0  0  0  0
   -3.6087   23.1672  -28.1339 H   0  0  0  0  0  0  0  0  0  0  0  0
   -5.8158   22.1960  -28.7586 H   0  0  0  0  0  0  0  0  0  0  0  0
  1  2  1  0
  2  3  1  0
  3  4  2  0
  3  5  1  0
  5  6  2  0
  6  7  1  0
  7  8  2  0
  8  9  1  0
  9 10  1  0
 10 11  2  0
 10 12  1  0
 12 13  2  0
 13 14  1  0
 14 15  2  0
 15 16  1  0
 16 17  1  0
 17 18  1  0
 18 19  2  0
 19 20  1  0
 20 21  2  0
 21 22  1  0
 22 23  2  0
 23 24  1  0
 24 25  2  0
 19 26  1  0
 26 27  2  0
 27 28  1  0
 28 29  2  0
 16 30  2  0
  8 31  1  0
 31 32  2  0
 32  5  1  0
 30 12  1  0
 28 17  1  0
 25 20  1  0
  1 33  1  0
  1 34  1  0
  1 35  1  0
  2 36  1  0
  6 37  1  0
  7 38  1  0
 13 39  1  0
 14 40  1  0
 15 41  1  0
 21 42  1  0
 22 43  1  0
 23 44  1  0
 24 45  1  0
 25 46  1  0
 26 47  1  0
 27 48  1  0
 30 49  1  0
 31 50  1  0
 32 51  1  0
M  CHG  1   9  -1
M  END
>  <UniqueID>  (27) 
27

>  <SMILES>  (27) 
CNC(=O)c1ccc([N-]C(=O)c2cccc(-n3nc(-c4ccccc4)ccc3=O)c2)cc1

>  <Energy>  (27) 
73.91819686178764

>  <Genealogy>  (27) 
CNC(=O)c1ccc([N-]C(=O)c2cccc(-n3nc(-c4ccccc4)ccc3=O)c2)cc1 (protonated)
CNC(=O)c1ccc([N-]C(=O)c2cccc(-n3nc(-c4ccccc4)ccc3=O)c2)cc1 (3D coordinates assigned)
CNC(=O)c1ccc([N-]C(=O)c2cccc(-n3nc(-c4ccccc4)ccc3=O)c2)cc1 (optimized conformer: 73.91819686178764 kcal/mol)

>  <smiles>  (27) 
CNC(=O)c1ccc(NC(=O)c2cccc(-n3nc(-c4ccccc4)ccc3=O)c2)cc1

>  <score_type>  (27) 
oracle

>  <origin>  (27) 
adgpu

>  <m_score__min__energy>  (27) 
-11.56

>  <m_primary>  (27) 
energy

$$$$
27:0
     RDKit          3D

 35 36  0  0  0  0  0  0  0  0999 V2000
   -9.1100   19.6780  -32.1670 C   0  0  0  0  0  0  0  0  0  0  0  0
   -8.0420   20.7360  -32.0780 C   0  0  0  0  0  0  0  0  0  0  0  0
   -8.3250   21.9480  -31.4260 C   0  0  0  0  0  0  0  0  0  0  0  0
   -7.3560   22.9470  -31.3310 C   0  0  0  0  0  0  0  0  0  0  0  0
   -6.0900   22.7630  -31.8940 C   0  0  0  0  0  0  0  0  0  0  0  0
   -5.1190   23.8110  -31.7570 N   0  0  0  0  0  0  0  0  0  0  0  0
   -4.5270   24.2650  -30.5340 C   0  0  0  0  0  0  0  0  0  0  0  0
   -3.8630   25.3360  -30.5030 O   0  0  0  0  0  0  0  0  0  0  0  0
   -4.7430   23.5190  -29.3310 N   0  0  0  0  0  0  0  0  0  0  0  0
   -4.1340   23.8850  -28.0560 C   0  0  0  0  0  0  0  0  0  0  0  0
   -2.6480   24.0620  -28.2200 C   0  0  0  0  0  0  0  0  0  0  0  0
   -1.9840   25.1410  -27.6190 C   0  0  0  0  0  0  0  0  0  0  0  0
   -0.6090   25.2950  -27.8110 C   0  0  0  0  0  0  0  0  0  0  0  0
    0.0760   24.4070  -28.5820 N   0  0  0  0  0  0  0  0  0  0  0  0
   -0.5450   23.3560  -29.1800 C   0  0  0  0  0  0  0  0  0  0  0  0
   -1.9180   23.1640  -29.0130 C   0  0  0  0  0  0  0  0  0  0  0  0
   -5.7850   21.5440  -32.5200 C   0  0  0  0  0  0  0  0  0  0  0  0
   -6.7520   20.5270  -32.6230 C   0  0  0  0  0  0  0  0  0  0  0  0
   -6.3960   19.2340  -33.3090 C   0  0  0  0  0  0  0  0  0  0  0  0
   -9.4136   19.3773  -31.1534 H   0  0  0  0  0  0  0  0  0  0  0  0
   -9.9804   20.0800  -32.7063 H   0  0  0  0  0  0  0  0  0  0  0  0
   -8.7162   18.8039  -32.7063 H   0  0  0  0  0  0  0  0  0  0  0  0
   -9.3201   22.1107  -30.9863 H   0  0  0  0  0  0  0  0  0  0  0  0
   -7.5900   23.8866  -30.8091 H   0  0  0  0  0  0  0  0  0  0  0  0
   -5.3520   22.6700  -29.3700 H   0  0  0  0  0  0  0  0  0  0  0  0
   -4.5749   24.8279  -27.7004 H   0  0  0  0  0  0  0  0  0  0  0  0
   -4.3211   23.0834  -27.3263 H   0  0  0  0  0  0  0  0  0  0  0  0
   -2.5415   25.8604  -27.0013 H   0  0  0  0  0  0  0  0  0  0  0  0
   -0.0791   26.1352  -27.3384 H   0  0  0  0  0  0  0  0  0  0  0  0
    0.0357   22.6547  -29.7972 H   0  0  0  0  0  0  0  0  0  0  0  0
   -2.4228   22.3161  -29.4990 H   0  0  0  0  0  0  0  0  0  0  0  0
   -4.7790   21.3821  -32.9345 H   0  0  0  0  0  0  0  0  0  0  0  0
   -6.1840   18.4639  -32.5527 H   0  0  0  0  0  0  0  0  0  0  0  0
   -7.2380   18.9085  -33.9376 H   0  0  0  0  0  0  0  0  0  0  0  0
   -5.5061   19.3854  -33.9376 H   0  0  0  0  0  0  0  0  0  0  0  0
  1  2  1  0
  2  3  2  0
  3  4  1  0
  4  5  2  0
  5  6  1  0
  6  7  1  0
  7  8  2  0
  7  9  1  0
  9 10  1  0
 10 11  1  0
 11 12  2  0
 12 13  1  0
 13 14  2  0
 14 15  1  0
 15 16  2  0
  5 17  1  0
 17 18  2  0
 18 19  1  0
 18  2  1  0
 16 11  1  0
  1 20  1  0
  1 21  1  0
  1 22  1  0
  3 23  1  0
  4 24  1  0
  9 25  1  0
 10 26  1  0
 10 27  1  0
 12 28  1  0
 13 29  1  0
 15 30  1  0
 16 31  1  0
 17 32  1  0
 19 33  1  0
 19 34  1  0
 19 35  1  0
M  CHG  1   6  -1
M  END
>  <UniqueID>  (28) 
28

>  <SMILES>  (28) 
Cc1ccc([N-]C(=O)NCc2ccncc2)cc1C

>  <Energy>  (28) 
36.67366266575192

>  <Genealogy>  (28) 
Cc1ccc([N-]C(=O)NCc2ccncc2)cc1C (protonated)
Cc1ccc([N-]C(=O)NCc2ccncc2)cc1C (3D coordinates assigned)
Cc1ccc([N-]C(=O)NCc2ccncc2)cc1C (optimized conformer: 36.67366266575192 kcal/mol)

>  <smiles>  (28) 
Cc1ccc(NC(=O)NCc2ccncc2)cc1C

>  <score_type>  (28) 
oracle

>  <origin>  (28) 
adgpu

>  <m_score__min__energy>  (28) 
-8.8200000000000003

>  <m_primary>  (28) 
energy

$$$$
28:0
     RDKit          3D

 62 65  0  0  0  0  0  0  0  0999 V2000
    3.4400   25.2520  -26.0860 C   0  0  0  0  0  0  0  0  0  0  0  0
    2.8420   25.2650  -24.7920 O   0  0  0  0  0  0  0  0  0  0  0  0
    1.5080   25.6630  -24.5310 C   0  0  0  0  0  0  0  0  0  0  0  0
    1.2000   26.8660  -23.8530 C   0  0  0  0  0  0  0  0  0  0  0  0
   -0.1400   27.2340  -23.6310 C   0  0  0  0  0  0  0  0  0  0  0  0
   -1.1760   26.4260  -24.0950 C   0  0  0  0  0  0  0  0  0  0  0  0
   -0.8830   25.2270  -24.7570 C   0  0  0  0  0  0  0  0  0  0  0  0
    0.4540   24.8410  -24.9790 C   0  0  0  0  0  0  0  0  0  0  0  0
    0.7580   23.5880  -25.6020 N   0  0  0  0  0  0  0  0  0  0  0  0
    0.4860   23.2930  -27.2890 S   0  0  0  0  0  0  0  0  0  0  0  0
    1.4140   22.2070  -27.7690 O   0  0  0  0  0  0  0  0  0  0  0  0
    0.8090   24.5540  -28.0490 O   0  0  0  0  0  0  0  0  0  0  0  0
   -1.1900   22.8060  -27.5860 C   0  0  0  0  0  0  0  0  0  0  0  0
   -2.1500   23.8050  -27.7910 C   0  0  0  0  0  0  0  0  0  0  0  0
   -3.4930   23.4900  -28.0140 C   0  0  0  0  0  0  0  0  0  0  0  0
   -4.4170   24.5560  -28.2990 N   0  0  0  0  0  0  0  0  0  0  0  0
   -5.1210   24.8560  -29.8610 S   0  0  0  0  0  0  0  0  0  0  0  0
   -6.0860   26.0190  -29.7530 O   0  0  0  0  0  0  0  0  0  0  0  0
   -4.0260   25.2050  -30.8460 O   0  0  0  0  0  0  0  0  0  0  0  0
   -5.9430   23.4020  -30.4280 C   0  0  0  0  0  0  0  0  0  0  0  0
   -7.3440   23.3230  -30.3730 C   0  0  0  0  0  0  0  0  0  0  0  0
   -8.0100   22.2000  -30.8820 C   0  0  0  0  0  0  0  0  0  0  0  0
   -7.2810   21.1620  -31.4860 C   0  0  0  0  0  0  0  0  0  0  0  0
   -8.1210   19.7710  -32.1670 S   0  0  0  0  0  0  0  0  0  0  0  0
   -9.2010   20.2420  -33.1020 O   0  0  0  0  0  0  0  0  0  0  0  0
   -8.7590   18.9900  -31.0520 O   0  0  0  0  0  0  0  0  0  0  0  0
   -6.9820   18.7560  -33.0130 N   0  0  0  0  0  0  0  0  0  0  0  0
   -6.0380   18.1440  -32.0790 C   0  0  0  0  0  0  0  0  0  0  0  0
   -4.7800   17.8690  -32.8830 C   0  0  0  0  0  0  0  0  0  0  0  0
   -4.7420   18.9930  -33.8960 C   0  0  0  0  0  0  0  0  0  0  0  0
   -6.1740   19.5290  -33.9690 C   0  0  0  0  0  0  0  0  0  0  0  0
   -5.8820   21.2340  -31.5290 C   0  0  0  0  0  0  0  0  0  0  0  0
   -5.2140   22.3470  -30.9920 C   0  0  0  0  0  0  0  0  0  0  0  0
   -3.8960   22.1500  -27.9620 C   0  0  0  0  0  0  0  0  0  0  0  0
   -2.9540   21.1360  -27.7530 C   0  0  0  0  0  0  0  0  0  0  0  0
   -1.5940   21.4470  -27.5920 C   0  0  0  0  0  0  0  0  0  0  0  0
   -0.6070   20.3300  -27.3810 C   0  0  0  0  0  0  0  0  0  0  0  0
    4.5350   25.2282  -25.9837 H   0  0  0  0  0  0  0  0  0  0  0  0
    3.1037   24.3610  -26.6364 H   0  0  0  0  0  0  0  0  0  0  0  0
    3.1427   26.1568  -26.6364 H   0  0  0  0  0  0  0  0  0  0  0  0
    2.0123   27.5171  -23.4975 H   0  0  0  0  0  0  0  0  0  0  0  0
   -0.3704   28.1631  -23.0891 H   0  0  0  0  0  0  0  0  0  0  0  0
   -2.2222   26.7293  -23.9417 H   0  0  0  0  0  0  0  0  0  0  0  0
   -1.7026   24.5818  -25.1062 H   0  0  0  0  0  0  0  0  0  0  0  0
   -1.8401   24.8603  -27.7761 H   0  0  0  0  0  0  0  0  0  0  0  0
   -7.9215   24.1468  -29.9281 H   0  0  0  0  0  0  0  0  0  0  0  0
   -9.1054   22.1311  -30.8085 H   0  0  0  0  0  0  0  0  0  0  0  0
   -5.8195   18.8323  -31.2492 H   0  0  0  0  0  0  0  0  0  0  0  0
   -6.4455   17.2228  -31.6371 H   0  0  0  0  0  0  0  0  0  0  0  0
   -3.8897   17.8938  -32.2374 H   0  0  0  0  0  0  0  0  0  0  0  0
   -4.7861   16.8745  -33.3530 H   0  0  0  0  0  0  0  0  0  0  0  0
   -4.0522   19.7839  -33.5665 H   0  0  0  0  0  0  0  0  0  0  0  0
   -4.3868   18.6451  -34.8772 H   0  0  0  0  0  0  0  0  0  0  0  0
   -6.1906   20.5953  -33.6995 H   0  0  0  0  0  0  0  0  0  0  0  0
   -6.5753   19.4276  -34.9881 H   0  0  0  0  0  0  0  0  0  0  0  0
   -5.3049   20.4160  -31.9849 H   0  0  0  0  0  0  0  0  0  0  0  0
   -4.1151   22.3903  -31.0144 H   0  0  0  0  0  0  0  0  0  0  0  0
   -4.9583   21.8929  -28.0860 H   0  0  0  0  0  0  0  0  0  0  0  0
   -3.2817   20.0867  -27.7145 H   0  0  0  0  0  0  0  0  0  0  0  0
   -0.4629   20.1669  -26.3028 H   0  0  0  0  0  0  0  0  0  0  0  0
   -0.9915   19.4088  -27.8430 H   0  0  0  0  0  0  0  0  0  0  0  0
    0.3546   20.5982  -27.8430 H   0  0  0  0  0  0  0  0  0  0  0  0
  1  2  1  0
  2  3  1  0
  3  4  2  0
  4  5  1  0
  5  6  2  0
  6  7  1  0
  7  8  2  0
  8  9  1  0
  9 10  1  0
 10 11  2  0
 10 12  2  0
 10 13  1  0
 13 14  2  0
 14 15  1  0
 15 16  1  0
 16 17  1  0
 17 18  2  0
 17 19  2  0
 17 20  1  0
 20 21  2  0
 21 22  1  0
 22 23  2  0
 23 24  1  0
 24 25  2  0
 24 26  2  0
 24 27  1  0
 27 28  1  0
 28 29  1  0
 29 30  1  0
 30 31  1  0
 23 32  1  0
 32 33  2  0
 15 34  2  0
 34 35  1  0
 35 36  2  0
 36 37  1  0
  8  3  1  0
 36 13  1  0
 33 20  1  0
 31 27  1  0
  1 38  1  0
  1 39  1  0
  1 40  1  0
  4 41  1  0
  5 42  1  0
  6 43  1  0
  7 44  1  0
 14 45  1  0
 21 46  1  0
 22 47  1  0
 28 48  1  0
 28 49  1  0
 29 50  1  0
 29 51  1  0
 30 52  1  0
 30 53  1  0
 31 54  1  0
 31 55  1  0
 32 56  1  0
 33 57  1  0
 34 58  1  0
 35 59  1  0
 37 60  1  0
 37 61  1  0
 37 62  1  0
M  CHG  2   9  -1  16  -1
M  END
>  <UniqueID>  (29) 
29

>  <SMILES>  (29) 
COc1ccccc1[N-]S(=O)(=O)c1cc([N-]S(=O)(=O)c2ccc(S(=O)(=O)N3CCCC3)cc2)ccc1C

>  <Energy>  (29) 
80.39798107527822

>  <Genealogy>  (29) 
COc1ccccc1[N-]S(=O)(=O)c1cc([N-]S(=O)(=O)c2ccc(S(=O)(=O)N3CCCC3)cc2)ccc1C (protonated)
COc1ccccc1[N-]S(=O)(=O)c1cc([N-]S(=O)(=O)c2ccc(S(=O)(=O)N3CCCC3)cc2)ccc1C (3D coordinates assigned)
COc1ccccc1[N-]S(=O)(=O)c1cc([N-]S(=O)(=O)c2ccc(S(=O)(=O)N3CCCC3)cc2)ccc1C (nonaromatic ring conformer: 80.39798107527822 kcal/mol)

>  <smiles>  (29) 
COc1ccccc1NS(=O)(=O)c1cc(NS(=O)(=O)c2ccc(S(=O)(=O)N3CCCC3)cc2)ccc1C

>  <score_type>  (29) 
oracle

>  <origin>  (29) 
adgpu

>  <m_score__min__energy>  (29) 
-13.01

>  <m_primary>  (29) 
energy

$$$$
29:0
     RDKit          3D

 28 30  0  0  0  0  0  0  0  0999 V2000
   -3.8650   25.6700  -30.3560 O   0  0  0  0  0  0  0  0  0  0  0  0
   -4.3720   24.4710  -30.8410 C   0  0  0  0  0  0  0  0  0  0  0  0
   -3.5420   23.3520  -30.9450 C   0  0  0  0  0  0  0  0  0  0  0  0
   -4.0490   22.1430  -31.4330 C   0  0  0  0  0  0  0  0  0  0  0  0
   -5.3980   22.0410  -31.8230 C   0  0  0  0  0  0  0  0  0  0  0  0
   -5.9560   20.7680  -32.3420 C   0  0  0  0  0  0  0  0  0  0  0  0
   -5.2900   19.5600  -32.4840 C   0  0  0  0  0  0  0  0  0  0  0  0
   -6.2400   18.7000  -33.0030 C   0  0  0  0  0  0  0  0  0  0  0  0
   -6.0180   17.2750  -33.3350 C   0  0  0  0  0  0  0  0  0  0  0  0
   -4.7930   16.6350  -33.0760 C   0  0  0  0  0  0  0  0  0  0  0  0
   -4.6390   15.2870  -33.4100 C   0  0  0  0  0  0  0  0  0  0  0  0
   -5.6960   14.5880  -33.9950 C   0  0  0  0  0  0  0  0  0  0  0  0
   -6.8980   15.2520  -34.2390 C   0  0  0  0  0  0  0  0  0  0  0  0
   -7.0300   16.5640  -33.9080 N   0  0  0  0  0  0  0  0  0  0  0  0
   -7.3960   19.3750  -33.1550 N   0  0  0  0  0  0  0  0  0  0  0  0
   -7.2320   20.6260  -32.7590 N   0  0  0  0  0  0  0  0  0  0  0  0
   -6.2240   23.1750  -31.7140 C   0  0  0  0  0  0  0  0  0  0  0  0
   -5.7120   24.3820  -31.2250 C   0  0  0  0  0  0  0  0  0  0  0  0
   -2.4868   23.4218  -30.6423 H   0  0  0  0  0  0  0  0  0  0  0  0
   -3.3894   21.2663  -31.5126 H   0  0  0  0  0  0  0  0  0  0  0  0
   -4.2413   19.3362  -32.2388 H   0  0  0  0  0  0  0  0  0  0  0  0
   -3.9633   17.1906  -32.6146 H   0  0  0  0  0  0  0  0  0  0  0  0
   -3.6848   14.7767  -33.2119 H   0  0  0  0  0  0  0  0  0  0  0  0
   -5.5824   13.5265  -34.2603 H   0  0  0  0  0  0  0  0  0  0  0  0
   -7.7396   14.7139  -34.6995 H   0  0  0  0  0  0  0  0  0  0  0  0
   -8.3000   19.0070  -33.5240 H   0  0  0  0  0  0  0  0  0  0  0  0
   -7.2800   23.1122  -32.0154 H   0  0  0  0  0  0  0  0  0  0  0  0
   -6.3662   25.2625  -31.1428 H   0  0  0  0  0  0  0  0  0  0  0  0
  1  2  1  0
  2  3  2  0
  3  4  1  0
  4  5  2  0
  5  6  1  0
  6  7  1  0
  7  8  2  0
  8  9  1  0
  9 10  2  0
 10 11  1  0
 11 12  2  0
 12 13  1  0
 13 14  2  0
  8 15  1  0
 15 16  1  0
  5 17  1  0
 17 18  2  0
 18  2  1  0
 16  6  2  0
 14  9  1  0
  3 19  1  0
  4 20  1  0
  7 21  1  0
 10 22  1  0
 11 23  1  0
 12 24  1  0
 13 25  1  0
 15 26  1  0
 17 27  1  0
 18 28  1  0
M  CHG  1   1  -1
M  END
>  <UniqueID>  (30) 
30

>  <SMILES>  (30) 
[O-]c1ccc(-c2cc(-c3ccccn3)[nH]n2)cc1

>  <Energy>  (30) 
63.75722157604157

>  <Genealogy>  (30) 
[O-]c1ccc(-c2cc(-c3ccccn3)[nH]n2)cc1 (protonated)
[O-]c1ccc(-c2cc(-c3ccccn3)[nH]n2)cc1 (3D coordinates assigned)
[O-]c1ccc(-c2cc(-c3ccccn3)[nH]n2)cc1 (optimized conformer: 63.75722157604157 kcal/mol)

>  <smiles>  (30) 
Oc1ccc(-c2cc(-c3ccccn3)[nH]n2)cc1

>  <score_type>  (30) 
oracle

>  <origin>  (30) 
adgpu

>  <m_score__min__energy>  (30) 
-9.6799999999999997

>  <m_primary>  (30) 
energy

$$$$
30:0
     RDKit          3D

 53 56  0  0  1  0  0  0  0  0999 V2000
   -3.0810   21.1910  -29.3280 C   0  0  0  0  0  0  0  0  0  0  0  0
   -3.0830   21.2790  -30.8570 C   0  0  0  0  0  0  0  0  0  0  0  0
   -4.4050   21.4820  -31.4530 N   0  0  0  0  0  0  0  0  0  0  0  0
   -4.9810   22.7560  -31.1630 C   0  0  0  0  0  0  0  0  0  0  0  0
   -4.1670   23.8010  -30.8420 N   0  0  0  0  0  0  0  0  0  0  0  0
   -4.6520   25.0310  -30.5910 C   0  0  0  0  0  0  0  0  0  0  0  0
   -6.0250   25.1610  -30.6770 C   0  0  0  0  0  0  0  0  0  0  0  0
   -6.8700   24.1250  -30.9960 C   0  0  0  0  0  0  0  0  0  0  0  0
   -6.3490   22.8820  -31.2490 C   0  0  0  0  0  0  0  0  0  0  0  0
   -7.2360   21.8410  -31.6020 N   0  0  0  0  0  0  0  0  0  0  0  0
   -8.6440   22.0460  -31.6570 C   0  0  0  0  0  0  0  0  0  0  0  0
   -6.6700   20.5830  -31.9000 C   0  0  0  0  0  0  0  0  0  0  0  0
   -7.4460   19.5080  -32.2490 N   0  0  0  0  0  0  0  0  0  0  0  0
   -6.9000   18.3120  -32.5460 C   0  0  0  0  0  0  0  0  0  0  0  0
   -5.5340   18.1170  -32.5280 N   0  0  0  0  0  0  0  0  0  0  0  0
   -4.8260   19.2060  -32.1820 C   0  0  0  0  0  0  0  0  0  0  0  0
   -3.6980   19.2710  -32.7320 N   0  0  0  0  0  0  0  0  0  0  0  0
   -2.5930   19.8390  -32.9540 C   0  0  0  0  0  0  0  0  0  0  0  0
   -2.4990   20.9870  -33.8040 C   0  0  0  0  0  0  0  0  0  0  0  0
   -1.2960   21.5310  -34.1490 C   0  0  0  0  0  0  0  0  0  0  0  0
   -0.1180   20.9920  -33.6910 C   0  0  0  0  0  0  0  0  0  0  0  0
    1.0550   21.6050  -34.0880 O   0  0  0  0  0  0  0  0  0  0  0  0
    1.5220   21.7380  -35.3960 C   0  0  0  0  0  0  0  0  0  0  0  0
    1.3960   23.0920  -35.9710 C   0  0  0  0  0  0  0  0  0  0  0  0
    2.3260   23.7390  -36.5020 O   0  0  0  0  0  0  0  0  0  0  0  0
    0.1190   23.7130  -35.9200 N   0  0  0  0  0  0  0  0  0  0  0  0
   -0.0210   25.0320  -36.4760 C   0  0  0  0  0  0  0  0  0  0  0  0
   -0.1590   19.8950  -32.8780 C   0  0  0  0  0  0  0  0  0  0  0  0
   -1.3340   19.3280  -32.5140 C   0  0  0  0  0  0  0  0  0  0  0  0
   -5.2790   20.4490  -31.8290 C   0  0  0  0  0  0  0  0  0  0  0  0
   -3.1040   22.2050  -28.9023 H   0  0  0  0  0  0  0  0  0  0  0  0
   -3.9667   20.6320  -28.9917 H   0  0  0  0  0  0  0  0  0  0  0  0
   -2.1708   20.6728  -28.9917 H   0  0  0  0  0  0  0  0  0  0  0  0
   -2.4399   22.1208  -31.1533 H   0  0  0  0  0  0  0  0  0  0  0  0
   -2.7197   20.3086  -31.2261 H   0  0  0  0  0  0  0  0  0  0  0  0
   -3.9982   25.8775  -30.3342 H   0  0  0  0  0  0  0  0  0  0  0  0
   -6.4664   26.1489  -30.4791 H   0  0  0  0  0  0  0  0  0  0  0  0
   -7.9561   24.2917  -31.0480 H   0  0  0  0  0  0  0  0  0  0  0  0
   -9.0462   22.1046  -30.6348 H   0  0  0  0  0  0  0  0  0  0  0  0
   -8.8573   22.9847  -32.1893 H   0  0  0  0  0  0  0  0  0  0  0  0
   -9.1162   21.2071  -32.1893 H   0  0  0  0  0  0  0  0  0  0  0  0
   -7.5589   17.4714  -32.8090 H   0  0  0  0  0  0  0  0  0  0  0  0
   -5.2180   17.1910  -32.7650 H   0  0  0  0  0  0  0  0  0  0  0  0
   -3.4224   21.4434  -34.1899 H   0  0  0  0  0  0  0  0  0  0  0  0
   -1.2689   22.4145  -34.8037 H   0  0  0  0  0  0  0  0  0  0  0  0
    2.5863   21.4604  -35.4078 H   0  0  0  0  0  0  0  0  0  0  0  0
    0.8916   21.0824  -36.0147 H   0  0  0  0  0  0  0  0  0  0  0  0
   -0.7180   23.2590  -35.5000 H   0  0  0  0  0  0  0  0  0  0  0  0
   -0.0990   25.7670  -35.6613 H   0  0  0  0  0  0  0  0  0  0  0  0
    0.8576   25.2637  -37.0960 H   0  0  0  0  0  0  0  0  0  0  0  0
   -0.9287   25.0741  -37.0960 H   0  0  0  0  0  0  0  0  0  0  0  0
    0.7833   19.4624  -32.5107 H   0  0  0  0  0  0  0  0  0  0  0  0
   -1.3181   18.4451  -31.8581 H   0  0  0  0  0  0  0  0  0  0  0  0
  1  2  1  0
  2  3  1  0
  3  4  1  0
  4  5  2  0
  5  6  1  0
  6  7  2  0
  7  8  1  0
  8  9  2  0
  9 10  1  0
 10 11  1  0
 10 12  1  0
 12 13  1  0
 13 14  2  0
 14 15  1  0
 15 16  1  0
 16 17  2  0
 17 18  1  0
 18 19  2  0
 19 20  1  0
 20 21  2  0
 21 22  1  0
 22 23  1  0
 23 24  1  0
 24 25  2  0
 24 26  1  0
 26 27  1  0
 21 28  1  0
 28 29  2  0
 16 30  1  0
 30  3  1  0
  9  4  1  0
 30 12  2  0
 29 18  1  0
  1 31  1  0
  1 32  1  0
  1 33  1  0
  2 34  1  0
  2 35  1  0
  6 36  1  0
  7 37  1  0
  8 38  1  0
 11 39  1  0
 11 40  1  0
 11 41  1  0
 14 42  1  0
 15 43  1  0
 19 44  1  0
 20 45  1  0
 23 46  1  0
 23 47  1  0
 26 48  1  0
 27 49  1  0
 27 50  1  0
 27 51  1  0
 28 52  1  0
 29 53  1  0
M  END
>  <smiles>  (31) 
CCN1c2ncccc2N(C)c2nc[nH]c(=Nc3ccc(OCC(=O)NC)cc3)c21

>  <score_type>  (31) 
oracle

>  <origin>  (31) 
adgpu

>  <m_score__min__energy>  (31) 
-8.75

>  <m_primary>  (31) 
energy

$$$$
31:0
     RDKit          3D

 51 53  0  0  0  0  0  0  0  0999 V2000
   -2.7200   15.5030  -33.0580 H   0  0  0  0  0  0  0  0  0  0  0  0
   -2.2680   16.4440  -33.0100 N   0  0  0  0  0  0  0  0  0  0  0  0
   -2.9610   17.5320  -33.1450 C   0  0  0  0  0  0  0  0  0  0  0  0
   -4.3010   17.4370  -33.3470 N   0  0  0  0  0  0  0  0  0  0  0  0
   -5.0880   18.5320  -33.4740 C   0  0  0  0  0  0  0  0  0  0  0  0
   -6.4860   18.3600  -33.7200 N   0  0  0  0  0  0  0  0  0  0  0  0
   -6.9460   18.8800  -34.4980 H   0  0  0  0  0  0  0  0  0  0  0  0
   -7.0830   17.7550  -33.1140 H   0  0  0  0  0  0  0  0  0  0  0  0
   -4.5100   19.8070  -33.3830 C   0  0  0  0  0  0  0  0  0  0  0  0
   -5.3050   21.0000  -33.4770 N   0  0  0  0  0  0  0  0  0  0  0  0
   -5.3390   21.4860  -34.4030 H   0  0  0  0  0  0  0  0  0  0  0  0
   -5.9260   21.6310  -32.3400 C   0  0  0  0  0  0  0  0  0  0  0  0
   -7.1840   21.2120  -31.8610 C   0  0  0  0  0  0  0  0  0  0  0  0
   -7.7180   20.3941  -32.3669 H   0  0  0  0  0  0  0  0  0  0  0  0
   -7.7560   21.8320  -30.7450 C   0  0  0  0  0  0  0  0  0  0  0  0
   -8.7372   21.4995  -30.3753 H   0  0  0  0  0  0  0  0  0  0  0  0
   -7.0830   22.8740  -30.0980 C   0  0  0  0  0  0  0  0  0  0  0  0
   -7.5379   23.3619  -29.2234 H   0  0  0  0  0  0  0  0  0  0  0  0
   -5.8310   23.2970  -30.5620 C   0  0  0  0  0  0  0  0  0  0  0  0
   -4.9870   24.6060  -29.7340 S   0  0  0  0  0  0  0  0  0  0  0  0
   -5.9820   25.5970  -29.1880 O   0  0  0  0  0  0  0  0  0  0  0  0
   -4.1890   24.0420  -28.5910 O   0  0  0  0  0  0  0  0  0  0  0  0
   -3.9280   25.4090  -30.8470 N   0  0  0  0  0  0  0  0  0  0  0  0
   -2.9570   25.3020  -30.4720 H   0  0  0  0  0  0  0  0  0  0  0  0
   -5.2520   22.6680  -31.6740 C   0  0  0  0  0  0  0  0  0  0  0  0
   -4.2613   22.9896  -32.0277 H   0  0  0  0  0  0  0  0  0  0  0  0
   -3.1240   19.9010  -33.1970 C   0  0  0  0  0  0  0  0  0  0  0  0
   -2.5950   21.0440  -33.1190 O   0  0  0  0  0  0  0  0  0  0  0  0
   -2.3560   18.7660  -33.0800 N   0  0  0  0  0  0  0  0  0  0  0  0
   -0.9090   18.8710  -32.7990 C   0  0  0  0  0  0  0  0  0  0  0  0
   -0.4626   17.8657  -32.8002 H   0  0  0  0  0  0  0  0  0  0  0  0
   -0.4316   19.4885  -33.5741 H   0  0  0  0  0  0  0  0  0  0  0  0
   -0.6990   19.5070  -31.4600 C   0  0  0  0  0  0  0  0  0  0  0  0
   -0.1970   18.8290  -30.5210 O   0  0  0  0  0  0  0  0  0  0  0  0
   -1.1020   20.8680  -31.2420 N   0  0  0  0  0  0  0  0  0  0  0  0
   -1.1180   21.5160  -32.0630 H   0  0  0  0  0  0  0  0  0  0  0  0
   -1.4140   21.3990  -29.9430 C   0  0  0  0  0  0  0  0  0  0  0  0
   -2.0190   20.5710  -28.9850 C   0  0  0  0  0  0  0  0  0  0  0  0
   -2.2709   19.5312  -29.2406 H   0  0  0  0  0  0  0  0  0  0  0  0
   -2.3030   21.0620  -27.7070 C   0  0  0  0  0  0  0  0  0  0  0  0
   -2.7843   20.4099  -26.9633 H   0  0  0  0  0  0  0  0  0  0  0  0
   -1.9770   22.3790  -27.3720 C   0  0  0  0  0  0  0  0  0  0  0  0
   -2.2108   22.7632  -26.3682 H   0  0  0  0  0  0  0  0  0  0  0  0
   -1.3530   23.2120  -28.3110 C   0  0  0  0  0  0  0  0  0  0  0  0
   -0.8890   24.8540  -27.8650 S   0  0  0  0  0  0  0  0  0  0  0  0
   -1.3520   25.1560  -26.4670 O   0  0  0  0  0  0  0  0  0  0  0  0
    0.6070   24.9830  -27.9160 O   0  0  0  0  0  0  0  0  0  0  0  0
   -1.6070   25.9810  -28.9630 N   0  0  0  0  0  0  0  0  0  0  0  0
   -2.5960   25.6630  -29.1200 H   0  0  0  0  0  0  0  0  0  0  0  0
   -1.0650   22.7170  -29.5920 C   0  0  0  0  0  0  0  0  0  0  0  0
   -0.5630   23.3632  -30.3271 H   0  0  0  0  0  0  0  0  0  0  0  0
  1  2  1  0
  2  3  2  0
  3  4  1  0
  4  5  1  0
  5  6  1  0
  6  7  1  0
  6  8  1  0
  5  9  2  0
  9 10  1  0
 10 11  1  0
 10 12  1  0
 12 13  2  0
 13 14  1  0
 13 15  1  0
 15 16  1  0
 15 17  2  0
 17 18  1  0
 17 19  1  0
 19 20  1  0
 20 21  2  0
 20 22  2  0
 20 23  1  0
 23 24  1  0
 19 25  2  0
 25 26  1  0
  9 27  1  0
 27 28  2  0
 27 29  1  0
 29 30  1  0
 30 31  1  0
 30 32  1  0
 30 33  1  0
 33 34  2  0
 33 35  1  0
 35 36  1  0
 35 37  1  0
 37 38  2  0
 38 39  1  0
 38 40  1  0
 40 41  1  0
 40 42  2  0
 42 43  1  0
 42 44  1  0
 44 45  1  0
 45 46  2  0
 45 47  2  0
 45 48  1  0
 48 49  1  0
 44 50  2  0
 50 51  1  0
 29  3  1  0
 50 37  1  0
 25 12  1  0
M  CHG  3   4  -1  23  -1  48  -1
M  END
>  <UniqueID>  (32) 
31

>  <SMILES>  (32) 
[H]/N=c1\[n-]c(N)c(Nc2cccc(S([NH-])(=O)=O)c2)c(=O)n1CC(=O)Nc1cccc(S([NH-])(=O)=O)c1

>  <Energy>  (32) 
66.54286760326417

>  <Genealogy>  (32) 
N=c1[n-]c(N)c(Nc2cccc(S([NH-])(=O)=O)c2)c(=O)n1CC(=O)Nc1cccc(S([NH-])(=O)=O)c1 (protonated)
[H]/N=c1\[n-]c(N)c(Nc2cccc(S([NH-])(=O)=O)c2)c(=O)n1CC(=O)Nc1cccc(S([NH-])(=O)=O)c1 (cis-trans isomerization)
[H]/N=c1\[n-]c(N)c(Nc2cccc(S([NH-])(=O)=O)c2)c(=O)n1CC(=O)Nc1cccc(S([NH-])(=O)=O)c1 (3D coordinates assigned)
[H]/N=c1\[n-]c(N)c(Nc2cccc(S([NH-])(=O)=O)c2)c(=O)n1CC(=O)Nc1cccc(S([NH-])(=O)=O)c1 (optimized conformer: 66.54286760326417 kcal/mol)

>  <smiles>  (32) 
N=c1[nH]c(N)c(Nc2cccc(S(N)(=O)=O)c2)c(=O)n1CC(=O)Nc1cccc(S(N)(=O)=O)c1

>  <score_type>  (32) 
oracle

>  <origin>  (32) 
adgpu

>  <m_score__min__energy>  (32) 
-13.6

>  <m_primary>  (32) 
energy

$$$$
32:0
     RDKit          3D

 34 36  0  0  0  0  0  0  0  0999 V2000
   -3.5110   24.5510  -27.0970 C   0  0  0  0  0  0  0  0  0  0  0  0
   -2.5880   23.6900  -27.9160 C   0  0  0  0  0  0  0  0  0  0  0  0
   -1.8350   22.6810  -27.2910 C   0  0  0  0  0  0  0  0  0  0  0  0
   -0.9690   21.8800  -28.0380 C   0  0  0  0  0  0  0  0  0  0  0  0
   -0.8450   22.0810  -29.4130 C   0  0  0  0  0  0  0  0  0  0  0  0
   -1.5910   23.0760  -30.0480 C   0  0  0  0  0  0  0  0  0  0  0  0
   -2.4680   23.8920  -29.3060 C   0  0  0  0  0  0  0  0  0  0  0  0
   -3.2460   24.9230  -29.9360 N   0  0  0  0  0  0  0  0  0  0  0  0
   -4.9450   24.8360  -30.2760 S   0  0  0  0  0  0  0  0  0  0  0  0
   -5.7150   24.9940  -28.9950 O   0  0  0  0  0  0  0  0  0  0  0  0
   -5.3180   25.9550  -31.2060 O   0  0  0  0  0  0  0  0  0  0  0  0
   -5.3190   23.3010  -31.0520 C   0  0  0  0  0  0  0  0  0  0  0  0
   -6.5690   22.7060  -30.8440 C   0  0  0  0  0  0  0  0  0  0  0  0
   -6.8870   21.4960  -31.4690 C   0  0  0  0  0  0  0  0  0  0  0  0
   -5.9580   20.8690  -32.3170 C   0  0  0  0  0  0  0  0  0  0  0  0
   -6.2980   19.5990  -32.9920 C   0  0  0  0  0  0  0  0  0  0  0  0
   -6.8900   18.5480  -32.3880 N   0  0  0  0  0  0  0  0  0  0  0  0
   -6.9930   17.6270  -33.3330 N   0  0  0  0  0  0  0  0  0  0  0  0
   -6.4850   18.1000  -34.4570 N   0  0  0  0  0  0  0  0  0  0  0  0
   -6.0370   19.3320  -34.2870 N   0  0  0  0  0  0  0  0  0  0  0  0
   -4.7030   21.4690  -32.5200 C   0  0  0  0  0  0  0  0  0  0  0  0
   -4.3860   22.6770  -31.8890 C   0  0  0  0  0  0  0  0  0  0  0  0
   -3.3231   24.3758  -26.0274 H   0  0  0  0  0  0  0  0  0  0  0  0
   -3.3297   25.6101  -27.3324 H   0  0  0  0  0  0  0  0  0  0  0  0
   -4.5550   24.2966  -27.3324 H   0  0  0  0  0  0  0  0  0  0  0  0
   -1.9285   22.5214  -26.2067 H   0  0  0  0  0  0  0  0  0  0  0  0
   -0.3847   21.0907  -27.5425 H   0  0  0  0  0  0  0  0  0  0  0  0
   -0.1572   21.4535  -29.9989 H   0  0  0  0  0  0  0  0  0  0  0  0
   -1.4935   23.2237  -31.1337 H   0  0  0  0  0  0  0  0  0  0  0  0
   -7.3043   23.1923  -30.1861 H   0  0  0  0  0  0  0  0  0  0  0  0
   -7.8695   21.0325  -31.2960 H   0  0  0  0  0  0  0  0  0  0  0  0
   -6.4420   17.5730  -35.3570 H   0  0  0  0  0  0  0  0  0  0  0  0
   -3.9661   20.9861  -33.1786 H   0  0  0  0  0  0  0  0  0  0  0  0
   -3.4005   23.1380  -32.0511 H   0  0  0  0  0  0  0  0  0  0  0  0
  1  2  1  0
  2  3  2  0
  3  4  1  0
  4  5  2  0
  5  6  1  0
  6  7  2  0
  7  8  1  0
  8  9  1  0
  9 10  2  0
  9 11  2  0
  9 12  1  0
 12 13  2  0
 13 14  1  0
 14 15  2  0
 15 16  1  0
 16 17  1  0
 17 18  2  0
 18 19  1  0
 19 20  1  0
 15 21  1  0
 21 22  2  0
  7  2  1  0
 22 12  1  0
 20 16  2  0
  1 23  1  0
  1 24  1  0
  1 25  1  0
  3 26  1  0
  4 27  1  0
  5 28  1  0
  6 29  1  0
 13 30  1  0
 14 31  1  0
 19 32  1  0
 21 33  1  0
 22 34  1  0
M  CHG  1   8  -1
M  END
>  <UniqueID>  (33) 
32

>  <SMILES>  (33) 
Cc1ccccc1[N-]S(=O)(=O)c1ccc(-c2nn[nH]n2)cc1

>  <Energy>  (33) 
78.4554367001119

>  <Genealogy>  (33) 
Cc1ccccc1[N-]S(=O)(=O)c1ccc(-c2nn[nH]n2)cc1 (protonated)
Cc1ccccc1[N-]S(=O)(=O)c1ccc(-c2nn[nH]n2)cc1 (3D coordinates assigned)
Cc1ccccc1[N-]S(=O)(=O)c1ccc(-c2nn[nH]n2)cc1 (optimized conformer: 78.4554367001119 kcal/mol)

>  <smiles>  (33) 
Cc1ccccc1NS(=O)(=O)c1ccc(-c2nn[nH]n2)cc1

>  <score_type>  (33) 
oracle

>  <origin>  (33) 
adgpu

>  <m_score__min__energy>  (33) 
-9.3699999999999992

>  <m_primary>  (33) 
energy

$$$$
33:0
     RDKit          3D

 49 53  0  0  0  0  0  0  0  0999 V2000
   -3.9540   20.9020  -30.9870 C   0  0  0  0  0  0  0  0  0  0  0  0
   -4.6730   22.2070  -31.2100 C   0  0  0  0  0  0  0  0  0  0  0  0
   -4.0920   23.4320  -30.8090 C   0  0  0  0  0  0  0  0  0  0  0  0
   -2.7840   23.5030  -30.3140 O   0  0  0  0  0  0  0  0  0  0  0  0
   -2.4280   24.1100  -29.1010 C   0  0  0  0  0  0  0  0  0  0  0  0
   -3.3140   24.1810  -28.0110 C   0  0  0  0  0  0  0  0  0  0  0  0
   -2.9190   24.7950  -26.8200 C   0  0  0  0  0  0  0  0  0  0  0  0
   -1.6310   25.3470  -26.6880 C   0  0  0  0  0  0  0  0  0  0  0  0
   -1.2400   25.9740  -25.4470 N   0  0  0  0  0  0  0  0  0  0  0  0
   -0.8130   25.3640  -24.3200 C   0  0  0  0  0  0  0  0  0  0  0  0
   -0.5470   26.3290  -23.3740 C   0  0  0  0  0  0  0  0  0  0  0  0
   -0.8350   27.5240  -23.9980 C   0  0  0  0  0  0  0  0  0  0  0  0
   -1.2520   27.2850  -25.2540 N   0  0  0  0  0  0  0  0  0  0  0  0
   -0.7430   25.2570  -27.7780 C   0  0  0  0  0  0  0  0  0  0  0  0
   -1.1410   24.6400  -28.9680 C   0  0  0  0  0  0  0  0  0  0  0  0
   -4.8190   24.5760  -30.8770 N   0  0  0  0  0  0  0  0  0  0  0  0
   -6.0840   24.5790  -31.3630 C   0  0  0  0  0  0  0  0  0  0  0  0
   -6.6420   23.4290  -31.8130 N   0  0  0  0  0  0  0  0  0  0  0  0
   -5.9690   22.2460  -31.7710 C   0  0  0  0  0  0  0  0  0  0  0  0
   -6.6050   21.0690  -32.2980 N   0  0  0  0  0  0  0  0  0  0  0  0
   -7.6530   20.3480  -31.5870 C   0  0  0  0  0  0  0  0  0  0  0  0
   -7.6050   18.9180  -32.1270 C   0  0  2  0  0  0  0  0  0  0  0  0
   -6.7580   17.9700  -31.2780 C   0  0  0  0  0  0  0  0  0  0  0  0
   -5.9970   17.1070  -32.1840 N   0  0  0  0  0  0  0  0  0  0  0  0
   -6.0710   17.6950  -33.5240 C   0  0  0  0  0  0  0  0  0  0  0  0
   -6.8610   18.9970  -33.4380 C   0  0  2  0  0  0  0  0  0  0  0  0
   -5.9870   20.2530  -33.3330 C   0  0  0  0  0  0  0  0  0  0  0  0
   -3.8531   20.7188  -29.9071 H   0  0  0  0  0  0  0  0  0  0  0  0
   -4.5286   20.0837  -31.4456 H   0  0  0  0  0  0  0  0  0  0  0  0
   -2.9553   20.9506  -31.4456 H   0  0  0  0  0  0  0  0  0  0  0  0
   -4.3228   23.7510  -28.0967 H   0  0  0  0  0  0  0  0  0  0  0  0
   -3.6224   24.8477  -25.9759 H   0  0  0  0  0  0  0  0  0  0  0  0
   -0.6972   24.2790  -24.1811 H   0  0  0  0  0  0  0  0  0  0  0  0
   -0.1844   26.1791  -22.3463 H   0  0  0  0  0  0  0  0  0  0  0  0
   -0.7386   28.5192  -23.5395 H   0  0  0  0  0  0  0  0  0  0  0  0
    0.2708   25.6751  -27.6923 H   0  0  0  0  0  0  0  0  0  0  0  0
   -0.4343   24.5709  -29.8081 H   0  0  0  0  0  0  0  0  0  0  0  0
   -6.6588   25.5164  -31.3923 H   0  0  0  0  0  0  0  0  0  0  0  0
   -8.6350   20.8015  -31.7870 H   0  0  0  0  0  0  0  0  0  0  0  0
   -7.5016   20.3778  -30.4979 H   0  0  0  0  0  0  0  0  0  0  0  0
   -8.6387   18.5442  -32.1677 H   0  0  0  0  0  0  0  0  0  0  0  0
   -7.4109   17.3569  -30.6394 H   0  0  0  0  0  0  0  0  0  0  0  0
   -6.0753   18.5424  -30.6328 H   0  0  0  0  0  0  0  0  0  0  0  0
   -4.9950   17.0930  -31.8760 H   0  0  0  0  0  0  0  0  0  0  0  0
   -6.5777   16.9980  -34.2076 H   0  0  0  0  0  0  0  0  0  0  0  0
   -5.0584   17.8929  -33.9053 H   0  0  0  0  0  0  0  0  0  0  0  0
   -7.4747   19.0868  -34.3465 H   0  0  0  0  0  0  0  0  0  0  0  0
   -5.9725   20.7929  -34.2913 H   0  0  0  0  0  0  0  0  0  0  0  0
   -4.9431   20.0056  -33.0898 H   0  0  0  0  0  0  0  0  0  0  0  0
  1  2  1  0
  2  3  2  0
  3  4  1  0
  4  5  1  0
  5  6  2  0
  6  7  1  0
  7  8  2  0
  8  9  1  0
  9 10  1  0
 10 11  2  0
 11 12  1  0
 12 13  2  0
  8 14  1  0
 14 15  2  0
  3 16  1  0
 16 17  2  0
 17 18  1  0
 18 19  2  0
 19 20  1  0
 20 21  1  0
 21 22  1  0
 22 23  1  0
 23 24  1  0
 24 25  1  0
 25 26  1  0
 26 27  1  0
 19  2  1  0
 27 20  1  0
 15  5  1  0
 26 22  1  0
 13  9  1  0
  1 28  1  0
  1 29  1  0
  1 30  1  0
  6 31  1  0
  7 32  1  0
 10 33  1  0
 11 34  1  0
 12 35  1  0
 14 36  1  0
 15 37  1  0
 17 38  1  0
 21 39  1  0
 21 40  1  0
 22 41  1  6
 23 42  1  0
 23 43  1  0
 24 44  1  0
 25 45  1  0
 25 46  1  0
 26 47  1  6
 27 48  1  0
 27 49  1  0
M  END
>  <UniqueID>  (34) 
33

>  <SMILES>  (34) 
Cc1c(Oc2ccc(-n3cccn3)cc2)ncnc1N1C[C@H]2CNC[C@H]2C1

>  <Energy>  (34) 
103.94551967937292

>  <Genealogy>  (34) 
Cc1c(Oc2ccc(-n3cccn3)cc2)ncnc1N1C[C@H]2CNC[C@H]2C1 (chirality)
Cc1c(Oc2ccc(-n3cccn3)cc2)ncnc1N1C[C@H]2CNC[C@H]2C1 (3D coordinates assigned)
Cc1c(Oc2ccc(-n3cccn3)cc2)ncnc1N1C[C@H]2CNC[C@H]2C1 (nonaromatic ring conformer: 103.94551967937292 kcal/mol)

>  <smiles>  (34) 
Cc1c(Oc2ccc(-n3cccn3)cc2)ncnc1N1CC2CNCC2C1

>  <score_type>  (34) 
oracle

>  <origin>  (34) 
adgpu

>  <m_score__min__energy>  (34) 
-9.1199999999999992

>  <m_primary>  (34) 
energy

$$$$
34:0
     RDKit          3D

 52 54  0  0  0  0  0  0  0  0999 V2000
    0.3860   17.0340  -27.3970 C   0  0  0  0  0  0  0  0  0  0  0  0
   -0.4390   18.0230  -28.1030 N   0  0  0  0  0  0  0  0  0  0  0  0
   -1.2070   18.8190  -27.1370 C   0  0  0  0  0  0  0  0  0  0  0  0
    0.5890   19.0820  -29.0340 S   0  0  0  0  0  0  0  0  0  0  0  0
    0.7070   18.5820  -30.4490 O   0  0  0  0  0  0  0  0  0  0  0  0
    1.9640   19.1200  -28.4270 O   0  0  0  0  0  0  0  0  0  0  0  0
   -0.0720   20.7160  -29.0300 C   0  0  0  0  0  0  0  0  0  0  0  0
   -0.9280   21.1230  -30.0590 C   0  0  0  0  0  0  0  0  0  0  0  0
   -1.4430   22.4230  -30.0760 C   0  0  0  0  0  0  0  0  0  0  0  0
   -1.1010   23.3390  -29.0630 C   0  0  0  0  0  0  0  0  0  0  0  0
   -1.6380   24.7200  -29.0830 C   0  0  0  0  0  0  0  0  0  0  0  0
   -0.8710   25.6890  -29.3350 O   0  0  0  0  0  0  0  0  0  0  0  0
   -3.0170   24.9590  -28.7650 N   0  0  0  0  0  0  0  0  0  0  0  0
   -4.1570   24.4040  -29.4370 C   0  0  0  0  0  0  0  0  0  0  0  0
   -4.7900   25.0670  -30.5040 C   0  0  0  0  0  0  0  0  0  0  0  0
   -5.8830   24.4780  -31.1490 C   0  0  0  0  0  0  0  0  0  0  0  0
   -6.3470   23.2200  -30.7430 C   0  0  0  0  0  0  0  0  0  0  0  0
   -7.7000   22.4650  -31.5770 S   0  0  0  0  0  0  0  0  0  0  0  0
   -8.8540   22.2910  -30.6280 O   0  0  0  0  0  0  0  0  0  0  0  0
   -8.1570   23.3400  -32.7110 O   0  0  0  0  0  0  0  0  0  0  0  0
   -7.1890   20.8980  -32.1930 C   0  0  0  0  0  0  0  0  0  0  0  0
   -8.1090   19.8470  -32.2920 C   0  0  0  0  0  0  0  0  0  0  0  0
   -7.7030   18.6060  -32.7900 C   0  0  0  0  0  0  0  0  0  0  0  0
   -6.3840   18.4130  -33.2060 C   0  0  0  0  0  0  0  0  0  0  0  0
   -5.4590   19.4710  -33.1480 C   0  0  0  0  0  0  0  0  0  0  0  0
   -4.0240   19.2560  -33.5580 C   0  0  0  0  0  0  0  0  0  0  0  0
   -3.3240   18.5910  -32.5660 F   0  0  0  0  0  0  0  0  0  0  0  0
   -3.9550   18.5000  -34.7160 F   0  0  0  0  0  0  0  0  0  0  0  0
   -3.4270   20.4820  -33.7850 F   0  0  0  0  0  0  0  0  0  0  0  0
   -5.8680   20.7080  -32.6180 C   0  0  0  0  0  0  0  0  0  0  0  0
   -5.6970   22.5440  -29.7040 C   0  0  0  0  0  0  0  0  0  0  0  0
   -4.6040   23.1320  -29.0590 C   0  0  0  0  0  0  0  0  0  0  0  0
   -0.2340   22.9240  -28.0360 C   0  0  0  0  0  0  0  0  0  0  0  0
    0.2770   21.6230  -28.0210 C   0  0  0  0  0  0  0  0  0  0  0  0
    0.2726   17.1699  -26.3113 H   0  0  0  0  0  0  0  0  0  0  0  0
    0.0619   16.0204  -27.6755 H   0  0  0  0  0  0  0  0  0  0  0  0
    1.4413   17.1710  -27.6755 H   0  0  0  0  0  0  0  0  0  0  0  0
   -0.9251   18.5268  -26.1147 H   0  0  0  0  0  0  0  0  0  0  0  0
   -0.9892   19.8868  -27.2864 H   0  0  0  0  0  0  0  0  0  0  0  0
   -2.2819   18.6396  -27.2864 H   0  0  0  0  0  0  0  0  0  0  0  0
   -1.1972   20.4171  -30.8585 H   0  0  0  0  0  0  0  0  0  0  0  0
   -2.1198   22.7320  -30.8862 H   0  0  0  0  0  0  0  0  0  0  0  0
   -4.4247   26.0513  -30.8322 H   0  0  0  0  0  0  0  0  0  0  0  0
   -6.3796   25.0043  -31.9775 H   0  0  0  0  0  0  0  0  0  0  0  0
   -9.1522   19.9983  -31.9775 H   0  0  0  0  0  0  0  0  0  0  0  0
   -8.4248   17.7785  -32.8545 H   0  0  0  0  0  0  0  0  0  0  0  0
   -6.0668   17.4287  -33.5809 H   0  0  0  0  0  0  0  0  0  0  0  0
   -5.1447   21.5327  -32.5366 H   0  0  0  0  0  0  0  0  0  0  0  0
   -6.0465   21.5481  -29.3940 H   0  0  0  0  0  0  0  0  0  0  0  0
   -4.0921   22.5914  -28.2492 H   0  0  0  0  0  0  0  0  0  0  0  0
    0.0440   23.6287  -27.2385 H   0  0  0  0  0  0  0  0  0  0  0  0
    0.9557   21.3102  -27.2139 H   0  0  0  0  0  0  0  0  0  0  0  0
  1  2  1  0
  2  3  1  0
  2  4  1  0
  4  5  2  0
  4  6  2  0
  4  7  1  0
  7  8  2  0
  8  9  1  0
  9 10  2  0
 10 11  1  0
 11 12  2  0
 11 13  1  0
 13 14  1  0
 14 15  2  0
 15 16  1  0
 16 17  2  0
 17 18  1  0
 18 19  2  0
 18 20  2  0
 18 21  1  0
 21 22  2  0
 22 23  1  0
 23 24  2  0
 24 25  1  0
 25 26  1  0
 26 27  1  0
 26 28  1  0
 26 29  1  0
 25 30  2  0
 17 31  1  0
 31 32  2  0
 10 33  1  0
 33 34  2  0
 34  7  1  0
 32 14  1  0
 30 21  1  0
  1 35  1  0
  1 36  1  0
  1 37  1  0
  3 38  1  0
  3 39  1  0
  3 40  1  0
  8 41  1  0
  9 42  1  0
 15 43  1  0
 16 44  1  0
 22 45  1  0
 23 46  1  0
 24 47  1  0
 30 48  1  0
 31 49  1  0
 32 50  1  0
 33 51  1  0
 34 52  1  0
M  CHG  1  13  -1
M  END
>  <UniqueID>  (35) 
34

>  <SMILES>  (35) 
CN(C)S(=O)(=O)c1ccc(C(=O)[N-]c2ccc(S(=O)(=O)c3cccc(C(F)(F)F)c3)cc2)cc1

>  <Energy>  (35) 
58.921388141777214

>  <Genealogy>  (35) 
CN(C)S(=O)(=O)c1ccc(C(=O)[N-]c2ccc(S(=O)(=O)c3cccc(C(F)(F)F)c3)cc2)cc1 (protonated)
CN(C)S(=O)(=O)c1ccc(C(=O)[N-]c2ccc(S(=O)(=O)c3cccc(C(F)(F)F)c3)cc2)cc1 (3D coordinates assigned)
CN(C)S(=O)(=O)c1ccc(C(=O)[N-]c2ccc(S(=O)(=O)c3cccc(C(F)(F)F)c3)cc2)cc1 (optimized conformer: 58.921388141777214 kcal/mol)

>  <smiles>  (35) 
CN(C)S(=O)(=O)c1ccc(C(=O)Nc2ccc(S(=O)(=O)c3cccc(C(F)(F)F)c3)cc2)cc1

>  <score_type>  (35) 
oracle

>  <origin>  (35) 
adgpu

>  <m_score__min__energy>  (35) 
-11.93

>  <m_primary>  (35) 
energy

$$$$
35:0
     RDKit          3D

 53 56  0  0  0  0  0  0  0  0999 V2000
   -2.3870   19.7350  -27.0810 C   0  0  0  0  0  0  0  0  0  0  0  0
   -1.9080   20.5700  -28.2320 C   0  0  0  0  0  0  0  0  0  0  0  0
   -1.1570   19.9870  -29.2630 C   0  0  0  0  0  0  0  0  0  0  0  0
   -0.6840   20.7710  -30.3180 C   0  0  0  0  0  0  0  0  0  0  0  0
   -0.9430   22.1440  -30.3450 C   0  0  0  0  0  0  0  0  0  0  0  0
   -1.6720   22.7460  -29.3070 C   0  0  0  0  0  0  0  0  0  0  0  0
   -1.9660   24.2210  -29.3330 C   0  0  0  0  0  0  0  0  0  0  0  0
   -3.4060   24.4490  -29.3040 N   0  0  0  0  0  0  0  0  0  0  0  0
   -4.2380   24.4200  -30.4710 C   0  0  0  0  0  0  0  0  0  0  0  0
   -4.3660   25.4590  -31.1750 O   0  0  0  0  0  0  0  0  0  0  0  0
   -4.9450   23.1740  -30.8500 C   0  0  0  0  0  0  0  0  0  0  0  0
   -6.3090   23.1990  -31.1940 C   0  0  0  0  0  0  0  0  0  0  0  0
   -6.9740   22.0210  -31.5430 C   0  0  0  0  0  0  0  0  0  0  0  0
   -6.2890   20.8010  -31.5570 C   0  0  0  0  0  0  0  0  0  0  0  0
   -7.1530   19.3210  -31.9720 S   0  0  0  0  0  0  0  0  0  0  0  0
   -6.6580   18.2190  -31.0780 O   0  0  0  0  0  0  0  0  0  0  0  0
   -8.6260   19.5020  -31.7290 O   0  0  0  0  0  0  0  0  0  0  0  0
   -6.8530   18.8820  -33.6420 N   0  0  0  0  0  0  0  0  0  0  0  0
   -6.7330   17.4270  -33.8480 C   0  0  0  0  0  0  0  0  0  0  0  0
   -5.4930   16.8320  -33.1660 C   0  0  0  0  0  0  0  0  0  0  0  0
   -4.2670   17.6820  -33.3670 C   0  0  0  0  0  0  0  0  0  0  0  0
   -3.0090   17.1550  -33.0350 C   0  0  0  0  0  0  0  0  0  0  0  0
   -1.8600   17.9420  -33.1540 C   0  0  0  0  0  0  0  0  0  0  0  0
   -1.9600   19.2610  -33.5980 C   0  0  0  0  0  0  0  0  0  0  0  0
   -3.2070   19.8000  -33.9190 C   0  0  0  0  0  0  0  0  0  0  0  0
   -4.3710   19.0240  -33.7900 C   0  0  0  0  0  0  0  0  0  0  0  0
   -5.7000   19.6120  -34.2000 C   0  0  0  0  0  0  0  0  0  0  0  0
   -4.9310   20.7670  -31.2140 C   0  0  0  0  0  0  0  0  0  0  0  0
   -4.2640   21.9430  -30.8650 C   0  0  0  0  0  0  0  0  0  0  0  0
   -2.1520   21.9530  -28.2520 C   0  0  0  0  0  0  0  0  0  0  0  0
   -2.1082   20.2210  -26.1344 H   0  0  0  0  0  0  0  0  0  0  0  0
   -3.4810   19.6328  -27.1324 H   0  0  0  0  0  0  0  0  0  0  0  0
   -1.9229   18.7390  -27.1324 H   0  0  0  0  0  0  0  0  0  0  0  0
   -0.9397   18.9089  -29.2408 H   0  0  0  0  0  0  0  0  0  0  0  0
   -0.1058   20.3061  -31.1301 H   0  0  0  0  0  0  0  0  0  0  0  0
   -0.5745   22.7551  -31.1822 H   0  0  0  0  0  0  0  0  0  0  0  0
   -1.5049   24.6987  -28.4560 H   0  0  0  0  0  0  0  0  0  0  0  0
   -1.5532   24.6526  -30.2567 H   0  0  0  0  0  0  0  0  0  0  0  0
   -6.8560   24.1533  -31.1881 H   0  0  0  0  0  0  0  0  0  0  0  0
   -8.0411   22.0527  -31.8080 H   0  0  0  0  0  0  0  0  0  0  0  0
   -7.6289   16.9384  -33.4373 H   0  0  0  0  0  0  0  0  0  0  0  0
   -6.6335   17.2518  -34.9294 H   0  0  0  0  0  0  0  0  0  0  0  0
   -5.6901   16.7450  -32.0873 H   0  0  0  0  0  0  0  0  0  0  0  0
   -5.2988   15.8489  -33.6196 H   0  0  0  0  0  0  0  0  0  0  0  0
   -2.9270   16.1173  -32.6793 H   0  0  0  0  0  0  0  0  0  0  0  0
   -0.8765   17.5213  -32.8975 H   0  0  0  0  0  0  0  0  0  0  0  0
   -1.0542   19.8775  -33.6953 H   0  0  0  0  0  0  0  0  0  0  0  0
   -3.2787   20.8383  -34.2750 H   0  0  0  0  0  0  0  0  0  0  0  0
   -5.7439   20.6544  -33.8516 H   0  0  0  0  0  0  0  0  0  0  0  0
   -5.7660   19.5405  -35.2957 H   0  0  0  0  0  0  0  0  0  0  0  0
   -4.3882   19.8103  -31.2197 H   0  0  0  0  0  0  0  0  0  0  0  0
   -3.1971   21.9067  -30.5996 H   0  0  0  0  0  0  0  0  0  0  0  0
   -2.7233   22.4185  -27.4353 H   0  0  0  0  0  0  0  0  0  0  0  0
  1  2  1  0
  2  3  2  0
  3  4  1  0
  4  5  2  0
  5  6  1  0
  6  7  1  0
  7  8  1  0
  8  9  1  0
  9 10  2  0
  9 11  1  0
 11 12  2  0
 12 13  1  0
 13 14  2  0
 14 15  1  0
 15 16  2  0
 15 17  2  0
 15 18  1  0
 18 19  1  0
 19 20  1  0
 20 21  1  0
 21 22  2  0
 22 23  1  0
 23 24  2  0
 24 25  1  0
 25 26  2  0
 26 27  1  0
 14 28  1  0
 28 29  2  0
  6 30  2  0
 30  2  1  0
 29 11  1  0
 27 18  1  0
 26 21  1  0
  1 31  1  0
  1 32  1  0
  1 33  1  0
  3 34  1  0
  4 35  1  0
  5 36  1  0
  7 37  1  0
  7 38  1  0
 12 39  1  0
 13 40  1  0
 19 41  1  0
 19 42  1  0
 20 43  1  0
 20 44  1  0
 22 45  1  0
 23 46  1  0
 24 47  1  0
 25 48  1  0
 27 49  1  0
 27 50  1  0
 28 51  1  0
 29 52  1  0
 30 53  1  0
M  CHG  1   8  -1
M  END
>  <UniqueID>  (36) 
35

>  <SMILES>  (36) 
Cc1cccc(C[N-]C(=O)c2ccc(S(=O)(=O)N3CCc4ccccc4C3)cc2)c1

>  <Energy>  (36) 
58.80933388370203

>  <Genealogy>  (36) 
Cc1cccc(C[N-]C(=O)c2ccc(S(=O)(=O)N3CCc4ccccc4C3)cc2)c1 (protonated)
Cc1cccc(C[N-]C(=O)c2ccc(S(=O)(=O)N3CCc4ccccc4C3)cc2)c1 (3D coordinates assigned)
Cc1cccc(C[N-]C(=O)c2ccc(S(=O)(=O)N3CCc4ccccc4C3)cc2)c1 (nonaromatic ring conformer: 58.80933388370203 kcal/mol)

>  <smiles>  (36) 
Cc1cccc(CNC(=O)c2ccc(S(=O)(=O)N3CCc4ccccc4C3)cc2)c1

>  <score_type>  (36) 
oracle

>  <origin>  (36) 
adgpu

>  <m_score__min__energy>  (36) 
-11.359999999999999

>  <m_primary>  (36) 
energy

$$$$
36:0
     RDKit          3D

 45 47  0  0  0  0  0  0  0  0999 V2000
   -1.1933   27.1255  -28.3163 H   0  0  0  0  0  0  0  0  0  0  0  0
   -1.1350   26.0270  -28.3150 C   0  0  0  0  0  0  0  0  0  0  0  0
   -2.0840   25.2970  -28.9550 N   0  0  0  0  0  0  0  0  0  0  0  0
   -2.0660   23.9330  -28.9690 C   0  0  0  0  0  0  0  0  0  0  0  0
   -2.9860   23.2620  -29.6070 N   0  0  0  0  0  0  0  0  0  0  0  0
   -4.0150   23.8170  -30.4430 C   0  0  0  0  0  0  0  0  0  0  0  0
   -3.8990   25.0100  -30.8270 O   0  0  0  0  0  0  0  0  0  0  0  0
   -5.2550   23.0600  -30.7560 C   0  0  0  0  0  0  0  0  0  0  0  0
   -5.1440   21.7360  -31.2130 C   0  0  0  0  0  0  0  0  0  0  0  0
   -4.1497   21.2723  -31.2926 H   0  0  0  0  0  0  0  0  0  0  0  0
   -6.2770   20.9990  -31.5680 C   0  0  0  0  0  0  0  0  0  0  0  0
   -6.0790   19.3970  -32.2710 S   0  0  0  0  0  0  0  0  0  0  0  0
   -5.8810   18.3900  -31.1740 O   0  0  0  0  0  0  0  0  0  0  0  0
   -7.3030   19.0080  -33.0540 O   0  0  0  0  0  0  0  0  0  0  0  0
   -4.6980   19.4060  -33.3400 N   0  0  0  0  0  0  0  0  0  0  0  0
   -3.4590   20.0500  -32.9540 C   0  0  0  0  0  0  0  0  0  0  0  0
   -2.8550   19.7770  -31.7080 C   0  0  0  0  0  0  0  0  0  0  0  0
   -3.3388   19.0780  -31.0099 H   0  0  0  0  0  0  0  0  0  0  0  0
   -1.6480   20.3860  -31.3520 C   0  0  0  0  0  0  0  0  0  0  0  0
   -1.1939   20.1730  -30.3730 H   0  0  0  0  0  0  0  0  0  0  0  0
   -1.0180   21.2630  -32.2350 C   0  0  0  0  0  0  0  0  0  0  0  0
   -0.0647   21.7353  -31.9552 H   0  0  0  0  0  0  0  0  0  0  0  0
   -1.5980   21.5410  -33.4740 C   0  0  0  0  0  0  0  0  0  0  0  0
   -1.1015   22.2339  -34.1693 H   0  0  0  0  0  0  0  0  0  0  0  0
   -2.8080   20.9410  -33.8330 C   0  0  0  0  0  0  0  0  0  0  0  0
   -3.2576   21.1658  -34.8114 H   0  0  0  0  0  0  0  0  0  0  0  0
   -4.7820   18.6640  -34.6000 C   0  0  0  0  0  0  0  0  0  0  0  0
   -4.9034   17.5917  -34.3867 H   0  0  0  0  0  0  0  0  0  0  0  0
   -5.6453   19.0225  -35.1798 H   0  0  0  0  0  0  0  0  0  0  0  0
   -3.8604   18.8205  -35.1798 H   0  0  0  0  0  0  0  0  0  0  0  0
   -7.5450   21.5660  -31.4150 C   0  0  0  0  0  0  0  0  0  0  0  0
   -8.4415   20.9847  -31.6764 H   0  0  0  0  0  0  0  0  0  0  0  0
   -7.6760   22.8690  -30.9310 C   0  0  0  0  0  0  0  0  0  0  0  0
   -8.6777   23.3053  -30.8032 H   0  0  0  0  0  0  0  0  0  0  0  0
   -6.5430   23.6250  -30.6070 C   0  0  0  0  0  0  0  0  0  0  0  0
   -6.7830   25.2910  -30.0840 Cl  0  0  0  0  0  0  0  0  0  0  0  0
   -1.0470   23.2460  -28.2760 C   0  0  0  0  0  0  0  0  0  0  0  0
   -0.9800   21.7430  -28.2740 C   0  0  0  0  0  0  0  0  0  0  0  0
   -0.9637   21.3781  -27.2364 H   0  0  0  0  0  0  0  0  0  0  0  0
   -1.8609   21.3360  -28.7921 H   0  0  0  0  0  0  0  0  0  0  0  0
   -0.0664   21.4160  -28.7921 H   0  0  0  0  0  0  0  0  0  0  0  0
   -0.0450   23.9920  -27.6380 C   0  0  0  0  0  0  0  0  0  0  0  0
    0.7774   23.4759  -27.1210 H   0  0  0  0  0  0  0  0  0  0  0  0
   -0.0880   25.3870  -27.6570 C   0  0  0  0  0  0  0  0  0  0  0  0
    0.6966   25.9743  -27.1576 H   0  0  0  0  0  0  0  0  0  0  0  0
  1  2  1  0
  2  3  1  0
  3  4  1  0
  4  5  2  0
  5  6  1  0
  6  7  2  0
  6  8  1  0
  8  9  2  0
  9 10  1  0
  9 11  1  0
 11 12  1  0
 12 13  2  0
 12 14  2  0
 12 15  1  0
 15 16  1  0
 16 17  2  0
 17 18  1  0
 17 19  1  0
 19 20  1  0
 19 21  2  0
 21 22  1  0
 21 23  1  0
 23 24  1  0
 23 25  2  0
 25 26  1  0
 15 27  1  0
 27 28  1  0
 27 29  1  0
 27 30  1  0
 11 31  2  0
 31 32  1  0
 31 33  1  0
 33 34  1  0
 33 35  2  0
 35 36  1  0
  4 37  1  0
 37 38  1  0
 38 39  1  0
 38 40  1  0
 38 41  1  0
 37 42  2  0
 42 43  1  0
 42 44  1  0
 44 45  1  0
 44  2  2  0
 35  8  1  0
 25 16  1  0
M  CHG  1   3  -1
M  END
>  <UniqueID>  (37) 
36

>  <SMILES>  (37) 
Cc1ccc[n-]/c1=N\C(=O)c1cc(S(=O)(=O)N(C)c2ccccc2)ccc1Cl

>  <Energy>  (37) 
58.88290608139241

>  <Genealogy>  (37) 
Cc1ccc[n-]c1=NC(=O)c1cc(S(=O)(=O)N(C)c2ccccc2)ccc1Cl (protonated)
Cc1ccc[n-]/c1=N\C(=O)c1cc(S(=O)(=O)N(C)c2ccccc2)ccc1Cl (cis-trans isomerization)
Cc1ccc[n-]/c1=N\C(=O)c1cc(S(=O)(=O)N(C)c2ccccc2)ccc1Cl (3D coordinates assigned)
Cc1ccc[n-]/c1=N\C(=O)c1cc(S(=O)(=O)N(C)c2ccccc2)ccc1Cl (optimized conformer: 58.88290608139241 kcal/mol)

>  <smiles>  (37) 
Cc1ccc[nH]c1=NC(=O)c1cc(S(=O)(=O)N(C)c2ccccc2)ccc1Cl

>  <score_type>  (37) 
oracle

>  <origin>  (37) 
adgpu

>  <m_score__min__energy>  (37) 
-11.109999999999999

>  <m_primary>  (37) 
energy

$$$$
37:0
     RDKit          3D

 35 37  0  0  0  0  0  0  0  0999 V2000
   -5.8670   25.6790  -30.7240 O   0  0  0  0  0  0  0  0  0  0  0  0
   -4.9540   24.8150  -30.8280 C   0  0  0  0  0  0  0  0  0  0  0  0
   -3.6050   25.1590  -30.4850 N   0  0  0  0  0  0  0  0  0  0  0  0
   -2.7980   24.4890  -29.5060 C   0  0  0  0  0  0  0  0  0  0  0  0
   -3.2220   23.2420  -29.0290 C   0  0  0  0  0  0  0  0  0  0  0  0
   -2.4700   22.5580  -28.0670 C   0  0  0  0  0  0  0  0  0  0  0  0
   -3.0010   20.9860  -27.4940 Cl  0  0  0  0  0  0  0  0  0  0  0  0
   -1.2980   23.1260  -27.5630 C   0  0  0  0  0  0  0  0  0  0  0  0
   -0.8840   24.3850  -28.0090 C   0  0  0  0  0  0  0  0  0  0  0  0
   -1.6350   25.0770  -28.9650 C   0  0  0  0  0  0  0  0  0  0  0  0
   -1.2370   26.3550  -29.3410 O   0  0  0  0  0  0  0  0  0  0  0  0
   -5.2680   23.4650  -31.3530 C   0  0  0  0  0  0  0  0  0  0  0  0
   -6.5620   22.9290  -31.2250 C   0  0  0  0  0  0  0  0  0  0  0  0
   -6.8550   21.6570  -31.7220 C   0  0  0  0  0  0  0  0  0  0  0  0
   -5.8640   20.8900  -32.3580 C   0  0  0  0  0  0  0  0  0  0  0  0
   -6.1780   19.5380  -32.8860 C   0  0  0  0  0  0  0  0  0  0  0  0
   -7.0600   18.6860  -32.1940 C   0  0  0  0  0  0  0  0  0  0  0  0
   -7.3540   17.4140  -32.6940 C   0  0  0  0  0  0  0  0  0  0  0  0
   -6.7730   16.9770  -33.8860 C   0  0  0  0  0  0  0  0  0  0  0  0
   -5.8960   17.8120  -34.5810 C   0  0  0  0  0  0  0  0  0  0  0  0
   -5.5990   19.0860  -34.0870 C   0  0  0  0  0  0  0  0  0  0  0  0
   -4.5720   21.4260  -32.4870 C   0  0  0  0  0  0  0  0  0  0  0  0
   -4.2770   22.6990  -31.9910 C   0  0  0  0  0  0  0  0  0  0  0  0
   -4.1520   22.7975  -29.4130 H   0  0  0  0  0  0  0  0  0  0  0  0
   -0.7008   22.5833  -26.8155 H   0  0  0  0  0  0  0  0  0  0  0  0
    0.0363   24.8332  -27.6063 H   0  0  0  0  0  0  0  0  0  0  0  0
   -7.3494   23.5161  -30.7297 H   0  0  0  0  0  0  0  0  0  0  0  0
   -7.8718   21.2515  -31.6145 H   0  0  0  0  0  0  0  0  0  0  0  0
   -7.5207   19.0235  -31.2539 H   0  0  0  0  0  0  0  0  0  0  0  0
   -8.0449   16.7557  -32.1469 H   0  0  0  0  0  0  0  0  0  0  0  0
   -7.0060   15.9757  -34.2772 H   0  0  0  0  0  0  0  0  0  0  0  0
   -5.4376   17.4668  -35.5195 H   0  0  0  0  0  0  0  0  0  0  0  0
   -4.9084   19.7393  -34.6404 H   0  0  0  0  0  0  0  0  0  0  0  0
   -3.7853   20.8385  -32.9829 H   0  0  0  0  0  0  0  0  0  0  0  0
   -3.2606   23.1049  -32.1009 H   0  0  0  0  0  0  0  0  0  0  0  0
  1  2  2  0
  2  3  1  0
  3  4  1  0
  4  5  2  0
  5  6  1  0
  6  7  1  0
  6  8  2  0
  8  9  1  0
  9 10  2  0
 10 11  1  0
  2 12  1  0
 12 13  2  0
 13 14  1  0
 14 15  2  0
 15 16  1  0
 16 17  2  0
 17 18  1  0
 18 19  2  0
 19 20  1  0
 20 21  2  0
 15 22  1  0
 22 23  2  0
 10  4  1  0
 23 12  1  0
 21 16  1  0
  5 24  1  0
  8 25  1  0
  9 26  1  0
 13 27  1  0
 14 28  1  0
 17 29  1  0
 18 30  1  0
 19 31  1  0
 20 32  1  0
 21 33  1  0
 22 34  1  0
 23 35  1  0
M  CHG  2   3  -1  11  -1
M  END
>  <UniqueID>  (38) 
37

>  <SMILES>  (38) 
O=C([N-]c1cc(Cl)ccc1[O-])c1ccc(-c2ccccc2)cc1

>  <Energy>  (38) 
49.86826559820931

>  <Genealogy>  (38) 
O=C([N-]c1cc(Cl)ccc1[O-])c1ccc(-c2ccccc2)cc1 (protonated)
O=C([N-]c1cc(Cl)ccc1[O-])c1ccc(-c2ccccc2)cc1 (3D coordinates assigned)
O=C([N-]c1cc(Cl)ccc1[O-])c1ccc(-c2ccccc2)cc1 (optimized conformer: 49.86826559820931 kcal/mol)

>  <smiles>  (38) 
O=C(Nc1cc(Cl)ccc1O)c1ccc(-c2ccccc2)cc1

>  <score_type>  (38) 
oracle

>  <origin>  (38) 
adgpu

>  <m_score__min__energy>  (38) 
-14.24

>  <m_primary>  (38) 
energy

$$$$
38:0
     RDKit          3D

 48 51  0  0  0  0  0  0  0  0999 V2000
   -1.2820   18.0310  -33.1870 C   0  0  0  0  0  0  0  0  0  0  0  0
   -0.4030   19.1590  -33.5550 N   0  0  0  0  0  0  0  0  0  0  0  0
    0.1620   19.8250  -32.3470 C   0  0  0  0  0  0  0  0  0  0  0  0
   -0.4700   21.1930  -32.0150 C   0  0  0  0  0  0  0  0  0  0  0  0
   -1.8830   21.2410  -32.4170 N   0  0  0  0  0  0  0  0  0  0  0  0
   -2.8770   21.8650  -31.5780 C   0  0  0  0  0  0  0  0  0  0  0  0
   -2.5070   22.6390  -30.5250 N   0  0  0  0  0  0  0  0  0  0  0  0
   -3.4230   23.2420  -29.7190 C   0  0  0  0  0  0  0  0  0  0  0  0
   -2.9500   24.0850  -28.5900 C   0  0  0  0  0  0  0  0  0  0  0  0
   -1.7250   24.7710  -28.6930 C   0  0  0  0  0  0  0  0  0  0  0  0
   -1.2630   25.5620  -27.6370 C   0  0  0  0  0  0  0  0  0  0  0  0
   -2.0120   25.6730  -26.4640 C   0  0  0  0  0  0  0  0  0  0  0  0
   -3.2230   24.9890  -26.3430 C   0  0  0  0  0  0  0  0  0  0  0  0
   -3.6920   24.1960  -27.3950 C   0  0  0  0  0  0  0  0  0  0  0  0
   -4.7880   23.0690  -29.9930 C   0  0  0  0  0  0  0  0  0  0  0  0
   -5.1670   22.2590  -31.0740 C   0  0  0  0  0  0  0  0  0  0  0  0
   -6.5950   22.0330  -31.4200 C   0  0  0  0  0  0  0  0  0  0  0  0
   -7.4570   23.1340  -31.5840 C   0  0  0  0  0  0  0  0  0  0  0  0
   -8.8000   22.9410  -31.9180 C   0  0  0  0  0  0  0  0  0  0  0  0
   -9.2980   21.6500  -32.1000 C   0  0  0  0  0  0  0  0  0  0  0  0
   -8.4530   20.5470  -31.9530 C   0  0  0  0  0  0  0  0  0  0  0  0
   -9.0760   18.9260  -32.2000 Cl  0  0  0  0  0  0  0  0  0  0  0  0
   -7.1070   20.7360  -31.6190 C   0  0  0  0  0  0  0  0  0  0  0  0
   -4.2000   21.6850  -31.8390 N   0  0  0  0  0  0  0  0  0  0  0  0
   -2.2490   20.8240  -33.7760 C   0  0  0  0  0  0  0  0  0  0  0  0
   -1.0850   20.1020  -34.4690 C   0  0  0  0  0  0  0  0  0  0  0  0
   -1.3414   17.9548  -32.0913 H   0  0  0  0  0  0  0  0  0  0  0  0
   -2.2881   18.2010  -33.5978 H   0  0  0  0  0  0  0  0  0  0  0  0
   -0.8713   17.0969  -33.5978 H   0  0  0  0  0  0  0  0  0  0  0  0
    0.3960   18.7450  -34.0930 H   0  0  0  0  0  0  0  0  0  0  0  0
    0.0107   19.1586  -31.4850 H   0  0  0  0  0  0  0  0  0  0  0  0
    1.2237   20.0154  -32.5629 H   0  0  0  0  0  0  0  0  0  0  0  0
   -0.3999   21.3663  -30.9310 H   0  0  0  0  0  0  0  0  0  0  0  0
    0.0751   21.9708  -32.5699 H   0  0  0  0  0  0  0  0  0  0  0  0
   -1.1265   24.6839  -29.6118 H   0  0  0  0  0  0  0  0  0  0  0  0
   -0.3071   26.0982  -27.7305 H   0  0  0  0  0  0  0  0  0  0  0  0
   -1.6482   26.2989  -25.6358 H   0  0  0  0  0  0  0  0  0  0  0  0
   -3.8103   25.0741  -25.4168 H   0  0  0  0  0  0  0  0  0  0  0  0
   -4.6445   23.6558  -27.2903 H   0  0  0  0  0  0  0  0  0  0  0  0
   -5.5494   23.5609  -29.3698 H   0  0  0  0  0  0  0  0  0  0  0  0
   -7.0700   24.1547  -31.4481 H   0  0  0  0  0  0  0  0  0  0  0  0
   -9.4660   23.8082  -32.0377 H   0  0  0  0  0  0  0  0  0  0  0  0
  -10.3565   21.5007  -32.3594 H   0  0  0  0  0  0  0  0  0  0  0  0
   -6.4439   19.8650  -31.5111 H   0  0  0  0  0  0  0  0  0  0  0  0
   -3.1118   20.1438  -33.7222 H   0  0  0  0  0  0  0  0  0  0  0  0
   -2.4982   21.7222  -34.3601 H   0  0  0  0  0  0  0  0  0  0  0  0
   -1.4757   19.5424  -35.3317 H   0  0  0  0  0  0  0  0  0  0  0  0
   -0.3536   20.8591  -34.7882 H   0  0  0  0  0  0  0  0  0  0  0  0
  1  2  1  0
  2  3  1  0
  3  4  1  0
  4  5  1  0
  5  6  1  0
  6  7  2  0
  7  8  1  0
  8  9  1  0
  9 10  2  0
 10 11  1  0
 11 12  2  0
 12 13  1  0
 13 14  2  0
  8 15  2  0
 15 16  1  0
 16 17  1  0
 17 18  2  0
 18 19  1  0
 19 20  2  0
 20 21  1  0
 21 22  1  0
 21 23  2  0
 16 24  2  0
  5 25  1  0
 25 26  1  0
 26  2  1  0
 24  6  1  0
 14  9  1  0
 23 17  1  0
  1 27  1  0
  1 28  1  0
  1 29  1  0
  2 30  1  0
  3 31  1  0
  3 32  1  0
  4 33  1  0
  4 34  1  0
 10 35  1  0
 11 36  1  0
 12 37  1  0
 13 38  1  0
 14 39  1  0
 15 40  1  0
 18 41  1  0
 19 42  1  0
 20 43  1  0
 23 44  1  0
 25 45  1  0
 25 46  1  0
 26 47  1  0
 26 48  1  0
M  CHG  1   2   1
M  END
>  <UniqueID>  (39) 
38

>  <SMILES>  (39) 
C[NH+]1CCN(c2nc(-c3ccccc3)cc(-c3cccc(Cl)c3)n2)CC1

>  <Energy>  (39) 
67.4098010249067

>  <Genealogy>  (39) 
C[NH+]1CCN(c2nc(-c3ccccc3)cc(-c3cccc(Cl)c3)n2)CC1 (protonated)
C[NH+]1CCN(c2nc(-c3ccccc3)cc(-c3cccc(Cl)c3)n2)CC1 (3D coordinates assigned)
C[NH+]1CCN(c2nc(-c3ccccc3)cc(-c3cccc(Cl)c3)n2)CC1 (nonaromatic ring conformer: 67.4098010249067 kcal/mol)

>  <smiles>  (39) 
CN1CCN(c2nc(-c3ccccc3)cc(-c3cccc(Cl)c3)n2)CC1

>  <score_type>  (39) 
oracle

>  <origin>  (39) 
adgpu

>  <m_score__min__energy>  (39) 
-7.8300000000000001

>  <m_primary>  (39) 
energy

$$$$
39:0
     RDKit          3D

 64 68  0  0  0  0  0  0  0  0999 V2000
    1.7389   30.4097  -21.5325 H   0  0  0  0  0  0  0  0  0  0  0  0
    2.1460   29.4920  -21.9820 C   0  0  0  0  0  0  0  0  0  0  0  0
    3.3810   29.0000  -21.5600 C   0  0  0  0  0  0  0  0  0  0  0  0
    3.9510   29.5351  -20.7862 H   0  0  0  0  0  0  0  0  0  0  0  0
    3.8930   27.8300  -22.1190 C   0  0  0  0  0  0  0  0  0  0  0  0
    4.8685   27.4460  -21.7860 H   0  0  0  0  0  0  0  0  0  0  0  0
    3.1700   27.1390  -23.1050 C   0  0  0  0  0  0  0  0  0  0  0  0
    1.9360   27.6500  -23.5680 C   0  0  0  0  0  0  0  0  0  0  0  0
    1.4240   28.8230  -22.9740 C   0  0  0  0  0  0  0  0  0  0  0  0
    0.4474   29.2145  -23.2948 H   0  0  0  0  0  0  0  0  0  0  0  0
    1.2120   26.9500  -24.6150 N   0  0  0  0  0  0  0  0  0  0  0  0
   -0.0260   27.7550  -25.5440 S   0  0  0  0  0  0  0  0  0  0  0  0
   -0.8900   28.5950  -24.6440 O   0  0  0  0  0  0  0  0  0  0  0  0
    0.6220   28.6500  -26.5610 O   0  0  0  0  0  0  0  0  0  0  0  0
   -1.0460   26.5480  -26.3220 C   0  0  0  0  0  0  0  0  0  0  0  0
   -0.7950   26.1820  -27.6480 C   0  0  0  0  0  0  0  0  0  0  0  0
    0.0563   26.6250  -28.1857 H   0  0  0  0  0  0  0  0  0  0  0  0
   -1.6190   25.2570  -28.2940 C   0  0  0  0  0  0  0  0  0  0  0  0
   -1.4161   24.9810  -29.3393 H   0  0  0  0  0  0  0  0  0  0  0  0
   -2.7070   24.6760  -27.6160 C   0  0  0  0  0  0  0  0  0  0  0  0
   -3.5870   23.7180  -28.3270 C   0  0  0  0  0  0  0  0  0  0  0  0
   -3.4190   22.4820  -28.1350 O   0  0  0  0  0  0  0  0  0  0  0  0
   -4.6170   24.1730  -29.2230 N   0  0  0  0  0  0  0  0  0  0  0  0
   -4.7010   25.1950  -29.4250 H   0  0  0  0  0  0  0  0  0  0  0  0
   -5.4660   23.2890  -29.9740 C   0  0  0  0  0  0  0  0  0  0  0  0
   -6.8460   23.2760  -29.7130 C   0  0  0  0  0  0  0  0  0  0  0  0
   -7.2625   23.9388  -28.9403 H   0  0  0  0  0  0  0  0  0  0  0  0
   -7.6940   22.4250  -30.4300 C   0  0  0  0  0  0  0  0  0  0  0  0
   -8.7752   22.4298  -30.2276 H   0  0  0  0  0  0  0  0  0  0  0  0
   -7.1690   21.5660  -31.4060 C   0  0  0  0  0  0  0  0  0  0  0  0
   -8.2220   20.4990  -32.3300 S   0  0  0  0  0  0  0  0  0  0  0  0
   -8.5590   19.3100  -31.4760 O   0  0  0  0  0  0  0  0  0  0  0  0
   -9.4700   21.2440  -32.7090 O   0  0  0  0  0  0  0  0  0  0  0  0
   -7.3660   20.0130  -33.7600 N   0  0  0  0  0  0  0  0  0  0  0  0
   -6.4680   19.0820  -33.9120 C   0  0  0  0  0  0  0  0  0  0  0  0
   -5.9400   18.8280  -35.0860 O   0  0  0  0  0  0  0  0  0  0  0  0
   -5.0810   17.8540  -35.0210 N   0  0  0  0  0  0  0  0  0  0  0  0
   -5.0450   17.4430  -33.7390 C   0  0  0  0  0  0  0  0  0  0  0  0
   -4.1510   16.3460  -33.2560 C   0  0  0  0  0  0  0  0  0  0  0  0
   -4.1434   16.3367  -32.1561 H   0  0  0  0  0  0  0  0  0  0  0  0
   -4.5222   15.3798  -33.6283 H   0  0  0  0  0  0  0  0  0  0  0  0
   -3.1297   16.5146  -33.6283 H   0  0  0  0  0  0  0  0  0  0  0  0
   -5.9120   18.2110  -32.9740 C   0  0  0  0  0  0  0  0  0  0  0  0
   -6.1340   18.0820  -31.4950 C   0  0  0  0  0  0  0  0  0  0  0  0
   -5.3047   18.5639  -30.9564 H   0  0  0  0  0  0  0  0  0  0  0  0
   -7.0812   18.5704  -31.2224 H   0  0  0  0  0  0  0  0  0  0  0  0
   -6.1787   17.0172  -31.2224 H   0  0  0  0  0  0  0  0  0  0  0  0
   -5.7880   21.5500  -31.6420 C   0  0  0  0  0  0  0  0  0  0  0  0
   -5.3691   20.8641  -32.3931 H   0  0  0  0  0  0  0  0  0  0  0  0
   -4.9400   22.4010  -30.9280 C   0  0  0  0  0  0  0  0  0  0  0  0
   -3.8560   22.3757  -31.1135 H   0  0  0  0  0  0  0  0  0  0  0  0
   -2.9560   25.0510  -26.2830 C   0  0  0  0  0  0  0  0  0  0  0  0
   -3.8078   24.6123  -25.7426 H   0  0  0  0  0  0  0  0  0  0  0  0
   -2.1290   25.9770  -25.6400 C   0  0  0  0  0  0  0  0  0  0  0  0
   -2.3290   26.2582  -24.5955 H   0  0  0  0  0  0  0  0  0  0  0  0
    1.6880   25.6570  -25.1300 C   0  0  0  0  0  0  0  0  0  0  0  0
    0.8188   25.0121  -25.3265 H   0  0  0  0  0  0  0  0  0  0  0  0
    2.2594   25.8492  -26.0501 H   0  0  0  0  0  0  0  0  0  0  0  0
    2.6140   24.9480  -24.1410 C   0  0  0  0  0  0  0  0  0  0  0  0
    2.0347   24.6408  -23.2578 H   0  0  0  0  0  0  0  0  0  0  0  0
    3.0517   24.0654  -24.6303 H   0  0  0  0  0  0  0  0  0  0  0  0
    3.7390   25.8830  -23.7050 C   0  0  0  0  0  0  0  0  0  0  0  0
    4.3643   25.3742  -22.9566 H   0  0  0  0  0  0  0  0  0  0  0  0
    4.3447   26.1486  -24.5840 H   0  0  0  0  0  0  0  0  0  0  0  0
  1  2  1  0
  2  3  2  0
  3  4  1  0
  3  5  1  0
  5  6  1  0
  5  7  2  0
  7  8  1  0
  8  9  2  0
  9 10  1  0
  8 11  1  0
 11 12  1  0
 12 13  2  0
 12 14  2  0
 12 15  1  0
 15 16  2  0
 16 17  1  0
 16 18  1  0
 18 19  1  0
 18 20  2  0
 20 21  1  0
 21 22  2  0
 21 23  1  0
 23 24  1  0
 23 25  1  0
 25 26  2  0
 26 27  1  0
 26 28  1  0
 28 29  1  0
 28 30  2  0
 30 31  1  0
 31 32  2  0
 31 33  2  0
 31 34  1  0
 34 35  2  0
 35 36  1  0
 36 37  1  0
 37 38  1  0
 38 39  1  0
 39 40  1  0
 39 41  1  0
 39 42  1  0
 38 43  2  0
 43 44  1  0
 44 45  1  0
 44 46  1  0
 44 47  1  0
 30 48  1  0
 48 49  1  0
 48 50  2  0
 50 51  1  0
 20 52  1  0
 52 53  1  0
 52 54  2  0
 54 55  1  0
 11 56  1  0
 56 57  1  0
 56 58  1  0
 56 59  1  0
 59 60  1  0
 59 61  1  0
 59 62  1  0
 62 63  1  0
 62 64  1  0
  9  2  1  0
 54 15  1  0
 62  7  1  0
 50 25  1  0
 43 35  1  0
M  CHG  1  37  -1
M  END
>  <UniqueID>  (40) 
39

>  <SMILES>  (40) 
Cc1[n-]o/c(=N/S(=O)(=O)c2ccc(NC(=O)c3ccc(S(=O)(=O)N4CCCc5ccccc54)cc3)cc2)c1C

>  <Energy>  (40) 
119.91207279102034

>  <Genealogy>  (40) 
Cc1[n-]oc(=NS(=O)(=O)c2ccc(NC(=O)c3ccc(S(=O)(=O)N4CCCc5ccccc54)cc3)cc2)c1C (protonated)
Cc1[n-]o/c(=N/S(=O)(=O)c2ccc(NC(=O)c3ccc(S(=O)(=O)N4CCCc5ccccc54)cc3)cc2)c1C (cis-trans isomerization)
Cc1[n-]o/c(=N/S(=O)(=O)c2ccc(NC(=O)c3ccc(S(=O)(=O)N4CCCc5ccccc54)cc3)cc2)c1C (3D coordinates assigned)
Cc1[n-]o/c(=N/S(=O)(=O)c2ccc(NC(=O)c3ccc(S(=O)(=O)N4CCCc5ccccc54)cc3)cc2)c1C (nonaromatic ring conformer: 119.91207279102034 kcal/mol)

>  <smiles>  (40) 
Cc1[nH]oc(=NS(=O)(=O)c2ccc(NC(=O)c3ccc(S(=O)(=O)N4CCCc5ccccc54)cc3)cc2)c1C

>  <score_type>  (40) 
oracle

>  <origin>  (40) 
adgpu

>  <m_score__min__energy>  (40) 
-9.8800000000000008

>  <m_primary>  (40) 
energy

$$$$
40:0
     RDKit          3D

 52 55  0  0  0  0  0  0  0  0999 V2000
   -4.7890   25.2740  -30.4300 C   0  0  0  0  0  0  0  0  0  0  0  0
   -3.7040   24.2340  -30.3880 C   0  0  0  0  0  0  0  0  0  0  0  0
   -3.8660   23.0160  -31.0670 C   0  0  0  0  0  0  0  0  0  0  0  0
   -2.8630   22.0350  -31.0250 C   0  0  0  0  0  0  0  0  0  0  0  0
   -3.0350   20.7540  -31.7410 C   0  0  0  0  0  0  0  0  0  0  0  0
   -2.0550   20.1550  -32.4580 N   0  0  0  0  0  0  0  0  0  0  0  0
   -2.6430   19.0360  -32.9200 C   0  0  0  0  0  0  0  0  0  0  0  0
   -1.8690   17.9230  -34.0380 S   0  0  0  0  0  0  0  0  0  0  0  0
   -1.2940   16.7770  -33.2530 O   0  0  0  0  0  0  0  0  0  0  0  0
   -2.8950   17.3860  -34.9940 O   0  0  0  0  0  0  0  0  0  0  0  0
   -0.6040   18.7400  -34.9490 C   0  0  0  0  0  0  0  0  0  0  0  0
    0.3150   17.9920  -35.6990 C   0  0  0  0  0  0  0  0  0  0  0  0
    1.3120   18.6380  -36.4370 C   0  0  0  0  0  0  0  0  0  0  0  0
    1.3990   20.0340  -36.4250 C   0  0  0  0  0  0  0  0  0  0  0  0
    0.4900   20.7830  -35.6720 C   0  0  0  0  0  0  0  0  0  0  0  0
   -0.5080   20.1390  -34.9340 C   0  0  0  0  0  0  0  0  0  0  0  0
   -3.9460   19.0040  -32.4740 C   0  0  0  0  0  0  0  0  0  0  0  0
   -4.9350   18.0040  -32.7500 N   0  0  0  0  0  0  0  0  0  0  0  0
   -4.5770   16.5820  -32.6990 C   0  0  0  0  0  0  0  0  0  0  0  0
   -5.2650   15.7990  -33.8310 C   0  0  0  0  0  0  0  0  0  0  0  0
   -6.6480   16.3640  -34.2210 C   0  0  0  0  0  0  0  0  0  0  0  0
   -7.2620   17.2200  -33.1110 C   0  0  0  0  0  0  0  0  0  0  0  0
   -6.3450   18.4080  -32.7890 C   0  0  0  0  0  0  0  0  0  0  0  0
   -4.1640   20.0740  -31.7560 O   0  0  0  0  0  0  0  0  0  0  0  0
   -1.6930   22.2790  -30.2910 C   0  0  0  0  0  0  0  0  0  0  0  0
   -1.5170   23.4930  -29.6070 C   0  0  0  0  0  0  0  0  0  0  0  0
   -0.2640   23.7400  -28.8160 C   0  0  0  0  0  0  0  0  0  0  0  0
   -2.5290   24.4670  -29.6520 C   0  0  0  0  0  0  0  0  0  0  0  0
   -2.3680   25.6680  -28.9640 O   0  0  0  0  0  0  0  0  0  0  0  0
   -5.0745   25.5477  -29.4036 H   0  0  0  0  0  0  0  0  0  0  0  0
   -4.4216   26.1660  -30.9586 H   0  0  0  0  0  0  0  0  0  0  0  0
   -5.6646   24.8692  -30.9586 H   0  0  0  0  0  0  0  0  0  0  0  0
   -4.7877   22.8287  -31.6374 H   0  0  0  0  0  0  0  0  0  0  0  0
    0.2515   16.8939  -35.7069 H   0  0  0  0  0  0  0  0  0  0  0  0
    2.0283   18.0478  -37.0274 H   0  0  0  0  0  0  0  0  0  0  0  0
    2.1818   20.5419  -37.0074 H   0  0  0  0  0  0  0  0  0  0  0  0
    0.5599   21.8807  -35.6600 H   0  0  0  0  0  0  0  0  0  0  0  0
   -1.2197   20.7313  -34.3401 H   0  0  0  0  0  0  0  0  0  0  0  0
   -3.4866   16.4816  -32.8034 H   0  0  0  0  0  0  0  0  0  0  0  0
   -4.9114   16.1709  -31.7351 H   0  0  0  0  0  0  0  0  0  0  0  0
   -4.6151   15.8269  -34.7181 H   0  0  0  0  0  0  0  0  0  0  0  0
   -5.4267   14.7750  -33.4631 H   0  0  0  0  0  0  0  0  0  0  0  0
   -6.5352   16.9831  -35.1232 H   0  0  0  0  0  0  0  0  0  0  0  0
   -7.3207   15.5120  -34.3987 H   0  0  0  0  0  0  0  0  0  0  0  0
   -8.2413   17.5962  -33.4419 H   0  0  0  0  0  0  0  0  0  0  0  0
   -7.3820   16.6040  -32.2076 H   0  0  0  0  0  0  0  0  0  0  0  0
   -6.4745   19.1794  -33.5624 H   0  0  0  0  0  0  0  0  0  0  0  0
   -6.6199   18.7973  -31.7976 H   0  0  0  0  0  0  0  0  0  0  0  0
   -0.9055   21.5120  -30.2507 H   0  0  0  0  0  0  0  0  0  0  0  0
   -0.4939   23.6947  -27.7413 H   0  0  0  0  0  0  0  0  0  0  0  0
    0.4834   22.9719  -29.0638 H   0  0  0  0  0  0  0  0  0  0  0  0
    0.1360   24.7343  -29.0638 H   0  0  0  0  0  0  0  0  0  0  0  0
  1  2  1  0
  2  3  2  0
  3  4  1  0
  4  5  1  0
  5  6  2  0
  6  7  1  0
  7  8  1  0
  8  9  2  0
  8 10  2  0
  8 11  1  0
 11 12  2  0
 12 13  1  0
 13 14  2  0
 14 15  1  0
 15 16  2  0
  7 17  2  0
 17 18  1  0
 18 19  1  0
 19 20  1  0
 20 21  1  0
 21 22  1  0
 22 23  1  0
 17 24  1  0
  4 25  2  0
 25 26  1  0
 26 27  1  0
 26 28  2  0
 28 29  1  0
 28  2  1  0
 24  5  1  0
 16 11  1  0
 23 18  1  0
  1 30  1  0
  1 31  1  0
  1 32  1  0
  3 33  1  0
 12 34  1  0
 13 35  1  0
 14 36  1  0
 15 37  1  0
 16 38  1  0
 19 39  1  0
 19 40  1  0
 20 41  1  0
 20 42  1  0
 21 43  1  0
 21 44  1  0
 22 45  1  0
 22 46  1  0
 23 47  1  0
 23 48  1  0
 25 49  1  0
 27 50  1  0
 27 51  1  0
 27 52  1  0
M  CHG  1  29  -1
M  END
>  <UniqueID>  (41) 
40

>  <SMILES>  (41) 
Cc1cc(-c2nc(S(=O)(=O)c3ccccc3)c(N3CCCCC3)o2)cc(C)c1[O-]

>  <Energy>  (41) 
90.81238749198529

>  <Genealogy>  (41) 
Cc1cc(-c2nc(S(=O)(=O)c3ccccc3)c(N3CCCCC3)o2)cc(C)c1[O-] (protonated)
Cc1cc(-c2nc(S(=O)(=O)c3ccccc3)c(N3CCCCC3)o2)cc(C)c1[O-] (3D coordinates assigned)
Cc1cc(-c2nc(S(=O)(=O)c3ccccc3)c(N3CCCCC3)o2)cc(C)c1[O-] (nonaromatic ring conformer: 90.81238749198529 kcal/mol)

>  <smiles>  (41) 
Cc1cc(-c2nc(S(=O)(=O)c3ccccc3)c(N3CCCCC3)o2)cc(C)c1O

>  <score_type>  (41) 
oracle

>  <origin>  (41) 
adgpu

>  <m_score__min__energy>  (41) 
-10.800000000000001

>  <m_primary>  (41) 
energy

$$$$
41:0
     RDKit          3D

 77 82  0  0  0  0  0  0  0  0999 V2000
   -1.1887   15.3966  -35.2696 H   0  0  0  0  0  0  0  0  0  0  0  0
   -0.8830   16.4520  -35.2180 C   0  0  0  0  0  0  0  0  0  0  0  0
    0.0880   16.9400  -36.0930 C   0  0  0  0  0  0  0  0  0  0  0  0
    0.5505   16.2675  -36.8305 H   0  0  0  0  0  0  0  0  0  0  0  0
    0.4730   18.2790  -36.0340 C   0  0  0  0  0  0  0  0  0  0  0  0
    1.2452   18.6542  -36.7217 H   0  0  0  0  0  0  0  0  0  0  0  0
   -0.1160   19.1550  -35.1040 C   0  0  0  0  0  0  0  0  0  0  0  0
    0.3130   20.6000  -35.1010 C   0  0  0  0  0  0  0  0  0  0  0  0
    0.4168   20.9495  -34.0632 H   0  0  0  0  0  0  0  0  0  0  0  0
    1.2787   20.6969  -35.6188 H   0  0  0  0  0  0  0  0  0  0  0  0
   -0.4434   21.2081  -35.6188 H   0  0  0  0  0  0  0  0  0  0  0  0
   -1.0930   18.6580  -34.2010 C   0  0  0  0  0  0  0  0  0  0  0  0
   -1.7320   19.5140  -33.1700 C   0  0  0  0  0  0  0  0  0  0  0  0
   -1.4510   19.3470  -31.9510 O   0  0  0  0  0  0  0  0  0  0  0  0
   -2.6550   20.5470  -33.5580 N   0  0  0  0  0  0  0  0  0  0  0  0
   -2.6510   20.8640  -34.5550 H   0  0  0  0  0  0  0  0  0  0  0  0
   -3.4460   21.2960  -32.6200 C   0  0  0  0  0  0  0  0  0  0  0  0
   -4.7390   20.8580  -32.3040 C   0  0  0  0  0  0  0  0  0  0  0  0
   -5.1321   19.9386  -32.7625 H   0  0  0  0  0  0  0  0  0  0  0  0
   -5.5320   21.5820  -31.4100 C   0  0  0  0  0  0  0  0  0  0  0  0
   -6.5488   21.2328  -31.1771 H   0  0  0  0  0  0  0  0  0  0  0  0
   -5.0430   22.7500  -30.8070 C   0  0  0  0  0  0  0  0  0  0  0  0
   -5.9180   23.5120  -29.8490 C   0  0  0  0  0  0  0  0  0  0  0  0
   -5.6333   23.2640  -28.8158 H   0  0  0  0  0  0  0  0  0  0  0  0
   -5.7904   24.5918  -30.0154 H   0  0  0  0  0  0  0  0  0  0  0  0
   -6.9700   23.2372  -30.0154 H   0  0  0  0  0  0  0  0  0  0  0  0
   -3.7110   23.1480  -31.0620 C   0  0  0  0  0  0  0  0  0  0  0  0
   -3.1420   24.2990  -30.4200 N   0  0  0  0  0  0  0  0  0  0  0  0
   -2.3690   24.3340  -29.3660 C   0  0  0  0  0  0  0  0  0  0  0  0
   -1.9990   25.5580  -28.8990 N   0  0  0  0  0  0  0  0  0  0  0  0
   -1.2140   25.7090  -27.8030 C   0  0  0  0  0  0  0  0  0  0  0  0
   -0.8560   26.9840  -27.3540 C   0  0  0  0  0  0  0  0  0  0  0  0
   -1.2095   27.8743  -27.8948 H   0  0  0  0  0  0  0  0  0  0  0  0
   -0.0460   27.1330  -26.2140 C   0  0  0  0  0  0  0  0  0  0  0  0
    0.3170   28.4470  -25.7430 N   0  0  0  0  0  0  0  0  0  0  0  0
    0.8800   28.6220  -24.3990 C   0  0  0  0  0  0  0  0  0  0  0  0
    0.0746   28.9118  -23.7080 H   0  0  0  0  0  0  0  0  0  0  0  0
    1.3367   27.6711  -24.0872 H   0  0  0  0  0  0  0  0  0  0  0  0
    1.9710   29.7140  -24.3860 C   0  0  0  0  0  0  0  0  0  0  0  0
    1.9992   30.1598  -23.3808 H   0  0  0  0  0  0  0  0  0  0  0  0
    2.9133   29.2187  -24.6628 H   0  0  0  0  0  0  0  0  0  0  0  0
    1.7610   30.8050  -25.3720 N   0  0  0  0  0  0  0  0  0  0  0  0
    2.7060   30.7130  -26.4980 C   0  0  0  0  0  0  0  0  0  0  0  0
    3.7304   30.6133  -26.1098 H   0  0  0  0  0  0  0  0  0  0  0  0
    2.4597   29.8346  -27.1126 H   0  0  0  0  0  0  0  0  0  0  0  0
    2.6337   31.6224  -27.1126 H   0  0  0  0  0  0  0  0  0  0  0  0
    0.3630   30.9200  -25.8310 C   0  0  0  0  0  0  0  0  0  0  0  0
   -0.2810   31.1336  -24.9652 H   0  0  0  0  0  0  0  0  0  0  0  0
    0.3084   31.7329  -26.5700 H   0  0  0  0  0  0  0  0  0  0  0  0
   -0.1170   29.6270  -26.5020 C   0  0  0  0  0  0  0  0  0  0  0  0
   -1.2157   29.6361  -26.5555 H   0  0  0  0  0  0  0  0  0  0  0  0
    0.3179   29.5738  -27.5110 H   0  0  0  0  0  0  0  0  0  0  0  0
    0.4020   25.9810  -25.5370 C   0  0  0  0  0  0  0  0  0  0  0  0
    1.0341   26.0853  -24.6428 H   0  0  0  0  0  0  0  0  0  0  0  0
    0.0500   24.7070  -25.9920 C   0  0  0  0  0  0  0  0  0  0  0  0
    0.4087   23.8138  -25.4595 H   0  0  0  0  0  0  0  0  0  0  0  0
   -0.7580   24.5690  -27.1240 C   0  0  0  0  0  0  0  0  0  0  0  0
   -1.0990   23.3410  -27.5860 N   0  0  0  0  0  0  0  0  0  0  0  0
   -1.8900   23.1760  -28.6850 C   0  0  0  0  0  0  0  0  0  0  0  0
   -2.1540   21.9810  -29.1300 N   0  0  0  0  0  0  0  0  0  0  0  0
   -1.8140   20.7200  -28.5300 C   0  0  0  0  0  0  0  0  0  0  0  0
   -2.5730   20.2740  -27.4410 C   0  0  0  0  0  0  0  0  0  0  0  0
   -3.4368   20.8632  -27.0994 H   0  0  0  0  0  0  0  0  0  0  0  0
   -2.2410   19.0870  -26.7860 C   0  0  0  0  0  0  0  0  0  0  0  0
   -2.8538   18.7356  -25.9428 H   0  0  0  0  0  0  0  0  0  0  0  0
   -1.1320   18.3440  -27.1990 C   0  0  0  0  0  0  0  0  0  0  0  0
   -0.8774   17.4055  -26.6849 H   0  0  0  0  0  0  0  0  0  0  0  0
   -0.3430   18.7930  -28.2680 C   0  0  0  0  0  0  0  0  0  0  0  0
    0.8060   18.0460  -28.6770 N   0  0  0  0  0  0  0  0  0  0  0  0
    1.2440   18.2100  -29.6110 H   0  0  0  0  0  0  0  0  0  0  0  0
    1.2130   17.3100  -28.0590 H   0  0  0  0  0  0  0  0  0  0  0  0
   -0.6790   19.9860  -28.9240 C   0  0  0  0  0  0  0  0  0  0  0  0
   -0.0522   20.3504  -29.7512 H   0  0  0  0  0  0  0  0  0  0  0  0
   -2.9310   22.4340  -31.9790 C   0  0  0  0  0  0  0  0  0  0  0  0
   -1.9061   22.7672  -32.1993 H   0  0  0  0  0  0  0  0  0  0  0  0
   -1.4670   17.3020  -34.2770 C   0  0  0  0  0  0  0  0  0  0  0  0
   -2.2279   16.9084  -33.5870 H   0  0  0  0  0  0  0  0  0  0  0  0
  1  2  1  0
  2  3  2  0
  3  4  1  0
  3  5  1  0
  5  6  1  0
  5  7  2  0
  7  8  1  0
  8  9  1  0
  8 10  1  0
  8 11  1  0
  7 12  1  0
 12 13  1  0
 13 14  2  0
 13 15  1  0
 15 16  1  0
 15 17  1  0
 17 18  2  0
 18 19  1  0
 18 20  1  0
 20 21  1  0
 20 22  2  0
 22 23  1  0
 23 24  1  0
 23 25  1  0
 23 26  1  0
 22 27  1  0
 27 28  1  0
 28 29  2  0
 29 30  1  0
 30 31  1  0
 31 32  2  0
 32 33  1  0
 32 34  1  0
 34 35  1  0
 35 36  1  0
 36 37  1  0
 36 38  1  0
 36 39  1  0
 39 40  1  0
 39 41  1  0
 39 42  1  0
 42 43  1  0
 43 44  1  0
 43 45  1  0
 43 46  1  0
 42 47  1  0
 47 48  1  0
 47 49  1  0
 47 50  1  0
 50 51  1  0
 50 52  1  0
 34 53  2  0
 53 54  1  0
 53 55  1  0
 55 56  1  0
 55 57  2  0
 57 58  1  0
 58 59  1  0
 59 60  2  0
 60 61  1  0
 61 62  2  0
 62 63  1  0
 62 64  1  0
 64 65  1  0
 64 66  2  0
 66 67  1  0
 66 68  1  0
 68 69  1  0
 69 70  1  0
 69 71  1  0
 68 72  2  0
 72 73  1  0
 27 74  2  0
 74 75  1  0
 12 76  2  0
 76 77  1  0
 76  2  1  0
 74 17  1  0
 59 29  1  0
 72 61  1  0
 57 31  1  0
 50 35  1  0
M  CHG  2  30  -1  58  -1
M  END
>  <UniqueID>  (42) 
41

>  <SMILES>  (42) 
Cc1ccc(NC(=O)c2ccccc2C)cc1/N=c1/[n-]c2cc(N3CCN(C)CC3)ccc2[n-]/c1=N\c1cccc(N)c1

>  <Energy>  (42) 
125.58616947982286

>  <Genealogy>  (42) 
Cc1ccc(NC(=O)c2ccccc2C)cc1N=c1[n-]c2cc(N3CCN(C)CC3)ccc2[n-]c1=Nc1cccc(N)c1 (protonated)
Cc1ccc(NC(=O)c2ccccc2C)cc1/N=c1/[n-]c2cc(N3CCN(C)CC3)ccc2[n-]/c1=N\c1cccc(N)c1 (cis-trans isomerization)
Cc1ccc(NC(=O)c2ccccc2C)cc1/N=c1/[n-]c2cc(N3CCN(C)CC3)ccc2[n-]/c1=N\c1cccc(N)c1 (3D coordinates assigned)
Cc1ccc(NC(=O)c2ccccc2C)cc1/N=c1/[n-]c2cc(N3CCN(C)CC3)ccc2[n-]/c1=N\c1cccc(N)c1 (nonaromatic ring conformer: 125.58616947982286 kcal/mol)

>  <smiles>  (42) 
Cc1ccc(NC(=O)c2ccccc2C)cc1N=c1[nH]c2cc(N3CCN(C)CC3)ccc2[nH]c1=Nc1cccc(N)c1

>  <score_type>  (42) 
oracle

>  <origin>  (42) 
adgpu

>  <m_score__min__energy>  (42) 
-12.49

>  <m_primary>  (42) 
energy

$$$$
42:0
     RDKit          3D

 57 60  0  0  0  0  0  0  0  0999 V2000
    1.0144   16.6688  -29.9841 H   0  0  0  0  0  0  0  0  0  0  0  0
    0.9710   15.9290  -30.7970 C   0  0  0  0  0  0  0  0  0  0  0  0
    0.6080   14.6080  -30.5200 C   0  0  0  0  0  0  0  0  0  0  0  0
    0.3608   14.3102  -29.4904 H   0  0  0  0  0  0  0  0  0  0  0  0
    0.5590   13.6650  -31.5510 C   0  0  0  0  0  0  0  0  0  0  0  0
    0.2718   12.6264  -31.3300 H   0  0  0  0  0  0  0  0  0  0  0  0
    0.8750   14.0380  -32.8680 C   0  0  0  0  0  0  0  0  0  0  0  0
    0.8410   13.0660  -33.9230 N   0  0  0  0  0  0  0  0  0  0  0  0
    2.0500   12.3270  -34.2810 C   0  0  0  0  0  0  0  0  0  0  0  0
    2.5701   12.0091  -33.3653 H   0  0  0  0  0  0  0  0  0  0  0  0
    1.7765   11.4415  -34.8736 H   0  0  0  0  0  0  0  0  0  0  0  0
    2.7134   12.9742  -34.8736 H   0  0  0  0  0  0  0  0  0  0  0  0
   -0.6470   12.7140  -34.7500 S   0  0  0  0  0  0  0  0  0  0  0  0
   -0.3930   12.4790  -36.2130 O   0  0  0  0  0  0  0  0  0  0  0  0
   -1.2620   11.4760  -34.1600 O   0  0  0  0  0  0  0  0  0  0  0  0
   -1.7280   14.0920  -34.5860 C   0  0  0  0  0  0  0  0  0  0  0  0
   -2.7800   14.0310  -33.6650 C   0  0  0  0  0  0  0  0  0  0  0  0
   -2.9211   13.1282  -33.0526 H   0  0  0  0  0  0  0  0  0  0  0  0
   -3.6520   15.1140  -33.5210 C   0  0  0  0  0  0  0  0  0  0  0  0
   -4.4782   15.0563  -32.7971 H   0  0  0  0  0  0  0  0  0  0  0  0
   -3.4820   16.2770  -34.2940 C   0  0  0  0  0  0  0  0  0  0  0  0
   -4.4150   17.4200  -34.1370 C   0  0  0  0  0  0  0  0  0  0  0  0
   -4.6460   18.1720  -35.1230 O   0  0  0  0  0  0  0  0  0  0  0  0
   -5.0950   17.6510  -32.8900 N   0  0  0  0  0  0  0  0  0  0  0  0
   -5.2740   16.8300  -32.2700 H   0  0  0  0  0  0  0  0  0  0  0  0
   -5.6870   18.9100  -32.5280 C   0  0  0  0  0  0  0  0  0  0  0  0
   -4.9730   20.1170  -32.6380 C   0  0  0  0  0  0  0  0  0  0  0  0
   -3.9424   20.1095  -33.0224 H   0  0  0  0  0  0  0  0  0  0  0  0
   -5.5650   21.3250  -32.2620 C   0  0  0  0  0  0  0  0  0  0  0  0
   -5.0014   22.2646  -32.3590 H   0  0  0  0  0  0  0  0  0  0  0  0
   -6.8730   21.3450  -31.7620 C   0  0  0  0  0  0  0  0  0  0  0  0
   -7.6140   22.8720  -31.2990 S   0  0  0  0  0  0  0  0  0  0  0  0
   -7.9520   22.8260  -29.8350 O   0  0  0  0  0  0  0  0  0  0  0  0
   -8.8750   23.1070  -32.0840 O   0  0  0  0  0  0  0  0  0  0  0  0
   -6.5160   24.1840  -31.5880 N   0  0  0  0  0  0  0  0  0  0  0  0
   -5.3850   24.3450  -30.9710 C   0  0  0  0  0  0  0  0  0  0  0  0
   -4.5650   25.3830  -31.2120 N   0  0  0  0  0  0  0  0  0  0  0  0
   -3.5480   25.2420  -30.4100 O   0  0  0  0  0  0  0  0  0  0  0  0
   -3.6740   24.1640  -29.6690 C   0  0  0  0  0  0  0  0  0  0  0  0
   -2.6920   23.7330  -28.6350 C   0  0  0  0  0  0  0  0  0  0  0  0
   -3.1094   23.9162  -27.6339 H   0  0  0  0  0  0  0  0  0  0  0  0
   -2.4817   22.6598  -28.7538 H   0  0  0  0  0  0  0  0  0  0  0  0
   -1.7598   24.3047  -28.7538 H   0  0  0  0  0  0  0  0  0  0  0  0
   -4.8590   23.5320  -29.9830 C   0  0  0  0  0  0  0  0  0  0  0  0
   -5.2808   22.6109  -29.5545 H   0  0  0  0  0  0  0  0  0  0  0  0
   -7.5790   20.1430  -31.6250 C   0  0  0  0  0  0  0  0  0  0  0  0
   -8.6021   20.1513  -31.2209 H   0  0  0  0  0  0  0  0  0  0  0  0
   -6.9880   18.9330  -32.0000 C   0  0  0  0  0  0  0  0  0  0  0  0
   -7.5458   17.9925  -31.8807 H   0  0  0  0  0  0  0  0  0  0  0  0
   -2.4310   16.3240  -35.2280 C   0  0  0  0  0  0  0  0  0  0  0  0
   -2.2932   17.2205  -35.8503 H   0  0  0  0  0  0  0  0  0  0  0  0
   -1.5600   15.2390  -35.3710 C   0  0  0  0  0  0  0  0  0  0  0  0
   -0.7401   15.2871  -36.1028 H   0  0  0  0  0  0  0  0  0  0  0  0
    1.2300   15.3700  -33.1390 C   0  0  0  0  0  0  0  0  0  0  0  0
    1.4705   15.6740  -34.1684 H   0  0  0  0  0  0  0  0  0  0  0  0
    1.2790   16.3110  -32.1060 C   0  0  0  0  0  0  0  0  0  0  0  0
    1.5600   17.3521  -32.3234 H   0  0  0  0  0  0  0  0  0  0  0  0
  1  2  1  0
  2  3  2  0
  3  4  1  0
  3  5  1  0
  5  6  1  0
  5  7  2  0
  7  8  1  0
  8  9  1  0
  9 10  1  0
  9 11  1  0
  9 12  1  0
  8 13  1  0
 13 14  2  0
 13 15  2  0
 13 16  1  0
 16 17  2  0
 17 18  1  0
 17 19  1  0
 19 20  1  0
 19 21  2  0
 21 22  1  0
 22 23  2  0
 22 24  1  0
 24 25  1  0
 24 26  1  0
 26 27  2  0
 27 28  1  0
 27 29  1  0
 29 30  1  0
 29 31  2  0
 31 32  1  0
 32 33  2  0
 32 34  2  0
 32 35  1  0
 35 36  2  0
 36 37  1  0
 37 38  1  0
 38 39  1  0
 39 40  1  0
 40 41  1  0
 40 42  1  0
 40 43  1  0
 39 44  2  0
 44 45  1  0
 31 46  1  0
 46 47  1  0
 46 48  2  0
 48 49  1  0
 21 50  1  0
 50 51  1  0
 50 52  2  0
 52 53  1  0
  7 54  1  0
 54 55  1  0
 54 56  2  0
 56 57  1  0
 56  2  1  0
 52 16  1  0
 48 26  1  0
 44 36  1  0
M  CHG  1  37  -1
M  END
>  <UniqueID>  (43) 
42

>  <SMILES>  (43) 
Cc1c/c(=N\S(=O)(=O)c2ccc(NC(=O)c3ccc(S(=O)(=O)N(C)c4ccccc4)cc3)cc2)[n-]o1

>  <Energy>  (43) 
104.95014629982533

>  <Genealogy>  (43) 
Cc1cc(=NS(=O)(=O)c2ccc(NC(=O)c3ccc(S(=O)(=O)N(C)c4ccccc4)cc3)cc2)[n-]o1 (protonated)
Cc1c/c(=N\S(=O)(=O)c2ccc(NC(=O)c3ccc(S(=O)(=O)N(C)c4ccccc4)cc3)cc2)[n-]o1 (cis-trans isomerization)
Cc1c/c(=N\S(=O)(=O)c2ccc(NC(=O)c3ccc(S(=O)(=O)N(C)c4ccccc4)cc3)cc2)[n-]o1 (3D coordinates assigned)
Cc1c/c(=N\S(=O)(=O)c2ccc(NC(=O)c3ccc(S(=O)(=O)N(C)c4ccccc4)cc3)cc2)[n-]o1 (optimized conformer: 104.95014629982533 kcal/mol)

>  <smiles>  (43) 
Cc1cc(=NS(=O)(=O)c2ccc(NC(=O)c3ccc(S(=O)(=O)N(C)c4ccccc4)cc3)cc2)[nH]o1

>  <score_type>  (43) 
oracle

>  <origin>  (43) 
adgpu

>  <m_score__min__energy>  (43) 
-10.220000000000001

>  <m_primary>  (43) 
energy

$$$$
43:0
     RDKit          3D

 60 63  0  0  0  0  0  0  0  0999 V2000
   -8.4090   21.4130  -31.6840 O   0  0  0  0  0  0  0  0  0  0  0  0
   -7.2900   21.1600  -32.2050 C   0  0  0  0  0  0  0  0  0  0  0  0
   -6.3200   22.2120  -32.3380 N   0  0  0  0  0  0  0  0  0  0  0  0
   -6.0920   23.2280  -31.3450 C   0  0  0  0  0  0  0  0  0  0  0  0
   -7.0900   24.1570  -30.9960 C   0  0  0  0  0  0  0  0  0  0  0  0
   -6.8560   25.1010  -29.9910 C   0  0  0  0  0  0  0  0  0  0  0  0
   -5.6350   25.1190  -29.3140 C   0  0  0  0  0  0  0  0  0  0  0  0
   -4.6390   24.1900  -29.6370 C   0  0  0  0  0  0  0  0  0  0  0  0
   -3.1260   24.1910  -28.7370 S   0  0  0  0  0  0  0  0  0  0  0  0
   -2.1720   25.1980  -29.3210 O   0  0  0  0  0  0  0  0  0  0  0  0
   -3.4150   24.5690  -27.3110 O   0  0  0  0  0  0  0  0  0  0  0  0
   -2.4090   22.5990  -28.8020 N   0  0  0  0  0  0  0  0  0  0  0  0
   -1.0520   22.5980  -28.1970 C   0  0  0  0  0  0  0  0  0  0  0  0
   -1.0310   22.0190  -26.7740 C   0  0  0  0  0  0  0  0  0  0  0  0
   -1.5550   20.5720  -26.7550 C   0  0  0  0  0  0  0  0  0  0  0  0
   -2.6240   20.3120  -27.8330 C   0  0  0  0  0  0  0  0  0  0  0  0
   -3.3450   21.6070  -28.2220 C   0  0  0  0  0  0  0  0  0  0  0  0
   -4.8720   23.2450  -30.6490 C   0  0  0  0  0  0  0  0  0  0  0  0
   -6.9830   19.7800  -32.6630 C   0  0  0  0  0  0  0  0  0  0  0  0
   -7.9080   18.7450  -32.4700 C   0  0  0  0  0  0  0  0  0  0  0  0
   -7.5970   17.4380  -32.8490 C   0  0  0  0  0  0  0  0  0  0  0  0
   -6.3470   17.1300  -33.3980 C   0  0  0  0  0  0  0  0  0  0  0  0
   -6.0850   15.4530  -33.8660 Cl  0  0  0  0  0  0  0  0  0  0  0  0
   -5.3840   18.1560  -33.5710 C   0  0  0  0  0  0  0  0  0  0  0  0
   -3.7490   17.8720  -34.2340 S   0  0  0  0  0  0  0  0  0  0  0  0
   -3.8990   17.3910  -35.6540 O   0  0  0  0  0  0  0  0  0  0  0  0
   -3.0380   16.7960  -33.4600 O   0  0  0  0  0  0  0  0  0  0  0  0
   -2.7120   19.2840  -34.1800 N   0  0  0  0  0  0  0  0  0  0  0  0
   -2.7520   19.9610  -32.8730 C   0  0  0  0  0  0  0  0  0  0  0  0
   -1.8330   21.1910  -32.9050 C   0  0  0  0  0  0  0  0  0  0  0  0
   -0.5080   20.8240  -33.2450 O   0  0  0  0  0  0  0  0  0  0  0  0
   -0.4880   20.2450  -34.5390 C   0  0  0  0  0  0  0  0  0  0  0  0
   -1.3310   18.9650  -34.5700 C   0  0  0  0  0  0  0  0  0  0  0  0
   -5.7370   19.4750  -33.2380 C   0  0  0  0  0  0  0  0  0  0  0  0
   -5.7450   22.2400  -33.2130 H   0  0  0  0  0  0  0  0  0  0  0  0
   -8.0590   24.1405  -31.5164 H   0  0  0  0  0  0  0  0  0  0  0  0
   -7.6366   25.8318  -29.7330 H   0  0  0  0  0  0  0  0  0  0  0  0
   -5.4554   25.8646  -28.5254 H   0  0  0  0  0  0  0  0  0  0  0  0
   -0.3857   21.9947  -28.8311 H   0  0  0  0  0  0  0  0  0  0  0  0
   -0.7193   23.6445  -28.1320 H   0  0  0  0  0  0  0  0  0  0  0  0
    0.0021   22.0316  -26.3965 H   0  0  0  0  0  0  0  0  0  0  0  0
   -1.6836   22.6345  -26.1374 H   0  0  0  0  0  0  0  0  0  0  0  0
   -0.7095   19.8894  -26.9261 H   0  0  0  0  0  0  0  0  0  0  0  0
   -2.0239   20.4016  -25.7746 H   0  0  0  0  0  0  0  0  0  0  0  0
   -2.1386   19.8897  -28.7252 H   0  0  0  0  0  0  0  0  0  0  0  0
   -3.3657   19.6092  -27.4257 H   0  0  0  0  0  0  0  0  0  0  0  0
   -4.1228   21.3736  -28.9640 H   0  0  0  0  0  0  0  0  0  0  0  0
   -3.7871   22.0412  -27.3131 H   0  0  0  0  0  0  0  0  0  0  0  0
   -4.0918   22.5110  -30.8992 H   0  0  0  0  0  0  0  0  0  0  0  0
   -8.8860   18.9641  -32.0167 H   0  0  0  0  0  0  0  0  0  0  0  0
   -8.3430   16.6409  -32.7146 H   0  0  0  0  0  0  0  0  0  0  0  0
   -3.7825   20.2788  -32.6561 H   0  0  0  0  0  0  0  0  0  0  0  0
   -2.4096   19.2678  -32.0905 H   0  0  0  0  0  0  0  0  0  0  0  0
   -2.2119   21.9042  -33.6518 H   0  0  0  0  0  0  0  0  0  0  0  0
   -1.8248   21.6493  -31.9051 H   0  0  0  0  0  0  0  0  0  0  0  0
   -0.8967   20.9647  -35.2635 H   0  0  0  0  0  0  0  0  0  0  0  0
    0.5506   19.9922  -34.7986 H   0  0  0  0  0  0  0  0  0  0  0  0
   -1.3239   18.5447  -35.5865 H   0  0  0  0  0  0  0  0  0  0  0  0
   -0.9103   18.2293  -33.8687 H   0  0  0  0  0  0  0  0  0  0  0  0
   -5.0215   20.2877  -33.4318 H   0  0  0  0  0  0  0  0  0  0  0  0
  1  2  2  0
  2  3  1  0
  3  4  1  0
  4  5  2  0
  5  6  1  0
  6  7  2  0
  7  8  1  0
  8  9  1  0
  9 10  2  0
  9 11  2  0
  9 12  1  0
 12 13  1  0
 13 14  1  0
 14 15  1  0
 15 16  1  0
 16 17  1  0
  8 18  2  0
  2 19  1  0
 19 20  2  0
 20 21  1  0
 21 22  2  0
 22 23  1  0
 22 24  1  0
 24 25  1  0
 25 26  2  0
 25 27  2  0
 25 28  1  0
 28 29  1  0
 29 30  1  0
 30 31  1  0
 31 32  1  0
 32 33  1  0
 24 34  2  0
 18  4  1  0
 34 19  1  0
 17 12  1  0
 33 28  1  0
  3 35  1  0
  5 36  1  0
  6 37  1  0
  7 38  1  0
 13 39  1  0
 13 40  1  0
 14 41  1  0
 14 42  1  0
 15 43  1  0
 15 44  1  0
 16 45  1  0
 16 46  1  0
 17 47  1  0
 17 48  1  0
 18 49  1  0
 20 50  1  0
 21 51  1  0
 29 52  1  0
 29 53  1  0
 30 54  1  0
 30 55  1  0
 32 56  1  0
 32 57  1  0
 33 58  1  0
 33 59  1  0
 34 60  1  0
M  END
>  <UniqueID>  (44) 
43

>  <SMILES>  (44) 
O=C(Nc1cccc(S(=O)(=O)N2CCCCC2)c1)c1ccc(Cl)c(S(=O)(=O)N2CCOCC2)c1

>  <Energy>  (44) 
80.71360174491797

>  <Genealogy>  (44) 
O=C(Nc1cccc(S(=O)(=O)N2CCCCC2)c1)c1ccc(Cl)c(S(=O)(=O)N2CCOCC2)c1 (3D coordinates assigned)
O=C(Nc1cccc(S(=O)(=O)N2CCCCC2)c1)c1ccc(Cl)c(S(=O)(=O)N2CCOCC2)c1 (nonaromatic ring conformer: 80.71360174491797 kcal/mol)

>  <smiles>  (44) 
O=C(Nc1cccc(S(=O)(=O)N2CCCCC2)c1)c1ccc(Cl)c(S(=O)(=O)N2CCOCC2)c1

>  <score_type>  (44) 
oracle

>  <origin>  (44) 
adgpu

>  <m_score__min__energy>  (44) 
-11.85

>  <m_primary>  (44) 
energy

$$$$
44:0
     RDKit          3D

 43 46  0  0  0  0  0  0  0  0999 V2000
   -7.0090   25.7140  -28.9590 N   0  0  0  0  0  0  0  0  0  0  0  0
   -6.1060   25.4340  -30.0340 C   0  0  0  0  0  0  0  0  0  0  0  0
   -5.3060   26.3650  -30.4610 N   0  0  0  0  0  0  0  0  0  0  0  0
   -6.1030   24.0930  -30.6680 C   0  0  0  0  0  0  0  0  0  0  0  0
   -7.3220   23.4410  -30.9180 C   0  0  0  0  0  0  0  0  0  0  0  0
   -7.3440   22.1780  -31.5070 C   0  0  0  0  0  0  0  0  0  0  0  0
   -6.1490   21.5340  -31.8620 C   0  0  0  0  0  0  0  0  0  0  0  0
   -6.1920   20.1930  -32.4960 C   0  0  0  0  0  0  0  0  0  0  0  0
   -6.9830   19.1840  -32.0280 N   0  0  0  0  0  0  0  0  0  0  0  0
   -6.7200   18.1880  -32.8900 C   0  0  0  0  0  0  0  0  0  0  0  0
   -7.2590   16.9450  -32.8800 N   0  0  0  0  0  0  0  0  0  0  0  0
   -6.8700   16.0680  -33.8550 C   0  0  0  0  0  0  0  0  0  0  0  0
   -5.9650   16.4490  -34.8140 N   0  0  0  0  0  0  0  0  0  0  0  0
   -5.4260   17.7050  -34.8230 C   0  0  0  0  0  0  0  0  0  0  0  0
   -5.8280   18.5780  -33.8240 C   0  0  0  0  0  0  0  0  0  0  0  0
   -5.4740   19.8480  -33.6020 N   0  0  0  0  0  0  0  0  0  0  0  0
   -4.9280   22.1790  -31.6040 C   0  0  0  0  0  0  0  0  0  0  0  0
   -4.8940   23.4640  -31.0250 C   0  0  0  0  0  0  0  0  0  0  0  0
   -3.6830   24.1480  -30.8130 O   0  0  0  0  0  0  0  0  0  0  0  0
   -2.6240   23.7220  -29.9530 C   0  0  0  0  0  0  0  0  0  0  0  0
   -2.8080   24.2760  -28.5640 C   0  0  0  0  0  0  0  0  0  0  0  0
   -1.7710   24.9870  -27.9350 C   0  0  0  0  0  0  0  0  0  0  0  0
   -1.9510   25.5000  -26.6470 C   0  0  0  0  0  0  0  0  0  0  0  0
   -3.1600   25.3000  -25.9750 C   0  0  0  0  0  0  0  0  0  0  0  0
   -4.1910   24.5840  -26.5900 C   0  0  0  0  0  0  0  0  0  0  0  0
   -4.0160   24.0690  -27.8780 C   0  0  0  0  0  0  0  0  0  0  0  0
   -7.7330   25.0180  -28.6730 H   0  0  0  0  0  0  0  0  0  0  0  0
   -6.9950   26.6400  -28.4760 H   0  0  0  0  0  0  0  0  0  0  0  0
   -5.3100   27.3140  -30.0250 H   0  0  0  0  0  0  0  0  0  0  0  0
   -4.6240   26.1860  -31.2330 H   0  0  0  0  0  0  0  0  0  0  0  0
   -8.2681   23.9319  -30.6463 H   0  0  0  0  0  0  0  0  0  0  0  0
   -8.3073   21.6814  -31.6953 H   0  0  0  0  0  0  0  0  0  0  0  0
   -7.2856   15.0497  -33.8706 H   0  0  0  0  0  0  0  0  0  0  0  0
   -4.7019   18.0110  -35.5925 H   0  0  0  0  0  0  0  0  0  0  0  0
   -4.8190   20.4270  -34.1730 H   0  0  0  0  0  0  0  0  0  0  0  0
   -3.9843   21.6739  -31.8575 H   0  0  0  0  0  0  0  0  0  0  0  0
   -2.6180   22.6231  -29.9052 H   0  0  0  0  0  0  0  0  0  0  0  0
   -1.6704   24.0925  -30.3572 H   0  0  0  0  0  0  0  0  0  0  0  0
   -0.8153   25.1401  -28.4577 H   0  0  0  0  0  0  0  0  0  0  0  0
   -1.1396   26.0621  -26.1616 H   0  0  0  0  0  0  0  0  0  0  0  0
   -3.3002   25.7060  -24.9623 H   0  0  0  0  0  0  0  0  0  0  0  0
   -5.1416   24.4255  -26.0597 H   0  0  0  0  0  0  0  0  0  0  0  0
   -4.8271   23.4998  -28.3557 H   0  0  0  0  0  0  0  0  0  0  0  0
  1  2  1  0
  2  3  2  0
  2  4  1  0
  4  5  2  0
  5  6  1  0
  6  7  2  0
  7  8  1  0
  8  9  2  0
  9 10  1  0
 10 11  2  0
 11 12  1  0
 12 13  2  0
 13 14  1  0
 14 15  2  0
 15 16  1  0
  7 17  1  0
 17 18  2  0
 18 19  1  0
 19 20  1  0
 20 21  1  0
 21 22  2  0
 22 23  1  0
 23 24  2  0
 24 25  1  0
 25 26  2  0
 18  4  1  0
 26 21  1  0
 16  8  1  0
 15 10  1  0
  1 27  1  0
  1 28  1  0
  3 29  1  0
  3 30  1  0
  5 31  1  0
  6 32  1  0
 12 33  1  0
 14 34  1  0
 16 35  1  0
 17 36  1  0
 20 37  1  0
 20 38  1  0
 22 39  1  0
 23 40  1  0
 24 41  1  0
 25 42  1  0
 26 43  1  0
M  CHG  1   3   1
M  END
>  <UniqueID>  (45) 
44

>  <SMILES>  (45) 
NC(=[NH2+])c1ccc(-c2nc3ncncc3[nH]2)cc1OCc1ccccc1

>  <Energy>  (45) 
92.18603551854238

>  <Genealogy>  (45) 
NC(=[NH2+])c1ccc(-c2nc3ncncc3[nH]2)cc1OCc1ccccc1 (protonated)
NC(=[NH2+])c1ccc(-c2nc3ncncc3[nH]2)cc1OCc1ccccc1 (3D coordinates assigned)
NC(=[NH2+])c1ccc(-c2nc3ncncc3[nH]2)cc1OCc1ccccc1 (optimized conformer: 92.18603551854238 kcal/mol)

>  <smiles>  (45) 
N=C(N)c1ccc(-c2nc3ncncc3[nH]2)cc1OCc1ccccc1

>  <score_type>  (45) 
oracle

>  <origin>  (45) 
adgpu

>  <m_score__min__energy>  (45) 
-7.8899999999999997

>  <m_primary>  (45) 
energy

$$$$
45:0
     RDKit          3D

 55 58  0  0  0  0  0  0  0  0999 V2000
   -3.4390   12.1780  -37.9740 C   0  0  0  0  0  0  0  0  0  0  0  0
   -2.4610   12.3430  -36.8850 N   0  0  0  0  0  0  0  0  0  0  0  0
   -1.5200   13.4520  -37.1300 C   0  0  0  0  0  0  0  0  0  0  0  0
   -2.1740   14.8320  -36.9670 C   0  0  0  0  0  0  0  0  0  0  0  0
   -2.9150   14.9150  -35.7020 N   0  0  0  0  0  0  0  0  0  0  0  0
   -3.0600   16.1910  -35.0380 C   0  0  0  0  0  0  0  0  0  0  0  0
   -2.0490   17.0990  -35.0600 N   0  0  0  0  0  0  0  0  0  0  0  0
   -2.1710   18.3070  -34.4570 C   0  0  0  0  0  0  0  0  0  0  0  0
   -3.3580   18.6570  -33.8010 C   0  0  0  0  0  0  0  0  0  0  0  0
   -3.4880   20.0260  -33.2450 C   0  0  0  0  0  0  0  0  0  0  0  0
   -2.9200   20.9810  -33.8380 O   0  0  0  0  0  0  0  0  0  0  0  0
   -4.2170   20.3050  -32.0410 N   0  0  0  0  0  0  0  0  0  0  0  0
   -5.2090   21.3260  -31.8550 C   0  0  0  0  0  0  0  0  0  0  0  0
   -6.5160   21.1900  -32.3550 C   0  0  0  0  0  0  0  0  0  0  0  0
   -7.4600   22.1960  -32.1320 C   0  0  0  0  0  0  0  0  0  0  0  0
   -7.1040   23.3510  -31.4310 C   0  0  0  0  0  0  0  0  0  0  0  0
   -5.7930   23.5130  -30.9620 C   0  0  0  0  0  0  0  0  0  0  0  0
   -5.3310   24.9710  -30.0920 S   0  0  0  0  0  0  0  0  0  0  0  0
   -4.8670   24.5590  -28.4780 N   0  0  0  0  0  0  0  0  0  0  0  0
   -6.4850   25.9320  -30.0490 O   0  0  0  0  0  0  0  0  0  0  0  0
   -4.1780   25.6330  -30.7960 O   0  0  0  0  0  0  0  0  0  0  0  0
   -4.8510   22.4990  -31.1780 C   0  0  0  0  0  0  0  0  0  0  0  0
   -4.3880   17.6870  -33.7470 C   0  0  0  0  0  0  0  0  0  0  0  0
   -5.6550   17.8920  -33.0090 C   0  0  0  0  0  0  0  0  0  0  0  0
   -6.7950   18.3410  -33.6980 C   0  0  0  0  0  0  0  0  0  0  0  0
   -8.0000   18.5360  -33.0160 C   0  0  0  0  0  0  0  0  0  0  0  0
   -8.0800   18.2730  -31.6460 C   0  0  0  0  0  0  0  0  0  0  0  0
   -6.9580   17.8040  -30.9580 C   0  0  0  0  0  0  0  0  0  0  0  0
   -5.7510   17.6060  -31.6360 C   0  0  0  0  0  0  0  0  0  0  0  0
   -4.2090   16.4960  -34.3790 N   0  0  0  0  0  0  0  0  0  0  0  0
   -3.8020   13.7990  -35.3490 C   0  0  0  0  0  0  0  0  0  0  0  0
   -3.0970   12.4520  -35.5590 C   0  0  0  0  0  0  0  0  0  0  0  0
   -4.4385   12.0094  -37.5468 H   0  0  0  0  0  0  0  0  0  0  0  0
   -3.4538   13.0863  -38.5942 H   0  0  0  0  0  0  0  0  0  0  0  0
   -3.1550   11.3151  -38.5942 H   0  0  0  0  0  0  0  0  0  0  0  0
   -0.6871   13.3709  -36.4161 H   0  0  0  0  0  0  0  0  0  0  0  0
   -1.1736   13.3696  -38.1708 H   0  0  0  0  0  0  0  0  0  0  0  0
   -1.3913   15.6048  -36.9772 H   0  0  0  0  0  0  0  0  0  0  0  0
   -2.8784   14.9872  -37.7975 H   0  0  0  0  0  0  0  0  0  0  0  0
   -1.3317   19.0175  -34.4831 H   0  0  0  0  0  0  0  0  0  0  0  0
   -6.7959   20.2903  -32.9226 H   0  0  0  0  0  0  0  0  0  0  0  0
   -8.4865   22.0782  -32.5095 H   0  0  0  0  0  0  0  0  0  0  0  0
   -7.8538   24.1345  -31.2468 H   0  0  0  0  0  0  0  0  0  0  0  0
   -5.7050   24.1340  -28.0190 H   0  0  0  0  0  0  0  0  0  0  0  0
   -4.6770   25.4570  -27.9780 H   0  0  0  0  0  0  0  0  0  0  0  0
   -3.8211   22.6249  -30.8128 H   0  0  0  0  0  0  0  0  0  0  0  0
   -6.7389   18.5398  -34.7784 H   0  0  0  0  0  0  0  0  0  0  0  0
   -8.8861   18.8969  -33.5587 H   0  0  0  0  0  0  0  0  0  0  0  0
   -9.0263   18.4352  -31.1092 H   0  0  0  0  0  0  0  0  0  0  0  0
   -7.0242   17.5901  -29.8810 H   0  0  0  0  0  0  0  0  0  0  0  0
   -4.8735   17.2251  -31.0929 H   0  0  0  0  0  0  0  0  0  0  0  0
   -4.0946   13.8916  -34.2927 H   0  0  0  0  0  0  0  0  0  0  0  0
   -4.6894   13.8363  -35.9979 H   0  0  0  0  0  0  0  0  0  0  0  0
   -2.3224   12.3361  -34.7866 H   0  0  0  0  0  0  0  0  0  0  0  0
   -3.8607   11.6632  -35.4910 H   0  0  0  0  0  0  0  0  0  0  0  0
  1  2  1  0
  2  3  1  0
  3  4  1  0
  4  5  1  0
  5  6  1  0
  6  7  2  0
  7  8  1  0
  8  9  2  0
  9 10  1  0
 10 11  2  0
 10 12  1  0
 12 13  1  0
 13 14  2  0
 14 15  1  0
 15 16  2  0
 16 17  1  0
 17 18  1  0
 18 19  1  0
 18 20  2  0
 18 21  2  0
 17 22  2  0
  9 23  1  0
 23 24  1  0
 24 25  2  0
 25 26  1  0
 26 27  2  0
 27 28  1  0
 28 29  2  0
 23 30  2  0
  5 31  1  0
 31 32  1  0
 32  2  1  0
 30  6  1  0
 22 13  1  0
 29 24  1  0
  1 33  1  0
  1 34  1  0
  1 35  1  0
  3 36  1  0
  3 37  1  0
  4 38  1  0
  4 39  1  0
  8 40  1  0
 14 41  1  0
 15 42  1  0
 16 43  1  0
 19 44  1  0
 19 45  1  0
 22 46  1  0
 25 47  1  0
 26 48  1  0
 27 49  1  0
 28 50  1  0
 29 51  1  0
 31 52  1  0
 31 53  1  0
 32 54  1  0
 32 55  1  0
M  CHG  1  12  -1
M  END
>  <UniqueID>  (46) 
45

>  <SMILES>  (46) 
CN1CCN(c2ncc(C(=O)[N-]c3cccc(S(N)(=O)=O)c3)c(-c3ccccc3)n2)CC1

>  <Energy>  (46) 
72.26505128359733

>  <Genealogy>  (46) 
CN1CCN(c2ncc(C(=O)[N-]c3cccc(S(N)(=O)=O)c3)c(-c3ccccc3)n2)CC1 (protonated)
CN1CCN(c2ncc(C(=O)[N-]c3cccc(S(N)(=O)=O)c3)c(-c3ccccc3)n2)CC1 (3D coordinates assigned)
CN1CCN(c2ncc(C(=O)[N-]c3cccc(S(N)(=O)=O)c3)c(-c3ccccc3)n2)CC1 (nonaromatic ring conformer: 72.26505128359733 kcal/mol)

>  <smiles>  (46) 
CN1CCN(c2ncc(C(=O)Nc3cccc(S(N)(=O)=O)c3)c(-c3ccccc3)n2)CC1

>  <score_type>  (46) 
oracle

>  <origin>  (46) 
adgpu

>  <m_score__min__energy>  (46) 
-10.26

>  <m_primary>  (46) 
energy

$$$$
46:0
     RDKit          3D

 31 33  0  0  0  0  0  0  0  0999 V2000
   -0.0400   17.8760  -27.5450 C   0  0  0  0  0  0  0  0  0  0  0  0
   -0.8380   19.1410  -27.5260 C   0  0  0  0  0  0  0  0  0  0  0  0
   -1.4790   19.5960  -26.4340 N   0  0  0  0  0  0  0  0  0  0  0  0
   -2.0650   20.7430  -26.7380 N   0  0  0  0  0  0  0  0  0  0  0  0
   -1.8130   21.0310  -28.0320 C   0  0  0  0  0  0  0  0  0  0  0  0
   -2.3520   22.2300  -28.7090 C   0  0  0  0  0  0  0  0  0  0  0  0
   -3.6190   22.2140  -29.3170 C   0  0  0  0  0  0  0  0  0  0  0  0
   -4.1170   23.3610  -29.9440 C   0  0  0  0  0  0  0  0  0  0  0  0
   -3.3630   24.5370  -29.9580 C   0  0  0  0  0  0  0  0  0  0  0  0
   -3.8640   25.6720  -30.5850 O   0  0  0  0  0  0  0  0  0  0  0  0
   -2.1090   24.5700  -29.3370 C   0  0  0  0  0  0  0  0  0  0  0  0
   -1.3570   25.7390  -29.3420 O   0  0  0  0  0  0  0  0  0  0  0  0
   -1.6080   23.4230  -28.7100 C   0  0  0  0  0  0  0  0  0  0  0  0
   -1.0280   20.0220  -28.5770 C   0  0  0  0  0  0  0  0  0  0  0  0
   -0.4090   19.9620  -29.9180 C   0  0  0  0  0  0  0  0  0  0  0  0
   -1.1400   20.3500  -31.0540 C   0  0  0  0  0  0  0  0  0  0  0  0
   -0.5540   20.2910  -32.3230 C   0  0  0  0  0  0  0  0  0  0  0  0
    0.7640   19.8480  -32.4670 C   0  0  0  0  0  0  0  0  0  0  0  0
    1.3440   19.7890  -33.7280 O   0  0  0  0  0  0  0  0  0  0  0  0
    1.4980   19.4640  -31.3400 C   0  0  0  0  0  0  0  0  0  0  0  0
    0.9150   19.5210  -30.0710 C   0  0  0  0  0  0  0  0  0  0  0  0
    0.1626   17.5548  -26.5127 H   0  0  0  0  0  0  0  0  0  0  0  0
   -0.6075   17.0923  -28.0682 H   0  0  0  0  0  0  0  0  0  0  0  0
    0.9117   18.0507  -28.0682 H   0  0  0  0  0  0  0  0  0  0  0  0
   -4.2224   21.2944  -29.2997 H   0  0  0  0  0  0  0  0  0  0  0  0
   -5.1049   23.3369  -30.4273 H   0  0  0  0  0  0  0  0  0  0  0  0
   -0.6262   23.4553  -28.2150 H   0  0  0  0  0  0  0  0  0  0  0  0
   -2.1767   20.7013  -30.9449 H   0  0  0  0  0  0  0  0  0  0  0  0
   -1.1314   20.5937  -33.2090 H   0  0  0  0  0  0  0  0  0  0  0  0
    2.5356   19.1166  -31.4526 H   0  0  0  0  0  0  0  0  0  0  0  0
    1.4966   19.2188  -29.1876 H   0  0  0  0  0  0  0  0  0  0  0  0
  1  2  1  0
  2  3  1  0
  3  4  1  0
  4  5  2  0
  5  6  1  0
  6  7  2  0
  7  8  1  0
  8  9  2  0
  9 10  1  0
  9 11  1  0
 11 12  1  0
 11 13  2  0
  5 14  1  0
 14 15  1  0
 15 16  2  0
 16 17  1  0
 17 18  2  0
 18 19  1  0
 18 20  1  0
 20 21  2  0
 14  2  2  0
 21 15  1  0
 13  6  1  0
  1 22  1  0
  1 23  1  0
  1 24  1  0
  7 25  1  0
  8 26  1  0
 13 27  1  0
 16 28  1  0
 17 29  1  0
 20 30  1  0
 21 31  1  0
M  CHG  4   3  -1  10  -1  12  -1  19  -1
M  END
>  <UniqueID>  (47) 
46

>  <SMILES>  (47) 
Cc1[n-]nc(-c2ccc([O-])c([O-])c2)c1-c1ccc([O-])cc1

>  <Energy>  (47) 
71.50957459423884

>  <Genealogy>  (47) 
Cc1[n-]nc(-c2ccc([O-])c([O-])c2)c1-c1ccc([O-])cc1 (protonated)
Cc1[n-]nc(-c2ccc([O-])c([O-])c2)c1-c1ccc([O-])cc1 (3D coordinates assigned)
Cc1[n-]nc(-c2ccc([O-])c([O-])c2)c1-c1ccc([O-])cc1 (optimized conformer: 71.50957459423884 kcal/mol)

>  <smiles>  (47) 
Cc1[nH]nc(-c2ccc(O)c(O)c2)c1-c1ccc(O)cc1

>  <score_type>  (47) 
oracle

>  <origin>  (47) 
adgpu

>  <m_score__min__energy>  (47) 
-12.07

>  <m_primary>  (47) 
energy

$$$$
