0:0
     RDKit          3D

 35 37  0  0  0  0  0  0  0  0999 V2000
   -3.5590   21.2210  -33.7140 O   0  0  0  0  0  0  0  0  0  0  0  0
   -4.1920   20.3730  -33.0290 C   0  0  0  0  0  0  0  0  0  0  0  0
   -4.6890   20.7220  -31.7300 N   0  0  0  0  0  0  0  0  0  0  0  0
   -5.0340   22.0390  -31.2720 C   0  0  0  0  0  0  0  0  0  0  0  0
   -6.3870   22.3480  -31.0760 C   0  0  0  0  0  0  0  0  0  0  0  0
   -6.7670   23.6240  -30.6490 C   0  0  0  0  0  0  0  0  0  0  0  0
   -5.7970   24.6070  -30.4310 C   0  0  0  0  0  0  0  0  0  0  0  0
   -4.4470   24.3170  -30.6500 C   0  0  0  0  0  0  0  0  0  0  0  0
   -3.4860   25.3000  -30.4510 O   0  0  0  0  0  0  0  0  0  0  0  0
   -4.0640   23.0390  -31.0750 C   0  0  0  0  0  0  0  0  0  0  0  0
   -4.4100   19.0000  -33.5510 C   0  0  0  0  0  0  0  0  0  0  0  0
   -3.3440   18.3560  -34.2070 C   0  0  0  0  0  0  0  0  0  0  0  0
   -3.4700   17.0400  -34.6510 C   0  0  0  0  0  0  0  0  0  0  0  0
   -4.6590   16.3430  -34.4490 C   0  0  0  0  0  0  0  0  0  0  0  0
   -5.7340   16.9670  -33.8150 C   0  0  0  0  0  0  0  0  0  0  0  0
   -5.6330   18.2970  -33.3720 C   0  0  0  0  0  0  0  0  0  0  0  0
   -6.8390   18.9320  -32.7890 C   0  0  0  0  0  0  0  0  0  0  0  0
   -7.5580   18.2840  -31.7700 C   0  0  0  0  0  0  0  0  0  0  0  0
   -8.7050   18.8750  -31.2330 C   0  0  0  0  0  0  0  0  0  0  0  0
   -9.1470   20.1110  -31.7130 C   0  0  0  0  0  0  0  0  0  0  0  0
   -8.4450   20.7560  -32.7350 C   0  0  0  0  0  0  0  0  0  0  0  0
   -7.2970   20.1680  -33.2760 C   0  0  0  0  0  0  0  0  0  0  0  0
   -7.1547   21.5818  -31.2593 H   0  0  0  0  0  0  0  0  0  0  0  0
   -7.8299   23.8546  -30.4845 H   0  0  0  0  0  0  0  0  0  0  0  0
   -6.0959   25.6083  -30.0873 H   0  0  0  0  0  0  0  0  0  0  0  0
   -3.0020   22.8162  -31.2553 H   0  0  0  0  0  0  0  0  0  0  0  0
   -2.4005   18.8971  -34.3714 H   0  0  0  0  0  0  0  0  0  0  0  0
   -2.6278   16.5509  -35.1623 H   0  0  0  0  0  0  0  0  0  0  0  0
   -4.7504   15.3009  -34.7892 H   0  0  0  0  0  0  0  0  0  0  0  0
   -6.6709   16.4118  -33.6602 H   0  0  0  0  0  0  0  0  0  0  0  0
   -7.2168   17.3083  -31.3938 H   0  0  0  0  0  0  0  0  0  0  0  0
   -9.2608   18.3666  -30.4313 H   0  0  0  0  0  0  0  0  0  0  0  0
  -10.0478   20.5763  -31.2862 H   0  0  0  0  0  0  0  0  0  0  0  0
   -8.7957   21.7271  -33.1143 H   0  0  0  0  0  0  0  0  0  0  0  0
   -6.7509   20.6747  -34.0853 H   0  0  0  0  0  0  0  0  0  0  0  0
  1  2  2  0
  2  3  1  0
  3  4  1  0
  4  5  2  0
  5  6  1  0
  6  7  2  0
  7  8  1  0
  8  9  1  0
  8 10  2  0
  2 11  1  0
 11 12  2  0
 12 13  1  0
 13 14  2  0
 14 15  1  0
 15 16  2  0
 16 17  1  0
 17 18  2  0
 18 19  1  0
 19 20  2  0
 20 21  1  0
 21 22  2  0
 10  4  1  0
 16 11  1  0
 22 17  1  0
  5 23  1  0
  6 24  1  0
  7 25  1  0
 10 26  1  0
 12 27  1  0
 13 28  1  0
 14 29  1  0
 15 30  1  0
 18 31  1  0
 19 32  1  0
 20 33  1  0
 21 34  1  0
 22 35  1  0
M  CHG  2   3  -1   9  -1
M  END
>  <UniqueID>  (1) 
1

>  <SMILES>  (1) 
O=C([N-]c1cccc([O-])c1)c1ccccc1-c1ccccc1

>  <Energy>  (1) 
52.6411530959296

>  <Genealogy>  (1) 
O=C([N-]c1cccc([O-])c1)c1ccccc1-c1ccccc1 (protonated)
O=C([N-]c1cccc([O-])c1)c1ccccc1-c1ccccc1 (3D coordinates assigned)
O=C([N-]c1cccc([O-])c1)c1ccccc1-c1ccccc1 (optimized conformer: 52.6411530959296 kcal/mol)

>  <smiles>  (1) 
O=C(Nc1cccc(O)c1)c1ccccc1-c1ccccc1

>  <score_type>  (1) 
oracle

>  <origin>  (1) 
adgpu

>  <m_score__min__energy>  (1) 
-11.630000000000001

>  <m_primary>  (1) 
energy

$$$$
1:0
     RDKit          3D

 65 68  0  0  0  0  0  0  0  0999 V2000
   -1.2530   26.7280  -26.5710 C   0  0  0  0  0  0  0  0  0  0  0  0
   -0.5950   26.7860  -27.9460 C   0  0  0  0  0  0  0  0  0  0  0  0
   -1.3490   26.0360  -28.8980 O   0  0  0  0  0  0  0  0  0  0  0  0
   -1.9530   24.7880  -28.6660 C   0  0  0  0  0  0  0  0  0  0  0  0
   -1.4970   23.8990  -27.6740 C   0  0  0  0  0  0  0  0  0  0  0  0
   -2.1320   22.6700  -27.4840 C   0  0  0  0  0  0  0  0  0  0  0  0
   -3.2170   22.3090  -28.2830 C   0  0  0  0  0  0  0  0  0  0  0  0
   -3.6870   23.1810  -29.2750 C   0  0  0  0  0  0  0  0  0  0  0  0
   -4.8090   22.7670  -30.1450 C   0  0  0  0  0  0  0  0  0  0  0  0
   -4.9220   21.2570  -30.8710 S   0  0  0  0  0  0  0  0  0  0  0  0
   -6.4350   21.4840  -31.5550 C   0  0  0  0  0  0  0  0  0  0  0  0
   -7.2560   20.2370  -32.4910 S   0  0  0  0  0  0  0  0  0  0  0  0
   -8.5370   20.8130  -33.0270 O   0  0  0  0  0  0  0  0  0  0  0  0
   -7.5960   19.0510  -31.6330 O   0  0  0  0  0  0  0  0  0  0  0  0
   -6.2520   19.7530  -33.8290 N   0  0  0  0  0  0  0  0  0  0  0  0
   -5.2670   18.7310  -33.4330 C   0  0  0  0  0  0  0  0  0  0  0  0
   -5.4550   17.4050  -34.2220 C   0  0  0  0  0  0  0  0  0  0  0  0
   -4.5000   17.3220  -35.4240 C   0  0  0  0  0  0  0  0  0  0  0  0
   -3.0690   17.3930  -35.0250 N   0  0  0  0  0  0  0  0  0  0  0  0
   -2.4710   16.0430  -34.9280 C   0  0  0  0  0  0  0  0  0  0  0  0
   -3.3490   15.1170  -34.1250 C   0  0  0  0  0  0  0  0  0  0  0  0
   -3.3490   15.1700  -32.7210 C   0  0  0  0  0  0  0  0  0  0  0  0
   -4.1540   14.2970  -31.9830 C   0  0  0  0  0  0  0  0  0  0  0  0
   -4.9600   13.3630  -32.6410 C   0  0  0  0  0  0  0  0  0  0  0  0
   -4.9610   13.3000  -34.0370 C   0  0  0  0  0  0  0  0  0  0  0  0
   -4.1600   14.1740  -34.7790 C   0  0  0  0  0  0  0  0  0  0  0  0
   -2.8260   18.1850  -33.7890 C   0  0  0  0  0  0  0  0  0  0  0  0
   -3.8510   19.3100  -33.6180 C   0  0  0  0  0  0  0  0  0  0  0  0
   -6.9040   22.7570  -31.2090 C   0  0  0  0  0  0  0  0  0  0  0  0
   -8.2500   23.2830  -31.6320 C   0  0  0  0  0  0  0  0  0  0  0  0
   -5.9710   23.4940  -30.4400 C   0  0  0  0  0  0  0  0  0  0  0  0
   -6.1970   24.9140  -29.9950 C   0  0  0  0  0  0  0  0  0  0  0  0
   -3.0460   24.4200  -29.4660 C   0  0  0  0  0  0  0  0  0  0  0  0
   -3.5010   25.3020  -30.4420 O   0  0  0  0  0  0  0  0  0  0  0  0
   -0.4800   26.7961  -25.7914 H   0  0  0  0  0  0  0  0  0  0  0  0
   -1.9556   27.5677  -26.4650 H   0  0  0  0  0  0  0  0  0  0  0  0
   -1.7979   25.7783  -26.4650 H   0  0  0  0  0  0  0  0  0  0  0  0
   -0.5382   27.8340  -28.2752 H   0  0  0  0  0  0  0  0  0  0  0  0
    0.4138   26.3535  -27.8739 H   0  0  0  0  0  0  0  0  0  0  0  0
   -0.6368   24.1738  -27.0459 H   0  0  0  0  0  0  0  0  0  0  0  0
   -1.7754   21.9841  -26.7015 H   0  0  0  0  0  0  0  0  0  0  0  0
   -3.7063   21.3352  -28.1339 H   0  0  0  0  0  0  0  0  0  0  0  0
   -6.8700   19.3930  -34.5940 H   0  0  0  0  0  0  0  0  0  0  0  0
   -5.4200   18.4756  -32.3741 H   0  0  0  0  0  0  0  0  0  0  0  0
   -5.2564   16.5578  -33.5490 H   0  0  0  0  0  0  0  0  0  0  0  0
   -6.4876   17.3726  -34.5998 H   0  0  0  0  0  0  0  0  0  0  0  0
   -4.6731   16.3694  -35.9461 H   0  0  0  0  0  0  0  0  0  0  0  0
   -4.7074   18.1850  -36.0738 H   0  0  0  0  0  0  0  0  0  0  0  0
   -2.3463   15.6317  -35.9406 H   0  0  0  0  0  0  0  0  0  0  0  0
   -1.4977   16.1274  -34.4225 H   0  0  0  0  0  0  0  0  0  0  0  0
   -2.7132   15.9012  -32.2004 H   0  0  0  0  0  0  0  0  0  0  0  0
   -4.1532   14.3450  -30.8840 H   0  0  0  0  0  0  0  0  0  0  0  0
   -5.5937   12.6773  -32.0594 H   0  0  0  0  0  0  0  0  0  0  0  0
   -5.5927   12.5620  -34.5530 H   0  0  0  0  0  0  0  0  0  0  0  0
   -4.1649   14.1231  -35.8778 H   0  0  0  0  0  0  0  0  0  0  0  0
   -2.8867   17.5140  -32.9195 H   0  0  0  0  0  0  0  0  0  0  0  0
   -1.8290   18.6429  -33.8692 H   0  0  0  0  0  0  0  0  0  0  0  0
   -3.5868   19.9082  -32.7335 H   0  0  0  0  0  0  0  0  0  0  0  0
   -3.8405   19.9391  -34.5203 H   0  0  0  0  0  0  0  0  0  0  0  0
   -8.8491   23.5171  -30.7397 H   0  0  0  0  0  0  0  0  0  0  0  0
   -8.1152   24.1946  -32.2327 H   0  0  0  0  0  0  0  0  0  0  0  0
   -8.7690   22.5215  -32.2327 H   0  0  0  0  0  0  0  0  0  0  0  0
   -6.2039   24.9571  -28.8959 H   0  0  0  0  0  0  0  0  0  0  0  0
   -5.3892   25.5525  -30.3820 H   0  0  0  0  0  0  0  0  0  0  0  0
   -7.1631   25.2702  -30.3820 H   0  0  0  0  0  0  0  0  0  0  0  0
  1  2  1  0
  2  3  1  0
  3  4  1  0
  4  5  2  0
  5  6  1  0
  6  7  2  0
  7  8  1  0
  8  9  1  0
  9 10  1  0
 10 11  1  0
 11 12  1  0
 12 13  2  0
 12 14  2  0
 12 15  1  0
 15 16  1  0
 16 17  1  0
 17 18  1  0
 18 19  1  0
 19 20  1  0
 20 21  1  0
 21 22  2  0
 22 23  1  0
 23 24  2  0
 24 25  1  0
 25 26  2  0
 19 27  1  0
 27 28  1  0
 11 29  2  0
 29 30  1  0
 29 31  1  0
 31 32  1  0
  8 33  2  0
 33 34  1  0
 33  4  1  0
 31  9  2  0
 28 16  1  0
 26 21  1  0
  1 35  1  0
  1 36  1  0
  1 37  1  0
  2 38  1  0
  2 39  1  0
  5 40  1  0
  6 41  1  0
  7 42  1  0
 15 43  1  0
 16 44  1  0
 17 45  1  0
 17 46  1  0
 18 47  1  0
 18 48  1  0
 20 49  1  0
 20 50  1  0
 22 51  1  0
 23 52  1  0
 24 53  1  0
 25 54  1  0
 26 55  1  0
 27 56  1  0
 27 57  1  0
 28 58  1  0
 28 59  1  0
 30 60  1  0
 30 61  1  0
 30 62  1  0
 32 63  1  0
 32 64  1  0
 32 65  1  0
M  CHG  1  34  -1
M  END
>  <UniqueID>  (2) 
2

>  <SMILES>  (2) 
CCOc1cccc(-c2sc(S(=O)(=O)NC3CCN(Cc4ccccc4)CC3)c(C)c2C)c1[O-]

>  <Energy>  (2) 
107.0395411688084

>  <Genealogy>  (2) 
CCOc1cccc(-c2sc(S(=O)(=O)NC3CCN(Cc4ccccc4)CC3)c(C)c2C)c1[O-] (protonated)
CCOc1cccc(-c2sc(S(=O)(=O)NC3CCN(Cc4ccccc4)CC3)c(C)c2C)c1[O-] (3D coordinates assigned)
CCOc1cccc(-c2sc(S(=O)(=O)NC3CCN(Cc4ccccc4)CC3)c(C)c2C)c1[O-] (nonaromatic ring conformer: 107.0395411688084 kcal/mol)

>  <smiles>  (2) 
CCOc1cccc(-c2sc(S(=O)(=O)NC3CCN(Cc4ccccc4)CC3)c(C)c2C)c1O

>  <score_type>  (2) 
oracle

>  <origin>  (2) 
adgpu

>  <m_score__min__energy>  (2) 
-13.94

>  <m_primary>  (2) 
energy

$$$$
2:0
     RDKit          3D

 42 44  0  0  0  0  0  0  0  0999 V2000
   -9.6370   21.5150  -31.9300 C   0  0  0  0  0  0  0  0  0  0  0  0
   -8.4920   20.7770  -31.2390 C   0  0  0  0  0  0  0  0  0  0  0  0
   -7.2390   20.9100  -31.9970 N   0  0  0  0  0  0  0  0  0  0  0  0
   -6.9470   19.9510  -33.0760 C   0  0  0  0  0  0  0  0  0  0  0  0
   -6.5000   18.6370  -32.5070 C   0  0  0  0  0  0  0  0  0  0  0  0
   -6.7610   18.1750  -31.2370 C   0  0  0  0  0  0  0  0  0  0  0  0
   -6.1060   17.0150  -31.0790 N   0  0  0  0  0  0  0  0  0  0  0  0
   -5.4600   16.8040  -32.2410 C   0  0  0  0  0  0  0  0  0  0  0  0
   -5.6720   17.7850  -33.1440 N   0  0  0  0  0  0  0  0  0  0  0  0
   -6.3000   21.9650  -31.6830 C   0  0  0  0  0  0  0  0  0  0  0  0
   -6.7320   23.1430  -31.0460 C   0  0  0  0  0  0  0  0  0  0  0  0
   -5.8080   24.1100  -30.6430 C   0  0  0  0  0  0  0  0  0  0  0  0
   -4.4400   23.9130  -30.8530 C   0  0  0  0  0  0  0  0  0  0  0  0
   -3.5110   24.8820  -30.3500 N   0  0  0  0  0  0  0  0  0  0  0  0
   -2.4670   24.6270  -29.4030 C   0  0  0  0  0  0  0  0  0  0  0  0
   -1.8250   25.6020  -28.9310 O   0  0  0  0  0  0  0  0  0  0  0  0
   -2.1210   23.2630  -28.9540 C   0  0  0  0  0  0  0  0  0  0  0  0
   -0.6700   22.4960  -29.3250 S   0  0  0  0  0  0  0  0  0  0  0  0
   -1.0600   21.0870  -28.4990 C   0  0  0  0  0  0  0  0  0  0  0  0
   -2.2770   21.1860  -27.9210 N   0  0  0  0  0  0  0  0  0  0  0  0
   -2.8690   22.3890  -28.1530 C   0  0  0  0  0  0  0  0  0  0  0  0
   -4.2070   22.7020  -27.5550 C   0  0  0  0  0  0  0  0  0  0  0  0
   -4.0080   22.7720  -31.5480 C   0  0  0  0  0  0  0  0  0  0  0  0
   -4.9300   21.8050  -31.9540 C   0  0  0  0  0  0  0  0  0  0  0  0
  -10.3062   21.9463  -31.1710 H   0  0  0  0  0  0  0  0  0  0  0  0
   -9.2281   22.3200  -32.5583 H   0  0  0  0  0  0  0  0  0  0  0  0
  -10.2013   20.8101  -32.5583 H   0  0  0  0  0  0  0  0  0  0  0  0
   -8.3491   21.1982  -30.2329 H   0  0  0  0  0  0  0  0  0  0  0  0
   -8.7513   19.7097  -31.1796 H   0  0  0  0  0  0  0  0  0  0  0  0
   -7.8553   19.7948  -33.6766 H   0  0  0  0  0  0  0  0  0  0  0  0
   -6.1411   20.3582  -33.7043 H   0  0  0  0  0  0  0  0  0  0  0  0
   -7.3941   18.6691  -30.4853 H   0  0  0  0  0  0  0  0  0  0  0  0
   -6.0880   16.4110  -30.2280 H   0  0  0  0  0  0  0  0  0  0  0  0
   -4.8267   15.9256  -32.4343 H   0  0  0  0  0  0  0  0  0  0  0  0
   -7.8049   23.3035  -30.8641 H   0  0  0  0  0  0  0  0  0  0  0  0
   -6.1590   25.0324  -30.1573 H   0  0  0  0  0  0  0  0  0  0  0  0
   -0.4108   20.2012  -28.4368 H   0  0  0  0  0  0  0  0  0  0  0  0
   -4.1314   22.6843  -26.4577 H   0  0  0  0  0  0  0  0  0  0  0  0
   -4.5313   23.7002  -27.8842 H   0  0  0  0  0  0  0  0  0  0  0  0
   -4.9404   21.9512  -27.8842 H   0  0  0  0  0  0  0  0  0  0  0  0
   -2.9395   22.6394  -31.7734 H   0  0  0  0  0  0  0  0  0  0  0  0
   -4.5812   20.9103  -32.4905 H   0  0  0  0  0  0  0  0  0  0  0  0
  1  2  1  0
  2  3  1  0
  3  4  1  0
  4  5  1  0
  5  6  2  0
  6  7  1  0
  7  8  1  0
  8  9  2  0
  3 10  1  0
 10 11  2  0
 11 12  1  0
 12 13  2  0
 13 14  1  0
 14 15  1  0
 15 16  2  0
 15 17  1  0
 17 18  1  0
 18 19  1  0
 19 20  2  0
 20 21  1  0
 21 22  1  0
 13 23  1  0
 23 24  2  0
  9  5  1  0
 24 10  1  0
 21 17  2  0
  1 25  1  0
  1 26  1  0
  1 27  1  0
  2 28  1  0
  2 29  1  0
  4 30  1  0
  4 31  1  0
  6 32  1  0
  7 33  1  0
  8 34  1  0
 11 35  1  0
 12 36  1  0
 19 37  1  0
 22 38  1  0
 22 39  1  0
 22 40  1  0
 23 41  1  0
 24 42  1  0
M  CHG  1  14  -1
M  END
>  <UniqueID>  (3) 
3

>  <SMILES>  (3) 
CCN(Cc1c[nH]cn1)c1ccc([N-]C(=O)c2scnc2C)cc1

>  <Energy>  (3) 
105.70518415531254

>  <Genealogy>  (3) 
CCN(Cc1c[nH]cn1)c1ccc([N-]C(=O)c2scnc2C)cc1 (protonated)
CCN(Cc1c[nH]cn1)c1ccc([N-]C(=O)c2scnc2C)cc1 (3D coordinates assigned)
CCN(Cc1c[nH]cn1)c1ccc([N-]C(=O)c2scnc2C)cc1 (optimized conformer: 105.70518415531254 kcal/mol)

>  <smiles>  (3) 
CCN(Cc1c[nH]cn1)c1ccc(NC(=O)c2scnc2C)cc1

>  <score_type>  (3) 
oracle

>  <origin>  (3) 
adgpu

>  <m_score__min__energy>  (3) 
-9.25

>  <m_primary>  (3) 
energy

$$$$
3:0
     RDKit          3D

 29 30  0  0  0  0  0  0  0  0999 V2000
   -8.6060   22.5460  -31.9310 C   0  0  0  0  0  0  0  0  0  0  0  0
   -7.3090   23.1960  -31.5300 C   0  0  0  0  0  0  0  0  0  0  0  0
   -7.3370   24.3820  -30.7750 C   0  0  0  0  0  0  0  0  0  0  0  0
   -6.1510   25.0040  -30.3850 C   0  0  0  0  0  0  0  0  0  0  0  0
   -4.9120   24.4510  -30.7270 C   0  0  0  0  0  0  0  0  0  0  0  0
   -3.7060   25.1270  -30.3370 N   0  0  0  0  0  0  0  0  0  0  0  0
   -2.7710   24.6180  -29.3710 C   0  0  0  0  0  0  0  0  0  0  0  0
   -3.0840   23.4580  -28.6540 C   0  0  0  0  0  0  0  0  0  0  0  0
   -2.1570   22.9690  -27.7340 C   0  0  0  0  0  0  0  0  0  0  0  0
   -2.4150   21.9360  -27.0630 O   0  0  0  0  0  0  0  0  0  0  0  0
   -0.9730   23.6100  -27.5600 N   0  0  0  0  0  0  0  0  0  0  0  0
   -0.6700   24.7240  -28.2760 C   0  0  0  0  0  0  0  0  0  0  0  0
    0.4410   25.2920  -28.1040 O   0  0  0  0  0  0  0  0  0  0  0  0
   -1.5590   25.2190  -29.1800 N   0  0  0  0  0  0  0  0  0  0  0  0
   -4.8740   23.2780  -31.4990 C   0  0  0  0  0  0  0  0  0  0  0  0
   -6.0610   22.6360  -31.8930 C   0  0  0  0  0  0  0  0  0  0  0  0
   -5.9800   21.3780  -32.7160 C   0  0  0  0  0  0  0  0  0  0  0  0
   -9.1690   22.2639  -31.0291 H   0  0  0  0  0  0  0  0  0  0  0  0
   -9.2009   23.2525  -32.5285 H   0  0  0  0  0  0  0  0  0  0  0  0
   -8.3960   21.6466  -32.5285 H   0  0  0  0  0  0  0  0  0  0  0  0
   -8.3032   24.8233  -30.4893 H   0  0  0  0  0  0  0  0  0  0  0  0
   -6.1900   25.9371  -29.8037 H   0  0  0  0  0  0  0  0  0  0  0  0
   -3.4930   26.0480  -30.7860 H   0  0  0  0  0  0  0  0  0  0  0  0
   -4.0423   22.9419  -28.8128 H   0  0  0  0  0  0  0  0  0  0  0  0
   -1.2930   26.0560  -29.7460 H   0  0  0  0  0  0  0  0  0  0  0  0
   -3.9033   22.8565  -31.7990 H   0  0  0  0  0  0  0  0  0  0  0  0
   -5.9238   20.5058  -32.0480 H   0  0  0  0  0  0  0  0  0  0  0  0
   -6.8748   21.2968  -33.3506 H   0  0  0  0  0  0  0  0  0  0  0  0
   -5.0822   21.4122  -33.3506 H   0  0  0  0  0  0  0  0  0  0  0  0
  1  2  1  0
  2  3  2  0
  3  4  1  0
  4  5  2  0
  5  6  1  0
  6  7  1  0
  7  8  2  0
  8  9  1  0
  9 10  2  0
  9 11  1  0
 11 12  1  0
 12 13  2  0
 12 14  1  0
  5 15  1  0
 15 16  2  0
 16 17  1  0
 16  2  1  0
 14  7  1  0
  1 18  1  0
  1 19  1  0
  1 20  1  0
  3 21  1  0
  4 22  1  0
  6 23  1  0
  8 24  1  0
 14 25  1  0
 15 26  1  0
 17 27  1  0
 17 28  1  0
 17 29  1  0
M  CHG  1  11  -1
M  END
>  <UniqueID>  (4) 
4

>  <SMILES>  (4) 
Cc1ccc(Nc2cc(=O)[n-]c(=O)[nH]2)cc1C

>  <Energy>  (4) 
35.19041804255234

>  <Genealogy>  (4) 
Cc1ccc(Nc2cc(=O)[n-]c(=O)[nH]2)cc1C (protonated)
Cc1ccc(Nc2cc(=O)[n-]c(=O)[nH]2)cc1C (3D coordinates assigned)
Cc1ccc(Nc2cc(=O)[n-]c(=O)[nH]2)cc1C (optimized conformer: 35.19041804255234 kcal/mol)

>  <smiles>  (4) 
Cc1ccc(Nc2cc(=O)[nH]c(=O)[nH]2)cc1C

>  <score_type>  (4) 
oracle

>  <origin>  (4) 
adgpu

>  <m_score__min__energy>  (4) 
-8.2400000000000002

>  <m_primary>  (4) 
energy

$$$$
4:0
     RDKit          3D

 26 27  0  0  0  0  0  0  0  0999 V2000
   -4.0850   22.2330  -32.8510 O   0  0  0  0  0  0  0  0  0  0  0  0
   -4.5560   21.1040  -32.5510 C   0  0  0  0  0  0  0  0  0  0  0  0
   -5.9450   20.9740  -32.0850 C   0  0  0  0  0  0  0  0  0  0  0  0
   -6.7280   19.8430  -32.2260 C   0  0  0  0  0  0  0  0  0  0  0  0
   -7.9440   20.1330  -31.6380 C   0  0  0  0  0  0  0  0  0  0  0  0
   -7.8570   21.4270  -31.1640 C   0  0  0  0  0  0  0  0  0  0  0  0
   -6.6420   21.9350  -31.4430 N   0  0  0  0  0  0  0  0  0  0  0  0
   -6.1050   23.5350  -31.0320 S   0  0  0  0  0  0  0  0  0  0  0  0
   -5.7240   24.2850  -32.2780 O   0  0  0  0  0  0  0  0  0  0  0  0
   -7.2350   24.2670  -30.3650 O   0  0  0  0  0  0  0  0  0  0  0  0
   -4.6980   23.4480  -29.9630 C   0  0  0  0  0  0  0  0  0  0  0  0
   -4.5190   22.3090  -29.1610 C   0  0  0  0  0  0  0  0  0  0  0  0
   -3.4060   22.1950  -28.3240 C   0  0  0  0  0  0  0  0  0  0  0  0
   -2.4590   23.2190  -28.2780 C   0  0  0  0  0  0  0  0  0  0  0  0
   -0.9360   23.0600  -27.1380 Br  0  0  0  0  0  0  0  0  0  0  0  0
   -2.6260   24.3600  -29.0670 C   0  0  0  0  0  0  0  0  0  0  0  0
   -3.7400   24.4880  -29.9060 C   0  0  0  0  0  0  0  0  0  0  0  0
   -3.8590   25.6580  -30.6600 O   0  0  0  0  0  0  0  0  0  0  0  0
   -3.9236   20.2082  -32.6382 H   0  0  0  0  0  0  0  0  0  0  0  0
   -6.4395   18.8986  -32.7108 H   0  0  0  0  0  0  0  0  0  0  0  0
   -8.8131   19.4630  -31.5621 H   0  0  0  0  0  0  0  0  0  0  0  0
   -8.6604   21.9627  -30.6372 H   0  0  0  0  0  0  0  0  0  0  0  0
   -5.2623   21.4987  -29.1921 H   0  0  0  0  0  0  0  0  0  0  0  0
   -3.2762   21.2977  -27.7011 H   0  0  0  0  0  0  0  0  0  0  0  0
   -1.8765   25.1642  -29.0288 H   0  0  0  0  0  0  0  0  0  0  0  0
   -4.2060   25.6750  -31.6080 H   0  0  0  0  0  0  0  0  0  0  0  0
  1  2  2  0
  2  3  1  0
  3  4  2  0
  4  5  1  0
  5  6  2  0
  6  7  1  0
  7  8  1  0
  8  9  2  0
  8 10  2  0
  8 11  1  0
 11 12  2  0
 12 13  1  0
 13 14  2  0
 14 15  1  0
 14 16  1  0
 16 17  2  0
 17 18  1  0
  7  3  1  0
 17 11  1  0
  2 19  1  0
  4 20  1  0
  5 21  1  0
  6 22  1  0
 12 23  1  0
 13 24  1  0
 16 25  1  0
 18 26  1  0
M  END
>  <UniqueID>  (5) 
5

>  <SMILES>  (5) 
O=Cc1cccn1S(=O)(=O)c1ccc(Br)cc1O

>  <Energy>  (5) 
55.21533738620815

>  <Genealogy>  (5) 
O=Cc1cccn1S(=O)(=O)c1ccc(Br)cc1O (3D coordinates assigned)
O=Cc1cccn1S(=O)(=O)c1ccc(Br)cc1O (optimized conformer: 55.21533738620815 kcal/mol)

>  <smiles>  (5) 
O=Cc1cccn1S(=O)(=O)c1ccc(Br)cc1O

>  <score_type>  (5) 
oracle

>  <origin>  (5) 
adgpu

>  <m_score__min__energy>  (5) 
-7.9699999999999998

>  <m_primary>  (5) 
energy

$$$$
5:0
     RDKit          3D

 42 44  0  0  0  0  0  0  0  0999 V2000
   -2.6678   13.9584  -35.5270 H   0  0  0  0  0  0  0  0  0  0  0  0
   -3.6980   14.0560  -35.1540 C   0  0  0  0  0  0  0  0  0  0  0  0
   -4.1180   15.2570  -34.5720 C   0  0  0  0  0  0  0  0  0  0  0  0
   -3.4140   16.0976  -34.4841 H   0  0  0  0  0  0  0  0  0  0  0  0
   -5.4370   15.3960  -34.0980 C   0  0  0  0  0  0  0  0  0  0  0  0
   -5.9060   16.6550  -33.4730 C   0  0  0  0  0  0  0  0  0  0  0  0
   -7.0760   16.7030  -33.0020 O   0  0  0  0  0  0  0  0  0  0  0  0
   -5.0520   17.8130  -33.3890 N   0  0  0  0  0  0  0  0  0  0  0  0
   -4.0470   17.7240  -33.6540 H   0  0  0  0  0  0  0  0  0  0  0  0
   -5.4820   19.0900  -32.8910 C   0  0  0  0  0  0  0  0  0  0  0  0
   -4.6320   19.8200  -32.0460 C   0  0  0  0  0  0  0  0  0  0  0  0
   -3.6581   19.3989  -31.7559 H   0  0  0  0  0  0  0  0  0  0  0  0
   -5.0130   21.0780  -31.5700 C   0  0  0  0  0  0  0  0  0  0  0  0
   -4.3463   21.6346  -30.8949 H   0  0  0  0  0  0  0  0  0  0  0  0
   -6.2420   21.6310  -31.9510 C   0  0  0  0  0  0  0  0  0  0  0  0
   -6.7220   23.2200  -31.3660 S   0  0  0  0  0  0  0  0  0  0  0  0
   -7.3940   23.1350  -30.0250 O   0  0  0  0  0  0  0  0  0  0  0  0
   -7.7050   23.7900  -32.3500 O   0  0  0  0  0  0  0  0  0  0  0  0
   -5.3640   24.2960  -31.2710 N   0  0  0  0  0  0  0  0  0  0  0  0
   -4.4320   24.3940  -30.3640 C   0  0  0  0  0  0  0  0  0  0  0  0
   -3.4770   25.2880  -30.4650 O   0  0  0  0  0  0  0  0  0  0  0  0
   -2.6420   25.2090  -29.4710 N   0  0  0  0  0  0  0  0  0  0  0  0
   -3.0690   24.2120  -28.6750 C   0  0  0  0  0  0  0  0  0  0  0  0
   -2.3570   23.7920  -27.4300 C   0  0  0  0  0  0  0  0  0  0  0  0
   -2.9265   24.1279  -26.5509 H   0  0  0  0  0  0  0  0  0  0  0  0
   -2.2666   22.6959  -27.4114 H   0  0  0  0  0  0  0  0  0  0  0  0
   -1.3539   24.2430  -27.4114 H   0  0  0  0  0  0  0  0  0  0  0  0
   -4.2300   23.6560  -29.1940 C   0  0  0  0  0  0  0  0  0  0  0  0
   -4.9530   22.4690  -28.6280 C   0  0  0  0  0  0  0  0  0  0  0  0
   -4.9262   22.5130  -27.5292 H   0  0  0  0  0  0  0  0  0  0  0  0
   -5.9984   22.4792  -28.9700 H   0  0  0  0  0  0  0  0  0  0  0  0
   -4.4643   21.5447  -28.9700 H   0  0  0  0  0  0  0  0  0  0  0  0
   -7.0890   20.9140  -32.8050 C   0  0  0  0  0  0  0  0  0  0  0  0
   -8.0576   21.3422  -33.1024 H   0  0  0  0  0  0  0  0  0  0  0  0
   -6.7080   19.6560  -33.2810 C   0  0  0  0  0  0  0  0  0  0  0  0
   -7.3714   19.1060  -33.9646 H   0  0  0  0  0  0  0  0  0  0  0  0
   -6.3140   14.2990  -34.2000 C   0  0  0  0  0  0  0  0  0  0  0  0
   -7.3419   14.3851  -33.8179 H   0  0  0  0  0  0  0  0  0  0  0  0
   -5.8890   13.1010  -34.7830 C   0  0  0  0  0  0  0  0  0  0  0  0
   -6.5845   12.2526  -34.8637 H   0  0  0  0  0  0  0  0  0  0  0  0
   -4.5830   12.9800  -35.2630 C   0  0  0  0  0  0  0  0  0  0  0  0
   -4.1720   11.8180  -35.8260 F   0  0  0  0  0  0  0  0  0  0  0  0
  1  2  1  0
  2  3  2  0
  3  4  1  0
  3  5  1  0
  5  6  1  0
  6  7  2  0
  6  8  1  0
  8  9  1  0
  8 10  1  0
 10 11  2  0
 11 12  1  0
 11 13  1  0
 13 14  1  0
 13 15  2  0
 15 16  1  0
 16 17  2  0
 16 18  2  0
 16 19  1  0
 19 20  2  0
 20 21  1  0
 21 22  1  0
 22 23  1  0
 23 24  1  0
 24 25  1  0
 24 26  1  0
 24 27  1  0
 23 28  2  0
 28 29  1  0
 29 30  1  0
 29 31  1  0
 29 32  1  0
 15 33  1  0
 33 34  1  0
 33 35  2  0
 35 36  1  0
  5 37  2  0
 37 38  1  0
 37 39  1  0
 39 40  1  0
 39 41  2  0
 41 42  1  0
 41  2  1  0
 35 10  1  0
 28 20  1  0
M  CHG  1  22  -1
M  END
>  <UniqueID>  (6) 
6

>  <SMILES>  (6) 
Cc1[n-]o/c(=N/S(=O)(=O)c2ccc(NC(=O)c3ccc(F)cc3)cc2)c1C

>  <Energy>  (6) 
90.82548324251847

>  <Genealogy>  (6) 
Cc1[n-]oc(=NS(=O)(=O)c2ccc(NC(=O)c3ccc(F)cc3)cc2)c1C (protonated)
Cc1[n-]o/c(=N/S(=O)(=O)c2ccc(NC(=O)c3ccc(F)cc3)cc2)c1C (cis-trans isomerization)
Cc1[n-]o/c(=N/S(=O)(=O)c2ccc(NC(=O)c3ccc(F)cc3)cc2)c1C (3D coordinates assigned)
Cc1[n-]o/c(=N/S(=O)(=O)c2ccc(NC(=O)c3ccc(F)cc3)cc2)c1C (optimized conformer: 90.82548324251847 kcal/mol)

>  <smiles>  (6) 
Cc1[nH]oc(=NS(=O)(=O)c2ccc(NC(=O)c3ccc(F)cc3)cc2)c1C

>  <score_type>  (6) 
oracle

>  <origin>  (6) 
adgpu

>  <m_score__min__energy>  (6) 
-10.609999999999999

>  <m_primary>  (6) 
energy

$$$$
6:0
     RDKit          3D

 37 39  0  0  0  0  0  0  0  0999 V2000
   -0.2949   20.6073  -29.6408 H   0  0  0  0  0  0  0  0  0  0  0  0
   -1.1520   21.1480  -29.2130 C   0  0  0  0  0  0  0  0  0  0  0  0
   -1.3760   22.4450  -29.5550 N   0  0  0  0  0  0  0  0  0  0  0  0
   -2.4210   23.1570  -29.0460 C   0  0  0  0  0  0  0  0  0  0  0  0
   -2.6060   24.5630  -29.4630 C   0  0  0  0  0  0  0  0  0  0  0  0
   -1.8660   25.4520  -28.9640 O   0  0  0  0  0  0  0  0  0  0  0  0
   -3.5790   24.9480  -30.4440 N   0  0  0  0  0  0  0  0  0  0  0  0
   -4.7230   24.1740  -30.8290 C   0  0  0  0  0  0  0  0  0  0  0  0
   -6.0290   24.5900  -30.5160 C   0  0  0  0  0  0  0  0  0  0  0  0
   -6.1898   25.5479  -29.9997 H   0  0  0  0  0  0  0  0  0  0  0  0
   -7.1230   23.7920  -30.8580 C   0  0  0  0  0  0  0  0  0  0  0  0
   -8.1417   24.1185  -30.6018 H   0  0  0  0  0  0  0  0  0  0  0  0
   -6.9260   22.5760  -31.5270 C   0  0  0  0  0  0  0  0  0  0  0  0
   -8.2850   21.5040  -31.8480 S   0  0  0  0  0  0  0  0  0  0  0  0
   -9.4470   22.3190  -32.3410 O   0  0  0  0  0  0  0  0  0  0  0  0
   -8.7000   20.7820  -30.5970 O   0  0  0  0  0  0  0  0  0  0  0  0
   -7.8390   20.3480  -33.0640 N   0  0  0  0  0  0  0  0  0  0  0  0
   -7.2080   19.2400  -32.8130 C   0  0  0  0  0  0  0  0  0  0  0  0
   -6.8580   18.9100  -31.5380 N   0  0  0  0  0  0  0  0  0  0  0  0
   -6.1860   17.7620  -31.2670 C   0  0  0  0  0  0  0  0  0  0  0  0
   -5.9132   17.5144  -30.2305 H   0  0  0  0  0  0  0  0  0  0  0  0
   -5.8430   16.8990  -32.3040 C   0  0  0  0  0  0  0  0  0  0  0  0
   -5.2942   15.9672  -32.1026 H   0  0  0  0  0  0  0  0  0  0  0  0
   -6.2110   17.2430  -33.6030 C   0  0  0  0  0  0  0  0  0  0  0  0
   -5.9561   16.5771  -34.4406 H   0  0  0  0  0  0  0  0  0  0  0  0
   -6.8850   18.4010  -33.8370 N   0  0  0  0  0  0  0  0  0  0  0  0
   -7.1490   18.6450  -34.8190 H   0  0  0  0  0  0  0  0  0  0  0  0
   -5.6280   22.1810  -31.8770 C   0  0  0  0  0  0  0  0  0  0  0  0
   -5.4695   21.2368  -32.4187 H   0  0  0  0  0  0  0  0  0  0  0  0
   -4.5340   22.9830  -31.5400 C   0  0  0  0  0  0  0  0  0  0  0  0
   -3.5195   22.6768  -31.8349 H   0  0  0  0  0  0  0  0  0  0  0  0
   -3.3140   22.5280  -28.1630 C   0  0  0  0  0  0  0  0  0  0  0  0
   -4.1781   23.0790  -27.7634 H   0  0  0  0  0  0  0  0  0  0  0  0
   -3.0970   21.1980  -27.7960 C   0  0  0  0  0  0  0  0  0  0  0  0
   -3.7836   20.7006  -27.0952 H   0  0  0  0  0  0  0  0  0  0  0  0
   -2.0080   20.5020  -28.3200 C   0  0  0  0  0  0  0  0  0  0  0  0
   -1.8259   19.4559  -28.0327 H   0  0  0  0  0  0  0  0  0  0  0  0
  1  2  1  0
  2  3  2  0
  3  4  1  0
  4  5  1  0
  5  6  2  0
  5  7  1  0
  7  8  1  0
  8  9  2  0
  9 10  1  0
  9 11  1  0
 11 12  1  0
 11 13  2  0
 13 14  1  0
 14 15  2  0
 14 16  2  0
 14 17  1  0
 17 18  2  0
 18 19  1  0
 19 20  2  0
 20 21  1  0
 20 22  1  0
 22 23  1  0
 22 24  2  0
 24 25  1  0
 24 26  1  0
 26 27  1  0
 13 28  1  0
 28 29  1  0
 28 30  2  0
 30 31  1  0
  4 32  2  0
 32 33  1  0
 32 34  1  0
 34 35  1  0
 34 36  2  0
 36 37  1  0
 36  2  1  0
 30  8  1  0
 26 18  1  0
M  CHG  1   7  -1
M  END
>  <UniqueID>  (7) 
7

>  <SMILES>  (7) 
O=C([N-]c1ccc(S(=O)(=O)/N=c2\nccc[nH]2)cc1)c1ccccn1

>  <Energy>  (7) 
49.54822997153738

>  <Genealogy>  (7) 
O=C([N-]c1ccc(S(=O)(=O)N=c2nccc[nH]2)cc1)c1ccccn1 (protonated)
O=C([N-]c1ccc(S(=O)(=O)/N=c2\nccc[nH]2)cc1)c1ccccn1 (cis-trans isomerization)
O=C([N-]c1ccc(S(=O)(=O)/N=c2\nccc[nH]2)cc1)c1ccccn1 (3D coordinates assigned)
O=C([N-]c1ccc(S(=O)(=O)/N=c2\nccc[nH]2)cc1)c1ccccn1 (optimized conformer: 49.54822997153738 kcal/mol)

>  <smiles>  (7) 
O=C(Nc1ccc(S(=O)(=O)N=c2nccc[nH]2)cc1)c1ccccn1

>  <score_type>  (7) 
oracle

>  <origin>  (7) 
adgpu

>  <m_score__min__energy>  (7) 
-10.6

>  <m_primary>  (7) 
energy

$$$$
7:0
     RDKit          3D

 51 53  0  0  0  0  0  0  0  0999 V2000
    0.1410   18.8630  -28.1820 C   0  0  0  0  0  0  0  0  0  0  0  0
    0.1720   20.1510  -27.5770 O   0  0  0  0  0  0  0  0  0  0  0  0
   -0.5640   21.2600  -28.0260 C   0  0  0  0  0  0  0  0  0  0  0  0
   -0.0310   22.1900  -28.9370 C   0  0  0  0  0  0  0  0  0  0  0  0
   -0.7930   23.2820  -29.3600 C   0  0  0  0  0  0  0  0  0  0  0  0
   -2.0940   23.4710  -28.8690 C   0  0  0  0  0  0  0  0  0  0  0  0
   -2.9170   24.5650  -29.2970 N   0  0  0  0  0  0  0  0  0  0  0  0
   -3.7430   24.6080  -30.4680 C   0  0  0  0  0  0  0  0  0  0  0  0
   -4.2470   25.6940  -30.8540 O   0  0  0  0  0  0  0  0  0  0  0  0
   -4.0970   23.4000  -31.1510 N   0  0  0  0  0  0  0  0  0  0  0  0
   -5.4290   22.9420  -31.4250 C   0  0  0  0  0  0  0  0  0  0  0  0
   -6.5240   23.8260  -31.3950 C   0  0  0  0  0  0  0  0  0  0  0  0
   -7.8120   23.3670  -31.6770 C   0  0  0  0  0  0  0  0  0  0  0  0
   -8.0250   22.0220  -31.9780 C   0  0  0  0  0  0  0  0  0  0  0  0
   -6.9520   21.1290  -31.9840 C   0  0  0  0  0  0  0  0  0  0  0  0
   -5.6520   21.5760  -31.6970 C   0  0  0  0  0  0  0  0  0  0  0  0
   -4.5650   20.6340  -31.6890 N   0  0  0  0  0  0  0  0  0  0  0  0
   -4.3110   19.7950  -32.8650 C   0  0  0  0  0  0  0  0  0  0  0  0
   -2.8420   19.3430  -32.9020 C   0  0  0  0  0  0  0  0  0  0  0  0
   -1.9240   20.4210  -32.4770 N   0  0  0  0  0  0  0  0  0  0  0  0
   -1.8860   21.5240  -33.4530 C   0  0  0  0  0  0  0  0  0  0  0  0
   -2.1840   20.9120  -31.0970 C   0  0  0  0  0  0  0  0  0  0  0  0
   -3.6060   20.6150  -30.5820 C   0  0  0  0  0  0  0  0  0  0  0  0
   -2.6340   22.5320  -27.9830 C   0  0  0  0  0  0  0  0  0  0  0  0
   -1.8730   21.4280  -27.5500 C   0  0  0  0  0  0  0  0  0  0  0  0
   -2.3830   20.4780  -26.6510 O   0  0  0  0  0  0  0  0  0  0  0  0
   -3.0640   19.2880  -27.0340 C   0  0  0  0  0  0  0  0  0  0  0  0
    0.1224   18.0905  -27.3991 H   0  0  0  0  0  0  0  0  0  0  0  0
   -0.7596   18.7732  -28.8072 H   0  0  0  0  0  0  0  0  0  0  0  0
    1.0362   18.7299  -28.8072 H   0  0  0  0  0  0  0  0  0  0  0  0
    0.9920   22.0566  -29.3187 H   0  0  0  0  0  0  0  0  0  0  0  0
   -0.3711   23.9972  -30.0815 H   0  0  0  0  0  0  0  0  0  0  0  0
   -6.3638   24.8858  -31.1477 H   0  0  0  0  0  0  0  0  0  0  0  0
   -8.6601   24.0673  -31.6618 H   0  0  0  0  0  0  0  0  0  0  0  0
   -9.0390   21.6646  -32.2108 H   0  0  0  0  0  0  0  0  0  0  0  0
   -7.1260   20.0677  -32.2152 H   0  0  0  0  0  0  0  0  0  0  0  0
   -4.9608   18.9084  -32.8234 H   0  0  0  0  0  0  0  0  0  0  0  0
   -4.5238   20.3815  -33.7709 H   0  0  0  0  0  0  0  0  0  0  0  0
   -2.7172   18.4829  -32.2277 H   0  0  0  0  0  0  0  0  0  0  0  0
   -2.5940   19.0724  -33.9389 H   0  0  0  0  0  0  0  0  0  0  0  0
   -1.8529   22.4851  -32.9190 H   0  0  0  0  0  0  0  0  0  0  0  0
   -0.9908   21.4243  -34.0843 H   0  0  0  0  0  0  0  0  0  0  0  0
   -2.7860   21.4861  -34.0843 H   0  0  0  0  0  0  0  0  0  0  0  0
   -1.4634   20.4327  -30.4181 H   0  0  0  0  0  0  0  0  0  0  0  0
   -2.0781   22.0066  -31.1241 H   0  0  0  0  0  0  0  0  0  0  0  0
   -3.6197   19.6226  -30.1078 H   0  0  0  0  0  0  0  0  0  0  0  0
   -3.8892   21.3872  -29.8516 H   0  0  0  0  0  0  0  0  0  0  0  0
   -3.6649   22.6573  -27.6202 H   0  0  0  0  0  0  0  0  0  0  0  0
   -3.3780   18.7393  -26.1338 H   0  0  0  0  0  0  0  0  0  0  0  0
   -3.9496   19.5487  -27.6321 H   0  0  0  0  0  0  0  0  0  0  0  0
   -2.3906   18.6565  -27.6321 H   0  0  0  0  0  0  0  0  0  0  0  0
  1  2  1  0
  2  3  1  0
  3  4  2  0
  4  5  1  0
  5  6  2  0
  6  7  1  0
  7  8  1  0
  8  9  2  0
  8 10  1  0
 10 11  1  0
 11 12  2  0
 12 13  1  0
 13 14  2  0
 14 15  1  0
 15 16  2  0
 16 17  1  0
 17 18  1  0
 18 19  1  0
 19 20  1  0
 20 21  1  0
 20 22  1  0
 22 23  1  0
  6 24  1  0
 24 25  2  0
 25 26  1  0
 26 27  1  0
 25  3  1  0
 16 11  1  0
 23 17  1  0
  1 28  1  0
  1 29  1  0
  1 30  1  0
  4 31  1  0
  5 32  1  0
 12 33  1  0
 13 34  1  0
 14 35  1  0
 15 36  1  0
 18 37  1  0
 18 38  1  0
 19 39  1  0
 19 40  1  0
 21 41  1  0
 21 42  1  0
 21 43  1  0
 22 44  1  0
 22 45  1  0
 23 46  1  0
 23 47  1  0
 24 48  1  0
 27 49  1  0
 27 50  1  0
 27 51  1  0
M  CHG  2   7  -1  10  -1
M  END
>  <UniqueID>  (8) 
8

>  <SMILES>  (8) 
COc1ccc([N-]C(=O)[N-]c2ccccc2N2CCN(C)CC2)cc1OC

>  <Energy>  (8) 
70.45682092190987

>  <Genealogy>  (8) 
COc1ccc([N-]C(=O)[N-]c2ccccc2N2CCN(C)CC2)cc1OC (protonated)
COc1ccc([N-]C(=O)[N-]c2ccccc2N2CCN(C)CC2)cc1OC (3D coordinates assigned)
COc1ccc([N-]C(=O)[N-]c2ccccc2N2CCN(C)CC2)cc1OC (nonaromatic ring conformer: 70.45682092190987 kcal/mol)

>  <smiles>  (8) 
COc1ccc(NC(=O)Nc2ccccc2N2CCN(C)CC2)cc1OC

>  <score_type>  (8) 
oracle

>  <origin>  (8) 
adgpu

>  <m_score__min__energy>  (8) 
-10.07

>  <m_primary>  (8) 
energy

$$$$
8:0
     RDKit          3D

 64 67  0  0  1  0  0  0  0  0999 V2000
   -0.1150   23.4830  -24.6240 C   0  0  0  0  0  0  0  0  0  0  0  0
   -0.8000   24.0670  -25.7630 N   0  0  0  0  0  0  0  0  0  0  0  0
   -1.1690   25.4070  -25.3510 C   0  0  0  0  0  0  0  0  0  0  0  0
   -1.9410   26.1510  -26.4440 C   0  0  0  0  0  0  0  0  0  0  0  0
   -1.2500   25.9720  -27.7610 C   0  0  0  0  0  0  0  0  0  0  0  0
   -2.0500   25.3000  -28.7630 N   0  0  0  0  0  0  0  0  0  0  0  0
   -2.8740   24.1780  -28.4720 C   0  0  0  0  0  0  0  0  0  0  0  0
   -2.8840   23.7780  -27.2820 O   0  0  0  0  0  0  0  0  0  0  0  0
   -3.6760   23.5110  -29.4900 C   0  0  0  0  0  0  0  0  0  0  0  0
   -3.1690   23.0900  -30.7010 C   0  0  0  0  0  0  0  0  0  0  0  0
   -3.9890   22.4650  -31.6120 C   0  0  0  0  0  0  0  0  0  0  0  0
   -5.3240   22.2360  -31.3630 C   0  0  0  0  0  0  0  0  0  0  0  0
   -6.0820   21.5830  -32.3700 N   0  0  0  0  0  0  0  0  0  0  0  0
   -5.7030   20.5150  -32.9450 C   0  0  0  0  0  0  0  0  0  0  0  0
   -6.5170   19.9930  -33.8910 N   0  0  0  0  0  0  0  0  0  0  0  0
   -6.0990   18.8640  -34.4870 C   0  0  0  0  0  0  0  0  0  0  0  0
   -4.9190   18.2520  -34.1770 C   0  0  0  0  0  0  0  0  0  0  0  0
   -4.4330   16.7980  -34.9830 Cl  0  0  0  0  0  0  0  0  0  0  0  0
   -4.1020   18.7920  -33.2170 C   0  0  0  0  0  0  0  0  0  0  0  0
   -2.9820   18.3130  -32.8420 N   0  0  0  0  0  0  0  0  0  0  0  0
   -2.4430   17.1310  -33.3950 C   0  0  0  0  0  0  0  0  0  0  0  0
   -1.5820   17.1810  -34.4960 C   0  0  0  0  0  0  0  0  0  0  0  0
   -1.0280   16.0100  -35.0210 C   0  0  0  0  0  0  0  0  0  0  0  0
   -1.3400   14.7900  -34.4340 C   0  0  0  0  0  0  0  0  0  0  0  0
   -2.1890   14.7170  -33.3450 C   0  0  0  0  0  0  0  0  0  0  0  0
   -2.4570   13.4300  -32.8080 N   0  0  0  0  0  0  0  0  0  0  0  0
   -4.0010   13.0070  -32.1620 S   0  0  0  0  0  0  0  0  0  0  0  0
   -5.2890   13.4480  -33.2820 C   0  0  0  0  0  0  0  0  0  0  0  0
   -4.2600   13.6900  -30.8640 O   0  0  0  0  0  0  0  0  0  0  0  0
   -4.0350   11.5100  -31.9880 O   0  0  0  0  0  0  0  0  0  0  0  0
   -2.7370   15.8820  -32.8290 C   0  0  0  0  0  0  0  0  0  0  0  0
   -4.5350   19.9390  -32.6170 N   0  0  0  0  0  0  0  0  0  0  0  0
   -5.8480   22.6510  -30.1590 C   0  0  0  0  0  0  0  0  0  0  0  0
   -5.0130   23.2800  -29.2460 C   0  0  0  0  0  0  0  0  0  0  0  0
    0.1240   25.3640  -27.6290 C   0  0  0  0  0  0  0  0  0  0  0  0
    0.1270   24.0620  -26.8790 C   0  0  0  0  0  0  0  0  0  0  0  0
   -0.5612   23.8634  -23.6933 H   0  0  0  0  0  0  0  0  0  0  0  0
   -0.2151   22.3881  -24.6578 H   0  0  0  0  0  0  0  0  0  0  0  0
    0.9503   23.7550  -24.6578 H   0  0  0  0  0  0  0  0  0  0  0  0
   -1.8002   25.3411  -24.4525 H   0  0  0  0  0  0  0  0  0  0  0  0
   -0.2441   25.9666  -25.1474 H   0  0  0  0  0  0  0  0  0  0  0  0
   -2.9624   25.7479  -26.5092 H   0  0  0  0  0  0  0  0  0  0  0  0
   -1.9817   27.2220  -26.1965 H   0  0  0  0  0  0  0  0  0  0  0  0
   -1.1090   26.9961  -28.1369 H   0  0  0  0  0  0  0  0  0  0  0  0
   -1.9940   25.6880  -29.7340 H   0  0  0  0  0  0  0  0  0  0  0  0
   -2.1077   23.2540  -30.9391 H   0  0  0  0  0  0  0  0  0  0  0  0
   -3.5638   22.1370  -32.5720 H   0  0  0  0  0  0  0  0  0  0  0  0
   -7.4220   20.4500  -34.1370 H   0  0  0  0  0  0  0  0  0  0  0  0
   -6.7371   18.4119  -35.2606 H   0  0  0  0  0  0  0  0  0  0  0  0
   -1.3384   18.1513  -34.9533 H   0  0  0  0  0  0  0  0  0  0  0  0
   -0.3531   16.0539  -35.8885 H   0  0  0  0  0  0  0  0  0  0  0  0
   -0.9042   13.8663  -34.8425 H   0  0  0  0  0  0  0  0  0  0  0  0
   -1.6830   12.7250  -32.8090 H   0  0  0  0  0  0  0  0  0  0  0  0
   -6.1802   13.7532  -32.7141 H   0  0  0  0  0  0  0  0  0  0  0  0
   -4.9543   14.2827  -33.9154 H   0  0  0  0  0  0  0  0  0  0  0  0
   -5.5362   12.5833  -33.9154 H   0  0  0  0  0  0  0  0  0  0  0  0
   -3.4125   15.8254  -31.9627 H   0  0  0  0  0  0  0  0  0  0  0  0
   -3.9310   20.3680  -31.8850 H   0  0  0  0  0  0  0  0  0  0  0  0
   -6.9102   22.4868  -29.9249 H   0  0  0  0  0  0  0  0  0  0  0  0
   -5.4367   23.6086  -28.2855 H   0  0  0  0  0  0  0  0  0  0  0  0
    0.5261   25.1872  -28.6375 H   0  0  0  0  0  0  0  0  0  0  0  0
    0.7405   26.0721  -27.0559 H   0  0  0  0  0  0  0  0  0  0  0  0
   -0.1563   23.2548  -27.5705 H   0  0  0  0  0  0  0  0  0  0  0  0
    1.1387   23.9087  -26.4753 H   0  0  0  0  0  0  0  0  0  0  0  0
  1  2  1  0
  2  3  1  0
  3  4  1  0
  4  5  1  0
  5  6  1  0
  6  7  1  0
  7  8  2  0
  7  9  1  0
  9 10  2  0
 10 11  1  0
 11 12  2  0
 12 13  1  0
 13 14  2  0
 14 15  1  0
 15 16  1  0
 16 17  2  0
 17 18  1  0
 17 19  1  0
 19 20  2  0
 20 21  1  0
 21 22  2  0
 22 23  1  0
 23 24  2  0
 24 25  1  0
 25 26  1  0
 26 27  1  0
 27 28  1  0
 27 29  2  0
 27 30  2  0
 25 31  2  0
 19 32  1  0
 12 33  1  0
 33 34  2  0
  5 35  1  0
 35 36  1  0
 36  2  1  0
 34  9  1  0
 32 14  1  0
 31 21  1  0
  1 37  1  0
  1 38  1  0
  1 39  1  0
  3 40  1  0
  3 41  1  0
  4 42  1  0
  4 43  1  0
  5 44  1  0
  6 45  1  0
 10 46  1  0
 11 47  1  0
 15 48  1  0
 16 49  1  0
 22 50  1  0
 23 51  1  0
 24 52  1  0
 26 53  1  0
 28 54  1  0
 28 55  1  0
 28 56  1  0
 31 57  1  0
 32 58  1  0
 33 59  1  0
 34 60  1  0
 35 61  1  0
 35 62  1  0
 36 63  1  0
 36 64  1  0
M  END
>  <smiles>  (9) 
CN1CCC(NC(=O)c2ccc(N=c3[nH]cc(Cl)c(=Nc4cccc(NS(C)(=O)=O)c4)[nH]3)cc2)CC1

>  <score_type>  (9) 
oracle

>  <origin>  (9) 
adgpu

>  <m_score__min__energy>  (9) 
-9.5199999999999996

>  <m_primary>  (9) 
energy

$$$$
9:0
     RDKit          3D

 58 61  0  0  0  0  0  0  0  0999 V2000
   -0.4420   21.2950  -31.2940 C   0  0  0  0  0  0  0  0  0  0  0  0
   -0.1460   21.2180  -29.9040 O   0  0  0  0  0  0  0  0  0  0  0  0
   -1.0310   20.7280  -28.9280 C   0  0  0  0  0  0  0  0  0  0  0  0
   -0.9630   19.4010  -28.4590 C   0  0  0  0  0  0  0  0  0  0  0  0
   -1.8730   18.9440  -27.5010 C   0  0  0  0  0  0  0  0  0  0  0  0
   -2.8560   19.8000  -27.0030 C   0  0  0  0  0  0  0  0  0  0  0  0
   -2.9310   21.1180  -27.4580 C   0  0  0  0  0  0  0  0  0  0  0  0
   -2.0190   21.5890  -28.4120 C   0  0  0  0  0  0  0  0  0  0  0  0
   -2.1270   22.9820  -28.8860 C   0  0  0  0  0  0  0  0  0  0  0  0
   -1.2870   24.0310  -28.5090 C   0  0  0  0  0  0  0  0  0  0  0  0
   -0.0960   23.9360  -27.6320 C   0  0  0  0  0  0  0  0  0  0  0  0
    0.9210   24.6300  -27.9000 O   0  0  0  0  0  0  0  0  0  0  0  0
   -0.0230   22.9810  -26.4670 C   0  0  0  0  0  0  0  0  0  0  0  0
   -0.0870   23.6860  -25.0930 C   0  0  0  0  0  0  0  0  0  0  0  0
   -0.4840   22.7240  -23.9660 C   0  0  0  0  0  0  0  0  0  0  0  0
   -1.0090   24.9130  -25.1080 C   0  0  0  0  0  0  0  0  0  0  0  0
   -1.8590   25.1730  -29.0490 C   0  0  0  0  0  0  0  0  0  0  0  0
   -1.3790   26.4740  -28.9680 O   0  0  0  0  0  0  0  0  0  0  0  0
   -3.0020   24.7880  -29.7050 C   0  0  0  0  0  0  0  0  0  0  0  0
   -3.8580   25.6440  -30.3900 O   0  0  0  0  0  0  0  0  0  0  0  0
   -3.1770   23.4550  -29.6050 N   0  0  0  0  0  0  0  0  0  0  0  0
   -4.2770   22.6980  -30.1390 C   0  0  0  0  0  0  0  0  0  0  0  0
   -4.0440   21.5370  -30.8910 C   0  0  0  0  0  0  0  0  0  0  0  0
   -5.1130   20.7950  -31.3980 C   0  0  0  0  0  0  0  0  0  0  0  0
   -6.4390   21.2020  -31.1640 C   0  0  0  0  0  0  0  0  0  0  0  0
   -7.5760   20.4110  -31.7000 C   0  0  0  0  0  0  0  0  0  0  0  0
   -8.7940   21.0390  -32.0240 C   0  0  0  0  0  0  0  0  0  0  0  0
   -9.8630   20.2930  -32.5300 C   0  0  0  0  0  0  0  0  0  0  0  0
   -9.7300   18.9150  -32.7180 C   0  0  0  0  0  0  0  0  0  0  0  0
   -8.5270   18.2810  -32.4000 C   0  0  0  0  0  0  0  0  0  0  0  0
   -7.4550   19.0210  -31.8940 C   0  0  0  0  0  0  0  0  0  0  0  0
   -6.6690   22.3700  -30.4140 C   0  0  0  0  0  0  0  0  0  0  0  0
   -5.5980   23.1100  -29.9080 C   0  0  0  0  0  0  0  0  0  0  0  0
   -1.4985   21.5698  -31.4292 H   0  0  0  0  0  0  0  0  0  0  0  0
    0.1980   22.0566  -31.7635 H   0  0  0  0  0  0  0  0  0  0  0  0
   -0.2543   20.3181  -31.7635 H   0  0  0  0  0  0  0  0  0  0  0  0
   -0.1905   18.7216  -28.8484 H   0  0  0  0  0  0  0  0  0  0  0  0
   -1.8139   17.9070  -27.1389 H   0  0  0  0  0  0  0  0  0  0  0  0
   -3.5723   19.4363  -26.2515 H   0  0  0  0  0  0  0  0  0  0  0  0
   -3.7092   21.7893  -27.0659 H   0  0  0  0  0  0  0  0  0  0  0  0
   -0.8662   22.2783  -26.5384 H   0  0  0  0  0  0  0  0  0  0  0  0
    0.9491   22.4696  -26.5256 H   0  0  0  0  0  0  0  0  0  0  0  0
    0.9341   24.0402  -24.8882 H   0  0  0  0  0  0  0  0  0  0  0  0
   -0.2882   23.1984  -22.9930 H   0  0  0  0  0  0  0  0  0  0  0  0
   -1.5544   22.4845  -24.0484 H   0  0  0  0  0  0  0  0  0  0  0  0
    0.1060   21.7993  -24.0484 H   0  0  0  0  0  0  0  0  0  0  0  0
   -1.2353   25.2142  -24.0745 H   0  0  0  0  0  0  0  0  0  0  0  0
   -0.5082   25.7416  -25.6301 H   0  0  0  0  0  0  0  0  0  0  0  0
   -1.9442   24.6625  -25.6301 H   0  0  0  0  0  0  0  0  0  0  0  0
   -3.0118   21.2086  -31.0827 H   0  0  0  0  0  0  0  0  0  0  0  0
   -4.9166   19.8855  -31.9847 H   0  0  0  0  0  0  0  0  0  0  0  0
   -8.9053   22.1236  -31.8781 H   0  0  0  0  0  0  0  0  0  0  0  0
  -10.8107   20.7922  -32.7806 H   0  0  0  0  0  0  0  0  0  0  0  0
  -10.5721   18.3299  -33.1162 H   0  0  0  0  0  0  0  0  0  0  0  0
   -8.4230   17.1960  -32.5483 H   0  0  0  0  0  0  0  0  0  0  0  0
   -6.5105   18.5148  -31.6456 H   0  0  0  0  0  0  0  0  0  0  0  0
   -7.7002   22.7029  -30.2247 H   0  0  0  0  0  0  0  0  0  0  0  0
   -5.7916   24.0221  -29.3244 H   0  0  0  0  0  0  0  0  0  0  0  0
  1  2  1  0
  2  3  1  0
  3  4  2  0
  4  5  1  0
  5  6  2  0
  6  7  1  0
  7  8  2  0
  8  9  1  0
  9 10  2  0
 10 11  1  0
 11 12  2  0
 11 13  1  0
 13 14  1  0
 14 15  1  0
 14 16  1  0
 10 17  1  0
 17 18  1  0
 17 19  2  0
 19 20  1  0
 19 21  1  0
 21 22  1  0
 22 23  2  0
 23 24  1  0
 24 25  2  0
 25 26  1  0
 26 27  2  0
 27 28  1  0
 28 29  2  0
 29 30  1  0
 30 31  2  0
 25 32  1  0
 32 33  2  0
  8  3  1  0
 21  9  1  0
 33 22  1  0
 31 26  1  0
  1 34  1  0
  1 35  1  0
  1 36  1  0
  4 37  1  0
  5 38  1  0
  6 39  1  0
  7 40  1  0
 13 41  1  0
 13 42  1  0
 14 43  1  0
 15 44  1  0
 15 45  1  0
 15 46  1  0
 16 47  1  0
 16 48  1  0
 16 49  1  0
 23 50  1  0
 24 51  1  0
 27 52  1  0
 28 53  1  0
 29 54  1  0
 30 55  1  0
 31 56  1  0
 32 57  1  0
 33 58  1  0
M  CHG  2  18  -1  20  -1
M  END
>  <UniqueID>  (10) 
9

>  <SMILES>  (10) 
COc1ccccc1-c1c(C(=O)CC(C)C)c([O-])c([O-])n1-c1ccc(-c2ccccc2)cc1

>  <Energy>  (10) 
104.70961300546536

>  <Genealogy>  (10) 
COc1ccccc1-c1c(C(=O)CC(C)C)c([O-])c([O-])n1-c1ccc(-c2ccccc2)cc1 (protonated)
COc1ccccc1-c1c(C(=O)CC(C)C)c([O-])c([O-])n1-c1ccc(-c2ccccc2)cc1 (3D coordinates assigned)
COc1ccccc1-c1c(C(=O)CC(C)C)c([O-])c([O-])n1-c1ccc(-c2ccccc2)cc1 (optimized conformer: 104.70961300546536 kcal/mol)

>  <smiles>  (10) 
COc1ccccc1-c1c(C(=O)CC(C)C)c(O)c(O)n1-c1ccc(-c2ccccc2)cc1

>  <score_type>  (10) 
oracle

>  <origin>  (10) 
adgpu

>  <m_score__min__energy>  (10) 
-15.42

>  <m_primary>  (10) 
energy

$$$$
10:0
     RDKit          3D

 58 61  0  0  0  0  0  0  0  0999 V2000
   -9.4370   21.7340  -31.3250 C   0  0  0  0  0  0  0  0  0  0  0  0
   -8.4210   21.6010  -32.3130 O   0  0  0  0  0  0  0  0  0  0  0  0
   -7.3280   20.7260  -32.2130 C   0  0  0  0  0  0  0  0  0  0  0  0
   -7.5140   19.3890  -32.5750 C   0  0  0  0  0  0  0  0  0  0  0  0
   -6.4550   18.4670  -32.4860 C   0  0  0  0  0  0  0  0  0  0  0  0
   -6.6010   17.1170  -32.8350 O   0  0  0  0  0  0  0  0  0  0  0  0
   -6.0820   16.5320  -34.0240 C   0  0  0  0  0  0  0  0  0  0  0  0
   -5.2050   18.9040  -32.0360 C   0  0  0  0  0  0  0  0  0  0  0  0
   -4.9970   20.2440  -31.6720 C   0  0  0  0  0  0  0  0  0  0  0  0
   -3.7010   20.6710  -31.1970 N   0  0  0  0  0  0  0  0  0  0  0  0
   -3.4960   21.0260  -29.7820 C   0  0  0  0  0  0  0  0  0  0  0  0
   -3.2020   22.4990  -29.6260 C   0  0  0  0  0  0  0  0  0  0  0  0
   -2.1740   22.9340  -28.7720 C   0  0  0  0  0  0  0  0  0  0  0  0
   -1.9220   24.3000  -28.6360 C   0  0  0  0  0  0  0  0  0  0  0  0
   -2.6570   25.2040  -29.3360 N   0  0  0  0  0  0  0  0  0  0  0  0
   -3.6460   24.8150  -30.1830 C   0  0  0  0  0  0  0  0  0  0  0  0
   -4.3020   25.6800  -30.8190 O   0  0  0  0  0  0  0  0  0  0  0  0
   -3.9330   23.4550  -30.3490 C   0  0  0  0  0  0  0  0  0  0  0  0
   -2.5950   20.7160  -32.1200 C   0  0  0  0  0  0  0  0  0  0  0  0
   -1.2980   21.0190  -31.6730 C   0  0  0  0  0  0  0  0  0  0  0  0
   -0.2310   21.0440  -32.5760 C   0  0  0  0  0  0  0  0  0  0  0  0
   -0.4390   20.7580  -33.9300 C   0  0  0  0  0  0  0  0  0  0  0  0
    0.6550   20.7980  -34.8050 O   0  0  0  0  0  0  0  0  0  0  0  0
    1.2360   21.9660  -35.3220 C   0  0  0  0  0  0  0  0  0  0  0  0
    0.4590   23.0510  -35.7650 C   0  0  0  0  0  0  0  0  0  0  0  0
    1.0740   24.1900  -36.2900 C   0  0  0  0  0  0  0  0  0  0  0  0
    2.4720   24.2620  -36.3780 C   0  0  0  0  0  0  0  0  0  0  0  0
    3.1350   25.4680  -36.9760 C   0  0  0  0  0  0  0  0  0  0  0  0
    3.2460   23.1660  -35.9680 C   0  0  0  0  0  0  0  0  0  0  0  0
    2.6290   22.0260  -35.4430 C   0  0  0  0  0  0  0  0  0  0  0  0
   -1.7420   20.4840  -34.3830 C   0  0  0  0  0  0  0  0  0  0  0  0
   -2.8100   20.4610  -33.4830 C   0  0  0  0  0  0  0  0  0  0  0  0
   -6.0650   21.1490  -31.7610 C   0  0  0  0  0  0  0  0  0  0  0  0
   -8.9850   21.6748  -30.3239 H   0  0  0  0  0  0  0  0  0  0  0  0
   -9.9390   22.7055  -31.4438 H   0  0  0  0  0  0  0  0  0  0  0  0
  -10.1722   20.9244  -31.4438 H   0  0  0  0  0  0  0  0  0  0  0  0
   -8.4986   19.0540  -32.9332 H   0  0  0  0  0  0  0  0  0  0  0  0
   -5.3733   15.7331  -33.7604 H   0  0  0  0  0  0  0  0  0  0  0  0
   -6.9076   16.1093  -34.6153 H   0  0  0  0  0  0  0  0  0  0  0  0
   -5.5639   17.3014  -34.6153 H   0  0  0  0  0  0  0  0  0  0  0  0
   -4.3730   18.1878  -31.9663 H   0  0  0  0  0  0  0  0  0  0  0  0
   -4.4057   20.7796  -29.2147 H   0  0  0  0  0  0  0  0  0  0  0  0
   -2.6354   20.4566  -29.4010 H   0  0  0  0  0  0  0  0  0  0  0  0
   -1.5715   22.2021  -28.2140 H   0  0  0  0  0  0  0  0  0  0  0  0
   -1.1261   24.6461  -27.9602 H   0  0  0  0  0  0  0  0  0  0  0  0
   -4.7263   23.1373  -31.0416 H   0  0  0  0  0  0  0  0  0  0  0  0
   -1.1215   21.2372  -30.6094 H   0  0  0  0  0  0  0  0  0  0  0  0
    0.7800   21.2904  -32.2194 H   0  0  0  0  0  0  0  0  0  0  0  0
   -0.6379   23.0026  -35.6978 H   0  0  0  0  0  0  0  0  0  0  0  0
    0.4593   25.0341  -36.6359 H   0  0  0  0  0  0  0  0  0  0  0  0
    3.4961   26.1249  -36.1710 H   0  0  0  0  0  0  0  0  0  0  0  0
    3.9845   25.1489  -37.5977 H   0  0  0  0  0  0  0  0  0  0  0  0
    2.4104   26.0143  -37.5977 H   0  0  0  0  0  0  0  0  0  0  0  0
    4.3415   23.2035  -36.0598 H   0  0  0  0  0  0  0  0  0  0  0  0
    3.2426   21.1709  -35.1231 H   0  0  0  0  0  0  0  0  0  0  0  0
   -1.9208   20.2870  -35.4504 H   0  0  0  0  0  0  0  0  0  0  0  0
   -3.8254   20.2417  -33.8448 H   0  0  0  0  0  0  0  0  0  0  0  0
   -5.9133   22.2001  -31.4744 H   0  0  0  0  0  0  0  0  0  0  0  0
  1  2  1  0
  2  3  1  0
  3  4  2  0
  4  5  1  0
  5  6  1  0
  6  7  1  0
  5  8  2  0
  8  9  1  0
  9 10  1  0
 10 11  1  0
 11 12  1  0
 12 13  1  0
 13 14  2  0
 14 15  1  0
 15 16  1  0
 16 17  2  0
 16 18  1  0
 10 19  1  0
 19 20  2  0
 20 21  1  0
 21 22  2  0
 22 23  1  0
 23 24  1  0
 24 25  2  0
 25 26  1  0
 26 27  2  0
 27 28  1  0
 27 29  1  0
 29 30  2  0
 22 31  1  0
 31 32  2  0
  9 33  2  0
 33  3  1  0
 18 12  2  0
 32 19  1  0
 30 24  1  0
  1 34  1  0
  1 35  1  0
  1 36  1  0
  4 37  1  0
  7 38  1  0
  7 39  1  0
  7 40  1  0
  8 41  1  0
 11 42  1  0
 11 43  1  0
 13 44  1  0
 14 45  1  0
 18 46  1  0
 20 47  1  0
 21 48  1  0
 25 49  1  0
 26 50  1  0
 28 51  1  0
 28 52  1  0
 28 53  1  0
 29 54  1  0
 30 55  1  0
 31 56  1  0
 32 57  1  0
 33 58  1  0
M  CHG  1  15  -1
M  END
>  <UniqueID>  (11) 
10

>  <SMILES>  (11) 
COc1cc(OC)cc(N(Cc2cc[n-]c(=O)c2)c2ccc(Oc3ccc(C)cc3)cc2)c1

>  <Energy>  (11) 
75.51763396005028

>  <Genealogy>  (11) 
COc1cc(OC)cc(N(Cc2cc[n-]c(=O)c2)c2ccc(Oc3ccc(C)cc3)cc2)c1 (protonated)
COc1cc(OC)cc(N(Cc2cc[n-]c(=O)c2)c2ccc(Oc3ccc(C)cc3)cc2)c1 (3D coordinates assigned)
COc1cc(OC)cc(N(Cc2cc[n-]c(=O)c2)c2ccc(Oc3ccc(C)cc3)cc2)c1 (optimized conformer: 75.51763396005028 kcal/mol)

>  <smiles>  (11) 
COc1cc(OC)cc(N(Cc2cc[nH]c(=O)c2)c2ccc(Oc3ccc(C)cc3)cc2)c1

>  <score_type>  (11) 
oracle

>  <origin>  (11) 
adgpu

>  <m_score__min__energy>  (11) 
-10.08

>  <m_primary>  (11) 
energy

$$$$
11:0
     RDKit          3D

 40 43  0  0  0  0  0  0  0  0999 V2000
   -4.4160   23.4840  -27.2630 H   0  0  0  0  0  0  0  0  0  0  0  0
   -4.6050   24.3220  -27.8570 N   0  0  0  0  0  0  0  0  0  0  0  0
   -5.0480   24.2280  -29.0730 C   0  0  0  0  0  0  0  0  0  0  0  0
   -5.2970   22.9730  -29.6480 C   0  0  0  0  0  0  0  0  0  0  0  0
   -5.1281   22.0551  -29.0658 H   0  0  0  0  0  0  0  0  0  0  0  0
   -5.7620   22.8940  -30.9680 C   0  0  0  0  0  0  0  0  0  0  0  0
   -5.9980   21.5860  -31.6150 C   0  0  0  0  0  0  0  0  0  0  0  0
   -7.3000   20.5740  -31.2310 S   0  0  0  0  0  0  0  0  0  0  0  0
   -6.8560   19.3370  -32.2680 C   0  0  0  0  0  0  0  0  0  0  0  0
   -7.5070   18.1250  -32.4820 C   0  0  0  0  0  0  0  0  0  0  0  0
   -8.4267   17.8739  -31.9332 H   0  0  0  0  0  0  0  0  0  0  0  0
   -6.9600   17.2330  -33.4150 C   0  0  0  0  0  0  0  0  0  0  0  0
   -7.4518   16.2671  -33.6026 H   0  0  0  0  0  0  0  0  0  0  0  0
   -5.7840   17.5680  -34.1130 C   0  0  0  0  0  0  0  0  0  0  0  0
   -5.3627   16.8622  -34.8440 H   0  0  0  0  0  0  0  0  0  0  0  0
   -5.1450   18.7980  -33.8820 C   0  0  0  0  0  0  0  0  0  0  0  0
   -4.2290   19.0627  -34.4306 H   0  0  0  0  0  0  0  0  0  0  0  0
   -5.6920   19.6830  -32.9420 C   0  0  0  0  0  0  0  0  0  0  0  0
   -5.2050   20.9580  -32.5980 C   0  0  0  0  0  0  0  0  0  0  0  0
   -4.0020   21.5470  -33.2330 C   0  0  0  0  0  0  0  0  0  0  0  0
   -4.0434   21.7453  -34.3142 H   0  0  0  0  0  0  0  0  0  0  0  0
   -2.8650   21.8570  -32.5880 C   0  0  0  0  0  0  0  0  0  0  0  0
   -2.0193   22.2132  -33.1945 H   0  0  0  0  0  0  0  0  0  0  0  0
   -2.6610   21.7570  -31.1270 C   0  0  0  0  0  0  0  0  0  0  0  0
   -2.9720   20.5530  -30.4760 C   0  0  0  0  0  0  0  0  0  0  0  0
   -3.3460   19.6975  -31.0576 H   0  0  0  0  0  0  0  0  0  0  0  0
   -2.8090   20.4350  -29.0920 C   0  0  0  0  0  0  0  0  0  0  0  0
   -3.0736   19.4953  -28.5852 H   0  0  0  0  0  0  0  0  0  0  0  0
   -2.3100   21.5110  -28.3530 C   0  0  0  0  0  0  0  0  0  0  0  0
   -2.1880   21.4201  -27.2636 H   0  0  0  0  0  0  0  0  0  0  0  0
   -1.9660   22.7020  -28.9970 C   0  0  0  0  0  0  0  0  0  0  0  0
   -1.5662   23.5453  -28.4148 H   0  0  0  0  0  0  0  0  0  0  0  0
   -2.1290   22.8240  -30.3800 C   0  0  0  0  0  0  0  0  0  0  0  0
   -1.8404   23.7572  -30.8859 H   0  0  0  0  0  0  0  0  0  0  0  0
   -6.0010   24.0780  -31.6770 C   0  0  0  0  0  0  0  0  0  0  0  0
   -6.3893   24.0380  -32.7054 H   0  0  0  0  0  0  0  0  0  0  0  0
   -5.7440   25.3080  -31.0720 C   0  0  0  0  0  0  0  0  0  0  0  0
   -5.9223   26.2398  -31.6288 H   0  0  0  0  0  0  0  0  0  0  0  0
   -5.2740   25.3610  -29.7970 N   0  0  0  0  0  0  0  0  0  0  0  0
   -5.0860   26.2970  -29.3700 H   0  0  0  0  0  0  0  0  0  0  0  0
  1  2  1  0
  2  3  2  0
  3  4  1  0
  4  5  1  0
  4  6  2  0
  6  7  1  0
  7  8  1  0
  8  9  1  0
  9 10  2  0
 10 11  1  0
 10 12  1  0
 12 13  1  0
 12 14  2  0
 14 15  1  0
 14 16  1  0
 16 17  1  0
 16 18  2  0
 18 19  1  0
 19 20  1  0
 20 21  1  0
 20 22  2  0
 22 23  1  0
 22 24  1  0
 24 25  2  0
 25 26  1  0
 25 27  1  0
 27 28  1  0
 27 29  2  0
 29 30  1  0
 29 31  1  0
 31 32  1  0
 31 33  2  0
 33 34  1  0
  6 35  1  0
 35 36  1  0
 35 37  2  0
 37 38  1  0
 37 39  1  0
 39 40  1  0
 39  3  1  0
 19  7  2  0
 33 24  1  0
 18  9  1  0
M  END
>  <UniqueID>  (12) 
11

>  <SMILES>  (12) 
[H]/N=c1\cc(-c2sc3ccccc3c2/C=C\c2ccccc2)cc[nH]1

>  <Energy>  (12) 
87.83395434634828

>  <Genealogy>  (12) 
[H]/N=c1\cc(-c2sc3ccccc3c2/C=C\c2ccccc2)cc[nH]1 (cis-trans isomerization)
[H]/N=c1\cc(-c2sc3ccccc3c2/C=C\c2ccccc2)cc[nH]1 (3D coordinates assigned)
[H]/N=c1\cc(-c2sc3ccccc3c2/C=C\c2ccccc2)cc[nH]1 (optimized conformer: 87.83395434634828 kcal/mol)

>  <smiles>  (12) 
N=c1cc(-c2sc3ccccc3c2C=Cc2ccccc2)cc[nH]1

>  <score_type>  (12) 
oracle

>  <origin>  (12) 
adgpu

>  <m_score__min__energy>  (12) 
-8.8300000000000001

>  <m_primary>  (12) 
energy

$$$$
12:0
     RDKit          3D

 47 49  0  0  0  0  0  0  0  0999 V2000
   -4.1930   17.0660  -35.0580 C   0  0  0  0  0  0  0  0  0  0  0  0
   -5.0910   17.5410  -33.9530 C   0  0  0  0  0  0  0  0  0  0  0  0
   -5.3090   16.7330  -32.8260 C   0  0  0  0  0  0  0  0  0  0  0  0
   -6.1600   17.1640  -31.8070 C   0  0  0  0  0  0  0  0  0  0  0  0
   -6.8160   18.3930  -31.9140 C   0  0  0  0  0  0  0  0  0  0  0  0
   -6.6430   19.1940  -33.0510 C   0  0  0  0  0  0  0  0  0  0  0  0
   -7.3160   20.4620  -33.1330 N   0  0  0  0  0  0  0  0  0  0  0  0
   -6.8660   21.6630  -32.4840 C   0  0  0  0  0  0  0  0  0  0  0  0
   -7.7740   22.5770  -31.9290 C   0  0  0  0  0  0  0  0  0  0  0  0
   -7.3140   23.7310  -31.2920 C   0  0  0  0  0  0  0  0  0  0  0  0
   -5.9390   23.9850  -31.1780 C   0  0  0  0  0  0  0  0  0  0  0  0
   -5.5050   25.2300  -30.6100 N   0  0  0  0  0  0  0  0  0  0  0  0
   -6.2060   25.8030  -29.7530 O   0  0  0  0  0  0  0  0  0  0  0  0
   -4.2200   25.6750  -30.8270 O   0  0  0  0  0  0  0  0  0  0  0  0
   -5.0150   23.0270  -31.6650 C   0  0  0  0  0  0  0  0  0  0  0  0
   -3.5960   23.1540  -31.4620 N   0  0  0  0  0  0  0  0  0  0  0  0
   -2.7240   22.0720  -31.0850 C   0  0  0  0  0  0  0  0  0  0  0  0
   -2.0070   21.4240  -32.1000 C   0  0  0  0  0  0  0  0  0  0  0  0
   -1.0980   20.4150  -31.7950 C   0  0  0  0  0  0  0  0  0  0  0  0
   -0.8900   20.0390  -30.4700 C   0  0  0  0  0  0  0  0  0  0  0  0
   -1.6100   20.6490  -29.4320 C   0  0  0  0  0  0  0  0  0  0  0  0
   -1.3530   20.1990  -28.0160 C   0  0  0  0  0  0  0  0  0  0  0  0
   -2.5870   21.6330  -29.7400 C   0  0  0  0  0  0  0  0  0  0  0  0
   -3.4740   22.1940  -28.6510 C   0  0  0  0  0  0  0  0  0  0  0  0
   -5.4920   21.8890  -32.3330 C   0  0  0  0  0  0  0  0  0  0  0  0
   -5.7640   18.7660  -34.0650 C   0  0  0  0  0  0  0  0  0  0  0  0
   -3.2988   16.5930  -34.6260 H   0  0  0  0  0  0  0  0  0  0  0  0
   -4.7310   16.3345  -35.6789 H   0  0  0  0  0  0  0  0  0  0  0  0
   -3.8911   17.9224  -35.6789 H   0  0  0  0  0  0  0  0  0  0  0  0
   -4.8077   15.7572  -32.7457 H   0  0  0  0  0  0  0  0  0  0  0  0
   -6.3145   16.5349  -30.9180 H   0  0  0  0  0  0  0  0  0  0  0  0
   -7.4728   18.7343  -31.1002 H   0  0  0  0  0  0  0  0  0  0  0  0
   -8.1920   20.5120  -33.7000 H   0  0  0  0  0  0  0  0  0  0  0  0
   -8.8547   22.3833  -31.9961 H   0  0  0  0  0  0  0  0  0  0  0  0
   -8.0367   24.4481  -30.8754 H   0  0  0  0  0  0  0  0  0  0  0  0
   -3.1680   24.0980  -31.5930 H   0  0  0  0  0  0  0  0  0  0  0  0
   -2.1643   21.7159  -33.1488 H   0  0  0  0  0  0  0  0  0  0  0  0
   -0.5430   19.9137  -32.6016 H   0  0  0  0  0  0  0  0  0  0  0  0
   -0.1539   19.2560  -30.2353 H   0  0  0  0  0  0  0  0  0  0  0  0
   -1.7735   20.9353  -27.3152 H   0  0  0  0  0  0  0  0  0  0  0  0
   -1.8289   19.2213  -27.8499 H   0  0  0  0  0  0  0  0  0  0  0  0
   -0.2691   20.1121  -27.8499 H   0  0  0  0  0  0  0  0  0  0  0  0
   -3.0579   21.9308  -27.6673 H   0  0  0  0  0  0  0  0  0  0  0  0
   -3.5245   23.2887  -28.7468 H   0  0  0  0  0  0  0  0  0  0  0  0
   -4.4847   21.7705  -28.7468 H   0  0  0  0  0  0  0  0  0  0  0  0
   -4.7755   21.1629  -32.7446 H   0  0  0  0  0  0  0  0  0  0  0  0
   -5.6043   19.3975  -34.9514 H   0  0  0  0  0  0  0  0  0  0  0  0
  1  2  1  0
  2  3  2  0
  3  4  1  0
  4  5  2  0
  5  6  1  0
  6  7  1  0
  7  8  1  0
  8  9  2  0
  9 10  1  0
 10 11  2  0
 11 12  1  0
 12 13  2  0
 12 14  1  0
 11 15  1  0
 15 16  1  0
 16 17  1  0
 17 18  2  0
 18 19  1  0
 19 20  2  0
 20 21  1  0
 21 22  1  0
 21 23  2  0
 23 24  1  0
 15 25  2  0
  6 26  2  0
 26  2  1  0
 25  8  1  0
 23 17  1  0
  1 27  1  0
  1 28  1  0
  1 29  1  0
  3 30  1  0
  4 31  1  0
  5 32  1  0
  7 33  1  0
  9 34  1  0
 10 35  1  0
 16 36  1  0
 18 37  1  0
 19 38  1  0
 20 39  1  0
 22 40  1  0
 22 41  1  0
 22 42  1  0
 24 43  1  0
 24 44  1  0
 24 45  1  0
 25 46  1  0
 26 47  1  0
M  CHG  2  12   1  14  -1
M  END
>  <UniqueID>  (13) 
12

>  <SMILES>  (13) 
Cc1cccc(Nc2ccc([N+](=O)[O-])c(Nc3cccc(C)c3C)c2)c1

>  <Energy>  (13) 
69.01631942785158

>  <Genealogy>  (13) 
Cc1cccc(Nc2ccc([N+](=O)[O-])c(Nc3cccc(C)c3C)c2)c1 (3D coordinates assigned)
Cc1cccc(Nc2ccc([N+](=O)[O-])c(Nc3cccc(C)c3C)c2)c1 (optimized conformer: 69.01631942785158 kcal/mol)

>  <smiles>  (13) 
Cc1cccc(Nc2ccc([N+](=O)[O-])c(Nc3cccc(C)c3C)c2)c1

>  <score_type>  (13) 
oracle

>  <origin>  (13) 
adgpu

>  <m_score__min__energy>  (13) 
-9.4499999999999993

>  <m_primary>  (13) 
energy

$$$$
13:0
     RDKit          3D

 44 46  0  0  0  0  0  0  0  0999 V2000
    1.0800   21.8410  -35.7910 C   0  0  0  0  0  0  0  0  0  0  0  0
    0.1580   21.3280  -34.7370 C   0  0  0  0  0  0  0  0  0  0  0  0
   -0.8510   20.4040  -34.9260 C   0  0  0  0  0  0  0  0  0  0  0  0
   -1.3470   20.1770  -33.6580 C   0  0  0  0  0  0  0  0  0  0  0  0
   -2.3910   19.1790  -33.3340 C   0  0  0  0  0  0  0  0  0  0  0  0
   -2.4390   18.1130  -34.0020 O   0  0  0  0  0  0  0  0  0  0  0  0
   -3.3600   19.3860  -32.2970 N   0  0  0  0  0  0  0  0  0  0  0  0
   -3.9050   20.6460  -31.8800 C   0  0  0  0  0  0  0  0  0  0  0  0
   -4.2680   21.6380  -32.8070 C   0  0  0  0  0  0  0  0  0  0  0  0
   -4.8210   22.8430  -32.3660 C   0  0  0  0  0  0  0  0  0  0  0  0
   -5.0040   23.0780  -30.9980 C   0  0  0  0  0  0  0  0  0  0  0  0
   -5.6800   24.6060  -30.4470 S   0  0  0  0  0  0  0  0  0  0  0  0
   -5.3480   24.8050  -28.7620 N   0  0  0  0  0  0  0  0  0  0  0  0
   -5.0640   25.7390  -31.2170 O   0  0  0  0  0  0  0  0  0  0  0  0
   -7.1670   24.6220  -30.6720 O   0  0  0  0  0  0  0  0  0  0  0  0
   -4.6100   22.1030  -30.0710 C   0  0  0  0  0  0  0  0  0  0  0  0
   -4.0580   20.8970  -30.5110 C   0  0  0  0  0  0  0  0  0  0  0  0
   -0.6620   20.9500  -32.7800 N   0  0  0  0  0  0  0  0  0  0  0  0
   -0.8790   21.0900  -31.3670 C   0  0  0  0  0  0  0  0  0  0  0  0
   -0.6100   20.0270  -30.4900 C   0  0  0  0  0  0  0  0  0  0  0  0
   -0.7990   20.1850  -29.1150 C   0  0  0  0  0  0  0  0  0  0  0  0
   -1.2630   21.4010  -28.6070 C   0  0  0  0  0  0  0  0  0  0  0  0
   -1.5470   22.4650  -29.4720 C   0  0  0  0  0  0  0  0  0  0  0  0
   -2.1260   23.9960  -28.8280 S   0  0  0  0  0  0  0  0  0  0  0  0
   -2.8520   24.9270  -30.0900 N   0  0  0  0  0  0  0  0  0  0  0  0
   -0.9710   24.7610  -28.2450 O   0  0  0  0  0  0  0  0  0  0  0  0
   -3.1510   23.7490  -27.7580 O   0  0  0  0  0  0  0  0  0  0  0  0
   -1.3720   22.2990  -30.8530 C   0  0  0  0  0  0  0  0  0  0  0  0
    0.2650   21.6370  -33.4300 N   0  0  0  0  0  0  0  0  0  0  0  0
    1.9472   22.3235  -35.3164 H   0  0  0  0  0  0  0  0  0  0  0  0
    1.4231   21.0041  -36.4170 H   0  0  0  0  0  0  0  0  0  0  0  0
    0.5498   22.5738  -36.4170 H   0  0  0  0  0  0  0  0  0  0  0  0
   -1.1837   19.9518  -35.8719 H   0  0  0  0  0  0  0  0  0  0  0  0
   -4.1163   21.4653  -33.8827 H   0  0  0  0  0  0  0  0  0  0  0  0
   -5.1140   23.6108  -33.0972 H   0  0  0  0  0  0  0  0  0  0  0  0
   -4.4050   25.2480  -28.6870 H   0  0  0  0  0  0  0  0  0  0  0  0
   -5.2650   23.8460  -28.3530 H   0  0  0  0  0  0  0  0  0  0  0  0
   -4.7357   22.2878  -28.9940 H   0  0  0  0  0  0  0  0  0  0  0  0
   -3.7419   20.1405  -29.7777 H   0  0  0  0  0  0  0  0  0  0  0  0
   -0.2492   19.0667  -30.8870 H   0  0  0  0  0  0  0  0  0  0  0  0
   -0.5822   19.3510  -28.4313 H   0  0  0  0  0  0  0  0  0  0  0  0
   -1.4058   21.5231  -27.5232 H   0  0  0  0  0  0  0  0  0  0  0  0
   -3.4950   25.6110  -29.6330 H   0  0  0  0  0  0  0  0  0  0  0  0
   -1.6229   23.1221  -31.5383 H   0  0  0  0  0  0  0  0  0  0  0  0
  1  2  1  0
  2  3  1  0
  3  4  2  0
  4  5  1  0
  5  6  2  0
  5  7  1  0
  7  8  1  0
  8  9  2  0
  9 10  1  0
 10 11  2  0
 11 12  1  0
 12 13  1  0
 12 14  2  0
 12 15  2  0
 11 16  1  0
 16 17  2  0
  4 18  1  0
 18 19  1  0
 19 20  2  0
 20 21  1  0
 21 22  2  0
 22 23  1  0
 23 24  1  0
 24 25  1  0
 24 26  2  0
 24 27  2  0
 23 28  2  0
 18 29  1  0
 29  2  2  0
 17  8  1  0
 28 19  1  0
  1 30  1  0
  1 31  1  0
  1 32  1  0
  3 33  1  0
  9 34  1  0
 10 35  1  0
 13 36  1  0
 13 37  1  0
 16 38  1  0
 17 39  1  0
 20 40  1  0
 21 41  1  0
 22 42  1  0
 25 43  1  0
 28 44  1  0
M  CHG  2   7  -1  25  -1
M  END
>  <UniqueID>  (14) 
13

>  <SMILES>  (14) 
Cc1cc(C(=O)[N-]c2ccc(S(N)(=O)=O)cc2)n(-c2cccc(S([NH-])(=O)=O)c2)n1

>  <Energy>  (14) 
79.94508543931278

>  <Genealogy>  (14) 
Cc1cc(C(=O)[N-]c2ccc(S(N)(=O)=O)cc2)n(-c2cccc(S([NH-])(=O)=O)c2)n1 (protonated)
Cc1cc(C(=O)[N-]c2ccc(S(N)(=O)=O)cc2)n(-c2cccc(S([NH-])(=O)=O)c2)n1 (3D coordinates assigned)
Cc1cc(C(=O)[N-]c2ccc(S(N)(=O)=O)cc2)n(-c2cccc(S([NH-])(=O)=O)c2)n1 (optimized conformer: 79.94508543931278 kcal/mol)

>  <smiles>  (14) 
Cc1cc(C(=O)Nc2ccc(S(N)(=O)=O)cc2)n(-c2cccc(S(N)(=O)=O)c2)n1

>  <score_type>  (14) 
oracle

>  <origin>  (14) 
adgpu

>  <m_score__min__energy>  (14) 
-11.050000000000001

>  <m_primary>  (14) 
energy

$$$$
14:0
     RDKit          3D

 61 64  0  0  0  0  0  0  0  0999 V2000
    0.6630   22.4850  -36.0350 C   0  0  0  0  0  0  0  0  0  0  0  0
    0.2970   22.2300  -34.6820 O   0  0  0  0  0  0  0  0  0  0  0  0
   -0.4190   21.1030  -34.2480 C   0  0  0  0  0  0  0  0  0  0  0  0
   -1.7650   21.1900  -33.8410 C   0  0  0  0  0  0  0  0  0  0  0  0
   -2.4500   20.0510  -33.4150 C   0  0  0  0  0  0  0  0  0  0  0  0
   -1.8150   18.8040  -33.3790 C   0  0  0  0  0  0  0  0  0  0  0  0
   -2.5590   17.6530  -32.9380 N   0  0  0  0  0  0  0  0  0  0  0  0
   -3.8970   16.9630  -33.8030 S   0  0  0  0  0  0  0  0  0  0  0  0
   -3.6300   17.0690  -35.2780 O   0  0  0  0  0  0  0  0  0  0  0  0
   -4.0280   15.5130  -33.4340 O   0  0  0  0  0  0  0  0  0  0  0  0
   -5.3940   17.7890  -33.3870 C   0  0  0  0  0  0  0  0  0  0  0  0
   -6.3330   17.1660  -32.5550 C   0  0  0  0  0  0  0  0  0  0  0  0
   -7.5250   17.8190  -32.2280 C   0  0  0  0  0  0  0  0  0  0  0  0
   -7.7810   19.1140  -32.7160 C   0  0  0  0  0  0  0  0  0  0  0  0
   -8.9960   19.8090  -32.3980 N   0  0  0  0  0  0  0  0  0  0  0  0
   -9.0980   21.2070  -32.0890 C   0  0  0  0  0  0  0  0  0  0  0  0
  -10.1960   21.7930  -32.2930 O   0  0  0  0  0  0  0  0  0  0  0  0
   -7.9430   21.9800  -31.5810 C   0  0  0  0  0  0  0  0  0  0  0  0
   -7.6660   22.0310  -30.2050 C   0  0  0  0  0  0  0  0  0  0  0  0
   -6.5830   22.7760  -29.7290 C   0  0  0  0  0  0  0  0  0  0  0  0
   -5.7610   23.4760  -30.6230 C   0  0  0  0  0  0  0  0  0  0  0  0
   -4.3880   24.4090  -30.0190 S   0  0  0  0  0  0  0  0  0  0  0  0
   -4.2450   25.6650  -30.8340 O   0  0  0  0  0  0  0  0  0  0  0  0
   -4.6550   24.8120  -28.5960 O   0  0  0  0  0  0  0  0  0  0  0  0
   -2.8940   23.4990  -30.0870 N   0  0  0  0  0  0  0  0  0  0  0  0
   -2.5780   22.9060  -28.7840 C   0  0  0  0  0  0  0  0  0  0  0  0
   -3.0450   21.4600  -28.7920 C   0  0  0  0  0  0  0  0  0  0  0  0
   -3.2580   21.1060  -30.2500 C   0  0  0  0  0  0  0  0  0  0  0  0
   -2.9890   22.3840  -31.0350 C   0  0  0  0  0  0  0  0  0  0  0  0
   -6.0300   23.4210  -31.9960 C   0  0  0  0  0  0  0  0  0  0  0  0
   -7.1060   22.6690  -32.4750 C   0  0  0  0  0  0  0  0  0  0  0  0
   -6.8500   19.7230  -33.5650 C   0  0  0  0  0  0  0  0  0  0  0  0
   -5.6570   19.0700  -33.8930 C   0  0  0  0  0  0  0  0  0  0  0  0
   -0.4690   18.7150  -33.7820 C   0  0  0  0  0  0  0  0  0  0  0  0
    0.2260   19.8520  -34.2200 C   0  0  0  0  0  0  0  0  0  0  0  0
    1.5910   19.7270  -34.6400 N   0  0  0  0  0  0  0  0  0  0  0  0
    1.5653   23.1137  -36.0585 H   0  0  0  0  0  0  0  0  0  0  0  0
    0.8666   21.5322  -36.5456 H   0  0  0  0  0  0  0  0  0  0  0  0
   -0.1603   23.0060  -36.5456 H   0  0  0  0  0  0  0  0  0  0  0  0
   -2.2795   22.1621  -33.8591 H   0  0  0  0  0  0  0  0  0  0  0  0
   -3.5018   20.1342  -33.1037 H   0  0  0  0  0  0  0  0  0  0  0  0
   -2.2680   17.1700  -32.0580 H   0  0  0  0  0  0  0  0  0  0  0  0
   -6.1319   16.1601  -32.1578 H   0  0  0  0  0  0  0  0  0  0  0  0
   -8.2657   17.3188  -31.5868 H   0  0  0  0  0  0  0  0  0  0  0  0
   -8.3048   21.4816  -29.4978 H   0  0  0  0  0  0  0  0  0  0  0  0
   -6.3752   22.8130  -28.6494 H   0  0  0  0  0  0  0  0  0  0  0  0
   -1.4924   22.9453  -28.6109 H   0  0  0  0  0  0  0  0  0  0  0  0
   -3.0835   23.4631  -27.9814 H   0  0  0  0  0  0  0  0  0  0  0  0
   -2.2797   20.8073  -28.3467 H   0  0  0  0  0  0  0  0  0  0  0  0
   -3.9647   21.3271  -28.2034 H   0  0  0  0  0  0  0  0  0  0  0  0
   -2.5590   20.3142  -30.5573 H   0  0  0  0  0  0  0  0  0  0  0  0
   -4.2759   20.7293  -30.4291 H   0  0  0  0  0  0  0  0  0  0  0  0
   -2.0443   22.2870  -31.5901 H   0  0  0  0  0  0  0  0  0  0  0  0
   -3.8037   22.5657  -31.7514 H   0  0  0  0  0  0  0  0  0  0  0  0
   -5.3910   23.9726  -32.7013 H   0  0  0  0  0  0  0  0  0  0  0  0
   -7.2986   22.6162  -33.5567 H   0  0  0  0  0  0  0  0  0  0  0  0
   -7.0576   20.7215  -33.9771 H   0  0  0  0  0  0  0  0  0  0  0  0
   -4.9240   19.5623  -34.5490 H   0  0  0  0  0  0  0  0  0  0  0  0
    0.0438   17.7423  -33.7531 H   0  0  0  0  0  0  0  0  0  0  0  0
    2.1640   20.5630  -34.8920 H   0  0  0  0  0  0  0  0  0  0  0  0
    2.0420   18.7870  -34.7140 H   0  0  0  0  0  0  0  0  0  0  0  0
  1  2  1  0
  2  3  1  0
  3  4  2  0
  4  5  1  0
  5  6  2  0
  6  7  1  0
  7  8  1  0
  8  9  2  0
  8 10  2  0
  8 11  1  0
 11 12  2  0
 12 13  1  0
 13 14  2  0
 14 15  1  0
 15 16  1  0
 16 17  2  0
 16 18  1  0
 18 19  2  0
 19 20  1  0
 20 21  2  0
 21 22  1  0
 22 23  2  0
 22 24  2  0
 22 25  1  0
 25 26  1  0
 26 27  1  0
 27 28  1  0
 28 29  1  0
 21 30  1  0
 30 31  2  0
 14 32  1  0
 32 33  2  0
  6 34  1  0
 34 35  2  0
 35 36  1  0
 35  3  1  0
 33 11  1  0
 31 18  1  0
 29 25  1  0
  1 37  1  0
  1 38  1  0
  1 39  1  0
  4 40  1  0
  5 41  1  0
  7 42  1  0
 12 43  1  0
 13 44  1  0
 19 45  1  0
 20 46  1  0
 26 47  1  0
 26 48  1  0
 27 49  1  0
 27 50  1  0
 28 51  1  0
 28 52  1  0
 29 53  1  0
 29 54  1  0
 30 55  1  0
 31 56  1  0
 32 57  1  0
 33 58  1  0
 34 59  1  0
 36 60  1  0
 36 61  1  0
M  CHG  1  15  -1
M  END
>  <UniqueID>  (15) 
14

>  <SMILES>  (15) 
COc1ccc(NS(=O)(=O)c2ccc([N-]C(=O)c3ccc(S(=O)(=O)N4CCCC4)cc3)cc2)cc1N

>  <Energy>  (15) 
72.87159181098724

>  <Genealogy>  (15) 
COc1ccc(NS(=O)(=O)c2ccc([N-]C(=O)c3ccc(S(=O)(=O)N4CCCC4)cc3)cc2)cc1N (protonated)
COc1ccc(NS(=O)(=O)c2ccc([N-]C(=O)c3ccc(S(=O)(=O)N4CCCC4)cc3)cc2)cc1N (3D coordinates assigned)
COc1ccc(NS(=O)(=O)c2ccc([N-]C(=O)c3ccc(S(=O)(=O)N4CCCC4)cc3)cc2)cc1N (nonaromatic ring conformer: 72.87159181098724 kcal/mol)

>  <smiles>  (15) 
COc1ccc(NS(=O)(=O)c2ccc(NC(=O)c3ccc(S(=O)(=O)N4CCCC4)cc3)cc2)cc1N

>  <score_type>  (15) 
oracle

>  <origin>  (15) 
adgpu

>  <m_score__min__energy>  (15) 
-12.5

>  <m_primary>  (15) 
energy

$$$$
15:0
     RDKit          3D

 34 35  0  0  0  0  0  0  0  0999 V2000
   -4.6060   15.4440  -33.4530 N   0  0  0  0  0  0  0  0  0  0  0  0
   -4.4250   17.0720  -34.0040 S   0  0  0  0  0  0  0  0  0  0  0  0
   -3.1640   17.6570  -33.4340 O   0  0  0  0  0  0  0  0  0  0  0  0
   -4.3390   17.0650  -35.5050 O   0  0  0  0  0  0  0  0  0  0  0  0
   -5.8040   18.0370  -33.4860 C   0  0  0  0  0  0  0  0  0  0  0  0
   -5.8890   19.3880  -33.8460 C   0  0  0  0  0  0  0  0  0  0  0  0
   -6.9850   20.1560  -33.4410 C   0  0  0  0  0  0  0  0  0  0  0  0
   -8.0190   19.5800  -32.6910 C   0  0  0  0  0  0  0  0  0  0  0  0
   -9.1150   20.4100  -32.2800 N   0  0  0  0  0  0  0  0  0  0  0  0
   -9.0720   21.4640  -31.3100 C   0  0  0  0  0  0  0  0  0  0  0  0
  -10.0810   21.7240  -30.6000 O   0  0  0  0  0  0  0  0  0  0  0  0
   -7.8460   22.2720  -31.1950 C   0  0  0  0  0  0  0  0  0  0  0  0
   -6.9490   22.0780  -30.2180 C   0  0  0  0  0  0  0  0  0  0  0  0
   -5.7100   22.8790  -30.0660 C   0  0  0  0  0  0  0  0  0  0  0  0
   -4.4920   22.3170  -29.6330 C   0  0  0  0  0  0  0  0  0  0  0  0
   -3.3540   23.1170  -29.4950 C   0  0  0  0  0  0  0  0  0  0  0  0
   -3.4150   24.4840  -29.7740 C   0  0  0  0  0  0  0  0  0  0  0  0
   -2.2770   25.2690  -29.6340 O   0  0  0  0  0  0  0  0  0  0  0  0
   -4.6210   25.0600  -30.1890 C   0  0  0  0  0  0  0  0  0  0  0  0
   -4.6760   26.4250  -30.4620 O   0  0  0  0  0  0  0  0  0  0  0  0
   -5.7630   24.2600  -30.3290 C   0  0  0  0  0  0  0  0  0  0  0  0
   -7.9230   18.2270  -32.3160 C   0  0  0  0  0  0  0  0  0  0  0  0
   -6.8260   17.4610  -32.7190 C   0  0  0  0  0  0  0  0  0  0  0  0
   -4.6720   15.4800  -32.4100 H   0  0  0  0  0  0  0  0  0  0  0  0
   -5.0912   19.8461  -34.4491 H   0  0  0  0  0  0  0  0  0  0  0  0
   -7.0359   21.2206  -33.7133 H   0  0  0  0  0  0  0  0  0  0  0  0
   -7.6599   23.0625  -31.9370 H   0  0  0  0  0  0  0  0  0  0  0  0
   -7.1429   21.2790  -29.4872 H   0  0  0  0  0  0  0  0  0  0  0  0
   -4.4367   21.2429  -29.4024 H   0  0  0  0  0  0  0  0  0  0  0  0
   -2.4058   22.6676  -29.1650 H   0  0  0  0  0  0  0  0  0  0  0  0
   -3.8640   27.0210  -30.3530 H   0  0  0  0  0  0  0  0  0  0  0  0
   -6.7114   24.7169  -30.6481 H   0  0  0  0  0  0  0  0  0  0  0  0
   -8.7145   17.7707  -31.7033 H   0  0  0  0  0  0  0  0  0  0  0  0
   -6.7642   16.4007  -32.4329 H   0  0  0  0  0  0  0  0  0  0  0  0
  1  2  1  0
  2  3  2  0
  2  4  2  0
  2  5  1  0
  5  6  2  0
  6  7  1  0
  7  8  2  0
  8  9  1  0
  9 10  1  0
 10 11  2  0
 10 12  1  0
 12 13  2  3
 13 14  1  0
 14 15  2  0
 15 16  1  0
 16 17  2  0
 17 18  1  0
 17 19  1  0
 19 20  1  0
 19 21  2  0
  8 22  1  0
 22 23  2  0
 23  5  1  0
 21 14  1  0
  1 24  1  0
  6 25  1  0
  7 26  1  0
 12 27  1  0
 13 28  1  0
 15 29  1  0
 16 30  1  0
 20 31  1  0
 21 32  1  0
 22 33  1  0
 23 34  1  0
M  CHG  3   1  -1   9  -1  18  -1
M  END
>  <UniqueID>  (16) 
15

>  <SMILES>  (16) 
[NH-]S(=O)(=O)c1ccc([N-]C(=O)C=Cc2ccc([O-])c(O)c2)cc1

>  <Energy>  (16) 
39.26600588626266

>  <Genealogy>  (16) 
[NH-]S(=O)(=O)c1ccc([N-]C(=O)C=Cc2ccc([O-])c(O)c2)cc1 (protonated)
[NH-]S(=O)(=O)c1ccc([N-]C(=O)C=Cc2ccc([O-])c(O)c2)cc1 (3D coordinates assigned)
[NH-]S(=O)(=O)c1ccc([N-]C(=O)C=Cc2ccc([O-])c(O)c2)cc1 (optimized conformer: 39.26600588626266 kcal/mol)

>  <smiles>  (16) 
NS(=O)(=O)c1ccc(NC(=O)C=Cc2ccc(O)c(O)c2)cc1

>  <score_type>  (16) 
oracle

>  <origin>  (16) 
adgpu

>  <m_score__min__energy>  (16) 
-10.369999999999999

>  <m_primary>  (16) 
energy

$$$$
16:0
     RDKit          3D

 31 33  0  0  0  0  0  0  0  0999 V2000
   -9.8720   21.0810  -32.0280 C   0  0  0  0  0  0  0  0  0  0  0  0
   -8.3810   21.0750  -32.0160 C   0  0  0  0  0  0  0  0  0  0  0  0
   -7.6400   21.9720  -31.3310 N   0  0  0  0  0  0  0  0  0  0  0  0
   -6.3720   21.5810  -31.5700 C   0  0  0  0  0  0  0  0  0  0  0  0
   -5.1990   22.2420  -30.9580 C   0  0  0  0  0  0  0  0  0  0  0  0
   -4.2170   21.4970  -30.2800 C   0  0  0  0  0  0  0  0  0  0  0  0
   -3.1220   22.1410  -29.6970 C   0  0  0  0  0  0  0  0  0  0  0  0
   -3.0040   23.5310  -29.7710 C   0  0  0  0  0  0  0  0  0  0  0  0
   -3.9870   24.2820  -30.4230 C   0  0  0  0  0  0  0  0  0  0  0  0
   -3.8730   25.6650  -30.4890 O   0  0  0  0  0  0  0  0  0  0  0  0
   -5.0830   23.6410  -31.0100 C   0  0  0  0  0  0  0  0  0  0  0  0
   -6.3960   20.4670  -32.3990 C   0  0  0  0  0  0  0  0  0  0  0  0
   -5.2570   19.7270  -32.9840 C   0  0  0  0  0  0  0  0  0  0  0  0
   -4.0590   20.4070  -33.2650 C   0  0  0  0  0  0  0  0  0  0  0  0
   -2.9780   19.7310  -33.8380 C   0  0  0  0  0  0  0  0  0  0  0  0
   -3.0850   18.3730  -34.1460 C   0  0  0  0  0  0  0  0  0  0  0  0
   -2.0100   17.7020  -34.7150 O   0  0  0  0  0  0  0  0  0  0  0  0
   -4.2760   17.6900  -33.8830 C   0  0  0  0  0  0  0  0  0  0  0  0
   -5.3650   18.3580  -33.3090 C   0  0  0  0  0  0  0  0  0  0  0  0
   -6.8240   17.4340  -32.9680 Cl  0  0  0  0  0  0  0  0  0  0  0  0
   -7.6510   20.1800  -32.6410 O   0  0  0  0  0  0  0  0  0  0  0  0
  -10.2470   21.0825  -30.9939 H   0  0  0  0  0  0  0  0  0  0  0  0
  -10.2309   21.9806  -32.5495 H   0  0  0  0  0  0  0  0  0  0  0  0
  -10.2381   20.1843  -32.5495 H   0  0  0  0  0  0  0  0  0  0  0  0
   -4.3113   20.4034  -30.2084 H   0  0  0  0  0  0  0  0  0  0  0  0
   -2.3512   21.5518  -29.1786 H   0  0  0  0  0  0  0  0  0  0  0  0
   -2.1381   24.0346  -29.3165 H   0  0  0  0  0  0  0  0  0  0  0  0
   -5.8583   24.2357  -31.5151 H   0  0  0  0  0  0  0  0  0  0  0  0
   -3.9717   21.4786  -33.0323 H   0  0  0  0  0  0  0  0  0  0  0  0
   -2.0417   20.2694  -34.0466 H   0  0  0  0  0  0  0  0  0  0  0  0
   -4.3584   16.6209  -34.1285 H   0  0  0  0  0  0  0  0  0  0  0  0
  1  2  1  0
  2  3  2  0
  3  4  1  0
  4  5  1  0
  5  6  2  0
  6  7  1  0
  7  8  2  0
  8  9  1  0
  9 10  1  0
  9 11  2  0
  4 12  2  0
 12 13  1  0
 13 14  2  0
 14 15  1  0
 15 16  2  0
 16 17  1  0
 16 18  1  0
 18 19  2  0
 19 20  1  0
 12 21  1  0
 21  2  1  0
 11  5  1  0
 19 13  1  0
  1 22  1  0
  1 23  1  0
  1 24  1  0
  6 25  1  0
  7 26  1  0
  8 27  1  0
 11 28  1  0
 14 29  1  0
 15 30  1  0
 18 31  1  0
M  CHG  2  10  -1  17  -1
M  END
>  <UniqueID>  (17) 
16

>  <SMILES>  (17) 
Cc1nc(-c2cccc([O-])c2)c(-c2ccc([O-])cc2Cl)o1

>  <Energy>  (17) 
71.12360240036892

>  <Genealogy>  (17) 
Cc1nc(-c2cccc([O-])c2)c(-c2ccc([O-])cc2Cl)o1 (protonated)
Cc1nc(-c2cccc([O-])c2)c(-c2ccc([O-])cc2Cl)o1 (3D coordinates assigned)
Cc1nc(-c2cccc([O-])c2)c(-c2ccc([O-])cc2Cl)o1 (optimized conformer: 71.12360240036892 kcal/mol)

>  <smiles>  (17) 
Cc1nc(-c2cccc(O)c2)c(-c2ccc(O)cc2Cl)o1

>  <score_type>  (17) 
oracle

>  <origin>  (17) 
adgpu

>  <m_score__min__energy>  (17) 
-10.369999999999999

>  <m_primary>  (17) 
energy

$$$$
17:0
     RDKit          3D

 26 27  0  0  0  0  0  0  0  0999 V2000
   -1.9840   25.6710  -29.7900 H   0  0  0  0  0  0  0  0  0  0  0  0
   -2.6230   24.9170  -29.4520 N   0  0  0  0  0  0  0  0  0  0  0  0
   -3.8290   24.8070  -29.9070 C   0  0  0  0  0  0  0  0  0  0  0  0
   -4.3450   25.6360  -30.8400 N   0  0  0  0  0  0  0  0  0  0  0  0
   -5.5940   25.1640  -31.0290 C   0  0  0  0  0  0  0  0  0  0  0  0
   -6.3323   25.5796  -31.7306 H   0  0  0  0  0  0  0  0  0  0  0  0
   -5.8000   24.0780  -30.2040 C   0  0  0  0  0  0  0  0  0  0  0  0
   -7.0210   23.2060  -30.1680 C   0  0  0  0  0  0  0  0  0  0  0  0
   -6.7553   22.2380  -29.7182 H   0  0  0  0  0  0  0  0  0  0  0  0
   -7.7918   23.7172  -29.5725 H   0  0  0  0  0  0  0  0  0  0  0  0
   -7.5830   22.9640  -31.5750 C   0  0  0  0  0  0  0  0  0  0  0  0
   -8.6544   23.2134  -31.5787 H   0  0  0  0  0  0  0  0  0  0  0  0
   -7.0277   23.6001  -32.2800 H   0  0  0  0  0  0  0  0  0  0  0  0
   -7.4140   21.5280  -32.0040 C   0  0  0  0  0  0  0  0  0  0  0  0
   -6.2270   21.1090  -32.6290 C   0  0  0  0  0  0  0  0  0  0  0  0
   -5.4308   21.8384  -32.8387 H   0  0  0  0  0  0  0  0  0  0  0  0
   -6.0550   19.7680  -32.9850 C   0  0  0  0  0  0  0  0  0  0  0  0
   -5.1255   19.4456  -33.4770 H   0  0  0  0  0  0  0  0  0  0  0  0
   -7.0620   18.8360  -32.7170 C   0  0  0  0  0  0  0  0  0  0  0  0
   -6.8430   17.1530  -33.1620 Cl  0  0  0  0  0  0  0  0  0  0  0  0
   -8.2430   19.2460  -32.0880 C   0  0  0  0  0  0  0  0  0  0  0  0
   -9.0350   18.5128  -31.8758 H   0  0  0  0  0  0  0  0  0  0  0  0
   -8.4180   20.5850  -31.7290 C   0  0  0  0  0  0  0  0  0  0  0  0
   -9.3453   20.9017  -31.2292 H   0  0  0  0  0  0  0  0  0  0  0  0
   -4.6800   23.8480  -29.5010 N   0  0  0  0  0  0  0  0  0  0  0  0
   -4.5030   23.0830  -28.8130 H   0  0  0  0  0  0  0  0  0  0  0  0
  1  2  1  0
  2  3  2  0
  3  4  1  0
  4  5  1  0
  5  6  1  0
  5  7  2  0
  7  8  1  0
  8  9  1  0
  8 10  1  0
  8 11  1  0
 11 12  1  0
 11 13  1  0
 11 14  1  0
 14 15  2  0
 15 16  1  0
 15 17  1  0
 17 18  1  0
 17 19  2  0
 19 20  1  0
 19 21  1  0
 21 22  1  0
 21 23  2  0
 23 24  1  0
  7 25  1  0
 25 26  1  0
 25  3  1  0
 23 14  1  0
M  CHG  1   4  -1
M  END
>  <UniqueID>  (18) 
17

>  <SMILES>  (18) 
[H]/N=c1\[n-]cc(CCc2ccc(Cl)cc2)[nH]1

>  <Energy>  (18) 
50.84505453359284

>  <Genealogy>  (18) 
N=c1[n-]cc(CCc2ccc(Cl)cc2)[nH]1 (protonated)
[H]/N=c1\[n-]cc(CCc2ccc(Cl)cc2)[nH]1 (cis-trans isomerization)
[H]/N=c1\[n-]cc(CCc2ccc(Cl)cc2)[nH]1 (3D coordinates assigned)
[H]/N=c1\[n-]cc(CCc2ccc(Cl)cc2)[nH]1 (optimized conformer: 50.84505453359284 kcal/mol)

>  <smiles>  (18) 
N=c1[nH]cc(CCc2ccc(Cl)cc2)[nH]1

>  <score_type>  (18) 
oracle

>  <origin>  (18) 
adgpu

>  <m_score__min__energy>  (18) 
-8.9199999999999999

>  <m_primary>  (18) 
energy

$$$$
18:0
     RDKit          3D

 41 43  0  0  0  0  0  0  0  0999 V2000
   -1.1890   26.1920  -28.7740 O   0  0  0  0  0  0  0  0  0  0  0  0
   -1.6940   25.0520  -28.9570 C   0  0  0  0  0  0  0  0  0  0  0  0
   -2.8850   24.9210  -29.7360 N   0  0  0  0  0  0  0  0  0  0  0  0
   -4.1590   24.4540  -29.2060 C   0  0  0  0  0  0  0  0  0  0  0  0
   -4.6740   23.2820  -30.0520 C   0  0  0  0  0  0  0  0  0  0  0  0
   -4.9110   23.6580  -31.4680 N   0  0  0  0  0  0  0  0  0  0  0  0
   -6.1010   24.5270  -31.6050 C   0  0  0  0  0  0  0  0  0  0  0  0
   -7.4140   23.8070  -31.2330 C   0  0  0  0  0  0  0  0  0  0  0  0
   -7.4440   22.3570  -31.6570 C   0  0  0  0  0  0  0  0  0  0  0  0
   -8.6210   21.6130  -31.4760 C   0  0  0  0  0  0  0  0  0  0  0  0
   -8.6510   20.2500  -31.7850 C   0  0  0  0  0  0  0  0  0  0  0  0
   -7.5060   19.6180  -32.2740 C   0  0  0  0  0  0  0  0  0  0  0  0
   -6.3280   20.3470  -32.4570 C   0  0  0  0  0  0  0  0  0  0  0  0
   -6.2860   21.7140  -32.1390 C   0  0  0  0  0  0  0  0  0  0  0  0
   -5.0330   22.5090  -32.3900 C   0  0  0  0  0  0  0  0  0  0  0  0
   -1.1030   23.8480  -28.3280 C   0  0  0  0  0  0  0  0  0  0  0  0
   -1.9120   22.7020  -28.1860 C   0  0  0  0  0  0  0  0  0  0  0  0
   -1.4230   21.5540  -27.5580 C   0  0  0  0  0  0  0  0  0  0  0  0
   -2.5410   20.0160  -27.3800 Br  0  0  0  0  0  0  0  0  0  0  0  0
   -0.1230   21.5350  -27.0550 C   0  0  0  0  0  0  0  0  0  0  0  0
    0.7000   22.6530  -27.2010 C   0  0  0  0  0  0  0  0  0  0  0  0
    0.2350   23.8000  -27.8550 C   0  0  0  0  0  0  0  0  0  0  0  0
    1.1430   24.8460  -28.0450 O   0  0  0  0  0  0  0  0  0  0  0  0
   -4.0226   24.1220  -28.1662 H   0  0  0  0  0  0  0  0  0  0  0  0
   -4.8899   25.2754  -29.2392 H   0  0  0  0  0  0  0  0  0  0  0  0
   -3.9293   22.4730  -30.0227 H   0  0  0  0  0  0  0  0  0  0  0  0
   -5.6375   22.9639  -29.6271 H   0  0  0  0  0  0  0  0  0  0  0  0
   -5.9783   25.3976  -30.9440 H   0  0  0  0  0  0  0  0  0  0  0  0
   -6.1742   24.8237  -32.6617 H   0  0  0  0  0  0  0  0  0  0  0  0
   -7.5401   23.8538  -30.1413 H   0  0  0  0  0  0  0  0  0  0  0  0
   -8.2278   24.3187  -31.7677 H   0  0  0  0  0  0  0  0  0  0  0  0
   -9.5250   22.1057  -31.0887 H   0  0  0  0  0  0  0  0  0  0  0  0
   -9.5777   19.6747  -31.6427 H   0  0  0  0  0  0  0  0  0  0  0  0
   -7.5313   18.5451  -32.5154 H   0  0  0  0  0  0  0  0  0  0  0  0
   -5.4305   19.8482  -32.8516 H   0  0  0  0  0  0  0  0  0  0  0  0
   -4.1620   21.8510  -32.2543 H   0  0  0  0  0  0  0  0  0  0  0  0
   -5.0799   22.9012  -33.4166 H   0  0  0  0  0  0  0  0  0  0  0  0
   -2.9410   22.7120  -28.5746 H   0  0  0  0  0  0  0  0  0  0  0  0
    0.2547   20.6380  -26.5425 H   0  0  0  0  0  0  0  0  0  0  0  0
    1.7235   22.6325  -26.7984 H   0  0  0  0  0  0  0  0  0  0  0  0
    0.8680   25.8040  -28.2130 H   0  0  0  0  0  0  0  0  0  0  0  0
  1  2  2  0
  2  3  1  0
  3  4  1  0
  4  5  1  0
  5  6  1  0
  6  7  1  0
  7  8  1  0
  8  9  1  0
  9 10  2  0
 10 11  1  0
 11 12  2  0
 12 13  1  0
 13 14  2  0
 14 15  1  0
  2 16  1  0
 16 17  2  0
 17 18  1  0
 18 19  1  0
 18 20  2  0
 20 21  1  0
 21 22  2  0
 22 23  1  0
 15  6  1  0
 22 16  1  0
 14  9  1  0
  4 24  1  0
  4 25  1  0
  5 26  1  0
  5 27  1  0
  7 28  1  0
  7 29  1  0
  8 30  1  0
  8 31  1  0
 10 32  1  0
 11 33  1  0
 12 34  1  0
 13 35  1  0
 15 36  1  0
 15 37  1  0
 17 38  1  0
 20 39  1  0
 21 40  1  0
 23 41  1  0
M  CHG  1   3  -1
M  END
>  <UniqueID>  (19) 
18

>  <SMILES>  (19) 
O=C([N-]CCN1CCc2ccccc2C1)c1cc(Br)ccc1O

>  <Energy>  (19) 
51.025898666566015

>  <Genealogy>  (19) 
O=C([N-]CCN1CCc2ccccc2C1)c1cc(Br)ccc1O (protonated)
O=C([N-]CCN1CCc2ccccc2C1)c1cc(Br)ccc1O (3D coordinates assigned)
O=C([N-]CCN1CCc2ccccc2C1)c1cc(Br)ccc1O (nonaromatic ring conformer: 51.025898666566015 kcal/mol)

>  <smiles>  (19) 
O=C(NCCN1CCc2ccccc2C1)c1cc(Br)ccc1O

>  <score_type>  (19) 
oracle

>  <origin>  (19) 
adgpu

>  <m_score__min__energy>  (19) 
-10.789999999999999

>  <m_primary>  (19) 
energy

$$$$
19:0
     RDKit          3D

 39 41  0  0  0  0  0  0  0  0999 V2000
   -5.0130   17.9970  -35.2640 O   0  0  0  0  0  0  0  0  0  0  0  0
   -4.9570   18.5940  -34.1550 C   0  0  0  0  0  0  0  0  0  0  0  0
   -3.7200   19.1760  -33.7190 N   0  0  0  0  0  0  0  0  0  0  0  0
   -3.5640   20.2850  -32.8210 C   0  0  0  0  0  0  0  0  0  0  0  0
   -4.2840   21.4580  -33.0730 C   0  0  0  0  0  0  0  0  0  0  0  0
   -4.1750   22.5550  -32.2130 C   0  0  0  0  0  0  0  0  0  0  0  0
   -3.3580   22.4830  -31.0780 C   0  0  0  0  0  0  0  0  0  0  0  0
   -3.2090   23.8800  -30.0140 S   0  0  0  0  0  0  0  0  0  0  0  0
   -3.9420   23.5930  -28.7350 O   0  0  0  0  0  0  0  0  0  0  0  0
   -1.7630   24.1250  -29.6840 O   0  0  0  0  0  0  0  0  0  0  0  0
   -3.8920   25.3050  -30.7490 N   0  0  0  0  0  0  0  0  0  0  0  0
   -5.2620   25.5410  -30.2920 C   0  0  0  0  0  0  0  0  0  0  0  0
   -6.1870   24.4700  -30.7820 C   0  0  0  0  0  0  0  0  0  0  0  0
   -6.8210   23.5300  -29.9970 C   0  0  0  0  0  0  0  0  0  0  0  0
   -7.5750   22.7710  -30.8670 C   0  0  0  0  0  0  0  0  0  0  0  0
   -7.3520   23.2960  -32.1250 C   0  0  0  0  0  0  0  0  0  0  0  0
   -6.5200   24.3080  -32.0410 O   0  0  0  0  0  0  0  0  0  0  0  0
   -2.6500   21.3030  -30.8100 C   0  0  0  0  0  0  0  0  0  0  0  0
   -2.7570   20.2060  -31.6710 C   0  0  0  0  0  0  0  0  0  0  0  0
   -6.1800   18.7450  -33.3240 C   0  0  0  0  0  0  0  0  0  0  0  0
   -7.0060   19.8760  -33.4860 C   0  0  0  0  0  0  0  0  0  0  0  0
   -8.1590   20.0320  -32.7110 C   0  0  0  0  0  0  0  0  0  0  0  0
   -8.5040   19.0660  -31.7660 C   0  0  0  0  0  0  0  0  0  0  0  0
   -7.6960   17.9410  -31.5920 C   0  0  0  0  0  0  0  0  0  0  0  0
   -6.5400   17.7750  -32.3620 C   0  0  0  0  0  0  0  0  0  0  0  0
   -5.7810   16.6680  -32.1610 F   0  0  0  0  0  0  0  0  0  0  0  0
   -4.9403   21.5175  -33.9538 H   0  0  0  0  0  0  0  0  0  0  0  0
   -4.7331   23.4780  -32.4288 H   0  0  0  0  0  0  0  0  0  0  0  0
   -5.2767   25.5525  -29.1922 H   0  0  0  0  0  0  0  0  0  0  0  0
   -5.6024   26.5067  -30.6939 H   0  0  0  0  0  0  0  0  0  0  0  0
   -6.7419   23.4108  -28.9063 H   0  0  0  0  0  0  0  0  0  0  0  0
   -8.2229   21.9197  -30.6110 H   0  0  0  0  0  0  0  0  0  0  0  0
   -7.8032   22.9227  -33.0562 H   0  0  0  0  0  0  0  0  0  0  0  0
   -2.0079   21.2397  -29.9191 H   0  0  0  0  0  0  0  0  0  0  0  0
   -2.2087   19.2787  -31.4485 H   0  0  0  0  0  0  0  0  0  0  0  0
   -6.7408   20.6426  -34.2289 H   0  0  0  0  0  0  0  0  0  0  0  0
   -8.7956   20.9187  -32.8468 H   0  0  0  0  0  0  0  0  0  0  0  0
   -9.4123   19.1905  -31.1581 H   0  0  0  0  0  0  0  0  0  0  0  0
   -7.9698   17.1810  -30.8454 H   0  0  0  0  0  0  0  0  0  0  0  0
  1  2  2  0
  2  3  1  0
  3  4  1  0
  4  5  2  0
  5  6  1  0
  6  7  2  0
  7  8  1  0
  8  9  2  0
  8 10  2  0
  8 11  1  0
 11 12  1  0
 12 13  1  0
 13 14  2  0
 14 15  1  0
 15 16  2  0
 16 17  1  0
  7 18  1  0
 18 19  2  0
  2 20  1  0
 20 21  2  0
 21 22  1  0
 22 23  2  0
 23 24  1  0
 24 25  2  0
 25 26  1  0
 19  4  1  0
 25 20  1  0
 17 13  1  0
  5 27  1  0
  6 28  1  0
 12 29  1  0
 12 30  1  0
 14 31  1  0
 15 32  1  0
 16 33  1  0
 18 34  1  0
 19 35  1  0
 21 36  1  0
 22 37  1  0
 23 38  1  0
 24 39  1  0
M  CHG  2   3  -1  11  -1
M  END
>  <UniqueID>  (20) 
19

>  <SMILES>  (20) 
O=C([N-]c1ccc(S(=O)(=O)[N-]Cc2ccco2)cc1)c1ccccc1F

>  <Energy>  (20) 
71.13648029748494

>  <Genealogy>  (20) 
O=C([N-]c1ccc(S(=O)(=O)[N-]Cc2ccco2)cc1)c1ccccc1F (protonated)
O=C([N-]c1ccc(S(=O)(=O)[N-]Cc2ccco2)cc1)c1ccccc1F (3D coordinates assigned)
O=C([N-]c1ccc(S(=O)(=O)[N-]Cc2ccco2)cc1)c1ccccc1F (optimized conformer: 71.13648029748494 kcal/mol)

>  <smiles>  (20) 
O=C(Nc1ccc(S(=O)(=O)NCc2ccco2)cc1)c1ccccc1F

>  <score_type>  (20) 
oracle

>  <origin>  (20) 
adgpu

>  <m_score__min__energy>  (20) 
-10.289999999999999

>  <m_primary>  (20) 
energy

$$$$
20:0
     RDKit          3D

 45 47  0  0  0  0  0  0  0  0999 V2000
   -5.6960   25.3020  -28.9190 O   0  0  0  0  0  0  0  0  0  0  0  0
   -5.3200   24.9880  -30.3410 S   0  0  0  0  0  0  0  0  0  0  0  0
   -5.7320   26.1450  -31.2080 O   0  0  0  0  0  0  0  0  0  0  0  0
   -3.5980   24.7730  -30.4580 N   0  0  0  0  0  0  0  0  0  0  0  0
   -3.0030   24.4210  -29.1600 C   0  0  0  0  0  0  0  0  0  0  0  0
   -1.4790   24.2090  -29.3350 C   0  0  0  0  0  0  0  0  0  0  0  0
   -1.0730   22.7400  -29.5780 C   0  0  0  0  0  0  0  0  0  0  0  0
   -2.1620   21.9620  -30.3210 C   0  0  0  0  0  0  0  0  0  0  0  0
   -3.4860   21.9350  -29.5310 C   0  0  0  0  0  0  0  0  0  0  0  0
   -3.6730   23.1520  -28.6030 C   0  0  0  0  0  0  0  0  0  0  0  0
   -6.1560   23.5380  -30.8850 C   0  0  0  0  0  0  0  0  0  0  0  0
   -5.6570   22.8150  -31.9760 C   0  0  0  0  0  0  0  0  0  0  0  0
   -6.2800   21.6310  -32.3800 C   0  0  0  0  0  0  0  0  0  0  0  0
   -7.4100   21.1600  -31.6960 C   0  0  0  0  0  0  0  0  0  0  0  0
   -8.1580   19.6410  -32.1680 S   0  0  0  0  0  0  0  0  0  0  0  0
   -8.7520   18.9650  -30.9640 O   0  0  0  0  0  0  0  0  0  0  0  0
   -9.2650   19.8990  -33.1530 O   0  0  0  0  0  0  0  0  0  0  0  0
   -6.9340   18.6080  -32.8950 C   0  0  0  0  0  0  0  0  0  0  0  0
   -6.3010   18.9950  -34.0860 C   0  0  0  0  0  0  0  0  0  0  0  0
   -5.3480   18.1600  -34.6770 C   0  0  0  0  0  0  0  0  0  0  0  0
   -5.0270   16.9350  -34.0850 C   0  0  0  0  0  0  0  0  0  0  0  0
   -5.6620   16.5410  -32.9040 C   0  0  0  0  0  0  0  0  0  0  0  0
   -6.6160   17.3740  -32.3100 C   0  0  0  0  0  0  0  0  0  0  0  0
   -7.9050   21.8790  -30.6000 C   0  0  0  0  0  0  0  0  0  0  0  0
   -7.2820   23.0640  -30.1960 C   0  0  0  0  0  0  0  0  0  0  0  0
   -3.1664   25.2385  -28.4423 H   0  0  0  0  0  0  0  0  0  0  0  0
   -1.1431   24.8074  -30.1947 H   0  0  0  0  0  0  0  0  0  0  0  0
   -1.0045   24.5183  -28.3921 H   0  0  0  0  0  0  0  0  0  0  0  0
   -0.1506   22.7204  -30.1769 H   0  0  0  0  0  0  0  0  0  0  0  0
   -0.9205   22.2622  -28.5990 H   0  0  0  0  0  0  0  0  0  0  0  0
   -2.3387   22.4397  -31.2960 H   0  0  0  0  0  0  0  0  0  0  0  0
   -1.8169   20.9250  -30.4458 H   0  0  0  0  0  0  0  0  0  0  0  0
   -4.3193   21.9130  -30.2487 H   0  0  0  0  0  0  0  0  0  0  0  0
   -3.4630   21.0405  -28.8912 H   0  0  0  0  0  0  0  0  0  0  0  0
   -4.7496   23.3438  -28.4840 H   0  0  0  0  0  0  0  0  0  0  0  0
   -3.1975   22.9162  -27.6395 H   0  0  0  0  0  0  0  0  0  0  0  0
   -4.7716   23.1805  -32.5168 H   0  0  0  0  0  0  0  0  0  0  0  0
   -5.8829   21.0670  -33.2369 H   0  0  0  0  0  0  0  0  0  0  0  0
   -6.5550   19.9568  -34.5554 H   0  0  0  0  0  0  0  0  0  0  0  0
   -4.8504   18.4673  -35.6086 H   0  0  0  0  0  0  0  0  0  0  0  0
   -4.2742   16.2808  -34.5490 H   0  0  0  0  0  0  0  0  0  0  0  0
   -5.4114   15.5751  -32.4412 H   0  0  0  0  0  0  0  0  0  0  0  0
   -7.1175   17.0605  -31.3825 H   0  0  0  0  0  0  0  0  0  0  0  0
   -8.7867   21.5101  -30.0555 H   0  0  0  0  0  0  0  0  0  0  0  0
   -7.6759   23.6256  -29.3360 H   0  0  0  0  0  0  0  0  0  0  0  0
  1  2  2  0
  2  3  2  0
  2  4  1  0
  4  5  1  0
  5  6  1  0
  6  7  1  0
  7  8  1  0
  8  9  1  0
  9 10  1  0
  2 11  1  0
 11 12  2  0
 12 13  1  0
 13 14  2  0
 14 15  1  0
 15 16  2  0
 15 17  2  0
 15 18  1  0
 18 19  2  0
 19 20  1  0
 20 21  2  0
 21 22  1  0
 22 23  2  0
 14 24  1  0
 24 25  2  0
 10  5  1  0
 25 11  1  0
 23 18  1  0
  5 26  1  0
  6 27  1  0
  6 28  1  0
  7 29  1  0
  7 30  1  0
  8 31  1  0
  8 32  1  0
  9 33  1  0
  9 34  1  0
 10 35  1  0
 10 36  1  0
 12 37  1  0
 13 38  1  0
 19 39  1  0
 20 40  1  0
 21 41  1  0
 22 42  1  0
 23 43  1  0
 24 44  1  0
 25 45  1  0
M  CHG  1   4  -1
M  END
>  <UniqueID>  (21) 
20

>  <SMILES>  (21) 
O=S(=O)([N-]C1CCCCC1)c1ccc(S(=O)(=O)c2ccccc2)cc1

>  <Energy>  (21) 
49.299691781096335

>  <Genealogy>  (21) 
O=S(=O)([N-]C1CCCCC1)c1ccc(S(=O)(=O)c2ccccc2)cc1 (protonated)
O=S(=O)([N-]C1CCCCC1)c1ccc(S(=O)(=O)c2ccccc2)cc1 (3D coordinates assigned)
O=S(=O)([N-]C1CCCCC1)c1ccc(S(=O)(=O)c2ccccc2)cc1 (nonaromatic ring conformer: 49.299691781096335 kcal/mol)

>  <smiles>  (21) 
O=S(=O)(NC1CCCCC1)c1ccc(S(=O)(=O)c2ccccc2)cc1

>  <score_type>  (21) 
oracle

>  <origin>  (21) 
adgpu

>  <m_score__min__energy>  (21) 
-11.49

>  <m_primary>  (21) 
energy

$$$$
21:0
     RDKit          3D

 36 38  0  0  0  0  0  0  0  0999 V2000
   -2.0160   21.2410  -32.6160 O   0  0  0  0  0  0  0  0  0  0  0  0
   -3.2590   21.2930  -32.4050 C   0  0  0  0  0  0  0  0  0  0  0  0
   -3.7760   22.2780  -31.4960 N   0  0  0  0  0  0  0  0  0  0  0  0
   -2.9780   22.8430  -30.4420 C   0  0  0  0  0  0  0  0  0  0  0  0
   -2.0820   22.0150  -29.7510 C   0  0  0  0  0  0  0  0  0  0  0  0
   -1.3560   22.5080  -28.6640 C   0  0  0  0  0  0  0  0  0  0  0  0
   -1.5160   23.8340  -28.2590 C   0  0  0  0  0  0  0  0  0  0  0  0
   -2.3830   24.6790  -28.9570 C   0  0  0  0  0  0  0  0  0  0  0  0
   -3.0910   24.2070  -30.0690 C   0  0  0  0  0  0  0  0  0  0  0  0
   -3.9110   25.1270  -30.8010 N   0  0  0  0  0  0  0  0  0  0  0  0
   -5.3080   25.3170  -30.5540 C   0  0  0  0  0  0  0  0  0  0  0  0
   -5.7310   26.4260  -30.1290 O   0  0  0  0  0  0  0  0  0  0  0  0
   -6.2560   24.2270  -30.8180 C   0  0  0  0  0  0  0  0  0  0  0  0
   -6.7570   23.3360  -29.8770 C   0  0  0  0  0  0  0  0  0  0  0  0
   -7.5790   22.3490  -30.4350 C   0  0  0  0  0  0  0  0  0  0  0  0
   -7.7240   22.4580  -31.8130 C   0  0  0  0  0  0  0  0  0  0  0  0
   -6.8260   23.7800  -32.3360 S   0  0  0  0  0  0  0  0  0  0  0  0
   -4.1590   20.3220  -33.0760 C   0  0  0  0  0  0  0  0  0  0  0  0
   -3.6410   19.2050  -33.7610 C   0  0  0  0  0  0  0  0  0  0  0  0
   -4.4960   18.3280  -34.4370 C   0  0  0  0  0  0  0  0  0  0  0  0
   -5.8740   18.5570  -34.4420 C   0  0  0  0  0  0  0  0  0  0  0  0
   -6.3990   19.6620  -33.7700 C   0  0  0  0  0  0  0  0  0  0  0  0
   -5.5500   20.5410  -33.0930 C   0  0  0  0  0  0  0  0  0  0  0  0
   -4.6920   22.7300  -31.7180 H   0  0  0  0  0  0  0  0  0  0  0  0
   -1.9497   20.9697  -30.0670 H   0  0  0  0  0  0  0  0  0  0  0  0
   -0.6572   21.8501  -28.1265 H   0  0  0  0  0  0  0  0  0  0  0  0
   -0.9593   24.2142  -27.3898 H   0  0  0  0  0  0  0  0  0  0  0  0
   -2.5101   25.7218  -28.6307 H   0  0  0  0  0  0  0  0  0  0  0  0
   -6.5309   23.3994  -28.8024 H   0  0  0  0  0  0  0  0  0  0  0  0
   -8.0640   21.5619  -29.8390 H   0  0  0  0  0  0  0  0  0  0  0  0
   -8.3236   21.7932  -32.4521 H   0  0  0  0  0  0  0  0  0  0  0  0
   -2.5565   19.0212  -33.7643 H   0  0  0  0  0  0  0  0  0  0  0  0
   -4.0824   17.4565  -34.9656 H   0  0  0  0  0  0  0  0  0  0  0  0
   -6.5448   17.8671  -34.9751 H   0  0  0  0  0  0  0  0  0  0  0  0
   -7.4843   19.8412  -33.7735 H   0  0  0  0  0  0  0  0  0  0  0  0
   -5.9716   21.4114  -32.5689 H   0  0  0  0  0  0  0  0  0  0  0  0
  1  2  2  0
  2  3  1  0
  3  4  1  0
  4  5  2  0
  5  6  1  0
  6  7  2  0
  7  8  1  0
  8  9  2  0
  9 10  1  0
 10 11  1  0
 11 12  2  0
 11 13  1  0
 13 14  2  0
 14 15  1  0
 15 16  2  0
 16 17  1  0
  2 18  1  0
 18 19  2  0
 19 20  1  0
 20 21  2  0
 21 22  1  0
 22 23  2  0
  9  4  1  0
 17 13  1  0
 23 18  1  0
  3 24  1  0
  5 25  1  0
  6 26  1  0
  7 27  1  0
  8 28  1  0
 14 29  1  0
 15 30  1  0
 16 31  1  0
 19 32  1  0
 20 33  1  0
 21 34  1  0
 22 35  1  0
 23 36  1  0
M  CHG  1  10  -1
M  END
>  <UniqueID>  (22) 
21

>  <SMILES>  (22) 
O=C(Nc1ccccc1[N-]C(=O)c1cccs1)c1ccccc1

>  <Energy>  (22) 
73.7410973360798

>  <Genealogy>  (22) 
O=C(Nc1ccccc1[N-]C(=O)c1cccs1)c1ccccc1 (protonated)
O=C(Nc1ccccc1[N-]C(=O)c1cccs1)c1ccccc1 (3D coordinates assigned)
O=C(Nc1ccccc1[N-]C(=O)c1cccs1)c1ccccc1 (optimized conformer: 73.7410973360798 kcal/mol)

>  <smiles>  (22) 
O=C(Nc1ccccc1NC(=O)c1cccs1)c1ccccc1

>  <score_type>  (22) 
oracle

>  <origin>  (22) 
adgpu

>  <m_score__min__energy>  (22) 
-9.5299999999999994

>  <m_primary>  (22) 
energy

$$$$
22:0
     RDKit          3D

 55 58  0  0  0  0  0  0  0  0999 V2000
   -0.1450   21.0740  -30.9130 C   0  0  0  0  0  0  0  0  0  0  0  0
    0.1110   21.0680  -29.5150 O   0  0  0  0  0  0  0  0  0  0  0  0
   -0.8030   20.5780  -28.5750 C   0  0  0  0  0  0  0  0  0  0  0  0
   -0.6950   19.2990  -28.1130 N   0  0  0  0  0  0  0  0  0  0  0  0
   -1.5510   18.7940  -27.1870 C   0  0  0  0  0  0  0  0  0  0  0  0
   -2.5770   19.5900  -26.6760 C   0  0  0  0  0  0  0  0  0  0  0  0
   -2.7150   20.9010  -27.1320 C   0  0  0  0  0  0  0  0  0  0  0  0
   -1.8310   21.4090  -28.0930 C   0  0  0  0  0  0  0  0  0  0  0  0
   -1.9920   22.7940  -28.5850 C   0  0  0  0  0  0  0  0  0  0  0  0
   -1.1670   23.8630  -28.2520 C   0  0  0  0  0  0  0  0  0  0  0  0
    0.0360   23.8410  -27.4030 C   0  0  0  0  0  0  0  0  0  0  0  0
    1.1600   23.8330  -27.9730 O   0  0  0  0  0  0  0  0  0  0  0  0
   -0.0320   23.8240  -25.8800 C   0  0  0  0  0  0  0  0  0  0  0  0
   -0.4430   22.4380  -25.3320 C   0  0  0  0  0  0  0  0  0  0  0  0
    1.3570   24.1790  -25.3130 C   0  0  0  0  0  0  0  0  0  0  0  0
   -1.0560   24.8720  -25.4070 C   0  0  0  0  0  0  0  0  0  0  0  0
   -1.6430   24.9530  -28.9490 C   0  0  0  0  0  0  0  0  0  0  0  0
   -1.1120   26.2380  -28.9290 O   0  0  0  0  0  0  0  0  0  0  0  0
   -2.7300   24.5210  -29.6730 C   0  0  0  0  0  0  0  0  0  0  0  0
   -3.5140   25.3210  -30.4980 O   0  0  0  0  0  0  0  0  0  0  0  0
   -2.9490   23.2060  -29.4570 N   0  0  0  0  0  0  0  0  0  0  0  0
   -4.0190   22.4250  -30.0180 C   0  0  0  0  0  0  0  0  0  0  0  0
   -5.3480   22.8540  -29.8890 C   0  0  0  0  0  0  0  0  0  0  0  0
   -6.3880   22.1230  -30.4700 C   0  0  0  0  0  0  0  0  0  0  0  0
   -6.1180   20.9430  -31.1860 C   0  0  0  0  0  0  0  0  0  0  0  0
   -7.2210   20.1700  -31.8130 C   0  0  0  0  0  0  0  0  0  0  0  0
   -7.1930   18.7730  -31.9910 C   0  0  0  0  0  0  0  0  0  0  0  0
   -8.3290   18.2610  -32.5990 C   0  0  0  0  0  0  0  0  0  0  0  0
   -9.3710   19.5380  -32.9190 S   0  0  0  0  0  0  0  0  0  0  0  0
   -8.3960   20.7530  -32.2900 C   0  0  0  0  0  0  0  0  0  0  0  0
   -4.7850   20.5090  -31.3020 C   0  0  0  0  0  0  0  0  0  0  0  0
   -3.7460   21.2430  -30.7220 C   0  0  0  0  0  0  0  0  0  0  0  0
   -1.2309   21.0994  -31.0868 H   0  0  0  0  0  0  0  0  0  0  0  0
    0.3199   21.9615  -31.3671 H   0  0  0  0  0  0  0  0  0  0  0  0
    0.2778   20.1657  -31.3671 H   0  0  0  0  0  0  0  0  0  0  0  0
   -1.4353   17.7567  -26.8396 H   0  0  0  0  0  0  0  0  0  0  0  0
   -3.2694   19.1879  -25.9218 H   0  0  0  0  0  0  0  0  0  0  0  0
   -3.5199   21.5377  -26.7361 H   0  0  0  0  0  0  0  0  0  0  0  0
   -0.4360   22.4617  -24.2323 H   0  0  0  0  0  0  0  0  0  0  0  0
   -1.4538   22.1884  -25.6869 H   0  0  0  0  0  0  0  0  0  0  0  0
    0.2684   21.6777  -25.6869 H   0  0  0  0  0  0  0  0  0  0  0  0
    1.3178   24.1690  -24.2137 H   0  0  0  0  0  0  0  0  0  0  0  0
    2.0945   23.4405  -25.6604 H   0  0  0  0  0  0  0  0  0  0  0  0
    1.6497   25.1808  -25.6604 H   0  0  0  0  0  0  0  0  0  0  0  0
   -1.0772   24.8937  -24.3074 H   0  0  0  0  0  0  0  0  0  0  0  0
   -0.7688   25.8632  -25.7878 H   0  0  0  0  0  0  0  0  0  0  0  0
   -2.0536   24.6078  -25.7878 H   0  0  0  0  0  0  0  0  0  0  0  0
   -1.2290   26.8630  -29.7180 H   0  0  0  0  0  0  0  0  0  0  0  0
   -5.5734   23.7721  -29.3267 H   0  0  0  0  0  0  0  0  0  0  0  0
   -7.4256   22.4733  -30.3665 H   0  0  0  0  0  0  0  0  0  0  0  0
   -6.3465   18.1451  -31.6761 H   0  0  0  0  0  0  0  0  0  0  0  0
   -8.5152   17.2021  -32.8314 H   0  0  0  0  0  0  0  0  0  0  0  0
   -8.6417   21.8248  -32.2593 H   0  0  0  0  0  0  0  0  0  0  0  0
   -4.5582   19.5846  -31.8535 H   0  0  0  0  0  0  0  0  0  0  0  0
   -2.7082   20.8914  -30.8184 H   0  0  0  0  0  0  0  0  0  0  0  0
  1  2  1  0
  2  3  1  0
  3  4  2  0
  4  5  1  0
  5  6  2  0
  6  7  1  0
  7  8  2  0
  8  9  1  0
  9 10  2  0
 10 11  1  0
 11 12  2  0
 11 13  1  0
 13 14  1  0
 13 15  1  0
 13 16  1  0
 10 17  1  0
 17 18  1  0
 17 19  2  0
 19 20  1  0
 19 21  1  0
 21 22  1  0
 22 23  2  0
 23 24  1  0
 24 25  2  0
 25 26  1  0
 26 27  1  0
 27 28  2  0
 28 29  1  0
 29 30  1  0
 25 31  1  0
 31 32  2  0
  8  3  1  0
 21  9  1  0
 32 22  1  0
 30 26  2  0
  1 33  1  0
  1 34  1  0
  1 35  1  0
  5 36  1  0
  6 37  1  0
  7 38  1  0
 14 39  1  0
 14 40  1  0
 14 41  1  0
 15 42  1  0
 15 43  1  0
 15 44  1  0
 16 45  1  0
 16 46  1  0
 16 47  1  0
 18 48  1  0
 23 49  1  0
 24 50  1  0
 27 51  1  0
 28 52  1  0
 30 53  1  0
 31 54  1  0
 32 55  1  0
M  CHG  1  20  -1
M  END
>  <UniqueID>  (23) 
22

>  <SMILES>  (23) 
COc1ncccc1-c1c(C(=O)C(C)(C)C)c(O)c([O-])n1-c1ccc(-c2ccsc2)cc1

>  <Energy>  (23) 
127.59351721976695

>  <Genealogy>  (23) 
COc1ncccc1-c1c(C(=O)C(C)(C)C)c(O)c([O-])n1-c1ccc(-c2ccsc2)cc1 (protonated)
COc1ncccc1-c1c(C(=O)C(C)(C)C)c(O)c([O-])n1-c1ccc(-c2ccsc2)cc1 (3D coordinates assigned)
COc1ncccc1-c1c(C(=O)C(C)(C)C)c(O)c([O-])n1-c1ccc(-c2ccsc2)cc1 (optimized conformer: 127.59351721976695 kcal/mol)

>  <smiles>  (23) 
COc1ncccc1-c1c(C(=O)C(C)(C)C)c(O)c(O)n1-c1ccc(-c2ccsc2)cc1

>  <score_type>  (23) 
oracle

>  <origin>  (23) 
adgpu

>  <m_score__min__energy>  (23) 
-12.92

>  <m_primary>  (23) 
energy

$$$$
23:0
     RDKit          3D

 42 45  0  0  0  0  0  0  0  0999 V2000
   -1.9580   25.0890  -29.3420 O   0  0  0  0  0  0  0  0  0  0  0  0
   -2.9080   24.2590  -29.9240 C   0  0  0  0  0  0  0  0  0  0  0  0
   -2.6990   22.8790  -29.9510 C   0  0  0  0  0  0  0  0  0  0  0  0
   -3.6530   22.0360  -30.5260 C   0  0  0  0  0  0  0  0  0  0  0  0
   -4.8310   22.5650  -31.0810 C   0  0  0  0  0  0  0  0  0  0  0  0
   -5.8390   21.6340  -31.6340 C   0  0  0  0  0  0  0  0  0  0  0  0
   -7.1040   21.5200  -31.0370 C   0  0  0  0  0  0  0  0  0  0  0  0
   -8.0400   20.6120  -31.5400 C   0  0  0  0  0  0  0  0  0  0  0  0
   -7.7180   19.8070  -32.6350 C   0  0  0  0  0  0  0  0  0  0  0  0
   -6.4580   19.9100  -33.2430 C   0  0  0  0  0  0  0  0  0  0  0  0
   -6.0920   19.0080  -34.3900 C   0  0  0  0  0  0  0  0  0  0  0  0
   -5.4120   17.7680  -33.8770 C   0  0  0  0  0  0  0  0  0  0  0  0
   -5.9640   17.0490  -32.8070 C   0  0  0  0  0  0  0  0  0  0  0  0
   -5.3560   15.8740  -32.3540 C   0  0  0  0  0  0  0  0  0  0  0  0
   -4.1880   15.3910  -32.9710 C   0  0  0  0  0  0  0  0  0  0  0  0
   -3.5290   14.1440  -32.5080 C   0  0  0  0  0  0  0  0  0  0  0  0
   -4.0990   13.1100  -31.7950 C   0  0  0  0  0  0  0  0  0  0  0  0
   -3.1700   12.1650  -31.5690 N   0  0  0  0  0  0  0  0  0  0  0  0
   -2.0560   12.6530  -32.1510 C   0  0  0  0  0  0  0  0  0  0  0  0
   -2.2320   13.8560  -32.7340 N   0  0  0  0  0  0  0  0  0  0  0  0
   -3.6460   16.1090  -34.0520 C   0  0  0  0  0  0  0  0  0  0  0  0
   -4.2540   17.2830  -34.5040 C   0  0  0  0  0  0  0  0  0  0  0  0
   -5.5160   20.8160  -32.7290 C   0  0  0  0  0  0  0  0  0  0  0  0
   -5.0300   23.9670  -31.0750 C   0  0  0  0  0  0  0  0  0  0  0  0
   -6.1500   24.5570  -31.6660 O   0  0  0  0  0  0  0  0  0  0  0  0
   -4.0700   24.8020  -30.4850 C   0  0  0  0  0  0  0  0  0  0  0  0
   -4.2660   26.1790  -30.4650 O   0  0  0  0  0  0  0  0  0  0  0  0
   -1.7810   22.4545  -29.5185 H   0  0  0  0  0  0  0  0  0  0  0  0
   -3.4810   20.9497  -30.5446 H   0  0  0  0  0  0  0  0  0  0  0  0
   -7.3597   22.1473  -30.1704 H   0  0  0  0  0  0  0  0  0  0  0  0
   -9.0324   20.5312  -31.0724 H   0  0  0  0  0  0  0  0  0  0  0  0
   -8.4558   19.0890  -33.0224 H   0  0  0  0  0  0  0  0  0  0  0  0
   -7.0045   18.7236  -34.9345 H   0  0  0  0  0  0  0  0  0  0  0  0
   -5.4054   19.5425  -35.0630 H   0  0  0  0  0  0  0  0  0  0  0  0
   -6.8815   17.4118  -32.3207 H   0  0  0  0  0  0  0  0  0  0  0  0
   -5.7945   15.3233  -31.5087 H   0  0  0  0  0  0  0  0  0  0  0  0
   -5.1471   13.0657  -31.4640 H   0  0  0  0  0  0  0  0  0  0  0  0
   -1.0939   12.1198  -32.1503 H   0  0  0  0  0  0  0  0  0  0  0  0
   -2.7343   15.7427  -34.5466 H   0  0  0  0  0  0  0  0  0  0  0  0
   -3.8228   17.8298  -35.3555 H   0  0  0  0  0  0  0  0  0  0  0  0
   -4.5184   20.8854  -33.1872 H   0  0  0  0  0  0  0  0  0  0  0  0
   -6.3300   25.5520  -31.6370 H   0  0  0  0  0  0  0  0  0  0  0  0
  1  2  1  0
  2  3  2  0
  3  4  1  0
  4  5  2  0
  5  6  1  0
  6  7  2  0
  7  8  1  0
  8  9  2  0
  9 10  1  0
 10 11  1  0
 11 12  1  0
 12 13  2  0
 13 14  1  0
 14 15  2  0
 15 16  1  0
 16 17  2  0
 17 18  1  0
 18 19  1  0
 19 20  2  0
 15 21  1  0
 21 22  2  0
 10 23  2  0
  5 24  1  0
 24 25  1  0
 24 26  2  0
 26 27  1  0
 26  2  1  0
 23  6  1  0
 22 12  1  0
 20 16  1  0
  3 28  1  0
  4 29  1  0
  7 30  1  0
  8 31  1  0
  9 32  1  0
 11 33  1  0
 11 34  1  0
 13 35  1  0
 14 36  1  0
 17 37  1  0
 19 38  1  0
 21 39  1  0
 22 40  1  0
 23 41  1  0
 25 42  1  0
M  CHG  3   1  -1  18  -1  27  -1
M  END
>  <UniqueID>  (24) 
23

>  <SMILES>  (24) 
[O-]c1ccc(-c2cccc(Cc3ccc(-c4c[n-]cn4)cc3)c2)c(O)c1[O-]

>  <Energy>  (24) 
82.40746972362066

>  <Genealogy>  (24) 
[O-]c1ccc(-c2cccc(Cc3ccc(-c4c[n-]cn4)cc3)c2)c(O)c1[O-] (protonated)
[O-]c1ccc(-c2cccc(Cc3ccc(-c4c[n-]cn4)cc3)c2)c(O)c1[O-] (3D coordinates assigned)
[O-]c1ccc(-c2cccc(Cc3ccc(-c4c[n-]cn4)cc3)c2)c(O)c1[O-] (optimized conformer: 82.40746972362066 kcal/mol)

>  <smiles>  (24) 
Oc1ccc(-c2cccc(Cc3ccc(-c4c[nH]cn4)cc3)c2)c(O)c1O

>  <score_type>  (24) 
oracle

>  <origin>  (24) 
adgpu

>  <m_score__min__energy>  (24) 
-13.1

>  <m_primary>  (24) 
energy

$$$$
24:0
     RDKit          3D

 39 40  0  0  0  0  0  0  0  0999 V2000
   -5.7140   19.0350  -33.6110 C   0  0  0  0  0  0  0  0  0  0  0  0
   -6.8460   19.6070  -32.8100 C   0  0  0  0  0  0  0  0  0  0  0  0
   -8.0590   18.9090  -32.7040 C   0  0  0  0  0  0  0  0  0  0  0  0
   -9.1110   19.4380  -31.9540 C   0  0  0  0  0  0  0  0  0  0  0  0
   -8.9610   20.6650  -31.3020 C   0  0  0  0  0  0  0  0  0  0  0  0
   -7.7460   21.3630  -31.3790 C   0  0  0  0  0  0  0  0  0  0  0  0
   -7.5960   22.6890  -30.6810 C   0  0  0  0  0  0  0  0  0  0  0  0
   -6.2260   23.2260  -30.8420 N   0  0  0  0  0  0  0  0  0  0  0  0
   -6.1080   23.8980  -32.1480 C   0  0  0  0  0  0  0  0  0  0  0  0
   -5.8560   24.1540  -29.7460 C   0  0  0  0  0  0  0  0  0  0  0  0
   -4.9430   25.2170  -30.2690 C   0  0  0  0  0  0  0  0  0  0  0  0
   -5.3940   26.3750  -30.4790 O   0  0  0  0  0  0  0  0  0  0  0  0
   -3.5580   24.9200  -30.4750 N   0  0  0  0  0  0  0  0  0  0  0  0
   -2.7250   24.0690  -29.6740 C   0  0  0  0  0  0  0  0  0  0  0  0
   -2.9260   22.6740  -29.5900 C   0  0  0  0  0  0  0  0  0  0  0  0
   -3.9380   22.0620  -30.2510 F   0  0  0  0  0  0  0  0  0  0  0  0
   -2.1160   21.9010  -28.7500 C   0  0  0  0  0  0  0  0  0  0  0  0
   -1.1180   22.5040  -27.9820 C   0  0  0  0  0  0  0  0  0  0  0  0
   -0.9320   23.8860  -28.0410 C   0  0  0  0  0  0  0  0  0  0  0  0
   -1.7370   24.6660  -28.8760 C   0  0  0  0  0  0  0  0  0  0  0  0
   -1.5540   26.0110  -28.9130 F   0  0  0  0  0  0  0  0  0  0  0  0
   -6.6850   20.8210  -32.1240 C   0  0  0  0  0  0  0  0  0  0  0  0
   -4.9430   18.6454  -32.9299 H   0  0  0  0  0  0  0  0  0  0  0  0
   -6.0895   18.2184  -34.2452 H   0  0  0  0  0  0  0  0  0  0  0  0
   -5.2794   19.8217  -34.2452 H   0  0  0  0  0  0  0  0  0  0  0  0
   -8.1812   17.9418  -33.2136 H   0  0  0  0  0  0  0  0  0  0  0  0
  -10.0603   18.8877  -31.8761 H   0  0  0  0  0  0  0  0  0  0  0  0
   -9.7987   21.0853  -30.7261 H   0  0  0  0  0  0  0  0  0  0  0  0
   -8.3142   23.4035  -31.1096 H   0  0  0  0  0  0  0  0  0  0  0  0
   -7.7889   22.5420  -29.6081 H   0  0  0  0  0  0  0  0  0  0  0  0
   -5.9197   24.9706  -31.9928 H   0  0  0  0  0  0  0  0  0  0  0  0
   -5.2735   23.4572  -32.7131 H   0  0  0  0  0  0  0  0  0  0  0  0
   -7.0427   23.7679  -32.7131 H   0  0  0  0  0  0  0  0  0  0  0  0
   -6.7655   24.6210  -29.3402 H   0  0  0  0  0  0  0  0  0  0  0  0
   -5.3421   23.5921  -28.9521 H   0  0  0  0  0  0  0  0  0  0  0  0
   -2.2665   20.8128  -28.6946 H   0  0  0  0  0  0  0  0  0  0  0  0
   -0.4786   21.8901  -27.3307 H   0  0  0  0  0  0  0  0  0  0  0  0
   -0.1510   24.3619  -27.4297 H   0  0  0  0  0  0  0  0  0  0  0  0
   -5.7224   21.3513  -32.1699 H   0  0  0  0  0  0  0  0  0  0  0  0
  1  2  1  0
  2  3  2  0
  3  4  1  0
  4  5  2  0
  5  6  1  0
  6  7  1  0
  7  8  1  0
  8  9  1  0
  8 10  1  0
 10 11  1  0
 11 12  2  0
 11 13  1  0
 13 14  1  0
 14 15  2  0
 15 16  1  0
 15 17  1  0
 17 18  2  0
 18 19  1  0
 19 20  2  0
 20 21  1  0
  6 22  2  0
 22  2  1  0
 20 14  1  0
  1 23  1  0
  1 24  1  0
  1 25  1  0
  3 26  1  0
  4 27  1  0
  5 28  1  0
  7 29  1  0
  7 30  1  0
  9 31  1  0
  9 32  1  0
  9 33  1  0
 10 34  1  0
 10 35  1  0
 17 36  1  0
 18 37  1  0
 19 38  1  0
 22 39  1  0
M  CHG  1  13  -1
M  END
>  <UniqueID>  (25) 
24

>  <SMILES>  (25) 
Cc1cccc(CN(C)CC(=O)[N-]c2c(F)cccc2F)c1

>  <Energy>  (25) 
40.64402726659239

>  <Genealogy>  (25) 
Cc1cccc(CN(C)CC(=O)[N-]c2c(F)cccc2F)c1 (protonated)
Cc1cccc(CN(C)CC(=O)[N-]c2c(F)cccc2F)c1 (3D coordinates assigned)
Cc1cccc(CN(C)CC(=O)[N-]c2c(F)cccc2F)c1 (optimized conformer: 40.64402726659239 kcal/mol)

>  <smiles>  (25) 
Cc1cccc(CN(C)CC(=O)Nc2c(F)cccc2F)c1

>  <score_type>  (25) 
oracle

>  <origin>  (25) 
adgpu

>  <m_score__min__energy>  (25) 
-9.6500000000000004

>  <m_primary>  (25) 
energy

$$$$
25:0
     RDKit          3D

 41 43  0  0  0  0  0  0  0  0999 V2000
   -1.0939   26.1241  -26.3971 H   0  0  0  0  0  0  0  0  0  0  0  0
   -1.2440   25.1100  -26.7960 C   0  0  0  0  0  0  0  0  0  0  0  0
   -1.1350   24.0070  -25.9470 C   0  0  0  0  0  0  0  0  0  0  0  0
   -0.8804   24.1541  -24.8870 H   0  0  0  0  0  0  0  0  0  0  0  0
   -1.3490   22.7130  -26.4410 C   0  0  0  0  0  0  0  0  0  0  0  0
   -1.1840   21.5260  -25.5390 C   0  0  0  0  0  0  0  0  0  0  0  0
   -1.2295   21.8536  -24.4899 H   0  0  0  0  0  0  0  0  0  0  0  0
   -1.9903   20.8033  -25.7328 H   0  0  0  0  0  0  0  0  0  0  0  0
   -0.2111   21.0506  -25.7328 H   0  0  0  0  0  0  0  0  0  0  0  0
   -1.6460   22.5330  -27.8000 C   0  0  0  0  0  0  0  0  0  0  0  0
   -1.8097   21.5179  -28.1909 H   0  0  0  0  0  0  0  0  0  0  0  0
   -1.7370   23.6370  -28.6700 C   0  0  0  0  0  0  0  0  0  0  0  0
   -2.0360   23.4270  -30.1080 C   0  0  0  0  0  0  0  0  0  0  0  0
   -1.2240   22.7780  -30.8200 O   0  0  0  0  0  0  0  0  0  0  0  0
   -3.1950   23.9930  -30.7360 N   0  0  0  0  0  0  0  0  0  0  0  0
   -4.5070   23.4130  -30.7740 C   0  0  0  0  0  0  0  0  0  0  0  0
   -4.6380   22.0530  -31.0810 C   0  0  0  0  0  0  0  0  0  0  0  0
   -3.7399   21.4440  -31.2618 H   0  0  0  0  0  0  0  0  0  0  0  0
   -5.9040   21.4650  -31.1590 C   0  0  0  0  0  0  0  0  0  0  0  0
   -5.9990   20.3982  -31.4100 H   0  0  0  0  0  0  0  0  0  0  0  0
   -7.0530   22.2320  -30.9180 C   0  0  0  0  0  0  0  0  0  0  0  0
   -8.6570   21.5270  -31.0820 S   0  0  0  0  0  0  0  0  0  0  0  0
   -9.2790   22.0210  -32.3560 O   0  0  0  0  0  0  0  0  0  0  0  0
   -9.5360   21.9180  -29.9270 O   0  0  0  0  0  0  0  0  0  0  0  0
   -8.5280   19.7970  -31.1410 N   0  0  0  0  0  0  0  0  0  0  0  0
   -7.8610   19.1430  -32.0430 C   0  0  0  0  0  0  0  0  0  0  0  0
   -7.7910   17.8000  -32.0670 N   0  0  0  0  0  0  0  0  0  0  0  0
   -7.0520   17.4870  -33.0920 O   0  0  0  0  0  0  0  0  0  0  0  0
   -6.6470   18.5620  -33.7290 C   0  0  0  0  0  0  0  0  0  0  0  0
   -5.7600   18.5480  -34.9290 C   0  0  0  0  0  0  0  0  0  0  0  0
   -4.7082   18.5314  -34.6073 H   0  0  0  0  0  0  0  0  0  0  0  0
   -5.9732   17.6531  -35.5321 H   0  0  0  0  0  0  0  0  0  0  0  0
   -5.9448   19.4492  -35.5321 H   0  0  0  0  0  0  0  0  0  0  0  0
   -7.1370   19.6810  -33.0920 C   0  0  0  0  0  0  0  0  0  0  0  0
   -6.9893   20.7394  -33.3527 H   0  0  0  0  0  0  0  0  0  0  0  0
   -6.9220   23.5810  -30.5690 C   0  0  0  0  0  0  0  0  0  0  0  0
   -7.8191   24.1817  -30.3583 H   0  0  0  0  0  0  0  0  0  0  0  0
   -5.6570   24.1680  -30.4870 C   0  0  0  0  0  0  0  0  0  0  0  0
   -5.5608   25.2247  -30.1968 H   0  0  0  0  0  0  0  0  0  0  0  0
   -1.5430   24.9330  -28.1510 C   0  0  0  0  0  0  0  0  0  0  0  0
   -1.6220   26.0500  -28.9750 O   0  0  0  0  0  0  0  0  0  0  0  0
  1  2  1  0
  2  3  2  0
  3  4  1  0
  3  5  1  0
  5  6  1  0
  6  7  1  0
  6  8  1  0
  6  9  1  0
  5 10  2  0
 10 11  1  0
 10 12  1  0
 12 13  1  0
 13 14  2  0
 13 15  1  0
 15 16  1  0
 16 17  2  0
 17 18  1  0
 17 19  1  0
 19 20  1  0
 19 21  2  0
 21 22  1  0
 22 23  2  0
 22 24  2  0
 22 25  1  0
 25 26  2  0
 26 27  1  0
 27 28  1  0
 28 29  1  0
 29 30  1  0
 30 31  1  0
 30 32  1  0
 30 33  1  0
 29 34  2  0
 34 35  1  0
 21 36  1  0
 36 37  1  0
 36 38  2  0
 38 39  1  0
 12 40  2  0
 40 41  1  0
 40  2  1  0
 38 16  1  0
 34 26  1  0
M  CHG  3  15  -1  27  -1  41  -1
M  END
>  <UniqueID>  (26) 
25

>  <SMILES>  (26) 
Cc1ccc([O-])c(C(=O)[N-]c2ccc(S(=O)(=O)/N=c3\cc(C)o[n-]3)cc2)c1

>  <Energy>  (26) 
81.64242426156481

>  <Genealogy>  (26) 
Cc1ccc([O-])c(C(=O)[N-]c2ccc(S(=O)(=O)N=c3cc(C)o[n-]3)cc2)c1 (protonated)
Cc1ccc([O-])c(C(=O)[N-]c2ccc(S(=O)(=O)/N=c3\cc(C)o[n-]3)cc2)c1 (cis-trans isomerization)
Cc1ccc([O-])c(C(=O)[N-]c2ccc(S(=O)(=O)/N=c3\cc(C)o[n-]3)cc2)c1 (3D coordinates assigned)
Cc1ccc([O-])c(C(=O)[N-]c2ccc(S(=O)(=O)/N=c3\cc(C)o[n-]3)cc2)c1 (optimized conformer: 81.64242426156481 kcal/mol)

>  <smiles>  (26) 
Cc1ccc(O)c(C(=O)Nc2ccc(S(=O)(=O)N=c3cc(C)o[nH]3)cc2)c1

>  <score_type>  (26) 
oracle

>  <origin>  (26) 
adgpu

>  <m_score__min__energy>  (26) 
-12.880000000000001

>  <m_primary>  (26) 
energy

$$$$
26:0
     RDKit          3D

 32 34  0  0  0  0  0  0  0  0999 V2000
   -3.5310   24.9400  -30.3500 O   0  0  0  0  0  0  0  0  0  0  0  0
   -4.0590   23.9050  -30.8390 C   0  0  0  0  0  0  0  0  0  0  0  0
   -5.4630   23.8870  -31.0490 N   0  0  0  0  0  0  0  0  0  0  0  0
   -6.1500   22.5430  -31.8620 S   0  0  0  0  0  0  0  0  0  0  0  0
   -6.6470   21.5350  -30.8640 O   0  0  0  0  0  0  0  0  0  0  0  0
   -7.2880   23.0320  -32.7160 O   0  0  0  0  0  0  0  0  0  0  0  0
   -4.8780   21.8630  -32.8470 N   0  0  2  0  0  0  0  0  0  0  0  0
   -5.3530   20.6420  -33.5500 C   0  0  0  0  0  0  0  0  0  0  0  0
   -6.4560   19.9170  -32.8120 C   0  0  0  0  0  0  0  0  0  0  0  0
   -7.8010   20.2630  -33.0290 C   0  0  0  0  0  0  0  0  0  0  0  0
   -8.8200   19.5960  -32.3440 C   0  0  0  0  0  0  0  0  0  0  0  0
   -8.5070   18.5760  -31.4420 C   0  0  0  0  0  0  0  0  0  0  0  0
   -7.1730   18.2190  -31.2250 C   0  0  0  0  0  0  0  0  0  0  0  0
   -6.1510   18.8840  -31.9070 C   0  0  0  0  0  0  0  0  0  0  0  0
   -3.6870   21.6660  -32.0080 C   0  0  0  0  0  0  0  0  0  0  0  0
   -2.8640   20.5100  -32.1290 C   0  0  0  0  0  0  0  0  0  0  0  0
   -1.6590   20.3990  -31.4360 C   0  0  0  0  0  0  0  0  0  0  0  0
   -1.2240   21.4300  -30.6150 C   0  0  0  0  0  0  0  0  0  0  0  0
   -2.0020   22.5720  -30.4620 C   0  0  0  0  0  0  0  0  0  0  0  0
   -3.2320   22.7060  -31.1320 C   0  0  0  0  0  0  0  0  0  0  0  0
   -4.6250   22.5790  -33.5660 H   0  0  0  0  0  0  0  0  0  0  0  0
   -5.7298   20.9343  -34.5412 H   0  0  0  0  0  0  0  0  0  0  0  0
   -4.4987   19.9523  -33.6178 H   0  0  0  0  0  0  0  0  0  0  0  0
   -8.0525   21.0625  -33.7414 H   0  0  0  0  0  0  0  0  0  0  0  0
   -9.8703   19.8744  -32.5152 H   0  0  0  0  0  0  0  0  0  0  0  0
   -9.3107   18.0536  -30.9023 H   0  0  0  0  0  0  0  0  0  0  0  0
   -6.9278   17.4139  -30.5167 H   0  0  0  0  0  0  0  0  0  0  0  0
   -5.1026   18.5985  -31.7355 H   0  0  0  0  0  0  0  0  0  0  0  0
   -3.1859   19.6866  -32.7835 H   0  0  0  0  0  0  0  0  0  0  0  0
   -1.0498   19.4891  -31.5406 H   0  0  0  0  0  0  0  0  0  0  0  0
   -0.2638   21.3436  -30.0854 H   0  0  0  0  0  0  0  0  0  0  0  0
   -1.6507   23.3831  -29.8072 H   0  0  0  0  0  0  0  0  0  0  0  0
  1  2  2  0
  2  3  1  0
  3  4  1  0
  4  5  2  0
  4  6  2  0
  4  7  1  0
  7  8  1  0
  8  9  1  0
  9 10  2  0
 10 11  1  0
 11 12  2  0
 12 13  1  0
 13 14  2  0
  7 15  1  0
 15 16  2  0
 16 17  1  0
 17 18  2  0
 18 19  1  0
 19 20  2  0
 20  2  1  0
 14  9  1  0
 20 15  1  0
  7 21  1  6
  8 22  1  0
  8 23  1  0
 10 24  1  0
 11 25  1  0
 12 26  1  0
 13 27  1  0
 14 28  1  0
 16 29  1  0
 17 30  1  0
 18 31  1  0
 19 32  1  0
M  CHG  2   3  -1   7   1
M  END
>  <UniqueID>  (27) 
26

>  <SMILES>  (27) 
O=C1[N-]S(=O)(=O)[N@H+](Cc2ccccc2)c2ccccc21

>  <Energy>  (27) 
50.476773821054074

>  <Genealogy>  (27) 
O=C1[N-]S(=O)(=O)[NH+](Cc2ccccc2)c2ccccc21 (protonated)
O=C1[N-]S(=O)(=O)[N@H+](Cc2ccccc2)c2ccccc21 (chirality)
O=C1[N-]S(=O)(=O)[N@H+](Cc2ccccc2)c2ccccc21 (3D coordinates assigned)
O=C1[N-]S(=O)(=O)[N@H+](Cc2ccccc2)c2ccccc21 (nonaromatic ring conformer: 50.476773821054074 kcal/mol)

>  <smiles>  (27) 
O=C1NS(=O)(=O)N(Cc2ccccc2)c2ccccc21

>  <score_type>  (27) 
oracle

>  <origin>  (27) 
adgpu

>  <m_score__min__energy>  (27) 
-8.1600000000000001

>  <m_primary>  (27) 
energy

$$$$
27:0
     RDKit          3D

 46 48  0  0  0  0  0  0  0  0999 V2000
   -0.2200   16.2990  -26.7410 H   0  0  0  0  0  0  0  0  0  0  0  0
    0.6260   15.7880  -27.0840 N   0  0  0  0  0  0  0  0  0  0  0  0
    1.6550   16.9590  -27.8270 S   0  0  0  0  0  0  0  0  0  0  0  0
    2.6040   17.5180  -26.8030 O   0  0  0  0  0  0  0  0  0  0  0  0
    2.4550   16.3050  -28.9220 O   0  0  0  0  0  0  0  0  0  0  0  0
    0.6730   18.2550  -28.5020 C   0  0  0  0  0  0  0  0  0  0  0  0
    0.8750   18.6790  -29.8230 C   0  0  0  0  0  0  0  0  0  0  0  0
    1.6436   18.1946  -30.4432 H   0  0  0  0  0  0  0  0  0  0  0  0
    0.1020   19.7160  -30.3540 C   0  0  0  0  0  0  0  0  0  0  0  0
    0.2479   20.0277  -31.3988 H   0  0  0  0  0  0  0  0  0  0  0  0
   -0.8560   20.3590  -29.5630 C   0  0  0  0  0  0  0  0  0  0  0  0
   -1.6790   21.3800  -30.1450 N   0  0  0  0  0  0  0  0  0  0  0  0
   -1.7710   22.6470  -29.8340 C   0  0  0  0  0  0  0  0  0  0  0  0
   -2.8560   23.3550  -30.3690 C   0  0  0  0  0  0  0  0  0  0  0  0
   -3.5191   22.8691  -31.0999 H   0  0  0  0  0  0  0  0  0  0  0  0
   -3.1010   24.6790  -29.9780 C   0  0  0  0  0  0  0  0  0  0  0  0
   -4.2130   25.4260  -30.4890 N   0  0  0  0  0  0  0  0  0  0  0  0
   -5.4640   24.8860  -30.9360 C   0  0  0  0  0  0  0  0  0  0  0  0
   -6.5490   25.3500  -30.4980 O   0  0  0  0  0  0  0  0  0  0  0  0
   -5.5000   23.8950  -31.9680 N   0  0  0  0  0  0  0  0  0  0  0  0
   -6.4320   22.8100  -32.0650 C   0  0  0  0  0  0  0  0  0  0  0  0
   -7.7910   22.9690  -31.7410 C   0  0  0  0  0  0  0  0  0  0  0  0
   -8.1617   23.9432  -31.3895 H   0  0  0  0  0  0  0  0  0  0  0  0
   -8.6710   21.8910  -31.8650 C   0  0  0  0  0  0  0  0  0  0  0  0
   -9.7308   22.0152  -31.5978 H   0  0  0  0  0  0  0  0  0  0  0  0
   -8.2100   20.6560  -32.3270 C   0  0  0  0  0  0  0  0  0  0  0  0
   -8.9082   19.8106  -32.4153 H   0  0  0  0  0  0  0  0  0  0  0  0
   -6.8670   20.4870  -32.6780 C   0  0  0  0  0  0  0  0  0  0  0  0
   -6.4540   19.2300  -33.1470 O   0  0  0  0  0  0  0  0  0  0  0  0
   -7.0440   17.9940  -32.7600 C   0  0  0  0  0  0  0  0  0  0  0  0
   -7.0745   17.9301  -31.6623 H   0  0  0  0  0  0  0  0  0  0  0  0
   -8.0673   17.9352  -33.1593 H   0  0  0  0  0  0  0  0  0  0  0  0
   -6.4462   17.1614  -33.1593 H   0  0  0  0  0  0  0  0  0  0  0  0
   -5.9810   21.5760  -32.5530 C   0  0  0  0  0  0  0  0  0  0  0  0
   -4.9261   21.4563  -32.8410 H   0  0  0  0  0  0  0  0  0  0  0  0
   -2.2430   25.2920  -29.1230 N   0  0  0  0  0  0  0  0  0  0  0  0
   -1.1510   24.6610  -28.6230 C   0  0  0  0  0  0  0  0  0  0  0  0
   -0.4874   25.1928  -27.9253 H   0  0  0  0  0  0  0  0  0  0  0  0
   -0.8590   23.3380  -28.9860 C   0  0  0  0  0  0  0  0  0  0  0  0
    0.4190   22.8060  -28.6140 N   0  0  0  0  0  0  0  0  0  0  0  0
    1.1680   23.4380  -28.2570 H   0  0  0  0  0  0  0  0  0  0  0  0
    0.7070   21.8430  -28.8940 H   0  0  0  0  0  0  0  0  0  0  0  0
   -1.0790   19.9140  -28.2500 C   0  0  0  0  0  0  0  0  0  0  0  0
   -1.8635   20.3830  -27.6379 H   0  0  0  0  0  0  0  0  0  0  0  0
   -0.3080   18.8780  -27.7190 C   0  0  0  0  0  0  0  0  0  0  0  0
   -0.4713   18.5496  -26.6819 H   0  0  0  0  0  0  0  0  0  0  0  0
  1  2  1  0
  2  3  1  0
  3  4  2  0
  3  5  2  0
  3  6  1  0
  6  7  2  0
  7  8  1  0
  7  9  1  0
  9 10  1  0
  9 11  2  0
 11 12  1  0
 12 13  2  0
 13 14  1  0
 14 15  1  0
 14 16  2  0
 16 17  1  0
 17 18  1  0
 18 19  2  0
 18 20  1  0
 20 21  1  0
 21 22  2  0
 22 23  1  0
 22 24  1  0
 24 25  1  0
 24 26  2  0
 26 27  1  0
 26 28  1  0
 28 29  1  0
 29 30  1  0
 30 31  1  0
 30 32  1  0
 30 33  1  0
 28 34  2  0
 34 35  1  0
 16 36  1  0
 36 37  1  0
 37 38  1  0
 37 39  2  0
 39 40  1  0
 40 41  1  0
 40 42  1  0
 11 43  1  0
 43 44  1  0
 43 45  2  0
 45 46  1  0
 45  6  1  0
 39 13  1  0
 34 21  1  0
M  CHG  4   2  -1  17  -1  20  -1  36  -1
M  END
>  <UniqueID>  (28) 
27

>  <SMILES>  (28) 
COc1cccc([N-]C(=O)[N-]c2c/c(=N/c3ccc(S([NH-])(=O)=O)cc3)c(N)c[n-]2)c1

>  <Energy>  (28) 
72.25881273316888

>  <Genealogy>  (28) 
COc1cccc([N-]C(=O)[N-]c2cc(=Nc3ccc(S([NH-])(=O)=O)cc3)c(N)c[n-]2)c1 (protonated)
COc1cccc([N-]C(=O)[N-]c2c/c(=N/c3ccc(S([NH-])(=O)=O)cc3)c(N)c[n-]2)c1 (cis-trans isomerization)
COc1cccc([N-]C(=O)[N-]c2c/c(=N/c3ccc(S([NH-])(=O)=O)cc3)c(N)c[n-]2)c1 (3D coordinates assigned)
COc1cccc([N-]C(=O)[N-]c2c/c(=N/c3ccc(S([NH-])(=O)=O)cc3)c(N)c[n-]2)c1 (optimized conformer: 72.25881273316888 kcal/mol)

>  <smiles>  (28) 
COc1cccc(NC(=O)Nc2cc(=Nc3ccc(S(N)(=O)=O)cc3)c(N)c[nH]2)c1

>  <score_type>  (28) 
oracle

>  <origin>  (28) 
adgpu

>  <m_score__min__energy>  (28) 
-11.25

>  <m_primary>  (28) 
energy

$$$$
28:0
     RDKit          3D

 31 33  0  0  0  0  0  0  0  0999 V2000
   -5.0430   22.2850  -27.7720 H   0  0  0  0  0  0  0  0  0  0  0  0
   -4.1360   21.8980  -27.5430 O   0  0  0  0  0  0  0  0  0  0  0  0
   -2.9380   22.5330  -27.8750 C   0  0  0  0  0  0  0  0  0  0  0  0
   -1.7340   21.8750  -27.5940 C   0  0  0  0  0  0  0  0  0  0  0  0
   -1.7519   20.8764  -27.1331 H   0  0  0  0  0  0  0  0  0  0  0  0
   -0.5110   22.4780  -27.8950 C   0  0  0  0  0  0  0  0  0  0  0  0
    0.6780   21.8170  -27.6110 O   0  0  0  0  0  0  0  0  0  0  0  0
   -0.4820   23.7480  -28.4760 C   0  0  0  0  0  0  0  0  0  0  0  0
    0.4829   24.2235  -28.7062 H   0  0  0  0  0  0  0  0  0  0  0  0
   -1.6750   24.4170  -28.7660 C   0  0  0  0  0  0  0  0  0  0  0  0
   -1.6240   25.6820  -29.3430 O   0  0  0  0  0  0  0  0  0  0  0  0
   -2.9120   23.8090  -28.4830 C   0  0  0  0  0  0  0  0  0  0  0  0
   -4.1560   24.5350  -28.7840 C   0  0  0  0  0  0  0  0  0  0  0  0
   -4.3657   25.4576  -28.2229 H   0  0  0  0  0  0  0  0  0  0  0  0
   -5.0490   24.1380  -29.7020 C   0  0  0  0  0  0  0  0  0  0  0  0
   -6.3360   24.7810  -29.9700 C   0  0  0  0  0  0  0  0  0  0  0  0
   -6.7630   25.8120  -29.3890 O   0  0  0  0  0  0  0  0  0  0  0  0
   -7.0800   24.0920  -30.9730 N   0  0  0  0  0  0  0  0  0  0  0  0
   -6.2200   23.0150  -31.3370 C   0  0  0  0  0  0  0  0  0  0  0  0
   -6.4970   22.0630  -32.3170 C   0  0  0  0  0  0  0  0  0  0  0  0
   -7.4553   22.0771  -32.8568 H   0  0  0  0  0  0  0  0  0  0  0  0
   -5.5270   21.0830  -32.6030 C   0  0  0  0  0  0  0  0  0  0  0  0
   -5.8090   20.0200  -33.6220 C   0  0  0  0  0  0  0  0  0  0  0  0
   -6.0587   19.0787  -33.1105 H   0  0  0  0  0  0  0  0  0  0  0  0
   -6.6557   20.3310  -34.2516 H   0  0  0  0  0  0  0  0  0  0  0  0
   -4.9195   19.8704  -34.2516 H   0  0  0  0  0  0  0  0  0  0  0  0
   -4.3090   21.0730  -31.8880 C   0  0  0  0  0  0  0  0  0  0  0  0
   -3.5595   20.2964  -32.1004 H   0  0  0  0  0  0  0  0  0  0  0  0
   -4.0450   22.0440  -30.9090 C   0  0  0  0  0  0  0  0  0  0  0  0
   -3.0864   22.0515  -30.3695 H   0  0  0  0  0  0  0  0  0  0  0  0
   -5.0270   23.0020  -30.6340 C   0  0  0  0  0  0  0  0  0  0  0  0
  1  2  1  0
  2  3  1  0
  3  4  2  0
  4  5  1  0
  4  6  1  0
  6  7  1  0
  6  8  2  0
  8  9  1  0
  8 10  1  0
 10 11  1  0
 10 12  2  0
 12 13  1  0
 13 14  1  0
 13 15  2  0
 15 16  1  0
 16 17  2  0
 16 18  1  0
 18 19  1  0
 19 20  2  0
 20 21  1  0
 20 22  1  0
 22 23  1  0
 23 24  1  0
 23 25  1  0
 23 26  1  0
 22 27  2  0
 27 28  1  0
 27 29  1  0
 29 30  1  0
 29 31  2  0
 12  3  1  0
 31 15  1  0
 31 19  1  0
M  CHG  3   7  -1  11  -1  18  -1
M  END
>  <UniqueID>  (29) 
28

>  <SMILES>  (29) 
Cc1ccc2c(c1)[N-]C(=O)/C2=C/c1c([O-])cc([O-])cc1O

>  <Energy>  (29) 
71.53254585855801

>  <Genealogy>  (29) 
Cc1ccc2c(c1)[N-]C(=O)C2=Cc1c([O-])cc([O-])cc1O (protonated)
Cc1ccc2c(c1)[N-]C(=O)/C2=C/c1c([O-])cc([O-])cc1O (cis-trans isomerization)
Cc1ccc2c(c1)[N-]C(=O)/C2=C/c1c([O-])cc([O-])cc1O (3D coordinates assigned)
Cc1ccc2c(c1)[N-]C(=O)/C2=C/c1c([O-])cc([O-])cc1O (nonaromatic ring conformer: 71.53254585855801 kcal/mol)

>  <smiles>  (29) 
Cc1ccc2c(c1)NC(=O)C2=Cc1c(O)cc(O)cc1O

>  <score_type>  (29) 
oracle

>  <origin>  (29) 
adgpu

>  <m_score__min__energy>  (29) 
-9.7300000000000004

>  <m_primary>  (29) 
energy

$$$$
29:0
     RDKit          3D

 36 37  0  0  0  0  0  0  0  0999 V2000
   -1.2320   26.1140  -27.9810 C   0  0  0  0  0  0  0  0  0  0  0  0
   -1.8630   25.2930  -28.9590 O   0  0  0  0  0  0  0  0  0  0  0  0
   -1.7920   23.8890  -28.9820 C   0  0  0  0  0  0  0  0  0  0  0  0
   -0.6060   23.2130  -29.3320 C   0  0  0  0  0  0  0  0  0  0  0  0
   -0.5500   21.8170  -29.2980 C   0  0  0  0  0  0  0  0  0  0  0  0
   -1.6690   21.0800  -28.9090 C   0  0  0  0  0  0  0  0  0  0  0  0
   -2.8540   21.7350  -28.5710 C   0  0  0  0  0  0  0  0  0  0  0  0
   -2.9360   23.1350  -28.6310 C   0  0  0  0  0  0  0  0  0  0  0  0
   -4.2030   23.7840  -28.2350 C   0  0  0  0  0  0  0  0  0  0  0  0
   -4.9610   24.5520  -29.0330 C   0  0  0  0  0  0  0  0  0  0  0  0
   -4.7240   24.7740  -30.4790 C   0  0  0  0  0  0  0  0  0  0  0  0
   -3.9080   25.6540  -30.8590 O   0  0  0  0  0  0  0  0  0  0  0  0
   -5.3650   23.9660  -31.4730 N   0  0  0  0  0  0  0  0  0  0  0  0
   -6.8010   23.0300  -31.2100 S   0  0  0  0  0  0  0  0  0  0  0  0
   -6.9560   22.7650  -29.7390 O   0  0  0  0  0  0  0  0  0  0  0  0
   -8.0010   23.8050  -31.6840 O   0  0  0  0  0  0  0  0  0  0  0  0
   -6.6750   21.4880  -32.0570 C   0  0  0  0  0  0  0  0  0  0  0  0
   -5.4710   21.1140  -32.6750 C   0  0  0  0  0  0  0  0  0  0  0  0
   -5.3660   19.8800  -33.3250 C   0  0  0  0  0  0  0  0  0  0  0  0
   -6.4640   19.0150  -33.3650 C   0  0  0  0  0  0  0  0  0  0  0  0
   -7.6660   19.3840  -32.7570 C   0  0  0  0  0  0  0  0  0  0  0  0
   -7.7750   20.6150  -32.1020 C   0  0  0  0  0  0  0  0  0  0  0  0
   -8.9470   20.9520  -31.5070 F   0  0  0  0  0  0  0  0  0  0  0  0
   -1.5035   25.7607  -26.9753 H   0  0  0  0  0  0  0  0  0  0  0  0
   -0.1405   26.0603  -28.1062 H   0  0  0  0  0  0  0  0  0  0  0  0
   -1.5647   27.1550  -28.1062 H   0  0  0  0  0  0  0  0  0  0  0  0
    0.2817   23.7881  -29.6340 H   0  0  0  0  0  0  0  0  0  0  0  0
    0.3784   21.2981  -29.5786 H   0  0  0  0  0  0  0  0  0  0  0  0
   -1.6171   19.9820  -28.8687 H   0  0  0  0  0  0  0  0  0  0  0  0
   -3.7303   21.1498  -28.2552 H   0  0  0  0  0  0  0  0  0  0  0  0
   -4.5527   23.6251  -27.2043 H   0  0  0  0  0  0  0  0  0  0  0  0
   -5.8262   25.0564  -28.5780 H   0  0  0  0  0  0  0  0  0  0  0  0
   -4.6069   21.7942  -32.6479 H   0  0  0  0  0  0  0  0  0  0  0  0
   -4.4196   19.5899  -33.8048 H   0  0  0  0  0  0  0  0  0  0  0  0
   -6.3810   18.0440  -33.8753 H   0  0  0  0  0  0  0  0  0  0  0  0
   -8.5300   18.7041  -32.7934 H   0  0  0  0  0  0  0  0  0  0  0  0
  1  2  1  0
  2  3  1  0
  3  4  2  0
  4  5  1  0
  5  6  2  0
  6  7  1  0
  7  8  2  0
  8  9  1  0
  9 10  2  3
 10 11  1  0
 11 12  2  0
 11 13  1  0
 13 14  1  0
 14 15  2  0
 14 16  2  0
 14 17  1  0
 17 18  2  0
 18 19  1  0
 19 20  2  0
 20 21  1  0
 21 22  2  0
 22 23  1  0
  8  3  1  0
 22 17  1  0
  1 24  1  0
  1 25  1  0
  1 26  1  0
  4 27  1  0
  5 28  1  0
  6 29  1  0
  7 30  1  0
  9 31  1  0
 10 32  1  0
 18 33  1  0
 19 34  1  0
 20 35  1  0
 21 36  1  0
M  CHG  1  13  -1
M  END
>  <UniqueID>  (30) 
29

>  <SMILES>  (30) 
COc1ccccc1C=CC(=O)[N-]S(=O)(=O)c1ccccc1F

>  <Energy>  (30) 
45.8495653845881

>  <Genealogy>  (30) 
COc1ccccc1C=CC(=O)[N-]S(=O)(=O)c1ccccc1F (protonated)
COc1ccccc1C=CC(=O)[N-]S(=O)(=O)c1ccccc1F (3D coordinates assigned)
COc1ccccc1C=CC(=O)[N-]S(=O)(=O)c1ccccc1F (optimized conformer: 45.8495653845881 kcal/mol)

>  <smiles>  (30) 
COc1ccccc1C=CC(=O)NS(=O)(=O)c1ccccc1F

>  <score_type>  (30) 
oracle

>  <origin>  (30) 
adgpu

>  <m_score__min__energy>  (30) 
-9.4700000000000006

>  <m_primary>  (30) 
energy

$$$$
30:0
     RDKit          3D

 47 48  0  0  0  0  0  0  0  0999 V2000
    0.9690   17.5540  -27.8530 C   0  0  0  0  0  0  0  0  0  0  0  0
   -0.2320   17.9840  -28.4830 O   0  0  0  0  0  0  0  0  0  0  0  0
   -0.6710   19.3150  -28.5240 C   0  0  0  0  0  0  0  0  0  0  0  0
   -1.6360   19.7250  -27.5980 C   0  0  0  0  0  0  0  0  0  0  0  0
   -2.1120   21.0390  -27.6010 C   0  0  0  0  0  0  0  0  0  0  0  0
   -1.6240   21.9670  -28.5330 C   0  0  0  0  0  0  0  0  0  0  0  0
   -2.1690   23.3000  -28.5830 N   0  0  0  0  0  0  0  0  0  0  0  0
   -3.5700   23.5150  -28.9630 C   0  0  0  0  0  0  0  0  0  0  0  0
   -3.6510   24.0880  -30.3430 C   0  0  0  0  0  0  0  0  0  0  0  0
   -3.8390   25.3260  -30.4940 O   0  0  0  0  0  0  0  0  0  0  0  0
   -3.6510   23.2030  -31.4700 N   0  0  0  0  0  0  0  0  0  0  0  0
   -4.7440   22.3720  -31.8810 C   0  0  0  0  0  0  0  0  0  0  0  0
   -6.0160   22.6510  -31.3660 C   0  0  0  0  0  0  0  0  0  0  0  0
   -7.1230   21.8730  -31.7300 C   0  0  0  0  0  0  0  0  0  0  0  0
   -8.4920   22.2280  -31.2300 C   0  0  0  0  0  0  0  0  0  0  0  0
   -6.9510   20.8110  -32.6280 C   0  0  0  0  0  0  0  0  0  0  0  0
   -5.6810   20.5020  -33.1220 C   0  0  0  0  0  0  0  0  0  0  0  0
   -4.5610   21.2680  -32.7410 C   0  0  0  0  0  0  0  0  0  0  0  0
   -3.2660   20.9450  -33.1790 O   0  0  0  0  0  0  0  0  0  0  0  0
   -2.2200   20.4750  -32.3370 C   0  0  0  0  0  0  0  0  0  0  0  0
   -1.2010   24.6590  -28.0920 S   0  0  0  0  0  0  0  0  0  0  0  0
   -1.5280   25.0640  -26.3900 C   0  0  0  0  0  0  0  0  0  0  0  0
   -1.5390   25.8610  -28.9310 O   0  0  0  0  0  0  0  0  0  0  0  0
    0.2550   24.3290  -28.2700 O   0  0  0  0  0  0  0  0  0  0  0  0
   -0.6540   21.5600  -29.4630 C   0  0  0  0  0  0  0  0  0  0  0  0
   -0.1780   20.2450  -29.4590 C   0  0  0  0  0  0  0  0  0  0  0  0
    0.8462   17.5980  -26.7608 H   0  0  0  0  0  0  0  0  0  0  0  0
    1.1920   16.5202  -28.1556 H   0  0  0  0  0  0  0  0  0  0  0  0
    1.7974   18.2114  -28.1556 H   0  0  0  0  0  0  0  0  0  0  0  0
   -2.0237   19.0066  -26.8607 H   0  0  0  0  0  0  0  0  0  0  0  0
   -2.8731   21.3471  -26.8690 H   0  0  0  0  0  0  0  0  0  0  0  0
   -4.1047   22.5541  -28.9370 H   0  0  0  0  0  0  0  0  0  0  0  0
   -4.0289   24.2205  -28.2548 H   0  0  0  0  0  0  0  0  0  0  0  0
   -6.1476   23.4906  -30.6676 H   0  0  0  0  0  0  0  0  0  0  0  0
   -8.4920   22.2280  -30.1300 H   0  0  0  0  0  0  0  0  0  0  0  0
   -8.7685   23.2276  -31.5967 H   0  0  0  0  0  0  0  0  0  0  0  0
   -9.2194   21.4888  -31.5967 H   0  0  0  0  0  0  0  0  0  0  0  0
   -7.8208   20.2173  -32.9458 H   0  0  0  0  0  0  0  0  0  0  0  0
   -5.5545   19.6553  -33.8128 H   0  0  0  0  0  0  0  0  0  0  0  0
   -2.5103   20.6054  -31.2840 H   0  0  0  0  0  0  0  0  0  0  0  0
   -2.0386   19.4088  -32.5380 H   0  0  0  0  0  0  0  0  0  0  0  0
   -1.3024   21.0473  -32.5380 H   0  0  0  0  0  0  0  0  0  0  0  0
   -0.9723   24.3758  -25.7361 H   0  0  0  0  0  0  0  0  0  0  0  0
   -1.2081   26.0975  -26.1910 H   0  0  0  0  0  0  0  0  0  0  0  0
   -2.6057   24.9690  -26.1910 H   0  0  0  0  0  0  0  0  0  0  0  0
   -0.2662   22.2797  -30.1990 H   0  0  0  0  0  0  0  0  0  0  0  0
    0.5845   19.9361  -30.1892 H   0  0  0  0  0  0  0  0  0  0  0  0
  1  2  1  0
  2  3  1  0
  3  4  2  0
  4  5  1  0
  5  6  2  0
  6  7  1  0
  7  8  1  0
  8  9  1  0
  9 10  2  0
  9 11  1  0
 11 12  1  0
 12 13  2  0
 13 14  1  0
 14 15  1  0
 14 16  2  0
 16 17  1  0
 17 18  2  0
 18 19  1  0
 19 20  1  0
  7 21  1  0
 21 22  1  0
 21 23  2  0
 21 24  2  0
  6 25  1  0
 25 26  2  0
 26  3  1  0
 18 12  1  0
  1 27  1  0
  1 28  1  0
  1 29  1  0
  4 30  1  0
  5 31  1  0
  8 32  1  0
  8 33  1  0
 13 34  1  0
 15 35  1  0
 15 36  1  0
 15 37  1  0
 16 38  1  0
 17 39  1  0
 20 40  1  0
 20 41  1  0
 20 42  1  0
 22 43  1  0
 22 44  1  0
 22 45  1  0
 25 46  1  0
 26 47  1  0
M  CHG  1  11  -1
M  END
>  <UniqueID>  (31) 
30

>  <SMILES>  (31) 
COc1ccc(N(CC(=O)[N-]c2cc(C)ccc2OC)S(C)(=O)=O)cc1

>  <Energy>  (31) 
49.004207617336064

>  <Genealogy>  (31) 
COc1ccc(N(CC(=O)[N-]c2cc(C)ccc2OC)S(C)(=O)=O)cc1 (protonated)
COc1ccc(N(CC(=O)[N-]c2cc(C)ccc2OC)S(C)(=O)=O)cc1 (3D coordinates assigned)
COc1ccc(N(CC(=O)[N-]c2cc(C)ccc2OC)S(C)(=O)=O)cc1 (optimized conformer: 49.004207617336064 kcal/mol)

>  <smiles>  (31) 
COc1ccc(N(CC(=O)Nc2cc(C)ccc2OC)S(C)(=O)=O)cc1

>  <score_type>  (31) 
oracle

>  <origin>  (31) 
adgpu

>  <m_score__min__energy>  (31) 
-9.2899999999999991

>  <m_primary>  (31) 
energy

$$$$
31:0
     RDKit          3D

 47 50  0  0  0  0  0  0  0  0999 V2000
   -9.6816   20.5496  -30.6930 H   0  0  0  0  0  0  0  0  0  0  0  0
   -8.8100   21.1350  -31.0210 C   0  0  0  0  0  0  0  0  0  0  0  0
   -8.2180   20.8610  -32.2130 N   0  0  0  0  0  0  0  0  0  0  0  0
   -7.1420   21.5670  -32.6570 C   0  0  0  0  0  0  0  0  0  0  0  0
   -6.6807   21.3145  -33.6232 H   0  0  0  0  0  0  0  0  0  0  0  0
   -6.6200   22.6160  -31.8850 C   0  0  0  0  0  0  0  0  0  0  0  0
   -5.4100   23.3750  -32.3460 C   0  0  0  0  0  0  0  0  0  0  0  0
   -5.7110   24.1434  -33.0733 H   0  0  0  0  0  0  0  0  0  0  0  0
   -4.6978   22.6864  -32.8242 H   0  0  0  0  0  0  0  0  0  0  0  0
   -4.7830   24.0120  -31.1910 N   0  0  0  0  0  0  0  0  0  0  0  0
   -3.7580   23.6400  -30.4670 C   0  0  0  0  0  0  0  0  0  0  0  0
   -3.0010   22.4540  -30.6840 C   0  0  0  0  0  0  0  0  0  0  0  0
   -3.2640   21.4630  -31.7360 C   0  0  0  0  0  0  0  0  0  0  0  0
   -2.4840   21.4540  -32.9040 C   0  0  0  0  0  0  0  0  0  0  0  0
   -1.7000   22.2121  -33.0475 H   0  0  0  0  0  0  0  0  0  0  0  0
   -2.7040   20.4810  -33.8850 C   0  0  0  0  0  0  0  0  0  0  0  0
   -2.1050   20.4857  -34.8076 H   0  0  0  0  0  0  0  0  0  0  0  0
   -3.6840   19.5030  -33.6940 C   0  0  0  0  0  0  0  0  0  0  0  0
   -3.8589   18.7418  -34.4686 H   0  0  0  0  0  0  0  0  0  0  0  0
   -4.4420   19.4910  -32.5200 C   0  0  0  0  0  0  0  0  0  0  0  0
   -5.2100   18.7180  -32.3697 H   0  0  0  0  0  0  0  0  0  0  0  0
   -4.2250   20.4610  -31.5360 C   0  0  0  0  0  0  0  0  0  0  0  0
   -4.8088   20.4381  -30.6040 H   0  0  0  0  0  0  0  0  0  0  0  0
   -1.9500   22.2050  -29.8610 N   0  0  0  0  0  0  0  0  0  0  0  0
   -1.6220   23.0270  -28.8690 N   0  0  0  0  0  0  0  0  0  0  0  0
   -2.3340   24.1560  -28.6300 C   0  0  0  0  0  0  0  0  0  0  0  0
   -1.9380   25.0460  -27.5100 C   0  0  0  0  0  0  0  0  0  0  0  0
   -2.7240   25.1020  -26.3450 C   0  0  0  0  0  0  0  0  0  0  0  0
   -3.6282   24.4804  -26.2674 H   0  0  0  0  0  0  0  0  0  0  0  0
   -2.3670   25.9400  -25.2850 C   0  0  0  0  0  0  0  0  0  0  0  0
   -2.9864   25.9677  -24.3764 H   0  0  0  0  0  0  0  0  0  0  0  0
   -1.2180   26.7490  -25.3750 C   0  0  0  0  0  0  0  0  0  0  0  0
   -0.8180   27.6050  -24.3380 O   0  0  0  0  0  0  0  0  0  0  0  0
   -0.1130   27.1850  -23.1750 C   0  0  0  0  0  0  0  0  0  0  0  0
   -0.6594   27.5105  -22.2775 H   0  0  0  0  0  0  0  0  0  0  0  0
   -0.0271   26.0884  -23.1744 H   0  0  0  0  0  0  0  0  0  0  0  0
    0.8923   27.6316  -23.1744 H   0  0  0  0  0  0  0  0  0  0  0  0
   -0.4430   26.7040  -26.5370 C   0  0  0  0  0  0  0  0  0  0  0  0
    0.4549   27.3343  -26.6175 H   0  0  0  0  0  0  0  0  0  0  0  0
   -0.7980   25.8650  -27.5990 C   0  0  0  0  0  0  0  0  0  0  0  0
   -0.1813   25.8458  -28.5097 H   0  0  0  0  0  0  0  0  0  0  0  0
   -3.3900   24.4550  -29.4380 N   0  0  0  0  0  0  0  0  0  0  0  0
   -3.9200   25.3440  -29.2930 H   0  0  0  0  0  0  0  0  0  0  0  0
   -7.2110   22.8980  -30.6440 C   0  0  0  0  0  0  0  0  0  0  0  0
   -6.8056   23.7016  -30.0117 H   0  0  0  0  0  0  0  0  0  0  0  0
   -8.3130   22.1590  -30.2120 C   0  0  0  0  0  0  0  0  0  0  0  0
   -8.7855   22.3809  -29.2438 H   0  0  0  0  0  0  0  0  0  0  0  0
  1  2  1  0
  2  3  2  0
  3  4  1  0
  4  5  1  0
  4  6  2  0
  6  7  1  0
  7  8  1  0
  7  9  1  0
  7 10  1  0
 10 11  2  0
 11 12  1  0
 12 13  1  0
 13 14  2  0
 14 15  1  0
 14 16  1  0
 16 17  1  0
 16 18  2  0
 18 19  1  0
 18 20  1  0
 20 21  1  0
 20 22  2  0
 22 23  1  0
 12 24  2  0
 24 25  1  0
 25 26  2  0
 26 27  1  0
 27 28  2  0
 28 29  1  0
 28 30  1  0
 30 31  1  0
 30 32  2  0
 32 33  1  0
 33 34  1  0
 34 35  1  0
 34 36  1  0
 34 37  1  0
 32 38  1  0
 38 39  1  0
 38 40  2  0
 40 41  1  0
 26 42  1  0
 42 43  1  0
  6 44  1  0
 44 45  1  0
 44 46  2  0
 46 47  1  0
 46  2  1  0
 42 11  1  0
 22 13  1  0
 40 27  1  0
M  END
>  <UniqueID>  (32) 
31

>  <SMILES>  (32) 
COc1ccc(-c2nnc(-c3ccccc3)/c(=N\Cc3cccnc3)[nH]2)cc1

>  <Energy>  (32) 
71.54343598989585

>  <Genealogy>  (32) 
COc1ccc(-c2nnc(-c3ccccc3)/c(=N\Cc3cccnc3)[nH]2)cc1 (cis-trans isomerization)
COc1ccc(-c2nnc(-c3ccccc3)/c(=N\Cc3cccnc3)[nH]2)cc1 (3D coordinates assigned)
COc1ccc(-c2nnc(-c3ccccc3)/c(=N\Cc3cccnc3)[nH]2)cc1 (optimized conformer: 71.54343598989585 kcal/mol)

>  <smiles>  (32) 
COc1ccc(-c2nnc(-c3ccccc3)c(=NCc3cccnc3)[nH]2)cc1

>  <score_type>  (32) 
oracle

>  <origin>  (32) 
adgpu

>  <m_score__min__energy>  (32) 
-8.4199999999999999

>  <m_primary>  (32) 
energy

$$$$
32:0
     RDKit          3D

 57 61  0  0  1  0  0  0  0  0999 V2000
   -8.7160   20.1650  -31.2480 C   0  0  0  0  0  0  0  0  0  0  0  0
   -9.1380   21.5160  -31.8200 C   0  0  0  0  0  0  0  0  0  0  0  0
   -8.1360   22.5140  -31.6180 N   0  0  0  0  0  0  0  0  0  0  0  0
   -6.9930   22.3470  -32.4940 C   0  0  0  0  0  0  0  0  0  0  0  0
   -5.9550   23.4040  -32.3010 C   0  0  0  0  0  0  0  0  0  0  0  0
   -5.6620   23.6440  -30.8980 N   0  0  0  0  0  0  0  0  0  0  0  0
   -4.3370   23.7030  -30.3840 C   0  0  0  0  0  0  0  0  0  0  0  0
   -3.2510   22.8910  -30.7430 C   0  0  0  0  0  0  0  0  0  0  0  0
   -2.2190   23.3450  -29.9740 C   0  0  0  0  0  0  0  0  0  0  0  0
   -0.9160   22.9520  -29.8760 C   0  0  0  0  0  0  0  0  0  0  0  0
   -0.4090   22.0160  -30.5480 N   0  0  0  0  0  0  0  0  0  0  0  0
   -1.0750   21.2330  -31.4880 C   0  0  0  0  0  0  0  0  0  0  0  0
   -0.9760   21.5480  -32.8490 C   0  0  0  0  0  0  0  0  0  0  0  0
   -1.6840   20.7970  -33.7710 C   0  0  0  0  0  0  0  0  0  0  0  0
   -2.4690   19.7600  -33.3290 C   0  0  0  0  0  0  0  0  0  0  0  0
   -3.1800   19.0040  -34.2470 O   0  0  0  0  0  0  0  0  0  0  0  0
   -4.4280   18.4610  -33.9800 C   0  0  0  0  0  0  0  0  0  0  0  0
   -5.4730   19.3010  -33.6480 C   0  0  0  0  0  0  0  0  0  0  0  0
   -6.7200   18.7700  -33.3810 C   0  0  0  0  0  0  0  0  0  0  0  0
   -6.8850   17.3840  -33.4580 C   0  0  0  0  0  0  0  0  0  0  0  0
   -5.8190   16.5730  -33.7930 C   0  0  0  0  0  0  0  0  0  0  0  0
   -4.5580   17.0900  -34.0650 C   0  0  0  0  0  0  0  0  0  0  0  0
   -2.5830   19.4300  -31.9920 C   0  0  0  0  0  0  0  0  0  0  0  0
   -1.8830   20.1690  -31.0590 C   0  0  0  0  0  0  0  0  0  0  0  0
   -0.1050   23.6050  -29.0040 N   0  0  0  0  0  0  0  0  0  0  0  0
   -0.5210   24.6190  -28.2310 C   0  0  0  0  0  0  0  0  0  0  0  0
   -1.8080   25.0010  -28.3320 N   0  0  0  0  0  0  0  0  0  0  0  0
   -2.6580   24.3730  -29.1970 C   0  0  0  0  0  0  0  0  0  0  0  0
   -3.9580   24.5900  -29.4510 N   0  0  0  0  0  0  0  0  0  0  0  0
   -6.8370   23.8230  -30.0300 C   0  0  0  0  0  0  0  0  0  0  0  0
   -7.7640   22.6530  -30.2220 C   0  0  0  0  0  0  0  0  0  0  0  0
   -8.7305   20.2114  -30.1491 H   0  0  0  0  0  0  0  0  0  0  0  0
   -9.4140   19.3873  -31.5914 H   0  0  0  0  0  0  0  0  0  0  0  0
   -7.6994   19.9228  -31.5914 H   0  0  0  0  0  0  0  0  0  0  0  0
   -9.3176   21.4052  -32.8996 H   0  0  0  0  0  0  0  0  0  0  0  0
  -10.0513   21.8380  -31.2983 H   0  0  0  0  0  0  0  0  0  0  0  0
   -6.5371   21.3662  -32.2935 H   0  0  0  0  0  0  0  0  0  0  0  0
   -7.3558   22.4249  -33.5295 H   0  0  0  0  0  0  0  0  0  0  0  0
   -5.0304   23.0872  -32.8057 H   0  0  0  0  0  0  0  0  0  0  0  0
   -6.3465   24.3398  -32.7264 H   0  0  0  0  0  0  0  0  0  0  0  0
   -3.2348   22.0730  -31.4783 H   0  0  0  0  0  0  0  0  0  0  0  0
   -0.3423   22.3834  -33.1816 H   0  0  0  0  0  0  0  0  0  0  0  0
   -1.6189   21.0277  -34.8446 H   0  0  0  0  0  0  0  0  0  0  0  0
   -5.3129   20.3881  -33.5964 H   0  0  0  0  0  0  0  0  0  0  0  0
   -7.5640   19.4230  -33.1139 H   0  0  0  0  0  0  0  0  0  0  0  0
   -7.8687   16.9374  -33.2507 H   0  0  0  0  0  0  0  0  0  0  0  0
   -5.9724   15.4850  -33.8462 H   0  0  0  0  0  0  0  0  0  0  0  0
   -3.7105   16.4421  -34.3332 H   0  0  0  0  0  0  0  0  0  0  0  0
   -3.2213   18.5918  -31.6759 H   0  0  0  0  0  0  0  0  0  0  0  0
   -1.9581   19.9258  -29.9889 H   0  0  0  0  0  0  0  0  0  0  0  0
    0.8940   23.3260  -28.9100 H   0  0  0  0  0  0  0  0  0  0  0  0
    0.1675   25.1226  -27.5365 H   0  0  0  0  0  0  0  0  0  0  0  0
   -4.5460   25.3310  -28.9840 H   0  0  0  0  0  0  0  0  0  0  0  0
   -6.5163   23.8721  -28.9789 H   0  0  0  0  0  0  0  0  0  0  0  0
   -7.3554   24.7575  -30.2905 H   0  0  0  0  0  0  0  0  0  0  0  0
   -7.2585   21.7341  -29.8903 H   0  0  0  0  0  0  0  0  0  0  0  0
   -8.6750   22.8240  -29.6296 H   0  0  0  0  0  0  0  0  0  0  0  0
  1  2  1  0
  2  3  1  0
  3  4  1  0
  4  5  1  0
  5  6  1  0
  6  7  1  0
  7  8  2  0
  8  9  1  0
  9 10  1  0
 10 11  2  0
 11 12  1  0
 12 13  2  0
 13 14  1  0
 14 15  2  0
 15 16  1  0
 16 17  1  0
 17 18  2  0
 18 19  1  0
 19 20  2  0
 20 21  1  0
 21 22  2  0
 15 23  1  0
 23 24  2  0
 10 25  1  0
 25 26  1  0
 26 27  2  0
 27 28  1  0
 28 29  1  0
  6 30  1  0
 30 31  1  0
 31  3  1  0
 29  7  1  0
 28  9  2  0
 24 12  1  0
 22 17  1  0
  1 32  1  0
  1 33  1  0
  1 34  1  0
  2 35  1  0
  2 36  1  0
  4 37  1  0
  4 38  1  0
  5 39  1  0
  5 40  1  0
  8 41  1  0
 13 42  1  0
 14 43  1  0
 18 44  1  0
 19 45  1  0
 20 46  1  0
 21 47  1  0
 22 48  1  0
 23 49  1  0
 24 50  1  0
 25 51  1  0
 26 52  1  0
 29 53  1  0
 30 54  1  0
 30 55  1  0
 31 56  1  0
 31 57  1  0
M  END
>  <smiles>  (33) 
CCN1CCN(c2cc3c(=Nc4ccc(Oc5ccccc5)cc4)[nH]cnc3[nH]2)CC1

>  <score_type>  (33) 
oracle

>  <origin>  (33) 
adgpu

>  <m_score__min__energy>  (33) 
-9.1899999999999995

>  <m_primary>  (33) 
energy

$$$$
33:0
     RDKit          3D

 53 56  0  0  0  0  0  0  0  0999 V2000
   -5.2270   17.8400  -34.7910 C   0  0  0  0  0  0  0  0  0  0  0  0
   -3.9280   18.3940  -34.6050 O   0  0  0  0  0  0  0  0  0  0  0  0
   -3.6130   19.3720  -33.6500 C   0  0  0  0  0  0  0  0  0  0  0  0
   -4.3450   19.3970  -32.4580 C   0  0  0  0  0  0  0  0  0  0  0  0
   -4.0730   20.3540  -31.4770 C   0  0  0  0  0  0  0  0  0  0  0  0
   -3.0640   21.3100  -31.6800 C   0  0  0  0  0  0  0  0  0  0  0  0
   -2.7790   22.3360  -30.6470 C   0  0  0  0  0  0  0  0  0  0  0  0
   -1.4630   22.4900  -30.2000 C   0  0  0  0  0  0  0  0  0  0  0  0
   -1.1700   23.4110  -29.1990 C   0  0  0  0  0  0  0  0  0  0  0  0
   -2.1530   24.1790  -28.6440 N   0  0  0  0  0  0  0  0  0  0  0  0
   -1.7940   25.1240  -27.6160 C   0  0  0  0  0  0  0  0  0  0  0  0
   -2.3680   25.0420  -26.3390 C   0  0  0  0  0  0  0  0  0  0  0  0
   -2.0050   25.9560  -25.3490 C   0  0  0  0  0  0  0  0  0  0  0  0
   -1.0640   26.9460  -25.6380 C   0  0  0  0  0  0  0  0  0  0  0  0
   -0.7020   27.8630  -24.6470 O   0  0  0  0  0  0  0  0  0  0  0  0
    0.1000   27.5100  -23.5270 C   0  0  0  0  0  0  0  0  0  0  0  0
   -0.5100   27.0080  -26.8820 N   0  0  0  0  0  0  0  0  0  0  0  0
   -0.8470   26.1310  -27.8640 C   0  0  0  0  0  0  0  0  0  0  0  0
   -3.4540   24.0570  -29.0650 C   0  0  0  0  0  0  0  0  0  0  0  0
   -4.3560   24.7710  -28.5420 O   0  0  0  0  0  0  0  0  0  0  0  0
   -3.7970   23.1380  -30.0800 C   0  0  0  0  0  0  0  0  0  0  0  0
   -5.1980   23.0570  -30.5640 C   0  0  0  0  0  0  0  0  0  0  0  0
   -6.2290   22.6770  -29.6910 C   0  0  0  0  0  0  0  0  0  0  0  0
   -7.5430   22.5810  -30.1540 C   0  0  0  0  0  0  0  0  0  0  0  0
   -7.8520   22.8650  -31.4900 C   0  0  0  0  0  0  0  0  0  0  0  0
   -9.1870   22.7500  -31.9050 O   0  0  0  0  0  0  0  0  0  0  0  0
   -9.9020   21.5220  -31.9820 C   0  0  0  0  0  0  0  0  0  0  0  0
   -6.8190   23.2530  -32.3640 C   0  0  0  0  0  0  0  0  0  0  0  0
   -5.5030   23.3500  -31.9020 C   0  0  0  0  0  0  0  0  0  0  0  0
   -2.3210   21.2800  -32.8690 C   0  0  0  0  0  0  0  0  0  0  0  0
   -2.5930   20.3230  -33.8500 C   0  0  0  0  0  0  0  0  0  0  0  0
   -5.6860   17.6443  -33.8107 H   0  0  0  0  0  0  0  0  0  0  0  0
   -5.8514   18.5501  -35.3530 H   0  0  0  0  0  0  0  0  0  0  0  0
   -5.1468   16.8978  -35.3530 H   0  0  0  0  0  0  0  0  0  0  0  0
   -5.1416   18.6568  -32.2917 H   0  0  0  0  0  0  0  0  0  0  0  0
   -4.6516   20.3588  -30.5415 H   0  0  0  0  0  0  0  0  0  0  0  0
   -0.6586   21.8824  -30.6402 H   0  0  0  0  0  0  0  0  0  0  0  0
   -0.1327   23.5218  -28.8502 H   0  0  0  0  0  0  0  0  0  0  0  0
   -3.1052   24.2562  -26.1175 H   0  0  0  0  0  0  0  0  0  0  0  0
   -2.4571   25.8969  -24.3479 H   0  0  0  0  0  0  0  0  0  0  0  0
   -0.4408   27.7480  -22.5992 H   0  0  0  0  0  0  0  0  0  0  0  0
    0.3188   26.4324  -23.5577 H   0  0  0  0  0  0  0  0  0  0  0  0
    1.0424   28.0765  -23.5577 H   0  0  0  0  0  0  0  0  0  0  0  0
   -0.3769   26.2101  -28.8554 H   0  0  0  0  0  0  0  0  0  0  0  0
   -6.0013   22.4540  -28.6382 H   0  0  0  0  0  0  0  0  0  0  0  0
   -8.3433   22.2793  -29.4623 H   0  0  0  0  0  0  0  0  0  0  0  0
  -10.1145   21.1571  -30.9663 H   0  0  0  0  0  0  0  0  0  0  0  0
  -10.8483   21.6818  -32.5196 H   0  0  0  0  0  0  0  0  0  0  0  0
   -9.2959   20.7779  -32.5196 H   0  0  0  0  0  0  0  0  0  0  0  0
   -7.0483   23.4810  -33.4154 H   0  0  0  0  0  0  0  0  0  0  0  0
   -4.7025   23.6576  -32.5909 H   0  0  0  0  0  0  0  0  0  0  0  0
   -1.5186   22.0149  -33.0304 H   0  0  0  0  0  0  0  0  0  0  0  0
   -2.0086   20.3121  -34.7819 H   0  0  0  0  0  0  0  0  0  0  0  0
  1  2  1  0
  2  3  1  0
  3  4  2  0
  4  5  1  0
  5  6  2  0
  6  7  1  0
  7  8  1  0
  8  9  2  0
  9 10  1  0
 10 11  1  0
 11 12  2  0
 12 13  1  0
 13 14  2  0
 14 15  1  0
 15 16  1  0
 14 17  1  0
 17 18  2  0
 10 19  1  0
 19 20  2  0
 19 21  1  0
 21 22  1  0
 22 23  2  0
 23 24  1  0
 24 25  2  0
 25 26  1  0
 26 27  1  0
 25 28  1  0
 28 29  2  0
  6 30  1  0
 30 31  2  0
 31  3  1  0
 21  7  2  0
 29 22  1  0
 18 11  1  0
  1 32  1  0
  1 33  1  0
  1 34  1  0
  4 35  1  0
  5 36  1  0
  8 37  1  0
  9 38  1  0
 12 39  1  0
 13 40  1  0
 16 41  1  0
 16 42  1  0
 16 43  1  0
 18 44  1  0
 23 45  1  0
 24 46  1  0
 27 47  1  0
 27 48  1  0
 27 49  1  0
 28 50  1  0
 29 51  1  0
 30 52  1  0
 31 53  1  0
M  END
>  <UniqueID>  (34) 
32

>  <SMILES>  (34) 
COc1ccc(-c2ccn(-c3ccc(OC)nc3)c(=O)c2-c2ccc(OC)cc2)cc1

>  <Energy>  (34) 
77.59886525117193

>  <Genealogy>  (34) 
COc1ccc(-c2ccn(-c3ccc(OC)nc3)c(=O)c2-c2ccc(OC)cc2)cc1 (3D coordinates assigned)
COc1ccc(-c2ccn(-c3ccc(OC)nc3)c(=O)c2-c2ccc(OC)cc2)cc1 (optimized conformer: 77.59886525117193 kcal/mol)

>  <smiles>  (34) 
COc1ccc(-c2ccn(-c3ccc(OC)nc3)c(=O)c2-c2ccc(OC)cc2)cc1

>  <score_type>  (34) 
oracle

>  <origin>  (34) 
adgpu

>  <m_score__min__energy>  (34) 
-7.1799999999999997

>  <m_primary>  (34) 
energy

$$$$
34:0
     RDKit          3D

 43 46  0  0  0  0  0  0  0  0999 V2000
   -3.1730   24.4000  -28.0270 C   0  0  0  0  0  0  0  0  0  0  0  0
   -3.2180   23.6250  -29.3150 C   0  0  0  0  0  0  0  0  0  0  0  0
   -2.6480   22.3480  -29.4000 C   0  0  0  0  0  0  0  0  0  0  0  0
   -2.7060   21.6450  -30.6060 C   0  0  0  0  0  0  0  0  0  0  0  0
   -2.1510   20.3650  -30.7350 C   0  0  0  0  0  0  0  0  0  0  0  0
   -2.2280   19.6920  -31.9570 C   0  0  0  0  0  0  0  0  0  0  0  0
   -2.8520   20.2850  -33.0620 C   0  0  0  0  0  0  0  0  0  0  0  0
   -2.8920   19.5590  -34.2610 O   0  0  0  0  0  0  0  0  0  0  0  0
   -3.1120   18.1540  -34.3840 C   0  0  0  0  0  0  0  0  0  0  0  0
   -4.6070   17.8000  -34.3310 C   0  0  0  0  0  0  0  0  0  0  0  0
   -5.0820   17.3300  -32.9510 C   0  0  0  0  0  0  0  0  0  0  0  0
   -6.8720   16.9430  -32.9310 S   0  0  0  0  0  0  0  0  0  0  0  0
   -7.3990   18.6370  -32.6810 C   0  0  0  0  0  0  0  0  0  0  0  0
   -6.5440   19.6880  -32.6840 N   0  0  0  0  0  0  0  0  0  0  0  0
   -7.2030   20.8440  -32.4200 C   0  0  0  0  0  0  0  0  0  0  0  0
   -6.5920   22.0960  -32.3320 C   0  0  0  0  0  0  0  0  0  0  0  0
   -7.3890   23.2160  -32.0340 C   0  0  0  0  0  0  0  0  0  0  0  0
   -8.7760   23.0710  -31.8300 C   0  0  0  0  0  0  0  0  0  0  0  0
   -9.3780   21.8060  -31.9200 C   0  0  0  0  0  0  0  0  0  0  0  0
   -8.5670   20.7130  -32.2150 C   0  0  0  0  0  0  0  0  0  0  0  0
   -8.9980   19.0980  -32.3660 S   0  0  0  0  0  0  0  0  0  0  0  0
   -3.4180   21.5690  -32.9290 C   0  0  0  0  0  0  0  0  0  0  0  0
   -3.3430   22.2480  -31.7090 C   0  0  0  0  0  0  0  0  0  0  0  0
   -3.8770   23.4610  -31.5920 O   0  0  0  0  0  0  0  0  0  0  0  0
   -3.8400   24.1580  -30.4600 C   0  0  0  0  0  0  0  0  0  0  0  0
   -4.3690   25.3010  -30.4250 O   0  0  0  0  0  0  0  0  0  0  0  0
   -3.2135   23.7022  -27.1776 H   0  0  0  0  0  0  0  0  0  0  0  0
   -2.2396   24.9803  -27.9806 H   0  0  0  0  0  0  0  0  0  0  0  0
   -4.0329   25.0844  -27.9806 H   0  0  0  0  0  0  0  0  0  0  0  0
   -2.1577   21.9015  -28.5224 H   0  0  0  0  0  0  0  0  0  0  0  0
   -1.6553   19.8905  -29.8753 H   0  0  0  0  0  0  0  0  0  0  0  0
   -1.7940   18.6858  -32.0523 H   0  0  0  0  0  0  0  0  0  0  0  0
   -2.6997   17.8125  -35.3449 H   0  0  0  0  0  0  0  0  0  0  0  0
   -2.6141   17.6562  -33.5389 H   0  0  0  0  0  0  0  0  0  0  0  0
   -5.1852   18.6928  -34.6115 H   0  0  0  0  0  0  0  0  0  0  0  0
   -4.7632   16.9623  -35.0266 H   0  0  0  0  0  0  0  0  0  0  0  0
   -4.5209   16.4259  -32.6721 H   0  0  0  0  0  0  0  0  0  0  0  0
   -4.9049   18.1472  -32.2363 H   0  0  0  0  0  0  0  0  0  0  0  0
   -5.5092   22.2045  -32.4925 H   0  0  0  0  0  0  0  0  0  0  0  0
   -6.9268   24.2114  -31.9597 H   0  0  0  0  0  0  0  0  0  0  0  0
   -9.3902   23.9539  -31.5990 H   0  0  0  0  0  0  0  0  0  0  0  0
  -10.4595   21.6817  -31.7620 H   0  0  0  0  0  0  0  0  0  0  0  0
   -3.9203   22.0384  -33.7877 H   0  0  0  0  0  0  0  0  0  0  0  0
  1  2  1  0
  2  3  2  0
  3  4  1  0
  4  5  2  0
  5  6  1  0
  6  7  2  0
  7  8  1  0
  8  9  1  0
  9 10  1  0
 10 11  1  0
 11 12  1  0
 12 13  1  0
 13 14  2  0
 14 15  1  0
 15 16  2  0
 16 17  1  0
 17 18  2  0
 18 19  1  0
 19 20  2  0
 20 21  1  0
  7 22  1  0
 22 23  2  0
 23 24  1  0
 24 25  1  0
 25 26  2  0
 25  2  1  0
 23  4  1  0
 21 13  1  0
 20 15  1  0
  1 27  1  0
  1 28  1  0
  1 29  1  0
  3 30  1  0
  5 31  1  0
  6 32  1  0
  9 33  1  0
  9 34  1  0
 10 35  1  0
 10 36  1  0
 11 37  1  0
 11 38  1  0
 16 39  1  0
 17 40  1  0
 18 41  1  0
 19 42  1  0
 22 43  1  0
M  END
>  <UniqueID>  (35) 
33

>  <SMILES>  (35) 
Cc1cc2ccc(OCCCSc3nc4ccccc4s3)cc2oc1=O

>  <Energy>  (35) 
79.048549703832

>  <Genealogy>  (35) 
Cc1cc2ccc(OCCCSc3nc4ccccc4s3)cc2oc1=O (3D coordinates assigned)
Cc1cc2ccc(OCCCSc3nc4ccccc4s3)cc2oc1=O (optimized conformer: 79.048549703832 kcal/mol)

>  <smiles>  (35) 
Cc1cc2ccc(OCCCSc3nc4ccccc4s3)cc2oc1=O

>  <score_type>  (35) 
oracle

>  <origin>  (35) 
adgpu

>  <m_score__min__energy>  (35) 
-9.7200000000000006

>  <m_primary>  (35) 
energy

$$$$
35:0
     RDKit          3D

 22 23  0  0  0  0  0  0  0  0999 V2000
   -6.0900   18.9470  -33.7310 Cl  0  0  0  0  0  0  0  0  0  0  0  0
   -7.1630   20.0670  -32.8980 C   0  0  0  0  0  0  0  0  0  0  0  0
   -8.5030   19.7060  -32.7160 C   0  0  0  0  0  0  0  0  0  0  0  0
   -9.3870   20.5780  -32.0770 C   0  0  0  0  0  0  0  0  0  0  0  0
   -8.9370   21.8200  -31.6200 C   0  0  0  0  0  0  0  0  0  0  0  0
   -7.6020   22.1880  -31.7980 C   0  0  0  0  0  0  0  0  0  0  0  0
   -6.7060   21.3140  -32.4300 C   0  0  0  0  0  0  0  0  0  0  0  0
   -4.9930   21.8220  -32.6340 S   0  0  0  0  0  0  0  0  0  0  0  0
   -5.0890   23.0250  -31.3110 C   0  0  0  0  0  0  0  0  0  0  0  0
   -4.8730   22.6370  -29.9830 C   0  0  0  0  0  0  0  0  0  0  0  0
   -4.9580   23.5940  -28.9700 C   0  0  0  0  0  0  0  0  0  0  0  0
   -5.2520   24.9210  -29.2920 C   0  0  0  0  0  0  0  0  0  0  0  0
   -5.4560   25.2710  -30.6290 C   0  0  0  0  0  0  0  0  0  0  0  0
   -5.3690   24.3240  -31.6010 N   0  0  0  0  0  0  0  0  0  0  0  0
   -8.8614   18.7310  -33.0779 H   0  0  0  0  0  0  0  0  0  0  0  0
  -10.4381   20.2873  -31.9332 H   0  0  0  0  0  0  0  0  0  0  0  0
   -9.6349   22.5077  -31.1200 H   0  0  0  0  0  0  0  0  0  0  0  0
   -7.2516   23.1677  -31.4409 H   0  0  0  0  0  0  0  0  0  0  0  0
   -4.6390   21.5899  -29.7406 H   0  0  0  0  0  0  0  0  0  0  0  0
   -4.7940   23.3039  -27.9217 H   0  0  0  0  0  0  0  0  0  0  0  0
   -5.3222   25.6824  -28.5012 H   0  0  0  0  0  0  0  0  0  0  0  0
   -5.6871   26.3129  -30.8955 H   0  0  0  0  0  0  0  0  0  0  0  0
  1  2  1  0
  2  3  2  0
  3  4  1  0
  4  5  2  0
  5  6  1  0
  6  7  2  0
  7  8  1  0
  8  9  1  0
  9 10  2  0
 10 11  1  0
 11 12  2  0
 12 13  1  0
 13 14  2  0
  7  2  1  0
 14  9  1  0
  3 15  1  0
  4 16  1  0
  5 17  1  0
  6 18  1  0
 10 19  1  0
 11 20  1  0
 12 21  1  0
 13 22  1  0
M  END
>  <UniqueID>  (36) 
34

>  <SMILES>  (36) 
Clc1ccccc1Sc1ccccn1

>  <Energy>  (36) 
20.142627902370386

>  <Genealogy>  (36) 
Clc1ccccc1Sc1ccccn1 (3D coordinates assigned)
Clc1ccccc1Sc1ccccn1 (optimized conformer: 20.142627902370386 kcal/mol)

>  <smiles>  (36) 
Clc1ccccc1Sc1ccccn1

>  <score_type>  (36) 
oracle

>  <origin>  (36) 
adgpu

>  <m_score__min__energy>  (36) 
-6.5999999999999996

>  <m_primary>  (36) 
energy

$$$$
36:0
     RDKit          3D

 36 38  0  0  0  0  0  0  0  0999 V2000
   -4.3120   21.1490  -30.7090 O   0  0  0  0  0  0  0  0  0  0  0  0
   -4.0350   21.4530  -31.8990 C   0  0  0  0  0  0  0  0  0  0  0  0
   -5.0530   21.9900  -32.7560 N   0  0  0  0  0  0  0  0  0  0  0  0
   -6.4500   21.8550  -32.4600 C   0  0  0  0  0  0  0  0  0  0  0  0
   -7.2000   23.0070  -32.1930 C   0  0  0  0  0  0  0  0  0  0  0  0
   -8.5640   22.9120  -31.9140 C   0  0  0  0  0  0  0  0  0  0  0  0
   -9.1950   21.6680  -31.9260 C   0  0  0  0  0  0  0  0  0  0  0  0
   -8.4690   20.5100  -32.2190 C   0  0  0  0  0  0  0  0  0  0  0  0
   -9.3410   18.9860  -32.3240 Cl  0  0  0  0  0  0  0  0  0  0  0  0
   -7.0840   20.5920  -32.4810 C   0  0  0  0  0  0  0  0  0  0  0  0
   -6.3380   19.4220  -32.8610 N   0  0  0  0  0  0  0  0  0  0  0  0
   -5.7900   19.2910  -34.2140 C   0  0  0  0  0  0  0  0  0  0  0  0
   -5.7050   17.8090  -34.5890 C   0  0  0  0  0  0  0  0  0  0  0  0
   -5.0070   17.0810  -33.5950 O   0  0  0  0  0  0  0  0  0  0  0  0
   -5.7440   17.0930  -32.3860 C   0  0  0  0  0  0  0  0  0  0  0  0
   -5.8490   18.5140  -31.8220 C   0  0  0  0  0  0  0  0  0  0  0  0
   -2.6600   21.2680  -32.3880 C   0  0  0  0  0  0  0  0  0  0  0  0
   -2.2780   20.7920  -33.6390 C   0  0  0  0  0  0  0  0  0  0  0  0
   -0.8910   20.6880  -33.7920 C   0  0  0  0  0  0  0  0  0  0  0  0
   -0.1740   21.0730  -32.6660 C   0  0  0  0  0  0  0  0  0  0  0  0
   -1.2690   21.5400  -31.4800 S   0  0  0  0  0  0  0  0  0  0  0  0
   -4.7730   22.6430  -33.5220 H   0  0  0  0  0  0  0  0  0  0  0  0
   -6.7112   23.9924  -32.2032 H   0  0  0  0  0  0  0  0  0  0  0  0
   -9.1423   23.8191  -31.6843 H   0  0  0  0  0  0  0  0  0  0  0  0
  -10.2700   21.5979  -31.7036 H   0  0  0  0  0  0  0  0  0  0  0  0
   -6.4453   19.8126  -34.9271 H   0  0  0  0  0  0  0  0  0  0  0  0
   -4.7845   19.7358  -34.2470 H   0  0  0  0  0  0  0  0  0  0  0  0
   -6.7223   17.4023  -34.6870 H   0  0  0  0  0  0  0  0  0  0  0  0
   -5.1635   17.7155  -35.5419 H   0  0  0  0  0  0  0  0  0  0  0  0
   -6.7558   16.7061  -32.5774 H   0  0  0  0  0  0  0  0  0  0  0  0
   -5.2231   16.4615  -31.6513 H   0  0  0  0  0  0  0  0  0  0  0  0
   -6.5481   18.5197  -30.9728 H   0  0  0  0  0  0  0  0  0  0  0  0
   -4.8561   18.8467  -31.4851 H   0  0  0  0  0  0  0  0  0  0  0  0
   -2.9952   20.5242  -34.4289 H   0  0  0  0  0  0  0  0  0  0  0  0
   -0.4130   20.3344  -34.7174 H   0  0  0  0  0  0  0  0  0  0  0  0
    0.9216   21.0723  -32.5678 H   0  0  0  0  0  0  0  0  0  0  0  0
  1  2  2  0
  2  3  1  0
  3  4  1  0
  4  5  2  0
  5  6  1  0
  6  7  2  0
  7  8  1  0
  8  9  1  0
  8 10  2  0
 10 11  1  0
 11 12  1  0
 12 13  1  0
 13 14  1  0
 14 15  1  0
 15 16  1  0
  2 17  1  0
 17 18  2  0
 18 19  1  0
 19 20  2  0
 20 21  1  0
 10  4  1  0
 16 11  1  0
 21 17  1  0
  3 22  1  0
  5 23  1  0
  6 24  1  0
  7 25  1  0
 12 26  1  0
 12 27  1  0
 13 28  1  0
 13 29  1  0
 15 30  1  0
 15 31  1  0
 16 32  1  0
 16 33  1  0
 18 34  1  0
 19 35  1  0
 20 36  1  0
M  END
>  <UniqueID>  (37) 
35

>  <SMILES>  (37) 
O=C(Nc1cccc(Cl)c1N1CCOCC1)c1cccs1

>  <Energy>  (37) 
73.61322560722375

>  <Genealogy>  (37) 
O=C(Nc1cccc(Cl)c1N1CCOCC1)c1cccs1 (3D coordinates assigned)
O=C(Nc1cccc(Cl)c1N1CCOCC1)c1cccs1 (nonaromatic ring conformer: 73.61322560722375 kcal/mol)

>  <smiles>  (37) 
O=C(Nc1cccc(Cl)c1N1CCOCC1)c1cccs1

>  <score_type>  (37) 
oracle

>  <origin>  (37) 
adgpu

>  <m_score__min__energy>  (37) 
-7.46

>  <m_primary>  (37) 
energy

$$$$
37:0
     RDKit          3D

 38 39  0  0  0  0  0  0  0  0999 V2000
   -2.2910   24.2270  -29.1820 C   0  0  0  0  0  0  0  0  0  0  0  0
   -3.1470   24.9480  -30.0610 O   0  0  0  0  0  0  0  0  0  0  0  0
   -4.4360   24.5330  -30.4280 C   0  0  0  0  0  0  0  0  0  0  0  0
   -5.5970   25.2050  -30.0000 C   0  0  0  0  0  0  0  0  0  0  0  0
   -6.8600   24.7440  -30.3860 C   0  0  0  0  0  0  0  0  0  0  0  0
   -6.9790   23.6020  -31.1900 C   0  0  0  0  0  0  0  0  0  0  0  0
   -8.2680   23.1220  -31.5860 N   0  0  0  0  0  0  0  0  0  0  0  0
   -8.5990   21.7250  -31.5820 C   0  0  0  0  0  0  0  0  0  0  0  0
   -9.9730   21.2300  -32.3300 S   0  0  0  0  0  0  0  0  0  0  0  0
   -7.7040   20.7590  -31.0100 N   0  0  0  0  0  0  0  0  0  0  0  0
   -7.4500   19.4700  -31.6520 C   0  0  0  0  0  0  0  0  0  0  0  0
   -7.1730   19.6360  -33.1530 C   0  0  0  0  0  0  0  0  0  0  0  0
   -5.7390   19.3120  -33.4930 C   0  0  0  0  0  0  0  0  0  0  0  0
   -5.4310   18.1650  -34.2460 C   0  0  0  0  0  0  0  0  0  0  0  0
   -4.1070   17.8890  -34.6010 C   0  0  0  0  0  0  0  0  0  0  0  0
   -3.0810   18.7500  -34.2030 C   0  0  0  0  0  0  0  0  0  0  0  0
   -3.3780   19.8890  -33.4510 C   0  0  0  0  0  0  0  0  0  0  0  0
   -4.7000   20.1740  -33.1000 C   0  0  0  0  0  0  0  0  0  0  0  0
   -5.8250   22.9450  -31.6330 C   0  0  0  0  0  0  0  0  0  0  0  0
   -4.5620   23.4040  -31.2480 C   0  0  0  0  0  0  0  0  0  0  0  0
   -2.5604   24.4539  -28.1399 H   0  0  0  0  0  0  0  0  0  0  0  0
   -2.4041   23.1480  -29.3633 H   0  0  0  0  0  0  0  0  0  0  0  0
   -1.2469   24.5218  -29.3633 H   0  0  0  0  0  0  0  0  0  0  0  0
   -5.5105   26.0954  -29.3600 H   0  0  0  0  0  0  0  0  0  0  0  0
   -7.7629   25.2795  -30.0575 H   0  0  0  0  0  0  0  0  0  0  0  0
   -8.8750   23.7730  -32.1330 H   0  0  0  0  0  0  0  0  0  0  0  0
   -7.1260   21.0390  -30.1880 H   0  0  0  0  0  0  0  0  0  0  0  0
   -6.5765   18.9996  -31.1769 H   0  0  0  0  0  0  0  0  0  0  0  0
   -8.3451   18.8418  -31.5328 H   0  0  0  0  0  0  0  0  0  0  0  0
   -7.8344   18.9601  -33.7148 H   0  0  0  0  0  0  0  0  0  0  0  0
   -7.3618   20.6854  -33.4234 H   0  0  0  0  0  0  0  0  0  0  0  0
   -6.2351   17.4819  -34.5571 H   0  0  0  0  0  0  0  0  0  0  0  0
   -3.8728   16.9929  -35.1944 H   0  0  0  0  0  0  0  0  0  0  0  0
   -2.0397   18.5309  -34.4818 H   0  0  0  0  0  0  0  0  0  0  0  0
   -2.5688   20.5635  -33.1343 H   0  0  0  0  0  0  0  0  0  0  0  0
   -4.9289   21.0763  -32.5139 H   0  0  0  0  0  0  0  0  0  0  0  0
   -5.9124   22.0644  -32.2864 H   0  0  0  0  0  0  0  0  0  0  0  0
   -3.6607   22.8750  -31.5913 H   0  0  0  0  0  0  0  0  0  0  0  0
  1  2  1  0
  2  3  1  0
  3  4  2  0
  4  5  1  0
  5  6  2  0
  6  7  1  0
  7  8  1  0
  8  9  2  0
  8 10  1  0
 10 11  1  0
 11 12  1  0
 12 13  1  0
 13 14  2  0
 14 15  1  0
 15 16  2  0
 16 17  1  0
 17 18  2  0
  6 19  1  0
 19 20  2  0
 20  3  1  0
 18 13  1  0
  1 21  1  0
  1 22  1  0
  1 23  1  0
  4 24  1  0
  5 25  1  0
  7 26  1  0
 10 27  1  0
 11 28  1  0
 11 29  1  0
 12 30  1  0
 12 31  1  0
 14 32  1  0
 15 33  1  0
 16 34  1  0
 17 35  1  0
 18 36  1  0
 19 37  1  0
 20 38  1  0
M  END
>  <UniqueID>  (38) 
36

>  <SMILES>  (38) 
COc1ccc(NC(=S)NCCc2ccccc2)cc1

>  <Energy>  (38) 
38.32104009616314

>  <Genealogy>  (38) 
COc1ccc(NC(=S)NCCc2ccccc2)cc1 (3D coordinates assigned)
COc1ccc(NC(=S)NCCc2ccccc2)cc1 (optimized conformer: 38.32104009616314 kcal/mol)

>  <smiles>  (38) 
COc1ccc(NC(=S)NCCc2ccccc2)cc1

>  <score_type>  (38) 
oracle

>  <origin>  (38) 
adgpu

>  <m_score__min__energy>  (38) 
-7.6200000000000001

>  <m_primary>  (38) 
energy

$$$$
38:0
     RDKit          3D

 41 44  0  0  0  0  0  0  0  0999 V2000
   -0.8410   21.9880  -26.1180 C   0  0  0  0  0  0  0  0  0  0  0  0
   -1.5630   22.8130  -27.1360 C   0  0  0  0  0  0  0  0  0  0  0  0
   -0.9850   23.9950  -27.6390 C   0  0  0  0  0  0  0  0  0  0  0  0
   -1.7050   24.7560  -28.5680 C   0  0  0  0  0  0  0  0  0  0  0  0
   -1.2120   25.8110  -29.0500 O   0  0  0  0  0  0  0  0  0  0  0  0
   -2.9430   24.3360  -28.9410 N   0  0  0  0  0  0  0  0  0  0  0  0
   -3.7200   24.9550  -29.8260 N   0  0  0  0  0  0  0  0  0  0  0  0
   -4.8860   24.2950  -30.0240 C   0  0  0  0  0  0  0  0  0  0  0  0
   -6.1050   24.7840  -31.2440 S   0  0  0  0  0  0  0  0  0  0  0  0
   -5.9010   23.2980  -32.2950 C   0  0  0  0  0  0  0  0  0  0  0  0
   -7.0760   22.3650  -32.1770 C   0  0  0  0  0  0  0  0  0  0  0  0
   -8.3660   22.8700  -31.9580 C   0  0  0  0  0  0  0  0  0  0  0  0
   -9.4430   21.9960  -31.7960 C   0  0  0  0  0  0  0  0  0  0  0  0
   -9.2390   20.6140  -31.8310 C   0  0  0  0  0  0  0  0  0  0  0  0
   -7.9570   20.0920  -32.0390 C   0  0  0  0  0  0  0  0  0  0  0  0
   -7.7840   18.6980  -31.9860 O   0  0  0  0  0  0  0  0  0  0  0  0
   -6.7580   17.9800  -32.6140 C   0  0  0  0  0  0  0  0  0  0  0  0
   -6.4160   18.2000  -33.9600 C   0  0  0  0  0  0  0  0  0  0  0  0
   -5.3820   17.4700  -34.5520 C   0  0  0  0  0  0  0  0  0  0  0  0
   -4.6970   16.5020  -33.8130 C   0  0  0  0  0  0  0  0  0  0  0  0
   -5.0530   16.2550  -32.4850 C   0  0  0  0  0  0  0  0  0  0  0  0
   -6.0830   16.9890  -31.8880 C   0  0  0  0  0  0  0  0  0  0  0  0
   -6.8790   20.9760  -32.2250 C   0  0  0  0  0  0  0  0  0  0  0  0
   -4.9990   22.8920  -29.0740 S   0  0  0  0  0  0  0  0  0  0  0  0
   -3.4780   23.2060  -28.4340 C   0  0  0  0  0  0  0  0  0  0  0  0
   -2.8120   22.4400  -27.5380 N   0  0  0  0  0  0  0  0  0  0  0  0
   -1.1288   22.3169  -25.1085 H   0  0  0  0  0  0  0  0  0  0  0  0
   -1.1075   20.9288  -26.2485 H   0  0  0  0  0  0  0  0  0  0  0  0
    0.2442   22.1118  -26.2485 H   0  0  0  0  0  0  0  0  0  0  0  0
    0.0141   24.3145  -27.3079 H   0  0  0  0  0  0  0  0  0  0  0  0
   -5.8014   23.6145  -33.3438 H   0  0  0  0  0  0  0  0  0  0  0  0
   -5.0024   22.7609  -31.9574 H   0  0  0  0  0  0  0  0  0  0  0  0
   -8.5297   23.9568  -31.9138 H   0  0  0  0  0  0  0  0  0  0  0  0
  -10.4555   22.3968  -31.6403 H   0  0  0  0  0  0  0  0  0  0  0  0
  -10.0912   19.9321  -31.6942 H   0  0  0  0  0  0  0  0  0  0  0  0
   -6.9645   18.9496  -34.5492 H   0  0  0  0  0  0  0  0  0  0  0  0
   -5.1071   17.6575  -35.6005 H   0  0  0  0  0  0  0  0  0  0  0  0
   -3.8771   15.9342  -34.2771 H   0  0  0  0  0  0  0  0  0  0  0  0
   -4.5229   15.4827  -31.9084 H   0  0  0  0  0  0  0  0  0  0  0  0
   -6.3647   16.7877  -30.8439 H   0  0  0  0  0  0  0  0  0  0  0  0
   -5.8715   20.5749  -32.4099 H   0  0  0  0  0  0  0  0  0  0  0  0
  1  2  1  0
  2  3  2  0
  3  4  1  0
  4  5  2  0
  4  6  1  0
  6  7  1  0
  7  8  2  0
  8  9  1  0
  9 10  1  0
 10 11  1  0
 11 12  2  0
 12 13  1  0
 13 14  2  0
 14 15  1  0
 15 16  1  0
 16 17  1  0
 17 18  2  0
 18 19  1  0
 19 20  2  0
 20 21  1  0
 21 22  2  0
 15 23  2  0
  8 24  1  0
 24 25  1  0
 25 26  2  0
 26  2  1  0
 25  6  1  0
 23 11  1  0
 22 17  1  0
  1 27  1  0
  1 28  1  0
  1 29  1  0
  3 30  1  0
 10 31  1  0
 10 32  1  0
 12 33  1  0
 13 34  1  0
 14 35  1  0
 18 36  1  0
 19 37  1  0
 20 38  1  0
 21 39  1  0
 22 40  1  0
 23 41  1  0
M  END
>  <UniqueID>  (39) 
37

>  <SMILES>  (39) 
Cc1cc(=O)n2nc(SCc3cccc(Oc4ccccc4)c3)sc2n1

>  <Energy>  (39) 
81.49149805006364

>  <Genealogy>  (39) 
Cc1cc(=O)n2nc(SCc3cccc(Oc4ccccc4)c3)sc2n1 (3D coordinates assigned)
Cc1cc(=O)n2nc(SCc3cccc(Oc4ccccc4)c3)sc2n1 (optimized conformer: 81.49149805006364 kcal/mol)

>  <smiles>  (39) 
Cc1cc(=O)n2nc(SCc3cccc(Oc4ccccc4)c3)sc2n1

>  <score_type>  (39) 
oracle

>  <origin>  (39) 
adgpu

>  <m_score__min__energy>  (39) 
-9.5899999999999999

>  <m_primary>  (39) 
energy

$$$$
39:0
     RDKit          3D

 36 37  0  0  0  0  0  0  0  0999 V2000
   -9.8840   21.1830  -31.9710 C   0  0  0  0  0  0  0  0  0  0  0  0
   -8.9070   22.3550  -31.9280 C   0  0  0  0  0  0  0  0  0  0  0  0
   -7.6030   21.9290  -31.3870 N   0  0  0  0  0  0  0  0  0  0  0  0
   -7.1940   22.4210  -30.0620 C   0  0  0  0  0  0  0  0  0  0  0  0
   -6.0960   23.4430  -30.1990 C   0  0  0  0  0  0  0  0  0  0  0  0
   -4.7610   23.0750  -29.9730 C   0  0  0  0  0  0  0  0  0  0  0  0
   -3.7510   24.0270  -30.1250 C   0  0  0  0  0  0  0  0  0  0  0  0
   -4.0600   25.2980  -30.4930 N   0  0  0  0  0  0  0  0  0  0  0  0
   -5.3440   25.6810  -30.7220 C   0  0  0  0  0  0  0  0  0  0  0  0
   -6.3860   24.7610  -30.5790 C   0  0  0  0  0  0  0  0  0  0  0  0
   -6.7150   21.0450  -32.1200 C   0  0  0  0  0  0  0  0  0  0  0  0
   -7.0880   19.7390  -32.4860 C   0  0  0  0  0  0  0  0  0  0  0  0
   -6.1690   18.9390  -33.1740 C   0  0  0  0  0  0  0  0  0  0  0  0
   -6.5280   17.5410  -33.5670 C   0  0  0  0  0  0  0  0  0  0  0  0
   -4.9390   19.4300  -33.4730 N   0  0  0  0  0  0  0  0  0  0  0  0
   -4.5880   20.6950  -33.1280 C   0  0  0  0  0  0  0  0  0  0  0  0
   -3.2180   21.2020  -33.4290 C   0  0  0  0  0  0  0  0  0  0  0  0
   -5.4660   21.4790  -32.4520 N   0  0  0  0  0  0  0  0  0  0  0  0
  -10.1374   20.8790  -30.9447 H   0  0  0  0  0  0  0  0  0  0  0  0
  -10.7992   21.4878  -32.4997 H   0  0  0  0  0  0  0  0  0  0  0  0
   -9.4195   20.3376  -32.4997 H   0  0  0  0  0  0  0  0  0  0  0  0
   -8.7651   22.7440  -32.9471 H   0  0  0  0  0  0  0  0  0  0  0  0
   -9.3219   23.1366  -31.2746 H   0  0  0  0  0  0  0  0  0  0  0  0
   -8.0591   22.8827  -29.5636 H   0  0  0  0  0  0  0  0  0  0  0  0
   -6.8223   21.5748  -29.4656 H   0  0  0  0  0  0  0  0  0  0  0  0
   -4.5121   22.0448  -29.6785 H   0  0  0  0  0  0  0  0  0  0  0  0
   -2.7023   23.7473  -29.9463 H   0  0  0  0  0  0  0  0  0  0  0  0
   -5.5631   26.7168  -31.0204 H   0  0  0  0  0  0  0  0  0  0  0  0
   -7.4259   25.0685  -30.7632 H   0  0  0  0  0  0  0  0  0  0  0  0
   -8.0869   19.3525  -32.2352 H   0  0  0  0  0  0  0  0  0  0  0  0
   -6.6838   16.9344  -32.6627 H   0  0  0  0  0  0  0  0  0  0  0  0
   -7.4520   17.5537  -34.1637 H   0  0  0  0  0  0  0  0  0  0  0  0
   -5.7122   17.1069  -34.1637 H   0  0  0  0  0  0  0  0  0  0  0  0
   -2.6849   21.3993  -32.4872 H   0  0  0  0  0  0  0  0  0  0  0  0
   -2.6676   20.4480  -34.0109 H   0  0  0  0  0  0  0  0  0  0  0  0
   -3.2911   22.1326  -34.0109 H   0  0  0  0  0  0  0  0  0  0  0  0
  1  2  1  0
  2  3  1  0
  3  4  1  0
  4  5  1  0
  5  6  2  0
  6  7  1  0
  7  8  2  0
  8  9  1  0
  9 10  2  0
  3 11  1  0
 11 12  2  0
 12 13  1  0
 13 14  1  0
 13 15  2  0
 15 16  1  0
 16 17  1  0
 16 18  2  0
 10  5  1  0
 18 11  1  0
  1 19  1  0
  1 20  1  0
  1 21  1  0
  2 22  1  0
  2 23  1  0
  4 24  1  0
  4 25  1  0
  6 26  1  0
  7 27  1  0
  9 28  1  0
 10 29  1  0
 12 30  1  0
 14 31  1  0
 14 32  1  0
 14 33  1  0
 17 34  1  0
 17 35  1  0
 17 36  1  0
M  END
>  <UniqueID>  (40) 
38

>  <SMILES>  (40) 
CCN(Cc1ccncc1)c1cc(C)nc(C)n1

>  <Energy>  (40) 
31.875487521316117

>  <Genealogy>  (40) 
CCN(Cc1ccncc1)c1cc(C)nc(C)n1 (3D coordinates assigned)
CCN(Cc1ccncc1)c1cc(C)nc(C)n1 (optimized conformer: 31.875487521316117 kcal/mol)

>  <smiles>  (40) 
CCN(Cc1ccncc1)c1cc(C)nc(C)n1

>  <score_type>  (40) 
oracle

>  <origin>  (40) 
adgpu

>  <m_score__min__energy>  (40) 
-6.8200000000000003

>  <m_primary>  (40) 
energy

$$$$
40:0
     RDKit          3D

 30 31  0  0  0  0  0  0  0  0999 V2000
   -9.0660   20.4960  -31.2050 C   0  0  0  0  0  0  0  0  0  0  0  0
   -9.2200   22.1450  -31.9580 S   0  0  0  0  0  0  0  0  0  0  0  0
   -7.4470   22.4350  -31.9760 C   0  0  0  0  0  0  0  0  0  0  0  0
   -6.9340   23.6030  -31.3990 C   0  0  0  0  0  0  0  0  0  0  0  0
   -5.5500   23.8550  -31.4020 C   0  0  0  0  0  0  0  0  0  0  0  0
   -5.0100   25.0910  -30.7880 C   0  0  0  0  0  0  0  0  0  0  0  0
   -5.7810   26.0580  -30.5410 O   0  0  0  0  0  0  0  0  0  0  0  0
   -3.6240   25.1670  -30.4270 N   0  0  0  0  0  0  0  0  0  0  0  0
   -2.9720   24.4480  -29.3680 C   0  0  0  0  0  0  0  0  0  0  0  0
   -3.5250   23.2770  -28.8170 C   0  0  0  0  0  0  0  0  0  0  0  0
   -2.8730   22.6160  -27.7710 C   0  0  0  0  0  0  0  0  0  0  0  0
   -1.6780   23.1250  -27.2560 C   0  0  0  0  0  0  0  0  0  0  0  0
   -1.1360   24.3000  -27.7810 C   0  0  0  0  0  0  0  0  0  0  0  0
   -1.7830   24.9660  -28.8290 C   0  0  0  0  0  0  0  0  0  0  0  0
   -1.2360   26.1380  -29.3370 O   0  0  0  0  0  0  0  0  0  0  0  0
   -4.6880   22.9160  -31.9980 C   0  0  0  0  0  0  0  0  0  0  0  0
   -5.2010   21.7480  -32.5800 C   0  0  0  0  0  0  0  0  0  0  0  0
   -4.3440   20.8210  -33.1710 O   0  0  0  0  0  0  0  0  0  0  0  0
   -6.5780   21.5090  -32.5710 C   0  0  0  0  0  0  0  0  0  0  0  0
   -7.0820   20.3490  -33.1500 O   0  0  0  0  0  0  0  0  0  0  0  0
   -9.0749   20.5910  -30.1091 H   0  0  0  0  0  0  0  0  0  0  0  0
   -9.9093   19.8665  -31.5253 H   0  0  0  0  0  0  0  0  0  0  0  0
   -8.1208   20.0335  -31.5253 H   0  0  0  0  0  0  0  0  0  0  0  0
   -7.6194   24.3302  -30.9392 H   0  0  0  0  0  0  0  0  0  0  0  0
   -4.4727   22.8805  -29.2101 H   0  0  0  0  0  0  0  0  0  0  0  0
   -3.3019   21.6934  -27.3529 H   0  0  0  0  0  0  0  0  0  0  0  0
   -1.1642   22.6002  -26.4371 H   0  0  0  0  0  0  0  0  0  0  0  0
   -0.1986   24.7033  -27.3703 H   0  0  0  0  0  0  0  0  0  0  0  0
   -3.6035   23.0996  -32.0074 H   0  0  0  0  0  0  0  0  0  0  0  0
   -4.6930   19.9720  -33.6000 H   0  0  0  0  0  0  0  0  0  0  0  0
  1  2  1  0
  2  3  1  0
  3  4  2  0
  4  5  1  0
  5  6  1  0
  6  7  2  0
  6  8  1  0
  8  9  1  0
  9 10  2  0
 10 11  1  0
 11 12  2  0
 12 13  1  0
 13 14  2  0
 14 15  1  0
  5 16  2  0
 16 17  1  0
 17 18  1  0
 17 19  2  0
 19 20  1  0
 19  3  1  0
 14  9  1  0
  1 21  1  0
  1 22  1  0
  1 23  1  0
  4 24  1  0
 10 25  1  0
 11 26  1  0
 12 27  1  0
 13 28  1  0
 16 29  1  0
 18 30  1  0
M  CHG  3   8  -1  15  -1  20  -1
M  END
>  <UniqueID>  (41) 
39

>  <SMILES>  (41) 
CSc1cc(C(=O)[N-]c2ccccc2[O-])cc(O)c1[O-]

>  <Energy>  (41) 
31.63123185036167

>  <Genealogy>  (41) 
CSc1cc(C(=O)[N-]c2ccccc2[O-])cc(O)c1[O-] (protonated)
CSc1cc(C(=O)[N-]c2ccccc2[O-])cc(O)c1[O-] (3D coordinates assigned)
CSc1cc(C(=O)[N-]c2ccccc2[O-])cc(O)c1[O-] (optimized conformer: 31.63123185036167 kcal/mol)

>  <smiles>  (41) 
CSc1cc(C(=O)Nc2ccccc2O)cc(O)c1O

>  <score_type>  (41) 
oracle

>  <origin>  (41) 
adgpu

>  <m_score__min__energy>  (41) 
-11.640000000000001

>  <m_primary>  (41) 
energy

$$$$
41:0
     RDKit          3D

 48 50  0  0  0  0  0  0  0  0999 V2000
   -0.1680   21.7450  -33.5510 H   0  0  0  0  0  0  0  0  0  0  0  0
   -0.7830   21.0230  -33.9920 N   0  0  0  0  0  0  0  0  0  0  0  0
   -2.0000   20.8090  -33.5960 C   0  0  0  0  0  0  0  0  0  0  0  0
   -2.5450   21.5510  -32.5440 C   0  0  0  0  0  0  0  0  0  0  0  0
   -1.9457   22.3310  -32.0515 H   0  0  0  0  0  0  0  0  0  0  0  0
   -3.8530   21.3000  -32.1190 C   0  0  0  0  0  0  0  0  0  0  0  0
   -4.3950   22.0690  -31.0310 N   0  0  0  0  0  0  0  0  0  0  0  0
   -4.1170   21.9270  -29.7140 C   0  0  0  0  0  0  0  0  0  0  0  0
   -3.1590   20.9380  -29.1240 C   0  0  0  0  0  0  0  0  0  0  0  0
   -3.2087   20.9893  -28.0263 H   0  0  0  0  0  0  0  0  0  0  0  0
   -3.4275   19.9243  -29.4562 H   0  0  0  0  0  0  0  0  0  0  0  0
   -2.1373   21.1741  -29.4562 H   0  0  0  0  0  0  0  0  0  0  0  0
   -4.8110   22.8690  -28.9780 C   0  0  0  0  0  0  0  0  0  0  0  0
   -4.7992   22.9883  -27.8846 H   0  0  0  0  0  0  0  0  0  0  0  0
   -5.5220   23.6310  -29.8840 C   0  0  0  0  0  0  0  0  0  0  0  0
   -6.1788   24.4830  -29.6544 H   0  0  0  0  0  0  0  0  0  0  0  0
   -5.2470   23.1140  -31.1350 C   0  0  0  0  0  0  0  0  0  0  0  0
   -5.7380   23.7000  -32.4240 C   0  0  0  0  0  0  0  0  0  0  0  0
   -6.4310   24.5271  -32.2103 H   0  0  0  0  0  0  0  0  0  0  0  0
   -4.8833   24.0783  -33.0039 H   0  0  0  0  0  0  0  0  0  0  0  0
   -6.2601   22.9247  -33.0039 H   0  0  0  0  0  0  0  0  0  0  0  0
   -4.6200   20.3090  -32.7690 C   0  0  0  0  0  0  0  0  0  0  0  0
   -6.0100   20.0320  -32.3300 C   0  0  0  0  0  0  0  0  0  0  0  0
   -6.9860   21.0310  -32.4700 C   0  0  0  0  0  0  0  0  0  0  0  0
   -6.7056   22.0150  -32.8740 H   0  0  0  0  0  0  0  0  0  0  0  0
   -8.3190   20.7840  -32.0980 C   0  0  0  0  0  0  0  0  0  0  0  0
   -9.3290   21.7480  -32.2350 O   0  0  0  0  0  0  0  0  0  0  0  0
   -9.1550   23.1370  -31.9730 C   0  0  0  0  0  0  0  0  0  0  0  0
   -9.1339   23.3053  -30.8862 H   0  0  0  0  0  0  0  0  0  0  0  0
   -8.2072   23.4776  -32.4152 H   0  0  0  0  0  0  0  0  0  0  0  0
   -9.9895   23.7009  -32.4152 H   0  0  0  0  0  0  0  0  0  0  0  0
   -8.6610   19.5340  -31.5750 C   0  0  0  0  0  0  0  0  0  0  0  0
   -9.7021   19.3324  -31.2826 H   0  0  0  0  0  0  0  0  0  0  0  0
   -7.6950   18.5390  -31.4200 C   0  0  0  0  0  0  0  0  0  0  0  0
   -7.9799   17.5608  -31.0054 H   0  0  0  0  0  0  0  0  0  0  0  0
   -6.3570   18.7790  -31.7910 C   0  0  0  0  0  0  0  0  0  0  0  0
   -5.3580   17.8080  -31.6280 O   0  0  0  0  0  0  0  0  0  0  0  0
   -5.4540   16.4640  -32.0870 C   0  0  0  0  0  0  0  0  0  0  0  0
   -5.5026   15.7842  -31.2235 H   0  0  0  0  0  0  0  0  0  0  0  0
   -6.3627   16.3486  -32.6961 H   0  0  0  0  0  0  0  0  0  0  0  0
   -4.5710   16.2206  -32.6961 H   0  0  0  0  0  0  0  0  0  0  0  0
   -4.0400   19.5930  -33.8440 C   0  0  0  0  0  0  0  0  0  0  0  0
   -4.8140   18.5320  -34.5820 C   0  0  0  0  0  0  0  0  0  0  0  0
   -5.3018   17.8633  -33.8575 H   0  0  0  0  0  0  0  0  0  0  0  0
   -5.5783   19.0083  -35.2137 H   0  0  0  0  0  0  0  0  0  0  0  0
   -4.1271   17.9497  -35.2137 H   0  0  0  0  0  0  0  0  0  0  0  0
   -2.7500   19.8540  -34.2130 N   0  0  0  0  0  0  0  0  0  0  0  0
   -2.3220   19.3100  -34.9970 H   0  0  0  0  0  0  0  0  0  0  0  0
  1  2  1  0
  2  3  2  0
  3  4  1  0
  4  5  1  0
  4  6  2  0
  6  7  1  0
  7  8  1  0
  8  9  1  0
  9 10  1  0
  9 11  1  0
  9 12  1  0
  8 13  2  0
 13 14  1  0
 13 15  1  0
 15 16  1  0
 15 17  2  0
 17 18  1  0
 18 19  1  0
 18 20  1  0
 18 21  1  0
  6 22  1  0
 22 23  1  0
 23 24  2  0
 24 25  1  0
 24 26  1  0
 26 27  1  0
 27 28  1  0
 28 29  1  0
 28 30  1  0
 28 31  1  0
 26 32  2  0
 32 33  1  0
 32 34  1  0
 34 35  1  0
 34 36  2  0
 36 37  1  0
 37 38  1  0
 38 39  1  0
 38 40  1  0
 38 41  1  0
 22 42  2  0
 42 43  1  0
 43 44  1  0
 43 45  1  0
 43 46  1  0
 42 47  1  0
 47 48  1  0
 47  3  1  0
 17  7  1  0
 36 23  1  0
M  END
>  <UniqueID>  (42) 
40

>  <SMILES>  (42) 
[H]/N=c1\cc(-n2c(C)ccc2C)c(-c2cc(OC)ccc2OC)c(C)[nH]1

>  <Energy>  (42) 
85.05605349193331

>  <Genealogy>  (42) 
[H]/N=c1\cc(-n2c(C)ccc2C)c(-c2cc(OC)ccc2OC)c(C)[nH]1 (cis-trans isomerization)
[H]/N=c1\cc(-n2c(C)ccc2C)c(-c2cc(OC)ccc2OC)c(C)[nH]1 (3D coordinates assigned)
[H]/N=c1\cc(-n2c(C)ccc2C)c(-c2cc(OC)ccc2OC)c(C)[nH]1 (optimized conformer: 85.05605349193331 kcal/mol)

>  <smiles>  (42) 
COc1ccc(OC)c(-c2c(-n3c(C)ccc3C)cc(=N)[nH]c2C)c1

>  <score_type>  (42) 
oracle

>  <origin>  (42) 
adgpu

>  <m_score__min__energy>  (42) 
-6.5899999999999999

>  <m_primary>  (42) 
energy

$$$$
42:0
     RDKit          3D

 39 41  0  0  0  0  0  0  0  0999 V2000
   -5.3770   26.4380  -30.4580 O   0  0  0  0  0  0  0  0  0  0  0  0
   -4.9340   25.2680  -30.6120 C   0  0  0  0  0  0  0  0  0  0  0  0
   -3.5270   25.0430  -30.4610 N   0  0  0  0  0  0  0  0  0  0  0  0
   -2.9080   24.1190  -29.5510 C   0  0  0  0  0  0  0  0  0  0  0  0
   -2.5630   24.5060  -28.2410 C   0  0  0  0  0  0  0  0  0  0  0  0
   -1.9750   23.5870  -27.3670 C   0  0  0  0  0  0  0  0  0  0  0  0
   -1.7400   22.2750  -27.7860 C   0  0  0  0  0  0  0  0  0  0  0  0
   -2.1000   21.8770  -29.0750 C   0  0  0  0  0  0  0  0  0  0  0  0
   -2.6890   22.7920  -29.9560 C   0  0  0  0  0  0  0  0  0  0  0  0
   -3.1280   22.2610  -31.5740 Cl  0  0  0  0  0  0  0  0  0  0  0  0
   -5.8820   24.1630  -30.8870 C   0  0  0  0  0  0  0  0  0  0  0  0
   -6.2450   23.8570  -32.2100 C   0  0  0  0  0  0  0  0  0  0  0  0
   -7.1540   22.8290  -32.4760 C   0  0  0  0  0  0  0  0  0  0  0  0
   -7.7210   22.1000  -31.4230 C   0  0  0  0  0  0  0  0  0  0  0  0
   -8.9270   20.8550  -31.7350 S   0  0  0  0  0  0  0  0  0  0  0  0
  -10.2450   21.5180  -32.0150 O   0  0  0  0  0  0  0  0  0  0  0  0
   -9.0860   19.9670  -30.5310 O   0  0  0  0  0  0  0  0  0  0  0  0
   -8.4670   19.8950  -33.1130 N   0  0  0  0  0  0  0  0  0  0  0  0
   -7.6910   18.7220  -32.7080 C   0  0  0  0  0  0  0  0  0  0  0  0
   -6.2750   18.8310  -33.1800 C   0  0  0  0  0  0  0  0  0  0  0  0
   -5.3350   19.7350  -32.7240 C   0  0  0  0  0  0  0  0  0  0  0  0
   -4.1830   19.4550  -33.4240 C   0  0  0  0  0  0  0  0  0  0  0  0
   -4.4910   18.4060  -34.2680 C   0  0  0  0  0  0  0  0  0  0  0  0
   -5.7460   18.0580  -34.1000 O   0  0  0  0  0  0  0  0  0  0  0  0
   -7.3690   22.4040  -30.1030 C   0  0  0  0  0  0  0  0  0  0  0  0
   -6.4620   23.4320  -29.8340 C   0  0  0  0  0  0  0  0  0  0  0  0
   -2.7571   25.5352  -27.9047 H   0  0  0  0  0  0  0  0  0  0  0  0
   -1.6972   23.8970  -26.3488 H   0  0  0  0  0  0  0  0  0  0  0  0
   -1.2708   21.5548  -27.0996 H   0  0  0  0  0  0  0  0  0  0  0  0
   -1.9203   20.8414  -29.3993 H   0  0  0  0  0  0  0  0  0  0  0  0
   -5.8106   24.4306  -33.0420 H   0  0  0  0  0  0  0  0  0  0  0  0
   -7.4248   22.5918  -33.5154 H   0  0  0  0  0  0  0  0  0  0  0  0
   -7.7002   18.6451  -31.6107 H   0  0  0  0  0  0  0  0  0  0  0  0
   -8.1445   17.8271  -33.1591 H   0  0  0  0  0  0  0  0  0  0  0  0
   -5.4772   20.5150  -31.9615 H   0  0  0  0  0  0  0  0  0  0  0  0
   -3.2125   19.9643  -33.3300 H   0  0  0  0  0  0  0  0  0  0  0  0
   -3.7915   17.9339  -34.9735 H   0  0  0  0  0  0  0  0  0  0  0  0
   -7.8086   21.8308  -29.2734 H   0  0  0  0  0  0  0  0  0  0  0  0
   -6.1998   23.6713  -28.7929 H   0  0  0  0  0  0  0  0  0  0  0  0
  1  2  2  0
  2  3  1  0
  3  4  1  0
  4  5  2  0
  5  6  1  0
  6  7  2  0
  7  8  1  0
  8  9  2  0
  9 10  1  0
  2 11  1  0
 11 12  2  0
 12 13  1  0
 13 14  2  0
 14 15  1  0
 15 16  2  0
 15 17  2  0
 15 18  1  0
 18 19  1  0
 19 20  1  0
 20 21  2  0
 21 22  1  0
 22 23  2  0
 23 24  1  0
 14 25  1  0
 25 26  2  0
  9  4  1  0
 26 11  1  0
 24 20  1  0
  5 27  1  0
  6 28  1  0
  7 29  1  0
  8 30  1  0
 12 31  1  0
 13 32  1  0
 19 33  1  0
 19 34  1  0
 21 35  1  0
 22 36  1  0
 23 37  1  0
 25 38  1  0
 26 39  1  0
M  CHG  2   3  -1  18  -1
M  END
>  <UniqueID>  (43) 
41

>  <SMILES>  (43) 
O=C([N-]c1ccccc1Cl)c1ccc(S(=O)(=O)[N-]Cc2ccco2)cc1

>  <Energy>  (43) 
70.47989515990963

>  <Genealogy>  (43) 
O=C([N-]c1ccccc1Cl)c1ccc(S(=O)(=O)[N-]Cc2ccco2)cc1 (protonated)
O=C([N-]c1ccccc1Cl)c1ccc(S(=O)(=O)[N-]Cc2ccco2)cc1 (3D coordinates assigned)
O=C([N-]c1ccccc1Cl)c1ccc(S(=O)(=O)[N-]Cc2ccco2)cc1 (optimized conformer: 70.47989515990963 kcal/mol)

>  <smiles>  (43) 
O=C(Nc1ccccc1Cl)c1ccc(S(=O)(=O)NCc2ccco2)cc1

>  <score_type>  (43) 
oracle

>  <origin>  (43) 
adgpu

>  <m_score__min__energy>  (43) 
-10.81

>  <m_primary>  (43) 
energy

$$$$
43:0
     RDKit          3D

 39 41  0  0  0  0  0  0  0  0999 V2000
   -8.8880   21.9300  -29.9420 O   0  0  0  0  0  0  0  0  0  0  0  0
   -8.0400   21.9270  -30.8730 C   0  0  0  0  0  0  0  0  0  0  0  0
   -8.2350   21.0300  -31.9760 N   0  0  0  0  0  0  0  0  0  0  0  0
   -7.2930   20.0600  -32.4530 C   0  0  0  0  0  0  0  0  0  0  0  0
   -6.8030   20.0910  -33.7710 C   0  0  0  0  0  0  0  0  0  0  0  0
   -5.8950   19.1220  -34.2070 C   0  0  0  0  0  0  0  0  0  0  0  0
   -5.4750   18.1060  -33.3380 C   0  0  0  0  0  0  0  0  0  0  0  0
   -4.3370   16.8850  -33.8960 S   0  0  0  0  0  0  0  0  0  0  0  0
   -4.7930   15.5280  -33.4360 O   0  0  0  0  0  0  0  0  0  0  0  0
   -4.2740   16.9260  -35.3960 O   0  0  0  0  0  0  0  0  0  0  0  0
   -2.7700   17.2190  -33.2230 N   0  0  0  0  0  0  0  0  0  0  0  0
   -2.1870   18.3820  -33.1560 C   0  0  0  0  0  0  0  0  0  0  0  0
   -2.7850   19.5610  -33.6470 C   0  0  0  0  0  0  0  0  0  0  0  0
   -2.0990   20.7730  -33.5400 C   0  0  0  0  0  0  0  0  0  0  0  0
   -0.8340   20.8100  -32.9550 C   0  0  0  0  0  0  0  0  0  0  0  0
   -0.2690   19.6260  -32.4810 C   0  0  0  0  0  0  0  0  0  0  0  0
   -0.9500   18.4540  -32.5920 N   0  0  0  0  0  0  0  0  0  0  0  0
   -5.9870   18.0560  -32.0350 C   0  0  0  0  0  0  0  0  0  0  0  0
   -6.8950   19.0250  -31.5980 C   0  0  0  0  0  0  0  0  0  0  0  0
   -6.8490   22.8050  -30.7740 C   0  0  0  0  0  0  0  0  0  0  0  0
   -5.5620   22.3040  -31.0360 C   0  0  0  0  0  0  0  0  0  0  0  0
   -4.4450   23.1390  -30.9370 C   0  0  0  0  0  0  0  0  0  0  0  0
   -4.5990   24.4780  -30.5670 C   0  0  0  0  0  0  0  0  0  0  0  0
   -3.4820   25.3000  -30.4730 O   0  0  0  0  0  0  0  0  0  0  0  0
   -5.8730   24.9850  -30.2870 C   0  0  0  0  0  0  0  0  0  0  0  0
   -6.0180   26.3200  -29.9130 O   0  0  0  0  0  0  0  0  0  0  0  0
   -6.9940   24.1480  -30.3860 C   0  0  0  0  0  0  0  0  0  0  0  0
   -7.1355   20.8805  -34.4610 H   0  0  0  0  0  0  0  0  0  0  0  0
   -5.5086   19.1570  -35.2363 H   0  0  0  0  0  0  0  0  0  0  0  0
   -3.7823   19.5265  -34.1099 H   0  0  0  0  0  0  0  0  0  0  0  0
   -2.5572   21.6990  -33.9176 H   0  0  0  0  0  0  0  0  0  0  0  0
   -0.2882   21.7611  -32.8683 H   0  0  0  0  0  0  0  0  0  0  0  0
    0.7283   19.6403  -32.0170 H   0  0  0  0  0  0  0  0  0  0  0  0
   -5.6735   17.2516  -31.3534 H   0  0  0  0  0  0  0  0  0  0  0  0
   -7.2993   18.9741  -30.5762 H   0  0  0  0  0  0  0  0  0  0  0  0
   -5.4330   21.2493  -31.3205 H   0  0  0  0  0  0  0  0  0  0  0  0
   -3.4421   22.7410  -31.1509 H   0  0  0  0  0  0  0  0  0  0  0  0
   -5.2200   26.8870  -29.6500 H   0  0  0  0  0  0  0  0  0  0  0  0
   -7.9940   24.5456  -30.1583 H   0  0  0  0  0  0  0  0  0  0  0  0
  1  2  2  0
  2  3  1  0
  3  4  1  0
  4  5  2  0
  5  6  1  0
  6  7  2  0
  7  8  1  0
  8  9  2  0
  8 10  2  0
  8 11  1  0
 11 12  2  3
 12 13  1  0
 13 14  2  0
 14 15  1  0
 15 16  2  0
 16 17  1  0
  7 18  1  0
 18 19  2  0
  2 20  1  0
 20 21  2  0
 21 22  1  0
 22 23  2  0
 23 24  1  0
 23 25  1  0
 25 26  1  0
 25 27  2  0
 19  4  1  0
 27 20  1  0
 17 12  1  0
  5 28  1  0
  6 29  1  0
 13 30  1  0
 14 31  1  0
 15 32  1  0
 16 33  1  0
 18 34  1  0
 19 35  1  0
 21 36  1  0
 22 37  1  0
 26 38  1  0
 27 39  1  0
M  CHG  3   3  -1  17  -1  24  -1
M  END
>  <UniqueID>  (44) 
42

>  <SMILES>  (44) 
O=C([N-]c1ccc(S(=O)(=O)N=c2cccc[n-]2)cc1)c1ccc([O-])c(O)c1

>  <Energy>  (44) 
55.74236232979983

>  <Genealogy>  (44) 
O=C([N-]c1ccc(S(=O)(=O)N=c2cccc[n-]2)cc1)c1ccc([O-])c(O)c1 (protonated)
O=C([N-]c1ccc(S(=O)(=O)N=c2cccc[n-]2)cc1)c1ccc([O-])c(O)c1 (3D coordinates assigned)
O=C([N-]c1ccc(S(=O)(=O)N=c2cccc[n-]2)cc1)c1ccc([O-])c(O)c1 (optimized conformer: 55.74236232979983 kcal/mol)

>  <smiles>  (44) 
O=C(Nc1ccc(S(=O)(=O)N=c2cccc[nH]2)cc1)c1ccc(O)c(O)c1

>  <score_type>  (44) 
oracle

>  <origin>  (44) 
adgpu

>  <m_score__min__energy>  (44) 
-11.619999999999999

>  <m_primary>  (44) 
energy

$$$$
44:0
     RDKit          3D

 50 54  0  0  0  0  0  0  0  0999 V2000
   -4.2830   13.0330  -31.2090 C   0  0  0  0  0  0  0  0  0  0  0  0
   -4.1500   13.6200  -32.4970 O   0  0  0  0  0  0  0  0  0  0  0  0
   -4.9540   14.6810  -32.9180 C   0  0  0  0  0  0  0  0  0  0  0  0
   -4.9830   15.9240  -32.3300 C   0  0  0  0  0  0  0  0  0  0  0  0
   -5.8670   16.6780  -33.0120 N   0  0  0  0  0  0  0  0  0  0  0  0
   -6.2150   18.0500  -32.7430 C   0  0  0  0  0  0  0  0  0  0  0  0
   -6.9520   18.3810  -31.5900 C   0  0  0  0  0  0  0  0  0  0  0  0
   -7.2830   19.7110  -31.3180 C   0  0  0  0  0  0  0  0  0  0  0  0
   -6.8830   20.7300  -32.1920 C   0  0  0  0  0  0  0  0  0  0  0  0
   -7.2840   22.4040  -31.8240 S   0  0  0  0  0  0  0  0  0  0  0  0
   -8.6470   22.4550  -31.1900 O   0  0  0  0  0  0  0  0  0  0  0  0
   -7.3160   23.2270  -33.0800 O   0  0  0  0  0  0  0  0  0  0  0  0
   -6.0690   23.0560  -30.7320 C   0  0  0  0  0  0  0  0  0  0  0  0
   -4.9020   22.3240  -30.4770 C   0  0  0  0  0  0  0  0  0  0  0  0
   -3.9360   22.8210  -29.5970 C   0  0  0  0  0  0  0  0  0  0  0  0
   -4.1240   24.0590  -28.9610 C   0  0  0  0  0  0  0  0  0  0  0  0
   -3.1320   24.5700  -28.0550 N   0  0  0  0  0  0  0  0  0  0  0  0
   -3.3090   24.9500  -26.6850 C   0  0  0  0  0  0  0  0  0  0  0  0
   -4.4120   24.9330  -26.0760 O   0  0  0  0  0  0  0  0  0  0  0  0
   -2.0430   25.4100  -26.1270 C   0  0  0  0  0  0  0  0  0  0  0  0
   -1.7250   25.8740  -24.8510 C   0  0  0  0  0  0  0  0  0  0  0  0
   -0.3950   26.2540  -24.5980 C   0  0  0  0  0  0  0  0  0  0  0  0
    0.5810   26.1640  -25.6150 C   0  0  0  0  0  0  0  0  0  0  0  0
    0.2350   25.6940  -26.8950 C   0  0  0  0  0  0  0  0  0  0  0  0
   -1.0900   25.3260  -27.1200 C   0  0  0  0  0  0  0  0  0  0  0  0
   -1.7440   24.8070  -28.3170 C   0  0  0  0  0  0  0  0  0  0  0  0
   -1.1710   24.5560  -29.4100 O   0  0  0  0  0  0  0  0  0  0  0  0
   -5.2970   24.7890  -29.2180 C   0  0  0  0  0  0  0  0  0  0  0  0
   -6.2640   24.2890  -30.0950 C   0  0  0  0  0  0  0  0  0  0  0  0
   -6.1360   20.4110  -33.3340 C   0  0  0  0  0  0  0  0  0  0  0  0
   -5.8050   19.0800  -33.6090 C   0  0  0  0  0  0  0  0  0  0  0  0
   -6.3470   15.8620  -33.9800 C   0  0  0  0  0  0  0  0  0  0  0  0
   -7.2340   16.2030  -34.8090 O   0  0  0  0  0  0  0  0  0  0  0  0
   -5.8110   14.6240  -33.9600 N   0  0  0  0  0  0  0  0  0  0  0  0
   -4.1097   13.7980  -30.4378 H   0  0  0  0  0  0  0  0  0  0  0  0
   -5.2971   12.6219  -31.0963 H   0  0  0  0  0  0  0  0  0  0  0  0
   -3.5452   12.2250  -31.0963 H   0  0  0  0  0  0  0  0  0  0  0  0
   -4.3912   16.2446  -31.4599 H   0  0  0  0  0  0  0  0  0  0  0  0
   -7.2696   17.5869  -30.8983 H   0  0  0  0  0  0  0  0  0  0  0  0
   -7.8596   19.9587  -30.4146 H   0  0  0  0  0  0  0  0  0  0  0  0
   -4.7451   21.3539  -30.9713 H   0  0  0  0  0  0  0  0  0  0  0  0
   -3.0233   22.2390  -29.4016 H   0  0  0  0  0  0  0  0  0  0  0  0
   -2.4921   25.9408  -24.0654 H   0  0  0  0  0  0  0  0  0  0  0  0
   -0.1128   26.6239  -23.6012 H   0  0  0  0  0  0  0  0  0  0  0  0
    1.6184   26.4634  -25.4048 H   0  0  0  0  0  0  0  0  0  0  0  0
    0.9875   25.6193  -27.6939 H   0  0  0  0  0  0  0  0  0  0  0  0
   -5.4553   25.7600  -28.7260 H   0  0  0  0  0  0  0  0  0  0  0  0
   -7.1813   24.8654  -30.2858 H   0  0  0  0  0  0  0  0  0  0  0  0
   -5.8090   21.2096  -34.0161 H   0  0  0  0  0  0  0  0  0  0  0  0
   -5.2202   18.8371  -34.5084 H   0  0  0  0  0  0  0  0  0  0  0  0
  1  2  1  0
  2  3  1  0
  3  4  2  0
  4  5  1  0
  5  6  1  0
  6  7  2  0
  7  8  1  0
  8  9  2  0
  9 10  1  0
 10 11  2  0
 10 12  2  0
 10 13  1  0
 13 14  2  0
 14 15  1  0
 15 16  2  0
 16 17  1  0
 17 18  1  0
 18 19  2  0
 18 20  1  0
 20 21  2  0
 21 22  1  0
 22 23  2  0
 23 24  1  0
 24 25  2  0
 25 26  1  0
 26 27  2  0
 16 28  1  0
 28 29  2  0
  9 30  1  0
 30 31  2  0
  5 32  1  0
 32 33  2  0
 32 34  1  0
 34  3  1  0
 31  6  1  0
 29 13  1  0
 26 17  1  0
 25 20  1  0
  1 35  1  0
  1 36  1  0
  1 37  1  0
  4 38  1  0
  7 39  1  0
  8 40  1  0
 14 41  1  0
 15 42  1  0
 21 43  1  0
 22 44  1  0
 23 45  1  0
 24 46  1  0
 28 47  1  0
 29 48  1  0
 30 49  1  0
 31 50  1  0
M  CHG  1  34  -1
M  END
>  <UniqueID>  (45) 
43

>  <SMILES>  (45) 
COc1cn(-c2ccc(S(=O)(=O)c3ccc(N4C(=O)c5ccccc5C4=O)cc3)cc2)c(=O)[n-]1

>  <Energy>  (45) 
129.24722764293207

>  <Genealogy>  (45) 
COc1cn(-c2ccc(S(=O)(=O)c3ccc(N4C(=O)c5ccccc5C4=O)cc3)cc2)c(=O)[n-]1 (protonated)
COc1cn(-c2ccc(S(=O)(=O)c3ccc(N4C(=O)c5ccccc5C4=O)cc3)cc2)c(=O)[n-]1 (3D coordinates assigned)
COc1cn(-c2ccc(S(=O)(=O)c3ccc(N4C(=O)c5ccccc5C4=O)cc3)cc2)c(=O)[n-]1 (nonaromatic ring conformer: 129.24722764293207 kcal/mol)

>  <smiles>  (45) 
COc1cn(-c2ccc(S(=O)(=O)c3ccc(N4C(=O)c5ccccc5C4=O)cc3)cc2)c(=O)[nH]1

>  <score_type>  (45) 
oracle

>  <origin>  (45) 
adgpu

>  <m_score__min__energy>  (45) 
-10.18

>  <m_primary>  (45) 
energy

$$$$
45:0
     RDKit          3D

 44 46  0  0  0  0  0  0  0  0999 V2000
   -1.1690   20.6790  -32.7240 C   0  0  0  0  0  0  0  0  0  0  0  0
   -0.5190   21.0060  -31.3750 C   0  0  0  0  0  0  0  0  0  0  0  0
   -0.7920   20.0070  -30.3120 N   0  0  0  0  0  0  0  0  0  0  0  0
    0.4440   19.5380  -29.6450 C   0  0  0  0  0  0  0  0  0  0  0  0
    0.1730   19.2530  -28.1700 C   0  0  0  0  0  0  0  0  0  0  0  0
   -1.8150   20.4420  -29.3320 C   0  0  0  0  0  0  0  0  0  0  0  0
   -2.3610   21.8130  -29.6730 C   0  0  0  0  0  0  0  0  0  0  0  0
   -1.7520   22.9610  -29.1320 C   0  0  0  0  0  0  0  0  0  0  0  0
   -0.6320   22.8490  -28.3140 O   0  0  0  0  0  0  0  0  0  0  0  0
   -2.2640   24.2280  -29.4070 C   0  0  0  0  0  0  0  0  0  0  0  0
   -3.3830   24.3820  -30.2280 C   0  0  0  0  0  0  0  0  0  0  0  0
   -3.8620   25.6670  -30.4650 O   0  0  0  0  0  0  0  0  0  0  0  0
   -3.9990   23.2490  -30.8020 C   0  0  0  0  0  0  0  0  0  0  0  0
   -5.1260   23.3350  -31.6430 C   0  0  0  0  0  0  0  0  0  0  0  0
   -5.6620   24.4440  -31.9110 O   0  0  0  0  0  0  0  0  0  0  0  0
   -5.6660   22.1730  -32.1940 C   0  0  0  0  0  0  0  0  0  0  0  0
   -5.0730   20.9330  -31.9100 C   0  0  0  0  0  0  0  0  0  0  0  0
   -5.5820   19.6600  -32.4900 C   0  0  0  0  0  0  0  0  0  0  0  0
   -5.1910   19.2860  -33.7900 C   0  0  0  0  0  0  0  0  0  0  0  0
   -5.6590   18.0990  -34.3610 C   0  0  0  0  0  0  0  0  0  0  0  0
   -6.5350   17.2760  -33.6500 C   0  0  0  0  0  0  0  0  0  0  0  0
   -6.9990   16.0970  -34.2210 O   0  0  0  0  0  0  0  0  0  0  0  0
   -6.9480   17.6430  -32.3680 C   0  0  0  0  0  0  0  0  0  0  0  0
   -6.4820   18.8280  -31.7910 C   0  0  0  0  0  0  0  0  0  0  0  0
   -4.0250   20.8860  -31.0900 O   0  0  0  0  0  0  0  0  0  0  0  0
   -3.4730   21.9610  -30.5300 C   0  0  0  0  0  0  0  0  0  0  0  0
   -2.1399   20.1906  -32.5544 H   0  0  0  0  0  0  0  0  0  0  0  0
   -1.3204   21.6082  -33.2929 H   0  0  0  0  0  0  0  0  0  0  0  0
   -0.5132   20.0035  -33.2929 H   0  0  0  0  0  0  0  0  0  0  0  0
    0.5696   21.0655  -31.5216 H   0  0  0  0  0  0  0  0  0  0  0  0
   -0.9550   21.9571  -31.0355 H   0  0  0  0  0  0  0  0  0  0  0  0
    0.7937   18.6171  -30.1345 H   0  0  0  0  0  0  0  0  0  0  0  0
    1.2127   20.3209  -29.7234 H   0  0  0  0  0  0  0  0  0  0  0  0
    0.7984   19.9107  -27.5485 H   0  0  0  0  0  0  0  0  0  0  0  0
   -0.8882   19.4403  -27.9493 H   0  0  0  0  0  0  0  0  0  0  0  0
    0.4135   18.2026  -27.9493 H   0  0  0  0  0  0  0  0  0  0  0  0
   -2.6424   19.7171  -29.3331 H   0  0  0  0  0  0  0  0  0  0  0  0
   -1.3428   20.4949  -28.3399 H   0  0  0  0  0  0  0  0  0  0  0  0
   -1.7814   25.1160  -28.9727 H   0  0  0  0  0  0  0  0  0  0  0  0
   -6.5500   22.2280  -32.8463 H   0  0  0  0  0  0  0  0  0  0  0  0
   -4.5107   19.9342  -34.3618 H   0  0  0  0  0  0  0  0  0  0  0  0
   -5.3365   17.8125  -35.3729 H   0  0  0  0  0  0  0  0  0  0  0  0
   -7.6424   16.9976  -31.8100 H   0  0  0  0  0  0  0  0  0  0  0  0
   -6.8197   19.1141  -30.7840 H   0  0  0  0  0  0  0  0  0  0  0  0
  1  2  1  0
  2  3  1  0
  3  4  1  0
  4  5  1  0
  3  6  1  0
  6  7  1  0
  7  8  2  0
  8  9  1  0
  8 10  1  0
 10 11  2  0
 11 12  1  0
 11 13  1  0
 13 14  1  0
 14 15  2  0
 14 16  1  0
 16 17  2  0
 17 18  1  0
 18 19  2  0
 19 20  1  0
 20 21  2  0
 21 22  1  0
 21 23  1  0
 23 24  2  0
 17 25  1  0
 25 26  1  0
 26  7  1  0
 26 13  2  0
 24 18  1  0
  1 27  1  0
  1 28  1  0
  1 29  1  0
  2 30  1  0
  2 31  1  0
  4 32  1  0
  4 33  1  0
  5 34  1  0
  5 35  1  0
  5 36  1  0
  6 37  1  0
  6 38  1  0
 10 39  1  0
 16 40  1  0
 19 41  1  0
 20 42  1  0
 23 43  1  0
 24 44  1  0
M  CHG  3   9  -1  12  -1  22  -1
M  END
>  <UniqueID>  (46) 
44

>  <SMILES>  (46) 
CCN(CC)Cc1c([O-])cc([O-])c2c(=O)cc(-c3ccc([O-])cc3)oc12

>  <Energy>  (46) 
58.144056920684676

>  <Genealogy>  (46) 
CCN(CC)Cc1c([O-])cc([O-])c2c(=O)cc(-c3ccc([O-])cc3)oc12 (protonated)
CCN(CC)Cc1c([O-])cc([O-])c2c(=O)cc(-c3ccc([O-])cc3)oc12 (3D coordinates assigned)
CCN(CC)Cc1c([O-])cc([O-])c2c(=O)cc(-c3ccc([O-])cc3)oc12 (optimized conformer: 58.144056920684676 kcal/mol)

>  <smiles>  (46) 
CCN(CC)Cc1c(O)cc(O)c2c(=O)cc(-c3ccc(O)cc3)oc12

>  <score_type>  (46) 
oracle

>  <origin>  (46) 
adgpu

>  <m_score__min__energy>  (46) 
-11.1

>  <m_primary>  (46) 
energy

$$$$
46:0
     RDKit          3D

 66 70  0  0  0  0  0  0  0  0999 V2000
   -1.5660   18.9760  -31.5600 F   0  0  0  0  0  0  0  0  0  0  0  0
   -0.8400   19.9810  -30.9460 C   0  0  0  0  0  0  0  0  0  0  0  0
    0.2410   20.3100  -31.7460 F   0  0  0  0  0  0  0  0  0  0  0  0
   -0.3560   19.5120  -29.7370 F   0  0  0  0  0  0  0  0  0  0  0  0
   -1.7310   21.1780  -30.7350 C   0  0  0  0  0  0  0  0  0  0  0  0
   -1.5730   21.9930  -29.6010 C   0  0  0  0  0  0  0  0  0  0  0  0
   -2.4300   23.0740  -29.3820 C   0  0  0  0  0  0  0  0  0  0  0  0
   -3.4650   23.3440  -30.2800 C   0  0  0  0  0  0  0  0  0  0  0  0
   -3.6540   22.5280  -31.4040 C   0  0  0  0  0  0  0  0  0  0  0  0
   -4.7850   22.7900  -32.3620 C   0  0  0  0  0  0  0  0  0  0  0  0
   -6.0570   22.9230  -31.6200 N   0  0  0  0  0  0  0  0  0  0  0  0
   -7.1850   23.4180  -32.4420 C   0  0  0  0  0  0  0  0  0  0  0  0
   -8.5720   23.0110  -31.9320 C   0  0  0  0  0  0  0  0  0  0  0  0
   -8.9270   21.6990  -32.3500 O   0  0  0  0  0  0  0  0  0  0  0  0
   -8.0760   20.5880  -32.2940 C   0  0  0  0  0  0  0  0  0  0  0  0
   -8.4320   19.4680  -33.0540 C   0  0  0  0  0  0  0  0  0  0  0  0
   -7.6510   18.3140  -33.0380 C   0  0  0  0  0  0  0  0  0  0  0  0
   -6.4910   18.2580  -32.2540 C   0  0  0  0  0  0  0  0  0  0  0  0
   -5.6260   17.0170  -32.2520 C   0  0  0  0  0  0  0  0  0  0  0  0
   -4.6950   16.9830  -33.4070 N   0  0  0  0  0  0  0  0  0  0  0  0
   -4.7920   18.2480  -34.1930 C   0  0  0  0  0  0  0  0  0  0  0  0
   -3.6710   19.2460  -33.8730 C   0  0  0  0  0  0  0  0  0  0  0  0
   -2.3620   18.6180  -34.0970 N   0  0  0  0  0  0  0  0  0  0  0  0
   -1.2110   19.4180  -34.4480 C   0  0  0  0  0  0  0  0  0  0  0  0
   -1.2020   20.8050  -34.2100 C   0  0  0  0  0  0  0  0  0  0  0  0
   -0.0860   21.5770  -34.5470 C   0  0  0  0  0  0  0  0  0  0  0  0
    1.0340   20.9740  -35.1270 C   0  0  0  0  0  0  0  0  0  0  0  0
    2.4340   21.9450  -35.5490 Cl  0  0  0  0  0  0  0  0  0  0  0  0
    1.0380   19.5980  -35.3690 C   0  0  0  0  0  0  0  0  0  0  0  0
   -0.0760   18.8240  -35.0320 C   0  0  0  0  0  0  0  0  0  0  0  0
   -2.2440   17.1630  -33.9440 C   0  0  0  0  0  0  0  0  0  0  0  0
   -3.3100   16.6550  -32.9670 C   0  0  0  0  0  0  0  0  0  0  0  0
   -6.1130   19.3820  -31.5070 C   0  0  0  0  0  0  0  0  0  0  0  0
   -6.8810   20.5610  -31.5310 C   0  0  0  0  0  0  0  0  0  0  0  0
   -6.3740   21.7650  -30.7580 C   0  0  0  0  0  0  0  0  0  0  0  0
   -2.7930   21.4390  -31.6210 C   0  0  0  0  0  0  0  0  0  0  0  0
   -0.7693   21.7782  -28.8813 H   0  0  0  0  0  0  0  0  0  0  0  0
   -2.2892   23.7149  -28.4992 H   0  0  0  0  0  0  0  0  0  0  0  0
   -4.1339   24.1995  -30.1047 H   0  0  0  0  0  0  0  0  0  0  0  0
   -4.5865   23.7206  -32.9140 H   0  0  0  0  0  0  0  0  0  0  0  0
   -4.8642   21.9480  -33.0655 H   0  0  0  0  0  0  0  0  0  0  0  0
   -7.1366   24.5167  -32.4652 H   0  0  0  0  0  0  0  0  0  0  0  0
   -7.0713   22.9604  -33.4358 H   0  0  0  0  0  0  0  0  0  0  0  0
   -8.5709   23.0458  -30.8326 H   0  0  0  0  0  0  0  0  0  0  0  0
   -9.3084   23.7129  -32.3504 H   0  0  0  0  0  0  0  0  0  0  0  0
   -9.3410   19.4991  -33.6726 H   0  0  0  0  0  0  0  0  0  0  0  0
   -7.9462   17.4440  -33.6429 H   0  0  0  0  0  0  0  0  0  0  0  0
   -5.0385   16.9958  -31.3223 H   0  0  0  0  0  0  0  0  0  0  0  0
   -6.2889   16.1422  -32.3257 H   0  0  0  0  0  0  0  0  0  0  0  0
   -5.0130   16.2120  -34.0420 H   0  0  0  0  0  0  0  0  0  0  0  0
   -4.7435   17.9991  -35.2634 H   0  0  0  0  0  0  0  0  0  0  0  0
   -5.7441   18.7283  -33.9232 H   0  0  0  0  0  0  0  0  0  0  0  0
   -3.7694   20.1262  -34.5253 H   0  0  0  0  0  0  0  0  0  0  0  0
   -3.7495   19.5526  -32.8195 H   0  0  0  0  0  0  0  0  0  0  0  0
   -2.0804   21.2859  -33.7550 H   0  0  0  0  0  0  0  0  0  0  0  0
   -0.0893   22.6602  -34.3555 H   0  0  0  0  0  0  0  0  0  0  0  0
    1.9190   19.1231  -35.8254 H   0  0  0  0  0  0  0  0  0  0  0  0
   -0.0658   17.7411  -35.2248 H   0  0  0  0  0  0  0  0  0  0  0  0
   -2.3857   16.6804  -34.9223 H   0  0  0  0  0  0  0  0  0  0  0  0
   -1.2459   16.9191  -33.5512 H   0  0  0  0  0  0  0  0  0  0  0  0
   -3.2172   15.5623  -32.8816 H   0  0  0  0  0  0  0  0  0  0  0  0
   -3.1409   17.1538  -32.0013 H   0  0  0  0  0  0  0  0  0  0  0  0
   -5.2017   19.3420  -30.8923 H   0  0  0  0  0  0  0  0  0  0  0  0
   -7.1477   22.0680  -30.0371 H   0  0  0  0  0  0  0  0  0  0  0  0
   -5.4398   21.4633  -30.2617 H   0  0  0  0  0  0  0  0  0  0  0  0
   -2.9504   20.7846  -32.4911 H   0  0  0  0  0  0  0  0  0  0  0  0
  1  2  1  0
  2  3  1  0
  2  4  1  0
  2  5  1  0
  5  6  2  0
  6  7  1  0
  7  8  2  0
  8  9  1  0
  9 10  1  0
 10 11  1  0
 11 12  1  0
 12 13  1  0
 13 14  1  0
 14 15  1  0
 15 16  2  0
 16 17  1  0
 17 18  2  0
 18 19  1  0
 19 20  1  0
 20 21  1  0
 21 22  1  0
 22 23  1  0
 23 24  1  0
 24 25  2  0
 25 26  1  0
 26 27  2  0
 27 28  1  0
 27 29  1  0
 29 30  2  0
 23 31  1  0
 31 32  1  0
 18 33  1  0
 33 34  2  0
 34 35  1  0
  9 36  2  0
 36  5  1  0
 35 11  1  0
 34 15  1  0
 32 20  1  0
 30 24  1  0
  6 37  1  0
  7 38  1  0
  8 39  1  0
 10 40  1  0
 10 41  1  0
 12 42  1  0
 12 43  1  0
 13 44  1  0
 13 45  1  0
 16 46  1  0
 17 47  1  0
 19 48  1  0
 19 49  1  0
 20 50  1  0
 21 51  1  0
 21 52  1  0
 22 53  1  0
 22 54  1  0
 25 55  1  0
 26 56  1  0
 29 57  1  0
 30 58  1  0
 31 59  1  0
 31 60  1  0
 32 61  1  0
 32 62  1  0
 33 63  1  0
 35 64  1  0
 35 65  1  0
 36 66  1  0
M  CHG  1  20   1
M  END
>  <UniqueID>  (47) 
45

>  <SMILES>  (47) 
FC(F)(F)c1cccc(CN2CCOc3ccc(C[NH+]4CCN(c5ccc(Cl)cc5)CC4)cc3C2)c1

>  <Energy>  (47) 
95.586040363762

>  <Genealogy>  (47) 
FC(F)(F)c1cccc(CN2CCOc3ccc(C[NH+]4CCN(c5ccc(Cl)cc5)CC4)cc3C2)c1 (protonated)
FC(F)(F)c1cccc(CN2CCOc3ccc(C[NH+]4CCN(c5ccc(Cl)cc5)CC4)cc3C2)c1 (3D coordinates assigned)
FC(F)(F)c1cccc(CN2CCOc3ccc(C[NH+]4CCN(c5ccc(Cl)cc5)CC4)cc3C2)c1 (nonaromatic ring conformer: 95.586040363762 kcal/mol)

>  <smiles>  (47) 
FC(F)(F)c1cccc(CN2CCOc3ccc(CN4CCN(c5ccc(Cl)cc5)CC4)cc3C2)c1

>  <score_type>  (47) 
oracle

>  <origin>  (47) 
adgpu

>  <m_score__min__energy>  (47) 
-7.8499999999999996

>  <m_primary>  (47) 
energy

$$$$
47:0
     RDKit          3D

 47 49  0  0  0  0  0  0  0  0999 V2000
   -8.5030   20.9310  -32.3380 C   0  0  0  0  0  0  0  0  0  0  0  0
   -8.7490   22.1000  -31.3910 C   0  0  0  0  0  0  0  0  0  0  0  0
   -7.4770   22.8630  -31.1430 C   0  0  0  0  0  0  0  0  0  0  0  0
   -6.5690   23.0840  -32.1900 C   0  0  0  0  0  0  0  0  0  0  0  0
   -5.3880   23.7970  -31.9600 C   0  0  0  0  0  0  0  0  0  0  0  0
   -5.0980   24.2960  -30.6850 C   0  0  0  0  0  0  0  0  0  0  0  0
   -3.8610   24.9920  -30.4780 N   0  0  0  0  0  0  0  0  0  0  0  0
   -2.7330   24.5310  -29.7190 C   0  0  0  0  0  0  0  0  0  0  0  0
   -2.0240   25.3850  -29.1240 O   0  0  0  0  0  0  0  0  0  0  0  0
   -2.3290   23.1010  -29.6930 C   0  0  0  0  0  0  0  0  0  0  0  0
   -2.7540   22.2460  -30.7270 C   0  0  0  0  0  0  0  0  0  0  0  0
   -2.4270   20.8790  -30.7220 C   0  0  0  0  0  0  0  0  0  0  0  0
   -2.9630   19.9560  -31.7550 C   0  0  0  0  0  0  0  0  0  0  0  0
   -2.2610   18.9770  -32.1280 O   0  0  0  0  0  0  0  0  0  0  0  0
   -4.2760   20.1410  -32.3110 N   0  0  0  0  0  0  0  0  0  0  0  0
   -4.9970   19.0760  -32.9460 C   0  0  0  0  0  0  0  0  0  0  0  0
   -6.2590   18.6950  -32.4610 C   0  0  0  0  0  0  0  0  0  0  0  0
   -6.9530   17.6370  -33.0530 C   0  0  0  0  0  0  0  0  0  0  0  0
   -6.3920   16.9470  -34.1270 C   0  0  0  0  0  0  0  0  0  0  0  0
   -5.1370   17.3120  -34.6160 C   0  0  0  0  0  0  0  0  0  0  0  0
   -4.4280   18.3750  -34.0330 C   0  0  0  0  0  0  0  0  0  0  0  0
   -3.1560   18.7530  -34.5750 N   0  0  0  0  0  0  0  0  0  0  0  0
   -1.6350   20.3760  -29.6770 C   0  0  0  0  0  0  0  0  0  0  0  0
   -1.1850   21.2190  -28.6600 C   0  0  0  0  0  0  0  0  0  0  0  0
   -1.5280   22.5740  -28.6550 C   0  0  0  0  0  0  0  0  0  0  0  0
   -0.9930   23.5520  -27.2910 Cl  0  0  0  0  0  0  0  0  0  0  0  0
   -6.0330   24.1240  -29.6490 C   0  0  0  0  0  0  0  0  0  0  0  0
   -7.2120   23.4070  -29.8760 C   0  0  0  0  0  0  0  0  0  0  0  0
   -8.3112   20.0194  -31.7531 H   0  0  0  0  0  0  0  0  0  0  0  0
   -9.3891   20.7801  -32.9721 H   0  0  0  0  0  0  0  0  0  0  0  0
   -7.6313   21.1500  -32.9721 H   0  0  0  0  0  0  0  0  0  0  0  0
   -9.4935   22.7755  -31.8376 H   0  0  0  0  0  0  0  0  0  0  0  0
   -9.1164   21.7057  -30.4321 H   0  0  0  0  0  0  0  0  0  0  0  0
   -6.7870   22.6949  -33.1955 H   0  0  0  0  0  0  0  0  0  0  0  0
   -4.6824   23.9667  -32.7867 H   0  0  0  0  0  0  0  0  0  0  0  0
   -3.3529   22.6550  -31.5541 H   0  0  0  0  0  0  0  0  0  0  0  0
   -4.7750   21.0470  -32.1760 H   0  0  0  0  0  0  0  0  0  0  0  0
   -6.7032   19.2327  -31.6104 H   0  0  0  0  0  0  0  0  0  0  0  0
   -7.9433   17.3478  -32.6714 H   0  0  0  0  0  0  0  0  0  0  0  0
   -6.9400   16.1130  -34.5899 H   0  0  0  0  0  0  0  0  0  0  0  0
   -4.7002   16.7636  -35.4636 H   0  0  0  0  0  0  0  0  0  0  0  0
   -2.7080   18.2150  -35.3490 H   0  0  0  0  0  0  0  0  0  0  0  0
   -2.6280   19.5610  -34.1790 H   0  0  0  0  0  0  0  0  0  0  0  0
   -1.3673   19.3092  -29.6600 H   0  0  0  0  0  0  0  0  0  0  0  0
   -0.5546   20.8134  -27.8549 H   0  0  0  0  0  0  0  0  0  0  0  0
   -5.8363   24.5550  -28.6563 H   0  0  0  0  0  0  0  0  0  0  0  0
   -7.9348   23.2686  -29.0585 H   0  0  0  0  0  0  0  0  0  0  0  0
  1  2  1  0
  2  3  1  0
  3  4  2  0
  4  5  1  0
  5  6  2  0
  6  7  1  0
  7  8  1  0
  8  9  2  0
  8 10  1  0
 10 11  2  0
 11 12  1  0
 12 13  1  0
 13 14  2  0
 13 15  1  0
 15 16  1  0
 16 17  2  0
 17 18  1  0
 18 19  2  0
 19 20  1  0
 20 21  2  0
 21 22  1  0
 12 23  2  0
 23 24  1  0
 24 25  2  0
 25 26  1  0
  6 27  1  0
 27 28  2  0
 28  3  1  0
 25 10  1  0
 21 16  1  0
  1 29  1  0
  1 30  1  0
  1 31  1  0
  2 32  1  0
  2 33  1  0
  4 34  1  0
  5 35  1  0
 11 36  1  0
 15 37  1  0
 17 38  1  0
 18 39  1  0
 19 40  1  0
 20 41  1  0
 22 42  1  0
 22 43  1  0
 23 44  1  0
 24 45  1  0
 27 46  1  0
 28 47  1  0
M  CHG  1   7  -1
M  END
>  <UniqueID>  (48) 
46

>  <SMILES>  (48) 
CCc1ccc([N-]C(=O)c2cc(C(=O)Nc3ccccc3N)ccc2Cl)cc1

>  <Energy>  (48) 
61.46572204765714

>  <Genealogy>  (48) 
CCc1ccc([N-]C(=O)c2cc(C(=O)Nc3ccccc3N)ccc2Cl)cc1 (protonated)
CCc1ccc([N-]C(=O)c2cc(C(=O)Nc3ccccc3N)ccc2Cl)cc1 (3D coordinates assigned)
CCc1ccc([N-]C(=O)c2cc(C(=O)Nc3ccccc3N)ccc2Cl)cc1 (optimized conformer: 61.46572204765714 kcal/mol)

>  <smiles>  (48) 
CCc1ccc(NC(=O)c2cc(C(=O)Nc3ccccc3N)ccc2Cl)cc1

>  <score_type>  (48) 
oracle

>  <origin>  (48) 
adgpu

>  <m_score__min__energy>  (48) 
-10.630000000000001

>  <m_primary>  (48) 
energy

$$$$
48:0
     RDKit          3D

 45 47  0  0  0  0  0  0  0  0999 V2000
   -4.3120   24.1680  -27.9180 C   0  0  0  0  0  0  0  0  0  0  0  0
   -4.6280   23.4670  -29.2110 C   0  0  0  0  0  0  0  0  0  0  0  0
   -3.9710   22.2680  -29.5270 C   0  0  0  0  0  0  0  0  0  0  0  0
   -4.2800   21.5720  -30.7070 C   0  0  0  0  0  0  0  0  0  0  0  0
   -3.6530   20.3620  -31.0330 O   0  0  0  0  0  0  0  0  0  0  0  0
   -4.1150   19.4500  -31.9950 C   0  0  0  0  0  0  0  0  0  0  0  0
   -5.4510   19.0380  -31.9280 C   0  0  0  0  0  0  0  0  0  0  0  0
   -5.9600   18.1220  -32.8520 C   0  0  0  0  0  0  0  0  0  0  0  0
   -7.6410   17.6280  -32.7670 Cl  0  0  0  0  0  0  0  0  0  0  0  0
   -5.1270   17.5960  -33.8410 C   0  0  0  0  0  0  0  0  0  0  0  0
   -3.7850   17.9780  -33.9060 C   0  0  0  0  0  0  0  0  0  0  0  0
   -3.2640   18.9080  -32.9860 C   0  0  0  0  0  0  0  0  0  0  0  0
   -1.8780   19.2830  -33.0080 N   0  0  0  0  0  0  0  0  0  0  0  0
   -1.2530   20.8930  -32.8390 S   0  0  0  0  0  0  0  0  0  0  0  0
    0.0870   20.9610  -33.5130 O   0  0  0  0  0  0  0  0  0  0  0  0
   -2.1930   21.8520  -33.5130 O   0  0  0  0  0  0  0  0  0  0  0  0
   -1.0540   21.3280  -31.1430 C   0  0  0  0  0  0  0  0  0  0  0  0
   -0.8630   20.3210  -30.1870 C   0  0  0  0  0  0  0  0  0  0  0  0
   -0.6940   20.6520  -28.8420 C   0  0  0  0  0  0  0  0  0  0  0  0
   -0.7110   21.9900  -28.4410 C   0  0  0  0  0  0  0  0  0  0  0  0
   -0.9030   23.0140  -29.3870 C   0  0  0  0  0  0  0  0  0  0  0  0
   -0.8950   24.4330  -28.9710 C   0  0  0  0  0  0  0  0  0  0  0  0
    0.0600   24.8970  -28.2930 O   0  0  0  0  0  0  0  0  0  0  0  0
   -1.9370   25.2780  -29.3330 O   0  0  0  0  0  0  0  0  0  0  0  0
   -1.0840   22.6700  -30.7380 C   0  0  0  0  0  0  0  0  0  0  0  0
   -5.2160   22.1060  -31.5950 C   0  0  0  0  0  0  0  0  0  0  0  0
   -5.8880   23.3020  -31.2980 C   0  0  0  0  0  0  0  0  0  0  0  0
   -6.9130   23.8360  -32.2620 C   0  0  0  0  0  0  0  0  0  0  0  0
   -5.5970   23.9840  -30.0980 C   0  0  0  0  0  0  0  0  0  0  0  0
   -6.4480   25.4830  -29.7020 Cl  0  0  0  0  0  0  0  0  0  0  0  0
   -4.6013   23.5262  -27.0728 H   0  0  0  0  0  0  0  0  0  0  0  0
   -3.2330   24.3761  -27.8679 H   0  0  0  0  0  0  0  0  0  0  0  0
   -4.8706   25.1143  -27.8679 H   0  0  0  0  0  0  0  0  0  0  0  0
   -3.2065   21.8694  -28.8438 H   0  0  0  0  0  0  0  0  0  0  0  0
   -6.1062   19.4391  -31.1407 H   0  0  0  0  0  0  0  0  0  0  0  0
   -5.5287   16.8784  -34.5715 H   0  0  0  0  0  0  0  0  0  0  0  0
   -3.1314   17.5499  -34.6803 H   0  0  0  0  0  0  0  0  0  0  0  0
   -0.8463   19.2660  -30.4981 H   0  0  0  0  0  0  0  0  0  0  0  0
   -0.5470   19.8574  -28.0957 H   0  0  0  0  0  0  0  0  0  0  0  0
   -0.5735   22.2446  -27.3797 H   0  0  0  0  0  0  0  0  0  0  0  0
   -1.2507   23.4609  -31.4842 H   0  0  0  0  0  0  0  0  0  0  0  0
   -5.4293   21.5830  -32.5389 H   0  0  0  0  0  0  0  0  0  0  0  0
   -7.7518   24.2730  -31.7004 H   0  0  0  0  0  0  0  0  0  0  0  0
   -6.4532   24.6092  -32.8951 H   0  0  0  0  0  0  0  0  0  0  0  0
   -7.2831   23.0161  -32.8951 H   0  0  0  0  0  0  0  0  0  0  0  0
  1  2  1  0
  2  3  2  0
  3  4  1  0
  4  5  1  0
  5  6  1  0
  6  7  2  0
  7  8  1  0
  8  9  1  0
  8 10  2  0
 10 11  1  0
 11 12  2  0
 12 13  1  0
 13 14  1  0
 14 15  2  0
 14 16  2  0
 14 17  1  0
 17 18  2  0
 18 19  1  0
 19 20  2  0
 20 21  1  0
 21 22  1  0
 22 23  2  0
 22 24  1  0
 21 25  2  0
  4 26  2  0
 26 27  1  0
 27 28  1  0
 27 29  2  0
 29 30  1  0
 29  2  1  0
 12  6  1  0
 25 17  1  0
  1 31  1  0
  1 32  1  0
  1 33  1  0
  3 34  1  0
  7 35  1  0
 10 36  1  0
 11 37  1  0
 18 38  1  0
 19 39  1  0
 20 40  1  0
 25 41  1  0
 26 42  1  0
 28 43  1  0
 28 44  1  0
 28 45  1  0
M  CHG  2  13  -1  24  -1
M  END
>  <UniqueID>  (49) 
47

>  <SMILES>  (49) 
Cc1cc(Oc2cc(Cl)ccc2[N-]S(=O)(=O)c2cccc(C(=O)[O-])c2)cc(C)c1Cl

>  <Energy>  (49) 
58.199007277593815

>  <Genealogy>  (49) 
Cc1cc(Oc2cc(Cl)ccc2[N-]S(=O)(=O)c2cccc(C(=O)[O-])c2)cc(C)c1Cl (protonated)
Cc1cc(Oc2cc(Cl)ccc2[N-]S(=O)(=O)c2cccc(C(=O)[O-])c2)cc(C)c1Cl (3D coordinates assigned)
Cc1cc(Oc2cc(Cl)ccc2[N-]S(=O)(=O)c2cccc(C(=O)[O-])c2)cc(C)c1Cl (optimized conformer: 58.199007277593815 kcal/mol)

>  <smiles>  (49) 
Cc1cc(Oc2cc(Cl)ccc2NS(=O)(=O)c2cccc(C(=O)O)c2)cc(C)c1Cl

>  <score_type>  (49) 
oracle

>  <origin>  (49) 
adgpu

>  <m_score__min__energy>  (49) 
-11.390000000000001

>  <m_primary>  (49) 
energy

$$$$
