0:0
     RDKit          3D

 60 63  0  0  0  0  0  0  0  0999 V2000
   -2.2300   17.8910  -33.3500 C   0  0  0  0  0  0  0  0  0  0  0  0
   -3.3400   18.7310  -33.6500 O   0  0  0  0  0  0  0  0  0  0  0  0
   -3.6070   19.9550  -33.0170 C   0  0  0  0  0  0  0  0  0  0  0  0
   -2.5840   20.8620  -32.6800 C   0  0  0  0  0  0  0  0  0  0  0  0
   -2.8830   22.0480  -32.0050 C   0  0  0  0  0  0  0  0  0  0  0  0
   -4.2070   22.3530  -31.6700 C   0  0  0  0  0  0  0  0  0  0  0  0
   -4.5910   23.7900  -30.7230 S   0  0  0  0  0  0  0  0  0  0  0  0
   -5.4930   24.6970  -31.5130 O   0  0  0  0  0  0  0  0  0  0  0  0
   -5.3070   23.3620  -29.4710 O   0  0  0  0  0  0  0  0  0  0  0  0
   -3.1500   24.6600  -30.2870 N   0  0  0  0  0  0  0  0  0  0  0  0
   -2.3140   24.2190  -29.2110 C   0  0  0  0  0  0  0  0  0  0  0  0
   -2.3330   22.8750  -28.8030 C   0  0  0  0  0  0  0  0  0  0  0  0
   -1.5780   22.4590  -27.6990 C   0  0  0  0  0  0  0  0  0  0  0  0
   -1.6660   20.7880  -27.1500 S   0  0  0  0  0  0  0  0  0  0  0  0
   -2.9900   20.2050  -27.5590 O   0  0  0  0  0  0  0  0  0  0  0  0
   -1.5660   20.7430  -25.6480 O   0  0  0  0  0  0  0  0  0  0  0  0
   -0.3740   19.8670  -27.8770 N   0  0  0  0  0  0  0  0  0  0  0  0
   -0.4550   18.4560  -27.5010 C   0  0  0  0  0  0  0  0  0  0  0  0
    0.1840   17.6660  -28.6330 C   0  0  0  0  0  0  0  0  0  0  0  0
    0.1650   18.5970  -29.8350 C   0  0  0  0  0  0  0  0  0  0  0  0
   -0.4560   19.8930  -29.3380 C   0  0  0  0  0  0  0  0  0  0  0  0
   -0.7580   23.3810  -27.0350 C   0  0  0  0  0  0  0  0  0  0  0  0
   -0.7100   24.7110  -27.4600 C   0  0  0  0  0  0  0  0  0  0  0  0
   -1.4850   25.1330  -28.5440 C   0  0  0  0  0  0  0  0  0  0  0  0
   -1.4450   26.4650  -28.9390 O   0  0  0  0  0  0  0  0  0  0  0  0
   -5.2310   21.4700  -32.0280 C   0  0  0  0  0  0  0  0  0  0  0  0
   -4.9380   20.2690  -32.6880 C   0  0  0  0  0  0  0  0  0  0  0  0
   -5.9910   19.3400  -32.9830 N   0  0  0  0  0  0  0  0  0  0  0  0
   -7.0470   19.1090  -31.9920 C   0  0  0  0  0  0  0  0  0  0  0  0
   -7.9310   17.9300  -32.4100 C   0  0  0  0  0  0  0  0  0  0  0  0
   -7.1070   16.8490  -32.9630 N   0  0  0  0  0  0  0  0  0  0  0  0
   -6.4390   17.2370  -34.2210 C   0  0  0  0  0  0  0  0  0  0  0  0
   -6.0930   18.7380  -34.3140 C   0  0  0  0  0  0  0  0  0  0  0  0
   -2.1184   17.8066  -32.2589 H   0  0  0  0  0  0  0  0  0  0  0  0
   -2.3990   16.8926  -33.7797 H   0  0  0  0  0  0  0  0  0  0  0  0
   -1.3151   18.3250  -33.7797 H   0  0  0  0  0  0  0  0  0  0  0  0
   -1.5421   20.6351  -32.9501 H   0  0  0  0  0  0  0  0  0  0  0  0
   -2.0751   22.7443  -31.7360 H   0  0  0  0  0  0  0  0  0  0  0  0
   -3.1090   25.6670  -30.5680 H   0  0  0  0  0  0  0  0  0  0  0  0
   -2.9444   22.1450  -29.3537 H   0  0  0  0  0  0  0  0  0  0  0  0
    0.0905   18.2818  -26.5618 H   0  0  0  0  0  0  0  0  0  0  0  0
   -1.4989   18.1475  -27.3425 H   0  0  0  0  0  0  0  0  0  0  0  0
    1.2174   17.3912  -28.3752 H   0  0  0  0  0  0  0  0  0  0  0  0
   -0.3551   16.7282  -28.8330 H   0  0  0  0  0  0  0  0  0  0  0  0
    1.1877   18.7758  -30.1985 H   0  0  0  0  0  0  0  0  0  0  0  0
   -0.4037   18.1682  -30.6733 H   0  0  0  0  0  0  0  0  0  0  0  0
    0.1003   20.7557  -29.7334 H   0  0  0  0  0  0  0  0  0  0  0  0
   -1.4995   19.9853  -29.6736 H   0  0  0  0  0  0  0  0  0  0  0  0
   -0.1506   23.0569  -26.1771 H   0  0  0  0  0  0  0  0  0  0  0  0
   -0.0595   25.4292  -26.9393 H   0  0  0  0  0  0  0  0  0  0  0  0
   -6.2752   21.7204  -31.7894 H   0  0  0  0  0  0  0  0  0  0  0  0
   -6.5863   18.8878  -31.0179 H   0  0  0  0  0  0  0  0  0  0  0  0
   -7.6709   20.0123  -31.9219 H   0  0  0  0  0  0  0  0  0  0  0  0
   -8.4780   17.5568  -31.5316 H   0  0  0  0  0  0  0  0  0  0  0  0
   -8.6410   18.2690  -33.1788 H   0  0  0  0  0  0  0  0  0  0  0  0
   -6.3760   16.5950  -32.2570 H   0  0  0  0  0  0  0  0  0  0  0  0
   -5.5057   16.6614  -34.3083 H   0  0  0  0  0  0  0  0  0  0  0  0
   -7.1475   17.0239  -35.0350 H   0  0  0  0  0  0  0  0  0  0  0  0
   -5.1310   18.8531  -34.8348 H   0  0  0  0  0  0  0  0  0  0  0  0
   -6.8960   19.2476  -34.8668 H   0  0  0  0  0  0  0  0  0  0  0  0
  1  2  1  0
  2  3  1  0
  3  4  2  0
  4  5  1  0
  5  6  2  0
  6  7  1  0
  7  8  2  0
  7  9  2  0
  7 10  1  0
 10 11  1  0
 11 12  2  0
 12 13  1  0
 13 14  1  0
 14 15  2  0
 14 16  2  0
 14 17  1  0
 17 18  1  0
 18 19  1  0
 19 20  1  0
 20 21  1  0
 13 22  2  0
 22 23  1  0
 23 24  2  0
 24 25  1  0
  6 26  1  0
 26 27  2  0
 27 28  1  0
 28 29  1  0
 29 30  1  0
 30 31  1  0
 31 32  1  0
 32 33  1  0
 27  3  1  0
 33 28  1  0
 24 11  1  0
 21 17  1  0
  1 34  1  0
  1 35  1  0
  1 36  1  0
  4 37  1  0
  5 38  1  0
 10 39  1  0
 12 40  1  0
 18 41  1  0
 18 42  1  0
 19 43  1  0
 19 44  1  0
 20 45  1  0
 20 46  1  0
 21 47  1  0
 21 48  1  0
 22 49  1  0
 23 50  1  0
 26 51  1  0
 29 52  1  0
 29 53  1  0
 30 54  1  0
 30 55  1  0
 31 56  1  0
 32 57  1  0
 32 58  1  0
 33 59  1  0
 33 60  1  0
M  CHG  1  25  -1
M  END
>  <UniqueID>  (1) 
1

>  <SMILES>  (1) 
COc1ccc(S(=O)(=O)Nc2cc(S(=O)(=O)N3CCCC3)ccc2[O-])cc1N1CCNCC1

>  <Energy>  (1) 
73.06258736869103

>  <Genealogy>  (1) 
COc1ccc(S(=O)(=O)Nc2cc(S(=O)(=O)N3CCCC3)ccc2[O-])cc1N1CCNCC1 (protonated)
COc1ccc(S(=O)(=O)Nc2cc(S(=O)(=O)N3CCCC3)ccc2[O-])cc1N1CCNCC1 (3D coordinates assigned)
COc1ccc(S(=O)(=O)Nc2cc(S(=O)(=O)N3CCCC3)ccc2[O-])cc1N1CCNCC1 (nonaromatic ring conformer: 73.06258736869103 kcal/mol)

>  <smiles>  (1) 
COc1ccc(S(=O)(=O)Nc2cc(S(=O)(=O)N3CCCC3)ccc2O)cc1N1CCNCC1

>  <score_type>  (1) 
oracle

>  <origin>  (1) 
adgpu

>  <m_score__min__energy>  (1) 
-14.1

>  <m_primary>  (1) 
energy

$$$$
1:0
     RDKit          3D

 39 41  0  0  1  0  0  0  0  0999 V2000
   -8.9080   18.5840  -31.3050 C   0  0  0  0  0  0  0  0  0  0  0  0
   -7.4970   18.4640  -31.3370 O   0  0  0  0  0  0  0  0  0  0  0  0
   -6.9110   18.1560  -32.5570 C   0  0  0  0  0  0  0  0  0  0  0  0
   -7.0030   16.9230  -33.1180 N   0  0  0  0  0  0  0  0  0  0  0  0
   -6.4280   16.6480  -34.2990 C   0  0  0  0  0  0  0  0  0  0  0  0
   -5.7300   17.6450  -34.9490 C   0  0  0  0  0  0  0  0  0  0  0  0
   -5.6020   18.9230  -34.4260 C   0  0  0  0  0  0  0  0  0  0  0  0
   -6.2110   19.1830  -33.1930 C   0  0  0  0  0  0  0  0  0  0  0  0
   -6.1210   20.5080  -32.5730 C   0  0  0  0  0  0  0  0  0  0  0  0
   -7.2000   21.3110  -32.3760 C   0  0  0  0  0  0  0  0  0  0  0  0
   -7.0350   22.5490  -31.7830 C   0  0  0  0  0  0  0  0  0  0  0  0
   -5.8020   22.9770  -31.3950 C   0  0  0  0  0  0  0  0  0  0  0  0
   -5.5500   24.5520  -30.6340 S   0  0  0  0  0  0  0  0  0  0  0  0
   -6.3070   24.6040  -29.3450 O   0  0  0  0  0  0  0  0  0  0  0  0
   -6.0880   25.6040  -31.5840 O   0  0  0  0  0  0  0  0  0  0  0  0
   -3.8450   24.7010  -30.4120 N   0  0  0  0  0  0  0  0  0  0  0  0
   -3.1820   24.1740  -29.4630 C   0  0  0  0  0  0  0  0  0  0  0  0
   -3.8610   23.4210  -28.5280 C   0  0  0  0  0  0  0  0  0  0  0  0
   -3.1100   22.8640  -27.5130 C   0  0  0  0  0  0  0  0  0  0  0  0
   -1.7700   23.0840  -27.4900 N   0  0  0  0  0  0  0  0  0  0  0  0
   -1.1540   23.8270  -28.4250 C   0  0  0  0  0  0  0  0  0  0  0  0
   -1.8550   24.3830  -29.4260 N   0  0  0  0  0  0  0  0  0  0  0  0
   -4.6950   22.1490  -31.5990 C   0  0  0  0  0  0  0  0  0  0  0  0
   -4.8530   20.9180  -32.1870 C   0  0  0  0  0  0  0  0  0  0  0  0
   -3.6960   20.1120  -32.3740 C   0  0  0  0  0  0  0  0  0  0  0  0
   -2.7510   19.4520  -32.5090 N   0  0  0  0  0  0  0  0  0  0  0  0
   -9.2499   18.6131  -30.2599 H   0  0  0  0  0  0  0  0  0  0  0  0
   -9.2088   19.5110  -31.8151 H   0  0  0  0  0  0  0  0  0  0  0  0
   -9.3610   17.7211  -31.8151 H   0  0  0  0  0  0  0  0  0  0  0  0
   -6.5118   15.6444  -34.7415 H   0  0  0  0  0  0  0  0  0  0  0  0
   -5.2583   17.4181  -35.9165 H   0  0  0  0  0  0  0  0  0  0  0  0
   -5.0420   19.7042  -34.9610 H   0  0  0  0  0  0  0  0  0  0  0  0
   -8.2008   20.9770  -32.6873 H   0  0  0  0  0  0  0  0  0  0  0  0
   -7.9102   23.1959  -31.6228 H   0  0  0  0  0  0  0  0  0  0  0  0
   -4.9491   23.2716  -28.5884 H   0  0  0  0  0  0  0  0  0  0  0  0
   -3.5891   22.2516  -26.7349 H   0  0  0  0  0  0  0  0  0  0  0  0
   -1.1790   22.6780  -26.7390 H   0  0  0  0  0  0  0  0  0  0  0  0
   -0.0662   23.9810  -28.3698 H   0  0  0  0  0  0  0  0  0  0  0  0
   -3.6945   22.4840  -31.2878 H   0  0  0  0  0  0  0  0  0  0  0  0
  1  2  1  0
  2  3  1  0
  3  4  2  0
  4  5  1  0
  5  6  2  0
  6  7  1  0
  7  8  2  0
  8  9  1  0
  9 10  2  0
 10 11  1  0
 11 12  2  0
 12 13  1  0
 13 14  2  0
 13 15  2  0
 13 16  1  0
 16 17  2  0
 17 18  1  0
 18 19  2  0
 19 20  1  0
 20 21  1  0
 21 22  2  0
 12 23  1  0
 23 24  2  0
 24 25  1  0
 25 26  3  0
  8  3  1  0
 24  9  1  0
 22 17  1  0
  1 27  1  0
  1 28  1  0
  1 29  1  0
  5 30  1  0
  6 31  1  0
  7 32  1  0
 10 33  1  0
 11 34  1  0
 18 35  1  0
 19 36  1  0
 20 37  1  0
 21 38  1  0
 23 39  1  0
M  END
>  <smiles>  (2) 
COc1ncccc1-c1ccc(S(=O)(=O)N=c2cc[nH]cn2)cc1C#N

>  <score_type>  (2) 
oracle

>  <origin>  (2) 
adgpu

>  <m_score__min__energy>  (2) 
-8.9499999999999993

>  <m_primary>  (2) 
energy

$$$$
2:0
     RDKit          3D

 36 38  0  0  1  0  0  0  0  0999 V2000
   -2.0560   19.5660  -33.4520 C   0  0  0  0  0  0  0  0  0  0  0  0
   -2.7770   20.4370  -32.7880 C   0  0  0  0  0  0  0  0  0  0  0  0
   -2.8460   20.5210  -31.3950 C   0  0  0  0  0  0  0  0  0  0  0  0
   -3.7150   21.5700  -31.1360 C   0  0  0  0  0  0  0  0  0  0  0  0
   -4.1370   22.0800  -32.3660 C   0  0  0  0  0  0  0  0  0  0  0  0
   -4.9860   23.1040  -32.4360 C   0  0  0  0  0  0  0  0  0  0  0  0
   -5.5250   23.7560  -31.2500 C   0  0  0  0  0  0  0  0  0  0  0  0
   -6.8130   23.6940  -30.7610 C   0  0  0  0  0  0  0  0  0  0  0  0
   -7.8870   22.9760  -31.3170 O   0  0  0  0  0  0  0  0  0  0  0  0
   -8.4070   21.8290  -30.6410 C   0  0  0  0  0  0  0  0  0  0  0  0
   -8.0420   20.6380  -31.4510 C   0  0  0  0  0  0  0  0  0  0  0  0
   -7.0880   20.7240  -32.4660 C   0  0  0  0  0  0  0  0  0  0  0  0
   -6.7480   19.6200  -33.2180 C   0  0  0  0  0  0  0  0  0  0  0  0
   -7.3590   18.3880  -32.9740 C   0  0  0  0  0  0  0  0  0  0  0  0
   -7.0420   17.2930  -33.6990 F   0  0  0  0  0  0  0  0  0  0  0  0
   -8.3130   18.2850  -31.9640 C   0  0  0  0  0  0  0  0  0  0  0  0
   -8.6420   19.3980  -31.2200 C   0  0  0  0  0  0  0  0  0  0  0  0
   -6.8180   24.4590  -29.6520 N   0  0  0  0  0  0  0  0  0  0  0  0
   -5.6190   24.9760  -29.4420 N   0  0  0  0  0  0  0  0  0  0  0  0
   -4.7770   24.5680  -30.4130 C   0  0  0  0  0  0  0  0  0  0  0  0
   -3.5740   24.8890  -30.4890 O   0  0  0  0  0  0  0  0  0  0  0  0
   -3.5560   21.3780  -33.3430 N   0  0  0  0  0  0  0  0  0  0  0  0
   -2.0614   19.5720  -34.5520 H   0  0  0  0  0  0  0  0  0  0  0  0
   -1.4457   18.8293  -32.9091 H   0  0  0  0  0  0  0  0  0  0  0  0
   -2.3230   19.8902  -30.6611 H   0  0  0  0  0  0  0  0  0  0  0  0
   -4.0170   21.9342  -30.1429 H   0  0  0  0  0  0  0  0  0  0  0  0
   -5.2917   23.4712  -33.4268 H   0  0  0  0  0  0  0  0  0  0  0  0
   -7.9654   21.7513  -29.6365 H   0  0  0  0  0  0  0  0  0  0  0  0
   -9.4986   21.9043  -30.5277 H   0  0  0  0  0  0  0  0  0  0  0  0
   -6.5995   21.6884  -32.6692 H   0  0  0  0  0  0  0  0  0  0  0  0
   -5.9930   19.7096  -34.0129 H   0  0  0  0  0  0  0  0  0  0  0  0
   -8.8013   17.3204  -31.7612 H   0  0  0  0  0  0  0  0  0  0  0  0
   -9.3961   19.3072  -30.4243 H   0  0  0  0  0  0  0  0  0  0  0  0
   -7.6780   24.5890  -29.0770 H   0  0  0  0  0  0  0  0  0  0  0  0
   -5.3780   25.6030  -28.6430 H   0  0  0  0  0  0  0  0  0  0  0  0
   -3.6960   21.5470  -34.3650 H   0  0  0  0  0  0  0  0  0  0  0  0
  1  2  2  0
  2  3  1  0
  3  4  2  0
  4  5  1  0
  5  6  2  0
  6  7  1  0
  7  8  2  0
  8  9  1  0
  9 10  1  0
 10 11  1  0
 11 12  2  0
 12 13  1  0
 13 14  2  0
 14 15  1  0
 14 16  1  0
 16 17  2  0
  8 18  1  0
 18 19  1  0
 19 20  1  0
 20 21  2  0
  5 22  1  0
 22  2  1  0
 20  7  1  0
 17 11  1  0
  1 23  1  0
  1 24  1  0
  3 25  1  0
  4 26  1  0
  6 27  1  0
 10 28  1  0
 10 29  1  0
 12 30  1  0
 13 31  1  0
 16 32  1  0
 17 33  1  0
 18 34  1  0
 19 35  1  0
 22 36  1  0
M  END
>  <smiles>  (3) 
C=c1ccc(=Cc2c(OCc3ccc(F)cc3)[nH][nH]c2=O)[nH]1

>  <score_type>  (3) 
oracle

>  <origin>  (3) 
adgpu

>  <m_score__min__energy>  (3) 
-8.8900000000000006

>  <m_primary>  (3) 
energy

$$$$
3:0
     RDKit          3D

 60 62  0  0  0  0  0  0  0  0999 V2000
   -4.9740   15.6350  -34.1510 C   0  0  0  0  0  0  0  0  0  0  0  0
   -3.7710   16.5720  -33.9300 C   0  0  0  0  0  0  0  0  0  0  0  0
   -2.5610   15.9490  -34.6580 C   0  0  0  0  0  0  0  0  0  0  0  0
   -4.1160   17.9500  -34.4040 N   0  0  0  0  0  0  0  0  0  0  0  0
   -3.8360   19.0590  -33.4600 C   0  0  0  0  0  0  0  0  0  0  0  0
   -4.7740   19.0380  -32.2320 C   0  0  0  0  0  0  0  0  0  0  0  0
   -5.9720   18.2100  -32.4700 N   0  0  0  0  0  0  0  0  0  0  0  0
   -6.9820   18.4310  -31.4130 C   0  0  0  0  0  0  0  0  0  0  0  0
   -8.3980   18.2550  -31.9820 C   0  0  0  0  0  0  0  0  0  0  0  0
   -9.1300   19.5920  -32.0980 C   0  0  0  0  0  0  0  0  0  0  0  0
   -8.3070   20.5430  -32.7700 O   0  0  0  0  0  0  0  0  0  0  0  0
   -7.4640   21.4580  -32.1240 C   0  0  0  0  0  0  0  0  0  0  0  0
   -7.8930   22.0170  -30.9150 C   0  0  0  0  0  0  0  0  0  0  0  0
   -7.0920   22.9390  -30.2350 C   0  0  0  0  0  0  0  0  0  0  0  0
   -5.8500   23.3160  -30.7610 C   0  0  0  0  0  0  0  0  0  0  0  0
   -4.8270   24.4540  -29.8940 S   0  0  0  0  0  0  0  0  0  0  0  0
   -5.6420   25.2080  -28.8780 O   0  0  0  0  0  0  0  0  0  0  0  0
   -4.2490   25.4530  -30.8580 O   0  0  0  0  0  0  0  0  0  0  0  0
   -3.5290   23.5680  -29.0920 C   0  0  0  0  0  0  0  0  0  0  0  0
   -3.7590   22.2830  -28.5910 C   0  0  0  0  0  0  0  0  0  0  0  0
   -2.7640   21.5950  -27.9530 N   0  0  0  0  0  0  0  0  0  0  0  0
   -3.0200   20.2460  -27.4370 C   0  0  0  0  0  0  0  0  0  0  0  0
   -1.5300   22.1710  -27.7960 C   0  0  0  0  0  0  0  0  0  0  0  0
   -0.6010   21.5510  -27.2140 O   0  0  0  0  0  0  0  0  0  0  0  0
   -1.2970   23.4240  -28.2660 N   0  0  0  0  0  0  0  0  0  0  0  0
   -2.2610   24.1330  -28.9020 C   0  0  0  0  0  0  0  0  0  0  0  0
   -2.0050   25.2970  -29.3120 O   0  0  0  0  0  0  0  0  0  0  0  0
   -5.4090   22.7520  -31.9660 C   0  0  0  0  0  0  0  0  0  0  0  0
   -6.2110   21.8310  -32.6480 C   0  0  0  0  0  0  0  0  0  0  0  0
   -6.5180   18.4930  -33.8100 C   0  0  0  0  0  0  0  0  0  0  0  0
   -5.5140   18.0520  -34.8990 C   0  0  0  0  0  0  0  0  0  0  0  0
   -5.3776   15.3206  -33.1772 H   0  0  0  0  0  0  0  0  0  0  0  0
   -5.7535   16.1663  -34.7168 H   0  0  0  0  0  0  0  0  0  0  0  0
   -4.6497   14.7491  -34.7168 H   0  0  0  0  0  0  0  0  0  0  0  0
   -3.5116   16.6766  -32.8662 H   0  0  0  0  0  0  0  0  0  0  0  0
   -1.8386   15.5771  -33.9165 H   0  0  0  0  0  0  0  0  0  0  0  0
   -2.9021   15.1144  -35.2882 H   0  0  0  0  0  0  0  0  0  0  0  0
   -2.0799   16.7115  -35.2882 H   0  0  0  0  0  0  0  0  0  0  0  0
   -2.7961   18.9725  -33.1118 H   0  0  0  0  0  0  0  0  0  0  0  0
   -4.0045   20.0054  -33.9947 H   0  0  0  0  0  0  0  0  0  0  0  0
   -4.2243   18.6293  -31.3713 H   0  0  0  0  0  0  0  0  0  0  0  0
   -5.1047   20.0689  -32.0374 H   0  0  0  0  0  0  0  0  0  0  0  0
   -6.8239   17.7042  -30.6026 H   0  0  0  0  0  0  0  0  0  0  0  0
   -6.8768   19.4556  -31.0268 H   0  0  0  0  0  0  0  0  0  0  0  0
   -8.3270   17.7995  -32.9807 H   0  0  0  0  0  0  0  0  0  0  0  0
   -8.9664   17.6109  -31.2950 H   0  0  0  0  0  0  0  0  0  0  0  0
  -10.0606   19.4494  -32.6669 H   0  0  0  0  0  0  0  0  0  0  0  0
   -9.3621   19.9648  -31.0895 H   0  0  0  0  0  0  0  0  0  0  0  0
   -8.8685   21.7286  -30.4963 H   0  0  0  0  0  0  0  0  0  0  0  0
   -7.4383   23.3697  -29.2839 H   0  0  0  0  0  0  0  0  0  0  0  0
   -4.7500   21.8209  -28.7112 H   0  0  0  0  0  0  0  0  0  0  0  0
   -3.0160   20.2672  -26.3372 H   0  0  0  0  0  0  0  0  0  0  0  0
   -4.0004   19.8970  -27.7934 H   0  0  0  0  0  0  0  0  0  0  0  0
   -2.2356   19.5621  -27.7934 H   0  0  0  0  0  0  0  0  0  0  0  0
   -4.4286   23.0347  -32.3769 H   0  0  0  0  0  0  0  0  0  0  0  0
   -5.8620   21.3967  -33.5965 H   0  0  0  0  0  0  0  0  0  0  0  0
   -7.4616   17.9431  -33.9415 H   0  0  0  0  0  0  0  0  0  0  0  0
   -6.6974   19.5742  -33.9037 H   0  0  0  0  0  0  0  0  0  0  0  0
   -5.8222   17.0671  -35.2797 H   0  0  0  0  0  0  0  0  0  0  0  0
   -5.5260   18.8224  -35.6841 H   0  0  0  0  0  0  0  0  0  0  0  0
  1  2  1  0
  2  3  1  0
  2  4  1  0
  4  5  1  0
  5  6  1  0
  6  7  1  0
  7  8  1  0
  8  9  1  0
  9 10  1  0
 10 11  1  0
 11 12  1  0
 12 13  2  0
 13 14  1  0
 14 15  2  0
 15 16  1  0
 16 17  2  0
 16 18  2  0
 16 19  1  0
 19 20  2  0
 20 21  1  0
 21 22  1  0
 21 23  1  0
 23 24  2  0
 23 25  1  0
 25 26  1  0
 26 27  2  0
 15 28  1  0
 28 29  2  0
  7 30  1  0
 30 31  1  0
 31  4  1  0
 29 12  1  0
 26 19  1  0
  1 32  1  0
  1 33  1  0
  1 34  1  0
  2 35  1  0
  3 36  1  0
  3 37  1  0
  3 38  1  0
  5 39  1  0
  5 40  1  0
  6 41  1  0
  6 42  1  0
  8 43  1  0
  8 44  1  0
  9 45  1  0
  9 46  1  0
 10 47  1  0
 10 48  1  0
 13 49  1  0
 14 50  1  0
 20 51  1  0
 22 52  1  0
 22 53  1  0
 22 54  1  0
 28 55  1  0
 29 56  1  0
 30 57  1  0
 30 58  1  0
 31 59  1  0
 31 60  1  0
M  CHG  1  25  -1
M  END
>  <UniqueID>  (4) 
2

>  <SMILES>  (4) 
CC(C)N1CCN(CCCOc2ccc(S(=O)(=O)c3cn(C)c(=O)[n-]c3=O)cc2)CC1

>  <Energy>  (4) 
76.64712509885499

>  <Genealogy>  (4) 
CC(C)N1CCN(CCCOc2ccc(S(=O)(=O)c3cn(C)c(=O)[n-]c3=O)cc2)CC1 (protonated)
CC(C)N1CCN(CCCOc2ccc(S(=O)(=O)c3cn(C)c(=O)[n-]c3=O)cc2)CC1 (3D coordinates assigned)
CC(C)N1CCN(CCCOc2ccc(S(=O)(=O)c3cn(C)c(=O)[n-]c3=O)cc2)CC1 (nonaromatic ring conformer: 76.64712509885499 kcal/mol)

>  <smiles>  (4) 
CC(C)N1CCN(CCCOc2ccc(S(=O)(=O)c3cn(C)c(=O)[nH]c3=O)cc2)CC1

>  <score_type>  (4) 
oracle

>  <origin>  (4) 
adgpu

>  <m_score__min__energy>  (4) 
-10.109999999999999

>  <m_primary>  (4) 
energy

$$$$
4:0
     RDKit          3D

 53 55  0  0  0  0  0  0  0  0999 V2000
   -3.8400   25.3270  -30.7850 N   0  0  0  0  0  0  0  0  0  0  0  0
   -4.0850   23.6160  -30.7180 S   0  0  0  0  0  0  0  0  0  0  0  0
   -5.1220   23.3240  -29.6690 O   0  0  0  0  0  0  0  0  0  0  0  0
   -4.6090   23.1220  -32.0350 O   0  0  0  0  0  0  0  0  0  0  0  0
   -2.5660   22.7910  -30.3110 C   0  0  0  0  0  0  0  0  0  0  0  0
   -2.2250   21.6510  -31.0600 C   0  0  0  0  0  0  0  0  0  0  0  0
   -1.0240   20.9670  -30.8330 C   0  0  0  0  0  0  0  0  0  0  0  0
   -0.6830   19.7340  -31.6380 C   0  0  0  0  0  0  0  0  0  0  0  0
   -1.8130   19.3370  -32.5970 C   0  0  0  0  0  0  0  0  0  0  0  0
   -1.5250   19.7670  -34.0130 C   0  0  0  0  0  0  0  0  0  0  0  0
   -2.2880   20.6030  -34.5670 O   0  0  0  0  0  0  0  0  0  0  0  0
   -0.4670   19.1790  -34.7830 N   0  0  0  0  0  0  0  0  0  0  0  0
    0.9040   19.0600  -34.3740 C   0  0  0  0  0  0  0  0  0  0  0  0
    1.3140   17.9790  -33.5720 C   0  0  0  0  0  0  0  0  0  0  0  0
    2.6410   17.8750  -33.1490 C   0  0  0  0  0  0  0  0  0  0  0  0
    3.5680   18.8570  -33.5060 C   0  0  0  0  0  0  0  0  0  0  0  0
    3.1670   19.9470  -34.2840 C   0  0  0  0  0  0  0  0  0  0  0  0
    1.8370   20.0610  -34.7180 C   0  0  0  0  0  0  0  0  0  0  0  0
    1.3680   21.4410  -35.7140 S   0  0  0  0  0  0  0  0  0  0  0  0
   -0.1730   21.1320  -36.4410 N   0  0  0  0  0  0  0  0  0  0  0  0
    1.2870   22.6790  -34.8630 O   0  0  0  0  0  0  0  0  0  0  0  0
    2.3940   21.6660  -36.7910 O   0  0  0  0  0  0  0  0  0  0  0  0
   -0.1420   21.4400  -29.8560 C   0  0  0  0  0  0  0  0  0  0  0  0
   -0.4740   22.5550  -29.0880 C   0  0  0  0  0  0  0  0  0  0  0  0
   -1.6890   23.2320  -29.2810 C   0  0  0  0  0  0  0  0  0  0  0  0
   -2.0530   24.5850  -28.1840 S   0  0  0  0  0  0  0  0  0  0  0  0
   -1.6160   25.8820  -28.8090 O   0  0  0  0  0  0  0  0  0  0  0  0
   -3.5390   24.6680  -27.9650 O   0  0  0  0  0  0  0  0  0  0  0  0
   -1.2910   24.3640  -26.6110 C   0  0  0  0  0  0  0  0  0  0  0  0
   -1.0790   25.4600  -25.7600 C   0  0  0  0  0  0  0  0  0  0  0  0
   -0.4920   25.2730  -24.5050 C   0  0  0  0  0  0  0  0  0  0  0  0
   -0.1250   23.9880  -24.0850 C   0  0  0  0  0  0  0  0  0  0  0  0
   -0.3540   22.8900  -24.9200 C   0  0  0  0  0  0  0  0  0  0  0  0
   -0.9390   23.0750  -26.1780 C   0  0  0  0  0  0  0  0  0  0  0  0
   -3.5170   25.6270  -29.8360 H   0  0  0  0  0  0  0  0  0  0  0  0
   -2.9136   21.2899  -31.8381 H   0  0  0  0  0  0  0  0  0  0  0  0
    0.2256   19.9342  -32.2248 H   0  0  0  0  0  0  0  0  0  0  0  0
   -0.5300   18.9028  -30.9340 H   0  0  0  0  0  0  0  0  0  0  0  0
   -1.9311   18.2436  -32.5743 H   0  0  0  0  0  0  0  0  0  0  0  0
   -2.7331   19.8419  -32.2676 H   0  0  0  0  0  0  0  0  0  0  0  0
    0.5845   17.2107  -33.2762 H   0  0  0  0  0  0  0  0  0  0  0  0
    2.9564   17.0191  -32.5342 H   0  0  0  0  0  0  0  0  0  0  0  0
    4.6136   18.7726  -33.1749 H   0  0  0  0  0  0  0  0  0  0  0  0
    3.8990   20.7210  -34.5581 H   0  0  0  0  0  0  0  0  0  0  0  0
   -0.8850   21.2310  -35.6820 H   0  0  0  0  0  0  0  0  0  0  0  0
   -0.1750   20.1300  -36.7230 H   0  0  0  0  0  0  0  0  0  0  0  0
    0.8186   20.9295  -29.6928 H   0  0  0  0  0  0  0  0  0  0  0  0
    0.2271   22.9102  -28.3184 H   0  0  0  0  0  0  0  0  0  0  0  0
   -1.3757   26.4692  -26.0816 H   0  0  0  0  0  0  0  0  0  0  0  0
   -0.3180   26.1365  -23.8461 H   0  0  0  0  0  0  0  0  0  0  0  0
    0.3426   23.8429  -23.0999 H   0  0  0  0  0  0  0  0  0  0  0  0
   -0.0740   21.8795  -24.5877 H   0  0  0  0  0  0  0  0  0  0  0  0
   -1.1237   22.2082  -26.8296 H   0  0  0  0  0  0  0  0  0  0  0  0
  1  2  1  0
  2  3  2  0
  2  4  2  0
  2  5  1  0
  5  6  2  0
  6  7  1  0
  7  8  1  0
  8  9  1  0
  9 10  1  0
 10 11  2  0
 10 12  1  0
 12 13  1  0
 13 14  2  0
 14 15  1  0
 15 16  2  0
 16 17  1  0
 17 18  2  0
 18 19  1  0
 19 20  1  0
 19 21  2  0
 19 22  2  0
  7 23  2  0
 23 24  1  0
 24 25  2  0
 25 26  1  0
 26 27  2  0
 26 28  2  0
 26 29  1  0
 29 30  2  0
 30 31  1  0
 31 32  2  0
 32 33  1  0
 33 34  2  0
 25  5  1  0
 34 29  1  0
 18 13  1  0
  1 35  1  0
  6 36  1  0
  8 37  1  0
  8 38  1  0
  9 39  1  0
  9 40  1  0
 14 41  1  0
 15 42  1  0
 16 43  1  0
 17 44  1  0
 20 45  1  0
 20 46  1  0
 23 47  1  0
 24 48  1  0
 30 49  1  0
 31 50  1  0
 32 51  1  0
 33 52  1  0
 34 53  1  0
M  CHG  2   1  -1  12  -1
M  END
>  <UniqueID>  (5) 
3

>  <SMILES>  (5) 
[NH-]S(=O)(=O)c1cc(CCC(=O)[N-]c2ccccc2S(N)(=O)=O)ccc1S(=O)(=O)c1ccccc1

>  <Energy>  (5) 
58.00662097881231

>  <Genealogy>  (5) 
[NH-]S(=O)(=O)c1cc(CCC(=O)[N-]c2ccccc2S(N)(=O)=O)ccc1S(=O)(=O)c1ccccc1 (protonated)
[NH-]S(=O)(=O)c1cc(CCC(=O)[N-]c2ccccc2S(N)(=O)=O)ccc1S(=O)(=O)c1ccccc1 (3D coordinates assigned)
[NH-]S(=O)(=O)c1cc(CCC(=O)[N-]c2ccccc2S(N)(=O)=O)ccc1S(=O)(=O)c1ccccc1 (optimized conformer: 58.00662097881231 kcal/mol)

>  <smiles>  (5) 
NS(=O)(=O)c1ccccc1NC(=O)CCc1ccc(S(=O)(=O)c2ccccc2)c(S(N)(=O)=O)c1

>  <score_type>  (5) 
oracle

>  <origin>  (5) 
adgpu

>  <m_score__min__energy>  (5) 
-11.73

>  <m_primary>  (5) 
energy

$$$$
5:0
     RDKit          3D

 54 56  0  0  0  0  0  0  0  0999 V2000
   -1.2170   26.4710  -24.3650 C   0  0  0  0  0  0  0  0  0  0  0  0
   -0.5730   26.4560  -25.7720 C   0  0  0  0  0  0  0  0  0  0  0  0
   -0.7060   27.8750  -26.3650 C   0  0  0  0  0  0  0  0  0  0  0  0
    0.9210   26.1090  -25.6000 C   0  0  0  0  0  0  0  0  0  0  0  0
   -1.2320   25.4370  -26.7270 C   0  0  0  0  0  0  0  0  0  0  0  0
   -2.5830   25.0360  -26.6050 C   0  0  0  0  0  0  0  0  0  0  0  0
   -3.1420   24.1120  -27.4920 C   0  0  0  0  0  0  0  0  0  0  0  0
   -2.3710   23.5640  -28.5210 C   0  0  0  0  0  0  0  0  0  0  0  0
   -3.0640   22.4060  -29.6510 S   0  0  0  0  0  0  0  0  0  0  0  0
   -3.4180   21.1240  -28.9500 O   0  0  0  0  0  0  0  0  0  0  0  0
   -2.0540   22.1000  -30.7210 O   0  0  0  0  0  0  0  0  0  0  0  0
   -4.5250   23.0980  -30.3570 C   0  0  0  0  0  0  0  0  0  0  0  0
   -5.6240   22.2730  -30.6370 C   0  0  0  0  0  0  0  0  0  0  0  0
   -6.7770   22.8040  -31.2340 C   0  0  0  0  0  0  0  0  0  0  0  0
   -8.1440   21.7640  -31.6270 S   0  0  0  0  0  0  0  0  0  0  0  0
   -9.2080   22.5950  -32.2890 O   0  0  0  0  0  0  0  0  0  0  0  0
   -8.7160   21.1680  -30.3690 O   0  0  0  0  0  0  0  0  0  0  0  0
   -7.6250   20.4920  -32.7070 N   0  0  0  0  0  0  0  0  0  0  0  0
   -7.9060   19.1740  -32.0990 C   0  0  0  0  0  0  0  0  0  0  0  0
   -7.0100   18.0870  -32.7170 C   0  0  0  0  0  0  0  0  0  0  0  0
   -5.6160   18.3180  -32.5440 O   0  0  0  0  0  0  0  0  0  0  0  0
   -5.2840   19.6810  -32.3280 C   0  0  0  0  0  0  0  0  0  0  0  0
   -6.1990   20.6590  -33.0870 C   0  0  0  0  0  0  0  0  0  0  0  0
   -6.8270   24.1660  -31.5520 C   0  0  0  0  0  0  0  0  0  0  0  0
   -5.7340   24.9920  -31.2780 C   0  0  0  0  0  0  0  0  0  0  0  0
   -4.5820   24.4630  -30.6880 C   0  0  0  0  0  0  0  0  0  0  0  0
   -3.4980   25.2980  -30.4420 O   0  0  0  0  0  0  0  0  0  0  0  0
   -1.0340   23.9460  -28.6570 C   0  0  0  0  0  0  0  0  0  0  0  0
   -0.4710   24.8700  -27.7730 C   0  0  0  0  0  0  0  0  0  0  0  0
   -0.4269   26.4526  -23.5999 H   0  0  0  0  0  0  0  0  0  0  0  0
   -1.8200   27.3834  -24.2475 H   0  0  0  0  0  0  0  0  0  0  0  0
   -1.8619   25.5876  -24.2475 H   0  0  0  0  0  0  0  0  0  0  0  0
   -0.7748   28.6087  -25.5483 H   0  0  0  0  0  0  0  0  0  0  0  0
    0.1752   28.0975  -26.9846 H   0  0  0  0  0  0  0  0  0  0  0  0
   -1.6132   27.9299  -26.9846 H   0  0  0  0  0  0  0  0  0  0  0  0
    1.1634   26.0527  -24.5285 H   0  0  0  0  0  0  0  0  0  0  0  0
    1.1290   25.1386  -26.0745 H   0  0  0  0  0  0  0  0  0  0  0  0
    1.5354   26.8883  -26.0745 H   0  0  0  0  0  0  0  0  0  0  0  0
   -3.2028   25.4577  -25.8000 H   0  0  0  0  0  0  0  0  0  0  0  0
   -4.1950   23.8142  -27.3797 H   0  0  0  0  0  0  0  0  0  0  0  0
   -5.5816   21.2027  -30.3869 H   0  0  0  0  0  0  0  0  0  0  0  0
   -8.2060   20.5790  -33.5750 H   0  0  0  0  0  0  0  0  0  0  0  0
   -7.7146   19.2274  -31.0171 H   0  0  0  0  0  0  0  0  0  0  0  0
   -8.9580   18.9146  -32.2886 H   0  0  0  0  0  0  0  0  0  0  0  0
   -7.2617   17.1239  -32.2489 H   0  0  0  0  0  0  0  0  0  0  0  0
   -7.2017   18.0945  -33.8001 H   0  0  0  0  0  0  0  0  0  0  0  0
   -5.3630   19.8931  -31.2515 H   0  0  0  0  0  0  0  0  0  0  0  0
   -4.2621   19.8310  -32.7065 H   0  0  0  0  0  0  0  0  0  0  0  0
   -5.8879   21.6886  -32.8566 H   0  0  0  0  0  0  0  0  0  0  0  0
   -6.1060   20.4477  -34.1625 H   0  0  0  0  0  0  0  0  0  0  0  0
   -7.7294   24.5874  -32.0190 H   0  0  0  0  0  0  0  0  0  0  0  0
   -5.7799   26.0624  -31.5273 H   0  0  0  0  0  0  0  0  0  0  0  0
   -0.4216   23.5172  -29.4639 H   0  0  0  0  0  0  0  0  0  0  0  0
    0.5830   25.1608  -27.8938 H   0  0  0  0  0  0  0  0  0  0  0  0
  1  2  1  0
  2  3  1  0
  2  4  1  0
  2  5  1  0
  5  6  2  0
  6  7  1  0
  7  8  2  0
  8  9  1  0
  9 10  2  0
  9 11  2  0
  9 12  1  0
 12 13  2  0
 13 14  1  0
 14 15  1  0
 15 16  2  0
 15 17  2  0
 15 18  1  0
 18 19  1  0
 19 20  1  0
 20 21  1  0
 21 22  1  0
 22 23  1  0
 14 24  2  0
 24 25  1  0
 25 26  2  0
 26 27  1  0
  8 28  1  0
 28 29  2  0
 29  5  1  0
 26 12  1  0
 23 18  1  0
  1 30  1  0
  1 31  1  0
  1 32  1  0
  3 33  1  0
  3 34  1  0
  3 35  1  0
  4 36  1  0
  4 37  1  0
  4 38  1  0
  6 39  1  0
  7 40  1  0
 13 41  1  0
 18 42  1  0
 19 43  1  0
 19 44  1  0
 20 45  1  0
 20 46  1  0
 22 47  1  0
 22 48  1  0
 23 49  1  0
 23 50  1  0
 24 51  1  0
 25 52  1  0
 28 53  1  0
 29 54  1  0
M  CHG  2  18   1  27  -1
M  END
>  <UniqueID>  (6) 
4

>  <SMILES>  (6) 
CC(C)(C)c1ccc(S(=O)(=O)c2cc(S(=O)(=O)[NH+]3CCOCC3)ccc2[O-])cc1

>  <Energy>  (6) 
70.53207647068176

>  <Genealogy>  (6) 
CC(C)(C)c1ccc(S(=O)(=O)c2cc(S(=O)(=O)[NH+]3CCOCC3)ccc2[O-])cc1 (protonated)
CC(C)(C)c1ccc(S(=O)(=O)c2cc(S(=O)(=O)[NH+]3CCOCC3)ccc2[O-])cc1 (3D coordinates assigned)
CC(C)(C)c1ccc(S(=O)(=O)c2cc(S(=O)(=O)[NH+]3CCOCC3)ccc2[O-])cc1 (nonaromatic ring conformer: 70.53207647068176 kcal/mol)

>  <smiles>  (6) 
CC(C)(C)c1ccc(S(=O)(=O)c2cc(S(=O)(=O)N3CCOCC3)ccc2O)cc1

>  <score_type>  (6) 
oracle

>  <origin>  (6) 
adgpu

>  <m_score__min__energy>  (6) 
-12.74

>  <m_primary>  (6) 
energy

$$$$
6:0
     RDKit          3D

 51 54  0  0  0  0  0  0  0  0999 V2000
   -0.2770   22.0910  -26.2480 N   0  0  0  0  0  0  0  0  0  0  0  0
   -0.4370   23.1910  -25.9270 C   0  0  0  0  0  0  0  0  0  0  0  0
   -0.6340   24.5630  -25.5250 C   0  0  0  0  0  0  0  0  0  0  0  0
   -0.4850   24.8950  -24.1710 C   0  0  0  0  0  0  0  0  0  0  0  0
   -0.6620   26.2120  -23.7440 C   0  0  0  0  0  0  0  0  0  0  0  0
   -0.9870   27.2080  -24.6660 C   0  0  0  0  0  0  0  0  0  0  0  0
   -1.1380   26.8890  -26.0180 C   0  0  0  0  0  0  0  0  0  0  0  0
   -0.9670   25.5670  -26.4610 C   0  0  0  0  0  0  0  0  0  0  0  0
   -1.1520   25.1980  -28.1830 S   0  0  0  0  0  0  0  0  0  0  0  0
    0.0030   24.3730  -28.6770 O   0  0  0  0  0  0  0  0  0  0  0  0
   -1.1810   26.4850  -28.9590 O   0  0  0  0  0  0  0  0  0  0  0  0
   -2.6400   24.2910  -28.4250 C   0  0  0  0  0  0  0  0  0  0  0  0
   -3.2690   23.6790  -27.3360 C   0  0  0  0  0  0  0  0  0  0  0  0
   -4.4240   22.9840  -27.5170 N   0  0  0  0  0  0  0  0  0  0  0  0
   -5.0020   22.8640  -28.7420 C   0  0  0  0  0  0  0  0  0  0  0  0
   -4.4130   23.4670  -29.8590 C   0  0  0  0  0  0  0  0  0  0  0  0
   -5.1510   23.2980  -31.4520 S   0  0  0  0  0  0  0  0  0  0  0  0
   -5.8280   24.6000  -31.7730 O   0  0  0  0  0  0  0  0  0  0  0  0
   -4.0740   23.0420  -32.4690 O   0  0  0  0  0  0  0  0  0  0  0  0
   -6.3180   21.9590  -31.4800 C   0  0  0  0  0  0  0  0  0  0  0  0
   -7.6170   22.2020  -30.9950 C   0  0  0  0  0  0  0  0  0  0  0  0
   -8.5840   21.1990  -31.0020 C   0  0  0  0  0  0  0  0  0  0  0  0
   -8.2730   19.9340  -31.4890 C   0  0  0  0  0  0  0  0  0  0  0  0
   -6.9890   19.6640  -31.9600 C   0  0  0  0  0  0  0  0  0  0  0  0
   -5.9920   20.6560  -31.9510 C   0  0  0  0  0  0  0  0  0  0  0  0
   -4.3740   20.2250  -32.5450 S   0  0  0  0  0  0  0  0  0  0  0  0
   -4.3070   18.7440  -32.7970 O   0  0  0  0  0  0  0  0  0  0  0  0
   -4.0790   20.9480  -33.8290 O   0  0  0  0  0  0  0  0  0  0  0  0
   -3.1200   20.6750  -31.3830 C   0  0  0  0  0  0  0  0  0  0  0  0
   -3.3250   20.4350  -30.0150 C   0  0  0  0  0  0  0  0  0  0  0  0
   -2.3380   20.7700  -29.0850 C   0  0  0  0  0  0  0  0  0  0  0  0
   -1.1370   21.3400  -29.5120 C   0  0  0  0  0  0  0  0  0  0  0  0
   -0.9190   21.5720  -30.8730 C   0  0  0  0  0  0  0  0  0  0  0  0
   -1.9040   21.2400  -31.8100 C   0  0  0  0  0  0  0  0  0  0  0  0
   -1.6600   21.4530  -33.1280 F   0  0  0  0  0  0  0  0  0  0  0  0
   -3.2190   24.1790  -29.6950 C   0  0  0  0  0  0  0  0  0  0  0  0
   -0.2272   24.1133  -23.4413 H   0  0  0  0  0  0  0  0  0  0  0  0
   -0.5452   26.4651  -22.6799 H   0  0  0  0  0  0  0  0  0  0  0  0
   -1.1245   28.2457  -24.3279 H   0  0  0  0  0  0  0  0  0  0  0  0
   -1.3925   27.6785  -26.7404 H   0  0  0  0  0  0  0  0  0  0  0  0
   -2.8287   23.7599  -26.3312 H   0  0  0  0  0  0  0  0  0  0  0  0
   -5.9346   22.2917  -28.8551 H   0  0  0  0  0  0  0  0  0  0  0  0
   -7.8723   23.1983  -30.6048 H   0  0  0  0  0  0  0  0  0  0  0  0
   -9.5948   21.4080  -30.6218 H   0  0  0  0  0  0  0  0  0  0  0  0
   -9.0405   19.1461  -31.5026 H   0  0  0  0  0  0  0  0  0  0  0  0
   -6.7522   18.6608  -32.3442 H   0  0  0  0  0  0  0  0  0  0  0  0
   -4.2671   19.9811  -29.6739 H   0  0  0  0  0  0  0  0  0  0  0  0
   -2.5073   20.5844  -28.0141 H   0  0  0  0  0  0  0  0  0  0  0  0
   -0.3627   21.6064  -28.7775 H   0  0  0  0  0  0  0  0  0  0  0  0
    0.0295   22.0168  -31.2085 H   0  0  0  0  0  0  0  0  0  0  0  0
   -2.7358   24.6504  -30.5635 H   0  0  0  0  0  0  0  0  0  0  0  0
  1  2  3  0
  2  3  1  0
  3  4  2  0
  4  5  1  0
  5  6  2  0
  6  7  1  0
  7  8  2  0
  8  9  1  0
  9 10  2  0
  9 11  2  0
  9 12  1  0
 12 13  2  0
 13 14  1  0
 14 15  2  0
 15 16  1  0
 16 17  1  0
 17 18  2  0
 17 19  2  0
 17 20  1  0
 20 21  2  0
 21 22  1  0
 22 23  2  0
 23 24  1  0
 24 25  2  0
 25 26  1  0
 26 27  2  0
 26 28  2  0
 26 29  1  0
 29 30  2  0
 30 31  1  0
 31 32  2  0
 32 33  1  0
 33 34  2  0
 34 35  1  0
 16 36  2  0
  8  3  1  0
 36 12  1  0
 25 20  1  0
 34 29  1  0
  4 37  1  0
  5 38  1  0
  6 39  1  0
  7 40  1  0
 13 41  1  0
 15 42  1  0
 21 43  1  0
 22 44  1  0
 23 45  1  0
 24 46  1  0
 30 47  1  0
 31 48  1  0
 32 49  1  0
 33 50  1  0
 36 51  1  0
M  END
>  <UniqueID>  (7) 
5

>  <SMILES>  (7) 
N#Cc1ccccc1S(=O)(=O)c1cncc(S(=O)(=O)c2ccccc2S(=O)(=O)c2ccccc2F)c1

>  <Energy>  (7) 
69.05874209426884

>  <Genealogy>  (7) 
N#Cc1ccccc1S(=O)(=O)c1cncc(S(=O)(=O)c2ccccc2S(=O)(=O)c2ccccc2F)c1 (3D coordinates assigned)
N#Cc1ccccc1S(=O)(=O)c1cncc(S(=O)(=O)c2ccccc2S(=O)(=O)c2ccccc2F)c1 (optimized conformer: 69.05874209426884 kcal/mol)

>  <smiles>  (7) 
N#Cc1ccccc1S(=O)(=O)c1cncc(S(=O)(=O)c2ccccc2S(=O)(=O)c2ccccc2F)c1

>  <score_type>  (7) 
oracle

>  <origin>  (7) 
adgpu

>  <m_score__min__energy>  (7) 
-12.02

>  <m_primary>  (7) 
energy

$$$$
7:0
     RDKit          3D

 59 62  0  0  0  0  0  0  0  0999 V2000
   -2.9300   15.2290  -33.2910 C   0  0  0  0  0  0  0  0  0  0  0  0
   -4.2570   15.8310  -33.7770 C   0  0  0  0  0  0  0  0  0  0  0  0
   -5.3570   15.6700  -32.6990 C   0  0  0  0  0  0  0  0  0  0  0  0
   -6.3990   16.7880  -32.8080 C   0  0  0  0  0  0  0  0  0  0  0  0
   -5.7900   18.1110  -32.5490 N   0  0  0  0  0  0  0  0  0  0  0  0
   -6.8530   19.3870  -33.1000 S   0  0  0  0  0  0  0  0  0  0  0  0
   -6.7380   19.5120  -34.5940 O   0  0  0  0  0  0  0  0  0  0  0  0
   -8.2770   19.0350  -32.7720 O   0  0  0  0  0  0  0  0  0  0  0  0
   -6.4480   20.9350  -32.3540 C   0  0  0  0  0  0  0  0  0  0  0  0
   -5.1360   21.4260  -32.4120 C   0  0  0  0  0  0  0  0  0  0  0  0
   -4.8130   22.6460  -31.8120 C   0  0  0  0  0  0  0  0  0  0  0  0
   -5.7960   23.3840  -31.1400 C   0  0  0  0  0  0  0  0  0  0  0  0
   -5.3600   24.8930  -30.3400 S   0  0  0  0  0  0  0  0  0  0  0  0
   -6.5930   25.7180  -30.1020 O   0  0  0  0  0  0  0  0  0  0  0  0
   -4.4160   25.6770  -31.2080 O   0  0  0  0  0  0  0  0  0  0  0  0
   -4.6090   24.5520  -28.8200 N   0  0  0  0  0  0  0  0  0  0  0  0
   -3.4860   23.6750  -28.7520 C   0  0  0  0  0  0  0  0  0  0  0  0
   -3.6760   22.3240  -28.4440 C   0  0  0  0  0  0  0  0  0  0  0  0
   -2.5880   21.4390  -28.4200 C   0  0  0  0  0  0  0  0  0  0  0  0
   -1.2970   21.9130  -28.7360 C   0  0  0  0  0  0  0  0  0  0  0  0
   -1.1110   23.2760  -29.0190 C   0  0  0  0  0  0  0  0  0  0  0  0
   -2.1990   24.1520  -29.0340 C   0  0  0  0  0  0  0  0  0  0  0  0
   -1.9990   25.4960  -29.3320 O   0  0  0  0  0  0  0  0  0  0  0  0
   -0.1000   21.0020  -28.6890 C   0  0  0  0  0  0  0  0  0  0  0  0
   -0.4990   19.5190  -28.7010 C   0  0  0  0  0  0  0  0  0  0  0  0
   -1.6170   19.2300  -27.7810 N   0  0  0  0  0  0  0  0  0  0  0  0
   -1.2610   19.4480  -26.3680 C   0  0  0  0  0  0  0  0  0  0  0  0
   -2.8380   19.9700  -28.1630 C   0  0  0  0  0  0  0  0  0  0  0  0
   -7.1090   22.8950  -31.0800 C   0  0  0  0  0  0  0  0  0  0  0  0
   -7.4350   21.6820  -31.6930 C   0  0  0  0  0  0  0  0  0  0  0  0
   -4.4110   18.2760  -33.0720 C   0  0  0  0  0  0  0  0  0  0  0  0
   -4.0820   17.3040  -34.2160 C   0  0  0  0  0  0  0  0  0  0  0  0
   -2.9121   15.2209  -32.1912 H   0  0  0  0  0  0  0  0  0  0  0  0
   -2.8349   14.1996  -33.6669 H   0  0  0  0  0  0  0  0  0  0  0  0
   -2.0928   15.8354  -33.6669 H   0  0  0  0  0  0  0  0  0  0  0  0
   -4.5829   15.2734  -34.6675 H   0  0  0  0  0  0  0  0  0  0  0  0
   -5.8554   14.6989  -32.8356 H   0  0  0  0  0  0  0  0  0  0  0  0
   -4.8862   15.7247  -31.7064 H   0  0  0  0  0  0  0  0  0  0  0  0
   -6.8277   16.7820  -33.8210 H   0  0  0  0  0  0  0  0  0  0  0  0
   -7.1817   16.6105  -32.0558 H   0  0  0  0  0  0  0  0  0  0  0  0
   -4.3576   20.8484  -32.9320 H   0  0  0  0  0  0  0  0  0  0  0  0
   -3.7831   23.0283  -31.8676 H   0  0  0  0  0  0  0  0  0  0  0  0
   -4.6866   21.9526  -28.2188 H   0  0  0  0  0  0  0  0  0  0  0  0
   -0.1009   23.6566  -29.2305 H   0  0  0  0  0  0  0  0  0  0  0  0
    0.5345   21.2053  -29.5643 H   0  0  0  0  0  0  0  0  0  0  0  0
    0.4380   21.1994  -27.7501 H   0  0  0  0  0  0  0  0  0  0  0  0
   -0.8011   19.2426  -29.7220 H   0  0  0  0  0  0  0  0  0  0  0  0
    0.3708   18.9347  -28.3662 H   0  0  0  0  0  0  0  0  0  0  0  0
   -2.0206   18.9828  -25.7225 H   0  0  0  0  0  0  0  0  0  0  0  0
   -0.2793   18.9960  -26.1633 H   0  0  0  0  0  0  0  0  0  0  0  0
   -1.2173   20.5279  -26.1633 H   0  0  0  0  0  0  0  0  0  0  0  0
   -3.2476   19.5195  -29.0791 H   0  0  0  0  0  0  0  0  0  0  0  0
   -3.5400   19.9005  -27.3190 H   0  0  0  0  0  0  0  0  0  0  0  0
   -7.8841   23.4674  -30.5493 H   0  0  0  0  0  0  0  0  0  0  0  0
   -8.4700   21.3112  -31.6571 H   0  0  0  0  0  0  0  0  0  0  0  0
   -4.2978   19.3053  -33.4432 H   0  0  0  0  0  0  0  0  0  0  0  0
   -3.7178   18.0585  -32.2461 H   0  0  0  0  0  0  0  0  0  0  0  0
   -4.7549   17.5071  -35.0621 H   0  0  0  0  0  0  0  0  0  0  0  0
   -3.0317   17.4551  -34.5057 H   0  0  0  0  0  0  0  0  0  0  0  0
  1  2  1  0
  2  3  1  0
  3  4  1  0
  4  5  1  0
  5  6  1  0
  6  7  2  0
  6  8  2  0
  6  9  1  0
  9 10  2  0
 10 11  1  0
 11 12  2  0
 12 13  1  0
 13 14  2  0
 13 15  2  0
 13 16  1  0
 16 17  1  0
 17 18  2  0
 18 19  1  0
 19 20  2  0
 20 21  1  0
 21 22  2  0
 22 23  1  0
 20 24  1  0
 24 25  1  0
 25 26  1  0
 26 27  1  0
 26 28  1  0
 12 29  1  0
 29 30  2  0
  5 31  1  0
 31 32  1  0
 32  2  1  0
 30  9  1  0
 22 17  1  0
 28 19  1  0
  1 33  1  0
  1 34  1  0
  1 35  1  0
  2 36  1  0
  3 37  1  0
  3 38  1  0
  4 39  1  0
  4 40  1  0
 10 41  1  0
 11 42  1  0
 18 43  1  0
 21 44  1  0
 24 45  1  0
 24 46  1  0
 25 47  1  0
 25 48  1  0
 27 49  1  0
 27 50  1  0
 27 51  1  0
 28 52  1  0
 28 53  1  0
 29 54  1  0
 30 55  1  0
 31 56  1  0
 31 57  1  0
 32 58  1  0
 32 59  1  0
M  CHG  2  16  -1  23  -1
M  END
>  <UniqueID>  (8) 
6

>  <SMILES>  (8) 
CC1CCN(S(=O)(=O)c2ccc(S(=O)(=O)[N-]c3cc4c(cc3[O-])CCN(C)C4)cc2)CC1

>  <Energy>  (8) 
76.4082354532758

>  <Genealogy>  (8) 
CC1CCN(S(=O)(=O)c2ccc(S(=O)(=O)[N-]c3cc4c(cc3[O-])CCN(C)C4)cc2)CC1 (protonated)
CC1CCN(S(=O)(=O)c2ccc(S(=O)(=O)[N-]c3cc4c(cc3[O-])CCN(C)C4)cc2)CC1 (3D coordinates assigned)
CC1CCN(S(=O)(=O)c2ccc(S(=O)(=O)[N-]c3cc4c(cc3[O-])CCN(C)C4)cc2)CC1 (nonaromatic ring conformer: 76.4082354532758 kcal/mol)

>  <smiles>  (8) 
CC1CCN(S(=O)(=O)c2ccc(S(=O)(=O)Nc3cc4c(cc3O)CCN(C)C4)cc2)CC1

>  <score_type>  (8) 
oracle

>  <origin>  (8) 
adgpu

>  <m_score__min__energy>  (8) 
-16.199999999999999

>  <m_primary>  (8) 
energy

$$$$
8:0
     RDKit          3D

 42 44  0  0  0  0  0  0  0  0999 V2000
   -4.7300   15.0750  -33.8540 C   0  0  0  0  0  0  0  0  0  0  0  0
   -5.6880   16.1340  -34.4170 C   0  0  0  0  0  0  0  0  0  0  0  0
   -4.9160   17.4270  -34.7860 C   0  0  0  0  0  0  0  0  0  0  0  0
   -5.7550   18.6880  -34.5680 C   0  0  0  0  0  0  0  0  0  0  0  0
   -6.1910   18.7580  -33.1660 N   0  0  0  0  0  0  0  0  0  0  0  0
   -6.2520   20.0280  -32.4890 C   0  0  0  0  0  0  0  0  0  0  0  0
   -5.1910   20.6010  -31.8810 N   0  0  0  0  0  0  0  0  0  0  0  0
   -5.5010   21.7970  -31.3070 C   0  0  0  0  0  0  0  0  0  0  0  0
   -4.4750   22.5990  -30.5910 C   0  0  0  0  0  0  0  0  0  0  0  0
   -3.1380   22.1570  -30.5600 C   0  0  0  0  0  0  0  0  0  0  0  0
   -2.1590   22.8950  -29.8900 C   0  0  0  0  0  0  0  0  0  0  0  0
   -2.4960   24.0830  -29.2310 C   0  0  0  0  0  0  0  0  0  0  0  0
   -1.2580   25.0200  -28.4030 S   0  0  0  0  0  0  0  0  0  0  0  0
   -1.6220   25.0750  -26.6640 C   0  0  0  0  0  0  0  0  0  0  0  0
   -1.2240   26.4180  -28.9540 O   0  0  0  0  0  0  0  0  0  0  0  0
    0.0880   24.3860  -28.6160 O   0  0  0  0  0  0  0  0  0  0  0  0
   -3.8210   24.5340  -29.2580 C   0  0  0  0  0  0  0  0  0  0  0  0
   -4.8040   23.7980  -29.9270 C   0  0  0  0  0  0  0  0  0  0  0  0
   -6.8370   22.1830  -31.4670 C   0  0  0  0  0  0  0  0  0  0  0  0
   -7.6290   20.9850  -32.3440 S   0  0  0  0  0  0  0  0  0  0  0  0
   -6.5960   17.5300  -32.4630 C   0  0  0  0  0  0  0  0  0  0  0  0
   -6.8700   16.3870  -33.4480 C   0  0  0  0  0  0  0  0  0  0  0  0
   -4.7563   15.1041  -32.7547 H   0  0  0  0  0  0  0  0  0  0  0  0
   -5.0396   14.0785  -34.2019 H   0  0  0  0  0  0  0  0  0  0  0  0
   -3.7075   15.2835  -34.2019 H   0  0  0  0  0  0  0  0  0  0  0  0
   -6.1317   15.7542  -35.3491 H   0  0  0  0  0  0  0  0  0  0  0  0
   -4.0133   17.4905  -34.1605 H   0  0  0  0  0  0  0  0  0  0  0  0
   -4.6619   17.3731  -35.8549 H   0  0  0  0  0  0  0  0  0  0  0  0
   -5.1503   19.5752  -34.8074 H   0  0  0  0  0  0  0  0  0  0  0  0
   -6.6385   18.6548  -35.2225 H   0  0  0  0  0  0  0  0  0  0  0  0
   -2.8619   21.2214  -31.0684 H   0  0  0  0  0  0  0  0  0  0  0  0
   -1.1177   22.5405  -29.8803 H   0  0  0  0  0  0  0  0  0  0  0  0
   -0.6939   24.9348  -26.0905 H   0  0  0  0  0  0  0  0  0  0  0  0
   -2.0645   26.0502  -26.4127 H   0  0  0  0  0  0  0  0  0  0  0  0
   -2.3329   24.2741  -26.4127 H   0  0  0  0  0  0  0  0  0  0  0  0
   -4.0902   25.4720  -28.7504 H   0  0  0  0  0  0  0  0  0  0  0  0
   -5.8434   24.1580  -29.9351 H   0  0  0  0  0  0  0  0  0  0  0  0
   -7.2908   23.1095  -31.0853 H   0  0  0  0  0  0  0  0  0  0  0  0
   -5.7902   17.2271  -31.7782 H   0  0  0  0  0  0  0  0  0  0  0  0
   -7.5222   17.7382  -31.9073 H   0  0  0  0  0  0  0  0  0  0  0  0
   -7.0582   15.4669  -32.8753 H   0  0  0  0  0  0  0  0  0  0  0  0
   -7.7408   16.6745  -34.0554 H   0  0  0  0  0  0  0  0  0  0  0  0
  1  2  1  0
  2  3  1  0
  3  4  1  0
  4  5  1  0
  5  6  1  0
  6  7  2  0
  7  8  1  0
  8  9  1  0
  9 10  2  0
 10 11  1  0
 11 12  2  0
 12 13  1  0
 13 14  1  0
 13 15  2  0
 13 16  2  0
 12 17  1  0
 17 18  2  0
  8 19  2  0
 19 20  1  0
  5 21  1  0
 21 22  1  0
 22  2  1  0
 20  6  1  0
 18  9  1  0
  1 23  1  0
  1 24  1  0
  1 25  1  0
  2 26  1  0
  3 27  1  0
  3 28  1  0
  4 29  1  0
  4 30  1  0
 10 31  1  0
 11 32  1  0
 14 33  1  0
 14 34  1  0
 14 35  1  0
 17 36  1  0
 18 37  1  0
 19 38  1  0
 21 39  1  0
 21 40  1  0
 22 41  1  0
 22 42  1  0
M  END
>  <UniqueID>  (9) 
7

>  <SMILES>  (9) 
CC1CCN(c2nc(-c3ccc(S(C)(=O)=O)cc3)cs2)CC1

>  <Energy>  (9) 
72.37396638458887

>  <Genealogy>  (9) 
CC1CCN(c2nc(-c3ccc(S(C)(=O)=O)cc3)cs2)CC1 (3D coordinates assigned)
CC1CCN(c2nc(-c3ccc(S(C)(=O)=O)cc3)cs2)CC1 (nonaromatic ring conformer: 72.37396638458887 kcal/mol)

>  <smiles>  (9) 
CC1CCN(c2nc(-c3ccc(S(C)(=O)=O)cc3)cs2)CC1

>  <score_type>  (9) 
oracle

>  <origin>  (9) 
adgpu

>  <m_score__min__energy>  (9) 
-8.2599999999999998

>  <m_primary>  (9) 
energy

$$$$
9:0
     RDKit          3D

 59 62  0  0  0  0  0  0  0  0999 V2000
   -4.3710   21.2900  -33.4150 C   0  0  0  0  0  0  0  0  0  0  0  0
   -3.4750   20.1450  -33.5640 N   0  0  0  0  0  0  0  0  0  0  0  0
   -2.1320   20.1020  -33.4640 C   0  0  0  0  0  0  0  0  0  0  0  0
   -1.2490   21.2700  -33.1350 C   0  0  0  0  0  0  0  0  0  0  0  0
   -1.0910   21.3990  -31.6690 N   0  0  0  0  0  0  0  0  0  0  0  0
    0.0830   20.6170  -31.1960 C   0  0  0  0  0  0  0  0  0  0  0  0
   -0.1170   20.1680  -29.7680 C   0  0  0  0  0  0  0  0  0  0  0  0
   -0.1960   21.1310  -28.7480 C   0  0  0  0  0  0  0  0  0  0  0  0
   -0.3960   20.7430  -27.4210 C   0  0  0  0  0  0  0  0  0  0  0  0
   -0.5100   19.3890  -27.0970 C   0  0  0  0  0  0  0  0  0  0  0  0
   -0.4160   18.4210  -28.0990 C   0  0  0  0  0  0  0  0  0  0  0  0
   -0.2130   18.8010  -29.4310 C   0  0  0  0  0  0  0  0  0  0  0  0
   -0.1140   17.8160  -30.4070 O   0  0  0  0  0  0  0  0  0  0  0  0
   -2.3410   20.9820  -30.9880 C   0  0  0  0  0  0  0  0  0  0  0  0
   -2.9770   22.1230  -30.2310 C   0  0  0  0  0  0  0  0  0  0  0  0
   -3.1250   23.3790  -30.8450 C   0  0  0  0  0  0  0  0  0  0  0  0
   -3.7350   24.4340  -30.1590 C   0  0  0  0  0  0  0  0  0  0  0  0
   -3.8730   25.6750  -30.7720 O   0  0  0  0  0  0  0  0  0  0  0  0
   -4.2040   24.2420  -28.8570 C   0  0  0  0  0  0  0  0  0  0  0  0
   -4.0520   23.0010  -28.2330 C   0  0  0  0  0  0  0  0  0  0  0  0
   -3.4320   21.9470  -28.9090 C   0  0  0  0  0  0  0  0  0  0  0  0
   -3.2780   20.7240  -28.2630 O   0  0  0  0  0  0  0  0  0  0  0  0
   -1.6580   18.8720  -33.7490 N   0  0  0  0  0  0  0  0  0  0  0  0
   -2.7030   18.1150  -34.0510 N   0  0  0  0  0  0  0  0  0  0  0  0
   -3.7940   18.8960  -33.9510 C   0  0  0  0  0  0  0  0  0  0  0  0
   -5.4550   18.3280  -34.3240 S   0  0  0  0  0  0  0  0  0  0  0  0
   -5.9910   18.2640  -32.5810 C   0  0  0  0  0  0  0  0  0  0  0  0
   -7.0910   19.2570  -32.3220 C   0  0  0  0  0  0  0  0  0  0  0  0
   -8.4270   18.9030  -32.5580 C   0  0  0  0  0  0  0  0  0  0  0  0
   -9.4490   19.8280  -32.3320 C   0  0  0  0  0  0  0  0  0  0  0  0
   -9.1460   21.1160  -31.8810 C   0  0  0  0  0  0  0  0  0  0  0  0
   -7.8090   21.4980  -31.6640 C   0  0  0  0  0  0  0  0  0  0  0  0
   -7.5040   22.8880  -31.1610 C   0  0  0  0  0  0  0  0  0  0  0  0
   -6.2490   23.2770  -31.5930 F   0  0  0  0  0  0  0  0  0  0  0  0
   -7.5260   22.9450  -29.7770 F   0  0  0  0  0  0  0  0  0  0  0  0
   -8.4460   23.7710  -31.6570 F   0  0  0  0  0  0  0  0  0  0  0  0
   -6.7890   20.5550  -31.8760 C   0  0  0  0  0  0  0  0  0  0  0  0
   -4.5306   21.4940  -32.3459 H   0  0  0  0  0  0  0  0  0  0  0  0
   -3.9210   22.1724  -33.8935 H   0  0  0  0  0  0  0  0  0  0  0  0
   -5.3357   21.0654  -33.8935 H   0  0  0  0  0  0  0  0  0  0  0  0
   -0.2610   21.1185  -33.5943 H   0  0  0  0  0  0  0  0  0  0  0  0
   -1.7105   22.1884  -33.5269 H   0  0  0  0  0  0  0  0  0  0  0  0
    0.2110   19.7331  -31.8382 H   0  0  0  0  0  0  0  0  0  0  0  0
    0.9772   21.2558  -31.2447 H   0  0  0  0  0  0  0  0  0  0  0  0
   -0.0997   22.1983  -28.9962 H   0  0  0  0  0  0  0  0  0  0  0  0
   -0.4638   21.5046  -26.6302 H   0  0  0  0  0  0  0  0  0  0  0  0
   -0.6738   19.0853  -26.0525 H   0  0  0  0  0  0  0  0  0  0  0  0
   -0.5018   17.3552  -27.8406 H   0  0  0  0  0  0  0  0  0  0  0  0
   -3.0522   20.6159  -31.7430 H   0  0  0  0  0  0  0  0  0  0  0  0
   -2.0884   20.1921  -30.2653 H   0  0  0  0  0  0  0  0  0  0  0  0
   -2.7589   23.5328  -31.8708 H   0  0  0  0  0  0  0  0  0  0  0  0
   -4.6937   25.0692  -28.3222 H   0  0  0  0  0  0  0  0  0  0  0  0
   -4.4212   22.8535  -27.2074 H   0  0  0  0  0  0  0  0  0  0  0  0
   -6.3580   17.2522  -32.3538 H   0  0  0  0  0  0  0  0  0  0  0  0
   -5.1330   18.5139  -31.9396 H   0  0  0  0  0  0  0  0  0  0  0  0
   -8.6710   17.8941  -32.9221 H   0  0  0  0  0  0  0  0  0  0  0  0
  -10.4962   19.5418  -32.5096 H   0  0  0  0  0  0  0  0  0  0  0  0
   -9.9573   21.8351  -31.6946 H   0  0  0  0  0  0  0  0  0  0  0  0
   -5.7418   20.8361  -31.6907 H   0  0  0  0  0  0  0  0  0  0  0  0
  1  2  1  0
  2  3  1  0
  3  4  1  0
  4  5  1  0
  5  6  1  0
  6  7  1  0
  7  8  2  0
  8  9  1  0
  9 10  2  0
 10 11  1  0
 11 12  2  0
 12 13  1  0
  5 14  1  0
 14 15  1  0
 15 16  2  0
 16 17  1  0
 17 18  1  0
 17 19  2  0
 19 20  1  0
 20 21  2  0
 21 22  1  0
  3 23  2  0
 23 24  1  0
 24 25  2  0
 25 26  1  0
 26 27  1  0
 27 28  1  0
 28 29  2  0
 29 30  1  0
 30 31  2  0
 31 32  1  0
 32 33  1  0
 33 34  1  0
 33 35  1  0
 33 36  1  0
 32 37  2  0
 25  2  1  0
 37 28  1  0
 12  7  1  0
 21 15  1  0
  1 38  1  0
  1 39  1  0
  1 40  1  0
  4 41  1  0
  4 42  1  0
  6 43  1  0
  6 44  1  0
  8 45  1  0
  9 46  1  0
 10 47  1  0
 11 48  1  0
 14 49  1  0
 14 50  1  0
 16 51  1  0
 19 52  1  0
 20 53  1  0
 27 54  1  0
 27 55  1  0
 29 56  1  0
 30 57  1  0
 31 58  1  0
 37 59  1  0
M  CHG  3  13  -1  18  -1  22  -1
M  END
>  <UniqueID>  (10) 
8

>  <SMILES>  (10) 
Cn1c(CN(Cc2ccccc2[O-])Cc2cc([O-])ccc2[O-])nnc1SCc1cccc(C(F)(F)F)c1

>  <Energy>  (10) 
90.0488353487037

>  <Genealogy>  (10) 
Cn1c(CN(Cc2ccccc2[O-])Cc2cc([O-])ccc2[O-])nnc1SCc1cccc(C(F)(F)F)c1 (protonated)
Cn1c(CN(Cc2ccccc2[O-])Cc2cc([O-])ccc2[O-])nnc1SCc1cccc(C(F)(F)F)c1 (3D coordinates assigned)
Cn1c(CN(Cc2ccccc2[O-])Cc2cc([O-])ccc2[O-])nnc1SCc1cccc(C(F)(F)F)c1 (optimized conformer: 90.0488353487037 kcal/mol)

>  <smiles>  (10) 
Cn1c(CN(Cc2ccccc2O)Cc2cc(O)ccc2O)nnc1SCc1cccc(C(F)(F)F)c1

>  <score_type>  (10) 
oracle

>  <origin>  (10) 
adgpu

>  <m_score__min__energy>  (10) 
-14.460000000000001

>  <m_primary>  (10) 
energy

$$$$
10:0
     RDKit          3D

 52 55  0  0  0  0  0  0  0  0999 V2000
    4.1380   17.6230  -28.5960 C   0  0  0  0  0  0  0  0  0  0  0  0
    2.8820   17.7950  -27.7950 C   0  0  0  0  0  0  0  0  0  0  0  0
    2.9110   17.5150  -26.5650 O   0  0  0  0  0  0  0  0  0  0  0  0
    1.6470   18.2390  -28.4100 N   0  0  0  0  0  0  0  0  0  0  0  0
    0.4540   18.4780  -27.5810 C   0  0  0  0  0  0  0  0  0  0  0  0
   -0.3100   19.7080  -28.0870 C   0  0  0  0  0  0  0  0  0  0  0  0
   -0.4950   19.6670  -29.5480 N   0  0  0  0  0  0  0  0  0  0  0  0
   -1.5010   20.5010  -30.1500 C   0  0  0  0  0  0  0  0  0  0  0  0
   -2.3280   19.9900  -30.9520 O   0  0  0  0  0  0  0  0  0  0  0  0
   -1.5670   21.9520  -29.8720 C   0  0  0  0  0  0  0  0  0  0  0  0
   -0.6220   22.5550  -29.0260 C   0  0  0  0  0  0  0  0  0  0  0  0
   -0.7100   23.9170  -28.7270 C   0  0  0  0  0  0  0  0  0  0  0  0
   -1.7490   24.6880  -29.2530 C   0  0  0  0  0  0  0  0  0  0  0  0
   -1.8310   26.0410  -28.9410 O   0  0  0  0  0  0  0  0  0  0  0  0
   -2.7030   24.0940  -30.0900 C   0  0  0  0  0  0  0  0  0  0  0  0
   -3.8070   24.8490  -30.5820 N   0  0  0  0  0  0  0  0  0  0  0  0
   -5.4340   24.2560  -30.4410 S   0  0  0  0  0  0  0  0  0  0  0  0
   -5.7360   23.8820  -29.0140 O   0  0  0  0  0  0  0  0  0  0  0  0
   -6.3750   25.3620  -30.8290 O   0  0  0  0  0  0  0  0  0  0  0  0
   -5.6600   22.8680  -31.5330 C   0  0  0  0  0  0  0  0  0  0  0  0
   -4.5810   22.4990  -32.3570 C   0  0  0  0  0  0  0  0  0  0  0  0
   -4.6670   21.3910  -33.2030 C   0  0  0  0  0  0  0  0  0  0  0  0
   -5.8240   20.6160  -33.2310 C   0  0  0  0  0  0  0  0  0  0  0  0
   -6.9100   20.9490  -32.4190 C   0  0  0  0  0  0  0  0  0  0  0  0
   -8.0270   20.1730  -32.4510 N   0  0  0  0  0  0  0  0  0  0  0  0
   -9.1150   20.4480  -31.6870 C   0  0  0  0  0  0  0  0  0  0  0  0
   -9.1140   21.5580  -30.8440 C   0  0  0  0  0  0  0  0  0  0  0  0
   -7.9880   22.3820  -30.7890 C   0  0  0  0  0  0  0  0  0  0  0  0
   -6.8500   22.0870  -31.5670 C   0  0  0  0  0  0  0  0  0  0  0  0
   -2.6060   22.7340  -30.4040 C   0  0  0  0  0  0  0  0  0  0  0  0
    0.1090   18.5880  -30.3380 C   0  0  0  0  0  0  0  0  0  0  0  0
    1.5480   18.3350  -29.8790 C   0  0  0  0  0  0  0  0  0  0  0  0
    4.9939   17.5058  -27.9151 H   0  0  0  0  0  0  0  0  0  0  0  0
    4.0488   16.7287  -29.2302 H   0  0  0  0  0  0  0  0  0  0  0  0
    4.2925   18.5084  -29.2302 H   0  0  0  0  0  0  0  0  0  0  0  0
   -0.2035   17.5975  -27.6294 H   0  0  0  0  0  0  0  0  0  0  0  0
    0.7704   18.6563  -26.5427 H   0  0  0  0  0  0  0  0  0  0  0  0
   -1.2972   19.7395  -27.6027 H   0  0  0  0  0  0  0  0  0  0  0  0
    0.2773   20.6044  -27.8391 H   0  0  0  0  0  0  0  0  0  0  0  0
    0.1916   21.9520  -28.5966 H   0  0  0  0  0  0  0  0  0  0  0  0
    0.0423   24.3841  -28.0745 H   0  0  0  0  0  0  0  0  0  0  0  0
   -3.6551   23.0925  -32.3346 H   0  0  0  0  0  0  0  0  0  0  0  0
   -3.8170   21.1292  -33.8502 H   0  0  0  0  0  0  0  0  0  0  0  0
   -5.8823   19.7401  -33.8939 H   0  0  0  0  0  0  0  0  0  0  0  0
   -9.9983   19.7941  -31.7333 H   0  0  0  0  0  0  0  0  0  0  0  0
   -9.9952   21.7836  -30.2255 H   0  0  0  0  0  0  0  0  0  0  0  0
   -7.9890   23.2664  -30.1349 H   0  0  0  0  0  0  0  0  0  0  0  0
   -3.3486   22.2736  -31.0723 H   0  0  0  0  0  0  0  0  0  0  0  0
   -0.4806   17.6686  -30.2072 H   0  0  0  0  0  0  0  0  0  0  0  0
    0.1179   18.8822  -31.3979 H   0  0  0  0  0  0  0  0  0  0  0  0
    1.9022   17.3924  -30.3219 H   0  0  0  0  0  0  0  0  0  0  0  0
    2.1655   19.1838  -30.2080 H   0  0  0  0  0  0  0  0  0  0  0  0
  1  2  1  0
  2  3  2  0
  2  4  1  0
  4  5  1  0
  5  6  1  0
  6  7  1  0
  7  8  1  0
  8  9  2  0
  8 10  1  0
 10 11  2  0
 11 12  1  0
 12 13  2  0
 13 14  1  0
 13 15  1  0
 15 16  1  0
 16 17  1  0
 17 18  2  0
 17 19  2  0
 17 20  1  0
 20 21  2  0
 21 22  1  0
 22 23  2  0
 23 24  1  0
 24 25  2  0
 25 26  1  0
 26 27  2  0
 27 28  1  0
 28 29  2  0
 15 30  2  0
  7 31  1  0
 31 32  1  0
 32  4  1  0
 30 10  1  0
 29 20  1  0
 29 24  1  0
  1 33  1  0
  1 34  1  0
  1 35  1  0
  5 36  1  0
  5 37  1  0
  6 38  1  0
  6 39  1  0
 11 40  1  0
 12 41  1  0
 21 42  1  0
 22 43  1  0
 23 44  1  0
 26 45  1  0
 27 46  1  0
 28 47  1  0
 30 48  1  0
 31 49  1  0
 31 50  1  0
 32 51  1  0
 32 52  1  0
M  CHG  2  14  -1  16  -1
M  END
>  <UniqueID>  (11) 
9

>  <SMILES>  (11) 
CC(=O)N1CCN(C(=O)c2ccc([O-])c([N-]S(=O)(=O)c3cccc4ncccc34)c2)CC1

>  <Energy>  (11) 
73.90115408500932

>  <Genealogy>  (11) 
CC(=O)N1CCN(C(=O)c2ccc([O-])c([N-]S(=O)(=O)c3cccc4ncccc34)c2)CC1 (protonated)
CC(=O)N1CCN(C(=O)c2ccc([O-])c([N-]S(=O)(=O)c3cccc4ncccc34)c2)CC1 (3D coordinates assigned)
CC(=O)N1CCN(C(=O)c2ccc([O-])c([N-]S(=O)(=O)c3cccc4ncccc34)c2)CC1 (nonaromatic ring conformer: 73.90115408500932 kcal/mol)

>  <smiles>  (11) 
CC(=O)N1CCN(C(=O)c2ccc(O)c(NS(=O)(=O)c3cccc4ncccc34)c2)CC1

>  <score_type>  (11) 
oracle

>  <origin>  (11) 
adgpu

>  <m_score__min__energy>  (11) 
-13.92

>  <m_primary>  (11) 
energy

$$$$
11:0
     RDKit          3D

 77 81  0  0  0  0  0  0  0  0999 V2000
    0.2890   21.5840  -27.3140 H   0  0  0  0  0  0  0  0  0  0  0  0
    0.1870   20.7810  -27.9270 O   0  0  0  0  0  0  0  0  0  0  0  0
   -0.3490   20.9190  -29.2110 C   0  0  0  0  0  0  0  0  0  0  0  0
   -0.5030   19.7960  -30.0350 C   0  0  0  0  0  0  0  0  0  0  0  0
   -0.1713   18.8112  -29.6742 H   0  0  0  0  0  0  0  0  0  0  0  0
   -1.0720   19.9060  -31.3100 C   0  0  0  0  0  0  0  0  0  0  0  0
   -1.5410   21.1600  -31.7470 C   0  0  0  0  0  0  0  0  0  0  0  0
   -1.3320   22.3040  -30.9500 C   0  0  0  0  0  0  0  0  0  0  0  0
   -1.6436   23.2929  -31.3174 H   0  0  0  0  0  0  0  0  0  0  0  0
   -0.7250   22.1840  -29.6840 C   0  0  0  0  0  0  0  0  0  0  0  0
   -0.5160   23.3210  -28.8410 N   0  0  0  0  0  0  0  0  0  0  0  0
   -1.6990   24.5430  -28.5130 S   0  0  0  0  0  0  0  0  0  0  0  0
   -1.9640   24.6420  -27.0430 O   0  0  0  0  0  0  0  0  0  0  0  0
   -1.2060   25.8680  -29.0180 O   0  0  0  0  0  0  0  0  0  0  0  0
   -3.1880   24.0650  -29.3120 C   0  0  0  0  0  0  0  0  0  0  0  0
   -3.8580   24.9300  -30.1830 C   0  0  0  0  0  0  0  0  0  0  0  0
   -3.5018   25.9627  -30.3123 H   0  0  0  0  0  0  0  0  0  0  0  0
   -4.9480   24.4980  -30.8700 N   0  0  0  0  0  0  0  0  0  0  0  0
   -5.4390   23.2340  -30.7440 C   0  0  0  0  0  0  0  0  0  0  0  0
   -6.4740   22.9050  -31.4730 N   0  0  0  0  0  0  0  0  0  0  0  0
   -7.1840   21.6240  -31.5960 C   0  0  0  0  0  0  0  0  0  0  0  0
   -7.2909   21.2132  -30.5812 H   0  0  0  0  0  0  0  0  0  0  0  0
   -6.3670   20.5720  -32.3780 C   0  0  0  0  0  0  0  0  0  0  0  0
   -5.5539   21.0827  -32.9147 H   0  0  0  0  0  0  0  0  0  0  0  0
   -5.9739   19.8438  -31.6533 H   0  0  0  0  0  0  0  0  0  0  0  0
   -7.2270   19.8060  -33.3960 C   0  0  0  0  0  0  0  0  0  0  0  0
   -7.4283   20.4636  -34.2545 H   0  0  0  0  0  0  0  0  0  0  0  0
   -6.6687   18.9080  -33.6992 H   0  0  0  0  0  0  0  0  0  0  0  0
   -8.5170   19.3640  -32.8230 N   0  0  0  0  0  0  0  0  0  0  0  0
   -8.3950   18.1710  -31.9630 C   0  0  0  0  0  0  0  0  0  0  0  0
   -8.2432   18.4843  -30.9195 H   0  0  0  0  0  0  0  0  0  0  0  0
   -9.3140   17.5705  -32.0336 H   0  0  0  0  0  0  0  0  0  0  0  0
   -7.2190   17.3480  -32.4170 C   0  0  0  0  0  0  0  0  0  0  0  0
   -7.2330   16.7730  -33.6960 C   0  0  0  0  0  0  0  0  0  0  0  0
   -8.0824   16.9610  -34.3692 H   0  0  0  0  0  0  0  0  0  0  0  0
   -6.1780   15.9640  -34.1220 C   0  0  0  0  0  0  0  0  0  0  0  0
   -6.2097   15.5054  -35.1213 H   0  0  0  0  0  0  0  0  0  0  0  0
   -5.0750   15.7320  -33.2810 C   0  0  0  0  0  0  0  0  0  0  0  0
   -3.9610   14.8610  -33.7180 C   0  0  0  0  0  0  0  0  0  0  0  0
   -3.5360   14.9530  -34.9070 O   0  0  0  0  0  0  0  0  0  0  0  0
   -3.3130   13.9410  -32.8110 N   0  0  0  0  0  0  0  0  0  0  0  0
   -4.0530   13.2660  -31.7490 C   0  0  0  0  0  0  0  0  0  0  0  0
   -3.6815   13.6049  -30.7707 H   0  0  0  0  0  0  0  0  0  0  0  0
   -5.1228   13.5058  -31.8380 H   0  0  0  0  0  0  0  0  0  0  0  0
   -3.9123   12.1787  -31.8380 H   0  0  0  0  0  0  0  0  0  0  0  0
   -1.8680   13.7770  -32.9040 C   0  0  0  0  0  0  0  0  0  0  0  0
   -1.4387   13.7283  -31.8924 H   0  0  0  0  0  0  0  0  0  0  0  0
   -1.6386   12.8471  -33.4449 H   0  0  0  0  0  0  0  0  0  0  0  0
   -1.4360   14.6319  -33.4449 H   0  0  0  0  0  0  0  0  0  0  0  0
   -5.0770   16.2810  -31.9880 C   0  0  0  0  0  0  0  0  0  0  0  0
   -4.2358   16.0807  -31.3081 H   0  0  0  0  0  0  0  0  0  0  0  0
   -6.1420   17.0810  -31.5590 C   0  0  0  0  0  0  0  0  0  0  0  0
   -6.1345   17.5029  -30.5431 H   0  0  0  0  0  0  0  0  0  0  0  0
   -9.3300   20.4460  -32.1980 C   0  0  0  0  0  0  0  0  0  0  0  0
  -10.2520   20.5674  -32.7855 H   0  0  0  0  0  0  0  0  0  0  0  0
   -9.5224   20.1363  -31.1602 H   0  0  0  0  0  0  0  0  0  0  0  0
   -8.6210   21.8090  -32.1270 C   0  0  0  0  0  0  0  0  0  0  0  0
   -8.5843   22.2543  -33.1322 H   0  0  0  0  0  0  0  0  0  0  0  0
   -9.1765   22.4723  -31.4477 H   0  0  0  0  0  0  0  0  0  0  0  0
   -4.7970   22.3430  -29.8570 C   0  0  0  0  0  0  0  0  0  0  0  0
   -5.1839   21.3223  -29.7206 H   0  0  0  0  0  0  0  0  0  0  0  0
   -3.6690   22.7660  -29.1550 C   0  0  0  0  0  0  0  0  0  0  0  0
   -3.1560   22.0712  -28.4738 H   0  0  0  0  0  0  0  0  0  0  0  0
   -2.2230   21.2930  -33.0800 C   0  0  0  0  0  0  0  0  0  0  0  0
   -1.4893   21.6178  -33.8325 H   0  0  0  0  0  0  0  0  0  0  0  0
   -3.0304   22.0354  -32.9970 H   0  0  0  0  0  0  0  0  0  0  0  0
   -2.8220   19.9500  -33.5050 C   0  0  0  0  0  0  0  0  0  0  0  0
   -3.2540   20.0435  -34.5123 H   0  0  0  0  0  0  0  0  0  0  0  0
   -3.6091   19.6582  -32.7941 H   0  0  0  0  0  0  0  0  0  0  0  0
   -1.7670   18.9240  -33.5170 N   0  0  0  0  0  0  0  0  0  0  0  0
   -2.2870   17.6760  -34.1040 C   0  0  0  0  0  0  0  0  0  0  0  0
   -2.5752   16.9843  -33.2987 H   0  0  0  0  0  0  0  0  0  0  0  0
   -3.1660   17.9016  -34.7257 H   0  0  0  0  0  0  0  0  0  0  0  0
   -1.5079   17.2107  -34.7257 H   0  0  0  0  0  0  0  0  0  0  0  0
   -1.2390   18.6550  -32.1500 C   0  0  0  0  0  0  0  0  0  0  0  0
   -0.2583   18.1660  -32.2454 H   0  0  0  0  0  0  0  0  0  0  0  0
   -1.9748   18.0172  -31.6383 H   0  0  0  0  0  0  0  0  0  0  0  0
  1  2  1  0
  2  3  1  0
  3  4  2  0
  4  5  1  0
  4  6  1  0
  6  7  2  0
  7  8  1  0
  8  9  1  0
  8 10  2  0
 10 11  1  0
 11 12  1  0
 12 13  2  0
 12 14  2  0
 12 15  1  0
 15 16  2  0
 16 17  1  0
 16 18  1  0
 18 19  1  0
 19 20  2  0
 20 21  1  0
 21 22  1  0
 21 23  1  0
 23 24  1  0
 23 25  1  0
 23 26  1  0
 26 27  1  0
 26 28  1  0
 26 29  1  0
 29 30  1  0
 30 31  1  0
 30 32  1  0
 30 33  1  0
 33 34  2  0
 34 35  1  0
 34 36  1  0
 36 37  1  0
 36 38  2  0
 38 39  1  0
 39 40  2  0
 39 41  1  0
 41 42  1  0
 42 43  1  0
 42 44  1  0
 42 45  1  0
 41 46  1  0
 46 47  1  0
 46 48  1  0
 46 49  1  0
 38 50  1  0
 50 51  1  0
 50 52  2  0
 52 53  1  0
 29 54  1  0
 54 55  1  0
 54 56  1  0
 54 57  1  0
 57 58  1  0
 57 59  1  0
 19 60  1  0
 60 61  1  0
 60 62  2  0
 62 63  1  0
  7 64  1  0
 64 65  1  0
 64 66  1  0
 64 67  1  0
 67 68  1  0
 67 69  1  0
 67 70  1  0
 70 71  1  0
 71 72  1  0
 71 73  1  0
 71 74  1  0
 70 75  1  0
 75 76  1  0
 75 77  1  0
 10  3  1  0
 62 15  1  0
 75  6  1  0
 57 21  1  0
 52 33  1  0
M  CHG  2  11  -1  18  -1
M  END
>  <UniqueID>  (12) 
10

>  <SMILES>  (12) 
CN1CCc2cc([N-]S(=O)(=O)c3cc/c(=N\C4CCN(Cc5ccc(C(=O)N(C)C)cc5)CC4)[n-]c3)c(O)cc2C1

>  <Energy>  (12) 
112.48890542319927

>  <Genealogy>  (12) 
CN1CCc2cc([N-]S(=O)(=O)c3ccc(=NC4CCN(Cc5ccc(C(=O)N(C)C)cc5)CC4)[n-]c3)c(O)cc2C1 (protonated)
CN1CCc2cc([N-]S(=O)(=O)c3cc/c(=N\C4CCN(Cc5ccc(C(=O)N(C)C)cc5)CC4)[n-]c3)c(O)cc2C1 (cis-trans isomerization)
CN1CCc2cc([N-]S(=O)(=O)c3cc/c(=N\C4CCN(Cc5ccc(C(=O)N(C)C)cc5)CC4)[n-]c3)c(O)cc2C1 (3D coordinates assigned)
CN1CCc2cc([N-]S(=O)(=O)c3cc/c(=N\C4CCN(Cc5ccc(C(=O)N(C)C)cc5)CC4)[n-]c3)c(O)cc2C1 (nonaromatic ring conformer: 112.48890542319927 kcal/mol)

>  <smiles>  (12) 
CN1CCc2cc(NS(=O)(=O)c3ccc(=NC4CCN(Cc5ccc(C(=O)N(C)C)cc5)CC4)[nH]c3)c(O)cc2C1

>  <score_type>  (12) 
oracle

>  <origin>  (12) 
adgpu

>  <m_score__min__energy>  (12) 
-12.73

>  <m_primary>  (12) 
energy

$$$$
12:0
     RDKit          3D

 64 67  0  0  0  0  0  0  0  0999 V2000
   -0.8370   27.1990  -27.7700 C   0  0  0  0  0  0  0  0  0  0  0  0
   -1.6130   26.3880  -28.6460 O   0  0  0  0  0  0  0  0  0  0  0  0
   -1.7260   24.9920  -28.5510 C   0  0  0  0  0  0  0  0  0  0  0  0
   -0.9750   24.2560  -27.6140 C   0  0  0  0  0  0  0  0  0  0  0  0
   -1.1470   22.8760  -27.4960 C   0  0  0  0  0  0  0  0  0  0  0  0
   -2.0710   22.2060  -28.3070 C   0  0  0  0  0  0  0  0  0  0  0  0
   -2.3030   20.4640  -28.1360 S   0  0  0  0  0  0  0  0  0  0  0  0
   -3.4870   20.0410  -28.9590 O   0  0  0  0  0  0  0  0  0  0  0  0
   -2.5980   20.1430  -26.6970 O   0  0  0  0  0  0  0  0  0  0  0  0
   -0.8960   19.5680  -28.6590 N   0  0  0  0  0  0  0  0  0  0  0  0
    0.2400   20.4650  -28.9700 C   0  0  0  0  0  0  0  0  0  0  0  0
    1.3250   20.4220  -27.8780 C   0  0  0  0  0  0  0  0  0  0  0  0
    1.8550   19.1220  -27.6670 O   0  0  0  0  0  0  0  0  0  0  0  0
    0.9060   18.0770  -27.8460 C   0  0  0  0  0  0  0  0  0  0  0  0
   -0.5550   18.5210  -27.6770 C   0  0  0  0  0  0  0  0  0  0  0  0
   -2.8080   22.9300  -29.2540 C   0  0  0  0  0  0  0  0  0  0  0  0
   -2.6290   24.3100  -29.3960 C   0  0  0  0  0  0  0  0  0  0  0  0
   -3.4200   25.0000  -30.3760 N   0  0  0  0  0  0  0  0  0  0  0  0
   -4.8520   25.0180  -30.4560 C   0  0  0  0  0  0  0  0  0  0  0  0
   -5.4600   26.0680  -30.1200 O   0  0  0  0  0  0  0  0  0  0  0  0
   -5.6300   23.8340  -30.8890 C   0  0  0  0  0  0  0  0  0  0  0  0
   -7.0050   23.7430  -30.6320 C   0  0  0  0  0  0  0  0  0  0  0  0
   -7.7290   22.6240  -31.0420 C   0  0  0  0  0  0  0  0  0  0  0  0
   -7.0980   21.5720  -31.7230 C   0  0  0  0  0  0  0  0  0  0  0  0
   -7.9260   20.3920  -32.1620 C   0  0  0  0  0  0  0  0  0  0  0  0
   -5.7040   21.6380  -31.9580 C   0  0  0  0  0  0  0  0  0  0  0  0
   -4.8290   20.3330  -32.7790 S   0  0  0  0  0  0  0  0  0  0  0  0
   -4.8250   19.0980  -31.9190 O   0  0  0  0  0  0  0  0  0  0  0  0
   -5.5260   20.0000  -34.0700 O   0  0  0  0  0  0  0  0  0  0  0  0
   -3.1920   20.8440  -33.1000 N   0  0  0  0  0  0  0  0  0  0  0  0
   -2.4490   20.9710  -31.8330 C   0  0  0  0  0  0  0  0  0  0  0  0
   -0.9450   21.1870  -32.0980 C   0  0  0  0  0  0  0  0  0  0  0  0
   -0.7000   21.4350  -33.4700 O   0  0  0  0  0  0  0  0  0  0  0  0
   -1.0610   20.2960  -34.2300 C   0  0  0  0  0  0  0  0  0  0  0  0
   -2.5270   19.8760  -33.9840 C   0  0  0  0  0  0  0  0  0  0  0  0
   -4.9910   22.7820  -31.5620 C   0  0  0  0  0  0  0  0  0  0  0  0
   -1.0783   26.9468  -26.7268 H   0  0  0  0  0  0  0  0  0  0  0  0
    0.2323   27.0174  -27.9532 H   0  0  0  0  0  0  0  0  0  0  0  0
   -1.0655   28.2593  -27.9532 H   0  0  0  0  0  0  0  0  0  0  0  0
   -0.2476   24.7726  -26.9705 H   0  0  0  0  0  0  0  0  0  0  0  0
   -0.5534   22.3116  -26.7618 H   0  0  0  0  0  0  0  0  0  0  0  0
    0.6862   20.1545  -29.9263 H   0  0  0  0  0  0  0  0  0  0  0  0
   -0.1451   21.4939  -29.0259 H   0  0  0  0  0  0  0  0  0  0  0  0
    2.1465   21.0905  -28.1749 H   0  0  0  0  0  0  0  0  0  0  0  0
    0.8536   20.7396  -26.9362 H   0  0  0  0  0  0  0  0  0  0  0  0
    1.0281   17.6695  -28.8604 H   0  0  0  0  0  0  0  0  0  0  0  0
    1.1037   17.3312  -27.0620 H   0  0  0  0  0  0  0  0  0  0  0  0
   -1.2159   17.6547  -27.8278 H   0  0  0  0  0  0  0  0  0  0  0  0
   -0.6871   18.9283  -26.6638 H   0  0  0  0  0  0  0  0  0  0  0  0
   -3.5352   22.4073  -29.8927 H   0  0  0  0  0  0  0  0  0  0  0  0
   -7.5167   24.5605  -30.1029 H   0  0  0  0  0  0  0  0  0  0  0  0
   -8.8066   22.5654  -30.8292 H   0  0  0  0  0  0  0  0  0  0  0  0
   -8.3010   19.8576  -31.2767 H   0  0  0  0  0  0  0  0  0  0  0  0
   -8.7759   20.7444  -32.7649 H   0  0  0  0  0  0  0  0  0  0  0  0
   -7.3055   19.7126  -32.7649 H   0  0  0  0  0  0  0  0  0  0  0  0
   -2.8425   21.8295  -31.2689 H   0  0  0  0  0  0  0  0  0  0  0  0
   -2.5752   20.0428  -31.2563 H   0  0  0  0  0  0  0  0  0  0  0  0
   -0.5965   22.0484  -31.5093 H   0  0  0  0  0  0  0  0  0  0  0  0
   -0.4041   20.2749  -31.8057 H   0  0  0  0  0  0  0  0  0  0  0  0
   -0.9322   20.5264  -35.2979 H   0  0  0  0  0  0  0  0  0  0  0  0
   -0.4128   19.4626  -33.9213 H   0  0  0  0  0  0  0  0  0  0  0  0
   -3.0597   19.8367  -34.9456 H   0  0  0  0  0  0  0  0  0  0  0  0
   -2.5407   18.8855  -33.5057 H   0  0  0  0  0  0  0  0  0  0  0  0
   -3.9158   22.8538  -31.7829 H   0  0  0  0  0  0  0  0  0  0  0  0
  1  2  1  0
  2  3  1  0
  3  4  2  0
  4  5  1  0
  5  6  2  0
  6  7  1  0
  7  8  2  0
  7  9  2  0
  7 10  1  0
 10 11  1  0
 11 12  1  0
 12 13  1  0
 13 14  1  0
 14 15  1  0
  6 16  1  0
 16 17  2  0
 17 18  1  0
 18 19  1  0
 19 20  2  0
 19 21  1  0
 21 22  2  0
 22 23  1  0
 23 24  2  0
 24 25  1  0
 24 26  1  0
 26 27  1  0
 27 28  2  0
 27 29  2  0
 27 30  1  0
 30 31  1  0
 31 32  1  0
 32 33  1  0
 33 34  1  0
 34 35  1  0
 26 36  2  0
 17  3  1  0
 36 21  1  0
 15 10  1  0
 35 30  1  0
  1 37  1  0
  1 38  1  0
  1 39  1  0
  4 40  1  0
  5 41  1  0
 11 42  1  0
 11 43  1  0
 12 44  1  0
 12 45  1  0
 14 46  1  0
 14 47  1  0
 15 48  1  0
 15 49  1  0
 16 50  1  0
 22 51  1  0
 23 52  1  0
 25 53  1  0
 25 54  1  0
 25 55  1  0
 31 56  1  0
 31 57  1  0
 32 58  1  0
 32 59  1  0
 34 60  1  0
 34 61  1  0
 35 62  1  0
 35 63  1  0
 36 64  1  0
M  CHG  1  18  -1
M  END
>  <UniqueID>  (13) 
11

>  <SMILES>  (13) 
COc1ccc(S(=O)(=O)N2CCOCC2)cc1[N-]C(=O)c1ccc(C)c(S(=O)(=O)N2CCOCC2)c1

>  <Energy>  (13) 
92.76782347197921

>  <Genealogy>  (13) 
COc1ccc(S(=O)(=O)N2CCOCC2)cc1[N-]C(=O)c1ccc(C)c(S(=O)(=O)N2CCOCC2)c1 (protonated)
COc1ccc(S(=O)(=O)N2CCOCC2)cc1[N-]C(=O)c1ccc(C)c(S(=O)(=O)N2CCOCC2)c1 (3D coordinates assigned)
COc1ccc(S(=O)(=O)N2CCOCC2)cc1[N-]C(=O)c1ccc(C)c(S(=O)(=O)N2CCOCC2)c1 (nonaromatic ring conformer: 92.76782347197921 kcal/mol)

>  <smiles>  (13) 
COc1ccc(S(=O)(=O)N2CCOCC2)cc1NC(=O)c1ccc(C)c(S(=O)(=O)N2CCOCC2)c1

>  <score_type>  (13) 
oracle

>  <origin>  (13) 
adgpu

>  <m_score__min__energy>  (13) 
-12.300000000000001

>  <m_primary>  (13) 
energy

$$$$
13:0
     RDKit          3D

 39 41  0  0  0  0  0  0  0  0999 V2000
   -4.8550   22.3810  -33.0270 N   0  0  0  0  0  0  0  0  0  0  0  0
   -3.9200   22.6500  -31.9830 C   0  0  0  0  0  0  0  0  0  0  0  0
   -4.1360   23.5930  -31.1770 O   0  0  0  0  0  0  0  0  0  0  0  0
   -2.6620   21.8450  -31.8680 C   0  0  0  0  0  0  0  0  0  0  0  0
   -2.7120   20.6880  -32.8120 C   0  0  0  0  0  0  0  0  0  0  0  0
   -2.0600   20.6580  -33.9900 N   0  0  0  0  0  0  0  0  0  0  0  0
   -2.3010   19.4770  -34.4730 O   0  0  0  0  0  0  0  0  0  0  0  0
   -3.0550   18.8080  -33.6360 C   0  0  0  0  0  0  0  0  0  0  0  0
   -3.5010   17.3950  -33.8540 C   0  0  0  0  0  0  0  0  0  0  0  0
   -4.9740   17.2910  -33.7690 N   0  0  0  0  0  0  0  0  0  0  0  0
   -5.4580   17.4750  -32.3750 C   0  0  0  0  0  0  0  0  0  0  0  0
   -6.8700   18.0670  -32.3050 C   0  0  0  0  0  0  0  0  0  0  0  0
   -6.8950   19.3560  -33.0050 N   0  0  0  0  0  0  0  0  0  0  0  0
   -7.7920   20.3990  -32.5680 C   0  0  0  0  0  0  0  0  0  0  0  0
   -9.1640   20.1560  -32.3650 C   0  0  0  0  0  0  0  0  0  0  0  0
   -9.9720   21.1700  -31.9570 N   0  0  0  0  0  0  0  0  0  0  0  0
   -9.4840   22.4190  -31.7390 C   0  0  0  0  0  0  0  0  0  0  0  0
   -8.1280   22.6680  -31.9430 C   0  0  0  0  0  0  0  0  0  0  0  0
   -7.3170   21.6580  -32.3520 N   0  0  0  0  0  0  0  0  0  0  0  0
   -6.0480   19.5300  -34.1930 C   0  0  0  0  0  0  0  0  0  0  0  0
   -5.6360   18.1670  -34.7690 C   0  0  0  0  0  0  0  0  0  0  0  0
   -3.3490   19.5300  -32.5390 N   0  0  0  0  0  0  0  0  0  0  0  0
   -4.6790   21.6180  -33.7180 H   0  0  0  0  0  0  0  0  0  0  0  0
   -5.7280   22.9510  -33.1120 H   0  0  0  0  0  0  0  0  0  0  0  0
   -1.7984   22.4802  -32.1146 H   0  0  0  0  0  0  0  0  0  0  0  0
   -2.5646   21.4693  -30.8387 H   0  0  0  0  0  0  0  0  0  0  0  0
   -3.1727   17.0626  -34.8499 H   0  0  0  0  0  0  0  0  0  0  0  0
   -3.0567   16.7602  -33.0732 H   0  0  0  0  0  0  0  0  0  0  0  0
   -5.4630   16.4960  -31.8735 H   0  0  0  0  0  0  0  0  0  0  0  0
   -4.7784   18.1854  -31.8816 H   0  0  0  0  0  0  0  0  0  0  0  0
   -7.5811   17.3767  -32.7823 H   0  0  0  0  0  0  0  0  0  0  0  0
   -7.1535   18.2157  -31.2526 H   0  0  0  0  0  0  0  0  0  0  0  0
   -9.5793   19.1518  -32.5355 H   0  0  0  0  0  0  0  0  0  0  0  0
  -10.1527   23.2259  -31.4047 H   0  0  0  0  0  0  0  0  0  0  0  0
   -7.7177   23.6745  -31.7741 H   0  0  0  0  0  0  0  0  0  0  0  0
   -6.6072   20.0907  -34.9564 H   0  0  0  0  0  0  0  0  0  0  0  0
   -5.1410   20.0810  -33.9036 H   0  0  0  0  0  0  0  0  0  0  0  0
   -6.5368   17.6566  -35.1405 H   0  0  0  0  0  0  0  0  0  0  0  0
   -4.9099   18.3555  -35.5735 H   0  0  0  0  0  0  0  0  0  0  0  0
  1  2  1  0
  2  3  2  0
  2  4  1  0
  4  5  1  0
  5  6  2  0
  6  7  1  0
  7  8  1  0
  8  9  1  0
  9 10  1  0
 10 11  1  0
 11 12  1  0
 12 13  1  0
 13 14  1  0
 14 15  2  0
 15 16  1  0
 16 17  2  0
 17 18  1  0
 18 19  2  0
 13 20  1  0
 20 21  1  0
  8 22  2  0
 22  5  1  0
 21 10  1  0
 19 14  1  0
  1 23  1  0
  1 24  1  0
  4 25  1  0
  4 26  1  0
  9 27  1  0
  9 28  1  0
 11 29  1  0
 11 30  1  0
 12 31  1  0
 12 32  1  0
 15 33  1  0
 17 34  1  0
 18 35  1  0
 20 36  1  0
 20 37  1  0
 21 38  1  0
 21 39  1  0
M  END
>  <UniqueID>  (14) 
12

>  <SMILES>  (14) 
NC(=O)Cc1noc(CN2CCN(c3cnccn3)CC2)n1

>  <Energy>  (14) 
79.63889628754221

>  <Genealogy>  (14) 
NC(=O)Cc1noc(CN2CCN(c3cnccn3)CC2)n1 (3D coordinates assigned)
NC(=O)Cc1noc(CN2CCN(c3cnccn3)CC2)n1 (nonaromatic ring conformer: 79.63889628754221 kcal/mol)

>  <smiles>  (14) 
NC(=O)Cc1noc(CN2CCN(c3cnccn3)CC2)n1

>  <score_type>  (14) 
oracle

>  <origin>  (14) 
adgpu

>  <m_score__min__energy>  (14) 
-7.7400000000000002

>  <m_primary>  (14) 
energy

$$$$
14:0
     RDKit          3D

 48 51  0  0  0  0  0  0  0  0999 V2000
   -1.9600   21.2740  -29.8310 O   0  0  0  0  0  0  0  0  0  0  0  0
   -2.2950   22.4100  -30.2610 C   0  0  0  0  0  0  0  0  0  0  0  0
   -3.0540   22.5350  -31.4690 N   0  0  0  0  0  0  0  0  0  0  0  0
   -4.4840   22.4680  -31.5660 C   0  0  0  0  0  0  0  0  0  0  0  0
   -5.1400   21.2570  -31.8500 C   0  0  0  0  0  0  0  0  0  0  0  0
   -6.5380   21.2140  -31.9530 C   0  0  0  0  0  0  0  0  0  0  0  0
   -7.3500   19.6970  -32.3440 S   0  0  0  0  0  0  0  0  0  0  0  0
   -8.1230   19.2350  -31.1390 O   0  0  0  0  0  0  0  0  0  0  0  0
   -8.3150   19.9180  -33.4770 O   0  0  0  0  0  0  0  0  0  0  0  0
   -6.1680   18.4870  -32.7850 N   0  0  0  0  0  0  0  0  0  0  0  0
   -6.6050   17.1340  -32.3730 C   0  0  0  0  0  0  0  0  0  0  0  0
   -7.1210   16.3040  -33.5610 C   0  0  0  0  0  0  0  0  0  0  0  0
   -6.1660   16.1460  -34.6030 O   0  0  0  0  0  0  0  0  0  0  0  0
   -5.2840   17.2530  -34.7460 C   0  0  0  0  0  0  0  0  0  0  0  0
   -5.8610   18.5790  -34.2260 C   0  0  0  0  0  0  0  0  0  0  0  0
   -7.2800   22.3900  -31.7910 C   0  0  0  0  0  0  0  0  0  0  0  0
   -6.6320   23.6000  -31.5400 C   0  0  0  0  0  0  0  0  0  0  0  0
   -5.2350   23.6450  -31.4310 C   0  0  0  0  0  0  0  0  0  0  0  0
   -4.5880   24.8550  -31.1810 O   0  0  0  0  0  0  0  0  0  0  0  0
   -1.9520   23.6130  -29.4920 C   0  0  0  0  0  0  0  0  0  0  0  0
   -1.0400   23.6880  -28.4620 C   0  0  0  0  0  0  0  0  0  0  0  0
   -1.0720   25.0170  -28.0760 C   0  0  0  0  0  0  0  0  0  0  0  0
   -0.2800   25.6530  -26.9860 C   0  0  0  0  0  0  0  0  0  0  0  0
   -0.9310   26.3450  -25.9440 C   0  0  0  0  0  0  0  0  0  0  0  0
   -0.1960   26.9420  -24.9150 C   0  0  0  0  0  0  0  0  0  0  0  0
    1.1960   26.8670  -24.9130 C   0  0  0  0  0  0  0  0  0  0  0  0
    1.8590   26.1910  -25.9360 C   0  0  0  0  0  0  0  0  0  0  0  0
    1.1330   25.5810  -26.9690 C   0  0  0  0  0  0  0  0  0  0  0  0
    1.8340   24.9170  -27.9710 O   0  0  0  0  0  0  0  0  0  0  0  0
   -1.9580   25.6760  -28.8520 N   0  0  0  0  0  0  0  0  0  0  0  0
   -2.4920   24.8250  -29.7130 N   0  0  0  0  0  0  0  0  0  0  0  0
   -4.5530   20.3377  -31.9923 H   0  0  0  0  0  0  0  0  0  0  0  0
   -5.7520   16.6093  -31.9180 H   0  0  0  0  0  0  0  0  0  0  0  0
   -7.4318   17.2493  -31.6567 H   0  0  0  0  0  0  0  0  0  0  0  0
   -7.4016   15.3063  -33.1923 H   0  0  0  0  0  0  0  0  0  0  0  0
   -7.9764   16.8485  -33.9874 H   0  0  0  0  0  0  0  0  0  0  0  0
   -4.3609   17.0347  -34.1891 H   0  0  0  0  0  0  0  0  0  0  0  0
   -5.1059   17.3827  -35.8237 H   0  0  0  0  0  0  0  0  0  0  0  0
   -5.1253   19.3806  -34.3877 H   0  0  0  0  0  0  0  0  0  0  0  0
   -6.7908   18.7974  -34.7717 H   0  0  0  0  0  0  0  0  0  0  0  0
   -8.3773   22.3601  -31.8618 H   0  0  0  0  0  0  0  0  0  0  0  0
   -7.2200   24.5228  -31.4271 H   0  0  0  0  0  0  0  0  0  0  0  0
   -3.5810   24.9400  -31.2480 H   0  0  0  0  0  0  0  0  0  0  0  0
   -0.4266   22.8771  -28.0423 H   0  0  0  0  0  0  0  0  0  0  0  0
   -2.0287   26.4160  -25.9406 H   0  0  0  0  0  0  0  0  0  0  0  0
   -0.7178   27.4724  -24.1048 H   0  0  0  0  0  0  0  0  0  0  0  0
    1.7712   27.3413  -24.1042 H   0  0  0  0  0  0  0  0  0  0  0  0
    2.9576   26.1358  -25.9329 H   0  0  0  0  0  0  0  0  0  0  0  0
  1  2  2  0
  2  3  1  0
  3  4  1  0
  4  5  2  0
  5  6  1  0
  6  7  1  0
  7  8  2  0
  7  9  2  0
  7 10  1  0
 10 11  1  0
 11 12  1  0
 12 13  1  0
 13 14  1  0
 14 15  1  0
  6 16  2  0
 16 17  1  0
 17 18  2  0
 18 19  1  0
  2 20  1  0
 20 21  1  0
 21 22  2  0
 22 23  1  0
 23 24  2  0
 24 25  1  0
 25 26  2  0
 26 27  1  0
 27 28  2  0
 28 29  1  0
 22 30  1  0
 30 31  1  0
 18  4  1  0
 31 20  2  0
 15 10  1  0
 28 23  1  0
  5 32  1  0
 11 33  1  0
 11 34  1  0
 12 35  1  0
 12 36  1  0
 14 37  1  0
 14 38  1  0
 15 39  1  0
 15 40  1  0
 16 41  1  0
 17 42  1  0
 19 43  1  0
 21 44  1  0
 24 45  1  0
 25 46  1  0
 26 47  1  0
 27 48  1  0
M  CHG  3   3  -1  29  -1  30  -1
M  END
>  <UniqueID>  (15) 
13

>  <SMILES>  (15) 
O=C([N-]c1cc(S(=O)(=O)N2CCOCC2)ccc1O)c1cc(-c2ccccc2[O-])[n-]n1

>  <Energy>  (15) 
99.21792772967937

>  <Genealogy>  (15) 
O=C([N-]c1cc(S(=O)(=O)N2CCOCC2)ccc1O)c1cc(-c2ccccc2[O-])[n-]n1 (protonated)
O=C([N-]c1cc(S(=O)(=O)N2CCOCC2)ccc1O)c1cc(-c2ccccc2[O-])[n-]n1 (3D coordinates assigned)
O=C([N-]c1cc(S(=O)(=O)N2CCOCC2)ccc1O)c1cc(-c2ccccc2[O-])[n-]n1 (nonaromatic ring conformer: 99.21792772967937 kcal/mol)

>  <smiles>  (15) 
O=C(Nc1cc(S(=O)(=O)N2CCOCC2)ccc1O)c1cc(-c2ccccc2O)[nH]n1

>  <score_type>  (15) 
oracle

>  <origin>  (15) 
adgpu

>  <m_score__min__energy>  (15) 
-14.779999999999999

>  <m_primary>  (15) 
energy

$$$$
15:0
     RDKit          3D

 46 48  0  0  0  0  0  0  0  0999 V2000
    3.7218   15.4611  -27.8229 H   0  0  0  0  0  0  0  0  0  0  0  0
    2.8330   16.1070  -27.7690 C   0  0  0  0  0  0  0  0  0  0  0  0
    2.7110   17.6770  -28.3670 S   0  0  0  0  0  0  0  0  0  0  0  0
    1.1190   17.8630  -27.8700 C   0  0  0  0  0  0  0  0  0  0  0  0
    0.4480   18.9650  -28.0550 N   0  0  0  0  0  0  0  0  0  0  0  0
   -0.9220   19.2570  -27.7230 C   0  0  0  0  0  0  0  0  0  0  0  0
   -1.4560   18.7610  -26.6950 O   0  0  0  0  0  0  0  0  0  0  0  0
   -1.7330   20.1010  -28.6330 C   0  0  0  0  0  0  0  0  0  0  0  0
   -1.5110   20.0830  -30.0210 C   0  0  0  0  0  0  0  0  0  0  0  0
   -0.7231   19.4394  -30.4394 H   0  0  0  0  0  0  0  0  0  0  0  0
   -2.2840   20.8770  -30.8740 C   0  0  0  0  0  0  0  0  0  0  0  0
   -2.1032   20.8510  -31.9587 H   0  0  0  0  0  0  0  0  0  0  0  0
   -3.2870   21.7050  -30.3550 C   0  0  0  0  0  0  0  0  0  0  0  0
   -4.2430   22.7250  -31.4290 S   0  0  0  0  0  0  0  0  0  0  0  0
   -3.6620   22.6660  -32.8150 O   0  0  0  0  0  0  0  0  0  0  0  0
   -4.1610   24.1510  -30.9560 O   0  0  0  0  0  0  0  0  0  0  0  0
   -5.9140   22.2060  -31.4810 N   0  0  0  0  0  0  0  0  0  0  0  0
   -6.0410   20.9970  -32.3210 C   0  0  0  0  0  0  0  0  0  0  0  0
   -6.4144   21.2947  -33.3119 H   0  0  0  0  0  0  0  0  0  0  0  0
   -5.0468   20.5305  -32.3839 H   0  0  0  0  0  0  0  0  0  0  0  0
   -7.0050   19.9570  -31.7240 C   0  0  0  0  0  0  0  0  0  0  0  0
   -7.1282   19.1491  -32.4603 H   0  0  0  0  0  0  0  0  0  0  0  0
   -6.5471   19.6335  -30.7776 H   0  0  0  0  0  0  0  0  0  0  0  0
   -8.4080   20.4780  -31.3540 C   0  0  0  0  0  0  0  0  0  0  0  0
   -9.1330   19.6700  -31.5315 H   0  0  0  0  0  0  0  0  0  0  0  0
   -8.3605   20.7869  -30.2993 H   0  0  0  0  0  0  0  0  0  0  0  0
   -8.8580   21.7130  -32.1540 C   0  0  0  0  0  0  0  0  0  0  0  0
   -8.5155   21.5883  -33.1918 H   0  0  0  0  0  0  0  0  0  0  0  0
   -9.9523   21.7579  -32.0519 H   0  0  0  0  0  0  0  0  0  0  0  0
   -8.3240   23.0740  -31.6340 C   0  0  0  0  0  0  0  0  0  0  0  0
   -8.8730   23.8713  -32.1564 H   0  0  0  0  0  0  0  0  0  0  0  0
   -8.4800   23.0541  -30.5453 H   0  0  0  0  0  0  0  0  0  0  0  0
   -6.8120   23.3360  -31.8300 C   0  0  0  0  0  0  0  0  0  0  0  0
   -6.6463   23.5854  -32.8885 H   0  0  0  0  0  0  0  0  0  0  0  0
   -6.5553   24.1496  -31.1356 H   0  0  0  0  0  0  0  0  0  0  0  0
   -3.5110   21.7300  -28.9730 C   0  0  0  0  0  0  0  0  0  0  0  0
   -4.2963   22.3787  -28.5578 H   0  0  0  0  0  0  0  0  0  0  0  0
   -2.7420   20.9350  -28.1180 C   0  0  0  0  0  0  0  0  0  0  0  0
   -2.9274   20.9618  -27.0341 H   0  0  0  0  0  0  0  0  0  0  0  0
    0.6650   16.7530  -27.2350 N   0  0  0  0  0  0  0  0  0  0  0  0
   -0.2700   16.6360  -26.7950 H   0  0  0  0  0  0  0  0  0  0  0  0
    1.6090   15.7710  -27.1940 C   0  0  0  0  0  0  0  0  0  0  0  0
    1.3690   14.4690  -26.4970 C   0  0  0  0  0  0  0  0  0  0  0  0
    1.3978   14.6250  -25.4085 H   0  0  0  0  0  0  0  0  0  0  0  0
    0.3831   14.0752  -26.7850 H   0  0  0  0  0  0  0  0  0  0  0  0
    2.1497   13.7495  -26.7850 H   0  0  0  0  0  0  0  0  0  0  0  0
  1  2  1  0
  2  3  1  0
  3  4  1  0
  4  5  2  0
  5  6  1  0
  6  7  2  0
  6  8  1  0
  8  9  2  0
  9 10  1  0
  9 11  1  0
 11 12  1  0
 11 13  2  0
 13 14  1  0
 14 15  2  0
 14 16  2  0
 14 17  1  0
 17 18  1  0
 18 19  1  0
 18 20  1  0
 18 21  1  0
 21 22  1  0
 21 23  1  0
 21 24  1  0
 24 25  1  0
 24 26  1  0
 24 27  1  0
 27 28  1  0
 27 29  1  0
 27 30  1  0
 30 31  1  0
 30 32  1  0
 30 33  1  0
 33 34  1  0
 33 35  1  0
 13 36  1  0
 36 37  1  0
 36 38  2  0
 38 39  1  0
  4 40  1  0
 40 41  1  0
 40 42  1  0
 42 43  1  0
 43 44  1  0
 43 45  1  0
 43 46  1  0
 42  2  2  0
 38  8  1  0
 33 17  1  0
M  END
>  <UniqueID>  (16) 
14

>  <SMILES>  (16) 
Cc1cs/c(=N/C(=O)c2ccc(S(=O)(=O)N3CCCCCC3)cc2)[nH]1

>  <Energy>  (16) 
93.06284924537641

>  <Genealogy>  (16) 
Cc1cs/c(=N/C(=O)c2ccc(S(=O)(=O)N3CCCCCC3)cc2)[nH]1 (cis-trans isomerization)
Cc1cs/c(=N/C(=O)c2ccc(S(=O)(=O)N3CCCCCC3)cc2)[nH]1 (3D coordinates assigned)
Cc1cs/c(=N/C(=O)c2ccc(S(=O)(=O)N3CCCCCC3)cc2)[nH]1 (nonaromatic ring conformer: 93.06284924537641 kcal/mol)

>  <smiles>  (16) 
Cc1csc(=NC(=O)c2ccc(S(=O)(=O)N3CCCCCC3)cc2)[nH]1

>  <score_type>  (16) 
oracle

>  <origin>  (16) 
adgpu

>  <m_score__min__energy>  (16) 
-7.1100000000000003

>  <m_primary>  (16) 
energy

$$$$
16:0
     RDKit          3D

 42 44  0  0  0  0  0  0  0  0999 V2000
   -3.2130   21.4290  -29.1120 O   0  0  0  0  0  0  0  0  0  0  0  0
   -3.1010   22.8230  -29.6670 S   0  0  0  0  0  0  0  0  0  0  0  0
   -2.0740   22.8080  -30.7650 O   0  0  0  0  0  0  0  0  0  0  0  0
   -2.6150   23.9190  -28.3790 C   0  0  0  0  0  0  0  0  0  0  0  0
   -3.5120   24.2120  -27.3420 C   0  0  0  0  0  0  0  0  0  0  0  0
   -3.1410   25.0950  -26.3220 C   0  0  0  0  0  0  0  0  0  0  0  0
   -1.8760   25.6900  -26.3350 C   0  0  0  0  0  0  0  0  0  0  0  0
   -0.9810   25.4040  -27.3710 C   0  0  0  0  0  0  0  0  0  0  0  0
   -1.3490   24.5220  -28.3930 C   0  0  0  0  0  0  0  0  0  0  0  0
   -4.6500   23.3540  -30.3200 C   0  0  0  0  0  0  0  0  0  0  0  0
   -5.6920   22.4310  -30.4940 C   0  0  0  0  0  0  0  0  0  0  0  0
   -6.9320   22.8450  -30.9950 C   0  0  0  0  0  0  0  0  0  0  0  0
   -8.2180   21.6640  -31.2340 S   0  0  0  0  0  0  0  0  0  0  0  0
   -9.1390   22.1260  -32.3310 O   0  0  0  0  0  0  0  0  0  0  0  0
   -9.0110   21.5490  -29.9610 O   0  0  0  0  0  0  0  0  0  0  0  0
   -7.5260   20.1160  -31.6410 N   0  0  0  0  0  0  0  0  0  0  0  0
   -6.6750   20.2350  -32.8430 C   0  0  0  0  0  0  0  0  0  0  0  0
   -6.3380   18.8510  -33.4340 C   0  0  0  0  0  0  0  0  0  0  0  0
   -6.6020   17.8230  -32.5010 O   0  0  0  0  0  0  0  0  0  0  0  0
   -7.9940   17.7530  -32.2470 C   0  0  0  0  0  0  0  0  0  0  0  0
   -8.5920   19.1220  -31.8510 C   0  0  0  0  0  0  0  0  0  0  0  0
   -7.1300   24.1910  -31.3320 C   0  0  0  0  0  0  0  0  0  0  0  0
   -6.0990   25.1170  -31.1540 C   0  0  0  0  0  0  0  0  0  0  0  0
   -4.8630   24.7060  -30.6450 C   0  0  0  0  0  0  0  0  0  0  0  0
   -3.8540   25.6450  -30.4660 O   0  0  0  0  0  0  0  0  0  0  0  0
   -4.5088   23.7470  -27.3303 H   0  0  0  0  0  0  0  0  0  0  0  0
   -3.8459   25.3214  -25.5085 H   0  0  0  0  0  0  0  0  0  0  0  0
   -1.5849   26.3823  -25.5313 H   0  0  0  0  0  0  0  0  0  0  0  0
    0.0138   25.8732  -27.3824 H   0  0  0  0  0  0  0  0  0  0  0  0
   -0.6444   24.3013  -29.2084 H   0  0  0  0  0  0  0  0  0  0  0  0
   -5.5335   21.3738  -30.2348 H   0  0  0  0  0  0  0  0  0  0  0  0
   -6.9340   19.8140  -30.8300 H   0  0  0  0  0  0  0  0  0  0  0  0
   -7.2077   20.8277  -33.6012 H   0  0  0  0  0  0  0  0  0  0  0  0
   -5.7341   20.7259  -32.5535 H   0  0  0  0  0  0  0  0  0  0  0  0
   -6.9491   18.6857  -34.3336 H   0  0  0  0  0  0  0  0  0  0  0  0
   -5.2673   18.8290  -33.6854 H   0  0  0  0  0  0  0  0  0  0  0  0
   -8.5010   17.3959  -33.1555 H   0  0  0  0  0  0  0  0  0  0  0  0
   -8.1459   17.0646  -31.4026 H   0  0  0  0  0  0  0  0  0  0  0  0
   -9.2576   19.4710  -32.6542 H   0  0  0  0  0  0  0  0  0  0  0  0
   -9.1542   19.0037  -30.9129 H   0  0  0  0  0  0  0  0  0  0  0  0
   -8.0986   24.5188  -31.7373 H   0  0  0  0  0  0  0  0  0  0  0  0
   -6.2601   26.1733  -31.4152 H   0  0  0  0  0  0  0  0  0  0  0  0
  1  2  2  0
  2  3  2  0
  2  4  1  0
  4  5  2  0
  5  6  1  0
  6  7  2  0
  7  8  1  0
  8  9  2  0
  2 10  1  0
 10 11  2  0
 11 12  1  0
 12 13  1  0
 13 14  2  0
 13 15  2  0
 13 16  1  0
 16 17  1  0
 17 18  1  0
 18 19  1  0
 19 20  1  0
 20 21  1  0
 12 22  2  0
 22 23  1  0
 23 24  2  0
 24 25  1  0
  9  4  1  0
 24 10  1  0
 21 16  1  0
  5 26  1  0
  6 27  1  0
  7 28  1  0
  8 29  1  0
  9 30  1  0
 11 31  1  0
 16 32  1  0
 17 33  1  0
 17 34  1  0
 18 35  1  0
 18 36  1  0
 20 37  1  0
 20 38  1  0
 21 39  1  0
 21 40  1  0
 22 41  1  0
 23 42  1  0
M  CHG  2  16   1  25  -1
M  END
>  <UniqueID>  (17) 
15

>  <SMILES>  (17) 
O=S(=O)(c1ccccc1)c1cc(S(=O)(=O)[NH+]2CCOCC2)ccc1[O-]

>  <Energy>  (17) 
53.2224454321452

>  <Genealogy>  (17) 
O=S(=O)(c1ccccc1)c1cc(S(=O)(=O)[NH+]2CCOCC2)ccc1[O-] (protonated)
O=S(=O)(c1ccccc1)c1cc(S(=O)(=O)[NH+]2CCOCC2)ccc1[O-] (3D coordinates assigned)
O=S(=O)(c1ccccc1)c1cc(S(=O)(=O)[NH+]2CCOCC2)ccc1[O-] (nonaromatic ring conformer: 53.2224454321452 kcal/mol)

>  <smiles>  (17) 
O=S(=O)(c1ccccc1)c1cc(S(=O)(=O)N2CCOCC2)ccc1O

>  <score_type>  (17) 
oracle

>  <origin>  (17) 
adgpu

>  <m_score__min__energy>  (17) 
-11.32

>  <m_primary>  (17) 
energy

$$$$
17:0
     RDKit          3D

 35 37  0  0  0  0  0  0  0  0999 V2000
   -5.7100   26.2140  -31.2570 O   0  0  0  0  0  0  0  0  0  0  0  0
   -5.2860   25.0650  -30.3850 S   0  0  0  0  0  0  0  0  0  0  0  0
   -5.7070   25.3410  -28.9690 O   0  0  0  0  0  0  0  0  0  0  0  0
   -3.5580   24.9190  -30.4440 N   0  0  0  0  0  0  0  0  0  0  0  0
   -2.7590   24.1610  -29.5250 C   0  0  0  0  0  0  0  0  0  0  0  0
   -3.0970   22.8470  -29.1530 C   0  0  0  0  0  0  0  0  0  0  0  0
   -2.3010   22.1350  -28.2420 C   0  0  0  0  0  0  0  0  0  0  0  0
   -1.1690   22.7520  -27.6740 C   0  0  0  0  0  0  0  0  0  0  0  0
   -0.8210   24.0520  -28.0650 C   0  0  0  0  0  0  0  0  0  0  0  0
   -1.6120   24.7540  -28.9780 C   0  0  0  0  0  0  0  0  0  0  0  0
   -1.2540   26.0470  -29.3430 O   0  0  0  0  0  0  0  0  0  0  0  0
   -0.2670   21.9910  -26.7290 C   0  0  0  0  0  0  0  0  0  0  0  0
   -0.9560   20.8600  -26.0910 N   0  0  0  0  0  0  0  0  0  0  0  0
   -1.5950   20.0060  -27.0990 C   0  0  0  0  0  0  0  0  0  0  0  0
   -2.7250   20.7540  -27.8150 C   0  0  0  0  0  0  0  0  0  0  0  0
   -6.0370   23.5660  -30.9210 C   0  0  0  0  0  0  0  0  0  0  0  0
   -7.2200   23.1180  -30.3140 C   0  0  0  0  0  0  0  0  0  0  0  0
   -7.8090   21.9190  -30.7230 C   0  0  0  0  0  0  0  0  0  0  0  0
   -7.2220   21.1610  -31.7430 C   0  0  0  0  0  0  0  0  0  0  0  0
   -7.9620   19.6560  -32.2540 Cl  0  0  0  0  0  0  0  0  0  0  0  0
   -6.0460   21.6080  -32.3550 C   0  0  0  0  0  0  0  0  0  0  0  0
   -5.4540   22.8070  -31.9460 C   0  0  0  0  0  0  0  0  0  0  0  0
   -3.9932   22.3732  -29.5799 H   0  0  0  0  0  0  0  0  0  0  0  0
    0.0820   24.5234  -27.6498 H   0  0  0  0  0  0  0  0  0  0  0  0
    0.5948   21.6070  -27.2946 H   0  0  0  0  0  0  0  0  0  0  0  0
    0.0503   22.6833  -25.9353 H   0  0  0  0  0  0  0  0  0  0  0  0
   -1.6880   21.2320  -25.4410 H   0  0  0  0  0  0  0  0  0  0  0  0
   -0.8419   19.6978  -27.8392 H   0  0  0  0  0  0  0  0  0  0  0  0
   -2.0213   19.1265  -26.5943 H   0  0  0  0  0  0  0  0  0  0  0  0
   -3.0219   20.1815  -28.7061 H   0  0  0  0  0  0  0  0  0  0  0  0
   -3.5650   20.8569  -27.1123 H   0  0  0  0  0  0  0  0  0  0  0  0
   -7.6850   23.7125  -29.5138 H   0  0  0  0  0  0  0  0  0  0  0  0
   -8.7352   21.5702  -30.2429 H   0  0  0  0  0  0  0  0  0  0  0  0
   -5.5862   21.0151  -33.1594 H   0  0  0  0  0  0  0  0  0  0  0  0
   -4.5293   23.1555  -32.4292 H   0  0  0  0  0  0  0  0  0  0  0  0
  1  2  2  0
  2  3  2  0
  2  4  1  0
  4  5  1  0
  5  6  2  0
  6  7  1  0
  7  8  2  0
  8  9  1  0
  9 10  2  0
 10 11  1  0
  8 12  1  0
 12 13  1  0
 13 14  1  0
 14 15  1  0
  2 16  1  0
 16 17  2  0
 17 18  1  0
 18 19  2  0
 19 20  1  0
 19 21  1  0
 21 22  2  0
 10  5  1  0
 22 16  1  0
 15  7  1  0
  6 23  1  0
  9 24  1  0
 12 25  1  0
 12 26  1  0
 13 27  1  0
 14 28  1  0
 14 29  1  0
 15 30  1  0
 15 31  1  0
 17 32  1  0
 18 33  1  0
 21 34  1  0
 22 35  1  0
M  CHG  2   4  -1  11  -1
M  END
>  <UniqueID>  (18) 
16

>  <SMILES>  (18) 
O=S(=O)([N-]c1cc2c(cc1[O-])CNCC2)c1ccc(Cl)cc1

>  <Energy>  (18) 
41.717835565609796

>  <Genealogy>  (18) 
O=S(=O)([N-]c1cc2c(cc1[O-])CNCC2)c1ccc(Cl)cc1 (protonated)
O=S(=O)([N-]c1cc2c(cc1[O-])CNCC2)c1ccc(Cl)cc1 (3D coordinates assigned)
O=S(=O)([N-]c1cc2c(cc1[O-])CNCC2)c1ccc(Cl)cc1 (nonaromatic ring conformer: 41.717835565609796 kcal/mol)

>  <smiles>  (18) 
O=S(=O)(Nc1cc2c(cc1O)CNCC2)c1ccc(Cl)cc1

>  <score_type>  (18) 
oracle

>  <origin>  (18) 
adgpu

>  <m_score__min__energy>  (18) 
-13.27

>  <m_primary>  (18) 
energy

$$$$
18:0
     RDKit          3D

 68 73  0  0  0  0  0  0  0  0999 V2000
   -9.4450   18.2470  -31.9120 C   0  0  0  0  0  0  0  0  0  0  0  0
   -8.1470   18.9930  -31.5920 C   0  0  2  0  0  0  0  0  0  0  0  0
   -8.4120   20.5280  -31.5580 C   0  0  0  0  0  0  0  0  0  0  0  0
   -7.1520   21.3040  -31.8040 C   0  0  0  0  0  0  0  0  0  0  0  0
   -6.8480   22.4750  -31.0960 C   0  0  0  0  0  0  0  0  0  0  0  0
   -5.6670   23.1780  -31.3800 C   0  0  0  0  0  0  0  0  0  0  0  0
   -5.2910   24.6710  -30.5240 S   0  0  0  0  0  0  0  0  0  0  0  0
   -5.9430   25.8250  -31.2310 O   0  0  0  0  0  0  0  0  0  0  0  0
   -5.8340   24.6000  -29.1240 O   0  0  0  0  0  0  0  0  0  0  0  0
   -3.5800   24.9410  -30.4650 N   0  0  0  0  0  0  0  0  0  0  0  0
   -2.7180   24.1370  -29.6560 C   0  0  0  0  0  0  0  0  0  0  0  0
   -3.0130   22.7850  -29.4300 C   0  0  0  0  0  0  0  0  0  0  0  0
   -2.1780   22.0120  -28.6120 C   0  0  0  0  0  0  0  0  0  0  0  0
   -1.0360   22.5800  -28.0380 C   0  0  0  0  0  0  0  0  0  0  0  0
   -0.7240   23.9250  -28.2820 C   0  0  0  0  0  0  0  0  0  0  0  0
   -1.5580   24.6990  -29.0990 C   0  0  0  0  0  0  0  0  0  0  0  0
   -1.2430   26.0320  -29.3390 O   0  0  0  0  0  0  0  0  0  0  0  0
   -0.2240   21.7340  -27.0900 C   0  0  0  0  0  0  0  0  0  0  0  0
   -0.0560   20.3310  -27.5610 N   0  0  0  0  0  0  0  0  0  0  0  0
    1.2540   20.1470  -28.2120 C   0  0  0  0  0  0  0  0  0  0  0  0
   -1.1500   19.7850  -28.4180 C   0  0  0  0  0  0  0  0  0  0  0  0
   -2.4640   20.5730  -28.3190 C   0  0  0  0  0  0  0  0  0  0  0  0
   -4.8040   22.7130  -32.3860 C   0  0  0  0  0  0  0  0  0  0  0  0
   -5.1280   21.5640  -33.1130 C   0  0  0  0  0  0  0  0  0  0  0  0
   -6.3040   20.8620  -32.8200 C   0  0  0  0  0  0  0  0  0  0  0  0
   -6.6880   19.5980  -33.5330 C   0  0  0  0  0  0  0  0  0  0  0  0
   -7.0820   18.5550  -32.5550 N   0  0  0  0  0  0  0  0  0  0  0  0
   -5.9070   17.9850  -31.8520 C   0  0  0  0  0  0  0  0  0  0  0  0
   -4.8560   17.4990  -32.8310 C   0  0  0  0  0  0  0  0  0  0  0  0
   -5.1050   16.3200  -33.5560 C   0  0  0  0  0  0  0  0  0  0  0  0
   -4.1550   15.8360  -34.4560 C   0  0  0  0  0  0  0  0  0  0  0  0
   -2.9860   16.4990  -34.6360 N   0  0  0  0  0  0  0  0  0  0  0  0
   -2.6960   17.6410  -33.9570 C   0  0  0  0  0  0  0  0  0  0  0  0
   -1.4760   18.2880  -34.1860 C   0  0  0  0  0  0  0  0  0  0  0  0
   -1.1650   19.4640  -33.4980 C   0  0  0  0  0  0  0  0  0  0  0  0
   -2.0700   19.9980  -32.5780 C   0  0  0  0  0  0  0  0  0  0  0  0
   -3.2930   19.3640  -32.3420 C   0  0  0  0  0  0  0  0  0  0  0  0
   -3.6260   18.1760  -33.0290 C   0  0  0  0  0  0  0  0  0  0  0  0
   -9.9438   17.9603  -30.9745 H   0  0  0  0  0  0  0  0  0  0  0  0
  -10.1094   18.9010  -32.4957 H   0  0  0  0  0  0  0  0  0  0  0  0
   -9.2144   17.3436  -32.4957 H   0  0  0  0  0  0  0  0  0  0  0  0
   -7.7733   18.7433  -30.5880 H   0  0  0  0  0  0  0  0  0  0  0  0
   -9.1470   20.7821  -32.3359 H   0  0  0  0  0  0  0  0  0  0  0  0
   -8.7937   20.7925  -30.5608 H   0  0  0  0  0  0  0  0  0  0  0  0
   -7.5342   22.8425  -30.3188 H   0  0  0  0  0  0  0  0  0  0  0  0
   -3.9004   22.3308  -29.8951 H   0  0  0  0  0  0  0  0  0  0  0  0
    0.1749   24.3720  -27.8323 H   0  0  0  0  0  0  0  0  0  0  0  0
    0.7717   22.1884  -26.9796 H   0  0  0  0  0  0  0  0  0  0  0  0
   -0.7667   21.6976  -26.1339 H   0  0  0  0  0  0  0  0  0  0  0  0
    2.0333   20.0375  -27.4434 H   0  0  0  0  0  0  0  0  0  0  0  0
    1.2281   19.2437  -28.8392 H   0  0  0  0  0  0  0  0  0  0  0  0
    1.4780   21.0225  -28.8392 H   0  0  0  0  0  0  0  0  0  0  0  0
   -0.8126   19.8027  -29.4648 H   0  0  0  0  0  0  0  0  0  0  0  0
   -1.3591   18.7657  -28.0613 H   0  0  0  0  0  0  0  0  0  0  0  0
   -3.1870   20.1821  -29.0501 H   0  0  0  0  0  0  0  0  0  0  0  0
   -2.8893   20.4713  -27.3096 H   0  0  0  0  0  0  0  0  0  0  0  0
   -3.8711   23.2543  -32.6022 H   0  0  0  0  0  0  0  0  0  0  0  0
   -4.4608   21.2119  -33.9135 H   0  0  0  0  0  0  0  0  0  0  0  0
   -7.5341   19.8033  -34.2053 H   0  0  0  0  0  0  0  0  0  0  0  0
   -5.8252   19.2377  -34.1125 H   0  0  0  0  0  0  0  0  0  0  0  0
   -5.4650   18.7598  -31.2084 H   0  0  0  0  0  0  0  0  0  0  0  0
   -6.2456   17.1259  -31.2542 H   0  0  0  0  0  0  0  0  0  0  0  0
   -6.0514   15.7778  -33.4131 H   0  0  0  0  0  0  0  0  0  0  0  0
   -4.3550   14.9138  -35.0212 H   0  0  0  0  0  0  0  0  0  0  0  0
   -0.7604   17.8698  -34.9092 H   0  0  0  0  0  0  0  0  0  0  0  0
   -0.2057   19.9700  -33.6814 H   0  0  0  0  0  0  0  0  0  0  0  0
   -1.8190   20.9220  -32.0365 H   0  0  0  0  0  0  0  0  0  0  0  0
   -4.0003   19.7929  -31.6169 H   0  0  0  0  0  0  0  0  0  0  0  0
  1  2  1  0
  2  3  1  0
  3  4  1  0
  4  5  2  0
  5  6  1  0
  6  7  1  0
  7  8  2  0
  7  9  2  0
  7 10  1  0
 10 11  1  0
 11 12  2  0
 12 13  1  0
 13 14  2  0
 14 15  1  0
 15 16  2  0
 16 17  1  0
 14 18  1  0
 18 19  1  0
 19 20  1  0
 19 21  1  0
 21 22  1  0
  6 23  2  0
 23 24  1  0
 24 25  2  0
 25 26  1  0
 26 27  1  0
 27 28  1  0
 28 29  1  0
 29 30  2  0
 30 31  1  0
 31 32  2  0
 32 33  1  0
 33 34  2  0
 34 35  1  0
 35 36  2  0
 36 37  1  0
 37 38  2  0
 27  2  1  0
 38 29  1  0
 25  4  1  0
 38 33  1  0
 16 11  1  0
 22 13  1  0
  1 39  1  0
  1 40  1  0
  1 41  1  0
  2 42  1  1
  3 43  1  0
  3 44  1  0
  5 45  1  0
 12 46  1  0
 15 47  1  0
 18 48  1  0
 18 49  1  0
 20 50  1  0
 20 51  1  0
 20 52  1  0
 21 53  1  0
 21 54  1  0
 22 55  1  0
 22 56  1  0
 23 57  1  0
 24 58  1  0
 26 59  1  0
 26 60  1  0
 28 61  1  0
 28 62  1  0
 30 63  1  0
 31 64  1  0
 34 65  1  0
 35 66  1  0
 36 67  1  0
 37 68  1  0
M  CHG  2  10  -1  17  -1
M  END
>  <UniqueID>  (19) 
17

>  <SMILES>  (19) 
C[C@@H]1Cc2cc(S(=O)(=O)[N-]c3cc4c(cc3[O-])CN(C)CC4)ccc2CN1Cc1ccnc2ccccc12

>  <Energy>  (19) 
108.74636424304478

>  <Genealogy>  (19) 
CC1Cc2cc(S(=O)(=O)[N-]c3cc4c(cc3[O-])CN(C)CC4)ccc2CN1Cc1ccnc2ccccc12 (protonated)
C[C@@H]1Cc2cc(S(=O)(=O)[N-]c3cc4c(cc3[O-])CN(C)CC4)ccc2CN1Cc1ccnc2ccccc12 (chirality)
C[C@@H]1Cc2cc(S(=O)(=O)[N-]c3cc4c(cc3[O-])CN(C)CC4)ccc2CN1Cc1ccnc2ccccc12 (3D coordinates assigned)
C[C@@H]1Cc2cc(S(=O)(=O)[N-]c3cc4c(cc3[O-])CN(C)CC4)ccc2CN1Cc1ccnc2ccccc12 (nonaromatic ring conformer: 108.74636424304478 kcal/mol)

>  <smiles>  (19) 
CC1Cc2cc(S(=O)(=O)Nc3cc4c(cc3O)CN(C)CC4)ccc2CN1Cc1ccnc2ccccc12

>  <score_type>  (19) 
oracle

>  <origin>  (19) 
adgpu

>  <m_score__min__energy>  (19) 
-16.57

>  <m_primary>  (19) 
energy

$$$$
19:0
     RDKit          3D

 48 50  0  0  0  0  0  0  0  0999 V2000
   -5.1840   25.6480  -30.7760 C   0  0  0  0  0  0  0  0  0  0  0  0
   -3.8410   25.2480  -30.5100 O   0  0  0  0  0  0  0  0  0  0  0  0
   -3.4800   24.1890  -29.6650 C   0  0  0  0  0  0  0  0  0  0  0  0
   -4.0000   24.1730  -28.3660 C   0  0  0  0  0  0  0  0  0  0  0  0
   -3.6650   23.1470  -27.4830 C   0  0  0  0  0  0  0  0  0  0  0  0
   -2.8050   22.1240  -27.8880 C   0  0  0  0  0  0  0  0  0  0  0  0
   -2.2720   22.1140  -29.1890 C   0  0  0  0  0  0  0  0  0  0  0  0
   -1.3530   21.0380  -29.6260 C   0  0  0  0  0  0  0  0  0  0  0  0
   -0.7280   21.0310  -30.8250 N   0  0  0  0  0  0  0  0  0  0  0  0
    0.0740   19.9430  -30.9840 C   0  0  0  0  0  0  0  0  0  0  0  0
    0.8300   19.7030  -32.2500 C   0  0  0  0  0  0  0  0  0  0  0  0
    0.9520   20.9620  -32.9890 N   0  0  0  0  0  0  0  0  0  0  0  0
   -0.1180   20.9530  -34.3580 S   0  0  0  0  0  0  0  0  0  0  0  0
    0.3580   19.9310  -35.3510 O   0  0  0  0  0  0  0  0  0  0  0  0
   -0.1160   22.3100  -35.0060 O   0  0  0  0  0  0  0  0  0  0  0  0
   -1.7470   20.5310  -33.8380 C   0  0  0  0  0  0  0  0  0  0  0  0
   -2.1820   19.2040  -33.8840 C   0  0  0  0  0  0  0  0  0  0  0  0
   -3.4780   18.8750  -33.4780 C   0  0  0  0  0  0  0  0  0  0  0  0
   -4.3550   19.8750  -33.0160 C   0  0  0  0  0  0  0  0  0  0  0  0
   -5.6670   19.5840  -32.6060 O   0  0  0  0  0  0  0  0  0  0  0  0
   -6.8070   19.6390  -33.4570 C   0  0  0  0  0  0  0  0  0  0  0  0
   -3.9180   21.2080  -32.9580 C   0  0  0  0  0  0  0  0  0  0  0  0
   -4.8110   22.1850  -32.4860 O   0  0  0  0  0  0  0  0  0  0  0  0
   -5.5710   22.0700  -31.2890 C   0  0  0  0  0  0  0  0  0  0  0  0
   -2.6100   21.5290  -33.3680 C   0  0  0  0  0  0  0  0  0  0  0  0
    0.0840   19.0530  -29.9140 C   0  0  0  0  0  0  0  0  0  0  0  0
   -0.9340   19.6720  -28.7300 S   0  0  0  0  0  0  0  0  0  0  0  0
   -2.6180   23.1520  -30.0760 C   0  0  0  0  0  0  0  0  0  0  0  0
   -5.7146   25.8060  -29.8255 H   0  0  0  0  0  0  0  0  0  0  0  0
   -5.1802   26.5840  -31.3538 H   0  0  0  0  0  0  0  0  0  0  0  0
   -5.6929   24.8624  -31.3538 H   0  0  0  0  0  0  0  0  0  0  0  0
   -4.6778   24.9754  -28.0391 H   0  0  0  0  0  0  0  0  0  0  0  0
   -4.0795   23.1435  -26.4641 H   0  0  0  0  0  0  0  0  0  0  0  0
   -2.5427   21.3203  -27.1842 H   0  0  0  0  0  0  0  0  0  0  0  0
    1.8327   19.3185  -32.0116 H   0  0  0  0  0  0  0  0  0  0  0  0
    0.2928   18.9660  -32.8651 H   0  0  0  0  0  0  0  0  0  0  0  0
    0.6420   21.7400  -32.3610 H   0  0  0  0  0  0  0  0  0  0  0  0
   -1.5024   18.4161  -34.2408 H   0  0  0  0  0  0  0  0  0  0  0  0
   -3.8150   17.8287  -33.5196 H   0  0  0  0  0  0  0  0  0  0  0  0
   -7.7198   19.6830  -32.8448 H   0  0  0  0  0  0  0  0  0  0  0  0
   -6.7477   20.5353  -34.0919 H   0  0  0  0  0  0  0  0  0  0  0  0
   -6.8343   18.7411  -34.0919 H   0  0  0  0  0  0  0  0  0  0  0  0
   -4.9041   22.1709  -30.4201 H   0  0  0  0  0  0  0  0  0  0  0  0
   -6.3327   22.8631  -31.2607 H   0  0  0  0  0  0  0  0  0  0  0  0
   -6.0639   21.0870  -31.2607 H   0  0  0  0  0  0  0  0  0  0  0  0
   -2.2631   22.5717  -33.3188 H   0  0  0  0  0  0  0  0  0  0  0  0
    0.6549   18.1146  -29.8545 H   0  0  0  0  0  0  0  0  0  0  0  0
   -2.2121   23.1535  -31.0984 H   0  0  0  0  0  0  0  0  0  0  0  0
  1  2  1  0
  2  3  1  0
  3  4  2  0
  4  5  1  0
  5  6  2  0
  6  7  1  0
  7  8  1  0
  8  9  2  0
  9 10  1  0
 10 11  1  0
 11 12  1  0
 12 13  1  0
 13 14  2  0
 13 15  2  0
 13 16  1  0
 16 17  2  0
 17 18  1  0
 18 19  2  0
 19 20  1  0
 20 21  1  0
 19 22  1  0
 22 23  1  0
 23 24  1  0
 22 25  2  0
 10 26  2  0
 26 27  1  0
  7 28  2  0
 28  3  1  0
 27  8  1  0
 25 16  1  0
  1 29  1  0
  1 30  1  0
  1 31  1  0
  4 32  1  0
  5 33  1  0
  6 34  1  0
 11 35  1  0
 11 36  1  0
 12 37  1  0
 17 38  1  0
 18 39  1  0
 21 40  1  0
 21 41  1  0
 21 42  1  0
 24 43  1  0
 24 44  1  0
 24 45  1  0
 25 46  1  0
 26 47  1  0
 28 48  1  0
M  END
>  <UniqueID>  (20) 
18

>  <SMILES>  (20) 
COc1cccc(-c2nc(CNS(=O)(=O)c3ccc(OC)c(OC)c3)cs2)c1

>  <Energy>  (20) 
73.72361499262576

>  <Genealogy>  (20) 
COc1cccc(-c2nc(CNS(=O)(=O)c3ccc(OC)c(OC)c3)cs2)c1 (3D coordinates assigned)
COc1cccc(-c2nc(CNS(=O)(=O)c3ccc(OC)c(OC)c3)cs2)c1 (optimized conformer: 73.72361499262576 kcal/mol)

>  <smiles>  (20) 
COc1cccc(-c2nc(CNS(=O)(=O)c3ccc(OC)c(OC)c3)cs2)c1

>  <score_type>  (20) 
oracle

>  <origin>  (20) 
adgpu

>  <m_score__min__energy>  (20) 
-8.6899999999999995

>  <m_primary>  (20) 
energy

$$$$
20:0
     RDKit          3D

 73 77  0  0  0  0  0  0  0  0999 V2000
   -4.7870   23.2910  -28.8030 O   0  0  0  0  0  0  0  0  0  0  0  0
   -3.5790   23.5390  -29.0650 C   0  0  0  0  0  0  0  0  0  0  0  0
   -2.9870   23.0100  -30.2650 N   0  0  0  0  0  0  0  0  0  0  0  0
   -3.6300   22.0170  -31.0810 C   0  0  0  0  0  0  0  0  0  0  0  0
   -4.9700   22.1910  -31.4660 C   0  0  0  0  0  0  0  0  0  0  0  0
   -5.6280   21.2140  -32.2130 C   0  0  0  0  0  0  0  0  0  0  0  0
   -4.9600   20.0430  -32.5840 C   0  0  0  0  0  0  0  0  0  0  0  0
   -5.7960   18.7970  -33.5070 S   0  0  0  0  0  0  0  0  0  0  0  0
   -5.0900   17.4800  -33.3250 O   0  0  0  0  0  0  0  0  0  0  0  0
   -5.7650   19.1550  -34.9680 O   0  0  0  0  0  0  0  0  0  0  0  0
   -7.4550   18.6860  -32.9740 N   0  0  0  0  0  0  0  0  0  0  0  0
   -8.1370   19.9750  -33.0850 C   0  0  0  0  0  0  0  0  0  0  0  0
   -9.2470   19.9640  -32.0480 C   0  0  0  0  0  0  0  0  0  0  0  0
   -8.8210   18.9300  -31.0180 C   0  0  0  0  0  0  0  0  0  0  0  0
   -7.5340   18.3230  -31.5580 C   0  0  0  0  0  0  0  0  0  0  0  0
   -3.6290   19.8530  -32.1940 C   0  0  0  0  0  0  0  0  0  0  0  0
   -2.9520   20.8320  -31.4510 C   0  0  0  0  0  0  0  0  0  0  0  0
   -1.2600   20.5600  -31.0080 S   0  0  0  0  0  0  0  0  0  0  0  0
   -0.5910   21.8980  -30.8540 O   0  0  0  0  0  0  0  0  0  0  0  0
   -0.5770   19.7840  -32.1000 O   0  0  0  0  0  0  0  0  0  0  0  0
   -1.1670   19.6670  -29.5030 N   0  0  0  0  0  0  0  0  0  0  0  0
    0.2330   19.3520  -29.1370 C   0  0  0  0  0  0  0  0  0  0  0  0
    0.8080   20.3270  -28.0920 C   0  0  0  0  0  0  0  0  0  0  0  0
    0.2520   21.6110  -28.2600 O   0  0  0  0  0  0  0  0  0  0  0  0
   -1.1220   21.6020  -27.9090 C   0  0  0  0  0  0  0  0  0  0  0  0
   -1.8840   20.3540  -28.4140 C   0  0  0  0  0  0  0  0  0  0  0  0
   -2.8010   24.4130  -28.1540 C   0  0  0  0  0  0  0  0  0  0  0  0
   -3.2220   24.5970  -26.8240 C   0  0  0  0  0  0  0  0  0  0  0  0
   -2.5010   25.4270  -25.9600 C   0  0  0  0  0  0  0  0  0  0  0  0
   -1.3440   26.0770  -26.4080 C   0  0  0  0  0  0  0  0  0  0  0  0
   -0.4510   27.1570  -25.3400 S   0  0  0  0  0  0  0  0  0  0  0  0
   -0.2700   28.4970  -26.0000 O   0  0  0  0  0  0  0  0  0  0  0  0
   -1.2400   27.3490  -24.0740 O   0  0  0  0  0  0  0  0  0  0  0  0
    1.1070   26.4610  -24.9620 N   0  0  0  0  0  0  0  0  0  0  0  0
    0.9360   25.0790  -24.4750 C   0  0  0  0  0  0  0  0  0  0  0  0
    2.2440   24.2850  -24.6250 C   0  0  0  0  0  0  0  0  0  0  0  0
    2.7190   24.1890  -25.9620 O   0  0  0  0  0  0  0  0  0  0  0  0
    2.2190   25.2020  -26.8220 C   0  0  0  0  0  0  0  0  0  0  0  0
    2.0290   26.5570  -26.1170 C   0  0  0  0  0  0  0  0  0  0  0  0
   -0.9150   25.8920  -27.7270 C   0  0  0  0  0  0  0  0  0  0  0  0
   -1.6320   25.0610  -28.5930 C   0  0  0  0  0  0  0  0  0  0  0  0
   -2.1070   23.4430  -30.6190 H   0  0  0  0  0  0  0  0  0  0  0  0
   -5.5055   23.1069  -31.1754 H   0  0  0  0  0  0  0  0  0  0  0  0
   -6.6759   21.3652  -32.5112 H   0  0  0  0  0  0  0  0  0  0  0  0
   -7.4340   20.7961  -32.8810 H   0  0  0  0  0  0  0  0  0  0  0  0
   -8.5389   20.1275  -34.0975 H   0  0  0  0  0  0  0  0  0  0  0  0
   -9.3481   20.9547  -31.5808 H   0  0  0  0  0  0  0  0  0  0  0  0
  -10.2232   19.7220  -32.4936 H   0  0  0  0  0  0  0  0  0  0  0  0
   -8.6409   19.4091  -30.0443 H   0  0  0  0  0  0  0  0  0  0  0  0
   -9.5974   18.1667  -30.8614 H   0  0  0  0  0  0  0  0  0  0  0  0
   -6.6675   18.7279  -31.0146 H   0  0  0  0  0  0  0  0  0  0  0  0
   -7.5298   17.2304  -31.4304 H   0  0  0  0  0  0  0  0  0  0  0  0
   -3.1078   18.9254  -32.4733 H   0  0  0  0  0  0  0  0  0  0  0  0
    0.2681   18.3329  -28.7243 H   0  0  0  0  0  0  0  0  0  0  0  0
    0.8431   19.4433  -30.0477 H   0  0  0  0  0  0  0  0  0  0  0  0
    0.5707   19.9584  -27.0831 H   0  0  0  0  0  0  0  0  0  0  0  0
    1.8982   20.3900  -28.2246 H   0  0  0  0  0  0  0  0  0  0  0  0
   -1.2006   21.6369  -26.8124 H   0  0  0  0  0  0  0  0  0  0  0  0
   -1.5828   22.4771  -28.3905 H   0  0  0  0  0  0  0  0  0  0  0  0
   -2.0107   19.6530  -27.5758 H   0  0  0  0  0  0  0  0  0  0  0  0
   -2.8557   20.6877  -28.8071 H   0  0  0  0  0  0  0  0  0  0  0  0
   -4.1250   24.0841  -26.4613 H   0  0  0  0  0  0  0  0  0  0  0  0
   -2.8437   25.5700  -24.9246 H   0  0  0  0  0  0  0  0  0  0  0  0
    0.6477   25.1031  -23.4137 H   0  0  0  0  0  0  0  0  0  0  0  0
    0.1533   24.5877  -25.0717 H   0  0  0  0  0  0  0  0  0  0  0  0
    3.0181   24.7782  -24.0187 H   0  0  0  0  0  0  0  0  0  0  0  0
    2.0301   23.2588  -24.2917 H   0  0  0  0  0  0  0  0  0  0  0  0
    2.9275   25.3365  -27.6526 H   0  0  0  0  0  0  0  0  0  0  0  0
    1.2291   24.8742  -27.1721 H   0  0  0  0  0  0  0  0  0  0  0  0
    3.0075   26.9116  -25.7609 H   0  0  0  0  0  0  0  0  0  0  0  0
    1.5900   27.2573  -26.8429 H   0  0  0  0  0  0  0  0  0  0  0  0
   -0.0089   26.4031  -28.0844 H   0  0  0  0  0  0  0  0  0  0  0  0
   -1.2798   24.9129  -29.6245 H   0  0  0  0  0  0  0  0  0  0  0  0
  1  2  2  0
  2  3  1  0
  3  4  1  0
  4  5  2  0
  5  6  1  0
  6  7  2  0
  7  8  1  0
  8  9  2  0
  8 10  2  0
  8 11  1  0
 11 12  1  0
 12 13  1  0
 13 14  1  0
 14 15  1  0
  7 16  1  0
 16 17  2  0
 17 18  1  0
 18 19  2  0
 18 20  2  0
 18 21  1  0
 21 22  1  0
 22 23  1  0
 23 24  1  0
 24 25  1  0
 25 26  1  0
  2 27  1  0
 27 28  2  0
 28 29  1  0
 29 30  2  0
 30 31  1  0
 31 32  2  0
 31 33  2  0
 31 34  1  0
 34 35  1  0
 35 36  1  0
 36 37  1  0
 37 38  1  0
 38 39  1  0
 30 40  1  0
 40 41  2  0
 17  4  1  0
 26 21  1  0
 41 27  1  0
 15 11  1  0
 39 34  1  0
  3 42  1  0
  5 43  1  0
  6 44  1  0
 12 45  1  0
 12 46  1  0
 13 47  1  0
 13 48  1  0
 14 49  1  0
 14 50  1  0
 15 51  1  0
 15 52  1  0
 16 53  1  0
 22 54  1  0
 22 55  1  0
 23 56  1  0
 23 57  1  0
 25 58  1  0
 25 59  1  0
 26 60  1  0
 26 61  1  0
 28 62  1  0
 29 63  1  0
 35 64  1  0
 35 65  1  0
 36 66  1  0
 36 67  1  0
 38 68  1  0
 38 69  1  0
 39 70  1  0
 39 71  1  0
 40 72  1  0
 41 73  1  0
M  END
>  <UniqueID>  (21) 
19

>  <SMILES>  (21) 
O=C(Nc1ccc(S(=O)(=O)N2CCCC2)cc1S(=O)(=O)N1CCOCC1)c1ccc(S(=O)(=O)N2CCOCC2)cc1

>  <Energy>  (21) 
106.3917250468574

>  <Genealogy>  (21) 
O=C(Nc1ccc(S(=O)(=O)N2CCCC2)cc1S(=O)(=O)N1CCOCC1)c1ccc(S(=O)(=O)N2CCOCC2)cc1 (3D coordinates assigned)
O=C(Nc1ccc(S(=O)(=O)N2CCCC2)cc1S(=O)(=O)N1CCOCC1)c1ccc(S(=O)(=O)N2CCOCC2)cc1 (nonaromatic ring conformer: 106.3917250468574 kcal/mol)

>  <smiles>  (21) 
O=C(Nc1ccc(S(=O)(=O)N2CCCC2)cc1S(=O)(=O)N1CCOCC1)c1ccc(S(=O)(=O)N2CCOCC2)cc1

>  <score_type>  (21) 
oracle

>  <origin>  (21) 
adgpu

>  <m_score__min__energy>  (21) 
-10.960000000000001

>  <m_primary>  (21) 
energy

$$$$
21:0
     RDKit          3D

 46 49  0  0  1  0  0  0  0  0999 V2000
    0.8840   18.1910  -28.2600 C   0  0  0  0  0  0  0  0  0  0  0  0
    0.1490   19.2170  -29.0570 C   0  0  0  0  0  0  0  0  0  0  0  0
   -0.4190   20.3000  -28.5220 N   0  0  0  0  0  0  0  0  0  0  0  0
   -1.0780   21.2300  -29.2260 C   0  0  0  0  0  0  0  0  0  0  0  0
   -1.6490   22.3520  -28.4950 C   0  0  0  0  0  0  0  0  0  0  0  0
   -2.9140   22.8180  -28.7830 C   0  0  0  0  0  0  0  0  0  0  0  0
   -3.5070   23.8740  -28.1300 C   0  0  0  0  0  0  0  0  0  0  0  0
   -2.8190   24.5260  -27.1190 C   0  0  0  0  0  0  0  0  0  0  0  0
   -3.1120   25.5670  -26.3040 N   0  0  0  0  0  0  0  0  0  0  0  0
   -2.0960   25.8240  -25.4730 C   0  0  0  0  0  0  0  0  0  0  0  0
   -1.1110   24.9070  -25.7720 C   0  0  0  0  0  0  0  0  0  0  0  0
   -1.5320   24.0720  -26.8060 C   0  0  0  0  0  0  0  0  0  0  0  0
   -0.9700   23.0140  -27.4790 C   0  0  0  0  0  0  0  0  0  0  0  0
   -1.1860   21.0850  -30.5700 C   0  0  0  0  0  0  0  0  0  0  0  0
   -0.6050   19.9680  -31.1500 C   0  0  0  0  0  0  0  0  0  0  0  0
   -0.6590   19.7560  -32.4170 N   0  0  0  0  0  0  0  0  0  0  0  0
   -1.3220   20.6530  -33.3170 C   0  0  0  0  0  0  0  0  0  0  0  0
   -0.7200   21.3080  -34.2020 O   0  0  0  0  0  0  0  0  0  0  0  0
   -2.7850   20.7490  -33.1220 C   0  0  0  0  0  0  0  0  0  0  0  0
   -3.5120   19.6620  -33.5930 C   0  0  0  0  0  0  0  0  0  0  0  0
   -4.8810   19.6760  -33.4430 C   0  0  0  0  0  0  0  0  0  0  0  0
   -5.5060   20.7530  -32.8380 C   0  0  0  0  0  0  0  0  0  0  0  0
   -7.2570   20.7480  -32.6570 Cl  0  0  0  0  0  0  0  0  0  0  0  0
   -4.7470   21.8340  -32.3720 C   0  0  0  0  0  0  0  0  0  0  0  0
   -5.6280   23.1370  -31.6200 S   0  0  0  0  0  0  0  0  0  0  0  0
   -6.8070   23.8130  -32.6620 N   0  0  0  0  0  0  0  0  0  0  0  0
   -4.6790   24.2450  -31.2300 O   0  0  0  0  0  0  0  0  0  0  0  0
   -6.2950   22.6560  -30.3570 O   0  0  0  0  0  0  0  0  0  0  0  0
   -3.3710   21.8360  -32.5150 C   0  0  0  0  0  0  0  0  0  0  0  0
    0.0490   19.0590  -30.3920 N   0  0  0  0  0  0  0  0  0  0  0  0
    0.7421   18.3891  -27.1873 H   0  0  0  0  0  0  0  0  0  0  0  0
    0.4957   17.1908  -28.5027 H   0  0  0  0  0  0  0  0  0  0  0  0
    1.9559   18.2369  -28.5027 H   0  0  0  0  0  0  0  0  0  0  0  0
   -3.4820   22.3168  -29.5807 H   0  0  0  0  0  0  0  0  0  0  0  0
   -4.5204   24.1986  -28.4086 H   0  0  0  0  0  0  0  0  0  0  0  0
   -4.0350   26.0570  -26.3740 H   0  0  0  0  0  0  0  0  0  0  0  0
   -2.0546   26.6100  -24.7045 H   0  0  0  0  0  0  0  0  0  0  0  0
   -0.1352   24.8434  -25.2682 H   0  0  0  0  0  0  0  0  0  0  0  0
    0.0429   22.6826  -27.2067 H   0  0  0  0  0  0  0  0  0  0  0  0
   -1.7176   21.8299  -31.1804 H   0  0  0  0  0  0  0  0  0  0  0  0
   -3.0064   18.8115  -34.0737 H   0  0  0  0  0  0  0  0  0  0  0  0
   -5.4803   18.8278  -33.8055 H   0  0  0  0  0  0  0  0  0  0  0  0
   -6.9260   24.8550  -32.5000 H   0  0  0  0  0  0  0  0  0  0  0  0
   -6.4820   23.7520  -33.6500 H   0  0  0  0  0  0  0  0  0  0  0  0
   -2.7644   22.6800  -32.1548 H   0  0  0  0  0  0  0  0  0  0  0  0
    0.4810   18.2210  -30.8610 H   0  0  0  0  0  0  0  0  0  0  0  0
  1  2  1  0
  2  3  2  0
  3  4  1  0
  4  5  1  0
  5  6  2  0
  6  7  1  0
  7  8  2  0
  8  9  1  0
  9 10  1  0
 10 11  2  0
 11 12  1  0
 12 13  2  0
  4 14  2  0
 14 15  1  0
 15 16  2  0
 16 17  1  0
 17 18  2  0
 17 19  1  0
 19 20  2  0
 20 21  1  0
 21 22  2  0
 22 23  1  0
 22 24  1  0
 24 25  1  0
 25 26  1  0
 25 27  2  0
 25 28  2  0
 24 29  2  0
 15 30  1  0
 30  2  1  0
 13  5  1  0
 29 19  1  0
 12  8  1  0
  1 31  1  0
  1 32  1  0
  1 33  1  0
  6 34  1  0
  7 35  1  0
  9 36  1  0
 10 37  1  0
 11 38  1  0
 13 39  1  0
 14 40  1  0
 20 41  1  0
 21 42  1  0
 26 43  1  0
 26 44  1  0
 29 45  1  0
 30 46  1  0
M  END
>  <smiles>  (22) 
Cc1nc(-c2ccc3[nH]ccc3c2)cc(=NC(=O)c2ccc(Cl)c(S(N)(=O)=O)c2)[nH]1

>  <score_type>  (22) 
oracle

>  <origin>  (22) 
adgpu

>  <m_score__min__energy>  (22) 
-10.300000000000001

>  <m_primary>  (22) 
energy

$$$$
22:0
     RDKit          3D

 66 69  0  0  0  0  0  0  0  0999 V2000
    4.0540   23.8640  -27.6620 C   0  0  0  0  0  0  0  0  0  0  0  0
    2.9940   24.3660  -26.7180 C   0  0  0  0  0  0  0  0  0  0  0  0
    3.2860   25.4780  -25.9090 C   0  0  0  0  0  0  0  0  0  0  0  0
    2.3140   26.0150  -25.0630 C   0  0  0  0  0  0  0  0  0  0  0  0
    1.0330   25.4580  -25.0170 C   0  0  0  0  0  0  0  0  0  0  0  0
   -0.1930   26.1760  -23.9710 S   0  0  0  0  0  0  0  0  0  0  0  0
   -0.8640   25.1090  -23.1500 O   0  0  0  0  0  0  0  0  0  0  0  0
    0.4860   27.1450  -23.0440 O   0  0  0  0  0  0  0  0  0  0  0  0
   -1.3840   27.0160  -24.9420 N   0  0  0  0  0  0  0  0  0  0  0  0
   -0.7630   28.0880  -25.7310 C   0  0  0  0  0  0  0  0  0  0  0  0
   -0.4240   27.5170  -27.1000 C   0  0  0  0  0  0  0  0  0  0  0  0
   -1.2490   26.2490  -27.2330 C   0  0  0  0  0  0  0  0  0  0  0  0
   -2.0060   26.1090  -25.9170 C   0  0  0  0  0  0  0  0  0  0  0  0
    0.7380   24.3370  -25.8040 C   0  0  0  0  0  0  0  0  0  0  0  0
    1.7160   23.7620  -26.6240 C   0  0  0  0  0  0  0  0  0  0  0  0
    1.3600   22.6010  -27.3870 N   0  0  0  0  0  0  0  0  0  0  0  0
    0.0780   21.9600  -27.3350 C   0  0  0  0  0  0  0  0  0  0  0  0
   -0.0520   20.8690  -26.7180 O   0  0  0  0  0  0  0  0  0  0  0  0
   -1.0930   22.5790  -27.9960 C   0  0  0  0  0  0  0  0  0  0  0  0
   -1.0780   22.8480  -29.3770 C   0  0  0  0  0  0  0  0  0  0  0  0
   -2.1890   23.4310  -29.9970 C   0  0  0  0  0  0  0  0  0  0  0  0
   -3.3330   23.7430  -29.2520 C   0  0  0  0  0  0  0  0  0  0  0  0
   -4.7280   24.4850  -30.0330 S   0  0  0  0  0  0  0  0  0  0  0  0
   -5.6880   24.9580  -28.9770 O   0  0  0  0  0  0  0  0  0  0  0  0
   -4.2790   25.6740  -30.8360 O   0  0  0  0  0  0  0  0  0  0  0  0
   -5.5230   23.3210  -31.0690 N   0  0  0  0  0  0  0  0  0  0  0  0
   -6.9740   23.3020  -30.7920 C   0  0  0  0  0  0  0  0  0  0  0  0
   -7.6240   21.9850  -31.2880 C   0  0  1  0  0  0  0  0  0  0  0  0
   -9.0500   22.2210  -31.7860 C   0  0  0  0  0  0  0  0  0  0  0  0
   -6.8510   21.4300  -32.3330 O   0  0  0  0  0  0  0  0  0  0  0  0
   -5.6010   20.9700  -31.8350 C   0  0  1  0  0  0  0  0  0  0  0  0
   -4.6920   20.6800  -33.0290 C   0  0  0  0  0  0  0  0  0  0  0  0
   -4.9360   21.9890  -30.8670 C   0  0  0  0  0  0  0  0  0  0  0  0
   -3.3540   23.4750  -27.8770 C   0  0  0  0  0  0  0  0  0  0  0  0
   -2.2430   22.9020  -27.2530 C   0  0  0  0  0  0  0  0  0  0  0  0
    4.8998   23.4634  -27.0840 H   0  0  0  0  0  0  0  0  0  0  0  0
    3.6339   23.0692  -28.2959 H   0  0  0  0  0  0  0  0  0  0  0  0
    4.4027   24.6926  -28.2959 H   0  0  0  0  0  0  0  0  0  0  0  0
    4.2888   25.9288  -25.9429 H   0  0  0  0  0  0  0  0  0  0  0  0
    2.5575   26.8807  -24.4295 H   0  0  0  0  0  0  0  0  0  0  0  0
   -2.1130   27.4120  -24.3040 H   0  0  0  0  0  0  0  0  0  0  0  0
   -1.4644   28.9285  -25.8387 H   0  0  0  0  0  0  0  0  0  0  0  0
    0.1449   28.4576  -25.2319 H   0  0  0  0  0  0  0  0  0  0  0  0
   -0.6914   28.2331  -27.8910 H   0  0  0  0  0  0  0  0  0  0  0  0
    0.6523   27.3130  -27.1993 H   0  0  0  0  0  0  0  0  0  0  0  0
   -1.9535   26.3363  -28.0733 H   0  0  0  0  0  0  0  0  0  0  0  0
   -0.6158   25.3719  -27.4323 H   0  0  0  0  0  0  0  0  0  0  0  0
   -3.0617   26.3822  -26.0617 H   0  0  0  0  0  0  0  0  0  0  0  0
   -1.9626   25.0703  -25.5575 H   0  0  0  0  0  0  0  0  0  0  0  0
   -0.2729   23.9041  -25.7772 H   0  0  0  0  0  0  0  0  0  0  0  0
   -0.1877   22.5986  -29.9729 H   0  0  0  0  0  0  0  0  0  0  0  0
   -2.1635   23.6454  -31.0756 H   0  0  0  0  0  0  0  0  0  0  0  0
   -7.1332   23.3940  -29.7075 H   0  0  0  0  0  0  0  0  0  0  0  0
   -7.4409   24.1427  -31.3261 H   0  0  0  0  0  0  0  0  0  0  0  0
   -7.6622   21.2878  -30.4381 H   0  0  0  0  0  0  0  0  0  0  0  0
   -9.7253   22.3328  -30.9249 H   0  0  0  0  0  0  0  0  0  0  0  0
   -9.0787   23.1361  -32.3957 H   0  0  0  0  0  0  0  0  0  0  0  0
   -9.3720   21.3639  -32.3957 H   0  0  0  0  0  0  0  0  0  0  0  0
   -5.7671   20.0561  -31.2457 H   0  0  0  0  0  0  0  0  0  0  0  0
   -3.7021   20.3642  -32.6680 H   0  0  0  0  0  0  0  0  0  0  0  0
   -5.1328   19.8779  -33.6392 H   0  0  0  0  0  0  0  0  0  0  0  0
   -4.5869   21.5892  -33.6392 H   0  0  0  0  0  0  0  0  0  0  0  0
   -5.1040   21.6693  -29.8280 H   0  0  0  0  0  0  0  0  0  0  0  0
   -3.8559   22.0327  -31.0704 H   0  0  0  0  0  0  0  0  0  0  0  0
   -4.2496   23.7169  -27.2858 H   0  0  0  0  0  0  0  0  0  0  0  0
   -2.2677   22.7018  -26.1717 H   0  0  0  0  0  0  0  0  0  0  0  0
  1  2  1  0
  2  3  2  0
  3  4  1  0
  4  5  2  0
  5  6  1  0
  6  7  2  0
  6  8  2  0
  6  9  1  0
  9 10  1  0
 10 11  1  0
 11 12  1  0
 12 13  1  0
  5 14  1  0
 14 15  2  0
 15 16  1  0
 16 17  1  0
 17 18  2  0
 17 19  1  0
 19 20  2  0
 20 21  1  0
 21 22  2  0
 22 23  1  0
 23 24  2  0
 23 25  2  0
 23 26  1  0
 26 27  1  0
 27 28  1  0
 28 29  1  0
 28 30  1  0
 30 31  1  0
 31 32  1  0
 31 33  1  0
 22 34  1  0
 34 35  2  0
 15  2  1  0
 35 19  1  0
 13  9  1  0
 33 26  1  0
  1 36  1  0
  1 37  1  0
  1 38  1  0
  3 39  1  0
  4 40  1  0
  9 41  1  0
 10 42  1  0
 10 43  1  0
 11 44  1  0
 11 45  1  0
 12 46  1  0
 12 47  1  0
 13 48  1  0
 13 49  1  0
 14 50  1  0
 20 51  1  0
 21 52  1  0
 27 53  1  0
 27 54  1  0
 28 55  1  1
 29 56  1  0
 29 57  1  0
 29 58  1  0
 31 59  1  1
 32 60  1  0
 32 61  1  0
 32 62  1  0
 33 63  1  0
 33 64  1  0
 34 65  1  0
 35 66  1  0
M  CHG  2   9   1  16  -1
M  END
>  <UniqueID>  (23) 
20

>  <SMILES>  (23) 
Cc1ccc(S(=O)(=O)[NH+]2CCCC2)cc1[N-]C(=O)c1ccc(S(=O)(=O)N2C[C@@H](C)O[C@@H](C)C2)cc1

>  <Energy>  (23) 
80.6578468742367

>  <Genealogy>  (23) 
Cc1ccc(S(=O)(=O)[NH+]2CCCC2)cc1[N-]C(=O)c1ccc(S(=O)(=O)N2CC(C)OC(C)C2)cc1 (protonated)
Cc1ccc(S(=O)(=O)[NH+]2CCCC2)cc1[N-]C(=O)c1ccc(S(=O)(=O)N2C[C@@H](C)O[C@@H](C)C2)cc1 (chirality)
Cc1ccc(S(=O)(=O)[NH+]2CCCC2)cc1[N-]C(=O)c1ccc(S(=O)(=O)N2C[C@@H](C)O[C@@H](C)C2)cc1 (3D coordinates assigned)
Cc1ccc(S(=O)(=O)[NH+]2CCCC2)cc1[N-]C(=O)c1ccc(S(=O)(=O)N2C[C@@H](C)O[C@@H](C)C2)cc1 (nonaromatic ring conformer: 80.6578468742367 kcal/mol)

>  <smiles>  (23) 
Cc1ccc(S(=O)(=O)N2CCCC2)cc1NC(=O)c1ccc(S(=O)(=O)N2CC(C)OC(C)C2)cc1

>  <score_type>  (23) 
oracle

>  <origin>  (23) 
adgpu

>  <m_score__min__energy>  (23) 
-12.369999999999999

>  <m_primary>  (23) 
energy

$$$$
23:0
     RDKit          3D

 42 44  0  0  0  0  0  0  0  0999 V2000
   -5.4840   26.0660  -30.3560 O   0  0  0  0  0  0  0  0  0  0  0  0
   -4.9230   24.9590  -30.5690 C   0  0  0  0  0  0  0  0  0  0  0  0
   -3.4930   24.8850  -30.4700 N   0  0  0  0  0  0  0  0  0  0  0  0
   -2.7580   24.2660  -29.4050 C   0  0  0  0  0  0  0  0  0  0  0  0
   -1.4980   23.7270  -29.6950 C   0  0  0  0  0  0  0  0  0  0  0  0
   -0.7700   23.0540  -28.7090 C   0  0  0  0  0  0  0  0  0  0  0  0
   -1.2920   22.9260  -27.4220 C   0  0  0  0  0  0  0  0  0  0  0  0
   -2.5310   23.4910  -27.1100 C   0  0  0  0  0  0  0  0  0  0  0  0
   -3.2600   24.1840  -28.0840 C   0  0  0  0  0  0  0  0  0  0  0  0
   -4.4500   24.8040  -27.7010 O   0  0  0  0  0  0  0  0  0  0  0  0
   -5.7520   23.7830  -30.9220 C   0  0  0  0  0  0  0  0  0  0  0  0
   -5.1900   22.4970  -30.9960 C   0  0  0  0  0  0  0  0  0  0  0  0
   -5.9840   21.3960  -31.3260 C   0  0  0  0  0  0  0  0  0  0  0  0
   -7.3470   21.5630  -31.6030 C   0  0  0  0  0  0  0  0  0  0  0  0
   -8.3450   20.1720  -32.0240 S   0  0  0  0  0  0  0  0  0  0  0  0
   -8.7710   19.4720  -30.7630 O   0  0  0  0  0  0  0  0  0  0  0  0
   -9.5830   20.6460  -32.7330 O   0  0  0  0  0  0  0  0  0  0  0  0
   -7.4910   19.0420  -33.0470 N   0  0  0  0  0  0  0  0  0  0  0  0
   -6.8670   17.9840  -32.2390 C   0  0  0  0  0  0  0  0  0  0  0  0
   -6.1380   16.9820  -33.1600 C   0  0  0  0  0  0  0  0  0  0  0  0
   -6.0980   17.4210  -34.5070 O   0  0  0  0  0  0  0  0  0  0  0  0
   -5.5590   18.7270  -34.5710 C   0  0  0  0  0  0  0  0  0  0  0  0
   -6.4690   19.7400  -33.8460 C   0  0  0  0  0  0  0  0  0  0  0  0
   -7.9080   22.8460  -31.5490 C   0  0  0  0  0  0  0  0  0  0  0  0
   -7.1150   23.9500  -31.2180 C   0  0  0  0  0  0  0  0  0  0  0  0
   -1.0781   23.8340  -30.7061 H   0  0  0  0  0  0  0  0  0  0  0  0
    0.2144   22.6255  -28.9484 H   0  0  0  0  0  0  0  0  0  0  0  0
   -0.7276   22.3797  -26.6519 H   0  0  0  0  0  0  0  0  0  0  0  0
   -2.9365   23.3908  -26.0924 H   0  0  0  0  0  0  0  0  0  0  0  0
   -4.9500   25.4500  -28.2960 H   0  0  0  0  0  0  0  0  0  0  0  0
   -4.1181   22.3565  -30.7928 H   0  0  0  0  0  0  0  0  0  0  0  0
   -5.5363   20.3921  -31.3686 H   0  0  0  0  0  0  0  0  0  0  0  0
   -6.1429   18.4345  -31.5442 H   0  0  0  0  0  0  0  0  0  0  0  0
   -7.6461   17.4541  -31.6713 H   0  0  0  0  0  0  0  0  0  0  0  0
   -5.1069   16.8548  -32.7986 H   0  0  0  0  0  0  0  0  0  0  0  0
   -6.6934   16.0330  -33.1315 H   0  0  0  0  0  0  0  0  0  0  0  0
   -4.5674   18.7300  -34.0949 H   0  0  0  0  0  0  0  0  0  0  0  0
   -5.4815   19.0214  -35.6280 H   0  0  0  0  0  0  0  0  0  0  0  0
   -5.8554   20.3653  -33.1808 H   0  0  0  0  0  0  0  0  0  0  0  0
   -6.9733   20.3644  -34.5982 H   0  0  0  0  0  0  0  0  0  0  0  0
   -8.9769   22.9857  -31.7679 H   0  0  0  0  0  0  0  0  0  0  0  0
   -7.5615   24.9549  -31.1894 H   0  0  0  0  0  0  0  0  0  0  0  0
  1  2  2  0
  2  3  1  0
  3  4  1  0
  4  5  2  0
  5  6  1  0
  6  7  2  0
  7  8  1  0
  8  9  2  0
  9 10  1  0
  2 11  1  0
 11 12  2  0
 12 13  1  0
 13 14  2  0
 14 15  1  0
 15 16  2  0
 15 17  2  0
 15 18  1  0
 18 19  1  0
 19 20  1  0
 20 21  1  0
 21 22  1  0
 22 23  1  0
 14 24  1  0
 24 25  2  0
  9  4  1  0
 25 11  1  0
 23 18  1  0
  5 26  1  0
  6 27  1  0
  7 28  1  0
  8 29  1  0
 10 30  1  0
 12 31  1  0
 13 32  1  0
 19 33  1  0
 19 34  1  0
 20 35  1  0
 20 36  1  0
 22 37  1  0
 22 38  1  0
 23 39  1  0
 23 40  1  0
 24 41  1  0
 25 42  1  0
M  CHG  1   3  -1
M  END
>  <UniqueID>  (24) 
21

>  <SMILES>  (24) 
O=C([N-]c1ccccc1O)c1ccc(S(=O)(=O)N2CCOCC2)cc1

>  <Energy>  (24) 
60.669040535524175

>  <Genealogy>  (24) 
O=C([N-]c1ccccc1O)c1ccc(S(=O)(=O)N2CCOCC2)cc1 (protonated)
O=C([N-]c1ccccc1O)c1ccc(S(=O)(=O)N2CCOCC2)cc1 (3D coordinates assigned)
O=C([N-]c1ccccc1O)c1ccc(S(=O)(=O)N2CCOCC2)cc1 (nonaromatic ring conformer: 60.669040535524175 kcal/mol)

>  <smiles>  (24) 
O=C(Nc1ccccc1O)c1ccc(S(=O)(=O)N2CCOCC2)cc1

>  <score_type>  (24) 
oracle

>  <origin>  (24) 
adgpu

>  <m_score__min__energy>  (24) 
-12.289999999999999

>  <m_primary>  (24) 
energy

$$$$
24:0
     RDKit          3D

 48 52  0  0  0  0  0  0  0  0999 V2000
   -8.6100   19.1930  -31.3420 O   0  0  0  0  0  0  0  0  0  0  0  0
   -7.5200   19.6150  -31.8180 C   0  0  0  0  0  0  0  0  0  0  0  0
   -6.7490   18.7690  -32.7590 C   0  0  0  0  0  0  0  0  0  0  0  0
   -7.2180   17.4940  -33.1250 C   0  0  0  0  0  0  0  0  0  0  0  0
   -6.4860   16.6990  -34.0100 C   0  0  0  0  0  0  0  0  0  0  0  0
   -5.2830   17.1660  -34.5390 C   0  0  0  0  0  0  0  0  0  0  0  0
   -4.8040   18.4290  -34.1850 C   0  0  0  0  0  0  0  0  0  0  0  0
   -5.5300   19.2410  -33.2940 C   0  0  0  0  0  0  0  0  0  0  0  0
   -5.0260   20.5820  -32.9160 C   0  0  0  0  0  0  0  0  0  0  0  0
   -3.9390   21.0040  -33.3940 O   0  0  0  0  0  0  0  0  0  0  0  0
   -5.7980   21.4280  -31.9730 C   0  0  0  0  0  0  0  0  0  0  0  0
   -5.3230   22.6980  -31.6000 C   0  0  0  0  0  0  0  0  0  0  0  0
   -6.0420   23.4890  -30.6950 C   0  0  0  0  0  0  0  0  0  0  0  0
   -5.4130   25.0450  -30.1580 S   0  0  0  0  0  0  0  0  0  0  0  0
   -4.5460   25.6690  -31.2150 O   0  0  0  0  0  0  0  0  0  0  0  0
   -6.5700   25.9610  -29.8760 O   0  0  0  0  0  0  0  0  0  0  0  0
   -4.4830   24.8240  -28.7100 N   0  0  0  0  0  0  0  0  0  0  0  0
   -3.3750   23.9100  -28.6250 C   0  0  0  0  0  0  0  0  0  0  0  0
   -3.5690   22.5720  -28.2380 C   0  0  0  0  0  0  0  0  0  0  0  0
   -2.4830   21.6920  -28.1220 C   0  0  0  0  0  0  0  0  0  0  0  0
   -1.1800   22.1580  -28.3870 C   0  0  0  0  0  0  0  0  0  0  0  0
   -0.9910   23.4790  -28.8150 C   0  0  0  0  0  0  0  0  0  0  0  0
   -2.0760   24.3500  -28.9300 C   0  0  0  0  0  0  0  0  0  0  0  0
   -1.8530   25.6620  -29.3350 O   0  0  0  0  0  0  0  0  0  0  0  0
    0.0040   21.2190  -28.3150 C   0  0  0  0  0  0  0  0  0  0  0  0
   -0.2630   20.0510  -27.4640 N   0  0  0  0  0  0  0  0  0  0  0  0
   -1.5060   19.3860  -27.8690 C   0  0  0  0  0  0  0  0  0  0  0  0
   -2.7200   20.2910  -27.6210 C   0  0  0  0  0  0  0  0  0  0  0  0
   -7.2460   23.0150  -30.1660 C   0  0  0  0  0  0  0  0  0  0  0  0
   -7.7310   21.7590  -30.5350 C   0  0  0  0  0  0  0  0  0  0  0  0
   -7.0140   20.9540  -31.4360 C   0  0  0  0  0  0  0  0  0  0  0  0
   -8.1668   17.1210  -32.7118 H   0  0  0  0  0  0  0  0  0  0  0  0
   -6.8590   15.7028  -34.2902 H   0  0  0  0  0  0  0  0  0  0  0  0
   -4.7100   16.5378  -35.2369 H   0  0  0  0  0  0  0  0  0  0  0  0
   -3.8540   18.7912  -34.6049 H   0  0  0  0  0  0  0  0  0  0  0  0
   -4.3792   23.0732  -32.0224 H   0  0  0  0  0  0  0  0  0  0  0  0
   -4.8560   25.2630  -27.8380 H   0  0  0  0  0  0  0  0  0  0  0  0
   -4.5856   22.2109  -28.0235 H   0  0  0  0  0  0  0  0  0  0  0  0
    0.0208   23.8326  -29.0624 H   0  0  0  0  0  0  0  0  0  0  0  0
    0.2413   20.8700  -29.3308 H   0  0  0  0  0  0  0  0  0  0  0  0
    0.8464   21.7719  -27.8739 H   0  0  0  0  0  0  0  0  0  0  0  0
   -0.3520   20.3680  -26.4690 H   0  0  0  0  0  0  0  0  0  0  0  0
   -1.4514   19.1431  -28.9404 H   0  0  0  0  0  0  0  0  0  0  0  0
   -1.6240   18.4699  -27.2716 H   0  0  0  0  0  0  0  0  0  0  0  0
   -3.5917   19.8688  -28.1424 H   0  0  0  0  0  0  0  0  0  0  0  0
   -2.8949   20.3401  -26.5361 H   0  0  0  0  0  0  0  0  0  0  0  0
   -7.8137   23.6343  -29.4559 H   0  0  0  0  0  0  0  0  0  0  0  0
   -8.6819   21.3968  -30.1171 H   0  0  0  0  0  0  0  0  0  0  0  0
  1  2  2  0
  2  3  1  0
  3  4  2  0
  4  5  1  0
  5  6  2  0
  6  7  1  0
  7  8  2  0
  8  9  1  0
  9 10  2  0
  9 11  1  0
 11 12  2  0
 12 13  1  0
 13 14  1  0
 14 15  2  0
 14 16  2  0
 14 17  1  0
 17 18  1  0
 18 19  2  0
 19 20  1  0
 20 21  2  0
 21 22  1  0
 22 23  2  0
 23 24  1  0
 21 25  1  0
 25 26  1  0
 26 27  1  0
 27 28  1  0
 13 29  2  0
 29 30  1  0
 30 31  2  0
 31  2  1  0
  8  3  1  0
 31 11  1  0
 23 18  1  0
 28 20  1  0
  4 32  1  0
  5 33  1  0
  6 34  1  0
  7 35  1  0
 12 36  1  0
 17 37  1  0
 19 38  1  0
 22 39  1  0
 25 40  1  0
 25 41  1  0
 26 42  1  0
 27 43  1  0
 27 44  1  0
 28 45  1  0
 28 46  1  0
 29 47  1  0
 30 48  1  0
M  CHG  1  24  -1
M  END
>  <UniqueID>  (25) 
22

>  <SMILES>  (25) 
O=C1c2ccccc2C(=O)c2cc(S(=O)(=O)Nc3cc4c(cc3[O-])CNCC4)ccc21

>  <Energy>  (25) 
63.43849854078315

>  <Genealogy>  (25) 
O=C1c2ccccc2C(=O)c2cc(S(=O)(=O)Nc3cc4c(cc3[O-])CNCC4)ccc21 (protonated)
O=C1c2ccccc2C(=O)c2cc(S(=O)(=O)Nc3cc4c(cc3[O-])CNCC4)ccc21 (3D coordinates assigned)
O=C1c2ccccc2C(=O)c2cc(S(=O)(=O)Nc3cc4c(cc3[O-])CNCC4)ccc21 (nonaromatic ring conformer: 63.43849854078315 kcal/mol)

>  <smiles>  (25) 
O=C1c2ccccc2C(=O)c2cc(S(=O)(=O)Nc3cc4c(cc3O)CNCC4)ccc21

>  <score_type>  (25) 
oracle

>  <origin>  (25) 
adgpu

>  <m_score__min__energy>  (25) 
-15.56

>  <m_primary>  (25) 
energy

$$$$
25:0
     RDKit          3D

 41 43  0  0  0  0  0  0  0  0999 V2000
   -5.0940   22.9922  -31.3185 H   0  0  0  0  0  0  0  0  0  0  0  0
   -4.0920   22.6000  -31.0900 C   0  0  0  0  0  0  0  0  0  0  0  0
   -3.2270   23.3880  -30.1930 C   0  0  0  0  0  0  0  0  0  0  0  0
   -2.4590   22.8370  -29.2370 N   0  0  0  0  0  0  0  0  0  0  0  0
   -1.9180   23.9060  -28.6130 C   0  0  0  0  0  0  0  0  0  0  0  0
   -1.1160   23.7950  -27.6500 O   0  0  0  0  0  0  0  0  0  0  0  0
   -2.3130   25.1030  -29.0950 N   0  0  0  0  0  0  0  0  0  0  0  0
   -3.1510   24.7600  -30.0860 C   0  0  0  0  0  0  0  0  0  0  0  0
   -3.8640   25.6810  -30.8430 O   0  0  0  0  0  0  0  0  0  0  0  0
   -3.7280   21.4270  -31.6470 C   0  0  0  0  0  0  0  0  0  0  0  0
   -2.5530   20.7420  -31.3980 C   0  0  0  0  0  0  0  0  0  0  0  0
   -1.7618   21.0694  -30.7075 H   0  0  0  0  0  0  0  0  0  0  0  0
   -2.5260   19.6150  -32.1290 N   0  0  0  0  0  0  0  0  0  0  0  0
   -3.6880   19.6210  -32.8160 C   0  0  0  0  0  0  0  0  0  0  0  0
   -3.9990   18.6670  -33.7110 C   0  0  0  0  0  0  0  0  0  0  0  0
   -4.9520   18.7445  -34.2548 H   0  0  0  0  0  0  0  0  0  0  0  0
   -3.0980   17.4990  -33.9990 C   0  0  0  0  0  0  0  0  0  0  0  0
   -2.2032   17.5703  -33.3631 H   0  0  0  0  0  0  0  0  0  0  0  0
   -2.8199   17.5267  -35.0629 H   0  0  0  0  0  0  0  0  0  0  0  0
   -3.8090   16.1690  -33.7160 C   0  0  0  0  0  0  0  0  0  0  0  0
   -3.7636   15.9598  -32.6370 H   0  0  0  0  0  0  0  0  0  0  0  0
   -3.3040   15.3747  -34.2852 H   0  0  0  0  0  0  0  0  0  0  0  0
   -5.2700   16.2240  -34.1520 C   0  0  0  0  0  0  0  0  0  0  0  0
   -5.9173   16.2484  -33.2629 H   0  0  0  0  0  0  0  0  0  0  0  0
   -5.4393   17.1292  -34.7537 H   0  0  0  0  0  0  0  0  0  0  0  0
   -5.5068   15.3341  -34.7537 H   0  0  0  0  0  0  0  0  0  0  0  0
   -4.4690   20.6970  -32.5230 N   0  0  0  0  0  0  0  0  0  0  0  0
   -5.7830   21.0290  -33.1140 C   0  0  0  0  0  0  0  0  0  0  0  0
   -6.0003   22.0902  -32.9224 H   0  0  0  0  0  0  0  0  0  0  0  0
   -5.7317   20.8208  -34.1929 H   0  0  0  0  0  0  0  0  0  0  0  0
   -6.9010   20.1870  -32.5280 C   0  0  0  0  0  0  0  0  0  0  0  0
   -6.8590   18.7880  -32.6910 C   0  0  0  0  0  0  0  0  0  0  0  0
   -6.0193   18.3283  -33.2328 H   0  0  0  0  0  0  0  0  0  0  0  0
   -7.8720   17.9790  -32.1720 C   0  0  0  0  0  0  0  0  0  0  0  0
   -7.8204   16.8872  -32.2958 H   0  0  0  0  0  0  0  0  0  0  0  0
   -8.9490   18.5530  -31.4970 C   0  0  0  0  0  0  0  0  0  0  0  0
   -9.7414   17.9136  -31.0807 H   0  0  0  0  0  0  0  0  0  0  0  0
   -9.0210   19.9390  -31.3500 C   0  0  0  0  0  0  0  0  0  0  0  0
   -9.8758   20.3884  -30.8234 H   0  0  0  0  0  0  0  0  0  0  0  0
   -8.0130   20.7620  -31.8680 C   0  0  0  0  0  0  0  0  0  0  0  0
   -8.2090   22.4990  -31.6890 Cl  0  0  0  0  0  0  0  0  0  0  0  0
  1  2  1  0
  2  3  1  0
  3  4  1  0
  4  5  1  0
  5  6  2  0
  5  7  1  0
  7  8  1  0
  8  9  1  0
  2 10  2  3
 10 11  1  0
 11 12  1  0
 11 13  2  0
 13 14  1  0
 14 15  2  0
 15 16  1  0
 15 17  1  0
 17 18  1  0
 17 19  1  0
 17 20  1  0
 20 21  1  0
 20 22  1  0
 20 23  1  0
 23 24  1  0
 23 25  1  0
 23 26  1  0
 14 27  1  0
 27 28  1  0
 28 29  1  0
 28 30  1  0
 28 31  1  0
 31 32  2  0
 32 33  1  0
 32 34  1  0
 34 35  1  0
 34 36  2  0
 36 37  1  0
 36 38  1  0
 38 39  1  0
 38 40  2  0
 40 41  1  0
  8  3  2  0
 27 10  1  0
 40 31  1  0
M  CHG  3   4  -1   7  -1   9  -1
M  END
>  <UniqueID>  (26) 
23

>  <SMILES>  (26) 
CCC/C=c1\ncc(=Cc2[n-]c(=O)[n-]c2[O-])n1Cc1ccccc1Cl

>  <Energy>  (26) 
107.95499338819403

>  <Genealogy>  (26) 
CCCC=c1ncc(=Cc2[n-]c(=O)[n-]c2[O-])n1Cc1ccccc1Cl (protonated)
CCC/C=c1\ncc(=Cc2[n-]c(=O)[n-]c2[O-])n1Cc1ccccc1Cl (cis-trans isomerization)
CCC/C=c1\ncc(=Cc2[n-]c(=O)[n-]c2[O-])n1Cc1ccccc1Cl (3D coordinates assigned)
CCC/C=c1\ncc(=Cc2[n-]c(=O)[n-]c2[O-])n1Cc1ccccc1Cl (optimized conformer: 107.95499338819403 kcal/mol)

>  <smiles>  (26) 
CCCC=c1ncc(=Cc2[nH]c(=O)[nH]c2O)n1Cc1ccccc1Cl

>  <score_type>  (26) 
oracle

>  <origin>  (26) 
adgpu

>  <m_score__min__energy>  (26) 
-13.119999999999999

>  <m_primary>  (26) 
energy

$$$$
26:0
     RDKit          3D

 66 70  0  0  0  0  0  0  0  0999 V2000
   -5.7390   26.6490  -30.4660 O   0  0  0  0  0  0  0  0  0  0  0  0
   -5.2160   25.5550  -30.7960 C   0  0  0  0  0  0  0  0  0  0  0  0
   -3.8520   25.2970  -30.4440 N   0  0  0  0  0  0  0  0  0  0  0  0
   -3.4450   24.5770  -29.2720 C   0  0  0  0  0  0  0  0  0  0  0  0
   -4.3270   23.6970  -28.6220 C   0  0  0  0  0  0  0  0  0  0  0  0
   -3.9240   23.0200  -27.4680 C   0  0  0  0  0  0  0  0  0  0  0  0
   -2.6400   23.2120  -26.9570 C   0  0  0  0  0  0  0  0  0  0  0  0
   -1.7490   24.0820  -27.6000 C   0  0  0  0  0  0  0  0  0  0  0  0
   -0.3770   24.2350  -27.0810 C   0  0  0  0  0  0  0  0  0  0  0  0
   -0.0010   25.4690  -26.5270 C   0  0  0  0  0  0  0  0  0  0  0  0
    1.2990   25.6670  -26.0590 C   0  0  0  0  0  0  0  0  0  0  0  0
    2.2350   24.6350  -26.1390 C   0  0  0  0  0  0  0  0  0  0  0  0
    1.8720   23.3980  -26.6800 C   0  0  0  0  0  0  0  0  0  0  0  0
    0.5650   23.1780  -27.1440 C   0  0  0  0  0  0  0  0  0  0  0  0
    0.1430   21.5830  -27.7950 S   0  0  0  0  0  0  0  0  0  0  0  0
    1.3940   20.8080  -28.1100 O   0  0  0  0  0  0  0  0  0  0  0  0
   -0.6590   20.8360  -26.7650 O   0  0  0  0  0  0  0  0  0  0  0  0
   -0.7970   21.7650  -29.2560 N   0  0  0  0  0  0  0  0  0  0  0  0
   -0.0730   21.1800  -30.3930 C   0  0  0  0  0  0  0  0  0  0  0  0
   -0.7670   21.5640  -31.7100 C   0  0  0  0  0  0  0  0  0  0  0  0
   -2.2850   21.8750  -31.5480 C   0  0  0  0  0  0  0  0  0  0  0  0
   -2.9660   21.7110  -32.8700 N   0  0  0  0  0  0  0  0  0  0  0  0
   -4.4560   21.7930  -32.7710 C   0  0  0  0  0  0  0  0  0  0  0  0
   -5.1870   20.4540  -33.0050 C   0  0  0  0  0  0  0  0  0  0  0  0
   -4.3800   19.2850  -32.4400 C   0  0  0  0  0  0  0  0  0  0  0  0
   -2.9810   19.2090  -33.0740 C   0  0  0  0  0  0  0  0  0  0  0  0
   -2.5380   20.5510  -33.6890 C   0  0  0  0  0  0  0  0  0  0  0  0
   -2.8630   20.9590  -30.4350 C   0  0  0  0  0  0  0  0  0  0  0  0
   -2.1050   21.1050  -29.0950 C   0  0  0  0  0  0  0  0  0  0  0  0
   -2.1610   24.7810  -28.7480 C   0  0  0  0  0  0  0  0  0  0  0  0
   -1.2920   25.6700  -29.3760 O   0  0  0  0  0  0  0  0  0  0  0  0
   -5.9800   24.6180  -31.5620 N   0  0  0  0  0  0  0  0  0  0  0  0
   -7.1610   23.9370  -31.0450 C   0  0  0  0  0  0  0  0  0  0  0  0
   -7.6280   22.7750  -31.9020 C   0  0  0  0  0  0  0  0  0  0  0  0
   -6.8640   22.5130  -30.6140 C   0  0  0  0  0  0  0  0  0  0  0  0
   -5.3391   23.5404  -29.0234 H   0  0  0  0  0  0  0  0  0  0  0  0
   -4.6199   22.3348  -26.9618 H   0  0  0  0  0  0  0  0  0  0  0  0
   -2.3262   22.6792  -26.0472 H   0  0  0  0  0  0  0  0  0  0  0  0
   -0.7356   26.2851  -26.4613 H   0  0  0  0  0  0  0  0  0  0  0  0
    1.5859   26.6370  -25.6269 H   0  0  0  0  0  0  0  0  0  0  0  0
    3.2608   24.7952  -25.7756 H   0  0  0  0  0  0  0  0  0  0  0  0
    2.6163   22.5905  -26.7427 H   0  0  0  0  0  0  0  0  0  0  0  0
    0.9598   21.5586  -30.4013 H   0  0  0  0  0  0  0  0  0  0  0  0
   -0.0672   20.0846  -30.2932 H   0  0  0  0  0  0  0  0  0  0  0  0
   -0.2706   22.4573  -32.1170 H   0  0  0  0  0  0  0  0  0  0  0  0
   -0.6855   20.6970  -32.3821 H   0  0  0  0  0  0  0  0  0  0  0  0
   -2.4551   22.9155  -31.2344 H   0  0  0  0  0  0  0  0  0  0  0  0
   -4.7142   22.1542  -31.7646 H   0  0  0  0  0  0  0  0  0  0  0  0
   -4.7859   22.4736  -33.5697 H   0  0  0  0  0  0  0  0  0  0  0  0
   -6.1679   20.4877  -32.5083 H   0  0  0  0  0  0  0  0  0  0  0  0
   -5.3093   20.3053  -34.0880 H   0  0  0  0  0  0  0  0  0  0  0  0
   -4.2735   19.4162  -31.3531 H   0  0  0  0  0  0  0  0  0  0  0  0
   -4.9152   18.3520  -32.6706 H   0  0  0  0  0  0  0  0  0  0  0  0
   -2.2571   18.9207  -32.2976 H   0  0  0  0  0  0  0  0  0  0  0  0
   -3.0214   18.4669  -33.8849 H   0  0  0  0  0  0  0  0  0  0  0  0
   -1.4409   20.5592  -33.7687 H   0  0  0  0  0  0  0  0  0  0  0  0
   -3.0119   20.6423  -34.6775 H   0  0  0  0  0  0  0  0  0  0  0  0
   -3.9186   21.2229  -30.2737 H   0  0  0  0  0  0  0  0  0  0  0  0
   -2.7532   19.9168  -30.7693 H   0  0  0  0  0  0  0  0  0  0  0  0
   -2.7193   21.7026  -28.4054 H   0  0  0  0  0  0  0  0  0  0  0  0
   -1.9233   20.0939  -28.7016 H   0  0  0  0  0  0  0  0  0  0  0  0
   -7.6544   24.8116  -30.5960 H   0  0  0  0  0  0  0  0  0  0  0  0
   -8.6993   22.5335  -31.9651 H   0  0  0  0  0  0  0  0  0  0  0  0
   -7.5008   22.4843  -32.9552 H   0  0  0  0  0  0  0  0  0  0  0  0
   -7.3824   22.0818  -29.7449 H   0  0  0  0  0  0  0  0  0  0  0  0
   -5.9546   21.9539  -30.3487 H   0  0  0  0  0  0  0  0  0  0  0  0
  1  2  2  0
  2  3  1  0
  3  4  1  0
  4  5  2  0
  5  6  1  0
  6  7  2  0
  7  8  1  0
  8  9  1  0
  9 10  2  0
 10 11  1  0
 11 12  2  0
 12 13  1  0
 13 14  2  0
 14 15  1  0
 15 16  2  0
 15 17  2  0
 15 18  1  0
 18 19  1  0
 19 20  1  0
 20 21  1  0
 21 22  1  0
 22 23  1  0
 23 24  1  0
 24 25  1  0
 25 26  1  0
 26 27  1  0
 21 28  1  0
 28 29  1  0
  8 30  2  0
 30 31  1  0
  2 32  1  0
 32 33  1  0
 33 34  1  0
 34 35  1  0
 30  4  1  0
 35 33  1  0
 14  9  1  0
 29 18  1  0
 27 22  1  0
  5 36  1  0
  6 37  1  0
  7 38  1  0
 10 39  1  0
 11 40  1  0
 12 41  1  0
 13 42  1  0
 19 43  1  0
 19 44  1  0
 20 45  1  0
 20 46  1  0
 21 47  1  0
 23 48  1  0
 23 49  1  0
 24 50  1  0
 24 51  1  0
 25 52  1  0
 25 53  1  0
 26 54  1  0
 26 55  1  0
 27 56  1  0
 27 57  1  0
 28 58  1  0
 28 59  1  0
 29 60  1  0
 29 61  1  0
 33 62  1  0
 34 63  1  0
 34 64  1  0
 35 65  1  0
 35 66  1  0
M  CHG  3   3  -1  31  -1  32  -1
M  END
>  <UniqueID>  (27) 
24

>  <SMILES>  (27) 
O=C([N-]c1cccc(-c2ccccc2S(=O)(=O)N2CCC(N3CCCCC3)CC2)c1[O-])[N-]C1CC1

>  <Energy>  (27) 
364.70305803189166

>  <Genealogy>  (27) 
O=C([N-]c1cccc(-c2ccccc2S(=O)(=O)N2CCC(N3CCCCC3)CC2)c1[O-])[N-]C1CC1 (protonated)
O=C([N-]c1cccc(-c2ccccc2S(=O)(=O)N2CCC(N3CCCCC3)CC2)c1[O-])[N-]C1CC1 (3D coordinates assigned)
O=C([N-]c1cccc(-c2ccccc2S(=O)(=O)N2CCC(N3CCCCC3)CC2)c1[O-])[N-]C1CC1 (nonaromatic ring conformer: 364.70305803189166 kcal/mol)

>  <smiles>  (27) 
O=C(Nc1cccc(-c2ccccc2S(=O)(=O)N2CCC(N3CCCCC3)CC2)c1O)NC1CC1

>  <score_type>  (27) 
oracle

>  <origin>  (27) 
adgpu

>  <m_score__min__energy>  (27) 
-15.32

>  <m_primary>  (27) 
energy

$$$$
27:0
     RDKit          3D

 46 49  0  0  0  0  0  0  0  0999 V2000
   -2.6560   22.7240  -29.8960 O   0  0  0  0  0  0  0  0  0  0  0  0
   -2.8840   23.8670  -29.4160 C   0  0  0  0  0  0  0  0  0  0  0  0
   -4.0860   24.5710  -29.7670 N   0  0  0  0  0  0  0  0  0  0  0  0
   -5.2690   23.9370  -30.2800 C   0  0  0  0  0  0  0  0  0  0  0  0
   -5.6840   24.2130  -31.5910 C   0  0  0  0  0  0  0  0  0  0  0  0
   -6.8460   23.6280  -32.1040 C   0  0  0  0  0  0  0  0  0  0  0  0
   -7.6170   22.7730  -31.3080 C   0  0  0  0  0  0  0  0  0  0  0  0
   -9.0810   22.0460  -31.9650 S   0  0  0  0  0  0  0  0  0  0  0  0
   -9.9120   21.5350  -30.8200 O   0  0  0  0  0  0  0  0  0  0  0  0
   -9.8660   23.0840  -32.7190 O   0  0  0  0  0  0  0  0  0  0  0  0
   -8.6440   20.7270  -33.0310 N   0  0  0  0  0  0  0  0  0  0  0  0
   -9.4700   19.5240  -32.7890 C   0  0  0  0  0  0  0  0  0  0  0  0
   -8.7470   18.4670  -31.9350 C   0  0  0  0  0  0  0  0  0  0  0  0
   -7.8900   19.0910  -31.0070 O   0  0  0  0  0  0  0  0  0  0  0  0
   -6.7980   19.6970  -31.6780 C   0  0  0  0  0  0  0  0  0  0  0  0
   -7.2000   20.4380  -32.9760 C   0  0  0  0  0  0  0  0  0  0  0  0
   -7.2170   22.5070  -29.9910 C   0  0  0  0  0  0  0  0  0  0  0  0
   -6.0560   23.0900  -29.4770 C   0  0  0  0  0  0  0  0  0  0  0  0
   -1.8420   24.5190  -28.5980 C   0  0  0  0  0  0  0  0  0  0  0  0
   -1.4560   25.7730  -28.9530 N   0  0  0  0  0  0  0  0  0  0  0  0
   -0.5640   26.4680  -28.2480 N   0  0  0  0  0  0  0  0  0  0  0  0
    0.0150   25.9630  -27.1320 C   0  0  0  0  0  0  0  0  0  0  0  0
    0.8440   26.6670  -26.4950 O   0  0  0  0  0  0  0  0  0  0  0  0
   -0.3130   24.6640  -26.7090 C   0  0  0  0  0  0  0  0  0  0  0  0
    0.2840   24.0950  -25.5680 C   0  0  0  0  0  0  0  0  0  0  0  0
   -0.0230   22.7870  -25.1910 C   0  0  0  0  0  0  0  0  0  0  0  0
   -0.9120   22.0300  -25.9520 C   0  0  0  0  0  0  0  0  0  0  0  0
   -1.5160   22.5800  -27.0840 C   0  0  0  0  0  0  0  0  0  0  0  0
   -1.2480   23.9130  -27.4650 C   0  0  0  0  0  0  0  0  0  0  0  0
   -4.0720   25.6150  -29.7090 H   0  0  0  0  0  0  0  0  0  0  0  0
   -5.0916   24.8940  -32.2197 H   0  0  0  0  0  0  0  0  0  0  0  0
   -7.1555   23.8408  -33.1379 H   0  0  0  0  0  0  0  0  0  0  0  0
  -10.3897   19.8280  -32.2678 H   0  0  0  0  0  0  0  0  0  0  0  0
   -9.6870   19.0686  -33.7665 H   0  0  0  0  0  0  0  0  0  0  0  0
   -9.4925   17.8662  -31.3935 H   0  0  0  0  0  0  0  0  0  0  0  0
   -8.1499   17.8209  -32.5953 H   0  0  0  0  0  0  0  0  0  0  0  0
   -6.3294   20.4212  -30.9954 H   0  0  0  0  0  0  0  0  0  0  0  0
   -6.1104   18.8891  -31.9685 H   0  0  0  0  0  0  0  0  0  0  0  0
   -6.6471   21.3876  -33.0269 H   0  0  0  0  0  0  0  0  0  0  0  0
   -6.9551   19.7843  -33.8261 H   0  0  0  0  0  0  0  0  0  0  0  0
   -7.8194   21.8369  -29.3600 H   0  0  0  0  0  0  0  0  0  0  0  0
   -5.7552   22.8860  -28.4388 H   0  0  0  0  0  0  0  0  0  0  0  0
    0.9957   24.6842  -24.9710 H   0  0  0  0  0  0  0  0  0  0  0  0
    0.4375   22.3525  -24.2915 H   0  0  0  0  0  0  0  0  0  0  0  0
   -1.1388   20.9942  -25.6592 H   0  0  0  0  0  0  0  0  0  0  0  0
   -2.2067   21.9697  -27.6844 H   0  0  0  0  0  0  0  0  0  0  0  0
  1  2  2  0
  2  3  1  0
  3  4  1  0
  4  5  2  0
  5  6  1  0
  6  7  2  0
  7  8  1  0
  8  9  2  0
  8 10  2  0
  8 11  1  0
 11 12  1  0
 12 13  1  0
 13 14  1  0
 14 15  1  0
 15 16  1  0
  7 17  1  0
 17 18  2  0
  2 19  1  0
 19 20  2  0
 20 21  1  0
 21 22  1  0
 22 23  2  0
 22 24  1  0
 24 25  2  0
 25 26  1  0
 26 27  2  0
 27 28  1  0
 28 29  2  0
 18  4  1  0
 29 19  1  0
 16 11  1  0
 29 24  1  0
  3 30  1  0
  5 31  1  0
  6 32  1  0
 12 33  1  0
 12 34  1  0
 13 35  1  0
 13 36  1  0
 15 37  1  0
 15 38  1  0
 16 39  1  0
 16 40  1  0
 17 41  1  0
 18 42  1  0
 25 43  1  0
 26 44  1  0
 27 45  1  0
 28 46  1  0
M  CHG  1  21  -1
M  END
>  <UniqueID>  (28) 
25

>  <SMILES>  (28) 
O=C(Nc1ccc(S(=O)(=O)N2CCOCC2)cc1)c1n[n-]c(=O)c2ccccc12

>  <Energy>  (28) 
76.0219793494212

>  <Genealogy>  (28) 
O=C(Nc1ccc(S(=O)(=O)N2CCOCC2)cc1)c1n[n-]c(=O)c2ccccc12 (protonated)
O=C(Nc1ccc(S(=O)(=O)N2CCOCC2)cc1)c1n[n-]c(=O)c2ccccc12 (3D coordinates assigned)
O=C(Nc1ccc(S(=O)(=O)N2CCOCC2)cc1)c1n[n-]c(=O)c2ccccc12 (nonaromatic ring conformer: 76.0219793494212 kcal/mol)

>  <smiles>  (28) 
O=C(Nc1ccc(S(=O)(=O)N2CCOCC2)cc1)c1n[nH]c(=O)c2ccccc12

>  <score_type>  (28) 
oracle

>  <origin>  (28) 
adgpu

>  <m_score__min__energy>  (28) 
-10.08

>  <m_primary>  (28) 
energy

$$$$
28:0
     RDKit          3D

 70 73  0  0  0  0  0  0  0  0999 V2000
   -2.6850   20.4260  -28.6150 C   0  0  0  0  0  0  0  0  0  0  0  0
   -1.3020   20.6790  -29.0520 N   0  0  0  0  0  0  0  0  0  0  0  0
   -0.8350   19.5820  -29.9310 C   0  0  0  0  0  0  0  0  0  0  0  0
    0.3650   20.0220  -30.7830 C   0  0  0  0  0  0  0  0  0  0  0  0
    0.0490   21.1810  -31.6530 N   0  0  0  0  0  0  0  0  0  0  0  0
   -0.1950   20.6740  -33.3070 S   0  0  0  0  0  0  0  0  0  0  0  0
   -0.3190   21.8840  -34.1880 O   0  0  0  0  0  0  0  0  0  0  0  0
    0.9770   19.8590  -33.7780 O   0  0  0  0  0  0  0  0  0  0  0  0
   -1.6710   19.7180  -33.4450 C   0  0  0  0  0  0  0  0  0  0  0  0
   -1.6080   18.3180  -33.4740 C   0  0  0  0  0  0  0  0  0  0  0  0
   -2.7790   17.5620  -33.5820 C   0  0  0  0  0  0  0  0  0  0  0  0
   -4.0280   18.2000  -33.6700 C   0  0  0  0  0  0  0  0  0  0  0  0
   -5.2830   17.3870  -33.8490 C   0  0  0  0  0  0  0  0  0  0  0  0
   -6.3540   17.8090  -32.8410 C   0  0  0  0  0  0  0  0  0  0  0  0
   -7.2720   18.7690  -33.4570 N   0  0  0  0  0  0  0  0  0  0  0  0
   -8.2190   19.5930  -32.2530 S   0  0  0  0  0  0  0  0  0  0  0  0
   -8.5730   18.6250  -31.1600 O   0  0  0  0  0  0  0  0  0  0  0  0
   -9.4920   20.0950  -32.8730 O   0  0  0  0  0  0  0  0  0  0  0  0
   -7.3180   20.9410  -31.5590 C   0  0  0  0  0  0  0  0  0  0  0  0
   -5.9240   20.9910  -31.6870 C   0  0  0  0  0  0  0  0  0  0  0  0
   -5.2080   22.0720  -31.1650 C   0  0  0  0  0  0  0  0  0  0  0  0
   -5.8800   23.1140  -30.5100 C   0  0  0  0  0  0  0  0  0  0  0  0
   -4.9740   24.4700  -29.8340 S   0  0  0  0  0  0  0  0  0  0  0  0
   -5.9200   25.3800  -29.1000 O   0  0  0  0  0  0  0  0  0  0  0  0
   -4.3480   25.2550  -30.9540 O   0  0  0  0  0  0  0  0  0  0  0  0
   -3.7200   23.9230  -28.7450 N   0  0  0  0  0  0  0  0  0  0  0  0
   -4.2310   23.7570  -27.3620 C   0  0  0  0  0  0  0  0  0  0  0  0
   -3.8380   24.9150  -26.4330 C   0  0  0  0  0  0  0  0  0  0  0  0
   -2.3080   25.0740  -26.3570 C   0  0  0  0  0  0  0  0  0  0  0  0
   -1.5990   24.6360  -27.6510 C   0  0  0  0  0  0  0  0  0  0  0  0
   -2.5230   24.7870  -28.8620 C   0  0  0  0  0  0  0  0  0  0  0  0
   -7.2750   23.0670  -30.3890 C   0  0  0  0  0  0  0  0  0  0  0  0
   -7.9910   21.9850  -30.9100 C   0  0  0  0  0  0  0  0  0  0  0  0
   -4.0870   19.6020  -33.6400 C   0  0  0  0  0  0  0  0  0  0  0  0
   -2.9160   20.3560  -33.5190 C   0  0  0  0  0  0  0  0  0  0  0  0
   -1.1090   21.9730  -31.1900 C   0  0  0  0  0  0  0  0  0  0  0  0
   -1.1660   22.0280  -29.6580 C   0  0  0  0  0  0  0  0  0  0  0  0
   -2.7266   20.4184  -27.5158 H   0  0  0  0  0  0  0  0  0  0  0  0
   -3.3424   21.2188  -29.0013 H   0  0  0  0  0  0  0  0  0  0  0  0
   -3.0192   19.4518  -29.0013 H   0  0  0  0  0  0  0  0  0  0  0  0
   -0.5374   18.7257  -29.3080 H   0  0  0  0  0  0  0  0  0  0  0  0
   -1.6574   19.3045  -30.6067 H   0  0  0  0  0  0  0  0  0  0  0  0
    1.1913   20.2994  -30.1120 H   0  0  0  0  0  0  0  0  0  0  0  0
    0.6391   19.1795  -31.4349 H   0  0  0  0  0  0  0  0  0  0  0  0
   -0.6332   17.8121  -33.4115 H   0  0  0  0  0  0  0  0  0  0  0  0
   -2.7225   16.4636  -33.5982 H   0  0  0  0  0  0  0  0  0  0  0  0
   -5.6680   17.5382  -34.8683 H   0  0  0  0  0  0  0  0  0  0  0  0
   -5.0420   16.3266  -33.6832 H   0  0  0  0  0  0  0  0  0  0  0  0
   -6.9183   16.9222  -32.5166 H   0  0  0  0  0  0  0  0  0  0  0  0
   -5.8678   18.2801  -31.9740 H   0  0  0  0  0  0  0  0  0  0  0  0
   -5.3910   20.1769  -32.2000 H   0  0  0  0  0  0  0  0  0  0  0  0
   -4.1134   22.1055  -31.2684 H   0  0  0  0  0  0  0  0  0  0  0  0
   -5.3286   23.6947  -27.3992 H   0  0  0  0  0  0  0  0  0  0  0  0
   -3.7808   22.8404  -26.9531 H   0  0  0  0  0  0  0  0  0  0  0  0
   -4.2769   25.8477  -26.8169 H   0  0  0  0  0  0  0  0  0  0  0  0
   -4.2157   24.6951  -25.4236 H   0  0  0  0  0  0  0  0  0  0  0  0
   -2.0733   26.1320  -26.1682 H   0  0  0  0  0  0  0  0  0  0  0  0
   -1.9470   24.4254  -25.5452 H   0  0  0  0  0  0  0  0  0  0  0  0
   -0.7056   25.2601  -27.8004 H   0  0  0  0  0  0  0  0  0  0  0  0
   -1.3181   23.5768  -27.5549 H   0  0  0  0  0  0  0  0  0  0  0  0
   -2.8457   25.8360  -28.9363 H   0  0  0  0  0  0  0  0  0  0  0  0
   -1.9656   24.4831  -29.7603 H   0  0  0  0  0  0  0  0  0  0  0  0
   -7.8089   23.8844  -29.8822 H   0  0  0  0  0  0  0  0  0  0  0  0
   -9.0860   21.9531  -30.8102 H   0  0  0  0  0  0  0  0  0  0  0  0
   -5.0599   20.1102  -33.7121 H   0  0  0  0  0  0  0  0  0  0  0  0
   -2.9724   21.4539  -33.4818 H   0  0  0  0  0  0  0  0  0  0  0  0
   -1.0237   22.9969  -31.5830 H   0  0  0  0  0  0  0  0  0  0  0  0
   -2.0284   21.4927  -31.5559 H   0  0  0  0  0  0  0  0  0  0  0  0
   -0.2406   22.4918  -29.2857 H   0  0  0  0  0  0  0  0  0  0  0  0
   -2.0513   22.6160  -29.3743 H   0  0  0  0  0  0  0  0  0  0  0  0
  1  2  1  0
  2  3  1  0
  3  4  1  0
  4  5  1  0
  5  6  1  0
  6  7  2  0
  6  8  2  0
  6  9  1  0
  9 10  2  0
 10 11  1  0
 11 12  2  0
 12 13  1  0
 13 14  1  0
 14 15  1  0
 15 16  1  0
 16 17  2  0
 16 18  2  0
 16 19  1  0
 19 20  2  0
 20 21  1  0
 21 22  2  0
 22 23  1  0
 23 24  2  0
 23 25  2  0
 23 26  1  0
 26 27  1  0
 27 28  1  0
 28 29  1  0
 29 30  1  0
 30 31  1  0
 22 32  1  0
 32 33  2  0
 12 34  1  0
 34 35  2  0
  5 36  1  0
 36 37  1  0
 37  2  1  0
 35  9  1  0
 33 19  1  0
 31 26  1  0
  1 38  1  0
  1 39  1  0
  1 40  1  0
  3 41  1  0
  3 42  1  0
  4 43  1  0
  4 44  1  0
 10 45  1  0
 11 46  1  0
 13 47  1  0
 13 48  1  0
 14 49  1  0
 14 50  1  0
 20 51  1  0
 21 52  1  0
 27 53  1  0
 27 54  1  0
 28 55  1  0
 28 56  1  0
 29 57  1  0
 29 58  1  0
 30 59  1  0
 30 60  1  0
 31 61  1  0
 31 62  1  0
 32 63  1  0
 33 64  1  0
 34 65  1  0
 35 66  1  0
 36 67  1  0
 36 68  1  0
 37 69  1  0
 37 70  1  0
M  CHG  1  15  -1
M  END
>  <UniqueID>  (29) 
26

>  <SMILES>  (29) 
CN1CCN(S(=O)(=O)c2ccc(CC[N-]S(=O)(=O)c3ccc(S(=O)(=O)N4CCCCC4)cc3)cc2)CC1

>  <Energy>  (29) 
81.47759184038544

>  <Genealogy>  (29) 
CN1CCN(S(=O)(=O)c2ccc(CC[N-]S(=O)(=O)c3ccc(S(=O)(=O)N4CCCCC4)cc3)cc2)CC1 (protonated)
CN1CCN(S(=O)(=O)c2ccc(CC[N-]S(=O)(=O)c3ccc(S(=O)(=O)N4CCCCC4)cc3)cc2)CC1 (3D coordinates assigned)
CN1CCN(S(=O)(=O)c2ccc(CC[N-]S(=O)(=O)c3ccc(S(=O)(=O)N4CCCCC4)cc3)cc2)CC1 (nonaromatic ring conformer: 81.47759184038544 kcal/mol)

>  <smiles>  (29) 
CN1CCN(S(=O)(=O)c2ccc(CCNS(=O)(=O)c3ccc(S(=O)(=O)N4CCCCC4)cc3)cc2)CC1

>  <score_type>  (29) 
oracle

>  <origin>  (29) 
adgpu

>  <m_score__min__energy>  (29) 
-11.529999999999999

>  <m_primary>  (29) 
energy

$$$$
29:0
     RDKit          3D

 62 66  0  0  0  0  0  0  0  0999 V2000
   -0.4540   19.5410  -28.0200 O   0  0  0  0  0  0  0  0  0  0  0  0
   -0.8150   20.0860  -29.0970 C   0  0  0  0  0  0  0  0  0  0  0  0
   -1.5910   21.3150  -29.2050 C   0  0  0  0  0  0  0  0  0  0  0  0
   -2.1230   22.1450  -28.2170 C   0  0  0  0  0  0  0  0  0  0  0  0
   -2.8090   23.3060  -28.6250 C   0  0  0  0  0  0  0  0  0  0  0  0
   -3.3400   24.1780  -27.6720 O   0  0  0  0  0  0  0  0  0  0  0  0
   -2.9400   23.6090  -30.0030 C   0  0  0  0  0  0  0  0  0  0  0  0
   -3.5580   24.8320  -30.3990 N   0  0  0  0  0  0  0  0  0  0  0  0
   -5.2760   25.0010  -30.2970 S   0  0  0  0  0  0  0  0  0  0  0  0
   -5.6780   25.3530  -28.8900 O   0  0  0  0  0  0  0  0  0  0  0  0
   -5.7230   26.1010  -31.2190 O   0  0  0  0  0  0  0  0  0  0  0  0
   -6.0140   23.4750  -30.7790 C   0  0  0  0  0  0  0  0  0  0  0  0
   -5.5150   22.7810  -31.8880 C   0  0  0  0  0  0  0  0  0  0  0  0
   -6.1570   21.6260  -32.3430 C   0  0  0  0  0  0  0  0  0  0  0  0
   -7.3060   21.1540  -31.6930 C   0  0  0  0  0  0  0  0  0  0  0  0
   -8.1470   19.7240  -32.2970 S   0  0  0  0  0  0  0  0  0  0  0  0
   -8.9490   19.1190  -31.1770 O   0  0  0  0  0  0  0  0  0  0  0  0
   -9.1020   20.1290  -33.3850 O   0  0  0  0  0  0  0  0  0  0  0  0
   -7.0350   18.5290  -32.9170 N   0  0  0  0  0  0  0  0  0  0  0  0
   -6.2390   19.0970  -34.0250 C   0  0  0  0  0  0  0  0  0  0  0  0
   -5.0520   18.1940  -34.4230 C   0  0  0  0  0  0  0  0  0  0  0  0
   -5.2030   16.7780  -33.8570 C   0  0  0  0  0  0  0  0  0  0  0  0
   -5.3630   16.8070  -32.3280 C   0  0  0  0  0  0  0  0  0  0  0  0
   -6.1610   18.0320  -31.8430 C   0  0  0  0  0  0  0  0  0  0  0  0
   -7.7980   21.8410  -30.5750 C   0  0  0  0  0  0  0  0  0  0  0  0
   -7.1580   22.9990  -30.1220 C   0  0  0  0  0  0  0  0  0  0  0  0
   -2.3930   22.7490  -30.9780 C   0  0  0  0  0  0  0  0  0  0  0  0
   -1.7290   21.6050  -30.5450 C   0  0  0  0  0  0  0  0  0  0  0  0
   -1.0500   20.5580  -31.2970 C   0  0  0  0  0  0  0  0  0  0  0  0
   -0.9450   20.5060  -32.5530 O   0  0  0  0  0  0  0  0  0  0  0  0
   -0.4950   19.5920  -30.4020 N   0  0  0  0  0  0  0  0  0  0  0  0
    0.5500   18.6220  -30.7260 C   0  0  0  0  0  0  0  0  0  0  0  0
   -0.0420   17.4440  -31.4550 C   0  0  0  0  0  0  0  0  0  0  0  0
   -1.1270   17.6200  -32.3290 C   0  0  0  0  0  0  0  0  0  0  0  0
   -1.6560   16.5280  -33.0290 C   0  0  0  0  0  0  0  0  0  0  0  0
   -1.0950   15.2550  -32.8720 C   0  0  0  0  0  0  0  0  0  0  0  0
   -0.0050   15.0740  -32.0160 C   0  0  0  0  0  0  0  0  0  0  0  0
    0.5220   16.1640  -31.3100 C   0  0  0  0  0  0  0  0  0  0  0  0
   -2.0100   21.8998  -27.1507 H   0  0  0  0  0  0  0  0  0  0  0  0
   -3.8570   25.0080  -27.9430 H   0  0  0  0  0  0  0  0  0  0  0  0
   -4.6143   23.1462  -32.4031 H   0  0  0  0  0  0  0  0  0  0  0  0
   -5.7593   21.0852  -33.2144 H   0  0  0  0  0  0  0  0  0  0  0  0
   -6.8934   19.2256  -34.8998 H   0  0  0  0  0  0  0  0  0  0  0  0
   -5.8279   20.0583  -33.6829 H   0  0  0  0  0  0  0  0  0  0  0  0
   -5.0005   18.1358  -35.5203 H   0  0  0  0  0  0  0  0  0  0  0  0
   -4.1327   18.6331  -34.0082 H   0  0  0  0  0  0  0  0  0  0  0  0
   -6.0912   16.3060  -34.3022 H   0  0  0  0  0  0  0  0  0  0  0  0
   -4.2966   16.2052  -34.1026 H   0  0  0  0  0  0  0  0  0  0  0  0
   -5.8893   15.8947  -32.0107 H   0  0  0  0  0  0  0  0  0  0  0  0
   -4.3570   16.8667  -31.8871 H   0  0  0  0  0  0  0  0  0  0  0  0
   -6.7765   17.7449  -30.9777 H   0  0  0  0  0  0  0  0  0  0  0  0
   -5.4572   18.8276  -31.5570 H   0  0  0  0  0  0  0  0  0  0  0  0
   -8.6909   21.4680  -30.0518 H   0  0  0  0  0  0  0  0  0  0  0  0
   -7.5529   23.5379  -29.2481 H   0  0  0  0  0  0  0  0  0  0  0  0
   -2.4885   22.9760  -32.0501 H   0  0  0  0  0  0  0  0  0  0  0  0
    1.3061   19.1021  -31.3647 H   0  0  0  0  0  0  0  0  0  0  0  0
    1.0151   18.2703  -29.7933 H   0  0  0  0  0  0  0  0  0  0  0  0
   -1.5637   18.6204  -32.4646 H   0  0  0  0  0  0  0  0  0  0  0  0
   -2.5135   16.6710  -33.7030 H   0  0  0  0  0  0  0  0  0  0  0  0
   -1.5116   14.3981  -33.4217 H   0  0  0  0  0  0  0  0  0  0  0  0
    0.4397   14.0750  -31.8963 H   0  0  0  0  0  0  0  0  0  0  0  0
    1.3812   16.0175  -30.6390 H   0  0  0  0  0  0  0  0  0  0  0  0
  1  2  2  0
  2  3  1  0
  3  4  2  0
  4  5  1  0
  5  6  1  0
  5  7  2  0
  7  8  1  0
  8  9  1  0
  9 10  2  0
  9 11  2  0
  9 12  1  0
 12 13  2  0
 13 14  1  0
 14 15  2  0
 15 16  1  0
 16 17  2  0
 16 18  2  0
 16 19  1  0
 19 20  1  0
 20 21  1  0
 21 22  1  0
 22 23  1  0
 23 24  1  0
 15 25  1  0
 25 26  2  0
  7 27  1  0
 27 28  2  0
 28 29  1  0
 29 30  2  0
 29 31  1  0
 31 32  1  0
 32 33  1  0
 33 34  2  0
 34 35  1  0
 35 36  2  0
 36 37  1  0
 37 38  2  0
 31  2  1  0
 38 33  1  0
 28  3  1  0
 26 12  1  0
 24 19  1  0
  4 39  1  0
  6 40  1  0
 13 41  1  0
 14 42  1  0
 20 43  1  0
 20 44  1  0
 21 45  1  0
 21 46  1  0
 22 47  1  0
 22 48  1  0
 23 49  1  0
 23 50  1  0
 24 51  1  0
 24 52  1  0
 25 53  1  0
 26 54  1  0
 27 55  1  0
 32 56  1  0
 32 57  1  0
 34 58  1  0
 35 59  1  0
 36 60  1  0
 37 61  1  0
 38 62  1  0
M  CHG  1   8  -1
M  END
>  <UniqueID>  (30) 
27

>  <SMILES>  (30) 
O=C1c2cc(O)c([N-]S(=O)(=O)c3ccc(S(=O)(=O)N4CCCCC4)cc3)cc2C(=O)N1Cc1ccccc1

>  <Energy>  (30) 
107.66485734308225

>  <Genealogy>  (30) 
O=C1c2cc(O)c([N-]S(=O)(=O)c3ccc(S(=O)(=O)N4CCCCC4)cc3)cc2C(=O)N1Cc1ccccc1 (protonated)
O=C1c2cc(O)c([N-]S(=O)(=O)c3ccc(S(=O)(=O)N4CCCCC4)cc3)cc2C(=O)N1Cc1ccccc1 (3D coordinates assigned)
O=C1c2cc(O)c([N-]S(=O)(=O)c3ccc(S(=O)(=O)N4CCCCC4)cc3)cc2C(=O)N1Cc1ccccc1 (nonaromatic ring conformer: 107.66485734308225 kcal/mol)

>  <smiles>  (30) 
O=C1c2cc(O)c(NS(=O)(=O)c3ccc(S(=O)(=O)N4CCCCC4)cc3)cc2C(=O)N1Cc1ccccc1

>  <score_type>  (30) 
oracle

>  <origin>  (30) 
adgpu

>  <m_score__min__energy>  (30) 
-12.609999999999999

>  <m_primary>  (30) 
energy

$$$$
30:0
     RDKit          3D

 55 57  0  0  0  0  0  0  0  0999 V2000
   -1.2970   19.0900  -32.1640 C   0  0  0  0  0  0  0  0  0  0  0  0
   -1.7260   20.3860  -31.5300 C   0  0  0  0  0  0  0  0  0  0  0  0
   -1.3030   20.6900  -30.2240 C   0  0  0  0  0  0  0  0  0  0  0  0
   -1.6860   21.8870  -29.6130 C   0  0  0  0  0  0  0  0  0  0  0  0
   -2.4950   22.7980  -30.2970 C   0  0  0  0  0  0  0  0  0  0  0  0
   -2.9440   24.3160  -29.5190 S   0  0  0  0  0  0  0  0  0  0  0  0
   -3.7080   24.0480  -28.2520 O   0  0  0  0  0  0  0  0  0  0  0  0
   -1.6900   25.0640  -29.1670 O   0  0  0  0  0  0  0  0  0  0  0  0
   -3.9120   25.3020  -30.5810 N   0  0  0  0  0  0  0  0  0  0  0  0
   -5.3000   25.3830  -30.1220 C   0  0  0  0  0  0  0  0  0  0  0  0
   -6.1210   24.2390  -30.6570 C   0  0  0  0  0  0  0  0  0  0  0  0
   -6.6740   23.2980  -29.7780 C   0  0  0  0  0  0  0  0  0  0  0  0
   -7.4180   22.2220  -30.2690 C   0  0  0  0  0  0  0  0  0  0  0  0
   -7.6290   22.0680  -31.6530 C   0  0  0  0  0  0  0  0  0  0  0  0
   -8.3940   20.9200  -32.2270 C   0  0  0  0  0  0  0  0  0  0  0  0
   -9.6540   20.9760  -32.1860 O   0  0  0  0  0  0  0  0  0  0  0  0
   -7.7720   19.7510  -32.8260 N   0  0  1  0  0  0  0  0  0  0  0  0
   -6.5030   20.1100  -33.5130 C   0  0  0  0  0  0  0  0  0  0  0  0
   -5.5140   18.9300  -33.6170 C   0  0  0  0  0  0  0  0  0  0  0  0
   -6.2650   17.6010  -33.7950 C   0  0  1  0  0  0  0  0  0  0  0  0
   -5.2820   16.4400  -33.9930 C   0  0  0  0  0  0  0  0  0  0  0  0
   -7.2130   17.3320  -32.5990 C   0  0  0  0  0  0  0  0  0  0  0  0
   -7.6390   18.6240  -31.8740 C   0  0  0  0  0  0  0  0  0  0  0  0
   -7.0570   23.0090  -32.5300 C   0  0  0  0  0  0  0  0  0  0  0  0
   -6.3170   24.0860  -32.0370 C   0  0  0  0  0  0  0  0  0  0  0  0
   -2.9260   22.5060  -31.5960 C   0  0  0  0  0  0  0  0  0  0  0  0
   -2.5520   21.3050  -32.2220 C   0  0  0  0  0  0  0  0  0  0  0  0
   -3.0150   21.0420  -33.5540 N   0  0  0  0  0  0  0  0  0  0  0  0
   -1.0552   18.3596  -31.3778 H   0  0  0  0  0  0  0  0  0  0  0  0
   -2.1138   18.6994  -32.7887 H   0  0  0  0  0  0  0  0  0  0  0  0
   -0.4085   19.2639  -32.7887 H   0  0  0  0  0  0  0  0  0  0  0  0
   -0.6649   19.9793  -29.6784 H   0  0  0  0  0  0  0  0  0  0  0  0
   -1.3495   22.1127  -28.5903 H   0  0  0  0  0  0  0  0  0  0  0  0
   -5.3162   25.3523  -29.0225 H   0  0  0  0  0  0  0  0  0  0  0  0
   -5.7335   26.3241  -30.4914 H   0  0  0  0  0  0  0  0  0  0  0  0
   -6.5213   23.4072  -28.6941 H   0  0  0  0  0  0  0  0  0  0  0  0
   -7.8429   21.4884  -29.5681 H   0  0  0  0  0  0  0  0  0  0  0  0
   -8.4380   19.4190  -33.5670 H   0  0  0  0  0  0  0  0  0  0  0  0
   -6.0194   20.9232  -32.9519 H   0  0  0  0  0  0  0  0  0  0  0  0
   -6.7605   20.4125  -34.5388 H   0  0  0  0  0  0  0  0  0  0  0  0
   -4.9111   18.8830  -32.6982 H   0  0  0  0  0  0  0  0  0  0  0  0
   -4.8671   19.0889  -34.4924 H   0  0  0  0  0  0  0  0  0  0  0  0
   -6.8835   17.6794  -34.7013 H   0  0  0  0  0  0  0  0  0  0  0  0
   -4.9606   16.0604  -33.0119 H   0  0  0  0  0  0  0  0  0  0  0  0
   -5.7757   15.6332  -34.5545 H   0  0  0  0  0  0  0  0  0  0  0  0
   -4.4048   16.7939  -34.5545 H   0  0  0  0  0  0  0  0  0  0  0  0
   -6.6959   16.6795  -31.8801 H   0  0  0  0  0  0  0  0  0  0  0  0
   -8.1231   16.8592  -32.9967 H   0  0  0  0  0  0  0  0  0  0  0  0
   -6.8806   18.8790  -31.1191 H   0  0  0  0  0  0  0  0  0  0  0  0
   -8.6157   18.4517  -31.3982 H   0  0  0  0  0  0  0  0  0  0  0  0
   -7.1944   22.8948  -33.6154 H   0  0  0  0  0  0  0  0  0  0  0  0
   -5.8855   24.8183  -32.7352 H   0  0  0  0  0  0  0  0  0  0  0  0
   -3.5640   23.2239  -32.1323 H   0  0  0  0  0  0  0  0  0  0  0  0
   -3.5620   20.1860  -33.7940 H   0  0  0  0  0  0  0  0  0  0  0  0
   -2.8050   21.7090  -34.3330 H   0  0  0  0  0  0  0  0  0  0  0  0
  1  2  1  0
  2  3  2  0
  3  4  1  0
  4  5  2  0
  5  6  1  0
  6  7  2  0
  6  8  2  0
  6  9  1  0
  9 10  1  0
 10 11  1  0
 11 12  2  0
 12 13  1  0
 13 14  2  0
 14 15  1  0
 15 16  2  0
 15 17  1  0
 17 18  1  0
 18 19  1  0
 19 20  1  0
 20 21  1  0
 20 22  1  0
 22 23  1  0
 14 24  1  0
 24 25  2  0
  5 26  1  0
 26 27  2  0
 27 28  1  0
 27  2  1  0
 25 11  1  0
 23 17  1  0
  1 29  1  0
  1 30  1  0
  1 31  1  0
  3 32  1  0
  4 33  1  0
 10 34  1  0
 10 35  1  0
 12 36  1  0
 13 37  1  0
 17 38  1  6
 18 39  1  0
 18 40  1  0
 19 41  1  0
 19 42  1  0
 20 43  1  6
 21 44  1  0
 21 45  1  0
 21 46  1  0
 22 47  1  0
 22 48  1  0
 23 49  1  0
 23 50  1  0
 24 51  1  0
 25 52  1  0
 26 53  1  0
 28 54  1  0
 28 55  1  0
M  CHG  2   9  -1  17   1
M  END
>  <UniqueID>  (31) 
28

>  <SMILES>  (31) 
Cc1ccc(S(=O)(=O)[N-]Cc2ccc(C(=O)[NH+]3CCC(C)CC3)cc2)cc1N

>  <Energy>  (31) 
66.6937995888158

>  <Genealogy>  (31) 
Cc1ccc(S(=O)(=O)[N-]Cc2ccc(C(=O)[NH+]3CCC(C)CC3)cc2)cc1N (protonated)
Cc1ccc(S(=O)(=O)[N-]Cc2ccc(C(=O)[NH+]3CCC(C)CC3)cc2)cc1N (3D coordinates assigned)
Cc1ccc(S(=O)(=O)[N-]Cc2ccc(C(=O)[NH+]3CCC(C)CC3)cc2)cc1N (nonaromatic ring conformer: 66.6937995888158 kcal/mol)

>  <smiles>  (31) 
Cc1ccc(S(=O)(=O)NCc2ccc(C(=O)N3CCC(C)CC3)cc2)cc1N

>  <score_type>  (31) 
oracle

>  <origin>  (31) 
adgpu

>  <m_score__min__energy>  (31) 
-11.68

>  <m_primary>  (31) 
energy

$$$$
31:0
     RDKit          3D

 43 46  0  0  0  0  0  0  0  0999 V2000
    0.1960   26.7940  -27.5400 O   0  0  0  0  0  0  0  0  0  0  0  0
   -0.4450   25.8650  -28.0990 C   0  0  0  0  0  0  0  0  0  0  0  0
    0.0810   24.6280  -28.2840 N   0  0  0  0  0  0  0  0  0  0  0  0
   -0.9220   23.9870  -28.9020 C   0  0  0  0  0  0  0  0  0  0  0  0
   -0.9460   22.6680  -29.3400 C   0  0  0  0  0  0  0  0  0  0  0  0
   -2.1160   22.2090  -29.9750 C   0  0  0  0  0  0  0  0  0  0  0  0
   -3.2290   23.0750  -30.1550 C   0  0  0  0  0  0  0  0  0  0  0  0
   -4.4380   22.6360  -30.7900 N   0  0  0  0  0  0  0  0  0  0  0  0
   -5.9090   23.5500  -30.8750 S   0  0  0  0  0  0  0  0  0  0  0  0
   -5.7690   24.6140  -31.9260 O   0  0  0  0  0  0  0  0  0  0  0  0
   -6.1650   24.2130  -29.5510 O   0  0  0  0  0  0  0  0  0  0  0  0
   -7.2370   22.4810  -31.3200 C   0  0  0  0  0  0  0  0  0  0  0  0
   -8.4620   23.0290  -31.7230 C   0  0  0  0  0  0  0  0  0  0  0  0
   -9.5030   22.1920  -32.1360 C   0  0  0  0  0  0  0  0  0  0  0  0
   -9.3220   20.8070  -32.1580 C   0  0  0  0  0  0  0  0  0  0  0  0
   -8.1010   20.2500  -31.7540 C   0  0  0  0  0  0  0  0  0  0  0  0
   -7.8380   18.5140  -31.8760 S   0  0  0  0  0  0  0  0  0  0  0  0
   -9.1360   17.7940  -31.6320 O   0  0  0  0  0  0  0  0  0  0  0  0
   -6.8450   18.0770  -30.8330 O   0  0  0  0  0  0  0  0  0  0  0  0
   -7.2520   18.1340  -33.4750 N   0  0  0  0  0  0  0  0  0  0  0  0
   -6.1580   19.0250  -33.8600 C   0  0  0  0  0  0  0  0  0  0  0  0
   -5.2830   18.2430  -34.8170 C   0  0  0  0  0  0  0  0  0  0  0  0
   -5.4450   16.8010  -34.3810 C   0  0  0  0  0  0  0  0  0  0  0  0
   -6.7240   16.7670  -33.5480 C   0  0  0  0  0  0  0  0  0  0  0  0
   -7.0630   21.0910  -31.3260 C   0  0  0  0  0  0  0  0  0  0  0  0
   -3.1610   24.4040  -29.6860 C   0  0  0  0  0  0  0  0  0  0  0  0
   -1.9870   24.8210  -29.0660 C   0  0  0  0  0  0  0  0  0  0  0  0
   -1.7110   26.0320  -28.5610 N   0  0  0  0  0  0  0  0  0  0  0  0
   -0.0802   22.0051  -29.1954 H   0  0  0  0  0  0  0  0  0  0  0  0
   -2.1693   21.1710  -30.3350 H   0  0  0  0  0  0  0  0  0  0  0  0
   -8.6049   24.1196  -31.7144 H   0  0  0  0  0  0  0  0  0  0  0  0
  -10.4662   22.6248  -32.4441 H   0  0  0  0  0  0  0  0  0  0  0  0
  -10.1397   20.1520  -32.4932 H   0  0  0  0  0  0  0  0  0  0  0  0
   -6.5557   19.9227  -34.3559 H   0  0  0  0  0  0  0  0  0  0  0  0
   -5.5873   19.3572  -32.9803 H   0  0  0  0  0  0  0  0  0  0  0  0
   -5.6238   18.3769  -35.8543 H   0  0  0  0  0  0  0  0  0  0  0  0
   -4.2342   18.5737  -34.7925 H   0  0  0  0  0  0  0  0  0  0  0  0
   -5.5395   16.1429  -35.2573 H   0  0  0  0  0  0  0  0  0  0  0  0
   -4.5753   16.4484  -33.8072 H   0  0  0  0  0  0  0  0  0  0  0  0
   -7.4629   16.1061  -34.0247 H   0  0  0  0  0  0  0  0  0  0  0  0
   -6.5135   16.3835  -32.5387 H   0  0  0  0  0  0  0  0  0  0  0  0
   -6.1084   20.6571  -30.9937 H   0  0  0  0  0  0  0  0  0  0  0  0
   -4.0117   25.0908  -29.8070 H   0  0  0  0  0  0  0  0  0  0  0  0
  1  2  2  0
  2  3  1  0
  3  4  1  0
  4  5  2  0
  5  6  1  0
  6  7  2  0
  7  8  1  0
  8  9  1  0
  9 10  2  0
  9 11  2  0
  9 12  1  0
 12 13  2  0
 13 14  1  0
 14 15  2  0
 15 16  1  0
 16 17  1  0
 17 18  2  0
 17 19  2  0
 17 20  1  0
 20 21  1  0
 21 22  1  0
 22 23  1  0
 23 24  1  0
 16 25  2  0
  7 26  1  0
 26 27  2  0
 27 28  1  0
 28  2  1  0
 27  4  1  0
 25 12  1  0
 24 20  1  0
  5 29  1  0
  6 30  1  0
 13 31  1  0
 14 32  1  0
 15 33  1  0
 21 34  1  0
 21 35  1  0
 22 36  1  0
 22 37  1  0
 23 38  1  0
 23 39  1  0
 24 40  1  0
 24 41  1  0
 25 42  1  0
 26 43  1  0
M  CHG  3   3  -1   8  -1  28  -1
M  END
>  <UniqueID>  (32) 
29

>  <SMILES>  (32) 
O=c1[n-]c2ccc([N-]S(=O)(=O)c3cccc(S(=O)(=O)N4CCCC4)c3)cc2[n-]1

>  <Energy>  (32) 
83.89224778720249

>  <Genealogy>  (32) 
O=c1[n-]c2ccc([N-]S(=O)(=O)c3cccc(S(=O)(=O)N4CCCC4)c3)cc2[n-]1 (protonated)
O=c1[n-]c2ccc([N-]S(=O)(=O)c3cccc(S(=O)(=O)N4CCCC4)c3)cc2[n-]1 (3D coordinates assigned)
O=c1[n-]c2ccc([N-]S(=O)(=O)c3cccc(S(=O)(=O)N4CCCC4)c3)cc2[n-]1 (nonaromatic ring conformer: 83.89224778720249 kcal/mol)

>  <smiles>  (32) 
O=c1[nH]c2ccc(NS(=O)(=O)c3cccc(S(=O)(=O)N4CCCC4)c3)cc2[nH]1

>  <score_type>  (32) 
oracle

>  <origin>  (32) 
adgpu

>  <m_score__min__energy>  (32) 
-12.699999999999999

>  <m_primary>  (32) 
energy

$$$$
32:0
     RDKit          3D

 52 55  0  0  0  0  0  0  0  0999 V2000
   -3.9880   14.3280  -33.3290 C   0  0  0  0  0  0  0  0  0  0  0  0
   -4.5240   15.6650  -33.6340 N   0  0  0  0  0  0  0  0  0  0  0  0
   -3.4390   16.6650  -33.6020 C   0  0  0  0  0  0  0  0  0  0  0  0
   -3.9560   17.9950  -34.1630 C   0  0  0  0  0  0  0  0  0  0  0  0
   -5.2580   18.3920  -33.5180 C   0  0  0  0  0  0  0  0  0  0  0  0
   -5.7070   19.7150  -33.6290 C   0  0  0  0  0  0  0  0  0  0  0  0
   -6.9150   20.1120  -33.0400 C   0  0  0  0  0  0  0  0  0  0  0  0
   -7.3180   21.4860  -33.0670 N   0  0  0  0  0  0  0  0  0  0  0  0
   -7.6020   22.4110  -31.6250 S   0  0  0  0  0  0  0  0  0  0  0  0
   -8.0360   21.4830  -30.5220 O   0  0  0  0  0  0  0  0  0  0  0  0
   -8.7040   23.4040  -31.8850 O   0  0  0  0  0  0  0  0  0  0  0  0
   -6.1440   23.2650  -31.1100 C   0  0  0  0  0  0  0  0  0  0  0  0
   -6.2030   24.6330  -30.8170 C   0  0  0  0  0  0  0  0  0  0  0  0
   -5.0650   25.3030  -30.3620 C   0  0  0  0  0  0  0  0  0  0  0  0
   -3.8620   24.6100  -30.1890 C   0  0  0  0  0  0  0  0  0  0  0  0
   -2.7450   25.2930  -29.7200 O   0  0  0  0  0  0  0  0  0  0  0  0
   -3.7890   23.2350  -30.4840 C   0  0  0  0  0  0  0  0  0  0  0  0
   -2.2770   22.3600  -30.2320 S   0  0  0  0  0  0  0  0  0  0  0  0
   -2.4960   21.2900  -29.1990 O   0  0  0  0  0  0  0  0  0  0  0  0
   -1.2290   23.3130  -29.7240 O   0  0  0  0  0  0  0  0  0  0  0  0
   -1.6890   21.6130  -31.7170 C   0  0  0  0  0  0  0  0  0  0  0  0
   -2.5950   21.1350  -32.6760 C   0  0  0  0  0  0  0  0  0  0  0  0
   -2.1230   20.5640  -33.8630 C   0  0  0  0  0  0  0  0  0  0  0  0
   -0.7470   20.4670  -34.0960 C   0  0  0  0  0  0  0  0  0  0  0  0
    0.1610   20.9290  -33.1360 C   0  0  0  0  0  0  0  0  0  0  0  0
   -0.3090   21.4960  -31.9470 C   0  0  0  0  0  0  0  0  0  0  0  0
   -4.9360   22.5680  -30.9450 C   0  0  0  0  0  0  0  0  0  0  0  0
   -7.7280   19.1550  -32.4060 C   0  0  0  0  0  0  0  0  0  0  0  0
   -8.9520   19.5070  -31.8360 O   0  0  0  0  0  0  0  0  0  0  0  0
   -7.2990   17.8280  -32.3190 C   0  0  0  0  0  0  0  0  0  0  0  0
   -6.0700   17.4360  -32.8680 C   0  0  0  0  0  0  0  0  0  0  0  0
   -5.5770   16.0230  -32.6630 C   0  0  0  0  0  0  0  0  0  0  0  0
   -3.9345   14.1945  -32.2384 H   0  0  0  0  0  0  0  0  0  0  0  0
   -4.6482   13.5611  -33.7603 H   0  0  0  0  0  0  0  0  0  0  0  0
   -2.9809   14.2295  -33.7603 H   0  0  0  0  0  0  0  0  0  0  0  0
   -3.1038   16.8098  -32.5644 H   0  0  0  0  0  0  0  0  0  0  0  0
   -2.5952   16.3116  -34.2129 H   0  0  0  0  0  0  0  0  0  0  0  0
   -3.2082   18.7790  -33.9728 H   0  0  0  0  0  0  0  0  0  0  0  0
   -4.1264   17.8735  -35.2429 H   0  0  0  0  0  0  0  0  0  0  0  0
   -5.1049   20.4494  -34.1842 H   0  0  0  0  0  0  0  0  0  0  0  0
   -7.1479   25.1814  -30.9455 H   0  0  0  0  0  0  0  0  0  0  0  0
   -5.1148   26.3790  -30.1390 H   0  0  0  0  0  0  0  0  0  0  0  0
   -3.6774   21.2093  -32.4944 H   0  0  0  0  0  0  0  0  0  0  0  0
   -2.8349   20.1909  -34.6140 H   0  0  0  0  0  0  0  0  0  0  0  0
   -0.3782   20.0273  -35.0344 H   0  0  0  0  0  0  0  0  0  0  0  0
    1.2429   20.8462  -33.3166 H   0  0  0  0  0  0  0  0  0  0  0  0
    0.4050   21.8515  -31.1895 H   0  0  0  0  0  0  0  0  0  0  0  0
   -4.8878   21.4940  -31.1780 H   0  0  0  0  0  0  0  0  0  0  0  0
   -9.2270   20.4710  -31.6990 H   0  0  0  0  0  0  0  0  0  0  0  0
   -7.9321   17.0832  -31.8145 H   0  0  0  0  0  0  0  0  0  0  0  0
   -5.1693   15.9320  -31.6454 H   0  0  0  0  0  0  0  0  0  0  0  0
   -6.4259   15.3392  -32.8106 H   0  0  0  0  0  0  0  0  0  0  0  0
  1  2  1  0
  2  3  1  0
  3  4  1  0
  4  5  1  0
  5  6  2  0
  6  7  1  0
  7  8  1  0
  8  9  1  0
  9 10  2  0
  9 11  2  0
  9 12  1  0
 12 13  2  0
 13 14  1  0
 14 15  2  0
 15 16  1  0
 15 17  1  0
 17 18  1  0
 18 19  2  0
 18 20  2  0
 18 21  1  0
 21 22  2  0
 22 23  1  0
 23 24  2  0
 24 25  1  0
 25 26  2  0
 17 27  2  0
  7 28  2  0
 28 29  1  0
 28 30  1  0
 30 31  2  0
 31 32  1  0
 32  2  1  0
 31  5  1  0
 27 12  1  0
 26 21  1  0
  1 33  1  0
  1 34  1  0
  1 35  1  0
  3 36  1  0
  3 37  1  0
  4 38  1  0
  4 39  1  0
  6 40  1  0
 13 41  1  0
 14 42  1  0
 22 43  1  0
 23 44  1  0
 24 45  1  0
 25 46  1  0
 26 47  1  0
 27 48  1  0
 29 49  1  0
 30 50  1  0
 32 51  1  0
 32 52  1  0
M  CHG  2   8  -1  16  -1
M  END
>  <UniqueID>  (33) 
30

>  <SMILES>  (33) 
CN1CCc2cc([N-]S(=O)(=O)c3ccc([O-])c(S(=O)(=O)c4ccccc4)c3)c(O)cc2C1

>  <Energy>  (33) 
68.2400906443052

>  <Genealogy>  (33) 
CN1CCc2cc([N-]S(=O)(=O)c3ccc([O-])c(S(=O)(=O)c4ccccc4)c3)c(O)cc2C1 (protonated)
CN1CCc2cc([N-]S(=O)(=O)c3ccc([O-])c(S(=O)(=O)c4ccccc4)c3)c(O)cc2C1 (3D coordinates assigned)
CN1CCc2cc([N-]S(=O)(=O)c3ccc([O-])c(S(=O)(=O)c4ccccc4)c3)c(O)cc2C1 (nonaromatic ring conformer: 68.2400906443052 kcal/mol)

>  <smiles>  (33) 
CN1CCc2cc(NS(=O)(=O)c3ccc(O)c(S(=O)(=O)c4ccccc4)c3)c(O)cc2C1

>  <score_type>  (33) 
oracle

>  <origin>  (33) 
adgpu

>  <m_score__min__energy>  (33) 
-12.449999999999999

>  <m_primary>  (33) 
energy

$$$$
33:0
     RDKit          3D

 57 60  0  0  0  0  0  0  0  0999 V2000
   -5.7550   26.1470  -30.3220 O   0  0  0  0  0  0  0  0  0  0  0  0
   -5.0570   25.1210  -30.5330 C   0  0  0  0  0  0  0  0  0  0  0  0
   -3.6320   25.2150  -30.3910 N   0  0  0  0  0  0  0  0  0  0  0  0
   -2.8590   24.4990  -29.4180 C   0  0  0  0  0  0  0  0  0  0  0  0
   -1.5500   24.0710  -29.6960 C   0  0  0  0  0  0  0  0  0  0  0  0
   -0.8520   23.2960  -28.7690 C   0  0  0  0  0  0  0  0  0  0  0  0
   -1.4520   22.9400  -27.5540 C   0  0  0  0  0  0  0  0  0  0  0  0
   -0.6220   21.8460  -26.4490 S   0  0  0  0  0  0  0  0  0  0  0  0
    0.8580   21.9320  -26.7020 O   0  0  0  0  0  0  0  0  0  0  0  0
   -0.8730   22.2860  -25.0340 O   0  0  0  0  0  0  0  0  0  0  0  0
   -1.1450   20.1850  -26.6430 N   0  0  0  0  0  0  0  0  0  0  0  0
   -2.5570   20.0790  -27.0570 C   0  0  0  0  0  0  0  0  0  0  0  0
   -2.7580   20.2510  -28.5810 C   0  0  0  0  0  0  0  0  0  0  0  0
   -1.5450   20.2730  -29.3070 O   0  0  0  0  0  0  0  0  0  0  0  0
   -0.7390   19.1860  -28.9170 C   0  0  0  0  0  0  0  0  0  0  0  0
   -0.2250   19.3850  -27.4810 C   0  0  0  0  0  0  0  0  0  0  0  0
   -2.7320   23.4230  -27.2480 C   0  0  0  0  0  0  0  0  0  0  0  0
   -3.4280   24.2070  -28.1730 C   0  0  0  0  0  0  0  0  0  0  0  0
   -5.7220   23.8450  -30.8860 C   0  0  0  0  0  0  0  0  0  0  0  0
   -5.2880   23.0890  -31.9890 C   0  0  0  0  0  0  0  0  0  0  0  0
   -5.9480   21.9110  -32.3440 C   0  0  0  0  0  0  0  0  0  0  0  0
   -7.0400   21.4590  -31.5930 C   0  0  0  0  0  0  0  0  0  0  0  0
   -7.8780   19.9760  -32.0480 S   0  0  0  0  0  0  0  0  0  0  0  0
   -9.0660   19.7970  -31.1460 O   0  0  0  0  0  0  0  0  0  0  0  0
   -8.3900   20.1130  -33.4570 O   0  0  0  0  0  0  0  0  0  0  0  0
   -6.8530   18.5600  -31.9380 N   0  0  0  0  0  0  0  0  0  0  0  0
   -6.9770   17.6780  -33.1140 C   0  0  0  0  0  0  0  0  0  0  0  0
   -6.1120   18.1370  -34.3110 C   0  0  0  0  0  0  0  0  0  0  0  0
   -5.2150   19.1820  -33.9860 O   0  0  0  0  0  0  0  0  0  0  0  0
   -4.5130   18.8560  -32.8100 C   0  0  0  0  0  0  0  0  0  0  0  0
   -5.4530   18.8930  -31.5950 C   0  0  0  0  0  0  0  0  0  0  0  0
   -7.4620   22.1960  -30.4780 C   0  0  0  0  0  0  0  0  0  0  0  0
   -6.8030   23.3770  -30.1220 C   0  0  0  0  0  0  0  0  0  0  0  0
   -1.0736   24.3479  -30.6480 H   0  0  0  0  0  0  0  0  0  0  0  0
    0.1724   22.9636  -28.9928 H   0  0  0  0  0  0  0  0  0  0  0  0
   -2.9341   19.0881  -26.7640 H   0  0  0  0  0  0  0  0  0  0  0  0
   -3.1060   20.8926  -26.5603 H   0  0  0  0  0  0  0  0  0  0  0  0
   -3.3698   19.4141  -28.9489 H   0  0  0  0  0  0  0  0  0  0  0  0
   -3.2482   21.2233  -28.7369 H   0  0  0  0  0  0  0  0  0  0  0  0
   -1.3316   18.2605  -28.9645 H   0  0  0  0  0  0  0  0  0  0  0  0
    0.1227   19.1196  -29.5975 H   0  0  0  0  0  0  0  0  0  0  0  0
   -0.0960   18.3970  -27.0149 H   0  0  0  0  0  0  0  0  0  0  0  0
    0.7248   19.9362  -27.5451 H   0  0  0  0  0  0  0  0  0  0  0  0
   -3.1903   23.1844  -26.2769 H   0  0  0  0  0  0  0  0  0  0  0  0
   -4.4259   24.5956  -27.9215 H   0  0  0  0  0  0  0  0  0  0  0  0
   -4.4221   23.4281  -32.5766 H   0  0  0  0  0  0  0  0  0  0  0  0
   -5.6086   21.3353  -33.2177 H   0  0  0  0  0  0  0  0  0  0  0  0
   -6.6648   16.6636  -32.8252 H   0  0  0  0  0  0  0  0  0  0  0  0
   -8.0278   17.7092  -33.4378 H   0  0  0  0  0  0  0  0  0  0  0  0
   -5.5293   17.2762  -34.6710 H   0  0  0  0  0  0  0  0  0  0  0  0
   -6.7980   18.5239  -35.0789 H   0  0  0  0  0  0  0  0  0  0  0  0
   -4.0894   17.8457  -32.9094 H   0  0  0  0  0  0  0  0  0  0  0  0
   -3.7086   19.5912  -32.6602 H   0  0  0  0  0  0  0  0  0  0  0  0
   -5.0924   18.1680  -30.8504 H   0  0  0  0  0  0  0  0  0  0  0  0
   -5.4453   19.9210  -31.2037 H   0  0  0  0  0  0  0  0  0  0  0  0
   -8.3155   21.8438  -29.8801 H   0  0  0  0  0  0  0  0  0  0  0  0
   -7.1335   23.9425  -29.2383 H   0  0  0  0  0  0  0  0  0  0  0  0
  1  2  2  0
  2  3  1  0
  3  4  1  0
  4  5  2  0
  5  6  1  0
  6  7  2  0
  7  8  1  0
  8  9  2  0
  8 10  2  0
  8 11  1  0
 11 12  1  0
 12 13  1  0
 13 14  1  0
 14 15  1  0
 15 16  1  0
  7 17  1  0
 17 18  2  0
  2 19  1  0
 19 20  2  0
 20 21  1  0
 21 22  2  0
 22 23  1  0
 23 24  2  0
 23 25  2  0
 23 26  1  0
 26 27  1  0
 27 28  1  0
 28 29  1  0
 29 30  1  0
 30 31  1  0
 22 32  1  0
 32 33  2  0
 18  4  1  0
 33 19  1  0
 16 11  1  0
 31 26  1  0
  5 34  1  0
  6 35  1  0
 12 36  1  0
 12 37  1  0
 13 38  1  0
 13 39  1  0
 15 40  1  0
 15 41  1  0
 16 42  1  0
 16 43  1  0
 17 44  1  0
 18 45  1  0
 20 46  1  0
 21 47  1  0
 27 48  1  0
 27 49  1  0
 28 50  1  0
 28 51  1  0
 30 52  1  0
 30 53  1  0
 31 54  1  0
 31 55  1  0
 32 56  1  0
 33 57  1  0
M  CHG  1   3  -1
M  END
>  <UniqueID>  (34) 
31

>  <SMILES>  (34) 
O=C([N-]c1ccc(S(=O)(=O)N2CCOCC2)cc1)c1ccc(S(=O)(=O)N2CCOCC2)cc1

>  <Energy>  (34) 
85.45562736248698

>  <Genealogy>  (34) 
O=C([N-]c1ccc(S(=O)(=O)N2CCOCC2)cc1)c1ccc(S(=O)(=O)N2CCOCC2)cc1 (protonated)
O=C([N-]c1ccc(S(=O)(=O)N2CCOCC2)cc1)c1ccc(S(=O)(=O)N2CCOCC2)cc1 (3D coordinates assigned)
O=C([N-]c1ccc(S(=O)(=O)N2CCOCC2)cc1)c1ccc(S(=O)(=O)N2CCOCC2)cc1 (nonaromatic ring conformer: 85.45562736248698 kcal/mol)

>  <smiles>  (34) 
O=C(Nc1ccc(S(=O)(=O)N2CCOCC2)cc1)c1ccc(S(=O)(=O)N2CCOCC2)cc1

>  <score_type>  (34) 
oracle

>  <origin>  (34) 
adgpu

>  <m_score__min__energy>  (34) 
-12.09

>  <m_primary>  (34) 
energy

$$$$
34:0
     RDKit          3D

 39 41  0  0  0  0  0  0  0  0999 V2000
    0.0790   22.7730  -22.6210 H   0  0  0  0  0  0  0  0  0  0  0  0
   -0.5300   22.4250  -23.3240 O   0  0  0  0  0  0  0  0  0  0  0  0
    0.0020   22.8280  -24.5580 C   0  0  0  0  0  0  0  0  0  0  0  0
   -0.2973   22.1069  -25.3329 H   0  0  0  0  0  0  0  0  0  0  0  0
    1.0982   22.8662  -24.4747 H   0  0  0  0  0  0  0  0  0  0  0  0
   -0.5110   24.2190  -24.9410 C   0  0  0  0  0  0  0  0  0  0  0  0
    0.3282   24.9296  -24.9137 H   0  0  0  0  0  0  0  0  0  0  0  0
   -1.2925   24.5087  -24.2231 H   0  0  0  0  0  0  0  0  0  0  0  0
   -1.1120   24.2240  -26.3220 C   0  0  0  0  0  0  0  0  0  0  0  0
   -1.9100   23.1530  -26.7530 C   0  0  0  0  0  0  0  0  0  0  0  0
   -2.0767   22.2924  -26.0885 H   0  0  0  0  0  0  0  0  0  0  0  0
   -2.4940   23.1750  -28.0230 C   0  0  0  0  0  0  0  0  0  0  0  0
   -3.1039   22.3233  -28.3586 H   0  0  0  0  0  0  0  0  0  0  0  0
   -2.3080   24.2730  -28.8700 C   0  0  0  0  0  0  0  0  0  0  0  0
   -2.9140   24.2560  -30.1350 O   0  0  0  0  0  0  0  0  0  0  0  0
   -4.1990   23.7650  -30.4050 C   0  0  0  0  0  0  0  0  0  0  0  0
   -5.3520   24.3550  -29.8640 C   0  0  0  0  0  0  0  0  0  0  0  0
   -5.2698   25.2389  -29.2144 H   0  0  0  0  0  0  0  0  0  0  0  0
   -6.6040   23.8110  -30.1570 C   0  0  0  0  0  0  0  0  0  0  0  0
   -7.5136   24.2720  -29.7445 H   0  0  0  0  0  0  0  0  0  0  0  0
   -6.7000   22.7130  -30.9510 N   0  0  0  0  0  0  0  0  0  0  0  0
   -5.6000   22.1070  -31.4810 C   0  0  0  0  0  0  0  0  0  0  0  0
   -5.7060   21.0510  -32.2350 N   0  0  0  0  0  0  0  0  0  0  0  0
   -6.9180   20.3840  -32.6230 C   0  0  0  0  0  0  0  0  0  0  0  0
   -7.3240   20.4040  -33.8180 O   0  0  0  0  0  0  0  0  0  0  0  0
   -7.6830   19.6040  -31.6010 C   0  0  0  0  0  0  0  0  0  0  0  0
   -7.7465   20.4120  -30.8573 H   0  0  0  0  0  0  0  0  0  0  0  0
   -8.6570   18.5870  -32.1780 C   0  0  0  0  0  0  0  0  0  0  0  0
   -9.6112   18.3888  -31.6679 H   0  0  0  0  0  0  0  0  0  0  0  0
   -9.1484   18.4471  -33.1522 H   0  0  0  0  0  0  0  0  0  0  0  0
   -7.3530   18.1190  -31.5570 C   0  0  0  0  0  0  0  0  0  0  0  0
   -7.3628   17.5818  -30.5971 H   0  0  0  0  0  0  0  0  0  0  0  0
   -6.5090   17.4999  -31.8952 H   0  0  0  0  0  0  0  0  0  0  0  0
   -4.3290   22.6260  -31.2070 C   0  0  0  0  0  0  0  0  0  0  0  0
   -3.4340   22.1391  -31.6216 H   0  0  0  0  0  0  0  0  0  0  0  0
   -1.4910   25.3400  -28.4500 C   0  0  0  0  0  0  0  0  0  0  0  0
   -1.2300   26.4110  -29.2980 O   0  0  0  0  0  0  0  0  0  0  0  0
   -0.9110   25.3190  -27.1770 C   0  0  0  0  0  0  0  0  0  0  0  0
   -0.2934   26.1661  -26.8439 H   0  0  0  0  0  0  0  0  0  0  0  0
  1  2  1  0
  2  3  1  0
  3  4  1  0
  3  5  1  0
  3  6  1  0
  6  7  1  0
  6  8  1  0
  6  9  1  0
  9 10  2  0
 10 11  1  0
 10 12  1  0
 12 13  1  0
 12 14  2  0
 14 15  1  0
 15 16  1  0
 16 17  1  0
 17 18  1  0
 17 19  2  0
 19 20  1  0
 19 21  1  0
 21 22  1  0
 22 23  2  0
 23 24  1  0
 24 25  2  0
 24 26  1  0
 26 27  1  0
 26 28  1  0
 28 29  1  0
 28 30  1  0
 28 31  1  0
 31 32  1  0
 31 33  1  0
 22 34  1  0
 34 35  1  0
 14 36  1  0
 36 37  1  0
 36 38  2  0
 38 39  1  0
 38  9  1  0
 34 16  2  0
 31 26  1  0
M  CHG  2  21  -1  37  -1
M  END
>  <UniqueID>  (35) 
32

>  <SMILES>  (35) 
O=C(/N=c1/cc(Oc2ccc(CCO)cc2[O-])cc[n-]1)C1CC1

>  <Energy>  (35) 
311.54194868055004

>  <Genealogy>  (35) 
O=C(N=c1cc(Oc2ccc(CCO)cc2[O-])cc[n-]1)C1CC1 (protonated)
O=C(/N=c1/cc(Oc2ccc(CCO)cc2[O-])cc[n-]1)C1CC1 (cis-trans isomerization)
O=C(/N=c1/cc(Oc2ccc(CCO)cc2[O-])cc[n-]1)C1CC1 (3D coordinates assigned)
O=C(/N=c1/cc(Oc2ccc(CCO)cc2[O-])cc[n-]1)C1CC1 (nonaromatic ring conformer: 311.54194868055004 kcal/mol)

>  <smiles>  (35) 
O=C(N=c1cc(Oc2ccc(CCO)cc2O)cc[nH]1)C1CC1

>  <score_type>  (35) 
oracle

>  <origin>  (35) 
adgpu

>  <m_score__min__energy>  (35) 
-11.81

>  <m_primary>  (35) 
energy

$$$$
35:0
     RDKit          3D

 52 55  0  0  0  0  0  0  0  0999 V2000
   -4.3670   24.9250  -31.2020 O   0  0  0  0  0  0  0  0  0  0  0  0
   -5.4850   24.4850  -30.2980 S   0  0  0  0  0  0  0  0  0  0  0  0
   -6.4160   25.6480  -30.0980 O   0  0  0  0  0  0  0  0  0  0  0  0
   -4.8250   24.0230  -28.7620 N   0  0  0  0  0  0  0  0  0  0  0  0
   -3.5630   23.3640  -28.6200 C   0  0  0  0  0  0  0  0  0  0  0  0
   -3.4760   22.0930  -28.0320 C   0  0  0  0  0  0  0  0  0  0  0  0
   -2.2360   21.4510  -27.9180 C   0  0  0  0  0  0  0  0  0  0  0  0
   -1.0700   22.0990  -28.3540 C   0  0  0  0  0  0  0  0  0  0  0  0
   -1.1490   23.3910  -28.8920 C   0  0  0  0  0  0  0  0  0  0  0  0
   -2.3920   24.0210  -29.0260 C   0  0  0  0  0  0  0  0  0  0  0  0
   -2.4580   25.2980  -29.5700 O   0  0  0  0  0  0  0  0  0  0  0  0
    0.2480   21.4000  -28.1740 C   0  0  0  0  0  0  0  0  0  0  0  0
    0.1320   19.9230  -28.5870 C   0  0  0  0  0  0  0  0  0  0  0  0
   -1.1270   19.1980  -28.0380 C   0  0  0  0  0  0  0  0  0  0  0  0
   -2.1110   20.1010  -27.2680 C   0  0  0  0  0  0  0  0  0  0  0  0
   -6.3790   23.1650  -31.0460 C   0  0  0  0  0  0  0  0  0  0  0  0
   -7.7400   23.3120  -31.3380 C   0  0  0  0  0  0  0  0  0  0  0  0
   -8.4350   22.2840  -31.9760 C   0  0  0  0  0  0  0  0  0  0  0  0
   -7.7820   21.0990  -32.3350 C   0  0  0  0  0  0  0  0  0  0  0  0
   -8.5290   20.1050  -32.9690 O   0  0  0  0  0  0  0  0  0  0  0  0
   -6.4060   20.9440  -32.0490 C   0  0  0  0  0  0  0  0  0  0  0  0
   -5.5340   19.4670  -32.4770 S   0  0  0  0  0  0  0  0  0  0  0  0
   -6.0360   18.9290  -33.7900 O   0  0  0  0  0  0  0  0  0  0  0  0
   -5.7700   18.4310  -31.4140 O   0  0  0  0  0  0  0  0  0  0  0  0
   -3.8270   19.8180  -32.5910 N   0  0  0  0  0  0  0  0  0  0  0  0
   -3.5730   20.9550  -33.4740 C   0  0  0  0  0  0  0  0  0  0  0  0
   -2.2800   21.5990  -32.9940 C   0  0  0  0  0  0  0  0  0  0  0  0
   -2.0790   21.0920  -31.5740 C   0  0  0  0  0  0  0  0  0  0  0  0
   -3.2760   20.1990  -31.2910 C   0  0  0  0  0  0  0  0  0  0  0  0
   -5.7170   21.9840  -31.4030 C   0  0  0  0  0  0  0  0  0  0  0  0
   -4.3851   21.5986  -27.6590 H   0  0  0  0  0  0  0  0  0  0  0  0
   -0.2329   23.9107  -29.2094 H   0  0  0  0  0  0  0  0  0  0  0  0
    1.0078   21.8925  -28.7986 H   0  0  0  0  0  0  0  0  0  0  0  0
    0.5381   21.4526  -27.1143 H   0  0  0  0  0  0  0  0  0  0  0  0
    0.1048   19.8745  -29.6856 H   0  0  0  0  0  0  0  0  0  0  0  0
    1.0029   19.4080  -28.1553 H   0  0  0  0  0  0  0  0  0  0  0  0
   -1.6645   18.7545  -28.8891 H   0  0  0  0  0  0  0  0  0  0  0  0
   -0.7635   18.4516  -27.3164 H   0  0  0  0  0  0  0  0  0  0  0  0
   -3.0998   19.6194  -27.2492 H   0  0  0  0  0  0  0  0  0  0  0  0
   -1.7272   20.2414  -26.2467 H   0  0  0  0  0  0  0  0  0  0  0  0
   -8.2629   24.2401  -31.0639 H   0  0  0  0  0  0  0  0  0  0  0  0
   -9.5053   22.4058  -32.1988 H   0  0  0  0  0  0  0  0  0  0  0  0
   -8.1490   19.4840  -33.6700 H   0  0  0  0  0  0  0  0  0  0  0  0
   -3.4627   20.6112  -34.5131 H   0  0  0  0  0  0  0  0  0  0  0  0
   -4.4068   21.6720  -33.4469 H   0  0  0  0  0  0  0  0  0  0  0  0
   -1.4383   21.2954  -33.6338 H   0  0  0  0  0  0  0  0  0  0  0  0
   -2.3310   22.6971  -33.0329 H   0  0  0  0  0  0  0  0  0  0  0  0
   -1.1440   20.5174  -31.4992 H   0  0  0  0  0  0  0  0  0  0  0  0
   -2.0049   21.9180  -30.8514 H   0  0  0  0  0  0  0  0  0  0  0  0
   -2.9594   19.3039  -30.7355 H   0  0  0  0  0  0  0  0  0  0  0  0
   -4.0260   20.7215  -30.6790 H   0  0  0  0  0  0  0  0  0  0  0  0
   -4.6469   21.8694  -31.1754 H   0  0  0  0  0  0  0  0  0  0  0  0
  1  2  2  0
  2  3  2  0
  2  4  1  0
  4  5  1  0
  5  6  2  0
  6  7  1  0
  7  8  2  0
  8  9  1  0
  9 10  2  0
 10 11  1  0
  8 12  1  0
 12 13  1  0
 13 14  1  0
 14 15  1  0
  2 16  1  0
 16 17  2  0
 17 18  1  0
 18 19  2  0
 19 20  1  0
 19 21  1  0
 21 22  1  0
 22 23  2  0
 22 24  2  0
 22 25  1  0
 25 26  1  0
 26 27  1  0
 27 28  1  0
 28 29  1  0
 21 30  2  0
 10  5  1  0
 30 16  1  0
 15  7  1  0
 29 25  1  0
  6 31  1  0
  9 32  1  0
 12 33  1  0
 12 34  1  0
 13 35  1  0
 13 36  1  0
 14 37  1  0
 14 38  1  0
 15 39  1  0
 15 40  1  0
 17 41  1  0
 18 42  1  0
 20 43  1  0
 26 44  1  0
 26 45  1  0
 27 46  1  0
 27 47  1  0
 28 48  1  0
 28 49  1  0
 29 50  1  0
 29 51  1  0
 30 52  1  0
M  CHG  2   4  -1  11  -1
M  END
>  <UniqueID>  (36) 
33

>  <SMILES>  (36) 
O=S(=O)([N-]c1cc2c(cc1[O-])CCCC2)c1ccc(O)c(S(=O)(=O)N2CCCC2)c1

>  <Energy>  (36) 
68.56524514659121

>  <Genealogy>  (36) 
O=S(=O)([N-]c1cc2c(cc1[O-])CCCC2)c1ccc(O)c(S(=O)(=O)N2CCCC2)c1 (protonated)
O=S(=O)([N-]c1cc2c(cc1[O-])CCCC2)c1ccc(O)c(S(=O)(=O)N2CCCC2)c1 (3D coordinates assigned)
O=S(=O)([N-]c1cc2c(cc1[O-])CCCC2)c1ccc(O)c(S(=O)(=O)N2CCCC2)c1 (nonaromatic ring conformer: 68.56524514659121 kcal/mol)

>  <smiles>  (36) 
O=S(=O)(Nc1cc2c(cc1O)CCCC2)c1ccc(O)c(S(=O)(=O)N2CCCC2)c1

>  <score_type>  (36) 
oracle

>  <origin>  (36) 
adgpu

>  <m_score__min__energy>  (36) 
-15.050000000000001

>  <m_primary>  (36) 
energy

$$$$
36:0
     RDKit          3D

 52 54  0  0  0  0  0  0  0  0999 V2000
   -5.2510   25.3490  -30.5410 C   0  0  0  0  0  0  0  0  0  0  0  0
   -3.7980   25.2970  -30.4570 N   0  0  0  0  0  0  0  0  0  0  0  0
   -3.0660   24.4370  -29.5760 C   0  0  0  0  0  0  0  0  0  0  0  0
   -3.1350   24.6400  -28.3340 O   0  0  0  0  0  0  0  0  0  0  0  0
   -2.2120   23.3420  -30.0780 C   0  0  0  0  0  0  0  0  0  0  0  0
   -2.7310   22.3850  -30.9610 C   0  0  0  0  0  0  0  0  0  0  0  0
   -1.9250   21.3430  -31.4190 C   0  0  0  0  0  0  0  0  0  0  0  0
   -0.6000   21.2440  -30.9680 C   0  0  0  0  0  0  0  0  0  0  0  0
    0.2580   20.2260  -31.4040 O   0  0  0  0  0  0  0  0  0  0  0  0
    0.9470   19.3310  -30.5720 C   0  0  0  0  0  0  0  0  0  0  0  0
    2.3050   19.0970  -30.8140 C   0  0  0  0  0  0  0  0  0  0  0  0
    3.0280   18.2260  -29.9990 C   0  0  0  0  0  0  0  0  0  0  0  0
    2.4010   17.5850  -28.9260 C   0  0  0  0  0  0  0  0  0  0  0  0
    1.0430   17.8180  -28.6550 C   0  0  0  0  0  0  0  0  0  0  0  0
    0.3840   17.1460  -27.5050 C   0  0  0  0  0  0  0  0  0  0  0  0
   -0.6900   17.7980  -26.8190 N   0  0  0  0  0  0  0  0  0  0  0  0
    0.7790   15.9720  -27.1080 N   0  0  0  0  0  0  0  0  0  0  0  0
    0.3240   18.7030  -29.4780 C   0  0  0  0  0  0  0  0  0  0  0  0
   -0.1170   22.1850  -30.1140 N   0  0  0  0  0  0  0  0  0  0  0  0
   -0.8760   23.2210  -29.6600 C   0  0  0  0  0  0  0  0  0  0  0  0
   -0.3380   24.1560  -28.7650 O   0  0  0  0  0  0  0  0  0  0  0  0
   -0.3330   24.0050  -27.3730 C   0  0  0  0  0  0  0  0  0  0  0  0
   -0.4920   25.1460  -26.5760 C   0  0  0  0  0  0  0  0  0  0  0  0
   -0.4970   25.0510  -25.1750 C   0  0  0  0  0  0  0  0  0  0  0  0
   -0.6860   26.2680  -24.3440 C   0  0  0  0  0  0  0  0  0  0  0  0
    0.1260   26.4690  -23.1810 N   0  0  0  0  0  0  0  0  0  0  0  0
   -1.5870   27.1510  -24.6570 N   0  0  0  0  0  0  0  0  0  0  0  0
   -0.3310   23.7910  -24.5760 C   0  0  0  0  0  0  0  0  0  0  0  0
   -0.1480   22.6520  -25.3640 C   0  0  0  0  0  0  0  0  0  0  0  0
   -0.1330   22.7520  -26.7600 C   0  0  0  0  0  0  0  0  0  0  0  0
    0.1060   21.6190  -27.5370 O   0  0  0  0  0  0  0  0  0  0  0  0
   -5.6766   25.3642  -29.5268 H   0  0  0  0  0  0  0  0  0  0  0  0
   -5.5548   26.2586  -31.0798 H   0  0  0  0  0  0  0  0  0  0  0  0
   -5.6191   24.4635  -31.0798 H   0  0  0  0  0  0  0  0  0  0  0  0
   -3.7771   22.4561  -31.2937 H   0  0  0  0  0  0  0  0  0  0  0  0
   -2.3252   20.6040  -32.1288 H   0  0  0  0  0  0  0  0  0  0  0  0
    2.8058   19.6032  -31.6524 H   0  0  0  0  0  0  0  0  0  0  0  0
    4.0937   18.0430  -30.2008 H   0  0  0  0  0  0  0  0  0  0  0  0
    2.9748   16.8943  -28.2906 H   0  0  0  0  0  0  0  0  0  0  0  0
   -1.0870   18.6980  -27.1690 H   0  0  0  0  0  0  0  0  0  0  0  0
   -1.1340   17.3590  -25.9810 H   0  0  0  0  0  0  0  0  0  0  0  0
    0.3150   15.4970  -26.3020 H   0  0  0  0  0  0  0  0  0  0  0  0
    1.5830   15.4810  -27.5600 H   0  0  0  0  0  0  0  0  0  0  0  0
   -0.7357   18.9062  -29.2644 H   0  0  0  0  0  0  0  0  0  0  0  0
   -0.6145   26.1292  -27.0539 H   0  0  0  0  0  0  0  0  0  0  0  0
   -0.0250   27.2970  -22.5610 H   0  0  0  0  0  0  0  0  0  0  0  0
    0.9150   25.8250  -22.9560 H   0  0  0  0  0  0  0  0  0  0  0  0
   -1.7180   28.0090  -24.0750 H   0  0  0  0  0  0  0  0  0  0  0  0
   -2.2220   27.0230  -25.4750 H   0  0  0  0  0  0  0  0  0  0  0  0
   -0.3452   23.7008  -23.4798 H   0  0  0  0  0  0  0  0  0  0  0  0
   -0.0149   21.6710  -24.8846 H   0  0  0  0  0  0  0  0  0  0  0  0
    0.2780   21.6840  -28.5330 H   0  0  0  0  0  0  0  0  0  0  0  0
  1  2  1  0
  2  3  1  0
  3  4  2  0
  3  5  1  0
  5  6  2  0
  6  7  1  0
  7  8  2  0
  8  9  1  0
  9 10  1  0
 10 11  2  0
 11 12  1  0
 12 13  2  0
 13 14  1  0
 14 15  1  0
 15 16  1  0
 15 17  2  0
 14 18  2  0
  8 19  1  0
 19 20  2  0
 20 21  1  0
 21 22  1  0
 22 23  2  0
 23 24  1  0
 24 25  1  0
 25 26  1  0
 25 27  2  0
 24 28  2  0
 28 29  1  0
 29 30  2  0
 30 31  1  0
 20  5  1  0
 30 22  1  0
 18 10  1  0
  1 32  1  0
  1 33  1  0
  1 34  1  0
  6 35  1  0
  7 36  1  0
 11 37  1  0
 12 38  1  0
 13 39  1  0
 16 40  1  0
 16 41  1  0
 17 42  1  0
 17 43  1  0
 18 44  1  0
 23 45  1  0
 26 46  1  0
 26 47  1  0
 27 48  1  0
 27 49  1  0
 28 50  1  0
 29 51  1  0
 31 52  1  0
M  CHG  3   2  -1  17   1  27   1
M  END
>  <UniqueID>  (37) 
34

>  <SMILES>  (37) 
C[N-]C(=O)c1ccc(Oc2cccc(C(N)=[NH2+])c2)nc1Oc1cc(C(N)=[NH2+])ccc1O

>  <Energy>  (37) 
75.51619654373529

>  <Genealogy>  (37) 
C[N-]C(=O)c1ccc(Oc2cccc(C(N)=[NH2+])c2)nc1Oc1cc(C(N)=[NH2+])ccc1O (protonated)
C[N-]C(=O)c1ccc(Oc2cccc(C(N)=[NH2+])c2)nc1Oc1cc(C(N)=[NH2+])ccc1O (3D coordinates assigned)
C[N-]C(=O)c1ccc(Oc2cccc(C(N)=[NH2+])c2)nc1Oc1cc(C(N)=[NH2+])ccc1O (optimized conformer: 75.51619654373529 kcal/mol)

>  <smiles>  (37) 
CNC(=O)c1ccc(Oc2cccc(C(=N)N)c2)nc1Oc1cc(C(=N)N)ccc1O

>  <score_type>  (37) 
oracle

>  <origin>  (37) 
adgpu

>  <m_score__min__energy>  (37) 
-9.9600000000000009

>  <m_primary>  (37) 
energy

$$$$
37:0
     RDKit          3D

 59 62  0  0  0  0  0  0  0  0999 V2000
   -2.0010   25.2960  -28.1100 C   0  0  0  0  0  0  0  0  0  0  0  0
   -2.5950   25.2630  -29.4040 O   0  0  0  0  0  0  0  0  0  0  0  0
   -3.8870   24.7820  -29.6790 C   0  0  0  0  0  0  0  0  0  0  0  0
   -4.8170   25.5430  -30.4150 C   0  0  0  0  0  0  0  0  0  0  0  0
   -6.0990   25.0460  -30.6630 C   0  0  0  0  0  0  0  0  0  0  0  0
   -6.4680   23.7920  -30.1810 C   0  0  0  0  0  0  0  0  0  0  0  0
   -5.5570   23.0260  -29.4530 C   0  0  0  0  0  0  0  0  0  0  0  0
   -4.2580   23.5030  -29.2040 C   0  0  0  0  0  0  0  0  0  0  0  0
   -3.2850   22.6460  -28.4150 C   0  0  0  0  0  0  0  0  0  0  0  0
   -2.4690   21.7340  -29.2500 N   0  0  0  0  0  0  0  0  0  0  0  0
   -1.7800   20.6860  -28.4670 C   0  0  0  0  0  0  0  0  0  0  0  0
   -0.8850   19.7930  -29.3560 C   0  0  0  0  0  0  0  0  0  0  0  0
   -1.1810   19.9910  -30.8540 C   0  0  0  0  0  0  0  0  0  0  0  0
   -0.2740   19.0890  -31.7100 C   0  0  0  0  0  0  0  0  0  0  0  0
   -1.0840   18.1480  -32.4900 N   0  0  0  0  0  0  0  0  0  0  0  0
   -1.9220   18.9980  -33.7520 S   0  0  0  0  0  0  0  0  0  0  0  0
   -2.0140   18.1200  -34.9690 O   0  0  0  0  0  0  0  0  0  0  0  0
   -1.1670   20.2470  -34.1160 O   0  0  0  0  0  0  0  0  0  0  0  0
   -3.5490   19.4000  -33.2130 C   0  0  0  0  0  0  0  0  0  0  0  0
   -3.8470   20.7290  -32.8330 C   0  0  0  0  0  0  0  0  0  0  0  0
   -5.1440   21.0850  -32.4270 C   0  0  0  0  0  0  0  0  0  0  0  0
   -6.1290   20.0960  -32.4070 C   0  0  0  0  0  0  0  0  0  0  0  0
   -5.8370   18.7970  -32.7880 C   0  0  0  0  0  0  0  0  0  0  0  0
   -4.5610   18.4200  -33.1980 C   0  0  0  0  0  0  0  0  0  0  0  0
   -7.0670   18.0280  -32.7150 C   0  0  0  0  0  0  0  0  0  0  0  0
   -7.2240   16.8100  -33.0000 O   0  0  0  0  0  0  0  0  0  0  0  0
   -8.0880   18.9660  -32.2720 C   0  0  0  0  0  0  0  0  0  0  0  0
   -9.3120   18.7050  -32.1330 O   0  0  0  0  0  0  0  0  0  0  0  0
   -7.5070   20.2530  -32.0430 N   0  0  0  0  0  0  0  0  0  0  0  0
   -8.2380   21.5110  -31.9610 C   0  0  0  0  0  0  0  0  0  0  0  0
   -1.0220   21.4810  -31.2430 C   0  0  0  0  0  0  0  0  0  0  0  0
   -1.5360   22.4370  -30.1490 C   0  0  0  0  0  0  0  0  0  0  0  0
   -2.7889   25.2522  -27.3436 H   0  0  0  0  0  0  0  0  0  0  0  0
   -1.3278   24.4339  -27.9935 H   0  0  0  0  0  0  0  0  0  0  0  0
   -1.4275   26.2274  -27.9935 H   0  0  0  0  0  0  0  0  0  0  0  0
   -4.5319   26.5345  -30.7966 H   0  0  0  0  0  0  0  0  0  0  0  0
   -6.8183   25.6459  -31.2399 H   0  0  0  0  0  0  0  0  0  0  0  0
   -7.4793   23.4051  -30.3747 H   0  0  0  0  0  0  0  0  0  0  0  0
   -5.8579   22.0396  -29.0702 H   0  0  0  0  0  0  0  0  0  0  0  0
   -2.6045   23.3128  -27.8651 H   0  0  0  0  0  0  0  0  0  0  0  0
   -3.8883   22.0120  -27.7486 H   0  0  0  0  0  0  0  0  0  0  0  0
   -1.1528   21.1683  -27.7028 H   0  0  0  0  0  0  0  0  0  0  0  0
   -2.5473   20.0464  -28.0065 H   0  0  0  0  0  0  0  0  0  0  0  0
    0.1688   20.0447  -29.1657 H   0  0  0  0  0  0  0  0  0  0  0  0
   -1.0946   18.7430  -29.1037 H   0  0  0  0  0  0  0  0  0  0  0  0
   -2.2234   19.6988  -31.0491 H   0  0  0  0  0  0  0  0  0  0  0  0
    0.3169   19.7142  -32.3955 H   0  0  0  0  0  0  0  0  0  0  0  0
    0.3953   18.5214  -31.0468 H   0  0  0  0  0  0  0  0  0  0  0  0
   -0.4380   17.4710  -32.9560 H   0  0  0  0  0  0  0  0  0  0  0  0
   -3.0550   21.4921  -32.8555 H   0  0  0  0  0  0  0  0  0  0  0  0
   -5.3778   22.1186  -32.1319 H   0  0  0  0  0  0  0  0  0  0  0  0
   -4.3487   17.3844  -33.5022 H   0  0  0  0  0  0  0  0  0  0  0  0
   -8.3926   21.7771  -30.9049 H   0  0  0  0  0  0  0  0  0  0  0  0
   -7.6600   22.3040  -32.4581 H   0  0  0  0  0  0  0  0  0  0  0  0
   -9.2131   21.4015  -32.4581 H   0  0  0  0  0  0  0  0  0  0  0  0
    0.0441   21.6874  -31.4188 H   0  0  0  0  0  0  0  0  0  0  0  0
   -1.6234   21.6553  -32.1474 H   0  0  0  0  0  0  0  0  0  0  0  0
   -0.6826   22.8117  -29.5648 H   0  0  0  0  0  0  0  0  0  0  0  0
   -2.0640   23.2755  -30.6267 H   0  0  0  0  0  0  0  0  0  0  0  0
  1  2  1  0
  2  3  1  0
  3  4  2  0
  4  5  1  0
  5  6  2  0
  6  7  1  0
  7  8  2  0
  8  9  1  0
  9 10  1  0
 10 11  1  0
 11 12  1  0
 12 13  1  0
 13 14  1  0
 14 15  1  0
 15 16  1  0
 16 17  2  0
 16 18  2  0
 16 19  1  0
 19 20  2  0
 20 21  1  0
 21 22  2  0
 22 23  1  0
 23 24  2  0
 23 25  1  0
 25 26  2  0
 25 27  1  0
 27 28  2  0
 27 29  1  0
 29 30  1  0
 13 31  1  0
 31 32  1  0
  8  3  1  0
 32 10  1  0
 24 19  1  0
 29 22  1  0
  1 33  1  0
  1 34  1  0
  1 35  1  0
  4 36  1  0
  5 37  1  0
  6 38  1  0
  7 39  1  0
  9 40  1  0
  9 41  1  0
 11 42  1  0
 11 43  1  0
 12 44  1  0
 12 45  1  0
 13 46  1  0
 14 47  1  0
 14 48  1  0
 15 49  1  0
 20 50  1  0
 21 51  1  0
 24 52  1  0
 30 53  1  0
 30 54  1  0
 30 55  1  0
 31 56  1  0
 31 57  1  0
 32 58  1  0
 32 59  1  0
M  END
>  <UniqueID>  (38) 
35

>  <SMILES>  (38) 
COc1ccccc1CN1CCC(CNS(=O)(=O)c2ccc3c(c2)C(=O)C(=O)N3C)CC1

>  <Energy>  (38) 
96.63305062980034

>  <Genealogy>  (38) 
COc1ccccc1CN1CCC(CNS(=O)(=O)c2ccc3c(c2)C(=O)C(=O)N3C)CC1 (3D coordinates assigned)
COc1ccccc1CN1CCC(CNS(=O)(=O)c2ccc3c(c2)C(=O)C(=O)N3C)CC1 (nonaromatic ring conformer: 96.63305062980034 kcal/mol)

>  <smiles>  (38) 
COc1ccccc1CN1CCC(CNS(=O)(=O)c2ccc3c(c2)C(=O)C(=O)N3C)CC1

>  <score_type>  (38) 
oracle

>  <origin>  (38) 
adgpu

>  <m_score__min__energy>  (38) 
-10.66

>  <m_primary>  (38) 
energy

$$$$
38:0
     RDKit          3D

 62 65  0  0  0  0  0  0  0  0999 V2000
   -3.0230   19.0740  -26.0740 C   0  0  0  0  0  0  0  0  0  0  0  0
   -2.0810   19.7930  -26.9480 N   0  0  0  0  0  0  0  0  0  0  0  0
   -1.2500   20.7290  -26.1550 C   0  0  0  0  0  0  0  0  0  0  0  0
   -0.7020   21.8600  -27.0300 C   0  0  0  0  0  0  0  0  0  0  0  0
   -1.7990   22.6910  -27.5690 N   0  0  0  0  0  0  0  0  0  0  0  0
   -1.2530   23.5560  -28.9850 S   0  0  0  0  0  0  0  0  0  0  0  0
    0.2210   23.8270  -28.8770 O   0  0  0  0  0  0  0  0  0  0  0  0
   -1.9780   24.8690  -29.0960 O   0  0  0  0  0  0  0  0  0  0  0  0
   -1.5430   22.5850  -30.4270 C   0  0  0  0  0  0  0  0  0  0  0  0
   -2.8070   22.5580  -31.0300 C   0  0  0  0  0  0  0  0  0  0  0  0
   -3.0300   21.7680  -32.1610 C   0  0  0  0  0  0  0  0  0  0  0  0
   -1.9960   20.9930  -32.7030 C   0  0  0  0  0  0  0  0  0  0  0  0
   -2.2730   20.2210  -33.8440 O   0  0  0  0  0  0  0  0  0  0  0  0
   -2.6350   18.8410  -33.8360 C   0  0  0  0  0  0  0  0  0  0  0  0
   -4.1220   18.6890  -33.7890 C   0  0  0  0  0  0  0  0  0  0  0  0
   -4.8340   18.0280  -34.7270 N   0  0  0  0  0  0  0  0  0  0  0  0
   -6.1030   18.1400  -34.2900 C   0  0  0  0  0  0  0  0  0  0  0  0
   -6.1080   18.8560  -33.1130 C   0  0  0  0  0  0  0  0  0  0  0  0
   -7.2670   19.2060  -32.2780 C   0  0  0  0  0  0  0  0  0  0  0  0
   -8.2830   18.4610  -32.3000 O   0  0  0  0  0  0  0  0  0  0  0  0
   -7.2530   20.3780  -31.4490 N   0  0  0  0  0  0  0  0  0  0  0  0
   -8.4670   20.9220  -30.8390 C   0  0  0  0  0  0  0  0  0  0  0  0
   -8.6670   22.3920  -31.2260 C   0  0  0  0  0  0  0  0  0  0  0  0
   -7.4000   23.1870  -31.0420 C   0  0  0  0  0  0  0  0  0  0  0  0
   -6.5370   23.4040  -32.1300 C   0  0  0  0  0  0  0  0  0  0  0  0
   -5.3840   24.1790  -31.9700 C   0  0  0  0  0  0  0  0  0  0  0  0
   -5.0900   24.7500  -30.7280 C   0  0  0  0  0  0  0  0  0  0  0  0
   -3.9450   25.5220  -30.5720 O   0  0  0  0  0  0  0  0  0  0  0  0
   -5.9490   24.5480  -29.6440 C   0  0  0  0  0  0  0  0  0  0  0  0
   -7.1030   23.7720  -29.8000 C   0  0  0  0  0  0  0  0  0  0  0  0
   -4.8710   19.1780  -32.8270 O   0  0  0  0  0  0  0  0  0  0  0  0
   -0.7290   21.0140  -32.0890 C   0  0  0  0  0  0  0  0  0  0  0  0
   -0.5080   21.8060  -30.9580 C   0  0  0  0  0  0  0  0  0  0  0  0
   -3.0410   21.9320  -27.8520 C   0  0  0  0  0  0  0  0  0  0  0  0
   -2.7800   20.4340  -28.0890 C   0  0  0  0  0  0  0  0  0  0  0  0
   -2.7682   19.2684  -25.0217 H   0  0  0  0  0  0  0  0  0  0  0  0
   -4.0472   19.4222  -26.2737 H   0  0  0  0  0  0  0  0  0  0  0  0
   -2.9573   17.9943  -26.2737 H   0  0  0  0  0  0  0  0  0  0  0  0
   -1.8644   21.1621  -25.3519 H   0  0  0  0  0  0  0  0  0  0  0  0
   -0.4005   20.1705  -25.7350 H   0  0  0  0  0  0  0  0  0  0  0  0
   -0.0355   22.4923  -26.4250 H   0  0  0  0  0  0  0  0  0  0  0  0
   -0.1517   21.4162  -27.8727 H   0  0  0  0  0  0  0  0  0  0  0  0
   -3.6268   23.1606  -30.6119 H   0  0  0  0  0  0  0  0  0  0  0  0
   -4.0252   21.7544  -32.6295 H   0  0  0  0  0  0  0  0  0  0  0  0
   -2.2508   18.3609  -34.7481 H   0  0  0  0  0  0  0  0  0  0  0  0
   -2.2007   18.3648  -32.9446 H   0  0  0  0  0  0  0  0  0  0  0  0
   -6.9908   17.7271  -34.7912 H   0  0  0  0  0  0  0  0  0  0  0  0
   -6.3510   20.8690  -31.2630 H   0  0  0  0  0  0  0  0  0  0  0  0
   -9.3342   20.3388  -31.1823 H   0  0  0  0  0  0  0  0  0  0  0  0
   -8.3675   20.8586  -29.7453 H   0  0  0  0  0  0  0  0  0  0  0  0
   -8.9730   22.4457  -32.2812 H   0  0  0  0  0  0  0  0  0  0  0  0
   -9.4416   22.8195  -30.5723 H   0  0  0  0  0  0  0  0  0  0  0  0
   -6.7693   22.9628  -33.1105 H   0  0  0  0  0  0  0  0  0  0  0  0
   -4.7075   24.3396  -32.8224 H   0  0  0  0  0  0  0  0  0  0  0  0
   -5.7178   24.9992  -28.6678 H   0  0  0  0  0  0  0  0  0  0  0  0
   -7.7802   23.6195  -28.9467 H   0  0  0  0  0  0  0  0  0  0  0  0
    0.0897   20.4053  -32.5004 H   0  0  0  0  0  0  0  0  0  0  0  0
    0.4841   21.8170  -30.4831 H   0  0  0  0  0  0  0  0  0  0  0  0
   -3.7221   22.0393  -26.9950 H   0  0  0  0  0  0  0  0  0  0  0  0
   -3.4791   22.3430  -28.7735 H   0  0  0  0  0  0  0  0  0  0  0  0
   -3.7444   19.9275  -28.2418 H   0  0  0  0  0  0  0  0  0  0  0  0
   -2.1316   20.3428  -28.9729 H   0  0  0  0  0  0  0  0  0  0  0  0
  1  2  1  0
  2  3  1  0
  3  4  1  0
  4  5  1  0
  5  6  1  0
  6  7  2  0
  6  8  2  0
  6  9  1  0
  9 10  2  0
 10 11  1  0
 11 12  2  0
 12 13  1  0
 13 14  1  0
 14 15  1  0
 15 16  2  0
 16 17  1  0
 17 18  2  0
 18 19  1  0
 19 20  2  0
 19 21  1  0
 21 22  1  0
 22 23  1  0
 23 24  1  0
 24 25  2  0
 25 26  1  0
 26 27  2  0
 27 28  1  0
 27 29  1  0
 29 30  2  0
 18 31  1  0
 12 32  1  0
 32 33  2  0
  5 34  1  0
 34 35  1  0
 35  2  1  0
 33  9  1  0
 31 15  1  0
 30 24  1  0
  1 36  1  0
  1 37  1  0
  1 38  1  0
  3 39  1  0
  3 40  1  0
  4 41  1  0
  4 42  1  0
 10 43  1  0
 11 44  1  0
 14 45  1  0
 14 46  1  0
 17 47  1  0
 21 48  1  0
 22 49  1  0
 22 50  1  0
 23 51  1  0
 23 52  1  0
 25 53  1  0
 26 54  1  0
 29 55  1  0
 30 56  1  0
 32 57  1  0
 33 58  1  0
 34 59  1  0
 34 60  1  0
 35 61  1  0
 35 62  1  0
M  CHG  1  28  -1
M  END
>  <UniqueID>  (39) 
36

>  <SMILES>  (39) 
CN1CCN(S(=O)(=O)c2ccc(OCc3ncc(C(=O)NCCc4ccc([O-])cc4)o3)cc2)CC1

>  <Energy>  (39) 
97.9140238032499

>  <Genealogy>  (39) 
CN1CCN(S(=O)(=O)c2ccc(OCc3ncc(C(=O)NCCc4ccc([O-])cc4)o3)cc2)CC1 (protonated)
CN1CCN(S(=O)(=O)c2ccc(OCc3ncc(C(=O)NCCc4ccc([O-])cc4)o3)cc2)CC1 (3D coordinates assigned)
CN1CCN(S(=O)(=O)c2ccc(OCc3ncc(C(=O)NCCc4ccc([O-])cc4)o3)cc2)CC1 (nonaromatic ring conformer: 97.9140238032499 kcal/mol)

>  <smiles>  (39) 
CN1CCN(S(=O)(=O)c2ccc(OCc3ncc(C(=O)NCCc4ccc(O)cc4)o3)cc2)CC1

>  <score_type>  (39) 
oracle

>  <origin>  (39) 
adgpu

>  <m_score__min__energy>  (39) 
-12.83

>  <m_primary>  (39) 
energy

$$$$
39:0
     RDKit          3D

 42 44  0  0  0  0  0  0  0  0999 V2000
   -6.4680   18.7810  -33.9720 O   0  0  0  0  0  0  0  0  0  0  0  0
   -7.2140   18.8630  -32.9740 N   0  0  0  0  0  0  0  0  0  0  0  0
   -7.6610   17.7040  -32.3830 O   0  0  0  0  0  0  0  0  0  0  0  0
   -7.6410   20.1490  -32.4770 C   0  0  0  0  0  0  0  0  0  0  0  0
   -9.0080   20.4830  -32.4290 C   0  0  0  0  0  0  0  0  0  0  0  0
   -9.4150   21.7270  -31.9370 C   0  0  0  0  0  0  0  0  0  0  0  0
   -8.4680   22.6490  -31.4870 C   0  0  0  0  0  0  0  0  0  0  0  0
   -7.1030   22.3320  -31.5280 C   0  0  0  0  0  0  0  0  0  0  0  0
   -5.9010   23.4740  -30.9290 S   0  0  0  0  0  0  0  0  0  0  0  0
   -5.4380   24.3270  -32.0770 O   0  0  0  0  0  0  0  0  0  0  0  0
   -6.5070   24.3710  -29.8860 O   0  0  0  0  0  0  0  0  0  0  0  0
   -4.5520   22.6280  -30.2220 N   0  0  0  0  0  0  0  0  0  0  0  0
   -4.3410   22.6850  -28.7700 C   0  0  0  0  0  0  0  0  0  0  0  0
   -3.0330   23.3660  -28.4500 C   0  0  0  0  0  0  0  0  0  0  0  0
   -2.1140   22.7500  -27.5820 C   0  0  0  0  0  0  0  0  0  0  0  0
   -0.8750   23.3420  -27.3270 C   0  0  0  0  0  0  0  0  0  0  0  0
   -0.5450   24.5630  -27.9230 C   0  0  0  0  0  0  0  0  0  0  0  0
   -1.4610   25.2020  -28.7650 C   0  0  0  0  0  0  0  0  0  0  0  0
   -1.1340   26.4270  -29.3410 O   0  0  0  0  0  0  0  0  0  0  0  0
   -2.7050   24.6120  -29.0280 C   0  0  0  0  0  0  0  0  0  0  0  0
   -3.6110   25.2720  -29.8530 O   0  0  0  0  0  0  0  0  0  0  0  0
   -3.6070   21.9600  -31.0750 C   0  0  0  0  0  0  0  0  0  0  0  0
   -3.7110   22.0720  -32.4730 C   0  0  0  0  0  0  0  0  0  0  0  0
   -2.7850   21.4290  -33.3000 C   0  0  0  0  0  0  0  0  0  0  0  0
   -1.7460   20.6760  -32.7390 C   0  0  0  0  0  0  0  0  0  0  0  0
   -0.8240   20.0410  -33.5640 O   0  0  0  0  0  0  0  0  0  0  0  0
   -1.6400   20.5570  -31.3510 C   0  0  0  0  0  0  0  0  0  0  0  0
   -2.5670   21.1940  -30.5210 C   0  0  0  0  0  0  0  0  0  0  0  0
   -6.6940   21.0860  -32.0270 C   0  0  0  0  0  0  0  0  0  0  0  0
   -9.7600   19.7613  -32.7805 H   0  0  0  0  0  0  0  0  0  0  0  0
  -10.4850   21.9801  -31.9044 H   0  0  0  0  0  0  0  0  0  0  0  0
   -8.7935   23.6257  -31.0997 H   0  0  0  0  0  0  0  0  0  0  0  0
   -5.1646   23.2481  -28.3068 H   0  0  0  0  0  0  0  0  0  0  0  0
   -4.3125   21.6587  -28.3751 H   0  0  0  0  0  0  0  0  0  0  0  0
   -2.3727   21.7954  -27.1006 H   0  0  0  0  0  0  0  0  0  0  0  0
   -0.1576   22.8468  -26.6561 H   0  0  0  0  0  0  0  0  0  0  0  0
    0.4360   25.0215  -27.7295 H   0  0  0  0  0  0  0  0  0  0  0  0
   -4.5228   22.6669  -32.9169 H   0  0  0  0  0  0  0  0  0  0  0  0
   -2.8727   21.5147  -34.3931 H   0  0  0  0  0  0  0  0  0  0  0  0
   -0.8264   19.9616  -30.9110 H   0  0  0  0  0  0  0  0  0  0  0  0
   -2.4821   21.0952  -29.4287 H   0  0  0  0  0  0  0  0  0  0  0  0
   -5.6226   20.8399  -32.0665 H   0  0  0  0  0  0  0  0  0  0  0  0
  1  2  2  0
  2  3  1  0
  2  4  1  0
  4  5  2  0
  5  6  1  0
  6  7  2  0
  7  8  1  0
  8  9  1  0
  9 10  2  0
  9 11  2  0
  9 12  1  0
 12 13  1  0
 13 14  1  0
 14 15  2  0
 15 16  1  0
 16 17  2  0
 17 18  1  0
 18 19  1  0
 18 20  2  0
 20 21  1  0
 12 22  1  0
 22 23  2  0
 23 24  1  0
 24 25  2  0
 25 26  1  0
 25 27  1  0
 27 28  2  0
  8 29  2  0
 29  4  1  0
 20 14  1  0
 28 22  1  0
  5 30  1  0
  6 31  1  0
  7 32  1  0
 13 33  1  0
 13 34  1  0
 15 35  1  0
 16 36  1  0
 17 37  1  0
 23 38  1  0
 24 39  1  0
 27 40  1  0
 28 41  1  0
 29 42  1  0
M  CHG  5   2   1   3  -1  19  -1  21  -1  26  -1
M  END
>  <UniqueID>  (40) 
37

>  <SMILES>  (40) 
O=[N+]([O-])c1cccc(S(=O)(=O)N(Cc2cccc([O-])c2[O-])c2ccc([O-])cc2)c1

>  <Energy>  (40) 
49.23958182321798

>  <Genealogy>  (40) 
O=[N+]([O-])c1cccc(S(=O)(=O)N(Cc2cccc([O-])c2[O-])c2ccc([O-])cc2)c1 (protonated)
O=[N+]([O-])c1cccc(S(=O)(=O)N(Cc2cccc([O-])c2[O-])c2ccc([O-])cc2)c1 (3D coordinates assigned)
O=[N+]([O-])c1cccc(S(=O)(=O)N(Cc2cccc([O-])c2[O-])c2ccc([O-])cc2)c1 (optimized conformer: 49.23958182321798 kcal/mol)

>  <smiles>  (40) 
O=[N+]([O-])c1cccc(S(=O)(=O)N(Cc2cccc(O)c2O)c2ccc(O)cc2)c1

>  <score_type>  (40) 
oracle

>  <origin>  (40) 
adgpu

>  <m_score__min__energy>  (40) 
-15.619999999999999

>  <m_primary>  (40) 
energy

$$$$
40:0
     RDKit          3D

 58 61  0  0  0  0  0  0  0  0999 V2000
   -5.8250   26.1280  -29.7550 O   0  0  0  0  0  0  0  0  0  0  0  0
   -5.1540   25.4760  -30.5950 C   0  0  0  0  0  0  0  0  0  0  0  0
   -5.8130   24.9280  -31.7450 N   0  0  0  0  0  0  0  0  0  0  0  0
   -6.1280   23.5390  -31.9060 C   0  0  0  0  0  0  0  0  0  0  0  0
   -5.1140   22.5690  -31.9850 C   0  0  0  0  0  0  0  0  0  0  0  0
   -5.4410   21.2120  -32.0470 C   0  0  0  0  0  0  0  0  0  0  0  0
   -6.7840   20.8080  -32.0200 C   0  0  0  0  0  0  0  0  0  0  0  0
   -7.1250   19.3710  -32.0120 C   0  0  0  0  0  0  0  0  0  0  0  0
   -8.1140   18.9830  -31.3340 O   0  0  0  0  0  0  0  0  0  0  0  0
   -6.3730   18.4180  -32.7880 N   0  0  0  0  0  0  0  0  0  0  0  0
   -5.6610   18.8240  -34.0040 C   0  0  0  0  0  0  0  0  0  0  0  0
   -5.7140   17.6930  -35.0350 C   0  0  0  0  0  0  0  0  0  0  0  0
   -5.2690   16.4770  -34.4680 O   0  0  0  0  0  0  0  0  0  0  0  0
   -6.1640   16.0660  -33.4520 C   0  0  0  0  0  0  0  0  0  0  0  0
   -6.1560   17.0580  -32.2840 C   0  0  0  0  0  0  0  0  0  0  0  0
   -7.7960   21.7810  -31.9950 C   0  0  0  0  0  0  0  0  0  0  0  0
   -7.4670   23.1400  -31.9510 C   0  0  0  0  0  0  0  0  0  0  0  0
   -3.7470   25.2960  -30.3800 N   0  0  0  0  0  0  0  0  0  0  0  0
   -3.1760   24.4680  -29.3560 C   0  0  0  0  0  0  0  0  0  0  0  0
   -3.8830   23.3600  -28.8620 C   0  0  0  0  0  0  0  0  0  0  0  0
   -3.3060   22.5250  -27.9070 C   0  0  0  0  0  0  0  0  0  0  0  0
   -2.0280   22.7940  -27.4220 C   0  0  0  0  0  0  0  0  0  0  0  0
   -1.3140   23.9120  -27.8790 C   0  0  0  0  0  0  0  0  0  0  0  0
    0.3100   24.2130  -27.2340 S   0  0  0  0  0  0  0  0  0  0  0  0
    1.2520   24.5470  -28.3580 O   0  0  0  0  0  0  0  0  0  0  0  0
    0.8120   22.9570  -26.5770 O   0  0  0  0  0  0  0  0  0  0  0  0
    0.3220   25.5150  -26.0650 N   0  0  0  0  0  0  0  0  0  0  0  0
   -0.6830   26.5530  -26.3830 C   0  0  0  0  0  0  0  0  0  0  0  0
   -1.9220   26.4500  -25.4750 C   0  0  0  0  0  0  0  0  0  0  0  0
   -1.6200   26.5670  -24.0910 O   0  0  0  0  0  0  0  0  0  0  0  0
   -0.3350   26.0680  -23.7390 C   0  0  0  0  0  0  0  0  0  0  0  0
    0.1930   24.9850  -24.6930 C   0  0  0  0  0  0  0  0  0  0  0  0
   -1.8910   24.7560  -28.8530 C   0  0  0  0  0  0  0  0  0  0  0  0
   -1.1770   25.8540  -29.3320 O   0  0  0  0  0  0  0  0  0  0  0  0
   -4.0588   22.8794  -31.9981 H   0  0  0  0  0  0  0  0  0  0  0  0
   -4.6429   20.4583  -32.1172 H   0  0  0  0  0  0  0  0  0  0  0  0
   -6.1362   19.7233  -34.4230 H   0  0  0  0  0  0  0  0  0  0  0  0
   -4.6117   19.0421  -33.7561 H   0  0  0  0  0  0  0  0  0  0  0  0
   -6.7501   17.5708  -35.3836 H   0  0  0  0  0  0  0  0  0  0  0  0
   -5.0553   17.9518  -35.8771 H   0  0  0  0  0  0  0  0  0  0  0  0
   -7.1803   16.0082  -33.8688 H   0  0  0  0  0  0  0  0  0  0  0  0
   -5.8456   15.0812  -33.0796 H   0  0  0  0  0  0  0  0  0  0  0  0
   -6.9582   16.7976  -31.5778 H   0  0  0  0  0  0  0  0  0  0  0  0
   -5.1832   17.0103  -31.7727 H   0  0  0  0  0  0  0  0  0  0  0  0
   -8.8520   21.4734  -32.0101 H   0  0  0  0  0  0  0  0  0  0  0  0
   -8.2648   23.8973  -31.9518 H   0  0  0  0  0  0  0  0  0  0  0  0
   -4.8978   23.1499  -29.2308 H   0  0  0  0  0  0  0  0  0  0  0  0
   -3.8611   21.6512  -27.5352 H   0  0  0  0  0  0  0  0  0  0  0  0
   -1.5754   22.1250  -26.6753 H   0  0  0  0  0  0  0  0  0  0  0  0
   -0.2252   27.5442  -26.2488 H   0  0  0  0  0  0  0  0  0  0  0  0
   -1.0092   26.4043  -27.4229 H   0  0  0  0  0  0  0  0  0  0  0  0
   -2.6220   27.2534  -25.7481 H   0  0  0  0  0  0  0  0  0  0  0  0
   -2.3548   25.4506  -25.6291 H   0  0  0  0  0  0  0  0  0  0  0  0
    0.3754   26.9078  -23.7406 H   0  0  0  0  0  0  0  0  0  0  0  0
   -0.4333   25.6013  -22.7478 H   0  0  0  0  0  0  0  0  0  0  0  0
    1.1790   24.6452  -24.3431 H   0  0  0  0  0  0  0  0  0  0  0  0
   -0.5184   24.1461  -24.7037 H   0  0  0  0  0  0  0  0  0  0  0  0
   -0.1690   25.9190  -29.2720 H   0  0  0  0  0  0  0  0  0  0  0  0
  1  2  2  0
  2  3  1  0
  3  4  1  0
  4  5  2  0
  5  6  1  0
  6  7  2  0
  7  8  1  0
  8  9  2  0
  8 10  1  0
 10 11  1  0
 11 12  1  0
 12 13  1  0
 13 14  1  0
 14 15  1  0
  7 16  1  0
 16 17  2  0
  2 18  1  0
 18 19  1  0
 19 20  2  0
 20 21  1  0
 21 22  2  0
 22 23  1  0
 23 24  1  0
 24 25  2  0
 24 26  2  0
 24 27  1  0
 27 28  1  0
 28 29  1  0
 29 30  1  0
 30 31  1  0
 31 32  1  0
 23 33  2  0
 33 34  1  0
 17  4  1  0
 33 19  1  0
 15 10  1  0
 32 27  1  0
  5 35  1  0
  6 36  1  0
 11 37  1  0
 11 38  1  0
 12 39  1  0
 12 40  1  0
 14 41  1  0
 14 42  1  0
 15 43  1  0
 15 44  1  0
 16 45  1  0
 17 46  1  0
 20 47  1  0
 21 48  1  0
 22 49  1  0
 28 50  1  0
 28 51  1  0
 29 52  1  0
 29 53  1  0
 31 54  1  0
 31 55  1  0
 32 56  1  0
 32 57  1  0
 34 58  1  0
M  CHG  2   3  -1  18  -1
M  END
>  <UniqueID>  (41) 
38

>  <SMILES>  (41) 
O=C([N-]c1ccc(C(=O)N2CCOCC2)cc1)[N-]c1cccc(S(=O)(=O)N2CCOCC2)c1O

>  <Energy>  (41) 
85.73235924810727

>  <Genealogy>  (41) 
O=C([N-]c1ccc(C(=O)N2CCOCC2)cc1)[N-]c1cccc(S(=O)(=O)N2CCOCC2)c1O (protonated)
O=C([N-]c1ccc(C(=O)N2CCOCC2)cc1)[N-]c1cccc(S(=O)(=O)N2CCOCC2)c1O (3D coordinates assigned)
O=C([N-]c1ccc(C(=O)N2CCOCC2)cc1)[N-]c1cccc(S(=O)(=O)N2CCOCC2)c1O (nonaromatic ring conformer: 85.73235924810727 kcal/mol)

>  <smiles>  (41) 
O=C(Nc1ccc(C(=O)N2CCOCC2)cc1)Nc1cccc(S(=O)(=O)N2CCOCC2)c1O

>  <score_type>  (41) 
oracle

>  <origin>  (41) 
adgpu

>  <m_score__min__energy>  (41) 
-13.77

>  <m_primary>  (41) 
energy

$$$$
41:0
     RDKit          3D

 60 63  0  0  0  0  0  0  0  0999 V2000
   -4.7750   19.7440  -33.5980 O   0  0  0  0  0  0  0  0  0  0  0  0
   -5.9100   20.2590  -33.5080 N   0  0  0  0  0  0  0  0  0  0  0  0
   -6.8000   20.0430  -34.5340 O   0  0  0  0  0  0  0  0  0  0  0  0
   -6.2970   21.0610  -32.3690 C   0  0  0  0  0  0  0  0  0  0  0  0
   -5.3810   22.0070  -31.8680 C   0  0  0  0  0  0  0  0  0  0  0  0
   -5.6970   22.8110  -30.7660 C   0  0  0  0  0  0  0  0  0  0  0  0
   -4.4890   23.9040  -30.0870 S   0  0  0  0  0  0  0  0  0  0  0  0
   -4.3320   25.0950  -30.9910 O   0  0  0  0  0  0  0  0  0  0  0  0
   -4.9590   24.3960  -28.7460 O   0  0  0  0  0  0  0  0  0  0  0  0
   -2.9460   23.1020  -29.8950 N   0  0  0  0  0  0  0  0  0  0  0  0
   -2.4250   22.6600  -31.2090 C   0  0  0  0  0  0  0  0  0  0  0  0
   -1.3560   21.5750  -31.0560 C   0  0  0  0  0  0  0  0  0  0  0  0
   -1.9410   20.3160  -30.3940 C   0  0  0  0  0  0  0  0  0  0  0  0
   -3.1220   20.6270  -29.4580 C   0  0  0  0  0  0  0  0  0  0  0  0
   -3.0070   22.0390  -28.8600 C   0  0  0  0  0  0  0  0  0  0  0  0
   -6.9620   22.7080  -30.1780 C   0  0  0  0  0  0  0  0  0  0  0  0
   -7.8840   21.7820  -30.6580 C   0  0  0  0  0  0  0  0  0  0  0  0
   -7.5600   20.9350  -31.7280 C   0  0  0  0  0  0  0  0  0  0  0  0
   -8.7840   19.6960  -32.1870 S   0  0  0  0  0  0  0  0  0  0  0  0
   -7.5620   18.3870  -32.3010 C   0  0  0  0  0  0  0  0  0  0  0  0
   -7.4570   17.6140  -33.4630 C   0  0  0  0  0  0  0  0  0  0  0  0
   -6.5060   16.5920  -33.5440 C   0  0  0  0  0  0  0  0  0  0  0  0
   -5.6590   16.3320  -32.4560 C   0  0  0  0  0  0  0  0  0  0  0  0
   -4.4400   15.0610  -32.5470 S   0  0  0  0  0  0  0  0  0  0  0  0
   -4.8390   14.0460  -33.5820 O   0  0  0  0  0  0  0  0  0  0  0  0
   -4.3750   14.3730  -31.2110 O   0  0  0  0  0  0  0  0  0  0  0  0
   -2.8710   15.7450  -32.9260 N   0  0  0  0  0  0  0  0  0  0  0  0
   -2.9800   17.1550  -33.3440 C   0  0  0  0  0  0  0  0  0  0  0  0
   -3.5680   17.3010  -34.7690 C   0  0  0  0  0  0  0  0  0  0  0  0
   -3.4820   16.1170  -35.5440 O   0  0  0  0  0  0  0  0  0  0  0  0
   -2.2330   15.4950  -35.3460 C   0  0  0  0  0  0  0  0  0  0  0  0
   -2.1430   14.9200  -33.9230 C   0  0  0  0  0  0  0  0  0  0  0  0
   -5.7620   17.1100  -31.2970 C   0  0  0  0  0  0  0  0  0  0  0  0
   -6.7120   18.1310  -31.2180 C   0  0  0  0  0  0  0  0  0  0  0  0
   -4.3991   22.1160  -32.3517 H   0  0  0  0  0  0  0  0  0  0  0  0
   -3.2572   22.2593  -31.8064 H   0  0  0  0  0  0  0  0  0  0  0  0
   -1.9660   23.5272  -31.7062 H   0  0  0  0  0  0  0  0  0  0  0  0
   -0.9663   21.3109  -32.0502 H   0  0  0  0  0  0  0  0  0  0  0  0
   -0.5494   21.9646  -30.4176 H   0  0  0  0  0  0  0  0  0  0  0  0
   -2.2888   19.6335  -31.1834 H   0  0  0  0  0  0  0  0  0  0  0  0
   -1.1456   19.8634  -29.7836 H   0  0  0  0  0  0  0  0  0  0  0  0
   -4.0596   20.5553  -30.0288 H   0  0  0  0  0  0  0  0  0  0  0  0
   -3.1108   19.8996  -28.6329 H   0  0  0  0  0  0  0  0  0  0  0  0
   -3.8832   22.2217  -28.2205 H   0  0  0  0  0  0  0  0  0  0  0  0
   -2.0676   22.0800  -28.2891 H   0  0  0  0  0  0  0  0  0  0  0  0
   -7.2291   23.3607  -29.3338 H   0  0  0  0  0  0  0  0  0  0  0  0
   -8.8784   21.7138  -30.1926 H   0  0  0  0  0  0  0  0  0  0  0  0
   -8.1244   17.8109  -34.3149 H   0  0  0  0  0  0  0  0  0  0  0  0
   -6.4218   15.9913  -34.4616 H   0  0  0  0  0  0  0  0  0  0  0  0
   -2.3260   15.7250  -32.0310 H   0  0  0  0  0  0  0  0  0  0  0  0
   -3.6338   17.6846  -32.6354 H   0  0  0  0  0  0  0  0  0  0  0  0
   -1.9668   17.5831  -33.3522 H   0  0  0  0  0  0  0  0  0  0  0  0
   -4.6278   17.5821  -34.6805 H   0  0  0  0  0  0  0  0  0  0  0  0
   -2.9726   18.0680  -35.2859 H   0  0  0  0  0  0  0  0  0  0  0  0
   -2.1139   14.6799  -36.0750 H   0  0  0  0  0  0  0  0  0  0  0  0
   -1.4362   16.2411  -35.4815 H   0  0  0  0  0  0  0  0  0  0  0  0
   -2.5736   13.9078  -33.9243 H   0  0  0  0  0  0  0  0  0  0  0  0
   -1.0815   14.9094  -33.6348 H   0  0  0  0  0  0  0  0  0  0  0  0
   -5.0927   16.9168  -30.4457 H   0  0  0  0  0  0  0  0  0  0  0  0
   -6.7926   18.7356  -30.3026 H   0  0  0  0  0  0  0  0  0  0  0  0
  1  2  2  0
  2  3  1  0
  2  4  1  0
  4  5  2  0
  5  6  1  0
  6  7  1  0
  7  8  2  0
  7  9  2  0
  7 10  1  0
 10 11  1  0
 11 12  1  0
 12 13  1  0
 13 14  1  0
 14 15  1  0
  6 16  2  0
 16 17  1  0
 17 18  2  0
 18 19  1  0
 19 20  1  0
 20 21  2  0
 21 22  1  0
 22 23  2  0
 23 24  1  0
 24 25  2  0
 24 26  2  0
 24 27  1  0
 27 28  1  0
 28 29  1  0
 29 30  1  0
 30 31  1  0
 31 32  1  0
 23 33  1  0
 33 34  2  0
 18  4  1  0
 34 20  1  0
 15 10  1  0
 32 27  1  0
  5 35  1  0
 11 36  1  0
 11 37  1  0
 12 38  1  0
 12 39  1  0
 13 40  1  0
 13 41  1  0
 14 42  1  0
 14 43  1  0
 15 44  1  0
 15 45  1  0
 16 46  1  0
 17 47  1  0
 21 48  1  0
 22 49  1  0
 27 50  1  0
 28 51  1  0
 28 52  1  0
 29 53  1  0
 29 54  1  0
 31 55  1  0
 31 56  1  0
 32 57  1  0
 32 58  1  0
 33 59  1  0
 34 60  1  0
M  CHG  3   2   1   3  -1  27   1
M  END
>  <UniqueID>  (42) 
39

>  <SMILES>  (42) 
O=[N+]([O-])c1cc(S(=O)(=O)N2CCCCC2)ccc1Sc1ccc(S(=O)(=O)[NH+]2CCOCC2)cc1

>  <Energy>  (42) 
74.27652150877118

>  <Genealogy>  (42) 
O=[N+]([O-])c1cc(S(=O)(=O)N2CCCCC2)ccc1Sc1ccc(S(=O)(=O)[NH+]2CCOCC2)cc1 (protonated)
O=[N+]([O-])c1cc(S(=O)(=O)N2CCCCC2)ccc1Sc1ccc(S(=O)(=O)[NH+]2CCOCC2)cc1 (3D coordinates assigned)
O=[N+]([O-])c1cc(S(=O)(=O)N2CCCCC2)ccc1Sc1ccc(S(=O)(=O)[NH+]2CCOCC2)cc1 (nonaromatic ring conformer: 74.27652150877118 kcal/mol)

>  <smiles>  (42) 
O=[N+]([O-])c1cc(S(=O)(=O)N2CCCCC2)ccc1Sc1ccc(S(=O)(=O)N2CCOCC2)cc1

>  <score_type>  (42) 
oracle

>  <origin>  (42) 
adgpu

>  <m_score__min__energy>  (42) 
-10.49

>  <m_primary>  (42) 
energy

$$$$
42:0
     RDKit          3D

 66 69  0  0  0  0  0  0  0  0999 V2000
    0.2740   22.8120  -27.9960 C   0  0  0  0  0  0  0  0  0  0  0  0
   -0.5720   21.7510  -27.4380 N   0  0  0  0  0  0  0  0  0  0  0  0
   -1.1990   21.9520  -26.1300 C   0  0  0  0  0  0  0  0  0  0  0  0
   -0.8540   20.5460  -28.1780 C   0  0  0  0  0  0  0  0  0  0  0  0
   -1.0180   19.4640  -27.5510 O   0  0  0  0  0  0  0  0  0  0  0  0
   -0.9920   20.5500  -29.6520 C   0  0  0  0  0  0  0  0  0  0  0  0
   -0.2470   19.6500  -30.4330 C   0  0  0  0  0  0  0  0  0  0  0  0
   -0.3910   19.6390  -31.8230 C   0  0  0  0  0  0  0  0  0  0  0  0
   -1.2770   20.5230  -32.4440 C   0  0  0  0  0  0  0  0  0  0  0  0
   -2.0210   21.4290  -31.6840 C   0  0  0  0  0  0  0  0  0  0  0  0
   -2.8980   22.3070  -32.3390 O   0  0  0  0  0  0  0  0  0  0  0  0
   -4.2890   22.3020  -32.1650 C   0  0  0  0  0  0  0  0  0  0  0  0
   -5.0430   21.3240  -32.8190 C   0  0  0  0  0  0  0  0  0  0  0  0
   -6.4210   21.2380  -32.6150 C   0  0  0  0  0  0  0  0  0  0  0  0
   -7.0680   22.1330  -31.7470 C   0  0  0  0  0  0  0  0  0  0  0  0
   -8.5620   22.0570  -31.5590 C   0  0  0  0  0  0  0  0  0  0  0  0
   -8.8770   21.9350  -30.2160 F   0  0  0  0  0  0  0  0  0  0  0  0
   -9.0500   20.9530  -32.2350 F   0  0  0  0  0  0  0  0  0  0  0  0
   -9.1790   23.1970  -32.0490 F   0  0  0  0  0  0  0  0  0  0  0  0
   -6.3180   23.1520  -31.1340 C   0  0  0  0  0  0  0  0  0  0  0  0
   -4.9410   23.2600  -31.3580 C   0  0  0  0  0  0  0  0  0  0  0  0
   -4.2270   24.3400  -30.7440 N   0  0  0  0  0  0  0  0  0  0  0  0
   -3.4600   24.2460  -29.5400 C   0  0  0  0  0  0  0  0  0  0  0  0
   -3.7490   23.3470  -28.7040 O   0  0  0  0  0  0  0  0  0  0  0  0
   -2.3790   25.1570  -29.2790 N   0  0  0  0  0  0  0  0  0  0  0  0
   -1.8780   25.4820  -27.9670 C   0  0  0  0  0  0  0  0  0  0  0  0
   -0.6170   26.0880  -27.8470 C   0  0  0  0  0  0  0  0  0  0  0  0
   -0.1340   26.4920  -26.6010 C   0  0  0  0  0  0  0  0  0  0  0  0
   -0.9120   26.3100  -25.4470 C   0  0  0  0  0  0  0  0  0  0  0  0
   -0.4190   26.7610  -24.1250 C   0  0  0  0  0  0  0  0  0  0  0  0
   -0.9200   26.2780  -23.0760 O   0  0  0  0  0  0  0  0  0  0  0  0
    0.5570   27.8130  -24.0160 N   0  0  0  0  0  0  0  0  0  0  0  0
    1.7640   27.6190  -23.2120 C   0  0  0  0  0  0  0  0  0  0  0  0
    2.1280   28.9350  -22.5160 C   0  0  0  0  0  0  0  0  0  0  0  0
    2.2070   29.9930  -23.4570 O   0  0  0  0  0  0  0  0  0  0  0  0
    0.9280   30.2350  -24.0160 C   0  0  0  0  0  0  0  0  0  0  0  0
    0.4480   29.0270  -24.8310 C   0  0  0  0  0  0  0  0  0  0  0  0
   -2.1660   25.6870  -25.5570 C   0  0  0  0  0  0  0  0  0  0  0  0
   -2.6530   25.2930  -26.8080 C   0  0  0  0  0  0  0  0  0  0  0  0
   -1.8970   21.4210  -30.2820 C   0  0  0  0  0  0  0  0  0  0  0  0
    0.7313   23.3855  -27.1763 H   0  0  0  0  0  0  0  0  0  0  0  0
    1.0647   22.3630  -28.6150 H   0  0  0  0  0  0  0  0  0  0  0  0
   -0.3398   23.4829  -28.6150 H   0  0  0  0  0  0  0  0  0  0  0  0
   -0.4739   21.7195  -25.3362 H   0  0  0  0  0  0  0  0  0  0  0  0
   -1.5229   22.9990  -26.0356 H   0  0  0  0  0  0  0  0  0  0  0  0
   -2.0712   21.2884  -26.0356 H   0  0  0  0  0  0  0  0  0  0  0  0
    0.4517   18.9520  -29.9487 H   0  0  0  0  0  0  0  0  0  0  0  0
    0.1946   18.9326  -32.4297 H   0  0  0  0  0  0  0  0  0  0  0  0
   -1.3895   20.5055  -33.5381 H   0  0  0  0  0  0  0  0  0  0  0  0
   -4.5467   20.6166  -33.4997 H   0  0  0  0  0  0  0  0  0  0  0  0
   -7.0038   20.4648  -33.1370 H   0  0  0  0  0  0  0  0  0  0  0  0
   -6.8193   23.8724  -30.4709 H   0  0  0  0  0  0  0  0  0  0  0  0
   -1.9370   25.6440  -30.0870 H   0  0  0  0  0  0  0  0  0  0  0  0
   -0.0024   26.2463  -28.7455 H   0  0  0  0  0  0  0  0  0  0  0  0
    0.8608   26.9550  -26.5233 H   0  0  0  0  0  0  0  0  0  0  0  0
    1.5801   26.8421  -22.4553 H   0  0  0  0  0  0  0  0  0  0  0  0
    2.5933   27.3058  -23.8633 H   0  0  0  0  0  0  0  0  0  0  0  0
    1.3574   29.1734  -21.7681 H   0  0  0  0  0  0  0  0  0  0  0  0
    3.1079   28.8194  -22.0298 H   0  0  0  0  0  0  0  0  0  0  0  0
    0.2114   30.4293  -23.2044 H   0  0  0  0  0  0  0  0  0  0  0  0
    0.9965   31.1052  -24.6854 H   0  0  0  0  0  0  0  0  0  0  0  0
   -0.6009   29.1774  -25.1264 H   0  0  0  0  0  0  0  0  0  0  0  0
    1.0710   28.9213  -25.7314 H   0  0  0  0  0  0  0  0  0  0  0  0
   -2.7687   25.5078  -24.6544 H   0  0  0  0  0  0  0  0  0  0  0  0
   -3.6488   24.8322  -26.8860 H   0  0  0  0  0  0  0  0  0  0  0  0
   -2.5128   22.1013  -29.6753 H   0  0  0  0  0  0  0  0  0  0  0  0
  1  2  1  0
  2  3  1  0
  2  4  1  0
  4  5  2  0
  4  6  1  0
  6  7  2  0
  7  8  1  0
  8  9  2  0
  9 10  1  0
 10 11  1  0
 11 12  1  0
 12 13  2  0
 13 14  1  0
 14 15  2  0
 15 16  1  0
 16 17  1  0
 16 18  1  0
 16 19  1  0
 15 20  1  0
 20 21  2  0
 21 22  1  0
 22 23  1  0
 23 24  2  0
 23 25  1  0
 25 26  1  0
 26 27  2  0
 27 28  1  0
 28 29  2  0
 29 30  1  0
 30 31  2  0
 30 32  1  0
 32 33  1  0
 33 34  1  0
 34 35  1  0
 35 36  1  0
 36 37  1  0
 29 38  1  0
 38 39  2  0
 10 40  2  0
 40  6  1  0
 21 12  1  0
 39 26  1  0
 37 32  1  0
  1 41  1  0
  1 42  1  0
  1 43  1  0
  3 44  1  0
  3 45  1  0
  3 46  1  0
  7 47  1  0
  8 48  1  0
  9 49  1  0
 13 50  1  0
 14 51  1  0
 20 52  1  0
 25 53  1  0
 27 54  1  0
 28 55  1  0
 33 56  1  0
 33 57  1  0
 34 58  1  0
 34 59  1  0
 36 60  1  0
 36 61  1  0
 37 62  1  0
 37 63  1  0
 38 64  1  0
 39 65  1  0
 40 66  1  0
M  CHG  1  22  -1
M  END
>  <UniqueID>  (43) 
40

>  <SMILES>  (43) 
CN(C)C(=O)c1cccc(Oc2ccc(C(F)(F)F)cc2[N-]C(=O)Nc2ccc(C(=O)N3CCOCC3)cc2)c1

>  <Energy>  (43) 
95.65870833160776

>  <Genealogy>  (43) 
CN(C)C(=O)c1cccc(Oc2ccc(C(F)(F)F)cc2[N-]C(=O)Nc2ccc(C(=O)N3CCOCC3)cc2)c1 (protonated)
CN(C)C(=O)c1cccc(Oc2ccc(C(F)(F)F)cc2[N-]C(=O)Nc2ccc(C(=O)N3CCOCC3)cc2)c1 (3D coordinates assigned)
CN(C)C(=O)c1cccc(Oc2ccc(C(F)(F)F)cc2[N-]C(=O)Nc2ccc(C(=O)N3CCOCC3)cc2)c1 (nonaromatic ring conformer: 95.65870833160776 kcal/mol)

>  <smiles>  (43) 
CN(C)C(=O)c1cccc(Oc2ccc(C(F)(F)F)cc2NC(=O)Nc2ccc(C(=O)N3CCOCC3)cc2)c1

>  <score_type>  (43) 
oracle

>  <origin>  (43) 
adgpu

>  <m_score__min__energy>  (43) 
-11.01

>  <m_primary>  (43) 
energy

$$$$
43:0
     RDKit          3D

 47 50  0  0  0  0  0  0  0  0999 V2000
   -6.4530   25.8970  -29.3640 C   0  0  0  0  0  0  0  0  0  0  0  0
   -5.7870   24.6800  -29.8080 N   0  0  0  0  0  0  0  0  0  0  0  0
   -6.3920   23.7940  -30.7600 C   0  0  0  0  0  0  0  0  0  0  0  0
   -7.5800   23.9900  -31.1350 O   0  0  0  0  0  0  0  0  0  0  0  0
   -5.6450   22.6290  -31.2900 C   0  0  0  0  0  0  0  0  0  0  0  0
   -4.2310   22.6420  -31.3670 C   0  0  0  0  0  0  0  0  0  0  0  0
   -3.5220   23.8260  -30.9690 N   0  0  0  0  0  0  0  0  0  0  0  0
   -2.8990   24.0820  -29.7010 C   0  0  0  0  0  0  0  0  0  0  0  0
   -2.7690   25.2810  -29.3420 O   0  0  0  0  0  0  0  0  0  0  0  0
   -2.4710   22.9980  -28.7760 C   0  0  0  0  0  0  0  0  0  0  0  0
   -3.0010   21.7190  -28.7070 C   0  0  0  0  0  0  0  0  0  0  0  0
   -2.3620   21.1370  -27.6330 C   0  0  0  0  0  0  0  0  0  0  0  0
   -2.6450   19.5170  -27.0330 Cl  0  0  0  0  0  0  0  0  0  0  0  0
   -1.5110   22.0110  -27.0690 N   0  0  0  0  0  0  0  0  0  0  0  0
   -1.5710   23.1310  -27.7690 N   0  0  0  0  0  0  0  0  0  0  0  0
   -0.8530   24.3110  -27.3870 C   0  0  0  0  0  0  0  0  0  0  0  0
    0.4420   24.4530  -27.7820 N   0  0  0  0  0  0  0  0  0  0  0  0
    1.1770   25.5500  -27.4570 C   0  0  0  0  0  0  0  0  0  0  0  0
    0.6040   26.5770  -26.7050 C   0  0  0  0  0  0  0  0  0  0  0  0
   -0.7270   26.4660  -26.3010 C   0  0  0  0  0  0  0  0  0  0  0  0
   -1.4700   25.3330  -26.6430 C   0  0  0  0  0  0  0  0  0  0  0  0
   -3.1600   25.2420  -26.1770 Cl  0  0  0  0  0  0  0  0  0  0  0  0
   -3.5480   21.5320  -31.9270 C   0  0  0  0  0  0  0  0  0  0  0  0
   -2.0570   21.5250  -32.1130 C   0  0  0  0  0  0  0  0  0  0  0  0
   -4.2750   20.3940  -32.3090 C   0  0  0  0  0  0  0  0  0  0  0  0
   -5.6620   20.3720  -32.1990 C   0  0  0  0  0  0  0  0  0  0  0  0
   -6.3500   21.4940  -31.7250 C   0  0  0  0  0  0  0  0  0  0  0  0
   -7.7510   21.4480  -31.6750 O   0  0  0  0  0  0  0  0  0  0  0  0
   -8.4870   20.4240  -32.3480 C   0  0  0  0  0  0  0  0  0  0  0  0
   -7.7610   19.0810  -32.2140 C   0  0  0  0  0  0  0  0  0  0  0  0
   -6.3840   19.2300  -32.5640 O   0  0  0  0  0  0  0  0  0  0  0  0
   -6.4689   25.9260  -28.2645 H   0  0  0  0  0  0  0  0  0  0  0  0
   -5.9086   26.7732  -29.7461 H   0  0  0  0  0  0  0  0  0  0  0  0
   -7.4844   25.9108  -29.7461 H   0  0  0  0  0  0  0  0  0  0  0  0
   -4.8610   24.4370  -29.3910 H   0  0  0  0  0  0  0  0  0  0  0  0
   -3.7613   21.2691  -29.3625 H   0  0  0  0  0  0  0  0  0  0  0  0
    2.2235   25.6281  -27.7868 H   0  0  0  0  0  0  0  0  0  0  0  0
    1.1952   27.4641  -26.4339 H   0  0  0  0  0  0  0  0  0  0  0  0
   -1.1917   27.2710  -25.7128 H   0  0  0  0  0  0  0  0  0  0  0  0
   -1.5648   21.5227  -31.1293 H   0  0  0  0  0  0  0  0  0  0  0  0
   -1.7616   20.6255  -32.6729 H   0  0  0  0  0  0  0  0  0  0  0  0
   -1.7531   22.4217  -32.6729 H   0  0  0  0  0  0  0  0  0  0  0  0
   -3.7443   19.5126  -32.6984 H   0  0  0  0  0  0  0  0  0  0  0  0
   -9.4889   20.3424  -31.9014 H   0  0  0  0  0  0  0  0  0  0  0  0
   -8.5729   20.6827  -33.4137 H   0  0  0  0  0  0  0  0  0  0  0  0
   -7.8361   18.7290  -31.1746 H   0  0  0  0  0  0  0  0  0  0  0  0
   -8.2275   18.3505  -32.8913 H   0  0  0  0  0  0  0  0  0  0  0  0
  1  2  1  0
  2  3  1  0
  3  4  2  0
  3  5  1  0
  5  6  2  0
  6  7  1  0
  7  8  1  0
  8  9  2  0
  8 10  1  0
 10 11  2  0
 11 12  1  0
 12 13  1  0
 12 14  2  0
 14 15  1  0
 15 16  1  0
 16 17  2  0
 17 18  1  0
 18 19  2  0
 19 20  1  0
 20 21  2  0
 21 22  1  0
  6 23  1  0
 23 24  1  0
 23 25  2  0
 25 26  1  0
 26 27  2  0
 27 28  1  0
 28 29  1  0
 29 30  1  0
 30 31  1  0
 27  5  1  0
 15 10  1  0
 21 16  1  0
 31 26  1  0
  1 32  1  0
  1 33  1  0
  1 34  1  0
  2 35  1  0
 11 36  1  0
 18 37  1  0
 19 38  1  0
 20 39  1  0
 24 40  1  0
 24 41  1  0
 24 42  1  0
 25 43  1  0
 29 44  1  0
 29 45  1  0
 30 46  1  0
 30 47  1  0
M  CHG  1   7  -1
M  END
>  <UniqueID>  (44) 
41

>  <SMILES>  (44) 
CNC(=O)c1c([N-]C(=O)c2cc(Cl)nn2-c2ncccc2Cl)c(C)cc2c1OCCO2

>  <Energy>  (44) 
100.65371364798104

>  <Genealogy>  (44) 
CNC(=O)c1c([N-]C(=O)c2cc(Cl)nn2-c2ncccc2Cl)c(C)cc2c1OCCO2 (protonated)
CNC(=O)c1c([N-]C(=O)c2cc(Cl)nn2-c2ncccc2Cl)c(C)cc2c1OCCO2 (3D coordinates assigned)
CNC(=O)c1c([N-]C(=O)c2cc(Cl)nn2-c2ncccc2Cl)c(C)cc2c1OCCO2 (nonaromatic ring conformer: 100.65371364798104 kcal/mol)

>  <smiles>  (44) 
CNC(=O)c1c(NC(=O)c2cc(Cl)nn2-c2ncccc2Cl)c(C)cc2c1OCCO2

>  <score_type>  (44) 
oracle

>  <origin>  (44) 
adgpu

>  <m_score__min__energy>  (44) 
-10.31

>  <m_primary>  (44) 
energy

$$$$
44:0
     RDKit          3D

 50 53  0  0  0  0  0  0  0  0999 V2000
   -1.2390   25.6590  -29.3250 O   0  0  0  0  0  0  0  0  0  0  0  0
   -2.2880   24.5860  -29.2520 S   0  0  0  0  0  0  0  0  0  0  0  0
   -2.9420   24.6260  -27.9010 O   0  0  0  0  0  0  0  0  0  0  0  0
   -3.4900   24.8820  -30.4680 N   0  0  0  0  0  0  0  0  0  0  0  0
   -4.6850   24.1090  -30.6550 C   0  0  0  0  0  0  0  0  0  0  0  0
   -4.7650   23.0870  -31.6190 C   0  0  0  0  0  0  0  0  0  0  0  0
   -5.9510   22.3720  -31.7960 C   0  0  0  0  0  0  0  0  0  0  0  0
   -7.0680   22.6480  -30.9870 C   0  0  0  0  0  0  0  0  0  0  0  0
   -6.9920   23.6690  -30.0300 C   0  0  0  0  0  0  0  0  0  0  0  0
   -5.8050   24.3940  -29.8590 C   0  0  0  0  0  0  0  0  0  0  0  0
   -5.7330   25.4020  -28.9010 O   0  0  0  0  0  0  0  0  0  0  0  0
   -8.3570   21.8920  -31.1940 C   0  0  0  0  0  0  0  0  0  0  0  0
   -8.1180   20.5410  -31.8830 C   0  0  0  0  0  0  0  0  0  0  0  0
   -7.2400   20.7270  -33.1220 C   0  0  0  0  0  0  0  0  0  0  0  0
   -6.0140   21.3630  -32.7660 O   0  0  0  0  0  0  0  0  0  0  0  0
   -1.5280   23.0210  -29.5220 C   0  0  0  0  0  0  0  0  0  0  0  0
   -1.0310   22.2810  -28.4400 C   0  0  0  0  0  0  0  0  0  0  0  0
   -0.4680   21.0190  -28.6530 C   0  0  0  0  0  0  0  0  0  0  0  0
   -0.4010   20.4900  -29.9440 C   0  0  0  0  0  0  0  0  0  0  0  0
   -0.8940   21.2240  -31.0320 C   0  0  0  0  0  0  0  0  0  0  0  0
   -0.8080   20.5640  -32.6620 S   0  0  0  0  0  0  0  0  0  0  0  0
   -0.0560   21.5140  -33.5530 O   0  0  0  0  0  0  0  0  0  0  0  0
   -0.0680   19.2550  -32.6280 O   0  0  0  0  0  0  0  0  0  0  0  0
   -2.4240   20.3020  -33.2680 N   0  0  0  0  0  0  0  0  0  0  0  0
   -2.4660   19.1630  -34.1850 C   0  0  0  0  0  0  0  0  0  0  0  0
   -3.8740   18.6130  -34.1100 C   0  0  0  0  0  0  0  0  0  0  0  0
   -4.3260   18.9240  -32.6960 C   0  0  0  0  0  0  0  0  0  0  0  0
   -3.3630   19.9920  -32.1850 C   0  0  0  0  0  0  0  0  0  0  0  0
   -1.4430   22.4950  -30.8180 C   0  0  0  0  0  0  0  0  0  0  0  0
   -3.8868   22.8498  -32.2375 H   0  0  0  0  0  0  0  0  0  0  0  0
   -7.8695   23.9027  -29.4092 H   0  0  0  0  0  0  0  0  0  0  0  0
   -4.8600   25.6410  -28.4450 H   0  0  0  0  0  0  0  0  0  0  0  0
   -8.8276   21.7150  -30.2156 H   0  0  0  0  0  0  0  0  0  0  0  0
   -9.0092   22.4966  -31.8413 H   0  0  0  0  0  0  0  0  0  0  0  0
   -7.6158   19.8591  -31.1810 H   0  0  0  0  0  0  0  0  0  0  0  0
   -9.0862   20.1186  -32.1897 H   0  0  0  0  0  0  0  0  0  0  0  0
   -7.0239   19.7437  -33.5651 H   0  0  0  0  0  0  0  0  0  0  0  0
   -7.7735   21.3573  -33.8486 H   0  0  0  0  0  0  0  0  0  0  0  0
   -1.0840   22.6939  -27.4218 H   0  0  0  0  0  0  0  0  0  0  0  0
   -0.0771   20.4416  -27.8022 H   0  0  0  0  0  0  0  0  0  0  0  0
    0.0395   19.4954  -30.1074 H   0  0  0  0  0  0  0  0  0  0  0  0
   -2.2384   19.4902  -35.2103 H   0  0  0  0  0  0  0  0  0  0  0  0
   -1.7223   18.4001  -33.9113 H   0  0  0  0  0  0  0  0  0  0  0  0
   -4.5252   19.1090  -34.8447 H   0  0  0  0  0  0  0  0  0  0  0  0
   -3.9165   17.5374  -34.3366 H   0  0  0  0  0  0  0  0  0  0  0  0
   -5.3576   19.3057  -32.6975 H   0  0  0  0  0  0  0  0  0  0  0  0
   -4.3166   18.0277  -32.0584 H   0  0  0  0  0  0  0  0  0  0  0  0
   -3.9221   20.8966  -31.9037 H   0  0  0  0  0  0  0  0  0  0  0  0
   -2.8219   19.6299  -31.2984 H   0  0  0  0  0  0  0  0  0  0  0  0
   -1.8094   23.0834  -31.6722 H   0  0  0  0  0  0  0  0  0  0  0  0
  1  2  2  0
  2  3  2  0
  2  4  1  0
  4  5  1  0
  5  6  2  0
  6  7  1  0
  7  8  2  0
  8  9  1  0
  9 10  2  0
 10 11  1  0
  8 12  1  0
 12 13  1  0
 13 14  1  0
 14 15  1  0
  2 16  1  0
 16 17  2  0
 17 18  1  0
 18 19  2  0
 19 20  1  0
 20 21  1  0
 21 22  2  0
 21 23  2  0
 21 24  1  0
 24 25  1  0
 25 26  1  0
 26 27  1  0
 27 28  1  0
 20 29  2  0
 10  5  1  0
 29 16  1  0
 15  7  1  0
 28 24  1  0
  6 30  1  0
  9 31  1  0
 11 32  1  0
 12 33  1  0
 12 34  1  0
 13 35  1  0
 13 36  1  0
 14 37  1  0
 14 38  1  0
 17 39  1  0
 18 40  1  0
 19 41  1  0
 25 42  1  0
 25 43  1  0
 26 44  1  0
 26 45  1  0
 27 46  1  0
 27 47  1  0
 28 48  1  0
 28 49  1  0
 29 50  1  0
M  CHG  1   4  -1
M  END
>  <UniqueID>  (45) 
42

>  <SMILES>  (45) 
O=S(=O)([N-]c1cc2c(cc1O)CCCO2)c1cccc(S(=O)(=O)N2CCCC2)c1

>  <Energy>  (45) 
54.568648922939104

>  <Genealogy>  (45) 
O=S(=O)([N-]c1cc2c(cc1O)CCCO2)c1cccc(S(=O)(=O)N2CCCC2)c1 (protonated)
O=S(=O)([N-]c1cc2c(cc1O)CCCO2)c1cccc(S(=O)(=O)N2CCCC2)c1 (3D coordinates assigned)
O=S(=O)([N-]c1cc2c(cc1O)CCCO2)c1cccc(S(=O)(=O)N2CCCC2)c1 (nonaromatic ring conformer: 54.568648922939104 kcal/mol)

>  <smiles>  (45) 
O=S(=O)(Nc1cc2c(cc1O)CCCO2)c1cccc(S(=O)(=O)N2CCCC2)c1

>  <score_type>  (45) 
oracle

>  <origin>  (45) 
adgpu

>  <m_score__min__energy>  (45) 
-12.140000000000001

>  <m_primary>  (45) 
energy

$$$$
45:0
     RDKit          3D

 54 58  0  0  0  0  0  0  0  0999 V2000
   -5.5640   26.4420  -28.8610 H   0  0  0  0  0  0  0  0  0  0  0  0
   -6.2410   25.9760  -29.4530 O   0  0  0  0  0  0  0  0  0  0  0  0
   -5.9150   24.8300  -30.1780 C   0  0  0  0  0  0  0  0  0  0  0  0
   -4.5720   24.4610  -30.3640 C   0  0  0  0  0  0  0  0  0  0  0  0
   -3.4880   25.2770  -29.8970 N   0  0  0  0  0  0  0  0  0  0  0  0
   -2.3320   24.8200  -29.1800 C   0  0  0  0  0  0  0  0  0  0  0  0
   -1.6140   23.9260  -29.7030 O   0  0  0  0  0  0  0  0  0  0  0  0
   -1.9360   25.3970  -27.8730 C   0  0  0  0  0  0  0  0  0  0  0  0
   -2.6770   25.1270  -26.7080 C   0  0  0  0  0  0  0  0  0  0  0  0
   -3.5651   24.4802  -26.7623 H   0  0  0  0  0  0  0  0  0  0  0  0
   -2.2910   25.6760  -25.4820 C   0  0  0  0  0  0  0  0  0  0  0  0
   -2.8709   25.4535  -24.5741 H   0  0  0  0  0  0  0  0  0  0  0  0
   -1.1700   26.5070  -25.4070 C   0  0  0  0  0  0  0  0  0  0  0  0
   -0.8652   26.9340  -24.4402 H   0  0  0  0  0  0  0  0  0  0  0  0
   -0.4370   26.7950  -26.5600 C   0  0  0  0  0  0  0  0  0  0  0  0
    0.4424   27.4531  -26.5013 H   0  0  0  0  0  0  0  0  0  0  0  0
   -0.8190   26.2480  -27.7900 C   0  0  0  0  0  0  0  0  0  0  0  0
   -0.2429   26.4847  -28.6967 H   0  0  0  0  0  0  0  0  0  0  0  0
   -4.2670   23.2530  -31.0040 C   0  0  0  0  0  0  0  0  0  0  0  0
   -3.2137   22.9713  -31.1495 H   0  0  0  0  0  0  0  0  0  0  0  0
   -5.2860   22.3880  -31.4670 C   0  0  0  0  0  0  0  0  0  0  0  0
   -5.0400   21.1280  -32.1010 C   0  0  0  0  0  0  0  0  0  0  0  0
   -3.9080   20.4690  -32.0350 N   0  0  0  0  0  0  0  0  0  0  0  0
   -2.7880   20.6370  -31.1550 C   0  0  0  0  0  0  0  0  0  0  0  0
   -1.5470   21.0770  -31.6430 C   0  0  0  0  0  0  0  0  0  0  0  0
   -1.4158   21.2625  -32.7193 H   0  0  0  0  0  0  0  0  0  0  0  0
   -0.4780   21.2800  -30.7660 C   0  0  0  0  0  0  0  0  0  0  0  0
    0.5008   21.5915  -31.1596 H   0  0  0  0  0  0  0  0  0  0  0  0
   -0.6460   21.0890  -29.3890 C   0  0  0  0  0  0  0  0  0  0  0  0
    0.4560   21.2840  -28.5440 O   0  0  0  0  0  0  0  0  0  0  0  0
    0.4710   22.1020  -27.4040 C   0  0  0  0  0  0  0  0  0  0  0  0
   -0.4680   21.8620  -26.3910 C   0  0  0  0  0  0  0  0  0  0  0  0
   -1.2035   21.0523  -26.5070 H   0  0  0  0  0  0  0  0  0  0  0  0
   -0.4740   22.6470  -25.2340 C   0  0  0  0  0  0  0  0  0  0  0  0
   -1.2199   22.4599  -24.4475 H   0  0  0  0  0  0  0  0  0  0  0  0
    0.4660   23.6690  -25.0750 C   0  0  0  0  0  0  0  0  0  0  0  0
    0.4566   24.2884  -24.1660 H   0  0  0  0  0  0  0  0  0  0  0  0
    1.4180   23.9040  -26.0710 C   0  0  0  0  0  0  0  0  0  0  0  0
    2.1605   24.7056  -25.9437 H   0  0  0  0  0  0  0  0  0  0  0  0
    1.4270   23.1200  -27.2300 C   0  0  0  0  0  0  0  0  0  0  0  0
    2.1838   23.3000  -28.0077 H   0  0  0  0  0  0  0  0  0  0  0  0
   -1.8950   20.6670  -28.9000 C   0  0  0  0  0  0  0  0  0  0  0  0
   -2.0322   20.4973  -27.8219 H   0  0  0  0  0  0  0  0  0  0  0  0
   -2.9640   20.4620  -29.7790 C   0  0  0  0  0  0  0  0  0  0  0  0
   -3.9467   20.1620  -29.3861 H   0  0  0  0  0  0  0  0  0  0  0  0
   -6.0970   20.5200  -32.8110 C   0  0  0  0  0  0  0  0  0  0  0  0
   -5.9020   19.2900  -33.5450 C   0  0  0  0  0  0  0  0  0  0  0  0
   -5.7440   18.3050  -34.1320 N   0  0  0  0  0  0  0  0  0  0  0  0
   -7.3850   21.0540  -32.7390 C   0  0  0  0  0  0  0  0  0  0  0  0
   -8.2128   20.5596  -33.2684 H   0  0  0  0  0  0  0  0  0  0  0  0
   -7.6200   22.1770  -32.0210 N   0  0  0  0  0  0  0  0  0  0  0  0
   -6.6240   22.8560  -31.3980 C   0  0  0  0  0  0  0  0  0  0  0  0
   -6.9300   24.0410  -30.7240 C   0  0  0  0  0  0  0  0  0  0  0  0
   -7.9793   24.3553  -30.6225 H   0  0  0  0  0  0  0  0  0  0  0  0
  1  2  1  0
  2  3  1  0
  3  4  2  0
  4  5  1  0
  5  6  1  0
  6  7  2  0
  6  8  1  0
  8  9  2  0
  9 10  1  0
  9 11  1  0
 11 12  1  0
 11 13  2  0
 13 14  1  0
 13 15  1  0
 15 16  1  0
 15 17  2  0
 17 18  1  0
  4 19  1  0
 19 20  1  0
 19 21  2  0
 21 22  1  0
 22 23  2  0
 23 24  1  0
 24 25  2  0
 25 26  1  0
 25 27  1  0
 27 28  1  0
 27 29  2  0
 29 30  1  0
 30 31  1  0
 31 32  2  0
 32 33  1  0
 32 34  1  0
 34 35  1  0
 34 36  2  0
 36 37  1  0
 36 38  1  0
 38 39  1  0
 38 40  2  0
 40 41  1  0
 29 42  1  0
 42 43  1  0
 42 44  2  0
 44 45  1  0
 22 46  1  0
 46 47  1  0
 47 48  3  0
 46 49  2  0
 49 50  1  0
 49 51  1  0
 51 52  1  0
 52 53  2  0
 53 54  1  0
 53  3  1  0
 17  8  1  0
 52 21  1  0
 44 24  1  0
 40 31  1  0
M  CHG  2   5  -1  51  -1
M  END
>  <UniqueID>  (46) 
43

>  <SMILES>  (46) 
N#Cc1c[n-]c2cc(O)c([N-]C(=O)c3ccccc3)cc2/c1=N\c1ccc(Oc2ccccc2)cc1

>  <Energy>  (46) 
99.93422948376262

>  <Genealogy>  (46) 
N#Cc1c[n-]c2cc(O)c([N-]C(=O)c3ccccc3)cc2c1=Nc1ccc(Oc2ccccc2)cc1 (protonated)
N#Cc1c[n-]c2cc(O)c([N-]C(=O)c3ccccc3)cc2/c1=N\c1ccc(Oc2ccccc2)cc1 (cis-trans isomerization)
N#Cc1c[n-]c2cc(O)c([N-]C(=O)c3ccccc3)cc2/c1=N\c1ccc(Oc2ccccc2)cc1 (3D coordinates assigned)
N#Cc1c[n-]c2cc(O)c([N-]C(=O)c3ccccc3)cc2/c1=N\c1ccc(Oc2ccccc2)cc1 (optimized conformer: 99.93422948376262 kcal/mol)

>  <smiles>  (46) 
N#Cc1c[nH]c2cc(O)c(NC(=O)c3ccccc3)cc2c1=Nc1ccc(Oc2ccccc2)cc1

>  <score_type>  (46) 
oracle

>  <origin>  (46) 
adgpu

>  <m_score__min__energy>  (46) 
-10.9

>  <m_primary>  (46) 
energy

$$$$
46:0
     RDKit          3D

 54 56  0  0  0  0  0  0  0  0999 V2000
   -0.5130   27.5390  -27.3770 C   0  0  0  0  0  0  0  0  0  0  0  0
   -1.0800   26.9710  -28.5900 N   0  0  0  0  0  0  0  0  0  0  0  0
   -1.0990   25.5650  -28.8500 C   0  0  0  0  0  0  0  0  0  0  0  0
   -0.0680   24.8790  -28.6340 O   0  0  0  0  0  0  0  0  0  0  0  0
   -2.2820   24.9330  -29.3410 N   0  0  0  0  0  0  0  0  0  0  0  0
   -2.3620   23.4860  -29.5370 C   0  0  1  0  0  0  0  0  0  0  0  0
   -2.1800   22.7460  -28.1940 C   0  0  0  0  0  0  0  0  0  0  0  0
   -2.4930   21.2360  -28.2710 C   0  0  0  0  0  0  0  0  0  0  0  0
   -1.9280   20.6110  -29.5280 C   0  0  0  0  0  0  0  0  0  0  0  0
   -0.8350   19.7440  -29.4340 C   0  0  0  0  0  0  0  0  0  0  0  0
   -0.2680   19.1720  -30.5840 C   0  0  0  0  0  0  0  0  0  0  0  0
    0.8000   18.2630  -30.5100 O   0  0  0  0  0  0  0  0  0  0  0  0
    0.6730   16.8520  -30.6470 C   0  0  0  0  0  0  0  0  0  0  0  0
   -0.7660   19.5080  -31.8510 C   0  0  0  0  0  0  0  0  0  0  0  0
   -0.1550   18.8890  -32.9580 O   0  0  0  0  0  0  0  0  0  0  0  0
    1.1160   19.2190  -33.5090 C   0  0  0  0  0  0  0  0  0  0  0  0
   -1.8270   20.4380  -31.9640 C   0  0  0  0  0  0  0  0  0  0  0  0
   -2.2400   20.8810  -33.2240 O   0  0  0  0  0  0  0  0  0  0  0  0
   -2.7520   19.9830  -34.2050 C   0  0  0  0  0  0  0  0  0  0  0  0
   -2.4580   20.9410  -30.8000 C   0  0  0  0  0  0  0  0  0  0  0  0
   -3.6720   21.8240  -30.9040 C   0  0  0  0  0  0  0  0  0  0  0  0
   -4.7270   21.2850  -31.6500 C   0  0  0  0  0  0  0  0  0  0  0  0
   -5.9560   21.8320  -31.9810 C   0  0  0  0  0  0  0  0  0  0  0  0
   -6.5770   22.9720  -31.4890 C   0  0  0  0  0  0  0  0  0  0  0  0
   -8.2210   23.3040  -32.1660 S   0  0  0  0  0  0  0  0  0  0  0  0
   -8.9410   21.7550  -31.5370 C   0  0  0  0  0  0  0  0  0  0  0  0
   -6.0840   23.8510  -30.5190 C   0  0  0  0  0  0  0  0  0  0  0  0
   -6.8680   24.7530  -30.1110 O   0  0  0  0  0  0  0  0  0  0  0  0
   -4.8050   23.8650  -29.9620 C   0  0  0  0  0  0  0  0  0  0  0  0
   -3.6720   23.0680  -30.2180 C   0  0  0  0  0  0  0  0  0  0  0  0
   -0.9811   27.0701  -26.4990 H   0  0  0  0  0  0  0  0  0  0  0  0
    0.5711   27.3537  -27.3573 H   0  0  0  0  0  0  0  0  0  0  0  0
   -0.7002   28.6228  -27.3573 H   0  0  0  0  0  0  0  0  0  0  0  0
   -1.5416   23.1995  -30.2114 H   0  0  0  0  0  0  0  0  0  0  0  0
   -1.1364   22.8684  -27.8685 H   0  0  0  0  0  0  0  0  0  0  0  0
   -2.8950   23.1871  -27.4840 H   0  0  0  0  0  0  0  0  0  0  0  0
   -2.0535   20.7357  -27.3955 H   0  0  0  0  0  0  0  0  0  0  0  0
   -3.5859   21.1126  -28.2880 H   0  0  0  0  0  0  0  0  0  0  0  0
   -0.4138   19.5069  -28.4459 H   0  0  0  0  0  0  0  0  0  0  0  0
    0.6313   16.3891  -29.6500 H   0  0  0  0  0  0  0  0  0  0  0  0
   -0.2498   16.6187  -31.1984 H   0  0  0  0  0  0  0  0  0  0  0  0
    1.5393   16.4577  -31.1984 H   0  0  0  0  0  0  0  0  0  0  0  0
    1.8316   19.4048  -32.6946 H   0  0  0  0  0  0  0  0  0  0  0  0
    1.4748   18.3842  -34.1290 H   0  0  0  0  0  0  0  0  0  0  0  0
    1.0234   20.1229  -34.1290 H   0  0  0  0  0  0  0  0  0  0  0  0
   -3.2373   19.1318  -33.7051 H   0  0  0  0  0  0  0  0  0  0  0  0
   -3.4872   20.5069  -34.8335 H   0  0  0  0  0  0  0  0  0  0  0  0
   -1.9267   19.6172  -34.8335 H   0  0  0  0  0  0  0  0  0  0  0  0
   -4.5529   20.2687  -32.0331 H   0  0  0  0  0  0  0  0  0  0  0  0
   -6.5233   21.2821  -32.7463 H   0  0  0  0  0  0  0  0  0  0  0  0
   -8.9350   21.7680  -30.4371 H   0  0  0  0  0  0  0  0  0  0  0  0
   -9.9760   21.6591  -31.8969 H   0  0  0  0  0  0  0  0  0  0  0  0
   -8.3471   20.9019  -31.8969 H   0  0  0  0  0  0  0  0  0  0  0  0
   -4.6551   24.6321  -29.1880 H   0  0  0  0  0  0  0  0  0  0  0  0
  1  2  1  0
  2  3  1  0
  3  4  2  0
  3  5  1  0
  5  6  1  0
  6  7  1  0
  7  8  1  0
  8  9  1  0
  9 10  2  0
 10 11  1  0
 11 12  1  0
 12 13  1  0
 11 14  2  0
 14 15  1  0
 15 16  1  0
 14 17  1  0
 17 18  1  0
 18 19  1  0
 17 20  2  0
 20 21  1  0
 21 22  2  0
 22 23  1  0
 23 24  2  0
 24 25  1  0
 25 26  1  0
 24 27  1  0
 27 28  2  0
 27 29  1  0
 29 30  2  0
 30  6  1  0
 20  9  1  0
 30 21  1  0
  1 31  1  0
  1 32  1  0
  1 33  1  0
  6 34  1  6
  7 35  1  0
  7 36  1  0
  8 37  1  0
  8 38  1  0
 10 39  1  0
 13 40  1  0
 13 41  1  0
 13 42  1  0
 16 43  1  0
 16 44  1  0
 16 45  1  0
 19 46  1  0
 19 47  1  0
 19 48  1  0
 22 49  1  0
 23 50  1  0
 26 51  1  0
 26 52  1  0
 26 53  1  0
 29 54  1  0
M  CHG  2   2  -1   5  -1
M  END
>  <UniqueID>  (47) 
44

>  <SMILES>  (47) 
C[N-]C(=O)[N-][C@H]1CCc2cc(OC)c(OC)c(OC)c2-c2ccc(SC)c(=O)cc21

>  <Energy>  (47) 
102.16018645699886

>  <Genealogy>  (47) 
C[N-]C(=O)[N-]C1CCc2cc(OC)c(OC)c(OC)c2-c2ccc(SC)c(=O)cc21 (protonated)
C[N-]C(=O)[N-][C@H]1CCc2cc(OC)c(OC)c(OC)c2-c2ccc(SC)c(=O)cc21 (chirality)
C[N-]C(=O)[N-][C@H]1CCc2cc(OC)c(OC)c(OC)c2-c2ccc(SC)c(=O)cc21 (3D coordinates assigned)
C[N-]C(=O)[N-][C@H]1CCc2cc(OC)c(OC)c(OC)c2-c2ccc(SC)c(=O)cc21 (nonaromatic ring conformer: 102.16018645699886 kcal/mol)

>  <smiles>  (47) 
CNC(=O)NC1CCc2cc(OC)c(OC)c(OC)c2-c2ccc(SC)c(=O)cc21

>  <score_type>  (47) 
oracle

>  <origin>  (47) 
adgpu

>  <m_score__min__energy>  (47) 
-8.3800000000000008

>  <m_primary>  (47) 
energy

$$$$
47:0
     RDKit          3D

 60 63  0  0  0  0  0  0  0  0999 V2000
   -1.1830   22.5050  -26.0070 C   0  0  0  0  0  0  0  0  0  0  0  0
   -1.8460   23.3120  -27.0930 C   0  0  0  0  0  0  0  0  0  0  0  0
   -3.1420   22.9530  -27.5040 C   0  0  0  0  0  0  0  0  0  0  0  0
   -3.7610   23.6070  -28.5680 C   0  0  0  0  0  0  0  0  0  0  0  0
   -3.0950   24.6370  -29.2490 C   0  0  0  0  0  0  0  0  0  0  0  0
   -3.6800   25.2810  -30.3930 N   0  0  0  0  0  0  0  0  0  0  0  0
   -5.0690   25.2510  -30.7420 C   0  0  0  0  0  0  0  0  0  0  0  0
   -5.7470   26.3060  -30.6500 O   0  0  0  0  0  0  0  0  0  0  0  0
   -5.7220   24.0060  -31.1820 C   0  0  0  0  0  0  0  0  0  0  0  0
   -7.0830   23.7870  -31.3170 C   0  0  0  0  0  0  0  0  0  0  0  0
   -7.3140   22.5420  -31.7950 N   0  0  0  0  0  0  0  0  0  0  0  0
   -8.6300   21.9310  -31.9650 C   0  0  0  0  0  0  0  0  0  0  0  0
   -6.1070   21.9560  -31.9310 C   0  0  0  0  0  0  0  0  0  0  0  0
   -5.8170   20.6520  -32.3390 C   0  0  0  0  0  0  0  0  0  0  0  0
   -4.4670   20.2520  -32.3620 C   0  0  0  0  0  0  0  0  0  0  0  0
   -3.4370   21.1320  -31.9490 C   0  0  0  0  0  0  0  0  0  0  0  0
   -2.0810   20.6690  -31.9970 N   0  0  0  0  0  0  0  0  0  0  0  0
   -0.8370   20.9840  -30.8230 S   0  0  0  0  0  0  0  0  0  0  0  0
    0.4940   20.4800  -31.3090 O   0  0  0  0  0  0  0  0  0  0  0  0
   -0.7720   22.4610  -30.5640 O   0  0  0  0  0  0  0  0  0  0  0  0
   -1.2180   20.1400  -29.3300 C   0  0  0  0  0  0  0  0  0  0  0  0
   -2.4760   20.3020  -28.7330 C   0  0  0  0  0  0  0  0  0  0  0  0
   -2.7520   19.6960  -27.5020 C   0  0  0  0  0  0  0  0  0  0  0  0
   -1.7750   18.9220  -26.8670 C   0  0  0  0  0  0  0  0  0  0  0  0
   -0.5250   18.7480  -27.4650 C   0  0  0  0  0  0  0  0  0  0  0  0
   -0.2450   19.3570  -28.6910 C   0  0  0  0  0  0  0  0  0  0  0  0
   -3.7690   22.4350  -31.5210 C   0  0  0  0  0  0  0  0  0  0  0  0
   -5.1120   22.8230  -31.5590 C   0  0  0  0  0  0  0  0  0  0  0  0
   -1.8040   24.9990  -28.8510 C   0  0  0  0  0  0  0  0  0  0  0  0
   -1.1700   24.3570  -27.7710 C   0  0  0  0  0  0  0  0  0  0  0  0
    0.4730   24.8590  -27.3220 S   0  0  0  0  0  0  0  0  0  0  0  0
    1.4500   24.1750  -28.2370 O   0  0  0  0  0  0  0  0  0  0  0  0
    0.6090   26.3470  -27.5010 O   0  0  0  0  0  0  0  0  0  0  0  0
    0.8390   24.4420  -25.6640 N   0  0  0  0  0  0  0  0  0  0  0  0
    2.2780   24.6060  -25.4270 C   0  0  0  0  0  0  0  0  0  0  0  0
    0.0840   25.3170  -24.7570 C   0  0  0  0  0  0  0  0  0  0  0  0
   -1.4962   22.8862  -25.0238 H   0  0  0  0  0  0  0  0  0  0  0  0
   -1.4784   21.4497  -26.1022 H   0  0  0  0  0  0  0  0  0  0  0  0
   -0.0904   22.5900  -26.1022 H   0  0  0  0  0  0  0  0  0  0  0  0
   -3.6740   22.1458  -26.9792 H   0  0  0  0  0  0  0  0  0  0  0  0
   -4.7759   23.3143  -28.8750 H   0  0  0  0  0  0  0  0  0  0  0  0
   -7.8649   24.5205  -31.0708 H   0  0  0  0  0  0  0  0  0  0  0  0
   -9.0698   21.7268  -30.9776 H   0  0  0  0  0  0  0  0  0  0  0  0
   -9.2838   22.6177  -32.5227 H   0  0  0  0  0  0  0  0  0  0  0  0
   -8.5274   20.9884  -32.5227 H   0  0  0  0  0  0  0  0  0  0  0  0
   -6.6187   19.9587  -32.6334 H   0  0  0  0  0  0  0  0  0  0  0  0
   -4.2083   19.2398  -32.7063 H   0  0  0  0  0  0  0  0  0  0  0  0
   -3.2473   20.9063  -29.2328 H   0  0  0  0  0  0  0  0  0  0  0  0
   -3.7383   19.8285  -27.0333 H   0  0  0  0  0  0  0  0  0  0  0  0
   -1.9912   18.4506  -25.8970 H   0  0  0  0  0  0  0  0  0  0  0  0
    0.2397   18.1310  -26.9705 H   0  0  0  0  0  0  0  0  0  0  0  0
    0.7422   19.2220  -29.1570 H   0  0  0  0  0  0  0  0  0  0  0  0
   -2.9914   23.1277  -31.1666 H   0  0  0  0  0  0  0  0  0  0  0  0
   -1.2756   25.7985  -29.3909 H   0  0  0  0  0  0  0  0  0  0  0  0
    2.4711   24.6280  -24.3443 H   0  0  0  0  0  0  0  0  0  0  0  0
    2.8224   23.7641  -25.8795 H   0  0  0  0  0  0  0  0  0  0  0  0
    2.6190   25.5488  -25.8795 H   0  0  0  0  0  0  0  0  0  0  0  0
    0.3138   25.0506  -23.7148 H   0  0  0  0  0  0  0  0  0  0  0  0
    0.3664   26.3645  -24.9385 H   0  0  0  0  0  0  0  0  0  0  0  0
   -0.9936   25.1910  -24.9385 H   0  0  0  0  0  0  0  0  0  0  0  0
  1  2  1  0
  2  3  2  0
  3  4  1  0
  4  5  2  0
  5  6  1  0
  6  7  1  0
  7  8  2  0
  7  9  1  0
  9 10  2  0
 10 11  1  0
 11 12  1  0
 11 13  1  0
 13 14  2  0
 14 15  1  0
 15 16  2  0
 16 17  1  0
 17 18  1  0
 18 19  2  0
 18 20  2  0
 18 21  1  0
 21 22  2  0
 22 23  1  0
 23 24  2  0
 24 25  1  0
 25 26  2  0
 16 27  1  0
 27 28  2  0
  5 29  1  0
 29 30  2  0
 30 31  1  0
 31 32  2  0
 31 33  2  0
 31 34  1  0
 34 35  1  0
 34 36  1  0
 30  2  1  0
 28  9  1  0
 28 13  1  0
 26 21  1  0
  1 37  1  0
  1 38  1  0
  1 39  1  0
  3 40  1  0
  4 41  1  0
 10 42  1  0
 12 43  1  0
 12 44  1  0
 12 45  1  0
 14 46  1  0
 15 47  1  0
 22 48  1  0
 23 49  1  0
 24 50  1  0
 25 51  1  0
 26 52  1  0
 27 53  1  0
 29 54  1  0
 35 55  1  0
 35 56  1  0
 35 57  1  0
 36 58  1  0
 36 59  1  0
 36 60  1  0
M  CHG  2   6  -1  17  -1
M  END
>  <UniqueID>  (48) 
45

>  <SMILES>  (48) 
Cc1ccc([N-]C(=O)c2cn(C)c3ccc([N-]S(=O)(=O)c4ccccc4)cc23)cc1S(=O)(=O)N(C)C

>  <Energy>  (48) 
105.07127784016431

>  <Genealogy>  (48) 
Cc1ccc([N-]C(=O)c2cn(C)c3ccc([N-]S(=O)(=O)c4ccccc4)cc23)cc1S(=O)(=O)N(C)C (protonated)
Cc1ccc([N-]C(=O)c2cn(C)c3ccc([N-]S(=O)(=O)c4ccccc4)cc23)cc1S(=O)(=O)N(C)C (3D coordinates assigned)
Cc1ccc([N-]C(=O)c2cn(C)c3ccc([N-]S(=O)(=O)c4ccccc4)cc23)cc1S(=O)(=O)N(C)C (optimized conformer: 105.07127784016431 kcal/mol)

>  <smiles>  (48) 
Cc1ccc(NC(=O)c2cn(C)c3ccc(NS(=O)(=O)c4ccccc4)cc23)cc1S(=O)(=O)N(C)C

>  <score_type>  (48) 
oracle

>  <origin>  (48) 
adgpu

>  <m_score__min__energy>  (48) 
-12.18

>  <m_primary>  (48) 
energy

$$$$
48:0
     RDKit          3D

 51 54  0  0  0  0  0  0  0  0999 V2000
    1.1330   21.5300  -27.4110 C   0  0  0  0  0  0  0  0  0  0  0  0
   -0.0690   22.2480  -27.9490 C   0  0  0  0  0  0  0  0  0  0  0  0
   -1.2410   21.5410  -28.2460 C   0  0  0  0  0  0  0  0  0  0  0  0
   -2.3480   22.2040  -28.7790 C   0  0  0  0  0  0  0  0  0  0  0  0
   -2.3050   23.5870  -29.0330 C   0  0  0  0  0  0  0  0  0  0  0  0
   -3.5110   24.2510  -29.5860 C   0  0  0  0  0  0  0  0  0  0  0  0
   -4.8310   23.9700  -29.2860 C   0  0  0  0  0  0  0  0  0  0  0  0
   -5.5460   24.8310  -30.0920 C   0  0  0  0  0  0  0  0  0  0  0  0
   -7.0090   24.9320  -30.1700 C   0  0  0  0  0  0  0  0  0  0  0  0
   -7.6280   25.6300  -29.3240 O   0  0  0  0  0  0  0  0  0  0  0  0
   -7.7180   24.1930  -31.1730 N   0  0  0  0  0  0  0  0  0  0  0  0
   -7.7170   22.7680  -31.3480 C   0  0  0  0  0  0  0  0  0  0  0  0
   -6.4880   22.0950  -31.3590 C   0  0  0  0  0  0  0  0  0  0  0  0
   -6.4380   20.7110  -31.5470 C   0  0  0  0  0  0  0  0  0  0  0  0
   -7.6200   19.9850  -31.7480 C   0  0  0  0  0  0  0  0  0  0  0  0
   -7.5680   18.2420  -31.9910 S   0  0  0  0  0  0  0  0  0  0  0  0
   -6.7510   17.5980  -30.9030 O   0  0  0  0  0  0  0  0  0  0  0  0
   -8.9720   17.7070  -31.9370 O   0  0  0  0  0  0  0  0  0  0  0  0
   -6.8530   17.8840  -33.5440 N   0  0  0  0  0  0  0  0  0  0  0  0
   -6.1530   19.0660  -34.0970 C   0  0  0  0  0  0  0  0  0  0  0  0
   -4.6230   18.9290  -34.0130 C   0  0  0  0  0  0  0  0  0  0  0  0
   -4.1280   17.7820  -34.6900 O   0  0  0  0  0  0  0  0  0  0  0  0
   -4.9860   16.6500  -34.6040 C   0  0  0  0  0  0  0  0  0  0  0  0
   -5.9830   16.6990  -33.4340 C   0  0  0  0  0  0  0  0  0  0  0  0
   -8.8490   20.6560  -31.7570 C   0  0  0  0  0  0  0  0  0  0  0  0
   -8.9000   22.0400  -31.5670 C   0  0  0  0  0  0  0  0  0  0  0  0
   -4.7010   25.5720  -30.8320 N   0  0  0  0  0  0  0  0  0  0  0  0
   -3.4630   25.2160  -30.5270 N   0  0  0  0  0  0  0  0  0  0  0  0
   -1.1080   24.2920  -28.7740 C   0  0  0  0  0  0  0  0  0  0  0  0
   -1.0020   25.6490  -29.0760 O   0  0  0  0  0  0  0  0  0  0  0  0
   -0.0030   23.6190  -28.2300 C   0  0  0  0  0  0  0  0  0  0  0  0
    1.1075   21.5452  -26.3114 H   0  0  0  0  0  0  0  0  0  0  0  0
    1.1259   20.4880  -27.7635 H   0  0  0  0  0  0  0  0  0  0  0  0
    2.0471   22.0302  -27.7635 H   0  0  0  0  0  0  0  0  0  0  0  0
   -1.2895   20.4582  -28.0584 H   0  0  0  0  0  0  0  0  0  0  0  0
   -3.2645   21.6384  -29.0029 H   0  0  0  0  0  0  0  0  0  0  0  0
   -5.2207   23.2310  -28.5704 H   0  0  0  0  0  0  0  0  0  0  0  0
   -5.5550   22.6605  -31.2185 H   0  0  0  0  0  0  0  0  0  0  0  0
   -5.4690   20.1904  -31.5372 H   0  0  0  0  0  0  0  0  0  0  0  0
   -6.4403   19.1860  -35.1520 H   0  0  0  0  0  0  0  0  0  0  0  0
   -6.4463   19.9417  -33.4994 H   0  0  0  0  0  0  0  0  0  0  0  0
   -4.1663   19.8240  -34.4607 H   0  0  0  0  0  0  0  0  0  0  0  0
   -4.3613   18.8208  -32.9501 H   0  0  0  0  0  0  0  0  0  0  0  0
   -5.5577   16.5791  -35.5411 H   0  0  0  0  0  0  0  0  0  0  0  0
   -4.3395   15.7771  -34.4306 H   0  0  0  0  0  0  0  0  0  0  0  0
   -6.6043   15.7914  -33.4500 H   0  0  0  0  0  0  0  0  0  0  0  0
   -5.4205   16.7579  -32.4905 H   0  0  0  0  0  0  0  0  0  0  0  0
   -9.7795   20.0909  -31.9145 H   0  0  0  0  0  0  0  0  0  0  0  0
   -9.8685   22.5612  -31.5889 H   0  0  0  0  0  0  0  0  0  0  0  0
   -1.6090   26.0940  -29.7540 H   0  0  0  0  0  0  0  0  0  0  0  0
    0.9240   24.1734  -28.0222 H   0  0  0  0  0  0  0  0  0  0  0  0
  1  2  1  0
  2  3  2  0
  3  4  1  0
  4  5  2  0
  5  6  1  0
  6  7  2  0
  7  8  1  0
  8  9  1  0
  9 10  2  0
  9 11  1  0
 11 12  1  0
 12 13  2  0
 13 14  1  0
 14 15  2  0
 15 16  1  0
 16 17  2  0
 16 18  2  0
 16 19  1  0
 19 20  1  0
 20 21  1  0
 21 22  1  0
 22 23  1  0
 23 24  1  0
 15 25  1  0
 25 26  2  0
  8 27  2  0
 27 28  1  0
  5 29  1  0
 29 30  1  0
 29 31  2  0
 31  2  1  0
 28  6  1  0
 26 12  1  0
 24 19  1  0
  1 32  1  0
  1 33  1  0
  1 34  1  0
  3 35  1  0
  4 36  1  0
  7 37  1  0
 13 38  1  0
 14 39  1  0
 20 40  1  0
 20 41  1  0
 21 42  1  0
 21 43  1  0
 23 44  1  0
 23 45  1  0
 24 46  1  0
 24 47  1  0
 25 48  1  0
 26 49  1  0
 30 50  1  0
 31 51  1  0
M  CHG  2  11  -1  28  -1
M  END
>  <UniqueID>  (49) 
46

>  <SMILES>  (49) 
Cc1ccc(-c2cc(C(=O)[N-]c3ccc(S(=O)(=O)N4CCOCC4)cc3)n[n-]2)c(O)c1

>  <Energy>  (49) 
101.37225580003881

>  <Genealogy>  (49) 
Cc1ccc(-c2cc(C(=O)[N-]c3ccc(S(=O)(=O)N4CCOCC4)cc3)n[n-]2)c(O)c1 (protonated)
Cc1ccc(-c2cc(C(=O)[N-]c3ccc(S(=O)(=O)N4CCOCC4)cc3)n[n-]2)c(O)c1 (3D coordinates assigned)
Cc1ccc(-c2cc(C(=O)[N-]c3ccc(S(=O)(=O)N4CCOCC4)cc3)n[n-]2)c(O)c1 (nonaromatic ring conformer: 101.37225580003881 kcal/mol)

>  <smiles>  (49) 
Cc1ccc(-c2cc(C(=O)Nc3ccc(S(=O)(=O)N4CCOCC4)cc3)n[nH]2)c(O)c1

>  <score_type>  (49) 
oracle

>  <origin>  (49) 
adgpu

>  <m_score__min__energy>  (49) 
-12.890000000000001

>  <m_primary>  (49) 
energy

$$$$
49:0
     RDKit          3D

 77 81  0  0  0  0  0  0  0  0999 V2000
   -3.6780   24.0910  -28.3110 C   0  0  0  0  0  0  0  0  0  0  0  0
   -4.6660   23.6390  -29.3840 C   0  0  2  0  0  0  0  0  0  0  0  0
   -4.0860   23.8900  -30.7810 C   0  0  0  0  0  0  0  0  0  0  0  0
   -4.9990   23.3860  -31.8230 N   0  0  0  0  0  0  0  0  0  0  0  0
   -5.0570   21.9080  -32.0430 C   0  0  0  0  0  0  0  0  0  0  0  0
   -6.5350   21.4940  -32.3260 C   0  0  0  0  0  0  0  0  0  0  0  0
   -6.6980   20.4190  -33.4090 C   0  0  0  0  0  0  0  0  0  0  0  0
   -5.6300   19.4240  -33.2970 N   0  0  0  0  0  0  0  0  0  0  0  0
   -5.9360   18.0710  -32.9070 C   0  0  0  0  0  0  0  0  0  0  0  0
   -6.8910   17.8530  -32.1140 O   0  0  0  0  0  0  0  0  0  0  0  0
   -5.1260   16.9330  -33.3930 C   0  0  0  0  0  0  0  0  0  0  0  0
   -5.7070   15.6610  -33.5300 C   0  0  0  0  0  0  0  0  0  0  0  0
   -4.9400   14.5790  -33.9730 C   0  0  0  0  0  0  0  0  0  0  0  0
   -3.5910   14.7570  -34.2940 C   0  0  0  0  0  0  0  0  0  0  0  0
   -2.8350   13.6720  -34.7210 O   0  0  0  0  0  0  0  0  0  0  0  0
   -3.0110   16.0280  -34.1870 C   0  0  0  0  0  0  0  0  0  0  0  0
   -1.6400   16.2220  -34.5310 N   0  0  0  0  0  0  0  0  0  0  0  0
   -0.4970   16.7040  -33.3280 S   0  0  0  0  0  0  0  0  0  0  0  0
    0.8890   16.3710  -33.8030 O   0  0  0  0  0  0  0  0  0  0  0  0
   -0.7570   15.9550  -32.0500 O   0  0  0  0  0  0  0  0  0  0  0  0
   -0.6330   18.4380  -33.0620 C   0  0  0  0  0  0  0  0  0  0  0  0
   -0.6660   19.3170  -34.1540 C   0  0  0  0  0  0  0  0  0  0  0  0
   -0.8230   20.6890  -33.9440 C   0  0  0  0  0  0  0  0  0  0  0  0
   -0.9550   21.1910  -32.6470 C   0  0  0  0  0  0  0  0  0  0  0  0
   -0.9210   20.3200  -31.5470 C   0  0  0  0  0  0  0  0  0  0  0  0
   -1.1050   20.9530  -29.9060 S   0  0  0  0  0  0  0  0  0  0  0  0
   -1.8730   22.2450  -29.9620 O   0  0  0  0  0  0  0  0  0  0  0  0
    0.2570   21.2470  -29.3410 O   0  0  0  0  0  0  0  0  0  0  0  0
   -1.9350   19.8440  -28.8400 N   0  0  0  0  0  0  0  0  0  0  0  0
   -2.8420   20.5350  -27.9280 C   0  0  0  0  0  0  0  0  0  0  0  0
   -3.0010   19.6300  -26.7170 C   0  0  0  0  0  0  0  0  0  0  0  0
   -1.7960   18.7000  -26.7490 C   0  0  0  0  0  0  0  0  0  0  0  0
   -1.0070   19.1060  -27.9860 C   0  0  0  0  0  0  0  0  0  0  0  0
   -0.7690   18.9420  -31.7620 C   0  0  0  0  0  0  0  0  0  0  0  0
   -3.7770   17.1120  -33.7420 C   0  0  0  0  0  0  0  0  0  0  0  0
   -4.2320   19.8760  -33.3390 C   0  0  0  0  0  0  0  0  0  0  0  0
   -4.1170   21.4010  -33.1710 C   0  0  0  0  0  0  0  0  0  0  0  0
   -6.3380   23.9970  -31.6470 C   0  0  0  0  0  0  0  0  0  0  0  0
   -6.8550   23.9990  -30.1770 C   0  0  1  0  0  0  0  0  0  0  0  0
   -7.6130   22.7290  -29.7560 C   0  0  0  0  0  0  0  0  0  0  0  0
   -5.8700   24.3650  -29.2190 O   0  0  0  0  0  0  0  0  0  0  0  0
   -4.1034   23.8964  -27.3155 H   0  0  0  0  0  0  0  0  0  0  0  0
   -2.7358   23.5344  -28.4223 H   0  0  0  0  0  0  0  0  0  0  0  0
   -3.4831   25.1679  -28.4223 H   0  0  0  0  0  0  0  0  0  0  0  0
   -4.8597   22.5610  -29.2822 H   0  0  0  0  0  0  0  0  0  0  0  0
   -3.9389   24.9710  -30.9220 H   0  0  0  0  0  0  0  0  0  0  0  0
   -3.1260   23.3598  -30.8656 H   0  0  0  0  0  0  0  0  0  0  0  0
   -4.6905   21.4282  -31.1235 H   0  0  0  0  0  0  0  0  0  0  0  0
   -6.9690   21.1089  -31.3915 H   0  0  0  0  0  0  0  0  0  0  0  0
   -7.0463   22.3938  -32.6986 H   0  0  0  0  0  0  0  0  0  0  0  0
   -7.6718   19.9226  -33.2849 H   0  0  0  0  0  0  0  0  0  0  0  0
   -6.6432   20.8951  -34.3991 H   0  0  0  0  0  0  0  0  0  0  0  0
   -6.7701   15.5157  -33.2876 H   0  0  0  0  0  0  0  0  0  0  0  0
   -5.3997   13.5843  -34.0693 H   0  0  0  0  0  0  0  0  0  0  0  0
   -0.5681   18.9256  -35.1773 H   0  0  0  0  0  0  0  0  0  0  0  0
   -0.8428   21.3763  -34.8026 H   0  0  0  0  0  0  0  0  0  0  0  0
   -1.0859   22.2715  -32.4875 H   0  0  0  0  0  0  0  0  0  0  0  0
   -2.4148   21.5028  -27.6267 H   0  0  0  0  0  0  0  0  0  0  0  0
   -3.8119   20.7373  -28.4059 H   0  0  0  0  0  0  0  0  0  0  0  0
   -3.0053   20.2232  -25.7907 H   0  0  0  0  0  0  0  0  0  0  0  0
   -3.9493   19.0732  -26.7430 H   0  0  0  0  0  0  0  0  0  0  0  0
   -1.1855   18.8293  -25.8431 H   0  0  0  0  0  0  0  0  0  0  0  0
   -2.0956   17.6421  -26.7830 H   0  0  0  0  0  0  0  0  0  0  0  0
   -0.1582   19.7461  -27.7034 H   0  0  0  0  0  0  0  0  0  0  0  0
   -0.5979   18.2271  -28.5058 H   0  0  0  0  0  0  0  0  0  0  0  0
   -0.7565   18.2531  -30.9045 H   0  0  0  0  0  0  0  0  0  0  0  0
   -3.3200   18.1096  -33.6652 H   0  0  0  0  0  0  0  0  0  0  0  0
   -3.6752   19.3857  -32.5269 H   0  0  0  0  0  0  0  0  0  0  0  0
   -3.8167   19.6090  -34.3220 H   0  0  0  0  0  0  0  0  0  0  0  0
   -3.0781   21.6577  -32.9164 H   0  0  0  0  0  0  0  0  0  0  0  0
   -4.4116   21.8814  -34.1157 H   0  0  0  0  0  0  0  0  0  0  0  0
   -6.2896   25.0389  -31.9964 H   0  0  0  0  0  0  0  0  0  0  0  0
   -7.0426   23.3832  -32.2273 H   0  0  0  0  0  0  0  0  0  0  0  0
   -7.6054   24.8033  -30.1828 H   0  0  0  0  0  0  0  0  0  0  0  0
   -7.6482   22.6700  -28.6581 H   0  0  0  0  0  0  0  0  0  0  0  0
   -8.6377   22.7646  -30.1544 H   0  0  0  0  0  0  0  0  0  0  0  0
   -7.0953   21.8440  -30.1544 H   0  0  0  0  0  0  0  0  0  0  0  0
  1  2  1  0
  2  3  1  0
  3  4  1  0
  4  5  1  0
  5  6  1  0
  6  7  1  0
  7  8  1  0
  8  9  1  0
  9 10  2  0
  9 11  1  0
 11 12  2  0
 12 13  1  0
 13 14  2  0
 14 15  1  0
 14 16  1  0
 16 17  1  0
 17 18  1  0
 18 19  2  0
 18 20  2  0
 18 21  1  0
 21 22  2  0
 22 23  1  0
 23 24  2  0
 24 25  1  0
 25 26  1  0
 26 27  2  0
 26 28  2  0
 26 29  1  0
 29 30  1  0
 30 31  1  0
 31 32  1  0
 32 33  1  0
 25 34  2  0
 16 35  2  0
  8 36  1  0
 36 37  1  0
  4 38  1  0
 38 39  1  0
 39 40  1  0
 39 41  1  0
 41  2  1  0
 37  5  1  0
 35 11  1  0
 34 21  1  0
 33 29  1  0
  1 42  1  0
  1 43  1  0
  1 44  1  0
  2 45  1  1
  3 46  1  0
  3 47  1  0
  5 48  1  0
  6 49  1  0
  6 50  1  0
  7 51  1  0
  7 52  1  0
 12 53  1  0
 13 54  1  0
 22 55  1  0
 23 56  1  0
 24 57  1  0
 30 58  1  0
 30 59  1  0
 31 60  1  0
 31 61  1  0
 32 62  1  0
 32 63  1  0
 33 64  1  0
 33 65  1  0
 34 66  1  0
 35 67  1  0
 36 68  1  0
 36 69  1  0
 37 70  1  0
 37 71  1  0
 38 72  1  0
 38 73  1  0
 39 74  1  6
 40 75  1  0
 40 76  1  0
 40 77  1  0
M  CHG  2  15  -1  17  -1
M  END
>  <UniqueID>  (50) 
47

>  <SMILES>  (50) 
C[C@@H]1CN(C2CCN(C(=O)c3ccc([O-])c([N-]S(=O)(=O)c4cccc(S(=O)(=O)N5CCCC5)c4)c3)CC2)C[C@@H](C)O1

>  <Energy>  (50) 
112.09477680229583

>  <Genealogy>  (50) 
CC1CN(C2CCN(C(=O)c3ccc([O-])c([N-]S(=O)(=O)c4cccc(S(=O)(=O)N5CCCC5)c4)c3)CC2)CC(C)O1 (protonated)
C[C@@H]1CN(C2CCN(C(=O)c3ccc([O-])c([N-]S(=O)(=O)c4cccc(S(=O)(=O)N5CCCC5)c4)c3)CC2)C[C@@H](C)O1 (chirality)
C[C@@H]1CN(C2CCN(C(=O)c3ccc([O-])c([N-]S(=O)(=O)c4cccc(S(=O)(=O)N5CCCC5)c4)c3)CC2)C[C@@H](C)O1 (3D coordinates assigned)
C[C@@H]1CN(C2CCN(C(=O)c3ccc([O-])c([N-]S(=O)(=O)c4cccc(S(=O)(=O)N5CCCC5)c4)c3)CC2)C[C@@H](C)O1 (nonaromatic ring conformer: 112.09477680229583 kcal/mol)

>  <smiles>  (50) 
CC1CN(C2CCN(C(=O)c3ccc(O)c(NS(=O)(=O)c4cccc(S(=O)(=O)N5CCCC5)c4)c3)CC2)CC(C)O1

>  <score_type>  (50) 
oracle

>  <origin>  (50) 
adgpu

>  <m_score__min__energy>  (50) 
-14.24

>  <m_primary>  (50) 
energy

$$$$
