0:0
     RDKit          3D

 68 71  0  0  0  0  0  0  0  0999 V2000
   -6.1110   17.9090  -34.6620 C   0  0  0  0  0  0  0  0  0  0  0  0
   -6.0640   17.0050  -33.5050 N   0  0  0  0  0  0  0  0  0  0  0  0
   -4.6720   16.7970  -33.0870 C   0  0  0  0  0  0  0  0  0  0  0  0
   -6.9630   17.7010  -32.1800 S   0  0  0  0  0  0  0  0  0  0  0  0
   -6.5120   17.1080  -30.8730 O   0  0  0  0  0  0  0  0  0  0  0  0
   -8.4280   17.4070  -32.3540 O   0  0  0  0  0  0  0  0  0  0  0  0
   -6.7350   19.4480  -32.1400 C   0  0  0  0  0  0  0  0  0  0  0  0
   -7.7510   20.2810  -31.6580 C   0  0  0  0  0  0  0  0  0  0  0  0
   -7.5700   21.6670  -31.6300 C   0  0  0  0  0  0  0  0  0  0  0  0
   -6.3740   22.2340  -32.0880 C   0  0  0  0  0  0  0  0  0  0  0  0
   -6.1540   24.0150  -31.9690 S   0  0  0  0  0  0  0  0  0  0  0  0
   -5.0890   23.8780  -30.5300 C   0  0  0  0  0  0  0  0  0  0  0  0
   -3.9100   24.6320  -30.4550 C   0  0  0  0  0  0  0  0  0  0  0  0
   -3.0610   24.4990  -29.3510 C   0  0  0  0  0  0  0  0  0  0  0  0
   -3.3930   23.6200  -28.3160 C   0  0  0  0  0  0  0  0  0  0  0  0
   -4.5770   22.8760  -28.3790 C   0  0  0  0  0  0  0  0  0  0  0  0
   -5.4250   23.0060  -29.4860 C   0  0  0  0  0  0  0  0  0  0  0  0
   -5.3510   21.4040  -32.5820 C   0  0  0  0  0  0  0  0  0  0  0  0
   -4.1220   21.9710  -33.0660 N   0  0  0  0  0  0  0  0  0  0  0  0
   -2.8230   21.5000  -32.6680 C   0  0  0  0  0  0  0  0  0  0  0  0
   -1.7350   21.6390  -33.5930 N   0  0  0  0  0  0  0  0  0  0  0  0
   -2.6510   20.9640  -31.4850 N   0  0  0  0  0  0  0  0  0  0  0  0
   -1.3980   20.4790  -30.9840 C   0  0  0  0  0  0  0  0  0  0  0  0
   -0.6010   19.6630  -31.7970 C   0  0  0  0  0  0  0  0  0  0  0  0
    0.6130   19.1630  -31.3220 C   0  0  0  0  0  0  0  0  0  0  0  0
    1.0340   19.4570  -30.0160 C   0  0  0  0  0  0  0  0  0  0  0  0
    2.5920   18.8820  -29.4300 S   0  0  0  0  0  0  0  0  0  0  0  0
    3.6350   19.2010  -30.4640 O   0  0  0  0  0  0  0  0  0  0  0  0
    2.9510   19.6020  -28.1600 O   0  0  0  0  0  0  0  0  0  0  0  0
    2.5350   17.1490  -29.1760 N   0  0  0  0  0  0  0  0  0  0  0  0
    1.1640   16.6500  -28.9600 C   0  0  0  0  0  0  0  0  0  0  0  0
    0.6990   16.8470  -27.5100 C   0  0  0  0  0  0  0  0  0  0  0  0
    1.6030   16.2320  -26.6120 O   0  0  0  0  0  0  0  0  0  0  0  0
    2.8610   16.8660  -26.7050 C   0  0  0  0  0  0  0  0  0  0  0  0
    3.4620   16.7070  -28.1140 C   0  0  0  0  0  0  0  0  0  0  0  0
    0.2240   20.2460  -29.1890 C   0  0  0  0  0  0  0  0  0  0  0  0
   -0.9930   20.7460  -29.6650 C   0  0  0  0  0  0  0  0  0  0  0  0
   -5.5430   20.0120  -32.6100 C   0  0  0  0  0  0  0  0  0  0  0  0
   -6.1651   18.9503  -34.3117 H   0  0  0  0  0  0  0  0  0  0  0  0
   -5.2046   17.7734  -35.2703 H   0  0  0  0  0  0  0  0  0  0  0  0
   -6.9985   17.6802  -35.2703 H   0  0  0  0  0  0  0  0  0  0  0  0
   -4.6164   16.7887  -31.9884 H   0  0  0  0  0  0  0  0  0  0  0  0
   -4.3111   15.8350  -33.4797 H   0  0  0  0  0  0  0  0  0  0  0  0
   -4.0456   17.6115  -33.4797 H   0  0  0  0  0  0  0  0  0  0  0  0
   -8.6949   19.8439  -31.3001 H   0  0  0  0  0  0  0  0  0  0  0  0
   -8.3712   22.3157  -31.2462 H   0  0  0  0  0  0  0  0  0  0  0  0
   -3.6517   25.3295  -31.2654 H   0  0  0  0  0  0  0  0  0  0  0  0
   -2.1323   25.0861  -29.2974 H   0  0  0  0  0  0  0  0  0  0  0  0
   -2.7226   23.5128  -27.4505 H   0  0  0  0  0  0  0  0  0  0  0  0
   -4.8410   22.1903  -27.5604 H   0  0  0  0  0  0  0  0  0  0  0  0
   -6.3562   22.4226  -29.5359 H   0  0  0  0  0  0  0  0  0  0  0  0
   -4.1770   22.7170  -33.7900 H   0  0  0  0  0  0  0  0  0  0  0  0
   -0.8200   21.1550  -33.4590 H   0  0  0  0  0  0  0  0  0  0  0  0
   -1.8890   22.1330  -34.5010 H   0  0  0  0  0  0  0  0  0  0  0  0
   -3.4700   20.8520  -30.8460 H   0  0  0  0  0  0  0  0  0  0  0  0
   -0.9335   19.4146  -32.8157 H   0  0  0  0  0  0  0  0  0  0  0  0
    1.2410   18.5371  -31.9731 H   0  0  0  0  0  0  0  0  0  0  0  0
    0.4796   17.1927  -29.6287 H   0  0  0  0  0  0  0  0  0  0  0  0
    1.1589   15.5709  -29.1736 H   0  0  0  0  0  0  0  0  0  0  0  0
    0.6460   17.9234  -27.2899 H   0  0  0  0  0  0  0  0  0  0  0  0
   -0.2923   16.3860  -27.3885 H   0  0  0  0  0  0  0  0  0  0  0  0
    2.7401   17.9370  -26.4852 H   0  0  0  0  0  0  0  0  0  0  0  0
    3.5424   16.3959  -25.9806 H   0  0  0  0  0  0  0  0  0  0  0  0
    4.3815   17.3077  -28.1755 H   0  0  0  0  0  0  0  0  0  0  0  0
    3.6670   15.6379  -28.2720 H   0  0  0  0  0  0  0  0  0  0  0  0
    0.5458   20.4732  -28.1620 H   0  0  0  0  0  0  0  0  0  0  0  0
   -1.6341   21.3493  -29.0055 H   0  0  0  0  0  0  0  0  0  0  0  0
   -4.7498   19.3600  -33.0046 H   0  0  0  0  0  0  0  0  0  0  0  0
  1  2  1  0
  2  3  1  0
  2  4  1  0
  4  5  2  0
  4  6  2  0
  4  7  1  0
  7  8  2  0
  8  9  1  0
  9 10  2  0
 10 11  1  0
 11 12  1  0
 12 13  2  0
 13 14  1  0
 14 15  2  0
 15 16  1  0
 16 17  2  0
 10 18  1  0
 18 19  1  0
 19 20  1  0
 20 21  1  0
 20 22  2  3
 22 23  1  0
 23 24  2  0
 24 25  1  0
 25 26  2  0
 26 27  1  0
 27 28  2  0
 27 29  2  0
 27 30  1  0
 30 31  1  0
 31 32  1  0
 32 33  1  0
 33 34  1  0
 34 35  1  0
 26 36  1  0
 36 37  2  0
 18 38  2  0
 38  7  1  0
 17 12  1  0
 37 23  1  0
 35 30  1  0
  1 39  1  0
  1 40  1  0
  1 41  1  0
  3 42  1  0
  3 43  1  0
  3 44  1  0
  8 45  1  0
  9 46  1  0
 13 47  1  0
 14 48  1  0
 15 49  1  0
 16 50  1  0
 17 51  1  0
 19 52  1  0
 21 53  1  0
 21 54  1  0
 22 55  1  0
 24 56  1  0
 25 57  1  0
 31 58  1  0
 31 59  1  0
 32 60  1  0
 32 61  1  0
 34 62  1  0
 34 63  1  0
 35 64  1  0
 35 65  1  0
 36 66  1  0
 37 67  1  0
 38 68  1  0
M  CHG  1  22   1
M  END
>  <UniqueID>  (1) 
1

>  <SMILES>  (1) 
CN(C)S(=O)(=O)c1ccc(Sc2ccccc2)c(NC(N)=[NH+]c2ccc(S(=O)(=O)N3CCOCC3)cc2)c1

>  <Energy>  (1) 
79.35368842994288

>  <Genealogy>  (1) 
CN(C)S(=O)(=O)c1ccc(Sc2ccccc2)c(NC(N)=[NH+]c2ccc(S(=O)(=O)N3CCOCC3)cc2)c1 (protonated)
CN(C)S(=O)(=O)c1ccc(Sc2ccccc2)c(NC(N)=[NH+]c2ccc(S(=O)(=O)N3CCOCC3)cc2)c1 (3D coordinates assigned)
CN(C)S(=O)(=O)c1ccc(Sc2ccccc2)c(NC(N)=[NH+]c2ccc(S(=O)(=O)N3CCOCC3)cc2)c1 (nonaromatic ring conformer: 79.35368842994288 kcal/mol)

>  <smiles>  (1) 
CN(C)S(=O)(=O)c1ccc(Sc2ccccc2)c(NC(N)=Nc2ccc(S(=O)(=O)N3CCOCC3)cc2)c1

>  <score_type>  (1) 
oracle

>  <origin>  (1) 
adgpu

>  <m_score__min__energy>  (1) 
-10.029999999999999

>  <m_primary>  (1) 
energy

$$$$
1:0
     RDKit          3D

 46 48  0  0  0  0  0  0  0  0999 V2000
   -6.8570   17.1750  -33.0810 C   0  0  0  0  0  0  0  0  0  0  0  0
   -7.1750   17.9420  -31.9240 O   0  0  0  0  0  0  0  0  0  0  0  0
   -7.5720   19.2900  -31.9430 C   0  0  0  0  0  0  0  0  0  0  0  0
   -8.9270   19.6590  -32.0280 C   0  0  0  0  0  0  0  0  0  0  0  0
   -9.2940   21.0030  -32.0310 C   0  0  0  0  0  0  0  0  0  0  0  0
   -8.3230   22.0010  -31.9430 C   0  0  0  0  0  0  0  0  0  0  0  0
   -6.9570   21.6620  -31.8660 C   0  0  0  0  0  0  0  0  0  0  0  0
   -6.5880   20.2980  -31.8750 C   0  0  0  0  0  0  0  0  0  0  0  0
   -5.1210   19.9610  -31.7660 C   0  0  0  0  0  0  0  0  0  0  0  0
   -4.2900   20.8430  -32.7110 C   0  0  0  0  0  0  0  0  0  0  0  0
   -4.6910   22.3400  -32.7050 C   0  0  0  0  0  0  0  0  0  0  0  0
   -5.8380   22.6910  -31.7250 C   0  0  1  0  0  0  0  0  0  0  0  0
   -6.2900   24.1580  -31.9120 C   0  0  0  0  0  0  0  0  0  0  0  0
   -5.3650   25.0790  -31.2370 N   0  0  0  0  0  0  0  0  0  0  0  0
   -5.4700   24.9320  -29.7830 C   0  0  0  0  0  0  0  0  0  0  0  0
   -4.1740   24.4270  -29.2360 C   0  0  0  0  0  0  0  0  0  0  0  0
   -4.0910   23.4550  -28.3000 N   0  0  0  0  0  0  0  0  0  0  0  0
   -2.7650   23.3430  -28.0960 C   0  0  0  0  0  0  0  0  0  0  0  0
   -2.1460   22.4090  -27.1070 C   0  0  0  0  0  0  0  0  0  0  0  0
   -2.1040   24.2530  -28.8920 C   0  0  0  0  0  0  0  0  0  0  0  0
   -0.6310   24.4820  -28.9760 C   0  0  0  0  0  0  0  0  0  0  0  0
   -3.0010   24.9070  -29.5860 O   0  0  0  0  0  0  0  0  0  0  0  0
   -6.4524   16.1992  -32.7742 H   0  0  0  0  0  0  0  0  0  0  0  0
   -7.7661   17.0227  -33.6812 H   0  0  0  0  0  0  0  0  0  0  0  0
   -6.1068   17.7107  -33.6812 H   0  0  0  0  0  0  0  0  0  0  0  0
   -9.7020   18.8810  -32.0925 H   0  0  0  0  0  0  0  0  0  0  0  0
  -10.3563   21.2791  -32.1032 H   0  0  0  0  0  0  0  0  0  0  0  0
   -8.6252   23.0586  -31.9337 H   0  0  0  0  0  0  0  0  0  0  0  0
   -4.7882   20.1272  -30.7308 H   0  0  0  0  0  0  0  0  0  0  0  0
   -4.9780   18.9074  -32.0481 H   0  0  0  0  0  0  0  0  0  0  0  0
   -3.2340   20.7682  -32.4121 H   0  0  0  0  0  0  0  0  0  0  0  0
   -4.4737   20.4722  -33.7302 H   0  0  0  0  0  0  0  0  0  0  0  0
   -3.8068   22.9319  -32.4260 H   0  0  0  0  0  0  0  0  0  0  0  0
   -5.0597   22.5704  -33.7154 H   0  0  0  0  0  0  0  0  0  0  0  0
   -5.4876   22.6319  -30.6840 H   0  0  0  0  0  0  0  0  0  0  0  0
   -6.3140   24.3939  -32.9861 H   0  0  0  0  0  0  0  0  0  0  0  0
   -7.2908   24.2775  -31.4714 H   0  0  0  0  0  0  0  0  0  0  0  0
   -4.3900   24.8180  -31.5180 H   0  0  0  0  0  0  0  0  0  0  0  0
   -5.7023   25.9080  -29.3321 H   0  0  0  0  0  0  0  0  0  0  0  0
   -6.2710   24.2167  -29.5447 H   0  0  0  0  0  0  0  0  0  0  0  0
   -2.3733   22.7519  -26.0868 H   0  0  0  0  0  0  0  0  0  0  0  0
   -2.5532   21.3977  -27.2531 H   0  0  0  0  0  0  0  0  0  0  0  0
   -1.0559   22.3900  -27.2531 H   0  0  0  0  0  0  0  0  0  0  0  0
   -0.2116   24.5472  -27.9612 H   0  0  0  0  0  0  0  0  0  0  0  0
   -0.1601   23.6463  -29.5144 H   0  0  0  0  0  0  0  0  0  0  0  0
   -0.4361   25.4212  -29.5144 H   0  0  0  0  0  0  0  0  0  0  0  0
  1  2  1  0
  2  3  1  0
  3  4  2  0
  4  5  1  0
  5  6  2  0
  6  7  1  0
  7  8  2  0
  8  9  1  0
  9 10  1  0
 10 11  1  0
 11 12  1  0
 12 13  1  0
 13 14  1  0
 14 15  1  0
 15 16  1  0
 16 17  2  0
 17 18  1  0
 18 19  1  0
 18 20  2  0
 20 21  1  0
 20 22  1  0
  8  3  1  0
 22 16  1  0
 12  7  1  0
  1 23  1  0
  1 24  1  0
  1 25  1  0
  4 26  1  0
  5 27  1  0
  6 28  1  0
  9 29  1  0
  9 30  1  0
 10 31  1  0
 10 32  1  0
 11 33  1  0
 11 34  1  0
 12 35  1  1
 13 36  1  0
 13 37  1  0
 14 38  1  0
 15 39  1  0
 15 40  1  0
 19 41  1  0
 19 42  1  0
 19 43  1  0
 21 44  1  0
 21 45  1  0
 21 46  1  0
M  END
>  <UniqueID>  (2) 
2

>  <SMILES>  (2) 
COc1cccc2c1CCC[C@H]2CNCc1nc(C)c(C)o1

>  <Energy>  (2) 
78.78341053978532

>  <Genealogy>  (2) 
COc1cccc2c1CCC[C@H]2CNCc1nc(C)c(C)o1 (chirality)
COc1cccc2c1CCC[C@H]2CNCc1nc(C)c(C)o1 (3D coordinates assigned)
COc1cccc2c1CCC[C@H]2CNCc1nc(C)c(C)o1 (nonaromatic ring conformer: 78.78341053978532 kcal/mol)

>  <smiles>  (2) 
COc1cccc2c1CCCC2CNCc1nc(C)c(C)o1

>  <score_type>  (2) 
oracle

>  <origin>  (2) 
adgpu

>  <m_score__min__energy>  (2) 
-9.0600000000000005

>  <m_primary>  (2) 
energy

$$$$
2:0
     RDKit          3D

 61 65  0  0  0  0  0  0  0  0999 V2000
   -9.3400   18.5690  -31.7410 O   0  0  0  0  0  0  0  0  0  0  0  0
   -8.2240   19.1380  -31.6010 C   0  0  0  0  0  0  0  0  0  0  0  0
   -7.0230   18.3560  -31.5300 N   0  0  0  0  0  0  0  0  0  0  0  0
   -6.0540   18.1780  -32.5730 C   0  0  0  0  0  0  0  0  0  0  0  0
   -5.0000   19.0890  -32.7760 C   0  0  0  0  0  0  0  0  0  0  0  0
   -4.0920   18.8910  -33.8220 C   0  0  0  0  0  0  0  0  0  0  0  0
   -4.2350   17.7960  -34.6770 C   0  0  0  0  0  0  0  0  0  0  0  0
   -5.2930   16.9020  -34.4960 C   0  0  0  0  0  0  0  0  0  0  0  0
   -6.2040   17.0970  -33.4530 C   0  0  0  0  0  0  0  0  0  0  0  0
   -8.1490   20.6180  -31.5620 C   0  0  0  0  0  0  0  0  0  0  0  0
   -9.2060   21.4000  -32.0600 C   0  0  0  0  0  0  0  0  0  0  0  0
   -9.1330   22.7930  -32.0230 C   0  0  0  0  0  0  0  0  0  0  0  0
   -8.0070   23.4250  -31.4930 C   0  0  0  0  0  0  0  0  0  0  0  0
   -6.9360   22.6670  -30.9920 C   0  0  0  0  0  0  0  0  0  0  0  0
   -5.7350   23.3400  -30.4310 C   0  0  0  0  0  0  0  0  0  0  0  0
   -5.3450   23.1240  -29.1000 C   0  0  0  0  0  0  0  0  0  0  0  0
   -4.2140   23.7590  -28.5840 C   0  0  0  0  0  0  0  0  0  0  0  0
   -3.4700   24.6310  -29.4060 C   0  0  0  0  0  0  0  0  0  0  0  0
   -2.3960   25.2420  -28.9920 N   0  0  0  0  0  0  0  0  0  0  0  0
   -1.8600   25.2610  -27.6600 C   0  0  0  0  0  0  0  0  0  0  0  0
   -2.6820   25.5200  -26.5490 C   0  0  0  0  0  0  0  0  0  0  0  0
   -2.1290   25.5800  -25.2670 C   0  0  0  0  0  0  0  0  0  0  0  0
   -0.7550   25.4040  -25.0860 C   0  0  0  0  0  0  0  0  0  0  0  0
    0.0770   25.1850  -26.1920 C   0  0  0  0  0  0  0  0  0  0  0  0
    1.8070   24.9440  -25.9710 S   0  0  0  0  0  0  0  0  0  0  0  0
    2.1480   23.5090  -26.2640 O   0  0  0  0  0  0  0  0  0  0  0  0
    2.5700   25.8210  -26.9260 O   0  0  0  0  0  0  0  0  0  0  0  0
    2.2340   25.3210  -24.3220 N   0  0  0  0  0  0  0  0  0  0  0  0
    3.5650   24.8200  -23.9740 C   0  0  0  0  0  0  0  0  0  0  0  0
    4.0920   25.7210  -22.8660 C   0  0  0  0  0  0  0  0  0  0  0  0
    3.2620   26.9940  -22.9480 C   0  0  0  0  0  0  0  0  0  0  0  0
    2.2780   26.7660  -24.0870 C   0  0  0  0  0  0  0  0  0  0  0  0
   -0.4790   25.1220  -27.4770 C   0  0  0  0  0  0  0  0  0  0  0  0
   -3.8610   24.8110  -30.6950 N   0  0  0  0  0  0  0  0  0  0  0  0
   -4.9570   24.2020  -31.2200 C   0  0  0  0  0  0  0  0  0  0  0  0
   -7.0160   21.2620  -31.0300 C   0  0  0  0  0  0  0  0  0  0  0  0
   -4.8901   19.9582  -32.1109 H   0  0  0  0  0  0  0  0  0  0  0  0
   -3.2637   19.5993  -33.9712 H   0  0  0  0  0  0  0  0  0  0  0  0
   -3.5145   17.6375  -35.4929 H   0  0  0  0  0  0  0  0  0  0  0  0
   -5.4097   16.0440  -35.1744 H   0  0  0  0  0  0  0  0  0  0  0  0
   -7.0433   16.3980  -33.3223 H   0  0  0  0  0  0  0  0  0  0  0  0
  -10.0963   20.9105  -32.4815 H   0  0  0  0  0  0  0  0  0  0  0  0
   -9.9664   23.3956  -32.4132 H   0  0  0  0  0  0  0  0  0  0  0  0
   -7.9581   24.5236  -31.4675 H   0  0  0  0  0  0  0  0  0  0  0  0
   -5.9339   22.4506  -28.4600 H   0  0  0  0  0  0  0  0  0  0  0  0
   -3.9051   23.5806  -27.5435 H   0  0  0  0  0  0  0  0  0  0  0  0
   -3.7619   25.6756  -26.6892 H   0  0  0  0  0  0  0  0  0  0  0  0
   -2.7773   25.7663  -24.3981 H   0  0  0  0  0  0  0  0  0  0  0  0
   -0.3256   25.4374  -24.0738 H   0  0  0  0  0  0  0  0  0  0  0  0
    1.5230   24.8880  -23.6860 H   0  0  0  0  0  0  0  0  0  0  0  0
    3.4988   23.7809  -23.6192 H   0  0  0  0  0  0  0  0  0  0  0  0
    4.2342   24.8313  -24.8469 H   0  0  0  0  0  0  0  0  0  0  0  0
    3.9625   25.2401  -21.8852 H   0  0  0  0  0  0  0  0  0  0  0  0
    5.1664   25.9260  -22.9830 H   0  0  0  0  0  0  0  0  0  0  0  0
    2.7241   27.1636  -22.0036 H   0  0  0  0  0  0  0  0  0  0  0  0
    3.8902   27.8799  -23.1229 H   0  0  0  0  0  0  0  0  0  0  0  0
    1.2806   27.1349  -23.8059 H   0  0  0  0  0  0  0  0  0  0  0  0
    2.5902   27.3051  -24.9936 H   0  0  0  0  0  0  0  0  0  0  0  0
    0.1741   24.9623  -28.3476 H   0  0  0  0  0  0  0  0  0  0  0  0
   -5.2357   24.3855  -32.2682 H   0  0  0  0  0  0  0  0  0  0  0  0
   -6.1826   20.6598  -30.6390 H   0  0  0  0  0  0  0  0  0  0  0  0
  1  2  2  0
  2  3  1  0
  3  4  1  0
  4  5  2  0
  5  6  1  0
  6  7  2  0
  7  8  1  0
  8  9  2  0
  2 10  1  0
 10 11  2  0
 11 12  1  0
 12 13  2  0
 13 14  1  0
 14 15  1  0
 15 16  1  0
 16 17  2  0
 17 18  1  0
 18 19  2  3
 19 20  1  0
 20 21  2  0
 21 22  1  0
 22 23  2  0
 23 24  1  0
 24 25  1  0
 25 26  2  0
 25 27  2  0
 25 28  1  0
 28 29  1  0
 29 30  1  0
 30 31  1  0
 31 32  1  0
 24 33  2  0
 18 34  1  0
 34 35  1  0
 14 36  2  0
  9  4  1  0
 36 10  1  0
 35 15  2  0
 33 20  1  0
 32 28  1  0
  5 37  1  0
  6 38  1  0
  7 39  1  0
  8 40  1  0
  9 41  1  0
 11 42  1  0
 12 43  1  0
 13 44  1  0
 16 45  1  0
 17 46  1  0
 21 47  1  0
 22 48  1  0
 23 49  1  0
 28 50  1  0
 29 51  1  0
 29 52  1  0
 30 53  1  0
 30 54  1  0
 31 55  1  0
 31 56  1  0
 32 57  1  0
 32 58  1  0
 33 59  1  0
 35 60  1  0
 36 61  1  0
M  CHG  3   3  -1  28   1  34  -1
M  END
>  <UniqueID>  (3) 
3

>  <SMILES>  (3) 
O=C([N-]c1ccccc1)c1cccc(-c2ccc(=Nc3cccc(S(=O)(=O)[NH+]4CCCC4)c3)[n-]c2)c1

>  <Energy>  (3) 
87.09762922460538

>  <Genealogy>  (3) 
O=C([N-]c1ccccc1)c1cccc(-c2ccc(=Nc3cccc(S(=O)(=O)[NH+]4CCCC4)c3)[n-]c2)c1 (protonated)
O=C([N-]c1ccccc1)c1cccc(-c2ccc(=Nc3cccc(S(=O)(=O)[NH+]4CCCC4)c3)[n-]c2)c1 (3D coordinates assigned)
O=C([N-]c1ccccc1)c1cccc(-c2ccc(=Nc3cccc(S(=O)(=O)[NH+]4CCCC4)c3)[n-]c2)c1 (nonaromatic ring conformer: 87.09762922460538 kcal/mol)

>  <smiles>  (3) 
O=C(Nc1ccccc1)c1cccc(-c2ccc(=Nc3cccc(S(=O)(=O)N4CCCC4)c3)[nH]c2)c1

>  <score_type>  (3) 
oracle

>  <origin>  (3) 
adgpu

>  <m_score__min__energy>  (3) 
-14.35

>  <m_primary>  (3) 
energy

$$$$
3:0
     RDKit          3D

 62 65  0  0  0  0  0  0  0  0999 V2000
   -0.8400   20.8080  -34.4850 C   0  0  0  0  0  0  0  0  0  0  0  0
   -1.2410   20.2300  -32.8050 S   0  0  0  0  0  0  0  0  0  0  0  0
   -2.6020   19.1870  -33.3410 C   0  0  0  0  0  0  0  0  0  0  0  0
   -2.3170   18.0480  -34.0220 N   0  0  0  0  0  0  0  0  0  0  0  0
   -3.2960   17.1850  -34.3940 C   0  0  0  0  0  0  0  0  0  0  0  0
   -2.9640   15.9900  -35.1150 C   0  0  0  0  0  0  0  0  0  0  0  0
   -2.6960   15.0260  -35.6950 N   0  0  0  0  0  0  0  0  0  0  0  0
   -4.5880   17.4450  -34.0740 N   0  0  0  0  0  0  0  0  0  0  0  0
   -4.9380   18.5680  -33.3900 C   0  0  0  0  0  0  0  0  0  0  0  0
   -6.3250   18.7870  -33.0670 N   0  0  0  0  0  0  0  0  0  0  0  0
   -7.0910   17.7980  -32.3010 C   0  0  0  0  0  0  0  0  0  0  0  0
   -7.9120   18.5160  -31.2230 C   0  0  0  0  0  0  0  0  0  0  0  0
   -8.8100   19.5670  -31.7740 N   0  0  0  0  0  0  0  0  0  0  0  0
   -8.9380   20.6980  -30.8340 C   0  0  0  0  0  0  0  0  0  0  0  0
   -8.4510   20.0420  -33.1350 C   0  0  0  0  0  0  0  0  0  0  0  0
   -6.9340   20.0900  -33.3660 C   0  0  0  0  0  0  0  0  0  0  0  0
   -3.9370   19.4820  -33.0010 C   0  0  0  0  0  0  0  0  0  0  0  0
   -4.2530   20.5820  -32.1350 N   0  0  0  0  0  0  0  0  0  0  0  0
   -4.1210   21.9490  -32.5360 C   0  0  0  0  0  0  0  0  0  0  0  0
   -3.9740   22.2390  -33.7530 O   0  0  0  0  0  0  0  0  0  0  0  0
   -4.2340   22.9820  -31.5500 N   0  0  0  0  0  0  0  0  0  0  0  0
   -3.2710   23.2920  -30.5290 C   0  0  0  0  0  0  0  0  0  0  0  0
   -3.6150   24.2270  -29.5460 C   0  0  0  0  0  0  0  0  0  0  0  0
   -2.7110   24.5500  -28.5270 C   0  0  0  0  0  0  0  0  0  0  0  0
   -1.4540   23.9350  -28.4770 C   0  0  0  0  0  0  0  0  0  0  0  0
   -0.3150   24.3610  -27.2020 S   0  0  0  0  0  0  0  0  0  0  0  0
    0.8390   25.1080  -27.8090 O   0  0  0  0  0  0  0  0  0  0  0  0
    0.2120   23.1090  -26.5540 O   0  0  0  0  0  0  0  0  0  0  0  0
   -1.1050   25.3730  -26.0180 N   0  0  0  0  0  0  0  0  0  0  0  0
   -0.5490   25.1610  -24.6850 C   0  0  0  0  0  0  0  0  0  0  0  0
   -0.7850   26.4470  -23.9150 C   0  0  0  0  0  0  0  0  0  0  0  0
   -0.8600   27.5310  -24.9770 C   0  0  0  0  0  0  0  0  0  0  0  0
   -0.9090   26.7940  -26.3120 C   0  0  0  0  0  0  0  0  0  0  0  0
   -1.1210   22.9680  -29.4350 C   0  0  0  0  0  0  0  0  0  0  0  0
   -2.0250   22.6420  -30.4530 C   0  0  0  0  0  0  0  0  0  0  0  0
   -0.2140   21.7103  -34.4226 H   0  0  0  0  0  0  0  0  0  0  0  0
   -0.2940   20.0194  -35.0235 H   0  0  0  0  0  0  0  0  0  0  0  0
   -1.7699   21.0433  -35.0235 H   0  0  0  0  0  0  0  0  0  0  0  0
   -7.7676   17.2541  -32.9765 H   0  0  0  0  0  0  0  0  0  0  0  0
   -6.4007   17.0861  -31.8249 H   0  0  0  0  0  0  0  0  0  0  0  0
   -8.5271   17.7707  -30.6975 H   0  0  0  0  0  0  0  0  0  0  0  0
   -7.2008   19.0143  -30.5478 H   0  0  0  0  0  0  0  0  0  0  0  0
   -8.8955   20.3227  -29.8009 H   0  0  0  0  0  0  0  0  0  0  0  0
   -8.1145   21.4080  -31.0003 H   0  0  0  0  0  0  0  0  0  0  0  0
   -9.8994   21.2060  -31.0003 H   0  0  0  0  0  0  0  0  0  0  0  0
   -8.8980   19.3612  -33.8744 H   0  0  0  0  0  0  0  0  0  0  0  0
   -8.8353   21.0673  -33.2407 H   0  0  0  0  0  0  0  0  0  0  0  0
   -6.7361   20.3492  -34.4166 H   0  0  0  0  0  0  0  0  0  0  0  0
   -6.4970   20.8476  -32.6989 H   0  0  0  0  0  0  0  0  0  0  0  0
   -4.6700   20.3730  -31.2000 H   0  0  0  0  0  0  0  0  0  0  0  0
   -4.6022   24.7113  -29.5743 H   0  0  0  0  0  0  0  0  0  0  0  0
   -2.9893   25.2901  -27.7623 H   0  0  0  0  0  0  0  0  0  0  0  0
   -1.0582   24.3214  -24.1892 H   0  0  0  0  0  0  0  0  0  0  0  0
    0.5221   24.9150  -24.7333 H   0  0  0  0  0  0  0  0  0  0  0  0
   -1.7275   26.3925  -23.3505 H   0  0  0  0  0  0  0  0  0  0  0  0
    0.0104   26.6415  -23.1805 H   0  0  0  0  0  0  0  0  0  0  0  0
   -1.7659   28.1399  -24.8410 H   0  0  0  0  0  0  0  0  0  0  0  0
   -0.0010   28.2159  -24.9212 H   0  0  0  0  0  0  0  0  0  0  0  0
   -1.7445   27.1714  -26.9199 H   0  0  0  0  0  0  0  0  0  0  0  0
    0.0216   26.9500  -26.8773 H   0  0  0  0  0  0  0  0  0  0  0  0
   -0.1450   22.4629  -29.3869 H   0  0  0  0  0  0  0  0  0  0  0  0
   -1.7606   21.8752  -31.1960 H   0  0  0  0  0  0  0  0  0  0  0  0
  1  2  1  0
  2  3  1  0
  3  4  2  0
  4  5  1  0
  5  6  1  0
  6  7  3  0
  5  8  2  0
  8  9  1  0
  9 10  1  0
 10 11  1  0
 11 12  1  0
 12 13  1  0
 13 14  1  0
 13 15  1  0
 15 16  1  0
  9 17  2  0
 17 18  1  0
 18 19  1  0
 19 20  2  0
 19 21  1  0
 21 22  1  0
 22 23  2  0
 23 24  1  0
 24 25  2  0
 25 26  1  0
 26 27  2  0
 26 28  2  0
 26 29  1  0
 29 30  1  0
 30 31  1  0
 31 32  1  0
 32 33  1  0
 25 34  1  0
 34 35  2  0
 17  3  1  0
 35 22  1  0
 16 10  1  0
 33 29  1  0
  1 36  1  0
  1 37  1  0
  1 38  1  0
 11 39  1  0
 11 40  1  0
 12 41  1  0
 12 42  1  0
 14 43  1  0
 14 44  1  0
 14 45  1  0
 15 46  1  0
 15 47  1  0
 16 48  1  0
 16 49  1  0
 18 50  1  0
 23 51  1  0
 24 52  1  0
 30 53  1  0
 30 54  1  0
 31 55  1  0
 31 56  1  0
 32 57  1  0
 32 58  1  0
 33 59  1  0
 33 60  1  0
 34 61  1  0
 35 62  1  0
M  CHG  1  21  -1
M  END
>  <UniqueID>  (4) 
4

>  <SMILES>  (4) 
CSc1nc(C#N)nc(N2CCN(C)CC2)c1NC(=O)[N-]c1ccc(S(=O)(=O)N2CCCC2)cc1

>  <Energy>  (4) 
80.39198029178998

>  <Genealogy>  (4) 
CSc1nc(C#N)nc(N2CCN(C)CC2)c1NC(=O)[N-]c1ccc(S(=O)(=O)N2CCCC2)cc1 (protonated)
CSc1nc(C#N)nc(N2CCN(C)CC2)c1NC(=O)[N-]c1ccc(S(=O)(=O)N2CCCC2)cc1 (3D coordinates assigned)
CSc1nc(C#N)nc(N2CCN(C)CC2)c1NC(=O)[N-]c1ccc(S(=O)(=O)N2CCCC2)cc1 (nonaromatic ring conformer: 80.39198029178998 kcal/mol)

>  <smiles>  (4) 
CSc1nc(C#N)nc(N2CCN(C)CC2)c1NC(=O)Nc1ccc(S(=O)(=O)N2CCCC2)cc1

>  <score_type>  (4) 
oracle

>  <origin>  (4) 
adgpu

>  <m_score__min__energy>  (4) 
-11.42

>  <m_primary>  (4) 
energy

$$$$
4:0
     RDKit          3D

 52 55  0  0  0  0  0  0  0  0999 V2000
   -4.7970   25.7770  -30.4190 O   0  0  0  0  0  0  0  0  0  0  0  0
   -5.0400   24.6700  -30.9720 C   0  0  0  0  0  0  0  0  0  0  0  0
   -6.3750   24.3220  -31.3550 N   0  0  0  0  0  0  0  0  0  0  0  0
   -6.8870   22.9960  -31.5540 C   0  0  0  0  0  0  0  0  0  0  0  0
   -8.1680   22.6910  -31.0780 C   0  0  0  0  0  0  0  0  0  0  0  0
   -8.6960   21.4080  -31.2410 C   0  0  0  0  0  0  0  0  0  0  0  0
   -7.9430   20.4150  -31.8700 C   0  0  0  0  0  0  0  0  0  0  0  0
   -6.6510   20.6990  -32.3360 C   0  0  0  0  0  0  0  0  0  0  0  0
   -5.6860   19.4360  -33.1100 S   0  0  0  0  0  0  0  0  0  0  0  0
   -5.9880   19.4220  -34.5840 O   0  0  0  0  0  0  0  0  0  0  0  0
   -6.0810   18.1000  -32.5440 O   0  0  0  0  0  0  0  0  0  0  0  0
   -3.9680   19.6630  -32.8850 N   0  0  0  0  0  0  0  0  0  0  0  0
   -3.5070   20.9390  -33.4260 C   0  0  0  0  0  0  0  0  0  0  0  0
   -2.0300   20.7610  -33.7400 C   0  0  0  0  0  0  0  0  0  0  0  0
   -1.8230   19.2580  -33.8580 C   0  0  0  0  0  0  0  0  0  0  0  0
   -3.1840   18.6390  -33.5730 C   0  0  0  0  0  0  0  0  0  0  0  0
   -6.1190   21.9840  -32.1610 C   0  0  0  0  0  0  0  0  0  0  0  0
   -3.9830   23.7380  -31.2210 N   0  0  0  0  0  0  0  0  0  0  0  0
   -3.2330   23.0450  -30.2140 C   0  0  0  0  0  0  0  0  0  0  0  0
   -3.4120   21.6670  -30.0900 C   0  0  0  0  0  0  0  0  0  0  0  0
   -2.7390   20.9550  -29.1030 C   0  0  0  0  0  0  0  0  0  0  0  0
   -1.8520   21.6010  -28.2390 C   0  0  0  0  0  0  0  0  0  0  0  0
   -1.1000   20.6190  -26.9860 Cl  0  0  0  0  0  0  0  0  0  0  0  0
   -1.6340   22.9970  -28.3580 C   0  0  0  0  0  0  0  0  0  0  0  0
   -0.4120   23.8080  -27.3460 S   0  0  0  0  0  0  0  0  0  0  0  0
    0.2440   24.9220  -28.1150 O   0  0  0  0  0  0  0  0  0  0  0  0
    0.6700   22.8420  -26.9590 O   0  0  0  0  0  0  0  0  0  0  0  0
   -1.2080   24.4120  -25.8580 C   0  0  0  0  0  0  0  0  0  0  0  0
   -2.4340   25.2900  -26.0580 C   0  0  0  0  0  0  0  0  0  0  0  0
   -1.1030   25.9160  -25.6760 C   0  0  0  0  0  0  0  0  0  0  0  0
   -2.4020   23.7290  -29.3010 C   0  0  0  0  0  0  0  0  0  0  0  0
   -2.4100   25.1260  -29.3190 O   0  0  0  0  0  0  0  0  0  0  0  0
   -8.7623   23.4665  -30.5726 H   0  0  0  0  0  0  0  0  0  0  0  0
   -9.7072   21.1797  -30.8730 H   0  0  0  0  0  0  0  0  0  0  0  0
   -8.3640   19.4072  -32.0005 H   0  0  0  0  0  0  0  0  0  0  0  0
   -4.0637   21.1879  -34.3415 H   0  0  0  0  0  0  0  0  0  0  0  0
   -3.6675   21.7582  -32.7097 H   0  0  0  0  0  0  0  0  0  0  0  0
   -1.7742   21.2606  -34.6860 H   0  0  0  0  0  0  0  0  0  0  0  0
   -1.3893   21.2035  -32.9631 H   0  0  0  0  0  0  0  0  0  0  0  0
   -1.4848   18.9944  -34.8710 H   0  0  0  0  0  0  0  0  0  0  0  0
   -1.0542   18.8949  -33.1601 H   0  0  0  0  0  0  0  0  0  0  0  0
   -3.6758   18.3519  -34.5141 H   0  0  0  0  0  0  0  0  0  0  0  0
   -3.0882   17.7312  -32.9593 H   0  0  0  0  0  0  0  0  0  0  0  0
   -5.0957   22.2030  -32.4998 H   0  0  0  0  0  0  0  0  0  0  0  0
   -4.0900   21.1401  -30.7775 H   0  0  0  0  0  0  0  0  0  0  0  0
   -2.9069   19.8726  -29.0018 H   0  0  0  0  0  0  0  0  0  0  0  0
   -0.9961   23.5211  -25.2486 H   0  0  0  0  0  0  0  0  0  0  0  0
   -2.8436   25.4413  -27.0676 H   0  0  0  0  0  0  0  0  0  0  0  0
   -3.4521   25.3115  -25.6421 H   0  0  0  0  0  0  0  0  0  0  0  0
   -0.5495   26.5212  -26.4091 H   0  0  0  0  0  0  0  0  0  0  0  0
   -0.7592   26.5791  -24.8685 H   0  0  0  0  0  0  0  0  0  0  0  0
   -3.0880   25.6750  -29.8250 H   0  0  0  0  0  0  0  0  0  0  0  0
  1  2  2  0
  2  3  1  0
  3  4  1  0
  4  5  2  0
  5  6  1  0
  6  7  2  0
  7  8  1  0
  8  9  1  0
  9 10  2  0
  9 11  2  0
  9 12  1  0
 12 13  1  0
 13 14  1  0
 14 15  1  0
 15 16  1  0
  8 17  2  0
  2 18  1  0
 18 19  1  0
 19 20  2  0
 20 21  1  0
 21 22  2  0
 22 23  1  0
 22 24  1  0
 24 25  1  0
 25 26  2  0
 25 27  2  0
 25 28  1  0
 28 29  1  0
 29 30  1  0
 24 31  2  0
 31 32  1  0
 17  4  1  0
 31 19  1  0
 16 12  1  0
 30 28  1  0
  5 33  1  0
  6 34  1  0
  7 35  1  0
 13 36  1  0
 13 37  1  0
 14 38  1  0
 14 39  1  0
 15 40  1  0
 15 41  1  0
 16 42  1  0
 16 43  1  0
 17 44  1  0
 20 45  1  0
 21 46  1  0
 28 47  1  0
 29 48  1  0
 29 49  1  0
 30 50  1  0
 30 51  1  0
 32 52  1  0
M  CHG  2   3  -1  18  -1
M  END
>  <UniqueID>  (5) 
5

>  <SMILES>  (5) 
O=C([N-]c1cccc(S(=O)(=O)N2CCCC2)c1)[N-]c1ccc(Cl)c(S(=O)(=O)C2CC2)c1O

>  <Energy>  (5) 
333.42724070241906

>  <Genealogy>  (5) 
O=C([N-]c1cccc(S(=O)(=O)N2CCCC2)c1)[N-]c1ccc(Cl)c(S(=O)(=O)C2CC2)c1O (protonated)
O=C([N-]c1cccc(S(=O)(=O)N2CCCC2)c1)[N-]c1ccc(Cl)c(S(=O)(=O)C2CC2)c1O (3D coordinates assigned)
O=C([N-]c1cccc(S(=O)(=O)N2CCCC2)c1)[N-]c1ccc(Cl)c(S(=O)(=O)C2CC2)c1O (nonaromatic ring conformer: 333.42724070241906 kcal/mol)

>  <smiles>  (5) 
O=C(Nc1cccc(S(=O)(=O)N2CCCC2)c1)Nc1ccc(Cl)c(S(=O)(=O)C2CC2)c1O

>  <score_type>  (5) 
oracle

>  <origin>  (5) 
adgpu

>  <m_score__min__energy>  (5) 
-13.890000000000001

>  <m_primary>  (5) 
energy

$$$$
5:0
     RDKit          3D

 39 41  0  0  0  0  0  0  0  0999 V2000
   -6.5760   16.5650  -33.8590 C   0  0  0  0  0  0  0  0  0  0  0  0
   -6.3340   18.0270  -33.6750 C   0  0  0  0  0  0  0  0  0  0  0  0
   -5.3630   18.7100  -34.3090 N   0  0  0  0  0  0  0  0  0  0  0  0
   -5.4110   19.9360  -33.8710 O   0  0  0  0  0  0  0  0  0  0  0  0
   -6.3640   20.0940  -32.9790 C   0  0  0  0  0  0  0  0  0  0  0  0
   -6.6440   21.3830  -32.3110 C   0  0  0  0  0  0  0  0  0  0  0  0
   -7.9680   21.8520  -32.2500 C   0  0  0  0  0  0  0  0  0  0  0  0
   -8.2600   23.0660  -31.6210 C   0  0  0  0  0  0  0  0  0  0  0  0
   -7.2390   23.8160  -31.0370 C   0  0  0  0  0  0  0  0  0  0  0  0
   -5.9180   23.3490  -31.0660 C   0  0  0  0  0  0  0  0  0  0  0  0
   -4.6220   24.2630  -30.3010 S   0  0  0  0  0  0  0  0  0  0  0  0
   -4.2420   25.4090  -31.1940 O   0  0  0  0  0  0  0  0  0  0  0  0
   -5.0620   24.8190  -28.9750 O   0  0  0  0  0  0  0  0  0  0  0  0
   -3.2400   23.2410  -30.0690 N   0  0  0  0  0  0  0  0  0  0  0  0
   -2.3990   23.2270  -28.9070 C   0  0  0  0  0  0  0  0  0  0  0  0
   -2.0350   22.0280  -28.2640 C   0  0  0  0  0  0  0  0  0  0  0  0
   -1.2260   22.0550  -27.1260 C   0  0  0  0  0  0  0  0  0  0  0  0
   -0.7700   23.2720  -26.6190 C   0  0  0  0  0  0  0  0  0  0  0  0
   -1.1220   24.4670  -27.2500 C   0  0  0  0  0  0  0  0  0  0  0  0
   -1.9340   24.4490  -28.3930 C   0  0  0  0  0  0  0  0  0  0  0  0
   -2.2870   25.6430  -29.0200 O   0  0  0  0  0  0  0  0  0  0  0  0
   -5.6260   22.1320  -31.6950 C   0  0  0  0  0  0  0  0  0  0  0  0
   -6.9900   18.8680  -32.7950 C   0  0  0  0  0  0  0  0  0  0  0  0
   -8.0900   18.5030  -31.8460 C   0  0  0  0  0  0  0  0  0  0  0  0
   -6.6563   16.0799  -32.8750 H   0  0  0  0  0  0  0  0  0  0  0  0
   -7.5111   16.4157  -34.4188 H   0  0  0  0  0  0  0  0  0  0  0  0
   -5.7389   16.1224  -34.4188 H   0  0  0  0  0  0  0  0  0  0  0  0
   -8.7789   21.2603  -32.6998 H   0  0  0  0  0  0  0  0  0  0  0  0
   -9.2972   23.4306  -31.5865 H   0  0  0  0  0  0  0  0  0  0  0  0
   -7.4713   24.7760  -30.5527 H   0  0  0  0  0  0  0  0  0  0  0  0
   -2.3898   21.0652  -28.6603 H   0  0  0  0  0  0  0  0  0  0  0  0
   -0.9477   21.1144  -26.6282 H   0  0  0  0  0  0  0  0  0  0  0  0
   -0.1332   23.2903  -25.7222 H   0  0  0  0  0  0  0  0  0  0  0  0
   -0.7611   25.4256  -26.8490 H   0  0  0  0  0  0  0  0  0  0  0  0
   -3.0230   25.6770  -29.7170 H   0  0  0  0  0  0  0  0  0  0  0  0
   -4.5912   21.7590  -31.7071 H   0  0  0  0  0  0  0  0  0  0  0  0
   -7.7357   18.6206  -30.8113 H   0  0  0  0  0  0  0  0  0  0  0  0
   -8.9539   19.1626  -32.0149 H   0  0  0  0  0  0  0  0  0  0  0  0
   -8.3882   17.4578  -32.0149 H   0  0  0  0  0  0  0  0  0  0  0  0
  1  2  1  0
  2  3  2  0
  3  4  1  0
  4  5  1  0
  5  6  1  0
  6  7  2  0
  7  8  1  0
  8  9  2  0
  9 10  1  0
 10 11  1  0
 11 12  2  0
 11 13  2  0
 11 14  1  0
 14 15  1  0
 15 16  2  0
 16 17  1  0
 17 18  2  0
 18 19  1  0
 19 20  2  0
 20 21  1  0
 10 22  2  0
  5 23  2  0
 23 24  1  0
 23  2  1  0
 22  6  1  0
 20 15  1  0
  1 25  1  0
  1 26  1  0
  1 27  1  0
  7 28  1  0
  8 29  1  0
  9 30  1  0
 16 31  1  0
 17 32  1  0
 18 33  1  0
 19 34  1  0
 21 35  1  0
 22 36  1  0
 24 37  1  0
 24 38  1  0
 24 39  1  0
M  CHG  1  14  -1
M  END
>  <UniqueID>  (6) 
6

>  <SMILES>  (6) 
Cc1noc(-c2cccc(S(=O)(=O)[N-]c3ccccc3O)c2)c1C

>  <Energy>  (6) 
77.0668823092391

>  <Genealogy>  (6) 
Cc1noc(-c2cccc(S(=O)(=O)[N-]c3ccccc3O)c2)c1C (protonated)
Cc1noc(-c2cccc(S(=O)(=O)[N-]c3ccccc3O)c2)c1C (3D coordinates assigned)
Cc1noc(-c2cccc(S(=O)(=O)[N-]c3ccccc3O)c2)c1C (optimized conformer: 77.0668823092391 kcal/mol)

>  <smiles>  (6) 
Cc1noc(-c2cccc(S(=O)(=O)Nc3ccccc3O)c2)c1C

>  <score_type>  (6) 
oracle

>  <origin>  (6) 
adgpu

>  <m_score__min__energy>  (6) 
-10.98

>  <m_primary>  (6) 
energy

$$$$
6:0
     RDKit          3D

 54 57  0  0  0  0  0  0  0  0999 V2000
   -3.4780   18.9310  -26.3440 C   0  0  0  0  0  0  0  0  0  0  0  0
   -2.1150   19.3330  -26.8050 C   0  0  0  0  0  0  0  0  0  0  0  0
   -1.2180   18.3810  -27.3010 C   0  0  0  0  0  0  0  0  0  0  0  0
    0.0410   18.8070  -27.7210 C   0  0  0  0  0  0  0  0  0  0  0  0
    0.3770   20.1200  -27.6340 N   0  0  0  0  0  0  0  0  0  0  0  0
   -0.4960   21.0290  -27.1270 C   0  0  0  0  0  0  0  0  0  0  0  0
   -0.0380   22.7540  -27.0230 S   0  0  0  0  0  0  0  0  0  0  0  0
   -1.5240   23.3130  -27.8660 C   0  0  0  0  0  0  0  0  0  0  0  0
   -2.5860   23.8130  -27.1010 C   0  0  0  0  0  0  0  0  0  0  0  0
   -3.7450   24.2810  -27.7270 C   0  0  0  0  0  0  0  0  0  0  0  0
   -3.8410   24.2630  -29.1190 C   0  0  0  0  0  0  0  0  0  0  0  0
   -2.7920   23.7560  -29.8890 C   0  0  0  0  0  0  0  0  0  0  0  0
   -1.6320   23.2570  -29.2680 C   0  0  0  0  0  0  0  0  0  0  0  0
   -0.5700   22.6680  -30.0310 N   0  0  0  0  0  0  0  0  0  0  0  0
   -0.7480   21.3190  -31.1050 S   0  0  0  0  0  0  0  0  0  0  0  0
   -0.2590   20.0610  -30.4440 O   0  0  0  0  0  0  0  0  0  0  0  0
    0.0460   21.5710  -32.3580 O   0  0  0  0  0  0  0  0  0  0  0  0
   -2.4490   21.1550  -31.5230 C   0  0  0  0  0  0  0  0  0  0  0  0
   -2.8780   21.4570  -32.8220 C   0  0  0  0  0  0  0  0  0  0  0  0
   -4.2190   21.2830  -33.1790 C   0  0  0  0  0  0  0  0  0  0  0  0
   -5.1420   20.8030  -32.2370 C   0  0  0  0  0  0  0  0  0  0  0  0
   -6.8160   20.5030  -32.6960 S   0  0  0  0  0  0  0  0  0  0  0  0
   -7.4030   19.4430  -31.8070 O   0  0  0  0  0  0  0  0  0  0  0  0
   -6.8420   20.0040  -34.1150 O   0  0  0  0  0  0  0  0  0  0  0  0
   -7.7170   22.0000  -32.5640 N   0  0  0  0  0  0  0  0  0  0  0  0
   -6.8290   23.1620  -32.3310 C   0  0  0  0  0  0  0  0  0  0  0  0
   -6.7530   23.5660  -30.8460 C   0  0  0  0  0  0  0  0  0  0  0  0
   -6.8970   22.4310  -30.0210 O   0  0  0  0  0  0  0  0  0  0  0  0
   -8.2170   21.9230  -30.1090 C   0  0  0  0  0  0  0  0  0  0  0  0
   -8.7800   21.9070  -31.5490 C   0  0  0  0  0  0  0  0  0  0  0  0
   -4.7160   20.5140  -30.9350 C   0  0  0  0  0  0  0  0  0  0  0  0
   -3.3770   20.6920  -30.5760 C   0  0  0  0  0  0  0  0  0  0  0  0
   -1.7290   20.6340  -26.7170 N   0  0  0  0  0  0  0  0  0  0  0  0
   -3.5056   18.9229  -25.2444 H   0  0  0  0  0  0  0  0  0  0  0  0
   -4.2201   19.6485  -26.7241 H   0  0  0  0  0  0  0  0  0  0  0  0
   -3.7119   17.9256  -26.7241 H   0  0  0  0  0  0  0  0  0  0  0  0
   -1.5001   17.3193  -27.3583 H   0  0  0  0  0  0  0  0  0  0  0  0
    0.7621   18.0800  -28.1228 H   0  0  0  0  0  0  0  0  0  0  0  0
   -2.5075   23.8374  -26.0041 H   0  0  0  0  0  0  0  0  0  0  0  0
   -4.5808   24.6632  -27.1226 H   0  0  0  0  0  0  0  0  0  0  0  0
   -4.7457   24.6493  -29.6113 H   0  0  0  0  0  0  0  0  0  0  0  0
   -2.8729   23.7467  -30.9860 H   0  0  0  0  0  0  0  0  0  0  0  0
   -2.1576   21.8323  -33.5638 H   0  0  0  0  0  0  0  0  0  0  0  0
   -4.5509   21.5228  -34.2000 H   0  0  0  0  0  0  0  0  0  0  0  0
   -5.8170   22.9063  -32.6781 H   0  0  0  0  0  0  0  0  0  0  0  0
   -7.2468   24.0151  -32.8857 H   0  0  0  0  0  0  0  0  0  0  0  0
   -5.7791   24.0373  -30.6477 H   0  0  0  0  0  0  0  0  0  0  0  0
   -7.5662   24.2733  -30.6259 H   0  0  0  0  0  0  0  0  0  0  0  0
   -8.2195   20.8928  -29.7233 H   0  0  0  0  0  0  0  0  0  0  0  0
   -8.8601   22.5925  -29.5189 H   0  0  0  0  0  0  0  0  0  0  0  0
   -9.3345   20.9694  -31.7020 H   0  0  0  0  0  0  0  0  0  0  0  0
   -9.4346   22.7834  -31.6649 H   0  0  0  0  0  0  0  0  0  0  0  0
   -5.4381   20.1453  -30.1916 H   0  0  0  0  0  0  0  0  0  0  0  0
   -3.0494   20.4690  -29.5498 H   0  0  0  0  0  0  0  0  0  0  0  0
  1  2  1  0
  2  3  2  0
  3  4  1  0
  4  5  2  0
  5  6  1  0
  6  7  1  0
  7  8  1  0
  8  9  2  0
  9 10  1  0
 10 11  2  0
 11 12  1  0
 12 13  2  0
 13 14  1  0
 14 15  1  0
 15 16  2  0
 15 17  2  0
 15 18  1  0
 18 19  2  0
 19 20  1  0
 20 21  2  0
 21 22  1  0
 22 23  2  0
 22 24  2  0
 22 25  1  0
 25 26  1  0
 26 27  1  0
 27 28  1  0
 28 29  1  0
 29 30  1  0
 21 31  1  0
 31 32  2  0
  6 33  2  0
 33  2  1  0
 13  8  1  0
 32 18  1  0
 30 25  1  0
  1 34  1  0
  1 35  1  0
  1 36  1  0
  3 37  1  0
  4 38  1  0
  9 39  1  0
 10 40  1  0
 11 41  1  0
 12 42  1  0
 19 43  1  0
 20 44  1  0
 26 45  1  0
 26 46  1  0
 27 47  1  0
 27 48  1  0
 29 49  1  0
 29 50  1  0
 30 51  1  0
 30 52  1  0
 31 53  1  0
 32 54  1  0
M  CHG  1  14  -1
M  END
>  <UniqueID>  (7) 
7

>  <SMILES>  (7) 
Cc1ccnc(Sc2ccccc2[N-]S(=O)(=O)c2ccc(S(=O)(=O)N3CCOCC3)cc2)n1

>  <Energy>  (7) 
65.56359700247306

>  <Genealogy>  (7) 
Cc1ccnc(Sc2ccccc2[N-]S(=O)(=O)c2ccc(S(=O)(=O)N3CCOCC3)cc2)n1 (protonated)
Cc1ccnc(Sc2ccccc2[N-]S(=O)(=O)c2ccc(S(=O)(=O)N3CCOCC3)cc2)n1 (3D coordinates assigned)
Cc1ccnc(Sc2ccccc2[N-]S(=O)(=O)c2ccc(S(=O)(=O)N3CCOCC3)cc2)n1 (nonaromatic ring conformer: 65.56359700247306 kcal/mol)

>  <smiles>  (7) 
Cc1ccnc(Sc2ccccc2NS(=O)(=O)c2ccc(S(=O)(=O)N3CCOCC3)cc2)n1

>  <score_type>  (7) 
oracle

>  <origin>  (7) 
adgpu

>  <m_score__min__energy>  (7) 
-11.94

>  <m_primary>  (7) 
energy

$$$$
7:0
     RDKit          3D

 56 59  0  0  0  0  0  0  0  0999 V2000
   -5.5920   25.3190  -31.2260 O   0  0  0  0  0  0  0  0  0  0  0  0
   -4.7370   24.4820  -30.8260 C   0  0  0  0  0  0  0  0  0  0  0  0
   -3.4230   24.9140  -30.4610 N   0  0  0  0  0  0  0  0  0  0  0  0
   -2.5550   24.1680  -29.5570 C   0  0  0  0  0  0  0  0  0  0  0  0
   -1.8900   25.1010  -28.5930 C   0  0  0  0  0  0  0  0  0  0  0  0
   -1.8540   24.9560  -27.2200 C   0  0  0  0  0  0  0  0  0  0  0  0
   -1.1600   26.0500  -26.7510 C   0  0  0  0  0  0  0  0  0  0  0  0
   -0.8180   26.7930  -27.8650 C   0  0  0  0  0  0  0  0  0  0  0  0
   -1.2670   26.2020  -28.9480 O   0  0  0  0  0  0  0  0  0  0  0  0
   -5.0480   23.0860  -30.7780 N   0  0  0  0  0  0  0  0  0  0  0  0
   -4.5640   22.0830  -31.6840 C   0  0  0  0  0  0  0  0  0  0  0  0
   -3.1970   22.0020  -32.0020 C   0  0  0  0  0  0  0  0  0  0  0  0
   -2.7280   21.0370  -32.9000 C   0  0  0  0  0  0  0  0  0  0  0  0
   -1.0010   20.9030  -33.2370 S   0  0  0  0  0  0  0  0  0  0  0  0
   -0.7190   19.5680  -33.8680 O   0  0  0  0  0  0  0  0  0  0  0  0
   -0.6120   21.9700  -34.2230 O   0  0  0  0  0  0  0  0  0  0  0  0
   -0.0300   21.0640  -31.7880 N   0  0  0  0  0  0  0  0  0  0  0  0
   -0.6180   21.9980  -30.7970 C   0  0  0  0  0  0  0  0  0  0  0  0
   -0.6920   21.4250  -29.3770 C   0  0  0  0  0  0  0  0  0  0  0  0
   -1.3400   20.0460  -29.4090 C   0  0  0  0  0  0  0  0  0  0  0  0
   -0.5740   19.0730  -30.3190 C   0  0  0  0  0  0  0  0  0  0  0  0
    0.4340   19.7620  -31.2640 C   0  0  0  0  0  0  0  0  0  0  0  0
   -3.6390   20.1850  -33.5340 C   0  0  0  0  0  0  0  0  0  0  0  0
   -5.0030   20.2820  -33.2570 C   0  0  0  0  0  0  0  0  0  0  0  0
   -5.4790   21.2230  -32.3280 C   0  0  0  0  0  0  0  0  0  0  0  0
   -6.8860   21.2790  -32.0270 N   0  0  0  0  0  0  0  0  0  0  0  0
   -7.6450   22.5160  -31.9780 C   0  0  0  0  0  0  0  0  0  0  0  0
   -9.0730   22.1050  -31.6490 C   0  0  0  0  0  0  0  0  0  0  0  0
   -9.1630   20.6210  -31.9950 C   0  0  0  0  0  0  0  0  0  0  0  0
   -7.7330   20.0990  -31.9440 C   0  0  0  0  0  0  0  0  0  0  0  0
   -3.1558   23.4354  -28.9982 H   0  0  0  0  0  0  0  0  0  0  0  0
   -1.7837   23.6496  -30.1456 H   0  0  0  0  0  0  0  0  0  0  0  0
   -2.2883   24.1386  -26.6256 H   0  0  0  0  0  0  0  0  0  0  0  0
   -0.9256   26.2846  -25.7022 H   0  0  0  0  0  0  0  0  0  0  0  0
   -0.2544   27.7375  -27.8470 H   0  0  0  0  0  0  0  0  0  0  0  0
   -2.4884   22.7050  -31.5398 H   0  0  0  0  0  0  0  0  0  0  0  0
   -0.0030   22.9097  -30.7718 H   0  0  0  0  0  0  0  0  0  0  0  0
   -1.6514   22.1969  -31.1172 H   0  0  0  0  0  0  0  0  0  0  0  0
    0.3240   21.3414  -28.9637 H   0  0  0  0  0  0  0  0  0  0  0  0
   -1.2951   22.0948  -28.7464 H   0  0  0  0  0  0  0  0  0  0  0  0
   -1.3581   19.6380  -28.3876 H   0  0  0  0  0  0  0  0  0  0  0  0
   -2.3582   20.1574  -29.8101 H   0  0  0  0  0  0  0  0  0  0  0  0
   -0.0236   18.3643  -29.6828 H   0  0  0  0  0  0  0  0  0  0  0  0
   -1.3209   18.5766  -30.9560 H   0  0  0  0  0  0  0  0  0  0  0  0
    1.3711   19.9251  -30.7115 H   0  0  0  0  0  0  0  0  0  0  0  0
    0.5650   19.0973  -32.1306 H   0  0  0  0  0  0  0  0  0  0  0  0
   -3.2783   19.4355  -34.2539 H   0  0  0  0  0  0  0  0  0  0  0  0
   -5.7122   19.6160  -33.7703 H   0  0  0  0  0  0  0  0  0  0  0  0
   -7.2468   23.1805  -31.1971 H   0  0  0  0  0  0  0  0  0  0  0  0
   -7.5880   23.0673  -32.9282 H   0  0  0  0  0  0  0  0  0  0  0  0
   -9.2818   22.2636  -30.5807 H   0  0  0  0  0  0  0  0  0  0  0  0
   -9.8076   22.6995  -32.2119 H   0  0  0  0  0  0  0  0  0  0  0  0
   -9.7904   20.0934  -31.2615 H   0  0  0  0  0  0  0  0  0  0  0  0
   -9.6187   20.4612  -32.9833 H   0  0  0  0  0  0  0  0  0  0  0  0
   -7.5530   19.5620  -31.0010 H   0  0  0  0  0  0  0  0  0  0  0  0
   -7.5275   19.3906  -32.7601 H   0  0  0  0  0  0  0  0  0  0  0  0
  1  2  2  0
  2  3  1  0
  3  4  1  0
  4  5  1  0
  5  6  2  0
  6  7  1  0
  7  8  2  0
  8  9  1  0
  2 10  1  0
 10 11  1  0
 11 12  2  0
 12 13  1  0
 13 14  1  0
 14 15  2  0
 14 16  2  0
 14 17  1  0
 17 18  1  0
 18 19  1  0
 19 20  1  0
 20 21  1  0
 21 22  1  0
 13 23  2  0
 23 24  1  0
 24 25  2  0
 25 26  1  0
 26 27  1  0
 27 28  1  0
 28 29  1  0
 29 30  1  0
  9  5  1  0
 25 11  1  0
 30 26  1  0
 22 17  1  0
  4 31  1  0
  4 32  1  0
  6 33  1  0
  7 34  1  0
  8 35  1  0
 12 36  1  0
 18 37  1  0
 18 38  1  0
 19 39  1  0
 19 40  1  0
 20 41  1  0
 20 42  1  0
 21 43  1  0
 21 44  1  0
 22 45  1  0
 22 46  1  0
 23 47  1  0
 24 48  1  0
 27 49  1  0
 27 50  1  0
 28 51  1  0
 28 52  1  0
 29 53  1  0
 29 54  1  0
 30 55  1  0
 30 56  1  0
M  CHG  2   3  -1  10  -1
M  END
>  <UniqueID>  (8) 
8

>  <SMILES>  (8) 
O=C([N-]Cc1ccco1)[N-]c1cc(S(=O)(=O)N2CCCCC2)ccc1N1CCCC1

>  <Energy>  (8) 
94.88277521189835

>  <Genealogy>  (8) 
O=C([N-]Cc1ccco1)[N-]c1cc(S(=O)(=O)N2CCCCC2)ccc1N1CCCC1 (protonated)
O=C([N-]Cc1ccco1)[N-]c1cc(S(=O)(=O)N2CCCCC2)ccc1N1CCCC1 (3D coordinates assigned)
O=C([N-]Cc1ccco1)[N-]c1cc(S(=O)(=O)N2CCCCC2)ccc1N1CCCC1 (nonaromatic ring conformer: 94.88277521189835 kcal/mol)

>  <smiles>  (8) 
O=C(NCc1ccco1)Nc1cc(S(=O)(=O)N2CCCCC2)ccc1N1CCCC1

>  <score_type>  (8) 
oracle

>  <origin>  (8) 
adgpu

>  <m_score__min__energy>  (8) 
-11.57

>  <m_primary>  (8) 
energy

$$$$
8:0
     RDKit          3D

 48 52  0  0  0  0  0  0  0  0999 V2000
   -0.7990   23.4270  -26.5510 O   0  0  0  0  0  0  0  0  0  0  0  0
   -0.5860   22.9770  -27.9710 S   0  0  0  0  0  0  0  0  0  0  0  0
    0.4310   23.8760  -28.6170 O   0  0  0  0  0  0  0  0  0  0  0  0
    0.0080   21.3470  -27.9680 N   0  0  0  0  0  0  0  0  0  0  0  0
   -0.6630   20.3510  -27.4770 C   0  0  0  0  0  0  0  0  0  0  0  0
   -1.8850   20.4680  -26.9120 N   0  0  0  0  0  0  0  0  0  0  0  0
   -2.3510   19.2630  -26.4870 C   0  0  0  0  0  0  0  0  0  0  0  0
   -1.4980   18.1870  -26.7140 C   0  0  0  0  0  0  0  0  0  0  0  0
   -0.1110   18.7660  -27.4730 S   0  0  0  0  0  0  0  0  0  0  0  0
   -2.0860   23.0590  -28.8880 C   0  0  0  0  0  0  0  0  0  0  0  0
   -2.7680   21.8770  -29.2050 C   0  0  0  0  0  0  0  0  0  0  0  0
   -3.9680   21.9240  -29.9200 C   0  0  0  0  0  0  0  0  0  0  0  0
   -4.5040   23.1610  -30.3210 C   0  0  0  0  0  0  0  0  0  0  0  0
   -3.8210   24.3450  -29.9950 C   0  0  0  0  0  0  0  0  0  0  0  0
   -2.6140   24.2940  -29.2900 C   0  0  0  0  0  0  0  0  0  0  0  0
   -4.3480   25.5800  -30.3870 O   0  0  0  0  0  0  0  0  0  0  0  0
   -5.6840   25.7000  -30.8770 C   0  0  0  0  0  0  0  0  0  0  0  0
   -6.0260   24.5160  -31.7840 C   0  0  0  0  0  0  0  0  0  0  0  0
   -5.7190   23.2530  -31.0980 N   0  0  0  0  0  0  0  0  0  0  0  0
   -6.6480   22.1550  -31.1810 C   0  0  0  0  0  0  0  0  0  0  0  0
   -7.9320   22.3080  -30.6340 C   0  0  0  0  0  0  0  0  0  0  0  0
   -8.8800   21.2910  -30.7570 C   0  0  0  0  0  0  0  0  0  0  0  0
   -8.5580   20.1140  -31.4310 C   0  0  0  0  0  0  0  0  0  0  0  0
   -7.2830   19.9450  -31.9770 C   0  0  0  0  0  0  0  0  0  0  0  0
   -6.3130   20.9540  -31.8520 C   0  0  0  0  0  0  0  0  0  0  0  0
   -4.9560   20.7210  -32.3960 C   0  0  0  0  0  0  0  0  0  0  0  0
   -4.2570   21.7620  -33.0260 C   0  0  0  0  0  0  0  0  0  0  0  0
   -2.9750   21.5260  -33.5280 C   0  0  0  0  0  0  0  0  0  0  0  0
   -2.4130   20.2950  -33.4130 N   0  0  0  0  0  0  0  0  0  0  0  0
   -3.0710   19.2640  -32.8180 C   0  0  0  0  0  0  0  0  0  0  0  0
   -4.3550   19.4560  -32.3020 C   0  0  0  0  0  0  0  0  0  0  0  0
   -3.3303   19.1474  -25.9996 H   0  0  0  0  0  0  0  0  0  0  0  0
   -1.6958   17.1391  -26.4441 H   0  0  0  0  0  0  0  0  0  0  0  0
   -2.3568   20.9067  -28.8895 H   0  0  0  0  0  0  0  0  0  0  0  0
   -4.4946   20.9911  -30.1698 H   0  0  0  0  0  0  0  0  0  0  0  0
   -2.0782   25.2244  -29.0506 H   0  0  0  0  0  0  0  0  0  0  0  0
   -6.3818   25.7192  -30.0269 H   0  0  0  0  0  0  0  0  0  0  0  0
   -5.7700   26.6309  -31.4566 H   0  0  0  0  0  0  0  0  0  0  0  0
   -7.0972   24.5447  -32.0324 H   0  0  0  0  0  0  0  0  0  0  0  0
   -5.4280   24.5817  -32.7049 H   0  0  0  0  0  0  0  0  0  0  0  0
   -8.1928   23.2363  -30.1046 H   0  0  0  0  0  0  0  0  0  0  0  0
   -9.8821   21.4184  -30.3217 H   0  0  0  0  0  0  0  0  0  0  0  0
   -9.3091   19.3168  -31.5332 H   0  0  0  0  0  0  0  0  0  0  0  0
   -7.0365   19.0144  -32.5091 H   0  0  0  0  0  0  0  0  0  0  0  0
   -4.7155   22.7571  -33.1239 H   0  0  0  0  0  0  0  0  0  0  0  0
   -2.4193   22.3392  -34.0177 H   0  0  0  0  0  0  0  0  0  0  0  0
   -2.5912   18.2770  -32.7429 H   0  0  0  0  0  0  0  0  0  0  0  0
   -4.8911   18.6220  -31.8255 H   0  0  0  0  0  0  0  0  0  0  0  0
  1  2  2  0
  2  3  2  0
  2  4  1  0
  4  5  2  3
  5  6  1  0
  6  7  1  0
  7  8  2  0
  8  9  1  0
  2 10  1  0
 10 11  2  0
 11 12  1  0
 12 13  2  0
 13 14  1  0
 14 15  2  0
 14 16  1  0
 16 17  1  0
 17 18  1  0
 18 19  1  0
 19 20  1  0
 20 21  2  0
 21 22  1  0
 22 23  2  0
 23 24  1  0
 24 25  2  0
 25 26  1  0
 26 27  2  0
 27 28  1  0
 28 29  2  0
 29 30  1  0
 30 31  2  0
  9  5  1  0
 15 10  1  0
 25 20  1  0
 31 26  1  0
 19 13  1  0
  7 32  1  0
  8 33  1  0
 11 34  1  0
 12 35  1  0
 15 36  1  0
 17 37  1  0
 17 38  1  0
 18 39  1  0
 18 40  1  0
 21 41  1  0
 22 42  1  0
 23 43  1  0
 24 44  1  0
 27 45  1  0
 28 46  1  0
 30 47  1  0
 31 48  1  0
M  CHG  1   6  -1
M  END
>  <UniqueID>  (9) 
9

>  <SMILES>  (9) 
O=S(=O)(N=c1[n-]ccs1)c1ccc2c(c1)OCCN2c1ccccc1-c1ccncc1

>  <Energy>  (9) 
100.93693671276799

>  <Genealogy>  (9) 
O=S(=O)(N=c1[n-]ccs1)c1ccc2c(c1)OCCN2c1ccccc1-c1ccncc1 (protonated)
O=S(=O)(N=c1[n-]ccs1)c1ccc2c(c1)OCCN2c1ccccc1-c1ccncc1 (3D coordinates assigned)
O=S(=O)(N=c1[n-]ccs1)c1ccc2c(c1)OCCN2c1ccccc1-c1ccncc1 (nonaromatic ring conformer: 100.93693671276799 kcal/mol)

>  <smiles>  (9) 
O=S(=O)(N=c1[nH]ccs1)c1ccc2c(c1)OCCN2c1ccccc1-c1ccncc1

>  <score_type>  (9) 
oracle

>  <origin>  (9) 
adgpu

>  <m_score__min__energy>  (9) 
-10.02

>  <m_primary>  (9) 
energy

$$$$
9:0
     RDKit          3D

 64 67  0  0  0  0  0  0  0  0999 V2000
   -1.6110   15.3900  -33.0690 C   0  0  0  0  0  0  0  0  0  0  0  0
   -2.2140   14.5070  -34.0820 N   0  0  0  0  0  0  0  0  0  0  0  0
   -2.3720   15.1920  -35.3830 C   0  0  0  0  0  0  0  0  0  0  0  0
   -3.4240   16.3130  -35.3160 C   0  0  0  0  0  0  0  0  0  0  0  0
   -4.5490   15.9190  -34.4620 N   0  0  0  0  0  0  0  0  0  0  0  0
   -5.4070   16.9220  -33.8830 C   0  0  0  0  0  0  0  0  0  0  0  0
   -5.5870   18.1630  -34.5180 C   0  0  0  0  0  0  0  0  0  0  0  0
   -6.4400   19.1240  -33.9680 C   0  0  0  0  0  0  0  0  0  0  0  0
   -7.1350   18.8530  -32.7820 C   0  0  0  0  0  0  0  0  0  0  0  0
   -8.2150   20.0520  -32.0790 S   0  0  0  0  0  0  0  0  0  0  0  0
   -8.8270   19.4980  -30.8220 O   0  0  0  0  0  0  0  0  0  0  0  0
   -9.3270   20.3810  -33.0350 O   0  0  0  0  0  0  0  0  0  0  0  0
   -7.3010   21.5100  -31.7130 C   0  0  0  0  0  0  0  0  0  0  0  0
   -7.8500   22.4940  -30.8810 C   0  0  0  0  0  0  0  0  0  0  0  0
   -7.1220   23.6480  -30.5790 C   0  0  0  0  0  0  0  0  0  0  0  0
   -5.8310   23.8280  -31.1010 C   0  0  0  0  0  0  0  0  0  0  0  0
   -5.0420   25.0720  -30.7620 C   0  0  0  0  0  0  0  0  0  0  0  0
   -3.6230   24.7770  -30.4980 N   0  0  0  0  0  0  0  0  0  0  0  0
   -3.4280   23.9070  -29.3290 C   0  0  0  0  0  0  0  0  0  0  0  0
   -2.7300   24.6520  -28.2220 C   0  0  0  0  0  0  0  0  0  0  0  0
   -1.5230   25.3220  -28.4780 C   0  0  0  0  0  0  0  0  0  0  0  0
   -0.8590   25.9980  -27.4490 C   0  0  0  0  0  0  0  0  0  0  0  0
   -1.3850   26.0000  -26.1480 C   0  0  0  0  0  0  0  0  0  0  0  0
   -0.6850   26.7490  -25.0470 C   0  0  0  0  0  0  0  0  0  0  0  0
   -1.4960   26.7940  -23.9050 O   0  0  0  0  0  0  0  0  0  0  0  0
   -2.5990   25.3430  -25.8940 C   0  0  0  0  0  0  0  0  0  0  0  0
   -3.2650   24.6690  -26.9230 C   0  0  0  0  0  0  0  0  0  0  0  0
   -5.2800   22.8360  -31.9280 C   0  0  0  0  0  0  0  0  0  0  0  0
   -6.0090   21.6810  -32.2280 C   0  0  0  0  0  0  0  0  0  0  0  0
   -6.9610   17.6180  -32.1460 C   0  0  0  0  0  0  0  0  0  0  0  0
   -6.1080   16.6570  -32.6940 C   0  0  0  0  0  0  0  0  0  0  0  0
   -4.7490   14.4920  -34.1890 C   0  0  0  0  0  0  0  0  0  0  0  0
   -3.4690   13.8790  -33.5910 C   0  0  0  0  0  0  0  0  0  0  0  0
   -1.8631   15.0208  -32.0640 H   0  0  0  0  0  0  0  0  0  0  0  0
   -0.5181   15.3978  -33.1933 H   0  0  0  0  0  0  0  0  0  0  0  0
   -2.0015   16.4108  -33.1933 H   0  0  0  0  0  0  0  0  0  0  0  0
   -1.4054   15.6282  -35.6752 H   0  0  0  0  0  0  0  0  0  0  0  0
   -2.7107   14.4497  -36.1207 H   0  0  0  0  0  0  0  0  0  0  0  0
   -2.9586   17.2205  -34.9039 H   0  0  0  0  0  0  0  0  0  0  0  0
   -3.8014   16.5044  -36.3314 H   0  0  0  0  0  0  0  0  0  0  0  0
   -5.0526   18.3795  -35.4548 H   0  0  0  0  0  0  0  0  0  0  0  0
   -6.5660   20.0958  -34.4677 H   0  0  0  0  0  0  0  0  0  0  0  0
   -8.8585   22.3578  -30.4635 H   0  0  0  0  0  0  0  0  0  0  0  0
   -7.5623   24.4188  -29.9294 H   0  0  0  0  0  0  0  0  0  0  0  0
   -5.1066   25.7735  -31.6068 H   0  0  0  0  0  0  0  0  0  0  0  0
   -5.4723   25.5057  -29.8473 H   0  0  0  0  0  0  0  0  0  0  0  0
   -3.1060   25.6740  -30.3370 H   0  0  0  0  0  0  0  0  0  0  0  0
   -4.4080   23.5605  -28.9692 H   0  0  0  0  0  0  0  0  0  0  0  0
   -2.8058   23.0498  -29.6258 H   0  0  0  0  0  0  0  0  0  0  0  0
   -1.0976   25.3153  -29.4924 H   0  0  0  0  0  0  0  0  0  0  0  0
    0.0799   26.5306  -27.6606 H   0  0  0  0  0  0  0  0  0  0  0  0
    0.2589   26.2395  -24.8032 H   0  0  0  0  0  0  0  0  0  0  0  0
   -0.4795   27.7758  -25.3838 H   0  0  0  0  0  0  0  0  0  0  0  0
   -2.2760   27.3640  -24.1340 H   0  0  0  0  0  0  0  0  0  0  0  0
   -3.0285   25.3582  -24.8814 H   0  0  0  0  0  0  0  0  0  0  0  0
   -4.2120   24.1499  -26.7142 H   0  0  0  0  0  0  0  0  0  0  0  0
   -4.2695   22.9681  -32.3421 H   0  0  0  0  0  0  0  0  0  0  0  0
   -5.5671   20.9047  -32.8699 H   0  0  0  0  0  0  0  0  0  0  0  0
   -7.4984   17.4034  -31.2105 H   0  0  0  0  0  0  0  0  0  0  0  0
   -5.9841   15.6863  -32.1916 H   0  0  0  0  0  0  0  0  0  0  0  0
   -5.5771   14.3715  -33.4751 H   0  0  0  0  0  0  0  0  0  0  0  0
   -4.9867   13.9767  -35.1313 H   0  0  0  0  0  0  0  0  0  0  0  0
   -3.5085   13.9929  -32.4976 H   0  0  0  0  0  0  0  0  0  0  0  0
   -3.4428   12.8251  -33.9051 H   0  0  0  0  0  0  0  0  0  0  0  0
  1  2  1  0
  2  3  1  0
  3  4  1  0
  4  5  1  0
  5  6  1  0
  6  7  2  0
  7  8  1  0
  8  9  2  0
  9 10  1  0
 10 11  2  0
 10 12  2  0
 10 13  1  0
 13 14  2  0
 14 15  1  0
 15 16  2  0
 16 17  1  0
 17 18  1  0
 18 19  1  0
 19 20  1  0
 20 21  2  0
 21 22  1  0
 22 23  2  0
 23 24  1  0
 24 25  1  0
 23 26  1  0
 26 27  2  0
 16 28  1  0
 28 29  2  0
  9 30  1  0
 30 31  2  0
  5 32  1  0
 32 33  1  0
 33  2  1  0
 31  6  1  0
 29 13  1  0
 27 20  1  0
  1 34  1  0
  1 35  1  0
  1 36  1  0
  3 37  1  0
  3 38  1  0
  4 39  1  0
  4 40  1  0
  7 41  1  0
  8 42  1  0
 14 43  1  0
 15 44  1  0
 17 45  1  0
 17 46  1  0
 18 47  1  0
 19 48  1  0
 19 49  1  0
 21 50  1  0
 22 51  1  0
 24 52  1  0
 24 53  1  0
 25 54  1  0
 26 55  1  0
 27 56  1  0
 28 57  1  0
 29 58  1  0
 30 59  1  0
 31 60  1  0
 32 61  1  0
 32 62  1  0
 33 63  1  0
 33 64  1  0
M  END
>  <UniqueID>  (10) 
10

>  <SMILES>  (10) 
CN1CCN(c2ccc(S(=O)(=O)c3ccc(CNCc4ccc(CO)cc4)cc3)cc2)CC1

>  <Energy>  (10) 
79.09143107234964

>  <Genealogy>  (10) 
CN1CCN(c2ccc(S(=O)(=O)c3ccc(CNCc4ccc(CO)cc4)cc3)cc2)CC1 (3D coordinates assigned)
CN1CCN(c2ccc(S(=O)(=O)c3ccc(CNCc4ccc(CO)cc4)cc3)cc2)CC1 (nonaromatic ring conformer: 79.09143107234964 kcal/mol)

>  <smiles>  (10) 
CN1CCN(c2ccc(S(=O)(=O)c3ccc(CNCc4ccc(CO)cc4)cc3)cc2)CC1

>  <score_type>  (10) 
oracle

>  <origin>  (10) 
adgpu

>  <m_score__min__energy>  (10) 
-10.94

>  <m_primary>  (10) 
energy

$$$$
10:0
     RDKit          3D

 63 67  0  0  0  0  0  0  0  0999 V2000
   -0.2590   22.1130  -23.3350 O   0  0  0  0  0  0  0  0  0  0  0  0
   -0.1640   23.1080  -24.1030 C   0  0  0  0  0  0  0  0  0  0  0  0
    0.6390   23.0120  -25.3670 C   0  0  0  0  0  0  0  0  0  0  0  0
    0.1010   23.9340  -26.3740 N   0  0  0  0  0  0  0  0  0  0  0  0
   -0.1930   23.3680  -27.9970 S   0  0  0  0  0  0  0  0  0  0  0  0
    0.2160   21.9250  -28.0940 O   0  0  0  0  0  0  0  0  0  0  0  0
    0.6070   24.1720  -28.9840 O   0  0  0  0  0  0  0  0  0  0  0  0
   -1.8960   23.5600  -28.4070 C   0  0  0  0  0  0  0  0  0  0  0  0
   -2.7920   24.0050  -27.4290 C   0  0  0  0  0  0  0  0  0  0  0  0
   -4.1470   24.1410  -27.7280 C   0  0  0  0  0  0  0  0  0  0  0  0
   -4.6190   23.8320  -29.0070 C   0  0  0  0  0  0  0  0  0  0  0  0
   -3.7330   23.3800  -30.0030 C   0  0  0  0  0  0  0  0  0  0  0  0
   -4.2300   23.0460  -31.3580 C   0  0  0  0  0  0  0  0  0  0  0  0
   -3.5350   22.3240  -32.1240 O   0  0  0  0  0  0  0  0  0  0  0  0
   -5.5250   23.4980  -31.7790 N   0  0  0  0  0  0  0  0  0  0  0  0
   -6.7150   22.7040  -31.8790 C   0  0  0  0  0  0  0  0  0  0  0  0
   -7.9980   23.2810  -31.8720 C   0  0  0  0  0  0  0  0  0  0  0  0
   -9.1340   22.4690  -31.9480 C   0  0  0  0  0  0  0  0  0  0  0  0
   -9.0010   21.0810  -32.0150 C   0  0  0  0  0  0  0  0  0  0  0  0
   -7.7280   20.4920  -31.9930 C   0  0  0  0  0  0  0  0  0  0  0  0
   -7.5600   18.7350  -32.0420 S   0  0  0  0  0  0  0  0  0  0  0  0
   -8.9120   18.1030  -31.8520 O   0  0  0  0  0  0  0  0  0  0  0  0
   -6.6770   18.2900  -30.9100 O   0  0  0  0  0  0  0  0  0  0  0  0
   -6.8710   18.1970  -33.5560 N   0  0  0  0  0  0  0  0  0  0  0  0
   -5.5640   18.8530  -33.7890 C   0  0  0  0  0  0  0  0  0  0  0  0
   -4.7530   18.1160  -34.8580 C   0  0  0  0  0  0  0  0  0  0  0  0
   -4.4290   16.6790  -34.4130 C   0  0  0  0  0  0  0  0  0  0  0  0
   -5.4540   16.1210  -33.4090 C   0  0  0  0  0  0  0  0  0  0  0  0
   -6.8490   16.7160  -33.6510 C   0  0  0  0  0  0  0  0  0  0  0  0
   -6.5900   21.3090  -31.9220 C   0  0  0  0  0  0  0  0  0  0  0  0
   -2.3670   23.2480  -29.6910 C   0  0  0  0  0  0  0  0  0  0  0  0
   -0.2730   25.2650  -25.9640 C   0  0  0  0  0  0  0  0  0  0  0  0
   -0.1930   26.3600  -26.8420 C   0  0  0  0  0  0  0  0  0  0  0  0
   -0.5850   27.6320  -26.4160 C   0  0  0  0  0  0  0  0  0  0  0  0
   -1.0530   27.8220  -25.1120 C   0  0  0  0  0  0  0  0  0  0  0  0
   -1.1180   26.7430  -24.2260 C   0  0  0  0  0  0  0  0  0  0  0  0
   -0.7180   25.4670  -24.6440 C   0  0  0  0  0  0  0  0  0  0  0  0
   -0.7610   24.3560  -23.7380 N   0  0  0  0  0  0  0  0  0  0  0  0
    1.6858   23.2749  -25.1545 H   0  0  0  0  0  0  0  0  0  0  0  0
    0.5839   21.9834  -25.7528 H   0  0  0  0  0  0  0  0  0  0  0  0
   -2.4262   24.2484  -26.4206 H   0  0  0  0  0  0  0  0  0  0  0  0
   -4.8466   24.4924  -26.9553 H   0  0  0  0  0  0  0  0  0  0  0  0
   -5.6891   23.9427  -29.2364 H   0  0  0  0  0  0  0  0  0  0  0  0
   -8.1079   24.3735  -31.8066 H   0  0  0  0  0  0  0  0  0  0  0  0
  -10.1349   22.9252  -31.9550 H   0  0  0  0  0  0  0  0  0  0  0  0
   -9.8972   20.4471  -32.0853 H   0  0  0  0  0  0  0  0  0  0  0  0
   -5.7366   19.8876  -34.1204 H   0  0  0  0  0  0  0  0  0  0  0  0
   -4.9945   18.8350  -32.8481 H   0  0  0  0  0  0  0  0  0  0  0  0
   -5.3354   18.0809  -35.7905 H   0  0  0  0  0  0  0  0  0  0  0  0
   -3.8073   18.6557  -35.0137 H   0  0  0  0  0  0  0  0  0  0  0  0
   -4.4175   16.0300  -35.3011 H   0  0  0  0  0  0  0  0  0  0  0  0
   -3.4505   16.7000  -33.9108 H   0  0  0  0  0  0  0  0  0  0  0  0
   -5.5061   15.0278  -33.5195 H   0  0  0  0  0  0  0  0  0  0  0  0
   -5.1306   16.3931  -32.3934 H   0  0  0  0  0  0  0  0  0  0  0  0
   -7.1852   16.4240  -34.6568 H   0  0  0  0  0  0  0  0  0  0  0  0
   -7.5144   16.3256  -32.8669 H   0  0  0  0  0  0  0  0  0  0  0  0
   -5.5904   20.8504  -31.8999 H   0  0  0  0  0  0  0  0  0  0  0  0
   -1.6631   22.8974  -30.4601 H   0  0  0  0  0  0  0  0  0  0  0  0
    0.1791   26.2152  -27.8670 H   0  0  0  0  0  0  0  0  0  0  0  0
   -0.5253   28.4852  -27.1077 H   0  0  0  0  0  0  0  0  0  0  0  0
   -1.3705   28.8225  -24.7830 H   0  0  0  0  0  0  0  0  0  0  0  0
   -1.4835   26.8957  -23.1998 H   0  0  0  0  0  0  0  0  0  0  0  0
   -1.2120   24.4580  -22.8010 H   0  0  0  0  0  0  0  0  0  0  0  0
  1  2  2  0
  2  3  1  0
  3  4  1  0
  4  5  1  0
  5  6  2  0
  5  7  2  0
  5  8  1  0
  8  9  2  0
  9 10  1  0
 10 11  2  0
 11 12  1  0
 12 13  1  0
 13 14  2  0
 13 15  1  0
 15 16  1  0
 16 17  2  0
 17 18  1  0
 18 19  2  0
 19 20  1  0
 20 21  1  0
 21 22  2  0
 21 23  2  0
 21 24  1  0
 24 25  1  0
 25 26  1  0
 26 27  1  0
 27 28  1  0
 28 29  1  0
 20 30  2  0
 12 31  2  0
  4 32  1  0
 32 33  2  0
 33 34  1  0
 34 35  2  0
 35 36  1  0
 36 37  2  0
 37 38  1  0
 38  2  1  0
 31  8  1  0
 37 32  1  0
 30 16  1  0
 29 24  1  0
  3 39  1  0
  3 40  1  0
  9 41  1  0
 10 42  1  0
 11 43  1  0
 17 44  1  0
 18 45  1  0
 19 46  1  0
 25 47  1  0
 25 48  1  0
 26 49  1  0
 26 50  1  0
 27 51  1  0
 27 52  1  0
 28 53  1  0
 28 54  1  0
 29 55  1  0
 29 56  1  0
 30 57  1  0
 31 58  1  0
 33 59  1  0
 34 60  1  0
 35 61  1  0
 36 62  1  0
 38 63  1  0
M  CHG  1  15  -1
M  END
>  <UniqueID>  (11) 
11

>  <SMILES>  (11) 
O=C1CN(S(=O)(=O)c2cccc(C(=O)[N-]c3cccc(S(=O)(=O)N4CCCCC4)c3)c2)c2ccccc2N1

>  <Energy>  (11) 
82.31190444660726

>  <Genealogy>  (11) 
O=C1CN(S(=O)(=O)c2cccc(C(=O)[N-]c3cccc(S(=O)(=O)N4CCCCC4)c3)c2)c2ccccc2N1 (protonated)
O=C1CN(S(=O)(=O)c2cccc(C(=O)[N-]c3cccc(S(=O)(=O)N4CCCCC4)c3)c2)c2ccccc2N1 (3D coordinates assigned)
O=C1CN(S(=O)(=O)c2cccc(C(=O)[N-]c3cccc(S(=O)(=O)N4CCCCC4)c3)c2)c2ccccc2N1 (nonaromatic ring conformer: 82.31190444660726 kcal/mol)

>  <smiles>  (11) 
O=C1CN(S(=O)(=O)c2cccc(C(=O)Nc3cccc(S(=O)(=O)N4CCCCC4)c3)c2)c2ccccc2N1

>  <score_type>  (11) 
oracle

>  <origin>  (11) 
adgpu

>  <m_score__min__energy>  (11) 
-13.73

>  <m_primary>  (11) 
energy

$$$$
11:0
     RDKit          3D

 62 65  0  0  0  0  0  0  0  0999 V2000
   -9.3330   21.1790  -32.3550 C   0  0  0  0  0  0  0  0  0  0  0  0
   -8.0790   21.6780  -31.6830 C   0  0  0  0  0  0  0  0  0  0  0  0
   -8.0630   22.9920  -31.1900 C   0  0  0  0  0  0  0  0  0  0  0  0
   -6.9260   23.5080  -30.5760 C   0  0  0  0  0  0  0  0  0  0  0  0
   -5.7730   22.7320  -30.4550 C   0  0  0  0  0  0  0  0  0  0  0  0
   -4.6100   23.3010  -29.8320 N   0  0  0  0  0  0  0  0  0  0  0  0
   -4.0080   24.5260  -30.2690 C   0  0  0  0  0  0  0  0  0  0  0  0
   -4.5730   25.2350  -31.1460 O   0  0  0  0  0  0  0  0  0  0  0  0
   -2.7510   24.9230  -29.7110 N   0  0  0  0  0  0  0  0  0  0  0  0
   -1.7240   24.0480  -29.2220 C   0  0  0  0  0  0  0  0  0  0  0  0
   -0.9810   24.3470  -28.0660 C   0  0  0  0  0  0  0  0  0  0  0  0
   -0.0020   23.4590  -27.6110 C   0  0  0  0  0  0  0  0  0  0  0  0
    0.2370   22.2660  -28.2980 C   0  0  0  0  0  0  0  0  0  0  0  0
   -0.5090   21.9500  -29.4410 C   0  0  0  0  0  0  0  0  0  0  0  0
   -0.2070   20.4460  -30.3140 S   0  0  0  0  0  0  0  0  0  0  0  0
   -1.1180   19.3760  -29.7800 O   0  0  0  0  0  0  0  0  0  0  0  0
    1.2120   20.0090  -30.0730 O   0  0  0  0  0  0  0  0  0  0  0  0
   -0.4740   20.6240  -32.0300 N   0  0  0  0  0  0  0  0  0  0  0  0
   -0.1190   19.3860  -32.7380 C   0  0  0  0  0  0  0  0  0  0  0  0
   -0.3280   19.5730  -34.2570 C   0  0  0  0  0  0  0  0  0  0  0  0
   -0.9940   20.7870  -34.5640 O   0  0  0  0  0  0  0  0  0  0  0  0
   -2.1860   20.8870  -33.8080 C   0  0  0  0  0  0  0  0  0  0  0  0
   -1.8780   20.9800  -32.3000 C   0  0  0  0  0  0  0  0  0  0  0  0
   -1.4960   22.8390  -29.8900 C   0  0  0  0  0  0  0  0  0  0  0  0
   -5.7850   21.3950  -30.8940 C   0  0  0  0  0  0  0  0  0  0  0  0
   -4.6510   20.6100  -30.7060 O   0  0  0  0  0  0  0  0  0  0  0  0
   -6.9390   20.8510  -31.5020 C   0  0  0  0  0  0  0  0  0  0  0  0
   -6.9420   19.1630  -32.0720 S   0  0  0  0  0  0  0  0  0  0  0  0
   -8.2570   18.8690  -32.7390 O   0  0  0  0  0  0  0  0  0  0  0  0
   -6.7840   18.2020  -30.9250 O   0  0  0  0  0  0  0  0  0  0  0  0
   -5.6410   18.9360  -33.2140 N   0  0  0  0  0  0  0  0  0  0  0  0
   -4.4540   18.4010  -32.5240 C   0  0  0  0  0  0  0  0  0  0  0  0
   -3.3980   17.9180  -33.5390 C   0  0  0  0  0  0  0  0  0  0  0  0
   -3.6960   18.3830  -34.8390 O   0  0  0  0  0  0  0  0  0  0  0  0
   -4.9120   17.8070  -35.2870 C   0  0  0  0  0  0  0  0  0  0  0  0
   -6.0650   18.0190  -34.2830 C   0  0  0  0  0  0  0  0  0  0  0  0
  -10.0675   20.8867  -31.5901 H   0  0  0  0  0  0  0  0  0  0  0  0
   -9.7553   21.9776  -32.9826 H   0  0  0  0  0  0  0  0  0  0  0  0
   -9.0912   20.3086  -32.9826 H   0  0  0  0  0  0  0  0  0  0  0  0
   -8.9597   23.6212  -31.2902 H   0  0  0  0  0  0  0  0  0  0  0  0
   -6.9363   24.5354  -30.1831 H   0  0  0  0  0  0  0  0  0  0  0  0
   -4.2740   22.8840  -28.9350 H   0  0  0  0  0  0  0  0  0  0  0  0
   -1.1707   25.2820  -27.5185 H   0  0  0  0  0  0  0  0  0  0  0  0
    0.5815   23.6999  -26.7102 H   0  0  0  0  0  0  0  0  0  0  0  0
    1.0129   21.5731  -27.9405 H   0  0  0  0  0  0  0  0  0  0  0  0
    0.9357   19.1428  -32.5418 H   0  0  0  0  0  0  0  0  0  0  0  0
   -0.7610   18.5671  -32.3814 H   0  0  0  0  0  0  0  0  0  0  0  0
    0.6545   19.5738  -34.7517 H   0  0  0  0  0  0  0  0  0  0  0  0
   -0.9574   18.7446  -34.6142 H   0  0  0  0  0  0  0  0  0  0  0  0
   -2.7348   21.7881  -34.1193 H   0  0  0  0  0  0  0  0  0  0  0  0
   -2.7911   19.9860  -33.9871 H   0  0  0  0  0  0  0  0  0  0  0  0
   -2.0615   22.0090  -31.9572 H   0  0  0  0  0  0  0  0  0  0  0  0
   -2.5300   20.2755  -31.7628 H   0  0  0  0  0  0  0  0  0  0  0  0
   -2.0968   22.5841  -30.7755 H   0  0  0  0  0  0  0  0  0  0  0  0
   -4.0156   19.1911  -31.8967 H   0  0  0  0  0  0  0  0  0  0  0  0
   -4.7632   17.5459  -31.9050 H   0  0  0  0  0  0  0  0  0  0  0  0
   -2.4102   18.2977  -33.2387 H   0  0  0  0  0  0  0  0  0  0  0  0
   -3.4005   16.8181  -33.5509 H   0  0  0  0  0  0  0  0  0  0  0  0
   -5.1893   18.2677  -36.2466 H   0  0  0  0  0  0  0  0  0  0  0  0
   -4.7526   16.7238  -35.3928 H   0  0  0  0  0  0  0  0  0  0  0  0
   -6.9309   18.4481  -34.8084 H   0  0  0  0  0  0  0  0  0  0  0  0
   -6.3392   17.0505  -33.8393 H   0  0  0  0  0  0  0  0  0  0  0  0
  1  2  1  0
  2  3  2  0
  3  4  1  0
  4  5  2  0
  5  6  1  0
  6  7  1  0
  7  8  2  0
  7  9  1  0
  9 10  1  0
 10 11  2  0
 11 12  1  0
 12 13  2  0
 13 14  1  0
 14 15  1  0
 15 16  2  0
 15 17  2  0
 15 18  1  0
 18 19  1  0
 19 20  1  0
 20 21  1  0
 21 22  1  0
 22 23  1  0
 14 24  2  0
  5 25  1  0
 25 26  1  0
 25 27  2  0
 27 28  1  0
 28 29  2  0
 28 30  2  0
 28 31  1  0
 31 32  1  0
 32 33  1  0
 33 34  1  0
 34 35  1  0
 35 36  1  0
 27  2  1  0
 36 31  1  0
 24 10  1  0
 23 18  1  0
  1 37  1  0
  1 38  1  0
  1 39  1  0
  3 40  1  0
  4 41  1  0
  6 42  1  0
 11 43  1  0
 12 44  1  0
 13 45  1  0
 19 46  1  0
 19 47  1  0
 20 48  1  0
 20 49  1  0
 22 50  1  0
 22 51  1  0
 23 52  1  0
 23 53  1  0
 24 54  1  0
 32 55  1  0
 32 56  1  0
 33 57  1  0
 33 58  1  0
 35 59  1  0
 35 60  1  0
 36 61  1  0
 36 62  1  0
M  CHG  2   9  -1  26  -1
M  END
>  <UniqueID>  (12) 
12

>  <SMILES>  (12) 
Cc1ccc(NC(=O)[N-]c2cccc(S(=O)(=O)N3CCOCC3)c2)c([O-])c1S(=O)(=O)N1CCOCC1

>  <Energy>  (12) 
89.73093997091533

>  <Genealogy>  (12) 
Cc1ccc(NC(=O)[N-]c2cccc(S(=O)(=O)N3CCOCC3)c2)c([O-])c1S(=O)(=O)N1CCOCC1 (protonated)
Cc1ccc(NC(=O)[N-]c2cccc(S(=O)(=O)N3CCOCC3)c2)c([O-])c1S(=O)(=O)N1CCOCC1 (3D coordinates assigned)
Cc1ccc(NC(=O)[N-]c2cccc(S(=O)(=O)N3CCOCC3)c2)c([O-])c1S(=O)(=O)N1CCOCC1 (nonaromatic ring conformer: 89.73093997091533 kcal/mol)

>  <smiles>  (12) 
Cc1ccc(NC(=O)Nc2cccc(S(=O)(=O)N3CCOCC3)c2)c(O)c1S(=O)(=O)N1CCOCC1

>  <score_type>  (12) 
oracle

>  <origin>  (12) 
adgpu

>  <m_score__min__energy>  (12) 
-14.289999999999999

>  <m_primary>  (12) 
energy

$$$$
12:0
     RDKit          3D

 50 52  0  0  0  0  0  0  0  0999 V2000
   -1.2080   21.9010  -28.6520 C   0  0  0  0  0  0  0  0  0  0  0  0
   -0.4830   22.7690  -29.6670 C   0  0  0  0  0  0  0  0  0  0  0  0
    0.2430   23.7880  -28.9870 O   0  0  0  0  0  0  0  0  0  0  0  0
   -0.1450   24.3750  -27.7710 C   0  0  0  0  0  0  0  0  0  0  0  0
    0.5770   24.1620  -26.5810 C   0  0  0  0  0  0  0  0  0  0  0  0
    0.1730   24.7740  -25.3920 C   0  0  0  0  0  0  0  0  0  0  0  0
   -0.9420   25.6110  -25.3800 C   0  0  0  0  0  0  0  0  0  0  0  0
   -1.6690   25.8280  -26.5520 C   0  0  0  0  0  0  0  0  0  0  0  0
   -1.2920   25.1940  -27.7520 C   0  0  0  0  0  0  0  0  0  0  0  0
   -2.0240   25.4100  -28.9710 N   0  0  0  0  0  0  0  0  0  0  0  0
   -3.2100   24.6870  -29.3460 C   0  0  0  0  0  0  0  0  0  0  0  0
   -3.9600   24.1770  -28.4730 O   0  0  0  0  0  0  0  0  0  0  0  0
   -3.5660   24.5570  -30.7260 N   0  0  0  0  0  0  0  0  0  0  0  0
   -4.5320   23.6180  -31.2180 C   0  0  0  0  0  0  0  0  0  0  0  0
   -4.0840   22.4020  -31.7440 C   0  0  0  0  0  0  0  0  0  0  0  0
   -4.9940   21.4560  -32.2150 C   0  0  0  0  0  0  0  0  0  0  0  0
   -6.3730   21.7170  -32.1730 C   0  0  0  0  0  0  0  0  0  0  0  0
   -7.3270   20.7610  -32.6680 N   0  0  0  0  0  0  0  0  0  0  0  0
   -6.9890   19.4370  -33.1140 C   0  0  0  0  0  0  0  0  0  0  0  0
   -6.1080   19.2280  -34.1920 C   0  0  0  0  0  0  0  0  0  0  0  0
   -5.7730   17.9300  -34.5880 C   0  0  0  0  0  0  0  0  0  0  0  0
   -6.3000   16.8310  -33.9060 C   0  0  0  0  0  0  0  0  0  0  0  0
   -7.1580   17.0280  -32.8200 C   0  0  0  0  0  0  0  0  0  0  0  0
   -7.4950   18.3260  -32.4210 C   0  0  0  0  0  0  0  0  0  0  0  0
   -6.8220   22.9600  -31.7070 C   0  0  0  0  0  0  0  0  0  0  0  0
   -5.9110   23.9220  -31.2310 C   0  0  0  0  0  0  0  0  0  0  0  0
   -6.3330   25.1870  -30.7900 O   0  0  0  0  0  0  0  0  0  0  0  0
   -6.4930   25.5600  -29.4260 C   0  0  0  0  0  0  0  0  0  0  0  0
   -0.9389   22.2232  -27.6353 H   0  0  0  0  0  0  0  0  0  0  0  0
   -2.2943   22.0015  -28.7930 H   0  0  0  0  0  0  0  0  0  0  0  0
   -0.9156   20.8500  -28.7930 H   0  0  0  0  0  0  0  0  0  0  0  0
    0.2141   22.1482  -30.2490 H   0  0  0  0  0  0  0  0  0  0  0  0
   -1.2160   23.2309  -30.3448 H   0  0  0  0  0  0  0  0  0  0  0  0
    1.4634   23.5106  -26.5877 H   0  0  0  0  0  0  0  0  0  0  0  0
    0.7355   24.5953  -24.4637 H   0  0  0  0  0  0  0  0  0  0  0  0
   -1.2497   26.1016  -24.4448 H   0  0  0  0  0  0  0  0  0  0  0  0
   -2.5413   26.4980  -26.5382 H   0  0  0  0  0  0  0  0  0  0  0  0
   -1.5620   25.9760  -29.7180 H   0  0  0  0  0  0  0  0  0  0  0  0
   -3.0054   22.1901  -31.7865 H   0  0  0  0  0  0  0  0  0  0  0  0
   -4.6297   20.5009  -32.6213 H   0  0  0  0  0  0  0  0  0  0  0  0
   -8.3320   21.0450  -32.6950 H   0  0  0  0  0  0  0  0  0  0  0  0
   -5.6812   20.0903  -34.7252 H   0  0  0  0  0  0  0  0  0  0  0  0
   -5.0930   17.7738  -35.4384 H   0  0  0  0  0  0  0  0  0  0  0  0
   -6.0399   15.8104  -34.2234 H   0  0  0  0  0  0  0  0  0  0  0  0
   -7.5682   16.1624  -32.2791 H   0  0  0  0  0  0  0  0  0  0  0  0
   -8.1609   18.4769  -31.5585 H   0  0  0  0  0  0  0  0  0  0  0  0
   -7.8984   23.1866  -31.7132 H   0  0  0  0  0  0  0  0  0  0  0  0
   -6.1424   24.7426  -28.7788 H   0  0  0  0  0  0  0  0  0  0  0  0
   -5.9047   26.4669  -29.2224 H   0  0  0  0  0  0  0  0  0  0  0  0
   -7.5556   25.7588  -29.2224 H   0  0  0  0  0  0  0  0  0  0  0  0
  1  2  1  0
  2  3  1  0
  3  4  1  0
  4  5  2  0
  5  6  1  0
  6  7  2  0
  7  8  1  0
  8  9  2  0
  9 10  1  0
 10 11  1  0
 11 12  2  0
 11 13  1  0
 13 14  1  0
 14 15  2  0
 15 16  1  0
 16 17  2  0
 17 18  1  0
 18 19  1  0
 19 20  2  0
 20 21  1  0
 21 22  2  0
 22 23  1  0
 23 24  2  0
 17 25  1  0
 25 26  2  0
 26 27  1  0
 27 28  1  0
  9  4  1  0
 26 14  1  0
 24 19  1  0
  1 29  1  0
  1 30  1  0
  1 31  1  0
  2 32  1  0
  2 33  1  0
  5 34  1  0
  6 35  1  0
  7 36  1  0
  8 37  1  0
 10 38  1  0
 15 39  1  0
 16 40  1  0
 18 41  1  0
 20 42  1  0
 21 43  1  0
 22 44  1  0
 23 45  1  0
 24 46  1  0
 25 47  1  0
 28 48  1  0
 28 49  1  0
 28 50  1  0
M  CHG  1  13  -1
M  END
>  <UniqueID>  (13) 
13

>  <SMILES>  (13) 
CCOc1ccccc1NC(=O)[N-]c1ccc(Nc2ccccc2)cc1OC

>  <Energy>  (13) 
61.92641861267391

>  <Genealogy>  (13) 
CCOc1ccccc1NC(=O)[N-]c1ccc(Nc2ccccc2)cc1OC (protonated)
CCOc1ccccc1NC(=O)[N-]c1ccc(Nc2ccccc2)cc1OC (3D coordinates assigned)
CCOc1ccccc1NC(=O)[N-]c1ccc(Nc2ccccc2)cc1OC (optimized conformer: 61.92641861267391 kcal/mol)

>  <smiles>  (13) 
CCOc1ccccc1NC(=O)Nc1ccc(Nc2ccccc2)cc1OC

>  <score_type>  (13) 
oracle

>  <origin>  (13) 
adgpu

>  <m_score__min__energy>  (13) 
-10.23

>  <m_primary>  (13) 
energy

$$$$
13:0
     RDKit          3D

 50 53  0  0  0  0  0  0  0  0999 V2000
   -7.6700   22.0550  -31.9250 C   0  0  0  0  0  0  0  0  0  0  0  0
   -6.4060   22.5210  -32.3650 O   0  0  0  0  0  0  0  0  0  0  0  0
   -5.4610   23.1770  -31.5550 C   0  0  0  0  0  0  0  0  0  0  0  0
   -5.8260   24.2490  -30.7200 C   0  0  0  0  0  0  0  0  0  0  0  0
   -4.8640   24.9280  -29.9690 C   0  0  0  0  0  0  0  0  0  0  0  0
   -3.5170   24.5540  -30.0420 C   0  0  0  0  0  0  0  0  0  0  0  0
   -2.4890   25.2580  -29.3350 N   0  0  0  0  0  0  0  0  0  0  0  0
   -1.5790   24.6410  -27.9860 S   0  0  0  0  0  0  0  0  0  0  0  0
   -1.9030   25.4250  -26.7470 O   0  0  0  0  0  0  0  0  0  0  0  0
   -0.1150   24.8000  -28.2800 O   0  0  0  0  0  0  0  0  0  0  0  0
   -1.9230   22.9320  -27.7870 C   0  0  0  0  0  0  0  0  0  0  0  0
   -3.4720   22.2770  -27.8390 S   0  0  0  0  0  0  0  0  0  0  0  0
   -3.0140   20.6830  -27.6240 C   0  0  0  0  0  0  0  0  0  0  0  0
   -1.6260   20.6280  -27.5060 C   0  0  0  0  0  0  0  0  0  0  0  0
   -1.0120   21.8900  -27.5970 C   0  0  0  0  0  0  0  0  0  0  0  0
    0.7240   22.0910  -27.4580 Cl  0  0  0  0  0  0  0  0  0  0  0  0
   -3.1550   23.4650  -30.8400 C   0  0  0  0  0  0  0  0  0  0  0  0
   -4.1110   22.7630  -31.5940 C   0  0  0  0  0  0  0  0  0  0  0  0
   -3.6810   21.6050  -32.4210 C   0  0  0  0  0  0  0  0  0  0  0  0
   -2.3630   21.5210  -32.8930 C   0  0  0  0  0  0  0  0  0  0  0  0
   -1.9620   20.4110  -33.6380 C   0  0  0  0  0  0  0  0  0  0  0  0
   -2.8450   19.4170  -33.9050 N   0  0  0  0  0  0  0  0  0  0  0  0
   -4.1380   19.4500  -33.4690 C   0  0  0  0  0  0  0  0  0  0  0  0
   -5.0310   18.3570  -33.7910 N   0  0  0  0  0  0  0  0  0  0  0  0
   -6.4860   18.5610  -33.8140 C   0  0  0  0  0  0  0  0  0  0  0  0
   -7.2200   17.4110  -33.0920 C   0  0  0  0  0  0  0  0  0  0  0  0
   -6.4960   16.1220  -33.1080 N   0  0  0  0  0  0  0  0  0  0  0  0
   -5.6140   15.9990  -34.2690 C   0  0  0  0  0  0  0  0  0  0  0  0
   -4.5040   17.0510  -34.2080 C   0  0  0  0  0  0  0  0  0  0  0  0
   -4.5710   20.5550  -32.7060 C   0  0  0  0  0  0  0  0  0  0  0  0
   -7.6949   22.0458  -30.8253 H   0  0  0  0  0  0  0  0  0  0  0  0
   -8.4588   22.7214  -32.3041 H   0  0  0  0  0  0  0  0  0  0  0  0
   -7.8374   21.0360  -32.3041 H   0  0  0  0  0  0  0  0  0  0  0  0
   -6.8806   24.5556  -30.6580 H   0  0  0  0  0  0  0  0  0  0  0  0
   -5.1662   25.7608  -29.3169 H   0  0  0  0  0  0  0  0  0  0  0  0
   -3.6954   19.8204  -27.5825 H   0  0  0  0  0  0  0  0  0  0  0  0
   -1.0675   19.6921  -27.3568 H   0  0  0  0  0  0  0  0  0  0  0  0
   -2.1014   23.1513  -30.8786 H   0  0  0  0  0  0  0  0  0  0  0  0
   -1.6473   22.3278  -32.6766 H   0  0  0  0  0  0  0  0  0  0  0  0
   -0.9287   20.3424  -34.0090 H   0  0  0  0  0  0  0  0  0  0  0  0
   -6.7236   19.5103  -33.3116 H   0  0  0  0  0  0  0  0  0  0  0  0
   -6.8189   18.5843  -34.8621 H   0  0  0  0  0  0  0  0  0  0  0  0
   -7.3752   17.7059  -32.0437 H   0  0  0  0  0  0  0  0  0  0  0  0
   -8.1630   17.2493  -33.6349 H   0  0  0  0  0  0  0  0  0  0  0  0
   -5.9120   16.0510  -32.2430 H   0  0  0  0  0  0  0  0  0  0  0  0
   -5.1629   14.9958  -34.2771 H   0  0  0  0  0  0  0  0  0  0  0  0
   -6.2041   16.1548  -35.1842 H   0  0  0  0  0  0  0  0  0  0  0  0
   -3.7405   16.7253  -33.4862 H   0  0  0  0  0  0  0  0  0  0  0  0
   -4.0688   17.1562  -35.2127 H   0  0  0  0  0  0  0  0  0  0  0  0
   -5.6054   20.5948  -32.3340 H   0  0  0  0  0  0  0  0  0  0  0  0
  1  2  1  0
  2  3  1  0
  3  4  2  0
  4  5  1  0
  5  6  2  0
  6  7  1  0
  7  8  1  0
  8  9  2  0
  8 10  2  0
  8 11  1  0
 11 12  1  0
 12 13  1  0
 13 14  2  0
 14 15  1  0
 15 16  1  0
  6 17  1  0
 17 18  2  0
 18 19  1  0
 19 20  2  0
 20 21  1  0
 21 22  2  0
 22 23  1  0
 23 24  1  0
 24 25  1  0
 25 26  1  0
 26 27  1  0
 27 28  1  0
 28 29  1  0
 23 30  2  0
 18  3  1  0
 30 19  1  0
 15 11  2  0
 29 24  1  0
  1 31  1  0
  1 32  1  0
  1 33  1  0
  4 34  1  0
  5 35  1  0
 13 36  1  0
 14 37  1  0
 17 38  1  0
 20 39  1  0
 21 40  1  0
 25 41  1  0
 25 42  1  0
 26 43  1  0
 26 44  1  0
 27 45  1  0
 28 46  1  0
 28 47  1  0
 29 48  1  0
 29 49  1  0
 30 50  1  0
M  CHG  1   7  -1
M  END
>  <UniqueID>  (14) 
14

>  <SMILES>  (14) 
COc1ccc([N-]S(=O)(=O)c2sccc2Cl)cc1-c1ccnc(N2CCNCC2)c1

>  <Energy>  (14) 
97.45137657586483

>  <Genealogy>  (14) 
COc1ccc([N-]S(=O)(=O)c2sccc2Cl)cc1-c1ccnc(N2CCNCC2)c1 (protonated)
COc1ccc([N-]S(=O)(=O)c2sccc2Cl)cc1-c1ccnc(N2CCNCC2)c1 (3D coordinates assigned)
COc1ccc([N-]S(=O)(=O)c2sccc2Cl)cc1-c1ccnc(N2CCNCC2)c1 (nonaromatic ring conformer: 97.45137657586483 kcal/mol)

>  <smiles>  (14) 
COc1ccc(NS(=O)(=O)c2sccc2Cl)cc1-c1ccnc(N2CCNCC2)c1

>  <score_type>  (14) 
oracle

>  <origin>  (14) 
adgpu

>  <m_score__min__energy>  (14) 
-10.369999999999999

>  <m_primary>  (14) 
energy

$$$$
14:0
     RDKit          3D

 45 47  0  0  0  0  0  0  0  0999 V2000
   -9.1530   22.0740  -31.5470 C   0  0  0  0  0  0  0  0  0  0  0  0
   -8.0060   22.8250  -31.9290 O   0  0  0  0  0  0  0  0  0  0  0  0
   -6.7230   22.2830  -32.1170 C   0  0  0  0  0  0  0  0  0  0  0  0
   -6.5230   20.8980  -32.2890 C   0  0  0  0  0  0  0  0  0  0  0  0
   -5.2310   20.3800  -32.4070 C   0  0  0  0  0  0  0  0  0  0  0  0
   -4.1270   21.2310  -32.3490 C   0  0  0  0  0  0  0  0  0  0  0  0
   -4.3120   22.6050  -32.1890 C   0  0  0  0  0  0  0  0  0  0  0  0
   -5.6030   23.1440  -32.1040 C   0  0  0  0  0  0  0  0  0  0  0  0
   -5.7400   24.5630  -31.9460 N   0  0  0  0  0  0  0  0  0  0  0  0
   -5.2720   25.3130  -30.8210 C   0  0  0  0  0  0  0  0  0  0  0  0
   -6.0970   25.9880  -30.1480 O   0  0  0  0  0  0  0  0  0  0  0  0
   -3.8840   25.2980  -30.4660 N   0  0  0  0  0  0  0  0  0  0  0  0
   -3.2710   24.3930  -29.5390 C   0  0  0  0  0  0  0  0  0  0  0  0
   -3.9990   23.2810  -29.1200 C   0  0  0  0  0  0  0  0  0  0  0  0
   -3.4550   22.3840  -28.2050 C   0  0  0  0  0  0  0  0  0  0  0  0
   -2.1700   22.5880  -27.6770 C   0  0  0  0  0  0  0  0  0  0  0  0
   -1.6340   21.5850  -26.6870 C   0  0  0  0  0  0  0  0  0  0  0  0
   -1.4130   23.7130  -28.0970 C   0  0  0  0  0  0  0  0  0  0  0  0
    0.2180   24.0080  -27.4490 S   0  0  0  0  0  0  0  0  0  0  0  0
    0.7920   22.7180  -26.9340 O   0  0  0  0  0  0  0  0  0  0  0  0
    1.1390   24.5400  -28.5110 O   0  0  0  0  0  0  0  0  0  0  0  0
    0.1160   25.1600  -26.1600 N   0  0  0  0  0  0  0  0  0  0  0  0
   -0.7710   25.0580  -25.0150 C   0  0  0  0  0  0  0  0  0  0  0  0
   -0.6020   26.3930  -24.2480 C   0  0  0  0  0  0  0  0  0  0  0  0
    0.3090   27.2160  -25.0390 N   0  0  0  0  0  0  0  0  0  0  0  0
    0.7000   26.4420  -26.1510 C   0  0  0  0  0  0  0  0  0  0  0  0
    1.4820   26.8610  -27.0430 O   0  0  0  0  0  0  0  0  0  0  0  0
   -1.9930   24.6350  -28.9970 C   0  0  0  0  0  0  0  0  0  0  0  0
   -1.3270   25.8120  -29.3220 O   0  0  0  0  0  0  0  0  0  0  0  0
   -9.2156   22.0330  -30.4496 H   0  0  0  0  0  0  0  0  0  0  0  0
  -10.0569   22.5557  -31.9481 H   0  0  0  0  0  0  0  0  0  0  0  0
   -9.0730   21.0529  -31.9481 H   0  0  0  0  0  0  0  0  0  0  0  0
   -7.3893   20.2214  -32.3305 H   0  0  0  0  0  0  0  0  0  0  0  0
   -5.0838   19.2988  -32.5460 H   0  0  0  0  0  0  0  0  0  0  0  0
   -3.1103   20.8188  -32.4294 H   0  0  0  0  0  0  0  0  0  0  0  0
   -3.4379   23.2701  -32.1291 H   0  0  0  0  0  0  0  0  0  0  0  0
   -5.0113   23.1108  -29.5154 H   0  0  0  0  0  0  0  0  0  0  0  0
   -4.0384   21.5055  -27.8921 H   0  0  0  0  0  0  0  0  0  0  0  0
   -1.8246   21.9417  -25.6640 H   0  0  0  0  0  0  0  0  0  0  0  0
   -2.1353   20.6175  -26.8374 H   0  0  0  0  0  0  0  0  0  0  0  0
   -0.5511   21.4641  -26.8374 H   0  0  0  0  0  0  0  0  0  0  0  0
   -1.8129   24.9320  -25.3446 H   0  0  0  0  0  0  0  0  0  0  0  0
   -0.5296   24.1892  -24.3849 H   0  0  0  0  0  0  0  0  0  0  0  0
   -1.5744   26.8964  -24.1434 H   0  0  0  0  0  0  0  0  0  0  0  0
   -0.2052   26.2219  -23.2364 H   0  0  0  0  0  0  0  0  0  0  0  0
  1  2  1  0
  2  3  1  0
  3  4  2  0
  4  5  1  0
  5  6  2  0
  6  7  1  0
  7  8  2  0
  8  9  1  0
  9 10  1  0
 10 11  2  0
 10 12  1  0
 12 13  1  0
 13 14  2  0
 14 15  1  0
 15 16  2  0
 16 17  1  0
 16 18  1  0
 18 19  1  0
 19 20  2  0
 19 21  2  0
 19 22  1  0
 22 23  1  0
 23 24  1  0
 24 25  1  0
 25 26  1  0
 26 27  2  0
 18 28  2  0
 28 29  1  0
  8  3  1  0
 28 13  1  0
 26 22  1  0
  1 30  1  0
  1 31  1  0
  1 32  1  0
  4 33  1  0
  5 34  1  0
  6 35  1  0
  7 36  1  0
 14 37  1  0
 15 38  1  0
 17 39  1  0
 17 40  1  0
 17 41  1  0
 23 42  1  0
 23 43  1  0
 24 44  1  0
 24 45  1  0
M  CHG  4   9  -1  12  -1  25  -1  29  -1
M  END
>  <UniqueID>  (15) 
15

>  <SMILES>  (15) 
COc1ccccc1[N-]C(=O)[N-]c1ccc(C)c(S(=O)(=O)N2CC[N-]C2=O)c1[O-]

>  <Energy>  (15) 
74.6751215048036

>  <Genealogy>  (15) 
COc1ccccc1[N-]C(=O)[N-]c1ccc(C)c(S(=O)(=O)N2CC[N-]C2=O)c1[O-] (protonated)
COc1ccccc1[N-]C(=O)[N-]c1ccc(C)c(S(=O)(=O)N2CC[N-]C2=O)c1[O-] (3D coordinates assigned)
COc1ccccc1[N-]C(=O)[N-]c1ccc(C)c(S(=O)(=O)N2CC[N-]C2=O)c1[O-] (nonaromatic ring conformer: 74.6751215048036 kcal/mol)

>  <smiles>  (15) 
COc1ccccc1NC(=O)Nc1ccc(C)c(S(=O)(=O)N2CCNC2=O)c1O

>  <score_type>  (15) 
oracle

>  <origin>  (15) 
adgpu

>  <m_score__min__energy>  (15) 
-14.33

>  <m_primary>  (15) 
energy

$$$$
15:0
     RDKit          3D

 50 52  0  0  0  0  0  0  0  0999 V2000
    1.8140   24.7830  -26.0520 C   0  0  0  0  0  0  0  0  0  0  0  0
    0.6390   24.8910  -26.9800 C   0  0  0  0  0  0  0  0  0  0  0  0
   -0.0720   26.0940  -27.0800 C   0  0  0  0  0  0  0  0  0  0  0  0
   -1.1370   26.2080  -27.9770 C   0  0  0  0  0  0  0  0  0  0  0  0
   -1.4970   25.1280  -28.7880 C   0  0  0  0  0  0  0  0  0  0  0  0
   -2.5280   25.2910  -29.7070 O   0  0  0  0  0  0  0  0  0  0  0  0
   -0.7970   23.9080  -28.6910 C   0  0  0  0  0  0  0  0  0  0  0  0
   -1.1510   22.7420  -29.5280 C   0  0  0  0  0  0  0  0  0  0  0  0
   -0.4910   21.6750  -29.3980 O   0  0  0  0  0  0  0  0  0  0  0  0
   -2.2340   22.8160  -30.4730 N   0  0  0  0  0  0  0  0  0  0  0  0
   -2.6640   21.7170  -31.2920 C   0  0  0  0  0  0  0  0  0  0  0  0
   -1.8190   21.1450  -32.2580 C   0  0  0  0  0  0  0  0  0  0  0  0
   -2.2530   20.0570  -33.0220 C   0  0  0  0  0  0  0  0  0  0  0  0
   -3.5250   19.5080  -32.8110 C   0  0  0  0  0  0  0  0  0  0  0  0
   -4.0670   18.1280  -33.7670 S   0  0  0  0  0  0  0  0  0  0  0  0
   -3.1690   17.9850  -34.9650 O   0  0  0  0  0  0  0  0  0  0  0  0
   -3.9360   16.8750  -32.9440 O   0  0  0  0  0  0  0  0  0  0  0  0
   -5.7240   18.2920  -34.3060 N   0  0  0  0  0  0  0  0  0  0  0  0
   -6.2480   19.6720  -34.1760 C   0  0  0  0  0  0  0  0  0  0  0  0
   -7.5660   19.7650  -33.3970 C   0  0  0  0  0  0  0  0  0  0  0  0
   -7.4630   18.9490  -32.1060 C   0  0  0  0  0  0  0  0  0  0  0  0
   -8.7230   19.1220  -31.2500 C   0  0  0  0  0  0  0  0  0  0  0  0
   -7.1960   17.4600  -32.4140 C   0  0  0  0  0  0  0  0  0  0  0  0
   -6.6030   17.2090  -33.8170 C   0  0  0  0  0  0  0  0  0  0  0  0
   -4.3690   20.0740  -31.8460 C   0  0  0  0  0  0  0  0  0  0  0  0
   -3.9350   21.1620  -31.0830 C   0  0  0  0  0  0  0  0  0  0  0  0
    0.2870   23.8100  -27.8010 C   0  0  0  0  0  0  0  0  0  0  0  0
    1.4626   24.8153  -25.0101 H   0  0  0  0  0  0  0  0  0  0  0  0
    2.3380   23.8329  -26.2329 H   0  0  0  0  0  0  0  0  0  0  0  0
    2.5024   25.6217  -26.2329 H   0  0  0  0  0  0  0  0  0  0  0  0
    0.2091   26.9512  -26.4505 H   0  0  0  0  0  0  0  0  0  0  0  0
   -1.6955   27.1532  -28.0454 H   0  0  0  0  0  0  0  0  0  0  0  0
   -2.7150   23.7330  -30.6140 H   0  0  0  0  0  0  0  0  0  0  0  0
   -0.8104   21.5553  -32.4142 H   0  0  0  0  0  0  0  0  0  0  0  0
   -1.5932   19.6304  -33.7918 H   0  0  0  0  0  0  0  0  0  0  0  0
   -5.4943   20.2812  -33.6556 H   0  0  0  0  0  0  0  0  0  0  0  0
   -6.4527   20.0333  -35.1946 H   0  0  0  0  0  0  0  0  0  0  0  0
   -7.7703   20.8170  -33.1489 H   0  0  0  0  0  0  0  0  0  0  0  0
   -8.3829   19.3651  -34.0156 H   0  0  0  0  0  0  0  0  0  0  0  0
   -6.6081   19.3293  -31.5276 H   0  0  0  0  0  0  0  0  0  0  0  0
   -8.4507   19.0846  -30.1849 H   0  0  0  0  0  0  0  0  0  0  0  0
   -9.1890   20.0926  -31.4755 H   0  0  0  0  0  0  0  0  0  0  0  0
   -9.4334   18.3130  -31.4755 H   0  0  0  0  0  0  0  0  0  0  0  0
   -6.4899   17.0724  -31.6649 H   0  0  0  0  0  0  0  0  0  0  0  0
   -8.1687   16.9474  -32.3817 H   0  0  0  0  0  0  0  0  0  0  0  0
   -6.0174   16.2785  -33.7825 H   0  0  0  0  0  0  0  0  0  0  0  0
   -7.4524   17.1525  -34.5136 H   0  0  0  0  0  0  0  0  0  0  0  0
   -5.3762   19.6608  -31.6884 H   0  0  0  0  0  0  0  0  0  0  0  0
   -4.5956   21.5862  -30.3125 H   0  0  0  0  0  0  0  0  0  0  0  0
    0.8650   22.8756  -27.7481 H   0  0  0  0  0  0  0  0  0  0  0  0
  1  2  1  0
  2  3  2  0
  3  4  1  0
  4  5  2  0
  5  6  1  0
  5  7  1  0
  7  8  1  0
  8  9  2  0
  8 10  1  0
 10 11  1  0
 11 12  2  0
 12 13  1  0
 13 14  2  0
 14 15  1  0
 15 16  2  0
 15 17  2  0
 15 18  1  0
 18 19  1  0
 19 20  1  0
 20 21  1  0
 21 22  1  0
 21 23  1  0
 23 24  1  0
 14 25  1  0
 25 26  2  0
  7 27  2  0
 27  2  1  0
 26 11  1  0
 24 18  1  0
  1 28  1  0
  1 29  1  0
  1 30  1  0
  3 31  1  0
  4 32  1  0
 10 33  1  0
 12 34  1  0
 13 35  1  0
 19 36  1  0
 19 37  1  0
 20 38  1  0
 20 39  1  0
 21 40  1  0
 22 41  1  0
 22 42  1  0
 22 43  1  0
 23 44  1  0
 23 45  1  0
 24 46  1  0
 24 47  1  0
 25 48  1  0
 26 49  1  0
 27 50  1  0
M  CHG  1   6  -1
M  END
>  <UniqueID>  (16) 
16

>  <SMILES>  (16) 
Cc1ccc([O-])c(C(=O)Nc2ccc(S(=O)(=O)N3CCC(C)CC3)cc2)c1

>  <Energy>  (16) 
65.34723826176558

>  <Genealogy>  (16) 
Cc1ccc([O-])c(C(=O)Nc2ccc(S(=O)(=O)N3CCC(C)CC3)cc2)c1 (protonated)
Cc1ccc([O-])c(C(=O)Nc2ccc(S(=O)(=O)N3CCC(C)CC3)cc2)c1 (3D coordinates assigned)
Cc1ccc([O-])c(C(=O)Nc2ccc(S(=O)(=O)N3CCC(C)CC3)cc2)c1 (nonaromatic ring conformer: 65.34723826176558 kcal/mol)

>  <smiles>  (16) 
Cc1ccc(O)c(C(=O)Nc2ccc(S(=O)(=O)N3CCC(C)CC3)cc2)c1

>  <score_type>  (16) 
oracle

>  <origin>  (16) 
adgpu

>  <m_score__min__energy>  (16) 
-12.99

>  <m_primary>  (16) 
energy

$$$$
16:0
     RDKit          3D

 44 46  0  0  0  0  0  0  0  0999 V2000
   -3.8680   26.0500  -30.1720 H   0  0  0  0  0  0  0  0  0  0  0  0
   -3.4660   25.0910  -30.2770 N   0  0  0  0  0  0  0  0  0  0  0  0
   -2.3620   24.8580  -28.9660 S   0  0  0  0  0  0  0  0  0  0  0  0
   -1.3680   25.9850  -28.9670 O   0  0  0  0  0  0  0  0  0  0  0  0
   -3.1340   24.8690  -27.6770 O   0  0  0  0  0  0  0  0  0  0  0  0
   -1.5030   23.3210  -29.1280 C   0  0  0  0  0  0  0  0  0  0  0  0
   -1.2930   22.7720  -30.4030 C   0  0  0  0  0  0  0  0  0  0  0  0
   -1.6746   23.2980  -31.2906 H   0  0  0  0  0  0  0  0  0  0  0  0
   -0.6020   21.5600  -30.5590 C   0  0  0  0  0  0  0  0  0  0  0  0
   -0.3910   20.9790  -31.9330 C   0  0  0  0  0  0  0  0  0  0  0  0
   -0.2959   19.8862  -31.8511 H   0  0  0  0  0  0  0  0  0  0  0  0
    0.5243   21.4134  -32.3614 H   0  0  0  0  0  0  0  0  0  0  0  0
   -1.5180   21.2980  -32.8150 N   0  0  0  0  0  0  0  0  0  0  0  0
   -2.7770   21.0170  -32.6220 C   0  0  0  0  0  0  0  0  0  0  0  0
   -3.2320   20.3550  -31.4640 C   0  0  0  0  0  0  0  0  0  0  0  0
   -2.5196   20.0623  -30.6786 H   0  0  0  0  0  0  0  0  0  0  0  0
   -4.5900   20.0730  -31.3190 C   0  0  0  0  0  0  0  0  0  0  0  0
   -4.9502   19.5556  -30.4176 H   0  0  0  0  0  0  0  0  0  0  0  0
   -5.4950   20.4470  -32.3180 C   0  0  0  0  0  0  0  0  0  0  0  0
   -6.8970   20.1600  -32.1800 N   0  0  0  0  0  0  0  0  0  0  0  0
   -7.8890   21.0540  -31.9650 C   0  0  0  0  0  0  0  0  0  0  0  0
   -7.7000   22.5330  -31.8190 C   0  0  0  0  0  0  0  0  0  0  0  0
   -7.6666   22.7947  -30.7511 H   0  0  0  0  0  0  0  0  0  0  0  0
   -6.7564   22.8313  -32.2993 H   0  0  0  0  0  0  0  0  0  0  0  0
   -8.5382   23.0590  -32.2993 H   0  0  0  0  0  0  0  0  0  0  0  0
   -9.1070   20.4040  -31.8810 C   0  0  0  0  0  0  0  0  0  0  0  0
  -10.0889   20.8666  -31.7027 H   0  0  0  0  0  0  0  0  0  0  0  0
   -8.8480   19.0600  -32.0650 C   0  0  0  0  0  0  0  0  0  0  0  0
   -9.5849   18.2433  -32.0731 H   0  0  0  0  0  0  0  0  0  0  0  0
   -7.4820   18.9420  -32.2370 C   0  0  0  0  0  0  0  0  0  0  0  0
   -6.7600   17.6490  -32.4720 C   0  0  0  0  0  0  0  0  0  0  0  0
   -6.5042   17.1909  -31.5052 H   0  0  0  0  0  0  0  0  0  0  0  0
   -7.4072   16.9659  -33.0416 H   0  0  0  0  0  0  0  0  0  0  0  0
   -5.8389   17.8416  -33.0416 H   0  0  0  0  0  0  0  0  0  0  0  0
   -5.0100   21.1090  -33.4520 C   0  0  0  0  0  0  0  0  0  0  0  0
   -5.7069   21.4152  -34.2461 H   0  0  0  0  0  0  0  0  0  0  0  0
   -3.6820   21.3760  -33.5780 N   0  0  0  0  0  0  0  0  0  0  0  0
   -3.3560   21.8710  -34.4390 H   0  0  0  0  0  0  0  0  0  0  0  0
   -0.1390   20.8830  -29.4220 C   0  0  0  0  0  0  0  0  0  0  0  0
    0.3843   19.9218  -29.5323 H   0  0  0  0  0  0  0  0  0  0  0  0
   -0.3390   21.4230  -28.1510 C   0  0  0  0  0  0  0  0  0  0  0  0
    0.0363   20.8890  -27.2655 H   0  0  0  0  0  0  0  0  0  0  0  0
   -1.0130   22.6380  -27.9950 C   0  0  0  0  0  0  0  0  0  0  0  0
   -1.2210   23.2710  -26.3650 Cl  0  0  0  0  0  0  0  0  0  0  0  0
  1  2  1  0
  2  3  1  0
  3  4  2  0
  3  5  2  0
  3  6  1  0
  6  7  2  0
  7  8  1  0
  7  9  1  0
  9 10  1  0
 10 11  1  0
 10 12  1  0
 10 13  1  0
 13 14  2  0
 14 15  1  0
 15 16  1  0
 15 17  2  0
 17 18  1  0
 17 19  1  0
 19 20  1  0
 20 21  1  0
 21 22  1  0
 22 23  1  0
 22 24  1  0
 22 25  1  0
 21 26  2  0
 26 27  1  0
 26 28  1  0
 28 29  1  0
 28 30  2  0
 30 31  1  0
 31 32  1  0
 31 33  1  0
 31 34  1  0
 19 35  2  0
 35 36  1  0
 35 37  1  0
 37 38  1  0
  9 39  2  0
 39 40  1  0
 39 41  1  0
 41 42  1  0
 41 43  2  0
 43 44  1  0
 43  6  1  0
 37 14  1  0
 30 20  1  0
M  CHG  1   2  -1
M  END
>  <UniqueID>  (17) 
17

>  <SMILES>  (17) 
Cc1ccc(C)n1-c1cc/c(=N\Cc2ccc(Cl)c(S([NH-])(=O)=O)c2)[nH]c1

>  <Energy>  (17) 
79.61749624959641

>  <Genealogy>  (17) 
Cc1ccc(C)n1-c1ccc(=NCc2ccc(Cl)c(S([NH-])(=O)=O)c2)[nH]c1 (protonated)
Cc1ccc(C)n1-c1cc/c(=N\Cc2ccc(Cl)c(S([NH-])(=O)=O)c2)[nH]c1 (cis-trans isomerization)
Cc1ccc(C)n1-c1cc/c(=N\Cc2ccc(Cl)c(S([NH-])(=O)=O)c2)[nH]c1 (3D coordinates assigned)
Cc1ccc(C)n1-c1cc/c(=N\Cc2ccc(Cl)c(S([NH-])(=O)=O)c2)[nH]c1 (optimized conformer: 79.61749624959641 kcal/mol)

>  <smiles>  (17) 
Cc1ccc(C)n1-c1ccc(=NCc2ccc(Cl)c(S(N)(=O)=O)c2)[nH]c1

>  <score_type>  (17) 
oracle

>  <origin>  (17) 
adgpu

>  <m_score__min__energy>  (17) 
-11.27

>  <m_primary>  (17) 
energy

$$$$
17:0
     RDKit          3D

 59 62  0  0  0  0  0  0  0  0999 V2000
   -0.5170   26.5090  -22.6820 C   0  0  0  0  0  0  0  0  0  0  0  0
   -0.6010   26.0410  -24.1060 C   0  0  0  0  0  0  0  0  0  0  0  0
   -0.8770   26.9520  -25.1360 C   0  0  0  0  0  0  0  0  0  0  0  0
   -0.9960   26.5080  -26.4560 C   0  0  0  0  0  0  0  0  0  0  0  0
   -0.8570   25.1480  -26.7590 C   0  0  0  0  0  0  0  0  0  0  0  0
   -1.0190   24.6050  -28.4280 S   0  0  0  0  0  0  0  0  0  0  0  0
   -1.2000   25.7850  -29.3430 O   0  0  0  0  0  0  0  0  0  0  0  0
    0.2380   23.8780  -28.8180 O   0  0  0  0  0  0  0  0  0  0  0  0
   -2.3930   23.5350  -28.5680 N   0  0  0  0  0  0  0  0  0  0  0  0
   -3.6500   24.2300  -28.1890 C   0  0  0  0  0  0  0  0  0  0  0  0
   -4.5410   24.5800  -29.3890 C   0  0  0  0  0  0  0  0  0  0  0  0
   -4.8040   23.3770  -30.1880 N   0  0  0  0  0  0  0  0  0  0  0  0
   -5.9480   23.3430  -31.0630 C   0  0  0  0  0  0  0  0  0  0  0  0
   -6.4250   24.4250  -31.5030 O   0  0  0  0  0  0  0  0  0  0  0  0
   -6.5800   22.0670  -31.4650 C   0  0  0  0  0  0  0  0  0  0  0  0
   -7.8870   21.7550  -31.0540 C   0  0  0  0  0  0  0  0  0  0  0  0
   -8.4810   20.5530  -31.4450 C   0  0  0  0  0  0  0  0  0  0  0  0
   -7.7820   19.6580  -32.2580 C   0  0  0  0  0  0  0  0  0  0  0  0
   -6.4900   19.9660  -32.6950 C   0  0  0  0  0  0  0  0  0  0  0  0
   -5.6170   18.8150  -33.7020 S   0  0  0  0  0  0  0  0  0  0  0  0
   -6.1040   18.9380  -35.1200 O   0  0  0  0  0  0  0  0  0  0  0  0
   -4.1420   19.1160  -33.6720 O   0  0  0  0  0  0  0  0  0  0  0  0
   -5.9200   17.1990  -33.1170 N   0  0  0  0  0  0  0  0  0  0  0  0
   -4.6800   16.5390  -32.7130 C   0  0  0  0  0  0  0  0  0  0  0  0
   -4.9110   15.0460  -32.8760 C   0  0  0  0  0  0  0  0  0  0  0  0
   -6.0850   14.9220  -33.8340 C   0  0  0  0  0  0  0  0  0  0  0  0
   -6.4920   16.3510  -34.1620 C   0  0  0  0  0  0  0  0  0  0  0  0
   -5.8910   21.1710  -32.2980 C   0  0  0  0  0  0  0  0  0  0  0  0
   -3.7750   22.3310  -30.2600 C   0  0  0  0  0  0  0  0  0  0  0  0
   -2.4040   22.9170  -29.9130 C   0  0  0  0  0  0  0  0  0  0  0  0
   -0.5950   24.2330  -25.7290 C   0  0  0  0  0  0  0  0  0  0  0  0
   -0.4740   24.6760  -24.4090 C   0  0  0  0  0  0  0  0  0  0  0  0
   -0.6703   25.6551  -22.0058 H   0  0  0  0  0  0  0  0  0  0  0  0
    0.4744   26.9487  -22.4984 H   0  0  0  0  0  0  0  0  0  0  0  0
   -1.2936   27.2661  -22.4984 H   0  0  0  0  0  0  0  0  0  0  0  0
   -1.0003   28.0202  -24.9041 H   0  0  0  0  0  0  0  0  0  0  0  0
   -1.1997   27.2302  -27.2604 H   0  0  0  0  0  0  0  0  0  0  0  0
   -4.2190   23.5761  -27.5117 H   0  0  0  0  0  0  0  0  0  0  0  0
   -3.3642   25.1782  -27.7103 H   0  0  0  0  0  0  0  0  0  0  0  0
   -5.4944   24.9921  -29.0267 H   0  0  0  0  0  0  0  0  0  0  0  0
   -4.0266   25.3237  -30.0154 H   0  0  0  0  0  0  0  0  0  0  0  0
   -8.4450   22.4609  -30.4213 H   0  0  0  0  0  0  0  0  0  0  0  0
   -9.5011   20.3108  -31.1121 H   0  0  0  0  0  0  0  0  0  0  0  0
   -8.2494   18.7077  -32.5555 H   0  0  0  0  0  0  0  0  0  0  0  0
   -3.8488   16.8669  -33.3546 H   0  0  0  0  0  0  0  0  0  0  0  0
   -4.4171   16.7891  -31.6746 H   0  0  0  0  0  0  0  0  0  0  0  0
   -4.0176   14.5619  -33.2973 H   0  0  0  0  0  0  0  0  0  0  0  0
   -5.1152   14.5558  -31.9127 H   0  0  0  0  0  0  0  0  0  0  0  0
   -5.7818   14.3890  -34.7472 H   0  0  0  0  0  0  0  0  0  0  0  0
   -6.9151   14.3516  -33.3918 H   0  0  0  0  0  0  0  0  0  0  0  0
   -6.0958   16.6420  -35.1460 H   0  0  0  0  0  0  0  0  0  0  0  0
   -7.5866   16.4527  -34.2003 H   0  0  0  0  0  0  0  0  0  0  0  0
   -4.8750   21.4154  -32.6416 H   0  0  0  0  0  0  0  0  0  0  0  0
   -4.0196   21.5303  -29.5465 H   0  0  0  0  0  0  0  0  0  0  0  0
   -3.7449   21.9253  -31.2820 H   0  0  0  0  0  0  0  0  0  0  0  0
   -1.6555   22.1114  -29.9405 H   0  0  0  0  0  0  0  0  0  0  0  0
   -2.1710   23.6996  -30.6500 H   0  0  0  0  0  0  0  0  0  0  0  0
   -0.4844   23.1634  -25.9607 H   0  0  0  0  0  0  0  0  0  0  0  0
   -0.2784   23.9522  -23.6041 H   0  0  0  0  0  0  0  0  0  0  0  0
  1  2  1  0
  2  3  2  0
  3  4  1  0
  4  5  2  0
  5  6  1  0
  6  7  2  0
  6  8  2  0
  6  9  1  0
  9 10  1  0
 10 11  1  0
 11 12  1  0
 12 13  1  0
 13 14  2  0
 13 15  1  0
 15 16  2  0
 16 17  1  0
 17 18  2  0
 18 19  1  0
 19 20  1  0
 20 21  2  0
 20 22  2  0
 20 23  1  0
 23 24  1  0
 24 25  1  0
 25 26  1  0
 26 27  1  0
 19 28  2  0
 12 29  1  0
 29 30  1  0
  5 31  1  0
 31 32  2  0
 32  2  1  0
 30  9  1  0
 28 15  1  0
 27 23  1  0
  1 33  1  0
  1 34  1  0
  1 35  1  0
  3 36  1  0
  4 37  1  0
 10 38  1  0
 10 39  1  0
 11 40  1  0
 11 41  1  0
 16 42  1  0
 17 43  1  0
 18 44  1  0
 24 45  1  0
 24 46  1  0
 25 47  1  0
 25 48  1  0
 26 49  1  0
 26 50  1  0
 27 51  1  0
 27 52  1  0
 28 53  1  0
 29 54  1  0
 29 55  1  0
 30 56  1  0
 30 57  1  0
 31 58  1  0
 32 59  1  0
M  END
>  <UniqueID>  (18) 
18

>  <SMILES>  (18) 
Cc1ccc(S(=O)(=O)N2CCN(C(=O)c3cccc(S(=O)(=O)N4CCCC4)c3)CC2)cc1

>  <Energy>  (18) 
70.61553618295008

>  <Genealogy>  (18) 
Cc1ccc(S(=O)(=O)N2CCN(C(=O)c3cccc(S(=O)(=O)N4CCCC4)c3)CC2)cc1 (3D coordinates assigned)
Cc1ccc(S(=O)(=O)N2CCN(C(=O)c3cccc(S(=O)(=O)N4CCCC4)c3)CC2)cc1 (nonaromatic ring conformer: 70.61553618295008 kcal/mol)

>  <smiles>  (18) 
Cc1ccc(S(=O)(=O)N2CCN(C(=O)c3cccc(S(=O)(=O)N4CCCC4)c3)CC2)cc1

>  <score_type>  (18) 
oracle

>  <origin>  (18) 
adgpu

>  <m_score__min__energy>  (18) 
-10.93

>  <m_primary>  (18) 
energy

$$$$
18:0
     RDKit          3D

 29 31  0  0  0  0  0  0  0  0999 V2000
    0.0900   25.8310  -28.0040 O   0  0  0  0  0  0  0  0  0  0  0  0
   -0.8140   25.1340  -28.5330 C   0  0  0  0  0  0  0  0  0  0  0  0
   -0.6830   23.7960  -28.7220 N   0  0  0  0  0  0  0  0  0  0  0  0
   -1.8520   23.4800  -29.2990 C   0  0  0  0  0  0  0  0  0  0  0  0
   -2.2810   22.2240  -29.7210 C   0  0  0  0  0  0  0  0  0  0  0  0
   -3.5570   22.1310  -30.3070 C   0  0  0  0  0  0  0  0  0  0  0  0
   -4.3650   23.2860  -30.4570 C   0  0  0  0  0  0  0  0  0  0  0  0
   -5.9540   23.1620  -31.2030 S   0  0  0  0  0  0  0  0  0  0  0  0
   -6.2060   24.3970  -32.0190 O   0  0  0  0  0  0  0  0  0  0  0  0
   -7.0240   23.0420  -30.1520 O   0  0  0  0  0  0  0  0  0  0  0  0
   -6.0220   21.7730  -32.2390 N   0  0  0  0  0  0  0  0  0  0  0  0
   -7.0780   20.8010  -32.2590 C   0  0  0  0  0  0  0  0  0  0  0  0
   -6.8090   19.4190  -32.2430 C   0  0  0  0  0  0  0  0  0  0  0  0
   -7.8570   18.4940  -32.2710 C   0  0  0  0  0  0  0  0  0  0  0  0
   -9.1800   18.9370  -32.3120 C   0  0  0  0  0  0  0  0  0  0  0  0
   -9.4590   20.3050  -32.3230 C   0  0  0  0  0  0  0  0  0  0  0  0
   -8.4170   21.2400  -32.2970 C   0  0  0  0  0  0  0  0  0  0  0  0
   -8.7360   22.5990  -32.3130 O   0  0  0  0  0  0  0  0  0  0  0  0
   -3.8950   24.5390  -30.0110 C   0  0  0  0  0  0  0  0  0  0  0  0
   -2.6270   24.5910  -29.4380 C   0  0  0  0  0  0  0  0  0  0  0  0
   -1.9890   25.6670  -28.9560 N   0  0  0  0  0  0  0  0  0  0  0  0
   -1.6442   21.3352  -29.6004 H   0  0  0  0  0  0  0  0  0  0  0  0
   -3.9301   21.1551  -30.6511 H   0  0  0  0  0  0  0  0  0  0  0  0
   -5.7681   19.0650  -32.2083 H   0  0  0  0  0  0  0  0  0  0  0  0
   -7.6387   17.4159  -32.2607 H   0  0  0  0  0  0  0  0  0  0  0  0
  -10.0033   18.2079  -32.3357 H   0  0  0  0  0  0  0  0  0  0  0  0
  -10.5030   20.6501  -32.3523 H   0  0  0  0  0  0  0  0  0  0  0  0
   -8.0760   23.3150  -32.0330 H   0  0  0  0  0  0  0  0  0  0  0  0
   -4.5100   25.4453  -30.1125 H   0  0  0  0  0  0  0  0  0  0  0  0
  1  2  2  0
  2  3  1  0
  3  4  1  0
  4  5  2  0
  5  6  1  0
  6  7  2  0
  7  8  1  0
  8  9  2  0
  8 10  2  0
  8 11  1  0
 11 12  1  0
 12 13  2  0
 13 14  1  0
 14 15  2  0
 15 16  1  0
 16 17  2  0
 17 18  1  0
  7 19  1  0
 19 20  2  0
 20 21  1  0
 21  2  1  0
 20  4  1  0
 17 12  1  0
  5 22  1  0
  6 23  1  0
 13 24  1  0
 14 25  1  0
 15 26  1  0
 16 27  1  0
 18 28  1  0
 19 29  1  0
M  CHG  3   3  -1  11  -1  21  -1
M  END
>  <UniqueID>  (19) 
19

>  <SMILES>  (19) 
O=c1[n-]c2ccc(S(=O)(=O)[N-]c3ccccc3O)cc2[n-]1

>  <Energy>  (19) 
70.48432386770926

>  <Genealogy>  (19) 
O=c1[n-]c2ccc(S(=O)(=O)[N-]c3ccccc3O)cc2[n-]1 (protonated)
O=c1[n-]c2ccc(S(=O)(=O)[N-]c3ccccc3O)cc2[n-]1 (3D coordinates assigned)
O=c1[n-]c2ccc(S(=O)(=O)[N-]c3ccccc3O)cc2[n-]1 (optimized conformer: 70.48432386770926 kcal/mol)

>  <smiles>  (19) 
O=c1[nH]c2ccc(S(=O)(=O)Nc3ccccc3O)cc2[nH]1

>  <score_type>  (19) 
oracle

>  <origin>  (19) 
adgpu

>  <m_score__min__energy>  (19) 
-9.4199999999999999

>  <m_primary>  (19) 
energy

$$$$
19:0
     RDKit          3D

 42 44  0  0  0  0  0  0  0  0999 V2000
   -5.6840   25.2840  -28.9090 O   0  0  0  0  0  0  0  0  0  0  0  0
   -5.2890   24.9760  -30.3260 S   0  0  0  0  0  0  0  0  0  0  0  0
   -5.7080   26.1170  -31.2100 O   0  0  0  0  0  0  0  0  0  0  0  0
   -3.5660   24.7990  -30.4070 N   0  0  0  0  0  0  0  0  0  0  0  0
   -2.7570   24.1150  -29.4380 C   0  0  0  0  0  0  0  0  0  0  0  0
   -3.0720   22.8190  -28.9880 C   0  0  0  0  0  0  0  0  0  0  0  0
   -2.2590   22.1850  -28.0440 C   0  0  0  0  0  0  0  0  0  0  0  0
   -1.1270   22.8340  -27.5450 C   0  0  0  0  0  0  0  0  0  0  0  0
   -0.8100   24.1220  -27.9850 C   0  0  0  0  0  0  0  0  0  0  0  0
   -1.6230   24.7630  -28.9250 C   0  0  0  0  0  0  0  0  0  0  0  0
   -1.3020   26.0470  -29.3450 O   0  0  0  0  0  0  0  0  0  0  0  0
   -6.0710   23.5020  -30.8870 C   0  0  0  0  0  0  0  0  0  0  0  0
   -5.3820   22.2830  -30.8740 C   0  0  0  0  0  0  0  0  0  0  0  0
   -6.0040   21.1190  -31.3320 C   0  0  0  0  0  0  0  0  0  0  0  0
   -7.3250   21.1620  -31.8020 C   0  0  0  0  0  0  0  0  0  0  0  0
   -8.1150   19.6890  -32.3730 S   0  0  0  0  0  0  0  0  0  0  0  0
   -8.4650   18.8250  -31.1930 O   0  0  0  0  0  0  0  0  0  0  0  0
   -9.3920   20.0530  -33.0780 O   0  0  0  0  0  0  0  0  0  0  0  0
   -7.0900   18.7880  -33.4670 N   0  0  0  0  0  0  0  0  0  0  0  0
   -6.4550   17.6570  -32.7650 C   0  0  0  0  0  0  0  0  0  0  0  0
   -5.2070   17.1800  -33.5260 C   0  0  0  0  0  0  0  0  0  0  0  0
   -4.2010   18.1780  -33.6720 O   0  0  0  0  0  0  0  0  0  0  0  0
   -4.6940   19.5070  -33.5840 C   0  0  0  0  0  0  0  0  0  0  0  0
   -6.1170   19.6660  -34.1530 C   0  0  0  0  0  0  0  0  0  0  0  0
   -8.0130   22.3840  -31.8170 C   0  0  0  0  0  0  0  0  0  0  0  0
   -7.3890   23.5470  -31.3580 C   0  0  0  0  0  0  0  0  0  0  0  0
   -3.9609   22.3034  -29.3805 H   0  0  0  0  0  0  0  0  0  0  0  0
   -2.5110   21.1733  -27.6934 H   0  0  0  0  0  0  0  0  0  0  0  0
   -0.4855   22.3315  -26.8061 H   0  0  0  0  0  0  0  0  0  0  0  0
    0.0810   24.6327  -27.5910 H   0  0  0  0  0  0  0  0  0  0  0  0
   -4.3476   22.2418  -30.5020 H   0  0  0  0  0  0  0  0  0  0  0  0
   -5.4559   20.1653  -31.3241 H   0  0  0  0  0  0  0  0  0  0  0  0
   -6.1617   17.9774  -31.7544 H   0  0  0  0  0  0  0  0  0  0  0  0
   -7.1741   16.8266  -32.7071 H   0  0  0  0  0  0  0  0  0  0  0  0
   -4.7734   16.3289  -32.9804 H   0  0  0  0  0  0  0  0  0  0  0  0
   -5.5365   16.9094  -34.5400 H   0  0  0  0  0  0  0  0  0  0  0  0
   -4.7054   19.8062  -32.5255 H   0  0  0  0  0  0  0  0  0  0  0  0
   -4.0284   20.1428  -34.1863 H   0  0  0  0  0  0  0  0  0  0  0  0
   -6.4340   20.7121  -34.0293 H   0  0  0  0  0  0  0  0  0  0  0  0
   -6.0919   19.3804  -35.2150 H   0  0  0  0  0  0  0  0  0  0  0  0
   -9.0465   22.4271  -32.1911 H   0  0  0  0  0  0  0  0  0  0  0  0
   -7.9353   24.5017  -31.3667 H   0  0  0  0  0  0  0  0  0  0  0  0
  1  2  2  0
  2  3  2  0
  2  4  1  0
  4  5  1  0
  5  6  2  0
  6  7  1  0
  7  8  2  0
  8  9  1  0
  9 10  2  0
 10 11  1  0
  2 12  1  0
 12 13  2  0
 13 14  1  0
 14 15  2  0
 15 16  1  0
 16 17  2  0
 16 18  2  0
 16 19  1  0
 19 20  1  0
 20 21  1  0
 21 22  1  0
 22 23  1  0
 23 24  1  0
 15 25  1  0
 25 26  2  0
 10  5  1  0
 26 12  1  0
 24 19  1  0
  6 27  1  0
  7 28  1  0
  8 29  1  0
  9 30  1  0
 13 31  1  0
 14 32  1  0
 20 33  1  0
 20 34  1  0
 21 35  1  0
 21 36  1  0
 23 37  1  0
 23 38  1  0
 24 39  1  0
 24 40  1  0
 25 41  1  0
 26 42  1  0
M  CHG  2   4  -1  11  -1
M  END
>  <UniqueID>  (20) 
20

>  <SMILES>  (20) 
O=S(=O)([N-]c1ccccc1[O-])c1ccc(S(=O)(=O)N2CCOCC2)cc1

>  <Energy>  (20) 
58.603808314437714

>  <Genealogy>  (20) 
O=S(=O)([N-]c1ccccc1[O-])c1ccc(S(=O)(=O)N2CCOCC2)cc1 (protonated)
O=S(=O)([N-]c1ccccc1[O-])c1ccc(S(=O)(=O)N2CCOCC2)cc1 (3D coordinates assigned)
O=S(=O)([N-]c1ccccc1[O-])c1ccc(S(=O)(=O)N2CCOCC2)cc1 (nonaromatic ring conformer: 58.603808314437714 kcal/mol)

>  <smiles>  (20) 
O=S(=O)(Nc1ccccc1O)c1ccc(S(=O)(=O)N2CCOCC2)cc1

>  <score_type>  (20) 
oracle

>  <origin>  (20) 
adgpu

>  <m_score__min__energy>  (20) 
-14.130000000000001

>  <m_primary>  (20) 
energy

$$$$
20:0
     RDKit          3D

 44 46  0  0  0  0  0  0  0  0999 V2000
   -1.8970   25.7310  -28.4980 O   0  0  0  0  0  0  0  0  0  0  0  0
   -2.3550   24.9180  -29.3430 C   0  0  0  0  0  0  0  0  0  0  0  0
   -1.6780   23.6810  -29.6010 N   0  0  0  0  0  0  0  0  0  0  0  0
   -1.7530   22.4830  -28.8140 C   0  0  0  0  0  0  0  0  0  0  0  0
   -2.9870   22.1200  -28.2590 C   0  0  0  0  0  0  0  0  0  0  0  0
   -3.0980   20.9720  -27.4680 C   0  0  0  0  0  0  0  0  0  0  0  0
   -1.9710   20.1870  -27.2130 C   0  0  0  0  0  0  0  0  0  0  0  0
   -2.0800   19.0750  -26.4430 F   0  0  0  0  0  0  0  0  0  0  0  0
   -0.7310   20.5520  -27.7420 C   0  0  0  0  0  0  0  0  0  0  0  0
   -0.6160   21.6990  -28.5340 C   0  0  0  0  0  0  0  0  0  0  0  0
   -3.4950   25.2960  -30.1190 N   0  0  0  0  0  0  0  0  0  0  0  0
   -4.6340   24.4710  -30.4060 C   0  0  0  0  0  0  0  0  0  0  0  0
   -5.9440   24.8780  -30.0970 C   0  0  0  0  0  0  0  0  0  0  0  0
   -7.0290   24.0590  -30.4180 C   0  0  0  0  0  0  0  0  0  0  0  0
   -6.8190   22.8380  -31.0620 C   0  0  0  0  0  0  0  0  0  0  0  0
   -5.5220   22.4310  -31.3930 C   0  0  0  0  0  0  0  0  0  0  0  0
   -5.2730   20.9070  -32.2430 S   0  0  0  0  0  0  0  0  0  0  0  0
   -4.0980   21.0280  -33.1730 O   0  0  0  0  0  0  0  0  0  0  0  0
   -4.9640   19.8440  -31.2270 O   0  0  0  0  0  0  0  0  0  0  0  0
   -6.7120   20.4520  -33.1320 N   0  0  0  0  0  0  0  0  0  0  0  0
   -6.4530   19.3620  -34.0940 C   0  0  0  0  0  0  0  0  0  0  0  0
   -6.2730   17.9930  -33.4120 C   0  0  0  0  0  0  0  0  0  0  0  0
   -7.2390   17.7730  -32.2340 C   0  0  0  0  0  0  0  0  0  0  0  0
   -8.3960   18.7700  -32.2510 C   0  0  0  0  0  0  0  0  0  0  0  0
   -7.8690   20.2160  -32.2310 C   0  0  0  0  0  0  0  0  0  0  0  0
   -4.4340   23.2570  -31.0750 C   0  0  0  0  0  0  0  0  0  0  0  0
   -3.8746   22.7421  -28.4466 H   0  0  0  0  0  0  0  0  0  0  0  0
   -4.0732   20.6871  -27.0464 H   0  0  0  0  0  0  0  0  0  0  0  0
    0.1568   19.9362  -27.5354 H   0  0  0  0  0  0  0  0  0  0  0  0
    0.3644   21.9898  -28.9393 H   0  0  0  0  0  0  0  0  0  0  0  0
   -6.1149   25.8447  -29.6008 H   0  0  0  0  0  0  0  0  0  0  0  0
   -8.0508   24.3765  -30.1630 H   0  0  0  0  0  0  0  0  0  0  0  0
   -7.6758   22.1942  -31.3098 H   0  0  0  0  0  0  0  0  0  0  0  0
   -7.3024   19.2987  -34.7901 H   0  0  0  0  0  0  0  0  0  0  0  0
   -5.5137   19.5976  -34.6158 H   0  0  0  0  0  0  0  0  0  0  0  0
   -6.4466   17.2044  -34.1589 H   0  0  0  0  0  0  0  0  0  0  0  0
   -5.2504   17.9601  -33.0079 H   0  0  0  0  0  0  0  0  0  0  0  0
   -7.6474   16.7535  -32.2949 H   0  0  0  0  0  0  0  0  0  0  0  0
   -6.6764   17.9202  -31.3003 H   0  0  0  0  0  0  0  0  0  0  0  0
   -8.9922   18.6156  -33.1624 H   0  0  0  0  0  0  0  0  0  0  0  0
   -9.0160   18.6073  -31.3570 H   0  0  0  0  0  0  0  0  0  0  0  0
   -8.6865   20.8859  -32.5358 H   0  0  0  0  0  0  0  0  0  0  0  0
   -7.5188   20.4120  -31.2068 H   0  0  0  0  0  0  0  0  0  0  0  0
   -3.4154   22.9488  -31.3533 H   0  0  0  0  0  0  0  0  0  0  0  0
  1  2  2  0
  2  3  1  0
  3  4  1  0
  4  5  2  0
  5  6  1  0
  6  7  2  0
  7  8  1  0
  7  9  1  0
  9 10  2  0
  2 11  1  0
 11 12  1  0
 12 13  2  0
 13 14  1  0
 14 15  2  0
 15 16  1  0
 16 17  1  0
 17 18  2  0
 17 19  2  0
 17 20  1  0
 20 21  1  0
 21 22  1  0
 22 23  1  0
 23 24  1  0
 24 25  1  0
 16 26  2  0
 10  4  1  0
 26 12  1  0
 25 20  1  0
  5 27  1  0
  6 28  1  0
  9 29  1  0
 10 30  1  0
 13 31  1  0
 14 32  1  0
 15 33  1  0
 21 34  1  0
 21 35  1  0
 22 36  1  0
 22 37  1  0
 23 38  1  0
 23 39  1  0
 24 40  1  0
 24 41  1  0
 25 42  1  0
 25 43  1  0
 26 44  1  0
M  CHG  2   3  -1  11  -1
M  END
>  <UniqueID>  (21) 
21

>  <SMILES>  (21) 
O=C([N-]c1ccc(F)cc1)[N-]c1cccc(S(=O)(=O)N2CCCCC2)c1

>  <Energy>  (21) 
58.98132113984236

>  <Genealogy>  (21) 
O=C([N-]c1ccc(F)cc1)[N-]c1cccc(S(=O)(=O)N2CCCCC2)c1 (protonated)
O=C([N-]c1ccc(F)cc1)[N-]c1cccc(S(=O)(=O)N2CCCCC2)c1 (3D coordinates assigned)
O=C([N-]c1ccc(F)cc1)[N-]c1cccc(S(=O)(=O)N2CCCCC2)c1 (nonaromatic ring conformer: 58.98132113984236 kcal/mol)

>  <smiles>  (21) 
O=C(Nc1ccc(F)cc1)Nc1cccc(S(=O)(=O)N2CCCCC2)c1

>  <score_type>  (21) 
oracle

>  <origin>  (21) 
adgpu

>  <m_score__min__energy>  (21) 
-12.5

>  <m_primary>  (21) 
energy

$$$$
21:0
     RDKit          3D

 45 47  0  0  0  0  0  0  0  0999 V2000
   -2.6040   23.5360  -27.8280 O   0  0  0  0  0  0  0  0  0  0  0  0
   -1.8620   22.7210  -28.8490 S   0  0  0  0  0  0  0  0  0  0  0  0
   -0.6040   23.4510  -29.2260 O   0  0  0  0  0  0  0  0  0  0  0  0
   -2.8640   22.5060  -30.2410 N   0  0  0  0  0  0  0  0  0  0  0  0
   -4.1310   23.1570  -30.3400 C   0  0  0  0  0  0  0  0  0  0  0  0
   -5.2640   22.4030  -30.6650 C   0  0  0  0  0  0  0  0  0  0  0  0
   -6.5130   23.0230  -30.8020 C   0  0  0  0  0  0  0  0  0  0  0  0
   -7.9310   22.0770  -31.2560 S   0  0  0  0  0  0  0  0  0  0  0  0
   -8.6840   22.8080  -32.3320 O   0  0  0  0  0  0  0  0  0  0  0  0
   -8.8400   21.9370  -30.0670 O   0  0  0  0  0  0  0  0  0  0  0  0
   -7.4880   20.4880  -31.8300 N   0  0  0  0  0  0  0  0  0  0  0  0
   -8.6880   19.6770  -32.0920 C   0  0  0  0  0  0  0  0  0  0  0  0
   -8.2930   18.2080  -32.3370 C   0  0  0  0  0  0  0  0  0  0  0  0
   -6.8450   18.0660  -32.8370 C   0  0  0  0  0  0  0  0  0  0  0  0
   -6.4630   19.2350  -33.7490 C   0  0  0  0  0  0  0  0  0  0  0  0
   -6.6480   20.5970  -33.0420 C   0  0  0  0  0  0  0  0  0  0  0  0
   -6.6260   24.4040  -30.5910 C   0  0  0  0  0  0  0  0  0  0  0  0
   -5.4980   25.1590  -30.2610 C   0  0  0  0  0  0  0  0  0  0  0  0
   -4.2460   24.5400  -30.1340 C   0  0  0  0  0  0  0  0  0  0  0  0
   -3.1230   25.2920  -29.7950 O   0  0  0  0  0  0  0  0  0  0  0  0
   -1.4740   21.1450  -28.1680 C   0  0  0  0  0  0  0  0  0  0  0  0
   -2.3850   20.4960  -27.3230 C   0  0  0  0  0  0  0  0  0  0  0  0
   -2.0840   19.2350  -26.8000 C   0  0  0  0  0  0  0  0  0  0  0  0
   -0.8740   18.6140  -27.1230 C   0  0  0  0  0  0  0  0  0  0  0  0
    0.0300   19.2480  -27.9820 C   0  0  0  0  0  0  0  0  0  0  0  0
   -0.2690   20.5100  -28.5050 C   0  0  0  0  0  0  0  0  0  0  0  0
   -5.1736   21.3169  -30.8139 H   0  0  0  0  0  0  0  0  0  0  0  0
   -9.3610   19.7325  -31.2237 H   0  0  0  0  0  0  0  0  0  0  0  0
   -9.1967   20.0663  -32.9862 H   0  0  0  0  0  0  0  0  0  0  0  0
   -8.3971   17.6521  -31.3936 H   0  0  0  0  0  0  0  0  0  0  0  0
   -8.9579   17.8072  -33.1163 H   0  0  0  0  0  0  0  0  0  0  0  0
   -6.1658   18.0476  -31.9719 H   0  0  0  0  0  0  0  0  0  0  0  0
   -6.7623   17.1315  -33.4114 H   0  0  0  0  0  0  0  0  0  0  0  0
   -5.4088   19.1270  -34.0441 H   0  0  0  0  0  0  0  0  0  0  0  0
   -7.1233   19.2132  -34.6285 H   0  0  0  0  0  0  0  0  0  0  0  0
   -5.6593   20.9838  -32.7541 H   0  0  0  0  0  0  0  0  0  0  0  0
   -7.1547   21.2756  -33.7440 H   0  0  0  0  0  0  0  0  0  0  0  0
   -7.6059   24.8948  -30.6855 H   0  0  0  0  0  0  0  0  0  0  0  0
   -5.5921   26.2431  -30.1001 H   0  0  0  0  0  0  0  0  0  0  0  0
   -2.2530   24.8520  -29.5180 H   0  0  0  0  0  0  0  0  0  0  0  0
   -3.3398   20.9805  -27.0707 H   0  0  0  0  0  0  0  0  0  0  0  0
   -2.7998   18.7311  -26.1339 H   0  0  0  0  0  0  0  0  0  0  0  0
   -0.6327   17.6269  -26.7018 H   0  0  0  0  0  0  0  0  0  0  0  0
    0.9765   18.7536  -28.2462 H   0  0  0  0  0  0  0  0  0  0  0  0
    0.4420   21.0060  -29.1821 H   0  0  0  0  0  0  0  0  0  0  0  0
  1  2  2  0
  2  3  2  0
  2  4  1  0
  4  5  1  0
  5  6  2  0
  6  7  1  0
  7  8  1  0
  8  9  2  0
  8 10  2  0
  8 11  1  0
 11 12  1  0
 12 13  1  0
 13 14  1  0
 14 15  1  0
 15 16  1  0
  7 17  2  0
 17 18  1  0
 18 19  2  0
 19 20  1  0
  2 21  1  0
 21 22  2  0
 22 23  1  0
 23 24  2  0
 24 25  1  0
 25 26  2  0
 19  5  1  0
 26 21  1  0
 16 11  1  0
  6 27  1  0
 12 28  1  0
 12 29  1  0
 13 30  1  0
 13 31  1  0
 14 32  1  0
 14 33  1  0
 15 34  1  0
 15 35  1  0
 16 36  1  0
 16 37  1  0
 17 38  1  0
 18 39  1  0
 20 40  1  0
 22 41  1  0
 23 42  1  0
 24 43  1  0
 25 44  1  0
 26 45  1  0
M  CHG  1   4  -1
M  END
>  <UniqueID>  (22) 
22

>  <SMILES>  (22) 
O=S(=O)([N-]c1cc(S(=O)(=O)N2CCCCC2)ccc1O)c1ccccc1

>  <Energy>  (22) 
54.58424529105924

>  <Genealogy>  (22) 
O=S(=O)([N-]c1cc(S(=O)(=O)N2CCCCC2)ccc1O)c1ccccc1 (protonated)
O=S(=O)([N-]c1cc(S(=O)(=O)N2CCCCC2)ccc1O)c1ccccc1 (3D coordinates assigned)
O=S(=O)([N-]c1cc(S(=O)(=O)N2CCCCC2)ccc1O)c1ccccc1 (nonaromatic ring conformer: 54.58424529105924 kcal/mol)

>  <smiles>  (22) 
O=S(=O)(Nc1cc(S(=O)(=O)N2CCCCC2)ccc1O)c1ccccc1

>  <score_type>  (22) 
oracle

>  <origin>  (22) 
adgpu

>  <m_score__min__energy>  (22) 
-11.26

>  <m_primary>  (22) 
energy

$$$$
22:0
     RDKit          3D

 50 53  0  0  0  0  0  0  0  0999 V2000
   -9.1600   20.0280  -33.1440 O   0  0  0  0  0  0  0  0  0  0  0  0
   -7.7430   19.7450  -32.7300 S   0  0  0  0  0  0  0  0  0  0  0  0
   -7.7600   18.6480  -31.7040 O   0  0  0  0  0  0  0  0  0  0  0  0
   -6.8440   19.2240  -34.1180 N   0  0  0  0  0  0  0  0  0  0  0  0
   -5.6290   18.4610  -34.0850 C   0  0  0  0  0  0  0  0  0  0  0  0
   -5.7020   17.0770  -34.3100 C   0  0  0  0  0  0  0  0  0  0  0  0
   -4.5440   16.2920  -34.2770 C   0  0  0  0  0  0  0  0  0  0  0  0
   -3.3010   16.8890  -34.0350 C   0  0  0  0  0  0  0  0  0  0  0  0
   -2.1490   16.1150  -34.0130 O   0  0  0  0  0  0  0  0  0  0  0  0
   -3.2170   18.2700  -33.8260 C   0  0  0  0  0  0  0  0  0  0  0  0
   -4.3740   19.0560  -33.8450 C   0  0  0  0  0  0  0  0  0  0  0  0
   -7.0400   21.2190  -32.0710 C   0  0  0  0  0  0  0  0  0  0  0  0
   -5.7110   21.2450  -31.6260 C   0  0  0  0  0  0  0  0  0  0  0  0
   -5.1710   22.4220  -31.1010 C   0  0  0  0  0  0  0  0  0  0  0  0
   -5.9590   23.5770  -31.0000 C   0  0  0  0  0  0  0  0  0  0  0  0
   -5.2760   25.0840  -30.3850 S   0  0  0  0  0  0  0  0  0  0  0  0
   -5.7290   25.3010  -28.9680 O   0  0  0  0  0  0  0  0  0  0  0  0
   -5.7530   26.2330  -31.2290 O   0  0  0  0  0  0  0  0  0  0  0  0
   -3.5460   25.0180  -30.4250 N   0  0  0  0  0  0  0  0  0  0  0  0
   -2.8120   24.3600  -29.3940 C   0  0  0  0  0  0  0  0  0  0  0  0
   -3.2260   23.1050  -28.9300 C   0  0  0  0  0  0  0  0  0  0  0  0
   -2.4700   22.4150  -27.9690 C   0  0  0  0  0  0  0  0  0  0  0  0
   -1.3080   23.0210  -27.4290 C   0  0  0  0  0  0  0  0  0  0  0  0
   -0.9090   24.2830  -27.8940 C   0  0  0  0  0  0  0  0  0  0  0  0
   -1.6560   24.9510  -28.8690 C   0  0  0  0  0  0  0  0  0  0  0  0
   -1.2370   26.1940  -29.3270 O   0  0  0  0  0  0  0  0  0  0  0  0
   -0.4180   22.2900  -26.4520 C   0  0  0  0  0  0  0  0  0  0  0  0
   -1.1390   21.1360  -25.7460 C   0  0  0  0  0  0  0  0  0  0  0  0
   -1.8800   20.2690  -26.7660 C   0  0  0  0  0  0  0  0  0  0  0  0
   -2.9740   21.0820  -27.4670 C   0  0  0  0  0  0  0  0  0  0  0  0
   -7.2880   23.5480  -31.4440 C   0  0  0  0  0  0  0  0  0  0  0  0
   -7.8230   22.3770  -31.9830 C   0  0  0  0  0  0  0  0  0  0  0  0
   -6.6754   16.6069  -34.5135 H   0  0  0  0  0  0  0  0  0  0  0  0
   -4.6104   15.2063  -34.4411 H   0  0  0  0  0  0  0  0  0  0  0  0
   -2.2383   18.7389  -33.6462 H   0  0  0  0  0  0  0  0  0  0  0  0
   -4.3043   20.1401  -33.6724 H   0  0  0  0  0  0  0  0  0  0  0  0
   -5.0924   20.3377  -31.6902 H   0  0  0  0  0  0  0  0  0  0  0  0
   -4.1236   22.4423  -30.7657 H   0  0  0  0  0  0  0  0  0  0  0  0
   -4.1509   22.6564  -29.3217 H   0  0  0  0  0  0  0  0  0  0  0  0
   -0.0002   24.7512  -27.4879 H   0  0  0  0  0  0  0  0  0  0  0  0
    0.4458   21.8837  -26.9986 H   0  0  0  0  0  0  0  0  0  0  0  0
   -0.1083   23.0105  -25.6806 H   0  0  0  0  0  0  0  0  0  0  0  0
   -0.4007   20.5186  -25.2134 H   0  0  0  0  0  0  0  0  0  0  0  0
   -1.8671   21.5515  -25.0338 H   0  0  0  0  0  0  0  0  0  0  0  0
   -1.1647   19.9018  -27.5166 H   0  0  0  0  0  0  0  0  0  0  0  0
   -2.3468   19.4224  -26.2412 H   0  0  0  0  0  0  0  0  0  0  0  0
   -3.3514   20.5024  -28.3223 H   0  0  0  0  0  0  0  0  0  0  0  0
   -3.7678   21.2794  -26.7316 H   0  0  0  0  0  0  0  0  0  0  0  0
   -7.9114   24.4510  -31.3674 H   0  0  0  0  0  0  0  0  0  0  0  0
   -8.8634   22.3635  -32.3400 H   0  0  0  0  0  0  0  0  0  0  0  0
  1  2  2  0
  2  3  2  0
  2  4  1  0
  4  5  1  0
  5  6  2  0
  6  7  1  0
  7  8  2  0
  8  9  1  0
  8 10  1  0
 10 11  2  0
  2 12  1  0
 12 13  2  0
 13 14  1  0
 14 15  2  0
 15 16  1  0
 16 17  2  0
 16 18  2  0
 16 19  1  0
 19 20  1  0
 20 21  2  0
 21 22  1  0
 22 23  2  0
 23 24  1  0
 24 25  2  0
 25 26  1  0
 23 27  1  0
 27 28  1  0
 28 29  1  0
 29 30  1  0
 15 31  1  0
 31 32  2  0
 11  5  1  0
 32 12  1  0
 25 20  1  0
 30 22  1  0
  6 33  1  0
  7 34  1  0
 10 35  1  0
 11 36  1  0
 13 37  1  0
 14 38  1  0
 21 39  1  0
 24 40  1  0
 27 41  1  0
 27 42  1  0
 28 43  1  0
 28 44  1  0
 29 45  1  0
 29 46  1  0
 30 47  1  0
 30 48  1  0
 31 49  1  0
 32 50  1  0
M  CHG  4   4  -1   9  -1  19  -1  26  -1
M  END
>  <UniqueID>  (23) 
23

>  <SMILES>  (23) 
O=S(=O)([N-]c1ccc([O-])cc1)c1ccc(S(=O)(=O)[N-]c2cc3c(cc2[O-])CCCC3)cc1

>  <Energy>  (23) 
61.48332787200226

>  <Genealogy>  (23) 
O=S(=O)([N-]c1ccc([O-])cc1)c1ccc(S(=O)(=O)[N-]c2cc3c(cc2[O-])CCCC3)cc1 (protonated)
O=S(=O)([N-]c1ccc([O-])cc1)c1ccc(S(=O)(=O)[N-]c2cc3c(cc2[O-])CCCC3)cc1 (3D coordinates assigned)
O=S(=O)([N-]c1ccc([O-])cc1)c1ccc(S(=O)(=O)[N-]c2cc3c(cc2[O-])CCCC3)cc1 (nonaromatic ring conformer: 61.48332787200226 kcal/mol)

>  <smiles>  (23) 
O=S(=O)(Nc1ccc(O)cc1)c1ccc(S(=O)(=O)Nc2cc3c(cc2O)CCCC3)cc1

>  <score_type>  (23) 
oracle

>  <origin>  (23) 
adgpu

>  <m_score__min__energy>  (23) 
-15.390000000000001

>  <m_primary>  (23) 
energy

$$$$
23:0
     RDKit          3D

 52 54  0  0  0  0  0  0  0  0999 V2000
    2.2990   21.4630  -34.9910 C   0  0  0  0  0  0  0  0  0  0  0  0
    0.9590   21.9340  -34.6160 N   0  0  0  0  0  0  0  0  0  0  0  0
    0.2980   22.5490  -35.7730 C   0  0  0  0  0  0  0  0  0  0  0  0
    0.0030   20.5950  -34.0300 S   0  0  0  0  0  0  0  0  0  0  0  0
   -1.4040   20.7210  -34.5470 O   0  0  0  0  0  0  0  0  0  0  0  0
    0.5750   19.3060  -34.5550 O   0  0  0  0  0  0  0  0  0  0  0  0
   -0.0290   20.5420  -32.2660 C   0  0  0  0  0  0  0  0  0  0  0  0
    0.4170   19.4000  -31.5870 C   0  0  0  0  0  0  0  0  0  0  0  0
    0.4050   19.3640  -30.1920 C   0  0  0  0  0  0  0  0  0  0  0  0
   -0.0580   20.4640  -29.4650 C   0  0  0  0  0  0  0  0  0  0  0  0
   -0.5220   21.6090  -30.1320 C   0  0  0  0  0  0  0  0  0  0  0  0
   -1.0010   22.7840  -29.3710 C   0  0  0  0  0  0  0  0  0  0  0  0
   -0.3990   23.8840  -29.5050 O   0  0  0  0  0  0  0  0  0  0  0  0
   -2.1500   22.7020  -28.5040 N   0  0  0  0  0  0  0  0  0  0  0  0
   -2.2850   23.6060  -27.3600 C   0  0  0  0  0  0  0  0  0  0  0  0
   -3.4860   24.5440  -27.5680 C   0  0  0  0  0  0  0  0  0  0  0  0
   -4.6380   23.9060  -28.2540 N   0  0  0  0  0  0  0  0  0  0  0  0
   -4.8620   24.5440  -29.8690 S   0  0  0  0  0  0  0  0  0  0  0  0
   -3.5390   24.9340  -30.4670 O   0  0  0  0  0  0  0  0  0  0  0  0
   -5.7520   25.7550  -29.8350 O   0  0  0  0  0  0  0  0  0  0  0  0
   -5.5880   23.2980  -30.8810 C   0  0  0  0  0  0  0  0  0  0  0  0
   -4.8150   22.5900  -31.8140 C   0  0  0  0  0  0  0  0  0  0  0  0
   -5.4080   21.6140  -32.6190 C   0  0  0  0  0  0  0  0  0  0  0  0
   -6.7740   21.3430  -32.5010 C   0  0  0  0  0  0  0  0  0  0  0  0
   -7.5500   22.0490  -31.5780 C   0  0  0  0  0  0  0  0  0  0  0  0
   -6.9590   23.0270  -30.7700 C   0  0  0  0  0  0  0  0  0  0  0  0
   -4.5980   22.4290  -28.2490 C   0  0  0  0  0  0  0  0  0  0  0  0
   -3.3080   21.8820  -28.8840 C   0  0  0  0  0  0  0  0  0  0  0  0
   -0.4920   21.6460  -31.5360 C   0  0  0  0  0  0  0  0  0  0  0  0
    2.8832   21.2577  -34.0819 H   0  0  0  0  0  0  0  0  0  0  0  0
    2.2108   20.5420  -35.5860 H   0  0  0  0  0  0  0  0  0  0  0  0
    2.8064   22.2367  -35.5860 H   0  0  0  0  0  0  0  0  0  0  0  0
   -0.4657   23.2596  -35.4240 H   0  0  0  0  0  0  0  0  0  0  0  0
    1.0439   23.0817  -36.3811 H   0  0  0  0  0  0  0  0  0  0  0  0
   -0.1796   21.7666  -36.3811 H   0  0  0  0  0  0  0  0  0  0  0  0
    0.7775   18.5298  -32.1551 H   0  0  0  0  0  0  0  0  0  0  0  0
    0.7609   18.4675  -29.6633 H   0  0  0  0  0  0  0  0  0  0  0  0
   -0.0589   20.4326  -28.3654 H   0  0  0  0  0  0  0  0  0  0  0  0
   -2.4389   23.0149  -26.4451 H   0  0  0  0  0  0  0  0  0  0  0  0
   -1.3692   24.2082  -27.2663 H   0  0  0  0  0  0  0  0  0  0  0  0
   -3.8230   24.8984  -26.5827 H   0  0  0  0  0  0  0  0  0  0  0  0
   -3.1421   25.3626  -28.2173 H   0  0  0  0  0  0  0  0  0  0  0  0
   -3.7404   22.8038  -31.9118 H   0  0  0  0  0  0  0  0  0  0  0  0
   -4.7987   21.0580  -33.3468 H   0  0  0  0  0  0  0  0  0  0  0  0
   -7.2385   20.5735  -33.1351 H   0  0  0  0  0  0  0  0  0  0  0  0
   -8.6253   21.8361  -31.4865 H   0  0  0  0  0  0  0  0  0  0  0  0
   -7.5717   23.5844  -30.0461 H   0  0  0  0  0  0  0  0  0  0  0  0
   -4.6584   22.0762  -27.2089 H   0  0  0  0  0  0  0  0  0  0  0  0
   -5.4486   22.0655  -28.8442 H   0  0  0  0  0  0  0  0  0  0  0  0
   -3.1469   20.8495  -28.5404 H   0  0  0  0  0  0  0  0  0  0  0  0
   -3.4151   21.9096  -29.9784 H   0  0  0  0  0  0  0  0  0  0  0  0
   -0.8340   22.5471  -32.0662 H   0  0  0  0  0  0  0  0  0  0  0  0
  1  2  1  0
  2  3  1  0
  2  4  1  0
  4  5  2  0
  4  6  2  0
  4  7  1  0
  7  8  2  0
  8  9  1  0
  9 10  2  0
 10 11  1  0
 11 12  1  0
 12 13  2  0
 12 14  1  0
 14 15  1  0
 15 16  1  0
 16 17  1  0
 17 18  1  0
 18 19  2  0
 18 20  2  0
 18 21  1  0
 21 22  2  0
 22 23  1  0
 23 24  2  0
 24 25  1  0
 25 26  2  0
 17 27  1  0
 27 28  1  0
 11 29  2  0
 29  7  1  0
 28 14  1  0
 26 21  1  0
  1 30  1  0
  1 31  1  0
  1 32  1  0
  3 33  1  0
  3 34  1  0
  3 35  1  0
  8 36  1  0
  9 37  1  0
 10 38  1  0
 15 39  1  0
 15 40  1  0
 16 41  1  0
 16 42  1  0
 22 43  1  0
 23 44  1  0
 24 45  1  0
 25 46  1  0
 26 47  1  0
 27 48  1  0
 27 49  1  0
 28 50  1  0
 28 51  1  0
 29 52  1  0
M  END
>  <UniqueID>  (24) 
24

>  <SMILES>  (24) 
CN(C)S(=O)(=O)c1cccc(C(=O)N2CCN(S(=O)(=O)c3ccccc3)CC2)c1

>  <Energy>  (24) 
62.65349351461919

>  <Genealogy>  (24) 
CN(C)S(=O)(=O)c1cccc(C(=O)N2CCN(S(=O)(=O)c3ccccc3)CC2)c1 (3D coordinates assigned)
CN(C)S(=O)(=O)c1cccc(C(=O)N2CCN(S(=O)(=O)c3ccccc3)CC2)c1 (nonaromatic ring conformer: 62.65349351461919 kcal/mol)

>  <smiles>  (24) 
CN(C)S(=O)(=O)c1cccc(C(=O)N2CCN(S(=O)(=O)c3ccccc3)CC2)c1

>  <score_type>  (24) 
oracle

>  <origin>  (24) 
adgpu

>  <m_score__min__energy>  (24) 
-9.5

>  <m_primary>  (24) 
energy

$$$$
24:0
     RDKit          3D

 44 46  0  0  0  0  0  0  0  0999 V2000
   -6.1600   15.1720  -33.1020 H   0  0  0  0  0  0  0  0  0  0  0  0
   -5.2540   15.6940  -33.1210 N   0  0  0  0  0  0  0  0  0  0  0  0
   -5.2130   16.9800  -33.0120 C   0  0  0  0  0  0  0  0  0  0  0  0
   -4.0190   17.6230  -33.0380 N   0  0  0  0  0  0  0  0  0  0  0  0
   -3.9600   18.9770  -32.9220 C   0  0  0  0  0  0  0  0  0  0  0  0
   -2.6870   19.6580  -32.9440 N   0  0  0  0  0  0  0  0  0  0  0  0
   -2.6020   21.0320  -33.4590 C   0  0  0  0  0  0  0  0  0  0  0  0
   -3.2854   21.1409  -34.3141 H   0  0  0  0  0  0  0  0  0  0  0  0
   -2.8834   21.7303  -32.6570 H   0  0  0  0  0  0  0  0  0  0  0  0
   -1.1740   21.3480  -33.9120 C   0  0  0  0  0  0  0  0  0  0  0  0
   -0.9438   20.7617  -34.8138 H   0  0  0  0  0  0  0  0  0  0  0  0
   -1.1025   22.4246  -34.1261 H   0  0  0  0  0  0  0  0  0  0  0  0
   -0.2420   21.0250  -32.8990 O   0  0  0  0  0  0  0  0  0  0  0  0
   -0.2330   19.6260  -32.6970 C   0  0  0  0  0  0  0  0  0  0  0  0
   -0.0484   19.1241  -33.6583 H   0  0  0  0  0  0  0  0  0  0  0  0
    0.5612   19.3790  -31.9771 H   0  0  0  0  0  0  0  0  0  0  0  0
   -1.5740   19.1490  -32.1310 C   0  0  0  0  0  0  0  0  0  0  0  0
   -1.5973   18.0492  -32.1338 H   0  0  0  0  0  0  0  0  0  0  0  0
   -1.6814   19.5284  -31.1041 H   0  0  0  0  0  0  0  0  0  0  0  0
   -5.1140   19.6810  -32.7780 N   0  0  0  0  0  0  0  0  0  0  0  0
   -6.3130   19.0430  -32.7480 C   0  0  0  0  0  0  0  0  0  0  0  0
   -7.5840   19.8310  -32.5710 C   0  0  0  0  0  0  0  0  0  0  0  0
   -7.9720   20.0926  -33.5665 H   0  0  0  0  0  0  0  0  0  0  0  0
   -8.2799   19.1959  -32.0032 H   0  0  0  0  0  0  0  0  0  0  0  0
   -7.4060   21.0820  -31.7940 N   0  0  0  0  0  0  0  0  0  0  0  0
   -8.6310   21.4560  -31.0660 C   0  0  0  0  0  0  0  0  0  0  0  0
   -8.4457   21.3994  -29.9832 H   0  0  0  0  0  0  0  0  0  0  0  0
   -8.9187   22.4829  -31.3356 H   0  0  0  0  0  0  0  0  0  0  0  0
   -9.4432   20.7649  -31.3356 H   0  0  0  0  0  0  0  0  0  0  0  0
   -6.9090   22.2160  -32.6010 C   0  0  0  0  0  0  0  0  0  0  0  0
   -6.4332   21.8263  -33.5130 H   0  0  0  0  0  0  0  0  0  0  0  0
   -7.7614   22.8633  -32.8550 H   0  0  0  0  0  0  0  0  0  0  0  0
   -5.9020   23.0320  -31.8310 C   0  0  0  0  0  0  0  0  0  0  0  0
   -4.6660   22.4670  -31.4770 C   0  0  0  0  0  0  0  0  0  0  0  0
   -4.4395   21.4269  -31.7543 H   0  0  0  0  0  0  0  0  0  0  0  0
   -3.7230   23.2210  -30.7740 C   0  0  0  0  0  0  0  0  0  0  0  0
   -2.7562   22.7736  -30.4999 H   0  0  0  0  0  0  0  0  0  0  0  0
   -4.0060   24.5440  -30.4180 C   0  0  0  0  0  0  0  0  0  0  0  0
   -3.0650   25.2910  -29.7190 O   0  0  0  0  0  0  0  0  0  0  0  0
   -5.2370   25.1120  -30.7650 C   0  0  0  0  0  0  0  0  0  0  0  0
   -5.5170   26.3940  -30.4200 F   0  0  0  0  0  0  0  0  0  0  0  0
   -6.1820   24.3590  -31.4680 C   0  0  0  0  0  0  0  0  0  0  0  0
   -7.1492   24.8081  -31.7379 H   0  0  0  0  0  0  0  0  0  0  0  0
   -6.3600   17.6920  -32.8660 N   0  0  0  0  0  0  0  0  0  0  0  0
  1  2  1  0
  2  3  2  0
  3  4  1  0
  4  5  2  0
  5  6  1  0
  6  7  1  0
  7  8  1  0
  7  9  1  0
  7 10  1  0
 10 11  1  0
 10 12  1  0
 10 13  1  0
 13 14  1  0
 14 15  1  0
 14 16  1  0
 14 17  1  0
 17 18  1  0
 17 19  1  0
  5 20  1  0
 20 21  1  0
 21 22  1  0
 22 23  1  0
 22 24  1  0
 22 25  1  0
 25 26  1  0
 26 27  1  0
 26 28  1  0
 26 29  1  0
 25 30  1  0
 30 31  1  0
 30 32  1  0
 30 33  1  0
 33 34  2  0
 34 35  1  0
 34 36  1  0
 36 37  1  0
 36 38  2  0
 38 39  1  0
 38 40  1  0
 40 41  1  0
 40 42  2  0
 42 43  1  0
 21 44  2  0
 44  3  1  0
 17  6  1  0
 42 33  1  0
M  CHG  2  20  -1  39  -1
M  END
>  <UniqueID>  (25) 
25

>  <SMILES>  (25) 
[H]/N=c1\nc(CN(C)Cc2ccc([O-])c(F)c2)[n-]c(N2CCOCC2)n1

>  <Energy>  (25) 
48.88289423330583

>  <Genealogy>  (25) 
CN(Cc1ccc([O-])c(F)c1)Cc1nc(=N)nc(N2CCOCC2)[n-]1 (protonated)
[H]/N=c1\nc(CN(C)Cc2ccc([O-])c(F)c2)[n-]c(N2CCOCC2)n1 (cis-trans isomerization)
[H]/N=c1\nc(CN(C)Cc2ccc([O-])c(F)c2)[n-]c(N2CCOCC2)n1 (3D coordinates assigned)
[H]/N=c1\nc(CN(C)Cc2ccc([O-])c(F)c2)[n-]c(N2CCOCC2)n1 (nonaromatic ring conformer: 48.88289423330583 kcal/mol)

>  <smiles>  (25) 
CN(Cc1ccc(O)c(F)c1)Cc1nc(=N)nc(N2CCOCC2)[nH]1

>  <score_type>  (25) 
oracle

>  <origin>  (25) 
adgpu

>  <m_score__min__energy>  (25) 
-10.49

>  <m_primary>  (25) 
energy

$$$$
25:0
     RDKit          3D

 40 41  0  0  0  0  0  0  0  0999 V2000
   -9.0320   22.8770  -31.9360 C   0  0  0  0  0  0  0  0  0  0  0  0
   -8.5610   21.4560  -32.1100 C   0  0  0  0  0  0  0  0  0  0  0  0
   -9.5080   20.4200  -32.1020 C   0  0  0  0  0  0  0  0  0  0  0  0
   -9.1100   19.0950  -32.2530 C   0  0  0  0  0  0  0  0  0  0  0  0
   -7.7620   18.7810  -32.4140 C   0  0  0  0  0  0  0  0  0  0  0  0
   -6.7890   19.7990  -32.4370 C   0  0  0  0  0  0  0  0  0  0  0  0
   -5.4230   19.5000  -32.5780 O   0  0  0  0  0  0  0  0  0  0  0  0
   -4.8180   18.9980  -33.7670 C   0  0  0  0  0  0  0  0  0  0  0  0
   -3.3450   19.2940  -33.7720 C   0  0  0  0  0  0  0  0  0  0  0  0
   -2.5380   18.3440  -33.9460 O   0  0  0  0  0  0  0  0  0  0  0  0
   -2.8200   20.6190  -33.6030 N   0  0  0  0  0  0  0  0  0  0  0  0
   -2.2630   21.1660  -32.4000 C   0  0  0  0  0  0  0  0  0  0  0  0
   -2.9110   22.2470  -31.7890 C   0  0  0  0  0  0  0  0  0  0  0  0
   -2.4050   22.8080  -30.6100 C   0  0  0  0  0  0  0  0  0  0  0  0
   -3.2540   24.1470  -29.8430 S   0  0  0  0  0  0  0  0  0  0  0  0
   -2.1110   25.2920  -29.2370 N   0  0  0  0  0  0  0  0  0  0  0  0
   -4.1540   24.8260  -30.8380 O   0  0  0  0  0  0  0  0  0  0  0  0
   -4.0950   23.6260  -28.7120 O   0  0  0  0  0  0  0  0  0  0  0  0
   -1.2370   22.2850  -30.0410 C   0  0  0  0  0  0  0  0  0  0  0  0
   -0.5620   21.2330  -30.6670 C   0  0  0  0  0  0  0  0  0  0  0  0
   -1.0560   20.6860  -31.8590 C   0  0  0  0  0  0  0  0  0  0  0  0
   -0.3340   19.6930  -32.5180 O   0  0  0  0  0  0  0  0  0  0  0  0
   -7.1900   21.1490  -32.3110 C   0  0  0  0  0  0  0  0  0  0  0  0
   -6.1540   22.2470  -32.3210 C   0  0  0  0  0  0  0  0  0  0  0  0
   -9.1089   23.1091  -30.8635 H   0  0  0  0  0  0  0  0  0  0  0  0
   -8.3129   23.5621  -32.4087 H   0  0  0  0  0  0  0  0  0  0  0  0
  -10.0180   22.9970  -32.4087 H   0  0  0  0  0  0  0  0  0  0  0  0
  -10.5745   20.6576  -31.9752 H   0  0  0  0  0  0  0  0  0  0  0  0
   -9.8624   18.2926  -32.2452 H   0  0  0  0  0  0  0  0  0  0  0  0
   -7.4555   17.7303  -32.5239 H   0  0  0  0  0  0  0  0  0  0  0  0
   -4.9689   17.9096  -33.8185 H   0  0  0  0  0  0  0  0  0  0  0  0
   -5.2824   19.4862  -34.6365 H   0  0  0  0  0  0  0  0  0  0  0  0
   -3.8260   22.6591  -32.2395 H   0  0  0  0  0  0  0  0  0  0  0  0
   -1.5920   25.6700  -30.0610 H   0  0  0  0  0  0  0  0  0  0  0  0
   -0.8501   22.7028  -29.0998 H   0  0  0  0  0  0  0  0  0  0  0  0
    0.3609   20.8328  -30.2220 H   0  0  0  0  0  0  0  0  0  0  0  0
   -0.7180   19.1930  -33.3110 H   0  0  0  0  0  0  0  0  0  0  0  0
   -5.8977   22.5187  -31.2864 H   0  0  0  0  0  0  0  0  0  0  0  0
   -5.2515   21.8948  -32.8420 H   0  0  0  0  0  0  0  0  0  0  0  0
   -6.5580   23.1276  -32.8420 H   0  0  0  0  0  0  0  0  0  0  0  0
  1  2  1  0
  2  3  2  0
  3  4  1  0
  4  5  2  0
  5  6  1  0
  6  7  1  0
  7  8  1  0
  8  9  1  0
  9 10  2  0
  9 11  1  0
 11 12  1  0
 12 13  2  0
 13 14  1  0
 14 15  1  0
 15 16  1  0
 15 17  2  0
 15 18  2  0
 14 19  2  0
 19 20  1  0
 20 21  2  0
 21 22  1  0
  6 23  2  0
 23 24  1  0
 23  2  1  0
 21 12  1  0
  1 25  1  0
  1 26  1  0
  1 27  1  0
  3 28  1  0
  4 29  1  0
  5 30  1  0
  8 31  1  0
  8 32  1  0
 13 33  1  0
 16 34  1  0
 19 35  1  0
 20 36  1  0
 22 37  1  0
 24 38  1  0
 24 39  1  0
 24 40  1  0
M  CHG  2  11  -1  16  -1
M  END
>  <UniqueID>  (26) 
26

>  <SMILES>  (26) 
Cc1cccc(OCC(=O)[N-]c2cc(S([NH-])(=O)=O)ccc2O)c1C

>  <Energy>  (26) 
43.49320287287458

>  <Genealogy>  (26) 
Cc1cccc(OCC(=O)[N-]c2cc(S([NH-])(=O)=O)ccc2O)c1C (protonated)
Cc1cccc(OCC(=O)[N-]c2cc(S([NH-])(=O)=O)ccc2O)c1C (3D coordinates assigned)
Cc1cccc(OCC(=O)[N-]c2cc(S([NH-])(=O)=O)ccc2O)c1C (optimized conformer: 43.49320287287458 kcal/mol)

>  <smiles>  (26) 
Cc1cccc(OCC(=O)Nc2cc(S(N)(=O)=O)ccc2O)c1C

>  <score_type>  (26) 
oracle

>  <origin>  (26) 
adgpu

>  <m_score__min__energy>  (26) 
-10.18

>  <m_primary>  (26) 
energy

$$$$
26:0
     RDKit          3D

 59 62  0  0  0  0  0  0  0  0999 V2000
   -9.8200   20.7950  -32.3050 C   0  0  0  0  0  0  0  0  0  0  0  0
   -9.4200   22.1620  -32.3360 O   0  0  0  0  0  0  0  0  0  0  0  0
   -8.2590   22.6620  -31.7270 C   0  0  0  0  0  0  0  0  0  0  0  0
   -7.4420   23.5260  -32.4630 C   0  0  0  0  0  0  0  0  0  0  0  0
   -6.2740   24.0530  -31.9030 C   0  0  0  0  0  0  0  0  0  0  0  0
   -5.9050   23.7280  -30.5860 C   0  0  0  0  0  0  0  0  0  0  0  0
   -4.6640   24.2720  -29.9850 C   0  0  0  0  0  0  0  0  0  0  0  0
   -4.0920   25.2590  -30.5230 O   0  0  0  0  0  0  0  0  0  0  0  0
   -4.0860   23.6700  -28.8150 N   0  0  0  0  0  0  0  0  0  0  0  0
   -3.1130   24.3340  -27.9920 C   0  0  0  0  0  0  0  0  0  0  0  0
   -3.5250   24.9030  -26.7780 C   0  0  0  0  0  0  0  0  0  0  0  0
   -2.6110   25.5750  -25.9630 C   0  0  0  0  0  0  0  0  0  0  0  0
   -1.2830   25.7080  -26.3660 C   0  0  0  0  0  0  0  0  0  0  0  0
   -0.8640   25.1710  -27.5850 C   0  0  0  0  0  0  0  0  0  0  0  0
   -1.7670   24.4670  -28.4030 C   0  0  0  0  0  0  0  0  0  0  0  0
   -1.3660   23.9790  -29.6940 N   0  0  0  0  0  0  0  0  0  0  0  0
   -1.2960   22.6070  -30.1080 C   0  0  0  0  0  0  0  0  0  0  0  0
   -0.2240   21.9750  -29.9080 O   0  0  0  0  0  0  0  0  0  0  0  0
   -2.4150   21.9320  -30.8070 C   0  0  0  0  0  0  0  0  0  0  0  0
   -3.1350   20.9120  -30.1590 C   0  0  0  0  0  0  0  0  0  0  0  0
   -4.1920   20.2680  -30.8090 C   0  0  0  0  0  0  0  0  0  0  0  0
   -4.5400   20.6280  -32.1170 C   0  0  0  0  0  0  0  0  0  0  0  0
   -5.8600   19.8140  -32.9530 S   0  0  0  0  0  0  0  0  0  0  0  0
   -6.8070   20.8610  -33.4690 O   0  0  0  0  0  0  0  0  0  0  0  0
   -6.6050   18.9360  -31.9870 O   0  0  0  0  0  0  0  0  0  0  0  0
   -5.2230   18.8820  -34.2910 N   0  0  0  0  0  0  0  0  0  0  0  0
   -3.8310   18.4470  -34.0680 C   0  0  0  0  0  0  0  0  0  0  0  0
   -3.7470   17.1730  -33.2110 C   0  0  0  0  0  0  0  0  0  0  0  0
   -4.5350   16.1400  -33.7650 O   0  0  0  0  0  0  0  0  0  0  0  0
   -5.8920   16.5330  -33.7640 C   0  0  0  0  0  0  0  0  0  0  0  0
   -6.1050   17.7610  -34.6630 C   0  0  0  0  0  0  0  0  0  0  0  0
   -3.8120   21.6270  -32.7750 C   0  0  0  0  0  0  0  0  0  0  0  0
   -2.7560   22.2720  -32.1280 C   0  0  0  0  0  0  0  0  0  0  0  0
   -6.7230   22.8510  -29.8500 C   0  0  0  0  0  0  0  0  0  0  0  0
   -7.8910   22.3250  -30.4120 C   0  0  0  0  0  0  0  0  0  0  0  0
   -9.9166   20.4648  -31.2602 H   0  0  0  0  0  0  0  0  0  0  0  0
  -10.7881   20.6846  -32.8154 H   0  0  0  0  0  0  0  0  0  0  0  0
   -9.0641   20.1801  -32.8154 H   0  0  0  0  0  0  0  0  0  0  0  0
   -7.7209   23.7938  -33.4928 H   0  0  0  0  0  0  0  0  0  0  0  0
   -5.6393   24.7268  -32.4974 H   0  0  0  0  0  0  0  0  0  0  0  0
   -4.2330   22.6460  -28.6640 H   0  0  0  0  0  0  0  0  0  0  0  0
   -4.5763   24.8194  -26.4652 H   0  0  0  0  0  0  0  0  0  0  0  0
   -2.9392   25.9995  -25.0027 H   0  0  0  0  0  0  0  0  0  0  0  0
   -0.5642   26.2367  -25.7228 H   0  0  0  0  0  0  0  0  0  0  0  0
    0.1796   25.2992  -27.9082 H   0  0  0  0  0  0  0  0  0  0  0  0
   -2.8645   20.6191  -29.1338 H   0  0  0  0  0  0  0  0  0  0  0  0
   -4.7524   19.4756  -30.2912 H   0  0  0  0  0  0  0  0  0  0  0  0
   -3.3620   18.2488  -35.0431 H   0  0  0  0  0  0  0  0  0  0  0  0
   -3.3102   19.2509  -33.5272 H   0  0  0  0  0  0  0  0  0  0  0  0
   -2.6997   16.8403  -33.1621 H   0  0  0  0  0  0  0  0  0  0  0  0
   -4.1250   17.4016  -32.2036 H   0  0  0  0  0  0  0  0  0  0  0  0
   -6.5085   15.7018  -34.1369 H   0  0  0  0  0  0  0  0  0  0  0  0
   -6.1828   16.7940  -32.7357 H   0  0  0  0  0  0  0  0  0  0  0  0
   -5.8973   17.4775  -35.7053 H   0  0  0  0  0  0  0  0  0  0  0  0
   -7.1459   18.0943  -34.5391 H   0  0  0  0  0  0  0  0  0  0  0  0
   -4.0733   21.9050  -33.8067 H   0  0  0  0  0  0  0  0  0  0  0  0
   -2.1869   23.0516  -32.6555 H   0  0  0  0  0  0  0  0  0  0  0  0
   -6.4413   22.5764  -28.8228 H   0  0  0  0  0  0  0  0  0  0  0  0
   -8.5242   21.6451  -29.8231 H   0  0  0  0  0  0  0  0  0  0  0  0
  1  2  1  0
  2  3  1  0
  3  4  2  0
  4  5  1  0
  5  6  2  0
  6  7  1  0
  7  8  2  0
  7  9  1  0
  9 10  1  0
 10 11  2  0
 11 12  1  0
 12 13  2  0
 13 14  1  0
 14 15  2  0
 15 16  1  0
 16 17  1  0
 17 18  2  0
 17 19  1  0
 19 20  2  0
 20 21  1  0
 21 22  2  0
 22 23  1  0
 23 24  2  0
 23 25  2  0
 23 26  1  0
 26 27  1  0
 27 28  1  0
 28 29  1  0
 29 30  1  0
 30 31  1  0
 22 32  1  0
 32 33  2  0
  6 34  1  0
 34 35  2  0
 35  3  1  0
 15 10  1  0
 33 19  1  0
 31 26  1  0
  1 36  1  0
  1 37  1  0
  1 38  1  0
  4 39  1  0
  5 40  1  0
  9 41  1  0
 11 42  1  0
 12 43  1  0
 13 44  1  0
 14 45  1  0
 20 46  1  0
 21 47  1  0
 27 48  1  0
 27 49  1  0
 28 50  1  0
 28 51  1  0
 30 52  1  0
 30 53  1  0
 31 54  1  0
 31 55  1  0
 32 56  1  0
 33 57  1  0
 34 58  1  0
 35 59  1  0
M  CHG  1  16  -1
M  END
>  <UniqueID>  (27) 
27

>  <SMILES>  (27) 
COc1ccc(C(=O)Nc2ccccc2[N-]C(=O)c2ccc(S(=O)(=O)N3CCOCC3)cc2)cc1

>  <Energy>  (27) 
80.31035394544404

>  <Genealogy>  (27) 
COc1ccc(C(=O)Nc2ccccc2[N-]C(=O)c2ccc(S(=O)(=O)N3CCOCC3)cc2)cc1 (protonated)
COc1ccc(C(=O)Nc2ccccc2[N-]C(=O)c2ccc(S(=O)(=O)N3CCOCC3)cc2)cc1 (3D coordinates assigned)
COc1ccc(C(=O)Nc2ccccc2[N-]C(=O)c2ccc(S(=O)(=O)N3CCOCC3)cc2)cc1 (nonaromatic ring conformer: 80.31035394544404 kcal/mol)

>  <smiles>  (27) 
COc1ccc(C(=O)Nc2ccccc2NC(=O)c2ccc(S(=O)(=O)N3CCOCC3)cc2)cc1

>  <score_type>  (27) 
oracle

>  <origin>  (27) 
adgpu

>  <m_score__min__energy>  (27) 
-10.81

>  <m_primary>  (27) 
energy

$$$$
27:0
     RDKit          3D

 31 33  0  0  0  0  0  0  0  0999 V2000
   -1.5970   25.6810  -30.0770 H   0  0  0  0  0  0  0  0  0  0  0  0
   -2.1300   25.2740  -29.2770 N   0  0  0  0  0  0  0  0  0  0  0  0
   -3.5530   24.5490  -29.9340 S   0  0  0  0  0  0  0  0  0  0  0  0
   -4.2330   25.5260  -30.8520 O   0  0  0  0  0  0  0  0  0  0  0  0
   -4.4980   24.1960  -28.8210 O   0  0  0  0  0  0  0  0  0  0  0  0
   -3.1140   23.0960  -30.8280 C   0  0  0  0  0  0  0  0  0  0  0  0
   -1.9750   22.3650  -30.4660 C   0  0  0  0  0  0  0  0  0  0  0  0
   -1.3603   22.6936  -29.6150 H   0  0  0  0  0  0  0  0  0  0  0  0
   -1.6170   21.2190  -31.1830 C   0  0  0  0  0  0  0  0  0  0  0  0
   -0.7349   20.6360  -30.8798 H   0  0  0  0  0  0  0  0  0  0  0  0
   -2.3780   20.8110  -32.2860 C   0  0  0  0  0  0  0  0  0  0  0  0
   -2.0290   19.6020  -32.9730 N   0  0  0  0  0  0  0  0  0  0  0  0
   -1.1620   19.4550  -33.9390 C   0  0  0  0  0  0  0  0  0  0  0  0
   -0.2950   20.4680  -34.3780 C   0  0  0  0  0  0  0  0  0  0  0  0
   -0.1170   21.7140  -33.8940 N   0  0  0  0  0  0  0  0  0  0  0  0
    0.8680   22.2590  -34.6090 N   0  0  0  0  0  0  0  0  0  0  0  0
    1.2700   21.3370  -35.5130 C   0  0  0  0  0  0  0  0  0  0  0  0
    2.4210   21.5130  -36.4470 C   0  0  0  0  0  0  0  0  0  0  0  0
    3.3452   21.6543  -35.8674 H   0  0  0  0  0  0  0  0  0  0  0  0
    2.5188   20.6194  -37.0809 H   0  0  0  0  0  0  0  0  0  0  0  0
    2.2472   22.3950  -37.0809 H   0  0  0  0  0  0  0  0  0  0  0  0
    0.5600   20.2120  -35.3650 N   0  0  0  0  0  0  0  0  0  0  0  0
    0.6750   19.0350  -35.9680 N   0  0  0  0  0  0  0  0  0  0  0  0
   -0.1450   18.0250  -35.5640 C   0  0  0  0  0  0  0  0  0  0  0  0
   -0.0840   17.0398  -36.0494 H   0  0  0  0  0  0  0  0  0  0  0  0
   -1.0460   18.2360  -34.5530 N   0  0  0  0  0  0  0  0  0  0  0  0
   -1.6590   17.4450  -34.2550 H   0  0  0  0  0  0  0  0  0  0  0  0
   -3.5350   21.5280  -32.6310 C   0  0  0  0  0  0  0  0  0  0  0  0
   -4.1624   21.1866  -33.4675 H   0  0  0  0  0  0  0  0  0  0  0  0
   -3.8920   22.6740  -31.9150 C   0  0  0  0  0  0  0  0  0  0  0  0
   -4.7856   23.2461  -32.2052 H   0  0  0  0  0  0  0  0  0  0  0  0
  1  2  1  0
  2  3  1  0
  3  4  2  0
  3  5  2  0
  3  6  1  0
  6  7  2  0
  7  8  1  0
  7  9  1  0
  9 10  1  0
  9 11  2  0
 11 12  1  0
 12 13  2  0
 13 14  1  0
 14 15  2  0
 15 16  1  0
 16 17  2  0
 17 18  1  0
 18 19  1  0
 18 20  1  0
 18 21  1  0
 17 22  1  0
 22 23  1  0
 23 24  2  0
 24 25  1  0
 24 26  1  0
 26 27  1  0
 11 28  1  0
 28 29  1  0
 28 30  2  0
 30 31  1  0
 30  6  1  0
 26 13  1  0
 22 14  1  0
M  CHG  1   2  -1
M  END
>  <UniqueID>  (28) 
28

>  <SMILES>  (28) 
Cc1nnc2/c(=N\c3ccc(S([NH-])(=O)=O)cc3)[nH]cnn12

>  <Energy>  (28) 
87.85889316167734

>  <Genealogy>  (28) 
Cc1nnc2c(=Nc3ccc(S([NH-])(=O)=O)cc3)[nH]cnn12 (protonated)
Cc1nnc2/c(=N\c3ccc(S([NH-])(=O)=O)cc3)[nH]cnn12 (cis-trans isomerization)
Cc1nnc2/c(=N\c3ccc(S([NH-])(=O)=O)cc3)[nH]cnn12 (3D coordinates assigned)
Cc1nnc2/c(=N\c3ccc(S([NH-])(=O)=O)cc3)[nH]cnn12 (optimized conformer: 87.85889316167734 kcal/mol)

>  <smiles>  (28) 
Cc1nnc2c(=Nc3ccc(S(N)(=O)=O)cc3)[nH]cnn12

>  <score_type>  (28) 
oracle

>  <origin>  (28) 
adgpu

>  <m_score__min__energy>  (28) 
-9.2599999999999998

>  <m_primary>  (28) 
energy

$$$$
28:0
     RDKit          3D

 64 67  0  0  0  0  0  0  0  0999 V2000
   -4.6460   13.3090  -31.0810 C   0  0  0  0  0  0  0  0  0  0  0  0
   -3.8890   13.1510  -32.2710 O   0  0  0  0  0  0  0  0  0  0  0  0
   -3.3980   14.2080  -33.0580 C   0  0  0  0  0  0  0  0  0  0  0  0
   -2.1910   14.8630  -32.7440 C   0  0  0  0  0  0  0  0  0  0  0  0
   -1.7360   15.9400  -33.5250 C   0  0  0  0  0  0  0  0  0  0  0  0
   -0.5080   16.5670  -33.2610 O   0  0  0  0  0  0  0  0  0  0  0  0
   -0.3610   17.9270  -32.9660 C   0  0  0  0  0  0  0  0  0  0  0  0
   -0.8920   18.4180  -31.8170 N   0  0  0  0  0  0  0  0  0  0  0  0
   -0.8260   19.7440  -31.5360 C   0  0  0  0  0  0  0  0  0  0  0  0
   -1.3450   20.1870  -30.4310 N   0  0  0  0  0  0  0  0  0  0  0  0
   -1.4570   21.5520  -29.9920 C   0  0  0  0  0  0  0  0  0  0  0  0
   -0.4070   22.2220  -29.3290 C   0  0  0  0  0  0  0  0  0  0  0  0
   -0.5370   23.5710  -28.9870 C   0  0  0  0  0  0  0  0  0  0  0  0
   -1.6890   24.2850  -29.3350 C   0  0  0  0  0  0  0  0  0  0  0  0
   -1.7770   25.6680  -28.9720 N   0  0  0  0  0  0  0  0  0  0  0  0
   -1.2250   26.2770  -27.7970 C   0  0  0  0  0  0  0  0  0  0  0  0
   -1.5380   25.7020  -26.4530 C   0  0  0  0  0  0  0  0  0  0  0  0
   -0.4270   27.2480  -27.8850 O   0  0  0  0  0  0  0  0  0  0  0  0
   -2.7310   23.6230  -30.0050 C   0  0  0  0  0  0  0  0  0  0  0  0
   -2.6080   22.2710  -30.3420 C   0  0  0  0  0  0  0  0  0  0  0  0
   -0.1950   20.5780  -32.4030 N   0  0  0  0  0  0  0  0  0  0  0  0
    0.3510   20.0990  -33.5510 C   0  0  0  0  0  0  0  0  0  0  0  0
    1.0270   20.9890  -34.4610 N   0  0  0  0  0  0  0  0  0  0  0  0
    2.4860   20.9460  -34.5680 C   0  0  0  0  0  0  0  0  0  0  0  0
    0.2470   21.9380  -35.2630 C   0  0  0  0  0  0  0  0  0  0  0  0
    0.2550   18.7730  -33.8310 N   0  0  0  0  0  0  0  0  0  0  0  0
   -2.5320   16.4160  -34.5770 C   0  0  0  0  0  0  0  0  0  0  0  0
   -2.1370   17.5190  -35.3350 O   0  0  0  0  0  0  0  0  0  0  0  0
   -3.7270   15.7690  -34.8920 C   0  0  0  0  0  0  0  0  0  0  0  0
   -4.1380   14.6380  -34.1790 C   0  0  0  0  0  0  0  0  0  0  0  0
   -5.3500   13.9900  -34.5900 N   0  0  0  0  0  0  0  0  0  0  0  0
   -6.6810   14.4820  -34.3840 C   0  0  0  0  0  0  0  0  0  0  0  0
   -7.6080   13.6960  -34.0450 O   0  0  0  0  0  0  0  0  0  0  0  0
   -6.9880   15.8660  -34.5960 N   0  0  0  0  0  0  0  0  0  0  0  0
   -6.4170   16.9830  -33.8960 C   0  0  0  0  0  0  0  0  0  0  0  0
   -5.9050   18.1030  -34.5800 C   0  0  0  0  0  0  0  0  0  0  0  0
   -5.3990   19.1890  -33.8620 C   0  0  0  0  0  0  0  0  0  0  0  0
   -5.4120   19.1750  -32.4620 C   0  0  0  0  0  0  0  0  0  0  0  0
   -5.9380   18.0750  -31.7780 C   0  0  0  0  0  0  0  0  0  0  0  0
   -6.4470   16.9880  -32.4920 C   0  0  0  0  0  0  0  0  0  0  0  0
   -3.9903   13.1721  -30.2084 H   0  0  0  0  0  0  0  0  0  0  0  0
   -5.0837   14.3179  -31.0561 H   0  0  0  0  0  0  0  0  0  0  0  0
   -5.4507   12.5595  -31.0561 H   0  0  0  0  0  0  0  0  0  0  0  0
   -1.5988   14.5286  -31.8794 H   0  0  0  0  0  0  0  0  0  0  0  0
    0.5176   21.6805  -29.0803 H   0  0  0  0  0  0  0  0  0  0  0  0
    0.2730   24.0755  -28.4398 H   0  0  0  0  0  0  0  0  0  0  0  0
   -1.1690   26.3799  -25.6692 H   0  0  0  0  0  0  0  0  0  0  0  0
   -2.6265   25.5809  -26.3504 H   0  0  0  0  0  0  0  0  0  0  0  0
   -1.0488   24.7221  -26.3504 H   0  0  0  0  0  0  0  0  0  0  0  0
   -3.6486   24.1706  -30.2661 H   0  0  0  0  0  0  0  0  0  0  0  0
   -3.4211   21.7681  -30.8860 H   0  0  0  0  0  0  0  0  0  0  0  0
    2.9273   20.9330  -33.5605 H   0  0  0  0  0  0  0  0  0  0  0  0
    2.7872   20.0386  -35.1120 H   0  0  0  0  0  0  0  0  0  0  0  0
    2.8401   21.8341  -35.1120 H   0  0  0  0  0  0  0  0  0  0  0  0
   -0.3079   22.6132  -34.5950 H   0  0  0  0  0  0  0  0  0  0  0  0
    0.9259   22.5265  -35.8977 H   0  0  0  0  0  0  0  0  0  0  0  0
   -0.4618   21.3859  -35.8977 H   0  0  0  0  0  0  0  0  0  0  0  0
   -1.2760   18.0210  -35.1560 H   0  0  0  0  0  0  0  0  0  0  0  0
   -4.3535   16.1527  -35.7107 H   0  0  0  0  0  0  0  0  0  0  0  0
   -5.9037   18.1223  -35.6798 H   0  0  0  0  0  0  0  0  0  0  0  0
   -4.9891   20.0577  -34.3980 H   0  0  0  0  0  0  0  0  0  0  0  0
   -5.0081   20.0300  -31.9000 H   0  0  0  0  0  0  0  0  0  0  0  0
   -5.9509   18.0657  -30.6781 H   0  0  0  0  0  0  0  0  0  0  0  0
   -6.8740   16.1305  -31.9513 H   0  0  0  0  0  0  0  0  0  0  0  0
  1  2  1  0
  2  3  1  0
  3  4  2  0
  4  5  1  0
  5  6  1  0
  6  7  1  0
  7  8  2  0
  8  9  1  0
  9 10  2  3
 10 11  1  0
 11 12  2  0
 12 13  1  0
 13 14  2  0
 14 15  1  0
 15 16  1  0
 16 17  1  0
 16 18  2  0
 14 19  1  0
 19 20  2  0
  9 21  1  0
 21 22  2  0
 22 23  1  0
 23 24  1  0
 23 25  1  0
 22 26  1  0
  5 27  2  0
 27 28  1  0
 27 29  1  0
 29 30  2  0
 30 31  1  0
 31 32  1  0
 32 33  2  0
 32 34  1  0
 34 35  1  0
 35 36  2  0
 36 37  1  0
 37 38  2  0
 38 39  1  0
 39 40  2  0
 30  3  1  0
 40 35  1  0
 26  7  1  0
 20 11  1  0
  1 41  1  0
  1 42  1  0
  1 43  1  0
  4 44  1  0
 12 45  1  0
 13 46  1  0
 17 47  1  0
 17 48  1  0
 17 49  1  0
 19 50  1  0
 20 51  1  0
 24 52  1  0
 24 53  1  0
 24 54  1  0
 25 55  1  0
 25 56  1  0
 25 57  1  0
 28 58  1  0
 29 59  1  0
 36 60  1  0
 37 61  1  0
 38 62  1  0
 39 63  1  0
 40 64  1  0
M  CHG  4  15  -1  26  -1  31  -1  34  -1
M  END
>  <UniqueID>  (29) 
29

>  <SMILES>  (29) 
COc1cc(Oc2nc(=Nc3ccc([N-]C(C)=O)cc3)nc(N(C)C)[n-]2)c(O)cc1[N-]C(=O)[N-]c1ccccc1

>  <Energy>  (29) 
87.35295304652111

>  <Genealogy>  (29) 
COc1cc(Oc2nc(=Nc3ccc([N-]C(C)=O)cc3)nc(N(C)C)[n-]2)c(O)cc1[N-]C(=O)[N-]c1ccccc1 (protonated)
COc1cc(Oc2nc(=Nc3ccc([N-]C(C)=O)cc3)nc(N(C)C)[n-]2)c(O)cc1[N-]C(=O)[N-]c1ccccc1 (3D coordinates assigned)
COc1cc(Oc2nc(=Nc3ccc([N-]C(C)=O)cc3)nc(N(C)C)[n-]2)c(O)cc1[N-]C(=O)[N-]c1ccccc1 (optimized conformer: 87.35295304652111 kcal/mol)

>  <smiles>  (29) 
COc1cc(Oc2nc(=Nc3ccc(NC(C)=O)cc3)nc(N(C)C)[nH]2)c(O)cc1NC(=O)Nc1ccccc1

>  <score_type>  (29) 
oracle

>  <origin>  (29) 
adgpu

>  <m_score__min__energy>  (29) 
-9.8599999999999994

>  <m_primary>  (29) 
energy

$$$$
29:0
     RDKit          3D

 27 28  0  0  0  0  0  0  0  0999 V2000
   -4.6490   25.6710  -30.9170 O   0  0  0  0  0  0  0  0  0  0  0  0
   -5.5830   24.7850  -30.1410 S   0  0  0  0  0  0  0  0  0  0  0  0
   -6.8690   25.5220  -29.9000 O   0  0  0  0  0  0  0  0  0  0  0  0
   -4.8540   24.3900  -28.6160 N   0  0  0  0  0  0  0  0  0  0  0  0
   -3.6640   23.5880  -28.4790 C   0  0  0  0  0  0  0  0  0  0  0  0
   -3.6960   22.3300  -27.8440 C   0  0  0  0  0  0  0  0  0  0  0  0
   -2.5310   21.5690  -27.7190 C   0  0  0  0  0  0  0  0  0  0  0  0
   -1.3230   22.0480  -28.2270 C   0  0  0  0  0  0  0  0  0  0  0  0
   -1.2780   23.2890  -28.8660 C   0  0  0  0  0  0  0  0  0  0  0  0
   -2.4400   24.0580  -28.9940 C   0  0  0  0  0  0  0  0  0  0  0  0
   -2.3670   25.2920  -29.6300 O   0  0  0  0  0  0  0  0  0  0  0  0
   -5.9370   23.3120  -31.0380 C   0  0  0  0  0  0  0  0  0  0  0  0
   -4.8970   22.6040  -31.6540 C   0  0  0  0  0  0  0  0  0  0  0  0
   -5.1720   21.4420  -32.3790 C   0  0  0  0  0  0  0  0  0  0  0  0
   -6.4860   20.9750  -32.4920 C   0  0  0  0  0  0  0  0  0  0  0  0
   -6.7930   19.5090  -33.4160 Cl  0  0  0  0  0  0  0  0  0  0  0  0
   -7.5320   21.6790  -31.8730 C   0  0  0  0  0  0  0  0  0  0  0  0
   -9.1980   21.1260  -31.9890 Cl  0  0  0  0  0  0  0  0  0  0  0  0
   -7.2530   22.8430  -31.1460 C   0  0  0  0  0  0  0  0  0  0  0  0
   -5.3690   24.6940  -27.7610 H   0  0  0  0  0  0  0  0  0  0  0  0
   -4.6454   21.9445  -27.4439 H   0  0  0  0  0  0  0  0  0  0  0  0
   -2.5662   20.5899  -27.2189 H   0  0  0  0  0  0  0  0  0  0  0  0
   -0.4065   21.4484  -28.1242 H   0  0  0  0  0  0  0  0  0  0  0  0
   -0.3258   23.6632  -29.2701 H   0  0  0  0  0  0  0  0  0  0  0  0
   -3.8612   22.9639  -31.5666 H   0  0  0  0  0  0  0  0  0  0  0  0
   -4.3518   20.8917  -32.8632 H   0  0  0  0  0  0  0  0  0  0  0  0
   -8.0713   23.3920  -30.6572 H   0  0  0  0  0  0  0  0  0  0  0  0
  1  2  2  0
  2  3  2  0
  2  4  1  0
  4  5  1  0
  5  6  2  0
  6  7  1  0
  7  8  2  0
  8  9  1  0
  9 10  2  0
 10 11  1  0
  2 12  1  0
 12 13  2  0
 13 14  1  0
 14 15  2  0
 15 16  1  0
 15 17  1  0
 17 18  1  0
 17 19  2  0
 10  5  1  0
 19 12  1  0
  4 20  1  0
  6 21  1  0
  7 22  1  0
  8 23  1  0
  9 24  1  0
 13 25  1  0
 14 26  1  0
 19 27  1  0
M  CHG  1  11  -1
M  END
>  <UniqueID>  (30) 
30

>  <SMILES>  (30) 
O=S(=O)(Nc1ccccc1[O-])c1ccc(Cl)c(Cl)c1

>  <Energy>  (30) 
32.07278422160659

>  <Genealogy>  (30) 
O=S(=O)(Nc1ccccc1[O-])c1ccc(Cl)c(Cl)c1 (protonated)
O=S(=O)(Nc1ccccc1[O-])c1ccc(Cl)c(Cl)c1 (3D coordinates assigned)
O=S(=O)(Nc1ccccc1[O-])c1ccc(Cl)c(Cl)c1 (optimized conformer: 32.07278422160659 kcal/mol)

>  <smiles>  (30) 
O=S(=O)(Nc1ccccc1O)c1ccc(Cl)c(Cl)c1

>  <score_type>  (30) 
oracle

>  <origin>  (30) 
adgpu

>  <m_score__min__energy>  (30) 
-11.99

>  <m_primary>  (30) 
energy

$$$$
30:0
     RDKit          3D

 55 59  0  0  0  0  0  0  0  0999 V2000
   -4.1980   25.3160  -30.9990 O   0  0  0  0  0  0  0  0  0  0  0  0
   -5.1910   24.7900  -30.0010 S   0  0  0  0  0  0  0  0  0  0  0  0
   -6.2460   25.8380  -29.7760 O   0  0  0  0  0  0  0  0  0  0  0  0
   -4.3760   24.4680  -28.5020 N   0  0  0  0  0  0  0  0  0  0  0  0
   -3.3210   23.5090  -28.3900 C   0  0  0  0  0  0  0  0  0  0  0  0
   -3.5810   22.2290  -27.8800 C   0  0  0  0  0  0  0  0  0  0  0  0
   -2.5380   21.3170  -27.6630 C   0  0  0  0  0  0  0  0  0  0  0  0
   -1.2230   21.6600  -28.0540 C   0  0  0  0  0  0  0  0  0  0  0  0
   -0.9790   22.9240  -28.6130 C   0  0  0  0  0  0  0  0  0  0  0  0
   -2.0160   23.8450  -28.7850 C   0  0  0  0  0  0  0  0  0  0  0  0
   -1.7230   25.0960  -29.3340 O   0  0  0  0  0  0  0  0  0  0  0  0
   -0.0510   20.7490  -27.7780 C   0  0  0  0  0  0  0  0  0  0  0  0
   -0.4660   19.3070  -27.4720 C   0  0  0  0  0  0  0  0  0  0  0  0
   -1.6320   19.2800  -26.4790 C   0  0  0  0  0  0  0  0  0  0  0  0
   -2.8620   19.9600  -27.0850 C   0  0  0  0  0  0  0  0  0  0  0  0
   -5.9470   23.3310  -30.6390 C   0  0  0  0  0  0  0  0  0  0  0  0
   -5.1470   22.2830  -31.1130 C   0  0  0  0  0  0  0  0  0  0  0  0
   -5.7250   21.1830  -31.7500 C   0  0  0  0  0  0  0  0  0  0  0  0
   -7.1200   21.1160  -31.9210 C   0  0  0  0  0  0  0  0  0  0  0  0
   -7.7450   20.0460  -32.5960 C   0  0  0  0  0  0  0  0  0  0  0  0
   -6.9850   18.9980  -33.2150 N   0  0  0  0  0  0  0  0  0  0  0  0
   -7.1810   17.6030  -32.8170 C   0  0  0  0  0  0  0  0  0  0  0  0
   -5.8240   16.8980  -32.7920 C   0  0  0  0  0  0  0  0  0  0  0  0
   -5.1510   17.0710  -34.0270 O   0  0  0  0  0  0  0  0  0  0  0  0
   -4.8250   18.4380  -34.2110 C   0  0  0  0  0  0  0  0  0  0  0  0
   -6.0930   19.2910  -34.3360 C   0  0  0  0  0  0  0  0  0  0  0  0
   -9.1380   20.0230  -32.7060 C   0  0  0  0  0  0  0  0  0  0  0  0
   -9.8940   21.0620  -32.1630 C   0  0  0  0  0  0  0  0  0  0  0  0
   -9.2810   22.0980  -31.5370 N   0  0  0  0  0  0  0  0  0  0  0  0
   -7.9290   22.1550  -31.4030 C   0  0  0  0  0  0  0  0  0  0  0  0
   -7.3410   23.2550  -30.7690 C   0  0  0  0  0  0  0  0  0  0  0  0
   -4.6156   21.9367  -27.6473 H   0  0  0  0  0  0  0  0  0  0  0  0
    0.0424   23.1935  -28.9199 H   0  0  0  0  0  0  0  0  0  0  0  0
   -2.4280   25.6730  -29.7790 H   0  0  0  0  0  0  0  0  0  0  0  0
    0.6037   20.7442  -28.6620 H   0  0  0  0  0  0  0  0  0  0  0  0
    0.4618   21.1376  -26.8858 H   0  0  0  0  0  0  0  0  0  0  0  0
   -0.7749   18.8140  -28.4056 H   0  0  0  0  0  0  0  0  0  0  0  0
    0.3903   18.7786  -27.0275 H   0  0  0  0  0  0  0  0  0  0  0  0
   -1.8776   18.2356  -26.2361 H   0  0  0  0  0  0  0  0  0  0  0  0
   -1.3377   19.8200  -25.5670 H   0  0  0  0  0  0  0  0  0  0  0  0
   -3.2617   19.3204  -27.8857 H   0  0  0  0  0  0  0  0  0  0  0  0
   -3.5988   20.1031  -26.2808 H   0  0  0  0  0  0  0  0  0  0  0  0
   -4.0557   22.3270  -30.9824 H   0  0  0  0  0  0  0  0  0  0  0  0
   -5.0876   20.3661  -32.1194 H   0  0  0  0  0  0  0  0  0  0  0  0
   -7.6349   17.5653  -31.8157 H   0  0  0  0  0  0  0  0  0  0  0  0
   -7.8476   17.1016  -33.5342 H   0  0  0  0  0  0  0  0  0  0  0  0
   -5.2108   17.3221  -31.9833 H   0  0  0  0  0  0  0  0  0  0  0  0
   -5.9851   15.8231  -32.6226 H   0  0  0  0  0  0  0  0  0  0  0  0
   -4.2393   18.7878  -33.3481 H   0  0  0  0  0  0  0  0  0  0  0  0
   -4.2412   18.5383  -35.1379 H   0  0  0  0  0  0  0  0  0  0  0  0
   -5.8218   20.3569  -34.3209 H   0  0  0  0  0  0  0  0  0  0  0  0
   -6.6022   19.0578  -35.2828 H   0  0  0  0  0  0  0  0  0  0  0  0
   -9.6369   19.1878  -33.2194 H   0  0  0  0  0  0  0  0  0  0  0  0
  -10.9909   21.0413  -32.2426 H   0  0  0  0  0  0  0  0  0  0  0  0
   -7.9739   24.0621  -30.3716 H   0  0  0  0  0  0  0  0  0  0  0  0
  1  2  2  0
  2  3  2  0
  2  4  1  0
  4  5  1  0
  5  6  2  0
  6  7  1  0
  7  8  2  0
  8  9  1  0
  9 10  2  0
 10 11  1  0
  8 12  1  0
 12 13  1  0
 13 14  1  0
 14 15  1  0
  2 16  1  0
 16 17  2  0
 17 18  1  0
 18 19  2  0
 19 20  1  0
 20 21  1  0
 21 22  1  0
 22 23  1  0
 23 24  1  0
 24 25  1  0
 25 26  1  0
 20 27  2  0
 27 28  1  0
 28 29  2  0
 29 30  1  0
 30 31  2  0
 10  5  1  0
 31 16  1  0
 15  7  1  0
 30 19  1  0
 26 21  1  0
  6 32  1  0
  9 33  1  0
 11 34  1  0
 12 35  1  0
 12 36  1  0
 13 37  1  0
 13 38  1  0
 14 39  1  0
 14 40  1  0
 15 41  1  0
 15 42  1  0
 17 43  1  0
 18 44  1  0
 22 45  1  0
 22 46  1  0
 23 47  1  0
 23 48  1  0
 25 49  1  0
 25 50  1  0
 26 51  1  0
 26 52  1  0
 27 53  1  0
 28 54  1  0
 31 55  1  0
M  CHG  1   4  -1
M  END
>  <UniqueID>  (31) 
31

>  <SMILES>  (31) 
O=S(=O)([N-]c1cc2c(cc1O)CCCC2)c1ccc2c(N3CCOCC3)ccnc2c1

>  <Energy>  (31) 
76.24919845141389

>  <Genealogy>  (31) 
O=S(=O)([N-]c1cc2c(cc1O)CCCC2)c1ccc2c(N3CCOCC3)ccnc2c1 (protonated)
O=S(=O)([N-]c1cc2c(cc1O)CCCC2)c1ccc2c(N3CCOCC3)ccnc2c1 (3D coordinates assigned)
O=S(=O)([N-]c1cc2c(cc1O)CCCC2)c1ccc2c(N3CCOCC3)ccnc2c1 (nonaromatic ring conformer: 76.24919845141389 kcal/mol)

>  <smiles>  (31) 
O=S(=O)(Nc1cc2c(cc1O)CCCC2)c1ccc2c(N3CCOCC3)ccnc2c1

>  <score_type>  (31) 
oracle

>  <origin>  (31) 
adgpu

>  <m_score__min__energy>  (31) 
-14.15

>  <m_primary>  (31) 
energy

$$$$
31:0
     RDKit          3D

 48 50  0  0  0  0  0  0  0  0999 V2000
   -5.7520   26.0500  -30.0910 C   0  0  0  0  0  0  0  0  0  0  0  0
   -4.8040   24.5560  -30.2910 S   0  0  0  0  0  0  0  0  0  0  0  0
   -5.2140   23.5800  -29.2240 O   0  0  0  0  0  0  0  0  0  0  0  0
   -5.0700   23.9410  -31.6360 O   0  0  0  0  0  0  0  0  0  0  0  0
   -3.1130   24.8920  -30.1140 N   0  0  0  0  0  0  0  0  0  0  0  0
   -2.2920   24.5550  -28.9840 C   0  0  0  0  0  0  0  0  0  0  0  0
   -1.6520   25.5490  -28.2200 C   0  0  0  0  0  0  0  0  0  0  0  0
   -0.9150   25.2070  -27.0850 C   0  0  0  0  0  0  0  0  0  0  0  0
   -0.8120   23.8730  -26.6930 C   0  0  0  0  0  0  0  0  0  0  0  0
   -1.4340   22.8750  -27.4430 C   0  0  0  0  0  0  0  0  0  0  0  0
   -2.1620   23.2000  -28.6000 C   0  0  0  0  0  0  0  0  0  0  0  0
   -2.7930   22.1090  -29.3730 C   0  0  0  0  0  0  0  0  0  0  0  0
   -3.0050   21.0030  -28.8060 O   0  0  0  0  0  0  0  0  0  0  0  0
   -3.1560   22.3040  -30.7520 N   0  0  0  0  0  0  0  0  0  0  0  0
   -3.7780   21.3010  -31.5710 C   0  0  0  0  0  0  0  0  0  0  0  0
   -5.0870   20.8890  -31.2770 C   0  0  0  0  0  0  0  0  0  0  0  0
   -5.7260   19.9350  -32.0740 C   0  0  0  0  0  0  0  0  0  0  0  0
   -5.0680   19.3860  -33.1820 C   0  0  0  0  0  0  0  0  0  0  0  0
   -5.8760   18.2040  -34.2070 S   0  0  0  0  0  0  0  0  0  0  0  0
   -7.2020   17.8490  -33.5970 O   0  0  0  0  0  0  0  0  0  0  0  0
   -6.1170   18.7940  -35.5700 O   0  0  0  0  0  0  0  0  0  0  0  0
   -4.8850   16.7720  -34.3250 N   0  0  0  0  0  0  0  0  0  0  0  0
   -4.2280   16.4730  -33.0540 C   0  0  0  0  0  0  0  0  0  0  0  0
   -2.9510   15.7200  -33.3910 C   0  0  0  0  0  0  0  0  0  0  0  0
   -2.6760   16.0300  -34.8560 C   0  0  0  0  0  0  0  0  0  0  0  0
   -3.8020   16.9530  -35.2910 C   0  0  0  0  0  0  0  0  0  0  0  0
   -3.7740   19.8180  -33.5000 C   0  0  0  0  0  0  0  0  0  0  0  0
   -3.1320   20.7720  -32.7040 C   0  0  0  0  0  0  0  0  0  0  0  0
   -5.8848   26.2593  -29.0193 H   0  0  0  0  0  0  0  0  0  0  0  0
   -5.2201   26.8880  -30.5651 H   0  0  0  0  0  0  0  0  0  0  0  0
   -6.7368   25.9256  -30.5651 H   0  0  0  0  0  0  0  0  0  0  0  0
   -1.7333   26.6042  -28.5199 H   0  0  0  0  0  0  0  0  0  0  0  0
   -0.4144   25.9916  -26.4986 H   0  0  0  0  0  0  0  0  0  0  0  0
   -0.2399   23.6075  -25.7918 H   0  0  0  0  0  0  0  0  0  0  0  0
   -1.3539   21.8247  -27.1261 H   0  0  0  0  0  0  0  0  0  0  0  0
   -3.0220   23.2500  -31.1740 H   0  0  0  0  0  0  0  0  0  0  0  0
   -5.6140   21.3200  -30.4130 H   0  0  0  0  0  0  0  0  0  0  0  0
   -6.7495   19.6141  -31.8302 H   0  0  0  0  0  0  0  0  0  0  0  0
   -3.9893   17.4055  -32.5216 H   0  0  0  0  0  0  0  0  0  0  0  0
   -4.8807   15.8745  -32.4015 H   0  0  0  0  0  0  0  0  0  0  0  0
   -2.1200   16.0695  -32.7607 H   0  0  0  0  0  0  0  0  0  0  0  0
   -3.0532   14.6393  -33.2128 H   0  0  0  0  0  0  0  0  0  0  0  0
   -1.7030   16.5308  -34.9674 H   0  0  0  0  0  0  0  0  0  0  0  0
   -2.6366   15.1163  -35.4672 H   0  0  0  0  0  0  0  0  0  0  0  0
   -3.4596   17.9983  -35.2863 H   0  0  0  0  0  0  0  0  0  0  0  0
   -4.1367   16.7177  -36.3121 H   0  0  0  0  0  0  0  0  0  0  0  0
   -3.2601   19.4047  -34.3804 H   0  0  0  0  0  0  0  0  0  0  0  0
   -2.1182   21.1102  -32.9644 H   0  0  0  0  0  0  0  0  0  0  0  0
  1  2  1  0
  2  3  2  0
  2  4  2  0
  2  5  1  0
  5  6  1  0
  6  7  2  0
  7  8  1  0
  8  9  2  0
  9 10  1  0
 10 11  2  0
 11 12  1  0
 12 13  2  0
 12 14  1  0
 14 15  1  0
 15 16  2  0
 16 17  1  0
 17 18  2  0
 18 19  1  0
 19 20  2  0
 19 21  2  0
 19 22  1  0
 22 23  1  0
 23 24  1  0
 24 25  1  0
 25 26  1  0
 18 27  1  0
 27 28  2  0
 11  6  1  0
 28 15  1  0
 26 22  1  0
  1 29  1  0
  1 30  1  0
  1 31  1  0
  7 32  1  0
  8 33  1  0
  9 34  1  0
 10 35  1  0
 14 36  1  0
 16 37  1  0
 17 38  1  0
 23 39  1  0
 23 40  1  0
 24 41  1  0
 24 42  1  0
 25 43  1  0
 25 44  1  0
 26 45  1  0
 26 46  1  0
 27 47  1  0
 28 48  1  0
M  CHG  1   5  -1
M  END
>  <UniqueID>  (32) 
32

>  <SMILES>  (32) 
CS(=O)(=O)[N-]c1ccccc1C(=O)Nc1ccc(S(=O)(=O)N2CCCC2)cc1

>  <Energy>  (32) 
57.82816654094059

>  <Genealogy>  (32) 
CS(=O)(=O)[N-]c1ccccc1C(=O)Nc1ccc(S(=O)(=O)N2CCCC2)cc1 (protonated)
CS(=O)(=O)[N-]c1ccccc1C(=O)Nc1ccc(S(=O)(=O)N2CCCC2)cc1 (3D coordinates assigned)
CS(=O)(=O)[N-]c1ccccc1C(=O)Nc1ccc(S(=O)(=O)N2CCCC2)cc1 (nonaromatic ring conformer: 57.82816654094059 kcal/mol)

>  <smiles>  (32) 
CS(=O)(=O)Nc1ccccc1C(=O)Nc1ccc(S(=O)(=O)N2CCCC2)cc1

>  <score_type>  (32) 
oracle

>  <origin>  (32) 
adgpu

>  <m_score__min__energy>  (32) 
-10.199999999999999

>  <m_primary>  (32) 
energy

$$$$
32:0
     RDKit          3D

 67 70  0  0  0  0  0  0  0  0999 V2000
    0.5710   19.3780  -34.0180 C   0  0  0  0  0  0  0  0  0  0  0  0
   -0.9140   19.3560  -33.7610 C   0  0  0  0  0  0  0  0  0  0  0  0
   -1.6830   18.2950  -34.2620 C   0  0  0  0  0  0  0  0  0  0  0  0
   -3.0600   18.2460  -34.0380 C   0  0  0  0  0  0  0  0  0  0  0  0
   -3.7020   19.2590  -33.3070 C   0  0  0  0  0  0  0  0  0  0  0  0
   -5.1270   19.2050  -33.0710 N   0  0  0  0  0  0  0  0  0  0  0  0
   -5.6570   18.7790  -31.7700 C   0  0  0  0  0  0  0  0  0  0  0  0
   -7.0250   18.1070  -31.9510 C   0  0  0  0  0  0  0  0  0  0  0  0
   -8.0020   18.9290  -32.7190 N   0  0  0  0  0  0  0  0  0  0  0  0
   -9.1220   19.4020  -31.8760 C   0  0  0  0  0  0  0  0  0  0  0  0
   -9.1170   20.9330  -31.7710 C   0  0  0  0  0  0  0  0  0  0  0  0
   -7.9510   21.4110  -31.0270 N   0  0  0  0  0  0  0  0  0  0  0  0
   -7.2430   22.5930  -31.4330 C   0  0  0  0  0  0  0  0  0  0  0  0
   -7.6990   23.2980  -32.3730 O   0  0  0  0  0  0  0  0  0  0  0  0
   -5.9940   23.0120  -30.7510 C   0  0  0  0  0  0  0  0  0  0  0  0
   -4.8410   22.2120  -30.8440 C   0  0  0  0  0  0  0  0  0  0  0  0
   -3.6590   22.5920  -30.2050 C   0  0  0  0  0  0  0  0  0  0  0  0
   -3.6120   23.7700  -29.4480 C   0  0  0  0  0  0  0  0  0  0  0  0
   -2.1240   24.2360  -28.6200 S   0  0  0  0  0  0  0  0  0  0  0  0
   -1.7980   25.6640  -28.9590 O   0  0  0  0  0  0  0  0  0  0  0  0
   -0.9940   23.3740  -29.1130 O   0  0  0  0  0  0  0  0  0  0  0  0
   -2.2600   24.0720  -26.8800 N   0  0  0  0  0  0  0  0  0  0  0  0
   -0.9370   24.0010  -26.2510 C   0  0  0  0  0  0  0  0  0  0  0  0
   -0.5780   25.3840  -25.7300 C   0  0  0  0  0  0  0  0  0  0  0  0
   -1.8690   26.1760  -25.7380 C   0  0  0  0  0  0  0  0  0  0  0  0
   -2.9310   25.2340  -26.2890 C   0  0  0  0  0  0  0  0  0  0  0  0
   -4.7570   24.5680  -29.3460 C   0  0  0  0  0  0  0  0  0  0  0  0
   -5.9420   24.1910  -29.9860 C   0  0  0  0  0  0  0  0  0  0  0  0
   -7.4020   20.0550  -33.4680 C   0  0  0  0  0  0  0  0  0  0  0  0
   -6.0650   19.6650  -34.1030 C   0  0  0  0  0  0  0  0  0  0  0  0
   -2.9340   20.3210  -32.8020 C   0  0  0  0  0  0  0  0  0  0  0  0
   -1.5470   20.3820  -33.0200 C   0  0  0  0  0  0  0  0  0  0  0  0
   -0.7620   21.5420  -32.4670 C   0  0  0  0  0  0  0  0  0  0  0  0
    1.1091   19.3860  -33.0586 H   0  0  0  0  0  0  0  0  0  0  0  0
    0.8572   18.4840  -34.5915 H   0  0  0  0  0  0  0  0  0  0  0  0
    0.8305   20.2801  -34.5915 H   0  0  0  0  0  0  0  0  0  0  0  0
   -1.1960   17.4937  -34.8371 H   0  0  0  0  0  0  0  0  0  0  0  0
   -3.6476   17.4064  -34.4376 H   0  0  0  0  0  0  0  0  0  0  0  0
   -4.9590   18.0645  -31.3093 H   0  0  0  0  0  0  0  0  0  0  0  0
   -5.7724   19.6608  -31.1225 H   0  0  0  0  0  0  0  0  0  0  0  0
   -6.8766   17.1565  -32.4844 H   0  0  0  0  0  0  0  0  0  0  0  0
   -7.4472   17.9641  -30.9454 H   0  0  0  0  0  0  0  0  0  0  0  0
  -10.0725   19.0743  -32.3223 H   0  0  0  0  0  0  0  0  0  0  0  0
   -9.0065   18.9793  -30.8671 H   0  0  0  0  0  0  0  0  0  0  0  0
   -9.0962   21.3616  -32.7839 H   0  0  0  0  0  0  0  0  0  0  0  0
  -10.0242   21.2472  -31.2341 H   0  0  0  0  0  0  0  0  0  0  0  0
   -7.6630   20.9140  -30.1540 H   0  0  0  0  0  0  0  0  0  0  0  0
   -4.8706   21.2786  -31.4253 H   0  0  0  0  0  0  0  0  0  0  0  0
   -2.7608   21.9637  -30.2964 H   0  0  0  0  0  0  0  0  0  0  0  0
   -0.9603   23.2843  -25.4168 H   0  0  0  0  0  0  0  0  0  0  0  0
   -0.1877   23.6671  -26.9838 H   0  0  0  0  0  0  0  0  0  0  0  0
   -0.1766   25.3161  -24.7081 H   0  0  0  0  0  0  0  0  0  0  0  0
    0.1943   25.8624  -26.3503 H   0  0  0  0  0  0  0  0  0  0  0  0
   -2.1303   26.4927  -24.7175 H   0  0  0  0  0  0  0  0  0  0  0  0
   -1.7808   27.0873  -26.3477 H   0  0  0  0  0  0  0  0  0  0  0  0
   -3.5940   24.9055  -25.4751 H   0  0  0  0  0  0  0  0  0  0  0  0
   -3.5336   25.7496  -27.0513 H   0  0  0  0  0  0  0  0  0  0  0  0
   -4.7248   25.4976  -28.7588 H   0  0  0  0  0  0  0  0  0  0  0  0
   -6.8390   24.8205  -29.8904 H   0  0  0  0  0  0  0  0  0  0  0  0
   -8.0968   20.3650  -34.2624 H   0  0  0  0  0  0  0  0  0  0  0  0
   -7.2185   20.8776  -32.7611 H   0  0  0  0  0  0  0  0  0  0  0  0
   -6.2305   18.8561  -34.8299 H   0  0  0  0  0  0  0  0  0  0  0  0
   -5.6386   20.5438  -34.6088 H   0  0  0  0  0  0  0  0  0  0  0  0
   -3.4264   21.1184  -32.2262 H   0  0  0  0  0  0  0  0  0  0  0  0
   -0.7843   21.5090  -31.3677 H   0  0  0  0  0  0  0  0  0  0  0  0
    0.2797   21.4788  -32.8147 H   0  0  0  0  0  0  0  0  0  0  0  0
   -1.2080   22.4855  -32.8147 H   0  0  0  0  0  0  0  0  0  0  0  0
  1  2  1  0
  2  3  2  0
  3  4  1  0
  4  5  2  0
  5  6  1  0
  6  7  1  0
  7  8  1  0
  8  9  1  0
  9 10  1  0
 10 11  1  0
 11 12  1  0
 12 13  1  0
 13 14  2  0
 13 15  1  0
 15 16  2  0
 16 17  1  0
 17 18  2  0
 18 19  1  0
 19 20  2  0
 19 21  2  0
 19 22  1  0
 22 23  1  0
 23 24  1  0
 24 25  1  0
 25 26  1  0
 18 27  1  0
 27 28  2  0
  9 29  1  0
 29 30  1  0
  5 31  1  0
 31 32  2  0
 32 33  1  0
 32  2  1  0
 30  6  1  0
 28 15  1  0
 26 22  1  0
  1 34  1  0
  1 35  1  0
  1 36  1  0
  3 37  1  0
  4 38  1  0
  7 39  1  0
  7 40  1  0
  8 41  1  0
  8 42  1  0
 10 43  1  0
 10 44  1  0
 11 45  1  0
 11 46  1  0
 12 47  1  0
 16 48  1  0
 17 49  1  0
 23 50  1  0
 23 51  1  0
 24 52  1  0
 24 53  1  0
 25 54  1  0
 25 55  1  0
 26 56  1  0
 26 57  1  0
 27 58  1  0
 28 59  1  0
 29 60  1  0
 29 61  1  0
 30 62  1  0
 30 63  1  0
 31 64  1  0
 33 65  1  0
 33 66  1  0
 33 67  1  0
M  END
>  <UniqueID>  (33) 
33

>  <SMILES>  (33) 
Cc1ccc(N2CCN(CCNC(=O)c3ccc(S(=O)(=O)N4CCCC4)cc3)CC2)cc1C

>  <Energy>  (33) 
78.17519458419105

>  <Genealogy>  (33) 
Cc1ccc(N2CCN(CCNC(=O)c3ccc(S(=O)(=O)N4CCCC4)cc3)CC2)cc1C (3D coordinates assigned)
Cc1ccc(N2CCN(CCNC(=O)c3ccc(S(=O)(=O)N4CCCC4)cc3)CC2)cc1C (nonaromatic ring conformer: 78.17519458419105 kcal/mol)

>  <smiles>  (33) 
Cc1ccc(N2CCN(CCNC(=O)c3ccc(S(=O)(=O)N4CCCC4)cc3)CC2)cc1C

>  <score_type>  (33) 
oracle

>  <origin>  (33) 
adgpu

>  <m_score__min__energy>  (33) 
-10.19

>  <m_primary>  (33) 
energy

$$$$
33:0
     RDKit          3D

 61 64  0  0  0  0  0  0  0  0999 V2000
   -1.5760   21.4390  -26.7540 C   0  0  0  0  0  0  0  0  0  0  0  0
   -2.1620   22.4740  -27.6800 C   0  0  0  0  0  0  0  0  0  0  0  0
   -3.4120   22.2000  -28.2600 C   0  0  0  0  0  0  0  0  0  0  0  0
   -3.9930   23.0870  -29.1620 C   0  0  0  0  0  0  0  0  0  0  0  0
   -3.3230   24.2570  -29.5340 C   0  0  0  0  0  0  0  0  0  0  0  0
   -3.9070   25.1970  -30.4490 N   0  0  0  0  0  0  0  0  0  0  0  0
   -5.2840   25.2550  -30.8360 C   0  0  0  0  0  0  0  0  0  0  0  0
   -6.0810   25.9450  -30.1470 O   0  0  0  0  0  0  0  0  0  0  0  0
   -5.7470   24.5450  -31.9930 N   0  0  0  0  0  0  0  0  0  0  0  0
   -6.3900   23.2620  -32.0150 C   0  0  0  0  0  0  0  0  0  0  0  0
   -5.6600   22.0600  -31.9860 C   0  0  0  0  0  0  0  0  0  0  0  0
   -6.3260   20.8310  -31.9850 C   0  0  0  0  0  0  0  0  0  0  0  0
   -7.7270   20.7890  -32.0000 C   0  0  0  0  0  0  0  0  0  0  0  0
   -8.5840   19.2490  -32.0000 S   0  0  0  0  0  0  0  0  0  0  0  0
   -9.7790   19.3220  -32.9100 O   0  0  0  0  0  0  0  0  0  0  0  0
   -9.0550   18.9640  -30.6010 O   0  0  0  0  0  0  0  0  0  0  0  0
   -7.5110   17.9790  -32.5310 N   0  0  0  0  0  0  0  0  0  0  0  0
   -6.5820   17.6150  -31.4470 C   0  0  0  0  0  0  0  0  0  0  0  0
   -5.4380   16.7260  -31.9750 C   0  0  0  0  0  0  0  0  0  0  0  0
   -5.7380   16.2290  -33.2640 O   0  0  0  0  0  0  0  0  0  0  0  0
   -5.8090   17.3010  -34.1880 C   0  0  0  0  0  0  0  0  0  0  0  0
   -6.7610   18.4220  -33.7170 C   0  0  0  0  0  0  0  0  0  0  0  0
   -8.4540   21.9840  -32.0040 C   0  0  0  0  0  0  0  0  0  0  0  0
   -7.7880   23.2130  -32.0010 C   0  0  0  0  0  0  0  0  0  0  0  0
   -2.0830   24.5580  -28.9530 C   0  0  0  0  0  0  0  0  0  0  0  0
   -1.4450   25.7390  -29.3200 O   0  0  0  0  0  0  0  0  0  0  0  0
   -1.4840   23.6780  -28.0210 C   0  0  0  0  0  0  0  0  0  0  0  0
    0.0970   24.1250  -27.3150 S   0  0  0  0  0  0  0  0  0  0  0  0
    0.7380   22.9470  -26.6400 O   0  0  0  0  0  0  0  0  0  0  0  0
    1.0230   24.5500  -28.4210 O   0  0  0  0  0  0  0  0  0  0  0  0
   -0.0380   25.4330  -26.1600 N   0  0  0  0  0  0  0  0  0  0  0  0
   -1.1720   26.3090  -26.4840 C   0  0  0  0  0  0  0  0  0  0  0  0
   -1.2340   27.4790  -25.4780 C   0  0  0  0  0  0  0  0  0  0  0  0
   -0.3140   27.3200  -24.4120 O   0  0  0  0  0  0  0  0  0  0  0  0
   -0.4970   26.0560  -23.8040 C   0  0  0  0  0  0  0  0  0  0  0  0
   -0.1810   24.9120  -24.7900 C   0  0  0  0  0  0  0  0  0  0  0  0
   -1.7474   21.7416  -25.7104 H   0  0  0  0  0  0  0  0  0  0  0  0
   -2.0581   20.4675  -26.9379 H   0  0  0  0  0  0  0  0  0  0  0  0
   -0.4949   21.3525  -26.9379 H   0  0  0  0  0  0  0  0  0  0  0  0
   -3.9393   21.2710  -27.9975 H   0  0  0  0  0  0  0  0  0  0  0  0
   -4.9844   22.8665  -29.5845 H   0  0  0  0  0  0  0  0  0  0  0  0
   -4.5606   22.0872  -31.9640 H   0  0  0  0  0  0  0  0  0  0  0  0
   -5.7492   19.8945  -31.9724 H   0  0  0  0  0  0  0  0  0  0  0  0
   -6.1550   18.5325  -31.0160 H   0  0  0  0  0  0  0  0  0  0  0  0
   -7.1384   17.0529  -30.6825 H   0  0  0  0  0  0  0  0  0  0  0  0
   -4.5137   17.3204  -32.0245 H   0  0  0  0  0  0  0  0  0  0  0  0
   -5.3112   15.8739  -31.2910 H   0  0  0  0  0  0  0  0  0  0  0  0
   -4.8017   17.7238  -34.3166 H   0  0  0  0  0  0  0  0  0  0  0  0
   -6.2027   16.9024  -35.1346 H   0  0  0  0  0  0  0  0  0  0  0  0
   -6.1733   19.3166  -33.4633 H   0  0  0  0  0  0  0  0  0  0  0  0
   -7.4691   18.6581  -34.5250 H   0  0  0  0  0  0  0  0  0  0  0  0
   -9.5536   21.9565  -32.0095 H   0  0  0  0  0  0  0  0  0  0  0  0
   -8.3672   24.1481  -31.9875 H   0  0  0  0  0  0  0  0  0  0  0  0
   -1.0458   26.7084  -27.5011 H   0  0  0  0  0  0  0  0  0  0  0  0
   -2.1058   25.7305  -26.4259 H   0  0  0  0  0  0  0  0  0  0  0  0
   -1.0028   28.4145  -26.0085 H   0  0  0  0  0  0  0  0  0  0  0  0
   -2.2465   27.5008  -25.0487 H   0  0  0  0  0  0  0  0  0  0  0  0
    0.1722   25.9756  -22.9347 H   0  0  0  0  0  0  0  0  0  0  0  0
   -1.5485   25.9677  -23.4932 H   0  0  0  0  0  0  0  0  0  0  0  0
    0.7579   24.4243  -24.4889 H   0  0  0  0  0  0  0  0  0  0  0  0
   -1.0091   24.1882  -24.7705 H   0  0  0  0  0  0  0  0  0  0  0  0
  1  2  1  0
  2  3  2  0
  3  4  1  0
  4  5  2  0
  5  6  1  0
  6  7  1  0
  7  8  2  0
  7  9  1  0
  9 10  1  0
 10 11  2  0
 11 12  1  0
 12 13  2  0
 13 14  1  0
 14 15  2  0
 14 16  2  0
 14 17  1  0
 17 18  1  0
 18 19  1  0
 19 20  1  0
 20 21  1  0
 21 22  1  0
 13 23  1  0
 23 24  2  0
  5 25  1  0
 25 26  1  0
 25 27  2  0
 27 28  1  0
 28 29  2  0
 28 30  2  0
 28 31  1  0
 31 32  1  0
 32 33  1  0
 33 34  1  0
 34 35  1  0
 35 36  1  0
 27  2  1  0
 36 31  1  0
 24 10  1  0
 22 17  1  0
  1 37  1  0
  1 38  1  0
  1 39  1  0
  3 40  1  0
  4 41  1  0
 11 42  1  0
 12 43  1  0
 18 44  1  0
 18 45  1  0
 19 46  1  0
 19 47  1  0
 21 48  1  0
 21 49  1  0
 22 50  1  0
 22 51  1  0
 23 52  1  0
 24 53  1  0
 32 54  1  0
 32 55  1  0
 33 56  1  0
 33 57  1  0
 35 58  1  0
 35 59  1  0
 36 60  1  0
 36 61  1  0
M  CHG  3   6  -1   9  -1  26  -1
M  END
>  <UniqueID>  (34) 
34

>  <SMILES>  (34) 
Cc1ccc([N-]C(=O)[N-]c2ccc(S(=O)(=O)N3CCOCC3)cc2)c([O-])c1S(=O)(=O)N1CCOCC1

>  <Energy>  (34) 
89.75601334699107

>  <Genealogy>  (34) 
Cc1ccc([N-]C(=O)[N-]c2ccc(S(=O)(=O)N3CCOCC3)cc2)c([O-])c1S(=O)(=O)N1CCOCC1 (protonated)
Cc1ccc([N-]C(=O)[N-]c2ccc(S(=O)(=O)N3CCOCC3)cc2)c([O-])c1S(=O)(=O)N1CCOCC1 (3D coordinates assigned)
Cc1ccc([N-]C(=O)[N-]c2ccc(S(=O)(=O)N3CCOCC3)cc2)c([O-])c1S(=O)(=O)N1CCOCC1 (nonaromatic ring conformer: 89.75601334699107 kcal/mol)

>  <smiles>  (34) 
Cc1ccc(NC(=O)Nc2ccc(S(=O)(=O)N3CCOCC3)cc2)c(O)c1S(=O)(=O)N1CCOCC1

>  <score_type>  (34) 
oracle

>  <origin>  (34) 
adgpu

>  <m_score__min__energy>  (34) 
-17.390000000000001

>  <m_primary>  (34) 
energy

$$$$
34:0
     RDKit          3D

 68 72  0  0  0  0  0  0  0  0999 V2000
   -5.6780   19.5320  -30.7090 H   0  0  0  0  0  0  0  0  0  0  0  0
   -5.3950   20.4540  -30.9500 O   0  0  0  0  0  0  0  0  0  0  0  0
   -5.5370   20.5980  -32.3460 C   0  0  0  0  0  0  0  0  0  0  0  0
   -5.8780   19.2470  -32.9640 C   0  0  0  0  0  0  0  0  0  0  0  0
   -6.5820   18.3200  -32.2510 N   0  0  0  0  0  0  0  0  0  0  0  0
   -6.8770   17.0920  -32.7510 C   0  0  0  0  0  0  0  0  0  0  0  0
   -7.4566   16.3776  -32.1479 H   0  0  0  0  0  0  0  0  0  0  0  0
   -6.4450   16.7360  -34.0300 C   0  0  0  0  0  0  0  0  0  0  0  0
   -6.6834   15.7443  -34.4419 H   0  0  0  0  0  0  0  0  0  0  0  0
   -5.7080   17.6520  -34.7790 C   0  0  0  0  0  0  0  0  0  0  0  0
   -5.3593   17.3851  -35.7876 H   0  0  0  0  0  0  0  0  0  0  0  0
   -5.4130   18.9090  -34.2470 C   0  0  0  0  0  0  0  0  0  0  0  0
   -4.8202   19.6305  -34.8284 H   0  0  0  0  0  0  0  0  0  0  0  0
   -6.7060   21.5880  -32.6180 C   0  0  0  0  0  0  0  0  0  0  0  0
   -7.4439   21.4843  -31.8089 H   0  0  0  0  0  0  0  0  0  0  0  0
   -7.1226   21.3297  -33.6027 H   0  0  0  0  0  0  0  0  0  0  0  0
   -6.2660   23.0650  -32.6890 C   0  0  0  0  0  0  0  0  0  0  0  0
   -7.0663   23.6981  -32.2783 H   0  0  0  0  0  0  0  0  0  0  0  0
   -6.0711   23.3205  -33.7410 H   0  0  0  0  0  0  0  0  0  0  0  0
   -5.0370   23.2890  -31.9210 N   0  0  0  0  0  0  0  0  0  0  0  0
   -5.0460   24.1430  -30.7600 C   0  0  0  0  0  0  0  0  0  0  0  0
   -6.0900   24.2400  -30.0600 O   0  0  0  0  0  0  0  0  0  0  0  0
   -3.8640   24.8370  -30.3370 N   0  0  0  0  0  0  0  0  0  0  0  0
   -3.0760   24.4360  -29.3860 C   0  0  0  0  0  0  0  0  0  0  0  0
   -3.2100   23.2570  -28.7380 N   0  0  0  0  0  0  0  0  0  0  0  0
   -2.2430   23.0870  -27.7980 C   0  0  0  0  0  0  0  0  0  0  0  0
   -2.2160   21.8600  -26.9390 C   0  0  0  0  0  0  0  0  0  0  0  0
   -2.2225   22.1542  -25.8791 H   0  0  0  0  0  0  0  0  0  0  0  0
   -3.1008   21.2426  -27.1536 H   0  0  0  0  0  0  0  0  0  0  0  0
   -1.3049   21.2822  -27.1536 H   0  0  0  0  0  0  0  0  0  0  0  0
   -1.3140   24.1350  -27.7190 C   0  0  0  0  0  0  0  0  0  0  0  0
   -0.1680   24.2550  -26.7950 C   0  0  0  0  0  0  0  0  0  0  0  0
    1.1350   24.4360  -27.2850 C   0  0  0  0  0  0  0  0  0  0  0  0
    1.3093   24.4947  -28.3695 H   0  0  0  0  0  0  0  0  0  0  0  0
    2.2120   24.5420  -26.4000 C   0  0  0  0  0  0  0  0  0  0  0  0
    3.2307   24.6809  -26.7911 H   0  0  0  0  0  0  0  0  0  0  0  0
    1.9990   24.4720  -25.0160 C   0  0  0  0  0  0  0  0  0  0  0  0
    3.3590   24.5430  -23.8970 S   0  0  0  0  0  0  0  0  0  0  0  0
    4.6390   24.4940  -24.6860 O   0  0  0  0  0  0  0  0  0  0  0  0
    3.3220   23.3540  -22.9750 O   0  0  0  0  0  0  0  0  0  0  0  0
    3.2880   26.0240  -22.9750 N   0  0  0  0  0  0  0  0  0  0  0  0
    2.8860   25.7810  -22.0380 H   0  0  0  0  0  0  0  0  0  0  0  0
    2.3950   26.9950  -23.6500 C   0  0  0  0  0  0  0  0  0  0  0  0
    2.5896   26.9552  -24.7319 H   0  0  0  0  0  0  0  0  0  0  0  0
    1.3605   26.7123  -23.4052 H   0  0  0  0  0  0  0  0  0  0  0  0
    2.6000   28.4500  -23.1670 C   0  0  0  0  0  0  0  0  0  0  0  0
    3.2259   28.9831  -23.8979 H   0  0  0  0  0  0  0  0  0  0  0  0
    1.6109   28.9225  -23.0748 H   0  0  0  0  0  0  0  0  0  0  0  0
    3.2820   28.5030  -21.7990 C   0  0  0  0  0  0  0  0  0  0  0  0
    3.4430   29.5543  -21.5181 H   0  0  0  0  0  0  0  0  0  0  0  0
    2.6334   28.0022  -21.0651 H   0  0  0  0  0  0  0  0  0  0  0  0
    4.6370   27.7780  -21.8290 C   0  0  0  0  0  0  0  0  0  0  0  0
    5.4102   28.4903  -22.1528 H   0  0  0  0  0  0  0  0  0  0  0  0
    4.8329   27.3978  -20.8156 H   0  0  0  0  0  0  0  0  0  0  0  0
    4.6450   26.5710  -22.7890 C   0  0  0  0  0  0  0  0  0  0  0  0
    5.0386   26.8920  -23.7647 H   0  0  0  0  0  0  0  0  0  0  0  0
    5.2789   25.7850  -22.3526 H   0  0  0  0  0  0  0  0  0  0  0  0
    0.6980   24.3050  -24.5260 C   0  0  0  0  0  0  0  0  0  0  0  0
    0.5242   24.2492  -23.4413 H   0  0  0  0  0  0  0  0  0  0  0  0
   -0.3800   24.2090  -25.4090 C   0  0  0  0  0  0  0  0  0  0  0  0
   -1.4010   24.0967  -25.0154 H   0  0  0  0  0  0  0  0  0  0  0  0
   -1.7510   25.3090  -28.8470 S   0  0  0  0  0  0  0  0  0  0  0  0
   -3.8410   22.4890  -32.2350 C   0  0  0  0  0  0  0  0  0  0  0  0
   -3.3070   22.2605  -31.3009 H   0  0  0  0  0  0  0  0  0  0  0  0
   -3.2019   23.0710  -32.9153 H   0  0  0  0  0  0  0  0  0  0  0  0
   -4.2190   21.1720  -32.9310 C   0  0  0  0  0  0  0  0  0  0  0  0
   -3.4104   20.4410  -32.7832 H   0  0  0  0  0  0  0  0  0  0  0  0
   -4.3656   21.3693  -34.0032 H   0  0  0  0  0  0  0  0  0  0  0  0
  1  2  1  0
  2  3  1  0
  3  4  1  0
  4  5  2  0
  5  6  1  0
  6  7  1  0
  6  8  2  0
  8  9  1  0
  8 10  1  0
 10 11  1  0
 10 12  2  0
 12 13  1  0
  3 14  1  0
 14 15  1  0
 14 16  1  0
 14 17  1  0
 17 18  1  0
 17 19  1  0
 17 20  1  0
 20 21  1  0
 21 22  2  0
 21 23  1  0
 23 24  2  0
 24 25  1  0
 25 26  1  0
 26 27  1  0
 27 28  1  0
 27 29  1  0
 27 30  1  0
 26 31  2  0
 31 32  1  0
 32 33  2  0
 33 34  1  0
 33 35  1  0
 35 36  1  0
 35 37  2  0
 37 38  1  0
 38 39  2  0
 38 40  2  0
 38 41  1  0
 41 42  1  0
 41 43  1  0
 43 44  1  0
 43 45  1  0
 43 46  1  0
 46 47  1  0
 46 48  1  0
 46 49  1  0
 49 50  1  0
 49 51  1  0
 49 52  1  0
 52 53  1  0
 52 54  1  0
 52 55  1  0
 55 56  1  0
 55 57  1  0
 37 58  1  0
 58 59  1  0
 58 60  2  0
 60 61  1  0
 31 62  1  0
 20 63  1  0
 63 64  1  0
 63 65  1  0
 63 66  1  0
 66 67  1  0
 66 68  1  0
 66  3  1  0
 12  4  1  0
 62 24  1  0
 60 32  1  0
 55 41  1  0
M  CHG  2  25  -1  41   1
M  END
>  <UniqueID>  (35) 
35

>  <SMILES>  (35) 
Cc1[n-]/c(=N\C(=O)N2CCC(O)(c3ccccn3)CC2)sc1-c1ccc(S(=O)(=O)[NH+]2CCCCC2)cc1

>  <Energy>  (35) 
122.49068137636408

>  <Genealogy>  (35) 
Cc1[n-]c(=NC(=O)N2CCC(O)(c3ccccn3)CC2)sc1-c1ccc(S(=O)(=O)[NH+]2CCCCC2)cc1 (protonated)
Cc1[n-]/c(=N\C(=O)N2CCC(O)(c3ccccn3)CC2)sc1-c1ccc(S(=O)(=O)[NH+]2CCCCC2)cc1 (cis-trans isomerization)
Cc1[n-]/c(=N\C(=O)N2CCC(O)(c3ccccn3)CC2)sc1-c1ccc(S(=O)(=O)[NH+]2CCCCC2)cc1 (3D coordinates assigned)
Cc1[n-]/c(=N\C(=O)N2CCC(O)(c3ccccn3)CC2)sc1-c1ccc(S(=O)(=O)[NH+]2CCCCC2)cc1 (nonaromatic ring conformer: 122.49068137636408 kcal/mol)

>  <smiles>  (35) 
Cc1[nH]c(=NC(=O)N2CCC(O)(c3ccccn3)CC2)sc1-c1ccc(S(=O)(=O)N2CCCCC2)cc1

>  <score_type>  (35) 
oracle

>  <origin>  (35) 
adgpu

>  <m_score__min__energy>  (35) 
-10.69

>  <m_primary>  (35) 
energy

$$$$
35:0
     RDKit          3D

 52 55  0  0  0  0  0  0  0  0999 V2000
   -7.0330   25.9700  -29.3020 O   0  0  0  0  0  0  0  0  0  0  0  0
   -5.9780   25.1990  -30.0460 S   0  0  0  0  0  0  0  0  0  0  0  0
   -5.4570   26.0540  -31.1670 O   0  0  0  0  0  0  0  0  0  0  0  0
   -4.6750   24.7950  -28.9730 N   0  0  0  0  0  0  0  0  0  0  0  0
   -3.6070   23.9260  -29.3820 C   0  0  0  0  0  0  0  0  0  0  0  0
   -3.8760   22.6100  -29.7940 C   0  0  0  0  0  0  0  0  0  0  0  0
   -2.8430   21.7830  -30.2580 C   0  0  0  0  0  0  0  0  0  0  0  0
   -1.5180   22.2590  -30.2810 C   0  0  0  0  0  0  0  0  0  0  0  0
   -1.2450   23.5550  -29.8190 C   0  0  0  0  0  0  0  0  0  0  0  0
   -2.2810   24.3880  -29.3820 C   0  0  0  0  0  0  0  0  0  0  0  0
   -1.9840   25.6800  -28.9610 O   0  0  0  0  0  0  0  0  0  0  0  0
   -0.3780   21.3520  -30.6900 C   0  0  0  0  0  0  0  0  0  0  0  0
   -0.7770   20.1870  -31.6480 C   0  0  0  0  0  0  0  0  0  0  0  0
   -2.2850   20.0840  -31.9570 C   0  0  0  0  0  0  0  0  0  0  0  0
   -3.1330   20.3860  -30.7230 C   0  0  0  0  0  0  0  0  0  0  0  0
   -6.6460   23.7150  -30.7200 C   0  0  0  0  0  0  0  0  0  0  0  0
   -7.5730   22.9540  -29.9940 C   0  0  0  0  0  0  0  0  0  0  0  0
   -8.0070   21.7180  -30.4820 C   0  0  0  0  0  0  0  0  0  0  0  0
   -7.5200   21.2330  -31.7040 C   0  0  0  0  0  0  0  0  0  0  0  0
   -8.0300   19.6490  -32.3010 S   0  0  0  0  0  0  0  0  0  0  0  0
   -8.9930   19.8430  -33.4380 O   0  0  0  0  0  0  0  0  0  0  0  0
   -8.7520   18.9190  -31.2010 O   0  0  0  0  0  0  0  0  0  0  0  0
   -6.6890   18.6700  -32.8490 N   0  0  0  0  0  0  0  0  0  0  0  0
   -6.1170   19.1680  -34.0990 C   0  0  0  0  0  0  0  0  0  0  0  0
   -5.4490   17.9730  -34.7670 C   0  0  0  0  0  0  0  0  0  0  0  0
   -6.0770   16.7460  -34.1220 C   0  0  0  0  0  0  0  0  0  0  0  0
   -7.0910   17.2920  -33.1270 C   0  0  0  0  0  0  0  0  0  0  0  0
   -6.6200   22.0100  -32.4480 C   0  0  0  0  0  0  0  0  0  0  0  0
   -6.1770   23.2400  -31.9520 C   0  0  0  0  0  0  0  0  0  0  0  0
   -4.5620   25.3820  -28.1180 H   0  0  0  0  0  0  0  0  0  0  0  0
   -4.9056   22.2252  -29.7522 H   0  0  0  0  0  0  0  0  0  0  0  0
   -0.2074   23.9197  -29.8001 H   0  0  0  0  0  0  0  0  0  0  0  0
    0.3821   21.9654  -31.1960 H   0  0  0  0  0  0  0  0  0  0  0  0
   -0.0122   20.8802  -29.7661 H   0  0  0  0  0  0  0  0  0  0  0  0
   -0.2428   20.3292  -32.5990 H   0  0  0  0  0  0  0  0  0  0  0  0
   -0.5053   19.2558  -31.1292 H   0  0  0  0  0  0  0  0  0  0  0  0
   -2.5373   20.8047  -32.7488 H   0  0  0  0  0  0  0  0  0  0  0  0
   -2.5009   19.0548  -32.2797 H   0  0  0  0  0  0  0  0  0  0  0  0
   -4.1993   20.2965  -30.9779 H   0  0  0  0  0  0  0  0  0  0  0  0
   -2.8907   19.6712  -29.9228 H   0  0  0  0  0  0  0  0  0  0  0  0
   -7.9606   23.3312  -29.0361 H   0  0  0  0  0  0  0  0  0  0  0  0
   -8.7323   21.1246  -29.9059 H   0  0  0  0  0  0  0  0  0  0  0  0
   -6.9091   19.5729  -34.7461 H   0  0  0  0  0  0  0  0  0  0  0  0
   -5.3966   19.9786  -33.9150 H   0  0  0  0  0  0  0  0  0  0  0  0
   -5.6421   17.9799  -35.8499 H   0  0  0  0  0  0  0  0  0  0  0  0
   -4.3568   17.9896  -34.6371 H   0  0  0  0  0  0  0  0  0  0  0  0
   -6.5766   16.1249  -34.8801 H   0  0  0  0  0  0  0  0  0  0  0  0
   -5.3252   16.1082  -33.6342 H   0  0  0  0  0  0  0  0  0  0  0  0
   -8.1014   17.2699  -33.5613 H   0  0  0  0  0  0  0  0  0  0  0  0
   -7.1153   16.6885  -32.2077 H   0  0  0  0  0  0  0  0  0  0  0  0
   -6.2618   21.6509  -33.4241 H   0  0  0  0  0  0  0  0  0  0  0  0
   -5.4574   23.8371  -32.5313 H   0  0  0  0  0  0  0  0  0  0  0  0
  1  2  2  0
  2  3  2  0
  2  4  1  0
  4  5  1  0
  5  6  2  0
  6  7  1  0
  7  8  2  0
  8  9  1  0
  9 10  2  0
 10 11  1  0
  8 12  1  0
 12 13  1  0
 13 14  1  0
 14 15  1  0
  2 16  1  0
 16 17  2  0
 17 18  1  0
 18 19  2  0
 19 20  1  0
 20 21  2  0
 20 22  2  0
 20 23  1  0
 23 24  1  0
 24 25  1  0
 25 26  1  0
 26 27  1  0
 19 28  1  0
 28 29  2  0
 10  5  1  0
 29 16  1  0
 15  7  1  0
 27 23  1  0
  4 30  1  0
  6 31  1  0
  9 32  1  0
 12 33  1  0
 12 34  1  0
 13 35  1  0
 13 36  1  0
 14 37  1  0
 14 38  1  0
 15 39  1  0
 15 40  1  0
 17 41  1  0
 18 42  1  0
 24 43  1  0
 24 44  1  0
 25 45  1  0
 25 46  1  0
 26 47  1  0
 26 48  1  0
 27 49  1  0
 27 50  1  0
 28 51  1  0
 29 52  1  0
M  CHG  1  11  -1
M  END
>  <UniqueID>  (36) 
36

>  <SMILES>  (36) 
O=S(=O)(Nc1cc2c(cc1[O-])CCCC2)c1ccc(S(=O)(=O)N2CCCC2)cc1

>  <Energy>  (36) 
60.54105829241963

>  <Genealogy>  (36) 
O=S(=O)(Nc1cc2c(cc1[O-])CCCC2)c1ccc(S(=O)(=O)N2CCCC2)cc1 (protonated)
O=S(=O)(Nc1cc2c(cc1[O-])CCCC2)c1ccc(S(=O)(=O)N2CCCC2)cc1 (3D coordinates assigned)
O=S(=O)(Nc1cc2c(cc1[O-])CCCC2)c1ccc(S(=O)(=O)N2CCCC2)cc1 (nonaromatic ring conformer: 60.54105829241963 kcal/mol)

>  <smiles>  (36) 
O=S(=O)(Nc1cc2c(cc1O)CCCC2)c1ccc(S(=O)(=O)N2CCCC2)cc1

>  <score_type>  (36) 
oracle

>  <origin>  (36) 
adgpu

>  <m_score__min__energy>  (36) 
-15.09

>  <m_primary>  (36) 
energy

$$$$
36:0
     RDKit          3D

 48 50  0  0  0  0  0  0  0  0999 V2000
   -6.2630   15.8010  -33.8270 C   0  0  0  0  0  0  0  0  0  0  0  0
   -4.8180   16.1480  -33.8610 C   0  0  0  0  0  0  0  0  0  0  0  0
   -3.8520   15.2300  -33.5010 C   0  0  0  0  0  0  0  0  0  0  0  0
   -2.5400   15.6200  -33.5580 C   0  0  0  0  0  0  0  0  0  0  0  0
   -2.1910   16.8960  -33.9640 C   0  0  0  0  0  0  0  0  0  0  0  0
   -3.1630   17.8080  -34.3220 C   0  0  0  0  0  0  0  0  0  0  0  0
   -4.4960   17.4290  -34.2710 C   0  0  0  0  0  0  0  0  0  0  0  0
   -5.5160   18.3730  -34.6420 N   0  0  0  0  0  0  0  0  0  0  0  0
   -6.1170   19.1300  -33.6250 C   0  0  0  0  0  0  0  0  0  0  0  0
   -5.7370   18.9490  -32.4420 O   0  0  0  0  0  0  0  0  0  0  0  0
   -7.1390   20.1000  -33.8450 N   0  0  0  0  0  0  0  0  0  0  0  0
   -7.6320   20.7730  -32.6870 C   0  0  0  0  0  0  0  0  0  0  0  0
   -7.1880   22.0240  -32.3080 C   0  0  0  0  0  0  0  0  0  0  0  0
   -7.7310   22.5970  -31.1600 C   0  0  0  0  0  0  0  0  0  0  0  0
   -7.2270   23.9440  -30.7870 C   0  0  0  0  0  0  0  0  0  0  0  0
   -5.8020   23.8670  -30.5190 N   0  0  0  0  0  0  0  0  0  0  0  0
   -5.2410   22.7230  -30.0510 C   0  0  0  0  0  0  0  0  0  0  0  0
   -3.8780   22.6360  -29.7910 C   0  0  0  0  0  0  0  0  0  0  0  0
   -3.1340   21.1690  -29.1870 Cl  0  0  0  0  0  0  0  0  0  0  0  0
   -4.9670   24.9030  -30.7150 C   0  0  0  0  0  0  0  0  0  0  0  0
   -1.7760   23.6880  -29.7770 N   0  0  0  0  0  0  0  0  0  0  0  0
   -3.6450   24.8450  -30.4710 N   0  0  0  0  0  0  0  0  0  0  0  0
   -3.0440   23.7230  -30.0030 C   0  0  0  0  0  0  0  0  0  0  0  0
   -5.4120   25.9970  -31.1460 O   0  0  0  0  0  0  0  0  0  0  0  0
   -8.6860   21.9190  -30.4300 C   0  0  0  0  0  0  0  0  0  0  0  0
   -9.1420   20.6580  -30.7970 C   0  0  0  0  0  0  0  0  0  0  0  0
   -8.5950   20.1060  -31.9360 C   0  0  0  0  0  0  0  0  0  0  0  0
   -9.0860   18.7550  -32.3280 C   0  0  0  0  0  0  0  0  0  0  0  0
   -6.5964   15.7209  -32.7818 H   0  0  0  0  0  0  0  0  0  0  0  0
   -6.8407   16.5860  -34.3370 H   0  0  0  0  0  0  0  0  0  0  0  0
   -6.4213   14.8393  -34.3370 H   0  0  0  0  0  0  0  0  0  0  0  0
   -4.1276   14.2153  -33.1779 H   0  0  0  0  0  0  0  0  0  0  0  0
   -1.7510   14.9071  -33.2764 H   0  0  0  0  0  0  0  0  0  0  0  0
   -1.1305   17.1857  -34.0017 H   0  0  0  0  0  0  0  0  0  0  0  0
   -2.8840   18.8223  -34.6436 H   0  0  0  0  0  0  0  0  0  0  0  0
   -5.8200   18.5130  -35.6260 H   0  0  0  0  0  0  0  0  0  0  0  0
   -7.4680   20.2690  -34.8050 H   0  0  0  0  0  0  0  0  0  0  0  0
   -6.4254   22.5546  -32.8970 H   0  0  0  0  0  0  0  0  0  0  0  0
   -7.4077   24.6459  -31.6145 H   0  0  0  0  0  0  0  0  0  0  0  0
   -7.7521   24.2973  -29.8874 H   0  0  0  0  0  0  0  0  0  0  0  0
   -5.8792   21.8449  -29.8734 H   0  0  0  0  0  0  0  0  0  0  0  0
   -1.2140   24.5330  -29.9560 H   0  0  0  0  0  0  0  0  0  0  0  0
   -3.0060   25.6730  -30.6320 H   0  0  0  0  0  0  0  0  0  0  0  0
   -9.1003   22.3922  -29.5275 H   0  0  0  0  0  0  0  0  0  0  0  0
   -9.9028   20.1260  -30.2069 H   0  0  0  0  0  0  0  0  0  0  0  0
   -9.3000   18.1661  -31.4239 H   0  0  0  0  0  0  0  0  0  0  0  0
  -10.0044   18.8575  -32.9247 H   0  0  0  0  0  0  0  0  0  0  0  0
   -8.3161   18.2440  -32.9247 H   0  0  0  0  0  0  0  0  0  0  0  0
  1  2  1  0
  2  3  2  0
  3  4  1  0
  4  5  2  0
  5  6  1  0
  6  7  2  0
  7  8  1  0
  8  9  1  0
  9 10  2  0
  9 11  1  0
 11 12  1  0
 12 13  2  0
 13 14  1  0
 14 15  1  0
 15 16  1  0
 16 17  1  0
 17 18  2  0
 18 19  1  0
 18 20  1  0
 20 21  2  3
 20 22  1  0
 22 23  1  0
 23 24  2  0
 14 25  2  0
 25 26  1  0
 26 27  2  0
 27 28  1  0
  7  2  1  0
 27 12  1  0
 23 16  1  0
  1 29  1  0
  1 30  1  0
  1 31  1  0
  3 32  1  0
  4 33  1  0
  5 34  1  0
  6 35  1  0
  8 36  1  0
 11 37  1  0
 13 38  1  0
 15 39  1  0
 15 40  1  0
 17 41  1  0
 21 42  1  0
 22 43  1  0
 25 44  1  0
 26 45  1  0
 28 46  1  0
 28 47  1  0
 28 48  1  0
M  END
>  <smiles>  (37) 
Cc1ccccc1NC(=O)Nc1cc(Cn2cc(Cl)c(=N)[nH]c2=O)ccc1C

>  <score_type>  (37) 
oracle

>  <origin>  (37) 
adgpu

>  <m_score__min__energy>  (37) 
-9.7100000000000009

>  <m_primary>  (37) 
energy

$$$$
37:0
     RDKit          3D

 58 61  0  0  0  0  0  0  0  0999 V2000
   -4.0070   17.8530  -35.2680 O   0  0  0  0  0  0  0  0  0  0  0  0
   -4.7250   17.9850  -33.9540 S   0  0  0  0  0  0  0  0  0  0  0  0
   -4.4680   16.7440  -33.1440 O   0  0  0  0  0  0  0  0  0  0  0  0
   -4.0820   19.3880  -33.1020 C   0  0  0  0  0  0  0  0  0  0  0  0
   -4.3860   19.5790  -31.7470 C   0  0  0  0  0  0  0  0  0  0  0  0
   -3.8740   20.6840  -31.0600 C   0  0  0  0  0  0  0  0  0  0  0  0
   -3.0510   21.6020  -31.7230 C   0  0  0  0  0  0  0  0  0  0  0  0
   -2.3980   23.0210  -30.8440 S   0  0  0  0  0  0  0  0  0  0  0  0
   -4.0290   23.7320  -30.5760 C   0  0  0  0  0  0  0  0  0  0  0  0
   -5.0170   23.5480  -31.5520 C   0  0  0  0  0  0  0  0  0  0  0  0
   -6.3050   24.0550  -31.3550 C   0  0  0  0  0  0  0  0  0  0  0  0
   -6.6130   24.7450  -30.1810 C   0  0  0  0  0  0  0  0  0  0  0  0
   -5.6320   24.9380  -29.2040 C   0  0  0  0  0  0  0  0  0  0  0  0
   -4.3330   24.4520  -29.4010 C   0  0  0  0  0  0  0  0  0  0  0  0
   -3.3540   24.6360  -28.3740 N   0  0  0  0  0  0  0  0  0  0  0  0
   -2.7870   23.5440  -27.6340 C   0  0  0  0  0  0  0  0  0  0  0  0
   -1.8150   23.8830  -26.3560 S   0  0  0  0  0  0  0  0  0  0  0  0
   -3.1540   22.1840  -27.9300 N   0  0  0  0  0  0  0  0  0  0  0  0
   -2.2890   21.0530  -27.7340 C   0  0  0  0  0  0  0  0  0  0  0  0
   -0.9460   21.1330  -28.1400 C   0  0  0  0  0  0  0  0  0  0  0  0
   -0.0780   20.0570  -27.9300 C   0  0  0  0  0  0  0  0  0  0  0  0
   -0.5390   18.8980  -27.3000 C   0  0  0  0  0  0  0  0  0  0  0  0
   -1.8670   18.8170  -26.8720 C   0  0  0  0  0  0  0  0  0  0  0  0
   -2.7390   19.8910  -27.0800 C   0  0  0  0  0  0  0  0  0  0  0  0
   -2.7320   21.4040  -33.0720 C   0  0  0  0  0  0  0  0  0  0  0  0
   -3.2470   20.3030  -33.7600 C   0  0  0  0  0  0  0  0  0  0  0  0
   -6.4440   18.2020  -34.2190 N   0  0  0  0  0  0  0  0  0  0  0  0
   -6.8630   19.6120  -33.9720 C   0  0  0  0  0  0  0  0  0  0  0  0
   -7.8470   19.7810  -32.8000 C   0  0  0  0  0  0  0  0  0  0  0  0
   -7.4040   18.9470  -31.6000 C   0  0  0  0  0  0  0  0  0  0  0  0
   -7.2630   17.4570  -31.9560 C   0  0  0  0  0  0  0  0  0  0  0  0
   -7.2340   17.1960  -33.4750 C   0  0  0  0  0  0  0  0  0  0  0  0
   -5.0294   18.8573  -31.2225 H   0  0  0  0  0  0  0  0  0  0  0  0
   -4.1181   20.8321  -29.9977 H   0  0  0  0  0  0  0  0  0  0  0  0
   -4.7785   23.0025  -32.4770 H   0  0  0  0  0  0  0  0  0  0  0  0
   -7.0764   23.9101  -32.1257 H   0  0  0  0  0  0  0  0  0  0  0  0
   -7.6287   25.1372  -30.0246 H   0  0  0  0  0  0  0  0  0  0  0  0
   -5.8812   25.4739  -28.2763 H   0  0  0  0  0  0  0  0  0  0  0  0
   -2.9220   25.5830  -28.2790 H   0  0  0  0  0  0  0  0  0  0  0  0
   -4.1130   21.9960  -28.2980 H   0  0  0  0  0  0  0  0  0  0  0  0
   -0.5753   22.0476  -28.6259 H   0  0  0  0  0  0  0  0  0  0  0  0
    0.9689   20.1230  -28.2611 H   0  0  0  0  0  0  0  0  0  0  0  0
    0.1430   18.0497  -27.1410 H   0  0  0  0  0  0  0  0  0  0  0  0
   -2.2274   17.9067  -26.3705 H   0  0  0  0  0  0  0  0  0  0  0  0
   -3.7802   19.8270  -26.7311 H   0  0  0  0  0  0  0  0  0  0  0  0
   -2.0745   22.1170  -33.5909 H   0  0  0  0  0  0  0  0  0  0  0  0
   -2.9971   20.1531  -34.8207 H   0  0  0  0  0  0  0  0  0  0  0  0
   -6.5940   18.0020  -35.2360 H   0  0  0  0  0  0  0  0  0  0  0  0
   -5.9632   20.2066  -33.7556 H   0  0  0  0  0  0  0  0  0  0  0  0
   -7.3885   19.9492  -34.8776 H   0  0  0  0  0  0  0  0  0  0  0  0
   -7.8838   20.8412  -32.5092 H   0  0  0  0  0  0  0  0  0  0  0  0
   -8.8420   19.4390  -33.1209 H   0  0  0  0  0  0  0  0  0  0  0  0
   -6.4320   19.3214  -31.2464 H   0  0  0  0  0  0  0  0  0  0  0  0
   -8.1731   19.0390  -30.8190 H   0  0  0  0  0  0  0  0  0  0  0  0
   -6.3268   17.0800  -31.5185 H   0  0  0  0  0  0  0  0  0  0  0  0
   -8.1455   16.9393  -31.5520 H   0  0  0  0  0  0  0  0  0  0  0  0
   -6.7937   16.2036  -33.6519 H   0  0  0  0  0  0  0  0  0  0  0  0
   -8.2702   17.2560  -33.8392 H   0  0  0  0  0  0  0  0  0  0  0  0
  1  2  2  0
  2  3  2  0
  2  4  1  0
  4  5  2  0
  5  6  1  0
  6  7  2  0
  7  8  1  0
  8  9  1  0
  9 10  2  0
 10 11  1  0
 11 12  2  0
 12 13  1  0
 13 14  2  0
 14 15  1  0
 15 16  1  0
 16 17  2  0
 16 18  1  0
 18 19  1  0
 19 20  2  0
 20 21  1  0
 21 22  2  0
 22 23  1  0
 23 24  2  0
  7 25  1  0
 25 26  2  0
  2 27  1  0
 27 28  1  0
 28 29  1  0
 29 30  1  0
 30 31  1  0
 31 32  1  0
 26  4  1  0
 32 27  1  0
 14  9  1  0
 24 19  1  0
  5 33  1  0
  6 34  1  0
 10 35  1  0
 11 36  1  0
 12 37  1  0
 13 38  1  0
 15 39  1  0
 18 40  1  0
 20 41  1  0
 21 42  1  0
 22 43  1  0
 23 44  1  0
 24 45  1  0
 25 46  1  0
 26 47  1  0
 27 48  1  0
 28 49  1  0
 28 50  1  0
 29 51  1  0
 29 52  1  0
 30 53  1  0
 30 54  1  0
 31 55  1  0
 31 56  1  0
 32 57  1  0
 32 58  1  0
M  CHG  1  27   1
M  END
>  <UniqueID>  (38) 
37

>  <SMILES>  (38) 
O=S(=O)(c1ccc(Sc2ccccc2NC(=S)Nc2ccccc2)cc1)[NH+]1CCCCC1

>  <Energy>  (38) 
74.69284476315796

>  <Genealogy>  (38) 
O=S(=O)(c1ccc(Sc2ccccc2NC(=S)Nc2ccccc2)cc1)[NH+]1CCCCC1 (protonated)
O=S(=O)(c1ccc(Sc2ccccc2NC(=S)Nc2ccccc2)cc1)[NH+]1CCCCC1 (3D coordinates assigned)
O=S(=O)(c1ccc(Sc2ccccc2NC(=S)Nc2ccccc2)cc1)[NH+]1CCCCC1 (nonaromatic ring conformer: 74.69284476315796 kcal/mol)

>  <smiles>  (38) 
O=S(=O)(c1ccc(Sc2ccccc2NC(=S)Nc2ccccc2)cc1)N1CCCCC1

>  <score_type>  (38) 
oracle

>  <origin>  (38) 
adgpu

>  <m_score__min__energy>  (38) 
-10.09

>  <m_primary>  (38) 
energy

$$$$
38:0
     RDKit          3D

 49 52  0  0  0  0  0  0  0  0999 V2000
   -2.6191   20.1062  -35.1096 H   0  0  0  0  0  0  0  0  0  0  0  0
   -2.0360   19.9990  -34.1830 C   0  0  0  0  0  0  0  0  0  0  0  0
   -0.6880   19.8490  -34.2470 N   0  0  0  0  0  0  0  0  0  0  0  0
    0.0730   19.7050  -33.1310 C   0  0  0  0  0  0  0  0  0  0  0  0
    1.1634   19.5926  -33.2226 H   0  0  0  0  0  0  0  0  0  0  0  0
   -0.5240   19.6990  -31.8650 C   0  0  0  0  0  0  0  0  0  0  0  0
    0.2970   19.5500  -30.6920 N   0  0  0  0  0  0  0  0  0  0  0  0
    1.3330   19.4860  -30.8180 H   0  0  0  0  0  0  0  0  0  0  0  0
   -0.2030   19.6450  -29.3500 C   0  0  0  0  0  0  0  0  0  0  0  0
   -0.3590   18.4730  -28.5970 C   0  0  0  0  0  0  0  0  0  0  0  0
   -0.0991   17.5000  -29.0394 H   0  0  0  0  0  0  0  0  0  0  0  0
   -0.8430   18.5340  -27.2870 C   0  0  0  0  0  0  0  0  0  0  0  0
   -0.9514   17.6116  -26.6976 H   0  0  0  0  0  0  0  0  0  0  0  0
   -1.1890   19.7650  -26.7260 C   0  0  0  0  0  0  0  0  0  0  0  0
   -1.5611   19.8124  -25.6919 H   0  0  0  0  0  0  0  0  0  0  0  0
   -1.0630   20.9370  -27.4770 C   0  0  0  0  0  0  0  0  0  0  0  0
   -1.3451   21.9040  -27.0350 H   0  0  0  0  0  0  0  0  0  0  0  0
   -0.5790   20.8850  -28.7900 C   0  0  0  0  0  0  0  0  0  0  0  0
   -0.5180   22.3740  -29.7250 Cl  0  0  0  0  0  0  0  0  0  0  0  0
   -1.9150   19.8720  -31.7770 C   0  0  0  0  0  0  0  0  0  0  0  0
   -2.4013   19.8934  -30.7905 H   0  0  0  0  0  0  0  0  0  0  0  0
   -2.6900   20.0180  -32.9400 C   0  0  0  0  0  0  0  0  0  0  0  0
   -4.1630   20.1890  -32.8570 C   0  0  0  0  0  0  0  0  0  0  0  0
   -5.0200   19.1210  -33.1590 C   0  0  0  0  0  0  0  0  0  0  0  0
   -4.5983   18.1508  -33.4604 H   0  0  0  0  0  0  0  0  0  0  0  0
   -6.4020   19.2800  -33.0800 C   0  0  0  0  0  0  0  0  0  0  0  0
   -7.0601   18.4325  -33.3224 H   0  0  0  0  0  0  0  0  0  0  0  0
   -6.9670   20.5080  -32.6950 C   0  0  0  0  0  0  0  0  0  0  0  0
   -8.4760   20.6110  -32.6640 C   0  0  0  0  0  0  0  0  0  0  0  0
   -8.8365   20.9150  -33.6578 H   0  0  0  0  0  0  0  0  0  0  0  0
   -8.7614   21.3559  -31.9066 H   0  0  0  0  0  0  0  0  0  0  0  0
   -9.1070   19.2720  -32.2920 C   0  0  0  0  0  0  0  0  0  0  0  0
   -9.1508   19.1790  -31.1968 H   0  0  0  0  0  0  0  0  0  0  0  0
  -10.1249   19.2189  -32.7055 H   0  0  0  0  0  0  0  0  0  0  0  0
   -8.5000   18.4531  -32.7055 H   0  0  0  0  0  0  0  0  0  0  0  0
   -6.1100   21.6000  -32.4000 C   0  0  0  0  0  0  0  0  0  0  0  0
   -6.7310   23.1830  -31.9000 S   0  0  0  0  0  0  0  0  0  0  0  0
   -7.5670   23.0280  -30.6610 O   0  0  0  0  0  0  0  0  0  0  0  0
   -7.5810   23.7730  -32.9910 O   0  0  0  0  0  0  0  0  0  0  0  0
   -5.3900   24.2400  -31.5910 N   0  0  0  0  0  0  0  0  0  0  0  0
   -4.6090   24.1460  -30.5590 C   0  0  0  0  0  0  0  0  0  0  0  0
   -3.5750   24.9940  -30.3630 N   0  0  0  0  0  0  0  0  0  0  0  0
   -2.8990   24.7020  -29.2200 C   0  0  0  0  0  0  0  0  0  0  0  0
   -2.0234   25.2773  -28.8848 H   0  0  0  0  0  0  0  0  0  0  0  0
   -3.4010   23.6210  -28.5100 C   0  0  0  0  0  0  0  0  0  0  0  0
   -2.9000   23.1420  -27.3460 F   0  0  0  0  0  0  0  0  0  0  0  0
   -4.7320   22.9970  -29.3250 S   0  0  0  0  0  0  0  0  0  0  0  0
   -4.7180   21.4210  -32.4790 C   0  0  0  0  0  0  0  0  0  0  0  0
   -4.0513   22.2626  -32.2400 H   0  0  0  0  0  0  0  0  0  0  0  0
  1  2  1  0
  2  3  2  0
  3  4  1  0
  4  5  1  0
  4  6  2  0
  6  7  1  0
  7  8  1  0
  7  9  1  0
  9 10  2  0
 10 11  1  0
 10 12  1  0
 12 13  1  0
 12 14  2  0
 14 15  1  0
 14 16  1  0
 16 17  1  0
 16 18  2  0
 18 19  1  0
  6 20  1  0
 20 21  1  0
 20 22  2  0
 22 23  1  0
 23 24  2  0
 24 25  1  0
 24 26  1  0
 26 27  1  0
 26 28  2  0
 28 29  1  0
 29 30  1  0
 29 31  1  0
 29 32  1  0
 32 33  1  0
 32 34  1  0
 32 35  1  0
 28 36  1  0
 36 37  1  0
 37 38  2  0
 37 39  2  0
 37 40  1  0
 40 41  2  0
 41 42  1  0
 42 43  1  0
 43 44  1  0
 43 45  2  0
 45 46  1  0
 45 47  1  0
 36 48  2  0
 48 49  1  0
 22  2  1  0
 48 23  1  0
 18  9  1  0
 47 41  1  0
M  CHG  1  42  -1
M  END
>  <UniqueID>  (39) 
38

>  <SMILES>  (39) 
CCc1ccc(-c2cncc(Nc3ccccc3Cl)c2)cc1S(=O)(=O)/N=c1/[n-]cc(F)s1

>  <Energy>  (39) 
101.47846828098473

>  <Genealogy>  (39) 
CCc1ccc(-c2cncc(Nc3ccccc3Cl)c2)cc1S(=O)(=O)N=c1[n-]cc(F)s1 (protonated)
CCc1ccc(-c2cncc(Nc3ccccc3Cl)c2)cc1S(=O)(=O)/N=c1/[n-]cc(F)s1 (cis-trans isomerization)
CCc1ccc(-c2cncc(Nc3ccccc3Cl)c2)cc1S(=O)(=O)/N=c1/[n-]cc(F)s1 (3D coordinates assigned)
CCc1ccc(-c2cncc(Nc3ccccc3Cl)c2)cc1S(=O)(=O)/N=c1/[n-]cc(F)s1 (optimized conformer: 101.47846828098473 kcal/mol)

>  <smiles>  (39) 
CCc1ccc(-c2cncc(Nc3ccccc3Cl)c2)cc1S(=O)(=O)N=c1[nH]cc(F)s1

>  <score_type>  (39) 
oracle

>  <origin>  (39) 
adgpu

>  <m_score__min__energy>  (39) 
-11.94

>  <m_primary>  (39) 
energy

$$$$
39:0
     RDKit          3D

 40 42  0  0  0  0  0  0  0  0999 V2000
   -6.0110   25.2840  -29.9850 C   0  0  0  0  0  0  0  0  0  0  0  0
   -4.6830   24.8090  -30.4690 C   0  0  0  0  0  0  0  0  0  0  0  0
   -4.6210   24.0710  -31.4900 O   0  0  0  0  0  0  0  0  0  0  0  0
   -3.4910   25.2860  -29.8330 N   0  0  0  0  0  0  0  0  0  0  0  0
   -2.4000   24.4850  -29.3520 C   0  0  0  0  0  0  0  0  0  0  0  0
   -1.5340   24.9360  -28.3400 C   0  0  0  0  0  0  0  0  0  0  0  0
   -0.4610   24.1420  -27.9300 C   0  0  0  0  0  0  0  0  0  0  0  0
   -0.2400   22.8970  -28.5230 C   0  0  0  0  0  0  0  0  0  0  0  0
   -1.0950   22.4330  -29.5330 C   0  0  0  0  0  0  0  0  0  0  0  0
   -0.8310   21.1650  -30.1530 N   0  0  0  0  0  0  0  0  0  0  0  0
   -1.1030   20.8930  -31.5340 C   0  0  0  0  0  0  0  0  0  0  0  0
   -2.2300   20.9460  -32.3410 C   0  0  0  0  0  0  0  0  0  0  0  0
   -3.6200   21.2380  -32.1670 N   0  0  0  0  0  0  0  0  0  0  0  0
   -4.6680   20.5100  -32.8300 C   0  0  0  0  0  0  0  0  0  0  0  0
   -4.3770   19.6500  -33.7050 O   0  0  0  0  0  0  0  0  0  0  0  0
   -6.0970   20.7570  -32.5160 C   0  0  0  0  0  0  0  0  0  0  0  0
   -6.5560   22.0300  -32.1260 C   0  0  0  0  0  0  0  0  0  0  0  0
   -7.9090   22.2370  -31.8390 C   0  0  0  0  0  0  0  0  0  0  0  0
   -8.8180   21.1820  -31.9420 C   0  0  0  0  0  0  0  0  0  0  0  0
   -8.3780   19.9180  -32.3390 C   0  0  0  0  0  0  0  0  0  0  0  0
   -7.0260   19.7050  -32.6280 C   0  0  0  0  0  0  0  0  0  0  0  0
   -1.4550   20.6210  -33.4380 C   0  0  0  0  0  0  0  0  0  0  0  0
   -1.6780   20.4560  -34.6650 O   0  0  0  0  0  0  0  0  0  0  0  0
   -0.3360   20.5520  -32.6350 C   0  0  0  0  0  0  0  0  0  0  0  0
    0.8820   20.3090  -32.8350 O   0  0  0  0  0  0  0  0  0  0  0  0
   -2.1590   23.2470  -29.9610 C   0  0  0  0  0  0  0  0  0  0  0  0
   -6.0206   25.2874  -28.8850 H   0  0  0  0  0  0  0  0  0  0  0  0
   -6.1936   26.3032  -30.3565 H   0  0  0  0  0  0  0  0  0  0  0  0
   -6.7985   24.6118  -30.3565 H   0  0  0  0  0  0  0  0  0  0  0  0
   -1.7022   25.9164  -27.8704 H   0  0  0  0  0  0  0  0  0  0  0  0
    0.2128   24.4985  -27.1369 H   0  0  0  0  0  0  0  0  0  0  0  0
    0.6084   22.2777  -28.1964 H   0  0  0  0  0  0  0  0  0  0  0  0
   -0.5450   20.3630  -29.5490 H   0  0  0  0  0  0  0  0  0  0  0  0
   -3.8540   22.0390  -31.5410 H   0  0  0  0  0  0  0  0  0  0  0  0
   -5.8461   22.8665  -32.0466 H   0  0  0  0  0  0  0  0  0  0  0  0
   -8.2581   23.2337  -31.5313 H   0  0  0  0  0  0  0  0  0  0  0  0
   -9.8806   21.3469  -31.7104 H   0  0  0  0  0  0  0  0  0  0  0  0
   -9.0953   19.0885  -32.4247 H   0  0  0  0  0  0  0  0  0  0  0  0
   -6.6861   18.7081  -32.9452 H   0  0  0  0  0  0  0  0  0  0  0  0
   -2.8081   22.9081  -30.7819 H   0  0  0  0  0  0  0  0  0  0  0  0
  1  2  1  0
  2  3  2  0
  2  4  1  0
  4  5  1  0
  5  6  2  0
  6  7  1  0
  7  8  2  0
  8  9  1  0
  9 10  1  0
 10 11  1  0
 11 12  2  0
 12 13  1  0
 13 14  1  0
 14 15  2  0
 14 16  1  0
 16 17  2  0
 17 18  1  0
 18 19  2  0
 19 20  1  0
 20 21  2  0
 12 22  1  0
 22 23  2  0
 22 24  1  0
 24 25  2  0
  9 26  2  0
 26  5  1  0
 24 11  1  0
 21 16  1  0
  1 27  1  0
  1 28  1  0
  1 29  1  0
  6 30  1  0
  7 31  1  0
  8 32  1  0
 10 33  1  0
 13 34  1  0
 17 35  1  0
 18 36  1  0
 19 37  1  0
 20 38  1  0
 21 39  1  0
 26 40  1  0
M  CHG  1   4  -1
M  END
>  <UniqueID>  (40) 
39

>  <SMILES>  (40) 
CC(=O)[N-]c1cccc(Nc2c(NC(=O)c3ccccc3)c(=O)c2=O)c1

>  <Energy>  (40) 
42.37735194831299

>  <Genealogy>  (40) 
CC(=O)[N-]c1cccc(Nc2c(NC(=O)c3ccccc3)c(=O)c2=O)c1 (protonated)
CC(=O)[N-]c1cccc(Nc2c(NC(=O)c3ccccc3)c(=O)c2=O)c1 (3D coordinates assigned)
CC(=O)[N-]c1cccc(Nc2c(NC(=O)c3ccccc3)c(=O)c2=O)c1 (optimized conformer: 42.37735194831299 kcal/mol)

>  <smiles>  (40) 
CC(=O)Nc1cccc(Nc2c(NC(=O)c3ccccc3)c(=O)c2=O)c1

>  <score_type>  (40) 
oracle

>  <origin>  (40) 
adgpu

>  <m_score__min__energy>  (40) 
-10.449999999999999

>  <m_primary>  (40) 
energy

$$$$
40:0
     RDKit          3D

 54 57  0  0  0  0  0  0  0  0999 V2000
   -4.9480   22.9940  -28.3210 C   0  0  0  0  0  0  0  0  0  0  0  0
   -5.8610   23.1560  -29.4510 N   0  0  0  0  0  0  0  0  0  0  0  0
   -6.8760   22.3210  -29.7510 C   0  0  0  0  0  0  0  0  0  0  0  0
   -7.5090   22.7620  -30.8920 C   0  0  0  0  0  0  0  0  0  0  0  0
   -8.8900   22.0090  -31.6700 S   0  0  0  0  0  0  0  0  0  0  0  0
   -9.7730   21.3860  -30.6240 O   0  0  0  0  0  0  0  0  0  0  0  0
   -9.6590   23.0710  -32.4050 O   0  0  0  0  0  0  0  0  0  0  0  0
   -8.3370   20.7880  -32.7980 N   0  0  0  0  0  0  0  0  0  0  0  0
   -6.9280   20.4600  -32.5520 C   0  0  0  0  0  0  0  0  0  0  0  0
   -6.8740   19.2440  -31.6380 C   0  0  0  0  0  0  0  0  0  0  0  0
   -8.2750   18.6640  -31.6450 C   0  0  0  0  0  0  0  0  0  0  0  0
   -9.0730   19.5350  -32.6010 C   0  0  0  0  0  0  0  0  0  0  0  0
   -6.8670   23.9090  -31.3090 C   0  0  0  0  0  0  0  0  0  0  0  0
   -5.8480   24.1270  -30.3990 C   0  0  0  0  0  0  0  0  0  0  0  0
   -4.8850   25.2450  -30.4810 C   0  0  0  0  0  0  0  0  0  0  0  0
   -5.2890   26.4390  -30.4480 O   0  0  0  0  0  0  0  0  0  0  0  0
   -3.4900   24.9590  -30.6510 N   0  0  0  0  0  0  0  0  0  0  0  0
   -2.7590   23.8720  -30.0630 C   0  0  0  0  0  0  0  0  0  0  0  0
   -2.8820   22.5990  -30.6330 C   0  0  0  0  0  0  0  0  0  0  0  0
   -2.2110   21.5070  -30.0800 C   0  0  0  0  0  0  0  0  0  0  0  0
   -1.4210   21.6680  -28.9350 C   0  0  0  0  0  0  0  0  0  0  0  0
   -0.7460   20.5280  -28.3860 N   0  0  0  0  0  0  0  0  0  0  0  0
   -1.2800   19.8490  -27.2040 C   0  0  0  0  0  0  0  0  0  0  0  0
   -0.9230   18.3610  -27.2680 C   0  0  0  0  0  0  0  0  0  0  0  0
    0.4660   18.1870  -27.4840 O   0  0  0  0  0  0  0  0  0  0  0  0
    0.8200   18.6870  -28.7610 C   0  0  0  0  0  0  0  0  0  0  0  0
    0.6090   20.2030  -28.8300 C   0  0  0  0  0  0  0  0  0  0  0  0
   -1.3050   22.9400  -28.3450 C   0  0  0  0  0  0  0  0  0  0  0  0
   -0.3080   23.1990  -26.9220 Cl  0  0  0  0  0  0  0  0  0  0  0  0
   -1.9810   24.0330  -28.9020 C   0  0  0  0  0  0  0  0  0  0  0  0
   -5.5084   23.0934  -27.3797 H   0  0  0  0  0  0  0  0  0  0  0  0
   -4.4812   21.9990  -28.3665 H   0  0  0  0  0  0  0  0  0  0  0  0
   -4.1674   23.7677  -28.3665 H   0  0  0  0  0  0  0  0  0  0  0  0
   -7.1551   21.4268  -29.1744 H   0  0  0  0  0  0  0  0  0  0  0  0
   -6.4272   20.2321  -33.5045 H   0  0  0  0  0  0  0  0  0  0  0  0
   -6.4168   21.3122  -32.0803 H   0  0  0  0  0  0  0  0  0  0  0  0
   -6.1520   18.5078  -32.0211 H   0  0  0  0  0  0  0  0  0  0  0  0
   -6.5509   19.5136  -30.6217 H   0  0  0  0  0  0  0  0  0  0  0  0
   -8.2576   17.6224  -31.9981 H   0  0  0  0  0  0  0  0  0  0  0  0
   -8.7168   18.6547  -30.6376 H   0  0  0  0  0  0  0  0  0  0  0  0
   -9.1933   19.0179  -33.5644 H   0  0  0  0  0  0  0  0  0  0  0  0
  -10.0710   19.7404  -32.1866 H   0  0  0  0  0  0  0  0  0  0  0  0
   -7.1146   24.5249  -32.1861 H   0  0  0  0  0  0  0  0  0  0  0  0
   -3.5123   22.4584  -31.5235 H   0  0  0  0  0  0  0  0  0  0  0  0
   -2.3033   20.5149  -30.5460 H   0  0  0  0  0  0  0  0  0  0  0  0
   -0.8432   20.2926  -26.2972 H   0  0  0  0  0  0  0  0  0  0  0  0
   -2.3737   19.9638  -27.1768 H   0  0  0  0  0  0  0  0  0  0  0  0
   -1.2034   17.8815  -26.3186 H   0  0  0  0  0  0  0  0  0  0  0  0
   -1.4706   17.9021  -28.1044 H   0  0  0  0  0  0  0  0  0  0  0  0
    1.8788   18.4611  -28.9558 H   0  0  0  0  0  0  0  0  0  0  0  0
    0.1806   18.2075  -29.5168 H   0  0  0  0  0  0  0  0  0  0  0  0
    1.3387   20.7047  -28.1775 H   0  0  0  0  0  0  0  0  0  0  0  0
    0.7470   20.5453  -29.8662 H   0  0  0  0  0  0  0  0  0  0  0  0
   -1.9031   25.0230  -28.4289 H   0  0  0  0  0  0  0  0  0  0  0  0
  1  2  1  0
  2  3  1  0
  3  4  2  0
  4  5  1  0
  5  6  2  0
  5  7  2  0
  5  8  1  0
  8  9  1  0
  9 10  1  0
 10 11  1  0
 11 12  1  0
  4 13  1  0
 13 14  2  0
 14 15  1  0
 15 16  2  0
 15 17  1  0
 17 18  1  0
 18 19  2  0
 19 20  1  0
 20 21  2  0
 21 22  1  0
 22 23  1  0
 23 24  1  0
 24 25  1  0
 25 26  1  0
 26 27  1  0
 21 28  1  0
 28 29  1  0
 28 30  2  0
 14  2  1  0
 30 18  1  0
 12  8  1  0
 27 22  1  0
  1 31  1  0
  1 32  1  0
  1 33  1  0
  3 34  1  0
  9 35  1  0
  9 36  1  0
 10 37  1  0
 10 38  1  0
 11 39  1  0
 11 40  1  0
 12 41  1  0
 12 42  1  0
 13 43  1  0
 19 44  1  0
 20 45  1  0
 23 46  1  0
 23 47  1  0
 24 48  1  0
 24 49  1  0
 26 50  1  0
 26 51  1  0
 27 52  1  0
 27 53  1  0
 30 54  1  0
M  CHG  1  17  -1
M  END
>  <UniqueID>  (41) 
40

>  <SMILES>  (41) 
Cn1cc(S(=O)(=O)N2CCCC2)cc1C(=O)[N-]c1ccc(N2CCOCC2)c(Cl)c1

>  <Energy>  (41) 
93.68785818828205

>  <Genealogy>  (41) 
Cn1cc(S(=O)(=O)N2CCCC2)cc1C(=O)[N-]c1ccc(N2CCOCC2)c(Cl)c1 (protonated)
Cn1cc(S(=O)(=O)N2CCCC2)cc1C(=O)[N-]c1ccc(N2CCOCC2)c(Cl)c1 (3D coordinates assigned)
Cn1cc(S(=O)(=O)N2CCCC2)cc1C(=O)[N-]c1ccc(N2CCOCC2)c(Cl)c1 (nonaromatic ring conformer: 93.68785818828205 kcal/mol)

>  <smiles>  (41) 
Cn1cc(S(=O)(=O)N2CCCC2)cc1C(=O)Nc1ccc(N2CCOCC2)c(Cl)c1

>  <score_type>  (41) 
oracle

>  <origin>  (41) 
adgpu

>  <m_score__min__energy>  (41) 
-10.630000000000001

>  <m_primary>  (41) 
energy

$$$$
41:0
     RDKit          3D

 63 66  0  0  0  0  0  0  0  0999 V2000
   -9.1440   20.1660  -32.0690 C   0  0  0  0  0  0  0  0  0  0  0  0
   -8.1330   21.1950  -31.6340 C   0  0  0  0  0  0  0  0  0  0  0  0
   -8.4130   22.0120  -30.5260 C   0  0  0  0  0  0  0  0  0  0  0  0
   -7.5130   23.0040  -30.1300 C   0  0  0  0  0  0  0  0  0  0  0  0
   -6.3190   23.1940  -30.8320 C   0  0  0  0  0  0  0  0  0  0  0  0
   -5.2350   24.5060  -30.3780 S   0  0  0  0  0  0  0  0  0  0  0  0
   -5.2800   24.7330  -28.8940 O   0  0  0  0  0  0  0  0  0  0  0  0
   -5.6990   25.7640  -31.0600 O   0  0  0  0  0  0  0  0  0  0  0  0
   -3.5940   24.1880  -30.8490 N   0  0  0  0  0  0  0  0  0  0  0  0
   -2.7660   23.1810  -30.2520 C   0  0  0  0  0  0  0  0  0  0  0  0
   -2.6560   23.1300  -28.8610 C   0  0  0  0  0  0  0  0  0  0  0  0
   -1.8800   22.1440  -28.2490 C   0  0  0  0  0  0  0  0  0  0  0  0
   -1.1680   21.2080  -29.0260 C   0  0  0  0  0  0  0  0  0  0  0  0
   -0.4030   20.1890  -28.4240 C   0  0  0  0  0  0  0  0  0  0  0  0
   -0.3590   20.0970  -27.1630 O   0  0  0  0  0  0  0  0  0  0  0  0
    0.2830   19.2900  -29.1980 N   0  0  0  0  0  0  0  0  0  0  0  0
    1.0610   18.2180  -28.5620 C   0  0  0  0  0  0  0  0  0  0  0  0
    0.2400   19.3640  -30.5610 C   0  0  0  0  0  0  0  0  0  0  0  0
   -0.4640   20.3840  -31.2140 C   0  0  0  0  0  0  0  0  0  0  0  0
   -0.3530   20.4860  -32.6890 C   0  0  0  0  0  0  0  0  0  0  0  0
    0.1240   21.5330  -33.2020 O   0  0  0  0  0  0  0  0  0  0  0  0
   -0.7680   19.4180  -33.5500 N   0  0  0  0  0  0  0  0  0  0  0  0
   -2.0920   18.8640  -33.5810 C   0  0  0  0  0  0  0  0  0  0  0  0
   -3.0680   19.2660  -32.6600 C   0  0  0  0  0  0  0  0  0  0  0  0
   -4.3540   18.7220  -32.7130 C   0  0  0  0  0  0  0  0  0  0  0  0
   -4.6900   17.7560  -33.6810 C   0  0  0  0  0  0  0  0  0  0  0  0
   -6.1020   17.1790  -33.6770 C   0  0  0  0  0  0  0  0  0  0  0  0
   -6.1710   15.6670  -33.9540 C   0  0  0  0  0  0  0  0  0  0  0  0
   -6.8210   17.5130  -32.3600 C   0  0  0  0  0  0  0  0  0  0  0  0
   -3.6980   17.3540  -34.6010 C   0  0  0  0  0  0  0  0  0  0  0  0
   -2.4210   17.9240  -34.5620 C   0  0  0  0  0  0  0  0  0  0  0  0
   -1.2190   21.2940  -30.4390 C   0  0  0  0  0  0  0  0  0  0  0  0
   -2.0410   22.2750  -31.0340 C   0  0  0  0  0  0  0  0  0  0  0  0
   -6.0190   22.3700  -31.9240 C   0  0  0  0  0  0  0  0  0  0  0  0
   -6.9170   21.3740  -32.3400 C   0  0  0  0  0  0  0  0  0  0  0  0
   -6.5680   20.5110  -33.5220 C   0  0  0  0  0  0  0  0  0  0  0  0
   -9.5999   19.7020  -31.1819 H   0  0  0  0  0  0  0  0  0  0  0  0
   -9.9258   20.6518  -32.6713 H   0  0  0  0  0  0  0  0  0  0  0  0
   -8.6444   19.3929  -32.6713 H   0  0  0  0  0  0  0  0  0  0  0  0
   -9.3488   21.8693  -29.9657 H   0  0  0  0  0  0  0  0  0  0  0  0
   -7.7447   23.6386  -29.2619 H   0  0  0  0  0  0  0  0  0  0  0  0
   -3.1841   23.8714  -28.2435 H   0  0  0  0  0  0  0  0  0  0  0  0
   -1.8237   22.0972  -27.1514 H   0  0  0  0  0  0  0  0  0  0  0  0
    0.9915   18.3138  -27.4684 H   0  0  0  0  0  0  0  0  0  0  0  0
    0.6601   17.2413  -28.8707 H   0  0  0  0  0  0  0  0  0  0  0  0
    2.1139   18.2964  -28.8707 H   0  0  0  0  0  0  0  0  0  0  0  0
    0.7691   18.6070  -31.1585 H   0  0  0  0  0  0  0  0  0  0  0  0
   -2.8209   20.0133  -31.8916 H   0  0  0  0  0  0  0  0  0  0  0  0
   -5.1136   19.0526  -31.9893 H   0  0  0  0  0  0  0  0  0  0  0  0
   -6.6182   17.6627  -34.5193 H   0  0  0  0  0  0  0  0  0  0  0  0
   -6.1960   15.1202  -32.9999 H   0  0  0  0  0  0  0  0  0  0  0  0
   -7.0804   15.4409  -34.5301 H   0  0  0  0  0  0  0  0  0  0  0  0
   -5.2860   15.3590  -34.5301 H   0  0  0  0  0  0  0  0  0  0  0  0
   -6.1867   17.2183  -31.5110 H   0  0  0  0  0  0  0  0  0  0  0  0
   -7.0170   18.5944  -32.3133 H   0  0  0  0  0  0  0  0  0  0  0  0
   -7.7738   16.9653  -32.3133 H   0  0  0  0  0  0  0  0  0  0  0  0
   -3.9307   16.5869  -35.3542 H   0  0  0  0  0  0  0  0  0  0  0  0
   -1.6695   17.6300  -35.3095 H   0  0  0  0  0  0  0  0  0  0  0  0
   -2.1129   22.3282  -32.1304 H   0  0  0  0  0  0  0  0  0  0  0  0
   -5.0690   22.5046  -32.4619 H   0  0  0  0  0  0  0  0  0  0  0  0
   -6.1775   19.5454  -33.1684 H   0  0  0  0  0  0  0  0  0  0  0  0
   -7.4683   20.3416  -34.1309 H   0  0  0  0  0  0  0  0  0  0  0  0
   -5.8030   21.0151  -34.1309 H   0  0  0  0  0  0  0  0  0  0  0  0
  1  2  1  0
  2  3  2  0
  3  4  1  0
  4  5  2  0
  5  6  1  0
  6  7  2  0
  6  8  2  0
  6  9  1  0
  9 10  1  0
 10 11  2  0
 11 12  1  0
 12 13  2  0
 13 14  1  0
 14 15  2  0
 14 16  1  0
 16 17  1  0
 16 18  1  0
 18 19  2  0
 19 20  1  0
 20 21  2  0
 20 22  1  0
 22 23  1  0
 23 24  2  0
 24 25  1  0
 25 26  2  0
 26 27  1  0
 27 28  1  0
 27 29  1  0
 26 30  1  0
 30 31  2  0
 19 32  1  0
 32 33  2  0
  5 34  1  0
 34 35  2  0
 35 36  1  0
 35  2  1  0
 33 10  1  0
 32 13  1  0
 31 23  1  0
  1 37  1  0
  1 38  1  0
  1 39  1  0
  3 40  1  0
  4 41  1  0
 11 42  1  0
 12 43  1  0
 17 44  1  0
 17 45  1  0
 17 46  1  0
 18 47  1  0
 24 48  1  0
 25 49  1  0
 27 50  1  0
 28 51  1  0
 28 52  1  0
 28 53  1  0
 29 54  1  0
 29 55  1  0
 29 56  1  0
 30 57  1  0
 31 58  1  0
 33 59  1  0
 34 60  1  0
 36 61  1  0
 36 62  1  0
 36 63  1  0
M  CHG  2   9  -1  22  -1
M  END
>  <UniqueID>  (42) 
41

>  <SMILES>  (42) 
Cc1ccc(S(=O)(=O)[N-]c2ccc3c(=O)n(C)cc(C(=O)[N-]c4ccc(C(C)C)cc4)c3c2)cc1C

>  <Energy>  (42) 
86.89873447146684

>  <Genealogy>  (42) 
Cc1ccc(S(=O)(=O)[N-]c2ccc3c(=O)n(C)cc(C(=O)[N-]c4ccc(C(C)C)cc4)c3c2)cc1C (protonated)
Cc1ccc(S(=O)(=O)[N-]c2ccc3c(=O)n(C)cc(C(=O)[N-]c4ccc(C(C)C)cc4)c3c2)cc1C (3D coordinates assigned)
Cc1ccc(S(=O)(=O)[N-]c2ccc3c(=O)n(C)cc(C(=O)[N-]c4ccc(C(C)C)cc4)c3c2)cc1C (optimized conformer: 86.89873447146684 kcal/mol)

>  <smiles>  (42) 
Cc1ccc(S(=O)(=O)Nc2ccc3c(=O)n(C)cc(C(=O)Nc4ccc(C(C)C)cc4)c3c2)cc1C

>  <score_type>  (42) 
oracle

>  <origin>  (42) 
adgpu

>  <m_score__min__energy>  (42) 
-12.710000000000001

>  <m_primary>  (42) 
energy

$$$$
42:0
     RDKit          3D

 50 52  0  0  0  0  0  0  0  0999 V2000
   -1.4460   25.2540  -28.0040 C   0  0  0  0  0  0  0  0  0  0  0  0
   -1.8620   24.8510  -29.3410 N   0  0  0  0  0  0  0  0  0  0  0  0
   -2.3330   23.5410  -29.6760 C   0  0  0  0  0  0  0  0  0  0  0  0
   -1.6070   22.5470  -29.4140 O   0  0  0  0  0  0  0  0  0  0  0  0
   -3.6590   23.3230  -30.2820 C   0  0  0  0  0  0  0  0  0  0  0  0
   -4.1860   22.0250  -30.3410 C   0  0  0  0  0  0  0  0  0  0  0  0
   -5.4470   21.8010  -30.8990 C   0  0  0  0  0  0  0  0  0  0  0  0
   -6.1840   22.8700  -31.4370 C   0  0  0  0  0  0  0  0  0  0  0  0
   -7.4750   22.6720  -32.0290 N   0  0  0  0  0  0  0  0  0  0  0  0
   -8.4850   21.7640  -31.5680 C   0  0  0  0  0  0  0  0  0  0  0  0
   -9.5830   22.2260  -31.1620 O   0  0  0  0  0  0  0  0  0  0  0  0
   -8.2830   20.3440  -31.5570 N   0  0  0  0  0  0  0  0  0  0  0  0
   -7.2410   19.6420  -32.2470 C   0  0  0  0  0  0  0  0  0  0  0  0
   -6.5750   18.6010  -31.5900 C   0  0  0  0  0  0  0  0  0  0  0  0
   -5.5240   17.9270  -32.2210 C   0  0  0  0  0  0  0  0  0  0  0  0
   -5.1390   18.2810  -33.5200 C   0  0  0  0  0  0  0  0  0  0  0  0
   -3.7840   17.4570  -34.2850 S   0  0  0  0  0  0  0  0  0  0  0  0
   -4.0480   17.2910  -35.7560 O   0  0  0  0  0  0  0  0  0  0  0  0
   -3.6290   16.1010  -33.6550 O   0  0  0  0  0  0  0  0  0  0  0  0
   -2.3290   18.3930  -34.0500 N   0  0  0  0  0  0  0  0  0  0  0  0
   -1.5960   17.8990  -32.8730 C   0  0  0  0  0  0  0  0  0  0  0  0
   -0.2090   18.5640  -32.7860 C   0  0  0  0  0  0  0  0  0  0  0  0
   -0.1580   19.9150  -33.5200 C   0  0  0  0  0  0  0  0  0  0  0  0
   -1.4850   20.6650  -33.3810 C   0  0  0  0  0  0  0  0  0  0  0  0
   -2.6750   19.8220  -33.8940 C   0  0  0  0  0  0  0  0  0  0  0  0
   -5.8330   19.2930  -34.1970 C   0  0  0  0  0  0  0  0  0  0  0  0
   -6.8840   19.9650  -33.5680 C   0  0  0  0  0  0  0  0  0  0  0  0
   -5.6580   24.1650  -31.3760 C   0  0  0  0  0  0  0  0  0  0  0  0
   -4.3940   24.3940  -30.8200 C   0  0  0  0  0  0  0  0  0  0  0  0
   -3.8710   25.6820  -30.8250 O   0  0  0  0  0  0  0  0  0  0  0  0
   -2.0248   24.6933  -27.2553 H   0  0  0  0  0  0  0  0  0  0  0  0
   -0.3746   25.0414  -27.8737 H   0  0  0  0  0  0  0  0  0  0  0  0
   -1.6245   26.3316  -27.8737 H   0  0  0  0  0  0  0  0  0  0  0  0
   -3.6039   21.1793  -29.9461 H   0  0  0  0  0  0  0  0  0  0  0  0
   -5.8649   20.7836  -30.9174 H   0  0  0  0  0  0  0  0  0  0  0  0
   -6.8792   18.3116  -30.5733 H   0  0  0  0  0  0  0  0  0  0  0  0
   -4.9983   17.1164  -31.6951 H   0  0  0  0  0  0  0  0  0  0  0  0
   -2.1687   18.1350  -31.9640 H   0  0  0  0  0  0  0  0  0  0  0  0
   -1.4648   16.8108  -32.9652 H   0  0  0  0  0  0  0  0  0  0  0  0
    0.0380   18.7282  -31.7267 H   0  0  0  0  0  0  0  0  0  0  0  0
    0.5153   17.8924  -33.2700 H   0  0  0  0  0  0  0  0  0  0  0  0
    0.6482   20.5277  -33.0903 H   0  0  0  0  0  0  0  0  0  0  0  0
    0.0282   19.7270  -34.5877 H   0  0  0  0  0  0  0  0  0  0  0  0
   -1.6493   20.9051  -32.3202 H   0  0  0  0  0  0  0  0  0  0  0  0
   -1.4265   21.5805  -33.9880 H   0  0  0  0  0  0  0  0  0  0  0  0
   -3.5041   19.9082  -33.1763 H   0  0  0  0  0  0  0  0  0  0  0  0
   -2.9568   20.2084  -34.8846 H   0  0  0  0  0  0  0  0  0  0  0  0
   -5.5495   19.5588  -35.2261 H   0  0  0  0  0  0  0  0  0  0  0  0
   -7.4341   20.7496  -34.1082 H   0  0  0  0  0  0  0  0  0  0  0  0
   -6.2426   25.0102  -31.7682 H   0  0  0  0  0  0  0  0  0  0  0  0
  1  2  1  0
  2  3  1  0
  3  4  2  0
  3  5  1  0
  5  6  2  0
  6  7  1  0
  7  8  2  0
  8  9  1  0
  9 10  1  0
 10 11  2  0
 10 12  1  0
 12 13  1  0
 13 14  2  0
 14 15  1  0
 15 16  2  0
 16 17  1  0
 17 18  2  0
 17 19  2  0
 17 20  1  0
 20 21  1  0
 21 22  1  0
 22 23  1  0
 23 24  1  0
 24 25  1  0
 16 26  1  0
 26 27  2  0
  8 28  1  0
 28 29  2  0
 29 30  1  0
 29  5  1  0
 27 13  1  0
 25 20  1  0
  1 31  1  0
  1 32  1  0
  1 33  1  0
  6 34  1  0
  7 35  1  0
 14 36  1  0
 15 37  1  0
 21 38  1  0
 21 39  1  0
 22 40  1  0
 22 41  1  0
 23 42  1  0
 23 43  1  0
 24 44  1  0
 24 45  1  0
 25 46  1  0
 25 47  1  0
 26 48  1  0
 27 49  1  0
 28 50  1  0
M  CHG  4   2  -1   9  -1  12  -1  30  -1
M  END
>  <UniqueID>  (43) 
42

>  <SMILES>  (43) 
C[N-]C(=O)c1ccc([N-]C(=O)[N-]c2ccc(S(=O)(=O)N3CCCCC3)cc2)cc1[O-]

>  <Energy>  (43) 
63.93664315916226

>  <Genealogy>  (43) 
C[N-]C(=O)c1ccc([N-]C(=O)[N-]c2ccc(S(=O)(=O)N3CCCCC3)cc2)cc1[O-] (protonated)
C[N-]C(=O)c1ccc([N-]C(=O)[N-]c2ccc(S(=O)(=O)N3CCCCC3)cc2)cc1[O-] (3D coordinates assigned)
C[N-]C(=O)c1ccc([N-]C(=O)[N-]c2ccc(S(=O)(=O)N3CCCCC3)cc2)cc1[O-] (nonaromatic ring conformer: 63.93664315916226 kcal/mol)

>  <smiles>  (43) 
CNC(=O)c1ccc(NC(=O)Nc2ccc(S(=O)(=O)N3CCCCC3)cc2)cc1O

>  <score_type>  (43) 
oracle

>  <origin>  (43) 
adgpu

>  <m_score__min__energy>  (43) 
-13.029999999999999

>  <m_primary>  (43) 
energy

$$$$
43:0
     RDKit          3D

 40 43  0  0  0  0  0  0  0  0999 V2000
   -0.5320   20.1490  -31.2110 C   0  0  0  0  0  0  0  0  0  0  0  0
   -1.3330   21.0490  -30.3950 N   0  0  0  0  0  0  0  0  0  0  0  0
   -1.4090   22.3850  -30.5410 C   0  0  0  0  0  0  0  0  0  0  0  0
   -2.2050   22.8690  -29.5300 C   0  0  0  0  0  0  0  0  0  0  0  0
   -2.5700   24.5510  -29.2080 S   0  0  0  0  0  0  0  0  0  0  0  0
   -1.3120   25.3720  -29.2430 O   0  0  0  0  0  0  0  0  0  0  0  0
   -3.1860   24.6620  -27.8410 O   0  0  0  0  0  0  0  0  0  0  0  0
   -3.6620   25.1190  -30.4270 N   0  0  0  0  0  0  0  0  0  0  0  0
   -4.8130   24.3820  -30.8440 C   0  0  0  0  0  0  0  0  0  0  0  0
   -4.6320   23.1980  -31.5670 C   0  0  0  0  0  0  0  0  0  0  0  0
   -5.7390   22.4310  -31.9750 C   0  0  0  0  0  0  0  0  0  0  0  0
   -5.5500   21.1600  -32.7130 C   0  0  0  0  0  0  0  0  0  0  0  0
   -4.5490   21.0310  -33.4680 O   0  0  0  0  0  0  0  0  0  0  0  0
   -6.4750   20.0170  -32.5670 C   0  0  0  0  0  0  0  0  0  0  0  0
   -7.5260   20.1070  -31.6990 N   0  0  0  0  0  0  0  0  0  0  0  0
   -8.4070   19.0720  -31.5240 C   0  0  0  0  0  0  0  0  0  0  0  0
   -8.2490   17.9030  -32.2110 N   0  0  0  0  0  0  0  0  0  0  0  0
   -7.2030   17.7950  -33.0650 C   0  0  0  0  0  0  0  0  0  0  0  0
   -6.8730   16.7080  -33.7750 N   0  0  0  0  0  0  0  0  0  0  0  0
   -5.7340   17.0360  -34.4270 C   0  0  0  0  0  0  0  0  0  0  0  0
   -5.3480   18.3390  -34.1260 C   0  0  0  0  0  0  0  0  0  0  0  0
   -6.3130   18.8100  -33.2560 C   0  0  0  0  0  0  0  0  0  0  0  0
   -7.0330   22.9010  -31.6970 C   0  0  0  0  0  0  0  0  0  0  0  0
   -7.2160   24.1000  -31.0030 C   0  0  0  0  0  0  0  0  0  0  0  0
   -6.1110   24.8430  -30.5760 C   0  0  0  0  0  0  0  0  0  0  0  0
   -6.3090   26.0280  -29.9460 F   0  0  0  0  0  0  0  0  0  0  0  0
   -2.5730   21.7700  -28.7830 C   0  0  0  0  0  0  0  0  0  0  0  0
   -2.0220   20.6670  -29.3290 N   0  0  0  0  0  0  0  0  0  0  0  0
    0.0565   19.4878  -30.5579 H   0  0  0  0  0  0  0  0  0  0  0  0
   -1.1944   19.5423  -31.8460 H   0  0  0  0  0  0  0  0  0  0  0  0
    0.1474   20.7365  -31.8460 H   0  0  0  0  0  0  0  0  0  0  0  0
   -0.9224   22.9814  -31.3268 H   0  0  0  0  0  0  0  0  0  0  0  0
   -3.6148   22.8635  -31.8189 H   0  0  0  0  0  0  0  0  0  0  0  0
   -9.2483   19.1841  -30.8243 H   0  0  0  0  0  0  0  0  0  0  0  0
   -7.3740   15.7920  -33.8040 H   0  0  0  0  0  0  0  0  0  0  0  0
   -5.1866   16.3635  -35.1039 H   0  0  0  0  0  0  0  0  0  0  0  0
   -4.4650   18.8778  -34.5001 H   0  0  0  0  0  0  0  0  0  0  0  0
   -7.9077   22.3217  -32.0276 H   0  0  0  0  0  0  0  0  0  0  0  0
   -8.2334   24.4608  -30.7917 H   0  0  0  0  0  0  0  0  0  0  0  0
   -3.2118   21.7898  -27.8877 H   0  0  0  0  0  0  0  0  0  0  0  0
  1  2  1  0
  2  3  1  0
  3  4  2  0
  4  5  1  0
  5  6  2  0
  5  7  2  0
  5  8  1  0
  8  9  1  0
  9 10  2  0
 10 11  1  0
 11 12  1  0
 12 13  2  0
 12 14  1  0
 14 15  2  0
 15 16  1  0
 16 17  2  0
 17 18  1  0
 18 19  1  0
 19 20  1  0
 20 21  2  0
 21 22  1  0
 11 23  2  0
 23 24  1  0
 24 25  2  0
 25 26  1  0
  4 27  1  0
 27 28  2  0
 28  2  1  0
 25  9  1  0
 22 14  1  0
 22 18  2  0
  1 29  1  0
  1 30  1  0
  1 31  1  0
  3 32  1  0
 10 33  1  0
 16 34  1  0
 19 35  1  0
 20 36  1  0
 21 37  1  0
 23 38  1  0
 24 39  1  0
 27 40  1  0
M  CHG  1   8  -1
M  END
>  <UniqueID>  (44) 
43

>  <SMILES>  (44) 
Cn1cc(S(=O)(=O)[N-]c2cc(C(=O)c3ncnc4[nH]ccc34)ccc2F)cn1

>  <Energy>  (44) 
122.43874146323407

>  <Genealogy>  (44) 
Cn1cc(S(=O)(=O)[N-]c2cc(C(=O)c3ncnc4[nH]ccc34)ccc2F)cn1 (protonated)
Cn1cc(S(=O)(=O)[N-]c2cc(C(=O)c3ncnc4[nH]ccc34)ccc2F)cn1 (3D coordinates assigned)
Cn1cc(S(=O)(=O)[N-]c2cc(C(=O)c3ncnc4[nH]ccc34)ccc2F)cn1 (optimized conformer: 122.43874146323407 kcal/mol)

>  <smiles>  (44) 
Cn1cc(S(=O)(=O)Nc2cc(C(=O)c3ncnc4[nH]ccc34)ccc2F)cn1

>  <score_type>  (44) 
oracle

>  <origin>  (44) 
adgpu

>  <m_score__min__energy>  (44) 
-10.52

>  <m_primary>  (44) 
energy

$$$$
44:0
     RDKit          3D

 54 56  0  0  0  0  0  0  0  0999 V2000
   -4.9590   12.9560  -31.3860 C   0  0  0  0  0  0  0  0  0  0  0  0
   -3.3590   13.5670  -31.9990 S   0  0  0  0  0  0  0  0  0  0  0  0
   -4.0750   15.0280  -32.7430 C   0  0  0  0  0  0  0  0  0  0  0  0
   -3.6760   15.4260  -33.9770 N   0  0  0  0  0  0  0  0  0  0  0  0
   -4.2020   16.5360  -34.5550 C   0  0  0  0  0  0  0  0  0  0  0  0
   -5.1700   17.2850  -33.8840 C   0  0  0  0  0  0  0  0  0  0  0  0
   -5.7340   18.7850  -34.6140 Cl  0  0  0  0  0  0  0  0  0  0  0  0
   -5.5910   16.8470  -32.6120 C   0  0  0  0  0  0  0  0  0  0  0  0
   -6.6130   17.5600  -31.8230 C   0  0  0  0  0  0  0  0  0  0  0  0
   -6.4740   17.6350  -30.5730 O   0  0  0  0  0  0  0  0  0  0  0  0
   -7.7810   18.1100  -32.4520 N   0  0  0  0  0  0  0  0  0  0  0  0
   -8.7600   18.9120  -31.7220 C   0  0  0  0  0  0  0  0  0  0  0  0
   -8.9400   20.2760  -32.3940 C   0  0  0  0  0  0  0  0  0  0  0  0
   -7.9840   21.2820  -31.8110 C   0  0  0  0  0  0  0  0  0  0  0  0
   -6.8060   21.6180  -32.4980 C   0  0  0  0  0  0  0  0  0  0  0  0
   -5.9330   22.5750  -31.9740 C   0  0  0  0  0  0  0  0  0  0  0  0
   -6.2310   23.2140  -30.7620 C   0  0  0  0  0  0  0  0  0  0  0  0
   -5.1200   24.4160  -30.0980 S   0  0  0  0  0  0  0  0  0  0  0  0
   -5.8520   25.2780  -29.1090 O   0  0  0  0  0  0  0  0  0  0  0  0
   -4.6280   25.2980  -31.2110 O   0  0  0  0  0  0  0  0  0  0  0  0
   -3.7530   23.6640  -29.3130 N   0  0  0  0  0  0  0  0  0  0  0  0
   -2.9230   22.9540  -30.2910 C   0  0  0  0  0  0  0  0  0  0  0  0
   -1.6100   22.4960  -29.6270 C   0  0  0  0  0  0  0  0  0  0  0  0
   -1.7470   22.2330  -28.1730 N   0  0  0  0  0  0  0  0  0  0  0  0
   -1.3240   23.3820  -27.3550 C   0  0  0  0  0  0  0  0  0  0  0  0
   -3.0990   21.7650  -27.8110 C   0  0  0  0  0  0  0  0  0  0  0  0
   -4.2080   22.7510  -28.2470 C   0  0  0  0  0  0  0  0  0  0  0  0
   -7.4150   22.8920  -30.0830 C   0  0  0  0  0  0  0  0  0  0  0  0
   -8.2880   21.9350  -30.6070 C   0  0  0  0  0  0  0  0  0  0  0  0
   -5.0190   15.7360  -32.0730 N   0  0  0  0  0  0  0  0  0  0  0  0
   -4.9550   12.9575  -30.2860 H   0  0  0  0  0  0  0  0  0  0  0  0
   -5.7652   13.6096  -31.7507 H   0  0  0  0  0  0  0  0  0  0  0  0
   -5.1243   11.9315  -31.7507 H   0  0  0  0  0  0  0  0  0  0  0  0
   -3.8644   16.8460  -35.5550 H   0  0  0  0  0  0  0  0  0  0  0  0
   -7.9570   17.9210  -33.4640 H   0  0  0  0  0  0  0  0  0  0  0  0
   -9.7248   18.3837  -31.7100 H   0  0  0  0  0  0  0  0  0  0  0  0
   -8.4003   19.0654  -30.6939 H   0  0  0  0  0  0  0  0  0  0  0  0
   -8.7473   20.1763  -33.4724 H   0  0  0  0  0  0  0  0  0  0  0  0
   -9.9696   20.6234  -32.2229 H   0  0  0  0  0  0  0  0  0  0  0  0
   -6.5696   21.1256  -33.4528 H   0  0  0  0  0  0  0  0  0  0  0  0
   -5.0088   22.8279  -32.5142 H   0  0  0  0  0  0  0  0  0  0  0  0
   -3.4694   22.0752  -30.6641 H   0  0  0  0  0  0  0  0  0  0  0  0
   -2.6905   23.6289  -31.1280 H   0  0  0  0  0  0  0  0  0  0  0  0
   -1.2744   21.5711  -30.1188 H   0  0  0  0  0  0  0  0  0  0  0  0
   -0.8842   23.3144  -29.7426 H   0  0  0  0  0  0  0  0  0  0  0  0
   -1.4177   23.1275  -26.2890 H   0  0  0  0  0  0  0  0  0  0  0  0
   -0.2763   23.6281  -27.5825 H   0  0  0  0  0  0  0  0  0  0  0  0
   -1.9620   24.2487  -27.5825 H   0  0  0  0  0  0  0  0  0  0  0  0
   -3.2783   20.7955  -28.2988 H   0  0  0  0  0  0  0  0  0  0  0  0
   -3.1398   21.6823  -26.7149 H   0  0  0  0  0  0  0  0  0  0  0  0
   -5.0689   22.1750  -28.6172 H   0  0  0  0  0  0  0  0  0  0  0  0
   -4.4810   23.3608  -27.3732 H   0  0  0  0  0  0  0  0  0  0  0  0
   -7.6573   23.3944  -29.1349 H   0  0  0  0  0  0  0  0  0  0  0  0
   -9.2184   21.6923  -30.0727 H   0  0  0  0  0  0  0  0  0  0  0  0
  1  2  1  0
  2  3  1  0
  3  4  2  0
  4  5  1  0
  5  6  2  0
  6  7  1  0
  6  8  1  0
  8  9  1  0
  9 10  2  0
  9 11  1  0
 11 12  1  0
 12 13  1  0
 13 14  1  0
 14 15  2  0
 15 16  1  0
 16 17  2  0
 17 18  1  0
 18 19  2  0
 18 20  2  0
 18 21  1  0
 21 22  1  0
 22 23  1  0
 23 24  1  0
 24 25  1  0
 24 26  1  0
 26 27  1  0
 17 28  1  0
 28 29  2  0
  8 30  2  0
 30  3  1  0
 29 14  1  0
 27 21  1  0
  1 31  1  0
  1 32  1  0
  1 33  1  0
  5 34  1  0
 11 35  1  0
 12 36  1  0
 12 37  1  0
 13 38  1  0
 13 39  1  0
 15 40  1  0
 16 41  1  0
 22 42  1  0
 22 43  1  0
 23 44  1  0
 23 45  1  0
 25 46  1  0
 25 47  1  0
 25 48  1  0
 26 49  1  0
 26 50  1  0
 27 51  1  0
 27 52  1  0
 28 53  1  0
 29 54  1  0
M  END
>  <UniqueID>  (45) 
44

>  <SMILES>  (45) 
CSc1ncc(Cl)c(C(=O)NCCc2ccc(S(=O)(=O)N3CCN(C)CC3)cc2)n1

>  <Energy>  (45) 
60.795218437966554

>  <Genealogy>  (45) 
CSc1ncc(Cl)c(C(=O)NCCc2ccc(S(=O)(=O)N3CCN(C)CC3)cc2)n1 (3D coordinates assigned)
CSc1ncc(Cl)c(C(=O)NCCc2ccc(S(=O)(=O)N3CCN(C)CC3)cc2)n1 (nonaromatic ring conformer: 60.795218437966554 kcal/mol)

>  <smiles>  (45) 
CSc1ncc(Cl)c(C(=O)NCCc2ccc(S(=O)(=O)N3CCN(C)CC3)cc2)n1

>  <score_type>  (45) 
oracle

>  <origin>  (45) 
adgpu

>  <m_score__min__energy>  (45) 
-10.4

>  <m_primary>  (45) 
energy

$$$$
45:0
     RDKit          3D

 54 57  0  0  0  0  0  0  0  0999 V2000
   -3.5654   21.4452  -34.5076 H   0  0  0  0  0  0  0  0  0  0  0  0
   -3.8960   21.2710  -33.4730 C   0  0  0  0  0  0  0  0  0  0  0  0
   -4.4710   20.0890  -33.1350 N   0  0  0  0  0  0  0  0  0  0  0  0
   -4.8820   19.8480  -31.8590 C   0  0  0  0  0  0  0  0  0  0  0  0
   -5.4540   18.7260  -31.5330 N   0  0  0  0  0  0  0  0  0  0  0  0
   -5.6520   17.5780  -32.3760 C   0  0  0  0  0  0  0  0  0  0  0  0
   -6.5810   17.6630  -33.4190 C   0  0  0  0  0  0  0  0  0  0  0  0
   -7.1166   18.6070  -33.5978 H   0  0  0  0  0  0  0  0  0  0  0  0
   -6.8330   16.5570  -34.2350 C   0  0  0  0  0  0  0  0  0  0  0  0
   -7.5510   16.6391  -35.0643 H   0  0  0  0  0  0  0  0  0  0  0  0
   -6.1750   15.3470  -34.0000 C   0  0  0  0  0  0  0  0  0  0  0  0
   -6.3715   14.4799  -34.6477 H   0  0  0  0  0  0  0  0  0  0  0  0
   -5.2650   15.2370  -32.9400 C   0  0  0  0  0  0  0  0  0  0  0  0
   -4.4590   13.7050  -32.6010 S   0  0  0  0  0  0  0  0  0  0  0  0
   -5.2090   12.6000  -33.2910 O   0  0  0  0  0  0  0  0  0  0  0  0
   -4.4560   13.4330  -31.1230 O   0  0  0  0  0  0  0  0  0  0  0  0
   -2.8200   13.7340  -33.1800 N   0  0  0  0  0  0  0  0  0  0  0  0
   -2.6790   12.8750  -33.7600 H   0  0  0  0  0  0  0  0  0  0  0  0
   -2.6210   14.8950  -34.0430 C   0  0  0  0  0  0  0  0  0  0  0  0
   -2.4675   15.7906  -33.4231 H   0  0  0  0  0  0  0  0  0  0  0  0
   -1.7376   14.7327  -34.6780 H   0  0  0  0  0  0  0  0  0  0  0  0
   -3.5080   15.0362  -34.6780 H   0  0  0  0  0  0  0  0  0  0  0  0
   -5.0110   16.3480  -32.1240 C   0  0  0  0  0  0  0  0  0  0  0  0
   -4.3079   16.2597  -31.2827 H   0  0  0  0  0  0  0  0  0  0  0  0
   -4.7310   20.8130  -30.9140 N   0  0  0  0  0  0  0  0  0  0  0  0
   -4.1580   22.0150  -31.1980 C   0  0  0  0  0  0  0  0  0  0  0  0
   -4.0070   23.0070  -30.1570 N   0  0  0  0  0  0  0  0  0  0  0  0
   -2.8730   22.9430  -29.2740 C   0  0  0  0  0  0  0  0  0  0  0  0
   -2.5330   21.7280  -28.6610 C   0  0  0  0  0  0  0  0  0  0  0  0
   -3.1411   20.8303  -28.8465 H   0  0  0  0  0  0  0  0  0  0  0  0
   -1.4230   21.6560  -27.8150 C   0  0  0  0  0  0  0  0  0  0  0  0
   -1.1579   20.7014  -27.3371 H   0  0  0  0  0  0  0  0  0  0  0  0
   -0.6490   22.7950  -27.5750 C   0  0  0  0  0  0  0  0  0  0  0  0
    0.2244   22.7361  -26.9088 H   0  0  0  0  0  0  0  0  0  0  0  0
   -0.9850   24.0100  -28.1820 C   0  0  0  0  0  0  0  0  0  0  0  0
   -0.3761   24.9060  -27.9913 H   0  0  0  0  0  0  0  0  0  0  0  0
   -2.0940   24.0870  -29.0310 C   0  0  0  0  0  0  0  0  0  0  0  0
   -2.4210   25.2990  -29.6310 O   0  0  0  0  0  0  0  0  0  0  0  0
   -5.1390   23.8730  -29.7890 C   0  0  0  0  0  0  0  0  0  0  0  0
   -5.3465   23.7554  -28.7152 H   0  0  0  0  0  0  0  0  0  0  0  0
   -4.8705   24.9144  -30.0203 H   0  0  0  0  0  0  0  0  0  0  0  0
   -6.3700   23.5160  -30.5670 C   0  0  0  0  0  0  0  0  0  0  0  0
   -7.4910   22.3460  -30.1140 S   0  0  0  0  0  0  0  0  0  0  0  0
   -8.4280   22.4700  -31.5060 C   0  0  0  0  0  0  0  0  0  0  0  0
   -9.6090   21.6150  -31.8270 C   0  0  0  0  0  0  0  0  0  0  0  0
  -10.0797   21.2742  -30.8930 H   0  0  0  0  0  0  0  0  0  0  0  0
  -10.3354   22.1979  -32.4123 H   0  0  0  0  0  0  0  0  0  0  0  0
   -9.2821   20.7429  -32.4123 H   0  0  0  0  0  0  0  0  0  0  0  0
   -7.8500   23.4010  -32.3610 C   0  0  0  0  0  0  0  0  0  0  0  0
   -8.2581   23.6489  -33.3520 H   0  0  0  0  0  0  0  0  0  0  0  0
   -6.6960   23.9910  -31.8330 C   0  0  0  0  0  0  0  0  0  0  0  0
   -6.1069   24.7526  -32.3649 H   0  0  0  0  0  0  0  0  0  0  0  0
   -3.7240   22.2640  -32.5110 C   0  0  0  0  0  0  0  0  0  0  0  0
   -3.2573   23.2247  -32.7744 H   0  0  0  0  0  0  0  0  0  0  0  0
  1  2  1  0
  2  3  1  0
  3  4  1  0
  4  5  2  0
  5  6  1  0
  6  7  2  0
  7  8  1  0
  7  9  1  0
  9 10  1  0
  9 11  2  0
 11 12  1  0
 11 13  1  0
 13 14  1  0
 14 15  2  0
 14 16  2  0
 14 17  1  0
 17 18  1  0
 17 19  1  0
 19 20  1  0
 19 21  1  0
 19 22  1  0
 13 23  2  0
 23 24  1  0
  4 25  1  0
 25 26  2  0
 26 27  1  0
 27 28  1  0
 28 29  2  0
 29 30  1  0
 29 31  1  0
 31 32  1  0
 31 33  2  0
 33 34  1  0
 33 35  1  0
 35 36  1  0
 35 37  2  0
 37 38  1  0
 27 39  1  0
 39 40  1  0
 39 41  1  0
 39 42  1  0
 42 43  1  0
 43 44  1  0
 44 45  1  0
 45 46  1  0
 45 47  1  0
 45 48  1  0
 44 49  2  0
 49 50  1  0
 49 51  1  0
 51 52  1  0
 26 53  1  0
 53 54  1  0
 53  2  2  0
 23  6  1  0
 37 28  1  0
 51 42  2  0
M  CHG  2   3  -1  38  -1
M  END
>  <UniqueID>  (46) 
45

>  <SMILES>  (46) 
CNS(=O)(=O)c1cccc(/N=c2/nc(N(Cc3ccc(C)s3)c3ccccc3[O-])cc[n-]2)c1

>  <Energy>  (46) 
94.87861474653083

>  <Genealogy>  (46) 
CNS(=O)(=O)c1cccc(N=c2nc(N(Cc3ccc(C)s3)c3ccccc3[O-])cc[n-]2)c1 (protonated)
CNS(=O)(=O)c1cccc(/N=c2/nc(N(Cc3ccc(C)s3)c3ccccc3[O-])cc[n-]2)c1 (cis-trans isomerization)
CNS(=O)(=O)c1cccc(/N=c2/nc(N(Cc3ccc(C)s3)c3ccccc3[O-])cc[n-]2)c1 (3D coordinates assigned)
CNS(=O)(=O)c1cccc(/N=c2/nc(N(Cc3ccc(C)s3)c3ccccc3[O-])cc[n-]2)c1 (optimized conformer: 94.87861474653083 kcal/mol)

>  <smiles>  (46) 
CNS(=O)(=O)c1cccc(N=c2nc(N(Cc3ccc(C)s3)c3ccccc3O)cc[nH]2)c1

>  <score_type>  (46) 
oracle

>  <origin>  (46) 
adgpu

>  <m_score__min__energy>  (46) 
-12.369999999999999

>  <m_primary>  (46) 
energy

$$$$
46:0
     RDKit          3D

 34 36  0  0  0  0  0  0  0  0999 V2000
   -7.2250   15.6460  -34.3140 O   0  0  0  0  0  0  0  0  0  0  0  0
   -6.5000   16.3300  -33.5620 N   0  0  0  0  0  0  0  0  0  0  0  0
   -5.3110   15.7950  -33.1220 O   0  0  0  0  0  0  0  0  0  0  0  0
   -6.9000   17.6530  -33.1610 C   0  0  0  0  0  0  0  0  0  0  0  0
   -6.4110   18.7820  -33.8450 C   0  0  0  0  0  0  0  0  0  0  0  0
   -6.7970   20.0680  -33.4570 C   0  0  0  0  0  0  0  0  0  0  0  0
   -7.6730   20.2470  -32.3800 C   0  0  0  0  0  0  0  0  0  0  0  0
   -8.1490   21.8640  -31.8720 S   0  0  0  0  0  0  0  0  0  0  0  0
   -9.5430   22.1830  -32.3400 O   0  0  0  0  0  0  0  0  0  0  0  0
   -8.1110   21.9290  -30.3710 O   0  0  0  0  0  0  0  0  0  0  0  0
   -7.0500   23.0380  -32.5240 N   0  0  0  0  0  0  0  0  0  0  0  0
   -5.9580   23.6070  -31.7750 C   0  0  0  0  0  0  0  0  0  0  0  0
   -6.0700   24.8780  -31.1820 C   0  0  0  0  0  0  0  0  0  0  0  0
   -5.0090   25.4260  -30.4610 C   0  0  0  0  0  0  0  0  0  0  0  0
   -3.8150   24.7190  -30.3090 C   0  0  0  0  0  0  0  0  0  0  0  0
   -2.7740   25.2920  -29.5850 O   0  0  0  0  0  0  0  0  0  0  0  0
   -3.6800   23.4440  -30.8840 C   0  0  0  0  0  0  0  0  0  0  0  0
   -2.4940   22.7010  -30.7520 C   0  0  0  0  0  0  0  0  0  0  0  0
   -2.3910   21.4410  -31.3390 C   0  0  0  0  0  0  0  0  0  0  0  0
   -3.4710   20.9270  -32.0560 C   0  0  0  0  0  0  0  0  0  0  0  0
   -4.6150   21.6510  -32.1780 N   0  0  0  0  0  0  0  0  0  0  0  0
   -4.7550   22.8850  -31.6170 C   0  0  0  0  0  0  0  0  0  0  0  0
   -8.1690   19.1290  -31.6980 C   0  0  0  0  0  0  0  0  0  0  0  0
   -7.7840   17.8410  -32.0840 C   0  0  0  0  0  0  0  0  0  0  0  0
   -5.7201   18.6511  -34.6909 H   0  0  0  0  0  0  0  0  0  0  0  0
   -6.4108   20.9431  -34.0002 H   0  0  0  0  0  0  0  0  0  0  0  0
   -7.2760   23.4100  -33.4730 H   0  0  0  0  0  0  0  0  0  0  0  0
   -7.0057   25.4465  -31.2882 H   0  0  0  0  0  0  0  0  0  0  0  0
   -5.1141   26.4232  -30.0086 H   0  0  0  0  0  0  0  0  0  0  0  0
   -1.6467   23.1142  -30.1851 H   0  0  0  0  0  0  0  0  0  0  0  0
   -1.4647   20.8564  -31.2374 H   0  0  0  0  0  0  0  0  0  0  0  0
   -3.3970   19.9341  -32.5236 H   0  0  0  0  0  0  0  0  0  0  0  0
   -8.8637   19.2642  -30.8559 H   0  0  0  0  0  0  0  0  0  0  0  0
   -8.1758   16.9684  -31.5408 H   0  0  0  0  0  0  0  0  0  0  0  0
  1  2  2  0
  2  3  1  0
  2  4  1  0
  4  5  2  0
  5  6  1  0
  6  7  2  0
  7  8  1  0
  8  9  2  0
  8 10  2  0
  8 11  1  0
 11 12  1  0
 12 13  2  0
 13 14  1  0
 14 15  2  0
 15 16  1  0
 15 17  1  0
 17 18  2  0
 18 19  1  0
 19 20  2  0
 20 21  1  0
 21 22  2  0
  7 23  1  0
 23 24  2  0
 24  4  1  0
 22 12  1  0
 22 17  1  0
  5 25  1  0
  6 26  1  0
 11 27  1  0
 13 28  1  0
 14 29  1  0
 18 30  1  0
 19 31  1  0
 20 32  1  0
 23 33  1  0
 24 34  1  0
M  CHG  3   2   1   3  -1  16  -1
M  END
>  <UniqueID>  (47) 
46

>  <SMILES>  (47) 
O=[N+]([O-])c1ccc(S(=O)(=O)Nc2ccc([O-])c3cccnc23)cc1

>  <Energy>  (47) 
45.97979230593532

>  <Genealogy>  (47) 
O=[N+]([O-])c1ccc(S(=O)(=O)Nc2ccc([O-])c3cccnc23)cc1 (protonated)
O=[N+]([O-])c1ccc(S(=O)(=O)Nc2ccc([O-])c3cccnc23)cc1 (3D coordinates assigned)
O=[N+]([O-])c1ccc(S(=O)(=O)Nc2ccc([O-])c3cccnc23)cc1 (optimized conformer: 45.97979230593532 kcal/mol)

>  <smiles>  (47) 
O=[N+]([O-])c1ccc(S(=O)(=O)Nc2ccc(O)c3cccnc23)cc1

>  <score_type>  (47) 
oracle

>  <origin>  (47) 
adgpu

>  <m_score__min__energy>  (47) 
-11.960000000000001

>  <m_primary>  (47) 
energy

$$$$
47:0
     RDKit          3D

 58 61  0  0  0  0  0  0  0  0999 V2000
   -3.5510   21.9800  -28.5980 C   0  0  0  0  0  0  0  0  0  0  0  0
   -3.7770   22.4510  -29.9640 N   0  0  0  0  0  0  0  0  0  0  0  0
   -3.0190   21.8980  -31.0530 C   0  0  0  0  0  0  0  0  0  0  0  0
   -1.8360   21.1810  -30.8040 C   0  0  0  0  0  0  0  0  0  0  0  0
   -1.0990   20.6420  -31.8630 C   0  0  0  0  0  0  0  0  0  0  0  0
   -1.5350   20.8160  -33.1790 C   0  0  0  0  0  0  0  0  0  0  0  0
   -2.7070   21.5320  -33.4380 C   0  0  0  0  0  0  0  0  0  0  0  0
   -3.4450   22.0740  -32.3800 C   0  0  0  0  0  0  0  0  0  0  0  0
   -4.9930   23.6610  -30.2650 S   0  0  0  0  0  0  0  0  0  0  0  0
   -4.4420   24.7060  -31.1950 O   0  0  0  0  0  0  0  0  0  0  0  0
   -5.3650   24.3370  -28.9750 O   0  0  0  0  0  0  0  0  0  0  0  0
   -6.4230   22.9140  -30.9730 C   0  0  0  0  0  0  0  0  0  0  0  0
   -7.5430   23.6990  -31.2710 C   0  0  0  0  0  0  0  0  0  0  0  0
   -8.6880   23.1090  -31.8060 C   0  0  0  0  0  0  0  0  0  0  0  0
   -8.7270   21.7330  -32.0390 C   0  0  0  0  0  0  0  0  0  0  0  0
   -7.6130   20.9220  -31.7450 C   0  0  0  0  0  0  0  0  0  0  0  0
   -7.6970   19.4480  -31.9680 C   0  0  0  0  0  0  0  0  0  0  0  0
   -7.9050   18.7020  -30.9700 O   0  0  0  0  0  0  0  0  0  0  0  0
   -7.4930   18.8510  -33.2810 N   0  0  1  0  0  0  0  0  0  0  0  0
   -6.4850   19.6170  -34.0450 C   0  0  0  0  0  0  0  0  0  0  0  0
   -5.0720   19.4820  -33.4560 C   0  0  0  0  0  0  0  0  0  0  0  0
   -4.7110   18.0270  -33.0600 C   0  0  2  0  0  0  0  0  0  0  0  0
   -3.2700   17.6680  -33.5160 C   0  0  0  0  0  0  0  0  0  0  0  0
   -3.0090   16.1530  -33.6360 C   0  0  0  0  0  0  0  0  0  0  0  0
   -3.9380   15.3390  -32.7390 C   0  0  0  0  0  0  0  0  0  0  0  0
   -5.4120   15.5510  -33.1240 C   0  0  0  0  0  0  0  0  0  0  0  0
   -5.7380   17.0000  -33.5900 C   0  0  1  0  0  0  0  0  0  0  0  0
   -7.1930   17.3890  -33.2020 C   0  0  0  0  0  0  0  0  0  0  0  0
   -6.4570   21.5340  -31.2160 C   0  0  0  0  0  0  0  0  0  0  0  0
   -3.9134   22.7352  -27.8851 H   0  0  0  0  0  0  0  0  0  0  0  0
   -4.0946   21.0367  -28.4408 H   0  0  0  0  0  0  0  0  0  0  0  0
   -2.4751   21.8138  -28.4408 H   0  0  0  0  0  0  0  0  0  0  0  0
   -1.4878   21.0430  -29.7697 H   0  0  0  0  0  0  0  0  0  0  0  0
   -0.1752   20.0805  -31.6599 H   0  0  0  0  0  0  0  0  0  0  0  0
   -0.9558   20.3894  -34.0112 H   0  0  0  0  0  0  0  0  0  0  0  0
   -3.0495   21.6695  -34.4742 H   0  0  0  0  0  0  0  0  0  0  0  0
   -4.3641   22.6412  -32.5886 H   0  0  0  0  0  0  0  0  0  0  0  0
   -7.5201   24.7826  -31.0830 H   0  0  0  0  0  0  0  0  0  0  0  0
   -9.5637   23.7302  -32.0453 H   0  0  0  0  0  0  0  0  0  0  0  0
   -9.6370   21.2773  -32.4565 H   0  0  0  0  0  0  0  0  0  0  0  0
   -8.3950   18.9210  -33.8050 H   0  0  0  0  0  0  0  0  0  0  0  0
   -6.4720   19.2475  -35.0810 H   0  0  0  0  0  0  0  0  0  0  0  0
   -6.7665   20.6793  -33.9978 H   0  0  0  0  0  0  0  0  0  0  0  0
   -4.3462   19.8305  -34.2055 H   0  0  0  0  0  0  0  0  0  0  0  0
   -5.0416   20.0874  -32.5381 H   0  0  0  0  0  0  0  0  0  0  0  0
   -4.7486   17.9740  -31.9619 H   0  0  0  0  0  0  0  0  0  0  0  0
   -3.0937   18.1283  -34.4994 H   0  0  0  0  0  0  0  0  0  0  0  0
   -2.5873   18.0481  -32.7417 H   0  0  0  0  0  0  0  0  0  0  0  0
   -3.1667   15.8473  -34.6808 H   0  0  0  0  0  0  0  0  0  0  0  0
   -1.9742   15.9605  -33.3165 H   0  0  0  0  0  0  0  0  0  0  0  0
   -3.6907   14.2720  -32.8410 H   0  0  0  0  0  0  0  0  0  0  0  0
   -3.7986   15.6727  -31.7001 H   0  0  0  0  0  0  0  0  0  0  0  0
   -5.6593   14.8595  -33.9429 H   0  0  0  0  0  0  0  0  0  0  0  0
   -6.0093   15.3636  -32.2195 H   0  0  0  0  0  0  0  0  0  0  0  0
   -5.6619   17.0203  -34.6872 H   0  0  0  0  0  0  0  0  0  0  0  0
   -7.8805   16.8615  -33.8795 H   0  0  0  0  0  0  0  0  0  0  0  0
   -7.3191   17.1035  -32.1472 H   0  0  0  0  0  0  0  0  0  0  0  0
   -5.5718   20.9208  -30.9916 H   0  0  0  0  0  0  0  0  0  0  0  0
  1  2  1  0
  2  3  1  0
  3  4  2  0
  4  5  1  0
  5  6  2  0
  6  7  1  0
  7  8  2  0
  2  9  1  0
  9 10  2  0
  9 11  2  0
  9 12  1  0
 12 13  2  0
 13 14  1  0
 14 15  2  0
 15 16  1  0
 16 17  1  0
 17 18  2  0
 17 19  1  0
 19 20  1  0
 20 21  1  0
 21 22  1  0
 22 23  1  0
 23 24  1  0
 24 25  1  0
 25 26  1  0
 26 27  1  0
 27 28  1  0
 16 29  2  0
  8  3  1  0
 29 12  1  0
 28 19  1  0
 27 22  1  0
  1 30  1  0
  1 31  1  0
  1 32  1  0
  4 33  1  0
  5 34  1  0
  6 35  1  0
  7 36  1  0
  8 37  1  0
 13 38  1  0
 14 39  1  0
 15 40  1  0
 19 41  1  6
 20 42  1  0
 20 43  1  0
 21 44  1  0
 21 45  1  0
 22 46  1  1
 23 47  1  0
 23 48  1  0
 24 49  1  0
 24 50  1  0
 25 51  1  0
 25 52  1  0
 26 53  1  0
 26 54  1  0
 27 55  1  6
 28 56  1  0
 28 57  1  0
 29 58  1  0
M  CHG  1  19   1
M  END
>  <UniqueID>  (48) 
47

>  <SMILES>  (48) 
CN(c1ccccc1)S(=O)(=O)c1cccc(C(=O)[N@H+]2CC[C@@H]3CCCCC3C2)c1

>  <Energy>  (48) 
84.50755635521548

>  <Genealogy>  (48) 
CN(c1ccccc1)S(=O)(=O)c1cccc(C(=O)[NH+]2CCC3CCCCC3C2)c1 (protonated)
CN(c1ccccc1)S(=O)(=O)c1cccc(C(=O)[N@H+]2CC[C@@H]3CCCCC3C2)c1 (chirality)
CN(c1ccccc1)S(=O)(=O)c1cccc(C(=O)[N@H+]2CC[C@@H]3CCCCC3C2)c1 (3D coordinates assigned)
CN(c1ccccc1)S(=O)(=O)c1cccc(C(=O)[N@H+]2CC[C@@H]3CCCCC3C2)c1 (nonaromatic ring conformer: 84.50755635521548 kcal/mol)

>  <smiles>  (48) 
CN(c1ccccc1)S(=O)(=O)c1cccc(C(=O)N2CCC3CCCCC3C2)c1

>  <score_type>  (48) 
oracle

>  <origin>  (48) 
adgpu

>  <m_score__min__energy>  (48) 
-9.7799999999999994

>  <m_primary>  (48) 
energy

$$$$
48:0
     RDKit          3D

 50 53  0  0  0  0  0  0  0  0999 V2000
   -1.2810   23.2170  -26.4460 N   0  0  0  0  0  0  0  0  0  0  0  0
   -1.0790   22.5410  -27.6980 C   0  0  0  0  0  0  0  0  0  0  0  0
   -0.3010   21.3710  -27.7170 C   0  0  0  0  0  0  0  0  0  0  0  0
   -0.0660   20.6910  -28.9150 C   0  0  0  0  0  0  0  0  0  0  0  0
   -0.6150   21.1580  -30.1150 C   0  0  0  0  0  0  0  0  0  0  0  0
   -0.3290   20.4650  -31.3030 O   0  0  0  0  0  0  0  0  0  0  0  0
   -1.2850   19.9630  -32.1980 C   0  0  0  0  0  0  0  0  0  0  0  0
   -1.3890   18.5870  -32.4800 C   0  0  0  0  0  0  0  0  0  0  0  0
   -2.3220   18.1310  -33.4210 C   0  0  0  0  0  0  0  0  0  0  0  0
   -3.1610   19.0400  -34.0760 C   0  0  0  0  0  0  0  0  0  0  0  0
   -3.0640   20.4070  -33.7950 C   0  0  0  0  0  0  0  0  0  0  0  0
   -2.1240   20.8670  -32.8660 C   0  0  0  0  0  0  0  0  0  0  0  0
   -1.3890   22.3350  -30.1090 C   0  0  0  0  0  0  0  0  0  0  0  0
   -1.6300   23.0310  -28.9110 C   0  0  0  0  0  0  0  0  0  0  0  0
   -2.5510   24.5450  -28.9710 S   0  0  0  0  0  0  0  0  0  0  0  0
   -3.4610   24.6700  -27.7780 O   0  0  0  0  0  0  0  0  0  0  0  0
   -1.5910   25.7050  -28.9690 O   0  0  0  0  0  0  0  0  0  0  0  0
   -3.4910   24.5710  -30.4310 N   0  0  0  0  0  0  0  0  0  0  0  0
   -4.7100   23.8300  -30.5680 C   0  0  0  0  0  0  0  0  0  0  0  0
   -4.7020   22.6500  -31.3360 C   0  0  0  0  0  0  0  0  0  0  0  0
   -5.8670   21.8780  -31.4690 C   0  0  0  0  0  0  0  0  0  0  0  0
   -7.0550   22.3050  -30.8420 C   0  0  0  0  0  0  0  0  0  0  0  0
   -7.0630   23.4850  -30.0750 C   0  0  0  0  0  0  0  0  0  0  0  0
   -5.8990   24.2530  -29.9440 C   0  0  0  0  0  0  0  0  0  0  0  0
   -5.9330   25.4470  -29.2140 O   0  0  0  0  0  0  0  0  0  0  0  0
   -8.3080   21.4910  -31.0070 C   0  0  0  0  0  0  0  0  0  0  0  0
   -8.3660   20.9450  -32.4350 C   0  0  0  0  0  0  0  0  0  0  0  0
   -7.1600   20.0420  -32.7430 C   0  0  0  0  0  0  0  0  0  0  0  0
   -5.8080   20.5300  -32.1560 C   0  0  0  0  0  0  0  0  0  0  0  0
   -0.7800   22.9430  -25.5700 H   0  0  0  0  0  0  0  0  0  0  0  0
   -1.9520   24.0180  -26.3790 H   0  0  0  0  0  0  0  0  0  0  0  0
    0.1273   20.9866  -26.7796 H   0  0  0  0  0  0  0  0  0  0  0  0
    0.5545   19.7827  -28.9150 H   0  0  0  0  0  0  0  0  0  0  0  0
   -0.7369   17.8692  -31.9608 H   0  0  0  0  0  0  0  0  0  0  0  0
   -2.3951   17.0566  -33.6453 H   0  0  0  0  0  0  0  0  0  0  0  0
   -3.8959   18.6798  -34.8110 H   0  0  0  0  0  0  0  0  0  0  0  0
   -3.7274   21.1211  -34.3049 H   0  0  0  0  0  0  0  0  0  0  0  0
   -2.0426   21.9441  -32.6583 H   0  0  0  0  0  0  0  0  0  0  0  0
   -1.8097   22.7140  -31.0521 H   0  0  0  0  0  0  0  0  0  0  0  0
   -3.7756   22.3305  -31.8357 H   0  0  0  0  0  0  0  0  0  0  0  0
   -7.9889   23.8061  -29.5754 H   0  0  0  0  0  0  0  0  0  0  0  0
   -5.2120   25.6860  -28.5300 H   0  0  0  0  0  0  0  0  0  0  0  0
   -8.3005   20.6544  -30.2928 H   0  0  0  0  0  0  0  0  0  0  0  0
   -9.1881   22.1226  -30.8158 H   0  0  0  0  0  0  0  0  0  0  0  0
   -9.2901   20.3610  -32.5570 H   0  0  0  0  0  0  0  0  0  0  0  0
   -8.3459   21.7966  -33.1310 H   0  0  0  0  0  0  0  0  0  0  0  0
   -7.3688   19.0425  -32.3338 H   0  0  0  0  0  0  0  0  0  0  0  0
   -7.0412   20.0502  -33.8365 H   0  0  0  0  0  0  0  0  0  0  0  0
   -5.4645   19.7860  -31.4222 H   0  0  0  0  0  0  0  0  0  0  0  0
   -5.1224   20.6452  -33.0084 H   0  0  0  0  0  0  0  0  0  0  0  0
  1  2  1  0
  2  3  2  0
  3  4  1  0
  4  5  2  0
  5  6  1  0
  6  7  1  0
  7  8  2  0
  8  9  1  0
  9 10  2  0
 10 11  1  0
 11 12  2  0
  5 13  1  0
 13 14  2  0
 14 15  1  0
 15 16  2  0
 15 17  2  0
 15 18  1  0
 18 19  1  0
 19 20  2  0
 20 21  1  0
 21 22  2  0
 22 23  1  0
 23 24  2  0
 24 25  1  0
 22 26  1  0
 26 27  1  0
 27 28  1  0
 28 29  1  0
 14  2  1  0
 24 19  1  0
 12  7  1  0
 29 21  1  0
  1 30  1  0
  1 31  1  0
  3 32  1  0
  4 33  1  0
  8 34  1  0
  9 35  1  0
 10 36  1  0
 11 37  1  0
 12 38  1  0
 13 39  1  0
 20 40  1  0
 23 41  1  0
 25 42  1  0
 26 43  1  0
 26 44  1  0
 27 45  1  0
 27 46  1  0
 28 47  1  0
 28 48  1  0
 29 49  1  0
 29 50  1  0
M  CHG  1  18  -1
M  END
>  <UniqueID>  (49) 
48

>  <SMILES>  (49) 
Nc1ccc(Oc2ccccc2)cc1S(=O)(=O)[N-]c1cc2c(cc1O)CCCC2

>  <Energy>  (49) 
72.97723565332684

>  <Genealogy>  (49) 
Nc1ccc(Oc2ccccc2)cc1S(=O)(=O)[N-]c1cc2c(cc1O)CCCC2 (protonated)
Nc1ccc(Oc2ccccc2)cc1S(=O)(=O)[N-]c1cc2c(cc1O)CCCC2 (3D coordinates assigned)
Nc1ccc(Oc2ccccc2)cc1S(=O)(=O)[N-]c1cc2c(cc1O)CCCC2 (nonaromatic ring conformer: 72.97723565332684 kcal/mol)

>  <smiles>  (49) 
Nc1ccc(Oc2ccccc2)cc1S(=O)(=O)Nc1cc2c(cc1O)CCCC2

>  <score_type>  (49) 
oracle

>  <origin>  (49) 
adgpu

>  <m_score__min__energy>  (49) 
-10.26

>  <m_primary>  (49) 
energy

$$$$
49:0
     RDKit          3D

 46 48  0  0  1  0  0  0  0  0999 V2000
    4.4790   22.8730  -35.5870 C   0  0  0  0  0  0  0  0  0  0  0  0
    2.9300   23.1330  -36.4800 S   0  0  0  0  0  0  0  0  0  0  0  0
    1.6800   22.1370  -35.7250 C   0  0  0  0  0  0  0  0  0  0  0  0
    1.9650   20.8270  -35.4400 C   0  0  0  0  0  0  0  0  0  0  0  0
    0.9740   20.1010  -34.8600 N   0  0  0  0  0  0  0  0  0  0  0  0
   -0.2190   20.6840  -34.5950 C   0  0  0  0  0  0  0  0  0  0  0  0
   -1.5460   19.7390  -33.8260 S   0  0  0  0  0  0  0  0  0  0  0  0
   -2.4190   20.7670  -32.6740 C   0  0  0  0  0  0  0  0  0  0  0  0
   -1.7340   21.6260  -31.8320 C   0  0  0  0  0  0  0  0  0  0  0  0
   -2.3810   22.4400  -30.9230 C   0  0  0  0  0  0  0  0  0  0  0  0
   -3.7570   22.4210  -30.8240 C   0  0  0  0  0  0  0  0  0  0  0  0
   -4.3910   23.2960  -29.8520 C   0  0  0  0  0  0  0  0  0  0  0  0
   -5.0490   22.6840  -28.7240 N   0  0  0  0  0  0  0  0  0  0  0  0
   -4.4180   24.5640  -29.9080 N   0  0  0  0  0  0  0  0  0  0  0  0
   -3.8410   25.3010  -30.9120 O   0  0  0  0  0  0  0  0  0  0  0  0
   -4.4360   21.5700  -31.6560 C   0  0  0  0  0  0  0  0  0  0  0  0
   -3.7930   20.7510  -32.5710 C   0  0  0  0  0  0  0  0  0  0  0  0
   -0.4820   21.9720  -34.8820 N   0  0  0  0  0  0  0  0  0  0  0  0
    0.4650   22.7290  -35.4550 C   0  0  0  0  0  0  0  0  0  0  0  0
    0.2390   23.9320  -35.7300 N   0  0  0  0  0  0  0  0  0  0  0  0
    1.3120   25.0120  -36.4460 S   0  0  0  0  0  0  0  0  0  0  0  0
    1.5470   24.9240  -37.9130 O   0  0  0  0  0  0  0  0  0  0  0  0
    2.4340   25.5460  -35.6170 O   0  0  0  0  0  0  0  0  0  0  0  0
    0.2720   26.4640  -36.4400 C   0  0  0  0  0  0  0  0  0  0  0  0
   -0.5200   26.7880  -37.5200 C   0  0  0  0  0  0  0  0  0  0  0  0
   -1.3530   27.8930  -37.5470 C   0  0  0  0  0  0  0  0  0  0  0  0
   -1.3590   28.6820  -36.4170 C   0  0  0  0  0  0  0  0  0  0  0  0
   -0.5950   28.4220  -35.2990 C   0  0  0  0  0  0  0  0  0  0  0  0
    0.2080   27.3030  -35.3490 C   0  0  0  0  0  0  0  0  0  0  0  0
    4.2878   22.9051  -34.5042 H   0  0  0  0  0  0  0  0  0  0  0  0
    4.8974   21.8921  -35.8566 H   0  0  0  0  0  0  0  0  0  0  0  0
    5.1948   23.6636  -35.8566 H   0  0  0  0  0  0  0  0  0  0  0  0
    2.9463   20.3859  -35.6692 H   0  0  0  0  0  0  0  0  0  0  0  0
    1.0750   19.1120  -34.6020 H   0  0  0  0  0  0  0  0  0  0  0  0
   -0.6360   21.6615  -31.8889 H   0  0  0  0  0  0  0  0  0  0  0  0
   -1.7955   23.1077  -30.2738 H   0  0  0  0  0  0  0  0  0  0  0  0
   -6.0890   22.7130  -28.6200 H   0  0  0  0  0  0  0  0  0  0  0  0
   -4.4170   22.2120  -28.0230 H   0  0  0  0  0  0  0  0  0  0  0  0
   -3.2870   24.7670  -31.5810 H   0  0  0  0  0  0  0  0  0  0  0  0
   -5.5338   21.5354  -31.5955 H   0  0  0  0  0  0  0  0  0  0  0  0
   -4.3826   20.0849  -33.2181 H   0  0  0  0  0  0  0  0  0  0  0  0
   -0.4887   26.1357  -38.4052 H   0  0  0  0  0  0  0  0  0  0  0  0
   -1.9761   28.1286  -38.4224 H   0  0  0  0  0  0  0  0  0  0  0  0
   -2.0097   29.5688  -36.4064 H   0  0  0  0  0  0  0  0  0  0  0  0
   -0.6249   29.0737  -34.4134 H   0  0  0  0  0  0  0  0  0  0  0  0
    0.8299   27.0676  -34.4727 H   0  0  0  0  0  0  0  0  0  0  0  0
  1  2  1  0
  2  3  1  0
  3  4  2  0
  4  5  1  0
  5  6  1  0
  6  7  1  0
  7  8  1  0
  8  9  2  0
  9 10  1  0
 10 11  2  0
 11 12  1  0
 12 13  1  0
 12 14  2  0
 14 15  1  0
 11 16  1  0
 16 17  2  0
  6 18  2  0
 18 19  1  0
 19 20  2  0
 20 21  1  0
 21 22  2  0
 21 23  2  0
 21 24  1  0
 24 25  2  0
 25 26  1  0
 26 27  2  0
 27 28  1  0
 28 29  2  0
 19  3  1  0
 29 24  1  0
 17  8  1  0
  1 30  1  0
  1 31  1  0
  1 32  1  0
  4 33  1  0
  5 34  1  0
  9 35  1  0
 10 36  1  0
 13 37  1  0
 13 38  1  0
 15 39  1  0
 16 40  1  0
 17 41  1  0
 25 42  1  0
 26 43  1  0
 27 44  1  0
 28 45  1  0
 29 46  1  0
M  END
>  <smiles>  (50) 
CSc1c[nH]c(Sc2ccc(C(N)=NO)cc2)nc1=NS(=O)(=O)c1ccccc1

>  <score_type>  (50) 
oracle

>  <origin>  (50) 
adgpu

>  <m_score__min__energy>  (50) 
-10.390000000000001

>  <m_primary>  (50) 
energy

$$$$
