0:0
     RDKit          3D

 47 49  0  0  0  0  0  0  0  0999 V2000
    1.0760   23.6590  -24.2940 C   0  0  0  0  0  0  0  0  0  0  0  0
   -0.0230   23.8830  -25.3000 C   0  0  0  0  0  0  0  0  0  0  0  0
   -0.1640   22.9930  -26.3760 C   0  0  0  0  0  0  0  0  0  0  0  0
   -1.1730   23.1750  -27.3220 C   0  0  0  0  0  0  0  0  0  0  0  0
   -2.0760   24.2380  -27.2020 C   0  0  0  0  0  0  0  0  0  0  0  0
   -3.0900   24.4140  -28.2060 N   0  0  0  0  0  0  0  0  0  0  0  0
   -3.9110   23.3480  -28.7160 C   0  0  0  0  0  0  0  0  0  0  0  0
   -3.7490   22.1670  -28.3040 O   0  0  0  0  0  0  0  0  0  0  0  0
   -4.9600   23.6160  -29.7220 C   0  0  0  0  0  0  0  0  0  0  0  0
   -6.0070   22.6920  -29.8820 C   0  0  0  0  0  0  0  0  0  0  0  0
   -7.0180   22.9120  -30.8280 C   0  0  0  0  0  0  0  0  0  0  0  0
   -8.3400   21.7520  -31.0060 S   0  0  0  0  0  0  0  0  0  0  0  0
   -9.2100   21.8100  -29.7810 O   0  0  0  0  0  0  0  0  0  0  0  0
   -9.1790   22.1450  -32.1900 O   0  0  0  0  0  0  0  0  0  0  0  0
   -7.7790   20.1130  -31.2270 N   0  0  0  0  0  0  0  0  0  0  0  0
   -6.5470   20.0530  -32.0120 C   0  0  0  0  0  0  0  0  0  0  0  0
   -6.5130   18.6750  -32.6520 C   0  0  0  0  0  0  0  0  0  0  0  0
   -7.9520   18.1790  -32.6180 C   0  0  0  0  0  0  0  0  0  0  0  0
   -8.7460   19.2940  -31.9550 C   0  0  0  0  0  0  0  0  0  0  0  0
   -6.9860   24.0710  -31.6150 C   0  0  0  0  0  0  0  0  0  0  0  0
   -5.9390   24.9850  -31.4780 C   0  0  0  0  0  0  0  0  0  0  0  0
   -4.9210   24.7590  -30.5460 C   0  0  0  0  0  0  0  0  0  0  0  0
   -3.8630   25.6590  -30.4720 O   0  0  0  0  0  0  0  0  0  0  0  0
   -1.9280   25.1470  -26.1420 C   0  0  0  0  0  0  0  0  0  0  0  0
   -0.9190   24.9730  -25.1790 C   0  0  0  0  0  0  0  0  0  0  0  0
   -0.7900   25.9680  -24.0560 C   0  0  0  0  0  0  0  0  0  0  0  0
    0.6649   23.7428  -23.2771 H   0  0  0  0  0  0  0  0  0  0  0  0
    1.5033   22.6553  -24.4352 H   0  0  0  0  0  0  0  0  0  0  0  0
    1.8621   24.4154  -24.4352 H   0  0  0  0  0  0  0  0  0  0  0  0
    0.5279   22.1436  -26.4744 H   0  0  0  0  0  0  0  0  0  0  0  0
   -1.2597   22.4780  -28.1686 H   0  0  0  0  0  0  0  0  0  0  0  0
   -3.1930   25.3680  -28.6190 H   0  0  0  0  0  0  0  0  0  0  0  0
   -6.0334   21.7864  -29.2582 H   0  0  0  0  0  0  0  0  0  0  0  0
   -6.5518   20.8328  -32.7878 H   0  0  0  0  0  0  0  0  0  0  0  0
   -5.6626   20.2211  -31.3798 H   0  0  0  0  0  0  0  0  0  0  0  0
   -6.1529   18.7410  -33.6893 H   0  0  0  0  0  0  0  0  0  0  0  0
   -5.8323   17.9935  -32.1208 H   0  0  0  0  0  0  0  0  0  0  0  0
   -8.3210   17.9974  -33.6382 H   0  0  0  0  0  0  0  0  0  0  0  0
   -8.0452   17.2288  -32.0717 H   0  0  0  0  0  0  0  0  0  0  0  0
   -9.2604   19.8991  -32.7161 H   0  0  0  0  0  0  0  0  0  0  0  0
   -9.5141   18.8892  -31.2796 H   0  0  0  0  0  0  0  0  0  0  0  0
   -7.7882   24.2615  -32.3431 H   0  0  0  0  0  0  0  0  0  0  0  0
   -5.9149   25.8875  -32.1065 H   0  0  0  0  0  0  0  0  0  0  0  0
   -2.6104   26.0062  -26.0643 H   0  0  0  0  0  0  0  0  0  0  0  0
   -0.8580   25.4433  -23.0916 H   0  0  0  0  0  0  0  0  0  0  0  0
    0.1818   26.4783  -24.1281 H   0  0  0  0  0  0  0  0  0  0  0  0
   -1.5996   26.7092  -24.1281 H   0  0  0  0  0  0  0  0  0  0  0  0
  1  2  1  0
  2  3  2  0
  3  4  1  0
  4  5  2  0
  5  6  1  0
  6  7  1  0
  7  8  2  0
  7  9  1  0
  9 10  2  0
 10 11  1  0
 11 12  1  0
 12 13  2  0
 12 14  2  0
 12 15  1  0
 15 16  1  0
 16 17  1  0
 17 18  1  0
 18 19  1  0
 11 20  2  0
 20 21  1  0
 21 22  2  0
 22 23  1  0
  5 24  1  0
 24 25  2  0
 25 26  1  0
 25  2  1  0
 22  9  1  0
 19 15  1  0
  1 27  1  0
  1 28  1  0
  1 29  1  0
  3 30  1  0
  4 31  1  0
  6 32  1  0
 10 33  1  0
 16 34  1  0
 16 35  1  0
 17 36  1  0
 17 37  1  0
 18 38  1  0
 18 39  1  0
 19 40  1  0
 19 41  1  0
 20 42  1  0
 21 43  1  0
 24 44  1  0
 26 45  1  0
 26 46  1  0
 26 47  1  0
M  CHG  1  23  -1
M  END
>  <UniqueID>  (1) 
1

>  <SMILES>  (1) 
Cc1ccc(NC(=O)c2cc(S(=O)(=O)N3CCCC3)ccc2[O-])cc1C

>  <Energy>  (1) 
58.145580694471846

>  <Genealogy>  (1) 
Cc1ccc(NC(=O)c2cc(S(=O)(=O)N3CCCC3)ccc2[O-])cc1C (protonated)
Cc1ccc(NC(=O)c2cc(S(=O)(=O)N3CCCC3)ccc2[O-])cc1C (3D coordinates assigned)
Cc1ccc(NC(=O)c2cc(S(=O)(=O)N3CCCC3)ccc2[O-])cc1C (nonaromatic ring conformer: 58.145580694471846 kcal/mol)

>  <smiles>  (1) 
Cc1ccc(NC(=O)c2cc(S(=O)(=O)N3CCCC3)ccc2O)cc1C

>  <score_type>  (1) 
oracle

>  <origin>  (1) 
adgpu

>  <m_score__min__energy>  (1) 
-12.32

>  <m_primary>  (1) 
energy

$$$$
1:0
     RDKit          3D

 41 43  0  0  0  0  0  0  0  0999 V2000
   -1.5150   22.9910  -29.4730 O   0  0  0  0  0  0  0  0  0  0  0  0
   -2.3980   23.8480  -29.7340 C   0  0  0  0  0  0  0  0  0  0  0  0
   -2.2080   25.1940  -29.2760 N   0  0  0  0  0  0  0  0  0  0  0  0
   -1.7150   25.5900  -27.9870 C   0  0  0  0  0  0  0  0  0  0  0  0
   -2.3810   25.1480  -26.8380 C   0  0  0  0  0  0  0  0  0  0  0  0
   -1.9260   25.5310  -25.5750 C   0  0  0  0  0  0  0  0  0  0  0  0
   -0.8140   26.3710  -25.4750 C   0  0  0  0  0  0  0  0  0  0  0  0
   -0.1930   26.8140  -26.6000 N   0  0  0  0  0  0  0  0  0  0  0  0
   -0.6150   26.4520  -27.8410 C   0  0  0  0  0  0  0  0  0  0  0  0
   -3.5810   23.4480  -30.5320 C   0  0  0  0  0  0  0  0  0  0  0  0
   -3.6650   22.1340  -31.0230 C   0  0  0  0  0  0  0  0  0  0  0  0
   -4.7790   21.7200  -31.7640 C   0  0  0  0  0  0  0  0  0  0  0  0
   -4.8560   20.0670  -32.3740 S   0  0  0  0  0  0  0  0  0  0  0  0
   -4.9810   19.1060  -31.2240 O   0  0  0  0  0  0  0  0  0  0  0  0
   -3.5730   19.7710  -33.0990 O   0  0  0  0  0  0  0  0  0  0  0  0
   -6.2010   19.8830  -33.4810 N   0  0  0  0  0  0  0  0  0  0  0  0
   -7.4980   19.8950  -32.7810 C   0  0  0  0  0  0  0  0  0  0  0  0
   -7.7580   18.5810  -32.0050 C   0  0  0  0  0  0  0  0  0  0  0  0
   -6.9480   17.5000  -32.4340 O   0  0  0  0  0  0  0  0  0  0  0  0
   -6.8600   17.4820  -33.8400 C   0  0  0  0  0  0  0  0  0  0  0  0
   -6.0440   18.6890  -34.3400 C   0  0  0  0  0  0  0  0  0  0  0  0
   -5.8080   22.6280  -32.0340 C   0  0  0  0  0  0  0  0  0  0  0  0
   -5.7250   23.9410  -31.5690 C   0  0  0  0  0  0  0  0  0  0  0  0
   -4.6140   24.3630  -30.8270 C   0  0  0  0  0  0  0  0  0  0  0  0
   -4.5260   25.6890  -30.4060 O   0  0  0  0  0  0  0  0  0  0  0  0
   -3.2638   24.4982  -26.9303 H   0  0  0  0  0  0  0  0  0  0  0  0
   -2.4374   25.1753  -24.6684 H   0  0  0  0  0  0  0  0  0  0  0  0
   -0.4410   26.6739  -24.4855 H   0  0  0  0  0  0  0  0  0  0  0  0
   -0.0947   26.8344  -28.7315 H   0  0  0  0  0  0  0  0  0  0  0  0
   -2.8486   21.4243  -30.8236 H   0  0  0  0  0  0  0  0  0  0  0  0
   -7.5085   20.7340  -32.0697 H   0  0  0  0  0  0  0  0  0  0  0  0
   -8.2886   20.0010  -33.5384 H   0  0  0  0  0  0  0  0  0  0  0  0
   -7.5602   18.7620  -30.9382 H   0  0  0  0  0  0  0  0  0  0  0  0
   -8.8035   18.2959  -32.1937 H   0  0  0  0  0  0  0  0  0  0  0  0
   -6.3668   16.5526  -34.1609 H   0  0  0  0  0  0  0  0  0  0  0  0
   -7.8741   17.5358  -34.2627 H   0  0  0  0  0  0  0  0  0  0  0  0
   -4.9804   18.4093  -34.3619 H   0  0  0  0  0  0  0  0  0  0  0  0
   -6.4183   18.9498  -35.3410 H   0  0  0  0  0  0  0  0  0  0  0  0
   -6.6852   22.3062  -32.6145 H   0  0  0  0  0  0  0  0  0  0  0  0
   -6.5376   24.6498  -31.7865 H   0  0  0  0  0  0  0  0  0  0  0  0
   -4.2800   25.9290  -29.4540 H   0  0  0  0  0  0  0  0  0  0  0  0
  1  2  2  0
  2  3  1  0
  3  4  1  0
  4  5  2  0
  5  6  1  0
  6  7  2  0
  7  8  1  0
  8  9  2  0
  2 10  1  0
 10 11  2  0
 11 12  1  0
 12 13  1  0
 13 14  2  0
 13 15  2  0
 13 16  1  0
 16 17  1  0
 17 18  1  0
 18 19  1  0
 19 20  1  0
 20 21  1  0
 12 22  2  0
 22 23  1  0
 23 24  2  0
 24 25  1  0
  9  4  1  0
 24 10  1  0
 21 16  1  0
  5 26  1  0
  6 27  1  0
  7 28  1  0
  9 29  1  0
 11 30  1  0
 17 31  1  0
 17 32  1  0
 18 33  1  0
 18 34  1  0
 20 35  1  0
 20 36  1  0
 21 37  1  0
 21 38  1  0
 22 39  1  0
 23 40  1  0
 25 41  1  0
M  CHG  1   3  -1
M  END
>  <UniqueID>  (2) 
2

>  <SMILES>  (2) 
O=C([N-]c1cccnc1)c1cc(S(=O)(=O)N2CCOCC2)ccc1O

>  <Energy>  (2) 
62.14139348428858

>  <Genealogy>  (2) 
O=C([N-]c1cccnc1)c1cc(S(=O)(=O)N2CCOCC2)ccc1O (protonated)
O=C([N-]c1cccnc1)c1cc(S(=O)(=O)N2CCOCC2)ccc1O (3D coordinates assigned)
O=C([N-]c1cccnc1)c1cc(S(=O)(=O)N2CCOCC2)ccc1O (nonaromatic ring conformer: 62.14139348428858 kcal/mol)

>  <smiles>  (2) 
O=C(Nc1cccnc1)c1cc(S(=O)(=O)N2CCOCC2)ccc1O

>  <score_type>  (2) 
oracle

>  <origin>  (2) 
adgpu

>  <m_score__min__energy>  (2) 
-9.8300000000000001

>  <m_primary>  (2) 
energy

$$$$
2:0
     RDKit          3D

 42 45  0  0  0  0  0  0  0  0999 V2000
   -9.1330   21.2030  -30.3990 O   0  0  0  0  0  0  0  0  0  0  0  0
   -8.6950   21.4230  -31.8200 S   0  0  0  0  0  0  0  0  0  0  0  0
   -9.9150   21.6100  -32.6810 O   0  0  0  0  0  0  0  0  0  0  0  0
   -7.7190   22.8540  -31.9000 N   0  0  0  0  0  0  0  0  0  0  0  0
   -6.3840   22.9720  -31.3870 C   0  0  0  0  0  0  0  0  0  0  0  0
   -5.5760   21.8100  -31.3380 C   0  0  0  0  0  0  0  0  0  0  0  0
   -4.2500   21.8710  -30.8630 C   0  0  0  0  0  0  0  0  0  0  0  0
   -3.4470   20.7330  -30.8180 O   0  0  0  0  0  0  0  0  0  0  0  0
   -3.7720   23.1120  -30.4440 C   0  0  0  0  0  0  0  0  0  0  0  0
   -2.5660   23.5450  -29.9370 C   0  0  0  0  0  0  0  0  0  0  0  0
   -1.1370   22.5780  -29.6050 S   0  0  0  0  0  0  0  0  0  0  0  0
   -0.6260   22.0170  -30.9020 O   0  0  0  0  0  0  0  0  0  0  0  0
   -0.0750   23.4500  -28.9950 O   0  0  0  0  0  0  0  0  0  0  0  0
   -1.5210   21.2760  -28.4820 C   0  0  0  0  0  0  0  0  0  0  0  0
   -2.8100   21.1690  -27.9380 C   0  0  0  0  0  0  0  0  0  0  0  0
   -3.1120   20.1360  -27.0440 C   0  0  0  0  0  0  0  0  0  0  0  0
   -2.1280   19.2110  -26.6860 C   0  0  0  0  0  0  0  0  0  0  0  0
   -0.8410   19.3170  -27.2190 C   0  0  0  0  0  0  0  0  0  0  0  0
   -0.5370   20.3480  -28.1150 C   0  0  0  0  0  0  0  0  0  0  0  0
   -2.6470   24.8730  -29.6960 N   0  0  0  0  0  0  0  0  0  0  0  0
   -3.8600   25.3000  -30.0330 N   0  0  0  0  0  0  0  0  0  0  0  0
   -4.5460   24.2370  -30.4870 C   0  0  0  0  0  0  0  0  0  0  0  0
   -5.8580   24.2100  -30.9480 C   0  0  0  0  0  0  0  0  0  0  0  0
   -7.7600   20.0300  -32.3510 C   0  0  0  0  0  0  0  0  0  0  0  0
   -6.9360   20.1150  -33.4850 C   0  0  0  0  0  0  0  0  0  0  0  0
   -6.1850   19.0060  -33.8890 C   0  0  0  0  0  0  0  0  0  0  0  0
   -6.2560   17.8100  -33.1670 C   0  0  0  0  0  0  0  0  0  0  0  0
   -7.0800   17.7200  -32.0410 C   0  0  0  0  0  0  0  0  0  0  0  0
   -7.8300   18.8270  -31.6320 C   0  0  0  0  0  0  0  0  0  0  0  0
   -5.9883   20.8474  -31.6749 H   0  0  0  0  0  0  0  0  0  0  0  0
   -2.4390   20.7930  -30.9050 H   0  0  0  0  0  0  0  0  0  0  0  0
   -3.5849   21.8990  -28.2151 H   0  0  0  0  0  0  0  0  0  0  0  0
   -4.1247   20.0521  -26.6228 H   0  0  0  0  0  0  0  0  0  0  0  0
   -2.3668   18.3986  -25.9839 H   0  0  0  0  0  0  0  0  0  0  0  0
   -0.0664   18.5898  -26.9343 H   0  0  0  0  0  0  0  0  0  0  0  0
    0.4773   20.4303  -28.5325 H   0  0  0  0  0  0  0  0  0  0  0  0
   -6.4689   25.1245  -30.9706 H   0  0  0  0  0  0  0  0  0  0  0  0
   -6.8811   21.0538  -34.0557 H   0  0  0  0  0  0  0  0  0  0  0  0
   -5.5377   19.0746  -34.7757 H   0  0  0  0  0  0  0  0  0  0  0  0
   -5.6632   16.9398  -33.4853 H   0  0  0  0  0  0  0  0  0  0  0  0
   -7.1383   16.7777  -31.4765 H   0  0  0  0  0  0  0  0  0  0  0  0
   -8.4762   18.7547  -30.7448 H   0  0  0  0  0  0  0  0  0  0  0  0
  1  2  2  0
  2  3  2  0
  2  4  1  0
  4  5  1  0
  5  6  2  0
  6  7  1  0
  7  8  1  0
  7  9  2  0
  9 10  1  0
 10 11  1  0
 11 12  2  0
 11 13  2  0
 11 14  1  0
 14 15  2  0
 15 16  1  0
 16 17  2  0
 17 18  1  0
 18 19  2  0
 10 20  2  0
 20 21  1  0
 21 22  1  0
 22 23  2  0
  2 24  1  0
 24 25  2  0
 25 26  1  0
 26 27  2  0
 27 28  1  0
 28 29  2  0
 23  5  1  0
 29 24  1  0
 22  9  1  0
 19 14  1  0
  6 30  1  0
  8 31  1  0
 15 32  1  0
 16 33  1  0
 17 34  1  0
 18 35  1  0
 19 36  1  0
 23 37  1  0
 25 38  1  0
 26 39  1  0
 27 40  1  0
 28 41  1  0
 29 42  1  0
M  CHG  2   4  -1  21  -1
M  END
>  <UniqueID>  (3) 
3

>  <SMILES>  (3) 
O=S(=O)([N-]c1cc(O)c2c(S(=O)(=O)c3ccccc3)n[n-]c2c1)c1ccccc1

>  <Energy>  (3) 
89.52089204829625

>  <Genealogy>  (3) 
O=S(=O)([N-]c1cc(O)c2c(S(=O)(=O)c3ccccc3)n[n-]c2c1)c1ccccc1 (protonated)
O=S(=O)([N-]c1cc(O)c2c(S(=O)(=O)c3ccccc3)n[n-]c2c1)c1ccccc1 (3D coordinates assigned)
O=S(=O)([N-]c1cc(O)c2c(S(=O)(=O)c3ccccc3)n[n-]c2c1)c1ccccc1 (optimized conformer: 89.52089204829625 kcal/mol)

>  <smiles>  (3) 
O=S(=O)(Nc1cc(O)c2c(S(=O)(=O)c3ccccc3)n[nH]c2c1)c1ccccc1

>  <score_type>  (3) 
oracle

>  <origin>  (3) 
adgpu

>  <m_score__min__energy>  (3) 
-11.279999999999999

>  <m_primary>  (3) 
energy

$$$$
3:0
     RDKit          3D

 41 43  0  0  0  0  0  0  0  0999 V2000
   -8.3850   19.2210  -32.2490 C   0  0  0  0  0  0  0  0  0  0  0  0
   -8.1950   20.6880  -32.0300 C   0  0  0  0  0  0  0  0  0  0  0  0
   -6.9430   21.1920  -31.6530 C   0  0  0  0  0  0  0  0  0  0  0  0
   -6.7840   22.5710  -31.4300 C   0  0  0  0  0  0  0  0  0  0  0  0
   -5.4610   23.1160  -31.0390 C   0  0  0  0  0  0  0  0  0  0  0  0
   -5.1510   24.2920  -31.3730 O   0  0  0  0  0  0  0  0  0  0  0  0
   -4.5100   22.3050  -30.3260 N   0  0  0  0  0  0  0  0  0  0  0  0
   -3.4160   22.8420  -29.5620 C   0  0  0  0  0  0  0  0  0  0  0  0
   -3.6310   23.5030  -28.3390 C   0  0  0  0  0  0  0  0  0  0  0  0
   -2.5490   23.9950  -27.6030 C   0  0  0  0  0  0  0  0  0  0  0  0
   -1.2400   23.8290  -28.0740 C   0  0  0  0  0  0  0  0  0  0  0  0
    0.1220   24.4260  -27.1340 S   0  0  0  0  0  0  0  0  0  0  0  0
    1.2120   24.9140  -28.0480 O   0  0  0  0  0  0  0  0  0  0  0  0
    0.6690   23.3110  -26.2870 O   0  0  0  0  0  0  0  0  0  0  0  0
   -0.4120   25.7390  -26.1040 C   0  0  0  0  0  0  0  0  0  0  0  0
   -0.3150   27.0780  -26.4020 C   0  0  0  0  0  0  0  0  0  0  0  0
   -0.8310   27.7540  -25.3640 N   0  0  0  0  0  0  0  0  0  0  0  0
   -0.8620   29.2010  -25.1920 C   0  0  0  0  0  0  0  0  0  0  0  0
   -1.2010   26.8250  -24.4600 C   0  0  0  0  0  0  0  0  0  0  0  0
   -0.9640   25.5660  -24.8850 N   0  0  0  0  0  0  0  0  0  0  0  0
   -1.0200   23.1460  -29.2770 C   0  0  0  0  0  0  0  0  0  0  0  0
   -2.1010   22.6520  -30.0140 C   0  0  0  0  0  0  0  0  0  0  0  0
   -7.8920   23.4160  -31.6050 C   0  0  0  0  0  0  0  0  0  0  0  0
   -9.1240   22.8730  -31.9770 C   0  0  0  0  0  0  0  0  0  0  0  0
   -9.2490   21.5360  -32.1770 N   0  0  0  0  0  0  0  0  0  0  0  0
   -8.4511   18.7107  -31.2768 H   0  0  0  0  0  0  0  0  0  0  0  0
   -9.3125   19.0520  -32.8157 H   0  0  0  0  0  0  0  0  0  0  0  0
   -7.5311   18.8212  -32.8157 H   0  0  0  0  0  0  0  0  0  0  0  0
   -6.0876   20.5111  -31.5320 H   0  0  0  0  0  0  0  0  0  0  0  0
   -4.5480   21.2700  -30.4630 H   0  0  0  0  0  0  0  0  0  0  0  0
   -4.6554   23.6334  -27.9600 H   0  0  0  0  0  0  0  0  0  0  0  0
   -2.7262   24.5148  -26.6499 H   0  0  0  0  0  0  0  0  0  0  0  0
    0.1068   27.5136  -27.3198 H   0  0  0  0  0  0  0  0  0  0  0  0
   -0.8672   29.4427  -24.1189 H   0  0  0  0  0  0  0  0  0  0  0  0
    0.0268   29.6454  -25.6637 H   0  0  0  0  0  0  0  0  0  0  0  0
   -1.7690   29.6070  -25.6637 H   0  0  0  0  0  0  0  0  0  0  0  0
   -1.6468   27.0663  -23.4838 H   0  0  0  0  0  0  0  0  0  0  0  0
    0.0066   22.9977  -29.6433 H   0  0  0  0  0  0  0  0  0  0  0  0
   -1.9194   22.1109  -30.9543 H   0  0  0  0  0  0  0  0  0  0  0  0
   -7.7901   24.5002  -31.4499 H   0  0  0  0  0  0  0  0  0  0  0  0
   -9.9958   23.5308  -32.1083 H   0  0  0  0  0  0  0  0  0  0  0  0
  1  2  1  0
  2  3  2  0
  3  4  1  0
  4  5  1  0
  5  6  2  0
  5  7  1  0
  7  8  1  0
  8  9  2  0
  9 10  1  0
 10 11  2  0
 11 12  1  0
 12 13  2  0
 12 14  2  0
 12 15  1  0
 15 16  2  0
 16 17  1  0
 17 18  1  0
 17 19  1  0
 19 20  2  0
 11 21  1  0
 21 22  2  0
  4 23  2  0
 23 24  1  0
 24 25  2  0
 25  2  1  0
 22  8  1  0
 20 15  1  0
  1 26  1  0
  1 27  1  0
  1 28  1  0
  3 29  1  0
  7 30  1  0
  9 31  1  0
 10 32  1  0
 16 33  1  0
 18 34  1  0
 18 35  1  0
 18 36  1  0
 19 37  1  0
 21 38  1  0
 22 39  1  0
 23 40  1  0
 24 41  1  0
M  END
>  <UniqueID>  (4) 
4

>  <SMILES>  (4) 
Cc1cc(C(=O)Nc2ccc(S(=O)(=O)c3cn(C)cn3)cc2)ccn1

>  <Energy>  (4) 
78.52529583245051

>  <Genealogy>  (4) 
Cc1cc(C(=O)Nc2ccc(S(=O)(=O)c3cn(C)cn3)cc2)ccn1 (3D coordinates assigned)
Cc1cc(C(=O)Nc2ccc(S(=O)(=O)c3cn(C)cn3)cc2)ccn1 (optimized conformer: 78.52529583245051 kcal/mol)

>  <smiles>  (4) 
Cc1cc(C(=O)Nc2ccc(S(=O)(=O)c3cn(C)cn3)cc2)ccn1

>  <score_type>  (4) 
oracle

>  <origin>  (4) 
adgpu

>  <m_score__min__energy>  (4) 
-8.3300000000000001

>  <m_primary>  (4) 
energy

$$$$
4:0
     RDKit          3D

 25 26  0  0  0  0  0  0  0  0999 V2000
   -2.4760   25.6770  -29.7230 H   0  0  0  0  0  0  0  0  0  0  0  0
   -1.5550   25.6090  -29.3030 O   0  0  0  0  0  0  0  0  0  0  0  0
   -1.3820   25.2520  -27.9670 C   0  0  0  0  0  0  0  0  0  0  0  0
   -0.7810   26.1640  -27.0890 C   0  0  0  0  0  0  0  0  0  0  0  0
   -0.4979   27.1642  -27.4488 H   0  0  0  0  0  0  0  0  0  0  0  0
   -0.5400   25.8110  -25.7630 C   0  0  0  0  0  0  0  0  0  0  0  0
   -0.0710   26.5276  -25.0727 H   0  0  0  0  0  0  0  0  0  0  0  0
   -0.9000   24.5400  -25.3220 C   0  0  0  0  0  0  0  0  0  0  0  0
   -0.7016   24.2422  -24.2818 H   0  0  0  0  0  0  0  0  0  0  0  0
   -1.4960   23.6680  -26.1760 N   0  0  0  0  0  0  0  0  0  0  0  0
   -1.7680   23.9770  -27.4730 C   0  0  0  0  0  0  0  0  0  0  0  0
   -2.3570   23.0670  -28.2010 N   0  0  0  0  0  0  0  0  0  0  0  0
   -2.8420   23.1830  -29.5460 C   0  0  0  0  0  0  0  0  0  0  0  0
   -2.0440   22.9600  -30.4950 O   0  0  0  0  0  0  0  0  0  0  0  0
   -4.2660   23.4920  -29.8410 C   0  0  0  0  0  0  0  0  0  0  0  0
   -5.2620   22.5720  -29.4610 C   0  0  0  0  0  0  0  0  0  0  0  0
   -4.9785   21.6469  -28.9377 H   0  0  0  0  0  0  0  0  0  0  0  0
   -6.6090   22.8240  -29.7430 C   0  0  0  0  0  0  0  0  0  0  0  0
   -7.3781   22.0963  -29.4447 H   0  0  0  0  0  0  0  0  0  0  0  0
   -6.9780   23.9970  -30.4020 C   0  0  0  0  0  0  0  0  0  0  0  0
   -8.0368   24.1904  -30.6292 H   0  0  0  0  0  0  0  0  0  0  0  0
   -6.0040   24.9250  -30.7730 C   0  0  0  0  0  0  0  0  0  0  0  0
   -6.2989   25.8505  -31.2893 H   0  0  0  0  0  0  0  0  0  0  0  0
   -4.6540   24.6850  -30.4920 C   0  0  0  0  0  0  0  0  0  0  0  0
   -3.7170   25.6500  -30.8460 O   0  0  0  0  0  0  0  0  0  0  0  0
  1  2  1  0
  2  3  1  0
  3  4  2  0
  4  5  1  0
  4  6  1  0
  6  7  1  0
  6  8  2  0
  8  9  1  0
  8 10  1  0
 10 11  1  0
 11 12  2  0
 12 13  1  0
 13 14  2  0
 13 15  1  0
 15 16  2  0
 16 17  1  0
 16 18  1  0
 18 19  1  0
 18 20  2  0
 20 21  1  0
 20 22  1  0
 22 23  1  0
 22 24  2  0
 24 25  1  0
 11  3  1  0
 24 15  1  0
M  CHG  2  10  -1  25  -1
M  END
>  <UniqueID>  (5) 
5

>  <SMILES>  (5) 
O=C(/N=c1/[n-]cccc1O)c1ccccc1[O-]

>  <Energy>  (5) 
42.162567329218554

>  <Genealogy>  (5) 
O=C(N=c1[n-]cccc1O)c1ccccc1[O-] (protonated)
O=C(/N=c1/[n-]cccc1O)c1ccccc1[O-] (cis-trans isomerization)
O=C(/N=c1/[n-]cccc1O)c1ccccc1[O-] (3D coordinates assigned)
O=C(/N=c1/[n-]cccc1O)c1ccccc1[O-] (optimized conformer: 42.162567329218554 kcal/mol)

>  <smiles>  (5) 
O=C(N=c1[nH]cccc1O)c1ccccc1O

>  <score_type>  (5) 
oracle

>  <origin>  (5) 
adgpu

>  <m_score__min__energy>  (5) 
-10.279999999999999

>  <m_primary>  (5) 
energy

$$$$
5:0
     RDKit          3D

 47 49  0  0  0  0  0  0  0  0999 V2000
   -1.5170   20.7580  -28.8970 C   0  0  0  0  0  0  0  0  0  0  0  0
   -0.8870   21.5130  -30.4290 S   0  0  0  0  0  0  0  0  0  0  0  0
   -2.4700   21.3970  -31.2710 C   0  0  0  0  0  0  0  0  0  0  0  0
   -2.6410   20.4350  -32.2160 N   0  0  0  0  0  0  0  0  0  0  0  0
   -3.8340   20.2760  -32.8420 C   0  0  0  0  0  0  0  0  0  0  0  0
   -3.9920   19.2440  -33.8260 C   0  0  0  0  0  0  0  0  0  0  0  0
   -4.1190   18.4110  -34.6180 N   0  0  0  0  0  0  0  0  0  0  0  0
   -4.8830   21.0830  -32.5300 N   0  0  0  0  0  0  0  0  0  0  0  0
   -4.7720   22.0680  -31.5960 C   0  0  0  0  0  0  0  0  0  0  0  0
   -5.9070   22.9240  -31.3430 N   0  0  0  0  0  0  0  0  0  0  0  0
   -6.7880   23.3230  -32.4490 C   0  0  0  0  0  0  0  0  0  0  0  0
   -8.2490   23.3840  -31.9830 C   0  0  0  0  0  0  0  0  0  0  0  0
   -8.5700   22.2950  -31.0320 N   0  0  0  0  0  0  0  0  0  0  0  0
   -8.5560   20.9780  -31.6860 C   0  0  0  0  0  0  0  0  0  0  0  0
   -7.7300   22.3110  -29.8060 C   0  0  0  0  0  0  0  0  0  0  0  0
   -6.4070   23.0820  -29.9750 C   0  0  0  0  0  0  0  0  0  0  0  0
   -3.5410   22.2370  -30.9230 C   0  0  0  0  0  0  0  0  0  0  0  0
   -3.3760   23.1890  -29.8660 N   0  0  0  0  0  0  0  0  0  0  0  0
   -3.1750   24.5900  -30.0740 C   0  0  0  0  0  0  0  0  0  0  0  0
   -3.9370   25.2290  -30.8470 O   0  0  0  0  0  0  0  0  0  0  0  0
   -2.1760   25.2980  -29.3380 N   0  0  0  0  0  0  0  0  0  0  0  0
   -1.5290   24.8500  -28.1400 C   0  0  0  0  0  0  0  0  0  0  0  0
   -0.4310   23.9750  -28.1660 C   0  0  0  0  0  0  0  0  0  0  0  0
    0.1930   23.5900  -26.9760 C   0  0  0  0  0  0  0  0  0  0  0  0
   -0.2640   24.0810  -25.7470 C   0  0  0  0  0  0  0  0  0  0  0  0
    0.3690   23.6910  -24.5700 O   0  0  0  0  0  0  0  0  0  0  0  0
   -1.3510   24.9640  -25.7170 C   0  0  0  0  0  0  0  0  0  0  0  0
   -1.9760   25.3500  -26.9070 C   0  0  0  0  0  0  0  0  0  0  0  0
   -1.0847   21.2761  -28.0282 H   0  0  0  0  0  0  0  0  0  0  0  0
   -2.6131   20.8463  -28.8685 H   0  0  0  0  0  0  0  0  0  0  0  0
   -1.2339   19.6954  -28.8685 H   0  0  0  0  0  0  0  0  0  0  0  0
   -6.4834   24.3151  -32.8135 H   0  0  0  0  0  0  0  0  0  0  0  0
   -6.7042   22.5785  -33.2545 H   0  0  0  0  0  0  0  0  0  0  0  0
   -8.4249   24.3511  -31.4892 H   0  0  0  0  0  0  0  0  0  0  0  0
   -8.8942   23.2673  -32.8662 H   0  0  0  0  0  0  0  0  0  0  0  0
   -8.5476   20.1884  -30.9202 H   0  0  0  0  0  0  0  0  0  0  0  0
   -9.4531   20.8707  -32.3135 H   0  0  0  0  0  0  0  0  0  0  0  0
   -7.6569   20.8898  -32.3135 H   0  0  0  0  0  0  0  0  0  0  0  0
   -8.3060   22.7821  -28.9959 H   0  0  0  0  0  0  0  0  0  0  0  0
   -7.4683   21.2666  -29.5806 H   0  0  0  0  0  0  0  0  0  0  0  0
   -6.5785   24.1492  -29.7707 H   0  0  0  0  0  0  0  0  0  0  0  0
   -5.6632   22.6823  -29.2700 H   0  0  0  0  0  0  0  0  0  0  0  0
   -0.0601   23.5907  -29.1276 H   0  0  0  0  0  0  0  0  0  0  0  0
    1.0474   22.8978  -27.0052 H   0  0  0  0  0  0  0  0  0  0  0  0
    0.2490   24.2100  -23.7100 H   0  0  0  0  0  0  0  0  0  0  0  0
   -1.7139   25.3548  -24.7549 H   0  0  0  0  0  0  0  0  0  0  0  0
   -2.8237   26.0503  -26.8765 H   0  0  0  0  0  0  0  0  0  0  0  0
  1  2  1  0
  2  3  1  0
  3  4  2  0
  4  5  1  0
  5  6  1  0
  6  7  3  0
  5  8  2  0
  8  9  1  0
  9 10  1  0
 10 11  1  0
 11 12  1  0
 12 13  1  0
 13 14  1  0
 13 15  1  0
 15 16  1  0
  9 17  2  0
 17 18  1  0
 18 19  1  0
 19 20  2  0
 19 21  1  0
 21 22  1  0
 22 23  2  0
 23 24  1  0
 24 25  2  0
 25 26  1  0
 25 27  1  0
 27 28  2  0
 17  3  1  0
 28 22  1  0
 16 10  1  0
  1 29  1  0
  1 30  1  0
  1 31  1  0
 11 32  1  0
 11 33  1  0
 12 34  1  0
 12 35  1  0
 14 36  1  0
 14 37  1  0
 14 38  1  0
 15 39  1  0
 15 40  1  0
 16 41  1  0
 16 42  1  0
 23 43  1  0
 24 44  1  0
 26 45  1  0
 27 46  1  0
 28 47  1  0
M  CHG  2  18  -1  21  -1
M  END
>  <UniqueID>  (6) 
6

>  <SMILES>  (6) 
CSc1nc(C#N)nc(N2CCN(C)CC2)c1[N-]C(=O)[N-]c1ccc(O)cc1

>  <Energy>  (6) 
64.3850817539818

>  <Genealogy>  (6) 
CSc1nc(C#N)nc(N2CCN(C)CC2)c1[N-]C(=O)[N-]c1ccc(O)cc1 (protonated)
CSc1nc(C#N)nc(N2CCN(C)CC2)c1[N-]C(=O)[N-]c1ccc(O)cc1 (3D coordinates assigned)
CSc1nc(C#N)nc(N2CCN(C)CC2)c1[N-]C(=O)[N-]c1ccc(O)cc1 (nonaromatic ring conformer: 64.3850817539818 kcal/mol)

>  <smiles>  (6) 
CSc1nc(C#N)nc(N2CCN(C)CC2)c1NC(=O)Nc1ccc(O)cc1

>  <score_type>  (6) 
oracle

>  <origin>  (6) 
adgpu

>  <m_score__min__energy>  (6) 
-10.630000000000001

>  <m_primary>  (6) 
energy

$$$$
6:0
     RDKit          3D

 56 59  0  0  0  0  0  0  0  0999 V2000
   -5.3690   26.5630  -30.4690 O   0  0  0  0  0  0  0  0  0  0  0  0
   -4.9150   25.3950  -30.5910 C   0  0  0  0  0  0  0  0  0  0  0  0
   -3.5080   25.1850  -30.3990 N   0  0  0  0  0  0  0  0  0  0  0  0
   -2.9010   24.0750  -29.7250 C   0  0  0  0  0  0  0  0  0  0  0  0
   -2.9020   24.0510  -28.3250 C   0  0  0  0  0  0  0  0  0  0  0  0
   -2.3230   22.9830  -27.6370 C   0  0  0  0  0  0  0  0  0  0  0  0
   -1.7260   21.9350  -28.3420 C   0  0  0  0  0  0  0  0  0  0  0  0
   -1.6930   21.9610  -29.7440 C   0  0  0  0  0  0  0  0  0  0  0  0
   -0.9770   20.6300  -30.6500 S   0  0  0  0  0  0  0  0  0  0  0  0
    0.0650   21.1930  -31.5730 O   0  0  0  0  0  0  0  0  0  0  0  0
   -0.3070   19.6710  -29.7040 O   0  0  0  0  0  0  0  0  0  0  0  0
   -2.1910   19.7960  -31.6010 N   0  0  0  0  0  0  0  0  0  0  0  0
   -3.4890   20.5080  -31.5640 C   0  0  0  0  0  0  0  0  0  0  0  0
   -3.7720   21.2940  -32.8560 C   0  0  0  0  0  0  0  0  0  0  0  0
   -2.5770   21.8520  -33.3500 O   0  0  0  0  0  0  0  0  0  0  0  0
   -1.7160   20.8330  -33.8330 C   0  0  0  0  0  0  0  0  0  0  0  0
   -1.7300   19.5430  -32.9780 C   0  0  0  0  0  0  0  0  0  0  0  0
   -2.2710   23.0360  -30.4310 C   0  0  0  0  0  0  0  0  0  0  0  0
   -5.8490   24.2770  -30.8710 C   0  0  0  0  0  0  0  0  0  0  0  0
   -6.3090   23.4420  -29.8370 C   0  0  0  0  0  0  0  0  0  0  0  0
   -7.1990   22.3990  -30.1120 C   0  0  0  0  0  0  0  0  0  0  0  0
   -7.6520   22.1850  -31.4220 C   0  0  0  0  0  0  0  0  0  0  0  0
   -8.7840   20.8850  -31.7850 S   0  0  0  0  0  0  0  0  0  0  0  0
   -9.1160   20.1240  -30.5310 O   0  0  0  0  0  0  0  0  0  0  0  0
  -10.0450   21.4940  -32.3340 O   0  0  0  0  0  0  0  0  0  0  0  0
   -8.0790   19.8100  -32.9730 N   0  0  0  0  0  0  0  0  0  0  0  0
   -6.6170   19.9020  -32.9370 C   0  0  0  0  0  0  0  0  0  0  0  0
   -6.1000   18.8400  -31.9780 C   0  0  0  0  0  0  0  0  0  0  0  0
   -7.2450   17.8600  -31.8080 C   0  0  0  0  0  0  0  0  0  0  0  0
   -8.3870   18.4130  -32.6490 C   0  0  0  0  0  0  0  0  0  0  0  0
   -7.2050   23.0190  -32.4510 C   0  0  0  0  0  0  0  0  0  0  0  0
   -6.3140   24.0620  -32.1790 C   0  0  0  0  0  0  0  0  0  0  0  0
   -3.3615   24.8782  -27.7641 H   0  0  0  0  0  0  0  0  0  0  0  0
   -2.3369   22.9667  -26.5372 H   0  0  0  0  0  0  0  0  0  0  0  0
   -1.2816   21.0890  -27.7973 H   0  0  0  0  0  0  0  0  0  0  0  0
   -4.2913   19.7697  -31.4183 H   0  0  0  0  0  0  0  0  0  0  0  0
   -3.4474   21.2320  -30.7369 H   0  0  0  0  0  0  0  0  0  0  0  0
   -4.1964   20.6150  -33.6102 H   0  0  0  0  0  0  0  0  0  0  0  0
   -4.4860   22.1021  -32.6388 H   0  0  0  0  0  0  0  0  0  0  0  0
   -2.0259   20.5738  -34.8561 H   0  0  0  0  0  0  0  0  0  0  0  0
   -0.6923   21.2332  -33.7905 H   0  0  0  0  0  0  0  0  0  0  0  0
   -2.4039   18.8124  -33.4492 H   0  0  0  0  0  0  0  0  0  0  0  0
   -0.7002   19.1599  -32.9257 H   0  0  0  0  0  0  0  0  0  0  0  0
   -2.2316   23.0672  -31.5299 H   0  0  0  0  0  0  0  0  0  0  0  0
   -5.9665   23.6104  -28.8053 H   0  0  0  0  0  0  0  0  0  0  0  0
   -7.5448   21.7444  -29.2984 H   0  0  0  0  0  0  0  0  0  0  0  0
   -6.2075   19.7272  -33.9429 H   0  0  0  0  0  0  0  0  0  0  0  0
   -6.3063   20.9024  -32.6013 H   0  0  0  0  0  0  0  0  0  0  0  0
   -5.2200   18.3341  -32.4019 H   0  0  0  0  0  0  0  0  0  0  0  0
   -5.7865   19.2739  -31.0170 H   0  0  0  0  0  0  0  0  0  0  0  0
   -6.9525   16.8621  -32.1667 H   0  0  0  0  0  0  0  0  0  0  0  0
   -7.5335   17.7510  -30.7521 H   0  0  0  0  0  0  0  0  0  0  0  0
   -8.4849   17.8282  -33.5755 H   0  0  0  0  0  0  0  0  0  0  0  0
   -9.3344   18.3505  -32.0936 H   0  0  0  0  0  0  0  0  0  0  0  0
   -7.5560   22.8539  -33.4803 H   0  0  0  0  0  0  0  0  0  0  0  0
   -5.9752   24.7181  -32.9943 H   0  0  0  0  0  0  0  0  0  0  0  0
  1  2  2  0
  2  3  1  0
  3  4  1  0
  4  5  2  0
  5  6  1  0
  6  7  2  0
  7  8  1  0
  8  9  1  0
  9 10  2  0
  9 11  2  0
  9 12  1  0
 12 13  1  0
 13 14  1  0
 14 15  1  0
 15 16  1  0
 16 17  1  0
  8 18  2  0
  2 19  1  0
 19 20  2  0
 20 21  1  0
 21 22  2  0
 22 23  1  0
 23 24  2  0
 23 25  2  0
 23 26  1  0
 26 27  1  0
 27 28  1  0
 28 29  1  0
 29 30  1  0
 22 31  1  0
 31 32  2  0
 18  4  1  0
 32 19  1  0
 17 12  1  0
 30 26  1  0
  5 33  1  0
  6 34  1  0
  7 35  1  0
 13 36  1  0
 13 37  1  0
 14 38  1  0
 14 39  1  0
 16 40  1  0
 16 41  1  0
 17 42  1  0
 17 43  1  0
 18 44  1  0
 20 45  1  0
 21 46  1  0
 27 47  1  0
 27 48  1  0
 28 49  1  0
 28 50  1  0
 29 51  1  0
 29 52  1  0
 30 53  1  0
 30 54  1  0
 31 55  1  0
 32 56  1  0
M  CHG  1   3  -1
M  END
>  <UniqueID>  (7) 
7

>  <SMILES>  (7) 
O=C([N-]c1cccc(S(=O)(=O)N2CCOCC2)c1)c1ccc(S(=O)(=O)N2CCCC2)cc1

>  <Energy>  (7) 
71.79316264669565

>  <Genealogy>  (7) 
O=C([N-]c1cccc(S(=O)(=O)N2CCOCC2)c1)c1ccc(S(=O)(=O)N2CCCC2)cc1 (protonated)
O=C([N-]c1cccc(S(=O)(=O)N2CCOCC2)c1)c1ccc(S(=O)(=O)N2CCCC2)cc1 (3D coordinates assigned)
O=C([N-]c1cccc(S(=O)(=O)N2CCOCC2)c1)c1ccc(S(=O)(=O)N2CCCC2)cc1 (nonaromatic ring conformer: 71.79316264669565 kcal/mol)

>  <smiles>  (7) 
O=C(Nc1cccc(S(=O)(=O)N2CCOCC2)c1)c1ccc(S(=O)(=O)N2CCCC2)cc1

>  <score_type>  (7) 
oracle

>  <origin>  (7) 
adgpu

>  <m_score__min__energy>  (7) 
-12.68

>  <m_primary>  (7) 
energy

$$$$
7:0
     RDKit          3D

 44 46  0  0  0  0  0  0  0  0999 V2000
   -7.5640   19.9840  -33.8460 N   0  0  0  0  0  0  0  0  0  0  0  0
   -6.7390   20.0760  -32.6810 C   0  0  0  0  0  0  0  0  0  0  0  0
   -7.2910   20.1540  -31.5500 O   0  0  0  0  0  0  0  0  0  0  0  0
   -5.2580   20.0950  -32.7770 C   0  0  0  0  0  0  0  0  0  0  0  0
   -4.5080   18.9080  -32.7130 C   0  0  0  0  0  0  0  0  0  0  0  0
   -3.1130   18.9420  -32.7950 C   0  0  0  0  0  0  0  0  0  0  0  0
   -2.4380   20.1690  -32.9300 C   0  0  0  0  0  0  0  0  0  0  0  0
   -1.0380   20.2630  -32.9990 O   0  0  0  0  0  0  0  0  0  0  0  0
   -0.1970   20.8190  -31.9870 C   0  0  0  0  0  0  0  0  0  0  0  0
   -0.9960   21.1900  -30.7650 C   0  0  0  0  0  0  0  0  0  0  0  0
   -1.3150   20.2150  -29.8060 C   0  0  0  0  0  0  0  0  0  0  0  0
   -2.0350   20.5650  -28.6610 C   0  0  0  0  0  0  0  0  0  0  0  0
   -2.4490   21.8850  -28.4680 C   0  0  0  0  0  0  0  0  0  0  0  0
   -2.1610   22.8620  -29.4310 C   0  0  0  0  0  0  0  0  0  0  0  0
   -2.6710   24.5250  -29.1600 S   0  0  0  0  0  0  0  0  0  0  0  0
   -3.2280   24.7040  -27.7750 O   0  0  0  0  0  0  0  0  0  0  0  0
   -1.4790   25.4270  -29.3080 O   0  0  0  0  0  0  0  0  0  0  0  0
   -3.8620   24.9680  -30.3400 N   0  0  0  0  0  0  0  0  0  0  0  0
   -5.1080   24.2930  -30.5640 C   0  0  0  0  0  0  0  0  0  0  0  0
   -5.7510   23.5470  -29.5570 C   0  0  0  0  0  0  0  0  0  0  0  0
   -6.9690   22.9130  -29.8200 C   0  0  0  0  0  0  0  0  0  0  0  0
   -7.5490   23.0060  -31.0870 C   0  0  0  0  0  0  0  0  0  0  0  0
   -6.9180   23.7450  -32.0900 C   0  0  0  0  0  0  0  0  0  0  0  0
   -5.7050   24.3890  -31.8280 C   0  0  0  0  0  0  0  0  0  0  0  0
   -1.4450   22.5080  -30.5840 C   0  0  0  0  0  0  0  0  0  0  0  0
   -3.1830   21.3510  -32.9930 C   0  0  0  0  0  0  0  0  0  0  0  0
   -4.5780   21.3190  -32.9130 C   0  0  0  0  0  0  0  0  0  0  0  0
   -8.6010   19.9090  -33.7430 H   0  0  0  0  0  0  0  0  0  0  0  0
   -7.1730   20.0760  -34.8090 H   0  0  0  0  0  0  0  0  0  0  0  0
   -5.0236   17.9433  -32.5973 H   0  0  0  0  0  0  0  0  0  0  0  0
   -2.5397   18.0041  -32.7537 H   0  0  0  0  0  0  0  0  0  0  0  0
    0.5663   20.0782  -31.7065 H   0  0  0  0  0  0  0  0  0  0  0  0
    0.2767   21.7283  -32.3855 H   0  0  0  0  0  0  0  0  0  0  0  0
   -0.9971   19.1728  -29.9567 H   0  0  0  0  0  0  0  0  0  0  0  0
   -2.2765   19.7990  -27.9094 H   0  0  0  0  0  0  0  0  0  0  0  0
   -3.0026   22.1586  -27.5577 H   0  0  0  0  0  0  0  0  0  0  0  0
   -5.2933   23.4630  -28.5603 H   0  0  0  0  0  0  0  0  0  0  0  0
   -7.4716   22.3396  -29.0272 H   0  0  0  0  0  0  0  0  0  0  0  0
   -8.5021   22.4976  -31.2948 H   0  0  0  0  0  0  0  0  0  0  0  0
   -7.3759   23.8205  -33.0873 H   0  0  0  0  0  0  0  0  0  0  0  0
   -5.2158   24.9752  -32.6198 H   0  0  0  0  0  0  0  0  0  0  0  0
   -1.2339   23.2676  -31.3511 H   0  0  0  0  0  0  0  0  0  0  0  0
   -2.6660   22.3152  -33.1066 H   0  0  0  0  0  0  0  0  0  0  0  0
   -5.1487   22.2583  -32.9567 H   0  0  0  0  0  0  0  0  0  0  0  0
  1  2  1  0
  2  3  2  0
  2  4  1  0
  4  5  2  0
  5  6  1  0
  6  7  2  0
  7  8  1  0
  8  9  1  0
  9 10  1  0
 10 11  2  0
 11 12  1  0
 12 13  2  0
 13 14  1  0
 14 15  1  0
 15 16  2  0
 15 17  2  0
 15 18  1  0
 18 19  1  0
 19 20  2  0
 20 21  1  0
 21 22  2  0
 22 23  1  0
 23 24  2  0
 14 25  2  0
  7 26  1  0
 26 27  2  0
 27  4  1  0
 25 10  1  0
 24 19  1  0
  1 28  1  0
  1 29  1  0
  5 30  1  0
  6 31  1  0
  9 32  1  0
  9 33  1  0
 11 34  1  0
 12 35  1  0
 13 36  1  0
 20 37  1  0
 21 38  1  0
 22 39  1  0
 23 40  1  0
 24 41  1  0
 25 42  1  0
 26 43  1  0
 27 44  1  0
M  CHG  1  18  -1
M  END
>  <UniqueID>  (8) 
8

>  <SMILES>  (8) 
NC(=O)c1ccc(OCc2cccc(S(=O)(=O)[N-]c3ccccc3)c2)cc1

>  <Energy>  (8) 
49.152323370493995

>  <Genealogy>  (8) 
NC(=O)c1ccc(OCc2cccc(S(=O)(=O)[N-]c3ccccc3)c2)cc1 (protonated)
NC(=O)c1ccc(OCc2cccc(S(=O)(=O)[N-]c3ccccc3)c2)cc1 (3D coordinates assigned)
NC(=O)c1ccc(OCc2cccc(S(=O)(=O)[N-]c3ccccc3)c2)cc1 (optimized conformer: 49.152323370493995 kcal/mol)

>  <smiles>  (8) 
NC(=O)c1ccc(OCc2cccc(S(=O)(=O)Nc3ccccc3)c2)cc1

>  <score_type>  (8) 
oracle

>  <origin>  (8) 
adgpu

>  <m_score__min__energy>  (8) 
-10.109999999999999

>  <m_primary>  (8) 
energy

$$$$
8:0
     RDKit          3D

 64 69  0  0  0  0  0  0  0  0999 V2000
   -0.8290   25.7060  -27.6510 C   0  0  0  0  0  0  0  0  0  0  0  0
   -1.4760   25.0200  -26.5170 N   0  0  0  0  0  0  0  0  0  0  0  0
   -1.5970   23.5650  -26.7540 C   0  0  0  0  0  0  0  0  0  0  0  0
   -2.6090   23.2500  -27.8710 C   0  0  0  0  0  0  0  0  0  0  0  0
   -3.7740   24.1360  -27.7840 N   0  0  0  0  0  0  0  0  0  0  0  0
   -4.7170   24.1730  -28.8740 C   0  0  0  0  0  0  0  0  0  0  0  0
   -4.8090   23.1140  -29.7920 C   0  0  0  0  0  0  0  0  0  0  0  0
   -5.7520   23.1640  -30.8320 C   0  0  0  0  0  0  0  0  0  0  0  0
   -5.8590   22.0450  -31.8020 C   0  0  0  0  0  0  0  0  0  0  0  0
   -5.1470   22.0550  -32.8450 O   0  0  0  0  0  0  0  0  0  0  0  0
   -6.7980   20.9770  -31.5970 N   0  0  0  0  0  0  0  0  0  0  0  0
   -6.6450   19.6590  -32.1560 C   0  0  0  0  0  0  0  0  0  0  0  0
   -7.7500   18.7980  -32.1980 C   0  0  0  0  0  0  0  0  0  0  0  0
   -7.6220   17.5100  -32.7200 C   0  0  0  0  0  0  0  0  0  0  0  0
   -6.3880   17.0630  -33.1960 C   0  0  0  0  0  0  0  0  0  0  0  0
   -5.2600   17.9010  -33.1450 C   0  0  0  0  0  0  0  0  0  0  0  0
   -3.9410   17.4210  -33.6320 C   0  0  0  0  0  0  0  0  0  0  0  0
   -3.6520   16.0450  -33.6720 C   0  0  0  0  0  0  0  0  0  0  0  0
   -2.4120   15.5950  -34.1280 C   0  0  0  0  0  0  0  0  0  0  0  0
   -1.4440   16.5080  -34.5490 C   0  0  0  0  0  0  0  0  0  0  0  0
   -1.7090   17.8880  -34.5230 C   0  0  0  0  0  0  0  0  0  0  0  0
   -0.6850   18.8560  -34.9750 C   0  0  0  0  0  0  0  0  0  0  0  0
    0.2140   18.5780  -35.9580 N   0  0  0  0  0  0  0  0  0  0  0  0
    0.9320   19.7080  -36.0290 C   0  0  0  0  0  0  0  0  0  0  0  0
    2.0030   19.9880  -36.8750 C   0  0  0  0  0  0  0  0  0  0  0  0
    2.6090   21.2550  -36.7650 C   0  0  0  0  0  0  0  0  0  0  0  0
    3.6810   21.5810  -37.5860 O   0  0  0  0  0  0  0  0  0  0  0  0
    2.1310   22.1970  -35.8230 C   0  0  0  0  0  0  0  0  0  0  0  0
    1.0440   21.8780  -34.9870 C   0  0  0  0  0  0  0  0  0  0  0  0
    0.4720   20.6150  -35.1240 C   0  0  0  0  0  0  0  0  0  0  0  0
   -0.5590   20.1010  -34.4380 N   0  0  0  0  0  0  0  0  0  0  0  0
   -2.9600   18.3360  -34.0610 C   0  0  0  0  0  0  0  0  0  0  0  0
   -5.3970   19.1990  -32.6160 C   0  0  0  0  0  0  0  0  0  0  0  0
   -6.6070   24.2760  -30.9130 C   0  0  0  0  0  0  0  0  0  0  0  0
   -6.4990   25.3020  -29.9750 C   0  0  0  0  0  0  0  0  0  0  0  0
   -5.5700   25.2280  -28.9860 N   0  0  0  0  0  0  0  0  0  0  0  0
   -4.0100   24.8590  -26.5300 C   0  0  0  0  0  0  0  0  0  0  0  0
   -2.7600   25.6680  -26.1380 C   0  0  0  0  0  0  0  0  0  0  0  0
   -0.1210   26.4567  -27.2698 H   0  0  0  0  0  0  0  0  0  0  0  0
   -0.2883   24.9703  -28.2645 H   0  0  0  0  0  0  0  0  0  0  0  0
   -1.5951   26.2027  -28.2645 H   0  0  0  0  0  0  0  0  0  0  0  0
   -0.6126   23.1682  -27.0431 H   0  0  0  0  0  0  0  0  0  0  0  0
   -1.9552   23.0959  -25.8257 H   0  0  0  0  0  0  0  0  0  0  0  0
   -2.1226   23.3889  -28.8478 H   0  0  0  0  0  0  0  0  0  0  0  0
   -2.9481   22.2099  -27.7561 H   0  0  0  0  0  0  0  0  0  0  0  0
   -4.1420   22.2446  -29.6965 H   0  0  0  0  0  0  0  0  0  0  0  0
   -7.6930   21.1980  -31.1050 H   0  0  0  0  0  0  0  0  0  0  0  0
   -8.7239   19.1394  -31.8173 H   0  0  0  0  0  0  0  0  0  0  0  0
   -8.4969   16.8443  -32.7565 H   0  0  0  0  0  0  0  0  0  0  0  0
   -6.2976   16.0493  -33.6134 H   0  0  0  0  0  0  0  0  0  0  0  0
   -4.4088   15.3183  -33.3415 H   0  0  0  0  0  0  0  0  0  0  0  0
   -2.1968   14.5166  -34.1557 H   0  0  0  0  0  0  0  0  0  0  0  0
   -0.4678   16.1453  -34.9033 H   0  0  0  0  0  0  0  0  0  0  0  0
    2.3627   19.2460  -37.6031 H   0  0  0  0  0  0  0  0  0  0  0  0
    2.6112   23.1834  -35.7436 H   0  0  0  0  0  0  0  0  0  0  0  0
    0.6599   22.6004  -34.2517 H   0  0  0  0  0  0  0  0  0  0  0  0
   -3.1747   19.4145  -34.0345 H   0  0  0  0  0  0  0  0  0  0  0  0
   -4.5195   19.8601  -32.5618 H   0  0  0  0  0  0  0  0  0  0  0  0
   -7.3589   24.3369  -31.7136 H   0  0  0  0  0  0  0  0  0  0  0  0
   -7.1675   26.1735  -30.0357 H   0  0  0  0  0  0  0  0  0  0  0  0
   -4.8601   25.5447  -26.6606 H   0  0  0  0  0  0  0  0  0  0  0  0
   -4.2313   24.1330  -25.7338 H   0  0  0  0  0  0  0  0  0  0  0  0
   -2.8126   26.6480  -26.6347 H   0  0  0  0  0  0  0  0  0  0  0  0
   -2.7641   25.7481  -25.0409 H   0  0  0  0  0  0  0  0  0  0  0  0
  1  2  1  0
  2  3  1  0
  3  4  1  0
  4  5  1  0
  5  6  1  0
  6  7  2  0
  7  8  1  0
  8  9  1  0
  9 10  2  0
  9 11  1  0
 11 12  1  0
 12 13  2  0
 13 14  1  0
 14 15  2  0
 15 16  1  0
 16 17  1  0
 17 18  2  0
 18 19  1  0
 19 20  2  0
 20 21  1  0
 21 22  1  0
 22 23  2  0
 23 24  1  0
 24 25  2  0
 25 26  1  0
 26 27  1  0
 26 28  2  0
 28 29  1  0
 29 30  2  0
 30 31  1  0
 21 32  2  0
 16 33  2  0
  8 34  2  0
 34 35  1  0
 35 36  2  0
  5 37  1  0
 37 38  1  0
 38  2  1  0
 36  6  1  0
 33 12  1  0
 32 17  1  0
 31 22  1  0
 30 24  1  0
  1 39  1  0
  1 40  1  0
  1 41  1  0
  3 42  1  0
  3 43  1  0
  4 44  1  0
  4 45  1  0
  7 46  1  0
 11 47  1  0
 13 48  1  0
 14 49  1  0
 15 50  1  0
 18 51  1  0
 19 52  1  0
 20 53  1  0
 25 54  1  0
 28 55  1  0
 29 56  1  0
 32 57  1  0
 33 58  1  0
 34 59  1  0
 35 60  1  0
 37 61  1  0
 37 62  1  0
 38 63  1  0
 38 64  1  0
M  CHG  2  27  -1  31  -1
M  END
>  <UniqueID>  (9) 
9

>  <SMILES>  (9) 
CN1CCN(c2cc(C(=O)Nc3cccc(-c4cccc(-c5nc6cc([O-])ccc6[n-]5)c4)c3)ccn2)CC1

>  <Energy>  (9) 
129.35349204910182

>  <Genealogy>  (9) 
CN1CCN(c2cc(C(=O)Nc3cccc(-c4cccc(-c5nc6cc([O-])ccc6[n-]5)c4)c3)ccn2)CC1 (protonated)
CN1CCN(c2cc(C(=O)Nc3cccc(-c4cccc(-c5nc6cc([O-])ccc6[n-]5)c4)c3)ccn2)CC1 (3D coordinates assigned)
CN1CCN(c2cc(C(=O)Nc3cccc(-c4cccc(-c5nc6cc([O-])ccc6[n-]5)c4)c3)ccn2)CC1 (nonaromatic ring conformer: 129.35349204910182 kcal/mol)

>  <smiles>  (9) 
CN1CCN(c2cc(C(=O)Nc3cccc(-c4cccc(-c5nc6cc(O)ccc6[nH]5)c4)c3)ccn2)CC1

>  <score_type>  (9) 
oracle

>  <origin>  (9) 
adgpu

>  <m_score__min__energy>  (9) 
-12.369999999999999

>  <m_primary>  (9) 
energy

$$$$
9:0
     RDKit          3D

 50 53  0  0  0  0  0  0  0  0999 V2000
   -1.7560   19.8230  -31.6110 C   0  0  0  0  0  0  0  0  0  0  0  0
   -2.4870   21.0080  -31.0770 C   0  0  0  0  0  0  0  0  0  0  0  0
   -3.4080   21.7670  -31.7710 C   0  0  0  0  0  0  0  0  0  0  0  0
   -3.7320   22.7930  -30.9010 C   0  0  0  0  0  0  0  0  0  0  0  0
   -4.6390   23.9240  -31.2070 C   0  0  0  0  0  0  0  0  0  0  0  0
   -4.4400   25.0480  -30.6810 O   0  0  0  0  0  0  0  0  0  0  0  0
   -5.7910   23.7540  -32.0450 N   0  0  0  0  0  0  0  0  0  0  0  0
   -6.8110   22.7590  -31.8800 C   0  0  0  0  0  0  0  0  0  0  0  0
   -8.0890   23.0860  -31.3950 C   0  0  0  0  0  0  0  0  0  0  0  0
   -9.0540   22.0910  -31.2310 C   0  0  0  0  0  0  0  0  0  0  0  0
   -8.7480   20.7610  -31.5300 C   0  0  0  0  0  0  0  0  0  0  0  0
   -7.4670   20.4180  -31.9830 C   0  0  0  0  0  0  0  0  0  0  0  0
   -7.0670   18.7340  -32.3270 S   0  0  0  0  0  0  0  0  0  0  0  0
   -6.1500   18.2150  -31.2540 O   0  0  0  0  0  0  0  0  0  0  0  0
   -8.3260   17.9110  -32.2960 O   0  0  0  0  0  0  0  0  0  0  0  0
   -6.2930   18.5470  -33.8870 N   0  0  0  0  0  0  0  0  0  0  0  0
   -6.1670   17.1310  -34.2500 C   0  0  0  0  0  0  0  0  0  0  0  0
   -4.7590   16.6690  -33.9050 C   0  0  0  0  0  0  0  0  0  0  0  0
   -3.9580   17.9330  -33.6650 C   0  0  0  0  0  0  0  0  0  0  0  0
   -4.9290   19.0860  -33.8700 C   0  0  0  0  0  0  0  0  0  0  0  0
   -6.5030   21.4220  -32.1560 C   0  0  0  0  0  0  0  0  0  0  0  0
   -3.0290   22.6200  -29.7560 N   0  0  0  0  0  0  0  0  0  0  0  0
   -3.0090   23.4710  -28.6050 C   0  0  0  0  0  0  0  0  0  0  0  0
   -4.1860   23.6830  -27.8740 C   0  0  0  0  0  0  0  0  0  0  0  0
   -4.1790   24.5360  -26.7650 C   0  0  0  0  0  0  0  0  0  0  0  0
   -3.0010   25.1900  -26.3920 C   0  0  0  0  0  0  0  0  0  0  0  0
   -1.8300   24.9960  -27.1310 C   0  0  0  0  0  0  0  0  0  0  0  0
   -1.8340   24.1440  -28.2390 C   0  0  0  0  0  0  0  0  0  0  0  0
   -2.2550   21.5520  -29.8670 N   0  0  0  0  0  0  0  0  0  0  0  0
   -1.3813   19.2156  -30.7740 H   0  0  0  0  0  0  0  0  0  0  0  0
   -2.4382   19.2181  -32.2265 H   0  0  0  0  0  0  0  0  0  0  0  0
   -0.9093   20.1612  -32.2265 H   0  0  0  0  0  0  0  0  0  0  0  0
   -3.7963   21.5951  -32.7857 H   0  0  0  0  0  0  0  0  0  0  0  0
   -8.3295   24.1296  -31.1438 H   0  0  0  0  0  0  0  0  0  0  0  0
  -10.0575   22.3545  -30.8656 H   0  0  0  0  0  0  0  0  0  0  0  0
   -9.5144   19.9812  -31.4095 H   0  0  0  0  0  0  0  0  0  0  0  0
   -6.9013   16.5365  -33.6866 H   0  0  0  0  0  0  0  0  0  0  0  0
   -6.3546   16.9990  -35.3258 H   0  0  0  0  0  0  0  0  0  0  0  0
   -4.7715   16.0454  -32.9989 H   0  0  0  0  0  0  0  0  0  0  0  0
   -4.3234   16.0600  -34.7109 H   0  0  0  0  0  0  0  0  0  0  0  0
   -3.5603   17.9452  -32.6395 H   0  0  0  0  0  0  0  0  0  0  0  0
   -3.0981   18.0024  -34.3475 H   0  0  0  0  0  0  0  0  0  0  0  0
   -4.8258   19.8090  -33.0474 H   0  0  0  0  0  0  0  0  0  0  0  0
   -4.7132   19.5967  -34.8201 H   0  0  0  0  0  0  0  0  0  0  0  0
   -5.4965   21.1563  -32.5116 H   0  0  0  0  0  0  0  0  0  0  0  0
   -5.1165   23.1780  -28.1726 H   0  0  0  0  0  0  0  0  0  0  0  0
   -5.1012   24.6922  -26.1861 H   0  0  0  0  0  0  0  0  0  0  0  0
   -2.9954   25.8570  -25.5173 H   0  0  0  0  0  0  0  0  0  0  0  0
   -0.9045   25.5145  -26.8400 H   0  0  0  0  0  0  0  0  0  0  0  0
   -0.9141   24.0010  -28.8250 H   0  0  0  0  0  0  0  0  0  0  0  0
  1  2  1  0
  2  3  1  0
  3  4  2  0
  4  5  1  0
  5  6  2  0
  5  7  1  0
  7  8  1  0
  8  9  2  0
  9 10  1  0
 10 11  2  0
 11 12  1  0
 12 13  1  0
 13 14  2  0
 13 15  2  0
 13 16  1  0
 16 17  1  0
 17 18  1  0
 18 19  1  0
 19 20  1  0
 12 21  2  0
  4 22  1  0
 22 23  1  0
 23 24  2  0
 24 25  1  0
 25 26  2  0
 26 27  1  0
 27 28  2  0
 22 29  1  0
 29  2  2  0
 21  8  1  0
 28 23  1  0
 20 16  1  0
  1 30  1  0
  1 31  1  0
  1 32  1  0
  3 33  1  0
  9 34  1  0
 10 35  1  0
 11 36  1  0
 17 37  1  0
 17 38  1  0
 18 39  1  0
 18 40  1  0
 19 41  1  0
 19 42  1  0
 20 43  1  0
 20 44  1  0
 21 45  1  0
 24 46  1  0
 25 47  1  0
 26 48  1  0
 27 49  1  0
 28 50  1  0
M  CHG  1   7  -1
M  END
>  <UniqueID>  (10) 
10

>  <SMILES>  (10) 
Cc1cc(C(=O)[N-]c2cccc(S(=O)(=O)N3CCCC3)c2)n(-c2ccccc2)n1

>  <Energy>  (10) 
95.13511796912366

>  <Genealogy>  (10) 
Cc1cc(C(=O)[N-]c2cccc(S(=O)(=O)N3CCCC3)c2)n(-c2ccccc2)n1 (protonated)
Cc1cc(C(=O)[N-]c2cccc(S(=O)(=O)N3CCCC3)c2)n(-c2ccccc2)n1 (3D coordinates assigned)
Cc1cc(C(=O)[N-]c2cccc(S(=O)(=O)N3CCCC3)c2)n(-c2ccccc2)n1 (nonaromatic ring conformer: 95.13511796912366 kcal/mol)

>  <smiles>  (10) 
Cc1cc(C(=O)Nc2cccc(S(=O)(=O)N3CCCC3)c2)n(-c2ccccc2)n1

>  <score_type>  (10) 
oracle

>  <origin>  (10) 
adgpu

>  <m_score__min__energy>  (10) 
-11.52

>  <m_primary>  (10) 
energy

$$$$
10:0
     RDKit          3D

 47 49  0  0  0  0  0  0  0  0999 V2000
   -4.3290   20.3850  -33.2540 C   0  0  0  0  0  0  0  0  0  0  0  0
   -5.0170   20.9470  -32.0890 N   0  0  0  0  0  0  0  0  0  0  0  0
   -4.2550   21.6360  -31.0830 C   0  0  0  0  0  0  0  0  0  0  0  0
   -3.4510   20.9190  -30.2060 C   0  0  0  0  0  0  0  0  0  0  0  0
   -2.6880   21.5540  -29.2050 C   0  0  0  0  0  0  0  0  0  0  0  0
   -2.7800   22.9810  -29.0560 C   0  0  0  0  0  0  0  0  0  0  0  0
   -3.5560   23.7060  -30.0220 C   0  0  0  0  0  0  0  0  0  0  0  0
   -3.6030   25.1370  -30.0620 N   0  0  0  0  0  0  0  0  0  0  0  0
   -4.3020   23.0220  -30.9910 C   0  0  0  0  0  0  0  0  0  0  0  0
   -5.0730   23.7160  -31.8680 F   0  0  0  0  0  0  0  0  0  0  0  0
   -2.0560   23.6950  -27.8800 C   0  0  0  0  0  0  0  0  0  0  0  0
   -2.9560   24.7630  -27.2000 C   0  0  0  0  0  0  0  0  0  0  0  0
   -0.7480   24.3590  -28.3830 C   0  0  0  0  0  0  0  0  0  0  0  0
   -1.7070   22.6790  -26.7620 C   0  0  0  0  0  0  0  0  0  0  0  0
   -0.9680   21.4690  -27.3040 C   0  0  0  0  0  0  0  0  0  0  0  0
   -1.8510   20.6520  -28.2750 C   0  0  0  0  0  0  0  0  0  0  0  0
   -0.9000   19.7560  -29.1070 C   0  0  0  0  0  0  0  0  0  0  0  0
   -2.8000   19.7400  -27.4570 C   0  0  0  0  0  0  0  0  0  0  0  0
   -6.4190   20.8240  -31.9670 N   0  0  0  0  0  0  0  0  0  0  0  0
   -7.3360   21.8080  -31.9720 C   0  0  0  0  0  0  0  0  0  0  0  0
   -8.5800   21.2990  -31.8780 N   0  0  0  0  0  0  0  0  0  0  0  0
   -8.4600   19.9790  -31.8190 N   0  0  0  0  0  0  0  0  0  0  0  0
   -7.1450   19.6940  -31.8780 C   0  0  0  0  0  0  0  0  0  0  0  0
   -3.5181   19.7226  -32.9167 H   0  0  0  0  0  0  0  0  0  0  0  0
   -5.0443   19.8096  -33.8600 H   0  0  0  0  0  0  0  0  0  0  0  0
   -3.9080   21.2008  -33.8600 H   0  0  0  0  0  0  0  0  0  0  0  0
   -3.4084   19.8235  -30.2952 H   0  0  0  0  0  0  0  0  0  0  0  0
   -4.3240   25.6590  -29.5150 H   0  0  0  0  0  0  0  0  0  0  0  0
   -3.1170   25.6750  -30.8070 H   0  0  0  0  0  0  0  0  0  0  0  0
   -2.8759   24.6679  -26.1070 H   0  0  0  0  0  0  0  0  0  0  0  0
   -2.6279   25.7674  -27.5057 H   0  0  0  0  0  0  0  0  0  0  0  0
   -4.0015   24.6099  -27.5057 H   0  0  0  0  0  0  0  0  0  0  0  0
   -0.1388   24.6683  -27.5209 H   0  0  0  0  0  0  0  0  0  0  0  0
   -0.1822   23.6390  -28.9924 H   0  0  0  0  0  0  0  0  0  0  0  0
   -0.9953   25.2407  -28.9924 H   0  0  0  0  0  0  0  0  0  0  0  0
   -1.0722   23.1775  -26.0146 H   0  0  0  0  0  0  0  0  0  0  0  0
   -2.6490   22.3295  -26.3143 H   0  0  0  0  0  0  0  0  0  0  0  0
   -0.0693   21.8095  -27.8391 H   0  0  0  0  0  0  0  0  0  0  0  0
   -0.6983   20.8219  -26.4563 H   0  0  0  0  0  0  0  0  0  0  0  0
   -0.2695   19.1619  -28.4291 H   0  0  0  0  0  0  0  0  0  0  0  0
   -1.4935   19.0812  -29.7413 H   0  0  0  0  0  0  0  0  0  0  0  0
   -0.2617   20.3886  -29.7413 H   0  0  0  0  0  0  0  0  0  0  0  0
   -2.6298   19.9035  -26.3826 H   0  0  0  0  0  0  0  0  0  0  0  0
   -3.8442   19.9821  -27.7039 H   0  0  0  0  0  0  0  0  0  0  0  0
   -2.5996   18.6870  -27.7039 H   0  0  0  0  0  0  0  0  0  0  0  0
   -7.1025   22.8806  -32.0430 H   0  0  0  0  0  0  0  0  0  0  0  0
   -6.7228   18.6785  -31.8564 H   0  0  0  0  0  0  0  0  0  0  0  0
  1  2  1  0
  2  3  1  0
  3  4  2  0
  4  5  1  0
  5  6  2  0
  6  7  1  0
  7  8  1  0
  7  9  2  0
  9 10  1  0
  6 11  1  0
 11 12  1  0
 11 13  1  0
 11 14  1  0
 14 15  1  0
 15 16  1  0
 16 17  1  0
 16 18  1  0
  2 19  1  0
 19 20  1  0
 20 21  2  0
 21 22  1  0
 22 23  2  0
  9  3  1  0
 23 19  1  0
 16  5  1  0
  1 24  1  0
  1 25  1  0
  1 26  1  0
  4 27  1  0
  8 28  1  0
  8 29  1  0
 12 30  1  0
 12 31  1  0
 12 32  1  0
 13 33  1  0
 13 34  1  0
 13 35  1  0
 14 36  1  0
 14 37  1  0
 15 38  1  0
 15 39  1  0
 17 40  1  0
 17 41  1  0
 17 42  1  0
 18 43  1  0
 18 44  1  0
 18 45  1  0
 20 46  1  0
 23 47  1  0
M  END
>  <UniqueID>  (11) 
11

>  <SMILES>  (11) 
CN(c1cc2c(c(N)c1F)C(C)(C)CCC2(C)C)n1cnnc1

>  <Energy>  (11) 
104.53826144336854

>  <Genealogy>  (11) 
CN(c1cc2c(c(N)c1F)C(C)(C)CCC2(C)C)n1cnnc1 (3D coordinates assigned)
CN(c1cc2c(c(N)c1F)C(C)(C)CCC2(C)C)n1cnnc1 (nonaromatic ring conformer: 104.53826144336854 kcal/mol)

>  <smiles>  (11) 
CN(c1cc2c(c(N)c1F)C(C)(C)CCC2(C)C)n1cnnc1

>  <score_type>  (11) 
oracle

>  <origin>  (11) 
adgpu

>  <m_score__min__energy>  (11) 
-7.9900000000000002

>  <m_primary>  (11) 
energy

$$$$
11:0
     RDKit          3D

 53 56  0  0  0  0  0  0  0  0999 V2000
    0.2210   20.9570  -31.6720 C   0  0  0  0  0  0  0  0  0  0  0  0
   -1.1570   20.9370  -32.2710 C   0  0  0  0  0  0  0  0  0  0  0  0
   -1.4820   20.6960  -33.5990 C   0  0  0  0  0  0  0  0  0  0  0  0
   -0.5780   20.3420  -34.7060 C   0  0  0  0  0  0  0  0  0  0  0  0
   -0.2450   19.1360  -34.8590 O   0  0  0  0  0  0  0  0  0  0  0  0
   -0.1140   21.3340  -35.6330 N   0  0  0  0  0  0  0  0  0  0  0  0
    1.0310   21.1070  -36.5080 C   0  0  0  0  0  0  0  0  0  0  0  0
    2.1250   22.0890  -36.1890 C   0  0  0  0  0  0  0  0  0  0  0  0
    1.8370   23.4560  -36.0390 C   0  0  0  0  0  0  0  0  0  0  0  0
    2.8660   24.3670  -35.7790 C   0  0  0  0  0  0  0  0  0  0  0  0
    4.1860   23.9200  -35.6750 C   0  0  0  0  0  0  0  0  0  0  0  0
    4.4810   22.5630  -35.8340 C   0  0  0  0  0  0  0  0  0  0  0  0
    3.4560   21.6500  -36.0930 C   0  0  0  0  0  0  0  0  0  0  0  0
   -2.8130   20.8350  -33.7660 N   0  0  0  0  0  0  0  0  0  0  0  0
   -3.2780   21.1790  -32.5460 C   0  0  0  0  0  0  0  0  0  0  0  0
   -4.7100   21.4630  -32.3000 C   0  0  0  0  0  0  0  0  0  0  0  0
   -5.6470   20.4180  -32.3610 C   0  0  0  0  0  0  0  0  0  0  0  0
   -7.0050   20.6730  -32.1480 C   0  0  0  0  0  0  0  0  0  0  0  0
   -7.4380   21.9710  -31.8580 C   0  0  0  0  0  0  0  0  0  0  0  0
   -9.1430   22.2900  -31.5970 Cl  0  0  0  0  0  0  0  0  0  0  0  0
   -6.5100   23.0120  -31.7720 C   0  0  0  0  0  0  0  0  0  0  0  0
   -5.1510   22.7600  -31.9840 C   0  0  0  0  0  0  0  0  0  0  0  0
   -2.2950   21.2540  -31.6160 N   0  0  0  0  0  0  0  0  0  0  0  0
   -2.4120   21.7350  -30.2670 C   0  0  0  0  0  0  0  0  0  0  0  0
   -3.3400   21.1630  -29.3870 C   0  0  0  0  0  0  0  0  0  0  0  0
   -3.4920   21.6740  -28.0960 C   0  0  0  0  0  0  0  0  0  0  0  0
   -2.7270   22.7670  -27.6790 C   0  0  0  0  0  0  0  0  0  0  0  0
   -1.8000   23.3510  -28.5530 C   0  0  0  0  0  0  0  0  0  0  0  0
   -0.8720   24.7640  -28.0640 S   0  0  0  0  0  0  0  0  0  0  0  0
   -1.2400   26.0840  -29.1160 N   0  0  0  0  0  0  0  0  0  0  0  0
   -1.2170   25.1430  -26.6510 O   0  0  0  0  0  0  0  0  0  0  0  0
    0.5970   24.4550  -28.1380 O   0  0  0  0  0  0  0  0  0  0  0  0
   -1.6450   22.8320  -29.8450 C   0  0  0  0  0  0  0  0  0  0  0  0
    0.1439   20.9559  -30.5747 H   0  0  0  0  0  0  0  0  0  0  0  0
    0.7770   20.0668  -32.0014 H   0  0  0  0  0  0  0  0  0  0  0  0
    0.7509   21.8629  -32.0014 H   0  0  0  0  0  0  0  0  0  0  0  0
   -0.6250   22.2410  -35.7140 H   0  0  0  0  0  0  0  0  0  0  0  0
    1.4056   20.0835  -36.3596 H   0  0  0  0  0  0  0  0  0  0  0  0
    0.7184   21.2419  -37.5540 H   0  0  0  0  0  0  0  0  0  0  0  0
    0.7994   23.8107  -36.1263 H   0  0  0  0  0  0  0  0  0  0  0  0
    2.6362   25.4357  -35.6563 H   0  0  0  0  0  0  0  0  0  0  0  0
    4.9940   24.6371  -35.4677 H   0  0  0  0  0  0  0  0  0  0  0  0
    5.5211   22.2138  -35.7551 H   0  0  0  0  0  0  0  0  0  0  0  0
    3.6919   20.5834  -36.2223 H   0  0  0  0  0  0  0  0  0  0  0  0
   -5.3103   19.3934  -32.5776 H   0  0  0  0  0  0  0  0  0  0  0  0
   -7.7341   19.8516  -32.2086 H   0  0  0  0  0  0  0  0  0  0  0  0
   -6.8491   24.0317  -31.5371 H   0  0  0  0  0  0  0  0  0  0  0  0
   -4.4232   23.5808  -31.9031 H   0  0  0  0  0  0  0  0  0  0  0  0
   -3.9509   20.3086  -29.7139 H   0  0  0  0  0  0  0  0  0  0  0  0
   -4.2154   21.2152  -27.4059 H   0  0  0  0  0  0  0  0  0  0  0  0
   -2.8528   23.1695  -26.6630 H   0  0  0  0  0  0  0  0  0  0  0  0
   -1.5980   25.6740  -30.0070 H   0  0  0  0  0  0  0  0  0  0  0  0
   -0.9175   23.2872  -30.5331 H   0  0  0  0  0  0  0  0  0  0  0  0
  1  2  1  0
  2  3  2  0
  3  4  1  0
  4  5  2  0
  4  6  1  0
  6  7  1  0
  7  8  1  0
  8  9  2  0
  9 10  1  0
 10 11  2  0
 11 12  1  0
 12 13  2  0
  3 14  1  0
 14 15  2  0
 15 16  1  0
 16 17  2  0
 17 18  1  0
 18 19  2  0
 19 20  1  0
 19 21  1  0
 21 22  2  0
 15 23  1  0
 23 24  1  0
 24 25  2  0
 25 26  1  0
 26 27  2  0
 27 28  1  0
 28 29  1  0
 29 30  1  0
 29 31  2  0
 29 32  2  0
 28 33  2  0
 23  2  1  0
 33 24  1  0
 13  8  1  0
 22 16  1  0
  1 34  1  0
  1 35  1  0
  1 36  1  0
  6 37  1  0
  7 38  1  0
  7 39  1  0
  9 40  1  0
 10 41  1  0
 11 42  1  0
 12 43  1  0
 13 44  1  0
 17 45  1  0
 18 46  1  0
 21 47  1  0
 22 48  1  0
 25 49  1  0
 26 50  1  0
 27 51  1  0
 30 52  1  0
 33 53  1  0
M  CHG  1  30  -1
M  END
>  <UniqueID>  (12) 
12

>  <SMILES>  (12) 
Cc1c(C(=O)NCc2ccccc2)nc(-c2ccc(Cl)cc2)n1-c1cccc(S([NH-])(=O)=O)c1

>  <Energy>  (12) 
95.5609824155039

>  <Genealogy>  (12) 
Cc1c(C(=O)NCc2ccccc2)nc(-c2ccc(Cl)cc2)n1-c1cccc(S([NH-])(=O)=O)c1 (protonated)
Cc1c(C(=O)NCc2ccccc2)nc(-c2ccc(Cl)cc2)n1-c1cccc(S([NH-])(=O)=O)c1 (3D coordinates assigned)
Cc1c(C(=O)NCc2ccccc2)nc(-c2ccc(Cl)cc2)n1-c1cccc(S([NH-])(=O)=O)c1 (optimized conformer: 95.5609824155039 kcal/mol)

>  <smiles>  (12) 
Cc1c(C(=O)NCc2ccccc2)nc(-c2ccc(Cl)cc2)n1-c1cccc(S(N)(=O)=O)c1

>  <score_type>  (12) 
oracle

>  <origin>  (12) 
adgpu

>  <m_score__min__energy>  (12) 
-12.029999999999999

>  <m_primary>  (12) 
energy

$$$$
12:0
     RDKit          3D

 40 42  0  0  0  0  0  0  0  0999 V2000
    1.4550   24.5330  -28.4130 O   0  0  0  0  0  0  0  0  0  0  0  0
    0.1450   24.1680  -27.7740 S   0  0  0  0  0  0  0  0  0  0  0  0
    0.1820   22.7210  -27.3710 O   0  0  0  0  0  0  0  0  0  0  0  0
   -1.1350   24.4110  -28.9210 N   0  0  0  0  0  0  0  0  0  0  0  0
   -2.4120   23.7570  -28.8150 C   0  0  0  0  0  0  0  0  0  0  0  0
   -2.5970   22.6620  -27.9520 C   0  0  0  0  0  0  0  0  0  0  0  0
   -3.8340   22.0230  -27.8740 C   0  0  0  0  0  0  0  0  0  0  0  0
   -4.9040   22.4680  -28.6520 C   0  0  0  0  0  0  0  0  0  0  0  0
   -4.7440   23.5620  -29.5110 C   0  0  0  0  0  0  0  0  0  0  0  0
   -6.0860   24.0920  -30.5280 S   0  0  0  0  0  0  0  0  0  0  0  0
   -5.5470   24.9900  -31.6060 O   0  0  0  0  0  0  0  0  0  0  0  0
   -7.0960   24.8570  -29.7210 O   0  0  0  0  0  0  0  0  0  0  0  0
   -6.8710   22.6810  -31.2320 C   0  0  0  0  0  0  0  0  0  0  0  0
   -8.1670   22.3300  -30.8250 C   0  0  0  0  0  0  0  0  0  0  0  0
   -8.7930   21.2040  -31.3670 C   0  0  0  0  0  0  0  0  0  0  0  0
   -8.1290   20.4240  -32.3190 C   0  0  0  0  0  0  0  0  0  0  0  0
   -6.8400   20.7730  -32.7320 C   0  0  0  0  0  0  0  0  0  0  0  0
   -6.2100   21.9000  -32.1910 C   0  0  0  0  0  0  0  0  0  0  0  0
   -3.4980   24.2100  -29.5880 C   0  0  0  0  0  0  0  0  0  0  0  0
   -3.3310   25.2930  -30.4470 O   0  0  0  0  0  0  0  0  0  0  0  0
   -0.1450   25.1480  -26.3390 C   0  0  0  0  0  0  0  0  0  0  0  0
   -1.3820   25.7780  -26.1440 C   0  0  0  0  0  0  0  0  0  0  0  0
   -1.6070   26.5400  -24.9930 C   0  0  0  0  0  0  0  0  0  0  0  0
   -0.6000   26.6750  -24.0340 C   0  0  0  0  0  0  0  0  0  0  0  0
    0.6360   26.0500  -24.2260 C   0  0  0  0  0  0  0  0  0  0  0  0
    0.8650   25.2910  -25.3770 C   0  0  0  0  0  0  0  0  0  0  0  0
   -0.8920   24.9290  -29.7940 H   0  0  0  0  0  0  0  0  0  0  0  0
   -1.7594   22.3069  -27.3337 H   0  0  0  0  0  0  0  0  0  0  0  0
   -3.9669   21.1659  -27.1975 H   0  0  0  0  0  0  0  0  0  0  0  0
   -5.8764   21.9574  -28.5900 H   0  0  0  0  0  0  0  0  0  0  0  0
   -8.6919   22.9427  -30.0773 H   0  0  0  0  0  0  0  0  0  0  0  0
   -9.8087   20.9312  -31.0445 H   0  0  0  0  0  0  0  0  0  0  0  0
   -8.6209   19.5360  -32.7427 H   0  0  0  0  0  0  0  0  0  0  0  0
   -6.3197   20.1610  -33.4835 H   0  0  0  0  0  0  0  0  0  0  0  0
   -5.1960   22.1731  -32.5183 H   0  0  0  0  0  0  0  0  0  0  0  0
   -2.1767   25.6729  -26.8972 H   0  0  0  0  0  0  0  0  0  0  0  0
   -2.5783   27.0338  -24.8425 H   0  0  0  0  0  0  0  0  0  0  0  0
   -0.7794   27.2728  -23.1282 H   0  0  0  0  0  0  0  0  0  0  0  0
    1.4286   26.1558  -23.4706 H   0  0  0  0  0  0  0  0  0  0  0  0
    1.8399   24.8046  -25.5286 H   0  0  0  0  0  0  0  0  0  0  0  0
  1  2  2  0
  2  3  2  0
  2  4  1  0
  4  5  1  0
  5  6  2  0
  6  7  1  0
  7  8  2  0
  8  9  1  0
  9 10  1  0
 10 11  2  0
 10 12  2  0
 10 13  1  0
 13 14  2  0
 14 15  1  0
 15 16  2  0
 16 17  1  0
 17 18  2  0
  9 19  2  0
 19 20  1  0
  2 21  1  0
 21 22  2  0
 22 23  1  0
 23 24  2  0
 24 25  1  0
 25 26  2  0
 19  5  1  0
 26 21  1  0
 18 13  1  0
  4 27  1  0
  6 28  1  0
  7 29  1  0
  8 30  1  0
 14 31  1  0
 15 32  1  0
 16 33  1  0
 17 34  1  0
 18 35  1  0
 22 36  1  0
 23 37  1  0
 24 38  1  0
 25 39  1  0
 26 40  1  0
M  CHG  1  20  -1
M  END
>  <UniqueID>  (13) 
13

>  <SMILES>  (13) 
O=S(=O)(Nc1cccc(S(=O)(=O)c2ccccc2)c1[O-])c1ccccc1

>  <Energy>  (13) 
48.848071897617004

>  <Genealogy>  (13) 
O=S(=O)(Nc1cccc(S(=O)(=O)c2ccccc2)c1[O-])c1ccccc1 (protonated)
O=S(=O)(Nc1cccc(S(=O)(=O)c2ccccc2)c1[O-])c1ccccc1 (3D coordinates assigned)
O=S(=O)(Nc1cccc(S(=O)(=O)c2ccccc2)c1[O-])c1ccccc1 (optimized conformer: 48.848071897617004 kcal/mol)

>  <smiles>  (13) 
O=S(=O)(Nc1cccc(S(=O)(=O)c2ccccc2)c1O)c1ccccc1

>  <score_type>  (13) 
oracle

>  <origin>  (13) 
adgpu

>  <m_score__min__energy>  (13) 
-12.91

>  <m_primary>  (13) 
energy

$$$$
13:0
     RDKit          3D

 33 34  0  0  0  0  0  0  0  0999 V2000
   -0.7760   23.2690  -29.0250 H   0  0  0  0  0  0  0  0  0  0  0  0
   -1.3250   22.6150  -29.5700 O   0  0  0  0  0  0  0  0  0  0  0  0
   -2.5840   22.9350  -30.0780 C   0  0  0  0  0  0  0  0  0  0  0  0
   -3.3320   21.9310  -30.7010 C   0  0  0  0  0  0  0  0  0  0  0  0
   -2.9211   20.9137  -30.7802 H   0  0  0  0  0  0  0  0  0  0  0  0
   -4.5960   22.2100  -31.2230 C   0  0  0  0  0  0  0  0  0  0  0  0
   -5.1741   21.4136  -31.7146 H   0  0  0  0  0  0  0  0  0  0  0  0
   -5.1310   23.5010  -31.1230 C   0  0  0  0  0  0  0  0  0  0  0  0
   -6.4840   23.8160  -31.7080 C   0  0  0  0  0  0  0  0  0  0  0  0
   -6.4128   23.8152  -32.8057 H   0  0  0  0  0  0  0  0  0  0  0  0
   -6.8050   24.8051  -31.3494 H   0  0  0  0  0  0  0  0  0  0  0  0
   -7.4680   22.8190  -31.2890 N   0  0  0  0  0  0  0  0  0  0  0  0
   -7.5370   21.6170  -31.7760 C   0  0  0  0  0  0  0  0  0  0  0  0
   -6.7180   21.1200  -32.7250 N   0  0  0  0  0  0  0  0  0  0  0  0
   -7.0520   19.8270  -33.0270 C   0  0  0  0  0  0  0  0  0  0  0  0
   -6.1440   18.9000  -34.2570 S   0  0  0  0  0  0  0  0  0  0  0  0
   -6.4950   17.2980  -33.4730 C   0  0  0  0  0  0  0  0  0  0  0  0
   -6.4701   17.4118  -32.3792 H   0  0  0  0  0  0  0  0  0  0  0  0
   -7.4910   16.9486  -33.7827 H   0  0  0  0  0  0  0  0  0  0  0  0
   -5.7363   16.5642  -33.7827 H   0  0  0  0  0  0  0  0  0  0  0  0
   -8.1040   19.2740  -32.3590 N   0  0  0  0  0  0  0  0  0  0  0  0
   -8.6440   20.4670  -31.3350 S   0  0  0  0  0  0  0  0  0  0  0  0
   -4.3830   24.5120  -30.5010 C   0  0  0  0  0  0  0  0  0  0  0  0
   -4.7985   25.5276  -30.4239 H   0  0  0  0  0  0  0  0  0  0  0  0
   -3.1070   24.2400  -29.9750 C   0  0  0  0  0  0  0  0  0  0  0  0
   -2.3240   25.2600  -29.3370 N   0  0  0  0  0  0  0  0  0  0  0  0
   -1.2570   25.0150  -27.9930 S   0  0  0  0  0  0  0  0  0  0  0  0
    0.1360   24.7490  -28.4880 O   0  0  0  0  0  0  0  0  0  0  0  0
   -1.7370   23.8570  -27.1630 O   0  0  0  0  0  0  0  0  0  0  0  0
   -1.2470   26.4830  -26.9910 C   0  0  0  0  0  0  0  0  0  0  0  0
   -1.2489   26.2012  -25.9277 H   0  0  0  0  0  0  0  0  0  0  0  0
   -0.3448   27.0720  -27.2126 H   0  0  0  0  0  0  0  0  0  0  0  0
   -2.1411   27.0843  -27.2126 H   0  0  0  0  0  0  0  0  0  0  0  0
  1  2  1  0
  2  3  1  0
  3  4  2  0
  4  5  1  0
  4  6  1  0
  6  7  1  0
  6  8  2  0
  8  9  1  0
  9 10  1  0
  9 11  1  0
  9 12  1  0
 12 13  2  0
 13 14  1  0
 14 15  1  0
 15 16  1  0
 16 17  1  0
 17 18  1  0
 17 19  1  0
 17 20  1  0
 15 21  2  0
 21 22  1  0
  8 23  1  0
 23 24  1  0
 23 25  2  0
 25 26  1  0
 26 27  1  0
 27 28  2  0
 27 29  2  0
 27 30  1  0
 30 31  1  0
 30 32  1  0
 30 33  1  0
 25  3  1  0
 22 13  1  0
M  CHG  2  14  -1  26  -1
M  END
>  <UniqueID>  (14) 
14

>  <SMILES>  (14) 
CSc1ns/c(=N/Cc2ccc(O)c([N-]S(C)(=O)=O)c2)[n-]1

>  <Energy>  (14) 
64.34965946693086

>  <Genealogy>  (14) 
CSc1nsc(=NCc2ccc(O)c([N-]S(C)(=O)=O)c2)[n-]1 (protonated)
CSc1ns/c(=N/Cc2ccc(O)c([N-]S(C)(=O)=O)c2)[n-]1 (cis-trans isomerization)
CSc1ns/c(=N/Cc2ccc(O)c([N-]S(C)(=O)=O)c2)[n-]1 (3D coordinates assigned)
CSc1ns/c(=N/Cc2ccc(O)c([N-]S(C)(=O)=O)c2)[n-]1 (optimized conformer: 64.34965946693086 kcal/mol)

>  <smiles>  (14) 
CSc1nsc(=NCc2ccc(O)c(NS(C)(=O)=O)c2)[nH]1

>  <score_type>  (14) 
oracle

>  <origin>  (14) 
adgpu

>  <m_score__min__energy>  (14) 
-9.2200000000000006

>  <m_primary>  (14) 
energy

$$$$
14:0
     RDKit          3D

 26 27  0  0  0  0  0  0  0  0999 V2000
   -2.5090   23.4920  -30.3840 O   0  0  0  0  0  0  0  0  0  0  0  0
   -3.6780   23.9560  -30.3710 C   0  0  0  0  0  0  0  0  0  0  0  0
   -4.7730   23.0970  -30.2340 C   0  0  0  0  0  0  0  0  0  0  0  0
   -6.0720   23.6290  -30.2290 C   0  0  0  0  0  0  0  0  0  0  0  0
   -7.2710   22.7290  -30.0750 C   0  0  0  0  0  0  0  0  0  0  0  0
   -7.7410   22.2650  -31.3810 N   0  0  0  0  0  0  0  0  0  0  0  0
   -7.4520   20.9690  -31.9400 C   0  0  0  0  0  0  0  0  0  0  0  0
   -6.3040   20.8060  -32.7330 C   0  0  0  0  0  0  0  0  0  0  0  0
   -5.9930   19.5600  -33.2870 C   0  0  0  0  0  0  0  0  0  0  0  0
   -6.8280   18.4640  -33.0570 C   0  0  0  0  0  0  0  0  0  0  0  0
   -6.4030   16.7620  -33.8140 Br  0  0  0  0  0  0  0  0  0  0  0  0
   -7.9760   18.6140  -32.2750 C   0  0  0  0  0  0  0  0  0  0  0  0
   -8.2920   19.8580  -31.7200 C   0  0  0  0  0  0  0  0  0  0  0  0
   -6.2420   25.0160  -30.3430 C   0  0  0  0  0  0  0  0  0  0  0  0
   -5.1210   25.8390  -30.4780 C   0  0  0  0  0  0  0  0  0  0  0  0
   -3.8750   25.2960  -30.4900 N   0  0  0  0  0  0  0  0  0  0  0  0
   -4.6176   22.0129  -30.1310 H   0  0  0  0  0  0  0  0  0  0  0  0
   -6.9932   21.8593  -29.4614 H   0  0  0  0  0  0  0  0  0  0  0  0
   -8.0789   23.2963  -29.5897 H   0  0  0  0  0  0  0  0  0  0  0  0
   -8.2890   22.9440  -31.9570 H   0  0  0  0  0  0  0  0  0  0  0  0
   -5.6439   21.6658  -32.9199 H   0  0  0  0  0  0  0  0  0  0  0  0
   -5.0901   19.4430  -33.9043 H   0  0  0  0  0  0  0  0  0  0  0  0
   -8.6335   17.7506  -32.0953 H   0  0  0  0  0  0  0  0  0  0  0  0
   -9.1998   19.9704  -31.1091 H   0  0  0  0  0  0  0  0  0  0  0  0
   -7.2512   25.4534  -30.3263 H   0  0  0  0  0  0  0  0  0  0  0  0
   -5.2469   26.9275  -30.5747 H   0  0  0  0  0  0  0  0  0  0  0  0
  1  2  2  0
  2  3  1  0
  3  4  2  0
  4  5  1  0
  5  6  1  0
  6  7  1  0
  7  8  2  0
  8  9  1  0
  9 10  2  0
 10 11  1  0
 10 12  1  0
 12 13  2  0
  4 14  1  0
 14 15  2  0
 15 16  1  0
 16  2  1  0
 13  7  1  0
  3 17  1  0
  5 18  1  0
  5 19  1  0
  6 20  1  0
  8 21  1  0
  9 22  1  0
 12 23  1  0
 13 24  1  0
 14 25  1  0
 15 26  1  0
M  CHG  1  16  -1
M  END
>  <UniqueID>  (15) 
15

>  <SMILES>  (15) 
O=c1cc(CNc2ccc(Br)cc2)cc[n-]1

>  <Energy>  (15) 
26.71046697302979

>  <Genealogy>  (15) 
O=c1cc(CNc2ccc(Br)cc2)cc[n-]1 (protonated)
O=c1cc(CNc2ccc(Br)cc2)cc[n-]1 (3D coordinates assigned)
O=c1cc(CNc2ccc(Br)cc2)cc[n-]1 (optimized conformer: 26.71046697302979 kcal/mol)

>  <smiles>  (15) 
O=c1cc(CNc2ccc(Br)cc2)cc[nH]1

>  <score_type>  (15) 
oracle

>  <origin>  (15) 
adgpu

>  <m_score__min__energy>  (15) 
-8.7699999999999996

>  <m_primary>  (15) 
energy

$$$$
15:0
     RDKit          3D

 37 39  0  0  0  0  0  0  0  0999 V2000
   -6.8530   16.4000  -33.5850 C   0  0  0  0  0  0  0  0  0  0  0  0
   -6.7400   17.8740  -33.2960 C   0  0  0  0  0  0  0  0  0  0  0  0
   -7.7590   18.5130  -32.5710 C   0  0  0  0  0  0  0  0  0  0  0  0
   -7.6860   19.8790  -32.2930 C   0  0  0  0  0  0  0  0  0  0  0  0
   -6.5840   20.6310  -32.7240 C   0  0  0  0  0  0  0  0  0  0  0  0
   -6.5010   22.0420  -32.4670 N   0  0  0  0  0  0  0  0  0  0  0  0
   -5.4750   22.6550  -31.6740 C   0  0  0  0  0  0  0  0  0  0  0  0
   -5.3440   24.0210  -31.4770 C   0  0  0  0  0  0  0  0  0  0  0  0
   -4.2010   24.3580  -30.7420 C   0  0  0  0  0  0  0  0  0  0  0  0
   -3.8670   25.6770  -30.4630 O   0  0  0  0  0  0  0  0  0  0  0  0
   -3.4220   23.2610  -30.3620 C   0  0  0  0  0  0  0  0  0  0  0  0
   -2.1570   23.2810  -29.5900 C   0  0  0  0  0  0  0  0  0  0  0  0
   -1.5070   22.0740  -29.2740 C   0  0  0  0  0  0  0  0  0  0  0  0
   -0.3160   22.0810  -28.5410 C   0  0  0  0  0  0  0  0  0  0  0  0
    0.2350   23.2890  -28.1080 C   0  0  0  0  0  0  0  0  0  0  0  0
    1.4200   23.2890  -27.3810 O   0  0  0  0  0  0  0  0  0  0  0  0
   -0.4100   24.4960  -28.4050 C   0  0  0  0  0  0  0  0  0  0  0  0
    0.1290   25.7000  -27.9670 O   0  0  0  0  0  0  0  0  0  0  0  0
   -1.6000   24.4920  -29.1400 C   0  0  0  0  0  0  0  0  0  0  0  0
   -4.1580   21.8700  -30.9710 S   0  0  0  0  0  0  0  0  0  0  0  0
   -5.5820   20.0090  -33.4770 C   0  0  0  0  0  0  0  0  0  0  0  0
   -5.6460   18.6360  -33.7710 C   0  0  0  0  0  0  0  0  0  0  0  0
   -4.5360   17.9980  -34.5660 C   0  0  0  0  0  0  0  0  0  0  0  0
   -6.8957   15.8428  -32.6375 H   0  0  0  0  0  0  0  0  0  0  0  0
   -7.7684   16.2090  -34.1643 H   0  0  0  0  0  0  0  0  0  0  0  0
   -5.9774   16.0717  -34.1643 H   0  0  0  0  0  0  0  0  0  0  0  0
   -8.6235   17.9312  -32.2186 H   0  0  0  0  0  0  0  0  0  0  0  0
   -8.4969   20.3678  -31.7331 H   0  0  0  0  0  0  0  0  0  0  0  0
   -7.1820   22.6720  -32.9500 H   0  0  0  0  0  0  0  0  0  0  0  0
   -6.0623   24.7619  -31.8580 H   0  0  0  0  0  0  0  0  0  0  0  0
   -1.9385   21.1181  -29.6058 H   0  0  0  0  0  0  0  0  0  0  0  0
    0.1882   21.1323  -28.3048 H   0  0  0  0  0  0  0  0  0  0  0  0
   -2.1041   25.4428  -29.3679 H   0  0  0  0  0  0  0  0  0  0  0  0
   -4.7321   20.6030  -33.8441 H   0  0  0  0  0  0  0  0  0  0  0  0
   -3.7916   17.5701  -33.8784 H   0  0  0  0  0  0  0  0  0  0  0  0
   -4.9507   17.2004  -35.2000 H   0  0  0  0  0  0  0  0  0  0  0  0
   -4.0555   18.7578  -35.2000 H   0  0  0  0  0  0  0  0  0  0  0  0
  1  2  1  0
  2  3  2  0
  3  4  1  0
  4  5  2  0
  5  6  1  0
  6  7  1  0
  7  8  2  0
  8  9  1  0
  9 10  1  0
  9 11  2  0
 11 12  1  0
 12 13  2  0
 13 14  1  0
 14 15  2  0
 15 16  1  0
 15 17  1  0
 17 18  1  0
 17 19  2  0
 11 20  1  0
  5 21  1  0
 21 22  2  0
 22 23  1  0
 22  2  1  0
 20  7  1  0
 19 12  1  0
  1 24  1  0
  1 25  1  0
  1 26  1  0
  3 27  1  0
  4 28  1  0
  6 29  1  0
  8 30  1  0
 13 31  1  0
 14 32  1  0
 19 33  1  0
 21 34  1  0
 23 35  1  0
 23 36  1  0
 23 37  1  0
M  CHG  3  10  -1  16  -1  18  -1
M  END
>  <UniqueID>  (16) 
16

>  <SMILES>  (16) 
Cc1ccc(Nc2cc([O-])c(-c3ccc([O-])c([O-])c3)s2)cc1C

>  <Energy>  (16) 
75.19653142211352

>  <Genealogy>  (16) 
Cc1ccc(Nc2cc([O-])c(-c3ccc([O-])c([O-])c3)s2)cc1C (protonated)
Cc1ccc(Nc2cc([O-])c(-c3ccc([O-])c([O-])c3)s2)cc1C (3D coordinates assigned)
Cc1ccc(Nc2cc([O-])c(-c3ccc([O-])c([O-])c3)s2)cc1C (optimized conformer: 75.19653142211352 kcal/mol)

>  <smiles>  (16) 
Cc1ccc(Nc2cc(O)c(-c3ccc(O)c(O)c3)s2)cc1C

>  <score_type>  (16) 
oracle

>  <origin>  (16) 
adgpu

>  <m_score__min__energy>  (16) 
-12.17

>  <m_primary>  (16) 
energy

$$$$
16:0
     RDKit          3D

 53 55  0  0  0  0  0  0  0  0999 V2000
   -9.4150   19.9550  -32.1050 C   0  0  0  0  0  0  0  0  0  0  0  0
   -8.3680   21.0270  -31.9660 C   0  0  0  0  0  0  0  0  0  0  0  0
   -8.7800   22.3690  -31.8920 C   0  0  0  0  0  0  0  0  0  0  0  0
   -7.8440   23.3960  -31.7820 C   0  0  0  0  0  0  0  0  0  0  0  0
   -6.4740   23.1040  -31.7700 C   0  0  0  0  0  0  0  0  0  0  0  0
   -5.4890   24.1430  -31.7030 N   0  0  0  0  0  0  0  0  0  0  0  0
   -4.3640   24.1710  -30.8140 C   0  0  0  0  0  0  0  0  0  0  0  0
   -3.8750   25.2860  -30.4930 O   0  0  0  0  0  0  0  0  0  0  0  0
   -3.8630   22.9590  -30.2230 N   0  0  0  0  0  0  0  0  0  0  0  0
   -2.7880   22.8930  -29.2710 C   0  0  0  0  0  0  0  0  0  0  0  0
   -2.8240   23.2550  -27.9380 C   0  0  0  0  0  0  0  0  0  0  0  0
   -1.5680   23.1830  -27.4570 N   0  0  0  0  0  0  0  0  0  0  0  0
   -1.1510   23.5650  -26.1150 C   0  0  0  0  0  0  0  0  0  0  0  0
   -0.7250   22.8310  -28.4170 N   0  0  0  0  0  0  0  0  0  0  0  0
   -1.4460   22.6370  -29.5370 C   0  0  0  0  0  0  0  0  0  0  0  0
   -0.8580   22.2680  -30.7560 O   0  0  0  0  0  0  0  0  0  0  0  0
   -1.4390   21.3970  -31.6860 C   0  0  0  0  0  0  0  0  0  0  0  0
   -2.4010   21.9050  -32.5670 C   0  0  0  0  0  0  0  0  0  0  0  0
   -3.0540   21.0610  -33.4660 C   0  0  0  0  0  0  0  0  0  0  0  0
   -2.7280   19.7040  -33.5140 C   0  0  0  0  0  0  0  0  0  0  0  0
   -1.7400   19.1850  -32.6690 C   0  0  0  0  0  0  0  0  0  0  0  0
   -1.3420   17.4740  -32.7850 Cl  0  0  0  0  0  0  0  0  0  0  0  0
   -1.0850   20.0300  -31.7520 C   0  0  0  0  0  0  0  0  0  0  0  0
   -0.0400   19.5060  -30.9050 C   0  0  0  0  0  0  0  0  0  0  0  0
    0.7980   19.0860  -30.2260 N   0  0  0  0  0  0  0  0  0  0  0  0
   -6.0550   21.7710  -31.8010 C   0  0  0  0  0  0  0  0  0  0  0  0
   -6.9830   20.7250  -31.9340 C   0  0  0  0  0  0  0  0  0  0  0  0
   -6.3860   19.0560  -32.0140 S   0  0  0  0  0  0  0  0  0  0  0  0
   -4.9050   19.0750  -31.7550 O   0  0  0  0  0  0  0  0  0  0  0  0
   -7.0620   18.2180  -30.9630 O   0  0  0  0  0  0  0  0  0  0  0  0
   -6.6970   18.3630  -33.5890 N   0  0  0  0  0  0  0  0  0  0  0  0
   -6.5470   16.9030  -33.5250 C   0  0  0  0  0  0  0  0  0  0  0  0
   -5.7490   18.9180  -34.5640 C   0  0  0  0  0  0  0  0  0  0  0  0
   -9.7370   19.6253  -31.1062 H   0  0  0  0  0  0  0  0  0  0  0  0
  -10.2792   20.3556  -32.6552 H   0  0  0  0  0  0  0  0  0  0  0  0
   -8.9941   19.1005  -32.6552 H   0  0  0  0  0  0  0  0  0  0  0  0
   -9.8526   22.6112  -31.9212 H   0  0  0  0  0  0  0  0  0  0  0  0
   -8.1824   24.4398  -31.7043 H   0  0  0  0  0  0  0  0  0  0  0  0
   -4.3580   22.0740  -30.4470 H   0  0  0  0  0  0  0  0  0  0  0  0
   -3.7192   23.5496  -27.3706 H   0  0  0  0  0  0  0  0  0  0  0  0
   -1.7507   23.0156  -25.3744 H   0  0  0  0  0  0  0  0  0  0  0  0
   -0.0870   23.3217  -25.9785 H   0  0  0  0  0  0  0  0  0  0  0  0
   -1.3003   24.6462  -25.9785 H   0  0  0  0  0  0  0  0  0  0  0  0
   -2.6440   22.9777  -32.5504 H   0  0  0  0  0  0  0  0  0  0  0  0
   -3.8261   21.4649  -34.1374 H   0  0  0  0  0  0  0  0  0  0  0  0
   -3.2498   19.0400  -34.2189 H   0  0  0  0  0  0  0  0  0  0  0  0
   -4.9831   21.5377  -31.7201 H   0  0  0  0  0  0  0  0  0  0  0  0
   -6.5142   16.5835  -32.4729 H   0  0  0  0  0  0  0  0  0  0  0  0
   -7.4007   16.4243  -34.0271 H   0  0  0  0  0  0  0  0  0  0  0  0
   -5.6138   16.6079  -34.0271 H   0  0  0  0  0  0  0  0  0  0  0  0
   -4.9182   19.4044  -34.0318 H   0  0  0  0  0  0  0  0  0  0  0  0
   -5.3556   18.1076  -35.1952 H   0  0  0  0  0  0  0  0  0  0  0  0
   -6.2632   19.6577  -35.1952 H   0  0  0  0  0  0  0  0  0  0  0  0
  1  2  1  0
  2  3  2  0
  3  4  1  0
  4  5  2  0
  5  6  1  0
  6  7  1  0
  7  8  2  0
  7  9  1  0
  9 10  1  0
 10 11  2  0
 11 12  1  0
 12 13  1  0
 12 14  1  0
 14 15  2  0
 15 16  1  0
 16 17  1  0
 17 18  2  0
 18 19  1  0
 19 20  2  0
 20 21  1  0
 21 22  1  0
 21 23  2  0
 23 24  1  0
 24 25  3  0
  5 26  1  0
 26 27  2  0
 27 28  1  0
 28 29  2  0
 28 30  2  0
 28 31  1  0
 31 32  1  0
 31 33  1  0
 27  2  1  0
 15 10  1  0
 23 17  1  0
  1 34  1  0
  1 35  1  0
  1 36  1  0
  3 37  1  0
  4 38  1  0
  9 39  1  0
 11 40  1  0
 13 41  1  0
 13 42  1  0
 13 43  1  0
 18 44  1  0
 19 45  1  0
 20 46  1  0
 26 47  1  0
 32 48  1  0
 32 49  1  0
 32 50  1  0
 33 51  1  0
 33 52  1  0
 33 53  1  0
M  CHG  1   6  -1
M  END
>  <UniqueID>  (17) 
17

>  <SMILES>  (17) 
Cc1ccc([N-]C(=O)Nc2cn(C)nc2Oc2cccc(Cl)c2C#N)cc1S(=O)(=O)N(C)C

>  <Energy>  (17) 
96.70678421648569

>  <Genealogy>  (17) 
Cc1ccc([N-]C(=O)Nc2cn(C)nc2Oc2cccc(Cl)c2C#N)cc1S(=O)(=O)N(C)C (protonated)
Cc1ccc([N-]C(=O)Nc2cn(C)nc2Oc2cccc(Cl)c2C#N)cc1S(=O)(=O)N(C)C (3D coordinates assigned)
Cc1ccc([N-]C(=O)Nc2cn(C)nc2Oc2cccc(Cl)c2C#N)cc1S(=O)(=O)N(C)C (optimized conformer: 96.70678421648569 kcal/mol)

>  <smiles>  (17) 
Cc1ccc(NC(=O)Nc2cn(C)nc2Oc2cccc(Cl)c2C#N)cc1S(=O)(=O)N(C)C

>  <score_type>  (17) 
oracle

>  <origin>  (17) 
adgpu

>  <m_score__min__energy>  (17) 
-11.390000000000001

>  <m_primary>  (17) 
energy

$$$$
17:0
     RDKit          3D

 48 51  0  0  0  0  0  0  0  0999 V2000
   -8.7990   19.3040  -32.3710 C   0  0  0  0  0  0  0  0  0  0  0  0
   -7.8630   20.1870  -32.9800 O   0  0  0  0  0  0  0  0  0  0  0  0
   -7.2580   21.2770  -32.3320 C   0  0  0  0  0  0  0  0  0  0  0  0
   -8.0140   22.2330  -31.6250 C   0  0  0  0  0  0  0  0  0  0  0  0
   -7.3820   23.2980  -30.9790 C   0  0  0  0  0  0  0  0  0  0  0  0
   -5.9880   23.4130  -31.0080 C   0  0  0  0  0  0  0  0  0  0  0  0
   -5.1770   24.7240  -30.1520 S   0  0  0  0  0  0  0  0  0  0  0  0
   -6.0540   25.9440  -30.2030 O   0  0  0  0  0  0  0  0  0  0  0  0
   -3.8630   25.0370  -30.8130 O   0  0  0  0  0  0  0  0  0  0  0  0
   -4.8860   24.3100  -28.4900 N   0  0  0  0  0  0  0  0  0  0  0  0
   -3.6010   23.9340  -27.9590 C   0  0  0  0  0  0  0  0  0  0  0  0
   -2.7710   24.9270  -27.4180 C   0  0  0  0  0  0  0  0  0  0  0  0
   -1.5360   24.5930  -26.8590 C   0  0  0  0  0  0  0  0  0  0  0  0
   -1.1180   23.2610  -26.8240 C   0  0  0  0  0  0  0  0  0  0  0  0
   -1.9280   22.2480  -27.3660 C   0  0  0  0  0  0  0  0  0  0  0  0
   -1.5340   20.8190  -27.2870 C   0  0  0  0  0  0  0  0  0  0  0  0
   -2.4130   19.8220  -26.7840 C   0  0  0  0  0  0  0  0  0  0  0  0
   -2.0040   18.4770  -26.7400 C   0  0  0  0  0  0  0  0  0  0  0  0
   -0.7250   18.1930  -27.1980 C   0  0  0  0  0  0  0  0  0  0  0  0
   -0.1160   16.9950  -27.2680 N   0  0  0  0  0  0  0  0  0  0  0  0
    1.0950   17.2240  -27.7790 N   0  0  0  0  0  0  0  0  0  0  0  0
    1.1980   18.5560  -28.0000 C   0  0  0  0  0  0  0  0  0  0  0  0
    2.3820   19.2310  -28.6090 C   0  0  0  0  0  0  0  0  0  0  0  0
    0.0630   19.1670  -27.6460 N   0  0  0  0  0  0  0  0  0  0  0  0
   -0.2870   20.4480  -27.7090 N   0  0  0  0  0  0  0  0  0  0  0  0
   -3.1640   22.5970  -27.9400 C   0  0  0  0  0  0  0  0  0  0  0  0
   -5.2310   22.4740  -31.7180 C   0  0  0  0  0  0  0  0  0  0  0  0
   -5.8580   21.4130  -32.3910 C   0  0  0  0  0  0  0  0  0  0  0  0
   -5.0320   20.4080  -33.1450 C   0  0  0  0  0  0  0  0  0  0  0  0
   -8.7174   19.3810  -31.2767 H   0  0  0  0  0  0  0  0  0  0  0  0
   -9.8178   19.5777  -32.6828 H   0  0  0  0  0  0  0  0  0  0  0  0
   -8.5851   18.2710  -32.6828 H   0  0  0  0  0  0  0  0  0  0  0  0
   -9.1092   22.1400  -31.5815 H   0  0  0  0  0  0  0  0  0  0  0  0
   -7.9827   24.0493  -30.4454 H   0  0  0  0  0  0  0  0  0  0  0  0
   -5.7050   24.3600  -27.8440 H   0  0  0  0  0  0  0  0  0  0  0  0
   -3.0959   25.9778  -27.4343 H   0  0  0  0  0  0  0  0  0  0  0  0
   -0.8903   25.3814  -26.4449 H   0  0  0  0  0  0  0  0  0  0  0  0
   -0.1498   23.0031  -26.3699 H   0  0  0  0  0  0  0  0  0  0  0  0
   -3.4153   20.1028  -26.4283 H   0  0  0  0  0  0  0  0  0  0  0  0
   -2.6675   17.6863  -26.3599 H   0  0  0  0  0  0  0  0  0  0  0  0
    3.0404   19.6063  -27.8117 H   0  0  0  0  0  0  0  0  0  0  0  0
    2.9339   18.5118  -29.2320 H   0  0  0  0  0  0  0  0  0  0  0  0
    2.0442   20.0723  -29.2320 H   0  0  0  0  0  0  0  0  0  0  0  0
   -3.7979   21.8132  -28.3803 H   0  0  0  0  0  0  0  0  0  0  0  0
   -4.1355   22.5680  -31.7491 H   0  0  0  0  0  0  0  0  0  0  0  0
   -4.5004   19.7611  -32.4316 H   0  0  0  0  0  0  0  0  0  0  0  0
   -5.6895   19.7935  -33.7775 H   0  0  0  0  0  0  0  0  0  0  0  0
   -4.3018   20.9341  -33.7775 H   0  0  0  0  0  0  0  0  0  0  0  0
  1  2  1  0
  2  3  1  0
  3  4  2  0
  4  5  1  0
  5  6  2  0
  6  7  1  0
  7  8  2  0
  7  9  2  0
  7 10  1  0
 10 11  1  0
 11 12  2  0
 12 13  1  0
 13 14  2  0
 14 15  1  0
 15 16  1  0
 16 17  1  0
 17 18  2  0
 18 19  1  0
 19 20  2  0
 20 21  1  0
 21 22  2  0
 22 23  1  0
 22 24  1  0
 24 25  1  0
 15 26  2  0
  6 27  1  0
 27 28  2  0
 28 29  1  0
 28  3  1  0
 26 11  1  0
 25 16  2  0
 24 19  1  0
  1 30  1  0
  1 31  1  0
  1 32  1  0
  4 33  1  0
  5 34  1  0
 10 35  1  0
 12 36  1  0
 13 37  1  0
 14 38  1  0
 17 39  1  0
 18 40  1  0
 23 41  1  0
 23 42  1  0
 23 43  1  0
 26 44  1  0
 27 45  1  0
 29 46  1  0
 29 47  1  0
 29 48  1  0
M  END
>  <UniqueID>  (18) 
18

>  <SMILES>  (18) 
COc1ccc(S(=O)(=O)Nc2cccc(-c3ccc4nnc(C)n4n3)c2)cc1C

>  <Energy>  (18) 
97.38889110671471

>  <Genealogy>  (18) 
COc1ccc(S(=O)(=O)Nc2cccc(-c3ccc4nnc(C)n4n3)c2)cc1C (3D coordinates assigned)
COc1ccc(S(=O)(=O)Nc2cccc(-c3ccc4nnc(C)n4n3)c2)cc1C (optimized conformer: 97.38889110671471 kcal/mol)

>  <smiles>  (18) 
COc1ccc(S(=O)(=O)Nc2cccc(-c3ccc4nnc(C)n4n3)c2)cc1C

>  <score_type>  (18) 
oracle

>  <origin>  (18) 
adgpu

>  <m_score__min__energy>  (18) 
-10.17

>  <m_primary>  (18) 
energy

$$$$
18:0
     RDKit          3D

 55 58  0  0  0  0  0  0  0  0999 V2000
   -1.3392   22.5418  -25.4819 H   0  0  0  0  0  0  0  0  0  0  0  0
   -0.9680   23.2340  -26.2520 C   0  0  0  0  0  0  0  0  0  0  0  0
    0.2100   23.8370  -26.0300 C   0  0  0  0  0  0  0  0  0  0  0  0
    1.0870   23.6130  -24.4740 S   0  0  0  0  0  0  0  0  0  0  0  0
    2.3200   24.7690  -25.0770 C   0  0  0  0  0  0  0  0  0  0  0  0
    3.2860   25.1520  -24.3670 O   0  0  0  0  0  0  0  0  0  0  0  0
    2.1390   25.2340  -26.4050 N   0  0  0  0  0  0  0  0  0  0  0  0
    2.7940   25.8760  -26.9060 H   0  0  0  0  0  0  0  0  0  0  0  0
    0.9590   24.6910  -26.9630 C   0  0  0  0  0  0  0  0  0  0  0  0
    0.6410   24.8890  -28.1650 O   0  0  0  0  0  0  0  0  0  0  0  0
   -1.8020   23.4310  -27.4530 C   0  0  0  0  0  0  0  0  0  0  0  0
   -1.3910   22.9510  -28.7070 C   0  0  0  0  0  0  0  0  0  0  0  0
   -0.4513   22.3862  -28.7963 H   0  0  0  0  0  0  0  0  0  0  0  0
   -2.1710   23.1880  -29.8420 C   0  0  0  0  0  0  0  0  0  0  0  0
   -1.8478   22.7970  -30.8180 H   0  0  0  0  0  0  0  0  0  0  0  0
   -3.3600   23.9190  -29.7460 C   0  0  0  0  0  0  0  0  0  0  0  0
   -4.1140   24.1290  -30.9110 O   0  0  0  0  0  0  0  0  0  0  0  0
   -5.0010   23.1920  -31.4570 C   0  0  0  0  0  0  0  0  0  0  0  0
   -4.4720   22.1630  -32.2350 C   0  0  0  0  0  0  0  0  0  0  0  0
   -3.3841   22.0966  -32.3835 H   0  0  0  0  0  0  0  0  0  0  0  0
   -5.3060   21.2200  -32.8250 C   0  0  0  0  0  0  0  0  0  0  0  0
   -4.8714   20.4103  -33.4295 H   0  0  0  0  0  0  0  0  0  0  0  0
   -6.6990   21.2920  -32.6560 C   0  0  0  0  0  0  0  0  0  0  0  0
   -7.5620   20.3490  -33.2420 O   0  0  0  0  0  0  0  0  0  0  0  0
   -8.3620   19.3970  -32.5380 C   0  0  0  0  0  0  0  0  0  0  0  0
   -8.3644   19.6523  -31.4680 H   0  0  0  0  0  0  0  0  0  0  0  0
   -9.3822   19.4297  -32.9479 H   0  0  0  0  0  0  0  0  0  0  0  0
   -7.8160   17.9750  -32.7110 C   0  0  0  0  0  0  0  0  0  0  0  0
   -7.8524   17.4561  -31.7417 H   0  0  0  0  0  0  0  0  0  0  0  0
   -8.4355   17.4517  -33.4542 H   0  0  0  0  0  0  0  0  0  0  0  0
   -6.3920   17.9950  -33.2050 C   0  0  0  0  0  0  0  0  0  0  0  0
   -5.3260   18.0970  -32.2950 C   0  0  0  0  0  0  0  0  0  0  0  0
   -5.5316   18.2024  -31.2195 H   0  0  0  0  0  0  0  0  0  0  0  0
   -4.0050   18.0650  -32.7520 C   0  0  0  0  0  0  0  0  0  0  0  0
   -3.1742   18.1486  -32.0359 H   0  0  0  0  0  0  0  0  0  0  0  0
   -3.7380   17.9270  -34.1170 C   0  0  0  0  0  0  0  0  0  0  0  0
   -2.4570   17.8960  -34.5580 F   0  0  0  0  0  0  0  0  0  0  0  0
   -4.7940   17.8190  -35.0280 C   0  0  0  0  0  0  0  0  0  0  0  0
   -4.5836   17.7111  -36.1023 H   0  0  0  0  0  0  0  0  0  0  0  0
   -6.1170   17.8480  -34.5750 C   0  0  0  0  0  0  0  0  0  0  0  0
   -6.9447   17.7554  -35.2935 H   0  0  0  0  0  0  0  0  0  0  0  0
   -7.2530   22.3340  -31.8780 C   0  0  0  0  0  0  0  0  0  0  0  0
   -8.7510   22.3990  -31.6850 C   0  0  0  0  0  0  0  0  0  0  0  0
   -8.9820   22.4090  -30.6096 H   0  0  0  0  0  0  0  0  0  0  0  0
   -9.1415   23.3149  -32.1525 H   0  0  0  0  0  0  0  0  0  0  0  0
   -9.2194   21.5203  -32.1525 H   0  0  0  0  0  0  0  0  0  0  0  0
   -6.3940   23.2550  -31.2200 C   0  0  0  0  0  0  0  0  0  0  0  0
   -6.9530   24.2980  -30.2800 C   0  0  0  0  0  0  0  0  0  0  0  0
   -6.7839   23.9825  -29.2399 H   0  0  0  0  0  0  0  0  0  0  0  0
   -6.4494   25.2596  -30.4580 H   0  0  0  0  0  0  0  0  0  0  0  0
   -8.0326   24.4111  -30.4580 H   0  0  0  0  0  0  0  0  0  0  0  0
   -3.7490   24.4380  -28.4970 C   0  0  0  0  0  0  0  0  0  0  0  0
   -4.6702   25.0335  -28.4141 H   0  0  0  0  0  0  0  0  0  0  0  0
   -2.9700   24.2000  -27.3620 C   0  0  0  0  0  0  0  0  0  0  0  0
   -3.2751   24.6185  -26.3916 H   0  0  0  0  0  0  0  0  0  0  0  0
  1  2  1  0
  2  3  2  0
  3  4  1  0
  4  5  1  0
  5  6  2  0
  5  7  1  0
  7  8  1  0
  7  9  1  0
  9 10  2  0
  2 11  1  0
 11 12  2  0
 12 13  1  0
 12 14  1  0
 14 15  1  0
 14 16  2  0
 16 17  1  0
 17 18  1  0
 18 19  2  0
 19 20  1  0
 19 21  1  0
 21 22  1  0
 21 23  2  0
 23 24  1  0
 24 25  1  0
 25 26  1  0
 25 27  1  0
 25 28  1  0
 28 29  1  0
 28 30  1  0
 28 31  1  0
 31 32  2  0
 32 33  1  0
 32 34  1  0
 34 35  1  0
 34 36  2  0
 36 37  1  0
 36 38  1  0
 38 39  1  0
 38 40  2  0
 40 41  1  0
 23 42  1  0
 42 43  1  0
 43 44  1  0
 43 45  1  0
 43 46  1  0
 42 47  2  0
 47 48  1  0
 48 49  1  0
 48 50  1  0
 48 51  1  0
 16 52  1  0
 52 53  1  0
 52 54  2  0
 54 55  1  0
  9  3  1  0
 54 11  1  0
 47 18  1  0
 40 31  1  0
M  END
>  <UniqueID>  (19) 
19

>  <SMILES>  (19) 
Cc1c(OCCc2ccc(F)cc2)ccc(Oc2ccc(/C=C3/SC(=O)NC3=O)cc2)c1C

>  <Energy>  (19) 
93.09241210929513

>  <Genealogy>  (19) 
Cc1c(OCCc2ccc(F)cc2)ccc(Oc2ccc(/C=C3/SC(=O)NC3=O)cc2)c1C (cis-trans isomerization)
Cc1c(OCCc2ccc(F)cc2)ccc(Oc2ccc(/C=C3/SC(=O)NC3=O)cc2)c1C (3D coordinates assigned)
Cc1c(OCCc2ccc(F)cc2)ccc(Oc2ccc(/C=C3/SC(=O)NC3=O)cc2)c1C (nonaromatic ring conformer: 93.09241210929513 kcal/mol)

>  <smiles>  (19) 
Cc1c(OCCc2ccc(F)cc2)ccc(Oc2ccc(C=C3SC(=O)NC3=O)cc2)c1C

>  <score_type>  (19) 
oracle

>  <origin>  (19) 
adgpu

>  <m_score__min__energy>  (19) 
-10.130000000000001

>  <m_primary>  (19) 
energy

$$$$
19:0
     RDKit          3D

 50 53  0  0  0  0  0  0  0  0999 V2000
   -3.8790   25.3780  -30.7620 N   0  0  0  0  0  0  0  0  0  0  0  0
   -5.2780   25.4550  -30.4950 C   0  0  0  0  0  0  0  0  0  0  0  0
   -5.7520   26.5150  -30.0030 O   0  0  0  0  0  0  0  0  0  0  0  0
   -6.1650   24.3060  -30.7910 C   0  0  0  0  0  0  0  0  0  0  0  0
   -6.6540   23.4960  -29.7490 C   0  0  0  0  0  0  0  0  0  0  0  0
   -7.4900   22.4110  -30.0270 C   0  0  0  0  0  0  0  0  0  0  0  0
   -7.8390   22.1040  -31.3470 C   0  0  0  0  0  0  0  0  0  0  0  0
   -8.7100   20.9900  -31.5930 N   0  0  0  0  0  0  0  0  0  0  0  0
   -8.4440   19.8860  -32.4700 C   0  0  0  0  0  0  0  0  0  0  0  0
   -9.4170   19.3070  -33.0200 O   0  0  0  0  0  0  0  0  0  0  0  0
   -7.0710   19.3800  -32.7030 C   0  0  0  0  0  0  0  0  0  0  0  0
   -6.8570   18.0870  -33.2130 C   0  0  0  0  0  0  0  0  0  0  0  0
   -5.5600   17.6220  -33.4360 C   0  0  0  0  0  0  0  0  0  0  0  0
   -4.4630   18.4420  -33.1640 C   0  0  0  0  0  0  0  0  0  0  0  0
   -4.6590   19.7360  -32.6670 C   0  0  0  0  0  0  0  0  0  0  0  0
   -3.2650   20.7700  -32.3590 S   0  0  0  0  0  0  0  0  0  0  0  0
   -3.7630   22.1590  -32.0710 O   0  0  0  0  0  0  0  0  0  0  0  0
   -2.3900   20.8280  -33.5810 O   0  0  0  0  0  0  0  0  0  0  0  0
   -2.3600   20.1860  -30.9780 N   0  0  0  0  0  0  0  0  0  0  0  0
   -0.9630   20.6580  -30.9580 C   0  0  0  0  0  0  0  0  0  0  0  0
   -0.8510   22.1750  -30.7540 C   0  0  0  0  0  0  0  0  0  0  0  0
   -1.7880   22.6790  -29.6880 C   0  0  0  0  0  0  0  0  0  0  0  0
   -1.6280   23.9850  -29.1980 C   0  0  0  0  0  0  0  0  0  0  0  0
   -2.5170   24.4990  -28.2530 C   0  0  0  0  0  0  0  0  0  0  0  0
   -3.5780   23.7170  -27.7920 C   0  0  0  0  0  0  0  0  0  0  0  0
   -3.7550   22.4200  -28.2810 C   0  0  0  0  0  0  0  0  0  0  0  0
   -2.8750   21.8970  -29.2430 C   0  0  0  0  0  0  0  0  0  0  0  0
   -3.0530   20.4720  -29.7100 C   0  0  0  0  0  0  0  0  0  0  0  0
   -5.9630   20.2050  -32.4450 C   0  0  0  0  0  0  0  0  0  0  0  0
   -7.3740   22.9230  -32.3890 C   0  0  0  0  0  0  0  0  0  0  0  0
   -6.5380   24.0090  -32.1130 C   0  0  0  0  0  0  0  0  0  0  0  0
   -3.4190   26.0510  -31.4160 H   0  0  0  0  0  0  0  0  0  0  0  0
   -6.3762   23.7185  -28.7082 H   0  0  0  0  0  0  0  0  0  0  0  0
   -7.8764   21.7940  -29.2024 H   0  0  0  0  0  0  0  0  0  0  0  0
   -7.7166   17.4384  -33.4374 H   0  0  0  0  0  0  0  0  0  0  0  0
   -5.4015   16.6062  -33.8273 H   0  0  0  0  0  0  0  0  0  0  0  0
   -3.4428   18.0705  -33.3406 H   0  0  0  0  0  0  0  0  0  0  0  0
   -0.4330   20.1528  -30.1371 H   0  0  0  0  0  0  0  0  0  0  0  0
   -0.5194   20.4216  -31.9364 H   0  0  0  0  0  0  0  0  0  0  0  0
    0.1812   22.4173  -30.4611 H   0  0  0  0  0  0  0  0  0  0  0  0
   -1.1249   22.6631  -31.7010 H   0  0  0  0  0  0  0  0  0  0  0  0
   -0.7966   24.6070  -29.5613 H   0  0  0  0  0  0  0  0  0  0  0  0
   -2.3817   25.5216  -27.8708 H   0  0  0  0  0  0  0  0  0  0  0  0
   -4.2749   24.1222  -27.0435 H   0  0  0  0  0  0  0  0  0  0  0  0
   -4.5883   21.8049  -27.9105 H   0  0  0  0  0  0  0  0  0  0  0  0
   -2.6573   19.7983  -28.9357 H   0  0  0  0  0  0  0  0  0  0  0  0
   -4.1282   20.3166  -29.8828 H   0  0  0  0  0  0  0  0  0  0  0  0
   -6.1189   21.2259  -32.0663 H   0  0  0  0  0  0  0  0  0  0  0  0
   -7.6689   22.7090  -33.4269 H   0  0  0  0  0  0  0  0  0  0  0  0
   -6.1690   24.6364  -32.9377 H   0  0  0  0  0  0  0  0  0  0  0  0
  1  2  1  0
  2  3  2  0
  2  4  1  0
  4  5  2  0
  5  6  1  0
  6  7  2  0
  7  8  1  0
  8  9  1  0
  9 10  2  0
  9 11  1  0
 11 12  2  0
 12 13  1  0
 13 14  2  0
 14 15  1  0
 15 16  1  0
 16 17  2  0
 16 18  2  0
 16 19  1  0
 19 20  1  0
 20 21  1  0
 21 22  1  0
 22 23  2  0
 23 24  1  0
 24 25  2  0
 25 26  1  0
 26 27  2  0
 27 28  1  0
 15 29  2  0
  7 30  1  0
 30 31  2  0
 31  4  1  0
 29 11  1  0
 28 19  1  0
 27 22  1  0
  1 32  1  0
  5 33  1  0
  6 34  1  0
 12 35  1  0
 13 36  1  0
 14 37  1  0
 20 38  1  0
 20 39  1  0
 21 40  1  0
 21 41  1  0
 23 42  1  0
 24 43  1  0
 25 44  1  0
 26 45  1  0
 28 46  1  0
 28 47  1  0
 29 48  1  0
 30 49  1  0
 31 50  1  0
M  CHG  2   1  -1   8  -1
M  END
>  <UniqueID>  (20) 
20

>  <SMILES>  (20) 
[NH-]C(=O)c1ccc([N-]C(=O)c2cccc(S(=O)(=O)N3CCc4ccccc4C3)c2)cc1

>  <Energy>  (20) 
65.54572567926964

>  <Genealogy>  (20) 
[NH-]C(=O)c1ccc([N-]C(=O)c2cccc(S(=O)(=O)N3CCc4ccccc4C3)c2)cc1 (protonated)
[NH-]C(=O)c1ccc([N-]C(=O)c2cccc(S(=O)(=O)N3CCc4ccccc4C3)c2)cc1 (3D coordinates assigned)
[NH-]C(=O)c1ccc([N-]C(=O)c2cccc(S(=O)(=O)N3CCc4ccccc4C3)c2)cc1 (nonaromatic ring conformer: 65.54572567926964 kcal/mol)

>  <smiles>  (20) 
NC(=O)c1ccc(NC(=O)c2cccc(S(=O)(=O)N3CCc4ccccc4C3)c2)cc1

>  <score_type>  (20) 
oracle

>  <origin>  (20) 
adgpu

>  <m_score__min__energy>  (20) 
-12.91

>  <m_primary>  (20) 
energy

$$$$
20:0
     RDKit          3D

 57 59  0  0  0  0  0  0  0  0999 V2000
    0.0490   26.4170  -27.4260 C   0  0  0  0  0  0  0  0  0  0  0  0
   -0.7290   25.1420  -27.5970 C   0  0  0  0  0  0  0  0  0  0  0  0
   -1.7890   25.1020  -28.5130 C   0  0  0  0  0  0  0  0  0  0  0  0
   -2.5300   23.9260  -28.7030 C   0  0  0  0  0  0  0  0  0  0  0  0
   -3.6450   23.8930  -29.6760 C   0  0  0  0  0  0  0  0  0  0  0  0
   -3.9030   24.8800  -30.5580 N   0  0  0  0  0  0  0  0  0  0  0  0
   -4.9450   24.4770  -31.2180 O   0  0  0  0  0  0  0  0  0  0  0  0
   -5.3230   23.3010  -30.7760 C   0  0  0  0  0  0  0  0  0  0  0  0
   -6.4770   22.5470  -31.3010 C   0  0  0  0  0  0  0  0  0  0  0  0
   -7.7810   23.0500  -31.1640 C   0  0  0  0  0  0  0  0  0  0  0  0
   -8.8700   22.3310  -31.6630 C   0  0  0  0  0  0  0  0  0  0  0  0
   -8.6680   21.1080  -32.3060 C   0  0  0  0  0  0  0  0  0  0  0  0
   -7.3710   20.5930  -32.4600 C   0  0  0  0  0  0  0  0  0  0  0  0
   -7.1520   19.2670  -33.1600 C   0  0  0  0  0  0  0  0  0  0  0  0
   -7.4230   18.0840  -32.3070 N   0  0  0  0  0  0  0  0  0  0  0  0
   -8.7130   18.1830  -31.6000 C   0  0  0  0  0  0  0  0  0  0  0  0
   -6.3290   17.8120  -31.3580 C   0  0  0  0  0  0  0  0  0  0  0  0
   -6.2800   21.3150  -31.9470 C   0  0  0  0  0  0  0  0  0  0  0  0
   -4.5230   22.8720  -29.7790 N   0  0  0  0  0  0  0  0  0  0  0  0
   -2.2100   22.7880  -27.9510 C   0  0  0  0  0  0  0  0  0  0  0  0
   -1.1530   22.8080  -27.0280 C   0  0  0  0  0  0  0  0  0  0  0  0
   -0.8940   21.5750  -26.2040 C   0  0  0  0  0  0  0  0  0  0  0  0
   -0.3670   23.9760  -26.8920 C   0  0  0  0  0  0  0  0  0  0  0  0
    0.7470   24.0060  -26.0400 O   0  0  0  0  0  0  0  0  0  0  0  0
    0.6480   24.2700  -24.6380 C   0  0  0  0  0  0  0  0  0  0  0  0
    0.7200   25.7800  -24.3580 C   0  0  2  0  0  0  0  0  0  0  0  0
    1.9160   26.0950  -23.6880 O   0  0  0  0  0  0  0  0  0  0  0  0
   -0.4950   26.2670  -23.5460 C   0  0  0  0  0  0  0  0  0  0  0  0
   -0.0970   27.2120  -22.5910 O   0  0  0  0  0  0  0  0  0  0  0  0
    0.1773   26.6273  -26.3539 H   0  0  0  0  0  0  0  0  0  0  0  0
    1.0362   26.3105  -27.8995 H   0  0  0  0  0  0  0  0  0  0  0  0
   -0.4972   27.2461  -27.8995 H   0  0  0  0  0  0  0  0  0  0  0  0
   -2.0430   26.0035  -29.0899 H   0  0  0  0  0  0  0  0  0  0  0  0
   -7.9457   24.0145  -30.6615 H   0  0  0  0  0  0  0  0  0  0  0  0
   -9.8890   22.7293  -31.5491 H   0  0  0  0  0  0  0  0  0  0  0  0
   -9.5297   20.5451  -32.6940 H   0  0  0  0  0  0  0  0  0  0  0  0
   -7.8179   19.2231  -34.0345 H   0  0  0  0  0  0  0  0  0  0  0  0
   -6.0881   19.2241  -33.4361 H   0  0  0  0  0  0  0  0  0  0  0  0
   -7.4860   17.2550  -32.9470 H   0  0  0  0  0  0  0  0  0  0  0  0
   -8.5380   18.1696  -30.5141 H   0  0  0  0  0  0  0  0  0  0  0  0
   -9.2130   19.1222  -31.8792 H   0  0  0  0  0  0  0  0  0  0  0  0
   -9.3505   17.3311  -31.8792 H   0  0  0  0  0  0  0  0  0  0  0  0
   -6.7050   17.9055  -30.3285 H   0  0  0  0  0  0  0  0  0  0  0  0
   -5.9494   16.7921  -31.5186 H   0  0  0  0  0  0  0  0  0  0  0  0
   -5.5160   18.5354  -31.5186 H   0  0  0  0  0  0  0  0  0  0  0  0
   -5.2620   20.9117  -32.0522 H   0  0  0  0  0  0  0  0  0  0  0  0
   -2.7952   21.8664  -28.0859 H   0  0  0  0  0  0  0  0  0  0  0  0
   -0.9476   21.8302  -25.1354 H   0  0  0  0  0  0  0  0  0  0  0  0
   -1.6515   20.8123  -26.4373 H   0  0  0  0  0  0  0  0  0  0  0  0
    0.1064   21.1816  -26.4373 H   0  0  0  0  0  0  0  0  0  0  0  0
   -0.3103   23.8797  -24.2648 H   0  0  0  0  0  0  0  0  0  0  0  0
    1.4884   23.7772  -24.1272 H   0  0  0  0  0  0  0  0  0  0  0  0
    0.7027   26.3013  -25.3265 H   0  0  0  0  0  0  0  0  0  0  0  0
    1.7300   26.0640  -22.7120 H   0  0  0  0  0  0  0  0  0  0  0  0
   -1.2260   26.7263  -24.2277 H   0  0  0  0  0  0  0  0  0  0  0  0
   -0.9475   25.4072  -23.0303 H   0  0  0  0  0  0  0  0  0  0  0  0
    0.6600   26.8100  -22.0890 H   0  0  0  0  0  0  0  0  0  0  0  0
  1  2  1  0
  2  3  2  0
  3  4  1  0
  4  5  1  0
  5  6  2  0
  6  7  1  0
  7  8  1  0
  8  9  1  0
  9 10  2  0
 10 11  1  0
 11 12  2  0
 12 13  1  0
 13 14  1  0
 14 15  1  0
 15 16  1  0
 15 17  1  0
 13 18  2  0
  8 19  2  0
  4 20  2  0
 20 21  1  0
 21 22  1  0
 21 23  2  0
 23 24  1  0
 24 25  1  0
 25 26  1  0
 26 27  1  0
 26 28  1  0
 28 29  1  0
 23  2  1  0
 19  5  1  0
 18  9  1  0
  1 30  1  0
  1 31  1  0
  1 32  1  0
  3 33  1  0
 10 34  1  0
 11 35  1  0
 12 36  1  0
 14 37  1  0
 14 38  1  0
 15 39  1  0
 16 40  1  0
 16 41  1  0
 16 42  1  0
 17 43  1  0
 17 44  1  0
 17 45  1  0
 18 46  1  0
 20 47  1  0
 22 48  1  0
 22 49  1  0
 22 50  1  0
 25 51  1  0
 25 52  1  0
 26 53  1  6
 27 54  1  0
 28 55  1  0
 28 56  1  0
 29 57  1  0
M  CHG  1  15   1
M  END
>  <UniqueID>  (21) 
21

>  <SMILES>  (21) 
Cc1cc(-c2noc(-c3cccc(C[NH+](C)C)c3)n2)cc(C)c1OC[C@H](O)CO

>  <Energy>  (21) 
97.12015637548056

>  <Genealogy>  (21) 
Cc1cc(-c2noc(-c3cccc(C[NH+](C)C)c3)n2)cc(C)c1OCC(O)CO (protonated)
Cc1cc(-c2noc(-c3cccc(C[NH+](C)C)c3)n2)cc(C)c1OC[C@H](O)CO (chirality)
Cc1cc(-c2noc(-c3cccc(C[NH+](C)C)c3)n2)cc(C)c1OC[C@H](O)CO (3D coordinates assigned)
Cc1cc(-c2noc(-c3cccc(C[NH+](C)C)c3)n2)cc(C)c1OC[C@H](O)CO (optimized conformer: 97.12015637548056 kcal/mol)

>  <smiles>  (21) 
Cc1cc(-c2noc(-c3cccc(CN(C)C)c3)n2)cc(C)c1OCC(O)CO

>  <score_type>  (21) 
oracle

>  <origin>  (21) 
adgpu

>  <m_score__min__energy>  (21) 
-9.0199999999999996

>  <m_primary>  (21) 
energy

$$$$
21:0
     RDKit          3D

 53 56  0  0  0  0  0  0  0  0999 V2000
    1.2880   25.3140  -24.5070 C   0  0  0  0  0  0  0  0  0  0  0  0
    0.0540   24.5470  -24.7370 N   0  0  0  0  0  0  0  0  0  0  0  0
    0.2330   23.6200  -25.8780 C   0  0  0  0  0  0  0  0  0  0  0  0
   -1.1100   23.1280  -26.4280 C   0  0  0  0  0  0  0  0  0  0  0  0
   -1.9270   24.2710  -26.8510 N   0  0  0  0  0  0  0  0  0  0  0  0
   -2.8870   24.1310  -27.9190 C   0  0  0  0  0  0  0  0  0  0  0  0
   -3.9950   23.2820  -27.7590 C   0  0  0  0  0  0  0  0  0  0  0  0
   -4.9270   23.1260  -28.7880 C   0  0  0  0  0  0  0  0  0  0  0  0
   -4.7640   23.8060  -30.0040 C   0  0  0  0  0  0  0  0  0  0  0  0
   -5.7350   23.6020  -31.1040 C   0  0  0  0  0  0  0  0  0  0  0  0
   -5.3710   23.8050  -32.2930 O   0  0  0  0  0  0  0  0  0  0  0  0
   -7.0700   23.1360  -30.8660 N   0  0  0  0  0  0  0  0  0  0  0  0
   -7.6930   21.9910  -31.4680 C   0  0  0  0  0  0  0  0  0  0  0  0
   -9.0880   21.8840  -31.4300 C   0  0  0  0  0  0  0  0  0  0  0  0
   -9.7270   20.7890  -32.0160 C   0  0  0  0  0  0  0  0  0  0  0  0
   -8.9760   19.7880  -32.6390 C   0  0  0  0  0  0  0  0  0  0  0  0
   -7.5730   19.8630  -32.6670 C   0  0  0  0  0  0  0  0  0  0  0  0
   -6.7720   18.8080  -33.3390 C   0  0  0  0  0  0  0  0  0  0  0  0
   -5.5460   19.1250  -33.9530 C   0  0  0  0  0  0  0  0  0  0  0  0
   -4.7860   18.1300  -34.5740 C   0  0  0  0  0  0  0  0  0  0  0  0
   -5.2390   16.8090  -34.5890 C   0  0  0  0  0  0  0  0  0  0  0  0
   -6.4540   16.4760  -33.9850 C   0  0  0  0  0  0  0  0  0  0  0  0
   -6.8940   15.1540  -34.0100 O   0  0  0  0  0  0  0  0  0  0  0  0
   -7.2200   17.4730  -33.3630 C   0  0  0  0  0  0  0  0  0  0  0  0
   -6.9380   20.9630  -32.0590 C   0  0  0  0  0  0  0  0  0  0  0  0
   -3.6710   24.6740  -30.1580 C   0  0  0  0  0  0  0  0  0  0  0  0
   -2.7320   24.8280  -29.1330 C   0  0  0  0  0  0  0  0  0  0  0  0
   -1.6380   25.6590  -29.3430 O   0  0  0  0  0  0  0  0  0  0  0  0
   -1.6550   25.5920  -26.2730 C   0  0  0  0  0  0  0  0  0  0  0  0
   -1.1280   25.4420  -24.8400 C   0  0  0  0  0  0  0  0  0  0  0  0
    1.4579   25.4196  -23.4253 H   0  0  0  0  0  0  0  0  0  0  0  0
    2.1386   24.7852  -24.9618 H   0  0  0  0  0  0  0  0  0  0  0  0
    1.1903   26.3108  -24.9618 H   0  0  0  0  0  0  0  0  0  0  0  0
    0.7760   24.1425  -26.6794 H   0  0  0  0  0  0  0  0  0  0  0  0
    0.7978   22.7455  -25.5226 H   0  0  0  0  0  0  0  0  0  0  0  0
   -0.9312   22.4688  -27.2903 H   0  0  0  0  0  0  0  0  0  0  0  0
   -1.6425   22.5749  -25.6402 H   0  0  0  0  0  0  0  0  0  0  0  0
   -4.1300   22.7348  -26.8143 H   0  0  0  0  0  0  0  0  0  0  0  0
   -5.7946   22.4654  -28.6436 H   0  0  0  0  0  0  0  0  0  0  0  0
   -9.6838   22.6659  -30.9364 H   0  0  0  0  0  0  0  0  0  0  0  0
  -10.8241   20.7141  -31.9872 H   0  0  0  0  0  0  0  0  0  0  0  0
   -9.4869   18.9356  -33.1106 H   0  0  0  0  0  0  0  0  0  0  0  0
   -5.1833   20.1634  -33.9441 H   0  0  0  0  0  0  0  0  0  0  0  0
   -3.8293   18.3878  -35.0518 H   0  0  0  0  0  0  0  0  0  0  0  0
   -4.6374   16.0285  -35.0778 H   0  0  0  0  0  0  0  0  0  0  0  0
   -6.2660   14.3820  -33.8160 H   0  0  0  0  0  0  0  0  0  0  0  0
   -8.1779   17.2101  -32.8904 H   0  0  0  0  0  0  0  0  0  0  0  0
   -5.8395   21.0185  -32.0464 H   0  0  0  0  0  0  0  0  0  0  0  0
   -3.5521   25.2387  -31.0945 H   0  0  0  0  0  0  0  0  0  0  0  0
   -0.9016   26.1090  -26.8855 H   0  0  0  0  0  0  0  0  0  0  0  0
   -2.5871   26.1758  -26.2546 H   0  0  0  0  0  0  0  0  0  0  0  0
   -0.8455   26.4373  -24.4663 H   0  0  0  0  0  0  0  0  0  0  0  0
   -1.9328   24.9873  -24.2437 H   0  0  0  0  0  0  0  0  0  0  0  0
  1  2  1  0
  2  3  1  0
  3  4  1  0
  4  5  1  0
  5  6  1  0
  6  7  2  0
  7  8  1  0
  8  9  2  0
  9 10  1  0
 10 11  2  0
 10 12  1  0
 12 13  1  0
 13 14  2  0
 14 15  1  0
 15 16  2  0
 16 17  1  0
 17 18  1  0
 18 19  2  0
 19 20  1  0
 20 21  2  0
 21 22  1  0
 22 23  1  0
 22 24  2  0
 17 25  2  0
  9 26  1  0
 26 27  2  0
 27 28  1  0
  5 29  1  0
 29 30  1  0
 30  2  1  0
 27  6  1  0
 25 13  1  0
 24 18  1  0
  1 31  1  0
  1 32  1  0
  1 33  1  0
  3 34  1  0
  3 35  1  0
  4 36  1  0
  4 37  1  0
  7 38  1  0
  8 39  1  0
 14 40  1  0
 15 41  1  0
 16 42  1  0
 19 43  1  0
 20 44  1  0
 21 45  1  0
 23 46  1  0
 24 47  1  0
 25 48  1  0
 26 49  1  0
 29 50  1  0
 29 51  1  0
 30 52  1  0
 30 53  1  0
M  CHG  2  12  -1  28  -1
M  END
>  <UniqueID>  (22) 
22

>  <SMILES>  (22) 
CN1CCN(c2ccc(C(=O)[N-]c3cccc(-c4cccc(O)c4)c3)cc2[O-])CC1

>  <Energy>  (22) 
78.73989650560706

>  <Genealogy>  (22) 
CN1CCN(c2ccc(C(=O)[N-]c3cccc(-c4cccc(O)c4)c3)cc2[O-])CC1 (protonated)
CN1CCN(c2ccc(C(=O)[N-]c3cccc(-c4cccc(O)c4)c3)cc2[O-])CC1 (3D coordinates assigned)
CN1CCN(c2ccc(C(=O)[N-]c3cccc(-c4cccc(O)c4)c3)cc2[O-])CC1 (nonaromatic ring conformer: 78.73989650560706 kcal/mol)

>  <smiles>  (22) 
CN1CCN(c2ccc(C(=O)Nc3cccc(-c4cccc(O)c4)c3)cc2O)CC1

>  <score_type>  (22) 
oracle

>  <origin>  (22) 
adgpu

>  <m_score__min__energy>  (22) 
-12.75

>  <m_primary>  (22) 
energy

$$$$
22:0
     RDKit          3D

 52 55  0  0  0  0  0  0  0  0999 V2000
   -5.7610   25.8770  -29.8520 O   0  0  0  0  0  0  0  0  0  0  0  0
   -4.8410   25.2500  -30.4390 C   0  0  0  0  0  0  0  0  0  0  0  0
   -3.4960   25.2980  -29.9440 N   0  0  0  0  0  0  0  0  0  0  0  0
   -2.7750   24.2190  -29.3330 C   0  0  0  0  0  0  0  0  0  0  0  0
   -1.5300   24.4130  -28.7070 C   0  0  0  0  0  0  0  0  0  0  0  0
   -0.8740   23.3410  -28.0960 C   0  0  0  0  0  0  0  0  0  0  0  0
   -1.4550   22.0670  -28.0940 C   0  0  0  0  0  0  0  0  0  0  0  0
   -0.6420   20.7060  -27.3270 S   0  0  0  0  0  0  0  0  0  0  0  0
   -1.2580   20.4850  -25.9740 O   0  0  0  0  0  0  0  0  0  0  0  0
    0.8200   21.0180  -27.1570 O   0  0  0  0  0  0  0  0  0  0  0  0
   -0.8440   19.2820  -28.3260 N   0  0  0  0  0  0  0  0  0  0  0  0
   -0.4350   19.5270  -29.7260 C   0  0  0  0  0  0  0  0  0  0  0  0
    0.9740   18.9910  -30.0390 C   0  0  0  0  0  0  0  0  0  0  0  0
    1.7960   19.0850  -28.8980 O   0  0  0  0  0  0  0  0  0  0  0  0
    1.3660   18.1670  -27.9070 C   0  0  0  0  0  0  0  0  0  0  0  0
   -0.1720   18.1080  -27.7430 C   0  0  0  0  0  0  0  0  0  0  0  0
   -2.7080   21.8780  -28.6930 C   0  0  0  0  0  0  0  0  0  0  0  0
   -3.3660   22.9500  -29.3010 C   0  0  0  0  0  0  0  0  0  0  0  0
   -5.1340   24.5700  -31.6630 N   0  0  0  0  0  0  0  0  0  0  0  0
   -5.9650   23.4080  -31.7800 C   0  0  0  0  0  0  0  0  0  0  0  0
   -7.2560   23.4550  -31.2500 C   0  0  0  0  0  0  0  0  0  0  0  0
   -8.0910   22.3440  -31.3260 C   0  0  0  0  0  0  0  0  0  0  0  0
   -7.6500   21.1640  -31.9300 C   0  0  0  0  0  0  0  0  0  0  0  0
   -8.7520   19.7910  -31.9380 Cl  0  0  0  0  0  0  0  0  0  0  0  0
   -6.3420   21.0870  -32.4620 C   0  0  0  0  0  0  0  0  0  0  0  0
   -5.7580   19.5850  -33.2170 S   0  0  0  0  0  0  0  0  0  0  0  0
   -4.2850   19.6810  -33.5030 O   0  0  0  0  0  0  0  0  0  0  0  0
   -6.4570   19.3940  -34.5340 O   0  0  0  0  0  0  0  0  0  0  0  0
   -6.0450   18.1320  -32.2020 C   0  0  0  0  0  0  0  0  0  0  0  0
   -5.3740   16.8370  -32.6370 C   0  0  0  0  0  0  0  0  0  0  0  0
   -6.8530   17.0530  -32.9040 C   0  0  0  0  0  0  0  0  0  0  0  0
   -5.4890   22.2080  -32.3490 C   0  0  0  0  0  0  0  0  0  0  0  0
   -4.1620   22.1210  -32.7560 O   0  0  0  0  0  0  0  0  0  0  0  0
   -1.0711   25.4127  -28.6985 H   0  0  0  0  0  0  0  0  0  0  0  0
    0.1025   23.4986  -27.6148 H   0  0  0  0  0  0  0  0  0  0  0  0
   -1.1555   19.0326  -30.3942 H   0  0  0  0  0  0  0  0  0  0  0  0
   -0.4165   20.6161  -29.8796 H   0  0  0  0  0  0  0  0  0  0  0  0
    0.9015   17.9380  -30.3486 H   0  0  0  0  0  0  0  0  0  0  0  0
    1.4144   19.5915  -30.8486 H   0  0  0  0  0  0  0  0  0  0  0  0
    1.7251   17.1644  -28.1824 H   0  0  0  0  0  0  0  0  0  0  0  0
    1.7799   18.5106  -26.9475 H   0  0  0  0  0  0  0  0  0  0  0  0
   -0.5461   17.2023  -28.2428 H   0  0  0  0  0  0  0  0  0  0  0  0
   -0.3943   18.0947  -26.6658 H   0  0  0  0  0  0  0  0  0  0  0  0
   -3.1749   20.8821  -28.6844 H   0  0  0  0  0  0  0  0  0  0  0  0
   -4.3549   22.7961  -29.7576 H   0  0  0  0  0  0  0  0  0  0  0  0
   -7.6157   24.3766  -30.7690 H   0  0  0  0  0  0  0  0  0  0  0  0
   -9.1067   22.3955  -30.9069 H   0  0  0  0  0  0  0  0  0  0  0  0
   -6.0952   18.6779  -31.2483 H   0  0  0  0  0  0  0  0  0  0  0  0
   -4.6579   16.8421  -33.4719 H   0  0  0  0  0  0  0  0  0  0  0  0
   -4.7799   16.0610  -32.1322 H   0  0  0  0  0  0  0  0  0  0  0  0
   -7.2081   17.2139  -33.9326 H   0  0  0  0  0  0  0  0  0  0  0  0
   -7.7737   16.4973  -32.6726 H   0  0  0  0  0  0  0  0  0  0  0  0
  1  2  2  0
  2  3  1  0
  3  4  1  0
  4  5  2  0
  5  6  1  0
  6  7  2  0
  7  8  1  0
  8  9  2  0
  8 10  2  0
  8 11  1  0
 11 12  1  0
 12 13  1  0
 13 14  1  0
 14 15  1  0
 15 16  1  0
  7 17  1  0
 17 18  2  0
  2 19  1  0
 19 20  1  0
 20 21  2  0
 21 22  1  0
 22 23  2  0
 23 24  1  0
 23 25  1  0
 25 26  1  0
 26 27  2  0
 26 28  2  0
 26 29  1  0
 29 30  1  0
 30 31  1  0
 25 32  2  0
 32 33  1  0
 18  4  1  0
 32 20  1  0
 16 11  1  0
 31 29  1  0
  5 34  1  0
  6 35  1  0
 12 36  1  0
 12 37  1  0
 13 38  1  0
 13 39  1  0
 15 40  1  0
 15 41  1  0
 16 42  1  0
 16 43  1  0
 17 44  1  0
 18 45  1  0
 21 46  1  0
 22 47  1  0
 29 48  1  0
 30 49  1  0
 30 50  1  0
 31 51  1  0
 31 52  1  0
M  CHG  3   3  -1  19  -1  33  -1
M  END
>  <UniqueID>  (23) 
23

>  <SMILES>  (23) 
O=C([N-]c1ccc(S(=O)(=O)N2CCOCC2)cc1)[N-]c1ccc(Cl)c(S(=O)(=O)C2CC2)c1[O-]

>  <Energy>  (23) 
340.4074377512885

>  <Genealogy>  (23) 
O=C([N-]c1ccc(S(=O)(=O)N2CCOCC2)cc1)[N-]c1ccc(Cl)c(S(=O)(=O)C2CC2)c1[O-] (protonated)
O=C([N-]c1ccc(S(=O)(=O)N2CCOCC2)cc1)[N-]c1ccc(Cl)c(S(=O)(=O)C2CC2)c1[O-] (3D coordinates assigned)
O=C([N-]c1ccc(S(=O)(=O)N2CCOCC2)cc1)[N-]c1ccc(Cl)c(S(=O)(=O)C2CC2)c1[O-] (nonaromatic ring conformer: 340.4074377512885 kcal/mol)

>  <smiles>  (23) 
O=C(Nc1ccc(S(=O)(=O)N2CCOCC2)cc1)Nc1ccc(Cl)c(S(=O)(=O)C2CC2)c1O

>  <score_type>  (23) 
oracle

>  <origin>  (23) 
adgpu

>  <m_score__min__energy>  (23) 
-16.75

>  <m_primary>  (23) 
energy

$$$$
23:0
     RDKit          3D

 33 34  0  0  0  0  0  0  0  0999 V2000
   -8.3320   20.6500  -32.2450 C   0  0  0  0  0  0  0  0  0  0  0  0
   -7.2650   21.5470  -31.6900 C   0  0  0  0  0  0  0  0  0  0  0  0
   -5.9150   21.2030  -31.8260 C   0  0  0  0  0  0  0  0  0  0  0  0
   -4.9190   22.0550  -31.3490 C   0  0  0  0  0  0  0  0  0  0  0  0
   -5.2510   23.2750  -30.7380 C   0  0  0  0  0  0  0  0  0  0  0  0
   -3.9480   24.3210  -30.1520 S   0  0  0  0  0  0  0  0  0  0  0  0
   -3.9320   25.6110  -30.9230 O   0  0  0  0  0  0  0  0  0  0  0  0
   -4.1720   24.6120  -28.6940 O   0  0  0  0  0  0  0  0  0  0  0  0
   -2.4120   23.5410  -30.3560 N   0  0  0  0  0  0  0  0  0  0  0  0
   -1.3930   23.5650  -29.3530 C   0  0  0  0  0  0  0  0  0  0  0  0
   -0.6980   22.3810  -29.0730 C   0  0  0  0  0  0  0  0  0  0  0  0
    0.2770   22.3540  -28.0730 C   0  0  0  0  0  0  0  0  0  0  0  0
    0.5720   23.5130  -27.3520 C   0  0  0  0  0  0  0  0  0  0  0  0
   -0.0950   24.7060  -27.6430 C   0  0  0  0  0  0  0  0  0  0  0  0
   -1.0640   24.7480  -28.6530 C   0  0  0  0  0  0  0  0  0  0  0  0
   -1.6550   25.9740  -28.9580 O   0  0  0  0  0  0  0  0  0  0  0  0
   -6.6150   23.6320  -30.5980 C   0  0  0  0  0  0  0  0  0  0  0  0
   -7.0330   24.9330  -29.9650 C   0  0  0  0  0  0  0  0  0  0  0  0
   -7.6080   22.7670  -31.0930 C   0  0  0  0  0  0  0  0  0  0  0  0
   -8.8864   20.1839  -31.4171 H   0  0  0  0  0  0  0  0  0  0  0  0
   -9.0239   21.2417  -32.8624 H   0  0  0  0  0  0  0  0  0  0  0  0
   -7.8680   19.8667  -32.8624 H   0  0  0  0  0  0  0  0  0  0  0  0
   -5.6381   20.2557  -32.3117 H   0  0  0  0  0  0  0  0  0  0  0  0
   -3.8621   21.7682  -31.4525 H   0  0  0  0  0  0  0  0  0  0  0  0
   -0.9214   21.4676  -29.6438 H   0  0  0  0  0  0  0  0  0  0  0  0
    0.8129   21.4189  -27.8533 H   0  0  0  0  0  0  0  0  0  0  0  0
    1.3295   23.4869  -26.5549 H   0  0  0  0  0  0  0  0  0  0  0  0
    0.1426   25.6177  -27.0752 H   0  0  0  0  0  0  0  0  0  0  0  0
   -2.5890   26.0490  -29.3400 H   0  0  0  0  0  0  0  0  0  0  0  0
   -7.0014   24.8347  -28.8699 H   0  0  0  0  0  0  0  0  0  0  0  0
   -6.3463   25.7320  -30.2814 H   0  0  0  0  0  0  0  0  0  0  0  0
   -8.0565   25.1825  -30.2814 H   0  0  0  0  0  0  0  0  0  0  0  0
   -8.6671   23.0523  -31.0102 H   0  0  0  0  0  0  0  0  0  0  0  0
  1  2  1  0
  2  3  2  0
  3  4  1  0
  4  5  2  0
  5  6  1  0
  6  7  2  0
  6  8  2  0
  6  9  1  0
  9 10  1  0
 10 11  2  0
 11 12  1  0
 12 13  2  0
 13 14  1  0
 14 15  2  0
 15 16  1  0
  5 17  1  0
 17 18  1  0
 17 19  2  0
 19  2  1  0
 15 10  1  0
  1 20  1  0
  1 21  1  0
  1 22  1  0
  3 23  1  0
  4 24  1  0
 11 25  1  0
 12 26  1  0
 13 27  1  0
 14 28  1  0
 16 29  1  0
 18 30  1  0
 18 31  1  0
 18 32  1  0
 19 33  1  0
M  CHG  1   9  -1
M  END
>  <UniqueID>  (24) 
24

>  <SMILES>  (24) 
Cc1ccc(S(=O)(=O)[N-]c2ccccc2O)c(C)c1

>  <Energy>  (24) 
44.40823417399835

>  <Genealogy>  (24) 
Cc1ccc(S(=O)(=O)[N-]c2ccccc2O)c(C)c1 (protonated)
Cc1ccc(S(=O)(=O)[N-]c2ccccc2O)c(C)c1 (3D coordinates assigned)
Cc1ccc(S(=O)(=O)[N-]c2ccccc2O)c(C)c1 (optimized conformer: 44.40823417399835 kcal/mol)

>  <smiles>  (24) 
Cc1ccc(S(=O)(=O)Nc2ccccc2O)c(C)c1

>  <score_type>  (24) 
oracle

>  <origin>  (24) 
adgpu

>  <m_score__min__energy>  (24) 
-10.109999999999999

>  <m_primary>  (24) 
energy

$$$$
24:0
     RDKit          3D

 43 45  0  0  0  0  0  0  0  0999 V2000
   -5.4330   26.2130  -30.6180 O   0  0  0  0  0  0  0  0  0  0  0  0
   -4.9070   25.0730  -30.7010 C   0  0  0  0  0  0  0  0  0  0  0  0
   -3.4990   24.9340  -30.4610 N   0  0  0  0  0  0  0  0  0  0  0  0
   -2.9060   24.4070  -29.2330 C   0  0  0  0  0  0  0  0  0  0  0  0
   -2.3830   23.0110  -29.4480 C   0  0  0  0  0  0  0  0  0  0  0  0
   -1.0930   22.7950  -29.9580 C   0  0  0  0  0  0  0  0  0  0  0  0
   -0.6470   21.4960  -30.2040 C   0  0  0  0  0  0  0  0  0  0  0  0
   -1.4910   20.4180  -29.9260 C   0  0  0  0  0  0  0  0  0  0  0  0
   -2.7340   20.6400  -29.4190 N   0  0  0  0  0  0  0  0  0  0  0  0
   -3.1920   21.8970  -29.1740 C   0  0  0  0  0  0  0  0  0  0  0  0
   -5.7570   23.9090  -30.9940 C   0  0  0  0  0  0  0  0  0  0  0  0
   -7.1440   23.9720  -30.7960 C   0  0  0  0  0  0  0  0  0  0  0  0
   -7.9500   22.8780  -31.1240 C   0  0  0  0  0  0  0  0  0  0  0  0
   -7.3770   21.7220  -31.6590 C   0  0  0  0  0  0  0  0  0  0  0  0
   -5.9930   21.6510  -31.8640 C   0  0  0  0  0  0  0  0  0  0  0  0
   -5.2740   20.1990  -32.5530 S   0  0  0  0  0  0  0  0  0  0  0  0
   -5.7360   20.0340  -33.9750 O   0  0  0  0  0  0  0  0  0  0  0  0
   -5.7230   19.0000  -31.7630 O   0  0  0  0  0  0  0  0  0  0  0  0
   -3.5360   20.3230  -32.4840 N   0  0  0  0  0  0  0  0  0  0  0  0
   -3.0310   21.3990  -33.3400 C   0  0  0  0  0  0  0  0  0  0  0  0
   -1.6130   21.0140  -33.7350 C   0  0  0  0  0  0  0  0  0  0  0  0
   -1.5190   19.5120  -33.4950 C   0  0  0  0  0  0  0  0  0  0  0  0
   -2.8820   19.1000  -32.9570 C   0  0  0  0  0  0  0  0  0  0  0  0
   -5.1830   22.7390  -31.5110 C   0  0  0  0  0  0  0  0  0  0  0  0
   -2.0760   25.0595  -28.9244 H   0  0  0  0  0  0  0  0  0  0  0  0
   -3.6802   24.3771  -28.4522 H   0  0  0  0  0  0  0  0  0  0  0  0
   -0.4332   23.6507  -30.1639 H   0  0  0  0  0  0  0  0  0  0  0  0
    0.3593   21.3224  -30.6128 H   0  0  0  0  0  0  0  0  0  0  0  0
   -1.1506   19.3896  -30.1170 H   0  0  0  0  0  0  0  0  0  0  0  0
   -4.2006   22.0413  -28.7594 H   0  0  0  0  0  0  0  0  0  0  0  0
   -7.5985   24.8841  -30.3818 H   0  0  0  0  0  0  0  0  0  0  0  0
   -9.0367   22.9276  -30.9606 H   0  0  0  0  0  0  0  0  0  0  0  0
   -8.0146   20.8645  -31.9202 H   0  0  0  0  0  0  0  0  0  0  0  0
   -3.2520   20.5070  -31.4930 H   0  0  0  0  0  0  0  0  0  0  0  0
   -3.6608   21.4976  -34.2365 H   0  0  0  0  0  0  0  0  0  0  0  0
   -3.0468   22.3644  -32.8130 H   0  0  0  0  0  0  0  0  0  0  0  0
   -1.4324   21.2463  -34.7949 H   0  0  0  0  0  0  0  0  0  0  0  0
   -0.8618   21.5687  -33.1536 H   0  0  0  0  0  0  0  0  0  0  0  0
   -1.3018   18.9852  -34.4359 H   0  0  0  0  0  0  0  0  0  0  0  0
   -0.7102   19.2607  -32.7930 H   0  0  0  0  0  0  0  0  0  0  0  0
   -3.4796   18.6350  -33.7549 H   0  0  0  0  0  0  0  0  0  0  0  0
   -2.7808   18.3660  -32.1440 H   0  0  0  0  0  0  0  0  0  0  0  0
   -4.0925   22.6747  -31.6401 H   0  0  0  0  0  0  0  0  0  0  0  0
  1  2  2  0
  2  3  1  0
  3  4  1  0
  4  5  1  0
  5  6  2  0
  6  7  1  0
  7  8  2  0
  8  9  1  0
  9 10  2  0
  2 11  1  0
 11 12  2  0
 12 13  1  0
 13 14  2  0
 14 15  1  0
 15 16  1  0
 16 17  2  0
 16 18  2  0
 16 19  1  0
 19 20  1  0
 20 21  1  0
 21 22  1  0
 22 23  1  0
 15 24  2  0
 10  5  1  0
 24 11  1  0
 23 19  1  0
  4 25  1  0
  4 26  1  0
  6 27  1  0
  7 28  1  0
  8 29  1  0
 10 30  1  0
 12 31  1  0
 13 32  1  0
 14 33  1  0
 19 34  1  0
 20 35  1  0
 20 36  1  0
 21 37  1  0
 21 38  1  0
 22 39  1  0
 22 40  1  0
 23 41  1  0
 23 42  1  0
 24 43  1  0
M  CHG  2   3  -1  19   1
M  END
>  <UniqueID>  (25) 
25

>  <SMILES>  (25) 
O=C([N-]Cc1cccnc1)c1cccc(S(=O)(=O)[NH+]2CCCC2)c1

>  <Energy>  (25) 
47.10484439095659

>  <Genealogy>  (25) 
O=C([N-]Cc1cccnc1)c1cccc(S(=O)(=O)[NH+]2CCCC2)c1 (protonated)
O=C([N-]Cc1cccnc1)c1cccc(S(=O)(=O)[NH+]2CCCC2)c1 (3D coordinates assigned)
O=C([N-]Cc1cccnc1)c1cccc(S(=O)(=O)[NH+]2CCCC2)c1 (nonaromatic ring conformer: 47.10484439095659 kcal/mol)

>  <smiles>  (25) 
O=C(NCc1cccnc1)c1cccc(S(=O)(=O)N2CCCC2)c1

>  <score_type>  (25) 
oracle

>  <origin>  (25) 
adgpu

>  <m_score__min__energy>  (25) 
-8.8800000000000008

>  <m_primary>  (25) 
energy

$$$$
25:0
     RDKit          3D

 61 64  0  0  0  0  0  0  0  0999 V2000
   -6.6030   16.0760  -33.9480 C   0  0  0  0  0  0  0  0  0  0  0  0
   -5.4290   16.8890  -34.4870 C   0  0  0  0  0  0  0  0  0  0  0  0
   -5.7380   18.3840  -34.4720 C   0  0  0  0  0  0  0  0  0  0  0  0
   -4.5310   19.1130  -34.2830 O   0  0  0  0  0  0  0  0  0  0  0  0
   -4.2900   19.9100  -33.1580 C   0  0  0  0  0  0  0  0  0  0  0  0
   -3.0970   20.5250  -32.8300 C   0  0  0  0  0  0  0  0  0  0  0  0
   -3.3920   21.2270  -31.6730 C   0  0  0  0  0  0  0  0  0  0  0  0
   -2.4640   22.0620  -30.8930 C   0  0  0  0  0  0  0  0  0  0  0  0
   -1.3470   22.3670  -31.3900 O   0  0  0  0  0  0  0  0  0  0  0  0
   -2.8060   22.4990  -29.5680 N   0  0  0  0  0  0  0  0  0  0  0  0
   -2.0780   23.5150  -28.8610 C   0  0  0  0  0  0  0  0  0  0  0  0
   -1.2220   23.1390  -27.8150 C   0  0  0  0  0  0  0  0  0  0  0  0
   -0.5290   24.1070  -27.0760 C   0  0  0  0  0  0  0  0  0  0  0  0
    0.5250   23.6210  -25.7450 S   0  0  0  0  0  0  0  0  0  0  0  0
    1.9230   23.4330  -26.2640 O   0  0  0  0  0  0  0  0  0  0  0  0
    0.0520   22.3020  -25.1960 O   0  0  0  0  0  0  0  0  0  0  0  0
    0.5340   24.8130  -24.4670 N   0  0  0  0  0  0  0  0  0  0  0  0
    1.3550   25.9800  -24.8590 C   0  0  0  0  0  0  0  0  0  0  0  0
    1.0590   27.1950  -23.9740 C   0  0  0  0  0  0  0  0  0  0  0  0
   -0.4080   27.6410  -24.1190 C   0  0  0  0  0  0  0  0  0  0  0  0
   -1.3380   26.4950  -24.5530 C   0  0  0  0  0  0  0  0  0  0  0  0
   -0.8410   25.1450  -24.0160 C   0  0  0  0  0  0  0  0  0  0  0  0
   -0.6880   25.4620  -27.3930 C   0  0  0  0  0  0  0  0  0  0  0  0
   -1.5490   25.8470  -28.4220 C   0  0  0  0  0  0  0  0  0  0  0  0
   -2.2580   24.8840  -29.1480 C   0  0  0  0  0  0  0  0  0  0  0  0
   -3.1560   25.2960  -30.1240 O   0  0  0  0  0  0  0  0  0  0  0  0
   -4.6830   21.0310  -31.3330 N   0  0  0  0  0  0  0  0  0  0  0  0
   -5.2230   20.2240  -32.2340 N   0  0  0  0  0  0  0  0  0  0  0  0
   -6.6000   19.8050  -32.1990 C   0  0  0  0  0  0  0  0  0  0  0  0
   -7.6170   20.5980  -32.7610 C   0  0  0  0  0  0  0  0  0  0  0  0
   -8.9480   20.1690  -32.7260 C   0  0  0  0  0  0  0  0  0  0  0  0
   -9.2750   18.9450  -32.1380 C   0  0  0  0  0  0  0  0  0  0  0  0
   -8.2710   18.1430  -31.5920 C   0  0  0  0  0  0  0  0  0  0  0  0
   -6.9390   18.5660  -31.6270 C   0  0  0  0  0  0  0  0  0  0  0  0
   -6.5839   16.0892  -32.8482 H   0  0  0  0  0  0  0  0  0  0  0  0
   -7.5469   16.5148  -34.3037 H   0  0  0  0  0  0  0  0  0  0  0  0
   -6.5242   15.0381  -34.3037 H   0  0  0  0  0  0  0  0  0  0  0  0
   -4.5443   16.6994  -33.8614 H   0  0  0  0  0  0  0  0  0  0  0  0
   -5.2423   16.5829  -35.5269 H   0  0  0  0  0  0  0  0  0  0  0  0
   -6.1960   18.6739  -35.4292 H   0  0  0  0  0  0  0  0  0  0  0  0
   -6.4352   18.6074  -33.6510 H   0  0  0  0  0  0  0  0  0  0  0  0
   -2.1366   20.4699  -33.3635 H   0  0  0  0  0  0  0  0  0  0  0  0
   -3.5140   21.9500  -29.0320 H   0  0  0  0  0  0  0  0  0  0  0  0
   -1.0936   22.0737  -27.5726 H   0  0  0  0  0  0  0  0  0  0  0  0
    2.4189   25.7177  -24.7624 H   0  0  0  0  0  0  0  0  0  0  0  0
    1.1101   26.2416  -25.8990 H   0  0  0  0  0  0  0  0  0  0  0  0
    1.2521   26.9304  -22.9239 H   0  0  0  0  0  0  0  0  0  0  0  0
    1.7095   28.0242  -24.2892 H   0  0  0  0  0  0  0  0  0  0  0  0
   -0.7554   28.0279  -23.1497 H   0  0  0  0  0  0  0  0  0  0  0  0
   -0.4443   28.4125  -24.9023 H   0  0  0  0  0  0  0  0  0  0  0  0
   -2.3490   26.6860  -24.1639 H   0  0  0  0  0  0  0  0  0  0  0  0
   -1.3482   26.4510  -25.6521 H   0  0  0  0  0  0  0  0  0  0  0  0
   -0.8507   25.1799  -22.9166 H   0  0  0  0  0  0  0  0  0  0  0  0
   -1.5130   24.3671  -24.4076 H   0  0  0  0  0  0  0  0  0  0  0  0
   -0.1323   26.2256  -26.8290 H   0  0  0  0  0  0  0  0  0  0  0  0
   -1.6707   26.9133  -28.6633 H   0  0  0  0  0  0  0  0  0  0  0  0
   -7.3643   21.5602  -33.2303 H   0  0  0  0  0  0  0  0  0  0  0  0
   -9.7387   20.7969  -33.1625 H   0  0  0  0  0  0  0  0  0  0  0  0
  -10.3232   18.6130  -32.1051 H   0  0  0  0  0  0  0  0  0  0  0  0
   -8.5285   17.1768  -31.1336 H   0  0  0  0  0  0  0  0  0  0  0  0
   -6.1510   17.9254  -31.2043 H   0  0  0  0  0  0  0  0  0  0  0  0
  1  2  1  0
  2  3  1  0
  3  4  1  0
  4  5  1  0
  5  6  2  0
  6  7  1  0
  7  8  1  0
  8  9  2  0
  8 10  1  0
 10 11  1  0
 11 12  2  0
 12 13  1  0
 13 14  1  0
 14 15  2  0
 14 16  2  0
 14 17  1  0
 17 18  1  0
 18 19  1  0
 19 20  1  0
 20 21  1  0
 21 22  1  0
 13 23  2  0
 23 24  1  0
 24 25  2  0
 25 26  1  0
  7 27  2  0
 27 28  1  0
 28 29  1  0
 29 30  2  0
 30 31  1  0
 31 32  2  0
 32 33  1  0
 33 34  2  0
 28  5  1  0
 34 29  1  0
 25 11  1  0
 22 17  1  0
  1 35  1  0
  1 36  1  0
  1 37  1  0
  2 38  1  0
  2 39  1  0
  3 40  1  0
  3 41  1  0
  6 42  1  0
 10 43  1  0
 12 44  1  0
 18 45  1  0
 18 46  1  0
 19 47  1  0
 19 48  1  0
 20 49  1  0
 20 50  1  0
 21 51  1  0
 21 52  1  0
 22 53  1  0
 22 54  1  0
 23 55  1  0
 24 56  1  0
 30 57  1  0
 31 58  1  0
 32 59  1  0
 33 60  1  0
 34 61  1  0
M  CHG  1  26  -1
M  END
>  <UniqueID>  (26) 
26

>  <SMILES>  (26) 
CCCOc1cc(C(=O)Nc2cc(S(=O)(=O)N3CCCCC3)ccc2[O-])nn1-c1ccccc1

>  <Energy>  (26) 
100.48964605512067

>  <Genealogy>  (26) 
CCCOc1cc(C(=O)Nc2cc(S(=O)(=O)N3CCCCC3)ccc2[O-])nn1-c1ccccc1 (protonated)
CCCOc1cc(C(=O)Nc2cc(S(=O)(=O)N3CCCCC3)ccc2[O-])nn1-c1ccccc1 (3D coordinates assigned)
CCCOc1cc(C(=O)Nc2cc(S(=O)(=O)N3CCCCC3)ccc2[O-])nn1-c1ccccc1 (nonaromatic ring conformer: 100.48964605512067 kcal/mol)

>  <smiles>  (26) 
CCCOc1cc(C(=O)Nc2cc(S(=O)(=O)N3CCCCC3)ccc2O)nn1-c1ccccc1

>  <score_type>  (26) 
oracle

>  <origin>  (26) 
adgpu

>  <m_score__min__energy>  (26) 
-12.710000000000001

>  <m_primary>  (26) 
energy

$$$$
26:0
     RDKit          3D

 69 73  0  0  0  0  0  0  0  0999 V2000
   -1.4140   19.5960  -27.7930 C   0  0  0  0  0  0  0  0  0  0  0  0
   -1.8330   20.0340  -29.0820 O   0  0  0  0  0  0  0  0  0  0  0  0
   -2.7310   21.0880  -29.3090 C   0  0  0  0  0  0  0  0  0  0  0  0
   -3.3920   21.7510  -28.2570 C   0  0  0  0  0  0  0  0  0  0  0  0
   -4.2770   22.7980  -28.5270 C   0  0  0  0  0  0  0  0  0  0  0  0
   -4.5120   23.2020  -29.8470 C   0  0  0  0  0  0  0  0  0  0  0  0
   -5.6510   24.4970  -30.2070 S   0  0  0  0  0  0  0  0  0  0  0  0
   -5.9540   25.2820  -28.9600 O   0  0  0  0  0  0  0  0  0  0  0  0
   -5.0260   25.4190  -31.2190 O   0  0  0  0  0  0  0  0  0  0  0  0
   -7.1240   23.8130  -30.8520 N   0  0  0  0  0  0  0  0  0  0  0  0
   -6.9730   23.4710  -32.2900 C   0  0  0  0  0  0  0  0  0  0  0  0
   -6.7990   21.9660  -32.5380 C   0  0  0  0  0  0  0  0  0  0  0  0
   -7.9900   21.1700  -31.9790 C   0  0  0  0  0  0  0  0  0  0  0  0
   -8.5970   21.8140  -30.7180 C   0  0  0  0  0  0  0  0  0  0  0  0
   -7.5700   22.6920  -29.9960 C   0  0  0  0  0  0  0  0  0  0  0  0
   -3.8570   22.5480  -30.8970 C   0  0  0  0  0  0  0  0  0  0  0  0
   -2.9720   21.4940  -30.6340 C   0  0  0  0  0  0  0  0  0  0  0  0
   -2.3170   20.8250  -31.7290 N   0  0  0  0  0  0  0  0  0  0  0  0
   -0.9560   20.8280  -31.8010 C   0  0  0  0  0  0  0  0  0  0  0  0
   -0.2770   21.3970  -30.9000 O   0  0  0  0  0  0  0  0  0  0  0  0
   -0.3120   20.2170  -32.8830 C   0  0  0  0  0  0  0  0  0  0  0  0
    1.0900   20.2630  -33.0070 C   0  0  0  0  0  0  0  0  0  0  0  0
    1.7200   19.7070  -34.1170 C   0  0  0  0  0  0  0  0  0  0  0  0
    0.9600   19.1210  -35.1240 C   0  0  0  0  0  0  0  0  0  0  0  0
   -0.4310   19.0580  -35.0140 C   0  0  0  0  0  0  0  0  0  0  0  0
   -1.0990   19.5660  -33.8690 C   0  0  0  0  0  0  0  0  0  0  0  0
   -2.4700   19.4690  -33.6910 N   0  0  0  0  0  0  0  0  0  0  0  0
   -3.3380   18.6270  -34.5590 C   0  0  0  0  0  0  0  0  0  0  0  0
   -3.9390   17.4560  -33.7990 C   0  0  0  0  0  0  0  0  0  0  0  0
   -3.1040   16.3820  -33.4400 C   0  0  0  0  0  0  0  0  0  0  0  0
   -3.6140   15.2660  -32.7640 C   0  0  0  0  0  0  0  0  0  0  0  0
   -2.7020   14.1420  -32.3710 C   0  0  0  0  0  0  0  0  0  0  0  0
   -4.9680   15.2370  -32.4090 C   0  0  0  0  0  0  0  0  0  0  0  0
   -5.8080   16.2980  -32.7450 C   0  0  0  0  0  0  0  0  0  0  0  0
   -5.3080   17.4220  -33.4250 C   0  0  0  0  0  0  0  0  0  0  0  0
   -6.2620   18.5330  -33.7810 C   0  0  0  0  0  0  0  0  0  0  0  0
   -3.0670   20.1780  -32.6720 C   0  0  0  0  0  0  0  0  0  0  0  0
   -4.3280   20.2380  -32.6000 O   0  0  0  0  0  0  0  0  0  0  0  0
   -1.9549   20.1614  -27.0199 H   0  0  0  0  0  0  0  0  0  0  0  0
   -1.6308   18.5233  -27.6818 H   0  0  0  0  0  0  0  0  0  0  0  0
   -0.3328   19.7650  -27.6818 H   0  0  0  0  0  0  0  0  0  0  0  0
   -3.2105   21.4428  -27.2168 H   0  0  0  0  0  0  0  0  0  0  0  0
   -4.7915   23.3073  -27.6988 H   0  0  0  0  0  0  0  0  0  0  0  0
   -7.8704   23.8124  -32.8268 H   0  0  0  0  0  0  0  0  0  0  0  0
   -6.0613   23.9696  -32.6509 H   0  0  0  0  0  0  0  0  0  0  0  0
   -6.7240   21.7869  -33.6207 H   0  0  0  0  0  0  0  0  0  0  0  0
   -5.8848   21.6315  -32.0258 H   0  0  0  0  0  0  0  0  0  0  0  0
   -8.7687   21.1115  -32.7537 H   0  0  0  0  0  0  0  0  0  0  0  0
   -7.6201   20.1731  -31.6974 H   0  0  0  0  0  0  0  0  0  0  0  0
   -9.4571   22.4342  -31.0103 H   0  0  0  0  0  0  0  0  0  0  0  0
   -8.9121   21.0120  -30.0342 H   0  0  0  0  0  0  0  0  0  0  0  0
   -8.0264   23.0991  -29.0817 H   0  0  0  0  0  0  0  0  0  0  0  0
   -6.6945   22.0724  -29.7517 H   0  0  0  0  0  0  0  0  0  0  0  0
   -4.0382   22.8635  -31.9351 H   0  0  0  0  0  0  0  0  0  0  0  0
    1.6920   20.7419  -32.2207 H   0  0  0  0  0  0  0  0  0  0  0  0
    2.8168   19.7310  -34.1976 H   0  0  0  0  0  0  0  0  0  0  0  0
    1.4575   18.7047  -36.0123 H   0  0  0  0  0  0  0  0  0  0  0  0
   -1.0183   18.6075  -35.8277 H   0  0  0  0  0  0  0  0  0  0  0  0
   -4.1538   19.2492  -34.9556 H   0  0  0  0  0  0  0  0  0  0  0  0
   -2.7158   18.2218  -35.3706 H   0  0  0  0  0  0  0  0  0  0  0  0
   -2.0344   16.4192  -33.6940 H   0  0  0  0  0  0  0  0  0  0  0  0
   -2.6503   14.0782  -31.2741 H   0  0  0  0  0  0  0  0  0  0  0  0
   -3.0909   13.1958  -32.7753 H   0  0  0  0  0  0  0  0  0  0  0  0
   -1.6960   14.3276  -32.7753 H   0  0  0  0  0  0  0  0  0  0  0  0
   -5.3715   14.3722  -31.8619 H   0  0  0  0  0  0  0  0  0  0  0  0
   -6.8735   16.2549  -32.4750 H   0  0  0  0  0  0  0  0  0  0  0  0
   -6.6537   18.9892  -32.8599 H   0  0  0  0  0  0  0  0  0  0  0  0
   -5.7329   19.2955  -34.3715 H   0  0  0  0  0  0  0  0  0  0  0  0
   -7.0957   18.1253  -34.3715 H   0  0  0  0  0  0  0  0  0  0  0  0
  1  2  1  0
  2  3  1  0
  3  4  2  0
  4  5  1  0
  5  6  2  0
  6  7  1  0
  7  8  2  0
  7  9  2  0
  7 10  1  0
 10 11  1  0
 11 12  1  0
 12 13  1  0
 13 14  1  0
 14 15  1  0
  6 16  1  0
 16 17  2  0
 17 18  1  0
 18 19  1  0
 19 20  2  0
 19 21  1  0
 21 22  2  0
 22 23  1  0
 23 24  2  0
 24 25  1  0
 25 26  2  0
 26 27  1  0
 27 28  1  0
 28 29  1  0
 29 30  2  0
 30 31  1  0
 31 32  1  0
 31 33  2  0
 33 34  1  0
 34 35  2  0
 35 36  1  0
 27 37  1  0
 37 38  2  0
 17  3  1  0
 37 18  1  0
 15 10  1  0
 26 21  1  0
 35 29  1  0
  1 39  1  0
  1 40  1  0
  1 41  1  0
  4 42  1  0
  5 43  1  0
 11 44  1  0
 11 45  1  0
 12 46  1  0
 12 47  1  0
 13 48  1  0
 13 49  1  0
 14 50  1  0
 14 51  1  0
 15 52  1  0
 15 53  1  0
 16 54  1  0
 22 55  1  0
 23 56  1  0
 24 57  1  0
 25 58  1  0
 28 59  1  0
 28 60  1  0
 30 61  1  0
 32 62  1  0
 32 63  1  0
 32 64  1  0
 33 65  1  0
 34 66  1  0
 36 67  1  0
 36 68  1  0
 36 69  1  0
M  END
>  <UniqueID>  (27) 
27

>  <SMILES>  (27) 
COc1ccc(S(=O)(=O)N2CCCCC2)cc1-n1c(=O)c2ccccc2n(Cc2cc(C)ccc2C)c1=O

>  <Energy>  (27) 
104.19408852367009

>  <Genealogy>  (27) 
COc1ccc(S(=O)(=O)N2CCCCC2)cc1-n1c(=O)c2ccccc2n(Cc2cc(C)ccc2C)c1=O (3D coordinates assigned)
COc1ccc(S(=O)(=O)N2CCCCC2)cc1-n1c(=O)c2ccccc2n(Cc2cc(C)ccc2C)c1=O (nonaromatic ring conformer: 104.19408852367009 kcal/mol)

>  <smiles>  (27) 
COc1ccc(S(=O)(=O)N2CCCCC2)cc1-n1c(=O)c2ccccc2n(Cc2cc(C)ccc2C)c1=O

>  <score_type>  (27) 
oracle

>  <origin>  (27) 
adgpu

>  <m_score__min__energy>  (27) 
-11.23

>  <m_primary>  (27) 
energy

$$$$
27:0
     RDKit          3D

 41 43  0  0  0  0  0  0  0  0999 V2000
   -1.2120   25.7920  -29.3380 N   0  0  0  0  0  0  0  0  0  0  0  0
   -1.1650   25.1070  -27.7510 S   0  0  0  0  0  0  0  0  0  0  0  0
   -1.8860   26.0060  -26.7860 O   0  0  0  0  0  0  0  0  0  0  0  0
    0.2720   24.9870  -27.3250 O   0  0  0  0  0  0  0  0  0  0  0  0
   -1.9370   23.5150  -27.7660 C   0  0  0  0  0  0  0  0  0  0  0  0
   -1.1590   22.3800  -27.4820 C   0  0  0  0  0  0  0  0  0  0  0  0
   -1.7250   21.1050  -27.5190 C   0  0  0  0  0  0  0  0  0  0  0  0
   -3.0740   20.9480  -27.8360 C   0  0  0  0  0  0  0  0  0  0  0  0
   -3.8610   22.0650  -28.1140 C   0  0  0  0  0  0  0  0  0  0  0  0
   -3.3080   23.3590  -28.0870 C   0  0  0  0  0  0  0  0  0  0  0  0
   -4.1360   24.5020  -28.3680 N   0  0  0  0  0  0  0  0  0  0  0  0
   -4.8590   24.7710  -29.9220 S   0  0  0  0  0  0  0  0  0  0  0  0
   -3.9110   25.5580  -30.7830 O   0  0  0  0  0  0  0  0  0  0  0  0
   -6.1290   25.5560  -29.7470 O   0  0  0  0  0  0  0  0  0  0  0  0
   -5.1790   23.2250  -30.7040 C   0  0  0  0  0  0  0  0  0  0  0  0
   -4.1700   22.5550  -31.4060 C   0  0  0  0  0  0  0  0  0  0  0  0
   -4.4450   21.3440  -32.0480 C   0  0  0  0  0  0  0  0  0  0  0  0
   -5.7350   20.7850  -31.9960 C   0  0  0  0  0  0  0  0  0  0  0  0
   -6.0290   19.5010  -32.6840 C   0  0  0  0  0  0  0  0  0  0  0  0
   -6.9070   18.5640  -32.1040 C   0  0  0  0  0  0  0  0  0  0  0  0
   -7.1830   17.3570  -32.7540 C   0  0  0  0  0  0  0  0  0  0  0  0
   -6.5900   17.0730  -33.9860 C   0  0  0  0  0  0  0  0  0  0  0  0
   -5.7190   17.9930  -34.5710 C   0  0  0  0  0  0  0  0  0  0  0  0
   -5.4380   19.2020  -33.9250 C   0  0  0  0  0  0  0  0  0  0  0  0
   -6.7420   21.4640  -31.2860 C   0  0  0  0  0  0  0  0  0  0  0  0
   -6.4640   22.6740  -30.6450 C   0  0  0  0  0  0  0  0  0  0  0  0
   -1.9740   25.3040  -29.8580 H   0  0  0  0  0  0  0  0  0  0  0  0
   -0.0951   22.4974  -27.2284 H   0  0  0  0  0  0  0  0  0  0  0  0
   -1.1064   20.2227  -27.2979 H   0  0  0  0  0  0  0  0  0  0  0  0
   -3.5177   19.9419  -27.8668 H   0  0  0  0  0  0  0  0  0  0  0  0
   -4.9257   21.9334  -28.3571 H   0  0  0  0  0  0  0  0  0  0  0  0
   -4.2440   25.2600  -27.6610 H   0  0  0  0  0  0  0  0  0  0  0  0
   -3.1576   22.9828  -31.4526 H   0  0  0  0  0  0  0  0  0  0  0  0
   -3.6467   20.8242  -32.5980 H   0  0  0  0  0  0  0  0  0  0  0  0
   -7.3780   18.7832  -31.1344 H   0  0  0  0  0  0  0  0  0  0  0  0
   -7.8684   16.6300  -32.2940 H   0  0  0  0  0  0  0  0  0  0  0  0
   -6.8097   16.1233  -34.4957 H   0  0  0  0  0  0  0  0  0  0  0  0
   -5.2526   17.7675  -35.5414 H   0  0  0  0  0  0  0  0  0  0  0  0
   -4.7504   19.9234  -34.3907 H   0  0  0  0  0  0  0  0  0  0  0  0
   -7.7554   21.0393  -31.2351 H   0  0  0  0  0  0  0  0  0  0  0  0
   -7.2587   23.1957  -30.0916 H   0  0  0  0  0  0  0  0  0  0  0  0
  1  2  1  0
  2  3  2  0
  2  4  2  0
  2  5  1  0
  5  6  2  0
  6  7  1  0
  7  8  2  0
  8  9  1  0
  9 10  2  0
 10 11  1  0
 11 12  1  0
 12 13  2  0
 12 14  2  0
 12 15  1  0
 15 16  2  0
 16 17  1  0
 17 18  2  0
 18 19  1  0
 19 20  2  0
 20 21  1  0
 21 22  2  0
 22 23  1  0
 23 24  2  0
 18 25  1  0
 25 26  2  0
 10  5  1  0
 26 15  1  0
 24 19  1  0
  1 27  1  0
  6 28  1  0
  7 29  1  0
  8 30  1  0
  9 31  1  0
 11 32  1  0
 16 33  1  0
 17 34  1  0
 20 35  1  0
 21 36  1  0
 22 37  1  0
 23 38  1  0
 24 39  1  0
 25 40  1  0
 26 41  1  0
M  CHG  1   1  -1
M  END
>  <UniqueID>  (28) 
28

>  <SMILES>  (28) 
[NH-]S(=O)(=O)c1ccccc1NS(=O)(=O)c1ccc(-c2ccccc2)cc1

>  <Energy>  (28) 
53.54824501402952

>  <Genealogy>  (28) 
[NH-]S(=O)(=O)c1ccccc1NS(=O)(=O)c1ccc(-c2ccccc2)cc1 (protonated)
[NH-]S(=O)(=O)c1ccccc1NS(=O)(=O)c1ccc(-c2ccccc2)cc1 (3D coordinates assigned)
[NH-]S(=O)(=O)c1ccccc1NS(=O)(=O)c1ccc(-c2ccccc2)cc1 (optimized conformer: 53.54824501402952 kcal/mol)

>  <smiles>  (28) 
NS(=O)(=O)c1ccccc1NS(=O)(=O)c1ccc(-c2ccccc2)cc1

>  <score_type>  (28) 
oracle

>  <origin>  (28) 
adgpu

>  <m_score__min__energy>  (28) 
-12.73

>  <m_primary>  (28) 
energy

$$$$
28:0
     RDKit          3D

 51 55  0  0  0  0  0  0  0  0999 V2000
    1.4520   19.2950  -33.5910 C   0  0  0  0  0  0  0  0  0  0  0  0
    1.3410   20.5500  -34.4170 C   0  0  0  0  0  0  0  0  0  0  0  0
    2.5140   21.1720  -34.8700 C   0  0  0  0  0  0  0  0  0  0  0  0
    2.4520   22.3590  -35.6030 C   0  0  0  0  0  0  0  0  0  0  0  0
    1.2140   22.9470  -35.8980 C   0  0  0  0  0  0  0  0  0  0  0  0
    1.1560   24.2080  -36.6640 C   0  0  0  0  0  0  0  0  0  0  0  0
    0.2070   25.1510  -36.5040 N   0  0  0  0  0  0  0  0  0  0  0  0
    0.5920   26.0760  -37.4100 C   0  0  0  0  0  0  0  0  0  0  0  0
   -0.1310   27.3650  -37.6790 C   0  0  0  0  0  0  0  0  0  0  0  0
   -1.5900   27.2000  -38.0800 C   0  0  0  0  0  0  0  0  0  0  0  0
   -1.2370   27.7390  -36.7010 C   0  0  0  0  0  0  0  0  0  0  0  0
    1.7040   25.7120  -38.0770 N   0  0  0  0  0  0  0  0  0  0  0  0
    2.0230   24.5520  -37.5860 O   0  0  0  0  0  0  0  0  0  0  0  0
    0.0360   22.3190  -35.4630 C   0  0  0  0  0  0  0  0  0  0  0  0
    0.0870   21.1110  -34.7520 C   0  0  0  0  0  0  0  0  0  0  0  0
   -1.1460   20.4950  -34.3510 N   0  0  0  0  0  0  0  0  0  0  0  0
   -1.8280   20.8620  -33.1420 C   0  0  0  0  0  0  0  0  0  0  0  0
   -1.2230   21.5450  -32.2700 O   0  0  0  0  0  0  0  0  0  0  0  0
   -3.2230   20.4260  -32.8910 C   0  0  0  0  0  0  0  0  0  0  0  0
   -4.0730   21.2080  -32.0960 C   0  0  0  0  0  0  0  0  0  0  0  0
   -5.3930   20.8190  -31.8760 C   0  0  0  0  0  0  0  0  0  0  0  0
   -5.8980   19.6430  -32.4470 C   0  0  0  0  0  0  0  0  0  0  0  0
   -7.2800   19.3170  -32.2340 N   0  0  0  0  0  0  0  0  0  0  0  0
   -8.3440   19.9760  -32.7220 C   0  0  0  0  0  0  0  0  0  0  0  0
   -9.4750   19.2810  -32.3570 C   0  0  0  0  0  0  0  0  0  0  0  0
   -9.1250   18.1780  -31.6620 N   0  0  0  0  0  0  0  0  0  0  0  0
   -7.7760   18.2300  -31.6120 C   0  0  0  0  0  0  0  0  0  0  0  0
   -5.0440   18.8160  -33.2190 C   0  0  0  0  0  0  0  0  0  0  0  0
   -5.5220   17.5100  -33.8240 C   0  0  0  0  0  0  0  0  0  0  0  0
   -4.6980   17.1600  -34.8760 F   0  0  0  0  0  0  0  0  0  0  0  0
   -6.8240   17.6250  -34.2780 F   0  0  0  0  0  0  0  0  0  0  0  0
   -5.4970   16.4900  -32.8880 F   0  0  0  0  0  0  0  0  0  0  0  0
   -3.7210   19.2410  -33.4590 C   0  0  0  0  0  0  0  0  0  0  0  0
    1.4289   19.5560  -32.5227 H   0  0  0  0  0  0  0  0  0  0  0  0
    0.6094   18.6272  -33.8236 H   0  0  0  0  0  0  0  0  0  0  0  0
    2.3987   18.7855  -33.8236 H   0  0  0  0  0  0  0  0  0  0  0  0
    3.4917   20.7205  -34.6457 H   0  0  0  0  0  0  0  0  0  0  0  0
    3.3803   22.8356  -35.9511 H   0  0  0  0  0  0  0  0  0  0  0  0
    0.7459   27.8903  -38.0854 H   0  0  0  0  0  0  0  0  0  0  0  0
   -2.0317   27.8673  -38.8347 H   0  0  0  0  0  0  0  0  0  0  0  0
   -2.2038   26.3682  -38.4560 H   0  0  0  0  0  0  0  0  0  0  0  0
   -1.4233   28.7958  -36.4592 H   0  0  0  0  0  0  0  0  0  0  0  0
   -1.4897   27.4582  -35.6679 H   0  0  0  0  0  0  0  0  0  0  0  0
   -0.9384   22.7798  -35.6824 H   0  0  0  0  0  0  0  0  0  0  0  0
   -1.4260   19.6090  -34.8290 H   0  0  0  0  0  0  0  0  0  0  0  0
   -3.6949   22.1360  -31.6423 H   0  0  0  0  0  0  0  0  0  0  0  0
   -6.0459   21.4420  -31.2471 H   0  0  0  0  0  0  0  0  0  0  0  0
   -8.3165   20.9059  -33.3090 H   0  0  0  0  0  0  0  0  0  0  0  0
  -10.5067   19.5791  -32.5954 H   0  0  0  0  0  0  0  0  0  0  0  0
   -7.1525   17.4699  -31.1186 H   0  0  0  0  0  0  0  0  0  0  0  0
   -3.0670   18.6340  -34.1024 H   0  0  0  0  0  0  0  0  0  0  0  0
  1  2  1  0
  2  3  2  0
  3  4  1  0
  4  5  2  0
  5  6  1  0
  6  7  2  0
  7  8  1  0
  8  9  1  0
  9 10  1  0
 10 11  1  0
  8 12  2  0
 12 13  1  0
  5 14  1  0
 14 15  2  0
 15 16  1  0
 16 17  1  0
 17 18  2  0
 17 19  1  0
 19 20  2  0
 20 21  1  0
 21 22  2  0
 22 23  1  0
 23 24  1  0
 24 25  2  0
 25 26  1  0
 26 27  2  0
 22 28  1  0
 28 29  1  0
 29 30  1  0
 29 31  1  0
 29 32  1  0
 28 33  2  0
 15  2  1  0
 33 19  1  0
 13  6  1  0
 27 23  1  0
 11  9  1  0
  1 34  1  0
  1 35  1  0
  1 36  1  0
  3 37  1  0
  4 38  1  0
  9 39  1  0
 10 40  1  0
 10 41  1  0
 11 42  1  0
 11 43  1  0
 14 44  1  0
 16 45  1  0
 20 46  1  0
 21 47  1  0
 24 48  1  0
 25 49  1  0
 27 50  1  0
 33 51  1  0
M  END
>  <UniqueID>  (29) 
29

>  <SMILES>  (29) 
Cc1ccc(-c2nc(C3CC3)no2)cc1NC(=O)c1ccc(-n2ccnc2)c(C(F)(F)F)c1

>  <Energy>  (29) 
399.38570123179585

>  <Genealogy>  (29) 
Cc1ccc(-c2nc(C3CC3)no2)cc1NC(=O)c1ccc(-n2ccnc2)c(C(F)(F)F)c1 (3D coordinates assigned)
Cc1ccc(-c2nc(C3CC3)no2)cc1NC(=O)c1ccc(-n2ccnc2)c(C(F)(F)F)c1 (nonaromatic ring conformer: 399.38570123179585 kcal/mol)

>  <smiles>  (29) 
Cc1ccc(-c2nc(C3CC3)no2)cc1NC(=O)c1ccc(-n2ccnc2)c(C(F)(F)F)c1

>  <score_type>  (29) 
oracle

>  <origin>  (29) 
adgpu

>  <m_score__min__energy>  (29) 
-9.2699999999999996

>  <m_primary>  (29) 
energy

$$$$
29:0
     RDKit          3D

 71 75  0  0  0  0  0  0  0  0999 V2000
    4.2200   19.6190  -29.7240 H   0  0  0  0  0  0  0  0  0  0  0  0
    3.8080   19.5840  -30.6820 N   0  0  0  0  0  0  0  0  0  0  0  0
    3.4590   18.4780  -31.2620 C   0  0  0  0  0  0  0  0  0  0  0  0
    3.5760   17.1950  -30.7590 C   0  0  0  0  0  0  0  0  0  0  0  0
    4.0330   16.7590  -29.4730 N   0  0  0  0  0  0  0  0  0  0  0  0
    3.3700   17.0010  -28.2250 C   0  0  0  0  0  0  0  0  0  0  0  0
    3.7550   16.3690  -27.2070 O   0  0  0  0  0  0  0  0  0  0  0  0
    2.2300   17.9400  -28.1100 C   0  0  0  0  0  0  0  0  0  0  0  0
    0.9050   17.4760  -28.1570 C   0  0  0  0  0  0  0  0  0  0  0  0
    0.7065   16.4007  -28.2764 H   0  0  0  0  0  0  0  0  0  0  0  0
   -0.1630   18.3720  -28.0530 C   0  0  0  0  0  0  0  0  0  0  0  0
   -1.1960   17.9972  -28.1034 H   0  0  0  0  0  0  0  0  0  0  0  0
    0.0710   19.7440  -27.8850 C   0  0  0  0  0  0  0  0  0  0  0  0
   -1.0470   20.6460  -27.8090 N   0  0  0  0  0  0  0  0  0  0  0  0
   -1.9090   20.3160  -27.3170 H   0  0  0  0  0  0  0  0  0  0  0  0
   -0.9940   22.0210  -28.2290 C   0  0  0  0  0  0  0  0  0  0  0  0
    0.1000   22.6460  -28.1580 O   0  0  0  0  0  0  0  0  0  0  0  0
   -2.2100   22.7270  -28.7090 C   0  0  0  0  0  0  0  0  0  0  0  0
   -2.4610   22.9040  -30.0840 C   0  0  0  0  0  0  0  0  0  0  0  0
   -1.7524   22.5034  -30.8239 H   0  0  0  0  0  0  0  0  0  0  0  0
   -3.6040   23.5850  -30.5160 C   0  0  0  0  0  0  0  0  0  0  0  0
   -3.8000   23.6961  -31.5927 H   0  0  0  0  0  0  0  0  0  0  0  0
   -4.5000   24.1260  -29.5860 C   0  0  0  0  0  0  0  0  0  0  0  0
   -5.9250   25.0180  -30.1330 S   0  0  0  0  0  0  0  0  0  0  0  0
   -6.4970   25.7850  -28.9720 O   0  0  0  0  0  0  0  0  0  0  0  0
   -5.5100   26.0080  -31.1850 O   0  0  0  0  0  0  0  0  0  0  0  0
   -7.1630   23.9770  -30.7980 N   0  0  0  0  0  0  0  0  0  0  0  0
   -6.8240   23.4970  -32.1360 C   0  0  0  0  0  0  0  0  0  0  0  0
   -7.1536   24.2222  -32.8946 H   0  0  0  0  0  0  0  0  0  0  0  0
   -5.7373   23.3691  -32.2489 H   0  0  0  0  0  0  0  0  0  0  0  0
   -7.5560   22.1740  -32.3200 C   0  0  0  0  0  0  0  0  0  0  0  0
   -8.4542   22.3142  -32.9393 H   0  0  0  0  0  0  0  0  0  0  0  0
   -6.9293   21.4276  -32.8300 H   0  0  0  0  0  0  0  0  0  0  0  0
   -7.9410   21.7260  -30.9180 C   0  0  0  0  0  0  0  0  0  0  0  0
   -9.0352   21.6837  -30.8136 H   0  0  0  0  0  0  0  0  0  0  0  0
   -7.5610   20.7193  -30.6898 H   0  0  0  0  0  0  0  0  0  0  0  0
   -7.3580   22.7760  -29.9890 C   0  0  0  0  0  0  0  0  0  0  0  0
   -8.0543   22.9823  -29.1628 H   0  0  0  0  0  0  0  0  0  0  0  0
   -6.4111   22.4352  -29.5448 H   0  0  0  0  0  0  0  0  0  0  0  0
   -4.2570   23.9560  -28.2170 C   0  0  0  0  0  0  0  0  0  0  0  0
   -4.9613   24.3704  -27.4807 H   0  0  0  0  0  0  0  0  0  0  0  0
   -3.1250   23.2630  -27.7820 C   0  0  0  0  0  0  0  0  0  0  0  0
   -2.9462   23.1345  -26.7043 H   0  0  0  0  0  0  0  0  0  0  0  0
    1.3980   20.2100  -27.8470 C   0  0  0  0  0  0  0  0  0  0  0  0
    1.5963   21.2869  -27.7419 H   0  0  0  0  0  0  0  0  0  0  0  0
    2.4660   19.3130  -27.9420 C   0  0  0  0  0  0  0  0  0  0  0  0
    3.4991   19.6863  -27.8846 H   0  0  0  0  0  0  0  0  0  0  0  0
    3.2140   16.3700  -31.8050 C   0  0  0  0  0  0  0  0  0  0  0  0
    3.2053   15.2704  -31.7761 H   0  0  0  0  0  0  0  0  0  0  0  0
    2.8720   17.1280  -32.8700 N   0  0  0  0  0  0  0  0  0  0  0  0
    3.0140   18.4020  -32.5320 N   0  0  0  0  0  0  0  0  0  0  0  0
    2.8020   19.5140  -33.4580 C   0  0  0  0  0  0  0  0  0  0  0  0
    3.4670   20.3465  -33.1849 H   0  0  0  0  0  0  0  0  0  0  0  0
    3.0241   19.1773  -34.4814 H   0  0  0  0  0  0  0  0  0  0  0  0
    1.3730   19.9770  -33.3920 C   0  0  0  0  0  0  0  0  0  0  0  0
    0.8230   20.7040  -34.4560 C   0  0  0  0  0  0  0  0  0  0  0  0
    1.4269   20.8996  -35.3544 H   0  0  0  0  0  0  0  0  0  0  0  0
   -0.4850   21.1810  -34.3830 C   0  0  0  0  0  0  0  0  0  0  0  0
   -0.9049   21.7507  -35.2251 H   0  0  0  0  0  0  0  0  0  0  0  0
   -1.2720   20.9410  -33.2440 C   0  0  0  0  0  0  0  0  0  0  0  0
   -2.6750   21.4850  -33.1920 C   0  0  0  0  0  0  0  0  0  0  0  0
   -2.9833   21.6045  -32.1429 H   0  0  0  0  0  0  0  0  0  0  0  0
   -2.7087   22.4614  -33.6976 H   0  0  0  0  0  0  0  0  0  0  0  0
   -3.3581   20.7866  -33.6976 H   0  0  0  0  0  0  0  0  0  0  0  0
   -0.7140   20.2340  -32.1520 C   0  0  0  0  0  0  0  0  0  0  0  0
   -1.5120   19.9530  -30.9060 C   0  0  0  0  0  0  0  0  0  0  0  0
   -0.8970   20.1696  -30.0201 H   0  0  0  0  0  0  0  0  0  0  0  0
   -2.4092   20.5893  -30.8939 H   0  0  0  0  0  0  0  0  0  0  0  0
   -1.8126   18.8949  -30.8939 H   0  0  0  0  0  0  0  0  0  0  0  0
    0.6000   19.7460  -32.2460 C   0  0  0  0  0  0  0  0  0  0  0  0
    1.0279   19.1749  -31.4089 H   0  0  0  0  0  0  0  0  0  0  0  0
  1  2  1  0
  2  3  2  0
  3  4  1  0
  4  5  1  0
  5  6  1  0
  6  7  2  0
  6  8  1  0
  8  9  2  0
  9 10  1  0
  9 11  1  0
 11 12  1  0
 11 13  2  0
 13 14  1  0
 14 15  1  0
 14 16  1  0
 16 17  2  0
 16 18  1  0
 18 19  2  0
 19 20  1  0
 19 21  1  0
 21 22  1  0
 21 23  2  0
 23 24  1  0
 24 25  2  0
 24 26  2  0
 24 27  1  0
 27 28  1  0
 28 29  1  0
 28 30  1  0
 28 31  1  0
 31 32  1  0
 31 33  1  0
 31 34  1  0
 34 35  1  0
 34 36  1  0
 34 37  1  0
 37 38  1  0
 37 39  1  0
 23 40  1  0
 40 41  1  0
 40 42  2  0
 42 43  1  0
 13 44  1  0
 44 45  1  0
 44 46  2  0
 46 47  1  0
  4 48  2  0
 48 49  1  0
 48 50  1  0
 50 51  1  0
 51 52  1  0
 52 53  1  0
 52 54  1  0
 52 55  1  0
 55 56  2  0
 56 57  1  0
 56 58  1  0
 58 59  1  0
 58 60  2  0
 60 61  1  0
 61 62  1  0
 61 63  1  0
 61 64  1  0
 60 65  1  0
 65 66  1  0
 66 67  1  0
 66 68  1  0
 66 69  1  0
 65 70  2  0
 70 71  1  0
 51  3  1  0
 70 55  1  0
 46  8  1  0
 42 18  1  0
 37 27  1  0
M  CHG  2   5  -1  50  -1
M  END
>  <UniqueID>  (30) 
30

>  <SMILES>  (30) 
[H]/N=c1\c([N-]C(=O)c2ccc(NC(=O)c3ccc(S(=O)(=O)N4CCCC4)cc3)cc2)c[n-]n1Cc1ccc(C)c(C)c1

>  <Energy>  (30) 
123.87448673425007

>  <Genealogy>  (30) 
Cc1ccc(Cn2[n-]cc([N-]C(=O)c3ccc(NC(=O)c4ccc(S(=O)(=O)N5CCCC5)cc4)cc3)c2=N)cc1C (protonated)
[H]/N=c1\c([N-]C(=O)c2ccc(NC(=O)c3ccc(S(=O)(=O)N4CCCC4)cc3)cc2)c[n-]n1Cc1ccc(C)c(C)c1 (cis-trans isomerization)
[H]/N=c1\c([N-]C(=O)c2ccc(NC(=O)c3ccc(S(=O)(=O)N4CCCC4)cc3)cc2)c[n-]n1Cc1ccc(C)c(C)c1 (3D coordinates assigned)
[H]/N=c1\c([N-]C(=O)c2ccc(NC(=O)c3ccc(S(=O)(=O)N4CCCC4)cc3)cc2)c[n-]n1Cc1ccc(C)c(C)c1 (nonaromatic ring conformer: 123.87448673425007 kcal/mol)

>  <smiles>  (30) 
Cc1ccc(Cn2[nH]cc(NC(=O)c3ccc(NC(=O)c4ccc(S(=O)(=O)N5CCCC5)cc4)cc3)c2=N)cc1C

>  <score_type>  (30) 
oracle

>  <origin>  (30) 
adgpu

>  <m_score__min__energy>  (30) 
-11.92

>  <m_primary>  (30) 
energy

$$$$
30:0
     RDKit          3D

 71 74  0  0  1  0  0  0  0  0999 V2000
   -4.0110   17.7030  -34.0270 C   0  0  0  0  0  0  0  0  0  0  0  0
   -3.1720   18.6560  -33.6550 C   0  0  0  0  0  0  0  0  0  0  0  0
   -3.6070   19.9890  -33.2790 C   0  0  0  0  0  0  0  0  0  0  0  0
   -3.1520   21.0220  -33.8400 O   0  0  0  0  0  0  0  0  0  0  0  0
   -4.5780   20.2140  -32.2520 N   0  0  0  0  0  0  0  0  0  0  0  0
   -5.0120   21.5140  -31.8740 C   0  0  0  0  0  0  0  0  0  0  0  0
   -4.0550   22.3920  -31.4060 C   0  0  0  0  0  0  0  0  0  0  0  0
   -4.4320   23.6670  -31.0330 C   0  0  0  0  0  0  0  0  0  0  0  0
   -3.4030   24.5270  -30.5580 N   0  0  0  0  0  0  0  0  0  0  0  0
   -2.6510   24.2210  -29.5550 C   0  0  0  0  0  0  0  0  0  0  0  0
   -2.8130   23.0540  -28.9050 N   0  0  0  0  0  0  0  0  0  0  0  0
   -1.9850   22.8180  -27.8700 C   0  0  0  0  0  0  0  0  0  0  0  0
   -1.0110   23.7040  -27.4730 C   0  0  0  0  0  0  0  0  0  0  0  0
    0.0310   23.3600  -26.1280 Cl  0  0  0  0  0  0  0  0  0  0  0  0
   -0.8990   24.8770  -28.1800 C   0  0  0  0  0  0  0  0  0  0  0  0
   -0.0180   25.7530  -27.8800 N   0  0  0  0  0  0  0  0  0  0  0  0
    0.9250   25.6530  -26.8300 C   0  0  0  0  0  0  0  0  0  0  0  0
    2.1610   25.0520  -27.1150 C   0  0  0  0  0  0  0  0  0  0  0  0
    3.1480   24.9300  -26.1680 C   0  0  0  0  0  0  0  0  0  0  0  0
    2.8950   25.4220  -24.9050 C   0  0  0  0  0  0  0  0  0  0  0  0
    1.6840   26.0220  -24.5920 C   0  0  0  0  0  0  0  0  0  0  0  0
    0.6690   26.1530  -25.5460 C   0  0  0  0  0  0  0  0  0  0  0  0
   -0.8580   26.9090  -25.1790 S   0  0  0  0  0  0  0  0  0  0  0  0
   -1.9700   26.1860  -25.8920 O   0  0  0  0  0  0  0  0  0  0  0  0
   -1.1500   26.8540  -23.7160 O   0  0  0  0  0  0  0  0  0  0  0  0
   -0.8390   28.6250  -25.6320 C   0  0  0  0  0  0  0  0  0  0  0  0
   -0.4400   28.7740  -27.0640 C   0  0  0  0  0  0  0  0  0  0  0  0
    0.1080   29.3590  -24.6950 C   0  0  0  0  0  0  0  0  0  0  0  0
   -1.7140   25.1300  -29.2110 N   0  0  0  0  0  0  0  0  0  0  0  0
   -5.7530   24.0510  -31.1320 C   0  0  0  0  0  0  0  0  0  0  0  0
   -6.1180   25.3250  -30.7580 O   0  0  0  0  0  0  0  0  0  0  0  0
   -6.1850   25.6460  -29.3760 C   0  0  0  0  0  0  0  0  0  0  0  0
   -6.6920   23.1350  -31.6110 C   0  0  0  0  0  0  0  0  0  0  0  0
   -6.3240   21.8510  -31.9870 C   0  0  0  0  0  0  0  0  0  0  0  0
   -7.3540   21.0070  -32.4620 N   0  0  0  0  0  0  0  0  0  0  0  0
   -7.1350   19.7510  -33.1500 C   0  0  0  0  0  0  0  0  0  0  0  0
   -8.1660   18.7130  -32.7630 C   0  0  0  0  0  0  0  0  0  0  0  0
   -9.4210   19.2360  -32.5850 O   0  0  0  0  0  0  0  0  0  0  0  0
   -9.4330   20.2430  -31.6180 C   0  0  0  0  0  0  0  0  0  0  0  0
   -8.7290   21.4300  -32.2430 C   0  0  0  0  0  0  0  0  0  0  0  0
   -3.6277   16.7093  -34.3020 H   0  0  0  0  0  0  0  0  0  0  0  0
   -5.0919   17.9044  -34.0613 H   0  0  0  0  0  0  0  0  0  0  0  0
   -2.0962   18.4280  -33.6295 H   0  0  0  0  0  0  0  0  0  0  0  0
   -5.0070   19.4150  -31.7380 H   0  0  0  0  0  0  0  0  0  0  0  0
   -3.0031   22.0792  -31.3310 H   0  0  0  0  0  0  0  0  0  0  0  0
   -3.5550   22.3910  -29.2160 H   0  0  0  0  0  0  0  0  0  0  0  0
   -2.0924   21.8734  -27.3166 H   0  0  0  0  0  0  0  0  0  0  0  0
    2.3448   24.6666  -28.1288 H   0  0  0  0  0  0  0  0  0  0  0  0
    4.1102   24.4547  -26.4094 H   0  0  0  0  0  0  0  0  0  0  0  0
    3.6700   25.3369  -24.1290 H   0  0  0  0  0  0  0  0  0  0  0  0
    1.5184   26.4024  -23.5732 H   0  0  0  0  0  0  0  0  0  0  0  0
   -1.8426   29.0641  -25.5324 H   0  0  0  0  0  0  0  0  0  0  0  0
    0.5892   29.1583  -27.1198 H   0  0  0  0  0  0  0  0  0  0  0  0
   -0.4935   27.7953  -27.5633 H   0  0  0  0  0  0  0  0  0  0  0  0
   -1.1219   29.4781  -27.5633 H   0  0  0  0  0  0  0  0  0  0  0  0
   -0.1687   29.1446  -23.6522 H   0  0  0  0  0  0  0  0  0  0  0  0
    1.1390   29.0218  -24.8776 H   0  0  0  0  0  0  0  0  0  0  0  0
    0.0386   30.4415  -24.8776 H   0  0  0  0  0  0  0  0  0  0  0  0
   -1.6130   26.0320  -29.7380 H   0  0  0  0  0  0  0  0  0  0  0  0
   -5.9961   24.7411  -28.7798 H   0  0  0  0  0  0  0  0  0  0  0  0
   -5.4262   26.4063  -29.1390 H   0  0  0  0  0  0  0  0  0  0  0  0
   -7.1846   26.0393  -29.1390 H   0  0  0  0  0  0  0  0  0  0  0  0
   -7.7464   23.4380  -31.6920 H   0  0  0  0  0  0  0  0  0  0  0  0
   -7.1932   19.9240  -34.2348 H   0  0  0  0  0  0  0  0  0  0  0  0
   -6.1429   19.3719  -32.8637 H   0  0  0  0  0  0  0  0  0  0  0  0
   -8.2133   17.9544  -33.5581 H   0  0  0  0  0  0  0  0  0  0  0  0
   -7.8517   18.2845  -31.7999 H   0  0  0  0  0  0  0  0  0  0  0  0
  -10.4677   20.5075  -31.3544 H   0  0  0  0  0  0  0  0  0  0  0  0
   -8.9335   19.9194  -30.6929 H   0  0  0  0  0  0  0  0  0  0  0  0
   -9.2041   21.6972  -33.1985 H   0  0  0  0  0  0  0  0  0  0  0  0
   -8.7806   22.3176  -31.5953 H   0  0  0  0  0  0  0  0  0  0  0  0
  1  2  2  0
  2  3  1  0
  3  4  2  0
  3  5  1  0
  5  6  1  0
  6  7  2  0
  7  8  1  0
  8  9  1  0
  9 10  2  0
 10 11  1  0
 11 12  1  0
 12 13  2  0
 13 14  1  0
 13 15  1  0
 15 16  2  0
 16 17  1  0
 17 18  2  0
 18 19  1  0
 19 20  2  0
 20 21  1  0
 21 22  2  0
 22 23  1  0
 23 24  2  0
 23 25  2  0
 23 26  1  0
 26 27  1  0
 26 28  1  0
 15 29  1  0
  8 30  2  0
 30 31  1  0
 31 32  1  0
 30 33  1  0
 33 34  2  0
 34 35  1  0
 35 36  1  0
 36 37  1  0
 37 38  1  0
 38 39  1  0
 39 40  1  0
 34  6  1  0
 40 35  1  0
 29 10  1  0
 22 17  1  0
  1 41  1  0
  1 42  1  0
  2 43  1  0
  5 44  1  0
  7 45  1  0
 11 46  1  0
 12 47  1  0
 18 48  1  0
 19 49  1  0
 20 50  1  0
 21 51  1  0
 26 52  1  0
 27 53  1  0
 27 54  1  0
 27 55  1  0
 28 56  1  0
 28 57  1  0
 28 58  1  0
 29 59  1  0
 32 60  1  0
 32 61  1  0
 32 62  1  0
 33 63  1  0
 36 64  1  0
 36 65  1  0
 37 66  1  0
 37 67  1  0
 39 68  1  0
 39 69  1  0
 40 70  1  0
 40 71  1  0
M  END
>  <smiles>  (31) 
C=CC(=O)Nc1cc(N=c2[nH]cc(Cl)c(=Nc3ccccc3S(=O)(=O)C(C)C)[nH]2)c(OC)cc1N1CCOCC1

>  <score_type>  (31) 
oracle

>  <origin>  (31) 
adgpu

>  <m_score__min__energy>  (31) 
-10.949999999999999

>  <m_primary>  (31) 
energy

$$$$
31:0
     RDKit          3D

 61 66  0  0  0  0  0  0  0  0999 V2000
    0.6350   19.3920  -37.0460 C   0  0  0  0  0  0  0  0  0  0  0  0
    1.0690   17.9580  -37.1380 C   0  0  0  0  0  0  0  0  0  0  0  0
    1.1300   17.1440  -35.9950 C   0  0  0  0  0  0  0  0  0  0  0  0
    1.5150   15.8020  -36.0990 C   0  0  0  0  0  0  0  0  0  0  0  0
    1.8350   15.2540  -37.3530 C   0  0  0  0  0  0  0  0  0  0  0  0
    2.2280   13.8850  -37.5070 N   0  0  0  0  0  0  0  0  0  0  0  0
    1.5400   12.8730  -38.2550 C   0  0  0  0  0  0  0  0  0  0  0  0
    1.8570   12.6290  -39.4500 O   0  0  0  0  0  0  0  0  0  0  0  0
    0.5570   12.0520  -37.6170 N   0  0  0  0  0  0  0  0  0  0  0  0
   -0.6280   12.5500  -36.9840 C   0  0  0  0  0  0  0  0  0  0  0  0
   -1.2250   11.8690  -35.9090 C   0  0  0  0  0  0  0  0  0  0  0  0
   -2.3720   12.3820  -35.3000 C   0  0  0  0  0  0  0  0  0  0  0  0
   -2.9460   13.5800  -35.7580 C   0  0  0  0  0  0  0  0  0  0  0  0
   -4.1830   14.1020  -35.1350 C   0  0  0  0  0  0  0  0  0  0  0  0
   -5.3650   13.3430  -35.1660 C   0  0  0  0  0  0  0  0  0  0  0  0
   -6.5360   13.8420  -34.5960 C   0  0  0  0  0  0  0  0  0  0  0  0
   -6.5480   15.1100  -34.0090 C   0  0  0  0  0  0  0  0  0  0  0  0
   -5.3800   15.8920  -33.9760 C   0  0  0  0  0  0  0  0  0  0  0  0
   -5.4060   17.2620  -33.4010 C   0  0  0  0  0  0  0  0  0  0  0  0
   -4.6560   18.2980  -33.9850 C   0  0  0  0  0  0  0  0  0  0  0  0
   -4.7150   19.5970  -33.4730 C   0  0  0  0  0  0  0  0  0  0  0  0
   -5.5250   19.8900  -32.3630 C   0  0  0  0  0  0  0  0  0  0  0  0
   -5.6210   21.2750  -31.8480 C   0  0  0  0  0  0  0  0  0  0  0  0
   -4.5290   22.0380  -31.5700 N   0  0  0  0  0  0  0  0  0  0  0  0
   -5.0740   23.1700  -31.1050 C   0  0  0  0  0  0  0  0  0  0  0  0
   -4.4160   24.3060  -30.6430 C   0  0  0  0  0  0  0  0  0  0  0  0
   -5.2060   25.3740  -30.1750 C   0  0  0  0  0  0  0  0  0  0  0  0
   -6.6170   25.2770  -30.1820 C   0  0  0  0  0  0  0  0  0  0  0  0
   -7.2460   24.1110  -30.6560 C   0  0  0  0  0  0  0  0  0  0  0  0
   -6.4310   23.0750  -31.1070 C   0  0  0  0  0  0  0  0  0  0  0  0
   -6.8100   21.8790  -31.5750 N   0  0  0  0  0  0  0  0  0  0  0  0
   -6.2640   18.8550  -31.7680 C   0  0  0  0  0  0  0  0  0  0  0  0
   -6.2050   17.5540  -32.2810 C   0  0  0  0  0  0  0  0  0  0  0  0
   -4.1950   15.3700  -34.5300 C   0  0  0  0  0  0  0  0  0  0  0  0
   -2.3370   14.2680  -36.8230 C   0  0  0  0  0  0  0  0  0  0  0  0
   -1.1760   13.7630  -37.4190 C   0  0  0  0  0  0  0  0  0  0  0  0
    1.8100   16.0760  -38.4870 C   0  0  0  0  0  0  0  0  0  0  0  0
    1.4170   17.4160  -38.3840 C   0  0  0  0  0  0  0  0  0  0  0  0
    0.5474   19.6814  -35.9884 H   0  0  0  0  0  0  0  0  0  0  0  0
    1.3794   20.0329  -37.5411 H   0  0  0  0  0  0  0  0  0  0  0  0
   -0.3399   19.5125  -37.5411 H   0  0  0  0  0  0  0  0  0  0  0  0
    0.8735   17.5639  -35.0112 H   0  0  0  0  0  0  0  0  0  0  0  0
    1.5672   15.1748  -35.1968 H   0  0  0  0  0  0  0  0  0  0  0  0
   -0.7866   10.9277  -35.5459 H   0  0  0  0  0  0  0  0  0  0  0  0
   -2.8293   11.8447  -34.4561 H   0  0  0  0  0  0  0  0  0  0  0  0
   -5.3668   12.3512  -35.6418 H   0  0  0  0  0  0  0  0  0  0  0  0
   -7.4534   13.2352  -34.6086 H   0  0  0  0  0  0  0  0  0  0  0  0
   -7.4782   15.4993  -33.5694 H   0  0  0  0  0  0  0  0  0  0  0  0
   -4.0162   18.0839  -34.8538 H   0  0  0  0  0  0  0  0  0  0  0  0
   -4.1227   20.3962  -33.9426 H   0  0  0  0  0  0  0  0  0  0  0  0
   -3.3177   24.3676  -30.6433 H   0  0  0  0  0  0  0  0  0  0  0  0
   -4.7227   26.2890  -29.8018 H   0  0  0  0  0  0  0  0  0  0  0  0
   -7.2254   26.1169  -29.8152 H   0  0  0  0  0  0  0  0  0  0  0  0
   -8.3422   24.0207  -30.6700 H   0  0  0  0  0  0  0  0  0  0  0  0
   -6.8942   19.0682  -30.8920 H   0  0  0  0  0  0  0  0  0  0  0  0
   -6.7887   16.7529  -31.8040 H   0  0  0  0  0  0  0  0  0  0  0  0
   -3.2686   15.9616  -34.4886 H   0  0  0  0  0  0  0  0  0  0  0  0
   -2.7757   15.2079  -37.1893 H   0  0  0  0  0  0  0  0  0  0  0  0
   -0.6914   14.3217  -38.2333 H   0  0  0  0  0  0  0  0  0  0  0  0
    2.1012   15.6659  -39.4653 H   0  0  0  0  0  0  0  0  0  0  0  0
    1.3810   18.0466  -39.2846 H   0  0  0  0  0  0  0  0  0  0  0  0
  1  2  1  0
  2  3  2  0
  3  4  1  0
  4  5  2  0
  5  6  1  0
  6  7  1  0
  7  8  2  0
  7  9  1  0
  9 10  1  0
 10 11  2  0
 11 12  1  0
 12 13  2  0
 13 14  1  0
 14 15  2  0
 15 16  1  0
 16 17  2  0
 17 18  1  0
 18 19  1  0
 19 20  2  0
 20 21  1  0
 21 22  2  0
 22 23  1  0
 23 24  2  0
 24 25  1  0
 25 26  2  0
 26 27  1  0
 27 28  2  0
 28 29  1  0
 29 30  2  0
 30 31  1  0
 22 32  1  0
 32 33  2  0
 18 34  2  0
 13 35  1  0
 35 36  2  0
  5 37  1  0
 37 38  2  0
 38  2  1  0
 36 10  1  0
 34 14  1  0
 33 19  1  0
 31 23  1  0
 30 25  1  0
  1 39  1  0
  1 40  1  0
  1 41  1  0
  3 42  1  0
  4 43  1  0
 11 44  1  0
 12 45  1  0
 15 46  1  0
 16 47  1  0
 17 48  1  0
 20 49  1  0
 21 50  1  0
 26 51  1  0
 27 52  1  0
 28 53  1  0
 29 54  1  0
 32 55  1  0
 33 56  1  0
 34 57  1  0
 35 58  1  0
 36 59  1  0
 37 60  1  0
 38 61  1  0
M  CHG  3   6  -1   9  -1  31  -1
M  END
>  <UniqueID>  (32) 
31

>  <SMILES>  (32) 
Cc1ccc([N-]C(=O)[N-]c2ccc(-c3cccc(-c4ccc(-c5nc6ccccc6[n-]5)cc4)c3)cc2)cc1

>  <Energy>  (32) 
122.94747771169278

>  <Genealogy>  (32) 
Cc1ccc([N-]C(=O)[N-]c2ccc(-c3cccc(-c4ccc(-c5nc6ccccc6[n-]5)cc4)c3)cc2)cc1 (protonated)
Cc1ccc([N-]C(=O)[N-]c2ccc(-c3cccc(-c4ccc(-c5nc6ccccc6[n-]5)cc4)c3)cc2)cc1 (3D coordinates assigned)
Cc1ccc([N-]C(=O)[N-]c2ccc(-c3cccc(-c4ccc(-c5nc6ccccc6[n-]5)cc4)c3)cc2)cc1 (optimized conformer: 122.94747771169278 kcal/mol)

>  <smiles>  (32) 
Cc1ccc(NC(=O)Nc2ccc(-c3cccc(-c4ccc(-c5nc6ccccc6[nH]5)cc4)c3)cc2)cc1

>  <score_type>  (32) 
oracle

>  <origin>  (32) 
adgpu

>  <m_score__min__energy>  (32) 
-10.720000000000001

>  <m_primary>  (32) 
energy

$$$$
32:0
     RDKit          3D

 35 36  0  0  0  0  0  0  0  0999 V2000
   -3.0130   23.9240  -28.1370 C   0  0  0  0  0  0  0  0  0  0  0  0
   -4.3600   24.3260  -28.5340 N   0  0  0  0  0  0  0  0  0  0  0  0
   -4.5140   24.2450  -30.2630 S   0  0  0  0  0  0  0  0  0  0  0  0
   -3.2900   23.5840  -30.8320 O   0  0  0  0  0  0  0  0  0  0  0  0
   -4.6120   25.6320  -30.8350 O   0  0  0  0  0  0  0  0  0  0  0  0
   -5.9390   23.3080  -30.7170 C   0  0  0  0  0  0  0  0  0  0  0  0
   -6.0640   22.8020  -32.0180 C   0  0  0  0  0  0  0  0  0  0  0  0
   -7.2020   22.0780  -32.3850 C   0  0  0  0  0  0  0  0  0  0  0  0
   -8.2240   21.8430  -31.4520 C   0  0  0  0  0  0  0  0  0  0  0  0
   -9.4630   21.0810  -31.8460 C   0  0  0  0  0  0  0  0  0  0  0  0
   -9.1400   19.8120  -32.6430 C   0  0  0  0  0  0  0  0  0  0  0  0
   -8.2650   18.5700  -31.6230 S   0  0  0  0  0  0  0  0  0  0  0  0
   -6.8600   18.3970  -32.7210 C   0  0  0  0  0  0  0  0  0  0  0  0
   -5.8410   19.2930  -32.6620 N   0  0  0  0  0  0  0  0  0  0  0  0
   -4.7740   19.1920  -33.4950 C   0  0  0  0  0  0  0  0  0  0  0  0
   -4.7160   18.1560  -34.4280 C   0  0  0  0  0  0  0  0  0  0  0  0
   -5.7760   17.2520  -34.4810 C   0  0  0  0  0  0  0  0  0  0  0  0
   -6.8290   17.3910  -33.6340 N   0  0  0  0  0  0  0  0  0  0  0  0
   -8.0890   22.3400  -30.1460 C   0  0  0  0  0  0  0  0  0  0  0  0
   -6.9540   23.0680  -29.7810 C   0  0  0  0  0  0  0  0  0  0  0  0
   -2.9450   23.9037  -27.0393 H   0  0  0  0  0  0  0  0  0  0  0  0
   -2.7967   22.9221  -28.5364 H   0  0  0  0  0  0  0  0  0  0  0  0
   -2.2830   24.6434  -28.5364 H   0  0  0  0  0  0  0  0  0  0  0  0
   -4.4920   25.3270  -28.2610 H   0  0  0  0  0  0  0  0  0  0  0  0
   -5.2639   22.9752  -32.7528 H   0  0  0  0  0  0  0  0  0  0  0  0
   -7.2971   21.6905  -33.4101 H   0  0  0  0  0  0  0  0  0  0  0  0
  -10.0075   20.7961  -30.9337 H   0  0  0  0  0  0  0  0  0  0  0  0
  -10.0690   21.7359  -32.4893 H   0  0  0  0  0  0  0  0  0  0  0  0
  -10.0798   19.3731  -33.0092 H   0  0  0  0  0  0  0  0  0  0  0  0
   -8.4814   20.0924  -33.4783 H   0  0  0  0  0  0  0  0  0  0  0  0
   -3.9565   19.9255  -33.4347 H   0  0  0  0  0  0  0  0  0  0  0  0
   -3.8550   18.0551  -35.1051 H   0  0  0  0  0  0  0  0  0  0  0  0
   -5.7597   16.4268  -35.2081 H   0  0  0  0  0  0  0  0  0  0  0  0
   -8.8815   22.1551  -29.4059 H   0  0  0  0  0  0  0  0  0  0  0  0
   -6.8567   23.4541  -28.7556 H   0  0  0  0  0  0  0  0  0  0  0  0
  1  2  1  0
  2  3  1  0
  3  4  2  0
  3  5  2  0
  3  6  1  0
  6  7  2  0
  7  8  1  0
  8  9  2  0
  9 10  1  0
 10 11  1  0
 11 12  1  0
 12 13  1  0
 13 14  2  0
 14 15  1  0
 15 16  2  0
 16 17  1  0
 17 18  2  0
  9 19  1  0
 19 20  2  0
 20  6  1  0
 18 13  1  0
  1 21  1  0
  1 22  1  0
  1 23  1  0
  2 24  1  0
  7 25  1  0
  8 26  1  0
 10 27  1  0
 10 28  1  0
 11 29  1  0
 11 30  1  0
 15 31  1  0
 16 32  1  0
 17 33  1  0
 19 34  1  0
 20 35  1  0
M  END
>  <UniqueID>  (33) 
32

>  <SMILES>  (33) 
CNS(=O)(=O)c1ccc(CCSc2ncccn2)cc1

>  <Energy>  (33) 
25.94109258640642

>  <Genealogy>  (33) 
CNS(=O)(=O)c1ccc(CCSc2ncccn2)cc1 (3D coordinates assigned)
CNS(=O)(=O)c1ccc(CCSc2ncccn2)cc1 (optimized conformer: 25.94109258640642 kcal/mol)

>  <smiles>  (33) 
CNS(=O)(=O)c1ccc(CCSc2ncccn2)cc1

>  <score_type>  (33) 
oracle

>  <origin>  (33) 
adgpu

>  <m_score__min__energy>  (33) 
-8.6999999999999993

>  <m_primary>  (33) 
energy

$$$$
33:0
     RDKit          3D

 56 59  0  0  0  0  0  0  0  0999 V2000
   -0.3610   26.6990  -27.1830 C   0  0  0  0  0  0  0  0  0  0  0  0
   -1.0140   25.4940  -26.5410 C   0  0  0  0  0  0  0  0  0  0  0  0
   -1.6920   26.0150  -25.2680 C   0  0  0  0  0  0  0  0  0  0  0  0
    0.0190   24.4590  -26.2310 C   0  0  0  0  0  0  0  0  0  0  0  0
   -2.0910   24.9450  -27.4270 C   0  0  0  0  0  0  0  0  0  0  0  0
   -3.3330   24.6320  -26.9120 C   0  0  0  0  0  0  0  0  0  0  0  0
   -4.2750   24.1300  -27.7930 C   0  0  0  0  0  0  0  0  0  0  0  0
   -4.0230   23.9360  -29.1340 C   0  0  0  0  0  0  0  0  0  0  0  0
   -5.0080   23.4080  -30.0700 C   0  0  0  0  0  0  0  0  0  0  0  0
   -4.9830   23.7190  -31.2900 O   0  0  0  0  0  0  0  0  0  0  0  0
   -6.0410   22.5220  -29.6620 N   0  0  0  0  0  0  0  0  0  0  0  0
   -7.0050   22.0080  -30.5880 C   0  0  0  0  0  0  0  0  0  0  0  0
   -8.3300   22.2700  -30.3030 C   0  0  0  0  0  0  0  0  0  0  0  0
   -9.2840   21.7850  -31.1830 C   0  0  0  0  0  0  0  0  0  0  0  0
   -8.8960   21.0620  -32.3070 C   0  0  0  0  0  0  0  0  0  0  0  0
   -7.5860   20.7910  -32.6070 C   0  0  0  0  0  0  0  0  0  0  0  0
   -7.1450   20.0500  -33.7220 N   0  0  0  0  0  0  0  0  0  0  0  0
   -6.1410   19.0650  -33.7340 C   0  0  0  0  0  0  0  0  0  0  0  0
   -4.8000   19.2960  -33.5610 C   0  0  0  0  0  0  0  0  0  0  0  0
   -3.8590   18.2600  -33.5670 C   0  0  0  0  0  0  0  0  0  0  0  0
   -4.2530   16.9520  -33.7520 C   0  0  0  0  0  0  0  0  0  0  0  0
   -3.3530   15.9140  -33.7630 C   0  0  0  0  0  0  0  0  0  0  0  0
   -2.1240   16.1600  -33.6000 O   0  0  0  0  0  0  0  0  0  0  0  0
   -3.7700   14.6360  -33.9470 N   0  0  0  0  0  0  0  0  0  0  0  0
   -5.0790   14.3990  -34.1180 N   0  0  0  0  0  0  0  0  0  0  0  0
   -5.9790   15.4000  -34.1100 C   0  0  0  0  0  0  0  0  0  0  0  0
   -7.2040   15.1180  -34.2760 O   0  0  0  0  0  0  0  0  0  0  0  0
   -5.5930   16.7060  -33.9270 C   0  0  0  0  0  0  0  0  0  0  0  0
   -6.5020   17.7220  -33.9180 C   0  0  0  0  0  0  0  0  0  0  0  0
   -6.6420   21.2940  -31.6990 C   0  0  0  0  0  0  0  0  0  0  0  0
   -2.7680   24.2620  -29.6070 C   0  0  0  0  0  0  0  0  0  0  0  0
   -1.7830   24.7720  -28.7590 C   0  0  0  0  0  0  0  0  0  0  0  0
    0.0068   27.3777  -26.3994 H   0  0  0  0  0  0  0  0  0  0  0  0
    0.4821   26.3696  -27.8081 H   0  0  0  0  0  0  0  0  0  0  0  0
   -1.0972   27.2255  -27.8081 H   0  0  0  0  0  0  0  0  0  0  0  0
   -1.1715   25.6150  -24.3854 H   0  0  0  0  0  0  0  0  0  0  0  0
   -1.6482   27.1140  -25.2528 H   0  0  0  0  0  0  0  0  0  0  0  0
   -2.7427   25.6897  -25.2528 H   0  0  0  0  0  0  0  0  0  0  0  0
    0.1205   24.3574  -25.1404 H   0  0  0  0  0  0  0  0  0  0  0  0
   -0.2873   23.4945  -26.6622 H   0  0  0  0  0  0  0  0  0  0  0  0
    0.9841   24.7635  -26.6622 H   0  0  0  0  0  0  0  0  0  0  0  0
   -3.5642   24.7755  -25.8462 H   0  0  0  0  0  0  0  0  0  0  0  0
   -5.2717   23.8738  -27.4046 H   0  0  0  0  0  0  0  0  0  0  0  0
   -6.1350   22.2160  -28.6820 H   0  0  0  0  0  0  0  0  0  0  0  0
   -8.6181   22.8432  -29.4094 H   0  0  0  0  0  0  0  0  0  0  0  0
  -10.3511   21.9720  -30.9926 H   0  0  0  0  0  0  0  0  0  0  0  0
   -9.6771   20.6905  -32.9867 H   0  0  0  0  0  0  0  0  0  0  0  0
   -7.6180   20.2590  -34.6440 H   0  0  0  0  0  0  0  0  0  0  0  0
   -4.4529   20.3292  -33.4127 H   0  0  0  0  0  0  0  0  0  0  0  0
   -2.7935   18.4920  -33.4225 H   0  0  0  0  0  0  0  0  0  0  0  0
   -3.0910   13.8490  -33.9560 H   0  0  0  0  0  0  0  0  0  0  0  0
   -5.3370   13.3960  -34.2540 H   0  0  0  0  0  0  0  0  0  0  0  0
   -7.5650   17.4780  -34.0613 H   0  0  0  0  0  0  0  0  0  0  0  0
   -5.5739   21.1086  -31.8858 H   0  0  0  0  0  0  0  0  0  0  0  0
   -2.5393   24.1171  -30.6732 H   0  0  0  0  0  0  0  0  0  0  0  0
   -0.7855   25.0294  -29.1447 H   0  0  0  0  0  0  0  0  0  0  0  0
  1  2  1  0
  2  3  1  0
  2  4  1  0
  2  5  1  0
  5  6  2  0
  6  7  1  0
  7  8  2  0
  8  9  1  0
  9 10  2  0
  9 11  1  0
 11 12  1  0
 12 13  2  0
 13 14  1  0
 14 15  2  0
 15 16  1  0
 16 17  1  0
 17 18  1  0
 18 19  2  0
 19 20  1  0
 20 21  2  0
 21 22  1  0
 22 23  2  0
 22 24  1  0
 24 25  1  0
 25 26  1  0
 26 27  2  0
 26 28  1  0
 28 29  2  0
 16 30  2  0
  8 31  1  0
 31 32  2  0
 32  5  1  0
 30 12  1  0
 29 18  1  0
 28 21  1  0
  1 33  1  0
  1 34  1  0
  1 35  1  0
  3 36  1  0
  3 37  1  0
  3 38  1  0
  4 39  1  0
  4 40  1  0
  4 41  1  0
  6 42  1  0
  7 43  1  0
 11 44  1  0
 13 45  1  0
 14 46  1  0
 15 47  1  0
 17 48  1  0
 19 49  1  0
 20 50  1  0
 24 51  1  0
 25 52  1  0
 29 53  1  0
 30 54  1  0
 31 55  1  0
 32 56  1  0
M  END
>  <smiles>  (34) 
CC(C)(C)c1ccc(C(=O)Nc2cccc(Nc3ccc4c(=O)[nH][nH]c(=O)c4c3)c2)cc1

>  <score_type>  (34) 
oracle

>  <origin>  (34) 
adgpu

>  <m_score__min__energy>  (34) 
-9.9900000000000002

>  <m_primary>  (34) 
energy

$$$$
34:0
     RDKit          3D

 35 36  0  0  0  0  0  0  0  0999 V2000
   -5.7340   15.9610  -30.3710 H   0  0  0  0  0  0  0  0  0  0  0  0
   -6.0710   16.7270  -30.9410 O   0  0  0  0  0  0  0  0  0  0  0  0
   -5.7650   16.7830  -32.2830 N   0  0  0  0  0  0  0  0  0  0  0  0
   -4.8840   16.3300  -32.6130 H   0  0  0  0  0  0  0  0  0  0  0  0
   -6.5510   17.3790  -33.1340 C   0  0  0  0  0  0  0  0  0  0  0  0
   -6.2180   17.3770  -34.5270 N   0  0  0  0  0  0  0  0  0  0  0  0
   -6.8570   17.8160  -35.2260 H   0  0  0  0  0  0  0  0  0  0  0  0
   -5.3370   16.9310  -34.8670 H   0  0  0  0  0  0  0  0  0  0  0  0
   -7.8430   18.0120  -32.6920 C   0  0  0  0  0  0  0  0  0  0  0  0
   -8.2324   17.4705  -31.8173 H   0  0  0  0  0  0  0  0  0  0  0  0
   -8.5682   17.9622  -33.5176 H   0  0  0  0  0  0  0  0  0  0  0  0
   -7.6170   19.4450  -32.3260 C   0  0  0  0  0  0  0  0  0  0  0  0
   -8.5030   20.4880  -32.4970 C   0  0  0  0  0  0  0  0  0  0  0  0
   -9.5270   20.3962  -32.8882 H   0  0  0  0  0  0  0  0  0  0  0  0
   -7.9310   21.6080  -32.1190 O   0  0  0  0  0  0  0  0  0  0  0  0
   -6.7030   21.3500  -31.7170 C   0  0  0  0  0  0  0  0  0  0  0  0
   -5.7700   22.3940  -31.2270 C   0  0  0  0  0  0  0  0  0  0  0  0
   -6.2170   23.6920  -30.9200 C   0  0  0  0  0  0  0  0  0  0  0  0
   -7.2802   23.9453  -31.0441 H   0  0  0  0  0  0  0  0  0  0  0  0
   -5.3200   24.6670  -30.4570 C   0  0  0  0  0  0  0  0  0  0  0  0
   -5.8110   26.0470  -30.1190 C   0  0  0  0  0  0  0  0  0  0  0  0
   -5.8526   26.1639  -29.0260 H   0  0  0  0  0  0  0  0  0  0  0  0
   -5.1237   26.7945  -30.5418 H   0  0  0  0  0  0  0  0  0  0  0  0
   -6.8160   26.1924  -30.5418 H   0  0  0  0  0  0  0  0  0  0  0  0
   -3.9640   24.3410  -30.2900 C   0  0  0  0  0  0  0  0  0  0  0  0
   -3.0710   25.2990  -29.8150 O   0  0  0  0  0  0  0  0  0  0  0  0
   -3.5040   23.0490  -30.5980 C   0  0  0  0  0  0  0  0  0  0  0  0
   -2.0550   22.6980  -30.4130 C   0  0  0  0  0  0  0  0  0  0  0  0
   -1.8255   22.6424  -29.3387 H   0  0  0  0  0  0  0  0  0  0  0  0
   -1.8507   21.7244  -30.8824 H   0  0  0  0  0  0  0  0  0  0  0  0
   -1.4278   23.4702  -30.8824 H   0  0  0  0  0  0  0  0  0  0  0  0
   -4.4120   22.0840  -31.0620 C   0  0  0  0  0  0  0  0  0  0  0  0
   -4.0537   21.0714  -31.2993 H   0  0  0  0  0  0  0  0  0  0  0  0
   -6.4520   19.9920  -31.8340 C   0  0  0  0  0  0  0  0  0  0  0  0
   -5.5199   19.4628  -31.5865 H   0  0  0  0  0  0  0  0  0  0  0  0
  1  2  1  0
  2  3  1  0
  3  4  1  0
  3  5  2  0
  5  6  1  0
  6  7  1  0
  6  8  1  0
  5  9  1  0
  9 10  1  0
  9 11  1  0
  9 12  1  0
 12 13  2  0
 13 14  1  0
 13 15  1  0
 15 16  1  0
 16 17  1  0
 17 18  2  0
 18 19  1  0
 18 20  1  0
 20 21  1  0
 21 22  1  0
 21 23  1  0
 21 24  1  0
 20 25  2  0
 25 26  1  0
 25 27  1  0
 27 28  1  0
 28 29  1  0
 28 30  1  0
 28 31  1  0
 27 32  2  0
 32 33  1  0
 16 34  2  0
 34 35  1  0
 34 12  1  0
 32 17  1  0
M  CHG  2   3   1  26  -1
M  END
>  <UniqueID>  (35) 
33

>  <SMILES>  (35) 
Cc1cc(-c2cc(C/C(N)=[NH+]\O)co2)cc(C)c1[O-]

>  <Energy>  (35) 
57.90633581115654

>  <Genealogy>  (35) 
Cc1cc(-c2cc(CC(N)=[NH+]O)co2)cc(C)c1[O-] (protonated)
Cc1cc(-c2cc(C/C(N)=[NH+]\O)co2)cc(C)c1[O-] (cis-trans isomerization)
Cc1cc(-c2cc(C/C(N)=[NH+]\O)co2)cc(C)c1[O-] (3D coordinates assigned)
Cc1cc(-c2cc(C/C(N)=[NH+]\O)co2)cc(C)c1[O-] (optimized conformer: 57.90633581115654 kcal/mol)

>  <smiles>  (35) 
Cc1cc(-c2cc(CC(N)=NO)co2)cc(C)c1O

>  <score_type>  (35) 
oracle

>  <origin>  (35) 
adgpu

>  <m_score__min__energy>  (35) 
-9.7300000000000004

>  <m_primary>  (35) 
energy

$$$$
35:0
     RDKit          3D

 33 35  0  0  0  0  0  0  0  0999 V2000
   -1.6260   26.0540  -29.7180 H   0  0  0  0  0  0  0  0  0  0  0  0
   -0.9590   26.5430  -29.1310 O   0  0  0  0  0  0  0  0  0  0  0  0
   -0.9290   26.3590  -27.7490 C   0  0  0  0  0  0  0  0  0  0  0  0
   -0.0750   27.1490  -26.9640 C   0  0  0  0  0  0  0  0  0  0  0  0
    0.5917   27.8787  -27.4468 H   0  0  0  0  0  0  0  0  0  0  0  0
   -0.0660   27.0150  -25.5750 C   0  0  0  0  0  0  0  0  0  0  0  0
    0.6077   27.6367  -24.9671 H   0  0  0  0  0  0  0  0  0  0  0  0
   -0.9110   26.0930  -24.9570 C   0  0  0  0  0  0  0  0  0  0  0  0
   -0.9076   25.9937  -23.8615 H   0  0  0  0  0  0  0  0  0  0  0  0
   -1.7610   25.2960  -25.7260 C   0  0  0  0  0  0  0  0  0  0  0  0
   -2.4289   24.5757  -25.2309 H   0  0  0  0  0  0  0  0  0  0  0  0
   -1.7710   25.4060  -27.1300 C   0  0  0  0  0  0  0  0  0  0  0  0
   -2.6800   24.5340  -27.9110 C   0  0  0  0  0  0  0  0  0  0  0  0
   -3.0670   24.8670  -29.1750 N   0  0  0  0  0  0  0  0  0  0  0  0
   -3.9220   23.9650  -29.6990 C   0  0  0  0  0  0  0  0  0  0  0  0
   -4.3760   24.0690  -30.9130 N   0  0  0  0  0  0  0  0  0  0  0  0
   -5.3180   23.1920  -31.5500 C   0  0  0  0  0  0  0  0  0  0  0  0
   -6.6830   23.4890  -31.4650 C   0  0  0  0  0  0  0  0  0  0  0  0
   -7.0138   24.3947  -30.9357 H   0  0  0  0  0  0  0  0  0  0  0  0
   -7.6280   22.6410  -32.0490 C   0  0  0  0  0  0  0  0  0  0  0  0
   -8.6975   22.8927  -31.9965 H   0  0  0  0  0  0  0  0  0  0  0  0
   -7.2180   21.4750  -32.6990 C   0  0  0  0  0  0  0  0  0  0  0  0
   -7.9634   20.8217  -33.1760 H   0  0  0  0  0  0  0  0  0  0  0  0
   -5.8580   21.1350  -32.7450 C   0  0  0  0  0  0  0  0  0  0  0  0
   -5.4140   19.8900  -33.4540 C   0  0  0  0  0  0  0  0  0  0  0  0
   -5.1408   19.1239  -32.7134 H   0  0  0  0  0  0  0  0  0  0  0  0
   -6.2338   19.5148  -34.0843 H   0  0  0  0  0  0  0  0  0  0  0  0
   -4.5418   20.1182  -34.0843 H   0  0  0  0  0  0  0  0  0  0  0  0
   -4.9090   21.9980  -32.1740 C   0  0  0  0  0  0  0  0  0  0  0  0
   -3.8405   21.7399  -32.2144 H   0  0  0  0  0  0  0  0  0  0  0  0
   -4.2290   22.7050  -28.6210 S   0  0  0  0  0  0  0  0  0  0  0  0
   -3.2410   23.3500  -27.4230 C   0  0  0  0  0  0  0  0  0  0  0  0
   -3.0663   22.9156  -26.4276 H   0  0  0  0  0  0  0  0  0  0  0  0
  1  2  1  0
  2  3  1  0
  3  4  2  0
  4  5  1  0
  4  6  1  0
  6  7  1  0
  6  8  2  0
  8  9  1  0
  8 10  1  0
 10 11  1  0
 10 12  2  0
 12 13  1  0
 13 14  1  0
 14 15  1  0
 15 16  2  0
 16 17  1  0
 17 18  2  0
 18 19  1  0
 18 20  1  0
 20 21  1  0
 20 22  2  0
 22 23  1  0
 22 24  1  0
 24 25  1  0
 25 26  1  0
 25 27  1  0
 25 28  1  0
 24 29  2  0
 29 30  1  0
 15 31  1  0
 31 32  1  0
 32 33  1  0
 12  3  1  0
 32 13  2  0
 29 17  1  0
M  CHG  1  14  -1
M  END
>  <UniqueID>  (36) 
34

>  <SMILES>  (36) 
Cc1cccc(/N=c2/[n-]c(-c3ccccc3O)cs2)c1

>  <Energy>  (36) 
76.4905622639777

>  <Genealogy>  (36) 
Cc1cccc(N=c2[n-]c(-c3ccccc3O)cs2)c1 (protonated)
Cc1cccc(/N=c2/[n-]c(-c3ccccc3O)cs2)c1 (cis-trans isomerization)
Cc1cccc(/N=c2/[n-]c(-c3ccccc3O)cs2)c1 (3D coordinates assigned)
Cc1cccc(/N=c2/[n-]c(-c3ccccc3O)cs2)c1 (optimized conformer: 76.4905622639777 kcal/mol)

>  <smiles>  (36) 
Cc1cccc(N=c2[nH]c(-c3ccccc3O)cs2)c1

>  <score_type>  (36) 
oracle

>  <origin>  (36) 
adgpu

>  <m_score__min__energy>  (36) 
-9.6699999999999999

>  <m_primary>  (36) 
energy

$$$$
36:0
     RDKit          3D

 44 47  0  0  0  0  0  0  0  0999 V2000
   -1.1840   29.5720  -25.1570 C   0  0  0  0  0  0  0  0  0  0  0  0
    0.0890   29.1320  -24.5960 N   0  0  0  0  0  0  0  0  0  0  0  0
   -0.0140   27.4560  -24.1530 S   0  0  0  0  0  0  0  0  0  0  0  0
   -1.0010   27.3020  -23.0310 O   0  0  0  0  0  0  0  0  0  0  0  0
    1.3270   26.9690  -23.6770 O   0  0  0  0  0  0  0  0  0  0  0  0
   -0.5550   26.4980  -25.5290 C   0  0  0  0  0  0  0  0  0  0  0  0
   -1.2700   25.3120  -25.3130 C   0  0  0  0  0  0  0  0  0  0  0  0
   -1.7180   24.5540  -26.3980 C   0  0  0  0  0  0  0  0  0  0  0  0
   -1.4610   24.9780  -27.7090 C   0  0  0  0  0  0  0  0  0  0  0  0
   -2.0230   24.0010  -29.0630 S   0  0  0  0  0  0  0  0  0  0  0  0
   -2.6850   22.7390  -28.5860 O   0  0  0  0  0  0  0  0  0  0  0  0
   -0.8420   23.6370  -29.9190 O   0  0  0  0  0  0  0  0  0  0  0  0
   -3.1470   24.9200  -30.0090 N   0  0  0  0  0  0  0  0  0  0  0  0
   -4.4840   24.5140  -30.3260 C   0  0  0  0  0  0  0  0  0  0  0  0
   -5.5920   25.3510  -30.1020 C   0  0  0  0  0  0  0  0  0  0  0  0
   -6.8770   24.9210  -30.4410 C   0  0  0  0  0  0  0  0  0  0  0  0
   -7.0680   23.6570  -31.0060 C   0  0  0  0  0  0  0  0  0  0  0  0
   -5.9720   22.8100  -31.2370 C   0  0  0  0  0  0  0  0  0  0  0  0
   -6.1640   21.4800  -31.8530 C   0  0  0  0  0  0  0  0  0  0  0  0
   -7.0880   20.5760  -31.4180 N   0  0  0  0  0  0  0  0  0  0  0  0
   -6.8930   19.5610  -32.2730 C   0  0  0  0  0  0  0  0  0  0  0  0
   -7.5650   18.3840  -32.3010 N   0  0  0  0  0  0  0  0  0  0  0  0
   -7.2340   17.4610  -33.2560 C   0  0  0  0  0  0  0  0  0  0  0  0
   -6.2090   17.7330  -34.1950 C   0  0  0  0  0  0  0  0  0  0  0  0
   -5.5260   18.9630  -34.1480 C   0  0  0  0  0  0  0  0  0  0  0  0
   -5.9090   19.8580  -33.1580 C   0  0  0  0  0  0  0  0  0  0  0  0
   -5.4580   21.0530  -32.8920 O   0  0  0  0  0  0  0  0  0  0  0  0
   -4.6850   23.2450  -30.8860 C   0  0  0  0  0  0  0  0  0  0  0  0
   -0.7530   26.1670  -27.9260 C   0  0  0  0  0  0  0  0  0  0  0  0
   -0.3020   26.9240  -26.8400 C   0  0  0  0  0  0  0  0  0  0  0  0
   -1.8808   29.8128  -24.3406 H   0  0  0  0  0  0  0  0  0  0  0  0
   -1.0221   30.4663  -25.7767 H   0  0  0  0  0  0  0  0  0  0  0  0
   -1.6089   28.7686  -25.7767 H   0  0  0  0  0  0  0  0  0  0  0  0
   -1.4791   24.9769  -24.2863 H   0  0  0  0  0  0  0  0  0  0  0  0
   -2.2743   23.6214  -26.2227 H   0  0  0  0  0  0  0  0  0  0  0  0
   -5.4461   26.3470  -29.6586 H   0  0  0  0  0  0  0  0  0  0  0  0
   -7.7406   25.5787  -30.2629 H   0  0  0  0  0  0  0  0  0  0  0  0
   -8.0823   23.3239  -31.2711 H   0  0  0  0  0  0  0  0  0  0  0  0
   -7.7683   16.5003  -33.2946 H   0  0  0  0  0  0  0  0  0  0  0  0
   -5.9476   16.9855  -34.9585 H   0  0  0  0  0  0  0  0  0  0  0  0
   -4.7255   19.2041  -34.8629 H   0  0  0  0  0  0  0  0  0  0  0  0
   -3.8232   22.5819  -31.0524 H   0  0  0  0  0  0  0  0  0  0  0  0
   -0.5513   26.5060  -28.9528 H   0  0  0  0  0  0  0  0  0  0  0  0
    0.2533   27.8572  -27.0154 H   0  0  0  0  0  0  0  0  0  0  0  0
  1  2  1  0
  2  3  1  0
  3  4  2  0
  3  5  2  0
  3  6  1  0
  6  7  2  0
  7  8  1  0
  8  9  2  0
  9 10  1  0
 10 11  2  0
 10 12  2  0
 10 13  1  0
 13 14  1  0
 14 15  2  0
 15 16  1  0
 16 17  2  0
 17 18  1  0
 18 19  1  0
 19 20  2  0
 20 21  1  0
 21 22  2  0
 22 23  1  0
 23 24  2  0
 24 25  1  0
 25 26  2  0
 26 27  1  0
 18 28  2  0
  9 29  1  0
 29 30  2  0
 30  6  1  0
 28 14  1  0
 27 19  1  0
 26 21  1  0
  1 31  1  0
  1 32  1  0
  1 33  1  0
  7 34  1  0
  8 35  1  0
 15 36  1  0
 16 37  1  0
 17 38  1  0
 23 39  1  0
 24 40  1  0
 25 41  1  0
 28 42  1  0
 29 43  1  0
 30 44  1  0
M  CHG  2   2  -1  13  -1
M  END
>  <UniqueID>  (37) 
35

>  <SMILES>  (37) 
C[N-]S(=O)(=O)c1ccc(S(=O)(=O)[N-]c2cccc(-c3nc4ncccc4o3)c2)cc1

>  <Energy>  (37) 
89.92880947302345

>  <Genealogy>  (37) 
C[N-]S(=O)(=O)c1ccc(S(=O)(=O)[N-]c2cccc(-c3nc4ncccc4o3)c2)cc1 (protonated)
C[N-]S(=O)(=O)c1ccc(S(=O)(=O)[N-]c2cccc(-c3nc4ncccc4o3)c2)cc1 (3D coordinates assigned)
C[N-]S(=O)(=O)c1ccc(S(=O)(=O)[N-]c2cccc(-c3nc4ncccc4o3)c2)cc1 (optimized conformer: 89.92880947302345 kcal/mol)

>  <smiles>  (37) 
CNS(=O)(=O)c1ccc(S(=O)(=O)Nc2cccc(-c3nc4ncccc4o3)c2)cc1

>  <score_type>  (37) 
oracle

>  <origin>  (37) 
adgpu

>  <m_score__min__energy>  (37) 
-10.82

>  <m_primary>  (37) 
energy

$$$$
37:0
     RDKit          3D

 62 65  0  0  0  0  0  0  0  0999 V2000
   -2.4330   21.5820  -31.0680 C   0  0  0  0  0  0  0  0  0  0  0  0
   -3.8280   21.5280  -31.6290 C   0  0  0  0  0  0  0  0  0  0  0  0
   -4.8970   22.3050  -31.2280 C   0  0  0  0  0  0  0  0  0  0  0  0
   -4.9390   23.3720  -30.2720 N   0  0  0  0  0  0  0  0  0  0  0  0
   -3.9060   24.3450  -30.0710 C   0  0  0  0  0  0  0  0  0  0  0  0
   -3.8500   25.3650  -30.8110 O   0  0  0  0  0  0  0  0  0  0  0  0
   -2.9320   24.1760  -28.9680 C   0  0  0  0  0  0  0  0  0  0  0  0
   -1.7070   24.8680  -28.9840 C   0  0  0  0  0  0  0  0  0  0  0  0
   -0.7820   24.6980  -27.9500 C   0  0  0  0  0  0  0  0  0  0  0  0
   -1.0660   23.8390  -26.8820 C   0  0  0  0  0  0  0  0  0  0  0  0
    0.1010   23.6210  -25.5740 S   0  0  0  0  0  0  0  0  0  0  0  0
    1.4690   23.4330  -26.1680 O   0  0  0  0  0  0  0  0  0  0  0  0
   -0.2470   22.3790  -24.8010 O   0  0  0  0  0  0  0  0  0  0  0  0
    0.1250   24.9900  -24.4890 N   0  0  0  0  0  0  0  0  0  0  0  0
   -1.1180   25.7770  -24.6140 C   0  0  0  0  0  0  0  0  0  0  0  0
   -0.9800   27.1560  -23.9370 C   0  0  0  0  0  0  0  0  0  0  0  0
    0.1170   27.1750  -23.0460 O   0  0  0  0  0  0  0  0  0  0  0  0
    1.3290   27.0350  -23.7690 C   0  0  0  0  0  0  0  0  0  0  0  0
    1.3040   25.8350  -24.7440 C   0  0  0  0  0  0  0  0  0  0  0  0
   -2.2870   23.1540  -26.8540 C   0  0  0  0  0  0  0  0  0  0  0  0
   -3.2110   23.3160  -27.8900 C   0  0  0  0  0  0  0  0  0  0  0  0
   -5.9630   21.8340  -31.9390 C   0  0  0  0  0  0  0  0  0  0  0  0
   -7.1260   22.3200  -31.8880 O   0  0  0  0  0  0  0  0  0  0  0  0
   -5.5840   20.8140  -32.7490 N   0  0  0  0  0  0  0  0  0  0  0  0
   -6.5660   20.0790  -33.6110 C   0  0  0  0  0  0  0  0  0  0  0  0
   -6.1020   18.7650  -34.2880 C   0  0  0  0  0  0  0  0  0  0  0  0
   -6.2590   17.4960  -33.4070 C   0  0  0  0  0  0  0  0  0  0  0  0
   -6.4660   17.8020  -31.9150 C   0  0  0  0  0  0  0  0  0  0  0  0
   -7.6230   18.7860  -31.6640 C   0  0  0  0  0  0  0  0  0  0  0  0
   -7.8640   19.7600  -32.8290 C   0  0  0  0  0  0  0  0  0  0  0  0
   -4.2570   20.6610  -32.5900 N   0  0  0  0  0  0  0  0  0  0  0  0
   -3.3330   19.9350  -33.4730 C   0  0  0  0  0  0  0  0  0  0  0  0
   -2.4794   21.5802  -29.9690 H   0  0  0  0  0  0  0  0  0  0  0  0
   -1.8651   20.7052  -31.4124 H   0  0  0  0  0  0  0  0  0  0  0  0
   -1.9346   22.5001  -31.4124 H   0  0  0  0  0  0  0  0  0  0  0  0
   -1.4754   25.5482  -29.8169 H   0  0  0  0  0  0  0  0  0  0  0  0
    0.1738   25.2419  -27.9757 H   0  0  0  0  0  0  0  0  0  0  0  0
    0.1890   24.6090  -23.5160 H   0  0  0  0  0  0  0  0  0  0  0  0
   -1.3439   25.9227  -25.6807 H   0  0  0  0  0  0  0  0  0  0  0  0
   -1.9290   25.2257  -24.1157 H   0  0  0  0  0  0  0  0  0  0  0  0
   -0.8284   27.9231  -24.7107 H   0  0  0  0  0  0  0  0  0  0  0  0
   -1.8983   27.3601  -23.3669 H   0  0  0  0  0  0  0  0  0  0  0  0
    1.5030   27.9548  -24.3466 H   0  0  0  0  0  0  0  0  0  0  0  0
    2.1332   26.8557  -23.0402 H   0  0  0  0  0  0  0  0  0  0  0  0
    1.2651   26.2088  -25.7778 H   0  0  0  0  0  0  0  0  0  0  0  0
    2.2128   25.2340  -24.5930 H   0  0  0  0  0  0  0  0  0  0  0  0
   -2.5201   22.4851  -26.0124 H   0  0  0  0  0  0  0  0  0  0  0  0
   -4.1637   22.7669  -27.8624 H   0  0  0  0  0  0  0  0  0  0  0  0
   -6.7143   20.7977  -34.4305 H   0  0  0  0  0  0  0  0  0  0  0  0
   -6.6943   18.6227  -35.2039 H   0  0  0  0  0  0  0  0  0  0  0  0
   -5.0256   18.8778  -34.4848 H   0  0  0  0  0  0  0  0  0  0  0  0
   -7.1283   16.9273  -33.7688 H   0  0  0  0  0  0  0  0  0  0  0  0
   -5.3211   16.9275  -33.4917 H   0  0  0  0  0  0  0  0  0  0  0  0
   -6.6849   16.8605  -31.3900 H   0  0  0  0  0  0  0  0  0  0  0  0
   -5.5441   18.2718  -31.5417 H   0  0  0  0  0  0  0  0  0  0  0  0
   -8.5432   18.2064  -31.4988 H   0  0  0  0  0  0  0  0  0  0  0  0
   -7.3481   19.3916  -30.7878 H   0  0  0  0  0  0  0  0  0  0  0  0
   -8.5914   19.3101  -33.5207 H   0  0  0  0  0  0  0  0  0  0  0  0
   -8.2400   20.7028  -32.4051 H   0  0  0  0  0  0  0  0  0  0  0  0
   -2.6126   19.3690  -32.8642 H   0  0  0  0  0  0  0  0  0  0  0  0
   -3.9023   19.2401  -34.1078 H   0  0  0  0  0  0  0  0  0  0  0  0
   -2.7926   20.6526  -34.1078 H   0  0  0  0  0  0  0  0  0  0  0  0
  1  2  1  0
  2  3  2  0
  3  4  1  0
  4  5  1  0
  5  6  2  0
  5  7  1  0
  7  8  2  0
  8  9  1  0
  9 10  2  0
 10 11  1  0
 11 12  2  0
 11 13  2  0
 11 14  1  0
 14 15  1  0
 15 16  1  0
 16 17  1  0
 17 18  1  0
 18 19  1  0
 10 20  1  0
 20 21  2  0
  3 22  1  0
 22 23  2  0
 22 24  1  0
 24 25  1  0
 25 26  1  0
 26 27  1  0
 27 28  1  0
 28 29  1  0
 29 30  1  0
 24 31  1  0
 31 32  1  0
 31  2  1  0
 21  7  1  0
 30 25  1  0
 19 14  1  0
  1 33  1  0
  1 34  1  0
  1 35  1  0
  8 36  1  0
  9 37  1  0
 14 38  1  0
 15 39  1  0
 15 40  1  0
 16 41  1  0
 16 42  1  0
 18 43  1  0
 18 44  1  0
 19 45  1  0
 19 46  1  0
 20 47  1  0
 21 48  1  0
 25 49  1  0
 26 50  1  0
 26 51  1  0
 27 52  1  0
 27 53  1  0
 28 54  1  0
 28 55  1  0
 29 56  1  0
 29 57  1  0
 30 58  1  0
 30 59  1  0
 32 60  1  0
 32 61  1  0
 32 62  1  0
M  CHG  2   4  -1  14   1
M  END
>  <UniqueID>  (38) 
36

>  <SMILES>  (38) 
Cc1c([N-]C(=O)c2ccc(S(=O)(=O)[NH+]3CCOCC3)cc2)c(=O)n(C2CCCCC2)n1C

>  <Energy>  (38) 
132.21425021024584

>  <Genealogy>  (38) 
Cc1c([N-]C(=O)c2ccc(S(=O)(=O)[NH+]3CCOCC3)cc2)c(=O)n(C2CCCCC2)n1C (protonated)
Cc1c([N-]C(=O)c2ccc(S(=O)(=O)[NH+]3CCOCC3)cc2)c(=O)n(C2CCCCC2)n1C (3D coordinates assigned)
Cc1c([N-]C(=O)c2ccc(S(=O)(=O)[NH+]3CCOCC3)cc2)c(=O)n(C2CCCCC2)n1C (nonaromatic ring conformer: 132.21425021024584 kcal/mol)

>  <smiles>  (38) 
Cc1c(NC(=O)c2ccc(S(=O)(=O)N3CCOCC3)cc2)c(=O)n(C2CCCCC2)n1C

>  <score_type>  (38) 
oracle

>  <origin>  (38) 
adgpu

>  <m_score__min__energy>  (38) 
-12.24

>  <m_primary>  (38) 
energy

$$$$
38:0
     RDKit          3D

 37 40  0  0  0  0  0  0  0  0999 V2000
   -9.2260   17.7910  -31.8300 O   0  0  0  0  0  0  0  0  0  0  0  0
   -8.1990   18.4000  -32.2380 C   0  0  0  0  0  0  0  0  0  0  0  0
   -7.1980   17.6940  -32.9060 C   0  0  0  0  0  0  0  0  0  0  0  0
   -6.0670   18.3790  -33.3530 C   0  0  0  0  0  0  0  0  0  0  0  0
   -5.9450   19.6870  -33.1490 O   0  0  0  0  0  0  0  0  0  0  0  0
   -6.8730   20.4030  -32.5190 C   0  0  0  0  0  0  0  0  0  0  0  0
   -6.6820   21.7770  -32.3340 C   0  0  0  0  0  0  0  0  0  0  0  0
   -7.6440   22.5480  -31.6720 C   0  0  0  0  0  0  0  0  0  0  0  0
   -7.3950   23.9220  -31.5140 O   0  0  0  0  0  0  0  0  0  0  0  0
   -7.0680   24.5630  -30.2820 C   0  0  0  0  0  0  0  0  0  0  0  0
   -5.5880   24.5720  -30.0700 C   0  0  0  0  0  0  0  0  0  0  0  0
   -4.9250   24.5110  -28.8650 C   0  0  0  0  0  0  0  0  0  0  0  0
   -3.6100   24.5670  -29.1550 N   0  0  0  0  0  0  0  0  0  0  0  0
   -2.4950   24.5360  -28.2380 C   0  0  0  0  0  0  0  0  0  0  0  0
   -2.6880   24.8800  -26.8860 C   0  0  0  0  0  0  0  0  0  0  0  0
   -1.6180   24.8560  -25.9870 C   0  0  0  0  0  0  0  0  0  0  0  0
   -0.3430   24.4930  -26.4240 C   0  0  0  0  0  0  0  0  0  0  0  0
   -0.1350   24.1530  -27.7640 C   0  0  0  0  0  0  0  0  0  0  0  0
    1.1040   23.8030  -28.1870 F   0  0  0  0  0  0  0  0  0  0  0  0
   -1.2020   24.1740  -28.6670 C   0  0  0  0  0  0  0  0  0  0  0  0
   -3.4860   24.6670  -30.4710 N   0  0  0  0  0  0  0  0  0  0  0  0
   -4.6750   24.6740  -31.0550 N   0  0  0  0  0  0  0  0  0  0  0  0
   -8.8160   21.9280  -31.1950 C   0  0  0  0  0  0  0  0  0  0  0  0
   -9.0140   20.5560  -31.3730 C   0  0  0  0  0  0  0  0  0  0  0  0
   -8.0460   19.7820  -32.0350 C   0  0  0  0  0  0  0  0  0  0  0  0
   -7.2988   16.6122  -33.0780 H   0  0  0  0  0  0  0  0  0  0  0  0
   -5.2702   17.8321  -33.8783 H   0  0  0  0  0  0  0  0  0  0  0  0
   -5.7668   22.2555  -32.7127 H   0  0  0  0  0  0  0  0  0  0  0  0
   -7.4362   25.5993  -30.3048 H   0  0  0  0  0  0  0  0  0  0  0  0
   -7.5409   24.0091  -29.4576 H   0  0  0  0  0  0  0  0  0  0  0  0
   -5.3778   24.4323  -27.8656 H   0  0  0  0  0  0  0  0  0  0  0  0
   -3.6892   25.1700  -26.5346 H   0  0  0  0  0  0  0  0  0  0  0  0
   -1.7811   25.1238  -24.9326 H   0  0  0  0  0  0  0  0  0  0  0  0
    0.4975   24.4745  -25.7146 H   0  0  0  0  0  0  0  0  0  0  0  0
   -1.0313   23.9060  -29.7201 H   0  0  0  0  0  0  0  0  0  0  0  0
   -9.5802   22.5279  -30.6791 H   0  0  0  0  0  0  0  0  0  0  0  0
   -9.9305   20.0806  -30.9936 H   0  0  0  0  0  0  0  0  0  0  0  0
  1  2  2  0
  2  3  1  0
  3  4  2  0
  4  5  1  0
  5  6  1  0
  6  7  2  0
  7  8  1  0
  8  9  1  0
  9 10  1  0
 10 11  1  0
 11 12  2  0
 12 13  1  0
 13 14  1  0
 14 15  2  0
 15 16  1  0
 16 17  2  0
 17 18  1  0
 18 19  1  0
 18 20  2  0
 13 21  1  0
 21 22  2  0
  8 23  2  0
 23 24  1  0
 24 25  2  0
 25  2  1  0
 25  6  1  0
 22 11  1  0
 20 14  1  0
  3 26  1  0
  4 27  1  0
  7 28  1  0
 10 29  1  0
 10 30  1  0
 12 31  1  0
 15 32  1  0
 16 33  1  0
 17 34  1  0
 20 35  1  0
 23 36  1  0
 24 37  1  0
M  END
>  <UniqueID>  (39) 
37

>  <SMILES>  (39) 
O=c1ccoc2cc(OCc3cn(-c4cccc(F)c4)nn3)ccc12

>  <Energy>  (39) 
83.77790548596714

>  <Genealogy>  (39) 
O=c1ccoc2cc(OCc3cn(-c4cccc(F)c4)nn3)ccc12 (3D coordinates assigned)
O=c1ccoc2cc(OCc3cn(-c4cccc(F)c4)nn3)ccc12 (optimized conformer: 83.77790548596714 kcal/mol)

>  <smiles>  (39) 
O=c1ccoc2cc(OCc3cn(-c4cccc(F)c4)nn3)ccc12

>  <score_type>  (39) 
oracle

>  <origin>  (39) 
adgpu

>  <m_score__min__energy>  (39) 
-8.9900000000000002

>  <m_primary>  (39) 
energy

$$$$
39:0
     RDKit          3D

 52 56  0  0  0  0  0  0  0  0999 V2000
    0.6838   22.8385  -25.6303 H   0  0  0  0  0  0  0  0  0  0  0  0
    0.0470   23.2870  -26.4070 C   0  0  0  0  0  0  0  0  0  0  0  0
   -1.1690   23.7950  -26.0770 N   0  0  0  0  0  0  0  0  0  0  0  0
   -1.9630   24.3700  -27.0180 C   0  0  0  0  0  0  0  0  0  0  0  0
   -2.9540   24.7575  -26.7392 H   0  0  0  0  0  0  0  0  0  0  0  0
   -1.5210   24.4690  -28.3390 C   0  0  0  0  0  0  0  0  0  0  0  0
   -2.3820   25.0190  -29.3440 N   0  0  0  0  0  0  0  0  0  0  0  0
   -3.4730   24.5340  -29.8770 C   0  0  0  0  0  0  0  0  0  0  0  0
   -4.2210   25.3830  -30.6290 N   0  0  0  0  0  0  0  0  0  0  0  0
   -5.4150   25.0320  -31.1670 C   0  0  0  0  0  0  0  0  0  0  0  0
   -5.9860   25.7545  -31.7686 H   0  0  0  0  0  0  0  0  0  0  0  0
   -5.9160   23.7400  -30.9500 C   0  0  0  0  0  0  0  0  0  0  0  0
   -7.2450   23.2390  -31.4730 C   0  0  0  0  0  0  0  0  0  0  0  0
   -7.5270   24.2229  -31.8760 H   0  0  0  0  0  0  0  0  0  0  0  0
   -7.2960   21.8070  -31.9890 C   0  0  0  0  0  0  0  0  0  0  0  0
   -7.9157   21.5591  -32.8634 H   0  0  0  0  0  0  0  0  0  0  0  0
   -6.5467   21.0689  -32.3109 H   0  0  0  0  0  0  0  0  0  0  0  0
   -7.9570   22.1640  -30.6630 C   0  0  0  0  0  0  0  0  0  0  0  0
   -9.0538   22.1737  -30.5802 H   0  0  0  0  0  0  0  0  0  0  0  0
   -7.8825   21.7902  -29.6311 H   0  0  0  0  0  0  0  0  0  0  0  0
   -5.1490   22.8680  -30.2500 N   0  0  0  0  0  0  0  0  0  0  0  0
   -3.9420   23.1970  -29.7130 C   0  0  0  0  0  0  0  0  0  0  0  0
   -3.1510   22.0840  -29.1450 C   0  0  0  0  0  0  0  0  0  0  0  0
   -3.3870   21.6930  -27.9720 O   0  0  0  0  0  0  0  0  0  0  0  0
   -2.0000   21.5560  -29.8200 N   0  0  0  0  0  0  0  0  0  0  0  0
   -1.1420   20.4850  -29.3910 C   0  0  0  0  0  0  0  0  0  0  0  0
   -0.8220   20.2930  -28.0360 C   0  0  0  0  0  0  0  0  0  0  0  0
   -1.2741   20.9403  -27.2701 H   0  0  0  0  0  0  0  0  0  0  0  0
    0.0430   19.3120  -27.6670 N   0  0  0  0  0  0  0  0  0  0  0  0
    0.6310   18.4970  -28.5800 C   0  0  0  0  0  0  0  0  0  0  0  0
    1.3216   17.7077  -28.2481 H   0  0  0  0  0  0  0  0  0  0  0  0
    0.3600   18.6600  -29.9380 C   0  0  0  0  0  0  0  0  0  0  0  0
    0.8429   18.0071  -30.6800 H   0  0  0  0  0  0  0  0  0  0  0  0
   -0.5300   19.6590  -30.3530 C   0  0  0  0  0  0  0  0  0  0  0  0
   -0.8300   19.8030  -31.7520 N   0  0  0  0  0  0  0  0  0  0  0  0
    0.1240   20.4800  -32.6410 C   0  0  0  0  0  0  0  0  0  0  0  0
    0.5580   21.3437  -32.1160 H   0  0  0  0  0  0  0  0  0  0  0  0
    0.9158   19.7695  -32.9207 H   0  0  0  0  0  0  0  0  0  0  0  0
   -0.5790   20.9640  -33.9120 C   0  0  0  0  0  0  0  0  0  0  0  0
    0.0330   21.7372  -34.3995 H   0  0  0  0  0  0  0  0  0  0  0  0
   -0.7155   20.1197  -34.6038 H   0  0  0  0  0  0  0  0  0  0  0  0
   -1.8850   21.5250  -33.5550 N   0  0  0  0  0  0  0  0  0  0  0  0
   -2.2990   21.9610  -34.4120 H   0  0  0  0  0  0  0  0  0  0  0  0
   -2.8180   20.4890  -33.0680 C   0  0  0  0  0  0  0  0  0  0  0  0
   -3.5580   20.9681  -32.4100 H   0  0  0  0  0  0  0  0  0  0  0  0
   -3.2829   20.0298  -33.9529 H   0  0  0  0  0  0  0  0  0  0  0  0
   -2.1230   19.3570  -32.2800 C   0  0  0  0  0  0  0  0  0  0  0  0
   -2.7681   19.0528  -31.4426 H   0  0  0  0  0  0  0  0  0  0  0  0
   -1.9509   18.5101  -32.9606 H   0  0  0  0  0  0  0  0  0  0  0  0
   -0.2830   23.9000  -28.6650 C   0  0  0  0  0  0  0  0  0  0  0  0
    0.0720   23.9135  -29.7060 H   0  0  0  0  0  0  0  0  0  0  0  0
    0.4780   23.3320  -27.6950 N   0  0  0  0  0  0  0  0  0  0  0  0
  1  2  1  0
  2  3  2  0
  3  4  1  0
  4  5  1  0
  4  6  2  0
  6  7  1  0
  7  8  2  0
  8  9  1  0
  9 10  1  0
 10 11  1  0
 10 12  2  0
 12 13  1  0
 13 14  1  0
 13 15  1  0
 15 16  1  0
 15 17  1  0
 15 18  1  0
 18 19  1  0
 18 20  1  0
 12 21  1  0
 21 22  2  0
 22 23  1  0
 23 24  2  0
 23 25  1  0
 25 26  1  0
 26 27  2  0
 27 28  1  0
 27 29  1  0
 29 30  2  0
 30 31  1  0
 30 32  1  0
 32 33  1  0
 32 34  2  0
 34 35  1  0
 35 36  1  0
 36 37  1  0
 36 38  1  0
 36 39  1  0
 39 40  1  0
 39 41  1  0
 39 42  1  0
 42 43  1  0
 42 44  1  0
 44 45  1  0
 44 46  1  0
 44 47  1  0
 47 48  1  0
 47 49  1  0
  6 50  1  0
 50 51  1  0
 50 52  2  0
 52  2  1  0
 22  8  1  0
 34 26  1  0
 47 35  1  0
 18 13  1  0
M  CHG  2   9  -1  25  -1
M  END
>  <UniqueID>  (40) 
38

>  <SMILES>  (40) 
O=C([N-]c1cnccc1N1CCNCC1)c1nc(C2CC2)c[n-]/c1=N/c1cncnc1

>  <Energy>  (40) 
360.689420948878

>  <Genealogy>  (40) 
O=C([N-]c1cnccc1N1CCNCC1)c1nc(C2CC2)c[n-]c1=Nc1cncnc1 (protonated)
O=C([N-]c1cnccc1N1CCNCC1)c1nc(C2CC2)c[n-]/c1=N/c1cncnc1 (cis-trans isomerization)
O=C([N-]c1cnccc1N1CCNCC1)c1nc(C2CC2)c[n-]/c1=N/c1cncnc1 (3D coordinates assigned)
O=C([N-]c1cnccc1N1CCNCC1)c1nc(C2CC2)c[n-]/c1=N/c1cncnc1 (nonaromatic ring conformer: 360.689420948878 kcal/mol)

>  <smiles>  (40) 
O=C(Nc1cnccc1N1CCNCC1)c1nc(C2CC2)c[nH]c1=Nc1cncnc1

>  <score_type>  (40) 
oracle

>  <origin>  (40) 
adgpu

>  <m_score__min__energy>  (40) 
-10.380000000000001

>  <m_primary>  (40) 
energy

$$$$
40:0
     RDKit          3D

 38 40  0  0  0  0  0  0  0  0999 V2000
   -1.6150   25.8140  -28.9620 N   0  0  0  0  0  0  0  0  0  0  0  0
   -2.0300   24.1350  -28.9990 S   0  0  0  0  0  0  0  0  0  0  0  0
   -2.0910   23.6200  -27.5880 O   0  0  0  0  0  0  0  0  0  0  0  0
   -0.9790   23.3690  -29.7530 O   0  0  0  0  0  0  0  0  0  0  0  0
   -3.5890   23.9270  -29.7940 C   0  0  0  0  0  0  0  0  0  0  0  0
   -4.7350   24.5680  -29.3050 C   0  0  0  0  0  0  0  0  0  0  0  0
   -5.9660   24.3930  -29.9470 C   0  0  0  0  0  0  0  0  0  0  0  0
   -6.0670   23.5830  -31.0840 C   0  0  0  0  0  0  0  0  0  0  0  0
   -7.3460   23.4420  -31.7160 N   0  0  0  0  0  0  0  0  0  0  0  0
   -8.3970   22.0730  -31.5420 S   0  0  0  0  0  0  0  0  0  0  0  0
   -8.8020   21.9450  -30.1000 O   0  0  0  0  0  0  0  0  0  0  0  0
   -9.6260   22.2830  -32.3790 O   0  0  0  0  0  0  0  0  0  0  0  0
   -7.5730   20.6190  -32.0940 C   0  0  0  0  0  0  0  0  0  0  0  0
   -6.5240   20.7220  -33.0160 C   0  0  0  0  0  0  0  0  0  0  0  0
   -5.8450   19.5760  -33.4420 C   0  0  0  0  0  0  0  0  0  0  0  0
   -6.2050   18.3120  -32.9480 C   0  0  0  0  0  0  0  0  0  0  0  0
   -5.4980   17.1340  -33.3750 N   0  0  0  0  0  0  0  0  0  0  0  0
   -5.0480   16.8590  -34.6180 C   0  0  0  0  0  0  0  0  0  0  0  0
   -5.2220   17.6920  -35.7160 O   0  0  0  0  0  0  0  0  0  0  0  0
   -4.4240   15.6280  -34.6590 C   0  0  0  0  0  0  0  0  0  0  0  0
   -4.4930   15.1190  -33.3760 C   0  0  0  0  0  0  0  0  0  0  0  0
   -5.1560   16.0680  -32.6220 C   0  0  0  0  0  0  0  0  0  0  0  0
   -5.4160   15.9550  -31.2610 O   0  0  0  0  0  0  0  0  0  0  0  0
   -7.2620   18.2130  -32.0270 C   0  0  0  0  0  0  0  0  0  0  0  0
   -7.9440   19.3590  -31.6050 C   0  0  0  0  0  0  0  0  0  0  0  0
   -4.9170   22.9330  -31.5670 C   0  0  0  0  0  0  0  0  0  0  0  0
   -3.6880   23.1040  -30.9230 C   0  0  0  0  0  0  0  0  0  0  0  0
   -1.2400   26.0570  -29.9060 H   0  0  0  0  0  0  0  0  0  0  0  0
   -4.6668   25.2102  -28.4145 H   0  0  0  0  0  0  0  0  0  0  0  0
   -6.8620   24.8963  -29.5547 H   0  0  0  0  0  0  0  0  0  0  0  0
   -6.2329   21.7082  -33.4067 H   0  0  0  0  0  0  0  0  0  0  0  0
   -5.0239   19.6654  -34.1685 H   0  0  0  0  0  0  0  0  0  0  0  0
   -3.9645   15.1489  -35.5361 H   0  0  0  0  0  0  0  0  0  0  0  0
   -4.0995   14.1533  -33.0259 H   0  0  0  0  0  0  0  0  0  0  0  0
   -7.5549   17.2277  -31.6354 H   0  0  0  0  0  0  0  0  0  0  0  0
   -8.7734   19.2711  -30.8877 H   0  0  0  0  0  0  0  0  0  0  0  0
   -4.9849   22.2875  -32.4551 H   0  0  0  0  0  0  0  0  0  0  0  0
   -2.7940   22.5894  -31.3050 H   0  0  0  0  0  0  0  0  0  0  0  0
  1  2  1  0
  2  3  2  0
  2  4  2  0
  2  5  1  0
  5  6  2  0
  6  7  1  0
  7  8  2  0
  8  9  1  0
  9 10  1  0
 10 11  2  0
 10 12  2  0
 10 13  1  0
 13 14  2  0
 14 15  1  0
 15 16  2  0
 16 17  1  0
 17 18  1  0
 18 19  1  0
 18 20  2  0
 20 21  1  0
 21 22  2  0
 22 23  1  0
 16 24  1  0
 24 25  2  0
  8 26  1  0
 26 27  2  0
 27  5  1  0
 25 13  1  0
 22 17  1  0
  1 28  1  0
  6 29  1  0
  7 30  1  0
 14 31  1  0
 15 32  1  0
 20 33  1  0
 21 34  1  0
 24 35  1  0
 25 36  1  0
 26 37  1  0
 27 38  1  0
M  CHG  4   1  -1   9  -1  19  -1  23  -1
M  END
>  <UniqueID>  (41) 
39

>  <SMILES>  (41) 
[NH-]S(=O)(=O)c1ccc([N-]S(=O)(=O)c2ccc(-n3c([O-])ccc3[O-])cc2)cc1

>  <Energy>  (41) 
76.97522805432631

>  <Genealogy>  (41) 
[NH-]S(=O)(=O)c1ccc([N-]S(=O)(=O)c2ccc(-n3c([O-])ccc3[O-])cc2)cc1 (protonated)
[NH-]S(=O)(=O)c1ccc([N-]S(=O)(=O)c2ccc(-n3c([O-])ccc3[O-])cc2)cc1 (3D coordinates assigned)
[NH-]S(=O)(=O)c1ccc([N-]S(=O)(=O)c2ccc(-n3c([O-])ccc3[O-])cc2)cc1 (optimized conformer: 76.97522805432631 kcal/mol)

>  <smiles>  (41) 
NS(=O)(=O)c1ccc(NS(=O)(=O)c2ccc(-n3c(O)ccc3O)cc2)cc1

>  <score_type>  (41) 
oracle

>  <origin>  (41) 
adgpu

>  <m_score__min__energy>  (41) 
-11.23

>  <m_primary>  (41) 
energy

$$$$
41:0
     RDKit          3D

 59 62  0  0  0  0  0  0  0  0999 V2000
   -5.8560   26.2040  -30.1390 O   0  0  0  0  0  0  0  0  0  0  0  0
   -5.1650   25.1950  -30.4480 C   0  0  0  0  0  0  0  0  0  0  0  0
   -3.7320   25.2830  -30.4710 N   0  0  0  0  0  0  0  0  0  0  0  0
   -2.8160   24.5190  -29.6760 C   0  0  0  0  0  0  0  0  0  0  0  0
   -1.9330   25.2000  -28.8290 C   0  0  0  0  0  0  0  0  0  0  0  0
   -1.0170   24.4950  -28.0430 C   0  0  0  0  0  0  0  0  0  0  0  0
   -0.9640   23.1010  -28.1130 C   0  0  0  0  0  0  0  0  0  0  0  0
   -1.8270   22.4060  -28.9720 C   0  0  0  0  0  0  0  0  0  0  0  0
   -1.7450   20.6480  -29.0690 S   0  0  0  0  0  0  0  0  0  0  0  0
   -3.0560   20.0790  -28.6020 O   0  0  0  0  0  0  0  0  0  0  0  0
   -0.6410   20.1390  -28.1840 O   0  0  0  0  0  0  0  0  0  0  0  0
   -1.4370   20.1610  -30.7180 N   0  0  0  0  0  0  0  0  0  0  0  0
   -2.6960   20.1080  -31.5060 C   0  0  0  0  0  0  0  0  0  0  0  0
   -2.8430   21.2780  -32.4920 C   0  0  0  0  0  0  0  0  0  0  0  0
   -1.6550   21.3390  -33.4670 C   0  0  0  0  0  0  0  0  0  0  0  0
   -0.3350   20.8670  -32.8280 C   0  0  0  0  0  0  0  0  0  0  0  0
   -0.3770   21.0110  -31.3050 C   0  0  0  0  0  0  0  0  0  0  0  0
   -2.7440   23.1170  -29.7620 C   0  0  0  0  0  0  0  0  0  0  0  0
   -5.8360   23.9330  -30.8410 C   0  0  0  0  0  0  0  0  0  0  0  0
   -6.9240   23.4420  -30.0960 C   0  0  0  0  0  0  0  0  0  0  0  0
   -7.5630   22.2540  -30.4730 C   0  0  0  0  0  0  0  0  0  0  0  0
   -7.1200   21.5360  -31.5900 C   0  0  0  0  0  0  0  0  0  0  0  0
   -7.9210   20.0340  -32.0600 S   0  0  0  0  0  0  0  0  0  0  0  0
   -8.6130   19.4480  -30.8610 O   0  0  0  0  0  0  0  0  0  0  0  0
   -8.9660   20.3370  -33.0980 O   0  0  0  0  0  0  0  0  0  0  0  0
   -6.7920   18.8690  -32.7070 N   0  0  0  0  0  0  0  0  0  0  0  0
   -7.4120   17.5390  -32.7850 C   0  0  0  0  0  0  0  0  0  0  0  0
   -6.4080   16.5210  -33.3650 C   0  0  0  0  0  0  0  0  0  0  0  0
   -5.1990   17.1370  -33.7750 O   0  0  0  0  0  0  0  0  0  0  0  0
   -5.4790   18.1780  -34.6920 C   0  0  0  0  0  0  0  0  0  0  0  0
   -6.3220   19.2900  -34.0370 C   0  0  0  0  0  0  0  0  0  0  0  0
   -6.0360   22.0200  -32.3360 C   0  0  0  0  0  0  0  0  0  0  0  0
   -5.4000   23.2090  -31.9650 C   0  0  0  0  0  0  0  0  0  0  0  0
   -1.9604   26.2986  -28.7818 H   0  0  0  0  0  0  0  0  0  0  0  0
   -0.3379   25.0381  -27.3693 H   0  0  0  0  0  0  0  0  0  0  0  0
   -0.2437   22.5473  -27.4929 H   0  0  0  0  0  0  0  0  0  0  0  0
   -2.7128   19.1669  -32.0752 H   0  0  0  0  0  0  0  0  0  0  0  0
   -3.5309   20.1746  -30.7930 H   0  0  0  0  0  0  0  0  0  0  0  0
   -3.7719   21.1480  -33.0666 H   0  0  0  0  0  0  0  0  0  0  0  0
   -2.8693   22.2155  -31.9172 H   0  0  0  0  0  0  0  0  0  0  0  0
   -1.8765   20.6965  -34.3319 H   0  0  0  0  0  0  0  0  0  0  0  0
   -1.5228   22.3900  -33.7635 H   0  0  0  0  0  0  0  0  0  0  0  0
   -0.1696   19.8102  -33.0844 H   0  0  0  0  0  0  0  0  0  0  0  0
    0.4833   21.4918  -33.2153 H   0  0  0  0  0  0  0  0  0  0  0  0
    0.5959   20.7105  -30.8889 H   0  0  0  0  0  0  0  0  0  0  0  0
   -0.5952   22.0608  -31.0594 H   0  0  0  0  0  0  0  0  0  0  0  0
   -3.4089   22.5755  -30.4510 H   0  0  0  0  0  0  0  0  0  0  0  0
   -7.2749   23.9946  -29.2120 H   0  0  0  0  0  0  0  0  0  0  0  0
   -8.4176   21.8832  -29.8881 H   0  0  0  0  0  0  0  0  0  0  0  0
   -7.7143   17.2185  -31.7771 H   0  0  0  0  0  0  0  0  0  0  0  0
   -8.2936   17.5899  -33.4408 H   0  0  0  0  0  0  0  0  0  0  0  0
   -6.1796   15.7700  -32.5944 H   0  0  0  0  0  0  0  0  0  0  0  0
   -6.8689   16.0582  -34.2501 H   0  0  0  0  0  0  0  0  0  0  0  0
   -4.5306   18.6086  -35.0457 H   0  0  0  0  0  0  0  0  0  0  0  0
   -6.0521   17.7566  -35.5311 H   0  0  0  0  0  0  0  0  0  0  0  0
   -5.7069   20.1960  -33.9329 H   0  0  0  0  0  0  0  0  0  0  0  0
   -7.1956   19.4940  -34.6735 H   0  0  0  0  0  0  0  0  0  0  0  0
   -5.6844   21.4623  -33.2166 H   0  0  0  0  0  0  0  0  0  0  0  0
   -4.5513   23.5812  -32.5576 H   0  0  0  0  0  0  0  0  0  0  0  0
  1  2  2  0
  2  3  1  0
  3  4  1  0
  4  5  2  0
  5  6  1  0
  6  7  2  0
  7  8  1  0
  8  9  1  0
  9 10  2  0
  9 11  2  0
  9 12  1  0
 12 13  1  0
 13 14  1  0
 14 15  1  0
 15 16  1  0
 16 17  1  0
  8 18  2  0
  2 19  1  0
 19 20  2  0
 20 21  1  0
 21 22  2  0
 22 23  1  0
 23 24  2  0
 23 25  2  0
 23 26  1  0
 26 27  1  0
 27 28  1  0
 28 29  1  0
 29 30  1  0
 30 31  1  0
 22 32  1  0
 32 33  2  0
 18  4  1  0
 33 19  1  0
 17 12  1  0
 31 26  1  0
  5 34  1  0
  6 35  1  0
  7 36  1  0
 13 37  1  0
 13 38  1  0
 14 39  1  0
 14 40  1  0
 15 41  1  0
 15 42  1  0
 16 43  1  0
 16 44  1  0
 17 45  1  0
 17 46  1  0
 18 47  1  0
 20 48  1  0
 21 49  1  0
 27 50  1  0
 27 51  1  0
 28 52  1  0
 28 53  1  0
 30 54  1  0
 30 55  1  0
 31 56  1  0
 31 57  1  0
 32 58  1  0
 33 59  1  0
M  CHG  1   3  -1
M  END
>  <UniqueID>  (42) 
40

>  <SMILES>  (42) 
O=C([N-]c1cccc(S(=O)(=O)N2CCCCC2)c1)c1ccc(S(=O)(=O)N2CCOCC2)cc1

>  <Energy>  (42) 
77.7386629325454

>  <Genealogy>  (42) 
O=C([N-]c1cccc(S(=O)(=O)N2CCCCC2)c1)c1ccc(S(=O)(=O)N2CCOCC2)cc1 (protonated)
O=C([N-]c1cccc(S(=O)(=O)N2CCCCC2)c1)c1ccc(S(=O)(=O)N2CCOCC2)cc1 (3D coordinates assigned)
O=C([N-]c1cccc(S(=O)(=O)N2CCCCC2)c1)c1ccc(S(=O)(=O)N2CCOCC2)cc1 (nonaromatic ring conformer: 77.7386629325454 kcal/mol)

>  <smiles>  (42) 
O=C(Nc1cccc(S(=O)(=O)N2CCCCC2)c1)c1ccc(S(=O)(=O)N2CCOCC2)cc1

>  <score_type>  (42) 
oracle

>  <origin>  (42) 
adgpu

>  <m_score__min__energy>  (42) 
-13.41

>  <m_primary>  (42) 
energy

$$$$
42:0
     RDKit          3D

 34 36  0  0  0  0  0  0  0  0999 V2000
   -5.4300   11.7950  -35.4600 C   0  0  0  0  0  0  0  0  0  0  0  0
   -5.6670   13.1610  -34.8890 C   0  0  0  0  0  0  0  0  0  0  0  0
   -6.9730   13.6500  -34.7400 C   0  0  0  0  0  0  0  0  0  0  0  0
   -7.1930   14.9370  -34.2420 C   0  0  0  0  0  0  0  0  0  0  0  0
   -6.1090   15.7650  -33.8970 C   0  0  0  0  0  0  0  0  0  0  0  0
   -6.3310   17.1310  -33.3690 C   0  0  0  0  0  0  0  0  0  0  0  0
   -7.5520   17.7000  -33.2530 N   0  0  0  0  0  0  0  0  0  0  0  0
   -7.5240   18.9360  -32.7560 N   0  0  0  0  0  0  0  0  0  0  0  0
   -6.2780   19.3780  -32.4650 C   0  0  0  0  0  0  0  0  0  0  0  0
   -5.9920   20.7170  -31.9030 C   0  0  0  0  0  0  0  0  0  0  0  0
   -7.0240   21.4710  -31.3160 C   0  0  0  0  0  0  0  0  0  0  0  0
   -6.7630   22.7370  -30.7820 C   0  0  0  0  0  0  0  0  0  0  0  0
   -5.4700   23.2710  -30.8320 C   0  0  0  0  0  0  0  0  0  0  0  0
   -5.1390   24.8580  -30.1480 S   0  0  0  0  0  0  0  0  0  0  0  0
   -3.4960   25.2920  -30.4650 N   0  0  0  0  0  0  0  0  0  0  0  0
   -5.3700   24.8350  -28.6630 O   0  0  0  0  0  0  0  0  0  0  0  0
   -6.0550   25.8790  -30.7610 O   0  0  0  0  0  0  0  0  0  0  0  0
   -4.4360   22.5230  -31.4090 C   0  0  0  0  0  0  0  0  0  0  0  0
   -4.6940   21.2570  -31.9420 C   0  0  0  0  0  0  0  0  0  0  0  0
   -5.1350   18.1930  -32.8350 S   0  0  0  0  0  0  0  0  0  0  0  0
   -4.8010   15.2770  -34.0650 C   0  0  0  0  0  0  0  0  0  0  0  0
   -4.5830   13.9890  -34.5630 C   0  0  0  0  0  0  0  0  0  0  0  0
   -5.3045   11.0718  -34.6407 H   0  0  0  0  0  0  0  0  0  0  0  0
   -6.2907   11.5020  -36.0791 H   0  0  0  0  0  0  0  0  0  0  0  0
   -4.5209   11.8091  -36.0791 H   0  0  0  0  0  0  0  0  0  0  0  0
   -7.8289   13.0169  -35.0167 H   0  0  0  0  0  0  0  0  0  0  0  0
   -8.2220   15.3057  -34.1187 H   0  0  0  0  0  0  0  0  0  0  0  0
   -8.0443   21.0618  -31.2766 H   0  0  0  0  0  0  0  0  0  0  0  0
   -7.5771   23.3154  -30.3208 H   0  0  0  0  0  0  0  0  0  0  0  0
   -3.5110   26.0120  -31.2220 H   0  0  0  0  0  0  0  0  0  0  0  0
   -3.4162   22.9338  -31.4428 H   0  0  0  0  0  0  0  0  0  0  0  0
   -3.8756   20.6786  -32.3954 H   0  0  0  0  0  0  0  0  0  0  0  0
   -3.9430   15.9134  -33.8026 H   0  0  0  0  0  0  0  0  0  0  0  0
   -3.5549   13.6227  -34.7000 H   0  0  0  0  0  0  0  0  0  0  0  0
  1  2  1  0
  2  3  2  0
  3  4  1  0
  4  5  2  0
  5  6  1  0
  6  7  2  0
  7  8  1  0
  8  9  2  0
  9 10  1  0
 10 11  2  0
 11 12  1  0
 12 13  2  0
 13 14  1  0
 14 15  1  0
 14 16  2  0
 14 17  2  0
 13 18  1  0
 18 19  2  0
  9 20  1  0
  5 21  1  0
 21 22  2  0
 22  2  1  0
 20  6  1  0
 19 10  1  0
  1 23  1  0
  1 24  1  0
  1 25  1  0
  3 26  1  0
  4 27  1  0
 11 28  1  0
 12 29  1  0
 15 30  1  0
 18 31  1  0
 19 32  1  0
 21 33  1  0
 22 34  1  0
M  CHG  1  15  -1
M  END
>  <UniqueID>  (43) 
41

>  <SMILES>  (43) 
Cc1ccc(-c2nnc(-c3ccc(S([NH-])(=O)=O)cc3)s2)cc1

>  <Energy>  (43) 
71.49389114953468

>  <Genealogy>  (43) 
Cc1ccc(-c2nnc(-c3ccc(S([NH-])(=O)=O)cc3)s2)cc1 (protonated)
Cc1ccc(-c2nnc(-c3ccc(S([NH-])(=O)=O)cc3)s2)cc1 (3D coordinates assigned)
Cc1ccc(-c2nnc(-c3ccc(S([NH-])(=O)=O)cc3)s2)cc1 (optimized conformer: 71.49389114953468 kcal/mol)

>  <smiles>  (43) 
Cc1ccc(-c2nnc(-c3ccc(S(N)(=O)=O)cc3)s2)cc1

>  <score_type>  (43) 
oracle

>  <origin>  (43) 
adgpu

>  <m_score__min__energy>  (43) 
-9.9900000000000002

>  <m_primary>  (43) 
energy

$$$$
43:0
     RDKit          3D

 38 40  0  0  0  0  0  0  0  0999 V2000
   -9.2920   22.6310  -32.0840 C   0  0  0  0  0  0  0  0  0  0  0  0
   -7.9190   22.9020  -31.5460 C   0  0  0  0  0  0  0  0  0  0  0  0
   -7.5900   22.5430  -30.2310 C   0  0  0  0  0  0  0  0  0  0  0  0
   -6.3000   22.7620  -29.7410 C   0  0  0  0  0  0  0  0  0  0  0  0
   -5.3090   23.3210  -30.5650 C   0  0  0  0  0  0  0  0  0  0  0  0
   -3.9870   23.5520  -30.0390 N   0  0  0  0  0  0  0  0  0  0  0  0
   -3.7570   24.2660  -28.9480 N   0  0  0  0  0  0  0  0  0  0  0  0
   -2.4240   24.2720  -28.7180 C   0  0  0  0  0  0  0  0  0  0  0  0
   -1.7930   24.9720  -27.5740 C   0  0  0  0  0  0  0  0  0  0  0  0
   -2.5650   25.3060  -26.4450 C   0  0  0  0  0  0  0  0  0  0  0  0
   -1.9850   25.9670  -25.3580 C   0  0  0  0  0  0  0  0  0  0  0  0
   -0.6280   26.3100  -25.3820 C   0  0  0  0  0  0  0  0  0  0  0  0
    0.1050   27.1270  -24.0050 S   0  0  0  0  0  0  0  0  0  0  0  0
    1.5240   26.2730  -23.5120 N   0  0  0  0  0  0  0  0  0  0  0  0
   -0.8730   27.1750  -22.8640 O   0  0  0  0  0  0  0  0  0  0  0  0
    0.4720   28.5340  -24.3840 O   0  0  0  0  0  0  0  0  0  0  0  0
    0.1480   25.9760  -26.4980 C   0  0  0  0  0  0  0  0  0  0  0  0
   -0.4280   25.3150  -27.5870 C   0  0  0  0  0  0  0  0  0  0  0  0
   -1.7800   23.5240  -29.6970 C   0  0  0  0  0  0  0  0  0  0  0  0
   -2.8090   23.0870  -30.5030 C   0  0  0  0  0  0  0  0  0  0  0  0
   -2.6770   22.2960  -31.5190 N   0  0  0  0  0  0  0  0  0  0  0  0
   -5.6410   23.6780  -31.8840 C   0  0  0  0  0  0  0  0  0  0  0  0
   -6.9330   23.4590  -32.3730 C   0  0  0  0  0  0  0  0  0  0  0  0
   -9.9929   22.4927  -31.2475 H   0  0  0  0  0  0  0  0  0  0  0  0
   -9.6191   23.4819  -32.6996 H   0  0  0  0  0  0  0  0  0  0  0  0
   -9.2713   21.7196  -32.6996 H   0  0  0  0  0  0  0  0  0  0  0  0
   -8.3516   22.0865  -29.5817 H   0  0  0  0  0  0  0  0  0  0  0  0
   -6.0584   22.4946  -28.7017 H   0  0  0  0  0  0  0  0  0  0  0  0
   -3.6332   25.0448  -26.4179 H   0  0  0  0  0  0  0  0  0  0  0  0
   -2.5978   26.2187  -24.4799 H   0  0  0  0  0  0  0  0  0  0  0  0
    1.8160   26.6730  -22.5920 H   0  0  0  0  0  0  0  0  0  0  0  0
    1.2390   25.2850  -23.3340 H   0  0  0  0  0  0  0  0  0  0  0  0
    1.2169   26.2350  -26.5183 H   0  0  0  0  0  0  0  0  0  0  0  0
    0.1903   25.0611  -28.4606 H   0  0  0  0  0  0  0  0  0  0  0  0
   -0.7030   23.3273  -29.8033 H   0  0  0  0  0  0  0  0  0  0  0  0
   -1.7410   21.9450  -31.8220 H   0  0  0  0  0  0  0  0  0  0  0  0
   -4.8798   24.1323  -32.5353 H   0  0  0  0  0  0  0  0  0  0  0  0
   -7.1770   23.7252  -33.4121 H   0  0  0  0  0  0  0  0  0  0  0  0
  1  2  1  0
  2  3  2  0
  3  4  1  0
  4  5  2  0
  5  6  1  0
  6  7  1  0
  7  8  1  0
  8  9  1  0
  9 10  2  0
 10 11  1  0
 11 12  2  0
 12 13  1  0
 13 14  1  0
 13 15  2  0
 13 16  2  0
 12 17  1  0
 17 18  2  0
  8 19  2  0
 19 20  1  0
 20 21  2  3
  5 22  1  0
 22 23  2  0
 23  2  1  0
 20  6  1  0
 18  9  1  0
  1 24  1  0
  1 25  1  0
  1 26  1  0
  3 27  1  0
  4 28  1  0
 10 29  1  0
 11 30  1  0
 14 31  1  0
 14 32  1  0
 17 33  1  0
 18 34  1  0
 19 35  1  0
 21 36  1  0
 22 37  1  0
 23 38  1  0
M  CHG  1   7  -1
M  END
>  <UniqueID>  (44) 
42

>  <SMILES>  (44) 
Cc1ccc(-n2[n-]c(-c3ccc(S(N)(=O)=O)cc3)cc2=N)cc1

>  <Energy>  (44) 
75.88315457519754

>  <Genealogy>  (44) 
Cc1ccc(-n2[n-]c(-c3ccc(S(N)(=O)=O)cc3)cc2=N)cc1 (protonated)
Cc1ccc(-n2[n-]c(-c3ccc(S(N)(=O)=O)cc3)cc2=N)cc1 (3D coordinates assigned)
Cc1ccc(-n2[n-]c(-c3ccc(S(N)(=O)=O)cc3)cc2=N)cc1 (optimized conformer: 75.88315457519754 kcal/mol)

>  <smiles>  (44) 
Cc1ccc(-n2[nH]c(-c3ccc(S(N)(=O)=O)cc3)cc2=N)cc1

>  <score_type>  (44) 
oracle

>  <origin>  (44) 
adgpu

>  <m_score__min__energy>  (44) 
-8.3499999999999996

>  <m_primary>  (44) 
energy

$$$$
44:0
     RDKit          3D

 43 46  0  0  0  0  0  0  0  0999 V2000
   -0.8570   24.1510  -29.3320 O   0  0  0  0  0  0  0  0  0  0  0  0
   -1.3390   22.8050  -29.8000 S   0  0  0  0  0  0  0  0  0  0  0  0
   -0.3760   22.3160  -30.8470 O   0  0  0  0  0  0  0  0  0  0  0  0
   -2.9500   22.9850  -30.5110 C   0  0  0  0  0  0  0  0  0  0  0  0
   -3.5330   21.8960  -31.1770 C   0  0  0  0  0  0  0  0  0  0  0  0
   -4.8210   21.9980  -31.7290 C   0  0  0  0  0  0  0  0  0  0  0  0
   -5.4350   20.8480  -32.4220 C   0  0  0  0  0  0  0  0  0  0  0  0
   -4.9000   19.6110  -32.4670 N   0  0  0  0  0  0  0  0  0  0  0  0
   -5.8170   18.9440  -33.1990 C   0  0  0  0  0  0  0  0  0  0  0  0
   -5.7110   17.5100  -33.5450 C   0  0  0  0  0  0  0  0  0  0  0  0
   -4.4550   16.8770  -33.5870 C   0  0  0  0  0  0  0  0  0  0  0  0
   -4.3570   15.5230  -33.9240 C   0  0  0  0  0  0  0  0  0  0  0  0
   -5.5080   14.7890  -34.2200 C   0  0  0  0  0  0  0  0  0  0  0  0
   -6.7590   15.4070  -34.1780 C   0  0  0  0  0  0  0  0  0  0  0  0
   -6.8640   16.7620  -33.8450 C   0  0  0  0  0  0  0  0  0  0  0  0
   -6.8450   19.7340  -33.5720 N   0  0  0  0  0  0  0  0  0  0  0  0
   -6.5700   20.9010  -33.0750 O   0  0  0  0  0  0  0  0  0  0  0  0
   -5.5260   23.2060  -31.6080 C   0  0  0  0  0  0  0  0  0  0  0  0
   -4.9440   24.2970  -30.9590 C   0  0  0  0  0  0  0  0  0  0  0  0
   -3.6620   24.1940  -30.4120 C   0  0  0  0  0  0  0  0  0  0  0  0
   -3.1070   25.2980  -29.7780 O   0  0  0  0  0  0  0  0  0  0  0  0
   -1.3350   21.6930  -28.4540 N   0  0  0  0  0  0  0  0  0  0  0  0
   -2.6980   21.2150  -28.1750 C   0  0  0  0  0  0  0  0  0  0  0  0
   -2.6760   20.1370  -27.0710 C   0  0  0  0  0  0  0  0  0  0  0  0
   -1.3790   19.9800  -26.5280 O   0  0  0  0  0  0  0  0  0  0  0  0
   -0.4800   19.5630  -27.5390 C   0  0  0  0  0  0  0  0  0  0  0  0
   -0.4480   20.5520  -28.7240 C   0  0  0  0  0  0  0  0  0  0  0  0
   -2.9754   20.9521  -31.2679 H   0  0  0  0  0  0  0  0  0  0  0  0
   -3.5455   17.4500  -33.3536 H   0  0  0  0  0  0  0  0  0  0  0  0
   -3.3716   15.0352  -33.9560 H   0  0  0  0  0  0  0  0  0  0  0  0
   -5.4287   13.7246  -34.4860 H   0  0  0  0  0  0  0  0  0  0  0  0
   -7.6651   14.8270  -34.4074 H   0  0  0  0  0  0  0  0  0  0  0  0
   -7.8522   17.2443  -33.8177 H   0  0  0  0  0  0  0  0  0  0  0  0
   -6.5399   23.2934  -32.0257 H   0  0  0  0  0  0  0  0  0  0  0  0
   -5.4982   25.2437  -30.8778 H   0  0  0  0  0  0  0  0  0  0  0  0
   -3.3176   22.0610  -27.8429 H   0  0  0  0  0  0  0  0  0  0  0  0
   -3.1166   20.7765  -29.0929 H   0  0  0  0  0  0  0  0  0  0  0  0
   -3.3667   20.4333  -26.2678 H   0  0  0  0  0  0  0  0  0  0  0  0
   -2.9829   19.1792  -27.5165 H   0  0  0  0  0  0  0  0  0  0  0  0
    0.5299   19.4902  -27.1091 H   0  0  0  0  0  0  0  0  0  0  0  0
   -0.8208   18.5880  -27.9175 H   0  0  0  0  0  0  0  0  0  0  0  0
    0.5802   20.9162  -28.8663 H   0  0  0  0  0  0  0  0  0  0  0  0
   -0.7915   20.0362  -29.6328 H   0  0  0  0  0  0  0  0  0  0  0  0
  1  2  2  0
  2  3  2  0
  2  4  1  0
  4  5  2  0
  5  6  1  0
  6  7  1  0
  7  8  2  0
  8  9  1  0
  9 10  1  0
 10 11  2  0
 11 12  1  0
 12 13  2  0
 13 14  1  0
 14 15  2  0
  9 16  2  0
 16 17  1  0
  6 18  2  0
 18 19  1  0
 19 20  2  0
 20 21  1  0
  2 22  1  0
 22 23  1  0
 23 24  1  0
 24 25  1  0
 25 26  1  0
 26 27  1  0
 20  4  1  0
 27 22  1  0
 17  7  1  0
 15 10  1  0
  5 28  1  0
 11 29  1  0
 12 30  1  0
 13 31  1  0
 14 32  1  0
 15 33  1  0
 18 34  1  0
 19 35  1  0
 23 36  1  0
 23 37  1  0
 24 38  1  0
 24 39  1  0
 26 40  1  0
 26 41  1  0
 27 42  1  0
 27 43  1  0
M  CHG  1  21  -1
M  END
>  <UniqueID>  (45) 
43

>  <SMILES>  (45) 
O=S(=O)(c1cc(-c2nc(-c3ccccc3)no2)ccc1[O-])N1CCOCC1

>  <Energy>  (45) 
88.57100934682235

>  <Genealogy>  (45) 
O=S(=O)(c1cc(-c2nc(-c3ccccc3)no2)ccc1[O-])N1CCOCC1 (protonated)
O=S(=O)(c1cc(-c2nc(-c3ccccc3)no2)ccc1[O-])N1CCOCC1 (3D coordinates assigned)
O=S(=O)(c1cc(-c2nc(-c3ccccc3)no2)ccc1[O-])N1CCOCC1 (nonaromatic ring conformer: 88.57100934682235 kcal/mol)

>  <smiles>  (45) 
O=S(=O)(c1cc(-c2nc(-c3ccccc3)no2)ccc1O)N1CCOCC1

>  <score_type>  (45) 
oracle

>  <origin>  (45) 
adgpu

>  <m_score__min__energy>  (45) 
-11.359999999999999

>  <m_primary>  (45) 
energy

$$$$
45:0
     RDKit          3D

 39 41  0  0  0  0  0  0  0  0999 V2000
   -4.6110   22.6940  -28.3900 C   0  0  0  0  0  0  0  0  0  0  0  0
   -4.7340   23.5200  -29.5850 N   0  0  0  0  0  0  0  0  0  0  0  0
   -3.8590   24.4330  -30.0400 C   0  0  0  0  0  0  0  0  0  0  0  0
   -4.2880   24.9850  -31.1920 N   0  0  0  0  0  0  0  0  0  0  0  0
   -5.4520   24.4200  -31.4870 N   0  0  0  0  0  0  0  0  0  0  0  0
   -5.7130   23.5280  -30.5120 C   0  0  0  0  0  0  0  0  0  0  0  0
   -6.9620   22.6870  -30.4710 C   0  0  0  0  0  0  0  0  0  0  0  0
   -7.5100   22.4570  -31.8230 N   0  0  2  0  0  0  0  0  0  0  0  0
   -8.8520   23.0450  -31.9700 C   0  0  0  0  0  0  0  0  0  0  0  0
   -7.5920   20.7400  -32.1350 S   0  0  0  0  0  0  0  0  0  0  0  0
   -7.8670   20.0000  -30.8550 O   0  0  0  0  0  0  0  0  0  0  0  0
   -8.7040   20.4480  -33.1040 O   0  0  0  0  0  0  0  0  0  0  0  0
   -6.0580   20.1690  -32.7900 C   0  0  0  0  0  0  0  0  0  0  0  0
   -5.9940   18.9680  -33.5150 C   0  0  0  0  0  0  0  0  0  0  0  0
   -4.7740   18.5280  -34.0420 C   0  0  0  0  0  0  0  0  0  0  0  0
   -3.6180   19.2880  -33.8480 C   0  0  0  0  0  0  0  0  0  0  0  0
   -3.6850   20.5040  -33.1550 C   0  0  0  0  0  0  0  0  0  0  0  0
   -4.8990   20.9380  -32.6150 C   0  0  0  0  0  0  0  0  0  0  0  0
   -2.5250   21.2720  -33.0150 O   0  0  0  0  0  0  0  0  0  0  0  0
   -1.3540   20.9880  -33.7860 C   0  0  0  0  0  0  0  0  0  0  0  0
   -1.1630   19.4720  -33.9210 C   0  0  0  0  0  0  0  0  0  0  0  0
   -2.3840   18.8540  -34.3410 O   0  0  0  0  0  0  0  0  0  0  0  0
   -4.7053   23.3271  -27.4954 H   0  0  0  0  0  0  0  0  0  0  0  0
   -5.4058   21.9336  -28.3865 H   0  0  0  0  0  0  0  0  0  0  0  0
   -3.6291   22.1981  -28.3865 H   0  0  0  0  0  0  0  0  0  0  0  0
   -2.9161   24.6953  -29.5378 H   0  0  0  0  0  0  0  0  0  0  0  0
   -6.7230   21.7158  -30.0132 H   0  0  0  0  0  0  0  0  0  0  0  0
   -7.7187   23.2251  -29.8812 H   0  0  0  0  0  0  0  0  0  0  0  0
   -6.8720   22.8780  -32.5400 H   0  0  0  0  0  0  0  0  0  0  0  0
   -9.2810   23.2330  -30.9747 H   0  0  0  0  0  0  0  0  0  0  0  0
   -8.7783   23.9933  -32.5226 H   0  0  0  0  0  0  0  0  0  0  0  0
   -9.4992   22.3480  -32.5226 H   0  0  0  0  0  0  0  0  0  0  0  0
   -6.9051   18.3713  -33.6692 H   0  0  0  0  0  0  0  0  0  0  0  0
   -4.7257   17.5858  -34.6077 H   0  0  0  0  0  0  0  0  0  0  0  0
   -4.9449   21.8825  -32.0530 H   0  0  0  0  0  0  0  0  0  0  0  0
   -1.4618   21.4311  -34.7870 H   0  0  0  0  0  0  0  0  0  0  0  0
   -0.4774   21.4162  -33.2780 H   0  0  0  0  0  0  0  0  0  0  0  0
   -0.3789   19.2697  -34.6654 H   0  0  0  0  0  0  0  0  0  0  0  0
   -0.8700   19.0594  -32.9443 H   0  0  0  0  0  0  0  0  0  0  0  0
  1  2  1  0
  2  3  1  0
  3  4  2  0
  4  5  1  0
  5  6  2  0
  6  7  1  0
  7  8  1  0
  8  9  1  0
  8 10  1  0
 10 11  2  0
 10 12  2  0
 10 13  1  0
 13 14  2  0
 14 15  1  0
 15 16  2  0
 16 17  1  0
 17 18  2  0
 17 19  1  0
 19 20  1  0
 20 21  1  0
 21 22  1  0
  6  2  1  0
 18 13  1  0
 22 16  1  0
  1 23  1  0
  1 24  1  0
  1 25  1  0
  3 26  1  0
  7 27  1  0
  7 28  1  0
  8 29  1  6
  9 30  1  0
  9 31  1  0
  9 32  1  0
 14 33  1  0
 15 34  1  0
 18 35  1  0
 20 36  1  0
 20 37  1  0
 21 38  1  0
 21 39  1  0
M  CHG  1   8   1
M  END
>  <UniqueID>  (46) 
44

>  <SMILES>  (46) 
Cn1cnnc1C[N@H+](C)S(=O)(=O)c1ccc2c(c1)OCCO2

>  <Energy>  (46) 
73.1556739897617

>  <Genealogy>  (46) 
Cn1cnnc1C[NH+](C)S(=O)(=O)c1ccc2c(c1)OCCO2 (protonated)
Cn1cnnc1C[N@H+](C)S(=O)(=O)c1ccc2c(c1)OCCO2 (chirality)
Cn1cnnc1C[N@H+](C)S(=O)(=O)c1ccc2c(c1)OCCO2 (3D coordinates assigned)
Cn1cnnc1C[N@H+](C)S(=O)(=O)c1ccc2c(c1)OCCO2 (nonaromatic ring conformer: 73.1556739897617 kcal/mol)

>  <smiles>  (46) 
CN(Cc1nncn1C)S(=O)(=O)c1ccc2c(c1)OCCO2

>  <score_type>  (46) 
oracle

>  <origin>  (46) 
adgpu

>  <m_score__min__energy>  (46) 
-7.3899999999999997

>  <m_primary>  (46) 
energy

$$$$
46:0
     RDKit          3D

 51 53  0  0  0  0  0  0  0  0999 V2000
   -0.8450   27.8520  -25.2290 C   0  0  0  0  0  0  0  0  0  0  0  0
   -0.9670   26.5920  -24.4780 N   0  0  0  0  0  0  0  0  0  0  0  0
   -0.4880   26.7940  -23.0990 C   0  0  0  0  0  0  0  0  0  0  0  0
   -0.1940   25.5280  -25.1510 C   0  0  0  0  0  0  0  0  0  0  0  0
   -0.9270   25.0290  -26.3700 C   0  0  0  0  0  0  0  0  0  0  0  0
   -0.2160   24.7200  -27.5390 C   0  0  0  0  0  0  0  0  0  0  0  0
   -0.8910   24.2740  -28.6790 C   0  0  0  0  0  0  0  0  0  0  0  0
   -2.2880   24.1220  -28.6620 C   0  0  0  0  0  0  0  0  0  0  0  0
   -3.0220   23.6920  -29.8170 N   0  0  0  0  0  0  0  0  0  0  0  0
   -4.0250   24.4400  -30.5200 C   0  0  0  0  0  0  0  0  0  0  0  0
   -3.8670   25.6720  -30.7300 O   0  0  0  0  0  0  0  0  0  0  0  0
   -5.2460   23.7530  -30.9960 C   0  0  0  0  0  0  0  0  0  0  0  0
   -5.1270   22.8310  -32.0510 C   0  0  0  0  0  0  0  0  0  0  0  0
   -6.2330   22.1010  -32.4890 C   0  0  0  0  0  0  0  0  0  0  0  0
   -7.4810   22.2740  -31.8860 C   0  0  0  0  0  0  0  0  0  0  0  0
   -8.5860   21.4920  -32.3570 N   0  0  0  0  0  0  0  0  0  0  0  0
   -8.7360   19.7730  -32.1910 S   0  0  0  0  0  0  0  0  0  0  0  0
   -9.8560   19.2880  -33.0670 O   0  0  0  0  0  0  0  0  0  0  0  0
   -9.0570   19.4430  -30.7600 O   0  0  0  0  0  0  0  0  0  0  0  0
   -7.2410   18.9910  -32.6940 C   0  0  0  0  0  0  0  0  0  0  0  0
   -6.5710   19.4100  -33.8530 C   0  0  0  0  0  0  0  0  0  0  0  0
   -5.3920   18.7710  -34.2500 C   0  0  0  0  0  0  0  0  0  0  0  0
   -4.8770   17.7160  -33.4930 C   0  0  0  0  0  0  0  0  0  0  0  0
   -5.5400   17.2990  -32.3350 C   0  0  0  0  0  0  0  0  0  0  0  0
   -6.7200   17.9330  -31.9360 C   0  0  0  0  0  0  0  0  0  0  0  0
   -7.6170   23.2100  -30.8460 C   0  0  0  0  0  0  0  0  0  0  0  0
   -6.5190   23.9640  -30.4120 C   0  0  0  0  0  0  0  0  0  0  0  0
   -6.7440   24.9280  -29.4270 O   0  0  0  0  0  0  0  0  0  0  0  0
   -2.9990   24.4610  -27.5040 C   0  0  0  0  0  0  0  0  0  0  0  0
   -2.3250   24.9060  -26.3630 C   0  0  0  0  0  0  0  0  0  0  0  0
   -0.7636   28.6926  -24.5241 H   0  0  0  0  0  0  0  0  0  0  0  0
    0.0539   27.8160  -25.8621 H   0  0  0  0  0  0  0  0  0  0  0  0
   -1.7341   27.9891  -25.8621 H   0  0  0  0  0  0  0  0  0  0  0  0
   -1.2630   26.4672  -22.3901 H   0  0  0  0  0  0  0  0  0  0  0  0
    0.4273   26.2052  -22.9388 H   0  0  0  0  0  0  0  0  0  0  0  0
   -0.2707   27.8604  -22.9388 H   0  0  0  0  0  0  0  0  0  0  0  0
    0.7836   25.9295  -25.4563 H   0  0  0  0  0  0  0  0  0  0  0  0
   -0.0598   24.6905  -24.4506 H   0  0  0  0  0  0  0  0  0  0  0  0
    0.8784   24.8292  -27.5588 H   0  0  0  0  0  0  0  0  0  0  0  0
   -0.3261   24.0409  -29.5936 H   0  0  0  0  0  0  0  0  0  0  0  0
   -4.1511   22.6834  -32.5366 H   0  0  0  0  0  0  0  0  0  0  0  0
   -6.1210   21.3838  -33.3155 H   0  0  0  0  0  0  0  0  0  0  0  0
   -6.9732   20.2417  -34.4500 H   0  0  0  0  0  0  0  0  0  0  0  0
   -4.8692   19.0999  -35.1602 H   0  0  0  0  0  0  0  0  0  0  0  0
   -3.9504   17.2137  -33.8078 H   0  0  0  0  0  0  0  0  0  0  0  0
   -5.1324   16.4706  -31.7369 H   0  0  0  0  0  0  0  0  0  0  0  0
   -7.2408   17.6012  -31.0257 H   0  0  0  0  0  0  0  0  0  0  0  0
   -8.5972   23.3520  -30.3673 H   0  0  0  0  0  0  0  0  0  0  0  0
   -6.4110   24.8440  -28.4770 H   0  0  0  0  0  0  0  0  0  0  0  0
   -4.0957   24.3765  -27.4922 H   0  0  0  0  0  0  0  0  0  0  0  0
   -2.8927   25.1608  -25.4559 H   0  0  0  0  0  0  0  0  0  0  0  0
  1  2  1  0
  2  3  1  0
  2  4  1  0
  4  5  1  0
  5  6  2  0
  6  7  1  0
  7  8  2  0
  8  9  1  0
  9 10  1  0
 10 11  2  0
 10 12  1  0
 12 13  2  0
 13 14  1  0
 14 15  2  0
 15 16  1  0
 16 17  1  0
 17 18  2  0
 17 19  2  0
 17 20  1  0
 20 21  2  0
 21 22  1  0
 22 23  2  0
 23 24  1  0
 24 25  2  0
 15 26  1  0
 26 27  2  0
 27 28  1  0
  8 29  1  0
 29 30  2  0
 30  5  1  0
 27 12  1  0
 25 20  1  0
  1 31  1  0
  1 32  1  0
  1 33  1  0
  3 34  1  0
  3 35  1  0
  3 36  1  0
  4 37  1  0
  4 38  1  0
  6 39  1  0
  7 40  1  0
 13 41  1  0
 14 42  1  0
 21 43  1  0
 22 44  1  0
 23 45  1  0
 24 46  1  0
 25 47  1  0
 26 48  1  0
 28 49  1  0
 29 50  1  0
 30 51  1  0
M  CHG  2   9  -1  16  -1
M  END
>  <UniqueID>  (47) 
45

>  <SMILES>  (47) 
CN(C)Cc1ccc([N-]C(=O)c2ccc([N-]S(=O)(=O)c3ccccc3)cc2O)cc1

>  <Energy>  (47) 
65.1497334892841

>  <Genealogy>  (47) 
CN(C)Cc1ccc([N-]C(=O)c2ccc([N-]S(=O)(=O)c3ccccc3)cc2O)cc1 (protonated)
CN(C)Cc1ccc([N-]C(=O)c2ccc([N-]S(=O)(=O)c3ccccc3)cc2O)cc1 (3D coordinates assigned)
CN(C)Cc1ccc([N-]C(=O)c2ccc([N-]S(=O)(=O)c3ccccc3)cc2O)cc1 (optimized conformer: 65.1497334892841 kcal/mol)

>  <smiles>  (47) 
CN(C)Cc1ccc(NC(=O)c2ccc(NS(=O)(=O)c3ccccc3)cc2O)cc1

>  <score_type>  (47) 
oracle

>  <origin>  (47) 
adgpu

>  <m_score__min__energy>  (47) 
-11.6

>  <m_primary>  (47) 
energy

$$$$
47:0
     RDKit          3D

 58 61  0  0  0  0  0  0  0  0999 V2000
   -4.7354   23.5297  -28.6673 H   0  0  0  0  0  0  0  0  0  0  0  0
   -3.9400   23.1120  -29.3020 C   0  0  0  0  0  0  0  0  0  0  0  0
   -4.2630   22.2920  -30.4010 C   0  0  0  0  0  0  0  0  0  0  0  0
   -5.3132   22.0131  -30.5725 H   0  0  0  0  0  0  0  0  0  0  0  0
   -3.2760   21.8220  -31.2830 C   0  0  0  0  0  0  0  0  0  0  0  0
   -3.7260   20.8860  -32.7660 S   0  0  0  0  0  0  0  0  0  0  0  0
   -5.5040   21.0550  -32.4630 C   0  0  0  0  0  0  0  0  0  0  0  0
   -6.1260   22.2660  -32.4780 N   0  0  0  0  0  0  0  0  0  0  0  0
   -7.4270   21.9850  -32.2910 C   0  0  0  0  0  0  0  0  0  0  0  0
   -8.4710   23.0120  -31.9620 C   0  0  0  0  0  0  0  0  0  0  0  0
   -8.5640   23.1035  -30.8698 H   0  0  0  0  0  0  0  0  0  0  0  0
   -8.1772   23.9829  -32.3876 H   0  0  0  0  0  0  0  0  0  0  0  0
   -9.4369   22.7023  -32.3876 H   0  0  0  0  0  0  0  0  0  0  0  0
   -7.5820   20.6100  -32.1420 C   0  0  0  0  0  0  0  0  0  0  0  0
   -8.8300   19.9030  -31.6610 C   0  0  0  0  0  0  0  0  0  0  0  0
   -8.8456   19.8942  -30.5611 H   0  0  0  0  0  0  0  0  0  0  0  0
   -9.7186   20.4318  -32.0361 H   0  0  0  0  0  0  0  0  0  0  0  0
   -8.8332   18.8689  -32.0361 H   0  0  0  0  0  0  0  0  0  0  0  0
   -6.3680   20.0470  -32.2060 N   0  0  0  0  0  0  0  0  0  0  0  0
   -6.0590   18.6340  -32.0120 C   0  0  0  0  0  0  0  0  0  0  0  0
   -6.0108   18.4137  -30.9354 H   0  0  0  0  0  0  0  0  0  0  0  0
   -6.8440   18.0198  -32.4772 H   0  0  0  0  0  0  0  0  0  0  0  0
   -5.0892   18.4035  -32.4772 H   0  0  0  0  0  0  0  0  0  0  0  0
   -1.9090   22.0080  -30.9060 C   0  0  0  0  0  0  0  0  0  0  0  0
   -0.5630   21.1920  -31.7040 Cl  0  0  0  0  0  0  0  0  0  0  0  0
   -1.6020   22.8710  -29.8540 C   0  0  0  0  0  0  0  0  0  0  0  0
   -0.5517   23.1462  -29.6775 H   0  0  0  0  0  0  0  0  0  0  0  0
   -2.5840   23.3920  -29.0240 C   0  0  0  0  0  0  0  0  0  0  0  0
   -2.1570   24.2360  -27.9380 N   0  0  0  0  0  0  0  0  0  0  0  0
   -1.5480   23.9520  -26.7910 C   0  0  0  0  0  0  0  0  0  0  0  0
   -1.2430   22.6350  -26.3400 C   0  0  0  0  0  0  0  0  0  0  0  0
   -1.7790   21.4550  -26.9260 C   0  0  0  0  0  0  0  0  0  0  0  0
   -2.3110   20.5320  -27.4040 N   0  0  0  0  0  0  0  0  0  0  0  0
   -0.4920   22.4590  -25.1750 C   0  0  0  0  0  0  0  0  0  0  0  0
   -0.2181   21.4413  -24.8600 H   0  0  0  0  0  0  0  0  0  0  0  0
   -0.0960   23.5090  -24.4290 N   0  0  0  0  0  0  0  0  0  0  0  0
    0.3300   23.3050  -23.4710 H   0  0  0  0  0  0  0  0  0  0  0  0
   -0.4110   24.7880  -24.7670 C   0  0  0  0  0  0  0  0  0  0  0  0
    0.1990   25.8630  -24.0940 C   0  0  0  0  0  0  0  0  0  0  0  0
    0.9226   25.6572  -23.2915 H   0  0  0  0  0  0  0  0  0  0  0  0
   -0.0990   27.1910  -24.4280 C   0  0  0  0  0  0  0  0  0  0  0  0
    0.3980   28.2980  -23.7120 O   0  0  0  0  0  0  0  0  0  0  0  0
    1.3950   28.2750  -22.6750 C   0  0  0  0  0  0  0  0  0  0  0  0
    1.0841   27.5522  -21.9063 H   0  0  0  0  0  0  0  0  0  0  0  0
    1.4736   29.2957  -22.2725 H   0  0  0  0  0  0  0  0  0  0  0  0
    2.7900   27.8750  -23.1880 C   0  0  0  0  0  0  0  0  0  0  0  0
    3.4546   27.6844  -22.3324 H   0  0  0  0  0  0  0  0  0  0  0  0
    2.7086   26.9640  -23.7991 H   0  0  0  0  0  0  0  0  0  0  0  0
    3.2037   28.6907  -23.7991 H   0  0  0  0  0  0  0  0  0  0  0  0
   -0.9230   27.4530  -25.5380 C   0  0  0  0  0  0  0  0  0  0  0  0
   -1.2100   28.7920  -25.8470 O   0  0  0  0  0  0  0  0  0  0  0  0
   -0.2830   29.7150  -26.4180 C   0  0  0  0  0  0  0  0  0  0  0  0
    0.2491   30.2448  -25.6142 H   0  0  0  0  0  0  0  0  0  0  0  0
    0.4418   29.1693  -27.0399 H   0  0  0  0  0  0  0  0  0  0  0  0
   -0.8256   30.4422  -27.0399 H   0  0  0  0  0  0  0  0  0  0  0  0
   -1.4120   26.3830  -26.3110 C   0  0  0  0  0  0  0  0  0  0  0  0
   -2.0101   26.5971  -27.2090 H   0  0  0  0  0  0  0  0  0  0  0  0
   -1.1510   25.0390  -25.9580 C   0  0  0  0  0  0  0  0  0  0  0  0
  1  2  1  0
  2  3  2  0
  3  4  1  0
  3  5  1  0
  5  6  1  0
  6  7  1  0
  7  8  2  0
  8  9  1  0
  9 10  1  0
 10 11  1  0
 10 12  1  0
 10 13  1  0
  9 14  2  0
 14 15  1  0
 15 16  1  0
 15 17  1  0
 15 18  1  0
 14 19  1  0
 19 20  1  0
 20 21  1  0
 20 22  1  0
 20 23  1  0
  5 24  2  0
 24 25  1  0
 24 26  1  0
 26 27  1  0
 26 28  2  0
 28 29  1  0
 29 30  2  0
 30 31  1  0
 31 32  1  0
 32 33  3  0
 31 34  2  0
 34 35  1  0
 34 36  1  0
 36 37  1  0
 36 38  1  0
 38 39  2  0
 39 40  1  0
 39 41  1  0
 41 42  1  0
 42 43  1  0
 43 44  1  0
 43 45  1  0
 43 46  1  0
 46 47  1  0
 46 48  1  0
 46 49  1  0
 41 50  2  0
 50 51  1  0
 51 52  1  0
 52 53  1  0
 52 54  1  0
 52 55  1  0
 50 56  1  0
 56 57  1  0
 56 58  2  0
 28  2  1  0
 58 30  1  0
 19  7  1  0
 58 38  1  0
M  END
>  <UniqueID>  (48) 
46

>  <SMILES>  (48) 
CCOc1cc2[nH]cc(C#N)/c(=N/c3ccc(Sc4nc(C)c(C)n4C)c(Cl)c3)c2cc1OC

>  <Energy>  (48) 
125.25739434628348

>  <Genealogy>  (48) 
CCOc1cc2[nH]cc(C#N)/c(=N/c3ccc(Sc4nc(C)c(C)n4C)c(Cl)c3)c2cc1OC (cis-trans isomerization)
CCOc1cc2[nH]cc(C#N)/c(=N/c3ccc(Sc4nc(C)c(C)n4C)c(Cl)c3)c2cc1OC (3D coordinates assigned)
CCOc1cc2[nH]cc(C#N)/c(=N/c3ccc(Sc4nc(C)c(C)n4C)c(Cl)c3)c2cc1OC (optimized conformer: 125.25739434628348 kcal/mol)

>  <smiles>  (48) 
CCOc1cc2[nH]cc(C#N)c(=Nc3ccc(Sc4nc(C)c(C)n4C)c(Cl)c3)c2cc1OC

>  <score_type>  (48) 
oracle

>  <origin>  (48) 
adgpu

>  <m_score__min__energy>  (48) 
-8.5999999999999996

>  <m_primary>  (48) 
energy

$$$$
