0:0
     RDKit          3D

 44 46  0  0  0  0  0  0  0  0999 V2000
   -6.2600   24.9240  -30.8680 C   0  0  0  0  0  0  0  0  0  0  0  0
   -4.9580   24.6290  -30.2050 C   0  0  0  0  0  0  0  0  0  0  0  0
   -4.7410   23.7010  -29.2100 C   0  0  0  0  0  0  0  0  0  0  0  0
   -3.3970   23.8430  -28.9320 C   0  0  0  0  0  0  0  0  0  0  0  0
   -2.6240   23.0830  -27.8900 C   0  0  0  0  0  0  0  0  0  0  0  0
   -2.1530   21.7730  -28.4000 N   0  0  2  0  0  0  0  0  0  0  0  0
   -1.7870   20.9070  -27.2620 C   0  0  0  0  0  0  0  0  0  0  0  0
   -0.9960   21.9490  -29.3160 C   0  0  0  0  0  0  0  0  0  0  0  0
   -1.3580   21.6330  -30.7490 C   0  0  0  0  0  0  0  0  0  0  0  0
   -0.3970   21.0840  -31.6120 C   0  0  0  0  0  0  0  0  0  0  0  0
   -0.7180   20.8170  -32.9440 C   0  0  0  0  0  0  0  0  0  0  0  0
   -2.0010   21.0920  -33.4250 C   0  0  0  0  0  0  0  0  0  0  0  0
   -2.9770   21.6240  -32.5750 C   0  0  0  0  0  0  0  0  0  0  0  0
   -4.2480   21.9020  -33.0990 O   0  0  0  0  0  0  0  0  0  0  0  0
   -5.4150   21.1710  -32.8320 C   0  0  0  0  0  0  0  0  0  0  0  0
   -5.3960   19.7840  -33.0140 C   0  0  0  0  0  0  0  0  0  0  0  0
   -6.5340   19.0200  -32.7480 C   0  0  0  0  0  0  0  0  0  0  0  0
   -7.7030   19.6330  -32.2830 C   0  0  0  0  0  0  0  0  0  0  0  0
   -9.1180   18.6390  -31.9600 Cl  0  0  0  0  0  0  0  0  0  0  0  0
   -7.7260   21.0220  -32.0770 C   0  0  0  0  0  0  0  0  0  0  0  0
   -9.1670   21.8310  -31.4750 Cl  0  0  0  0  0  0  0  0  0  0  0  0
   -6.5830   21.7850  -32.3430 C   0  0  0  0  0  0  0  0  0  0  0  0
   -2.6450   21.9110  -31.2380 C   0  0  0  0  0  0  0  0  0  0  0  0
   -2.8670   24.8030  -29.7140 N   0  0  0  0  0  0  0  0  0  0  0  0
   -3.8310   25.2520  -30.4630 O   0  0  0  0  0  0  0  0  0  0  0  0
   -7.0302   25.0985  -30.1022 H   0  0  0  0  0  0  0  0  0  0  0  0
   -6.1569   25.8215  -31.4955 H   0  0  0  0  0  0  0  0  0  0  0  0
   -6.5538   24.0697  -31.4955 H   0  0  0  0  0  0  0  0  0  0  0  0
   -5.4646   23.0129  -28.7486 H   0  0  0  0  0  0  0  0  0  0  0  0
   -1.7522   23.6813  -27.5867 H   0  0  0  0  0  0  0  0  0  0  0  0
   -3.2925   22.8972  -27.0364 H   0  0  0  0  0  0  0  0  0  0  0  0
   -2.9400   21.3090  -28.9130 H   0  0  0  0  0  0  0  0  0  0  0  0
   -2.0073   21.4283  -26.3188 H   0  0  0  0  0  0  0  0  0  0  0  0
   -2.3678   19.9740  -27.3096 H   0  0  0  0  0  0  0  0  0  0  0  0
   -0.7132   20.6733  -27.3096 H   0  0  0  0  0  0  0  0  0  0  0  0
   -0.6520   22.9922  -29.2579 H   0  0  0  0  0  0  0  0  0  0  0  0
   -0.2045   21.2522  -29.0029 H   0  0  0  0  0  0  0  0  0  0  0  0
    0.6133   20.8632  -31.2372 H   0  0  0  0  0  0  0  0  0  0  0  0
    0.0403   20.3893  -33.6163 H   0  0  0  0  0  0  0  0  0  0  0  0
   -2.2451   20.8890  -34.4782 H   0  0  0  0  0  0  0  0  0  0  0  0
   -4.4784   19.2921  -33.3690 H   0  0  0  0  0  0  0  0  0  0  0  0
   -6.5116   17.9314  -32.9046 H   0  0  0  0  0  0  0  0  0  0  0  0
   -6.5979   22.8710  -32.1688 H   0  0  0  0  0  0  0  0  0  0  0  0
   -3.3984   22.3560  -30.5714 H   0  0  0  0  0  0  0  0  0  0  0  0
  1  2  1  0
  2  3  2  0
  3  4  1  0
  4  5  1  0
  5  6  1  0
  6  7  1  0
  6  8  1  0
  8  9  1  0
  9 10  2  0
 10 11  1  0
 11 12  2  0
 12 13  1  0
 13 14  1  0
 14 15  1  0
 15 16  2  0
 16 17  1  0
 17 18  2  0
 18 19  1  0
 18 20  1  0
 20 21  1  0
 20 22  2  0
 13 23  2  0
  4 24  2  0
 24 25  1  0
 25  2  1  0
 23  9  1  0
 22 15  1  0
  1 26  1  0
  1 27  1  0
  1 28  1  0
  3 29  1  0
  5 30  1  0
  5 31  1  0
  6 32  1  6
  7 33  1  0
  7 34  1  0
  7 35  1  0
  8 36  1  0
  8 37  1  0
 10 38  1  0
 11 39  1  0
 12 40  1  0
 16 41  1  0
 17 42  1  0
 22 43  1  0
 23 44  1  0
M  CHG  1   6   1
M  END
>  <UniqueID>  (1) 
1

>  <SMILES>  (1) 
Cc1cc(C[N@H+](C)Cc2cccc(Oc3ccc(Cl)c(Cl)c3)c2)no1

>  <Energy>  (1) 
83.04911410146394

>  <Genealogy>  (1) 
Cc1cc(C[NH+](C)Cc2cccc(Oc3ccc(Cl)c(Cl)c3)c2)no1 (protonated)
Cc1cc(C[N@H+](C)Cc2cccc(Oc3ccc(Cl)c(Cl)c3)c2)no1 (chirality)
Cc1cc(C[N@H+](C)Cc2cccc(Oc3ccc(Cl)c(Cl)c3)c2)no1 (3D coordinates assigned)
Cc1cc(C[N@H+](C)Cc2cccc(Oc3ccc(Cl)c(Cl)c3)c2)no1 (optimized conformer: 83.04911410146394 kcal/mol)

>  <smiles>  (1) 
Cc1cc(CN(C)Cc2cccc(Oc3ccc(Cl)c(Cl)c3)c2)no1

>  <score_type>  (1) 
oracle

>  <origin>  (1) 
adgpu

>  <m_score__min__energy>  (1) 
-8.8399999999999999

>  <m_primary>  (1) 
energy

$$$$
1:0
     RDKit          3D

 35 36  0  0  0  0  0  0  0  0999 V2000
   -3.8860   25.2940  -30.6830 O   0  0  0  0  0  0  0  0  0  0  0  0
   -4.9610   24.7810  -30.2690 C   0  0  0  0  0  0  0  0  0  0  0  0
   -6.1040   24.5940  -31.2230 C   0  0  0  0  0  0  0  0  0  0  0  0
   -5.8610   23.4170  -32.1770 C   0  0  0  0  0  0  0  0  0  0  0  0
   -6.9680   22.3940  -32.1140 C   0  0  0  0  0  0  0  0  0  0  0  0
   -8.2380   22.7490  -31.6270 C   0  0  0  0  0  0  0  0  0  0  0  0
   -9.2600   21.7990  -31.5710 C   0  0  0  0  0  0  0  0  0  0  0  0
   -9.0340   20.4960  -32.0220 C   0  0  0  0  0  0  0  0  0  0  0  0
   -7.7770   20.1380  -32.5180 C   0  0  0  0  0  0  0  0  0  0  0  0
   -6.7460   21.0800  -32.5610 C   0  0  0  0  0  0  0  0  0  0  0  0
   -5.0830   24.3450  -28.9080 N   0  0  0  0  0  0  0  0  0  0  0  0
   -3.9690   24.3810  -27.9640 C   0  0  0  0  0  0  0  0  0  0  0  0
   -2.7700   23.6700  -28.5440 C   0  0  0  0  0  0  0  0  0  0  0  0
   -2.9330   22.4290  -29.1900 C   0  0  0  0  0  0  0  0  0  0  0  0
   -4.1590   21.8610  -29.3090 F   0  0  0  0  0  0  0  0  0  0  0  0
   -1.8280   21.7620  -29.7270 C   0  0  0  0  0  0  0  0  0  0  0  0
   -0.5530   22.3220  -29.6260 C   0  0  0  0  0  0  0  0  0  0  0  0
   -0.3760   23.5420  -28.9750 C   0  0  0  0  0  0  0  0  0  0  0  0
   -1.4720   24.2160  -28.4240 C   0  0  0  0  0  0  0  0  0  0  0  0
   -1.1750   25.7360  -27.5850 Cl  0  0  0  0  0  0  0  0  0  0  0  0
   -7.0213   24.4023  -30.6469 H   0  0  0  0  0  0  0  0  0  0  0  0
   -6.2006   25.5092  -31.8256 H   0  0  0  0  0  0  0  0  0  0  0  0
   -5.7931   23.8025  -33.2050 H   0  0  0  0  0  0  0  0  0  0  0  0
   -4.9268   22.9227  -31.8721 H   0  0  0  0  0  0  0  0  0  0  0  0
   -8.4274   23.7785  -31.2889 H   0  0  0  0  0  0  0  0  0  0  0  0
  -10.2460   22.0773  -31.1706 H   0  0  0  0  0  0  0  0  0  0  0  0
   -9.8442   19.7528  -31.9868 H   0  0  0  0  0  0  0  0  0  0  0  0
   -7.5993   19.1129  -32.8751 H   0  0  0  0  0  0  0  0  0  0  0  0
   -5.7567   20.7922  -32.9462 H   0  0  0  0  0  0  0  0  0  0  0  0
   -5.9820   23.9150  -28.5930 H   0  0  0  0  0  0  0  0  0  0  0  0
   -3.7042   25.4279  -27.7544 H   0  0  0  0  0  0  0  0  0  0  0  0
   -4.2703   23.8761  -27.0343 H   0  0  0  0  0  0  0  0  0  0  0  0
   -1.9634   20.7934  -30.2305 H   0  0  0  0  0  0  0  0  0  0  0  0
    0.3125   21.8002  -30.0604 H   0  0  0  0  0  0  0  0  0  0  0  0
    0.6309   23.9775  -28.8939 H   0  0  0  0  0  0  0  0  0  0  0  0
  1  2  2  0
  2  3  1  0
  3  4  1  0
  4  5  1  0
  5  6  2  0
  6  7  1  0
  7  8  2  0
  8  9  1  0
  9 10  2  0
  2 11  1  0
 11 12  1  0
 12 13  1  0
 13 14  2  0
 14 15  1  0
 14 16  1  0
 16 17  2  0
 17 18  1  0
 18 19  2  0
 19 20  1  0
 10  5  1  0
 19 13  1  0
  3 21  1  0
  3 22  1  0
  4 23  1  0
  4 24  1  0
  6 25  1  0
  7 26  1  0
  8 27  1  0
  9 28  1  0
 10 29  1  0
 11 30  1  0
 12 31  1  0
 12 32  1  0
 16 33  1  0
 17 34  1  0
 18 35  1  0
M  END
>  <UniqueID>  (2) 
2

>  <SMILES>  (2) 
O=C(CCc1ccccc1)NCc1c(F)cccc1Cl

>  <Energy>  (2) 
26.90823706242057

>  <Genealogy>  (2) 
O=C(CCc1ccccc1)NCc1c(F)cccc1Cl (3D coordinates assigned)
O=C(CCc1ccccc1)NCc1c(F)cccc1Cl (optimized conformer: 26.90823706242057 kcal/mol)

>  <smiles>  (2) 
O=C(CCc1ccccc1)NCc1c(F)cccc1Cl

>  <score_type>  (2) 
oracle

>  <origin>  (2) 
adgpu

>  <m_score__min__energy>  (2) 
-8.0399999999999991

>  <m_primary>  (2) 
energy

$$$$
2:0
     RDKit          3D

 39 41  0  0  0  0  0  0  0  0999 V2000
   -5.7180   25.9840  -30.1450 C   0  0  0  0  0  0  0  0  0  0  0  0
   -4.7520   25.2170  -30.8550 O   0  0  0  0  0  0  0  0  0  0  0  0
   -4.8890   23.8560  -31.1610 C   0  0  0  0  0  0  0  0  0  0  0  0
   -3.7350   23.0630  -31.1950 C   0  0  0  0  0  0  0  0  0  0  0  0
   -3.8210   21.7010  -31.4880 C   0  0  0  0  0  0  0  0  0  0  0  0
   -5.0600   21.1170  -31.7540 C   0  0  0  0  0  0  0  0  0  0  0  0
   -6.2270   21.8970  -31.7440 C   0  0  0  0  0  0  0  0  0  0  0  0
   -7.5420   21.2820  -32.0250 C   0  0  0  0  0  0  0  0  0  0  0  0
   -8.7770   21.8860  -31.9050 C   0  0  0  0  0  0  0  0  0  0  0  0
   -9.7050   20.9860  -32.1420 O   0  0  0  0  0  0  0  0  0  0  0  0
   -9.1850   19.8230  -32.4150 N   0  0  0  0  0  0  0  0  0  0  0  0
   -7.8480   19.9710  -32.3540 C   0  0  0  0  0  0  0  0  0  0  0  0
   -6.9220   18.9190  -32.6760 N   0  0  0  0  0  0  0  0  0  0  0  0
   -6.3840   18.8460  -34.0370 C   0  0  0  0  0  0  0  0  0  0  0  0
   -5.3080   17.7560  -34.1490 C   0  0  0  0  0  0  0  0  0  0  0  0
   -5.7080   16.5080  -33.4650 N   0  0  0  0  0  0  0  0  0  0  0  0
   -6.7500   15.7860  -34.2140 C   0  0  0  0  0  0  0  0  0  0  0  0
   -6.0740   16.6880  -32.0340 C   0  0  0  0  0  0  0  0  0  0  0  0
   -6.2700   18.1550  -31.6090 C   0  0  0  0  0  0  0  0  0  0  0  0
   -6.1390   23.2630  -31.4320 C   0  0  0  0  0  0  0  0  0  0  0  0
   -5.5617   25.8599  -29.0633 H   0  0  0  0  0  0  0  0  0  0  0  0
   -5.6110   27.0459  -30.4115 H   0  0  0  0  0  0  0  0  0  0  0  0
   -6.7280   25.6391  -30.4115 H   0  0  0  0  0  0  0  0  0  0  0  0
   -2.7542   23.5166  -30.9894 H   0  0  0  0  0  0  0  0  0  0  0  0
   -2.9092   21.0861  -31.5093 H   0  0  0  0  0  0  0  0  0  0  0  0
   -5.1225   20.0407  -31.9725 H   0  0  0  0  0  0  0  0  0  0  0  0
   -8.9547   22.9420  -31.6535 H   0  0  0  0  0  0  0  0  0  0  0  0
   -7.2025   18.6158  -34.7349 H   0  0  0  0  0  0  0  0  0  0  0  0
   -5.9262   19.8152  -34.2839 H   0  0  0  0  0  0  0  0  0  0  0  0
   -5.1339   17.5373  -35.2129 H   0  0  0  0  0  0  0  0  0  0  0  0
   -4.3944   18.1305  -33.6640 H   0  0  0  0  0  0  0  0  0  0  0  0
   -7.4431   15.3057  -33.5076 H   0  0  0  0  0  0  0  0  0  0  0  0
   -7.3042   16.4947  -34.8470 H   0  0  0  0  0  0  0  0  0  0  0  0
   -6.2811   15.0182  -34.8470 H   0  0  0  0  0  0  0  0  0  0  0  0
   -7.0137   16.1472  -31.8482 H   0  0  0  0  0  0  0  0  0  0  0  0
   -5.2322   16.2988  -31.4425 H   0  0  0  0  0  0  0  0  0  0  0  0
   -6.8966   18.1889  -30.7055 H   0  0  0  0  0  0  0  0  0  0  0  0
   -5.2846   18.5998  -31.4060 H   0  0  0  0  0  0  0  0  0  0  0  0
   -7.0523   23.8752  -31.3987 H   0  0  0  0  0  0  0  0  0  0  0  0
  1  2  1  0
  2  3  1  0
  3  4  2  0
  4  5  1  0
  5  6  2  0
  6  7  1  0
  7  8  1  0
  8  9  2  0
  9 10  1  0
 10 11  1  0
 11 12  2  0
 12 13  1  0
 13 14  1  0
 14 15  1  0
 15 16  1  0
 16 17  1  0
 16 18  1  0
 18 19  1  0
  7 20  2  0
 20  3  1  0
 12  8  1  0
 19 13  1  0
  1 21  1  0
  1 22  1  0
  1 23  1  0
  4 24  1  0
  5 25  1  0
  6 26  1  0
  9 27  1  0
 14 28  1  0
 14 29  1  0
 15 30  1  0
 15 31  1  0
 17 32  1  0
 17 33  1  0
 17 34  1  0
 18 35  1  0
 18 36  1  0
 19 37  1  0
 19 38  1  0
 20 39  1  0
M  END
>  <UniqueID>  (3) 
3

>  <SMILES>  (3) 
COc1cccc(-c2conc2N2CCN(C)CC2)c1

>  <Energy>  (3) 
83.9377923025058

>  <Genealogy>  (3) 
COc1cccc(-c2conc2N2CCN(C)CC2)c1 (3D coordinates assigned)
COc1cccc(-c2conc2N2CCN(C)CC2)c1 (nonaromatic ring conformer: 83.9377923025058 kcal/mol)

>  <smiles>  (3) 
COc1cccc(-c2conc2N2CCN(C)CC2)c1

>  <score_type>  (3) 
oracle

>  <origin>  (3) 
adgpu

>  <m_score__min__energy>  (3) 
-7.4800000000000004

>  <m_primary>  (3) 
energy

$$$$
3:0
     RDKit          3D

 33 34  0  0  0  0  0  0  0  0999 V2000
   -1.3530   20.1600  -26.7840 C   0  0  0  0  0  0  0  0  0  0  0  0
   -0.7180   21.1880  -27.5380 O   0  0  0  0  0  0  0  0  0  0  0  0
   -1.4020   22.1950  -28.2350 C   0  0  0  0  0  0  0  0  0  0  0  0
   -1.4740   23.5220  -27.7700 C   0  0  0  0  0  0  0  0  0  0  0  0
   -2.1710   24.4880  -28.5020 C   0  0  0  0  0  0  0  0  0  0  0  0
   -2.8200   24.1440  -29.6940 C   0  0  0  0  0  0  0  0  0  0  0  0
   -3.5000   25.1670  -30.4330 N   0  0  0  0  0  0  0  0  0  0  0  0
   -4.9190   25.3320  -30.5550 C   0  0  0  0  0  0  0  0  0  0  0  0
   -5.4060   26.4890  -30.4660 O   0  0  0  0  0  0  0  0  0  0  0  0
   -5.8450   24.1610  -30.7370 C   0  0  0  0  0  0  0  0  0  0  0  0
   -5.7440   23.6460  -32.0630 O   0  0  0  0  0  0  0  0  0  0  0  0
   -5.6300   22.2790  -32.3490 C   0  0  0  0  0  0  0  0  0  0  0  0
   -4.5030   21.7770  -32.6170 O   0  0  0  0  0  0  0  0  0  0  0  0
   -6.8260   21.4210  -32.3400 C   0  0  0  0  0  0  0  0  0  0  0  0
   -6.7580   20.0730  -32.7220 C   0  0  0  0  0  0  0  0  0  0  0  0
   -7.8870   19.3150  -32.7020 N   0  0  0  0  0  0  0  0  0  0  0  0
   -9.0800   19.8370  -32.3190 C   0  0  0  0  0  0  0  0  0  0  0  0
   -9.1520   21.1770  -31.9390 C   0  0  0  0  0  0  0  0  0  0  0  0
   -8.0270   21.9380  -31.9580 N   0  0  0  0  0  0  0  0  0  0  0  0
   -2.7260   22.8270  -30.1720 C   0  0  0  0  0  0  0  0  0  0  0  0
   -2.0290   21.8600  -29.4420 C   0  0  0  0  0  0  0  0  0  0  0  0
   -1.2279   20.3625  -25.7100 H   0  0  0  0  0  0  0  0  0  0  0  0
   -2.4249   20.1338  -27.0298 H   0  0  0  0  0  0  0  0  0  0  0  0
   -0.8966   19.1898  -27.0298 H   0  0  0  0  0  0  0  0  0  0  0  0
   -0.9800   23.7998  -26.8272 H   0  0  0  0  0  0  0  0  0  0  0  0
   -2.2098   25.5256  -28.1389 H   0  0  0  0  0  0  0  0  0  0  0  0
   -5.5752   23.3713  -30.0204 H   0  0  0  0  0  0  0  0  0  0  0  0
   -6.8787   24.4943  -30.5625 H   0  0  0  0  0  0  0  0  0  0  0  0
   -5.7998   19.6328  -33.0350 H   0  0  0  0  0  0  0  0  0  0  0  0
   -9.9826   19.2083  -32.3084 H   0  0  0  0  0  0  0  0  0  0  0  0
  -10.1119   21.6140  -31.6265 H   0  0  0  0  0  0  0  0  0  0  0  0
   -3.2030   22.5551  -31.1252 H   0  0  0  0  0  0  0  0  0  0  0  0
   -1.9724   20.8279  -29.8183 H   0  0  0  0  0  0  0  0  0  0  0  0
  1  2  1  0
  2  3  1  0
  3  4  2  0
  4  5  1  0
  5  6  2  0
  6  7  1  0
  7  8  1  0
  8  9  2  0
  8 10  1  0
 10 11  1  0
 11 12  1  0
 12 13  2  0
 12 14  1  0
 14 15  2  0
 15 16  1  0
 16 17  2  0
 17 18  1  0
 18 19  2  0
  6 20  1  0
 20 21  2  0
 21  3  1  0
 19 14  1  0
  1 22  1  0
  1 23  1  0
  1 24  1  0
  4 25  1  0
  5 26  1  0
 10 27  1  0
 10 28  1  0
 15 29  1  0
 17 30  1  0
 18 31  1  0
 20 32  1  0
 21 33  1  0
M  CHG  1   7  -1
M  END
>  <UniqueID>  (4) 
4

>  <SMILES>  (4) 
COc1ccc([N-]C(=O)COC(=O)c2cnccn2)cc1

>  <Energy>  (4) 
37.12856792205882

>  <Genealogy>  (4) 
COc1ccc([N-]C(=O)COC(=O)c2cnccn2)cc1 (protonated)
COc1ccc([N-]C(=O)COC(=O)c2cnccn2)cc1 (3D coordinates assigned)
COc1ccc([N-]C(=O)COC(=O)c2cnccn2)cc1 (optimized conformer: 37.12856792205882 kcal/mol)

>  <smiles>  (4) 
COc1ccc(NC(=O)COC(=O)c2cnccn2)cc1

>  <score_type>  (4) 
oracle

>  <origin>  (4) 
adgpu

>  <m_score__min__energy>  (4) 
-7.8799999999999999

>  <m_primary>  (4) 
energy

$$$$
4:0
     RDKit          3D

 49 51  0  0  0  0  0  0  0  0999 V2000
    1.2980   26.3620  -27.0720 C   0  0  0  0  0  0  0  0  0  0  0  0
   -0.1350   25.9260  -26.9920 C   0  0  0  0  0  0  0  0  0  0  0  0
   -0.9590   26.3950  -25.9620 C   0  0  0  0  0  0  0  0  0  0  0  0
   -2.2860   25.9710  -25.8740 C   0  0  0  0  0  0  0  0  0  0  0  0
   -2.8070   25.0530  -26.8000 C   0  0  0  0  0  0  0  0  0  0  0  0
   -4.2410   24.6140  -26.6770 C   0  0  0  0  0  0  0  0  0  0  0  0
   -1.9750   24.5570  -27.8320 C   0  0  0  0  0  0  0  0  0  0  0  0
   -2.4930   23.6420  -28.8170 N   0  0  0  0  0  0  0  0  0  0  0  0
   -3.4160   24.0380  -29.8460 C   0  0  0  0  0  0  0  0  0  0  0  0
   -3.5250   25.2580  -30.1490 O   0  0  0  0  0  0  0  0  0  0  0  0
   -4.2090   23.0280  -30.5880 C   0  0  0  0  0  0  0  0  0  0  0  0
   -3.5790   21.9760  -31.2750 C   0  0  0  0  0  0  0  0  0  0  0  0
   -4.3350   21.0260  -31.9660 C   0  0  0  0  0  0  0  0  0  0  0  0
   -5.7370   21.1050  -31.9840 C   0  0  0  0  0  0  0  0  0  0  0  0
   -6.5170   20.1150  -32.6830 N   0  0  0  0  0  0  0  0  0  0  0  0
   -7.6870   19.5070  -32.0390 C   0  0  0  0  0  0  0  0  0  0  0  0
   -8.0570   18.1800  -32.7240 C   0  0  0  0  0  0  0  0  0  0  0  0
   -6.8560   17.4180  -33.1280 N   0  0  0  0  0  0  0  0  0  0  0  0
   -6.1010   16.9250  -31.9640 C   0  0  0  0  0  0  0  0  0  0  0  0
   -5.9830   18.1540  -34.0810 C   0  0  0  0  0  0  0  0  0  0  0  0
   -6.1610   19.6840  -34.0370 C   0  0  0  0  0  0  0  0  0  0  0  0
   -6.3690   22.1430  -31.2800 C   0  0  0  0  0  0  0  0  0  0  0  0
   -5.6130   23.0940  -30.5890 C   0  0  0  0  0  0  0  0  0  0  0  0
   -0.6430   25.0030  -27.9160 C   0  0  0  0  0  0  0  0  0  0  0  0
    1.7012   26.4847  -26.0559 H   0  0  0  0  0  0  0  0  0  0  0  0
    1.8833   25.6013  -27.6094 H   0  0  0  0  0  0  0  0  0  0  0  0
    1.3604   27.3198  -27.6094 H   0  0  0  0  0  0  0  0  0  0  0  0
   -0.5591   27.1006  -25.2189 H   0  0  0  0  0  0  0  0  0  0  0  0
   -2.9299   26.3598  -25.0714 H   0  0  0  0  0  0  0  0  0  0  0  0
   -4.5094   24.5318  -25.6134 H   0  0  0  0  0  0  0  0  0  0  0  0
   -4.8939   25.3534  -27.1638 H   0  0  0  0  0  0  0  0  0  0  0  0
   -4.3681   23.6358  -27.1638 H   0  0  0  0  0  0  0  0  0  0  0  0
   -2.1160   22.6700  -28.8410 H   0  0  0  0  0  0  0  0  0  0  0  0
   -2.4816   21.9001  -31.2685 H   0  0  0  0  0  0  0  0  0  0  0  0
   -3.8279   20.2092  -32.5005 H   0  0  0  0  0  0  0  0  0  0  0  0
   -7.4574   19.3151  -30.9805 H   0  0  0  0  0  0  0  0  0  0  0  0
   -8.5377   20.1989  -32.1259 H   0  0  0  0  0  0  0  0  0  0  0  0
   -8.6470   17.5702  -32.0240 H   0  0  0  0  0  0  0  0  0  0  0  0
   -8.6358   18.4123  -33.6301 H   0  0  0  0  0  0  0  0  0  0  0  0
   -6.5995   17.2505  -31.0390 H   0  0  0  0  0  0  0  0  0  0  0  0
   -6.0608   15.8261  -31.9917 H   0  0  0  0  0  0  0  0  0  0  0  0
   -5.0787   17.3301  -31.9917 H   0  0  0  0  0  0  0  0  0  0  0  0
   -4.9350   17.9202  -33.8420 H   0  0  0  0  0  0  0  0  0  0  0  0
   -6.2684   17.8283  -35.0922 H   0  0  0  0  0  0  0  0  0  0  0  0
   -5.2195   20.1677  -34.3361 H   0  0  0  0  0  0  0  0  0  0  0  0
   -6.9676   19.9707  -34.7278 H   0  0  0  0  0  0  0  0  0  0  0  0
   -7.4671   22.2080  -31.2724 H   0  0  0  0  0  0  0  0  0  0  0  0
   -6.1212   23.9012  -30.0411 H   0  0  0  0  0  0  0  0  0  0  0  0
    0.0077   24.6223  -28.7171 H   0  0  0  0  0  0  0  0  0  0  0  0
  1  2  1  0
  2  3  2  0
  3  4  1  0
  4  5  2  0
  5  6  1  0
  5  7  1  0
  7  8  1  0
  8  9  1  0
  9 10  2  0
  9 11  1  0
 11 12  2  0
 12 13  1  0
 13 14  2  0
 14 15  1  0
 15 16  1  0
 16 17  1  0
 17 18  1  0
 18 19  1  0
 18 20  1  0
 20 21  1  0
 14 22  1  0
 22 23  2  0
  7 24  2  0
 24  2  1  0
 23 11  1  0
 21 15  1  0
  1 25  1  0
  1 26  1  0
  1 27  1  0
  3 28  1  0
  4 29  1  0
  6 30  1  0
  6 31  1  0
  6 32  1  0
  8 33  1  0
 12 34  1  0
 13 35  1  0
 16 36  1  0
 16 37  1  0
 17 38  1  0
 17 39  1  0
 19 40  1  0
 19 41  1  0
 19 42  1  0
 20 43  1  0
 20 44  1  0
 21 45  1  0
 21 46  1  0
 22 47  1  0
 23 48  1  0
 24 49  1  0
M  END
>  <UniqueID>  (5) 
5

>  <SMILES>  (5) 
Cc1ccc(C)c(NC(=O)c2ccc(N3CCN(C)CC3)cc2)c1

>  <Energy>  (5) 
66.84172701819851

>  <Genealogy>  (5) 
Cc1ccc(C)c(NC(=O)c2ccc(N3CCN(C)CC3)cc2)c1 (3D coordinates assigned)
Cc1ccc(C)c(NC(=O)c2ccc(N3CCN(C)CC3)cc2)c1 (nonaromatic ring conformer: 66.84172701819851 kcal/mol)

>  <smiles>  (5) 
Cc1ccc(C)c(NC(=O)c2ccc(N3CCN(C)CC3)cc2)c1

>  <score_type>  (5) 
oracle

>  <origin>  (5) 
adgpu

>  <m_score__min__energy>  (5) 
-8.2200000000000006

>  <m_primary>  (5) 
energy

$$$$
5:0
     RDKit          3D

 34 36  0  0  0  0  0  0  0  0999 V2000
   -5.7420   26.3655  -30.9933 H   0  0  0  0  0  0  0  0  0  0  0  0
   -5.3410   25.3510  -30.8520 C   0  0  0  0  0  0  0  0  0  0  0  0
   -4.3260   25.1390  -29.9770 N   0  0  0  0  0  0  0  0  0  0  0  0
   -3.8200   23.8920  -29.7770 C   0  0  0  0  0  0  0  0  0  0  0  0
   -2.8340   23.6850  -28.9540 N   0  0  0  0  0  0  0  0  0  0  0  0
   -2.2090   24.6530  -28.0940 C   0  0  0  0  0  0  0  0  0  0  0  0
   -2.6740   24.7820  -26.7790 C   0  0  0  0  0  0  0  0  0  0  0  0
   -3.4832   24.1289  -26.4203 H   0  0  0  0  0  0  0  0  0  0  0  0
   -2.1190   25.7330  -25.9190 C   0  0  0  0  0  0  0  0  0  0  0  0
   -2.4936   25.8227  -24.8886 H   0  0  0  0  0  0  0  0  0  0  0  0
   -1.0850   26.5760  -26.3620 C   0  0  0  0  0  0  0  0  0  0  0  0
   -0.5200   27.6360  -25.4500 C   0  0  0  0  0  0  0  0  0  0  0  0
   -0.9120   27.4130  -24.1410 F   0  0  0  0  0  0  0  0  0  0  0  0
    0.8630   27.6320  -25.4950 F   0  0  0  0  0  0  0  0  0  0  0  0
   -0.9800   28.8760  -25.8530 F   0  0  0  0  0  0  0  0  0  0  0  0
   -0.6600   26.4870  -27.6990 C   0  0  0  0  0  0  0  0  0  0  0  0
    0.1159   27.1717  -28.0719 H   0  0  0  0  0  0  0  0  0  0  0  0
   -1.2160   25.5350  -28.5580 C   0  0  0  0  0  0  0  0  0  0  0  0
   -0.8754   25.4750  -29.6022 H   0  0  0  0  0  0  0  0  0  0  0  0
   -4.3240   22.8450  -30.4820 N   0  0  0  0  0  0  0  0  0  0  0  0
   -5.3360   23.0020  -31.3790 C   0  0  0  0  0  0  0  0  0  0  0  0
   -5.8520   21.8160  -32.1100 C   0  0  0  0  0  0  0  0  0  0  0  0
   -4.9960   20.9870  -32.8630 C   0  0  0  0  0  0  0  0  0  0  0  0
   -3.9224   21.2195  -32.9209 H   0  0  0  0  0  0  0  0  0  0  0  0
   -5.5020   19.8710  -33.5370 C   0  0  0  0  0  0  0  0  0  0  0  0
   -4.8267   19.2321  -34.1250 H   0  0  0  0  0  0  0  0  0  0  0  0
   -6.8630   19.5660  -33.4650 C   0  0  0  0  0  0  0  0  0  0  0  0
   -7.2590   18.6901  -33.9997 H   0  0  0  0  0  0  0  0  0  0  0  0
   -7.7210   20.3720  -32.7150 C   0  0  0  0  0  0  0  0  0  0  0  0
   -9.0410   20.0720  -32.6430 F   0  0  0  0  0  0  0  0  0  0  0  0
   -7.2190   21.4890  -32.0370 C   0  0  0  0  0  0  0  0  0  0  0  0
   -7.8988   22.1166  -31.4420 H   0  0  0  0  0  0  0  0  0  0  0  0
   -5.8760   24.2840  -31.5720 C   0  0  0  0  0  0  0  0  0  0  0  0
   -6.7049   24.4430  -32.2775 H   0  0  0  0  0  0  0  0  0  0  0  0
  1  2  1  0
  2  3  2  0
  3  4  1  0
  4  5  2  0
  5  6  1  0
  6  7  2  0
  7  8  1  0
  7  9  1  0
  9 10  1  0
  9 11  2  0
 11 12  1  0
 12 13  1  0
 12 14  1  0
 12 15  1  0
 11 16  1  0
 16 17  1  0
 16 18  2  0
 18 19  1  0
  4 20  1  0
 20 21  1  0
 21 22  1  0
 22 23  2  0
 23 24  1  0
 23 25  1  0
 25 26  1  0
 25 27  2  0
 27 28  1  0
 27 29  1  0
 29 30  1  0
 29 31  2  0
 31 32  1  0
 21 33  2  0
 33 34  1  0
 33  2  1  0
 18  6  1  0
 31 22  1  0
M  CHG  1  20  -1
M  END
>  <UniqueID>  (6) 
6

>  <SMILES>  (6) 
Fc1cccc(-c2ccn/c(=N\c3ccc(C(F)(F)F)cc3)[n-]2)c1

>  <Energy>  (6) 
48.747110087071036

>  <Genealogy>  (6) 
Fc1cccc(-c2ccnc(=Nc3ccc(C(F)(F)F)cc3)[n-]2)c1 (protonated)
Fc1cccc(-c2ccn/c(=N\c3ccc(C(F)(F)F)cc3)[n-]2)c1 (cis-trans isomerization)
Fc1cccc(-c2ccn/c(=N\c3ccc(C(F)(F)F)cc3)[n-]2)c1 (3D coordinates assigned)
Fc1cccc(-c2ccn/c(=N\c3ccc(C(F)(F)F)cc3)[n-]2)c1 (optimized conformer: 48.747110087071036 kcal/mol)

>  <smiles>  (6) 
Fc1cccc(-c2ccnc(=Nc3ccc(C(F)(F)F)cc3)[nH]2)c1

>  <score_type>  (6) 
oracle

>  <origin>  (6) 
adgpu

>  <m_score__min__energy>  (6) 
-7.96

>  <m_primary>  (6) 
energy

$$$$
6:0
     RDKit          3D

 38 40  0  0  0  0  0  0  0  0999 V2000
   -7.3241   18.8829  -33.4791 H   0  0  0  0  0  0  0  0  0  0  0  0
   -7.5940   19.7770  -32.8980 C   0  0  0  0  0  0  0  0  0  0  0  0
   -6.5900   20.5850  -32.3540 C   0  0  0  0  0  0  0  0  0  0  0  0
   -5.5330   20.3220  -32.5076 H   0  0  0  0  0  0  0  0  0  0  0  0
   -6.9250   21.7330  -31.6110 C   0  0  0  0  0  0  0  0  0  0  0  0
   -5.8600   22.5930  -31.0320 C   0  0  0  0  0  0  0  0  0  0  0  0
   -6.0440   23.9830  -30.9310 C   0  0  0  0  0  0  0  0  0  0  0  0
   -6.9825   24.4364  -31.2826 H   0  0  0  0  0  0  0  0  0  0  0  0
   -5.0450   24.7920  -30.3880 C   0  0  0  0  0  0  0  0  0  0  0  0
   -5.2025   25.8781  -30.3130 H   0  0  0  0  0  0  0  0  0  0  0  0
   -3.8410   24.2300  -29.9370 C   0  0  0  0  0  0  0  0  0  0  0  0
   -3.6420   22.8430  -30.0320 C   0  0  0  0  0  0  0  0  0  0  0  0
   -4.6550   22.0290  -30.5790 C   0  0  0  0  0  0  0  0  0  0  0  0
   -4.5008   20.9423  -30.6519 H   0  0  0  0  0  0  0  0  0  0  0  0
   -2.4290   22.3110  -29.5690 C   0  0  0  0  0  0  0  0  0  0  0  0
   -2.2350   21.0630  -29.6220 O   0  0  0  0  0  0  0  0  0  0  0  0
   -1.4590   23.1390  -29.0600 N   0  0  0  0  0  0  0  0  0  0  0  0
   -0.1920   22.5670  -28.5610 C   0  0  0  0  0  0  0  0  0  0  0  0
   -0.1968   22.5692  -27.4610 H   0  0  0  0  0  0  0  0  0  0  0  0
   -0.0873   21.5343  -28.9252 H   0  0  0  0  0  0  0  0  0  0  0  0
    0.6518   23.1715  -28.9252 H   0  0  0  0  0  0  0  0  0  0  0  0
   -1.6920   24.4910  -28.9500 C   0  0  0  0  0  0  0  0  0  0  0  0
   -0.7800   25.2580  -28.4120 N   0  0  0  0  0  0  0  0  0  0  0  0
   -0.8640   26.7030  -28.2150 C   0  0  0  0  0  0  0  0  0  0  0  0
   -1.8113   27.0750  -28.6324 H   0  0  0  0  0  0  0  0  0  0  0  0
   -0.0204   27.1911  -28.7250 H   0  0  0  0  0  0  0  0  0  0  0  0
   -0.8070   27.0190  -26.7270 C   0  0  0  0  0  0  0  0  0  0  0  0
   -0.9732   26.0975  -26.1498 H   0  0  0  0  0  0  0  0  0  0  0  0
    0.1806   27.4345  -26.4780 H   0  0  0  0  0  0  0  0  0  0  0  0
   -1.5872   27.7534  -26.4780 H   0  0  0  0  0  0  0  0  0  0  0  0
   -2.8730   25.0180  -29.3980 N   0  0  0  0  0  0  0  0  0  0  0  0
   -3.0560   26.0440  -29.3320 H   0  0  0  0  0  0  0  0  0  0  0  0
   -8.2830   22.0510  -31.4240 C   0  0  0  0  0  0  0  0  0  0  0  0
   -8.5601   22.9442  -30.8448 H   0  0  0  0  0  0  0  0  0  0  0  0
   -9.2820   21.2400  -31.9690 C   0  0  0  0  0  0  0  0  0  0  0  0
  -10.3408   21.4973  -31.8182 H   0  0  0  0  0  0  0  0  0  0  0  0
   -8.9390   20.1030  -32.7050 C   0  0  0  0  0  0  0  0  0  0  0  0
   -9.9100   19.3180  -33.2330 F   0  0  0  0  0  0  0  0  0  0  0  0
  1  2  1  0
  2  3  2  0
  3  4  1  0
  3  5  1  0
  5  6  1  0
  6  7  2  0
  7  8  1  0
  7  9  1  0
  9 10  1  0
  9 11  2  0
 11 12  1  0
 12 13  2  0
 13 14  1  0
 12 15  1  0
 15 16  2  0
 15 17  1  0
 17 18  1  0
 18 19  1  0
 18 20  1  0
 18 21  1  0
 17 22  1  0
 22 23  2  0
 23 24  1  0
 24 25  1  0
 24 26  1  0
 24 27  1  0
 27 28  1  0
 27 29  1  0
 27 30  1  0
 22 31  1  0
 31 32  1  0
  5 33  2  0
 33 34  1  0
 33 35  1  0
 35 36  1  0
 35 37  2  0
 37 38  1  0
 37  2  1  0
 13  6  1  0
 31 11  1  0
M  END
>  <UniqueID>  (7) 
7

>  <SMILES>  (7) 
CC/N=c1\[nH]c2ccc(-c3ccc(F)cc3)cc2c(=O)n1C

>  <Energy>  (7) 
52.55250959576587

>  <Genealogy>  (7) 
CC/N=c1\[nH]c2ccc(-c3ccc(F)cc3)cc2c(=O)n1C (cis-trans isomerization)
CC/N=c1\[nH]c2ccc(-c3ccc(F)cc3)cc2c(=O)n1C (3D coordinates assigned)
CC/N=c1\[nH]c2ccc(-c3ccc(F)cc3)cc2c(=O)n1C (optimized conformer: 52.55250959576587 kcal/mol)

>  <smiles>  (7) 
CCN=c1[nH]c2ccc(-c3ccc(F)cc3)cc2c(=O)n1C

>  <score_type>  (7) 
oracle

>  <origin>  (7) 
adgpu

>  <m_score__min__energy>  (7) 
-7.9199999999999999

>  <m_primary>  (7) 
energy

$$$$
7:0
     RDKit          3D

 35 36  0  0  0  0  0  0  0  0999 V2000
   -1.6040   25.5670  -27.7540 C   0  0  0  0  0  0  0  0  0  0  0  0
   -2.3380   25.3000  -28.9450 O   0  0  0  0  0  0  0  0  0  0  0  0
   -2.3450   24.0750  -29.6310 C   0  0  0  0  0  0  0  0  0  0  0  0
   -1.3730   23.0920  -29.3570 C   0  0  0  0  0  0  0  0  0  0  0  0
   -1.3750   21.8800  -30.0420 C   0  0  0  0  0  0  0  0  0  0  0  0
   -2.3450   21.6210  -31.0050 C   0  0  0  0  0  0  0  0  0  0  0  0
   -3.3340   22.5730  -31.2900 C   0  0  0  0  0  0  0  0  0  0  0  0
   -4.3840   22.2620  -32.3320 C   0  0  0  0  0  0  0  0  0  0  0  0
   -5.7310   22.3920  -31.7710 N   0  0  0  0  0  0  0  0  0  0  0  0
   -6.7750   21.4110  -31.9220 C   0  0  0  0  0  0  0  0  0  0  0  0
   -8.1130   21.8070  -31.7740 C   0  0  0  0  0  0  0  0  0  0  0  0
   -9.1470   20.8770  -31.9070 C   0  0  0  0  0  0  0  0  0  0  0  0
   -8.8580   19.5410  -32.1940 C   0  0  0  0  0  0  0  0  0  0  0  0
   -9.8700   18.6460  -32.3190 F   0  0  0  0  0  0  0  0  0  0  0  0
   -7.5280   19.1340  -32.3530 C   0  0  0  0  0  0  0  0  0  0  0  0
   -7.1520   17.4590  -32.7220 Cl  0  0  0  0  0  0  0  0  0  0  0  0
   -6.4900   20.0650  -32.2220 C   0  0  0  0  0  0  0  0  0  0  0  0
   -3.3370   23.8140  -30.6140 C   0  0  0  0  0  0  0  0  0  0  0  0
   -4.3430   24.7380  -30.9640 O   0  0  0  0  0  0  0  0  0  0  0  0
   -5.3820   25.2240  -30.1240 C   0  0  0  0  0  0  0  0  0  0  0  0
   -2.2300   25.3393  -26.8787 H   0  0  0  0  0  0  0  0  0  0  0  0
   -0.7005   24.9399  -27.7317 H   0  0  0  0  0  0  0  0  0  0  0  0
   -1.3146   26.6280  -27.7317 H   0  0  0  0  0  0  0  0  0  0  0  0
   -0.6046   23.2844  -28.5938 H   0  0  0  0  0  0  0  0  0  0  0  0
   -0.6068   21.1244  -29.8210 H   0  0  0  0  0  0  0  0  0  0  0  0
   -2.3360   20.6634  -31.5462 H   0  0  0  0  0  0  0  0  0  0  0  0
   -4.2751   22.9622  -33.1734 H   0  0  0  0  0  0  0  0  0  0  0  0
   -4.2440   21.2260  -32.6741 H   0  0  0  0  0  0  0  0  0  0  0  0
   -5.9160   23.2250  -31.1670 H   0  0  0  0  0  0  0  0  0  0  0  0
   -8.3496   22.8580  -31.5515 H   0  0  0  0  0  0  0  0  0  0  0  0
  -10.1921   21.1980  -31.7853 H   0  0  0  0  0  0  0  0  0  0  0  0
   -5.4465   19.7431  -32.3542 H   0  0  0  0  0  0  0  0  0  0  0  0
   -5.0949   25.0897  -29.0706 H   0  0  0  0  0  0  0  0  0  0  0  0
   -5.5469   26.2927  -30.3257 H   0  0  0  0  0  0  0  0  0  0  0  0
   -6.3080   24.6656  -30.3257 H   0  0  0  0  0  0  0  0  0  0  0  0
  1  2  1  0
  2  3  1  0
  3  4  2  0
  4  5  1  0
  5  6  2  0
  6  7  1  0
  7  8  1  0
  8  9  1  0
  9 10  1  0
 10 11  2  0
 11 12  1  0
 12 13  2  0
 13 14  1  0
 13 15  1  0
 15 16  1  0
 15 17  2  0
  7 18  2  0
 18 19  1  0
 19 20  1  0
 18  3  1  0
 17 10  1  0
  1 21  1  0
  1 22  1  0
  1 23  1  0
  4 24  1  0
  5 25  1  0
  6 26  1  0
  8 27  1  0
  8 28  1  0
  9 29  1  0
 11 30  1  0
 12 31  1  0
 17 32  1  0
 20 33  1  0
 20 34  1  0
 20 35  1  0
M  END
>  <UniqueID>  (8) 
8

>  <SMILES>  (8) 
COc1cccc(CNc2ccc(F)c(Cl)c2)c1OC

>  <Energy>  (8) 
37.074607999217896

>  <Genealogy>  (8) 
COc1cccc(CNc2ccc(F)c(Cl)c2)c1OC (3D coordinates assigned)
COc1cccc(CNc2ccc(F)c(Cl)c2)c1OC (optimized conformer: 37.074607999217896 kcal/mol)

>  <smiles>  (8) 
COc1cccc(CNc2ccc(F)c(Cl)c2)c1OC

>  <score_type>  (8) 
oracle

>  <origin>  (8) 
adgpu

>  <m_score__min__energy>  (8) 
-8.3800000000000008

>  <m_primary>  (8) 
energy

$$$$
8:0
     RDKit          3D

 56 59  0  0  0  0  0  0  0  0999 V2000
   -6.9190   17.7290  -31.2690 O   0  0  0  0  0  0  0  0  0  0  0  0
   -6.5620   17.8340  -32.4740 C   0  0  0  0  0  0  0  0  0  0  0  0
   -7.1950   18.8090  -33.3210 N   0  0  0  0  0  0  0  0  0  0  0  0
   -7.8720   19.9770  -32.8250 C   0  0  0  0  0  0  0  0  0  0  0  0
   -9.2250   19.9320  -32.4420 C   0  0  0  0  0  0  0  0  0  0  0  0
   -9.8570   21.0750  -31.9470 C   0  0  0  0  0  0  0  0  0  0  0  0
   -9.1440   22.2700  -31.8170 C   0  0  0  0  0  0  0  0  0  0  0  0
   -7.7880   22.3250  -32.1690 C   0  0  0  0  0  0  0  0  0  0  0  0
   -7.0300   23.6230  -32.0440 C   0  0  0  0  0  0  0  0  0  0  0  0
   -6.2140   23.6410  -30.8110 N   0  0  0  0  0  0  0  0  0  0  0  0
   -5.2070   22.5500  -30.8090 C   0  0  0  0  0  0  0  0  0  0  0  0
   -3.8080   23.0450  -31.2130 C   0  0  0  0  0  0  0  0  0  0  0  0
   -3.3030   24.1090  -30.3080 N   0  0  0  0  0  0  0  0  0  0  0  0
   -2.3680   23.5640  -29.3000 C   0  0  0  0  0  0  0  0  0  0  0  0
   -2.1000   24.5720  -28.2110 C   0  0  0  0  0  0  0  0  0  0  0  0
   -2.7960   24.4920  -26.9930 C   0  0  0  0  0  0  0  0  0  0  0  0
   -2.5340   25.4090  -25.9710 C   0  0  0  0  0  0  0  0  0  0  0  0
   -1.5730   26.4070  -26.1550 C   0  0  0  0  0  0  0  0  0  0  0  0
   -0.8710   26.4880  -27.3610 C   0  0  0  0  0  0  0  0  0  0  0  0
   -1.1300   25.5730  -28.3860 C   0  0  0  0  0  0  0  0  0  0  0  0
   -4.3880   24.8970  -29.6710 C   0  0  0  0  0  0  0  0  0  0  0  0
   -5.6230   24.9820  -30.5740 C   0  0  0  0  0  0  0  0  0  0  0  0
   -7.1570   21.1750  -32.6710 C   0  0  0  0  0  0  0  0  0  0  0  0
   -5.5320   16.9150  -33.0140 C   0  0  0  0  0  0  0  0  0  0  0  0
   -4.8750   17.1960  -34.2270 C   0  0  0  0  0  0  0  0  0  0  0  0
   -3.8990   16.3260  -34.7220 C   0  0  0  0  0  0  0  0  0  0  0  0
   -3.5640   15.1700  -34.0130 C   0  0  0  0  0  0  0  0  0  0  0  0
   -4.2000   14.8830  -32.8030 C   0  0  0  0  0  0  0  0  0  0  0  0
   -3.7740   13.4350  -31.9100 Cl  0  0  0  0  0  0  0  0  0  0  0  0
   -5.1770   15.7520  -32.3030 C   0  0  0  0  0  0  0  0  0  0  0  0
   -7.2630   18.6020  -34.3430 H   0  0  0  0  0  0  0  0  0  0  0  0
   -9.7882   18.9915  -32.5329 H   0  0  0  0  0  0  0  0  0  0  0  0
  -10.9178   21.0346  -31.6590 H   0  0  0  0  0  0  0  0  0  0  0  0
   -9.6485   23.1706  -31.4371 H   0  0  0  0  0  0  0  0  0  0  0  0
   -6.3686   23.7392  -32.9153 H   0  0  0  0  0  0  0  0  0  0  0  0
   -7.7541   24.4498  -31.9983 H   0  0  0  0  0  0  0  0  0  0  0  0
   -5.1520   22.1215  -29.7974 H   0  0  0  0  0  0  0  0  0  0  0  0
   -5.5239   21.7987  -31.5473 H   0  0  0  0  0  0  0  0  0  0  0  0
   -3.1101   22.1952  -31.1838 H   0  0  0  0  0  0  0  0  0  0  0  0
   -3.8810   23.4706  -32.2247 H   0  0  0  0  0  0  0  0  0  0  0  0
   -2.8075   22.6600  -28.8532 H   0  0  0  0  0  0  0  0  0  0  0  0
   -1.4167   23.3243  -29.7976 H   0  0  0  0  0  0  0  0  0  0  0  0
   -3.5497   23.7050  -26.8432 H   0  0  0  0  0  0  0  0  0  0  0  0
   -3.0848   25.3451  -25.0210 H   0  0  0  0  0  0  0  0  0  0  0  0
   -1.3690   27.1289  -25.3505 H   0  0  0  0  0  0  0  0  0  0  0  0
   -0.1136   27.2728  -27.5039 H   0  0  0  0  0  0  0  0  0  0  0  0
   -0.5726   25.6371  -29.3322 H   0  0  0  0  0  0  0  0  0  0  0  0
   -4.6705   24.4157  -28.7231 H   0  0  0  0  0  0  0  0  0  0  0  0
   -4.0169   25.9176  -29.4959 H   0  0  0  0  0  0  0  0  0  0  0  0
   -6.3749   25.6245  -30.0925 H   0  0  0  0  0  0  0  0  0  0  0  0
   -5.3149   25.4008  -31.5434 H   0  0  0  0  0  0  0  0  0  0  0  0
   -6.0926   21.2135  -32.9460 H   0  0  0  0  0  0  0  0  0  0  0  0
   -5.1313   18.1062  -34.7891 H   0  0  0  0  0  0  0  0  0  0  0  0
   -3.3935   16.5524  -35.6724 H   0  0  0  0  0  0  0  0  0  0  0  0
   -2.7989   14.4853  -34.4078 H   0  0  0  0  0  0  0  0  0  0  0  0
   -5.6715   15.5248  -31.3471 H   0  0  0  0  0  0  0  0  0  0  0  0
  1  2  2  0
  2  3  1  0
  3  4  1  0
  4  5  2  0
  5  6  1  0
  6  7  2  0
  7  8  1  0
  8  9  1  0
  9 10  1  0
 10 11  1  0
 11 12  1  0
 12 13  1  0
 13 14  1  0
 14 15  1  0
 15 16  2  0
 16 17  1  0
 17 18  2  0
 18 19  1  0
 19 20  2  0
 13 21  1  0
 21 22  1  0
  8 23  2  0
  2 24  1  0
 24 25  2  0
 25 26  1  0
 26 27  2  0
 27 28  1  0
 28 29  1  0
 28 30  2  0
 23  4  1  0
 30 24  1  0
 22 10  1  0
 20 15  1  0
  3 31  1  0
  5 32  1  0
  6 33  1  0
  7 34  1  0
  9 35  1  0
  9 36  1  0
 11 37  1  0
 11 38  1  0
 12 39  1  0
 12 40  1  0
 14 41  1  0
 14 42  1  0
 16 43  1  0
 17 44  1  0
 18 45  1  0
 19 46  1  0
 20 47  1  0
 21 48  1  0
 21 49  1  0
 22 50  1  0
 22 51  1  0
 23 52  1  0
 25 53  1  0
 26 54  1  0
 27 55  1  0
 30 56  1  0
M  END
>  <UniqueID>  (9) 
9

>  <SMILES>  (9) 
O=C(Nc1cccc(CN2CCN(Cc3ccccc3)CC2)c1)c1cccc(Cl)c1

>  <Energy>  (9) 
77.95709263683281

>  <Genealogy>  (9) 
O=C(Nc1cccc(CN2CCN(Cc3ccccc3)CC2)c1)c1cccc(Cl)c1 (3D coordinates assigned)
O=C(Nc1cccc(CN2CCN(Cc3ccccc3)CC2)c1)c1cccc(Cl)c1 (nonaromatic ring conformer: 77.95709263683281 kcal/mol)

>  <smiles>  (9) 
O=C(Nc1cccc(CN2CCN(Cc3ccccc3)CC2)c1)c1cccc(Cl)c1

>  <score_type>  (9) 
oracle

>  <origin>  (9) 
adgpu

>  <m_score__min__energy>  (9) 
-10.23

>  <m_primary>  (9) 
energy

$$$$
9:0
     RDKit          3D

 29 30  0  0  0  0  0  0  0  0999 V2000
   -2.3600   24.9340  -29.6880 N   0  0  0  0  0  0  0  0  0  0  0  0
   -2.6460   23.5300  -29.6460 C   0  0  0  0  0  0  0  0  0  0  0  0
   -1.6990   22.6640  -29.0740 C   0  0  0  0  0  0  0  0  0  0  0  0
   -1.9320   21.2880  -29.0260 C   0  0  0  0  0  0  0  0  0  0  0  0
   -3.1100   20.7600  -29.5480 C   0  0  0  0  0  0  0  0  0  0  0  0
   -4.0650   21.6070  -30.1170 C   0  0  0  0  0  0  0  0  0  0  0  0
   -3.8500   22.9940  -30.1690 C   0  0  0  0  0  0  0  0  0  0  0  0
   -5.1100   24.0270  -30.8590 S   0  0  0  0  0  0  0  0  0  0  0  0
   -6.2110   24.1890  -29.8490 O   0  0  0  0  0  0  0  0  0  0  0  0
   -4.5670   25.3880  -31.1960 O   0  0  0  0  0  0  0  0  0  0  0  0
   -5.7530   23.3050  -32.3020 N   0  0  0  0  0  0  0  0  0  0  0  0
   -6.7360   22.2550  -32.2950 C   0  0  0  0  0  0  0  0  0  0  0  0
   -8.0500   22.4720  -31.8390 C   0  0  0  0  0  0  0  0  0  0  0  0
   -8.9830   21.4300  -31.8500 C   0  0  0  0  0  0  0  0  0  0  0  0
   -8.6140   20.1640  -32.3090 C   0  0  0  0  0  0  0  0  0  0  0  0
   -9.5230   19.1570  -32.3180 F   0  0  0  0  0  0  0  0  0  0  0  0
   -7.3090   19.9350  -32.7530 C   0  0  0  0  0  0  0  0  0  0  0  0
   -6.9470   18.7040  -33.1940 F   0  0  0  0  0  0  0  0  0  0  0  0
   -6.3740   20.9740  -32.7420 C   0  0  0  0  0  0  0  0  0  0  0  0
   -3.1070   25.6590  -29.7330 H   0  0  0  0  0  0  0  0  0  0  0  0
   -1.3710   25.2700  -29.7080 H   0  0  0  0  0  0  0  0  0  0  0  0
   -0.7657   23.0736  -28.6603 H   0  0  0  0  0  0  0  0  0  0  0  0
   -1.1835   20.6199  -28.5750 H   0  0  0  0  0  0  0  0  0  0  0  0
   -3.2891   19.6753  -29.5125 H   0  0  0  0  0  0  0  0  0  0  0  0
   -4.9934   21.1836  -30.5278 H   0  0  0  0  0  0  0  0  0  0  0  0
   -5.4940   23.7500  -33.2100 H   0  0  0  0  0  0  0  0  0  0  0  0
   -8.3446   23.4663  -31.4721 H   0  0  0  0  0  0  0  0  0  0  0  0
  -10.0093   21.6082  -31.4964 H   0  0  0  0  0  0  0  0  0  0  0  0
   -5.3462   20.7866  -33.0863 H   0  0  0  0  0  0  0  0  0  0  0  0
  1  2  1  0
  2  3  2  0
  3  4  1  0
  4  5  2  0
  5  6  1  0
  6  7  2  0
  7  8  1  0
  8  9  2  0
  8 10  2  0
  8 11  1  0
 11 12  1  0
 12 13  2  0
 13 14  1  0
 14 15  2  0
 15 16  1  0
 15 17  1  0
 17 18  1  0
 17 19  2  0
  7  2  1  0
 19 12  1  0
  1 20  1  0
  1 21  1  0
  3 22  1  0
  4 23  1  0
  5 24  1  0
  6 25  1  0
 11 26  1  0
 13 27  1  0
 14 28  1  0
 19 29  1  0
M  END
>  <UniqueID>  (10) 
10

>  <SMILES>  (10) 
Nc1ccccc1S(=O)(=O)Nc1ccc(F)c(F)c1

>  <Energy>  (10) 
33.82580626662986

>  <Genealogy>  (10) 
Nc1ccccc1S(=O)(=O)Nc1ccc(F)c(F)c1 (3D coordinates assigned)
Nc1ccccc1S(=O)(=O)Nc1ccc(F)c(F)c1 (optimized conformer: 33.82580626662986 kcal/mol)

>  <smiles>  (10) 
Nc1ccccc1S(=O)(=O)Nc1ccc(F)c(F)c1

>  <score_type>  (10) 
oracle

>  <origin>  (10) 
adgpu

>  <m_score__min__energy>  (10) 
-7.75

>  <m_primary>  (10) 
energy

$$$$
10:0
     RDKit          3D

 33 34  0  0  0  0  0  0  0  0999 V2000
   -3.4940   25.2700  -30.4960 N   0  0  0  0  0  0  0  0  0  0  0  0
   -5.1220   24.7690  -30.2060 S   0  0  0  0  0  0  0  0  0  0  0  0
   -6.0700   25.8090  -30.7330 O   0  0  0  0  0  0  0  0  0  0  0  0
   -5.3450   24.6160  -28.7270 O   0  0  0  0  0  0  0  0  0  0  0  0
   -5.4120   23.2330  -31.0150 C   0  0  0  0  0  0  0  0  0  0  0  0
   -6.7170   22.8410  -31.3380 C   0  0  0  0  0  0  0  0  0  0  0  0
   -6.9480   21.6150  -31.9690 C   0  0  0  0  0  0  0  0  0  0  0  0
   -5.8790   20.7590  -32.2720 C   0  0  0  0  0  0  0  0  0  0  0  0
   -6.1440   19.5020  -32.9150 N   0  0  0  0  0  0  0  0  0  0  0  0
   -5.0450   18.7550  -34.0330 S   0  0  0  0  0  0  0  0  0  0  0  0
   -5.7120   18.6250  -35.3720 O   0  0  0  0  0  0  0  0  0  0  0  0
   -3.8350   19.6320  -34.1970 O   0  0  0  0  0  0  0  0  0  0  0  0
   -4.5760   17.1420  -33.4670 C   0  0  0  0  0  0  0  0  0  0  0  0
   -3.4510   16.5280  -34.0420 C   0  0  0  0  0  0  0  0  0  0  0  0
   -3.0740   15.2370  -33.6700 C   0  0  0  0  0  0  0  0  0  0  0  0
   -3.8250   14.5350  -32.7290 C   0  0  0  0  0  0  0  0  0  0  0  0
   -4.9500   15.1240  -32.1540 C   0  0  0  0  0  0  0  0  0  0  0  0
   -5.3360   16.4300  -32.5020 C   0  0  0  0  0  0  0  0  0  0  0  0
   -6.4970   17.0040  -31.8790 N   0  0  0  0  0  0  0  0  0  0  0  0
   -6.3780   17.6460  -30.8150 O   0  0  0  0  0  0  0  0  0  0  0  0
   -7.6930   17.0570  -32.5530 O   0  0  0  0  0  0  0  0  0  0  0  0
   -4.5700   21.1610  -31.9570 C   0  0  0  0  0  0  0  0  0  0  0  0
   -4.3400   22.3870  -31.3260 C   0  0  0  0  0  0  0  0  0  0  0  0
   -3.5290   26.0130  -31.2300 H   0  0  0  0  0  0  0  0  0  0  0  0
   -7.5634   23.5000  -31.0944 H   0  0  0  0  0  0  0  0  0  0  0  0
   -7.9751   21.3197  -32.2296 H   0  0  0  0  0  0  0  0  0  0  0  0
   -6.9460   18.9230  -32.5790 H   0  0  0  0  0  0  0  0  0  0  0  0
   -2.8603   17.0712  -34.7943 H   0  0  0  0  0  0  0  0  0  0  0  0
   -2.1837   14.7732  -34.1197 H   0  0  0  0  0  0  0  0  0  0  0  0
   -3.5298   13.5156  -32.4399 H   0  0  0  0  0  0  0  0  0  0  0  0
   -5.5429   14.5599  -31.4190 H   0  0  0  0  0  0  0  0  0  0  0  0
   -3.7216   20.5074  -32.2083 H   0  0  0  0  0  0  0  0  0  0  0  0
   -3.3129   22.6885  -31.0727 H   0  0  0  0  0  0  0  0  0  0  0  0
  1  2  1  0
  2  3  2  0
  2  4  2  0
  2  5  1  0
  5  6  2  0
  6  7  1  0
  7  8  2  0
  8  9  1  0
  9 10  1  0
 10 11  2  0
 10 12  2  0
 10 13  1  0
 13 14  2  0
 14 15  1  0
 15 16  2  0
 16 17  1  0
 17 18  2  0
 18 19  1  0
 19 20  2  0
 19 21  1  0
  8 22  1  0
 22 23  2  0
 23  5  1  0
 18 13  1  0
  1 24  1  0
  6 25  1  0
  7 26  1  0
  9 27  1  0
 14 28  1  0
 15 29  1  0
 16 30  1  0
 17 31  1  0
 22 32  1  0
 23 33  1  0
M  CHG  3   1  -1  19   1  21  -1
M  END
>  <UniqueID>  (11) 
11

>  <SMILES>  (11) 
[NH-]S(=O)(=O)c1ccc(NS(=O)(=O)c2ccccc2[N+](=O)[O-])cc1

>  <Energy>  (11) 
43.27511875657164

>  <Genealogy>  (11) 
[NH-]S(=O)(=O)c1ccc(NS(=O)(=O)c2ccccc2[N+](=O)[O-])cc1 (protonated)
[NH-]S(=O)(=O)c1ccc(NS(=O)(=O)c2ccccc2[N+](=O)[O-])cc1 (3D coordinates assigned)
[NH-]S(=O)(=O)c1ccc(NS(=O)(=O)c2ccccc2[N+](=O)[O-])cc1 (optimized conformer: 43.27511875657164 kcal/mol)

>  <smiles>  (11) 
NS(=O)(=O)c1ccc(NS(=O)(=O)c2ccccc2[N+](=O)[O-])cc1

>  <score_type>  (11) 
oracle

>  <origin>  (11) 
adgpu

>  <m_score__min__energy>  (11) 
-10.44

>  <m_primary>  (11) 
energy

$$$$
11:0
     RDKit          3D

 25 26  0  0  0  0  0  0  0  0999 V2000
   -0.3087   25.7786  -28.1387 H   0  0  0  0  0  0  0  0  0  0  0  0
   -1.2250   25.1770  -28.2300 C   0  0  0  0  0  0  0  0  0  0  0  0
   -2.0050   25.2930  -29.3370 N   0  0  0  0  0  0  0  0  0  0  0  0
   -3.1440   24.5660  -29.5040 C   0  0  0  0  0  0  0  0  0  0  0  0
   -3.8420   24.7460  -30.5910 N   0  0  0  0  0  0  0  0  0  0  0  0
   -5.0170   24.0300  -31.0050 C   0  0  0  0  0  0  0  0  0  0  0  0
   -4.9150   22.9470  -31.8960 C   0  0  0  0  0  0  0  0  0  0  0  0
   -3.9252   22.6182  -32.2456 H   0  0  0  0  0  0  0  0  0  0  0  0
   -6.0630   22.2860  -32.3400 C   0  0  0  0  0  0  0  0  0  0  0  0
   -5.9740   21.4293  -33.0242 H   0  0  0  0  0  0  0  0  0  0  0  0
   -7.3230   22.7120  -31.9160 C   0  0  0  0  0  0  0  0  0  0  0  0
   -8.2254   22.1850  -32.2593 H   0  0  0  0  0  0  0  0  0  0  0  0
   -7.4390   23.8070  -31.0560 C   0  0  0  0  0  0  0  0  0  0  0  0
   -8.4346   24.1438  -30.7314 H   0  0  0  0  0  0  0  0  0  0  0  0
   -6.2920   24.4810  -30.6030 C   0  0  0  0  0  0  0  0  0  0  0  0
   -6.4270   25.6640  -29.6850 C   0  0  0  0  0  0  0  0  0  0  0  0
   -6.3881   25.3234  -28.6398 H   0  0  0  0  0  0  0  0  0  0  0  0
   -5.6035   26.3689  -29.8718 H   0  0  0  0  0  0  0  0  0  0  0  0
   -7.3882   26.1653  -29.8718 H   0  0  0  0  0  0  0  0  0  0  0  0
   -3.5460   23.6800  -28.4820 C   0  0  0  0  0  0  0  0  0  0  0  0
   -4.4740   23.0984  -28.5851 H   0  0  0  0  0  0  0  0  0  0  0  0
   -2.7550   23.5480  -27.3380 C   0  0  0  0  0  0  0  0  0  0  0  0
   -3.0548   22.8543  -26.5387 H   0  0  0  0  0  0  0  0  0  0  0  0
   -1.5840   24.2970  -27.2100 C   0  0  0  0  0  0  0  0  0  0  0  0
   -0.9523   24.1942  -26.3154 H   0  0  0  0  0  0  0  0  0  0  0  0
  1  2  1  0
  2  3  1  0
  3  4  1  0
  4  5  2  0
  5  6  1  0
  6  7  2  0
  7  8  1  0
  7  9  1  0
  9 10  1  0
  9 11  2  0
 11 12  1  0
 11 13  1  0
 13 14  1  0
 13 15  2  0
 15 16  1  0
 16 17  1  0
 16 18  1  0
 16 19  1  0
  4 20  1  0
 20 21  1  0
 20 22  2  0
 22 23  1  0
 22 24  1  0
 24 25  1  0
 24  2  2  0
 15  6  1  0
M  CHG  1   3  -1
M  END
>  <UniqueID>  (12) 
12

>  <SMILES>  (12) 
Cc1ccccc1/N=c1\cccc[n-]1

>  <Energy>  (12) 
35.81237054266723

>  <Genealogy>  (12) 
Cc1ccccc1N=c1cccc[n-]1 (protonated)
Cc1ccccc1/N=c1\cccc[n-]1 (cis-trans isomerization)
Cc1ccccc1/N=c1\cccc[n-]1 (3D coordinates assigned)
Cc1ccccc1/N=c1\cccc[n-]1 (optimized conformer: 35.81237054266723 kcal/mol)

>  <smiles>  (12) 
Cc1ccccc1N=c1cccc[nH]1

>  <score_type>  (12) 
oracle

>  <origin>  (12) 
adgpu

>  <m_score__min__energy>  (12) 
-8.2699999999999996

>  <m_primary>  (12) 
energy

$$$$
12:0
     RDKit          3D

 37 39  0  0  0  0  0  0  0  0999 V2000
   -6.4452   24.9435  -30.3967 H   0  0  0  0  0  0  0  0  0  0  0  0
   -6.5650   23.9540  -30.8620 C   0  0  0  0  0  0  0  0  0  0  0  0
   -7.9280   23.4140  -31.6920 S   0  0  0  0  0  0  0  0  0  0  0  0
   -7.2540   21.9170  -32.0320 C   0  0  0  0  0  0  0  0  0  0  0  0
   -7.8730   20.9860  -32.6960 N   0  0  0  0  0  0  0  0  0  0  0  0
   -7.2990   19.7160  -33.0350 C   0  0  0  0  0  0  0  0  0  0  0  0
   -6.1840   19.6840  -33.8820 C   0  0  0  0  0  0  0  0  0  0  0  0
   -5.7632   20.6246  -34.2670 H   0  0  0  0  0  0  0  0  0  0  0  0
   -5.6030   18.4660  -34.2410 C   0  0  0  0  0  0  0  0  0  0  0  0
   -4.7310   18.4489  -34.9113 H   0  0  0  0  0  0  0  0  0  0  0  0
   -6.1290   17.2700  -33.7490 C   0  0  0  0  0  0  0  0  0  0  0  0
   -5.6790   16.3104  -34.0435 H   0  0  0  0  0  0  0  0  0  0  0  0
   -7.2250   17.2890  -32.8840 C   0  0  0  0  0  0  0  0  0  0  0  0
   -7.6354   16.3428  -32.5015 H   0  0  0  0  0  0  0  0  0  0  0  0
   -7.8070   18.5080  -32.4990 C   0  0  0  0  0  0  0  0  0  0  0  0
   -8.9770   18.4990  -31.5510 C   0  0  0  0  0  0  0  0  0  0  0  0
   -8.6090   18.5018  -30.5144 H   0  0  0  0  0  0  0  0  0  0  0  0
   -9.5952   19.3924  -31.7231 H   0  0  0  0  0  0  0  0  0  0  0  0
   -9.5814   17.5962  -31.7231 H   0  0  0  0  0  0  0  0  0  0  0  0
   -6.0080   21.8000  -31.5170 N   0  0  0  0  0  0  0  0  0  0  0  0
   -5.4120   20.9480  -31.6150 H   0  0  0  0  0  0  0  0  0  0  0  0
   -5.6120   22.9310  -30.8650 C   0  0  0  0  0  0  0  0  0  0  0  0
   -4.2840   23.0520  -30.2120 C   0  0  0  0  0  0  0  0  0  0  0  0
   -3.5410   21.9020  -29.8920 C   0  0  0  0  0  0  0  0  0  0  0  0
   -3.9466   20.9067  -30.1263 H   0  0  0  0  0  0  0  0  0  0  0  0
   -2.2920   22.0150  -29.2790 C   0  0  0  0  0  0  0  0  0  0  0  0
   -1.7184   21.1096  -29.0317 H   0  0  0  0  0  0  0  0  0  0  0  0
   -1.7690   23.2740  -28.9790 C   0  0  0  0  0  0  0  0  0  0  0  0
   -0.7834   23.3548  -28.4973 H   0  0  0  0  0  0  0  0  0  0  0  0
   -2.4880   24.4330  -29.2860 C   0  0  0  0  0  0  0  0  0  0  0  0
   -1.9180   25.6740  -28.9650 O   0  0  0  0  0  0  0  0  0  0  0  0
   -1.2370   25.9560  -27.7470 C   0  0  0  0  0  0  0  0  0  0  0  0
   -1.8814   25.6892  -26.8964 H   0  0  0  0  0  0  0  0  0  0  0  0
   -0.3081   25.3685  -27.7018 H   0  0  0  0  0  0  0  0  0  0  0  0
   -0.9953   27.0282  -27.7018 H   0  0  0  0  0  0  0  0  0  0  0  0
   -3.7490   24.3180  -29.9040 C   0  0  0  0  0  0  0  0  0  0  0  0
   -4.3209   25.2253  -30.1482 H   0  0  0  0  0  0  0  0  0  0  0  0
  1  2  1  0
  2  3  1  0
  3  4  1  0
  4  5  2  0
  5  6  1  0
  6  7  2  0
  7  8  1  0
  7  9  1  0
  9 10  1  0
  9 11  2  0
 11 12  1  0
 11 13  1  0
 13 14  1  0
 13 15  2  0
 15 16  1  0
 16 17  1  0
 16 18  1  0
 16 19  1  0
  4 20  1  0
 20 21  1  0
 20 22  1  0
 22 23  1  0
 23 24  2  0
 24 25  1  0
 24 26  1  0
 26 27  1  0
 26 28  2  0
 28 29  1  0
 28 30  1  0
 30 31  1  0
 31 32  1  0
 32 33  1  0
 32 34  1  0
 32 35  1  0
 30 36  2  0
 36 37  1  0
 22  2  2  0
 36 23  1  0
 15  6  1  0
M  END
>  <UniqueID>  (13) 
13

>  <SMILES>  (13) 
COc1cccc(-c2cs/c(=N/c3ccccc3C)[nH]2)c1

>  <Energy>  (13) 
80.22567740308511

>  <Genealogy>  (13) 
COc1cccc(-c2cs/c(=N/c3ccccc3C)[nH]2)c1 (cis-trans isomerization)
COc1cccc(-c2cs/c(=N/c3ccccc3C)[nH]2)c1 (3D coordinates assigned)
COc1cccc(-c2cs/c(=N/c3ccccc3C)[nH]2)c1 (optimized conformer: 80.22567740308511 kcal/mol)

>  <smiles>  (13) 
COc1cccc(-c2csc(=Nc3ccccc3C)[nH]2)c1

>  <score_type>  (13) 
oracle

>  <origin>  (13) 
adgpu

>  <m_score__min__energy>  (13) 
-8.4900000000000002

>  <m_primary>  (13) 
energy

$$$$
13:0
     RDKit          3D

 33 34  0  0  0  0  0  0  0  0999 V2000
   -8.9000   18.5380  -31.6580 C   0  0  0  0  0  0  0  0  0  0  0  0
   -8.2340   19.8210  -32.0470 C   0  0  0  0  0  0  0  0  0  0  0  0
   -8.5580   21.0750  -31.5720 C   0  0  0  0  0  0  0  0  0  0  0  0
   -7.6360   21.9110  -32.1770 C   0  0  0  0  0  0  0  0  0  0  0  0
   -7.5020   23.3810  -31.9430 C   0  0  0  0  0  0  0  0  0  0  0  0
   -6.1820   23.8290  -32.3870 N   0  0  0  0  0  0  0  0  0  0  0  0
   -5.0830   23.8460  -31.0410 S   0  0  0  0  0  0  0  0  0  0  0  0
   -4.5010   25.2250  -30.8870 O   0  0  0  0  0  0  0  0  0  0  0  0
   -5.8270   23.4830  -29.7880 O   0  0  0  0  0  0  0  0  0  0  0  0
   -3.7950   22.6720  -31.2990 C   0  0  0  0  0  0  0  0  0  0  0  0
   -2.6600   22.6670  -30.4760 C   0  0  0  0  0  0  0  0  0  0  0  0
   -1.6430   21.7320  -30.6880 C   0  0  0  0  0  0  0  0  0  0  0  0
   -1.7540   20.7970  -31.7210 C   0  0  0  0  0  0  0  0  0  0  0  0
   -2.8870   20.7930  -32.5420 C   0  0  0  0  0  0  0  0  0  0  0  0
   -3.0290   19.6180  -33.8370 Cl  0  0  0  0  0  0  0  0  0  0  0  0
   -3.9070   21.7280  -32.3300 C   0  0  0  0  0  0  0  0  0  0  0  0
   -6.7910   21.1940  -32.9450 N   0  0  0  0  0  0  0  0  0  0  0  0
   -7.1650   19.9280  -32.8640 N   0  0  0  0  0  0  0  0  0  0  0  0
   -6.4850   18.8380  -33.5540 C   0  0  0  0  0  0  0  0  0  0  0  0
   -8.9390   18.4629  -30.5613 H   0  0  0  0  0  0  0  0  0  0  0  0
   -9.9224   18.5179  -32.0635 H   0  0  0  0  0  0  0  0  0  0  0  0
   -8.3281   17.6904  -32.0635 H   0  0  0  0  0  0  0  0  0  0  0  0
   -9.3631   21.3474  -30.8737 H   0  0  0  0  0  0  0  0  0  0  0  0
   -8.2796   23.9145  -32.5094 H   0  0  0  0  0  0  0  0  0  0  0  0
   -7.6184   23.5928  -30.8699 H   0  0  0  0  0  0  0  0  0  0  0  0
   -5.8120   23.1280  -33.0700 H   0  0  0  0  0  0  0  0  0  0  0  0
   -2.5697   23.4007  -29.6615 H   0  0  0  0  0  0  0  0  0  0  0  0
   -0.7536   21.7320  -30.0407 H   0  0  0  0  0  0  0  0  0  0  0  0
   -0.9507   20.0644  -31.8885 H   0  0  0  0  0  0  0  0  0  0  0  0
   -4.7988   21.7222  -32.9739 H   0  0  0  0  0  0  0  0  0  0  0  0
   -6.0543   18.1476  -32.8138 H   0  0  0  0  0  0  0  0  0  0  0  0
   -7.2059   18.2967  -34.1843 H   0  0  0  0  0  0  0  0  0  0  0  0
   -5.6819   19.2475  -34.1843 H   0  0  0  0  0  0  0  0  0  0  0  0
  1  2  1  0
  2  3  2  0
  3  4  1  0
  4  5  1  0
  5  6  1  0
  6  7  1  0
  7  8  2  0
  7  9  2  0
  7 10  1  0
 10 11  2  0
 11 12  1  0
 12 13  2  0
 13 14  1  0
 14 15  1  0
 14 16  2  0
  4 17  2  0
 17 18  1  0
 18 19  1  0
 18  2  1  0
 16 10  1  0
  1 20  1  0
  1 21  1  0
  1 22  1  0
  3 23  1  0
  5 24  1  0
  5 25  1  0
  6 26  1  0
 11 27  1  0
 12 28  1  0
 13 29  1  0
 16 30  1  0
 19 31  1  0
 19 32  1  0
 19 33  1  0
M  END
>  <UniqueID>  (14) 
14

>  <SMILES>  (14) 
Cc1cc(CNS(=O)(=O)c2cccc(Cl)c2)nn1C

>  <Energy>  (14) 
57.1179657246477

>  <Genealogy>  (14) 
Cc1cc(CNS(=O)(=O)c2cccc(Cl)c2)nn1C (3D coordinates assigned)
Cc1cc(CNS(=O)(=O)c2cccc(Cl)c2)nn1C (optimized conformer: 57.1179657246477 kcal/mol)

>  <smiles>  (14) 
Cc1cc(CNS(=O)(=O)c2cccc(Cl)c2)nn1C

>  <score_type>  (14) 
oracle

>  <origin>  (14) 
adgpu

>  <m_score__min__energy>  (14) 
-8.3399999999999999

>  <m_primary>  (14) 
energy

$$$$
14:0
     RDKit          3D

 34 36  0  0  1  0  0  0  0  0999 V2000
   -3.3940   20.9350  -27.4710 C   0  0  0  0  0  0  0  0  0  0  0  0
   -3.0990   22.2340  -28.1680 C   0  0  0  0  0  0  0  0  0  0  0  0
   -3.8740   22.6330  -29.2430 C   0  0  0  0  0  0  0  0  0  0  0  0
   -3.5470   23.8390  -29.8380 C   0  0  0  0  0  0  0  0  0  0  0  0
   -4.2470   24.2460  -30.8440 N   0  0  0  0  0  0  0  0  0  0  0  0
   -5.3190   23.4100  -31.2700 C   0  0  0  0  0  0  0  0  0  0  0  0
   -6.5890   23.7410  -30.8120 C   0  0  0  0  0  0  0  0  0  0  0  0
   -6.8320   25.1250  -29.7640 Cl  0  0  0  0  0  0  0  0  0  0  0  0
   -7.7000   23.0030  -31.1600 C   0  0  0  0  0  0  0  0  0  0  0  0
   -7.5040   21.9130  -31.9860 C   0  0  0  0  0  0  0  0  0  0  0  0
   -6.2410   21.5900  -32.4370 C   0  0  0  0  0  0  0  0  0  0  0  0
   -5.1230   22.3210  -32.0960 C   0  0  0  0  0  0  0  0  0  0  0  0
   -3.5130   21.9220  -32.6600 Cl  0  0  0  0  0  0  0  0  0  0  0  0
   -2.5050   24.5710  -29.3600 N   0  0  0  0  0  0  0  0  0  0  0  0
   -1.7560   24.1770  -28.3150 C   0  0  0  0  0  0  0  0  0  0  0  0
   -0.6550   25.0150  -27.8590 C   0  0  0  0  0  0  0  0  0  0  0  0
   -0.8220   26.3100  -27.4190 C   0  0  0  0  0  0  0  0  0  0  0  0
    0.2370   27.0800  -26.9930 C   0  0  0  0  0  0  0  0  0  0  0  0
    1.5160   26.5460  -27.0020 C   0  0  0  0  0  0  0  0  0  0  0  0
    1.6480   25.2800  -27.4350 N   0  0  0  0  0  0  0  0  0  0  0  0
    0.6290   24.5150  -27.8540 C   0  0  0  0  0  0  0  0  0  0  0  0
   -2.0810   23.0060  -27.7450 N   0  0  0  0  0  0  0  0  0  0  0  0
   -3.3595   21.0871  -26.3821 H   0  0  0  0  0  0  0  0  0  0  0  0
   -4.3950   20.5827  -27.7605 H   0  0  0  0  0  0  0  0  0  0  0  0
   -2.6433   20.1848  -27.7605 H   0  0  0  0  0  0  0  0  0  0  0  0
   -4.7113   22.0198  -29.6077 H   0  0  0  0  0  0  0  0  0  0  0  0
   -8.7023   23.2711  -30.7947 H   0  0  0  0  0  0  0  0  0  0  0  0
   -8.3638   21.2965  -32.2871 H   0  0  0  0  0  0  0  0  0  0  0  0
   -6.1214   20.7158  -33.0938 H   0  0  0  0  0  0  0  0  0  0  0  0
   -1.8334   26.7424  -27.4077 H   0  0  0  0  0  0  0  0  0  0  0  0
    0.0693   28.1110  -26.6482 H   0  0  0  0  0  0  0  0  0  0  0  0
    2.3852   27.1324  -26.6694 H   0  0  0  0  0  0  0  0  0  0  0  0
    0.8187   23.4863  -28.1943 H   0  0  0  0  0  0  0  0  0  0  0  0
   -1.5390   22.6460  -26.9310 H   0  0  0  0  0  0  0  0  0  0  0  0
  1  2  1  0
  2  3  2  0
  3  4  1  0
  4  5  2  0
  5  6  1  0
  6  7  2  0
  7  8  1  0
  7  9  1  0
  9 10  2  0
 10 11  1  0
 11 12  2  0
 12 13  1  0
  4 14  1  0
 14 15  2  0
 15 16  1  0
 16 17  2  0
 17 18  1  0
 18 19  2  0
 19 20  1  0
 20 21  2  0
 15 22  1  0
 22  2  1  0
 12  6  1  0
 21 16  1  0
  1 23  1  0
  1 24  1  0
  1 25  1  0
  3 26  1  0
  9 27  1  0
 10 28  1  0
 11 29  1  0
 17 30  1  0
 18 31  1  0
 19 32  1  0
 21 33  1  0
 22 34  1  0
M  END
>  <smiles>  (15) 
Cc1cc(=Nc2c(Cl)cccc2Cl)nc(-c2cccnc2)[nH]1

>  <score_type>  (15) 
oracle

>  <origin>  (15) 
adgpu

>  <m_score__min__energy>  (15) 
-7.7300000000000004

>  <m_primary>  (15) 
energy

$$$$
15:0
     RDKit          3D

 24 25  0  0  0  0  0  0  0  0999 V2000
   -5.6450   26.1600  -30.4910 O   0  0  0  0  0  0  0  0  0  0  0  0
   -4.9830   25.1120  -30.7130 C   0  0  0  0  0  0  0  0  0  0  0  0
   -3.5700   25.1290  -30.4680 N   0  0  0  0  0  0  0  0  0  0  0  0
   -2.8980   24.5380  -29.3450 C   0  0  0  0  0  0  0  0  0  0  0  0
   -3.5300   23.5130  -28.6340 C   0  0  0  0  0  0  0  0  0  0  0  0
   -2.8860   22.9150  -27.5490 C   0  0  0  0  0  0  0  0  0  0  0  0
   -1.6040   23.3390  -27.1970 C   0  0  0  0  0  0  0  0  0  0  0  0
   -0.9900   24.3200  -27.9120 N   0  0  0  0  0  0  0  0  0  0  0  0
   -1.5990   24.9200  -28.9700 C   0  0  0  0  0  0  0  0  0  0  0  0
   -5.6720   23.9220  -31.2680 C   0  0  0  0  0  0  0  0  0  0  0  0
   -4.9250   22.8730  -31.8310 C   0  0  0  0  0  0  0  0  0  0  0  0
   -5.5670   21.7450  -32.3510 C   0  0  0  0  0  0  0  0  0  0  0  0
   -6.9600   21.6480  -32.3030 C   0  0  0  0  0  0  0  0  0  0  0  0
   -7.7120   22.6770  -31.7310 C   0  0  0  0  0  0  0  0  0  0  0  0
   -9.0630   22.5760  -31.6740 F   0  0  0  0  0  0  0  0  0  0  0  0
   -7.0730   23.8070  -31.2100 C   0  0  0  0  0  0  0  0  0  0  0  0
   -4.5350   23.1777  -28.9297 H   0  0  0  0  0  0  0  0  0  0  0  0
   -3.3841   22.1179  -26.9776 H   0  0  0  0  0  0  0  0  0  0  0  0
   -1.0893   22.8794  -26.3403 H   0  0  0  0  0  0  0  0  0  0  0  0
   -1.0736   25.7056  -29.5329 H   0  0  0  0  0  0  0  0  0  0  0  0
   -3.8275   22.9399  -31.8628 H   0  0  0  0  0  0  0  0  0  0  0  0
   -4.9748   20.9331  -32.7983 H   0  0  0  0  0  0  0  0  0  0  0  0
   -7.4644   20.7617  -32.7155 H   0  0  0  0  0  0  0  0  0  0  0  0
   -7.6692   24.6102  -30.7524 H   0  0  0  0  0  0  0  0  0  0  0  0
  1  2  2  0
  2  3  1  0
  3  4  1  0
  4  5  2  0
  5  6  1  0
  6  7  2  0
  7  8  1  0
  8  9  2  0
  2 10  1  0
 10 11  2  0
 11 12  1  0
 12 13  2  0
 13 14  1  0
 14 15  1  0
 14 16  2  0
  9  4  1  0
 16 10  1  0
  5 17  1  0
  6 18  1  0
  7 19  1  0
  9 20  1  0
 11 21  1  0
 12 22  1  0
 13 23  1  0
 16 24  1  0
M  CHG  1   3  -1
M  END
>  <UniqueID>  (16) 
15

>  <SMILES>  (16) 
O=C([N-]c1cccnc1)c1cccc(F)c1

>  <Energy>  (16) 
32.7708553439454

>  <Genealogy>  (16) 
O=C([N-]c1cccnc1)c1cccc(F)c1 (protonated)
O=C([N-]c1cccnc1)c1cccc(F)c1 (3D coordinates assigned)
O=C([N-]c1cccnc1)c1cccc(F)c1 (optimized conformer: 32.7708553439454 kcal/mol)

>  <smiles>  (16) 
O=C(Nc1cccnc1)c1cccc(F)c1

>  <score_type>  (16) 
oracle

>  <origin>  (16) 
adgpu

>  <m_score__min__energy>  (16) 
-7.3600000000000003

>  <m_primary>  (16) 
energy

$$$$
16:0
     RDKit          3D

 42 44  0  0  0  0  0  0  0  0999 V2000
   -8.1921   23.4153  -33.0250 H   0  0  0  0  0  0  0  0  0  0  0  0
   -7.6110   23.3550  -32.0930 C   0  0  0  0  0  0  0  0  0  0  0  0
   -6.4430   24.1090  -31.9490 C   0  0  0  0  0  0  0  0  0  0  0  0
   -6.1084   24.7614  -32.7690 H   0  0  0  0  0  0  0  0  0  0  0  0
   -5.6930   24.0380  -30.7610 C   0  0  0  0  0  0  0  0  0  0  0  0
   -4.4160   24.8240  -30.6130 C   0  0  0  0  0  0  0  0  0  0  0  0
   -4.5083   25.5067  -29.7554 H   0  0  0  0  0  0  0  0  0  0  0  0
   -4.2413   25.3964  -31.5359 H   0  0  0  0  0  0  0  0  0  0  0  0
   -3.2710   23.9140  -30.3900 N   0  0  0  0  0  0  0  0  0  0  0  0
   -2.3040   24.2260  -29.4640 C   0  0  0  0  0  0  0  0  0  0  0  0
   -2.3880   25.2980  -28.8010 O   0  0  0  0  0  0  0  0  0  0  0  0
   -1.2450   23.3810  -29.2510 N   0  0  0  0  0  0  0  0  0  0  0  0
   -0.2240   23.7080  -28.2400 C   0  0  0  0  0  0  0  0  0  0  0  0
   -0.6476   23.5723  -27.2339 H   0  0  0  0  0  0  0  0  0  0  0  0
    0.6428   23.0425  -28.3657 H   0  0  0  0  0  0  0  0  0  0  0  0
    0.0949   24.7532  -28.3657 H   0  0  0  0  0  0  0  0  0  0  0  0
   -1.1890   22.1980  -29.9320 C   0  0  0  0  0  0  0  0  0  0  0  0
   -0.2520   21.3780  -29.7310 O   0  0  0  0  0  0  0  0  0  0  0  0
   -2.1450   21.8900  -30.8330 N   0  0  0  0  0  0  0  0  0  0  0  0
   -3.1870   22.7260  -31.0700 C   0  0  0  0  0  0  0  0  0  0  0  0
   -4.0870   22.4150  -31.9620 N   0  0  0  0  0  0  0  0  0  0  0  0
   -4.1870   21.1920  -32.7100 C   0  0  0  0  0  0  0  0  0  0  0  0
   -3.0510   20.5010  -33.1660 C   0  0  0  0  0  0  0  0  0  0  0  0
   -2.0484   20.9139  -32.9808 H   0  0  0  0  0  0  0  0  0  0  0  0
   -3.1890   19.2910  -33.8540 C   0  0  0  0  0  0  0  0  0  0  0  0
   -2.2957   18.7641  -34.2206 H   0  0  0  0  0  0  0  0  0  0  0  0
   -4.4670   18.7450  -34.0790 C   0  0  0  0  0  0  0  0  0  0  0  0
   -4.6580   17.5370  -34.7670 O   0  0  0  0  0  0  0  0  0  0  0  0
   -5.3020   16.3920  -34.2160 C   0  0  0  0  0  0  0  0  0  0  0  0
   -5.2711   16.4469  -33.1178 H   0  0  0  0  0  0  0  0  0  0  0  0
   -6.3489   16.3628  -34.5524 H   0  0  0  0  0  0  0  0  0  0  0  0
   -4.7833   15.4822  -34.5524 H   0  0  0  0  0  0  0  0  0  0  0  0
   -5.5930   19.4210  -33.5970 C   0  0  0  0  0  0  0  0  0  0  0  0
   -6.5954   18.9989  -33.7614 H   0  0  0  0  0  0  0  0  0  0  0  0
   -5.4530   20.6290  -32.9080 C   0  0  0  0  0  0  0  0  0  0  0  0
   -6.3450   21.1413  -32.5182 H   0  0  0  0  0  0  0  0  0  0  0  0
   -6.1320   23.1980  -29.7240 C   0  0  0  0  0  0  0  0  0  0  0  0
   -5.5522   23.1316  -28.7916 H   0  0  0  0  0  0  0  0  0  0  0  0
   -7.3000   22.4470  -29.8700 C   0  0  0  0  0  0  0  0  0  0  0  0
   -7.6377   21.7932  -29.0524 H   0  0  0  0  0  0  0  0  0  0  0  0
   -8.0420   22.5240  -31.0540 C   0  0  0  0  0  0  0  0  0  0  0  0
   -9.5070   21.5770  -31.2370 Cl  0  0  0  0  0  0  0  0  0  0  0  0
  1  2  1  0
  2  3  2  0
  3  4  1  0
  3  5  1  0
  5  6  1  0
  6  7  1  0
  6  8  1  0
  6  9  1  0
  9 10  1  0
 10 11  2  0
 10 12  1  0
 12 13  1  0
 13 14  1  0
 13 15  1  0
 13 16  1  0
 12 17  1  0
 17 18  2  0
 17 19  1  0
 19 20  1  0
 20 21  2  0
 21 22  1  0
 22 23  2  0
 23 24  1  0
 23 25  1  0
 25 26  1  0
 25 27  2  0
 27 28  1  0
 28 29  1  0
 29 30  1  0
 29 31  1  0
 29 32  1  0
 27 33  1  0
 33 34  1  0
 33 35  2  0
 35 36  1  0
  5 37  2  0
 37 38  1  0
 37 39  1  0
 39 40  1  0
 39 41  2  0
 41 42  1  0
 41  2  1  0
 20  9  1  0
 35 22  1  0
M  CHG  1  19  -1
M  END
>  <UniqueID>  (17) 
16

>  <SMILES>  (17) 
COc1ccc(/N=c2\[n-]c(=O)n(C)c(=O)n2Cc2ccc(Cl)cc2)cc1

>  <Energy>  (17) 
56.624986212276156

>  <Genealogy>  (17) 
COc1ccc(N=c2[n-]c(=O)n(C)c(=O)n2Cc2ccc(Cl)cc2)cc1 (protonated)
COc1ccc(/N=c2\[n-]c(=O)n(C)c(=O)n2Cc2ccc(Cl)cc2)cc1 (cis-trans isomerization)
COc1ccc(/N=c2\[n-]c(=O)n(C)c(=O)n2Cc2ccc(Cl)cc2)cc1 (3D coordinates assigned)
COc1ccc(/N=c2\[n-]c(=O)n(C)c(=O)n2Cc2ccc(Cl)cc2)cc1 (optimized conformer: 56.624986212276156 kcal/mol)

>  <smiles>  (17) 
COc1ccc(N=c2[nH]c(=O)n(C)c(=O)n2Cc2ccc(Cl)cc2)cc1

>  <score_type>  (17) 
oracle

>  <origin>  (17) 
adgpu

>  <m_score__min__energy>  (17) 
-8.3200000000000003

>  <m_primary>  (17) 
energy

$$$$
17:0
     RDKit          3D

 44 47  0  0  0  0  0  0  0  0999 V2000
    2.7980   20.6430  -36.6880 O   0  0  0  0  0  0  0  0  0  0  0  0
    1.6080   20.6450  -35.9640 C   0  0  0  0  0  0  0  0  0  0  0  0
    0.9510   19.4370  -35.7120 C   0  0  0  0  0  0  0  0  0  0  0  0
   -0.2450   19.4230  -34.9880 C   0  0  0  0  0  0  0  0  0  0  0  0
   -0.8010   20.6220  -34.5030 C   0  0  0  0  0  0  0  0  0  0  0  0
   -2.0690   20.6090  -33.7330 C   0  0  0  0  0  0  0  0  0  0  0  0
   -2.9440   19.5780  -33.8670 N   0  0  0  0  0  0  0  0  0  0  0  0
   -4.1190   19.5360  -33.1810 C   0  0  0  0  0  0  0  0  0  0  0  0
   -5.0390   18.3880  -33.3870 C   0  0  0  0  0  0  0  0  0  0  0  0
   -4.6360   17.2440  -34.1060 C   0  0  0  0  0  0  0  0  0  0  0  0
   -5.5220   16.1780  -34.2950 C   0  0  0  0  0  0  0  0  0  0  0  0
   -6.8170   16.2420  -33.7770 C   0  0  0  0  0  0  0  0  0  0  0  0
   -7.2310   17.3730  -33.0730 C   0  0  0  0  0  0  0  0  0  0  0  0
   -6.3510   18.4420  -32.8800 C   0  0  0  0  0  0  0  0  0  0  0  0
   -4.4380   20.5960  -32.3180 C   0  0  0  0  0  0  0  0  0  0  0  0
   -3.5230   21.6470  -32.1670 C   0  0  0  0  0  0  0  0  0  0  0  0
   -3.8080   22.7650  -31.3030 N   0  0  0  0  0  0  0  0  0  0  0  0
   -5.1600   23.3400  -31.2370 C   0  0  0  0  0  0  0  0  0  0  0  0
   -5.1240   24.8370  -30.8430 C   0  0  0  0  0  0  0  0  0  0  0  0
   -3.8380   25.2990  -30.4660 O   0  0  0  0  0  0  0  0  0  0  0  0
   -3.2530   24.4030  -29.5470 C   0  0  0  0  0  0  0  0  0  0  0  0
   -2.8180   23.1360  -30.2840 C   0  0  0  0  0  0  0  0  0  0  0  0
   -2.3700   21.6310  -32.8870 N   0  0  0  0  0  0  0  0  0  0  0  0
   -0.1310   21.8340  -34.7600 C   0  0  0  0  0  0  0  0  0  0  0  0
    1.0640   21.8430  -35.4860 C   0  0  0  0  0  0  0  0  0  0  0  0
    3.6660   20.3160  -36.2790 H   0  0  0  0  0  0  0  0  0  0  0  0
    1.3767   18.4937  -36.0848 H   0  0  0  0  0  0  0  0  0  0  0  0
   -0.7555   18.4678  -34.7959 H   0  0  0  0  0  0  0  0  0  0  0  0
   -3.6187   17.1894  -34.5209 H   0  0  0  0  0  0  0  0  0  0  0  0
   -5.1976   15.2873  -34.8530 H   0  0  0  0  0  0  0  0  0  0  0  0
   -7.5106   15.4009  -33.9240 H   0  0  0  0  0  0  0  0  0  0  0  0
   -8.2527   17.4238  -32.6686 H   0  0  0  0  0  0  0  0  0  0  0  0
   -6.6865   19.3322  -32.3277 H   0  0  0  0  0  0  0  0  0  0  0  0
   -5.3911   20.6018  -31.7688 H   0  0  0  0  0  0  0  0  0  0  0  0
   -5.6383   23.2417  -32.2227 H   0  0  0  0  0  0  0  0  0  0  0  0
   -5.7284   22.7955  -30.4686 H   0  0  0  0  0  0  0  0  0  0  0  0
   -5.4671   25.4303  -31.7034 H   0  0  0  0  0  0  0  0  0  0  0  0
   -5.7760   24.9527  -29.9646 H   0  0  0  0  0  0  0  0  0  0  0  0
   -2.3764   24.8758  -29.0800 H   0  0  0  0  0  0  0  0  0  0  0  0
   -3.9852   24.1434  -28.7683 H   0  0  0  0  0  0  0  0  0  0  0  0
   -1.8482   23.3160  -30.7709 H   0  0  0  0  0  0  0  0  0  0  0  0
   -2.7324   22.3147  -29.5572 H   0  0  0  0  0  0  0  0  0  0  0  0
   -0.5507   22.7799  -34.3870 H   0  0  0  0  0  0  0  0  0  0  0  0
    1.5786   22.7952  -35.6823 H   0  0  0  0  0  0  0  0  0  0  0  0
  1  2  1  0
  2  3  2  0
  3  4  1  0
  4  5  2  0
  5  6  1  0
  6  7  2  0
  7  8  1  0
  8  9  1  0
  9 10  2  0
 10 11  1  0
 11 12  2  0
 12 13  1  0
 13 14  2  0
  8 15  2  0
 15 16  1  0
 16 17  1  0
 17 18  1  0
 18 19  1  0
 19 20  1  0
 20 21  1  0
 21 22  1  0
 16 23  2  0
  5 24  1  0
 24 25  2  0
 25  2  1  0
 23  6  1  0
 14  9  1  0
 22 17  1  0
  1 26  1  0
  3 27  1  0
  4 28  1  0
 10 29  1  0
 11 30  1  0
 12 31  1  0
 13 32  1  0
 14 33  1  0
 15 34  1  0
 18 35  1  0
 18 36  1  0
 19 37  1  0
 19 38  1  0
 21 39  1  0
 21 40  1  0
 22 41  1  0
 22 42  1  0
 24 43  1  0
 25 44  1  0
M  END
>  <UniqueID>  (18) 
17

>  <SMILES>  (18) 
Oc1ccc(-c2nc(-c3ccccc3)cc(N3CCOCC3)n2)cc1

>  <Energy>  (18) 
62.58653064366868

>  <Genealogy>  (18) 
Oc1ccc(-c2nc(-c3ccccc3)cc(N3CCOCC3)n2)cc1 (3D coordinates assigned)
Oc1ccc(-c2nc(-c3ccccc3)cc(N3CCOCC3)n2)cc1 (nonaromatic ring conformer: 62.58653064366868 kcal/mol)

>  <smiles>  (18) 
Oc1ccc(-c2nc(-c3ccccc3)cc(N3CCOCC3)n2)cc1

>  <score_type>  (18) 
oracle

>  <origin>  (18) 
adgpu

>  <m_score__min__energy>  (18) 
-7.8700000000000001

>  <m_primary>  (18) 
energy

$$$$
18:0
     RDKit          3D

 42 44  0  0  1  0  0  0  0  0999 V2000
   -5.2120   25.2820  -30.4610 C   0  0  0  0  0  0  0  0  0  0  0  0
   -4.6520   24.2350  -31.2260 O   0  0  0  0  0  0  0  0  0  0  0  0
   -5.5000   23.1940  -31.5740 C   0  0  0  0  0  0  0  0  0  0  0  0
   -6.8420   23.3670  -31.3890 C   0  0  0  0  0  0  0  0  0  0  0  0
   -7.6760   22.3500  -31.7270 C   0  0  0  0  0  0  0  0  0  0  0  0
   -8.9980   22.5120  -31.5480 N   0  0  0  0  0  0  0  0  0  0  0  0
   -9.8660   21.5360  -31.8680 C   0  0  0  0  0  0  0  0  0  0  0  0
   -9.3390   20.4060  -32.3690 N   0  0  0  0  0  0  0  0  0  0  0  0
   -8.0310   20.2050  -32.5630 C   0  0  0  0  0  0  0  0  0  0  0  0
   -7.6340   19.1260  -33.0330 N   0  0  0  0  0  0  0  0  0  0  0  0
   -6.4170   18.5860  -33.3560 C   0  0  0  0  0  0  0  0  0  0  0  0
   -5.8030   18.7380  -34.6250 C   0  0  0  0  0  0  0  0  0  0  0  0
   -4.6290   18.0670  -34.9140 C   0  0  0  0  0  0  0  0  0  0  0  0
   -4.0400   17.2370  -33.9580 C   0  0  0  0  0  0  0  0  0  0  0  0
   -2.5470   16.3890  -34.3360 S   0  0  0  0  0  0  0  0  0  0  0  0
   -2.1600   15.1460  -33.1470 C   0  0  0  0  0  0  0  0  0  0  0  0
   -2.6530   15.7310  -35.7020 O   0  0  0  0  0  0  0  0  0  0  0  0
   -1.4250   17.3750  -34.3740 O   0  0  0  0  0  0  0  0  0  0  0  0
   -4.6280   17.0820  -32.7170 C   0  0  0  0  0  0  0  0  0  0  0  0
   -5.7970   17.7380  -32.4050 C   0  0  0  0  0  0  0  0  0  0  0  0
   -7.1220   21.1830  -32.2470 C   0  0  0  0  0  0  0  0  0  0  0  0
   -5.7790   21.0260  -32.4250 C   0  0  0  0  0  0  0  0  0  0  0  0
   -4.9120   22.0750  -32.0760 C   0  0  0  0  0  0  0  0  0  0  0  0
   -3.5430   21.9880  -32.2300 O   0  0  0  0  0  0  0  0  0  0  0  0
   -2.9230   21.1340  -33.1680 C   0  0  0  0  0  0  0  0  0  0  0  0
   -5.0925   25.0585  -29.3906 H   0  0  0  0  0  0  0  0  0  0  0  0
   -4.6979   26.2250  -30.6983 H   0  0  0  0  0  0  0  0  0  0  0  0
   -6.2818   25.3778  -30.6983 H   0  0  0  0  0  0  0  0  0  0  0  0
   -7.2375   24.3069  -30.9764 H   0  0  0  0  0  0  0  0  0  0  0  0
  -10.9503   21.6563  -31.7271 H   0  0  0  0  0  0  0  0  0  0  0  0
  -10.0290   19.6520  -32.6140 H   0  0  0  0  0  0  0  0  0  0  0  0
   -6.2618   19.3915  -35.3816 H   0  0  0  0  0  0  0  0  0  0  0  0
   -4.1574   18.1875  -35.9005 H   0  0  0  0  0  0  0  0  0  0  0  0
   -2.2874   15.5553  -32.1340 H   0  0  0  0  0  0  0  0  0  0  0  0
   -2.8331   14.2866  -33.2826 H   0  0  0  0  0  0  0  0  0  0  0  0
   -1.1180   14.8206  -33.2826 H   0  0  0  0  0  0  0  0  0  0  0  0
   -4.1563   16.4268  -31.9699 H   0  0  0  0  0  0  0  0  0  0  0  0
   -6.2522   17.6034  -31.4127 H   0  0  0  0  0  0  0  0  0  0  0  0
   -5.3789   20.0880  -32.8374 H   0  0  0  0  0  0  0  0  0  0  0  0
   -2.3572   20.3547  -32.6364 H   0  0  0  0  0  0  0  0  0  0  0  0
   -3.6912   20.6633  -33.7992 H   0  0  0  0  0  0  0  0  0  0  0  0
   -2.2376   21.7186  -33.7992 H   0  0  0  0  0  0  0  0  0  0  0  0
  1  2  1  0
  2  3  1  0
  3  4  2  0
  4  5  1  0
  5  6  1  0
  6  7  2  0
  7  8  1  0
  8  9  1  0
  9 10  2  0
 10 11  1  0
 11 12  2  0
 12 13  1  0
 13 14  2  0
 14 15  1  0
 15 16  1  0
 15 17  2  0
 15 18  2  0
 14 19  1  0
 19 20  2  0
  9 21  1  0
 21 22  1  0
 22 23  2  0
 23 24  1  0
 24 25  1  0
 23  3  1  0
 21  5  2  0
 20 11  1  0
  1 26  1  0
  1 27  1  0
  1 28  1  0
  4 29  1  0
  7 30  1  0
  8 31  1  0
 12 32  1  0
 13 33  1  0
 16 34  1  0
 16 35  1  0
 16 36  1  0
 19 37  1  0
 20 38  1  0
 22 39  1  0
 25 40  1  0
 25 41  1  0
 25 42  1  0
M  END
>  <smiles>  (19) 
COc1cc2nc[nH]c(=Nc3ccc(S(C)(=O)=O)cc3)c2cc1OC

>  <score_type>  (19) 
oracle

>  <origin>  (19) 
adgpu

>  <m_score__min__energy>  (19) 
-7.5700000000000003

>  <m_primary>  (19) 
energy

$$$$
19:0
     RDKit          3D

 31 32  0  0  0  0  0  0  0  0999 V2000
   -2.9660   25.6740  -30.7120 H   0  0  0  0  0  0  0  0  0  0  0  0
   -3.9340   25.6450  -31.0110 O   0  0  0  0  0  0  0  0  0  0  0  0
   -4.8080   24.6380  -30.6010 C   0  0  0  0  0  0  0  0  0  0  0  0
   -6.0440   24.5150  -31.2470 C   0  0  0  0  0  0  0  0  0  0  0  0
   -6.3110   25.2178  -32.0500 H   0  0  0  0  0  0  0  0  0  0  0  0
   -6.9440   23.5060  -30.8810 C   0  0  0  0  0  0  0  0  0  0  0  0
   -8.2510   23.4210  -31.5700 C   0  0  0  0  0  0  0  0  0  0  0  0
   -8.8018   24.3601  -31.7272 H   0  0  0  0  0  0  0  0  0  0  0  0
   -8.8190   22.2890  -32.0190 C   0  0  0  0  0  0  0  0  0  0  0  0
   -9.8533   22.3536  -32.3878 H   0  0  0  0  0  0  0  0  0  0  0  0
   -8.1640   20.9620  -32.0570 C   0  0  0  0  0  0  0  0  0  0  0  0
   -8.8070   19.8170  -31.5490 C   0  0  0  0  0  0  0  0  0  0  0  0
   -9.8220   19.8985  -31.1329 H   0  0  0  0  0  0  0  0  0  0  0  0
   -8.1620   18.5780  -31.5710 C   0  0  0  0  0  0  0  0  0  0  0  0
   -8.6762   17.6847  -31.1868 H   0  0  0  0  0  0  0  0  0  0  0  0
   -6.8650   18.4710  -32.0800 C   0  0  0  0  0  0  0  0  0  0  0  0
   -6.2400   17.2680  -32.0980 F   0  0  0  0  0  0  0  0  0  0  0  0
   -6.2080   19.6080  -32.5580 C   0  0  0  0  0  0  0  0  0  0  0  0
   -5.1832   19.5251  -32.9490 H   0  0  0  0  0  0  0  0  0  0  0  0
   -6.8490   20.8510  -32.5410 C   0  0  0  0  0  0  0  0  0  0  0  0
   -6.1930   21.9430  -33.0120 F   0  0  0  0  0  0  0  0  0  0  0  0
   -6.6160   22.6480  -29.8180 C   0  0  0  0  0  0  0  0  0  0  0  0
   -7.3333   21.8792  -29.4949 H   0  0  0  0  0  0  0  0  0  0  0  0
   -5.3850   22.7650  -29.1690 C   0  0  0  0  0  0  0  0  0  0  0  0
   -5.1309   22.0760  -28.3500 H   0  0  0  0  0  0  0  0  0  0  0  0
   -4.4670   23.7600  -29.5570 C   0  0  0  0  0  0  0  0  0  0  0  0
   -3.2190   23.9030  -28.9300 O   0  0  0  0  0  0  0  0  0  0  0  0
   -3.0350   24.0900  -27.5310 C   0  0  0  0  0  0  0  0  0  0  0  0
   -3.7025   23.4116  -26.9795 H   0  0  0  0  0  0  0  0  0  0  0  0
   -1.9899   23.8715  -27.2662 H   0  0  0  0  0  0  0  0  0  0  0  0
   -3.2703   25.1314  -27.2662 H   0  0  0  0  0  0  0  0  0  0  0  0
  1  2  1  0
  2  3  1  0
  3  4  2  0
  4  5  1  0
  4  6  1  0
  6  7  1  0
  7  8  1  0
  7  9  2  0
  9 10  1  0
  9 11  1  0
 11 12  2  0
 12 13  1  0
 12 14  1  0
 14 15  1  0
 14 16  2  0
 16 17  1  0
 16 18  1  0
 18 19  1  0
 18 20  2  0
 20 21  1  0
  6 22  2  0
 22 23  1  0
 22 24  1  0
 24 25  1  0
 24 26  2  0
 26 27  1  0
 27 28  1  0
 28 29  1  0
 28 30  1  0
 28 31  1  0
 26  3  1  0
 20 11  1  0
M  END
>  <UniqueID>  (20) 
18

>  <SMILES>  (20) 
COc1ccc(/C=C\c2ccc(F)cc2F)cc1O

>  <Energy>  (20) 
41.11316495381367

>  <Genealogy>  (20) 
COc1ccc(/C=C\c2ccc(F)cc2F)cc1O (cis-trans isomerization)
COc1ccc(/C=C\c2ccc(F)cc2F)cc1O (3D coordinates assigned)
COc1ccc(/C=C\c2ccc(F)cc2F)cc1O (optimized conformer: 41.11316495381367 kcal/mol)

>  <smiles>  (20) 
COc1ccc(C=Cc2ccc(F)cc2F)cc1O

>  <score_type>  (20) 
oracle

>  <origin>  (20) 
adgpu

>  <m_score__min__energy>  (20) 
-8.1699999999999999

>  <m_primary>  (20) 
energy

$$$$
20:0
     RDKit          3D

 38 39  0  0  0  0  0  0  0  0999 V2000
   -1.3550   25.3530  -28.0130 C   0  0  0  0  0  0  0  0  0  0  0  0
   -2.0950   25.3000  -29.2290 O   0  0  0  0  0  0  0  0  0  0  0  0
   -2.7390   24.1520  -29.7180 C   0  0  0  0  0  0  0  0  0  0  0  0
   -2.2370   22.8580  -29.4860 C   0  0  0  0  0  0  0  0  0  0  0  0
   -2.9100   21.7400  -29.9790 C   0  0  0  0  0  0  0  0  0  0  0  0
   -4.1000   21.8890  -30.7070 C   0  0  0  0  0  0  0  0  0  0  0  0
   -4.8340   20.6700  -31.2180 C   0  0  0  0  0  0  0  0  0  0  0  0
   -5.9730   20.9930  -32.1060 N   0  0  0  0  0  0  0  0  0  0  0  0
   -7.2110   21.4420  -31.4240 C   0  0  0  0  0  0  0  0  0  0  0  0
   -8.4790   20.7530  -31.9440 C   0  0  0  0  0  0  0  0  0  0  0  0
   -8.2430   19.2510  -32.0670 C   0  0  0  0  0  0  0  0  0  0  0  0
   -7.0990   18.9330  -33.0420 C   0  0  0  0  0  0  0  0  0  0  0  0
   -6.1420   20.1190  -33.2880 C   0  0  0  0  0  0  0  0  0  0  0  0
   -4.5860   23.1800  -30.9640 C   0  0  0  0  0  0  0  0  0  0  0  0
   -3.9180   24.3130  -30.4620 C   0  0  0  0  0  0  0  0  0  0  0  0
   -4.3930   25.6160  -30.6810 O   0  0  0  0  0  0  0  0  0  0  0  0
   -5.7140   26.0550  -30.3770 C   0  0  0  0  0  0  0  0  0  0  0  0
   -2.0476   25.3034  -27.1598 H   0  0  0  0  0  0  0  0  0  0  0  0
   -0.6588   24.5024  -27.9701 H   0  0  0  0  0  0  0  0  0  0  0  0
   -0.7871   26.2941  -27.9701 H   0  0  0  0  0  0  0  0  0  0  0  0
   -1.3077   22.7272  -28.9121 H   0  0  0  0  0  0  0  0  0  0  0  0
   -2.5046   20.7340  -29.7956 H   0  0  0  0  0  0  0  0  0  0  0  0
   -4.1227   20.0452  -31.7781 H   0  0  0  0  0  0  0  0  0  0  0  0
   -5.2464   20.1505  -30.3405 H   0  0  0  0  0  0  0  0  0  0  0  0
   -7.1140   21.2280  -30.3494 H   0  0  0  0  0  0  0  0  0  0  0  0
   -7.3205   22.5177  -31.6264 H   0  0  0  0  0  0  0  0  0  0  0  0
   -9.3066   20.9356  -31.2427 H   0  0  0  0  0  0  0  0  0  0  0  0
   -8.7320   21.1612  -32.9336 H   0  0  0  0  0  0  0  0  0  0  0  0
   -7.9888   18.8478  -31.0756 H   0  0  0  0  0  0  0  0  0  0  0  0
   -9.1630   18.7903  -32.4561 H   0  0  0  0  0  0  0  0  0  0  0  0
   -6.5155   18.0961  -32.6308 H   0  0  0  0  0  0  0  0  0  0  0  0
   -7.5615   18.6886  -34.0097 H   0  0  0  0  0  0  0  0  0  0  0  0
   -5.1567   19.7193  -33.5698 H   0  0  0  0  0  0  0  0  0  0  0  0
   -6.5850   20.7336  -34.0855 H   0  0  0  0  0  0  0  0  0  0  0  0
   -5.4989   23.3082  -31.5642 H   0  0  0  0  0  0  0  0  0  0  0  0
   -5.8440   26.0982  -29.2856 H   0  0  0  0  0  0  0  0  0  0  0  0
   -5.8757   27.0552  -30.8054 H   0  0  0  0  0  0  0  0  0  0  0  0
   -6.4422   25.3506  -30.8054 H   0  0  0  0  0  0  0  0  0  0  0  0
  1  2  1  0
  2  3  1  0
  3  4  2  0
  4  5  1  0
  5  6  2  0
  6  7  1  0
  7  8  1  0
  8  9  1  0
  9 10  1  0
 10 11  1  0
 11 12  1  0
 12 13  1  0
  6 14  1  0
 14 15  2  0
 15 16  1  0
 16 17  1  0
 15  3  1  0
 13  8  1  0
  1 18  1  0
  1 19  1  0
  1 20  1  0
  4 21  1  0
  5 22  1  0
  7 23  1  0
  7 24  1  0
  9 25  1  0
  9 26  1  0
 10 27  1  0
 10 28  1  0
 11 29  1  0
 11 30  1  0
 12 31  1  0
 12 32  1  0
 13 33  1  0
 13 34  1  0
 14 35  1  0
 17 36  1  0
 17 37  1  0
 17 38  1  0
M  END
>  <UniqueID>  (21) 
19

>  <SMILES>  (21) 
COc1ccc(CN2CCCCC2)cc1OC

>  <Energy>  (21) 
46.761647560760814

>  <Genealogy>  (21) 
COc1ccc(CN2CCCCC2)cc1OC (3D coordinates assigned)
COc1ccc(CN2CCCCC2)cc1OC (nonaromatic ring conformer: 46.761647560760814 kcal/mol)

>  <smiles>  (21) 
COc1ccc(CN2CCCCC2)cc1OC

>  <score_type>  (21) 
oracle

>  <origin>  (21) 
adgpu

>  <m_score__min__energy>  (21) 
-7.2400000000000002

>  <m_primary>  (21) 
energy

$$$$
21:0
     RDKit          3D

 25 26  0  0  0  0  0  0  0  0999 V2000
   -5.6600   26.1160  -30.4730 O   0  0  0  0  0  0  0  0  0  0  0  0
   -5.0450   25.0460  -30.7290 C   0  0  0  0  0  0  0  0  0  0  0  0
   -3.6290   24.9920  -30.5060 N   0  0  0  0  0  0  0  0  0  0  0  0
   -2.9510   24.1290  -29.5430 C   0  0  0  0  0  0  0  0  0  0  0  0
   -2.1350   24.9420  -28.5870 C   0  0  0  0  0  0  0  0  0  0  0  0
   -1.9120   24.6440  -27.2580 C   0  0  0  0  0  0  0  0  0  0  0  0
   -1.0890   25.6440  -26.7880 C   0  0  0  0  0  0  0  0  0  0  0  0
   -0.8630   26.4880  -27.8570 C   0  0  0  0  0  0  0  0  0  0  0  0
   -1.4990   26.0420  -28.9150 O   0  0  0  0  0  0  0  0  0  0  0  0
   -5.8070   23.8780  -31.2110 C   0  0  0  0  0  0  0  0  0  0  0  0
   -7.1950   23.8060  -31.0120 C   0  0  0  0  0  0  0  0  0  0  0  0
   -7.9170   22.7050  -31.4830 C   0  0  0  0  0  0  0  0  0  0  0  0
   -7.2580   21.6670  -32.1470 C   0  0  0  0  0  0  0  0  0  0  0  0
   -7.9600   20.6010  -32.6040 F   0  0  0  0  0  0  0  0  0  0  0  0
   -5.8740   21.7240  -32.3340 C   0  0  0  0  0  0  0  0  0  0  0  0
   -5.1460   22.8230  -31.8630 C   0  0  0  0  0  0  0  0  0  0  0  0
   -3.8060   22.8690  -32.0680 F   0  0  0  0  0  0  0  0  0  0  0  0
   -3.7024   23.5561  -28.9799 H   0  0  0  0  0  0  0  0  0  0  0  0
   -2.2817   23.4475  -30.0886 H   0  0  0  0  0  0  0  0  0  0  0  0
   -2.3082   23.7877  -26.6926 H   0  0  0  0  0  0  0  0  0  0  0  0
   -0.6922   25.7488  -25.7674 H   0  0  0  0  0  0  0  0  0  0  0  0
   -0.2437   27.3966  -27.8266 H   0  0  0  0  0  0  0  0  0  0  0  0
   -7.7161   24.6182  -30.4840 H   0  0  0  0  0  0  0  0  0  0  0  0
   -9.0053   22.6559  -31.3306 H   0  0  0  0  0  0  0  0  0  0  0  0
   -5.3559   20.9037  -32.8523 H   0  0  0  0  0  0  0  0  0  0  0  0
  1  2  2  0
  2  3  1  0
  3  4  1  0
  4  5  1  0
  5  6  2  0
  6  7  1  0
  7  8  2  0
  8  9  1  0
  2 10  1  0
 10 11  2  0
 11 12  1  0
 12 13  2  0
 13 14  1  0
 13 15  1  0
 15 16  2  0
 16 17  1  0
  9  5  1  0
 16 10  1  0
  4 18  1  0
  4 19  1  0
  6 20  1  0
  7 21  1  0
  8 22  1  0
 11 23  1  0
 12 24  1  0
 15 25  1  0
M  CHG  1   3  -1
M  END
>  <UniqueID>  (22) 
20

>  <SMILES>  (22) 
O=C([N-]Cc1ccco1)c1ccc(F)cc1F

>  <Energy>  (22) 
53.86815228929234

>  <Genealogy>  (22) 
O=C([N-]Cc1ccco1)c1ccc(F)cc1F (protonated)
O=C([N-]Cc1ccco1)c1ccc(F)cc1F (3D coordinates assigned)
O=C([N-]Cc1ccco1)c1ccc(F)cc1F (optimized conformer: 53.86815228929234 kcal/mol)

>  <smiles>  (22) 
O=C(NCc1ccco1)c1ccc(F)cc1F

>  <score_type>  (22) 
oracle

>  <origin>  (22) 
adgpu

>  <m_score__min__energy>  (22) 
-8.4299999999999997

>  <m_primary>  (22) 
energy

$$$$
22:0
     RDKit          3D

 37 39  0  0  0  0  0  0  0  0999 V2000
   -4.2350   22.3670  -28.1690 C   0  0  0  0  0  0  0  0  0  0  0  0
   -3.6040   23.5280  -28.7990 N   0  0  0  0  0  0  0  0  0  0  0  0
   -2.8050   24.4390  -28.0150 C   0  0  0  0  0  0  0  0  0  0  0  0
   -3.1960   24.7960  -26.7100 C   0  0  0  0  0  0  0  0  0  0  0  0
   -2.4260   25.6850  -25.9560 C   0  0  0  0  0  0  0  0  0  0  0  0
   -1.2610   26.2360  -26.4940 C   0  0  0  0  0  0  0  0  0  0  0  0
   -0.2980   27.3560  -25.5460 Cl  0  0  0  0  0  0  0  0  0  0  0  0
   -0.8660   25.8980  -27.7910 C   0  0  0  0  0  0  0  0  0  0  0  0
   -1.6300   25.0050  -28.5470 C   0  0  0  0  0  0  0  0  0  0  0  0
   -3.8630   23.8070  -30.5010 S   0  0  0  0  0  0  0  0  0  0  0  0
   -3.8880   25.2890  -30.7550 O   0  0  0  0  0  0  0  0  0  0  0  0
   -2.7340   23.2040  -31.2890 O   0  0  0  0  0  0  0  0  0  0  0  0
   -5.3860   23.0940  -31.0250 C   0  0  0  0  0  0  0  0  0  0  0  0
   -6.5790   23.8070  -30.8580 C   0  0  0  0  0  0  0  0  0  0  0  0
   -7.7920   23.2480  -31.2630 C   0  0  0  0  0  0  0  0  0  0  0  0
   -7.8220   21.9740  -31.8370 C   0  0  0  0  0  0  0  0  0  0  0  0
   -6.6330   21.2420  -32.0130 C   0  0  0  0  0  0  0  0  0  0  0  0
   -6.6630   19.8830  -32.6130 C   0  0  0  0  0  0  0  0  0  0  0  0
   -5.9360   19.5210  -33.7630 C   0  0  0  0  0  0  0  0  0  0  0  0
   -6.1150   18.2000  -34.1470 C   0  0  0  0  0  0  0  0  0  0  0  0
   -7.1760   17.4800  -33.0630 S   0  0  0  0  0  0  0  0  0  0  0  0
   -7.4170   18.8290  -32.0940 C   0  0  0  0  0  0  0  0  0  0  0  0
   -5.4150   21.8170  -31.6050 C   0  0  0  0  0  0  0  0  0  0  0  0
   -4.1799   22.4683  -27.0751 H   0  0  0  0  0  0  0  0  0  0  0  0
   -5.2887   22.3090  -28.4793 H   0  0  0  0  0  0  0  0  0  0  0  0
   -3.7105   21.4512  -28.4793 H   0  0  0  0  0  0  0  0  0  0  0  0
   -4.1154   24.3713  -26.2808 H   0  0  0  0  0  0  0  0  0  0  0  0
   -2.7383   25.9518  -24.9355 H   0  0  0  0  0  0  0  0  0  0  0  0
    0.0484   26.3358  -28.2179 H   0  0  0  0  0  0  0  0  0  0  0  0
   -1.3111   24.7418  -29.5663 H   0  0  0  0  0  0  0  0  0  0  0  0
   -6.5604   24.8100  -30.4066 H   0  0  0  0  0  0  0  0  0  0  0  0
   -8.7272   23.8117  -31.1301 H   0  0  0  0  0  0  0  0  0  0  0  0
   -8.7821   21.5403  -32.1535 H   0  0  0  0  0  0  0  0  0  0  0  0
   -5.2856   20.2215  -34.3072 H   0  0  0  0  0  0  0  0  0  0  0  0
   -5.6437   17.7095  -35.0115 H   0  0  0  0  0  0  0  0  0  0  0  0
   -8.0594   18.8748  -31.2022 H   0  0  0  0  0  0  0  0  0  0  0  0
   -4.4766   21.2597  -31.7422 H   0  0  0  0  0  0  0  0  0  0  0  0
  1  2  1  0
  2  3  1  0
  3  4  2  0
  4  5  1  0
  5  6  2  0
  6  7  1  0
  6  8  1  0
  8  9  2  0
  2 10  1  0
 10 11  2  0
 10 12  2  0
 10 13  1  0
 13 14  2  0
 14 15  1  0
 15 16  2  0
 16 17  1  0
 17 18  1  0
 18 19  1  0
 19 20  2  0
 20 21  1  0
 21 22  1  0
 17 23  2  0
  9  3  1  0
 23 13  1  0
 22 18  2  0
  1 24  1  0
  1 25  1  0
  1 26  1  0
  4 27  1  0
  5 28  1  0
  8 29  1  0
  9 30  1  0
 14 31  1  0
 15 32  1  0
 16 33  1  0
 19 34  1  0
 20 35  1  0
 22 36  1  0
 23 37  1  0
M  END
>  <UniqueID>  (23) 
21

>  <SMILES>  (23) 
CN(c1ccc(Cl)cc1)S(=O)(=O)c1cccc(-c2ccsc2)c1

>  <Energy>  (23) 
72.33066988830504

>  <Genealogy>  (23) 
CN(c1ccc(Cl)cc1)S(=O)(=O)c1cccc(-c2ccsc2)c1 (3D coordinates assigned)
CN(c1ccc(Cl)cc1)S(=O)(=O)c1cccc(-c2ccsc2)c1 (optimized conformer: 72.33066988830504 kcal/mol)

>  <smiles>  (23) 
CN(c1ccc(Cl)cc1)S(=O)(=O)c1cccc(-c2ccsc2)c1

>  <score_type>  (23) 
oracle

>  <origin>  (23) 
adgpu

>  <m_score__min__energy>  (23) 
-9.25

>  <m_primary>  (23) 
energy

$$$$
23:0
     RDKit          3D

 32 34  0  0  0  0  0  0  0  0999 V2000
   -1.8850   25.2940  -29.3030 O   0  0  0  0  0  0  0  0  0  0  0  0
   -2.8690   24.6390  -29.7380 C   0  0  0  0  0  0  0  0  0  0  0  0
   -3.8760   25.2960  -30.3650 N   0  0  0  0  0  0  0  0  0  0  0  0
   -4.9700   24.6530  -30.8450 C   0  0  0  0  0  0  0  0  0  0  0  0
   -5.0890   23.2620  -30.7150 C   0  0  0  0  0  0  0  0  0  0  0  0
   -6.2810   22.5740  -31.2650 C   0  0  0  0  0  0  0  0  0  0  0  0
   -7.5380   23.2040  -31.2380 C   0  0  0  0  0  0  0  0  0  0  0  0
   -8.6620   22.5610  -31.7640 C   0  0  0  0  0  0  0  0  0  0  0  0
   -8.5420   21.2890  -32.3300 C   0  0  0  0  0  0  0  0  0  0  0  0
   -7.2960   20.6570  -32.3720 C   0  0  0  0  0  0  0  0  0  0  0  0
   -7.1440   19.0640  -33.0910 Cl  0  0  0  0  0  0  0  0  0  0  0  0
   -6.1680   21.2970  -31.8450 C   0  0  0  0  0  0  0  0  0  0  0  0
   -4.0610   22.5490  -30.0650 C   0  0  0  0  0  0  0  0  0  0  0  0
   -4.1770   21.1610  -29.9290 O   0  0  0  0  0  0  0  0  0  0  0  0
   -2.9360   23.2430  -29.5640 C   0  0  0  0  0  0  0  0  0  0  0  0
   -1.8540   22.5360  -28.8430 C   0  0  0  0  0  0  0  0  0  0  0  0
   -1.6590   22.7570  -27.4690 C   0  0  0  0  0  0  0  0  0  0  0  0
   -0.6450   22.0780  -26.7860 C   0  0  0  0  0  0  0  0  0  0  0  0
    0.1740   21.1730  -27.4670 C   0  0  0  0  0  0  0  0  0  0  0  0
   -0.0210   20.9420  -28.8320 C   0  0  0  0  0  0  0  0  0  0  0  0
   -1.0330   21.6190  -29.5180 C   0  0  0  0  0  0  0  0  0  0  0  0
   -5.7683   25.2263  -31.3390 H   0  0  0  0  0  0  0  0  0  0  0  0
   -7.6372   24.2084  -30.8005 H   0  0  0  0  0  0  0  0  0  0  0  0
   -9.6432   23.0573  -31.7324 H   0  0  0  0  0  0  0  0  0  0  0  0
   -9.4284   20.7849  -32.7426 H   0  0  0  0  0  0  0  0  0  0  0  0
   -5.1880   20.7989  -31.8845 H   0  0  0  0  0  0  0  0  0  0  0  0
   -3.7930   20.5040  -30.5950 H   0  0  0  0  0  0  0  0  0  0  0  0
   -2.3051   23.4653  -26.9297 H   0  0  0  0  0  0  0  0  0  0  0  0
   -0.4918   22.2564  -25.7114 H   0  0  0  0  0  0  0  0  0  0  0  0
    0.9728   20.6420  -26.9285 H   0  0  0  0  0  0  0  0  0  0  0  0
    0.6223   20.2272  -29.3661 H   0  0  0  0  0  0  0  0  0  0  0  0
   -1.1868   21.4326  -30.5911 H   0  0  0  0  0  0  0  0  0  0  0  0
  1  2  2  0
  2  3  1  0
  3  4  1  0
  4  5  2  0
  5  6  1  0
  6  7  2  0
  7  8  1  0
  8  9  2  0
  9 10  1  0
 10 11  1  0
 10 12  2  0
  5 13  1  0
 13 14  1  0
 13 15  2  0
 15 16  1  0
 16 17  2  0
 17 18  1  0
 18 19  2  0
 19 20  1  0
 20 21  2  0
 15  2  1  0
 21 16  1  0
 12  6  1  0
  4 22  1  0
  7 23  1  0
  8 24  1  0
  9 25  1  0
 12 26  1  0
 14 27  1  0
 17 28  1  0
 18 29  1  0
 19 30  1  0
 20 31  1  0
 21 32  1  0
M  CHG  1   3  -1
M  END
>  <UniqueID>  (24) 
22

>  <SMILES>  (24) 
O=c1[n-]cc(-c2cccc(Cl)c2)c(O)c1-c1ccccc1

>  <Energy>  (24) 
51.37622450724398

>  <Genealogy>  (24) 
O=c1[n-]cc(-c2cccc(Cl)c2)c(O)c1-c1ccccc1 (protonated)
O=c1[n-]cc(-c2cccc(Cl)c2)c(O)c1-c1ccccc1 (3D coordinates assigned)
O=c1[n-]cc(-c2cccc(Cl)c2)c(O)c1-c1ccccc1 (optimized conformer: 51.37622450724398 kcal/mol)

>  <smiles>  (24) 
O=c1[nH]cc(-c2cccc(Cl)c2)c(O)c1-c1ccccc1

>  <score_type>  (24) 
oracle

>  <origin>  (24) 
adgpu

>  <m_score__min__energy>  (24) 
-9.0299999999999994

>  <m_primary>  (24) 
energy

$$$$
24:0
     RDKit          3D

 39 42  0  0  0  0  0  0  0  0999 V2000
   -8.6380   23.2370  -31.6900 C   0  0  0  0  0  0  0  0  0  0  0  0
   -7.9900   21.8920  -31.8990 C   0  0  0  0  0  0  0  0  0  0  0  0
   -8.7920   20.8300  -32.3510 C   0  0  0  0  0  0  0  0  0  0  0  0
   -8.2440   19.5720  -32.5950 C   0  0  0  0  0  0  0  0  0  0  0  0
   -6.8760   19.3420  -32.3940 C   0  0  0  0  0  0  0  0  0  0  0  0
   -6.2910   18.0030  -32.6610 C   0  0  0  0  0  0  0  0  0  0  0  0
   -6.1120   17.5420  -33.9760 C   0  0  0  0  0  0  0  0  0  0  0  0
   -5.5610   16.2810  -34.2100 C   0  0  0  0  0  0  0  0  0  0  0  0
   -5.1890   15.4840  -33.1260 C   0  0  0  0  0  0  0  0  0  0  0  0
   -4.6530   14.2570  -33.3350 F   0  0  0  0  0  0  0  0  0  0  0  0
   -5.3640   15.9390  -31.8570 N   0  0  0  0  0  0  0  0  0  0  0  0
   -5.8990   17.1630  -31.6020 C   0  0  0  0  0  0  0  0  0  0  0  0
   -6.0690   20.3930  -31.9290 C   0  0  0  0  0  0  0  0  0  0  0  0
   -6.6070   21.6680  -31.6660 C   0  0  0  0  0  0  0  0  0  0  0  0
   -5.6900   22.7200  -31.1510 C   0  0  0  0  0  0  0  0  0  0  0  0
   -5.3310   23.8270  -31.8330 N   0  0  0  0  0  0  0  0  0  0  0  0
   -4.5590   24.4890  -31.0270 O   0  0  0  0  0  0  0  0  0  0  0  0
   -4.4420   23.8390  -29.8950 C   0  0  0  0  0  0  0  0  0  0  0  0
   -3.6380   24.3050  -28.7480 C   0  0  0  0  0  0  0  0  0  0  0  0
   -2.2730   24.5940  -28.9140 C   0  0  0  0  0  0  0  0  0  0  0  0
   -1.5080   25.0360  -27.8290 C   0  0  0  0  0  0  0  0  0  0  0  0
   -2.0990   25.1910  -26.5710 C   0  0  0  0  0  0  0  0  0  0  0  0
   -1.1370   25.7450  -25.2130 Cl  0  0  0  0  0  0  0  0  0  0  0  0
   -3.4570   24.9060  -26.3980 C   0  0  0  0  0  0  0  0  0  0  0  0
   -4.2240   24.4650  -27.4810 C   0  0  0  0  0  0  0  0  0  0  0  0
   -5.1500   22.6940  -29.9120 N   0  0  0  0  0  0  0  0  0  0  0  0
   -8.7332   23.4346  -30.6121 H   0  0  0  0  0  0  0  0  0  0  0  0
   -8.0177   24.0187  -32.1527 H   0  0  0  0  0  0  0  0  0  0  0  0
   -9.6359   23.2391  -32.1527 H   0  0  0  0  0  0  0  0  0  0  0  0
   -9.8673   20.9940  -32.5145 H   0  0  0  0  0  0  0  0  0  0  0  0
   -8.8894   18.7541  -32.9477 H   0  0  0  0  0  0  0  0  0  0  0  0
   -6.4071   18.1771  -34.8243 H   0  0  0  0  0  0  0  0  0  0  0  0
   -5.4212   15.9186  -35.2392 H   0  0  0  0  0  0  0  0  0  0  0  0
   -6.0261   17.4984  -30.5621 H   0  0  0  0  0  0  0  0  0  0  0  0
   -4.9953   20.2171  -31.7669 H   0  0  0  0  0  0  0  0  0  0  0  0
   -1.8037   24.4722  -29.9014 H   0  0  0  0  0  0  0  0  0  0  0  0
   -0.4402   25.2619  -27.9657 H   0  0  0  0  0  0  0  0  0  0  0  0
   -3.9225   25.0288  -25.4089 H   0  0  0  0  0  0  0  0  0  0  0  0
   -5.2919   24.2421  -27.3402 H   0  0  0  0  0  0  0  0  0  0  0  0
  1  2  1  0
  2  3  2  0
  3  4  1  0
  4  5  2  0
  5  6  1  0
  6  7  2  0
  7  8  1  0
  8  9  2  0
  9 10  1  0
  9 11  1  0
 11 12  2  0
  5 13  1  0
 13 14  2  0
 14 15  1  0
 15 16  2  0
 16 17  1  0
 17 18  1  0
 18 19  1  0
 19 20  2  0
 20 21  1  0
 21 22  2  0
 22 23  1  0
 22 24  1  0
 24 25  2  0
 18 26  2  0
 14  2  1  0
 26 15  1  0
 12  6  1  0
 25 19  1  0
  1 27  1  0
  1 28  1  0
  1 29  1  0
  3 30  1  0
  4 31  1  0
  7 32  1  0
  8 33  1  0
 12 34  1  0
 13 35  1  0
 20 36  1  0
 21 37  1  0
 24 38  1  0
 25 39  1  0
M  END
>  <UniqueID>  (25) 
23

>  <SMILES>  (25) 
Cc1ccc(-c2ccc(F)nc2)cc1-c1noc(-c2ccc(Cl)cc2)n1

>  <Energy>  (25) 
87.22521299160792

>  <Genealogy>  (25) 
Cc1ccc(-c2ccc(F)nc2)cc1-c1noc(-c2ccc(Cl)cc2)n1 (3D coordinates assigned)
Cc1ccc(-c2ccc(F)nc2)cc1-c1noc(-c2ccc(Cl)cc2)n1 (optimized conformer: 87.22521299160792 kcal/mol)

>  <smiles>  (25) 
Cc1ccc(-c2ccc(F)nc2)cc1-c1noc(-c2ccc(Cl)cc2)n1

>  <score_type>  (25) 
oracle

>  <origin>  (25) 
adgpu

>  <m_score__min__energy>  (25) 
-9.9600000000000009

>  <m_primary>  (25) 
energy

$$$$
25:0
     RDKit          3D

 47 50  0  0  0  0  0  0  0  0999 V2000
   -2.9470   21.0320  -27.4890 C   0  0  0  0  0  0  0  0  0  0  0  0
   -2.0650   21.1670  -28.6990 C   0  0  0  0  0  0  0  0  0  0  0  0
   -1.3790   20.0390  -29.1790 C   0  0  0  0  0  0  0  0  0  0  0  0
   -0.5110   20.1470  -30.2670 C   0  0  0  0  0  0  0  0  0  0  0  0
   -0.3030   21.3860  -30.8720 C   0  0  0  0  0  0  0  0  0  0  0  0
   -0.9610   22.5210  -30.3930 C   0  0  0  0  0  0  0  0  0  0  0  0
   -1.8580   22.4230  -29.3120 C   0  0  0  0  0  0  0  0  0  0  0  0
   -2.4890   23.5890  -28.7580 N   0  0  0  0  0  0  0  0  0  0  0  0
   -2.5180   24.9070  -29.3210 C   0  0  0  0  0  0  0  0  0  0  0  0
   -1.6770   25.7740  -28.9660 O   0  0  0  0  0  0  0  0  0  0  0  0
   -3.4870   25.2420  -30.3190 N   0  0  0  0  0  0  0  0  0  0  0  0
   -4.8680   24.7630  -30.3100 C   0  0  0  0  0  0  0  0  0  0  0  0
   -4.9870   23.4680  -31.0700 C   0  0  0  0  0  0  0  0  0  0  0  0
   -3.8680   22.9300  -31.7240 C   0  0  0  0  0  0  0  0  0  0  0  0
   -3.9950   21.7710  -32.4950 C   0  0  0  0  0  0  0  0  0  0  0  0
   -5.2400   21.1510  -32.6310 C   0  0  0  0  0  0  0  0  0  0  0  0
   -6.3690   21.6850  -31.9920 C   0  0  0  0  0  0  0  0  0  0  0  0
   -7.6960   21.0600  -32.1480 C   0  0  0  0  0  0  0  0  0  0  0  0
   -8.8470   21.7560  -32.0700 N   0  0  0  0  0  0  0  0  0  0  0  0
   -9.8370   20.8880  -32.2140 N   0  0  0  0  0  0  0  0  0  0  0  0
   -9.2810   19.6730  -32.3790 C   0  0  0  0  0  0  0  0  0  0  0  0
   -7.9360   19.7440  -32.3500 N   0  0  0  0  0  0  0  0  0  0  0  0
   -7.0200   18.6680  -32.6230 C   0  0  0  0  0  0  0  0  0  0  0  0
   -6.6600   17.7560  -31.6190 C   0  0  0  0  0  0  0  0  0  0  0  0
   -5.7520   16.7350  -31.9050 C   0  0  0  0  0  0  0  0  0  0  0  0
   -5.2110   16.6320  -33.1480 N   0  0  0  0  0  0  0  0  0  0  0  0
   -5.5300   17.5090  -34.1370 C   0  0  0  0  0  0  0  0  0  0  0  0
   -6.4350   18.5440  -33.8930 C   0  0  0  0  0  0  0  0  0  0  0  0
   -6.2290   22.8260  -31.1880 C   0  0  0  0  0  0  0  0  0  0  0  0
   -2.3370   21.1254  -26.5784 H   0  0  0  0  0  0  0  0  0  0  0  0
   -3.7105   21.8237  -27.5016 H   0  0  0  0  0  0  0  0  0  0  0  0
   -3.4388   20.0481  -27.5016 H   0  0  0  0  0  0  0  0  0  0  0  0
   -1.5269   19.0630  -28.6938 H   0  0  0  0  0  0  0  0  0  0  0  0
    0.0087   19.2550  -30.6469 H   0  0  0  0  0  0  0  0  0  0  0  0
    0.3814   21.4697  -31.7291 H   0  0  0  0  0  0  0  0  0  0  0  0
   -0.7772   23.4982  -30.8634 H   0  0  0  0  0  0  0  0  0  0  0  0
   -5.1876   24.6020  -29.2699 H   0  0  0  0  0  0  0  0  0  0  0  0
   -5.5071   25.5168  -30.7932 H   0  0  0  0  0  0  0  0  0  0  0  0
   -2.8885   23.4216  -31.6297 H   0  0  0  0  0  0  0  0  0  0  0  0
   -3.1128   21.3459  -32.9959 H   0  0  0  0  0  0  0  0  0  0  0  0
   -5.3351   20.2408  -33.2414 H   0  0  0  0  0  0  0  0  0  0  0  0
   -9.8511   18.7428  -32.5193 H   0  0  0  0  0  0  0  0  0  0  0  0
   -7.0914   17.8453  -30.6111 H   0  0  0  0  0  0  0  0  0  0  0  0
   -5.4738   16.0127  -31.1234 H   0  0  0  0  0  0  0  0  0  0  0  0
   -5.0738   17.4028  -35.1323 H   0  0  0  0  0  0  0  0  0  0  0  0
   -6.6879   19.2577  -34.6909 H   0  0  0  0  0  0  0  0  0  0  0  0
   -7.1006   23.2208  -30.6453 H   0  0  0  0  0  0  0  0  0  0  0  0
  1  2  1  0
  2  3  2  0
  3  4  1  0
  4  5  2  0
  5  6  1  0
  6  7  2  0
  7  8  1  0
  8  9  1  0
  9 10  2  0
  9 11  1  0
 11 12  1  0
 12 13  1  0
 13 14  2  0
 14 15  1  0
 15 16  2  0
 16 17  1  0
 17 18  1  0
 18 19  2  0
 19 20  1  0
 20 21  2  0
 21 22  1  0
 22 23  1  0
 23 24  2  0
 24 25  1  0
 25 26  2  0
 26 27  1  0
 27 28  2  0
 17 29  2  0
  7  2  1  0
 29 13  1  0
 22 18  1  0
 28 23  1  0
  1 30  1  0
  1 31  1  0
  1 32  1  0
  3 33  1  0
  4 34  1  0
  5 35  1  0
  6 36  1  0
 12 37  1  0
 12 38  1  0
 14 39  1  0
 15 40  1  0
 16 41  1  0
 21 42  1  0
 24 43  1  0
 25 44  1  0
 27 45  1  0
 28 46  1  0
 29 47  1  0
M  CHG  2   8  -1  11  -1
M  END
>  <UniqueID>  (26) 
24

>  <SMILES>  (26) 
Cc1ccccc1[N-]C(=O)[N-]Cc1cccc(-c2nncn2-c2ccncc2)c1

>  <Energy>  (26) 
91.65627406985969

>  <Genealogy>  (26) 
Cc1ccccc1[N-]C(=O)[N-]Cc1cccc(-c2nncn2-c2ccncc2)c1 (protonated)
Cc1ccccc1[N-]C(=O)[N-]Cc1cccc(-c2nncn2-c2ccncc2)c1 (3D coordinates assigned)
Cc1ccccc1[N-]C(=O)[N-]Cc1cccc(-c2nncn2-c2ccncc2)c1 (optimized conformer: 91.65627406985969 kcal/mol)

>  <smiles>  (26) 
Cc1ccccc1NC(=O)NCc1cccc(-c2nncn2-c2ccncc2)c1

>  <score_type>  (26) 
oracle

>  <origin>  (26) 
adgpu

>  <m_score__min__energy>  (26) 
-12.970000000000001

>  <m_primary>  (26) 
energy

$$$$
26:0
     RDKit          3D

 43 44  0  0  0  0  0  0  0  0999 V2000
   -0.4860   22.6980  -23.7210 C   0  0  0  0  0  0  0  0  0  0  0  0
    0.6700   23.3700  -24.4730 C   0  0  0  0  0  0  0  0  0  0  0  0
    0.2700   24.4930  -25.3600 N   0  0  0  0  0  0  0  0  0  0  0  0
   -1.0920   25.0200  -25.1110 C   0  0  0  0  0  0  0  0  0  0  0  0
   -1.0830   26.4370  -24.5290 C   0  0  0  0  0  0  0  0  0  0  0  0
    0.4430   24.0880  -27.0580 S   0  0  0  0  0  0  0  0  0  0  0  0
    1.3930   22.9320  -27.1970 O   0  0  0  0  0  0  0  0  0  0  0  0
    1.0380   25.2520  -27.8030 O   0  0  0  0  0  0  0  0  0  0  0  0
   -1.1130   23.6520  -27.8000 C   0  0  0  0  0  0  0  0  0  0  0  0
   -1.6990   24.5590  -28.7000 C   0  0  0  0  0  0  0  0  0  0  0  0
   -2.9200   24.2760  -29.3180 C   0  0  0  0  0  0  0  0  0  0  0  0
   -3.4860   25.2430  -30.2130 N   0  0  0  0  0  0  0  0  0  0  0  0
   -4.8590   25.3140  -30.6190 C   0  0  0  0  0  0  0  0  0  0  0  0
   -5.4680   26.4110  -30.5170 O   0  0  0  0  0  0  0  0  0  0  0  0
   -5.5630   24.1600  -31.2070 C   0  0  0  0  0  0  0  0  0  0  0  0
   -6.9300   23.9410  -31.2150 C   0  0  0  0  0  0  0  0  0  0  0  0
   -7.1120   22.7330  -31.8550 C   0  0  0  0  0  0  0  0  0  0  0  0
   -5.8500   22.2910  -32.1880 C   0  0  0  0  0  0  0  0  0  0  0  0
   -5.4480   20.6630  -33.0950 Br  0  0  0  0  0  0  0  0  0  0  0  0
   -4.9470   23.1560  -31.7890 O   0  0  0  0  0  0  0  0  0  0  0  0
   -3.5880   23.0840  -29.0080 C   0  0  0  0  0  0  0  0  0  0  0  0
   -3.0210   22.1710  -28.1190 C   0  0  0  0  0  0  0  0  0  0  0  0
   -1.7880   22.4400  -27.5000 C   0  0  0  0  0  0  0  0  0  0  0  0
   -1.2100   21.4100  -26.5680 C   0  0  0  0  0  0  0  0  0  0  0  0
   -0.3228   22.7929  -22.6373 H   0  0  0  0  0  0  0  0  0  0  0  0
   -1.4334   23.1861  -23.9932 H   0  0  0  0  0  0  0  0  0  0  0  0
   -0.5307   21.6332  -23.9932 H   0  0  0  0  0  0  0  0  0  0  0  0
    1.3814   23.7585  -23.7294 H   0  0  0  0  0  0  0  0  0  0  0  0
    1.1023   22.5987  -25.1274 H   0  0  0  0  0  0  0  0  0  0  0  0
    0.9410   25.2750  -25.1800 H   0  0  0  0  0  0  0  0  0  0  0  0
   -1.6427   25.0346  -26.0631 H   0  0  0  0  0  0  0  0  0  0  0  0
   -1.5719   24.3615  -24.3721 H   0  0  0  0  0  0  0  0  0  0  0  0
   -1.0833   26.3822  -23.4304 H   0  0  0  0  0  0  0  0  0  0  0  0
   -0.1815   26.9675  -24.8694 H   0  0  0  0  0  0  0  0  0  0  0  0
   -1.9777   26.9789  -24.8694 H   0  0  0  0  0  0  0  0  0  0  0  0
   -1.1878   25.5075  -28.9215 H   0  0  0  0  0  0  0  0  0  0  0  0
   -7.7096   24.5951  -30.7974 H   0  0  0  0  0  0  0  0  0  0  0  0
   -8.0673   22.2268  -32.0578 H   0  0  0  0  0  0  0  0  0  0  0  0
   -4.5636   22.8673  -29.4676 H   0  0  0  0  0  0  0  0  0  0  0  0
   -3.5451   21.2291  -27.8996 H   0  0  0  0  0  0  0  0  0  0  0  0
   -1.3835   21.7192  -25.5267 H   0  0  0  0  0  0  0  0  0  0  0  0
   -1.6952   20.4393  -26.7479 H   0  0  0  0  0  0  0  0  0  0  0  0
   -0.1287   21.3184  -26.7479 H   0  0  0  0  0  0  0  0  0  0  0  0
  1  2  1  0
  2  3  1  0
  3  4  1  0
  4  5  1  0
  3  6  1  0
  6  7  2  0
  6  8  2  0
  6  9  1  0
  9 10  2  0
 10 11  1  0
 11 12  1  0
 12 13  1  0
 13 14  2  0
 13 15  1  0
 15 16  2  0
 16 17  1  0
 17 18  2  0
 18 19  1  0
 18 20  1  0
 11 21  2  0
 21 22  1  0
 22 23  2  0
 23 24  1  0
 23  9  1  0
 20 15  1  0
  1 25  1  0
  1 26  1  0
  1 27  1  0
  2 28  1  0
  2 29  1  0
  3 30  1  0
  4 31  1  0
  4 32  1  0
  5 33  1  0
  5 34  1  0
  5 35  1  0
 10 36  1  0
 16 37  1  0
 17 38  1  0
 21 39  1  0
 22 40  1  0
 24 41  1  0
 24 42  1  0
 24 43  1  0
M  CHG  2   3   1  12  -1
M  END
>  <UniqueID>  (27) 
25

>  <SMILES>  (27) 
CC[NH+](CC)S(=O)(=O)c1cc([N-]C(=O)c2ccc(Br)o2)ccc1C

>  <Energy>  (27) 
75.22915776241616

>  <Genealogy>  (27) 
CC[NH+](CC)S(=O)(=O)c1cc([N-]C(=O)c2ccc(Br)o2)ccc1C (protonated)
CC[NH+](CC)S(=O)(=O)c1cc([N-]C(=O)c2ccc(Br)o2)ccc1C (3D coordinates assigned)
CC[NH+](CC)S(=O)(=O)c1cc([N-]C(=O)c2ccc(Br)o2)ccc1C (optimized conformer: 75.22915776241616 kcal/mol)

>  <smiles>  (27) 
CCN(CC)S(=O)(=O)c1cc(NC(=O)c2ccc(Br)o2)ccc1C

>  <score_type>  (27) 
oracle

>  <origin>  (27) 
adgpu

>  <m_score__min__energy>  (27) 
-10.119999999999999

>  <m_primary>  (27) 
energy

$$$$
27:0
     RDKit          3D

 40 42  0  0  0  0  0  0  0  0999 V2000
   -1.6140   19.5400  -26.7840 C   0  0  0  0  0  0  0  0  0  0  0  0
   -1.8530   20.8500  -27.4730 C   0  0  0  0  0  0  0  0  0  0  0  0
   -3.1440   21.3960  -27.5220 C   0  0  0  0  0  0  0  0  0  0  0  0
   -3.3640   22.6350  -28.1320 C   0  0  0  0  0  0  0  0  0  0  0  0
   -2.2950   23.3480  -28.7020 C   0  0  0  0  0  0  0  0  0  0  0  0
   -2.5170   24.6610  -29.3520 C   0  0  0  0  0  0  0  0  0  0  0  0
   -1.8780   25.6680  -28.9460 O   0  0  0  0  0  0  0  0  0  0  0  0
   -3.4790   24.8370  -30.4020 N   0  0  0  0  0  0  0  0  0  0  0  0
   -4.3840   23.8390  -30.8950 C   0  0  0  0  0  0  0  0  0  0  0  0
   -3.9150   22.6420  -31.4910 C   0  0  0  0  0  0  0  0  0  0  0  0
   -4.8230   21.6850  -31.9720 C   0  0  0  0  0  0  0  0  0  0  0  0
   -6.1890   21.9520  -31.8620 C   0  0  0  0  0  0  0  0  0  0  0  0
   -6.6460   23.1150  -31.3110 C   0  0  0  0  0  0  0  0  0  0  0  0
   -5.7670   24.0840  -30.8250 C   0  0  0  0  0  0  0  0  0  0  0  0
   -8.1360   23.1510  -31.3220 C   0  0  0  0  0  0  0  0  0  0  0  0
   -8.5240   21.7890  -31.9520 C   0  0  0  0  0  0  0  0  0  0  0  0
   -7.2620   21.1300  -32.2800 N   0  0  0  0  0  0  0  0  0  0  0  0
   -7.1340   19.5120  -32.8860 S   0  0  0  0  0  0  0  0  0  0  0  0
   -6.2010   18.5180  -31.7450 C   0  0  0  0  0  0  0  0  0  0  0  0
   -8.5100   18.9250  -33.0370 O   0  0  0  0  0  0  0  0  0  0  0  0
   -6.4610   19.5260  -34.2290 O   0  0  0  0  0  0  0  0  0  0  0  0
   -0.9970   22.8130  -28.6190 C   0  0  0  0  0  0  0  0  0  0  0  0
   -0.7790   21.5750  -28.0080 C   0  0  0  0  0  0  0  0  0  0  0  0
   -1.6411   19.6885  -25.6944 H   0  0  0  0  0  0  0  0  0  0  0  0
   -2.3963   18.8240  -27.0760 H   0  0  0  0  0  0  0  0  0  0  0  0
   -0.6292   19.1464  -27.0760 H   0  0  0  0  0  0  0  0  0  0  0  0
   -3.9876   20.8469  -27.0784 H   0  0  0  0  0  0  0  0  0  0  0  0
   -4.3803   23.0544  -28.1660 H   0  0  0  0  0  0  0  0  0  0  0  0
   -2.8334   22.4615  -31.5773 H   0  0  0  0  0  0  0  0  0  0  0  0
   -4.4668   20.7478  -32.4245 H   0  0  0  0  0  0  0  0  0  0  0  0
   -6.1488   25.0218  -30.3952 H   0  0  0  0  0  0  0  0  0  0  0  0
   -8.5351   23.2402  -30.3008 H   0  0  0  0  0  0  0  0  0  0  0  0
   -8.5406   24.0110  -31.8759 H   0  0  0  0  0  0  0  0  0  0  0  0
   -9.0971   21.1839  -31.2341 H   0  0  0  0  0  0  0  0  0  0  0  0
   -9.1567   21.9196  -32.8423 H   0  0  0  0  0  0  0  0  0  0  0  0
   -6.4641   18.7983  -30.7144 H   0  0  0  0  0  0  0  0  0  0  0  0
   -6.4357   17.4556  -31.9073 H   0  0  0  0  0  0  0  0  0  0  0  0
   -5.1259   18.6850  -31.9073 H   0  0  0  0  0  0  0  0  0  0  0  0
   -0.1476   23.3726  -29.0378 H   0  0  0  0  0  0  0  0  0  0  0  0
    0.2408   21.1673  -27.9466 H   0  0  0  0  0  0  0  0  0  0  0  0
  1  2  1  0
  2  3  2  0
  3  4  1  0
  4  5  2  0
  5  6  1  0
  6  7  2  0
  6  8  1  0
  8  9  1  0
  9 10  2  0
 10 11  1  0
 11 12  2  0
 12 13  1  0
 13 14  2  0
 13 15  1  0
 15 16  1  0
 16 17  1  0
 17 18  1  0
 18 19  1  0
 18 20  2  0
 18 21  2  0
  5 22  1  0
 22 23  2  0
 23  2  1  0
 14  9  1  0
 17 12  1  0
  1 24  1  0
  1 25  1  0
  1 26  1  0
  3 27  1  0
  4 28  1  0
 10 29  1  0
 11 30  1  0
 14 31  1  0
 15 32  1  0
 15 33  1  0
 16 34  1  0
 16 35  1  0
 19 36  1  0
 19 37  1  0
 19 38  1  0
 22 39  1  0
 23 40  1  0
M  CHG  1   8  -1
M  END
>  <UniqueID>  (28) 
26

>  <SMILES>  (28) 
Cc1ccc(C(=O)[N-]c2ccc3c(c2)CCN3S(C)(=O)=O)cc1

>  <Energy>  (28) 
58.753928964796074

>  <Genealogy>  (28) 
Cc1ccc(C(=O)[N-]c2ccc3c(c2)CCN3S(C)(=O)=O)cc1 (protonated)
Cc1ccc(C(=O)[N-]c2ccc3c(c2)CCN3S(C)(=O)=O)cc1 (3D coordinates assigned)
Cc1ccc(C(=O)[N-]c2ccc3c(c2)CCN3S(C)(=O)=O)cc1 (nonaromatic ring conformer: 58.753928964796074 kcal/mol)

>  <smiles>  (28) 
Cc1ccc(C(=O)Nc2ccc3c(c2)CCN3S(C)(=O)=O)cc1

>  <score_type>  (28) 
oracle

>  <origin>  (28) 
adgpu

>  <m_score__min__energy>  (28) 
-10.35

>  <m_primary>  (28) 
energy

$$$$
28:0
     RDKit          3D

 44 46  0  0  0  0  0  0  0  0999 V2000
   -9.0400   18.5840  -31.5980 C   0  0  0  0  0  0  0  0  0  0  0  0
   -7.9570   17.9910  -32.3070 O   0  0  0  0  0  0  0  0  0  0  0  0
   -6.7630   18.6540  -32.6220 C   0  0  0  0  0  0  0  0  0  0  0  0
   -6.2040   19.5120  -31.6720 C   0  0  0  0  0  0  0  0  0  0  0  0
   -5.0090   20.1900  -31.9400 C   0  0  0  0  0  0  0  0  0  0  0  0
   -4.3470   20.0130  -33.1630 C   0  0  0  0  0  0  0  0  0  0  0  0
   -3.1150   20.7150  -33.4100 N   0  0  0  0  0  0  0  0  0  0  0  0
   -1.7790   20.6820  -32.3050 S   0  0  0  0  0  0  0  0  0  0  0  0
   -0.5360   21.1610  -33.0030 O   0  0  0  0  0  0  0  0  0  0  0  0
   -1.5610   19.2750  -31.8290 O   0  0  0  0  0  0  0  0  0  0  0  0
   -2.1270   21.7590  -30.9580 C   0  0  0  0  0  0  0  0  0  0  0  0
   -1.8780   21.3650  -29.6370 C   0  0  0  0  0  0  0  0  0  0  0  0
   -2.2730   22.1810  -28.5730 C   0  0  0  0  0  0  0  0  0  0  0  0
   -2.9200   23.3920  -28.8230 C   0  0  0  0  0  0  0  0  0  0  0  0
   -3.1470   23.8040  -30.1450 C   0  0  0  0  0  0  0  0  0  0  0  0
   -3.7620   25.0670  -30.4360 N   0  0  0  0  0  0  0  0  0  0  0  0
   -5.1700   25.2860  -30.5290 C   0  0  0  0  0  0  0  0  0  0  0  0
   -5.6120   26.4600  -30.4410 O   0  0  0  0  0  0  0  0  0  0  0  0
   -6.1090   24.1680  -30.7920 C   0  0  0  0  0  0  0  0  0  0  0  0
   -6.4480   23.8070  -32.1130 C   0  0  0  0  0  0  0  0  0  0  0  0
   -7.3600   22.7800  -32.3500 C   0  0  0  0  0  0  0  0  0  0  0  0
   -7.9410   22.0980  -31.2780 C   0  0  0  0  0  0  0  0  0  0  0  0
   -7.6130   22.4460  -29.9670 C   0  0  0  0  0  0  0  0  0  0  0  0
   -6.6970   23.4790  -29.7210 C   0  0  0  0  0  0  0  0  0  0  0  0
   -2.7350   22.9930  -31.2070 C   0  0  0  0  0  0  0  0  0  0  0  0
   -4.9160   19.1620  -34.1280 C   0  0  0  0  0  0  0  0  0  0  0  0
   -6.1070   18.4790  -33.8590 C   0  0  0  0  0  0  0  0  0  0  0  0
   -8.8659   18.4887  -30.5161 H   0  0  0  0  0  0  0  0  0  0  0  0
   -9.1140   19.6485  -31.8651 H   0  0  0  0  0  0  0  0  0  0  0  0
   -9.9767   18.0729  -31.8651 H   0  0  0  0  0  0  0  0  0  0  0  0
   -6.7073   19.6562  -30.7046 H   0  0  0  0  0  0  0  0  0  0  0  0
   -4.5856   20.8678  -31.1841 H   0  0  0  0  0  0  0  0  0  0  0  0
   -3.0520   21.3790  -34.2150 H   0  0  0  0  0  0  0  0  0  0  0  0
   -1.3699   20.4102  -29.4363 H   0  0  0  0  0  0  0  0  0  0  0  0
   -2.0736   21.8682  -27.5374 H   0  0  0  0  0  0  0  0  0  0  0  0
   -3.2515   24.0226  -27.9849 H   0  0  0  0  0  0  0  0  0  0  0  0
   -5.9903   24.3387  -32.9602 H   0  0  0  0  0  0  0  0  0  0  0  0
   -7.6227   22.5061  -33.3825 H   0  0  0  0  0  0  0  0  0  0  0  0
   -8.6580   21.2856  -31.4676 H   0  0  0  0  0  0  0  0  0  0  0  0
   -8.0739   21.9090  -29.1249 H   0  0  0  0  0  0  0  0  0  0  0  0
   -6.4392   23.7494  -28.6864 H   0  0  0  0  0  0  0  0  0  0  0  0
   -2.8900   23.3276  -32.2433 H   0  0  0  0  0  0  0  0  0  0  0  0
   -4.4206   19.0326  -35.1016 H   0  0  0  0  0  0  0  0  0  0  0  0
   -6.5337   17.8030  -34.6147 H   0  0  0  0  0  0  0  0  0  0  0  0
  1  2  1  0
  2  3  1  0
  3  4  2  0
  4  5  1  0
  5  6  2  0
  6  7  1  0
  7  8  1  0
  8  9  2  0
  8 10  2  0
  8 11  1  0
 11 12  2  0
 12 13  1  0
 13 14  2  0
 14 15  1  0
 15 16  1  0
 16 17  1  0
 17 18  2  0
 17 19  1  0
 19 20  2  0
 20 21  1  0
 21 22  2  0
 22 23  1  0
 23 24  2  0
 15 25  2  0
  6 26  1  0
 26 27  2  0
 27  3  1  0
 25 11  1  0
 24 19  1  0
  1 28  1  0
  1 29  1  0
  1 30  1  0
  4 31  1  0
  5 32  1  0
  7 33  1  0
 12 34  1  0
 13 35  1  0
 14 36  1  0
 20 37  1  0
 21 38  1  0
 22 39  1  0
 23 40  1  0
 24 41  1  0
 25 42  1  0
 26 43  1  0
 27 44  1  0
M  CHG  1  16  -1
M  END
>  <UniqueID>  (29) 
27

>  <SMILES>  (29) 
COc1ccc(NS(=O)(=O)c2cccc([N-]C(=O)c3ccccc3)c2)cc1

>  <Energy>  (29) 
54.562376158894295

>  <Genealogy>  (29) 
COc1ccc(NS(=O)(=O)c2cccc([N-]C(=O)c3ccccc3)c2)cc1 (protonated)
COc1ccc(NS(=O)(=O)c2cccc([N-]C(=O)c3ccccc3)c2)cc1 (3D coordinates assigned)
COc1ccc(NS(=O)(=O)c2cccc([N-]C(=O)c3ccccc3)c2)cc1 (optimized conformer: 54.562376158894295 kcal/mol)

>  <smiles>  (29) 
COc1ccc(NS(=O)(=O)c2cccc(NC(=O)c3ccccc3)c2)cc1

>  <score_type>  (29) 
oracle

>  <origin>  (29) 
adgpu

>  <m_score__min__energy>  (29) 
-10.68

>  <m_primary>  (29) 
energy

$$$$
29:0
     RDKit          3D

 26 27  0  0  0  0  0  0  0  0999 V2000
   -7.1410   17.5870  -32.1270 C   0  0  0  0  0  0  0  0  0  0  0  0
   -7.6850   18.9850  -32.0980 C   0  0  0  0  0  0  0  0  0  0  0  0
   -9.0450   19.2170  -32.3420 C   0  0  0  0  0  0  0  0  0  0  0  0
   -9.5610   20.5130  -32.2780 C   0  0  0  0  0  0  0  0  0  0  0  0
   -8.7270   21.5930  -31.9550 C   0  0  0  0  0  0  0  0  0  0  0  0
   -9.2640   22.8770  -31.8640 O   0  0  0  0  0  0  0  0  0  0  0  0
   -7.3580   21.3720  -31.7010 C   0  0  0  0  0  0  0  0  0  0  0  0
   -6.4480   22.4940  -31.3630 C   0  0  0  0  0  0  0  0  0  0  0  0
   -5.0540   22.3330  -31.4670 C   0  0  0  0  0  0  0  0  0  0  0  0
   -4.1950   23.3920  -31.1580 C   0  0  0  0  0  0  0  0  0  0  0  0
   -4.7180   24.6220  -30.7490 C   0  0  0  0  0  0  0  0  0  0  0  0
   -3.8630   25.6740  -30.4420 O   0  0  0  0  0  0  0  0  0  0  0  0
   -6.1020   24.7940  -30.6490 C   0  0  0  0  0  0  0  0  0  0  0  0
   -6.9640   23.7370  -30.9580 C   0  0  0  0  0  0  0  0  0  0  0  0
   -6.8500   20.0610  -31.7610 C   0  0  0  0  0  0  0  0  0  0  0  0
   -7.0008   17.2267  -31.0972 H   0  0  0  0  0  0  0  0  0  0  0  0
   -7.8487   16.9290  -32.6525 H   0  0  0  0  0  0  0  0  0  0  0  0
   -6.1747   17.5804  -32.6525 H   0  0  0  0  0  0  0  0  0  0  0  0
   -9.7092   18.3745  -32.5851 H   0  0  0  0  0  0  0  0  0  0  0  0
  -10.6277   20.6877  -32.4821 H   0  0  0  0  0  0  0  0  0  0  0  0
   -8.8870   23.6500  -32.4000 H   0  0  0  0  0  0  0  0  0  0  0  0
   -4.6377   21.3685  -31.7933 H   0  0  0  0  0  0  0  0  0  0  0  0
   -3.1062   23.2570  -31.2369 H   0  0  0  0  0  0  0  0  0  0  0  0
   -6.5133   25.7620  -30.3269 H   0  0  0  0  0  0  0  0  0  0  0  0
   -8.0522   23.8793  -30.8836 H   0  0  0  0  0  0  0  0  0  0  0  0
   -5.7878   19.8780  -31.5415 H   0  0  0  0  0  0  0  0  0  0  0  0
  1  2  1  0
  2  3  2  0
  3  4  1  0
  4  5  2  0
  5  6  1  0
  5  7  1  0
  7  8  1  0
  8  9  2  0
  9 10  1  0
 10 11  2  0
 11 12  1  0
 11 13  1  0
 13 14  2  0
  7 15  2  0
 15  2  1  0
 14  8  1  0
  1 16  1  0
  1 17  1  0
  1 18  1  0
  3 19  1  0
  4 20  1  0
  6 21  1  0
  9 22  1  0
 10 23  1  0
 13 24  1  0
 14 25  1  0
 15 26  1  0
M  CHG  1  12  -1
M  END
>  <UniqueID>  (30) 
28

>  <SMILES>  (30) 
Cc1ccc(O)c(-c2ccc([O-])cc2)c1

>  <Energy>  (30) 
32.1605443065303

>  <Genealogy>  (30) 
Cc1ccc(O)c(-c2ccc([O-])cc2)c1 (protonated)
Cc1ccc(O)c(-c2ccc([O-])cc2)c1 (3D coordinates assigned)
Cc1ccc(O)c(-c2ccc([O-])cc2)c1 (optimized conformer: 32.1605443065303 kcal/mol)

>  <smiles>  (30) 
Cc1ccc(O)c(-c2ccc(O)cc2)c1

>  <score_type>  (30) 
oracle

>  <origin>  (30) 
adgpu

>  <m_score__min__energy>  (30) 
-9.7599999999999998

>  <m_primary>  (30) 
energy

$$$$
30:0
     RDKit          3D

 17 17  0  0  0  0  0  0  0  0999 V2000
   -6.7980   25.5900  -29.4320 C   0  0  0  0  0  0  0  0  0  0  0  0
   -6.2530   24.4720  -30.2780 C   0  0  0  0  0  0  0  0  0  0  0  0
   -7.1180   23.4500  -30.7110 C   0  0  0  0  0  0  0  0  0  0  0  0
   -6.6390   22.4010  -31.4990 C   0  0  0  0  0  0  0  0  0  0  0  0
   -5.2930   22.3580  -31.8630 C   0  0  0  0  0  0  0  0  0  0  0  0
   -4.4220   23.3640  -31.4420 C   0  0  0  0  0  0  0  0  0  0  0  0
   -4.8860   24.4260  -30.6500 C   0  0  0  0  0  0  0  0  0  0  0  0
   -3.9620   25.4420  -30.2370 N   0  0  0  0  0  0  0  0  0  0  0  0
   -6.6753   25.3382  -28.3683 H   0  0  0  0  0  0  0  0  0  0  0  0
   -6.2513   26.5182  -29.6545 H   0  0  0  0  0  0  0  0  0  0  0  0
   -7.8660   25.7311  -29.6545 H   0  0  0  0  0  0  0  0  0  0  0  0
   -8.1802   23.4775  -30.4265 H   0  0  0  0  0  0  0  0  0  0  0  0
   -7.3240   21.6077  -31.8330 H   0  0  0  0  0  0  0  0  0  0  0  0
   -4.9177   21.5302  -32.4826 H   0  0  0  0  0  0  0  0  0  0  0  0
   -3.3621   23.3243  -31.7335 H   0  0  0  0  0  0  0  0  0  0  0  0
   -4.0850   25.9800  -29.3510 H   0  0  0  0  0  0  0  0  0  0  0  0
   -3.1280   25.6690  -30.8230 H   0  0  0  0  0  0  0  0  0  0  0  0
  1  2  1  0
  2  3  2  0
  3  4  1  0
  4  5  2  0
  5  6  1  0
  6  7  2  0
  7  8  1  0
  7  2  1  0
  1  9  1  0
  1 10  1  0
  1 11  1  0
  3 12  1  0
  4 13  1  0
  5 14  1  0
  6 15  1  0
  8 16  1  0
  8 17  1  0
M  END
>  <UniqueID>  (31) 
29

>  <SMILES>  (31) 
Cc1ccccc1N

>  <Energy>  (31) 
15.400857085875579

>  <Genealogy>  (31) 
Cc1ccccc1N (3D coordinates assigned)
Cc1ccccc1N (optimized conformer: 15.400857085875579 kcal/mol)

>  <smiles>  (31) 
Cc1ccccc1N

>  <score_type>  (31) 
oracle

>  <origin>  (31) 
adgpu

>  <m_score__min__energy>  (31) 
-4.8099999999999996

>  <m_primary>  (31) 
energy

$$$$
31:0
     RDKit          3D

 45 47  0  0  0  0  0  0  0  0999 V2000
   -1.9630   20.7600  -33.5790 C   0  0  0  0  0  0  0  0  0  0  0  0
   -3.0140   21.3940  -32.7100 C   0  0  0  0  0  0  0  0  0  0  0  0
   -4.3570   21.3380  -33.0740 C   0  0  0  0  0  0  0  0  0  0  0  0
   -5.3220   21.8840  -32.2790 N   0  0  0  0  0  0  0  0  0  0  0  0
   -6.7280   21.7980  -32.7210 C   0  0  0  0  0  0  0  0  0  0  0  0
   -7.3070   20.4310  -32.4290 C   0  0  0  0  0  0  0  0  0  0  0  0
   -6.6130   19.2830  -32.8540 C   0  0  0  0  0  0  0  0  0  0  0  0
   -7.1360   18.0100  -32.6210 C   0  0  0  0  0  0  0  0  0  0  0  0
   -8.3590   17.8640  -31.9640 C   0  0  0  0  0  0  0  0  0  0  0  0
   -9.0610   18.9940  -31.5400 C   0  0  0  0  0  0  0  0  0  0  0  0
   -8.5470   20.2760  -31.7680 C   0  0  0  0  0  0  0  0  0  0  0  0
   -9.4810   21.6560  -31.2020 Cl  0  0  0  0  0  0  0  0  0  0  0  0
   -4.9770   22.4440  -31.0720 C   0  0  0  0  0  0  0  0  0  0  0  0
   -5.8760   22.9030  -30.3130 O   0  0  0  0  0  0  0  0  0  0  0  0
   -3.6630   22.4930  -30.6740 N   0  0  0  0  0  0  0  0  0  0  0  0
   -3.3200   23.0370  -29.3430 C   0  0  0  0  0  0  0  0  0  0  0  0
   -3.5780   24.5490  -29.2640 C   0  0  0  0  0  0  0  0  0  0  0  0
   -2.3550   25.2910  -29.2900 O   0  0  0  0  0  0  0  0  0  0  0  0
   -1.3030   25.1810  -28.3650 C   0  0  0  0  0  0  0  0  0  0  0  0
   -0.3280   24.2010  -28.5930 C   0  0  0  0  0  0  0  0  0  0  0  0
    0.7170   24.0130  -27.6830 C   0  0  0  0  0  0  0  0  0  0  0  0
    0.8030   24.8130  -26.5410 C   0  0  0  0  0  0  0  0  0  0  0  0
   -0.1490   25.8080  -26.3140 C   0  0  0  0  0  0  0  0  0  0  0  0
   -1.1940   26.0020  -27.2230 C   0  0  0  0  0  0  0  0  0  0  0  0
   -2.6820   21.9850  -31.4860 C   0  0  0  0  0  0  0  0  0  0  0  0
   -1.4700   22.0220  -31.1290 O   0  0  0  0  0  0  0  0  0  0  0  0
   -1.1936   20.2959  -32.9444 H   0  0  0  0  0  0  0  0  0  0  0  0
   -2.4272   19.9911  -34.2141 H   0  0  0  0  0  0  0  0  0  0  0  0
   -1.4994   21.5292  -34.2141 H   0  0  0  0  0  0  0  0  0  0  0  0
   -4.6438   20.8468  -34.0155 H   0  0  0  0  0  0  0  0  0  0  0  0
   -7.3188   22.5594  -32.1906 H   0  0  0  0  0  0  0  0  0  0  0  0
   -6.7644   21.9686  -33.8071 H   0  0  0  0  0  0  0  0  0  0  0  0
   -5.6498   19.3898  -33.3745 H   0  0  0  0  0  0  0  0  0  0  0  0
   -6.5832   17.1199  -32.9558 H   0  0  0  0  0  0  0  0  0  0  0  0
   -8.7691   16.8599  -31.7806 H   0  0  0  0  0  0  0  0  0  0  0  0
  -10.0248   18.8760  -31.0231 H   0  0  0  0  0  0  0  0  0  0  0  0
   -3.9322   22.5306  -28.5823 H   0  0  0  0  0  0  0  0  0  0  0  0
   -2.2484   22.8622  -29.1667 H   0  0  0  0  0  0  0  0  0  0  0  0
   -4.1979   24.8512  -30.1210 H   0  0  0  0  0  0  0  0  0  0  0  0
   -4.0916   24.7627  -28.3150 H   0  0  0  0  0  0  0  0  0  0  0  0
   -0.3850   23.5743  -29.4952 H   0  0  0  0  0  0  0  0  0  0  0  0
    1.4721   23.2344  -27.8666 H   0  0  0  0  0  0  0  0  0  0  0  0
    1.6204   24.6588  -25.8212 H   0  0  0  0  0  0  0  0  0  0  0  0
   -0.0772   26.4414  -25.4176 H   0  0  0  0  0  0  0  0  0  0  0  0
   -1.9333   26.7973  -27.0469 H   0  0  0  0  0  0  0  0  0  0  0  0
  1  2  1  0
  2  3  2  0
  3  4  1  0
  4  5  1  0
  5  6  1  0
  6  7  2  0
  7  8  1  0
  8  9  2  0
  9 10  1  0
 10 11  2  0
 11 12  1  0
  4 13  1  0
 13 14  2  0
 13 15  1  0
 15 16  1  0
 16 17  1  0
 17 18  1  0
 18 19  1  0
 19 20  2  0
 20 21  1  0
 21 22  2  0
 22 23  1  0
 23 24  2  0
 15 25  1  0
 25 26  2  0
 25  2  1  0
 11  6  1  0
 24 19  1  0
  1 27  1  0
  1 28  1  0
  1 29  1  0
  3 30  1  0
  5 31  1  0
  5 32  1  0
  7 33  1  0
  8 34  1  0
  9 35  1  0
 10 36  1  0
 16 37  1  0
 16 38  1  0
 17 39  1  0
 17 40  1  0
 20 41  1  0
 21 42  1  0
 22 43  1  0
 23 44  1  0
 24 45  1  0
M  END
>  <UniqueID>  (32) 
30

>  <SMILES>  (32) 
Cc1cn(Cc2ccccc2Cl)c(=O)n(CCOc2ccccc2)c1=O

>  <Energy>  (32) 
52.19218947663593

>  <Genealogy>  (32) 
Cc1cn(Cc2ccccc2Cl)c(=O)n(CCOc2ccccc2)c1=O (3D coordinates assigned)
Cc1cn(Cc2ccccc2Cl)c(=O)n(CCOc2ccccc2)c1=O (optimized conformer: 52.19218947663593 kcal/mol)

>  <smiles>  (32) 
Cc1cn(Cc2ccccc2Cl)c(=O)n(CCOc2ccccc2)c1=O

>  <score_type>  (32) 
oracle

>  <origin>  (32) 
adgpu

>  <m_score__min__energy>  (32) 
-8.5500000000000007

>  <m_primary>  (32) 
energy

$$$$
32:0
     RDKit          3D

 30 31  0  0  0  0  0  0  0  0999 V2000
   -7.2590   23.4220  -33.0900 O   0  0  0  0  0  0  0  0  0  0  0  0
   -7.4500   22.5750  -31.8630 S   0  0  0  0  0  0  0  0  0  0  0  0
   -8.8240   22.8330  -31.3090 O   0  0  0  0  0  0  0  0  0  0  0  0
   -7.2890   20.8780  -32.3110 C   0  0  0  0  0  0  0  0  0  0  0  0
   -6.2080   20.4440  -33.0930 C   0  0  0  0  0  0  0  0  0  0  0  0
   -6.1000   19.0970  -33.4540 C   0  0  0  0  0  0  0  0  0  0  0  0
   -7.0690   18.1810  -33.0380 C   0  0  0  0  0  0  0  0  0  0  0  0
   -8.1510   18.6100  -32.2630 C   0  0  0  0  0  0  0  0  0  0  0  0
   -8.2620   19.9560  -31.9010 C   0  0  0  0  0  0  0  0  0  0  0  0
   -6.2100   22.9970  -30.6350 C   0  0  0  0  0  0  0  0  0  0  0  0
   -6.5140   24.3580  -29.9660 C   0  0  0  0  0  0  0  0  0  0  0  0
   -5.6820   25.4910  -30.5830 C   0  0  0  0  0  0  0  0  0  0  0  0
   -4.2290   25.2570  -30.4570 N   0  0  0  0  0  0  0  0  0  0  0  0
   -3.8300   23.8340  -30.4620 C   0  0  0  0  0  0  0  0  0  0  0  0
   -4.8010   22.9610  -31.2640 C   0  0  0  0  0  0  0  0  0  0  0  0
   -5.4444   21.1640  -33.4226 H   0  0  0  0  0  0  0  0  0  0  0  0
   -5.2510   18.7587  -34.0662 H   0  0  0  0  0  0  0  0  0  0  0  0
   -6.9809   17.1215  -33.3202 H   0  0  0  0  0  0  0  0  0  0  0  0
   -8.9150   17.8884  -31.9381 H   0  0  0  0  0  0  0  0  0  0  0  0
   -9.1149   20.2922  -31.2930 H   0  0  0  0  0  0  0  0  0  0  0  0
   -6.2412   22.2425  -29.8351 H   0  0  0  0  0  0  0  0  0  0  0  0
   -7.5818   24.5884  -30.0953 H   0  0  0  0  0  0  0  0  0  0  0  0
   -6.2540   24.2823  -28.8999 H   0  0  0  0  0  0  0  0  0  0  0  0
   -5.9350   25.5739  -31.6503 H   0  0  0  0  0  0  0  0  0  0  0  0
   -5.9206   26.4165  -30.0385 H   0  0  0  0  0  0  0  0  0  0  0  0
   -3.8990   25.6820  -29.5590 H   0  0  0  0  0  0  0  0  0  0  0  0
   -2.8277   23.7491  -30.9071 H   0  0  0  0  0  0  0  0  0  0  0  0
   -3.8385   23.4783  -29.4211 H   0  0  0  0  0  0  0  0  0  0  0  0
   -4.8563   23.3364  -32.2965 H   0  0  0  0  0  0  0  0  0  0  0  0
   -4.4352   21.9237  -31.2554 H   0  0  0  0  0  0  0  0  0  0  0  0
  1  2  2  0
  2  3  2  0
  2  4  1  0
  4  5  2  0
  5  6  1  0
  6  7  2  0
  7  8  1  0
  8  9  2  0
  2 10  1  0
 10 11  1  0
 11 12  1  0
 12 13  1  0
 13 14  1  0
 14 15  1  0
  9  4  1  0
 15 10  1  0
  5 16  1  0
  6 17  1  0
  7 18  1  0
  8 19  1  0
  9 20  1  0
 10 21  1  0
 11 22  1  0
 11 23  1  0
 12 24  1  0
 12 25  1  0
 13 26  1  0
 14 27  1  0
 14 28  1  0
 15 29  1  0
 15 30  1  0
M  END
>  <UniqueID>  (33) 
31

>  <SMILES>  (33) 
O=S(=O)(c1ccccc1)C1CCNCC1

>  <Energy>  (33) 
32.166609437902956

>  <Genealogy>  (33) 
O=S(=O)(c1ccccc1)C1CCNCC1 (3D coordinates assigned)
O=S(=O)(c1ccccc1)C1CCNCC1 (nonaromatic ring conformer: 32.166609437902956 kcal/mol)

>  <smiles>  (33) 
O=S(=O)(c1ccccc1)C1CCNCC1

>  <score_type>  (33) 
oracle

>  <origin>  (33) 
adgpu

>  <m_score__min__energy>  (33) 
-7.7199999999999998

>  <m_primary>  (33) 
energy

$$$$
33:0
     RDKit          3D

 25 27  0  0  0  0  0  0  0  0999 V2000
    0.2672   26.5654  -27.3597 H   0  0  0  0  0  0  0  0  0  0  0  0
   -0.6190   25.9160  -27.4130 C   0  0  0  0  0  0  0  0  0  0  0  0
   -1.4000   25.7860  -28.4610 O   0  0  0  0  0  0  0  0  0  0  0  0
   -2.3540   24.9330  -28.1680 C   0  0  0  0  0  0  0  0  0  0  0  0
   -3.4160   24.5370  -29.1010 C   0  0  0  0  0  0  0  0  0  0  0  0
   -4.4060   23.6740  -28.7940 N   0  0  0  0  0  0  0  0  0  0  0  0
   -5.1020   23.6410  -29.9490 C   0  0  0  0  0  0  0  0  0  0  0  0
   -6.1840   22.9350  -30.0920 N   0  0  0  0  0  0  0  0  0  0  0  0
   -6.9480   22.8240  -31.3020 C   0  0  0  0  0  0  0  0  0  0  0  0
   -7.1340   23.8580  -31.9970 O   0  0  0  0  0  0  0  0  0  0  0  0
   -7.5730   21.5560  -31.7240 C   0  0  0  0  0  0  0  0  0  0  0  0
   -6.7540   20.2640  -32.4260 S   0  0  0  0  0  0  0  0  0  0  0  0
   -8.1040   19.2920  -32.6650 C   0  0  0  0  0  0  0  0  0  0  0  0
   -8.1030   18.2849  -33.1073 H   0  0  0  0  0  0  0  0  0  0  0  0
   -9.2210   19.9790  -32.2080 C   0  0  0  0  0  0  0  0  0  0  0  0
  -10.2398   19.5663  -32.2499 H   0  0  0  0  0  0  0  0  0  0  0  0
   -8.9290   21.2460  -31.6890 C   0  0  0  0  0  0  0  0  0  0  0  0
   -9.6953   21.9285  -31.2929 H   0  0  0  0  0  0  0  0  0  0  0  0
   -4.5860   24.4410  -30.9060 N   0  0  0  0  0  0  0  0  0  0  0  0
   -3.5210   24.9960  -30.3600 N   0  0  0  0  0  0  0  0  0  0  0  0
   -2.8900   25.6730  -30.8430 H   0  0  0  0  0  0  0  0  0  0  0  0
   -2.2010   24.4770  -26.8750 C   0  0  0  0  0  0  0  0  0  0  0  0
   -2.8403   23.7564  -26.3439 H   0  0  0  0  0  0  0  0  0  0  0  0
   -1.0800   25.1130  -26.3880 C   0  0  0  0  0  0  0  0  0  0  0  0
   -0.6408   25.0034  -25.3854 H   0  0  0  0  0  0  0  0  0  0  0  0
  1  2  1  0
  2  3  1  0
  3  4  1  0
  4  5  1  0
  5  6  2  0
  6  7  1  0
  7  8  2  0
  8  9  1  0
  9 10  2  0
  9 11  1  0
 11 12  1  0
 12 13  1  0
 13 14  1  0
 13 15  2  0
 15 16  1  0
 15 17  1  0
 17 18  1  0
  7 19  1  0
 19 20  1  0
 20 21  1  0
  4 22  2  0
 22 23  1  0
 22 24  1  0
 24 25  1  0
 24  2  2  0
 20  5  1  0
 17 11  2  0
M  CHG  1  19  -1
M  END
>  <UniqueID>  (34) 
32

>  <SMILES>  (34) 
O=C(/N=c1/nc(-c2ccco2)[nH][n-]1)c1cccs1

>  <Energy>  (34) 
117.2955327715755

>  <Genealogy>  (34) 
O=C(N=c1nc(-c2ccco2)[nH][n-]1)c1cccs1 (protonated)
O=C(/N=c1/nc(-c2ccco2)[nH][n-]1)c1cccs1 (cis-trans isomerization)
O=C(/N=c1/nc(-c2ccco2)[nH][n-]1)c1cccs1 (3D coordinates assigned)
O=C(/N=c1/nc(-c2ccco2)[nH][n-]1)c1cccs1 (optimized conformer: 117.2955327715755 kcal/mol)

>  <smiles>  (34) 
O=C(N=c1nc(-c2ccco2)[nH][nH]1)c1cccs1

>  <score_type>  (34) 
oracle

>  <origin>  (34) 
adgpu

>  <m_score__min__energy>  (34) 
-8.6600000000000001

>  <m_primary>  (34) 
energy

$$$$
34:0
     RDKit          3D

 51 53  0  0  0  0  0  0  0  0999 V2000
    0.6970   27.5500  -23.1230 C   0  0  0  0  0  0  0  0  0  0  0  0
    0.6660   27.6210  -24.5450 O   0  0  0  0  0  0  0  0  0  0  0  0
   -0.1860   26.8590  -25.3580 C   0  0  0  0  0  0  0  0  0  0  0  0
   -1.2330   26.0800  -24.8320 C   0  0  0  0  0  0  0  0  0  0  0  0
   -2.0550   25.3370  -25.6840 C   0  0  0  0  0  0  0  0  0  0  0  0
   -1.8450   25.3510  -27.0750 C   0  0  0  0  0  0  0  0  0  0  0  0
   -2.7260   24.5640  -27.9720 C   0  0  0  0  0  0  0  0  0  0  0  0
   -3.1600   23.4430  -27.5880 O   0  0  0  0  0  0  0  0  0  0  0  0
   -3.0510   25.0390  -29.2900 N   0  0  0  0  0  0  0  0  0  0  0  0
   -4.1690   24.5610  -30.0550 C   0  0  0  0  0  0  0  0  0  0  0  0
   -5.4240   25.1650  -29.8940 C   0  0  0  0  0  0  0  0  0  0  0  0
   -6.5280   24.7110  -30.6220 C   0  0  0  0  0  0  0  0  0  0  0  0
   -6.3900   23.6440  -31.5260 C   0  0  0  0  0  0  0  0  0  0  0  0
   -7.4970   23.1710  -32.3070 N   0  0  0  0  0  0  0  0  0  0  0  0
   -8.3690   22.0840  -31.9630 C   0  0  0  0  0  0  0  0  0  0  0  0
   -9.4800   22.3490  -31.4330 O   0  0  0  0  0  0  0  0  0  0  0  0
   -7.9800   20.6660  -32.1680 C   0  0  0  0  0  0  0  0  0  0  0  0
   -8.7660   19.6370  -31.6290 C   0  0  0  0  0  0  0  0  0  0  0  0
   -8.4160   18.3020  -31.8340 C   0  0  0  0  0  0  0  0  0  0  0  0
   -7.2820   17.9780  -32.5800 C   0  0  0  0  0  0  0  0  0  0  0  0
   -6.4660   18.9910  -33.1230 C   0  0  0  0  0  0  0  0  0  0  0  0
   -5.2980   18.6610  -33.9160 N   0  0  0  0  0  0  0  0  0  0  0  0
   -4.0110   19.3160  -33.6490 C   0  0  0  0  0  0  0  0  0  0  0  0
   -5.3900   17.6860  -35.0080 C   0  0  0  0  0  0  0  0  0  0  0  0
   -6.8180   20.3350  -32.8870 C   0  0  0  0  0  0  0  0  0  0  0  0
   -5.1510   23.0050  -31.6480 C   0  0  0  0  0  0  0  0  0  0  0  0
   -4.0460   23.4590  -30.9210 C   0  0  0  0  0  0  0  0  0  0  0  0
   -0.8030   26.1400  -27.5950 C   0  0  0  0  0  0  0  0  0  0  0  0
    0.0180   26.8820  -26.7410 C   0  0  0  0  0  0  0  0  0  0  0  0
    0.2906   28.4808  -22.7005 H   0  0  0  0  0  0  0  0  0  0  0  0
    0.0891   26.6978  -22.7851 H   0  0  0  0  0  0  0  0  0  0  0  0
    1.7353   27.4166  -22.7851 H   0  0  0  0  0  0  0  0  0  0  0  0
   -1.4053   26.0556  -23.7459 H   0  0  0  0  0  0  0  0  0  0  0  0
   -2.8740   24.7355  -25.2628 H   0  0  0  0  0  0  0  0  0  0  0  0
   -2.3690   25.6740  -29.7650 H   0  0  0  0  0  0  0  0  0  0  0  0
   -5.5409   26.0020  -29.1899 H   0  0  0  0  0  0  0  0  0  0  0  0
   -7.5085   25.1909  -30.4866 H   0  0  0  0  0  0  0  0  0  0  0  0
   -9.6628   19.8837  -31.0417 H   0  0  0  0  0  0  0  0  0  0  0  0
   -9.0368   17.5013  -31.4056 H   0  0  0  0  0  0  0  0  0  0  0  0
   -7.0224   16.9220  -32.7459 H   0  0  0  0  0  0  0  0  0  0  0  0
   -3.8577   19.3940  -32.5625 H   0  0  0  0  0  0  0  0  0  0  0  0
   -3.1983   18.7219  -34.0922 H   0  0  0  0  0  0  0  0  0  0  0  0
   -4.0130   20.3227  -34.0922 H   0  0  0  0  0  0  0  0  0  0  0  0
   -5.4855   16.6736  -34.5885 H   0  0  0  0  0  0  0  0  0  0  0  0
   -6.2709   17.9110  -35.6272 H   0  0  0  0  0  0  0  0  0  0  0  0
   -4.4826   17.7422  -35.6272 H   0  0  0  0  0  0  0  0  0  0  0  0
   -6.1728   21.1386  -33.2718 H   0  0  0  0  0  0  0  0  0  0  0  0
   -5.0456   22.1404  -32.3198 H   0  0  0  0  0  0  0  0  0  0  0  0
   -3.0756   22.9519  -31.0268 H   0  0  0  0  0  0  0  0  0  0  0  0
   -0.6330   26.1733  -28.6813 H   0  0  0  0  0  0  0  0  0  0  0  0
    0.8327   27.4901  -27.1612 H   0  0  0  0  0  0  0  0  0  0  0  0
  1  2  1  0
  2  3  1  0
  3  4  2  0
  4  5  1  0
  5  6  2  0
  6  7  1  0
  7  8  2  0
  7  9  1  0
  9 10  1  0
 10 11  2  0
 11 12  1  0
 12 13  2  0
 13 14  1  0
 14 15  1  0
 15 16  2  0
 15 17  1  0
 17 18  2  0
 18 19  1  0
 19 20  2  0
 20 21  1  0
 21 22  1  0
 22 23  1  0
 22 24  1  0
 21 25  2  0
 13 26  1  0
 26 27  2  0
  6 28  1  0
 28 29  2  0
 29  3  1  0
 27 10  1  0
 25 17  1  0
  1 30  1  0
  1 31  1  0
  1 32  1  0
  4 33  1  0
  5 34  1  0
  9 35  1  0
 11 36  1  0
 12 37  1  0
 18 38  1  0
 19 39  1  0
 20 40  1  0
 23 41  1  0
 23 42  1  0
 23 43  1  0
 24 44  1  0
 24 45  1  0
 24 46  1  0
 25 47  1  0
 26 48  1  0
 27 49  1  0
 28 50  1  0
 29 51  1  0
M  CHG  1  14  -1
M  END
>  <UniqueID>  (35) 
33

>  <SMILES>  (35) 
COc1ccc(C(=O)Nc2ccc([N-]C(=O)c3cccc(N(C)C)c3)cc2)cc1

>  <Energy>  (35) 
65.57500599809818

>  <Genealogy>  (35) 
COc1ccc(C(=O)Nc2ccc([N-]C(=O)c3cccc(N(C)C)c3)cc2)cc1 (protonated)
COc1ccc(C(=O)Nc2ccc([N-]C(=O)c3cccc(N(C)C)c3)cc2)cc1 (3D coordinates assigned)
COc1ccc(C(=O)Nc2ccc([N-]C(=O)c3cccc(N(C)C)c3)cc2)cc1 (optimized conformer: 65.57500599809818 kcal/mol)

>  <smiles>  (35) 
COc1ccc(C(=O)Nc2ccc(NC(=O)c3cccc(N(C)C)c3)cc2)cc1

>  <score_type>  (35) 
oracle

>  <origin>  (35) 
adgpu

>  <m_score__min__energy>  (35) 
-9.5800000000000001

>  <m_primary>  (35) 
energy

$$$$
35:0
     RDKit          3D

 44 46  0  0  0  0  0  0  0  0999 V2000
   -0.2590   20.8240  -34.8200 C   0  0  0  0  0  0  0  0  0  0  0  0
   -1.1850   20.3790  -33.8340 O   0  0  0  0  0  0  0  0  0  0  0  0
   -1.5080   21.0940  -32.6700 C   0  0  0  0  0  0  0  0  0  0  0  0
   -0.5580   21.1560  -31.6460 C   0  0  0  0  0  0  0  0  0  0  0  0
   -0.8290   21.8610  -30.4710 C   0  0  0  0  0  0  0  0  0  0  0  0
   -2.0560   22.5080  -30.3080 C   0  0  0  0  0  0  0  0  0  0  0  0
   -3.0290   22.4510  -31.3190 C   0  0  0  0  0  0  0  0  0  0  0  0
   -4.2920   23.1220  -31.1480 N   0  0  0  0  0  0  0  0  0  0  0  0
   -5.5110   22.5970  -31.3910 C   0  0  0  0  0  0  0  0  0  0  0  0
   -6.4890   23.5390  -31.1280 C   0  0  0  0  0  0  0  0  0  0  0  0
   -7.9700   23.3560  -31.3430 C   0  0  1  0  0  0  0  0  0  0  0  0
   -8.2810   23.4800  -32.7090 O   0  0  0  0  0  0  0  0  0  0  0  0
   -8.4400   22.0610  -30.8100 N   0  0  0  0  0  0  0  0  0  0  0  0
   -9.1170   21.2280  -31.8200 C   0  0  0  0  0  0  0  0  0  0  0  0
   -8.1930   20.1440  -32.3120 C   0  0  0  0  0  0  0  0  0  0  0  0
   -7.1400   20.4530  -33.1880 C   0  0  0  0  0  0  0  0  0  0  0  0
   -6.3060   19.4420  -33.6710 C   0  0  0  0  0  0  0  0  0  0  0  0
   -6.5220   18.1120  -33.2920 C   0  0  0  0  0  0  0  0  0  0  0  0
   -5.4750   16.8440  -33.9010 Cl  0  0  0  0  0  0  0  0  0  0  0  0
   -7.5780   17.7950  -32.4310 C   0  0  0  0  0  0  0  0  0  0  0  0
   -8.4140   18.8060  -31.9460 C   0  0  0  0  0  0  0  0  0  0  0  0
   -5.8420   24.6970  -30.7250 C   0  0  0  0  0  0  0  0  0  0  0  0
   -4.4990   24.3970  -30.7520 C   0  0  0  0  0  0  0  0  0  0  0  0
   -3.4850   25.3020  -30.4550 O   0  0  0  0  0  0  0  0  0  0  0  0
   -2.7460   21.7470  -32.5040 C   0  0  0  0  0  0  0  0  0  0  0  0
    0.6267   21.2496  -34.3256 H   0  0  0  0  0  0  0  0  0  0  0  0
    0.0448   19.9735  -35.4480 H   0  0  0  0  0  0  0  0  0  0  0  0
   -0.7332   21.5926  -35.4480 H   0  0  0  0  0  0  0  0  0  0  0  0
    0.4093   20.6462  -31.7665 H   0  0  0  0  0  0  0  0  0  0  0  0
   -0.0742   21.9067  -29.6721 H   0  0  0  0  0  0  0  0  0  0  0  0
   -2.2614   23.0655  -29.3823 H   0  0  0  0  0  0  0  0  0  0  0  0
   -5.6989   21.5727  -31.7454 H   0  0  0  0  0  0  0  0  0  0  0  0
   -8.4954   24.1472  -30.7881 H   0  0  0  0  0  0  0  0  0  0  0  0
   -7.4180   23.4520  -33.2010 H   0  0  0  0  0  0  0  0  0  0  0  0
   -7.6220   21.5360  -30.4160 H   0  0  0  0  0  0  0  0  0  0  0  0
   -9.1050   22.2510  -30.0230 H   0  0  0  0  0  0  0  0  0  0  0  0
  -10.0093   20.7674  -31.3709 H   0  0  0  0  0  0  0  0  0  0  0  0
   -9.4066   21.8630  -32.6702 H   0  0  0  0  0  0  0  0  0  0  0  0
   -6.9712   21.4957  -33.4952 H   0  0  0  0  0  0  0  0  0  0  0  0
   -5.4778   19.6915  -34.3506 H   0  0  0  0  0  0  0  0  0  0  0  0
   -7.7510   16.7498  -32.1352 H   0  0  0  0  0  0  0  0  0  0  0  0
   -9.2480   18.5523  -31.2752 H   0  0  0  0  0  0  0  0  0  0  0  0
   -6.3047   25.6543  -30.4430 H   0  0  0  0  0  0  0  0  0  0  0  0
   -3.4967   21.7060  -33.3070 H   0  0  0  0  0  0  0  0  0  0  0  0
  1  2  1  0
  2  3  1  0
  3  4  2  0
  4  5  1  0
  5  6  2  0
  6  7  1  0
  7  8  1  0
  8  9  1  0
  9 10  2  0
 10 11  1  0
 11 12  1  0
 11 13  1  0
 13 14  1  0
 14 15  1  0
 15 16  2  0
 16 17  1  0
 17 18  2  0
 18 19  1  0
 18 20  1  0
 20 21  2  0
 10 22  1  0
 22 23  2  0
 23 24  1  0
  7 25  2  0
 25  3  1  0
 23  8  1  0
 21 15  1  0
  1 26  1  0
  1 27  1  0
  1 28  1  0
  4 29  1  0
  5 30  1  0
  6 31  1  0
  9 32  1  0
 11 33  1  1
 12 34  1  0
 13 35  1  0
 13 36  1  0
 14 37  1  0
 14 38  1  0
 16 39  1  0
 17 40  1  0
 20 41  1  0
 21 42  1  0
 22 43  1  0
 25 44  1  0
M  CHG  2  13   1  24  -1
M  END
>  <UniqueID>  (36) 
34

>  <SMILES>  (36) 
COc1cccc(-n2cc([C@@H](O)[NH2+]Cc3ccc(Cl)cc3)cc2[O-])c1

>  <Energy>  (36) 
77.46168432828593

>  <Genealogy>  (36) 
COc1cccc(-n2cc(C(O)[NH2+]Cc3ccc(Cl)cc3)cc2[O-])c1 (protonated)
COc1cccc(-n2cc([C@@H](O)[NH2+]Cc3ccc(Cl)cc3)cc2[O-])c1 (chirality)
COc1cccc(-n2cc([C@@H](O)[NH2+]Cc3ccc(Cl)cc3)cc2[O-])c1 (3D coordinates assigned)
COc1cccc(-n2cc([C@@H](O)[NH2+]Cc3ccc(Cl)cc3)cc2[O-])c1 (optimized conformer: 77.46168432828593 kcal/mol)

>  <smiles>  (36) 
COc1cccc(-n2cc(C(O)NCc3ccc(Cl)cc3)cc2O)c1

>  <score_type>  (36) 
oracle

>  <origin>  (36) 
adgpu

>  <m_score__min__energy>  (36) 
-10.91

>  <m_primary>  (36) 
energy

$$$$
36:0
     RDKit          3D

 31 33  0  0  0  0  0  0  0  0999 V2000
   -9.1729   18.7807  -33.2148 H   0  0  0  0  0  0  0  0  0  0  0  0
   -8.6630   19.6120  -32.7060 C   0  0  0  0  0  0  0  0  0  0  0  0
   -9.3890   20.5550  -32.0520 N   0  0  0  0  0  0  0  0  0  0  0  0
   -8.7970   21.6020  -31.4150 C   0  0  0  0  0  0  0  0  0  0  0  0
   -9.4169   22.3454  -30.8924 H   0  0  0  0  0  0  0  0  0  0  0  0
   -7.3970   21.7390  -31.4210 C   0  0  0  0  0  0  0  0  0  0  0  0
   -6.7170   22.8650  -30.7290 C   0  0  0  0  0  0  0  0  0  0  0  0
   -5.6000   22.6160  -29.9910 N   0  0  0  0  0  0  0  0  0  0  0  0
   -4.9280   23.6040  -29.3440 C   0  0  0  0  0  0  0  0  0  0  0  0
   -3.8720   23.2850  -28.6490 N   0  0  0  0  0  0  0  0  0  0  0  0
   -2.9690   24.1790  -27.9810 C   0  0  0  0  0  0  0  0  0  0  0  0
   -1.8180   24.6130  -28.6510 C   0  0  0  0  0  0  0  0  0  0  0  0
   -1.5950   24.2336  -29.6591 H   0  0  0  0  0  0  0  0  0  0  0  0
   -0.9510   25.5270  -28.0430 C   0  0  0  0  0  0  0  0  0  0  0  0
   -0.0384   25.8491  -28.5659 H   0  0  0  0  0  0  0  0  0  0  0  0
   -1.2420   26.0320  -26.7720 C   0  0  0  0  0  0  0  0  0  0  0  0
   -0.0600   27.2840  -25.9450 Br  0  0  0  0  0  0  0  0  0  0  0  0
   -2.4090   25.6300  -26.1120 C   0  0  0  0  0  0  0  0  0  0  0  0
   -2.6437   26.0329  -25.1157 H   0  0  0  0  0  0  0  0  0  0  0  0
   -3.2770   24.7160  -26.7190 C   0  0  0  0  0  0  0  0  0  0  0  0
   -4.2034   24.4166  -26.2071 H   0  0  0  0  0  0  0  0  0  0  0  0
   -5.3950   24.8880  -29.4090 N   0  0  0  0  0  0  0  0  0  0  0  0
   -4.9460   25.6650  -28.8760 H   0  0  0  0  0  0  0  0  0  0  0  0
   -6.4990   25.1870  -30.1430 C   0  0  0  0  0  0  0  0  0  0  0  0
   -6.8554   26.2262  -30.1979 H   0  0  0  0  0  0  0  0  0  0  0  0
   -7.1810   24.1830  -30.8260 C   0  0  0  0  0  0  0  0  0  0  0  0
   -8.0684   24.4209  -31.4309 H   0  0  0  0  0  0  0  0  0  0  0  0
   -6.6380   20.7590  -32.0850 C   0  0  0  0  0  0  0  0  0  0  0  0
   -5.5403   20.8296  -32.0938 H   0  0  0  0  0  0  0  0  0  0  0  0
   -7.2710   19.6970  -32.7330 C   0  0  0  0  0  0  0  0  0  0  0  0
   -6.6780   18.9348  -33.2597 H   0  0  0  0  0  0  0  0  0  0  0  0
  1  2  1  0
  2  3  2  0
  3  4  1  0
  4  5  1  0
  4  6  2  0
  6  7  1  0
  7  8  2  0
  8  9  1  0
  9 10  2  0
 10 11  1  0
 11 12  2  0
 12 13  1  0
 12 14  1  0
 14 15  1  0
 14 16  2  0
 16 17  1  0
 16 18  1  0
 18 19  1  0
 18 20  2  0
 20 21  1  0
  9 22  1  0
 22 23  1  0
 22 24  1  0
 24 25  1  0
 24 26  2  0
 26 27  1  0
  6 28  1  0
 28 29  1  0
 28 30  2  0
 30 31  1  0
 30  2  1  0
 26  7  1  0
 20 11  1  0
M  END
>  <UniqueID>  (37) 
35

>  <SMILES>  (37) 
Brc1ccc(/N=c2/nc(-c3cccnc3)cc[nH]2)cc1

>  <Energy>  (37) 
47.85897549497753

>  <Genealogy>  (37) 
Brc1ccc(/N=c2/nc(-c3cccnc3)cc[nH]2)cc1 (cis-trans isomerization)
Brc1ccc(/N=c2/nc(-c3cccnc3)cc[nH]2)cc1 (3D coordinates assigned)
Brc1ccc(/N=c2/nc(-c3cccnc3)cc[nH]2)cc1 (optimized conformer: 47.85897549497753 kcal/mol)

>  <smiles>  (37) 
Brc1ccc(N=c2nc(-c3cccnc3)cc[nH]2)cc1

>  <score_type>  (37) 
oracle

>  <origin>  (37) 
adgpu

>  <m_score__min__energy>  (37) 
-7.6600000000000001

>  <m_primary>  (37) 
energy

$$$$
37:0
     RDKit          3D

 34 36  0  0  0  0  0  0  0  0999 V2000
   -6.9650   17.1030  -33.6090 F   0  0  0  0  0  0  0  0  0  0  0  0
   -7.2320   18.3060  -33.0390 C   0  0  0  0  0  0  0  0  0  0  0  0
   -6.4090   19.4030  -33.3060 C   0  0  0  0  0  0  0  0  0  0  0  0
   -6.6810   20.6430  -32.7190 C   0  0  0  0  0  0  0  0  0  0  0  0
   -7.7860   20.7930  -31.8660 C   0  0  0  0  0  0  0  0  0  0  0  0
   -8.0580   22.1150  -31.2060 C   0  0  0  0  0  0  0  0  0  0  0  0
   -7.3160   23.4520  -32.1970 S   0  0  0  0  0  0  0  0  0  0  0  0
   -5.9730   23.7200  -31.0430 C   0  0  0  0  0  0  0  0  0  0  0  0
   -5.9220   23.0210  -29.8390 C   0  0  0  0  0  0  0  0  0  0  0  0
   -4.8640   23.2530  -28.9630 C   0  0  0  0  0  0  0  0  0  0  0  0
   -3.8670   24.1780  -29.3140 C   0  0  0  0  0  0  0  0  0  0  0  0
   -2.7170   24.4730  -28.4200 C   0  0  0  0  0  0  0  0  0  0  0  0
   -1.3870   24.3440  -28.8670 C   0  0  0  0  0  0  0  0  0  0  0  0
   -0.3210   24.6350  -28.0110 C   0  0  0  0  0  0  0  0  0  0  0  0
   -0.5660   25.0620  -26.7050 C   0  0  0  0  0  0  0  0  0  0  0  0
   -1.8780   25.2050  -26.2520 C   0  0  0  0  0  0  0  0  0  0  0  0
   -2.1160   25.6230  -24.9840 F   0  0  0  0  0  0  0  0  0  0  0  0
   -2.9490   24.9160  -27.1040 C   0  0  0  0  0  0  0  0  0  0  0  0
   -3.9770   24.8340  -30.5030 N   0  0  0  0  0  0  0  0  0  0  0  0
   -4.9930   24.6110  -31.3400 N   0  0  0  0  0  0  0  0  0  0  0  0
   -8.6000   19.6820  -31.5900 C   0  0  0  0  0  0  0  0  0  0  0  0
   -8.3250   18.4450  -32.1800 C   0  0  0  0  0  0  0  0  0  0  0  0
   -5.5459   19.2913  -33.9788 H   0  0  0  0  0  0  0  0  0  0  0  0
   -6.0273   21.5031  -32.9262 H   0  0  0  0  0  0  0  0  0  0  0  0
   -9.1443   22.2720  -31.1332 H   0  0  0  0  0  0  0  0  0  0  0  0
   -7.6188   22.1188  -30.1975 H   0  0  0  0  0  0  0  0  0  0  0  0
   -6.7076   22.2948  -29.5832 H   0  0  0  0  0  0  0  0  0  0  0  0
   -4.8098   22.7163  -28.0044 H   0  0  0  0  0  0  0  0  0  0  0  0
   -1.1863   24.0121  -29.8964 H   0  0  0  0  0  0  0  0  0  0  0  0
    0.7140   24.5272  -28.3677 H   0  0  0  0  0  0  0  0  0  0  0  0
    0.2754   25.2858  -26.0327 H   0  0  0  0  0  0  0  0  0  0  0  0
   -3.9811   25.0359  -26.7428 H   0  0  0  0  0  0  0  0  0  0  0  0
   -9.4564   19.7857  -30.9075 H   0  0  0  0  0  0  0  0  0  0  0  0
   -8.9701   17.5797  -31.9676 H   0  0  0  0  0  0  0  0  0  0  0  0
  1  2  1  0
  2  3  2  0
  3  4  1  0
  4  5  2  0
  5  6  1  0
  6  7  1  0
  7  8  1  0
  8  9  2  0
  9 10  1  0
 10 11  2  0
 11 12  1  0
 12 13  2  0
 13 14  1  0
 14 15  2  0
 15 16  1  0
 16 17  1  0
 16 18  2  0
 11 19  1  0
 19 20  2  0
  5 21  1  0
 21 22  2  0
 22  2  1  0
 20  8  1  0
 18 12  1  0
  3 23  1  0
  4 24  1  0
  6 25  1  0
  6 26  1  0
  9 27  1  0
 10 28  1  0
 13 29  1  0
 14 30  1  0
 15 31  1  0
 18 32  1  0
 21 33  1  0
 22 34  1  0
M  END
>  <UniqueID>  (38) 
36

>  <SMILES>  (38) 
Fc1ccc(CSc2ccc(-c3cccc(F)c3)nn2)cc1

>  <Energy>  (38) 
37.633286699748574

>  <Genealogy>  (38) 
Fc1ccc(CSc2ccc(-c3cccc(F)c3)nn2)cc1 (3D coordinates assigned)
Fc1ccc(CSc2ccc(-c3cccc(F)c3)nn2)cc1 (optimized conformer: 37.633286699748574 kcal/mol)

>  <smiles>  (38) 
Fc1ccc(CSc2ccc(-c3cccc(F)c3)nn2)cc1

>  <score_type>  (38) 
oracle

>  <origin>  (38) 
adgpu

>  <m_score__min__energy>  (38) 
-8.9299999999999997

>  <m_primary>  (38) 
energy

$$$$
38:0
     RDKit          3D

 53 56  0  0  0  0  0  0  0  0999 V2000
   -6.4910   16.1940  -33.9140 C   0  0  0  0  0  0  0  0  0  0  0  0
   -5.0660   16.0280  -34.4420 C   0  0  0  0  0  0  0  0  0  0  0  0
   -4.4460   17.3370  -34.7480 N   0  0  0  0  0  0  0  0  0  0  0  0
   -3.0980   17.4590  -34.1360 C   0  0  0  0  0  0  0  0  0  0  0  0
   -2.7050   18.9260  -33.9270 C   0  0  0  0  0  0  0  0  0  0  0  0
   -3.6200   19.6090  -32.9720 N   0  0  0  0  0  0  0  0  0  0  0  0
   -3.6260   21.0760  -33.1870 C   0  0  0  0  0  0  0  0  0  0  0  0
   -3.4870   21.8550  -31.9010 C   0  0  0  0  0  0  0  0  0  0  0  0
   -2.3260   22.0310  -31.1720 C   0  0  0  0  0  0  0  0  0  0  0  0
   -2.6430   22.6080  -29.9940 N   0  0  0  0  0  0  0  0  0  0  0  0
   -1.7400   22.9290  -28.9190 C   0  0  0  0  0  0  0  0  0  0  0  0
   -1.2090   21.8960  -28.1260 C   0  0  0  0  0  0  0  0  0  0  0  0
   -0.3300   22.1860  -27.0800 C   0  0  0  0  0  0  0  0  0  0  0  0
    0.0230   23.5090  -26.8070 C   0  0  0  0  0  0  0  0  0  0  0  0
   -0.5100   24.5450  -27.5760 C   0  0  0  0  0  0  0  0  0  0  0  0
   -1.3910   24.2650  -28.6260 C   0  0  0  0  0  0  0  0  0  0  0  0
   -1.9310   25.2980  -29.3180 F   0  0  0  0  0  0  0  0  0  0  0  0
   -3.9550   22.7740  -29.9190 N   0  0  0  0  0  0  0  0  0  0  0  0
   -4.4960   22.3230  -31.0680 C   0  0  0  0  0  0  0  0  0  0  0  0
   -5.9490   22.3070  -31.3260 C   0  0  0  0  0  0  0  0  0  0  0  0
   -6.5770   21.1000  -31.6790 C   0  0  0  0  0  0  0  0  0  0  0  0
   -7.9480   21.0660  -31.9470 C   0  0  0  0  0  0  0  0  0  0  0  0
   -8.7030   22.2380  -31.8770 C   0  0  0  0  0  0  0  0  0  0  0  0
   -8.0900   23.4460  -31.5380 C   0  0  0  0  0  0  0  0  0  0  0  0
   -6.7170   23.4910  -31.2670 C   0  0  0  0  0  0  0  0  0  0  0  0
   -6.0040   25.0350  -30.8100 Cl  0  0  0  0  0  0  0  0  0  0  0  0
   -5.0080   19.0660  -33.0190 C   0  0  0  0  0  0  0  0  0  0  0  0
   -5.3490   18.4610  -34.3910 C   0  0  0  0  0  0  0  0  0  0  0  0
   -6.4770   16.1924  -32.8141 H   0  0  0  0  0  0  0  0  0  0  0  0
   -6.9068   17.1467  -34.2740 H   0  0  0  0  0  0  0  0  0  0  0  0
   -7.1146   15.3624  -34.2740 H   0  0  0  0  0  0  0  0  0  0  0  0
   -4.4601   15.5145  -33.6809 H   0  0  0  0  0  0  0  0  0  0  0  0
   -5.1078   15.4399  -35.3706 H   0  0  0  0  0  0  0  0  0  0  0  0
   -3.1003   16.9476  -33.1621 H   0  0  0  0  0  0  0  0  0  0  0  0
   -2.3671   17.0004  -34.8182 H   0  0  0  0  0  0  0  0  0  0  0  0
   -1.6798   18.9677  -33.5305 H   0  0  0  0  0  0  0  0  0  0  0  0
   -2.7733   19.4414  -34.8964 H   0  0  0  0  0  0  0  0  0  0  0  0
   -3.2620   19.4310  -32.0030 H   0  0  0  0  0  0  0  0  0  0  0  0
   -2.7876   21.3379  -33.8492 H   0  0  0  0  0  0  0  0  0  0  0  0
   -4.5957   21.3420  -33.6329 H   0  0  0  0  0  0  0  0  0  0  0  0
   -1.3139   21.7483  -31.4973 H   0  0  0  0  0  0  0  0  0  0  0  0
   -1.4880   20.8519  -28.3311 H   0  0  0  0  0  0  0  0  0  0  0  0
    0.0851   21.3702  -26.4699 H   0  0  0  0  0  0  0  0  0  0  0  0
    0.7204   23.7347  -25.9868 H   0  0  0  0  0  0  0  0  0  0  0  0
   -0.2358   25.5871  -27.3551 H   0  0  0  0  0  0  0  0  0  0  0  0
   -5.9848   20.1754  -31.7448 H   0  0  0  0  0  0  0  0  0  0  0  0
   -8.4326   20.1151  -32.2133 H   0  0  0  0  0  0  0  0  0  0  0  0
   -9.7820   22.2100  -32.0891 H   0  0  0  0  0  0  0  0  0  0  0  0
   -8.6889   24.3671  -31.4836 H   0  0  0  0  0  0  0  0  0  0  0  0
   -5.1085   18.2839  -32.2521 H   0  0  0  0  0  0  0  0  0  0  0  0
   -5.7028   19.8988  -32.8351 H   0  0  0  0  0  0  0  0  0  0  0  0
   -6.3843   18.0900  -34.3673 H   0  0  0  0  0  0  0  0  0  0  0  0
   -5.2236   19.2489  -35.1483 H   0  0  0  0  0  0  0  0  0  0  0  0
  1  2  1  0
  2  3  1  0
  3  4  1  0
  4  5  1  0
  5  6  1  0
  6  7  1  0
  7  8  1  0
  8  9  2  0
  9 10  1  0
 10 11  1  0
 11 12  2  0
 12 13  1  0
 13 14  2  0
 14 15  1  0
 15 16  2  0
 16 17  1  0
 10 18  1  0
 18 19  2  0
 19 20  1  0
 20 21  2  0
 21 22  1  0
 22 23  2  0
 23 24  1  0
 24 25  2  0
 25 26  1  0
  6 27  1  0
 27 28  1  0
 28  3  1  0
 19  8  1  0
 25 20  1  0
 16 11  1  0
  1 29  1  0
  1 30  1  0
  1 31  1  0
  2 32  1  0
  2 33  1  0
  4 34  1  0
  4 35  1  0
  5 36  1  0
  5 37  1  0
  6 38  1  0
  7 39  1  0
  7 40  1  0
  9 41  1  0
 12 42  1  0
 13 43  1  0
 14 44  1  0
 15 45  1  0
 21 46  1  0
 22 47  1  0
 23 48  1  0
 24 49  1  0
 27 50  1  0
 27 51  1  0
 28 52  1  0
 28 53  1  0
M  CHG  1   6   1
M  END
>  <UniqueID>  (39) 
37

>  <SMILES>  (39) 
CCN1CC[NH+](Cc2cn(-c3ccccc3F)nc2-c2ccccc2Cl)CC1

>  <Energy>  (39) 
108.92587030356113

>  <Genealogy>  (39) 
CCN1CC[NH+](Cc2cn(-c3ccccc3F)nc2-c2ccccc2Cl)CC1 (protonated)
CCN1CC[NH+](Cc2cn(-c3ccccc3F)nc2-c2ccccc2Cl)CC1 (3D coordinates assigned)
CCN1CC[NH+](Cc2cn(-c3ccccc3F)nc2-c2ccccc2Cl)CC1 (nonaromatic ring conformer: 108.92587030356113 kcal/mol)

>  <smiles>  (39) 
CCN1CCN(Cc2cn(-c3ccccc3F)nc2-c2ccccc2Cl)CC1

>  <score_type>  (39) 
oracle

>  <origin>  (39) 
adgpu

>  <m_score__min__energy>  (39) 
-8.0399999999999991

>  <m_primary>  (39) 
energy

$$$$
39:0
     RDKit          3D

 45 48  0  0  0  0  0  0  0  0999 V2000
   -7.3013   16.2438  -32.8815 H   0  0  0  0  0  0  0  0  0  0  0  0
   -6.7040   17.1520  -33.0500 C   0  0  0  0  0  0  0  0  0  0  0  0
   -7.1030   18.3630  -32.4780 C   0  0  0  0  0  0  0  0  0  0  0  0
   -8.0089   18.4008  -31.8552 H   0  0  0  0  0  0  0  0  0  0  0  0
   -6.3550   19.5320  -32.6930 C   0  0  0  0  0  0  0  0  0  0  0  0
   -6.7580   20.8180  -32.0820 C   0  0  0  0  0  0  0  0  0  0  0  0
   -8.0850   21.2400  -31.9150 C   0  0  0  0  0  0  0  0  0  0  0  0
   -9.3300   20.5150  -32.3190 C   0  0  0  0  0  0  0  0  0  0  0  0
   -9.8771   20.1964  -31.4194 H   0  0  0  0  0  0  0  0  0  0  0  0
   -9.9661   21.1839  -32.9173 H   0  0  0  0  0  0  0  0  0  0  0  0
   -9.0621   19.6317  -32.9173 H   0  0  0  0  0  0  0  0  0  0  0  0
   -8.0750   22.7390  -31.1480 S   0  0  0  0  0  0  0  0  0  0  0  0
   -6.3990   22.8190  -31.0930 C   0  0  0  0  0  0  0  0  0  0  0  0
   -5.7590   23.8170  -30.5550 N   0  0  0  0  0  0  0  0  0  0  0  0
   -4.3390   24.0360  -30.4970 C   0  0  0  0  0  0  0  0  0  0  0  0
   -3.8590   25.1860  -30.6940 O   0  0  0  0  0  0  0  0  0  0  0  0
   -3.4370   22.9180  -30.1310 C   0  0  0  0  0  0  0  0  0  0  0  0
   -2.5070   22.4170  -31.0600 C   0  0  0  0  0  0  0  0  0  0  0  0
   -2.4511   22.8587  -32.0659 H   0  0  0  0  0  0  0  0  0  0  0  0
   -1.6530   21.3640  -30.7190 C   0  0  0  0  0  0  0  0  0  0  0  0
   -0.9320   20.9823  -31.4569 H   0  0  0  0  0  0  0  0  0  0  0  0
   -1.7120   20.7930  -29.4410 C   0  0  0  0  0  0  0  0  0  0  0  0
   -0.8590   19.7360  -29.0890 C   0  0  0  0  0  0  0  0  0  0  0  0
   -0.1344   19.3487  -29.8204 H   0  0  0  0  0  0  0  0  0  0  0  0
   -0.9280   19.1740  -27.8110 C   0  0  0  0  0  0  0  0  0  0  0  0
   -0.2577   18.3451  -27.5396 H   0  0  0  0  0  0  0  0  0  0  0  0
   -1.8460   19.6620  -26.8770 C   0  0  0  0  0  0  0  0  0  0  0  0
   -1.8964   19.2158  -25.8728 H   0  0  0  0  0  0  0  0  0  0  0  0
   -2.7000   20.7150  -27.2150 C   0  0  0  0  0  0  0  0  0  0  0  0
   -3.4195   21.0968  -26.4757 H   0  0  0  0  0  0  0  0  0  0  0  0
   -2.6420   21.2870  -28.4960 C   0  0  0  0  0  0  0  0  0  0  0  0
   -3.4960   22.3440  -28.8460 C   0  0  0  0  0  0  0  0  0  0  0  0
   -4.2181   22.7278  -28.1102 H   0  0  0  0  0  0  0  0  0  0  0  0
   -5.8300   21.7100  -31.6290 N   0  0  0  0  0  0  0  0  0  0  0  0
   -4.8090   21.5080  -31.6530 H   0  0  0  0  0  0  0  0  0  0  0  0
   -5.1880   19.4630  -33.4690 C   0  0  0  0  0  0  0  0  0  0  0  0
   -4.5826   20.3677  -33.6273 H   0  0  0  0  0  0  0  0  0  0  0  0
   -4.7900   18.2520  -34.0420 C   0  0  0  0  0  0  0  0  0  0  0  0
   -3.8784   18.2130  -34.6563 H   0  0  0  0  0  0  0  0  0  0  0  0
   -5.5410   17.0890  -33.8410 C   0  0  0  0  0  0  0  0  0  0  0  0
   -5.1010   15.8990  -34.4380 O   0  0  0  0  0  0  0  0  0  0  0  0
   -3.8060   15.7130  -35.0020 C   0  0  0  0  0  0  0  0  0  0  0  0
   -3.0663   15.6068  -34.1948 H   0  0  0  0  0  0  0  0  0  0  0  0
   -3.8036   14.8053  -35.6233 H   0  0  0  0  0  0  0  0  0  0  0  0
   -3.5482   16.5833  -35.6233 H   0  0  0  0  0  0  0  0  0  0  0  0
  1  2  1  0
  2  3  2  0
  3  4  1  0
  3  5  1  0
  5  6  1  0
  6  7  2  0
  7  8  1  0
  8  9  1  0
  8 10  1  0
  8 11  1  0
  7 12  1  0
 12 13  1  0
 13 14  2  0
 14 15  1  0
 15 16  2  0
 15 17  1  0
 17 18  2  0
 18 19  1  0
 18 20  1  0
 20 21  1  0
 20 22  2  0
 22 23  1  0
 23 24  1  0
 23 25  2  0
 25 26  1  0
 25 27  1  0
 27 28  1  0
 27 29  2  0
 29 30  1  0
 29 31  1  0
 31 32  2  0
 32 33  1  0
 13 34  1  0
 34 35  1  0
  5 36  2  0
 36 37  1  0
 36 38  1  0
 38 39  1  0
 38 40  2  0
 40 41  1  0
 41 42  1  0
 42 43  1  0
 42 44  1  0
 42 45  1  0
 40  2  1  0
 34  6  1  0
 32 17  1  0
 31 22  1  0
M  END
>  <UniqueID>  (40) 
38

>  <SMILES>  (40) 
COc1ccc(-c2[nH]/c(=N\C(=O)c3ccc4ccccc4c3)sc2C)cc1

>  <Energy>  (40) 
91.94810798620179

>  <Genealogy>  (40) 
COc1ccc(-c2[nH]/c(=N\C(=O)c3ccc4ccccc4c3)sc2C)cc1 (cis-trans isomerization)
COc1ccc(-c2[nH]/c(=N\C(=O)c3ccc4ccccc4c3)sc2C)cc1 (3D coordinates assigned)
COc1ccc(-c2[nH]/c(=N\C(=O)c3ccc4ccccc4c3)sc2C)cc1 (optimized conformer: 91.94810798620179 kcal/mol)

>  <smiles>  (40) 
COc1ccc(-c2[nH]c(=NC(=O)c3ccc4ccccc4c3)sc2C)cc1

>  <score_type>  (40) 
oracle

>  <origin>  (40) 
adgpu

>  <m_score__min__energy>  (40) 
-9.9100000000000001

>  <m_primary>  (40) 
energy

$$$$
40:0
     RDKit          3D

 26 27  0  0  0  0  0  0  0  0999 V2000
   -7.5920   22.7330  -29.7070 C   0  0  0  0  0  0  0  0  0  0  0  0
   -7.2540   22.4500  -31.1070 N   0  0  0  0  0  0  0  0  0  0  0  0
   -6.6620   23.5270  -31.9150 C   0  0  0  0  0  0  0  0  0  0  0  0
   -5.3780   24.0020  -31.3030 C   0  0  0  0  0  0  0  0  0  0  0  0
   -5.1190   25.2730  -30.8470 C   0  0  0  0  0  0  0  0  0  0  0  0
   -3.8820   25.3050  -30.3260 N   0  0  0  0  0  0  0  0  0  0  0  0
   -3.4270   24.0430  -30.4790 C   0  0  0  0  0  0  0  0  0  0  0  0
   -4.3140   23.2150  -31.0680 N   0  0  0  0  0  0  0  0  0  0  0  0
   -7.4860   21.1280  -31.6580 C   0  0  0  0  0  0  0  0  0  0  0  0
   -8.6800   20.4310  -31.3750 C   0  0  0  0  0  0  0  0  0  0  0  0
   -8.9020   19.1550  -31.9010 C   0  0  0  0  0  0  0  0  0  0  0  0
   -7.9410   18.5530  -32.7120 C   0  0  0  0  0  0  0  0  0  0  0  0
   -6.7530   19.2260  -33.0000 C   0  0  0  0  0  0  0  0  0  0  0  0
   -6.5240   20.5030  -32.4790 C   0  0  0  0  0  0  0  0  0  0  0  0
   -6.9180   22.1687  -29.0458 H   0  0  0  0  0  0  0  0  0  0  0  0
   -7.4791   23.8099  -29.5130 H   0  0  0  0  0  0  0  0  0  0  0  0
   -8.6322   22.4326  -29.5130 H   0  0  0  0  0  0  0  0  0  0  0  0
   -6.4614   23.1498  -32.9286 H   0  0  0  0  0  0  0  0  0  0  0  0
   -7.3684   24.3693  -31.9549 H   0  0  0  0  0  0  0  0  0  0  0  0
   -5.8125   26.1251  -30.9004 H   0  0  0  0  0  0  0  0  0  0  0  0
   -2.4269   23.7204  -30.1538 H   0  0  0  0  0  0  0  0  0  0  0  0
   -9.4435   20.8963  -30.7342 H   0  0  0  0  0  0  0  0  0  0  0  0
   -9.8383   18.6240  -31.6742 H   0  0  0  0  0  0  0  0  0  0  0  0
   -8.1190   17.5489  -33.1243 H   0  0  0  0  0  0  0  0  0  0  0  0
   -5.9944   18.7503  -33.6389 H   0  0  0  0  0  0  0  0  0  0  0  0
   -5.5844   21.0256  -32.7116 H   0  0  0  0  0  0  0  0  0  0  0  0
  1  2  1  0
  2  3  1  0
  3  4  1  0
  4  5  2  0
  5  6  1  0
  6  7  1  0
  7  8  2  0
  2  9  1  0
  9 10  2  0
 10 11  1  0
 11 12  2  0
 12 13  1  0
 13 14  2  0
  8  4  1  0
 14  9  1  0
  1 15  1  0
  1 16  1  0
  1 17  1  0
  3 18  1  0
  3 19  1  0
  5 20  1  0
  7 21  1  0
 10 22  1  0
 11 23  1  0
 12 24  1  0
 13 25  1  0
 14 26  1  0
M  CHG  1   6  -1
M  END
>  <UniqueID>  (41) 
39

>  <SMILES>  (41) 
CN(Cc1c[n-]cn1)c1ccccc1

>  <Energy>  (41) 
55.223227133527864

>  <Genealogy>  (41) 
CN(Cc1c[n-]cn1)c1ccccc1 (protonated)
CN(Cc1c[n-]cn1)c1ccccc1 (3D coordinates assigned)
CN(Cc1c[n-]cn1)c1ccccc1 (optimized conformer: 55.223227133527864 kcal/mol)

>  <smiles>  (41) 
CN(Cc1c[nH]cn1)c1ccccc1

>  <score_type>  (41) 
oracle

>  <origin>  (41) 
adgpu

>  <m_score__min__energy>  (41) 
-7.0999999999999996

>  <m_primary>  (41) 
energy

$$$$
41:0
     RDKit          3D

 35 37  0  0  0  0  0  0  0  0999 V2000
   -1.8869   17.5063  -25.6612 H   0  0  0  0  0  0  0  0  0  0  0  0
   -1.8000   18.2960  -26.4220 C   0  0  0  0  0  0  0  0  0  0  0  0
   -2.6820   19.3280  -26.4330 N   0  0  0  0  0  0  0  0  0  0  0  0
   -2.6030   20.3090  -27.3700 C   0  0  0  0  0  0  0  0  0  0  0  0
   -3.4600   21.2870  -27.3360 N   0  0  0  0  0  0  0  0  0  0  0  0
   -3.5600   22.3790  -28.2670 C   0  0  0  0  0  0  0  0  0  0  0  0
   -4.5760   22.4380  -29.2380 C   0  0  0  0  0  0  0  0  0  0  0  0
   -5.3074   21.6200  -29.3150 H   0  0  0  0  0  0  0  0  0  0  0  0
   -4.6610   23.5300  -30.1050 C   0  0  0  0  0  0  0  0  0  0  0  0
   -5.9330   23.5730  -31.3160 Cl  0  0  0  0  0  0  0  0  0  0  0  0
   -3.7440   24.5850  -29.9970 C   0  0  0  0  0  0  0  0  0  0  0  0
   -3.8290   25.6710  -30.8620 O   0  0  0  0  0  0  0  0  0  0  0  0
   -2.7460   24.5560  -29.0130 C   0  0  0  0  0  0  0  0  0  0  0  0
   -1.8570   25.6390  -28.9300 O   0  0  0  0  0  0  0  0  0  0  0  0
   -0.9680   25.8700  -27.8420 C   0  0  0  0  0  0  0  0  0  0  0  0
   -1.5061   25.7302  -26.8928 H   0  0  0  0  0  0  0  0  0  0  0  0
   -0.1297   25.1599  -27.8963 H   0  0  0  0  0  0  0  0  0  0  0  0
   -0.5815   26.8984  -27.8963 H   0  0  0  0  0  0  0  0  0  0  0  0
   -2.6680   23.4520  -28.1430 C   0  0  0  0  0  0  0  0  0  0  0  0
   -1.8983   23.4317  -27.3574 H   0  0  0  0  0  0  0  0  0  0  0  0
   -1.6060   20.2710  -28.2970 N   0  0  0  0  0  0  0  0  0  0  0  0
   -0.6840   19.2730  -28.3140 C   0  0  0  0  0  0  0  0  0  0  0  0
    0.3110   19.2720  -29.3510 N   0  0  0  0  0  0  0  0  0  0  0  0
    0.1720   19.7040  -30.5710 C   0  0  0  0  0  0  0  0  0  0  0  0
   -1.0330   20.1430  -31.0350 N   0  0  0  0  0  0  0  0  0  0  0  0
   -1.2000   20.5730  -32.3150 C   0  0  0  0  0  0  0  0  0  0  0  0
   -2.1856   20.9261  -32.6526 H   0  0  0  0  0  0  0  0  0  0  0  0
   -0.1200   20.5660  -33.2000 C   0  0  0  0  0  0  0  0  0  0  0  0
   -0.3240   21.1180  -34.8520 Cl  0  0  0  0  0  0  0  0  0  0  0  0
    1.1230   20.1110  -32.7550 C   0  0  0  0  0  0  0  0  0  0  0  0
    1.9828   20.0968  -33.4410 H   0  0  0  0  0  0  0  0  0  0  0  0
    1.2720   19.6740  -31.4370 C   0  0  0  0  0  0  0  0  0  0  0  0
    2.2468   19.3087  -31.0816 H   0  0  0  0  0  0  0  0  0  0  0  0
   -0.7840   18.2370  -27.3750 C   0  0  0  0  0  0  0  0  0  0  0  0
   -0.0759   17.3953  -27.3897 H   0  0  0  0  0  0  0  0  0  0  0  0
  1  2  1  0
  2  3  1  0
  3  4  1  0
  4  5  2  0
  5  6  1  0
  6  7  2  0
  7  8  1  0
  7  9  1  0
  9 10  1  0
  9 11  2  0
 11 12  1  0
 11 13  1  0
 13 14  1  0
 14 15  1  0
 15 16  1  0
 15 17  1  0
 15 18  1  0
 13 19  2  0
 19 20  1  0
  4 21  1  0
 21 22  2  0
 22 23  1  0
 23 24  2  0
 24 25  1  0
 25 26  1  0
 26 27  1  0
 26 28  2  0
 28 29  1  0
 28 30  1  0
 30 31  1  0
 30 32  2  0
 32 33  1  0
 22 34  1  0
 34 35  1  0
 34  2  2  0
 19  6  1  0
 32 24  1  0
M  CHG  3   3  -1  12  -1  25  -1
M  END
>  <UniqueID>  (42) 
40

>  <SMILES>  (42) 
COc1cc(/N=c2\nc(/N=c3/ccc(Cl)c[n-]3)cc[n-]2)cc(Cl)c1[O-]

>  <Energy>  (42) 
52.268850834807886

>  <Genealogy>  (42) 
COc1cc(N=c2nc(N=c3ccc(Cl)c[n-]3)cc[n-]2)cc(Cl)c1[O-] (protonated)
COc1cc(/N=c2\nc(/N=c3/ccc(Cl)c[n-]3)cc[n-]2)cc(Cl)c1[O-] (cis-trans isomerization)
COc1cc(/N=c2\nc(/N=c3/ccc(Cl)c[n-]3)cc[n-]2)cc(Cl)c1[O-] (3D coordinates assigned)
COc1cc(/N=c2\nc(/N=c3/ccc(Cl)c[n-]3)cc[n-]2)cc(Cl)c1[O-] (optimized conformer: 52.268850834807886 kcal/mol)

>  <smiles>  (42) 
COc1cc(N=c2nc(N=c3ccc(Cl)c[nH]3)cc[nH]2)cc(Cl)c1O

>  <score_type>  (42) 
oracle

>  <origin>  (42) 
adgpu

>  <m_score__min__energy>  (42) 
-11.050000000000001

>  <m_primary>  (42) 
energy

$$$$
42:0
     RDKit          3D

 51 54  0  0  0  0  0  0  0  0999 V2000
   -2.4730   14.4070  -35.6620 C   0  0  0  0  0  0  0  0  0  0  0  0
   -3.7500   14.3600  -35.0320 O   0  0  0  0  0  0  0  0  0  0  0  0
   -4.4350   15.4840  -34.5480 C   0  0  0  0  0  0  0  0  0  0  0  0
   -4.2390   16.7100  -35.1940 C   0  0  0  0  0  0  0  0  0  0  0  0
   -4.8820   17.8640  -34.7390 C   0  0  0  0  0  0  0  0  0  0  0  0
   -5.7280   17.8100  -33.6190 C   0  0  0  0  0  0  0  0  0  0  0  0
   -6.3950   19.0280  -33.1110 C   0  0  0  0  0  0  0  0  0  0  0  0
   -7.7370   19.1520  -33.0310 N   0  0  0  0  0  0  0  0  0  0  0  0
   -7.9310   20.3990  -32.5490 C   0  0  0  0  0  0  0  0  0  0  0  0
   -9.2850   20.9370  -32.2170 C   0  0  0  0  0  0  0  0  0  0  0  0
   -6.7750   21.0550  -32.3140 N   0  0  0  0  0  0  0  0  0  0  0  0
   -6.6310   22.3040  -31.6270 C   0  0  0  0  0  0  0  0  0  0  0  0
   -5.8700   23.3340  -32.1990 C   0  0  0  0  0  0  0  0  0  0  0  0
   -5.7270   24.5530  -31.5290 C   0  0  0  0  0  0  0  0  0  0  0  0
   -6.3500   24.7540  -30.2900 C   0  0  0  0  0  0  0  0  0  0  0  0
   -6.2030   25.9760  -29.6380 O   0  0  0  0  0  0  0  0  0  0  0  0
   -7.1150   23.7250  -29.7190 C   0  0  0  0  0  0  0  0  0  0  0  0
   -7.2500   22.5010  -30.3830 C   0  0  0  0  0  0  0  0  0  0  0  0
   -5.7960   20.1950  -32.6550 C   0  0  0  0  0  0  0  0  0  0  0  0
   -4.3490   20.4430  -32.4600 C   0  0  0  0  0  0  0  0  0  0  0  0
   -3.8070   20.5190  -31.1660 C   0  0  0  0  0  0  0  0  0  0  0  0
   -2.4330   20.7060  -30.9880 C   0  0  0  0  0  0  0  0  0  0  0  0
   -1.5830   20.8390  -32.1030 C   0  0  0  0  0  0  0  0  0  0  0  0
   -0.1980   21.0240  -31.9780 O   0  0  0  0  0  0  0  0  0  0  0  0
    0.7670   19.9840  -32.1000 C   0  0  0  0  0  0  0  0  0  0  0  0
   -2.1300   20.7790  -33.3880 C   0  0  0  0  0  0  0  0  0  0  0  0
   -3.5020   20.5780  -33.5690 C   0  0  0  0  0  0  0  0  0  0  0  0
   -5.9550   16.5750  -32.9930 C   0  0  0  0  0  0  0  0  0  0  0  0
   -5.3080   15.4200  -33.4460 C   0  0  0  0  0  0  0  0  0  0  0  0
   -1.6861   14.4360  -34.8939 H   0  0  0  0  0  0  0  0  0  0  0  0
   -2.3405   13.5131  -36.2892 H   0  0  0  0  0  0  0  0  0  0  0  0
   -2.4065   15.3082  -36.2892 H   0  0  0  0  0  0  0  0  0  0  0  0
   -3.5729   16.7655  -36.0676 H   0  0  0  0  0  0  0  0  0  0  0  0
   -4.7249   18.8197  -35.2605 H   0  0  0  0  0  0  0  0  0  0  0  0
   -9.4031   20.9839  -31.1244 H   0  0  0  0  0  0  0  0  0  0  0  0
   -9.3927   21.9462  -32.6411 H   0  0  0  0  0  0  0  0  0  0  0  0
  -10.0560   20.2769  -32.6411 H   0  0  0  0  0  0  0  0  0  0  0  0
   -5.3855   23.1828  -33.1749 H   0  0  0  0  0  0  0  0  0  0  0  0
   -5.1235   25.3567  -31.9760 H   0  0  0  0  0  0  0  0  0  0  0  0
   -5.7070   26.0500  -28.7580 H   0  0  0  0  0  0  0  0  0  0  0  0
   -7.6088   23.8811  -28.7486 H   0  0  0  0  0  0  0  0  0  0  0  0
   -7.8419   21.6923  -29.9296 H   0  0  0  0  0  0  0  0  0  0  0  0
   -4.4661   20.4310  -30.2898 H   0  0  0  0  0  0  0  0  0  0  0  0
   -2.0137   20.7495  -29.9720 H   0  0  0  0  0  0  0  0  0  0  0  0
    1.0759   19.6511  -31.0981 H   0  0  0  0  0  0  0  0  0  0  0  0
    0.3269   19.1379  -32.6481 H   0  0  0  0  0  0  0  0  0  0  0  0
    1.6436   20.3597  -32.6481 H   0  0  0  0  0  0  0  0  0  0  0  0
   -1.4752   20.8909  -34.2648 H   0  0  0  0  0  0  0  0  0  0  0  0
   -3.9184   20.5256  -34.5858 H   0  0  0  0  0  0  0  0  0  0  0  0
   -6.6467   16.5143  -32.1398 H   0  0  0  0  0  0  0  0  0  0  0  0
   -5.4822   14.4593  -32.9394 H   0  0  0  0  0  0  0  0  0  0  0  0
  1  2  1  0
  2  3  1  0
  3  4  2  0
  4  5  1  0
  5  6  2  0
  6  7  1  0
  7  8  1  0
  8  9  2  0
  9 10  1  0
  9 11  1  0
 11 12  1  0
 12 13  2  0
 13 14  1  0
 14 15  2  0
 15 16  1  0
 15 17  1  0
 17 18  2  0
 11 19  1  0
 19 20  1  0
 20 21  2  0
 21 22  1  0
 22 23  2  0
 23 24  1  0
 24 25  1  0
 23 26  1  0
 26 27  2  0
  6 28  1  0
 28 29  2  0
 29  3  1  0
 19  7  2  0
 27 20  1  0
 18 12  1  0
  1 30  1  0
  1 31  1  0
  1 32  1  0
  4 33  1  0
  5 34  1  0
 10 35  1  0
 10 36  1  0
 10 37  1  0
 13 38  1  0
 14 39  1  0
 16 40  1  0
 17 41  1  0
 18 42  1  0
 21 43  1  0
 22 44  1  0
 25 45  1  0
 25 46  1  0
 25 47  1  0
 26 48  1  0
 27 49  1  0
 28 50  1  0
 29 51  1  0
M  END
>  <UniqueID>  (43) 
41

>  <SMILES>  (43) 
COc1ccc(-c2nc(C)n(-c3ccc(O)cc3)c2-c2ccc(OC)cc2)cc1

>  <Energy>  (43) 
97.58327720479271

>  <Genealogy>  (43) 
COc1ccc(-c2nc(C)n(-c3ccc(O)cc3)c2-c2ccc(OC)cc2)cc1 (3D coordinates assigned)
COc1ccc(-c2nc(C)n(-c3ccc(O)cc3)c2-c2ccc(OC)cc2)cc1 (optimized conformer: 97.58327720479271 kcal/mol)

>  <smiles>  (43) 
COc1ccc(-c2nc(C)n(-c3ccc(O)cc3)c2-c2ccc(OC)cc2)cc1

>  <score_type>  (43) 
oracle

>  <origin>  (43) 
adgpu

>  <m_score__min__energy>  (43) 
-8.0700000000000003

>  <m_primary>  (43) 
energy

$$$$
43:0
     RDKit          3D

 58 63  0  0  0  0  0  0  0  0999 V2000
   -0.7949   21.6713  -34.5466 H   0  0  0  0  0  0  0  0  0  0  0  0
   -1.3430   21.2540  -33.6890 C   0  0  0  0  0  0  0  0  0  0  0  0
   -0.7770   21.2560  -32.4540 N   0  0  0  0  0  0  0  0  0  0  0  0
   -1.4380   20.7590  -31.3760 C   0  0  0  0  0  0  0  0  0  0  0  0
   -0.8380   20.7370  -30.2230 N   0  0  0  0  0  0  0  0  0  0  0  0
   -1.3740   20.2670  -28.9730 C   0  0  0  0  0  0  0  0  0  0  0  0
   -2.4760   20.9360  -28.4230 C   0  0  0  0  0  0  0  0  0  0  0  0
   -2.8976   21.8115  -28.9386 H   0  0  0  0  0  0  0  0  0  0  0  0
   -3.0430   20.4960  -27.2210 C   0  0  0  0  0  0  0  0  0  0  0  0
   -3.8989   21.0343  -26.7878 H   0  0  0  0  0  0  0  0  0  0  0  0
   -2.5230   19.3740  -26.5710 C   0  0  0  0  0  0  0  0  0  0  0  0
   -2.9634   19.0351  -25.6217 H   0  0  0  0  0  0  0  0  0  0  0  0
   -1.4430   18.6820  -27.1270 C   0  0  0  0  0  0  0  0  0  0  0  0
   -0.9570   17.5760  -26.5120 F   0  0  0  0  0  0  0  0  0  0  0  0
   -0.8760   19.1170  -28.3300 C   0  0  0  0  0  0  0  0  0  0  0  0
   -0.0388   18.5592  -28.7749 H   0  0  0  0  0  0  0  0  0  0  0  0
   -2.6850   20.2350  -31.5370 N   0  0  0  0  0  0  0  0  0  0  0  0
   -3.2890   20.2080  -32.7550 C   0  0  0  0  0  0  0  0  0  0  0  0
   -4.6180   19.5870  -32.8960 C   0  0  0  0  0  0  0  0  0  0  0  0
   -5.8550   20.1280  -32.5420 C   0  0  0  0  0  0  0  0  0  0  0  0
   -6.1300   21.4970  -32.0540 C   0  0  0  0  0  0  0  0  0  0  0  0
   -7.4320   22.0150  -32.1180 C   0  0  0  0  0  0  0  0  0  0  0  0
   -8.2429   21.4062  -32.5444 H   0  0  0  0  0  0  0  0  0  0  0  0
   -7.7040   23.3000  -31.6430 C   0  0  0  0  0  0  0  0  0  0  0  0
   -8.7288   23.6967  -31.6912 H   0  0  0  0  0  0  0  0  0  0  0  0
   -6.6790   24.0830  -31.1070 C   0  0  0  0  0  0  0  0  0  0  0  0
   -6.9040   25.0876  -30.7194 H   0  0  0  0  0  0  0  0  0  0  0  0
   -5.3620   23.5950  -31.0600 C   0  0  0  0  0  0  0  0  0  0  0  0
   -4.2760   24.4130  -30.4690 C   0  0  0  0  0  0  0  0  0  0  0  0
   -4.2340   25.6530  -30.6920 O   0  0  0  0  0  0  0  0  0  0  0  0
   -3.2540   23.8050  -29.6630 N   0  0  0  0  0  0  0  0  0  0  0  0
   -2.9260   22.8480  -29.9270 H   0  0  0  0  0  0  0  0  0  0  0  0
   -2.6120   24.4620  -28.5580 C   0  0  0  0  0  0  0  0  0  0  0  0
   -1.3200   24.9870  -28.7250 C   0  0  0  0  0  0  0  0  0  0  0  0
   -0.8208   24.9090  -29.7021 H   0  0  0  0  0  0  0  0  0  0  0  0
   -0.6640   25.6080  -27.6580 C   0  0  0  0  0  0  0  0  0  0  0  0
    0.3433   26.0262  -27.8009 H   0  0  0  0  0  0  0  0  0  0  0  0
   -1.2860   25.6980  -26.4110 C   0  0  0  0  0  0  0  0  0  0  0  0
   -0.6510   26.3040  -25.3780 F   0  0  0  0  0  0  0  0  0  0  0  0
   -2.5630   25.1580  -26.2270 C   0  0  0  0  0  0  0  0  0  0  0  0
   -3.0492   25.2208  -25.2423 H   0  0  0  0  0  0  0  0  0  0  0  0
   -3.2220   24.5390  -27.2920 C   0  0  0  0  0  0  0  0  0  0  0  0
   -4.2232   24.1094  -27.1402 H   0  0  0  0  0  0  0  0  0  0  0  0
   -5.0970   22.3030  -31.5480 C   0  0  0  0  0  0  0  0  0  0  0  0
   -4.0666   21.9183  -31.5332 H   0  0  0  0  0  0  0  0  0  0  0  0
   -6.8340   19.2160  -32.7620 N   0  0  0  0  0  0  0  0  0  0  0  0
   -6.1710   18.1470  -33.2510 C   0  0  0  0  0  0  0  0  0  0  0  0
   -6.7490   16.9360  -33.6240 C   0  0  0  0  0  0  0  0  0  0  0  0
   -7.8355   16.7787  -33.5547 H   0  0  0  0  0  0  0  0  0  0  0  0
   -5.8960   15.9220  -34.0920 C   0  0  0  0  0  0  0  0  0  0  0  0
   -6.3155   14.9547  -34.4056 H   0  0  0  0  0  0  0  0  0  0  0  0
   -4.5080   16.1390  -34.1610 C   0  0  0  0  0  0  0  0  0  0  0  0
   -3.8406   15.3418  -34.5202 H   0  0  0  0  0  0  0  0  0  0  0  0
   -3.9800   17.3780  -33.7690 C   0  0  0  0  0  0  0  0  0  0  0  0
   -2.8970   17.5671  -33.8045 H   0  0  0  0  0  0  0  0  0  0  0  0
   -4.8430   18.3390  -33.3440 N   0  0  0  0  0  0  0  0  0  0  0  0
   -2.6180   20.7230  -33.8680 C   0  0  0  0  0  0  0  0  0  0  0  0
   -3.0866   20.7091  -34.8631 H   0  0  0  0  0  0  0  0  0  0  0  0
  1  2  1  0
  2  3  1  0
  3  4  1  0
  4  5  2  0
  5  6  1  0
  6  7  2  0
  7  8  1  0
  7  9  1  0
  9 10  1  0
  9 11  2  0
 11 12  1  0
 11 13  1  0
 13 14  1  0
 13 15  2  0
 15 16  1  0
  4 17  1  0
 17 18  2  0
 18 19  1  0
 19 20  2  0
 20 21  1  0
 21 22  2  0
 22 23  1  0
 22 24  1  0
 24 25  1  0
 24 26  2  0
 26 27  1  0
 26 28  1  0
 28 29  1  0
 29 30  2  0
 29 31  1  0
 31 32  1  0
 31 33  1  0
 33 34  2  0
 34 35  1  0
 34 36  1  0
 36 37  1  0
 36 38  2  0
 38 39  1  0
 38 40  1  0
 40 41  1  0
 40 42  2  0
 42 43  1  0
 28 44  2  0
 44 45  1  0
 20 46  1  0
 46 47  2  0
 47 48  1  0
 48 49  1  0
 48 50  2  0
 50 51  1  0
 50 52  1  0
 52 53  1  0
 52 54  2  0
 54 55  1  0
 54 56  1  0
 18 57  1  0
 57 58  1  0
 57  2  2  0
 15  6  1  0
 56 19  1  0
 44 21  1  0
 56 47  1  0
 42 33  1  0
M  CHG  1   3  -1
M  END
>  <UniqueID>  (44) 
42

>  <SMILES>  (44) 
O=C(Nc1ccc(F)cc1)c1cccc(-c2nc3ccccn3c2-c2cc[n-]/c(=N/c3cccc(F)c3)n2)c1

>  <Energy>  (44) 
121.80464841024965

>  <Genealogy>  (44) 
O=C(Nc1ccc(F)cc1)c1cccc(-c2nc3ccccn3c2-c2cc[n-]c(=Nc3cccc(F)c3)n2)c1 (protonated)
O=C(Nc1ccc(F)cc1)c1cccc(-c2nc3ccccn3c2-c2cc[n-]/c(=N/c3cccc(F)c3)n2)c1 (cis-trans isomerization)
O=C(Nc1ccc(F)cc1)c1cccc(-c2nc3ccccn3c2-c2cc[n-]/c(=N/c3cccc(F)c3)n2)c1 (3D coordinates assigned)
O=C(Nc1ccc(F)cc1)c1cccc(-c2nc3ccccn3c2-c2cc[n-]/c(=N/c3cccc(F)c3)n2)c1 (optimized conformer: 121.80464841024965 kcal/mol)

>  <smiles>  (44) 
O=C(Nc1ccc(F)cc1)c1cccc(-c2nc3ccccn3c2-c2cc[nH]c(=Nc3cccc(F)c3)n2)c1

>  <score_type>  (44) 
oracle

>  <origin>  (44) 
adgpu

>  <m_score__min__energy>  (44) 
-11.85

>  <m_primary>  (44) 
energy

$$$$
44:0
     RDKit          3D

 54 59  0  0  0  0  0  0  0  0999 V2000
   -0.3900   26.7420  -29.2770 H   0  0  0  0  0  0  0  0  0  0  0  0
   -1.2500   26.2460  -28.9520 N   0  0  0  0  0  0  0  0  0  0  0  0
   -1.2290   24.9900  -28.6340 C   0  0  0  0  0  0  0  0  0  0  0  0
   -0.0690   24.2830  -28.7180 N   0  0  0  0  0  0  0  0  0  0  0  0
   -0.0090   22.9630  -28.3910 C   0  0  0  0  0  0  0  0  0  0  0  0
    0.9460   22.4225  -28.4672 H   0  0  0  0  0  0  0  0  0  0  0  0
   -1.1610   22.2890  -27.9570 C   0  0  0  0  0  0  0  0  0  0  0  0
   -1.1090   20.9110  -27.5590 N   0  0  0  0  0  0  0  0  0  0  0  0
   -1.7290   20.4270  -26.4960 N   0  0  0  0  0  0  0  0  0  0  0  0
   -1.4390   19.1400  -26.3780 N   0  0  0  0  0  0  0  0  0  0  0  0
   -0.6310   18.7670  -27.3630 N   0  0  0  0  0  0  0  0  0  0  0  0
   -0.4250   19.8780  -28.0960 C   0  0  0  0  0  0  0  0  0  0  0  0
    0.3080   19.8800  -29.3820 C   0  0  0  0  0  0  0  0  0  0  0  0
    1.5560   20.0510  -29.3940 O   0  0  0  0  0  0  0  0  0  0  0  0
   -0.3900   19.8050  -30.6300 N   0  0  0  0  0  0  0  0  0  0  0  0
   -1.6460   20.4390  -30.9040 C   0  0  0  0  0  0  0  0  0  0  0  0
   -2.6380   20.4470  -29.9170 C   0  0  0  0  0  0  0  0  0  0  0  0
   -2.4391   19.9903  -28.9362 H   0  0  0  0  0  0  0  0  0  0  0  0
   -3.8800   21.0330  -30.1730 C   0  0  0  0  0  0  0  0  0  0  0  0
   -4.6624   21.0181  -29.3999 H   0  0  0  0  0  0  0  0  0  0  0  0
   -4.1340   21.6410  -31.4130 C   0  0  0  0  0  0  0  0  0  0  0  0
   -5.4600   22.2250  -31.6960 C   0  0  0  0  0  0  0  0  0  0  0  0
   -5.6350   23.5580  -31.4820 N   0  0  0  0  0  0  0  0  0  0  0  0
   -6.8340   24.1700  -31.6600 C   0  0  0  0  0  0  0  0  0  0  0  0
   -6.9309   25.2513  -31.4828 H   0  0  0  0  0  0  0  0  0  0  0  0
   -7.9420   23.4290  -32.0670 C   0  0  0  0  0  0  0  0  0  0  0  0
   -8.9183   23.9179  -32.2009 H   0  0  0  0  0  0  0  0  0  0  0  0
   -7.8010   22.0610  -32.3030 C   0  0  0  0  0  0  0  0  0  0  0  0
   -8.6715   21.4680  -32.6201 H   0  0  0  0  0  0  0  0  0  0  0  0
   -6.5550   21.4380  -32.1380 C   0  0  0  0  0  0  0  0  0  0  0  0
   -6.4310   19.9940  -32.4490 C   0  0  0  0  0  0  0  0  0  0  0  0
   -5.3350   19.5430  -33.1160 N   0  0  0  0  0  0  0  0  0  0  0  0
   -5.1810   18.2290  -33.4270 C   0  0  0  0  0  0  0  0  0  0  0  0
   -4.1110   17.8500  -34.0650 N   0  0  0  0  0  0  0  0  0  0  0  0
   -3.7770   16.5280  -34.5140 C   0  0  0  0  0  0  0  0  0  0  0  0
   -3.3310   16.2890  -35.7680 N   0  0  0  0  0  0  0  0  0  0  0  0
   -3.1240   14.9630  -35.9910 C   0  0  0  0  0  0  0  0  0  0  0  0
   -2.7543   14.5778  -36.9527 H   0  0  0  0  0  0  0  0  0  0  0  0
   -3.4130   14.1300  -34.9170 C   0  0  0  0  0  0  0  0  0  0  0  0
   -3.3097   13.0350  -34.9015 H   0  0  0  0  0  0  0  0  0  0  0  0
   -3.9490   15.0920  -33.6440 S   0  0  0  0  0  0  0  0  0  0  0  0
   -6.1370   17.3350  -33.0510 N   0  0  0  0  0  0  0  0  0  0  0  0
   -7.2390   17.7310  -32.3660 C   0  0  0  0  0  0  0  0  0  0  0  0
   -7.9984   16.9925  -32.0695 H   0  0  0  0  0  0  0  0  0  0  0  0
   -7.4070   19.0740  -32.0390 C   0  0  0  0  0  0  0  0  0  0  0  0
   -8.2878   19.4068  -31.4703 H   0  0  0  0  0  0  0  0  0  0  0  0
   -3.1210   21.6810  -32.3850 C   0  0  0  0  0  0  0  0  0  0  0  0
   -3.3420   22.2690  -33.5890 F   0  0  0  0  0  0  0  0  0  0  0  0
   -1.8850   21.0760  -32.1340 C   0  0  0  0  0  0  0  0  0  0  0  0
   -1.0975   21.0988  -32.9017 H   0  0  0  0  0  0  0  0  0  0  0  0
   -2.3580   23.0080  -27.8450 C   0  0  0  0  0  0  0  0  0  0  0  0
   -3.2679   22.5068  -27.4831 H   0  0  0  0  0  0  0  0  0  0  0  0
   -2.3980   24.3600  -28.1920 C   0  0  0  0  0  0  0  0  0  0  0  0
   -3.3393   24.9245  -28.1187 H   0  0  0  0  0  0  0  0  0  0  0  0
  1  2  1  0
  2  3  2  0
  3  4  1  0
  4  5  1  0
  5  6  1  0
  5  7  2  0
  7  8  1  0
  8  9  1  0
  9 10  2  0
 10 11  1  0
 11 12  2  0
 12 13  1  0
 13 14  2  0
 13 15  1  0
 15 16  1  0
 16 17  2  0
 17 18  1  0
 17 19  1  0
 19 20  1  0
 19 21  2  0
 21 22  1  0
 22 23  2  0
 23 24  1  0
 24 25  1  0
 24 26  2  0
 26 27  1  0
 26 28  1  0
 28 29  1  0
 28 30  2  0
 30 31  1  0
 31 32  2  0
 32 33  1  0
 33 34  2  3
 34 35  1  0
 35 36  2  0
 36 37  1  0
 37 38  1  0
 37 39  2  0
 39 40  1  0
 39 41  1  0
 33 42  1  0
 42 43  1  0
 43 44  1  0
 43 45  2  0
 45 46  1  0
 21 47  1  0
 47 48  1  0
 47 49  2  0
 49 50  1  0
  7 51  1  0
 51 52  1  0
 51 53  2  0
 53 54  1  0
 53  3  1  0
 12  8  1  0
 49 16  1  0
 30 22  1  0
 45 31  1  0
 41 35  1  0
M  CHG  3   4  -1  15  -1  42  -1
M  END
>  <UniqueID>  (45) 
43

>  <SMILES>  (45) 
[H]/N=c1/ccc(-n2nnnc2C(=O)[N-]c2ccc(-c3ncccc3-c3cc[n-]c(=Nc4nccs4)n3)c(F)c2)c[n-]1

>  <Energy>  (45) 
162.878102016351

>  <Genealogy>  (45) 
N=c1ccc(-n2nnnc2C(=O)[N-]c2ccc(-c3ncccc3-c3cc[n-]c(=Nc4nccs4)n3)c(F)c2)c[n-]1 (protonated)
[H]/N=c1/ccc(-n2nnnc2C(=O)[N-]c2ccc(-c3ncccc3-c3cc[n-]c(=Nc4nccs4)n3)c(F)c2)c[n-]1 (cis-trans isomerization)
[H]/N=c1/ccc(-n2nnnc2C(=O)[N-]c2ccc(-c3ncccc3-c3cc[n-]c(=Nc4nccs4)n3)c(F)c2)c[n-]1 (3D coordinates assigned)
[H]/N=c1/ccc(-n2nnnc2C(=O)[N-]c2ccc(-c3ncccc3-c3cc[n-]c(=Nc4nccs4)n3)c(F)c2)c[n-]1 (optimized conformer: 162.878102016351 kcal/mol)

>  <smiles>  (45) 
N=c1ccc(-n2nnnc2C(=O)Nc2ccc(-c3ncccc3-c3cc[nH]c(=Nc4nccs4)n3)c(F)c2)c[nH]1

>  <score_type>  (45) 
oracle

>  <origin>  (45) 
adgpu

>  <m_score__min__energy>  (45) 
-13.9

>  <m_primary>  (45) 
energy

$$$$
45:0
     RDKit          3D

 43 45  0  0  0  0  0  0  0  0999 V2000
   -0.3670   26.9090  -22.9610 C   0  0  0  0  0  0  0  0  0  0  0  0
   -0.4200   26.3760  -24.3620 C   0  0  0  0  0  0  0  0  0  0  0  0
   -1.2250   27.0080  -25.3230 C   0  0  0  0  0  0  0  0  0  0  0  0
   -1.2520   26.5340  -26.6390 C   0  0  0  0  0  0  0  0  0  0  0  0
   -0.4630   25.4370  -27.0160 C   0  0  0  0  0  0  0  0  0  0  0  0
   -0.5410   24.8990  -28.4190 C   0  0  0  0  0  0  0  0  0  0  0  0
   -1.8740   24.3420  -28.6660 N   0  0  0  0  0  0  0  0  0  0  0  0
   -2.6260   24.9090  -29.6150 N   0  0  0  0  0  0  0  0  0  0  0  0
   -3.8930   24.4890  -29.8880 C   0  0  0  0  0  0  0  0  0  0  0  0
   -4.6720   25.1350  -30.9050 N   0  0  0  0  0  0  0  0  0  0  0  0
   -6.1220   24.9750  -31.0140 C   0  0  0  0  0  0  0  0  0  0  0  0
   -6.4900   23.6300  -31.5920 C   0  0  0  0  0  0  0  0  0  0  0  0
   -7.7950   23.1210  -31.4610 C   0  0  0  0  0  0  0  0  0  0  0  0
   -8.1150   21.8580  -31.9700 C   0  0  0  0  0  0  0  0  0  0  0  0
   -7.1340   21.0800  -32.5910 C   0  0  0  0  0  0  0  0  0  0  0  0
   -7.4670   19.8240  -33.0920 O   0  0  0  0  0  0  0  0  0  0  0  0
   -5.8260   21.5700  -32.7010 C   0  0  0  0  0  0  0  0  0  0  0  0
   -5.5050   22.8370  -32.2020 C   0  0  0  0  0  0  0  0  0  0  0  0
   -4.4340   23.4370  -29.1490 C   0  0  0  0  0  0  0  0  0  0  0  0
   -3.6690   22.8460  -28.1470 C   0  0  0  0  0  0  0  0  0  0  0  0
   -4.1490   21.9020  -27.4640 O   0  0  0  0  0  0  0  0  0  0  0  0
   -2.3730   23.3130  -27.9070 C   0  0  0  0  0  0  0  0  0  0  0  0
   -1.6770   22.7900  -26.9940 O   0  0  0  0  0  0  0  0  0  0  0  0
    0.3500   24.8120  -26.0580 C   0  0  0  0  0  0  0  0  0  0  0  0
    0.3790   25.2850  -24.7420 C   0  0  0  0  0  0  0  0  0  0  0  0
   -0.4499   26.0753  -22.2482 H   0  0  0  0  0  0  0  0  0  0  0  0
    0.5876   27.4324  -22.8037 H   0  0  0  0  0  0  0  0  0  0  0  0
   -1.1999   27.6101  -22.8037 H   0  0  0  0  0  0  0  0  0  0  0  0
   -1.8360   27.8780  -25.0406 H   0  0  0  0  0  0  0  0  0  0  0  0
   -1.8963   27.0249  -27.3832 H   0  0  0  0  0  0  0  0  0  0  0  0
   -0.3478   25.7131  -29.1331 H   0  0  0  0  0  0  0  0  0  0  0  0
    0.2117   24.1070  -28.5456 H   0  0  0  0  0  0  0  0  0  0  0  0
   -4.1940   25.7630  -31.5900 H   0  0  0  0  0  0  0  0  0  0  0  0
   -6.5678   25.0674  -30.0126 H   0  0  0  0  0  0  0  0  0  0  0  0
   -6.5049   25.7557  -31.6876 H   0  0  0  0  0  0  0  0  0  0  0  0
   -8.5676   23.7192  -30.9558 H   0  0  0  0  0  0  0  0  0  0  0  0
   -9.1426   21.4757  -31.8812 H   0  0  0  0  0  0  0  0  0  0  0  0
   -8.0090   19.7210  -33.9420 H   0  0  0  0  0  0  0  0  0  0  0  0
   -5.0492   20.9567  -33.1811 H   0  0  0  0  0  0  0  0  0  0  0  0
   -4.4752   23.2140  -32.2881 H   0  0  0  0  0  0  0  0  0  0  0  0
   -5.4532   23.0784  -29.3554 H   0  0  0  0  0  0  0  0  0  0  0  0
    0.9667   23.9469  -26.3431 H   0  0  0  0  0  0  0  0  0  0  0  0
    1.0310   24.8000  -24.0006 H   0  0  0  0  0  0  0  0  0  0  0  0
  1  2  1  0
  2  3  2  0
  3  4  1  0
  4  5  2  0
  5  6  1  0
  6  7  1  0
  7  8  1  0
  8  9  1  0
  9 10  1  0
 10 11  1  0
 11 12  1  0
 12 13  2  0
 13 14  1  0
 14 15  2  0
 15 16  1  0
 15 17  1  0
 17 18  2  0
  9 19  2  0
 19 20  1  0
 20 21  2  0
 20 22  1  0
 22 23  2  0
  5 24  1  0
 24 25  2  0
 25  2  1  0
 22  7  1  0
 18 12  1  0
  1 26  1  0
  1 27  1  0
  1 28  1  0
  3 29  1  0
  4 30  1  0
  6 31  1  0
  6 32  1  0
 10 33  1  0
 11 34  1  0
 11 35  1  0
 13 36  1  0
 14 37  1  0
 16 38  1  0
 17 39  1  0
 18 40  1  0
 19 41  1  0
 24 42  1  0
 25 43  1  0
M  CHG  1   8  -1
M  END
>  <UniqueID>  (46) 
44

>  <SMILES>  (46) 
Cc1ccc(Cn2[n-]c(NCc3ccc(O)cc3)cc(=O)c2=O)cc1

>  <Energy>  (46) 
40.97700664644456

>  <Genealogy>  (46) 
Cc1ccc(Cn2[n-]c(NCc3ccc(O)cc3)cc(=O)c2=O)cc1 (protonated)
Cc1ccc(Cn2[n-]c(NCc3ccc(O)cc3)cc(=O)c2=O)cc1 (3D coordinates assigned)
Cc1ccc(Cn2[n-]c(NCc3ccc(O)cc3)cc(=O)c2=O)cc1 (optimized conformer: 40.97700664644456 kcal/mol)

>  <smiles>  (46) 
Cc1ccc(Cn2[nH]c(NCc3ccc(O)cc3)cc(=O)c2=O)cc1

>  <score_type>  (46) 
oracle

>  <origin>  (46) 
adgpu

>  <m_score__min__energy>  (46) 
-10.300000000000001

>  <m_primary>  (46) 
energy

$$$$
46:0
     RDKit          3D

 30 31  0  0  0  0  0  0  0  0999 V2000
   -7.9480   19.8960  -33.0190 C   0  0  0  0  0  0  0  0  0  0  0  0
   -6.5940   20.4290  -32.8250 N   0  0  0  0  0  0  0  0  0  0  0  0
   -5.4540   19.7710  -33.4740 C   0  0  0  0  0  0  0  0  0  0  0  0
   -6.4140   21.5990  -31.9900 C   0  0  0  0  0  0  0  0  0  0  0  0
   -5.2540   21.7860  -31.2150 C   0  0  0  0  0  0  0  0  0  0  0  0
   -5.1140   22.9360  -30.4250 C   0  0  0  0  0  0  0  0  0  0  0  0
   -3.8860   23.1170  -29.6210 C   0  0  0  0  0  0  0  0  0  0  0  0
   -3.4650   22.0920  -28.7590 C   0  0  0  0  0  0  0  0  0  0  0  0
   -2.3030   22.2390  -27.9940 C   0  0  0  0  0  0  0  0  0  0  0  0
   -1.8290   20.9280  -26.9230 Cl  0  0  0  0  0  0  0  0  0  0  0  0
   -1.5430   23.4200  -28.0930 C   0  0  0  0  0  0  0  0  0  0  0  0
   -0.3800   23.6110  -27.3470 O   0  0  0  0  0  0  0  0  0  0  0  0
   -1.9550   24.4360  -28.9630 C   0  0  0  0  0  0  0  0  0  0  0  0
   -3.1150   24.2880  -29.7300 C   0  0  0  0  0  0  0  0  0  0  0  0
   -3.4870   25.3030  -30.6060 O   0  0  0  0  0  0  0  0  0  0  0  0
   -6.1520   23.8860  -30.4040 C   0  0  0  0  0  0  0  0  0  0  0  0
   -6.0870   25.3180  -29.3800 Cl  0  0  0  0  0  0  0  0  0  0  0  0
   -7.2880   23.6680  -31.1850 C   0  0  0  0  0  0  0  0  0  0  0  0
   -7.3910   22.5490  -31.9480 N   0  0  0  0  0  0  0  0  0  0  0  0
   -8.4137   19.7127  -32.0395 H   0  0  0  0  0  0  0  0  0  0  0  0
   -8.5514   20.6237  -33.5815 H   0  0  0  0  0  0  0  0  0  0  0  0
   -7.8934   18.9522  -33.5815 H   0  0  0  0  0  0  0  0  0  0  0  0
   -4.7720   19.3773  -32.7060 H   0  0  0  0  0  0  0  0  0  0  0  0
   -5.8168   18.9434  -34.1012 H   0  0  0  0  0  0  0  0  0  0  0  0
   -4.9188   20.4991  -34.1012 H   0  0  0  0  0  0  0  0  0  0  0  0
   -4.4561   21.0289  -31.2291 H   0  0  0  0  0  0  0  0  0  0  0  0
   -4.0536   21.1657  -28.6845 H   0  0  0  0  0  0  0  0  0  0  0  0
   -0.2530   23.2200  -26.4220 H   0  0  0  0  0  0  0  0  0  0  0  0
   -1.3615   25.3586  -29.0441 H   0  0  0  0  0  0  0  0  0  0  0  0
   -8.1038   24.4059  -31.1826 H   0  0  0  0  0  0  0  0  0  0  0  0
  1  2  1  0
  2  3  1  0
  2  4  1  0
  4  5  2  0
  5  6  1  0
  6  7  1  0
  7  8  2  0
  8  9  1  0
  9 10  1  0
  9 11  2  0
 11 12  1  0
 11 13  1  0
 13 14  2  0
 14 15  1  0
  6 16  2  0
 16 17  1  0
 16 18  1  0
 18 19  2  0
 19  4  1  0
 14  7  1  0
  1 20  1  0
  1 21  1  0
  1 22  1  0
  3 23  1  0
  3 24  1  0
  3 25  1  0
  5 26  1  0
  8 27  1  0
 12 28  1  0
 13 29  1  0
 18 30  1  0
M  CHG  1  15  -1
M  END
>  <UniqueID>  (47) 
45

>  <SMILES>  (47) 
CN(C)c1cc(-c2cc(Cl)c(O)cc2[O-])c(Cl)cn1

>  <Energy>  (47) 
39.5054075187215

>  <Genealogy>  (47) 
CN(C)c1cc(-c2cc(Cl)c(O)cc2[O-])c(Cl)cn1 (protonated)
CN(C)c1cc(-c2cc(Cl)c(O)cc2[O-])c(Cl)cn1 (3D coordinates assigned)
CN(C)c1cc(-c2cc(Cl)c(O)cc2[O-])c(Cl)cn1 (optimized conformer: 39.5054075187215 kcal/mol)

>  <smiles>  (47) 
CN(C)c1cc(-c2cc(Cl)c(O)cc2O)c(Cl)cn1

>  <score_type>  (47) 
oracle

>  <origin>  (47) 
adgpu

>  <m_score__min__energy>  (47) 
-9.3300000000000001

>  <m_primary>  (47) 
energy

$$$$
47:0
     RDKit          3D

 35 37  0  0  1  0  0  0  0  0999 V2000
   -3.1390   25.1140  -29.7250 O   0  0  0  0  0  0  0  0  0  0  0  0
   -4.3890   24.5560  -30.0370 C   0  0  0  0  0  0  0  0  0  0  0  0
   -4.6880   23.3430  -29.4480 C   0  0  0  0  0  0  0  0  0  0  0  0
   -5.9070   22.7470  -29.7190 C   0  0  0  0  0  0  0  0  0  0  0  0
   -6.7960   23.3980  -30.5850 C   0  0  0  0  0  0  0  0  0  0  0  0
   -8.0300   22.7260  -30.8170 N   0  0  0  0  0  0  0  0  0  0  0  0
   -8.0010   21.6420  -31.4980 C   0  0  0  0  0  0  0  0  0  0  0  0
   -6.8890   21.0910  -32.0090 N   0  0  0  0  0  0  0  0  0  0  0  0
   -6.9530   19.9460  -32.7130 C   0  0  0  0  0  0  0  0  0  0  0  0
   -5.8930   19.4080  -33.2090 N   0  0  0  0  0  0  0  0  0  0  0  0
   -4.6030   20.0020  -33.0340 C   0  0  0  0  0  0  0  0  0  0  0  0
   -4.3830   21.3260  -33.3170 C   0  0  0  0  0  0  0  0  0  0  0  0
   -3.1080   21.8630  -33.1320 C   0  0  0  0  0  0  0  0  0  0  0  0
   -2.0540   21.0990  -32.6670 C   0  0  0  0  0  0  0  0  0  0  0  0
   -0.8120   21.5990  -32.4800 F   0  0  0  0  0  0  0  0  0  0  0  0
   -2.2760   19.7660  -32.3820 C   0  0  0  0  0  0  0  0  0  0  0  0
   -3.5460   19.2230  -32.5650 C   0  0  0  0  0  0  0  0  0  0  0  0
   -8.1170   19.3230  -32.9260 N   0  0  0  0  0  0  0  0  0  0  0  0
   -9.2880   19.8130  -32.4430 C   0  0  0  0  0  0  0  0  0  0  0  0
   -9.1980   20.9920  -31.7210 C   0  0  0  0  0  0  0  0  0  0  0  0
  -10.3540   21.5020  -31.2280 F   0  0  0  0  0  0  0  0  0  0  0  0
   -6.4710   24.6000  -31.1540 C   0  0  0  0  0  0  0  0  0  0  0  0
   -5.2590   25.2090  -30.8940 C   0  0  0  0  0  0  0  0  0  0  0  0
   -3.1060   26.0550  -29.3470 H   0  0  0  0  0  0  0  0  0  0  0  0
   -3.9675   22.8578  -28.7732 H   0  0  0  0  0  0  0  0  0  0  0  0
   -6.1730   21.7816  -29.2638 H   0  0  0  0  0  0  0  0  0  0  0  0
   -5.9730   21.5630  -31.8530 H   0  0  0  0  0  0  0  0  0  0  0  0
   -5.2036   21.9586  -33.6863 H   0  0  0  0  0  0  0  0  0  0  0  0
   -2.9370   22.9248  -33.3629 H   0  0  0  0  0  0  0  0  0  0  0  0
   -1.4538   19.1358  -32.0122 H   0  0  0  0  0  0  0  0  0  0  0  0
   -3.7178   18.1610  -32.3354 H   0  0  0  0  0  0  0  0  0  0  0  0
   -8.1760   18.4410  -33.4670 H   0  0  0  0  0  0  0  0  0  0  0  0
  -10.2486   19.3051  -32.6145 H   0  0  0  0  0  0  0  0  0  0  0  0
   -7.1877   25.0893  -31.8300 H   0  0  0  0  0  0  0  0  0  0  0  0
   -4.9951   26.1748  -31.3497 H   0  0  0  0  0  0  0  0  0  0  0  0
  1  2  1  0
  2  3  2  0
  3  4  1  0
  4  5  2  0
  5  6  1  0
  6  7  2  0
  7  8  1  0
  8  9  1  0
  9 10  2  0
 10 11  1  0
 11 12  2  0
 12 13  1  0
 13 14  2  0
 14 15  1  0
 14 16  1  0
 16 17  2  0
  9 18  1  0
 18 19  1  0
 19 20  2  0
 20 21  1  0
  5 22  1  0
 22 23  2  0
 23  2  1  0
 20  7  1  0
 17 11  1  0
  1 24  1  0
  3 25  1  0
  4 26  1  0
  8 27  1  0
 12 28  1  0
 13 29  1  0
 16 30  1  0
 17 31  1  0
 18 32  1  0
 19 33  1  0
 22 34  1  0
 23 35  1  0
M  END
>  <smiles>  (48) 
Oc1ccc(N=c2[nH]c(=Nc3ccc(F)cc3)[nH]cc2F)cc1

>  <score_type>  (48) 
oracle

>  <origin>  (48) 
adgpu

>  <m_score__min__energy>  (48) 
-8.3399999999999999

>  <m_primary>  (48) 
energy

$$$$
48:0
     RDKit          3D

 37 39  0  0  0  0  0  0  0  0999 V2000
   -9.3770   21.8490  -31.5500 C   0  0  0  0  0  0  0  0  0  0  0  0
   -8.4970   21.0640  -32.3500 O   0  0  0  0  0  0  0  0  0  0  0  0
   -7.0980   21.1770  -32.3470 C   0  0  0  0  0  0  0  0  0  0  0  0
   -6.4340   22.1800  -31.6140 C   0  0  0  0  0  0  0  0  0  0  0  0
   -5.0320   22.2720  -31.6270 C   0  0  0  0  0  0  0  0  0  0  0  0
   -4.3210   23.3250  -30.8570 C   0  0  0  0  0  0  0  0  0  0  0  0
   -3.5890   23.1620  -29.6940 C   0  0  0  0  0  0  0  0  0  0  0  0
   -3.1400   24.4350  -29.3900 C   0  0  0  0  0  0  0  0  0  0  0  0
   -2.3030   24.8370  -28.2330 C   0  0  0  0  0  0  0  0  0  0  0  0
   -0.9310   25.1220  -28.3840 C   0  0  0  0  0  0  0  0  0  0  0  0
   -0.1610   25.5010  -27.2810 C   0  0  0  0  0  0  0  0  0  0  0  0
   -0.7440   25.5990  -26.0160 C   0  0  0  0  0  0  0  0  0  0  0  0
   -2.1030   25.3190  -25.8520 C   0  0  0  0  0  0  0  0  0  0  0  0
   -2.8790   24.9390  -26.9520 C   0  0  0  0  0  0  0  0  0  0  0  0
   -3.5860   25.2970  -30.3250 N   0  0  0  0  0  0  0  0  0  0  0  0
   -4.2990   24.6250  -31.2130 N   0  0  0  0  0  0  0  0  0  0  0  0
   -4.2960   21.3470  -32.3850 C   0  0  0  0  0  0  0  0  0  0  0  0
   -4.9460   20.3400  -33.1220 C   0  0  0  0  0  0  0  0  0  0  0  0
   -4.2380   19.4000  -33.8890 O   0  0  0  0  0  0  0  0  0  0  0  0
   -4.3170   17.9890  -33.7130 C   0  0  0  0  0  0  0  0  0  0  0  0
   -6.3440   20.2600  -33.0990 C   0  0  0  0  0  0  0  0  0  0  0  0
   -6.9740   19.2550  -33.8360 O   0  0  0  0  0  0  0  0  0  0  0  0
   -9.1690   21.6634  -30.4859 H   0  0  0  0  0  0  0  0  0  0  0  0
   -9.2228   22.9150  -31.7733 H   0  0  0  0  0  0  0  0  0  0  0  0
  -10.4185   21.5745  -31.7733 H   0  0  0  0  0  0  0  0  0  0  0  0
   -7.0202   22.9000  -31.0242 H   0  0  0  0  0  0  0  0  0  0  0  0
   -3.4056   22.2312  -29.1373 H   0  0  0  0  0  0  0  0  0  0  0  0
   -0.4631   25.0456  -29.3766 H   0  0  0  0  0  0  0  0  0  0  0  0
    0.9086   25.7230  -27.4099 H   0  0  0  0  0  0  0  0  0  0  0  0
   -0.1343   25.8962  -25.1500 H   0  0  0  0  0  0  0  0  0  0  0  0
   -2.5635   25.3975  -24.8561 H   0  0  0  0  0  0  0  0  0  0  0  0
   -3.9479   24.7180  -26.8153 H   0  0  0  0  0  0  0  0  0  0  0  0
   -3.1980   21.4104  -32.4028 H   0  0  0  0  0  0  0  0  0  0  0  0
   -4.3302   17.7537  -32.6385 H   0  0  0  0  0  0  0  0  0  0  0  0
   -5.2377   17.6119  -34.1823 H   0  0  0  0  0  0  0  0  0  0  0  0
   -3.4442   17.5115  -34.1823 H   0  0  0  0  0  0  0  0  0  0  0  0
   -7.9630   19.2800  -34.0520 H   0  0  0  0  0  0  0  0  0  0  0  0
  1  2  1  0
  2  3  1  0
  3  4  2  0
  4  5  1  0
  5  6  1  0
  6  7  1  0
  7  8  2  0
  8  9  1  0
  9 10  2  0
 10 11  1  0
 11 12  2  0
 12 13  1  0
 13 14  2  0
  8 15  1  0
 15 16  1  0
  5 17  2  0
 17 18  1  0
 18 19  1  0
 19 20  1  0
 18 21  2  0
 21 22  1  0
 21  3  1  0
 16  6  2  0
 14  9  1  0
  1 23  1  0
  1 24  1  0
  1 25  1  0
  4 26  1  0
  7 27  1  0
 10 28  1  0
 11 29  1  0
 12 30  1  0
 13 31  1  0
 14 32  1  0
 17 33  1  0
 20 34  1  0
 20 35  1  0
 20 36  1  0
 22 37  1  0
M  CHG  1  15  -1
M  END
>  <UniqueID>  (49) 
46

>  <SMILES>  (49) 
COc1cc(-c2cc(-c3ccccc3)[n-]n2)cc(OC)c1O

>  <Energy>  (49) 
71.21730328659594

>  <Genealogy>  (49) 
COc1cc(-c2cc(-c3ccccc3)[n-]n2)cc(OC)c1O (protonated)
COc1cc(-c2cc(-c3ccccc3)[n-]n2)cc(OC)c1O (3D coordinates assigned)
COc1cc(-c2cc(-c3ccccc3)[n-]n2)cc(OC)c1O (optimized conformer: 71.21730328659594 kcal/mol)

>  <smiles>  (49) 
COc1cc(-c2cc(-c3ccccc3)[nH]n2)cc(OC)c1O

>  <score_type>  (49) 
oracle

>  <origin>  (49) 
adgpu

>  <m_score__min__energy>  (49) 
-8.8499999999999996

>  <m_primary>  (49) 
energy

$$$$
49:0
     RDKit          3D

 42 44  0  0  0  0  0  0  0  0999 V2000
   -1.9930   26.4080  -25.2180 C   0  0  0  0  0  0  0  0  0  0  0  0
   -1.4630   25.0610  -25.4660 N   0  0  0  0  0  0  0  0  0  0  0  0
   -0.8180   24.3390  -24.3620 C   0  0  0  0  0  0  0  0  0  0  0  0
   -1.5760   24.4540  -26.7810 C   0  0  0  0  0  0  0  0  0  0  0  0
   -2.6710   23.6240  -27.1040 C   0  0  0  0  0  0  0  0  0  0  0  0
   -2.7780   23.0420  -28.3690 C   0  0  0  0  0  0  0  0  0  0  0  0
   -1.7950   23.2710  -29.3420 C   0  0  0  0  0  0  0  0  0  0  0  0
   -1.9180   22.6680  -30.7140 C   0  0  0  0  0  0  0  0  0  0  0  0
   -3.2740   22.1660  -30.9260 N   0  0  0  0  0  0  0  0  0  0  0  0
   -4.3900   23.0400  -31.1600 C   0  0  0  0  0  0  0  0  0  0  0  0
   -4.2250   24.2910  -31.1240 O   0  0  0  0  0  0  0  0  0  0  0  0
   -5.7270   22.4800  -31.4430 C   0  0  0  0  0  0  0  0  0  0  0  0
   -6.8470   23.3170  -31.5830 C   0  0  0  0  0  0  0  0  0  0  0  0
   -8.0930   22.7490  -31.8520 C   0  0  0  0  0  0  0  0  0  0  0  0
   -9.1030   23.4960  -31.9790 O   0  0  0  0  0  0  0  0  0  0  0  0
   -8.2040   21.3560  -31.9770 C   0  0  0  0  0  0  0  0  0  0  0  0
   -9.4290   20.7190  -32.2480 C   0  0  0  0  0  0  0  0  0  0  0  0
   -9.4830   19.3270  -32.3620 C   0  0  0  0  0  0  0  0  0  0  0  0
   -8.3230   18.5620  -32.2100 C   0  0  0  0  0  0  0  0  0  0  0  0
   -7.1010   19.1850  -31.9410 C   0  0  0  0  0  0  0  0  0  0  0  0
   -7.0340   20.5780  -31.8240 C   0  0  0  0  0  0  0  0  0  0  0  0
   -5.8670   21.1620  -31.5680 O   0  0  0  0  0  0  0  0  0  0  0  0
   -0.7070   24.0970  -29.0340 C   0  0  0  0  0  0  0  0  0  0  0  0
   -0.5960   24.6800  -27.7690 C   0  0  0  0  0  0  0  0  0  0  0  0
   -2.0612   26.5813  -24.1339 H   0  0  0  0  0  0  0  0  0  0  0  0
   -1.3216   27.1546  -25.6672 H   0  0  0  0  0  0  0  0  0  0  0  0
   -2.9932   26.4969  -25.6672 H   0  0  0  0  0  0  0  0  0  0  0  0
   -1.1764   24.7402  -23.4025 H   0  0  0  0  0  0  0  0  0  0  0  0
   -1.0670   23.2696  -24.4282 H   0  0  0  0  0  0  0  0  0  0  0  0
    0.2726   24.4663  -24.4282 H   0  0  0  0  0  0  0  0  0  0  0  0
   -3.4493   23.4333  -26.3504 H   0  0  0  0  0  0  0  0  0  0  0  0
   -3.6395   22.3995  -28.6035 H   0  0  0  0  0  0  0  0  0  0  0  0
   -1.6925   23.4351  -31.4694 H   0  0  0  0  0  0  0  0  0  0  0  0
   -1.2083   21.8323  -30.8032 H   0  0  0  0  0  0  0  0  0  0  0  0
   -3.4240   21.1320  -30.9030 H   0  0  0  0  0  0  0  0  0  0  0  0
   -6.7428   24.4074  -31.4817 H   0  0  0  0  0  0  0  0  0  0  0  0
  -10.3444   21.3167  -32.3702 H   0  0  0  0  0  0  0  0  0  0  0  0
  -10.4423   18.8315  -32.5722 H   0  0  0  0  0  0  0  0  0  0  0  0
   -8.3720   17.4670  -32.3023 H   0  0  0  0  0  0  0  0  0  0  0  0
   -6.1906   18.5794  -31.8211 H   0  0  0  0  0  0  0  0  0  0  0  0
    0.0657   24.2882  -29.7932 H   0  0  0  0  0  0  0  0  0  0  0  0
    0.2667   25.3233  -27.5412 H   0  0  0  0  0  0  0  0  0  0  0  0
  1  2  1  0
  2  3  1  0
  2  4  1  0
  4  5  2  0
  5  6  1  0
  6  7  2  0
  7  8  1  0
  8  9  1  0
  9 10  1  0
 10 11  2  0
 10 12  1  0
 12 13  2  0
 13 14  1  0
 14 15  2  0
 14 16  1  0
 16 17  2  0
 17 18  1  0
 18 19  2  0
 19 20  1  0
 20 21  2  0
 21 22  1  0
  7 23  1  0
 23 24  2  0
 24  4  1  0
 22 12  1  0
 21 16  1  0
  1 25  1  0
  1 26  1  0
  1 27  1  0
  3 28  1  0
  3 29  1  0
  3 30  1  0
  5 31  1  0
  6 32  1  0
  8 33  1  0
  8 34  1  0
  9 35  1  0
 13 36  1  0
 17 37  1  0
 18 38  1  0
 19 39  1  0
 20 40  1  0
 23 41  1  0
 24 42  1  0
M  END
>  <UniqueID>  (50) 
47

>  <SMILES>  (50) 
CN(C)c1ccc(CNC(=O)c2cc(=O)c3ccccc3o2)cc1

>  <Energy>  (50) 
48.16703264010708

>  <Genealogy>  (50) 
CN(C)c1ccc(CNC(=O)c2cc(=O)c3ccccc3o2)cc1 (3D coordinates assigned)
CN(C)c1ccc(CNC(=O)c2cc(=O)c3ccccc3o2)cc1 (optimized conformer: 48.16703264010708 kcal/mol)

>  <smiles>  (50) 
CN(C)c1ccc(CNC(=O)c2cc(=O)c3ccccc3o2)cc1

>  <score_type>  (50) 
oracle

>  <origin>  (50) 
adgpu

>  <m_score__min__energy>  (50) 
-8.3900000000000006

>  <m_primary>  (50) 
energy

$$$$
