0:0
     RDKit          3D

 54 58  0  0  0  0  0  0  0  0999 V2000
   -5.4180   25.6130  -30.0920 C   0  0  0  0  0  0  0  0  0  0  0  0
   -4.2780   24.6370  -30.0370 C   0  0  0  0  0  0  0  0  0  0  0  0
   -3.1760   24.9310  -29.3390 N   0  0  0  0  0  0  0  0  0  0  0  0
   -2.1280   24.0400  -29.2760 C   0  0  0  0  0  0  0  0  0  0  0  0
   -0.9960   24.4650  -28.4510 C   0  0  0  0  0  0  0  0  0  0  0  0
    0.1150   23.6670  -28.2230 C   0  0  0  0  0  0  0  0  0  0  0  0
    1.1140   24.1160  -27.4250 C   0  0  0  0  0  0  0  0  0  0  0  0
    1.1100   25.3620  -26.7920 C   0  0  0  0  0  0  0  0  0  0  0  0
   -0.0090   26.1700  -27.0200 C   0  0  0  0  0  0  0  0  0  0  0  0
   -1.0050   25.6920  -27.8320 C   0  0  0  0  0  0  0  0  0  0  0  0
   -2.2020   22.8450  -29.9300 C   0  0  0  0  0  0  0  0  0  0  0  0
   -3.3380   22.4910  -30.6790 C   0  0  0  0  0  0  0  0  0  0  0  0
   -4.3400   23.4150  -30.7000 C   0  0  0  0  0  0  0  0  0  0  0  0
   -5.6450   23.1870  -31.3790 C   0  0  0  0  0  0  0  0  0  0  0  0
   -5.8550   23.4570  -32.5620 O   0  0  0  0  0  0  0  0  0  0  0  0
   -6.6390   22.6260  -30.5230 N   0  0  0  0  0  0  0  0  0  0  0  0
   -7.9800   22.3180  -30.8760 C   0  0  0  0  0  0  0  0  0  0  0  0
   -8.0990   20.9780  -31.4950 C   0  0  0  0  0  0  0  0  0  0  0  0
   -9.3730   20.5140  -31.8550 C   0  0  0  0  0  0  0  0  0  0  0  0
   -9.4860   19.2740  -32.4850 C   0  0  0  0  0  0  0  0  0  0  0  0
   -8.3080   18.5680  -32.7170 C   0  0  0  0  0  0  0  0  0  0  0  0
   -7.0730   19.0550  -32.3500 C   0  0  0  0  0  0  0  0  0  0  0  0
   -5.8190   18.2990  -32.6760 C   0  0  0  0  0  0  0  0  0  0  0  0
   -5.8940   16.9190  -32.4040 C   0  0  0  0  0  0  0  0  0  0  0  0
   -4.2490   16.2650  -32.7380 S   0  0  0  0  0  0  0  0  0  0  0  0
   -3.6000   17.8450  -33.2060 C   0  0  0  0  0  0  0  0  0  0  0  0
   -2.3540   18.1080  -33.6130 N   0  0  0  0  0  0  0  0  0  0  0  0
   -2.0270   19.3740  -33.9550 C   0  0  0  0  0  0  0  0  0  0  0  0
   -2.9740   20.2960  -33.8690 N   0  0  0  0  0  0  0  0  0  0  0  0
   -4.2630   20.0670  -33.4580 C   0  0  0  0  0  0  0  0  0  0  0  0
   -5.0130   21.0510  -33.4710 N   0  0  0  0  0  0  0  0  0  0  0  0
   -4.6200   18.7460  -33.0910 C   0  0  0  0  0  0  0  0  0  0  0  0
   -6.9640   20.2650  -31.7340 C   0  0  0  0  0  0  0  0  0  0  0  0
   -5.7252   25.8760  -29.0690 H   0  0  0  0  0  0  0  0  0  0  0  0
   -5.0978   26.5212  -30.6236 H   0  0  0  0  0  0  0  0  0  0  0  0
   -6.2660   25.1567  -30.6236 H   0  0  0  0  0  0  0  0  0  0  0  0
    0.1851   22.6728  -28.6884 H   0  0  0  0  0  0  0  0  0  0  0  0
    1.9818   23.4591  -27.2656 H   0  0  0  0  0  0  0  0  0  0  0  0
    1.9410   25.6893  -26.1499 H   0  0  0  0  0  0  0  0  0  0  0  0
   -0.0879   27.1655  -26.5587 H   0  0  0  0  0  0  0  0  0  0  0  0
   -1.8777   26.3399  -28.0009 H   0  0  0  0  0  0  0  0  0  0  0  0
   -1.3560   22.1445  -29.8701 H   0  0  0  0  0  0  0  0  0  0  0  0
   -3.4132   21.5321  -31.2126 H   0  0  0  0  0  0  0  0  0  0  0  0
   -6.3430   22.4110  -29.5220 H   0  0  0  0  0  0  0  0  0  0  0  0
   -8.6011   22.3460  -29.9686 H   0  0  0  0  0  0  0  0  0  0  0  0
   -8.3161   23.0626  -31.6126 H   0  0  0  0  0  0  0  0  0  0  0  0
  -10.2681   21.1176  -31.6442 H   0  0  0  0  0  0  0  0  0  0  0  0
  -10.4643   18.8710  -32.7858 H   0  0  0  0  0  0  0  0  0  0  0  0
   -8.3660   17.5868  -33.2108 H   0  0  0  0  0  0  0  0  0  0  0  0
   -6.7745   16.3571  -32.0591 H   0  0  0  0  0  0  0  0  0  0  0  0
   -1.0116   19.6293  -34.2924 H   0  0  0  0  0  0  0  0  0  0  0  0
   -2.7000   21.2760  -34.1430 H   0  0  0  0  0  0  0  0  0  0  0  0
   -5.8870   21.4530  -33.3190 H   0  0  0  0  0  0  0  0  0  0  0  0
   -5.9805   20.6575  -31.4362 H   0  0  0  0  0  0  0  0  0  0  0  0
  1  2  1  0
  2  3  2  0
  3  4  1  0
  4  5  1  0
  5  6  2  0
  6  7  1  0
  7  8  2  0
  8  9  1  0
  9 10  2  0
  4 11  2  0
 11 12  1  0
 12 13  2  0
 13 14  1  0
 14 15  2  0
 14 16  1  0
 16 17  1  0
 17 18  1  0
 18 19  2  0
 19 20  1  0
 20 21  2  0
 21 22  1  0
 22 23  1  0
 23 24  2  0
 24 25  1  0
 25 26  1  0
 26 27  1  0
 27 28  2  0
 28 29  1  0
 29 30  1  0
 30 31  2  3
 30 32  1  0
 22 33  2  0
 13  2  1  0
 33 18  1  0
 10  5  1  0
 32 23  1  0
 32 26  2  0
  1 34  1  0
  1 35  1  0
  1 36  1  0
  6 37  1  0
  7 38  1  0
  8 39  1  0
  9 40  1  0
 10 41  1  0
 11 42  1  0
 12 43  1  0
 16 44  1  0
 17 45  1  0
 17 46  1  0
 19 47  1  0
 20 48  1  0
 21 49  1  0
 24 50  1  0
 28 51  1  0
 29 52  1  0
 31 53  1  0
 33 54  1  0
M  END
>  <smiles>  (1) 
Cc1nc(-c2ccccc2)ccc1C(=O)NCc1cccc(-c2csc3nc[nH]c(=N)c23)c1

>  <score_type>  (1) 
oracle

>  <origin>  (1) 
adgpu

>  <m_score__min__energy>  (1) 
-10.380000000000001

>  <m_primary>  (1) 
energy

$$$$
1:0
     RDKit          3D

 29 31  0  0  0  0  0  0  0  0999 V2000
   -2.7250   22.2910  -31.7730 C   0  0  0  0  0  0  0  0  0  0  0  0
   -4.1810   22.3920  -31.8090 N   0  0  0  0  0  0  0  0  0  0  0  0
   -5.0240   21.5340  -32.4360 C   0  0  0  0  0  0  0  0  0  0  0  0
   -6.3480   21.9250  -32.2600 C   0  0  0  0  0  0  0  0  0  0  0  0
   -6.2750   23.0650  -31.4950 C   0  0  0  0  0  0  0  0  0  0  0  0
   -7.2850   23.8460  -31.0380 N   0  0  0  0  0  0  0  0  0  0  0  0
   -6.9830   24.9470  -30.2890 C   0  0  0  0  0  0  0  0  0  0  0  0
   -5.6400   25.2670  -29.9910 C   0  0  0  0  0  0  0  0  0  0  0  0
   -4.5950   24.4380  -30.4590 C   0  0  0  0  0  0  0  0  0  0  0  0
   -3.2440   24.7210  -30.2120 O   0  0  0  0  0  0  0  0  0  0  0  0
   -2.5510   24.4170  -29.0310 C   0  0  0  0  0  0  0  0  0  0  0  0
   -2.8200   23.2480  -28.2930 C   0  0  0  0  0  0  0  0  0  0  0  0
   -2.0980   22.9680  -27.1300 C   0  0  0  0  0  0  0  0  0  0  0  0
   -1.0940   23.8410  -26.7000 C   0  0  0  0  0  0  0  0  0  0  0  0
   -0.1060   23.4540  -25.1120 Br  0  0  0  0  0  0  0  0  0  0  0  0
   -0.8070   24.9920  -27.4400 C   0  0  0  0  0  0  0  0  0  0  0  0
   -1.5280   25.2770  -28.6040 C   0  0  0  0  0  0  0  0  0  0  0  0
   -1.2320   26.4220  -29.3350 O   0  0  0  0  0  0  0  0  0  0  0  0
   -4.9600   23.3310  -31.2340 C   0  0  0  0  0  0  0  0  0  0  0  0
   -2.3848   22.2674  -30.7272 H   0  0  0  0  0  0  0  0  0  0  0  0
   -2.4087   21.3688  -32.2823 H   0  0  0  0  0  0  0  0  0  0  0  0
   -2.2844   23.1607  -32.2823 H   0  0  0  0  0  0  0  0  0  0  0  0
   -4.7045   20.6492  -33.0062 H   0  0  0  0  0  0  0  0  0  0  0  0
   -7.2518   21.4317  -32.6469 H   0  0  0  0  0  0  0  0  0  0  0  0
   -7.7928   25.5904  -29.9144 H   0  0  0  0  0  0  0  0  0  0  0  0
   -5.4072   26.1615  -29.3946 H   0  0  0  0  0  0  0  0  0  0  0  0
   -3.6015   22.5528  -28.6335 H   0  0  0  0  0  0  0  0  0  0  0  0
   -2.3199   22.0590  -26.5516 H   0  0  0  0  0  0  0  0  0  0  0  0
   -0.0122   25.6751  -27.1059 H   0  0  0  0  0  0  0  0  0  0  0  0
  1  2  1  0
  2  3  1  0
  3  4  2  0
  4  5  1  0
  5  6  2  0
  6  7  1  0
  7  8  2  0
  8  9  1  0
  9 10  1  0
 10 11  1  0
 11 12  2  0
 12 13  1  0
 13 14  2  0
 14 15  1  0
 14 16  1  0
 16 17  2  0
 17 18  1  0
  9 19  2  0
 19  2  1  0
 19  5  1  0
 17 11  1  0
  1 20  1  0
  1 21  1  0
  1 22  1  0
  3 23  1  0
  4 24  1  0
  7 25  1  0
  8 26  1  0
 12 27  1  0
 13 28  1  0
 16 29  1  0
M  CHG  1  18  -1
M  END
>  <UniqueID>  (2) 
1

>  <SMILES>  (2) 
Cn1ccc2nccc(Oc3ccc(Br)cc3[O-])c21

>  <Energy>  (2) 
73.48174108743991

>  <Genealogy>  (2) 
Cn1ccc2nccc(Oc3ccc(Br)cc3[O-])c21 (protonated)
Cn1ccc2nccc(Oc3ccc(Br)cc3[O-])c21 (3D coordinates assigned)
Cn1ccc2nccc(Oc3ccc(Br)cc3[O-])c21 (optimized conformer: 73.48174108743991 kcal/mol)

>  <smiles>  (2) 
Cn1ccc2nccc(Oc3ccc(Br)cc3O)c21

>  <score_type>  (2) 
oracle

>  <origin>  (2) 
adgpu

>  <m_score__min__energy>  (2) 
-10.359999999999999

>  <m_primary>  (2) 
energy

$$$$
2:0
     RDKit          3D

 47 49  0  0  0  0  0  0  0  0999 V2000
   -6.8130   22.8070  -31.9230 C   0  0  0  0  0  0  0  0  0  0  0  0
   -5.7120   21.8750  -32.3570 C   0  0  0  0  0  0  0  0  0  0  0  0
   -4.3890   22.3460  -32.3990 C   0  0  0  0  0  0  0  0  0  0  0  0
   -3.3490   21.5080  -32.8020 C   0  0  0  0  0  0  0  0  0  0  0  0
   -3.6050   20.1790  -33.1620 C   0  0  0  0  0  0  0  0  0  0  0  0
   -2.5160   19.3400  -33.5880 N   0  0  0  0  0  0  0  0  0  0  0  0
   -1.1620   19.8000  -33.7350 C   0  0  0  0  0  0  0  0  0  0  0  0
   -0.8310   20.6270  -34.8230 C   0  0  0  0  0  0  0  0  0  0  0  0
    0.4890   21.0220  -35.0400 C   0  0  0  0  0  0  0  0  0  0  0  0
    1.4980   20.5840  -34.1850 C   0  0  0  0  0  0  0  0  0  0  0  0
    1.1900   19.7560  -33.1030 C   0  0  0  0  0  0  0  0  0  0  0  0
   -0.1380   19.3560  -32.8580 C   0  0  0  0  0  0  0  0  0  0  0  0
   -0.4260   18.5200  -31.6660 C   0  0  0  0  0  0  0  0  0  0  0  0
   -0.5400   17.2690  -31.7780 O   0  0  0  0  0  0  0  0  0  0  0  0
   -0.5510   19.1400  -30.3770 N   0  0  0  0  0  0  0  0  0  0  0  0
   -1.1530   20.4110  -30.0940 C   0  0  0  0  0  0  0  0  0  0  0  0
   -0.6040   21.5590  -30.6790 C   0  0  0  0  0  0  0  0  0  0  0  0
   -1.1720   22.8140  -30.4440 C   0  0  0  0  0  0  0  0  0  0  0  0
   -2.3060   22.9350  -29.6300 C   0  0  0  0  0  0  0  0  0  0  0  0
   -3.0310   24.5140  -29.3510 S   0  0  0  0  0  0  0  0  0  0  0  0
   -1.7960   25.6560  -28.9600 N   0  0  0  0  0  0  0  0  0  0  0  0
   -4.0160   24.4300  -28.2190 O   0  0  0  0  0  0  0  0  0  0  0  0
   -3.7560   24.9680  -30.5880 O   0  0  0  0  0  0  0  0  0  0  0  0
   -2.8780   21.7850  -29.0700 C   0  0  0  0  0  0  0  0  0  0  0  0
   -2.3100   20.5290  -29.3020 C   0  0  0  0  0  0  0  0  0  0  0  0
   -4.9290   19.7090  -33.1470 C   0  0  0  0  0  0  0  0  0  0  0  0
   -5.9870   20.5430  -32.7480 C   0  0  0  0  0  0  0  0  0  0  0  0
   -7.3920   20.0010  -32.7350 C   0  0  0  0  0  0  0  0  0  0  0  0
   -6.8529   22.8408  -30.8242 H   0  0  0  0  0  0  0  0  0  0  0  0
   -6.6147   23.8159  -32.3139 H   0  0  0  0  0  0  0  0  0  0  0  0
   -7.7753   22.4449  -32.3139 H   0  0  0  0  0  0  0  0  0  0  0  0
   -4.1712   23.3852  -32.1115 H   0  0  0  0  0  0  0  0  0  0  0  0
   -2.3196   21.8942  -32.8373 H   0  0  0  0  0  0  0  0  0  0  0  0
   -2.7270   18.3530  -33.8620 H   0  0  0  0  0  0  0  0  0  0  0  0
   -1.6208   20.9657  -35.5097 H   0  0  0  0  0  0  0  0  0  0  0  0
    0.7335   21.6799  -35.8870 H   0  0  0  0  0  0  0  0  0  0  0  0
    2.5393   20.8908  -34.3624 H   0  0  0  0  0  0  0  0  0  0  0  0
    1.9935   19.4126  -32.4349 H   0  0  0  0  0  0  0  0  0  0  0  0
    0.2801   21.4722  -31.3277 H   0  0  0  0  0  0  0  0  0  0  0  0
   -0.7269   23.7107  -30.9000 H   0  0  0  0  0  0  0  0  0  0  0  0
   -1.2330   25.8060  -29.8280 H   0  0  0  0  0  0  0  0  0  0  0  0
   -3.7788   21.8710  -28.4445 H   0  0  0  0  0  0  0  0  0  0  0  0
   -2.7689   19.6303  -28.8641 H   0  0  0  0  0  0  0  0  0  0  0  0
   -5.1402   18.6734  -33.4519 H   0  0  0  0  0  0  0  0  0  0  0  0
   -7.7257   19.8723  -31.6948 H   0  0  0  0  0  0  0  0  0  0  0  0
   -8.0615   20.7054  -33.2504 H   0  0  0  0  0  0  0  0  0  0  0  0
   -7.4150   19.0295  -33.2504 H   0  0  0  0  0  0  0  0  0  0  0  0
  1  2  1  0
  2  3  2  0
  3  4  1  0
  4  5  2  0
  5  6  1  0
  6  7  1  0
  7  8  2  0
  8  9  1  0
  9 10  2  0
 10 11  1  0
 11 12  2  0
 12 13  1  0
 13 14  2  0
 13 15  1  0
 15 16  1  0
 16 17  2  0
 17 18  1  0
 18 19  2  0
 19 20  1  0
 20 21  1  0
 20 22  2  0
 20 23  2  0
 19 24  1  0
 24 25  2  0
  5 26  1  0
 26 27  2  0
 27 28  1  0
 27  2  1  0
 12  7  1  0
 25 16  1  0
  1 29  1  0
  1 30  1  0
  1 31  1  0
  3 32  1  0
  4 33  1  0
  6 34  1  0
  8 35  1  0
  9 36  1  0
 10 37  1  0
 11 38  1  0
 17 39  1  0
 18 40  1  0
 21 41  1  0
 24 42  1  0
 25 43  1  0
 26 44  1  0
 28 45  1  0
 28 46  1  0
 28 47  1  0
M  CHG  2  15  -1  21  -1
M  END
>  <UniqueID>  (3) 
2

>  <SMILES>  (3) 
Cc1ccc(Nc2ccccc2C(=O)[N-]c2ccc(S([NH-])(=O)=O)cc2)cc1C

>  <Energy>  (3) 
62.368630750734205

>  <Genealogy>  (3) 
Cc1ccc(Nc2ccccc2C(=O)[N-]c2ccc(S([NH-])(=O)=O)cc2)cc1C (protonated)
Cc1ccc(Nc2ccccc2C(=O)[N-]c2ccc(S([NH-])(=O)=O)cc2)cc1C (3D coordinates assigned)
Cc1ccc(Nc2ccccc2C(=O)[N-]c2ccc(S([NH-])(=O)=O)cc2)cc1C (optimized conformer: 62.368630750734205 kcal/mol)

>  <smiles>  (3) 
Cc1ccc(Nc2ccccc2C(=O)Nc2ccc(S(N)(=O)=O)cc2)cc1C

>  <score_type>  (3) 
oracle

>  <origin>  (3) 
adgpu

>  <m_score__min__energy>  (3) 
-12.08

>  <m_primary>  (3) 
energy

$$$$
3:0
     RDKit          3D

 61 64  0  0  0  0  0  0  0  0999 V2000
    0.8470   15.3470  -31.4560 C   0  0  0  0  0  0  0  0  0  0  0  0
    0.3300   16.6690  -31.5480 O   0  0  0  0  0  0  0  0  0  0  0  0
    0.2950   17.5840  -30.4850 C   0  0  0  0  0  0  0  0  0  0  0  0
   -0.0530   18.9120  -30.7580 C   0  0  0  0  0  0  0  0  0  0  0  0
   -0.0850   19.8630  -29.7350 C   0  0  0  0  0  0  0  0  0  0  0  0
    0.2410   19.5040  -28.4200 C   0  0  0  0  0  0  0  0  0  0  0  0
    0.2300   20.5300  -27.4150 N   0  0  0  0  0  0  0  0  0  0  0  0
   -1.1600   21.3120  -26.7250 S   0  0  0  0  0  0  0  0  0  0  0  0
   -2.1920   20.2520  -26.4610 O   0  0  0  0  0  0  0  0  0  0  0  0
   -0.8200   21.9700  -25.4160 O   0  0  0  0  0  0  0  0  0  0  0  0
   -1.8210   22.4930  -27.8600 C   0  0  0  0  0  0  0  0  0  0  0  0
   -1.7490   23.8650  -27.5780 C   0  0  0  0  0  0  0  0  0  0  0  0
   -2.2960   24.7940  -28.4650 C   0  0  0  0  0  0  0  0  0  0  0  0
   -2.9350   24.3630  -29.6330 C   0  0  0  0  0  0  0  0  0  0  0  0
   -3.4840   25.3020  -30.4980 O   0  0  0  0  0  0  0  0  0  0  0  0
   -3.0270   22.9920  -29.9220 C   0  0  0  0  0  0  0  0  0  0  0  0
   -3.6760   22.5580  -31.1320 N   0  0  0  0  0  0  0  0  0  0  0  0
   -2.9950   21.9250  -32.2330 C   0  0  0  0  0  0  0  0  0  0  0  0
   -1.7350   21.8650  -32.2630 O   0  0  0  0  0  0  0  0  0  0  0  0
   -3.7350   21.3750  -33.3290 N   0  0  0  0  0  0  0  0  0  0  0  0
   -4.0930   19.9930  -33.4850 C   0  0  0  0  0  0  0  0  0  0  0  0
   -5.4170   19.5990  -33.7420 C   0  0  0  0  0  0  0  0  0  0  0  0
   -5.7440   18.2440  -33.8360 C   0  0  0  0  0  0  0  0  0  0  0  0
   -4.7600   17.2640  -33.6500 C   0  0  0  0  0  0  0  0  0  0  0  0
   -5.1880   15.5520  -33.7230 S   0  0  0  0  0  0  0  0  0  0  0  0
   -5.2860   15.0070  -32.3270 O   0  0  0  0  0  0  0  0  0  0  0  0
   -6.5340   15.4040  -34.3760 O   0  0  0  0  0  0  0  0  0  0  0  0
   -4.0040   14.6310  -34.6200 N   0  0  0  0  0  0  0  0  0  0  0  0
   -3.4440   15.4400  -35.7210 C   0  0  0  0  0  0  0  0  0  0  0  0
   -2.0690   14.9010  -36.1470 C   0  0  0  0  0  0  0  0  0  0  0  0
   -1.0950   14.9360  -35.1110 O   0  0  0  0  0  0  0  0  0  0  0  0
   -1.6490   14.8590  -33.8020 C   0  0  0  0  0  0  0  0  0  0  0  0
   -2.9660   14.0600  -33.7340 C   0  0  0  0  0  0  0  0  0  0  0  0
   -3.4400   17.6550  -33.3870 C   0  0  0  0  0  0  0  0  0  0  0  0
   -3.1110   19.0120  -33.2940 C   0  0  0  0  0  0  0  0  0  0  0  0
   -2.4420   22.0650  -29.0420 C   0  0  0  0  0  0  0  0  0  0  0  0
    0.5710   18.1660  -28.1370 C   0  0  0  0  0  0  0  0  0  0  0  0
    0.5980   17.2140  -29.1610 C   0  0  0  0  0  0  0  0  0  0  0  0
    0.9558   15.0687  -30.3974 H   0  0  0  0  0  0  0  0  0  0  0  0
    0.1560   14.6479  -31.9497 H   0  0  0  0  0  0  0  0  0  0  0  0
    1.8289   15.3021  -31.9497 H   0  0  0  0  0  0  0  0  0  0  0  0
   -0.3035   19.2095  -31.7870 H   0  0  0  0  0  0  0  0  0  0  0  0
   -0.3681   20.9011  -29.9633 H   0  0  0  0  0  0  0  0  0  0  0  0
   -1.2600   24.2101  -26.6551 H   0  0  0  0  0  0  0  0  0  0  0  0
   -2.2244   25.8694  -28.2448 H   0  0  0  0  0  0  0  0  0  0  0  0
   -4.7180   22.6210  -31.1690 H   0  0  0  0  0  0  0  0  0  0  0  0
   -6.1998   20.3611  -33.8698 H   0  0  0  0  0  0  0  0  0  0  0  0
   -6.7792   17.9450  -34.0571 H   0  0  0  0  0  0  0  0  0  0  0  0
   -4.1288   15.4024  -36.5811 H   0  0  0  0  0  0  0  0  0  0  0  0
   -3.3249   16.4766  -35.3727 H   0  0  0  0  0  0  0  0  0  0  0  0
   -2.1910   13.8578  -36.4738 H   0  0  0  0  0  0  0  0  0  0  0  0
   -1.7038   15.5536  -36.9537 H   0  0  0  0  0  0  0  0  0  0  0  0
   -0.9144   14.3751  -33.1416 H   0  0  0  0  0  0  0  0  0  0  0  0
   -1.8799   15.8879  -33.4889 H   0  0  0  0  0  0  0  0  0  0  0  0
   -2.7685   13.0222  -34.0404 H   0  0  0  0  0  0  0  0  0  0  0  0
   -3.3385   14.1041  -32.6999 H   0  0  0  0  0  0  0  0  0  0  0  0
   -2.6592   16.8918  -33.2531 H   0  0  0  0  0  0  0  0  0  0  0  0
   -2.0762   19.3100  -33.0698 H   0  0  0  0  0  0  0  0  0  0  0  0
   -2.4717   20.9922  -29.2833 H   0  0  0  0  0  0  0  0  0  0  0  0
    0.8089   17.8673  -27.1054 H   0  0  0  0  0  0  0  0  0  0  0  0
    0.8575   16.1702  -28.9306 H   0  0  0  0  0  0  0  0  0  0  0  0
  1  2  1  0
  2  3  1  0
  3  4  2  0
  4  5  1  0
  5  6  2  0
  6  7  1  0
  7  8  1  0
  8  9  2  0
  8 10  2  0
  8 11  1  0
 11 12  2  0
 12 13  1  0
 13 14  2  0
 14 15  1  0
 14 16  1  0
 16 17  1  0
 17 18  1  0
 18 19  2  0
 18 20  1  0
 20 21  1  0
 21 22  2  0
 22 23  1  0
 23 24  2  0
 24 25  1  0
 25 26  2  0
 25 27  2  0
 25 28  1  0
 28 29  1  0
 29 30  1  0
 30 31  1  0
 31 32  1  0
 32 33  1  0
 24 34  1  0
 34 35  2  0
 16 36  2  0
  6 37  1  0
 37 38  2  0
 38  3  1  0
 36 11  1  0
 35 21  1  0
 33 28  1  0
  1 39  1  0
  1 40  1  0
  1 41  1  0
  4 42  1  0
  5 43  1  0
 12 44  1  0
 13 45  1  0
 17 46  1  0
 22 47  1  0
 23 48  1  0
 29 49  1  0
 29 50  1  0
 30 51  1  0
 30 52  1  0
 32 53  1  0
 32 54  1  0
 33 55  1  0
 33 56  1  0
 34 57  1  0
 35 58  1  0
 36 59  1  0
 37 60  1  0
 38 61  1  0
M  CHG  3   7  -1  15  -1  20  -1
M  END
>  <UniqueID>  (4) 
3

>  <SMILES>  (4) 
COc1ccc([N-]S(=O)(=O)c2ccc([O-])c(NC(=O)[N-]c3ccc(S(=O)(=O)N4CCOCC4)cc3)c2)cc1

>  <Energy>  (4) 
89.74377349567091

>  <Genealogy>  (4) 
COc1ccc([N-]S(=O)(=O)c2ccc([O-])c(NC(=O)[N-]c3ccc(S(=O)(=O)N4CCOCC4)cc3)c2)cc1 (protonated)
COc1ccc([N-]S(=O)(=O)c2ccc([O-])c(NC(=O)[N-]c3ccc(S(=O)(=O)N4CCOCC4)cc3)c2)cc1 (3D coordinates assigned)
COc1ccc([N-]S(=O)(=O)c2ccc([O-])c(NC(=O)[N-]c3ccc(S(=O)(=O)N4CCOCC4)cc3)c2)cc1 (nonaromatic ring conformer: 89.74377349567091 kcal/mol)

>  <smiles>  (4) 
COc1ccc(NS(=O)(=O)c2ccc(O)c(NC(=O)Nc3ccc(S(=O)(=O)N4CCOCC4)cc3)c2)cc1

>  <score_type>  (4) 
oracle

>  <origin>  (4) 
adgpu

>  <m_score__min__energy>  (4) 
-12.609999999999999

>  <m_primary>  (4) 
energy

$$$$
4:0
     RDKit          3D

 58 61  0  0  0  0  0  0  0  0999 V2000
   -1.2030   26.5550  -26.0390 C   0  0  0  0  0  0  0  0  0  0  0  0
   -1.5950   25.2180  -26.4980 N   0  0  0  0  0  0  0  0  0  0  0  0
   -3.0420   25.0360  -26.3540 C   0  0  0  0  0  0  0  0  0  0  0  0
   -1.1310   25.0060  -28.1660 S   0  0  0  0  0  0  0  0  0  0  0  0
    0.3020   24.5580  -28.2320 O   0  0  0  0  0  0  0  0  0  0  0  0
   -1.2380   26.3250  -28.8830 O   0  0  0  0  0  0  0  0  0  0  0  0
   -2.1460   23.8140  -28.9830 C   0  0  0  0  0  0  0  0  0  0  0  0
   -1.9560   22.4460  -28.7510 C   0  0  0  0  0  0  0  0  0  0  0  0
   -2.7730   21.5080  -29.3860 C   0  0  0  0  0  0  0  0  0  0  0  0
   -3.7750   21.9270  -30.2660 C   0  0  0  0  0  0  0  0  0  0  0  0
   -3.9570   23.2970  -30.5290 C   0  0  0  0  0  0  0  0  0  0  0  0
   -4.9820   23.7750  -31.4120 N   0  0  0  0  0  0  0  0  0  0  0  0
   -6.3960   23.7030  -31.1900 C   0  0  0  0  0  0  0  0  0  0  0  0
   -6.9970   24.6560  -30.6210 O   0  0  0  0  0  0  0  0  0  0  0  0
   -7.1490   22.4890  -31.5800 C   0  0  0  0  0  0  0  0  0  0  0  0
   -8.4980   22.3320  -31.2140 C   0  0  0  0  0  0  0  0  0  0  0  0
   -9.1960   21.1770  -31.5700 C   0  0  0  0  0  0  0  0  0  0  0  0
   -8.5600   20.1630  -32.2910 C   0  0  0  0  0  0  0  0  0  0  0  0
   -7.2170   20.3050  -32.6630 C   0  0  0  0  0  0  0  0  0  0  0  0
   -6.3770   19.0080  -33.5080 S   0  0  0  0  0  0  0  0  0  0  0  0
   -7.0370   17.6880  -33.2230 O   0  0  0  0  0  0  0  0  0  0  0  0
   -6.4480   19.2710  -34.9860 O   0  0  0  0  0  0  0  0  0  0  0  0
   -4.7140   18.9800  -32.9780 N   0  0  0  0  0  0  0  0  0  0  0  0
   -4.0260   17.8180  -33.5630 C   0  0  0  0  0  0  0  0  0  0  0  0
   -2.6490   17.6590  -32.9160 C   0  0  0  0  0  0  0  0  0  0  0  0
   -1.8990   18.9660  -32.8630 C   0  0  0  0  0  0  0  0  0  0  0  0
   -0.5290   18.9610  -32.5600 C   0  0  0  0  0  0  0  0  0  0  0  0
    0.1700   20.1630  -32.4410 C   0  0  0  0  0  0  0  0  0  0  0  0
   -0.4910   21.3810  -32.6180 C   0  0  0  0  0  0  0  0  0  0  0  0
   -1.8540   21.3990  -32.9180 C   0  0  0  0  0  0  0  0  0  0  0  0
   -2.5760   20.1960  -33.0190 C   0  0  0  0  0  0  0  0  0  0  0  0
   -4.0410   20.2250  -33.3870 C   0  0  0  0  0  0  0  0  0  0  0  0
   -6.5180   21.4660  -32.3120 C   0  0  0  0  0  0  0  0  0  0  0  0
   -3.1540   24.2340  -29.8640 C   0  0  0  0  0  0  0  0  0  0  0  0
   -1.1963   26.5778  -24.9393 H   0  0  0  0  0  0  0  0  0  0  0  0
   -0.1975   26.7922  -26.4168 H   0  0  0  0  0  0  0  0  0  0  0  0
   -1.9212   27.2976  -26.4168 H   0  0  0  0  0  0  0  0  0  0  0  0
   -3.3029   25.0032  -25.2859 H   0  0  0  0  0  0  0  0  0  0  0  0
   -3.5667   25.8752  -26.8340 H   0  0  0  0  0  0  0  0  0  0  0  0
   -3.3425   24.0930  -26.8340 H   0  0  0  0  0  0  0  0  0  0  0  0
   -1.1622   22.1098  -28.0677 H   0  0  0  0  0  0  0  0  0  0  0  0
   -2.6274   20.4349  -29.1928 H   0  0  0  0  0  0  0  0  0  0  0  0
   -4.4227   21.1838  -30.7540 H   0  0  0  0  0  0  0  0  0  0  0  0
   -9.0057   23.1240  -30.6440 H   0  0  0  0  0  0  0  0  0  0  0  0
  -10.2516   21.0644  -31.2817 H   0  0  0  0  0  0  0  0  0  0  0  0
   -9.1139   19.2534  -32.5664 H   0  0  0  0  0  0  0  0  0  0  0  0
   -4.6219   16.9110  -33.3836 H   0  0  0  0  0  0  0  0  0  0  0  0
   -3.9059   17.9709  -34.6457 H   0  0  0  0  0  0  0  0  0  0  0  0
   -2.7790   17.2817  -31.8910 H   0  0  0  0  0  0  0  0  0  0  0  0
   -2.0645   16.9548  -33.5263 H   0  0  0  0  0  0  0  0  0  0  0  0
   -0.0036   18.0054  -32.4156 H   0  0  0  0  0  0  0  0  0  0  0  0
    1.2448   20.1514  -32.2071 H   0  0  0  0  0  0  0  0  0  0  0  0
    0.0630   22.3263  -32.5209 H   0  0  0  0  0  0  0  0  0  0  0  0
   -2.3665   22.3594  -33.0763 H   0  0  0  0  0  0  0  0  0  0  0  0
   -4.5217   21.0760  -32.8823 H   0  0  0  0  0  0  0  0  0  0  0  0
   -4.1256   20.3260  -34.4791 H   0  0  0  0  0  0  0  0  0  0  0  0
   -5.4656   21.5797  -32.6112 H   0  0  0  0  0  0  0  0  0  0  0  0
   -3.3157   25.3086  -30.0345 H   0  0  0  0  0  0  0  0  0  0  0  0
  1  2  1  0
  2  3  1  0
  2  4  1  0
  4  5  2  0
  4  6  2  0
  4  7  1  0
  7  8  2  0
  8  9  1  0
  9 10  2  0
 10 11  1  0
 11 12  1  0
 12 13  1  0
 13 14  2  0
 13 15  1  0
 15 16  2  0
 16 17  1  0
 17 18  2  0
 18 19  1  0
 19 20  1  0
 20 21  2  0
 20 22  2  0
 20 23  1  0
 23 24  1  0
 24 25  1  0
 25 26  1  0
 26 27  2  0
 27 28  1  0
 28 29  2  0
 29 30  1  0
 30 31  2  0
 31 32  1  0
 19 33  2  0
 11 34  2  0
 34  7  1  0
 33 15  1  0
 32 23  1  0
 31 26  1  0
  1 35  1  0
  1 36  1  0
  1 37  1  0
  3 38  1  0
  3 39  1  0
  3 40  1  0
  8 41  1  0
  9 42  1  0
 10 43  1  0
 16 44  1  0
 17 45  1  0
 18 46  1  0
 24 47  1  0
 24 48  1  0
 25 49  1  0
 25 50  1  0
 27 51  1  0
 28 52  1  0
 29 53  1  0
 30 54  1  0
 32 55  1  0
 32 56  1  0
 33 57  1  0
 34 58  1  0
M  CHG  1  12  -1
M  END
>  <UniqueID>  (5) 
4

>  <SMILES>  (5) 
CN(C)S(=O)(=O)c1cccc([N-]C(=O)c2cccc(S(=O)(=O)N3CCc4ccccc4C3)c2)c1

>  <Energy>  (5) 
64.81873342630979

>  <Genealogy>  (5) 
CN(C)S(=O)(=O)c1cccc([N-]C(=O)c2cccc(S(=O)(=O)N3CCc4ccccc4C3)c2)c1 (protonated)
CN(C)S(=O)(=O)c1cccc([N-]C(=O)c2cccc(S(=O)(=O)N3CCc4ccccc4C3)c2)c1 (3D coordinates assigned)
CN(C)S(=O)(=O)c1cccc([N-]C(=O)c2cccc(S(=O)(=O)N3CCc4ccccc4C3)c2)c1 (nonaromatic ring conformer: 64.81873342630979 kcal/mol)

>  <smiles>  (5) 
CN(C)S(=O)(=O)c1cccc(NC(=O)c2cccc(S(=O)(=O)N3CCc4ccccc4C3)c2)c1

>  <score_type>  (5) 
oracle

>  <origin>  (5) 
adgpu

>  <m_score__min__energy>  (5) 
-12.550000000000001

>  <m_primary>  (5) 
energy

$$$$
5:0
     RDKit          3D

 44 46  0  0  0  0  0  0  0  0999 V2000
   -6.5090   23.4730  -32.3060 C   0  0  0  0  0  0  0  0  0  0  0  0
   -6.0650   22.0770  -32.3060 N   0  0  0  0  0  0  0  0  0  0  0  0
   -7.0270   21.0050  -32.1940 C   0  0  0  0  0  0  0  0  0  0  0  0
   -8.1830   21.1540  -31.4010 C   0  0  0  0  0  0  0  0  0  0  0  0
   -9.1090   20.1120  -31.2900 C   0  0  0  0  0  0  0  0  0  0  0  0
   -8.8930   18.9090  -31.9620 C   0  0  0  0  0  0  0  0  0  0  0  0
   -7.7510   18.7440  -32.7480 C   0  0  0  0  0  0  0  0  0  0  0  0
   -6.8230   19.7810  -32.8630 C   0  0  0  0  0  0  0  0  0  0  0  0
   -4.3620   21.7360  -32.4450 S   0  0  0  0  0  0  0  0  0  0  0  0
   -3.8680   22.1200  -33.8110 O   0  0  0  0  0  0  0  0  0  0  0  0
   -4.1460   20.2600  -32.2600 O   0  0  0  0  0  0  0  0  0  0  0  0
   -3.4660   22.6400  -31.2280 C   0  0  0  0  0  0  0  0  0  0  0  0
   -2.2070   22.2010  -30.8000 C   0  0  0  0  0  0  0  0  0  0  0  0
   -1.5070   22.9130  -29.8200 C   0  0  0  0  0  0  0  0  0  0  0  0
   -2.0520   24.0840  -29.2610 C   0  0  0  0  0  0  0  0  0  0  0  0
   -1.3340   24.8530  -28.2150 C   0  0  0  0  0  0  0  0  0  0  0  0
   -0.0740   24.8980  -28.2490 O   0  0  0  0  0  0  0  0  0  0  0  0
   -2.0440   25.5480  -27.1720 N   0  0  0  0  0  0  0  0  0  0  0  0
   -1.3990   26.2430  -26.0920 C   0  0  0  0  0  0  0  0  0  0  0  0
   -0.8650   27.5320  -26.2660 C   0  0  0  0  0  0  0  0  0  0  0  0
   -0.2240   28.1780  -25.2040 C   0  0  0  0  0  0  0  0  0  0  0  0
   -0.0990   27.5400  -23.9670 C   0  0  0  0  0  0  0  0  0  0  0  0
   -0.6050   26.2490  -23.7930 C   0  0  0  0  0  0  0  0  0  0  0  0
   -1.2450   25.5990  -24.8540 C   0  0  0  0  0  0  0  0  0  0  0  0
   -3.3200   24.5110  -29.6910 C   0  0  0  0  0  0  0  0  0  0  0  0
   -4.0190   23.7980  -30.6690 C   0  0  0  0  0  0  0  0  0  0  0  0
   -6.6201   23.8224  -31.2689 H   0  0  0  0  0  0  0  0  0  0  0  0
   -5.7642   24.0946  -32.8245 H   0  0  0  0  0  0  0  0  0  0  0  0
   -7.4760   23.5502  -32.8245 H   0  0  0  0  0  0  0  0  0  0  0  0
   -8.3582   22.0983  -30.8648 H   0  0  0  0  0  0  0  0  0  0  0  0
  -10.0094   20.2413  -30.6716 H   0  0  0  0  0  0  0  0  0  0  0  0
   -9.6223   18.0904  -31.8727 H   0  0  0  0  0  0  0  0  0  0  0  0
   -7.5819   17.7950  -33.2779 H   0  0  0  0  0  0  0  0  0  0  0  0
   -5.9241   19.6415  -33.4815 H   0  0  0  0  0  0  0  0  0  0  0  0
   -1.7665   21.2924  -31.2362 H   0  0  0  0  0  0  0  0  0  0  0  0
   -0.5228   22.5547  -29.4837 H   0  0  0  0  0  0  0  0  0  0  0  0
   -3.0840   25.6150  -27.2190 H   0  0  0  0  0  0  0  0  0  0  0  0
   -0.9517   28.0341  -27.2409 H   0  0  0  0  0  0  0  0  0  0  0  0
    0.1827   29.1906  -25.3428 H   0  0  0  0  0  0  0  0  0  0  0  0
    0.3975   28.0538  -23.1306 H   0  0  0  0  0  0  0  0  0  0  0  0
   -0.5001   25.7436  -22.8216 H   0  0  0  0  0  0  0  0  0  0  0  0
   -1.6297   24.5776  -24.7173 H   0  0  0  0  0  0  0  0  0  0  0  0
   -3.7670   25.4158  -29.2533 H   0  0  0  0  0  0  0  0  0  0  0  0
   -5.0076   24.1482  -31.0007 H   0  0  0  0  0  0  0  0  0  0  0  0
  1  2  1  0
  2  3  1  0
  3  4  2  0
  4  5  1  0
  5  6  2  0
  6  7  1  0
  7  8  2  0
  2  9  1  0
  9 10  2  0
  9 11  2  0
  9 12  1  0
 12 13  2  0
 13 14  1  0
 14 15  2  0
 15 16  1  0
 16 17  2  0
 16 18  1  0
 18 19  1  0
 19 20  2  0
 20 21  1  0
 21 22  2  0
 22 23  1  0
 23 24  2  0
 15 25  1  0
 25 26  2  0
  8  3  1  0
 26 12  1  0
 24 19  1  0
  1 27  1  0
  1 28  1  0
  1 29  1  0
  4 30  1  0
  5 31  1  0
  6 32  1  0
  7 33  1  0
  8 34  1  0
 13 35  1  0
 14 36  1  0
 18 37  1  0
 20 38  1  0
 21 39  1  0
 22 40  1  0
 23 41  1  0
 24 42  1  0
 25 43  1  0
 26 44  1  0
M  END
>  <UniqueID>  (6) 
5

>  <SMILES>  (6) 
CN(c1ccccc1)S(=O)(=O)c1ccc(C(=O)Nc2ccccc2)cc1

>  <Energy>  (6) 
57.90598957178716

>  <Genealogy>  (6) 
CN(c1ccccc1)S(=O)(=O)c1ccc(C(=O)Nc2ccccc2)cc1 (3D coordinates assigned)
CN(c1ccccc1)S(=O)(=O)c1ccc(C(=O)Nc2ccccc2)cc1 (optimized conformer: 57.90598957178716 kcal/mol)

>  <smiles>  (6) 
CN(c1ccccc1)S(=O)(=O)c1ccc(C(=O)Nc2ccccc2)cc1

>  <score_type>  (6) 
oracle

>  <origin>  (6) 
adgpu

>  <m_score__min__energy>  (6) 
-9.0600000000000005

>  <m_primary>  (6) 
energy

$$$$
6:0
     RDKit          3D

 43 45  0  0  0  0  0  0  0  0999 V2000
   -5.3660   15.8980  -31.9510 C   0  0  0  0  0  0  0  0  0  0  0  0
   -5.7410   17.1140  -31.3130 O   0  0  0  0  0  0  0  0  0  0  0  0
   -6.5710   18.0940  -31.8860 C   0  0  0  0  0  0  0  0  0  0  0  0
   -7.8580   18.3670  -31.3790 C   0  0  0  0  0  0  0  0  0  0  0  0
   -8.6530   19.3540  -31.9630 C   0  0  0  0  0  0  0  0  0  0  0  0
   -8.1820   20.0760  -33.0600 C   0  0  0  0  0  0  0  0  0  0  0  0
   -6.9120   19.8140  -33.5750 C   0  0  0  0  0  0  0  0  0  0  0  0
   -6.0940   18.8320  -32.9890 C   0  0  0  0  0  0  0  0  0  0  0  0
   -4.7500   18.5600  -33.5500 C   0  0  0  0  0  0  0  0  0  0  0  0
   -4.5690   17.4170  -34.2660 N   0  0  0  0  0  0  0  0  0  0  0  0
   -3.3830   17.1270  -34.8590 C   0  0  0  0  0  0  0  0  0  0  0  0
   -3.2150   15.8440  -35.6020 C   0  0  0  0  0  0  0  0  0  0  0  0
   -2.3360   17.9810  -34.7300 N   0  0  0  0  0  0  0  0  0  0  0  0
   -2.4550   19.1340  -34.0250 C   0  0  0  0  0  0  0  0  0  0  0  0
   -3.6660   19.4570  -33.3970 C   0  0  0  0  0  0  0  0  0  0  0  0
   -3.7510   20.6830  -32.5680 C   0  0  0  0  0  0  0  0  0  0  0  0
   -4.6120   21.7330  -32.9300 C   0  0  0  0  0  0  0  0  0  0  0  0
   -4.6770   22.8930  -32.1540 C   0  0  0  0  0  0  0  0  0  0  0  0
   -3.8930   23.0140  -30.9990 C   0  0  0  0  0  0  0  0  0  0  0  0
   -3.9560   24.4870  -30.0390 S   0  0  0  0  0  0  0  0  0  0  0  0
   -4.9450   24.2020  -28.5890 C   0  0  0  0  0  0  0  0  0  0  0  0
   -2.5660   24.8870  -29.6290 O   0  0  0  0  0  0  0  0  0  0  0  0
   -4.5600   25.6000  -30.8490 O   0  0  0  0  0  0  0  0  0  0  0  0
   -3.0390   21.9660  -30.6300 C   0  0  0  0  0  0  0  0  0  0  0  0
   -2.9730   20.8050  -31.4060 C   0  0  0  0  0  0  0  0  0  0  0  0
   -5.1324   15.1406  -31.1882 H   0  0  0  0  0  0  0  0  0  0  0  0
   -6.1962   15.5422  -32.5789 H   0  0  0  0  0  0  0  0  0  0  0  0
   -4.4796   16.0715  -32.5789 H   0  0  0  0  0  0  0  0  0  0  0  0
   -8.2379   17.7982  -30.5175 H   0  0  0  0  0  0  0  0  0  0  0  0
   -9.6538   19.5634  -31.5573 H   0  0  0  0  0  0  0  0  0  0  0  0
   -8.8121   20.8521  -33.5190 H   0  0  0  0  0  0  0  0  0  0  0  0
   -6.5482   20.3796  -34.4455 H   0  0  0  0  0  0  0  0  0  0  0  0
   -3.1067   15.0167  -34.8852 H   0  0  0  0  0  0  0  0  0  0  0  0
   -4.0978   15.6681  -36.2343 H   0  0  0  0  0  0  0  0  0  0  0  0
   -2.3167   15.9014  -36.2343 H   0  0  0  0  0  0  0  0  0  0  0  0
   -1.5975   19.8184  -33.9458 H   0  0  0  0  0  0  0  0  0  0  0  0
   -5.2384   21.6411  -33.8295 H   0  0  0  0  0  0  0  0  0  0  0  0
   -5.3460   23.7142  -32.4508 H   0  0  0  0  0  0  0  0  0  0  0  0
   -4.3363   24.3774  -27.6897 H   0  0  0  0  0  0  0  0  0  0  0  0
   -5.8040   24.8892  -28.5901 H   0  0  0  0  0  0  0  0  0  0  0  0
   -5.3066   23.1631  -28.5901 H   0  0  0  0  0  0  0  0  0  0  0  0
   -2.4183   22.0572  -29.7264 H   0  0  0  0  0  0  0  0  0  0  0  0
   -2.3077   19.9826  -31.1043 H   0  0  0  0  0  0  0  0  0  0  0  0
  1  2  1  0
  2  3  1  0
  3  4  2  0
  4  5  1  0
  5  6  2  0
  6  7  1  0
  7  8  2  0
  8  9  1  0
  9 10  2  0
 10 11  1  0
 11 12  1  0
 11 13  2  0
 13 14  1  0
 14 15  2  0
 15 16  1  0
 16 17  2  0
 17 18  1  0
 18 19  2  0
 19 20  1  0
 20 21  1  0
 20 22  2  0
 20 23  2  0
 19 24  1  0
 24 25  2  0
  8  3  1  0
 15  9  1  0
 25 16  1  0
  1 26  1  0
  1 27  1  0
  1 28  1  0
  4 29  1  0
  5 30  1  0
  6 31  1  0
  7 32  1  0
 12 33  1  0
 12 34  1  0
 12 35  1  0
 14 36  1  0
 17 37  1  0
 18 38  1  0
 21 39  1  0
 21 40  1  0
 21 41  1  0
 24 42  1  0
 25 43  1  0
M  END
>  <UniqueID>  (7) 
6

>  <SMILES>  (7) 
COc1ccccc1-c1nc(C)ncc1-c1ccc(S(C)(=O)=O)cc1

>  <Energy>  (7) 
53.727030356194724

>  <Genealogy>  (7) 
COc1ccccc1-c1nc(C)ncc1-c1ccc(S(C)(=O)=O)cc1 (3D coordinates assigned)
COc1ccccc1-c1nc(C)ncc1-c1ccc(S(C)(=O)=O)cc1 (optimized conformer: 53.727030356194724 kcal/mol)

>  <smiles>  (7) 
COc1ccccc1-c1nc(C)ncc1-c1ccc(S(C)(=O)=O)cc1

>  <score_type>  (7) 
oracle

>  <origin>  (7) 
adgpu

>  <m_score__min__energy>  (7) 
-8.5999999999999996

>  <m_primary>  (7) 
energy

$$$$
7:0
     RDKit          3D

 40 42  0  0  0  0  0  0  0  0999 V2000
   -4.1920   22.4100  -33.0780 N   0  0  0  0  0  0  0  0  0  0  0  0
   -3.5320   21.3740  -32.6810 C   0  0  0  0  0  0  0  0  0  0  0  0
   -3.4580   20.3020  -33.4880 N   0  0  0  0  0  0  0  0  0  0  0  0
   -2.7680   19.2170  -33.0810 C   0  0  0  0  0  0  0  0  0  0  0  0
   -2.6060   17.7600  -34.0610 S   0  0  0  0  0  0  0  0  0  0  0  0
   -4.2130   17.1650  -34.5650 C   0  0  0  0  0  0  0  0  0  0  0  0
   -5.2780   17.8610  -33.8000 C   0  0  0  0  0  0  0  0  0  0  0  0
   -5.6920   17.4140  -32.5770 C   0  0  0  0  0  0  0  0  0  0  0  0
   -6.6840   18.0360  -31.8280 C   0  0  0  0  0  0  0  0  0  0  0  0
   -7.2790   19.1650  -32.3540 C   0  0  0  0  0  0  0  0  0  0  0  0
   -8.5420   19.9980  -31.4540 Cl  0  0  0  0  0  0  0  0  0  0  0  0
   -6.8730   19.6280  -33.5860 C   0  0  0  0  0  0  0  0  0  0  0  0
   -5.8860   18.9900  -34.3070 C   0  0  0  0  0  0  0  0  0  0  0  0
   -2.1770   19.2510  -31.8750 N   0  0  0  0  0  0  0  0  0  0  0  0
   -2.2300   20.3050  -31.0440 C   0  0  0  0  0  0  0  0  0  0  0  0
   -2.9380   21.4450  -31.4410 C   0  0  0  0  0  0  0  0  0  0  0  0
   -3.0360   22.6480  -30.5760 C   0  0  0  0  0  0  0  0  0  0  0  0
   -4.3930   23.1730  -30.4280 C   0  0  0  0  0  0  0  0  0  0  0  0
   -5.4490   22.3070  -30.1430 C   0  0  0  0  0  0  0  0  0  0  0  0
   -6.7470   22.7470  -29.9950 C   0  0  0  0  0  0  0  0  0  0  0  0
   -7.0630   24.0780  -30.1250 C   0  0  0  0  0  0  0  0  0  0  0  0
   -6.0200   24.9520  -30.4090 C   0  0  0  0  0  0  0  0  0  0  0  0
   -4.7180   24.5150  -30.5580 C   0  0  0  0  0  0  0  0  0  0  0  0
   -3.7000   25.4370  -30.8460 O   0  0  0  0  0  0  0  0  0  0  0  0
   -4.6320   22.3370  -34.0220 H   0  0  0  0  0  0  0  0  0  0  0  0
   -4.3517   17.3575  -35.6391 H   0  0  0  0  0  0  0  0  0  0  0  0
   -4.2751   16.0847  -34.3671 H   0  0  0  0  0  0  0  0  0  0  0  0
   -5.2146   16.5136  -32.1630 H   0  0  0  0  0  0  0  0  0  0  0  0
   -6.9855   17.6409  -30.8467 H   0  0  0  0  0  0  0  0  0  0  0  0
   -7.3473   20.5279  -34.0045 H   0  0  0  0  0  0  0  0  0  0  0  0
   -5.5829   19.3825  -35.2889 H   0  0  0  0  0  0  0  0  0  0  0  0
   -1.6280   18.4050  -31.5360 H   0  0  0  0  0  0  0  0  0  0  0  0
   -1.7251   20.2726  -30.0673 H   0  0  0  0  0  0  0  0  0  0  0  0
   -2.6569   22.3861  -29.5771 H   0  0  0  0  0  0  0  0  0  0  0  0
   -2.4443   23.4364  -31.0641 H   0  0  0  0  0  0  0  0  0  0  0  0
   -5.2380   21.2331  -30.0323 H   0  0  0  0  0  0  0  0  0  0  0  0
   -7.5422   22.0213  -29.7693 H   0  0  0  0  0  0  0  0  0  0  0  0
   -8.0965   24.4363  -30.0093 H   0  0  0  0  0  0  0  0  0  0  0  0
   -6.2381   26.0246  -30.5185 H   0  0  0  0  0  0  0  0  0  0  0  0
   -3.8580   26.4350  -30.6870 H   0  0  0  0  0  0  0  0  0  0  0  0
  1  2  2  3
  2  3  1  0
  3  4  2  0
  4  5  1  0
  5  6  1  0
  6  7  1  0
  7  8  2  0
  8  9  1  0
  9 10  2  0
 10 11  1  0
 10 12  1  0
 12 13  2  0
  4 14  1  0
 14 15  1  0
 15 16  2  0
 16 17  1  0
 17 18  1  0
 18 19  2  0
 19 20  1  0
 20 21  2  0
 21 22  1  0
 22 23  2  0
 23 24  1  0
 16  2  1  0
 23 18  1  0
 13  7  1  0
  1 25  1  0
  6 26  1  0
  6 27  1  0
  8 28  1  0
  9 29  1  0
 12 30  1  0
 13 31  1  0
 14 32  1  0
 15 33  1  0
 17 34  1  0
 17 35  1  0
 19 36  1  0
 20 37  1  0
 21 38  1  0
 22 39  1  0
 24 40  1  0
M  END
>  <smiles>  (8) 
N=c1nc(SCc2ccc(Cl)cc2)[nH]cc1Cc1ccccc1O

>  <score_type>  (8) 
oracle

>  <origin>  (8) 
adgpu

>  <m_score__min__energy>  (8) 
-9.9900000000000002

>  <m_primary>  (8) 
energy

$$$$
8:0
     RDKit          3D

 60 64  0  0  0  0  0  0  0  0999 V2000
   -2.2320   20.1420  -28.9150 O   0  0  0  0  0  0  0  0  0  0  0  0
   -1.4590   20.8500  -29.6160 C   0  0  0  0  0  0  0  0  0  0  0  0
   -0.6260   20.2520  -30.5720 O   0  0  0  0  0  0  0  0  0  0  0  0
   -0.4450   18.8430  -30.7120 C   0  0  0  0  0  0  0  0  0  0  0  0
    0.5260   18.5390  -31.8630 C   0  0  1  0  0  0  0  0  0  0  0  0
    0.4220   19.5520  -32.8460 O   0  0  0  0  0  0  0  0  0  0  0  0
    0.9590   19.1190  -34.0920 C   0  0  2  0  0  0  0  0  0  0  0  0
   -0.0480   18.3850  -34.7950 O   0  0  0  0  0  0  0  0  0  0  0  0
   -1.1390   17.6890  -34.2430 C   0  0  0  0  0  0  0  0  0  0  0  0
   -2.3080   18.4240  -34.0210 C   0  0  0  0  0  0  0  0  0  0  0  0
   -3.4380   17.8310  -33.4570 C   0  0  0  0  0  0  0  0  0  0  0  0
   -4.5250   18.5680  -33.2520 O   0  0  0  0  0  0  0  0  0  0  0  0
   -5.6470   18.0870  -32.7210 C   0  0  0  0  0  0  0  0  0  0  0  0
   -6.8010   19.0040  -32.5400 C   0  0  0  0  0  0  0  0  0  0  0  0
   -6.6350   20.4020  -32.4800 C   0  0  0  0  0  0  0  0  0  0  0  0
   -7.7390   21.2390  -32.2960 C   0  0  0  0  0  0  0  0  0  0  0  0
   -9.0190   20.6940  -32.1640 C   0  0  0  0  0  0  0  0  0  0  0  0
  -10.1150   21.5290  -31.9810 O   0  0  0  0  0  0  0  0  0  0  0  0
   -9.1950   19.3090  -32.2120 C   0  0  0  0  0  0  0  0  0  0  0  0
   -8.0940   18.4680  -32.3940 C   0  0  0  0  0  0  0  0  0  0  0  0
   -5.7030   16.7370  -32.3350 C   0  0  0  0  0  0  0  0  0  0  0  0
   -4.5870   15.9210  -32.5300 C   0  0  0  0  0  0  0  0  0  0  0  0
   -4.6470   14.7110  -32.1820 O   0  0  0  0  0  0  0  0  0  0  0  0
   -3.4220   16.4630  -33.1070 C   0  0  0  0  0  0  0  0  0  0  0  0
   -2.2530   15.7070  -33.3480 C   0  0  0  0  0  0  0  0  0  0  0  0
   -2.1990   14.3530  -33.0320 O   0  0  0  0  0  0  0  0  0  0  0  0
   -1.1250   16.3120  -33.9220 C   0  0  0  0  0  0  0  0  0  0  0  0
   -0.0160   15.5180  -34.1850 O   0  0  0  0  0  0  0  0  0  0  0  0
    2.2570   18.2730  -33.9420 C   0  0  0  0  0  0  0  0  0  0  0  0
    2.9630   18.5910  -32.6200 C   0  0  2  0  0  0  0  0  0  0  0  0
    4.0840   17.7570  -32.4820 O   0  0  0  0  0  0  0  0  0  0  0  0
    2.0050   18.4110  -31.4130 C   0  0  1  0  0  0  0  0  0  0  0  0
    2.3080   19.3820  -30.4430 O   0  0  0  0  0  0  0  0  0  0  0  0
   -1.4180   22.3160  -29.4250 C   0  0  0  0  0  0  0  0  0  0  0  0
   -2.4720   23.1220  -29.8890 C   0  0  0  0  0  0  0  0  0  0  0  0
   -2.4400   24.5090  -29.7040 C   0  0  0  0  0  0  0  0  0  0  0  0
   -3.4900   25.2920  -30.1690 O   0  0  0  0  0  0  0  0  0  0  0  0
   -1.3540   25.1040  -29.0530 C   0  0  0  0  0  0  0  0  0  0  0  0
   -1.3220   26.4830  -28.8700 O   0  0  0  0  0  0  0  0  0  0  0  0
   -0.3000   24.3110  -28.5860 C   0  0  0  0  0  0  0  0  0  0  0  0
    0.7810   24.8980  -27.9380 O   0  0  0  0  0  0  0  0  0  0  0  0
   -0.3310   22.9250  -28.7700 C   0  0  0  0  0  0  0  0  0  0  0  0
   -0.0360   18.4354  -29.7757 H   0  0  0  0  0  0  0  0  0  0  0  0
   -1.4173   18.3789  -30.9337 H   0  0  0  0  0  0  0  0  0  0  0  0
    0.2338   17.5595  -32.2694 H   0  0  0  0  0  0  0  0  0  0  0  0
    1.2524   20.0128  -34.6620 H   0  0  0  0  0  0  0  0  0  0  0  0
   -2.3370   19.4887  -34.2960 H   0  0  0  0  0  0  0  0  0  0  0  0
   -5.6297   20.8375  -32.5786 H   0  0  0  0  0  0  0  0  0  0  0  0
   -7.6000   22.3294  -32.2550 H   0  0  0  0  0  0  0  0  0  0  0  0
  -10.2022   18.8796  -32.1063 H   0  0  0  0  0  0  0  0  0  0  0  0
   -8.2392   17.3780  -32.4234 H   0  0  0  0  0  0  0  0  0  0  0  0
   -6.6181   16.3267  -31.8831 H   0  0  0  0  0  0  0  0  0  0  0  0
    1.9958   17.2047  -33.9637 H   0  0  0  0  0  0  0  0  0  0  0  0
    2.9357   18.5178  -34.7723 H   0  0  0  0  0  0  0  0  0  0  0  0
    3.2839   19.6430  -32.6353 H   0  0  0  0  0  0  0  0  0  0  0  0
    4.2380   17.6430  -31.5070 H   0  0  0  0  0  0  0  0  0  0  0  0
    2.1410   17.4064  -30.9861 H   0  0  0  0  0  0  0  0  0  0  0  0
    1.5540   20.0270  -30.4370 H   0  0  0  0  0  0  0  0  0  0  0  0
   -3.3284   22.6592  -30.4013 H   0  0  0  0  0  0  0  0  0  0  0  0
    0.5000   22.3063  -28.4002 H   0  0  0  0  0  0  0  0  0  0  0  0
  1  2  2  0
  2  3  1  0
  3  4  1  0
  4  5  1  0
  5  6  1  0
  6  7  1  0
  7  8  1  0
  8  9  1  0
  9 10  2  0
 10 11  1  0
 11 12  1  0
 12 13  1  0
 13 14  1  0
 14 15  2  0
 15 16  1  0
 16 17  2  0
 17 18  1  0
 17 19  1  0
 19 20  2  0
 13 21  2  0
 21 22  1  0
 22 23  2  0
 22 24  1  0
 24 25  1  0
 25 26  1  0
 25 27  2  0
 27 28  1  0
  7 29  1  0
 29 30  1  0
 30 31  1  0
 30 32  1  0
 32 33  1  0
  2 34  1  0
 34 35  2  0
 35 36  1  0
 36 37  1  0
 36 38  2  0
 38 39  1  0
 38 40  1  0
 40 41  1  0
 40 42  2  0
 32  5  1  0
 42 34  1  0
 27  9  1  0
 24 11  2  0
 20 14  1  0
  4 43  1  0
  4 44  1  0
  5 45  1  6
  7 46  1  6
 10 47  1  0
 15 48  1  0
 16 49  1  0
 19 50  1  0
 20 51  1  0
 21 52  1  0
 29 53  1  0
 29 54  1  0
 30 55  1  6
 31 56  1  0
 32 57  1  1
 33 58  1  0
 35 59  1  0
 42 60  1  0
M  CHG  6  18  -1  26  -1  28  -1  37  -1  39  -1  41  -1
M  END
>  <UniqueID>  (9) 
7

>  <SMILES>  (9) 
O=C(OC[C@H]1O[C@H](Oc2cc3oc(-c4ccc([O-])cc4)cc(=O)c3c([O-])c2[O-])CC(O)C1O)c1cc([O-])c([O-])c([O-])c1

>  <Energy>  (9) 
91.16764962023815

>  <Genealogy>  (9) 
O=C(OCC1OC(Oc2cc3oc(-c4ccc([O-])cc4)cc(=O)c3c([O-])c2[O-])CC(O)C1O)c1cc([O-])c([O-])c([O-])c1 (protonated)
O=C(OC[C@H]1O[C@H](Oc2cc3oc(-c4ccc([O-])cc4)cc(=O)c3c([O-])c2[O-])CC(O)C1O)c1cc([O-])c([O-])c([O-])c1 (chirality)
O=C(OC[C@H]1O[C@H](Oc2cc3oc(-c4ccc([O-])cc4)cc(=O)c3c([O-])c2[O-])CC(O)C1O)c1cc([O-])c([O-])c([O-])c1 (3D coordinates assigned)
O=C(OC[C@H]1O[C@H](Oc2cc3oc(-c4ccc([O-])cc4)cc(=O)c3c([O-])c2[O-])CC(O)C1O)c1cc([O-])c([O-])c([O-])c1 (nonaromatic ring conformer: 91.16764962023815 kcal/mol)

>  <smiles>  (9) 
O=C(OCC1OC(Oc2cc3oc(-c4ccc(O)cc4)cc(=O)c3c(O)c2O)CC(O)C1O)c1cc(O)c(O)c(O)c1

>  <score_type>  (9) 
oracle

>  <origin>  (9) 
adgpu

>  <m_score__min__energy>  (9) 
-17.649999999999999

>  <m_primary>  (9) 
energy

$$$$
9:0
     RDKit          3D

 32 33  0  0  0  0  0  0  0  0999 V2000
   -6.6167   24.2553  -30.1468 H   0  0  0  0  0  0  0  0  0  0  0  0
   -5.6630   23.7380  -30.3280 C   0  0  0  0  0  0  0  0  0  0  0  0
   -4.4140   24.3600  -29.8480 C   0  0  0  0  0  0  0  0  0  0  0  0
   -3.8770   25.2950  -30.5030 O   0  0  0  0  0  0  0  0  0  0  0  0
   -3.7940   23.8660  -28.6500 N   0  0  0  0  0  0  0  0  0  0  0  0
   -4.0900   22.9270  -28.2990 H   0  0  0  0  0  0  0  0  0  0  0  0
   -2.7100   24.5250  -27.9730 C   0  0  0  0  0  0  0  0  0  0  0  0
   -1.4310   24.5120  -28.5500 C   0  0  0  0  0  0  0  0  0  0  0  0
   -1.2733   24.0147  -29.5184 H   0  0  0  0  0  0  0  0  0  0  0  0
   -0.3560   25.1270  -27.9020 C   0  0  0  0  0  0  0  0  0  0  0  0
    0.6407   25.1226  -28.3673 H   0  0  0  0  0  0  0  0  0  0  0  0
   -0.5450   25.7470  -26.6650 C   0  0  0  0  0  0  0  0  0  0  0  0
    0.3018   26.2367  -26.1619 H   0  0  0  0  0  0  0  0  0  0  0  0
   -1.8100   25.7470  -26.0630 C   0  0  0  0  0  0  0  0  0  0  0  0
   -1.9990   26.3640  -24.7860 N   0  0  0  0  0  0  0  0  0  0  0  0
   -1.5090   26.0010  -23.9390 H   0  0  0  0  0  0  0  0  0  0  0  0
   -2.6300   27.1900  -24.6790 H   0  0  0  0  0  0  0  0  0  0  0  0
   -2.8890   25.1300  -26.7150 C   0  0  0  0  0  0  0  0  0  0  0  0
   -3.8809   25.1193  -26.2396 H   0  0  0  0  0  0  0  0  0  0  0  0
   -5.6770   22.5650  -30.9770 C   0  0  0  0  0  0  0  0  0  0  0  0
   -4.7159   22.0613  -31.1573 H   0  0  0  0  0  0  0  0  0  0  0  0
   -6.9130   21.9070  -31.4660 C   0  0  0  0  0  0  0  0  0  0  0  0
   -8.1510   22.5170  -31.2010 C   0  0  0  0  0  0  0  0  0  0  0  0
   -8.1824   23.4674  -30.6481 H   0  0  0  0  0  0  0  0  0  0  0  0
   -9.3430   21.9280  -31.6330 C   0  0  0  0  0  0  0  0  0  0  0  0
  -10.3053   22.4191  -31.4259 H   0  0  0  0  0  0  0  0  0  0  0  0
   -9.3130   20.7170  -32.3270 C   0  0  0  0  0  0  0  0  0  0  0  0
  -10.2511   20.2573  -32.6715 H   0  0  0  0  0  0  0  0  0  0  0  0
   -8.0920   20.0890  -32.5840 C   0  0  0  0  0  0  0  0  0  0  0  0
   -8.0707   19.1320  -33.1259 H   0  0  0  0  0  0  0  0  0  0  0  0
   -6.8960   20.6740  -32.1540 C   0  0  0  0  0  0  0  0  0  0  0  0
   -5.9381   20.1711  -32.3528 H   0  0  0  0  0  0  0  0  0  0  0  0
  1  2  1  0
  2  3  1  0
  3  4  2  0
  3  5  1  0
  5  6  1  0
  5  7  1  0
  7  8  2  0
  8  9  1  0
  8 10  1  0
 10 11  1  0
 10 12  2  0
 12 13  1  0
 12 14  1  0
 14 15  1  0
 15 16  1  0
 15 17  1  0
 14 18  2  0
 18 19  1  0
  2 20  2  0
 20 21  1  0
 20 22  1  0
 22 23  2  0
 23 24  1  0
 23 25  1  0
 25 26  1  0
 25 27  2  0
 27 28  1  0
 27 29  1  0
 29 30  1  0
 29 31  2  0
 31 32  1  0
 18  7  1  0
 31 22  1  0
M  END
>  <UniqueID>  (10) 
8

>  <SMILES>  (10) 
Nc1cccc(NC(=O)/C=C/c2ccccc2)c1

>  <Energy>  (10) 
36.52831307516421

>  <Genealogy>  (10) 
Nc1cccc(NC(=O)/C=C/c2ccccc2)c1 (cis-trans isomerization)
Nc1cccc(NC(=O)/C=C/c2ccccc2)c1 (3D coordinates assigned)
Nc1cccc(NC(=O)/C=C/c2ccccc2)c1 (optimized conformer: 36.52831307516421 kcal/mol)

>  <smiles>  (10) 
Nc1cccc(NC(=O)C=Cc2ccccc2)c1

>  <score_type>  (10) 
oracle

>  <origin>  (10) 
adgpu

>  <m_score__min__energy>  (10) 
-7.4800000000000004

>  <m_primary>  (10) 
energy

$$$$
10:0
     RDKit          3D

 51 53  0  0  0  0  0  0  0  0999 V2000
   -5.4510   25.8960  -30.4680 C   0  0  0  0  0  0  0  0  0  0  0  0
   -4.2360   25.2620  -30.8520 O   0  0  0  0  0  0  0  0  0  0  0  0
   -3.8200   23.9960  -30.4060 C   0  0  0  0  0  0  0  0  0  0  0  0
   -2.8090   23.8510  -29.4350 C   0  0  0  0  0  0  0  0  0  0  0  0
   -2.4070   22.5820  -29.0170 C   0  0  0  0  0  0  0  0  0  0  0  0
   -3.0100   21.4460  -29.5540 C   0  0  0  0  0  0  0  0  0  0  0  0
   -4.0160   21.5740  -30.5140 C   0  0  0  0  0  0  0  0  0  0  0  0
   -4.4270   22.8470  -30.9540 C   0  0  0  0  0  0  0  0  0  0  0  0
   -5.4570   22.9890  -31.9510 N   0  0  0  0  0  0  0  0  0  0  0  0
   -7.1520   22.8680  -31.5980 S   0  0  0  0  0  0  0  0  0  0  0  0
   -7.3870   23.2740  -30.1700 O   0  0  0  0  0  0  0  0  0  0  0  0
   -7.9140   23.7920  -32.5050 O   0  0  0  0  0  0  0  0  0  0  0  0
   -7.7130   21.2210  -31.8750 C   0  0  0  0  0  0  0  0  0  0  0  0
   -9.0220   20.9820  -32.3100 C   0  0  0  0  0  0  0  0  0  0  0  0
   -9.4570   19.6730  -32.5390 C   0  0  0  0  0  0  0  0  0  0  0  0
   -8.5840   18.5990  -32.3450 C   0  0  0  0  0  0  0  0  0  0  0  0
   -7.2670   18.8310  -31.9230 C   0  0  0  0  0  0  0  0  0  0  0  0
   -6.3240   17.7120  -31.7550 C   0  0  0  0  0  0  0  0  0  0  0  0
   -6.1430   17.2490  -30.5950 O   0  0  0  0  0  0  0  0  0  0  0  0
   -5.5810   17.1710  -32.8700 N   0  0  0  0  0  0  0  0  0  0  0  0
   -5.0260   15.8180  -32.7540 C   0  0  0  0  0  0  0  0  0  0  0  0
   -5.3050   17.9780  -34.0730 C   0  0  0  0  0  0  0  0  0  0  0  0
   -4.0930   18.8520  -33.8680 C   0  0  0  0  0  0  0  0  0  0  0  0
   -4.2500   20.2190  -33.5850 C   0  0  0  0  0  0  0  0  0  0  0  0
   -3.1290   21.0400  -33.4390 C   0  0  0  0  0  0  0  0  0  0  0  0
   -1.8440   20.5040  -33.5700 C   0  0  0  0  0  0  0  0  0  0  0  0
   -1.6790   19.1430  -33.8370 C   0  0  0  0  0  0  0  0  0  0  0  0
   -2.7980   18.3170  -33.9810 C   0  0  0  0  0  0  0  0  0  0  0  0
   -6.8400   20.1440  -31.6760 C   0  0  0  0  0  0  0  0  0  0  0  0
   -5.5159   25.9299  -29.3704 H   0  0  0  0  0  0  0  0  0  0  0  0
   -5.4726   26.9203  -30.8684 H   0  0  0  0  0  0  0  0  0  0  0  0
   -6.3035   25.3278  -30.8684 H   0  0  0  0  0  0  0  0  0  0  0  0
   -2.3336   24.7443  -29.0037 H   0  0  0  0  0  0  0  0  0  0  0  0
   -1.6132   22.4780  -28.2627 H   0  0  0  0  0  0  0  0  0  0  0  0
   -2.6929   20.4467  -29.2210 H   0  0  0  0  0  0  0  0  0  0  0  0
   -4.4912   20.6733  -30.9298 H   0  0  0  0  0  0  0  0  0  0  0  0
   -5.1950   23.0510  -32.9590 H   0  0  0  0  0  0  0  0  0  0  0  0
   -9.7094   21.8253  -32.4719 H   0  0  0  0  0  0  0  0  0  0  0  0
  -10.4887   19.4881  -32.8726 H   0  0  0  0  0  0  0  0  0  0  0  0
   -8.9304   17.5704  -32.5236 H   0  0  0  0  0  0  0  0  0  0  0  0
   -4.9184   15.5557  -31.6912 H   0  0  0  0  0  0  0  0  0  0  0  0
   -5.7027   15.1010  -33.2419 H   0  0  0  0  0  0  0  0  0  0  0  0
   -4.0408   15.7827  -33.2419 H   0  0  0  0  0  0  0  0  0  0  0  0
   -5.1241   17.3053  -34.9243 H   0  0  0  0  0  0  0  0  0  0  0  0
   -6.1740   18.6227  -34.2708 H   0  0  0  0  0  0  0  0  0  0  0  0
   -5.2588   20.6444  -33.4780 H   0  0  0  0  0  0  0  0  0  0  0  0
   -3.2575   22.1104  -33.2205 H   0  0  0  0  0  0  0  0  0  0  0  0
   -0.9632   21.1542  -33.4628 H   0  0  0  0  0  0  0  0  0  0  0  0
   -0.6680   18.7206  -33.9341 H   0  0  0  0  0  0  0  0  0  0  0  0
   -2.6644   17.2441  -34.1835 H   0  0  0  0  0  0  0  0  0  0  0  0
   -5.8143   20.3288  -31.3242 H   0  0  0  0  0  0  0  0  0  0  0  0
  1  2  1  0
  2  3  1  0
  3  4  2  0
  4  5  1  0
  5  6  2  0
  6  7  1  0
  7  8  2  0
  8  9  1  0
  9 10  1  0
 10 11  2  0
 10 12  2  0
 10 13  1  0
 13 14  2  0
 14 15  1  0
 15 16  2  0
 16 17  1  0
 17 18  1  0
 18 19  2  0
 18 20  1  0
 20 21  1  0
 20 22  1  0
 22 23  1  0
 23 24  2  0
 24 25  1  0
 25 26  2  0
 26 27  1  0
 27 28  2  0
 17 29  2  0
  8  3  1  0
 29 13  1  0
 28 23  1  0
  1 30  1  0
  1 31  1  0
  1 32  1  0
  4 33  1  0
  5 34  1  0
  6 35  1  0
  7 36  1  0
  9 37  1  0
 14 38  1  0
 15 39  1  0
 16 40  1  0
 21 41  1  0
 21 42  1  0
 21 43  1  0
 22 44  1  0
 22 45  1  0
 24 46  1  0
 25 47  1  0
 26 48  1  0
 27 49  1  0
 28 50  1  0
 29 51  1  0
M  END
>  <UniqueID>  (11) 
9

>  <SMILES>  (11) 
COc1ccccc1NS(=O)(=O)c1cccc(C(=O)N(C)Cc2ccccc2)c1

>  <Energy>  (11) 
57.00395534948326

>  <Genealogy>  (11) 
COc1ccccc1NS(=O)(=O)c1cccc(C(=O)N(C)Cc2ccccc2)c1 (3D coordinates assigned)
COc1ccccc1NS(=O)(=O)c1cccc(C(=O)N(C)Cc2ccccc2)c1 (optimized conformer: 57.00395534948326 kcal/mol)

>  <smiles>  (11) 
COc1ccccc1NS(=O)(=O)c1cccc(C(=O)N(C)Cc2ccccc2)c1

>  <score_type>  (11) 
oracle

>  <origin>  (11) 
adgpu

>  <m_score__min__energy>  (11) 
-9.9100000000000001

>  <m_primary>  (11) 
energy

$$$$
11:0
     RDKit          3D

 40 42  0  0  0  0  0  0  0  0999 V2000
   -1.5980   26.9300  -29.3290 H   0  0  0  0  0  0  0  0  0  0  0  0
   -1.1940   26.0200  -29.0080 N   0  0  0  0  0  0  0  0  0  0  0  0
   -1.8470   24.9120  -29.1280 C   0  0  0  0  0  0  0  0  0  0  0  0
   -3.1000   24.9100  -29.6890 N   0  0  0  0  0  0  0  0  0  0  0  0
   -3.8220   23.7570  -29.8290 C   0  0  0  0  0  0  0  0  0  0  0  0
   -5.1200   23.7820  -30.4440 N   0  0  0  0  0  0  0  0  0  0  0  0
   -5.5400   22.6720  -31.2720 C   0  0  0  0  0  0  0  0  0  0  0  0
   -4.7270   22.1920  -32.3150 C   0  0  0  0  0  0  0  0  0  0  0  0
   -3.7547   22.6674  -32.5115 H   0  0  0  0  0  0  0  0  0  0  0  0
   -5.1440   21.1170  -33.1030 C   0  0  0  0  0  0  0  0  0  0  0  0
   -4.4981   20.7492  -33.9139 H   0  0  0  0  0  0  0  0  0  0  0  0
   -6.3760   20.5080  -32.8660 C   0  0  0  0  0  0  0  0  0  0  0  0
   -6.6959   19.6613  -33.4911 H   0  0  0  0  0  0  0  0  0  0  0  0
   -7.2110   20.9680  -31.8350 C   0  0  0  0  0  0  0  0  0  0  0  0
   -8.5490   20.2970  -31.5860 C   0  0  0  0  0  0  0  0  0  0  0  0
   -8.6273   20.0940  -30.5077 H   0  0  0  0  0  0  0  0  0  0  0  0
   -9.7100   21.2200  -31.9750 C   0  0  0  0  0  0  0  0  0  0  0  0
  -10.1936   21.6044  -31.0649 H   0  0  0  0  0  0  0  0  0  0  0  0
   -9.3257   22.0619  -32.5696 H   0  0  0  0  0  0  0  0  0  0  0  0
  -10.4436   20.6558  -32.5696 H   0  0  0  0  0  0  0  0  0  0  0  0
   -8.6400   18.9560  -32.3220 C   0  0  0  0  0  0  0  0  0  0  0  0
   -8.6955   18.1382  -31.5885 H   0  0  0  0  0  0  0  0  0  0  0  0
   -9.5410   18.9444  -32.9529 H   0  0  0  0  0  0  0  0  0  0  0  0
   -7.7488   18.8228  -32.9529 H   0  0  0  0  0  0  0  0  0  0  0  0
   -6.7860   22.0530  -31.0460 C   0  0  0  0  0  0  0  0  0  0  0  0
   -7.4364   22.4239  -30.2402 H   0  0  0  0  0  0  0  0  0  0  0  0
   -5.8920   25.0280  -30.4060 C   0  0  0  0  0  0  0  0  0  0  0  0
   -6.0709   25.3167  -29.3598 H   0  0  0  0  0  0  0  0  0  0  0  0
   -5.3287   25.8240  -30.9149 H   0  0  0  0  0  0  0  0  0  0  0  0
   -6.8556   24.8780  -30.9149 H   0  0  0  0  0  0  0  0  0  0  0  0
   -3.2320   22.5710  -29.3940 C   0  0  0  0  0  0  0  0  0  0  0  0
   -1.9910   22.5990  -28.8400 C   0  0  0  0  0  0  0  0  0  0  0  0
   -1.2810   23.7440  -28.7000 N   0  0  0  0  0  0  0  0  0  0  0  0
   -1.6380   21.3040  -28.5460 C   0  0  0  0  0  0  0  0  0  0  0  0
   -0.4010   20.8440  -27.9760 C   0  0  0  0  0  0  0  0  0  0  0  0
    0.5940   20.4730  -27.5160 N   0  0  0  0  0  0  0  0  0  0  0  0
   -2.7140   20.5240  -28.9580 C   0  0  0  0  0  0  0  0  0  0  0  0
   -2.7659   19.4287  -28.8712 H   0  0  0  0  0  0  0  0  0  0  0  0
   -3.6900   21.3070  -29.4820 N   0  0  0  0  0  0  0  0  0  0  0  0
   -4.5920   20.9840  -29.8940 H   0  0  0  0  0  0  0  0  0  0  0  0
  1  2  1  0
  2  3  2  0
  3  4  1  0
  4  5  2  0
  5  6  1  0
  6  7  1  0
  7  8  2  0
  8  9  1  0
  8 10  1  0
 10 11  1  0
 10 12  2  0
 12 13  1  0
 12 14  1  0
 14 15  1  0
 15 16  1  0
 15 17  1  0
 17 18  1  0
 17 19  1  0
 17 20  1  0
 15 21  1  0
 21 22  1  0
 21 23  1  0
 21 24  1  0
 14 25  2  0
 25 26  1  0
  6 27  1  0
 27 28  1  0
 27 29  1  0
 27 30  1  0
  5 31  1  0
 31 32  2  0
 32 33  1  0
 32 34  1  0
 34 35  1  0
 35 36  3  0
 34 37  2  0
 37 38  1  0
 37 39  1  0
 39 40  1  0
 33  3  1  0
 25  7  1  0
 39 31  1  0
M  CHG  1  33  -1
M  END
>  <UniqueID>  (12) 
10

>  <SMILES>  (12) 
[H]/N=c1\nc(N(C)c2cccc(C(C)C)c2)c2[nH]cc(C#N)c2[n-]1

>  <Energy>  (12) 
82.54128213910133

>  <Genealogy>  (12) 
CC(C)c1cccc(N(C)c2nc(=N)[n-]c3c(C#N)c[nH]c23)c1 (protonated)
[H]/N=c1\nc(N(C)c2cccc(C(C)C)c2)c2[nH]cc(C#N)c2[n-]1 (cis-trans isomerization)
[H]/N=c1\nc(N(C)c2cccc(C(C)C)c2)c2[nH]cc(C#N)c2[n-]1 (3D coordinates assigned)
[H]/N=c1\nc(N(C)c2cccc(C(C)C)c2)c2[nH]cc(C#N)c2[n-]1 (optimized conformer: 82.54128213910133 kcal/mol)

>  <smiles>  (12) 
CC(C)c1cccc(N(C)c2nc(=N)[nH]c3c(C#N)c[nH]c23)c1

>  <score_type>  (12) 
oracle

>  <origin>  (12) 
adgpu

>  <m_score__min__energy>  (12) 
-9.5099999999999998

>  <m_primary>  (12) 
energy

$$$$
12:0
     RDKit          3D

 56 58  0  0  0  0  0  0  0  0999 V2000
   -8.5763   20.2860  -32.8227 H   0  0  0  0  0  0  0  0  0  0  0  0
   -7.9730   21.0640  -32.3320 C   0  0  0  0  0  0  0  0  0  0  0  0
   -8.5790   22.2340  -31.8800 C   0  0  0  0  0  0  0  0  0  0  0  0
   -9.6599   22.3818  -32.0208 H   0  0  0  0  0  0  0  0  0  0  0  0
   -7.8180   23.2190  -31.2490 C   0  0  0  0  0  0  0  0  0  0  0  0
   -8.3051   24.1404  -30.8972 H   0  0  0  0  0  0  0  0  0  0  0  0
   -6.4370   23.0470  -31.0580 C   0  0  0  0  0  0  0  0  0  0  0  0
   -5.5500   24.3240  -30.2030 S   0  0  0  0  0  0  0  0  0  0  0  0
   -4.8500   25.1910  -31.2110 O   0  0  0  0  0  0  0  0  0  0  0  0
   -6.5040   25.1760  -29.4120 O   0  0  0  0  0  0  0  0  0  0  0  0
   -4.3760   23.6650  -29.1120 N   0  0  0  0  0  0  0  0  0  0  0  0
   -3.2170   24.2110  -28.9160 C   0  0  0  0  0  0  0  0  0  0  0  0
   -2.7910   25.2990  -29.5130 O   0  0  0  0  0  0  0  0  0  0  0  0
   -1.5990   25.6160  -29.0920 N   0  0  0  0  0  0  0  0  0  0  0  0
   -1.2430   24.6880  -28.1790 C   0  0  0  0  0  0  0  0  0  0  0  0
    0.0590   24.6920  -27.4460 C   0  0  0  0  0  0  0  0  0  0  0  0
   -0.1303   24.6914  -26.3624 H   0  0  0  0  0  0  0  0  0  0  0  0
    0.6357   23.7956  -27.7180 H   0  0  0  0  0  0  0  0  0  0  0  0
    0.6301   25.5919  -27.7180 H   0  0  0  0  0  0  0  0  0  0  0  0
   -2.2590   23.7610  -28.0380 C   0  0  0  0  0  0  0  0  0  0  0  0
   -2.3100   22.5770  -27.1240 C   0  0  0  0  0  0  0  0  0  0  0  0
   -2.2952   22.9197  -26.0789 H   0  0  0  0  0  0  0  0  0  0  0  0
   -3.2334   22.0092  -27.3107 H   0  0  0  0  0  0  0  0  0  0  0  0
   -1.4388   21.9319  -27.3107 H   0  0  0  0  0  0  0  0  0  0  0  0
   -5.8140   21.8650  -31.5400 C   0  0  0  0  0  0  0  0  0  0  0  0
   -4.3650   21.6150  -31.3990 C   0  0  0  0  0  0  0  0  0  0  0  0
   -3.8640   20.9040  -30.2970 C   0  0  0  0  0  0  0  0  0  0  0  0
   -4.5509   20.5529  -29.5129 H   0  0  0  0  0  0  0  0  0  0  0  0
   -2.4960   20.6410  -30.1930 C   0  0  0  0  0  0  0  0  0  0  0  0
   -2.1112   20.0808  -29.3281 H   0  0  0  0  0  0  0  0  0  0  0  0
   -1.6100   21.0870  -31.1850 C   0  0  0  0  0  0  0  0  0  0  0  0
   -0.1330   20.8160  -31.0640 C   0  0  0  0  0  0  0  0  0  0  0  0
    0.3259   20.8588  -32.0628 H   0  0  0  0  0  0  0  0  0  0  0  0
    0.3155   21.5763  -30.4076 H   0  0  0  0  0  0  0  0  0  0  0  0
    0.1010   19.4850  -30.4800 N   0  0  0  0  0  0  0  0  0  0  0  0
   -0.7630   18.9110  -30.6250 H   0  0  0  0  0  0  0  0  0  0  0  0
    0.8810   19.0050  -30.9880 H   0  0  0  0  0  0  0  0  0  0  0  0
    0.3800   19.5610  -29.0260 C   0  0  0  0  0  0  0  0  0  0  0  0
    1.4402   19.3200  -28.8590 H   0  0  0  0  0  0  0  0  0  0  0  0
    0.1351   20.5813  -28.6959 H   0  0  0  0  0  0  0  0  0  0  0  0
   -0.4860   18.5830  -28.1940 C   0  0  0  0  0  0  0  0  0  0  0  0
   -1.1832   18.0892  -28.8869 H   0  0  0  0  0  0  0  0  0  0  0  0
   -1.2770   19.3530  -27.1290 C   0  0  0  0  0  0  0  0  0  0  0  0
   -0.9501   19.0348  -26.1281 H   0  0  0  0  0  0  0  0  0  0  0  0
   -1.0976   20.4318  -27.2476 H   0  0  0  0  0  0  0  0  0  0  0  0
   -2.3506   19.1446  -27.2476 H   0  0  0  0  0  0  0  0  0  0  0  0
    0.3610   17.4900  -27.5270 C   0  0  0  0  0  0  0  0  0  0  0  0
    0.2873   17.5851  -26.4336 H   0  0  0  0  0  0  0  0  0  0  0  0
   -0.0086   16.5007  -27.8347 H   0  0  0  0  0  0  0  0  0  0  0  0
    1.4112   17.6010  -27.8347 H   0  0  0  0  0  0  0  0  0  0  0  0
   -2.1050   21.8400  -32.2620 C   0  0  0  0  0  0  0  0  0  0  0  0
   -1.4127   22.2250  -33.0252 H   0  0  0  0  0  0  0  0  0  0  0  0
   -3.4720   22.1020  -32.3680 C   0  0  0  0  0  0  0  0  0  0  0  0
   -3.8519   22.6928  -33.2146 H   0  0  0  0  0  0  0  0  0  0  0  0
   -6.5990   20.8790  -32.1620 C   0  0  0  0  0  0  0  0  0  0  0  0
   -6.1264   19.9519  -32.5187 H   0  0  0  0  0  0  0  0  0  0  0  0
  1  2  1  0
  2  3  2  0
  3  4  1  0
  3  5  1  0
  5  6  1  0
  5  7  2  0
  7  8  1  0
  8  9  2  0
  8 10  2  0
  8 11  1  0
 11 12  2  0
 12 13  1  0
 13 14  1  0
 14 15  1  0
 15 16  1  0
 16 17  1  0
 16 18  1  0
 16 19  1  0
 15 20  2  0
 20 21  1  0
 21 22  1  0
 21 23  1  0
 21 24  1  0
  7 25  1  0
 25 26  1  0
 26 27  2  0
 27 28  1  0
 27 29  1  0
 29 30  1  0
 29 31  2  0
 31 32  1  0
 32 33  1  0
 32 34  1  0
 32 35  1  0
 35 36  1  0
 35 37  1  0
 35 38  1  0
 38 39  1  0
 38 40  1  0
 38 41  1  0
 41 42  1  0
 41 43  1  0
 43 44  1  0
 43 45  1  0
 43 46  1  0
 41 47  1  0
 47 48  1  0
 47 49  1  0
 47 50  1  0
 31 51  1  0
 51 52  1  0
 51 53  2  0
 53 54  1  0
 25 55  2  0
 55 56  1  0
 55  2  1  0
 20 12  1  0
 53 26  1  0
M  CHG  2  14  -1  35   1
M  END
>  <UniqueID>  (13) 
11

>  <SMILES>  (13) 
Cc1[n-]o/c(=N\S(=O)(=O)c2ccccc2-c2ccc(C[NH2+]CC(C)C)cc2)c1C

>  <Energy>  (13) 
91.19874693592952

>  <Genealogy>  (13) 
Cc1[n-]oc(=NS(=O)(=O)c2ccccc2-c2ccc(C[NH2+]CC(C)C)cc2)c1C (protonated)
Cc1[n-]o/c(=N\S(=O)(=O)c2ccccc2-c2ccc(C[NH2+]CC(C)C)cc2)c1C (cis-trans isomerization)
Cc1[n-]o/c(=N\S(=O)(=O)c2ccccc2-c2ccc(C[NH2+]CC(C)C)cc2)c1C (3D coordinates assigned)
Cc1[n-]o/c(=N\S(=O)(=O)c2ccccc2-c2ccc(C[NH2+]CC(C)C)cc2)c1C (optimized conformer: 91.19874693592952 kcal/mol)

>  <smiles>  (13) 
Cc1[nH]oc(=NS(=O)(=O)c2ccccc2-c2ccc(CNCC(C)C)cc2)c1C

>  <score_type>  (13) 
oracle

>  <origin>  (13) 
adgpu

>  <m_score__min__energy>  (13) 
-11.67

>  <m_primary>  (13) 
energy

$$$$
13:0
     RDKit          3D

 56 59  0  0  0  0  0  0  0  0999 V2000
   -0.5580   24.9400  -28.7230 O   0  0  0  0  0  0  0  0  0  0  0  0
   -1.6190   24.3500  -29.0580 C   0  0  0  0  0  0  0  0  0  0  0  0
   -2.7680   25.1410  -29.3930 N   0  0  0  0  0  0  0  0  0  0  0  0
   -3.9790   24.6570  -29.9890 C   0  0  0  0  0  0  0  0  0  0  0  0
   -3.9180   23.5520  -30.8490 C   0  0  0  0  0  0  0  0  0  0  0  0
   -5.0840   23.0550  -31.4420 C   0  0  0  0  0  0  0  0  0  0  0  0
   -6.3190   23.6490  -31.1690 C   0  0  0  0  0  0  0  0  0  0  0  0
   -6.3930   24.7360  -30.2930 C   0  0  0  0  0  0  0  0  0  0  0  0
   -7.5930   25.3010  -30.0130 F   0  0  0  0  0  0  0  0  0  0  0  0
   -5.2280   25.2370  -29.7000 C   0  0  0  0  0  0  0  0  0  0  0  0
   -1.6620   22.8680  -29.0480 C   0  0  0  0  0  0  0  0  0  0  0  0
   -2.2350   22.1710  -27.9690 C   0  0  0  0  0  0  0  0  0  0  0  0
   -2.2700   20.7750  -27.9680 C   0  0  0  0  0  0  0  0  0  0  0  0
   -1.7280   20.0580  -29.0360 C   0  0  0  0  0  0  0  0  0  0  0  0
   -1.1390   20.7360  -30.1110 C   0  0  0  0  0  0  0  0  0  0  0  0
   -0.4230   19.8310  -31.4450 S   0  0  0  0  0  0  0  0  0  0  0  0
   -0.2780   18.3930  -31.0330 O   0  0  0  0  0  0  0  0  0  0  0  0
    0.9440   20.3780  -31.7470 O   0  0  0  0  0  0  0  0  0  0  0  0
   -1.4430   19.9380  -32.8600 N   0  0  0  0  0  0  0  0  0  0  0  0
   -2.5760   20.8740  -32.6270 C   0  0  0  0  0  0  0  0  0  0  0  0
   -3.8820   20.1350  -32.3010 C   0  0  0  0  0  0  0  0  0  0  0  0
   -4.2910   19.2450  -33.4130 N   0  0  0  0  0  0  0  0  0  0  0  0
   -5.2500   18.2270  -32.9350 C   0  0  0  0  0  0  0  0  0  0  0  0
   -6.5710   18.8680  -32.5970 C   0  0  0  0  0  0  0  0  0  0  0  0
   -6.8690   20.1700  -33.0370 C   0  0  0  0  0  0  0  0  0  0  0  0
   -8.0910   20.7610  -32.7020 C   0  0  0  0  0  0  0  0  0  0  0  0
   -9.0220   20.0600  -31.9310 C   0  0  0  0  0  0  0  0  0  0  0  0
   -8.7330   18.7650  -31.4910 C   0  0  0  0  0  0  0  0  0  0  0  0
   -7.5120   18.1700  -31.8210 C   0  0  0  0  0  0  0  0  0  0  0  0
   -3.1420   18.6370  -34.1350 C   0  0  0  0  0  0  0  0  0  0  0  0
   -1.8750   18.5820  -33.2700 C   0  0  0  0  0  0  0  0  0  0  0  0
   -1.0980   22.1370  -30.1090 C   0  0  0  0  0  0  0  0  0  0  0  0
   -2.9499   23.0736  -31.0586 H   0  0  0  0  0  0  0  0  0  0  0  0
   -5.0282   22.1944  -32.1249 H   0  0  0  0  0  0  0  0  0  0  0  0
   -7.2327   23.2614  -31.6432 H   0  0  0  0  0  0  0  0  0  0  0  0
   -5.2893   26.0876  -29.0052 H   0  0  0  0  0  0  0  0  0  0  0  0
   -2.6582   22.7290  -27.1207 H   0  0  0  0  0  0  0  0  0  0  0  0
   -2.7262   20.2386  -27.1229 H   0  0  0  0  0  0  0  0  0  0  0  0
   -1.7635   18.9586  -29.0335 H   0  0  0  0  0  0  0  0  0  0  0  0
   -0.8500   20.3350  -33.6260 H   0  0  0  0  0  0  0  0  0  0  0  0
   -2.3226   21.5339  -31.7842 H   0  0  0  0  0  0  0  0  0  0  0  0
   -2.7350   21.4482  -33.5517 H   0  0  0  0  0  0  0  0  0  0  0  0
   -3.7343   19.5302  -31.3941 H   0  0  0  0  0  0  0  0  0  0  0  0
   -4.6739   20.8827  -32.1465 H   0  0  0  0  0  0  0  0  0  0  0  0
   -5.4031   17.4749  -33.7230 H   0  0  0  0  0  0  0  0  0  0  0  0
   -4.8432   17.7499  -32.0312 H   0  0  0  0  0  0  0  0  0  0  0  0
   -6.1395   20.7244  -33.6457 H   0  0  0  0  0  0  0  0  0  0  0  0
   -8.3201   21.7803  -33.0462 H   0  0  0  0  0  0  0  0  0  0  0  0
   -9.9829   20.5275  -31.6701 H   0  0  0  0  0  0  0  0  0  0  0  0
   -9.4669   18.2139  -30.8847 H   0  0  0  0  0  0  0  0  0  0  0  0
   -7.2868   17.1515  -31.4719 H   0  0  0  0  0  0  0  0  0  0  0  0
   -3.4125   17.6130  -34.4321 H   0  0  0  0  0  0  0  0  0  0  0  0
   -2.9245   19.2648  -35.0117 H   0  0  0  0  0  0  0  0  0  0  0  0
   -2.0815   17.9845  -32.3698 H   0  0  0  0  0  0  0  0  0  0  0  0
   -1.0691   18.1261  -33.8639 H   0  0  0  0  0  0  0  0  0  0  0  0
   -0.6205   22.6696  -30.9447 H   0  0  0  0  0  0  0  0  0  0  0  0
  1  2  2  0
  2  3  1  0
  3  4  1  0
  4  5  2  0
  5  6  1  0
  6  7  2  0
  7  8  1  0
  8  9  1  0
  8 10  2  0
  2 11  1  0
 11 12  2  0
 12 13  1  0
 13 14  2  0
 14 15  1  0
 15 16  1  0
 16 17  2  0
 16 18  2  0
 16 19  1  0
 19 20  1  0
 20 21  1  0
 21 22  1  0
 22 23  1  0
 23 24  1  0
 24 25  2  0
 25 26  1  0
 26 27  2  0
 27 28  1  0
 28 29  2  0
 22 30  1  0
 30 31  1  0
 15 32  2  0
 10  4  1  0
 32 11  1  0
 31 19  1  0
 29 24  1  0
  5 33  1  0
  6 34  1  0
  7 35  1  0
 10 36  1  0
 12 37  1  0
 13 38  1  0
 14 39  1  0
 19 40  1  0
 20 41  1  0
 20 42  1  0
 21 43  1  0
 21 44  1  0
 23 45  1  0
 23 46  1  0
 25 47  1  0
 26 48  1  0
 27 49  1  0
 28 50  1  0
 29 51  1  0
 30 52  1  0
 30 53  1  0
 31 54  1  0
 31 55  1  0
 32 56  1  0
M  CHG  2   3  -1  19   1
M  END
>  <UniqueID>  (14) 
12

>  <SMILES>  (14) 
O=C([N-]c1cccc(F)c1)c1cccc(S(=O)(=O)[NH+]2CCN(Cc3ccccc3)CC2)c1

>  <Energy>  (14) 
77.00265276043548

>  <Genealogy>  (14) 
O=C([N-]c1cccc(F)c1)c1cccc(S(=O)(=O)[NH+]2CCN(Cc3ccccc3)CC2)c1 (protonated)
O=C([N-]c1cccc(F)c1)c1cccc(S(=O)(=O)[NH+]2CCN(Cc3ccccc3)CC2)c1 (3D coordinates assigned)
O=C([N-]c1cccc(F)c1)c1cccc(S(=O)(=O)[NH+]2CCN(Cc3ccccc3)CC2)c1 (nonaromatic ring conformer: 77.00265276043548 kcal/mol)

>  <smiles>  (14) 
O=C(Nc1cccc(F)c1)c1cccc(S(=O)(=O)N2CCN(Cc3ccccc3)CC2)c1

>  <score_type>  (14) 
oracle

>  <origin>  (14) 
adgpu

>  <m_score__min__energy>  (14) 
-10.92

>  <m_primary>  (14) 
energy

$$$$
14:0
     RDKit          3D

 53 55  0  0  0  0  0  0  0  0999 V2000
   -4.7564   22.1502  -32.2125 H   0  0  0  0  0  0  0  0  0  0  0  0
   -4.8880   21.1700  -32.6940 C   0  0  0  0  0  0  0  0  0  0  0  0
   -3.7600   20.4460  -33.1080 C   0  0  0  0  0  0  0  0  0  0  0  0
   -2.4000   20.9790  -32.8610 C   0  0  0  0  0  0  0  0  0  0  0  0
   -1.6980   21.3510  -33.8390 O   0  0  0  0  0  0  0  0  0  0  0  0
   -1.8330   21.0430  -31.5420 N   0  0  0  0  0  0  0  0  0  0  0  0
   -2.0340   21.9880  -30.6690 C   0  0  0  0  0  0  0  0  0  0  0  0
   -2.7700   23.0900  -30.9840 N   0  0  0  0  0  0  0  0  0  0  0  0
   -3.0030   24.0940  -30.0940 C   0  0  0  0  0  0  0  0  0  0  0  0
   -3.7750   25.2000  -30.4610 O   0  0  0  0  0  0  0  0  0  0  0  0
   -5.1980   25.1880  -30.4310 C   0  0  0  0  0  0  0  0  0  0  0  0
   -5.5427   25.1851  -29.3864 H   0  0  0  0  0  0  0  0  0  0  0  0
   -5.5831   26.0829  -30.9417 H   0  0  0  0  0  0  0  0  0  0  0  0
   -5.5679   24.2867  -30.9417 H   0  0  0  0  0  0  0  0  0  0  0  0
   -2.4670   24.0180  -28.8020 C   0  0  0  0  0  0  0  0  0  0  0  0
   -2.7250   25.0610  -27.9000 O   0  0  0  0  0  0  0  0  0  0  0  0
   -3.4280   24.9070  -26.6730 C   0  0  0  0  0  0  0  0  0  0  0  0
   -2.7354   25.0587  -25.8320 H   0  0  0  0  0  0  0  0  0  0  0  0
   -4.2383   25.6489  -26.6191 H   0  0  0  0  0  0  0  0  0  0  0  0
   -3.8539   23.8942  -26.6191 H   0  0  0  0  0  0  0  0  0  0  0  0
   -1.6900   22.8970  -28.4600 C   0  0  0  0  0  0  0  0  0  0  0  0
   -1.2544   22.8181  -27.4530 H   0  0  0  0  0  0  0  0  0  0  0  0
   -1.4700   21.8840  -29.3950 C   0  0  0  0  0  0  0  0  0  0  0  0
   -0.8568   21.0099  -29.1305 H   0  0  0  0  0  0  0  0  0  0  0  0
   -3.9340   19.2140  -33.7560 C   0  0  0  0  0  0  0  0  0  0  0  0
   -3.0540   18.6596  -34.1142 H   0  0  0  0  0  0  0  0  0  0  0  0
   -5.2170   18.6800  -33.9530 C   0  0  0  0  0  0  0  0  0  0  0  0
   -5.4020   17.3250  -34.6110 C   0  0  0  0  0  0  0  0  0  0  0  0
   -5.7428   17.4975  -35.6425 H   0  0  0  0  0  0  0  0  0  0  0  0
   -6.4800   16.5040  -33.8900 C   0  0  0  0  0  0  0  0  0  0  0  0
   -6.3500   16.6030  -32.8022 H   0  0  0  0  0  0  0  0  0  0  0  0
   -7.4755   16.8748  -34.1755 H   0  0  0  0  0  0  0  0  0  0  0  0
   -6.3871   15.4458  -34.1755 H   0  0  0  0  0  0  0  0  0  0  0  0
   -4.0770   16.5560  -34.6800 C   0  0  0  0  0  0  0  0  0  0  0  0
   -3.7198   16.3487  -33.6605 H   0  0  0  0  0  0  0  0  0  0  0  0
   -4.2312   15.6070  -35.2145 H   0  0  0  0  0  0  0  0  0  0  0  0
   -3.3295   17.1606  -35.2145 H   0  0  0  0  0  0  0  0  0  0  0  0
   -6.3350   19.4090  -33.5150 C   0  0  0  0  0  0  0  0  0  0  0  0
   -7.3433   18.9959  -33.6658 H   0  0  0  0  0  0  0  0  0  0  0  0
   -6.1860   20.6600  -32.8860 C   0  0  0  0  0  0  0  0  0  0  0  0
   -7.3450   21.4020  -32.4340 N   0  0  0  0  0  0  0  0  0  0  0  0
   -8.6120   20.7870  -32.0660 C   0  0  0  0  0  0  0  0  0  0  0  0
   -9.0954   20.3474  -32.9509 H   0  0  0  0  0  0  0  0  0  0  0  0
   -8.4707   19.9759  -31.3365 H   0  0  0  0  0  0  0  0  0  0  0  0
   -9.4700   21.9090  -31.4960 C   0  0  0  0  0  0  0  0  0  0  0  0
  -10.5010   21.8319  -31.8716 H   0  0  0  0  0  0  0  0  0  0  0  0
   -9.5218   21.8625  -30.3982 H   0  0  0  0  0  0  0  0  0  0  0  0
   -8.8260   23.2050  -31.9740 C   0  0  0  0  0  0  0  0  0  0  0  0
   -9.3405   23.5812  -32.8705 H   0  0  0  0  0  0  0  0  0  0  0  0
   -8.8882   23.9950  -31.2111 H   0  0  0  0  0  0  0  0  0  0  0  0
   -7.3820   22.8510  -32.3000 C   0  0  0  0  0  0  0  0  0  0  0  0
   -7.0741   23.3299  -33.2412 H   0  0  0  0  0  0  0  0  0  0  0  0
   -6.6943   23.2010  -31.5160 H   0  0  0  0  0  0  0  0  0  0  0  0
  1  2  1  0
  2  3  2  0
  3  4  1  0
  4  5  2  0
  4  6  1  0
  6  7  2  0
  7  8  1  0
  8  9  1  0
  9 10  1  0
 10 11  1  0
 11 12  1  0
 11 13  1  0
 11 14  1  0
  9 15  2  0
 15 16  1  0
 16 17  1  0
 17 18  1  0
 17 19  1  0
 17 20  1  0
 15 21  1  0
 21 22  1  0
 21 23  2  0
 23 24  1  0
  3 25  1  0
 25 26  1  0
 25 27  2  0
 27 28  1  0
 28 29  1  0
 28 30  1  0
 30 31  1  0
 30 32  1  0
 30 33  1  0
 28 34  1  0
 34 35  1  0
 34 36  1  0
 34 37  1  0
 27 38  1  0
 38 39  1  0
 38 40  2  0
 40 41  1  0
 41 42  1  0
 42 43  1  0
 42 44  1  0
 42 45  1  0
 45 46  1  0
 45 47  1  0
 45 48  1  0
 48 49  1  0
 48 50  1  0
 48 51  1  0
 51 52  1  0
 51 53  1  0
 40  2  1  0
 51 41  1  0
 23  7  1  0
M  CHG  1   8  -1
M  END
>  <UniqueID>  (15) 
13

>  <SMILES>  (15) 
COc1cc/c(=N/C(=O)c2cc(C(C)C)cc(N3CCCC3)c2)[n-]c1OC

>  <Energy>  (15) 
53.91299783219917

>  <Genealogy>  (15) 
COc1ccc(=NC(=O)c2cc(C(C)C)cc(N3CCCC3)c2)[n-]c1OC (protonated)
COc1cc/c(=N/C(=O)c2cc(C(C)C)cc(N3CCCC3)c2)[n-]c1OC (cis-trans isomerization)
COc1cc/c(=N/C(=O)c2cc(C(C)C)cc(N3CCCC3)c2)[n-]c1OC (3D coordinates assigned)
COc1cc/c(=N/C(=O)c2cc(C(C)C)cc(N3CCCC3)c2)[n-]c1OC (nonaromatic ring conformer: 53.91299783219917 kcal/mol)

>  <smiles>  (15) 
COc1ccc(=NC(=O)c2cc(C(C)C)cc(N3CCCC3)c2)[nH]c1OC

>  <score_type>  (15) 
oracle

>  <origin>  (15) 
adgpu

>  <m_score__min__energy>  (15) 
-9.7599999999999998

>  <m_primary>  (15) 
energy

$$$$
15:0
     RDKit          3D

 58 61  0  0  0  0  0  0  0  0999 V2000
   -1.3820   18.5690  -31.9690 O   0  0  0  0  0  0  0  0  0  0  0  0
   -2.3550   19.2170  -32.4450 C   0  0  0  0  0  0  0  0  0  0  0  0
   -2.9960   18.7490  -33.6390 N   0  0  0  0  0  0  0  0  0  0  0  0
   -4.3170   18.1910  -33.6610 C   0  0  0  0  0  0  0  0  0  0  0  0
   -4.5210   16.9240  -34.2220 C   0  0  0  0  0  0  0  0  0  0  0  0
   -5.7930   16.3430  -34.2020 C   0  0  0  0  0  0  0  0  0  0  0  0
   -6.8640   17.0110  -33.5960 C   0  0  0  0  0  0  0  0  0  0  0  0
   -6.6620   18.2660  -33.0030 C   0  0  0  0  0  0  0  0  0  0  0  0
   -7.9600   19.0860  -32.1400 S   0  0  0  0  0  0  0  0  0  0  0  0
   -8.4130   18.2580  -30.9650 O   0  0  0  0  0  0  0  0  0  0  0  0
   -9.1190   19.2810  -33.0810 O   0  0  0  0  0  0  0  0  0  0  0  0
   -7.3730   20.6380  -31.5840 N   0  0  0  0  0  0  0  0  0  0  0  0
   -7.0310   21.4890  -32.7430 C   0  0  0  0  0  0  0  0  0  0  0  0
   -6.7760   22.9620  -32.3360 C   0  0  0  0  0  0  0  0  0  0  0  0
   -6.5940   23.1130  -30.8220 C   0  0  0  0  0  0  0  0  0  0  0  0
   -7.8110   22.5490  -30.0670 C   0  0  0  0  0  0  0  0  0  0  0  0
   -8.3900   21.2870  -30.7390 C   0  0  0  0  0  0  0  0  0  0  0  0
   -5.3920   18.8570  -33.0460 C   0  0  0  0  0  0  0  0  0  0  0  0
   -2.7980   20.4690  -31.7970 C   0  0  0  0  0  0  0  0  0  0  0  0
   -3.3210   21.5280  -32.5630 C   0  0  0  0  0  0  0  0  0  0  0  0
   -3.6260   22.7530  -31.9620 C   0  0  0  0  0  0  0  0  0  0  0  0
   -3.4150   22.9370  -30.5890 C   0  0  0  0  0  0  0  0  0  0  0  0
   -3.6560   24.5140  -29.8460 S   0  0  0  0  0  0  0  0  0  0  0  0
   -4.5560   24.3580  -28.6570 O   0  0  0  0  0  0  0  0  0  0  0  0
   -4.2840   25.4750  -30.8170 O   0  0  0  0  0  0  0  0  0  0  0  0
   -2.1200   25.1400  -29.3360 N   0  0  0  0  0  0  0  0  0  0  0  0
   -1.4440   24.7490  -28.1320 C   0  0  0  0  0  0  0  0  0  0  0  0
   -1.8620   25.3010  -26.9160 C   0  0  0  0  0  0  0  0  0  0  0  0
   -1.2580   24.9080  -25.7130 C   0  0  0  0  0  0  0  0  0  0  0  0
   -0.2280   23.9650  -25.7190 C   0  0  0  0  0  0  0  0  0  0  0  0
    0.3550   23.5760  -24.5140 O   0  0  0  0  0  0  0  0  0  0  0  0
    0.2100   23.4220  -26.9330 C   0  0  0  0  0  0  0  0  0  0  0  0
   -0.3890   23.8160  -28.1360 C   0  0  0  0  0  0  0  0  0  0  0  0
   -2.9360   21.8740  -29.8150 C   0  0  0  0  0  0  0  0  0  0  0  0
   -2.6270   20.6500  -30.4120 C   0  0  0  0  0  0  0  0  0  0  0  0
   -3.6786   16.3845  -34.6795 H   0  0  0  0  0  0  0  0  0  0  0  0
   -5.9527   15.3576  -34.6641 H   0  0  0  0  0  0  0  0  0  0  0  0
   -7.8635   16.5517  -33.5850 H   0  0  0  0  0  0  0  0  0  0  0  0
   -6.1223   21.0909  -33.2182 H   0  0  0  0  0  0  0  0  0  0  0  0
   -7.8858   21.4743  -33.4352 H   0  0  0  0  0  0  0  0  0  0  0  0
   -5.8659   23.3180  -32.8409 H   0  0  0  0  0  0  0  0  0  0  0  0
   -7.6529   23.5550  -32.6348 H   0  0  0  0  0  0  0  0  0  0  0  0
   -5.6914   22.5666  -30.5109 H   0  0  0  0  0  0  0  0  0  0  0  0
   -6.4951   24.1822  -30.5833 H   0  0  0  0  0  0  0  0  0  0  0  0
   -7.5031   22.2933  -29.0424 H   0  0  0  0  0  0  0  0  0  0  0  0
   -8.5951   23.3205  -30.0730 H   0  0  0  0  0  0  0  0  0  0  0  0
   -8.7181   20.5814  -29.9615 H   0  0  0  0  0  0  0  0  0  0  0  0
   -9.2419   21.5799  -31.3703 H   0  0  0  0  0  0  0  0  0  0  0  0
   -5.2351   19.8483  -32.5958 H   0  0  0  0  0  0  0  0  0  0  0  0
   -3.4908   21.3909  -33.6411 H   0  0  0  0  0  0  0  0  0  0  0  0
   -4.0330   23.5751  -32.5690 H   0  0  0  0  0  0  0  0  0  0  0  0
   -2.6695   26.0479  -26.9037 H   0  0  0  0  0  0  0  0  0  0  0  0
   -1.5966   25.3439  -24.7615 H   0  0  0  0  0  0  0  0  0  0  0  0
    0.3680   24.1920  -23.7060 H   0  0  0  0  0  0  0  0  0  0  0  0
    1.0261   22.6845  -26.9418 H   0  0  0  0  0  0  0  0  0  0  0  0
   -0.0340   23.3949  -29.0882 H   0  0  0  0  0  0  0  0  0  0  0  0
   -2.8022   22.0033  -28.7308 H   0  0  0  0  0  0  0  0  0  0  0  0
   -2.2474   19.8218  -29.7955 H   0  0  0  0  0  0  0  0  0  0  0  0
  1  2  2  0
  2  3  1  0
  3  4  1  0
  4  5  2  0
  5  6  1  0
  6  7  2  0
  7  8  1  0
  8  9  1  0
  9 10  2  0
  9 11  2  0
  9 12  1  0
 12 13  1  0
 13 14  1  0
 14 15  1  0
 15 16  1  0
 16 17  1  0
  8 18  2  0
  2 19  1  0
 19 20  2  0
 20 21  1  0
 21 22  2  0
 22 23  1  0
 23 24  2  0
 23 25  2  0
 23 26  1  0
 26 27  1  0
 27 28  2  0
 28 29  1  0
 29 30  2  0
 30 31  1  0
 30 32  1  0
 32 33  2  0
 22 34  1  0
 34 35  2  0
 18  4  1  0
 35 19  1  0
 17 12  1  0
 33 27  1  0
  5 36  1  0
  6 37  1  0
  7 38  1  0
 13 39  1  0
 13 40  1  0
 14 41  1  0
 14 42  1  0
 15 43  1  0
 15 44  1  0
 16 45  1  0
 16 46  1  0
 17 47  1  0
 17 48  1  0
 18 49  1  0
 20 50  1  0
 21 51  1  0
 28 52  1  0
 29 53  1  0
 31 54  1  0
 32 55  1  0
 33 56  1  0
 34 57  1  0
 35 58  1  0
M  CHG  2   3  -1  26  -1
M  END
>  <UniqueID>  (16) 
14

>  <SMILES>  (16) 
O=C([N-]c1cccc(S(=O)(=O)N2CCCCC2)c1)c1ccc(S(=O)(=O)[N-]c2ccc(O)cc2)cc1

>  <Energy>  (16) 
72.23853172719238

>  <Genealogy>  (16) 
O=C([N-]c1cccc(S(=O)(=O)N2CCCCC2)c1)c1ccc(S(=O)(=O)[N-]c2ccc(O)cc2)cc1 (protonated)
O=C([N-]c1cccc(S(=O)(=O)N2CCCCC2)c1)c1ccc(S(=O)(=O)[N-]c2ccc(O)cc2)cc1 (3D coordinates assigned)
O=C([N-]c1cccc(S(=O)(=O)N2CCCCC2)c1)c1ccc(S(=O)(=O)[N-]c2ccc(O)cc2)cc1 (nonaromatic ring conformer: 72.23853172719238 kcal/mol)

>  <smiles>  (16) 
O=C(Nc1cccc(S(=O)(=O)N2CCCCC2)c1)c1ccc(S(=O)(=O)Nc2ccc(O)cc2)cc1

>  <score_type>  (16) 
oracle

>  <origin>  (16) 
adgpu

>  <m_score__min__energy>  (16) 
-13.039999999999999

>  <m_primary>  (16) 
energy

$$$$
16:0
     RDKit          3D

 55 57  0  0  0  0  0  0  0  0999 V2000
   -1.2400   26.2990  -30.0780 H   0  0  0  0  0  0  0  0  0  0  0  0
   -1.2780   25.6360  -29.2720 N   0  0  0  0  0  0  0  0  0  0  0  0
   -2.3210   24.9030  -29.0440 C   0  0  0  0  0  0  0  0  0  0  0  0
   -3.3980   24.9910  -29.8720 N   0  0  0  0  0  0  0  0  0  0  0  0
   -4.5250   24.2530  -29.6830 C   0  0  0  0  0  0  0  0  0  0  0  0
   -5.6310   24.3080  -30.7070 C   0  0  0  0  0  0  0  0  0  0  0  0
   -6.4213   24.9829  -30.3466 H   0  0  0  0  0  0  0  0  0  0  0  0
   -5.2119   24.6758  -31.6552 H   0  0  0  0  0  0  0  0  0  0  0  0
   -6.2110   22.9620  -30.9380 N   0  0  2  0  0  0  0  0  0  0  0  0
   -5.9690   22.4040  -30.0880 H   0  0  0  0  0  0  0  0  0  0  0  0
   -5.5920   22.3420  -32.1020 C   0  0  0  0  0  0  0  0  0  0  0  0
   -4.8100   23.0110  -32.8330 O   0  0  0  0  0  0  0  0  0  0  0  0
   -5.7110   20.8830  -32.3490 C   0  0  0  0  0  0  0  0  0  0  0  0
   -5.3360   19.9400  -31.3770 C   0  0  0  0  0  0  0  0  0  0  0  0
   -4.9924   20.2804  -30.3891 H   0  0  0  0  0  0  0  0  0  0  0  0
   -5.3970   18.5710  -31.6580 C   0  0  0  0  0  0  0  0  0  0  0  0
   -5.1006   17.8429  -30.8885 H   0  0  0  0  0  0  0  0  0  0  0  0
   -5.8330   18.1180  -32.9130 C   0  0  0  0  0  0  0  0  0  0  0  0
   -5.8700   16.6660  -33.2200 C   0  0  0  0  0  0  0  0  0  0  0  0
   -6.8290   16.1500  -34.1120 C   0  0  0  0  0  0  0  0  0  0  0  0
   -7.5645   16.8246  -34.5745 H   0  0  0  0  0  0  0  0  0  0  0  0
   -6.8520   14.7870  -34.4130 C   0  0  0  0  0  0  0  0  0  0  0  0
   -7.6012   14.3944  -35.1162 H   0  0  0  0  0  0  0  0  0  0  0  0
   -5.9290   13.9200  -33.8260 C   0  0  0  0  0  0  0  0  0  0  0  0
   -5.9475   12.8486  -34.0746 H   0  0  0  0  0  0  0  0  0  0  0  0
   -4.9770   14.4120  -32.9190 C   0  0  0  0  0  0  0  0  0  0  0  0
   -3.9620   13.4900  -32.3130 C   0  0  0  0  0  0  0  0  0  0  0  0
   -4.0241   13.5464  -31.2162 H   0  0  0  0  0  0  0  0  0  0  0  0
   -4.1625   12.4588  -32.6391 H   0  0  0  0  0  0  0  0  0  0  0  0
   -2.9547   13.7884  -32.6391 H   0  0  0  0  0  0  0  0  0  0  0  0
   -4.9420   15.7860  -32.6320 C   0  0  0  0  0  0  0  0  0  0  0  0
   -4.1818   16.1787  -31.9407 H   0  0  0  0  0  0  0  0  0  0  0  0
   -6.2300   19.0600  -33.8760 C   0  0  0  0  0  0  0  0  0  0  0  0
   -6.5853   18.7188  -34.8595 H   0  0  0  0  0  0  0  0  0  0  0  0
   -6.1770   20.4270  -33.5940 C   0  0  0  0  0  0  0  0  0  0  0  0
   -6.5029   21.1532  -34.3532 H   0  0  0  0  0  0  0  0  0  0  0  0
   -7.7050   22.9790  -30.9860 C   0  0  0  0  0  0  0  0  0  0  0  0
   -7.9915   23.7581  -30.2643 H   0  0  0  0  0  0  0  0  0  0  0  0
   -8.3070   23.4110  -32.3410 C   0  0  0  0  0  0  0  0  0  0  0  0
   -9.1892   24.0441  -32.1651 H   0  0  0  0  0  0  0  0  0  0  0  0
   -7.5567   23.9780  -32.9115 H   0  0  0  0  0  0  0  0  0  0  0  0
   -8.6039   22.5186  -32.9115 H   0  0  0  0  0  0  0  0  0  0  0  0
   -8.2970   21.6250  -30.5570 C   0  0  0  0  0  0  0  0  0  0  0  0
   -8.3222   21.5673  -29.4588 H   0  0  0  0  0  0  0  0  0  0  0  0
   -9.3189   21.5297  -30.9528 H   0  0  0  0  0  0  0  0  0  0  0  0
   -7.6731   20.8101  -30.9528 H   0  0  0  0  0  0  0  0  0  0  0  0
   -4.5930   23.3630  -28.6040 C   0  0  0  0  0  0  0  0  0  0  0  0
   -5.4966   22.7572  -28.4410 H   0  0  0  0  0  0  0  0  0  0  0  0
   -3.5060   23.2510  -27.7380 C   0  0  0  0  0  0  0  0  0  0  0  0
   -3.5589   22.5661  -26.8788 H   0  0  0  0  0  0  0  0  0  0  0  0
   -2.3460   24.0070  -27.9570 C   0  0  0  0  0  0  0  0  0  0  0  0
   -1.1800   23.8910  -27.0110 C   0  0  0  0  0  0  0  0  0  0  0  0
   -1.5444   23.9273  -25.9737 H   0  0  0  0  0  0  0  0  0  0  0  0
   -0.6609   22.9368  -27.1841 H   0  0  0  0  0  0  0  0  0  0  0  0
   -0.4831   24.7242  -27.1841 H   0  0  0  0  0  0  0  0  0  0  0  0
  1  2  1  0
  2  3  2  0
  3  4  1  0
  4  5  1  0
  5  6  1  0
  6  7  1  0
  6  8  1  0
  6  9  1  0
  9 10  1  1
  9 11  1  0
 11 12  2  0
 11 13  1  0
 13 14  2  0
 14 15  1  0
 14 16  1  0
 16 17  1  0
 16 18  2  0
 18 19  1  0
 19 20  2  0
 20 21  1  0
 20 22  1  0
 22 23  1  0
 22 24  2  0
 24 25  1  0
 24 26  1  0
 26 27  1  0
 27 28  1  0
 27 29  1  0
 27 30  1  0
 26 31  2  0
 31 32  1  0
 18 33  1  0
 33 34  1  0
 33 35  2  0
 35 36  1  0
  9 37  1  0
 37 38  1  0
 37 39  1  0
 39 40  1  0
 39 41  1  0
 39 42  1  0
 37 43  1  0
 43 44  1  0
 43 45  1  0
 43 46  1  0
  5 47  2  0
 47 48  1  0
 47 49  1  0
 49 50  1  0
 49 51  2  0
 51 52  1  0
 52 53  1  0
 52 54  1  0
 52 55  1  0
 51  3  1  0
 35 13  1  0
 31 19  1  0
M  CHG  2   4  -1   9   1
M  END
>  <UniqueID>  (17) 
15

>  <SMILES>  (17) 
[H]/N=c1\[n-]c(C[N@H+](C(=O)c2ccc(-c3cccc(C)c3)cc2)C(C)C)ccc1C

>  <Energy>  (17) 
68.74138617125932

>  <Genealogy>  (17) 
Cc1cccc(-c2ccc(C(=O)[NH+](Cc3ccc(C)c(=N)[n-]3)C(C)C)cc2)c1 (protonated)
Cc1cccc(-c2ccc(C(=O)[N@@H+](Cc3ccc(C)c(=N)[n-]3)C(C)C)cc2)c1 (chirality)
[H]/N=c1\[n-]c(C[N@H+](C(=O)c2ccc(-c3cccc(C)c3)cc2)C(C)C)ccc1C (cis-trans isomerization)
[H]/N=c1\[n-]c(C[N@H+](C(=O)c2ccc(-c3cccc(C)c3)cc2)C(C)C)ccc1C (3D coordinates assigned)
[H]/N=c1\[n-]c(C[N@H+](C(=O)c2ccc(-c3cccc(C)c3)cc2)C(C)C)ccc1C (optimized conformer: 68.74138617125932 kcal/mol)

>  <smiles>  (17) 
Cc1cccc(-c2ccc(C(=O)N(Cc3ccc(C)c(=N)[nH]3)C(C)C)cc2)c1

>  <score_type>  (17) 
oracle

>  <origin>  (17) 
adgpu

>  <m_score__min__energy>  (17) 
-10.85

>  <m_primary>  (17) 
energy

$$$$
17:0
     RDKit          3D

 54 57  0  0  0  0  0  0  0  0999 V2000
   -5.1780   22.2004  -32.0894 H   0  0  0  0  0  0  0  0  0  0  0  0
   -5.3750   21.2070  -31.6600 C   0  0  0  0  0  0  0  0  0  0  0  0
   -4.4530   20.6870  -30.8400 C   0  0  0  0  0  0  0  0  0  0  0  0
   -4.5787   19.6595  -30.4681 H   0  0  0  0  0  0  0  0  0  0  0  0
   -3.2500   21.4820  -30.4190 C   0  0  0  0  0  0  0  0  0  0  0  0
   -2.3384   20.9848  -30.7819 H   0  0  0  0  0  0  0  0  0  0  0  0
   -3.3153   22.4936  -30.8461 H   0  0  0  0  0  0  0  0  0  0  0  0
   -3.2040   21.5760  -28.9540 N   0  0  0  0  0  0  0  0  0  0  0  0
   -2.4670   20.5910  -28.2070 C   0  0  0  0  0  0  0  0  0  0  0  0
   -3.1580   19.6860  -27.3860 C   0  0  0  0  0  0  0  0  0  0  0  0
   -4.2488   19.7729  -27.2736 H   0  0  0  0  0  0  0  0  0  0  0  0
   -2.4690   18.6760  -26.7110 C   0  0  0  0  0  0  0  0  0  0  0  0
   -3.0158   17.9828  -26.0548 H   0  0  0  0  0  0  0  0  0  0  0  0
   -1.0880   18.5440  -26.8670 C   0  0  0  0  0  0  0  0  0  0  0  0
   -0.5497   17.7404  -26.3431 H   0  0  0  0  0  0  0  0  0  0  0  0
   -0.3900   19.4320  -27.6880 C   0  0  0  0  0  0  0  0  0  0  0  0
    0.6962   19.3175  -27.8186 H   0  0  0  0  0  0  0  0  0  0  0  0
   -1.0660   20.4690  -28.3470 C   0  0  0  0  0  0  0  0  0  0  0  0
   -0.1200   21.5970  -29.3820 S   0  0  0  0  0  0  0  0  0  0  0  0
   -0.5160   23.0410  -28.3920 C   0  0  0  0  0  0  0  0  0  0  0  0
   -0.5410   22.9450  -26.9930 C   0  0  0  0  0  0  0  0  0  0  0  0
   -0.3294   21.9828  -26.5038 H   0  0  0  0  0  0  0  0  0  0  0  0
   -0.8350   24.0730  -26.2200 C   0  0  0  0  0  0  0  0  0  0  0  0
   -0.8582   23.9957  -25.1230 H   0  0  0  0  0  0  0  0  0  0  0  0
   -1.1000   25.3010  -26.8400 C   0  0  0  0  0  0  0  0  0  0  0  0
   -1.3483   26.1823  -26.2304 H   0  0  0  0  0  0  0  0  0  0  0  0
   -1.0490   25.4070  -28.2330 C   0  0  0  0  0  0  0  0  0  0  0  0
   -1.2333   26.3766  -28.7188 H   0  0  0  0  0  0  0  0  0  0  0  0
   -0.7630   24.2770  -29.0090 C   0  0  0  0  0  0  0  0  0  0  0  0
   -0.7318   24.3584  -30.1055 H   0  0  0  0  0  0  0  0  0  0  0  0
   -3.9470   22.6360  -28.2490 C   0  0  0  0  0  0  0  0  0  0  0  0
   -4.7314   22.1732  -27.6322 H   0  0  0  0  0  0  0  0  0  0  0  0
   -3.2378   23.1975  -27.6231 H   0  0  0  0  0  0  0  0  0  0  0  0
   -4.5900   23.6000  -29.2200 C   0  0  0  0  0  0  0  0  0  0  0  0
   -3.8140   24.5480  -29.9070 C   0  0  0  0  0  0  0  0  0  0  0  0
   -2.7371   24.6272  -29.6970 H   0  0  0  0  0  0  0  0  0  0  0  0
   -4.3830   25.3680  -30.8290 N   0  0  0  0  0  0  0  0  0  0  0  0
   -5.7100   25.3030  -31.1170 C   0  0  0  0  0  0  0  0  0  0  0  0
   -6.1434   25.9805  -31.8674 H   0  0  0  0  0  0  0  0  0  0  0  0
   -6.5230   24.3770  -30.4610 C   0  0  0  0  0  0  0  0  0  0  0  0
   -7.5962   24.3172  -30.6949 H   0  0  0  0  0  0  0  0  0  0  0  0
   -5.9620   23.5270  -29.5050 C   0  0  0  0  0  0  0  0  0  0  0  0
   -6.5958   22.8004  -28.9756 H   0  0  0  0  0  0  0  0  0  0  0  0
   -6.6470   20.5320  -32.0290 C   0  0  0  0  0  0  0  0  0  0  0  0
   -6.7180   19.1660  -32.3820 C   0  0  0  0  0  0  0  0  0  0  0  0
   -5.7996   18.5617  -32.4194 H   0  0  0  0  0  0  0  0  0  0  0  0
   -7.9540   18.5770  -32.6850 C   0  0  0  0  0  0  0  0  0  0  0  0
   -7.9986   17.5169  -32.9753 H   0  0  0  0  0  0  0  0  0  0  0  0
   -9.1290   19.3300  -32.6200 C   0  0  0  0  0  0  0  0  0  0  0  0
  -10.0968   18.8611  -32.8513 H   0  0  0  0  0  0  0  0  0  0  0  0
   -9.0740   20.6750  -32.2620 C   0  0  0  0  0  0  0  0  0  0  0  0
   -9.9994   21.2672  -32.2088 H   0  0  0  0  0  0  0  0  0  0  0  0
   -7.8440   21.2740  -31.9700 C   0  0  0  0  0  0  0  0  0  0  0  0
   -7.8105   22.3375  -31.6908 H   0  0  0  0  0  0  0  0  0  0  0  0
  1  2  1  0
  2  3  2  0
  3  4  1  0
  3  5  1  0
  5  6  1  0
  5  7  1  0
  5  8  1  0
  8  9  1  0
  9 10  2  0
 10 11  1  0
 10 12  1  0
 12 13  1  0
 12 14  2  0
 14 15  1  0
 14 16  1  0
 16 17  1  0
 16 18  2  0
 18 19  1  0
 19 20  1  0
 20 21  2  0
 21 22  1  0
 21 23  1  0
 23 24  1  0
 23 25  2  0
 25 26  1  0
 25 27  1  0
 27 28  1  0
 27 29  2  0
 29 30  1  0
  8 31  1  0
 31 32  1  0
 31 33  1  0
 31 34  1  0
 34 35  2  0
 35 36  1  0
 35 37  1  0
 37 38  2  0
 38 39  1  0
 38 40  1  0
 40 41  1  0
 40 42  2  0
 42 43  1  0
  2 44  1  0
 44 45  2  0
 45 46  1  0
 45 47  1  0
 47 48  1  0
 47 49  2  0
 49 50  1  0
 49 51  1  0
 51 52  1  0
 51 53  2  0
 53 54  1  0
 18  9  1  0
 29 20  1  0
 42 34  1  0
 53 44  1  0
M  END
>  <UniqueID>  (18) 
16

>  <SMILES>  (18) 
C(=C/c1ccccc1)\CN(Cc1cccnc1)c1ccccc1Sc1ccccc1

>  <Energy>  (18) 
58.61652237219149

>  <Genealogy>  (18) 
C(=C/c1ccccc1)\CN(Cc1cccnc1)c1ccccc1Sc1ccccc1 (cis-trans isomerization)
C(=C/c1ccccc1)\CN(Cc1cccnc1)c1ccccc1Sc1ccccc1 (3D coordinates assigned)
C(=C/c1ccccc1)\CN(Cc1cccnc1)c1ccccc1Sc1ccccc1 (optimized conformer: 58.61652237219149 kcal/mol)

>  <smiles>  (18) 
C(=Cc1ccccc1)CN(Cc1cccnc1)c1ccccc1Sc1ccccc1

>  <score_type>  (18) 
oracle

>  <origin>  (18) 
adgpu

>  <m_score__min__energy>  (18) 
-9.3900000000000006

>  <m_primary>  (18) 
energy

$$$$
18:0
     RDKit          3D

 40 42  0  0  0  0  0  0  0  0999 V2000
    0.1600   22.6350  -22.2750 H   0  0  0  0  0  0  0  0  0  0  0  0
   -0.1930   22.0870  -23.0920 N   0  0  0  0  0  0  0  0  0  0  0  0
   -0.3850   22.6280  -24.2520 C   0  0  0  0  0  0  0  0  0  0  0  0
   -0.8570   21.8440  -25.3110 C   0  0  0  0  0  0  0  0  0  0  0  0
   -1.0632   20.7742  -25.1593 H   0  0  0  0  0  0  0  0  0  0  0  0
   -1.0640   22.4290  -26.5600 C   0  0  0  0  0  0  0  0  0  0  0  0
   -1.4314   21.8201  -27.3992 H   0  0  0  0  0  0  0  0  0  0  0  0
   -0.8040   23.7900  -26.7440 C   0  0  0  0  0  0  0  0  0  0  0  0
   -1.0340   24.5370  -28.3200 S   0  0  0  0  0  0  0  0  0  0  0  0
    0.1560   24.2620  -29.1970 O   0  0  0  0  0  0  0  0  0  0  0  0
   -1.1650   26.0270  -28.1660 O   0  0  0  0  0  0  0  0  0  0  0  0
   -2.4890   23.8810  -29.0590 C   0  0  0  0  0  0  0  0  0  0  0  0
   -3.7490   24.2070  -28.5440 C   0  0  0  0  0  0  0  0  0  0  0  0
   -3.8297   24.8897  -27.6853 H   0  0  0  0  0  0  0  0  0  0  0  0
   -4.9050   23.6690  -29.1160 C   0  0  0  0  0  0  0  0  0  0  0  0
   -5.8910   23.9347  -28.7071 H   0  0  0  0  0  0  0  0  0  0  0  0
   -4.8170   22.7900  -30.2110 C   0  0  0  0  0  0  0  0  0  0  0  0
   -6.0440   22.2160  -30.8190 C   0  0  0  0  0  0  0  0  0  0  0  0
   -7.2950   22.8250  -30.6120 C   0  0  0  0  0  0  0  0  0  0  0  0
   -7.3660   23.7295  -29.9900 H   0  0  0  0  0  0  0  0  0  0  0  0
   -8.4480   22.2890  -31.1910 C   0  0  0  0  0  0  0  0  0  0  0  0
   -9.4210   22.7748  -31.0261 H   0  0  0  0  0  0  0  0  0  0  0  0
   -8.3690   21.1390  -31.9780 C   0  0  0  0  0  0  0  0  0  0  0  0
   -9.2789   20.7265  -32.4383 H   0  0  0  0  0  0  0  0  0  0  0  0
   -7.1350   20.5080  -32.1840 C   0  0  0  0  0  0  0  0  0  0  0  0
   -7.0430   19.2930  -33.0660 C   0  0  0  0  0  0  0  0  0  0  0  0
   -6.4364   18.5246  -32.5645 H   0  0  0  0  0  0  0  0  0  0  0  0
   -8.0558   18.9070  -33.2537 H   0  0  0  0  0  0  0  0  0  0  0  0
   -6.4470   19.6290  -34.2880 O   0  0  0  0  0  0  0  0  0  0  0  0
   -7.1780   19.6640  -34.9600 H   0  0  0  0  0  0  0  0  0  0  0  0
   -5.9730   21.0570  -31.6150 C   0  0  0  0  0  0  0  0  0  0  0  0
   -4.9995   20.5768  -31.7932 H   0  0  0  0  0  0  0  0  0  0  0  0
   -3.5460   22.4610  -30.7180 C   0  0  0  0  0  0  0  0  0  0  0  0
   -3.4606   21.7750  -31.5736 H   0  0  0  0  0  0  0  0  0  0  0  0
   -2.3920   22.9990  -30.1430 C   0  0  0  0  0  0  0  0  0  0  0  0
   -1.4035   22.7290  -30.5430 H   0  0  0  0  0  0  0  0  0  0  0  0
   -0.3240   24.5420  -25.6660 C   0  0  0  0  0  0  0  0  0  0  0  0
   -0.1040   25.6115  -25.7993 H   0  0  0  0  0  0  0  0  0  0  0  0
   -0.1280   23.9560  -24.4530 N   0  0  0  0  0  0  0  0  0  0  0  0
    0.2300   24.5450  -23.6670 H   0  0  0  0  0  0  0  0  0  0  0  0
  1  2  1  0
  2  3  2  0
  3  4  1  0
  4  5  1  0
  4  6  2  0
  6  7  1  0
  6  8  1  0
  8  9  1  0
  9 10  2  0
  9 11  2  0
  9 12  1  0
 12 13  2  0
 13 14  1  0
 13 15  1  0
 15 16  1  0
 15 17  2  0
 17 18  1  0
 18 19  2  0
 19 20  1  0
 19 21  1  0
 21 22  1  0
 21 23  2  0
 23 24  1  0
 23 25  1  0
 25 26  1  0
 26 27  1  0
 26 28  1  0
 26 29  1  0
 29 30  1  0
 25 31  2  0
 31 32  1  0
 17 33  1  0
 33 34  1  0
 33 35  2  0
 35 36  1  0
  8 37  2  0
 37 38  1  0
 37 39  1  0
 39 40  1  0
 39  3  1  0
 35 12  1  0
 31 18  1  0
M  END
>  <UniqueID>  (19) 
17

>  <SMILES>  (19) 
[H]/N=c1/ccc(S(=O)(=O)c2ccc(-c3cccc(CO)c3)cc2)c[nH]1

>  <Energy>  (19) 
49.55710160621277

>  <Genealogy>  (19) 
[H]/N=c1/ccc(S(=O)(=O)c2ccc(-c3cccc(CO)c3)cc2)c[nH]1 (cis-trans isomerization)
[H]/N=c1/ccc(S(=O)(=O)c2ccc(-c3cccc(CO)c3)cc2)c[nH]1 (3D coordinates assigned)
[H]/N=c1/ccc(S(=O)(=O)c2ccc(-c3cccc(CO)c3)cc2)c[nH]1 (optimized conformer: 49.55710160621277 kcal/mol)

>  <smiles>  (19) 
N=c1ccc(S(=O)(=O)c2ccc(-c3cccc(CO)c3)cc2)c[nH]1

>  <score_type>  (19) 
oracle

>  <origin>  (19) 
adgpu

>  <m_score__min__energy>  (19) 
-9.0099999999999998

>  <m_primary>  (19) 
energy

$$$$
19:0
     RDKit          3D

 26 27  0  0  0  0  0  0  0  0999 V2000
   -1.8750   20.5830  -31.3090 O   0  0  0  0  0  0  0  0  0  0  0  0
   -2.7520   21.0360  -32.0890 C   0  0  0  0  0  0  0  0  0  0  0  0
   -2.9300   20.4260  -33.3260 O   0  0  0  0  0  0  0  0  0  0  0  0
   -3.5610   22.2270  -31.7240 C   0  0  0  0  0  0  0  0  0  0  0  0
   -2.9730   23.2180  -30.9160 C   0  0  0  0  0  0  0  0  0  0  0  0
   -3.7080   24.3330  -30.5040 C   0  0  0  0  0  0  0  0  0  0  0  0
   -3.1140   25.2990  -29.7000 O   0  0  0  0  0  0  0  0  0  0  0  0
   -5.0380   24.4760  -30.8950 C   0  0  0  0  0  0  0  0  0  0  0  0
   -5.6350   23.5110  -31.7060 C   0  0  0  0  0  0  0  0  0  0  0  0
   -4.9130   22.3800  -32.1270 C   0  0  0  0  0  0  0  0  0  0  0  0
   -5.5280   21.4480  -33.0340 N   0  0  0  0  0  0  0  0  0  0  0  0
   -6.5830   20.5460  -32.6590 C   0  0  0  0  0  0  0  0  0  0  0  0
   -6.3110   19.1720  -32.5690 C   0  0  0  0  0  0  0  0  0  0  0  0
   -7.3150   18.2730  -32.1970 C   0  0  0  0  0  0  0  0  0  0  0  0
   -8.5970   18.7410  -31.8970 C   0  0  0  0  0  0  0  0  0  0  0  0
   -9.5690   17.8680  -31.5350 F   0  0  0  0  0  0  0  0  0  0  0  0
   -8.8730   20.1090  -31.9600 C   0  0  0  0  0  0  0  0  0  0  0  0
   -7.8730   21.0140  -32.3330 C   0  0  0  0  0  0  0  0  0  0  0  0
   -8.1570   22.3400  -32.3360 F   0  0  0  0  0  0  0  0  0  0  0  0
   -1.9230   23.1138  -30.6052 H   0  0  0  0  0  0  0  0  0  0  0  0
   -5.6173   25.3505  -30.5638 H   0  0  0  0  0  0  0  0  0  0  0  0
   -6.6819   23.6359  -32.0197 H   0  0  0  0  0  0  0  0  0  0  0  0
   -5.2820   21.5240  -34.0460 H   0  0  0  0  0  0  0  0  0  0  0  0
   -5.3004   18.7997  -32.7928 H   0  0  0  0  0  0  0  0  0  0  0  0
   -7.0956   17.1966  -32.1404 H   0  0  0  0  0  0  0  0  0  0  0  0
   -9.8806   20.4763  -31.7154 H   0  0  0  0  0  0  0  0  0  0  0  0
  1  2  2  0
  2  3  1  0
  2  4  1  0
  4  5  2  0
  5  6  1  0
  6  7  1  0
  6  8  2  0
  8  9  1  0
  9 10  2  0
 10 11  1  0
 11 12  1  0
 12 13  2  0
 13 14  1  0
 14 15  2  0
 15 16  1  0
 15 17  1  0
 17 18  2  0
 18 19  1  0
 10  4  1  0
 18 12  1  0
  5 20  1  0
  8 21  1  0
  9 22  1  0
 11 23  1  0
 13 24  1  0
 14 25  1  0
 17 26  1  0
M  CHG  2   3  -1   7  -1
M  END
>  <UniqueID>  (20) 
18

>  <SMILES>  (20) 
O=C([O-])c1cc([O-])ccc1Nc1ccc(F)cc1F

>  <Energy>  (20) 
37.65384149136746

>  <Genealogy>  (20) 
O=C([O-])c1cc([O-])ccc1Nc1ccc(F)cc1F (protonated)
O=C([O-])c1cc([O-])ccc1Nc1ccc(F)cc1F (3D coordinates assigned)
O=C([O-])c1cc([O-])ccc1Nc1ccc(F)cc1F (optimized conformer: 37.65384149136746 kcal/mol)

>  <smiles>  (20) 
O=C(O)c1cc(O)ccc1Nc1ccc(F)cc1F

>  <score_type>  (20) 
oracle

>  <origin>  (20) 
adgpu

>  <m_score__min__energy>  (20) 
-9.6899999999999995

>  <m_primary>  (20) 
energy

$$$$
20:0
     RDKit          3D

 49 51  0  0  0  0  0  0  0  0999 V2000
    0.5010   25.8240  -24.5570 C   0  0  0  0  0  0  0  0  0  0  0  0
    0.5420   25.8560  -25.9800 O   0  0  0  0  0  0  0  0  0  0  0  0
   -0.4130   25.2550  -26.8160 C   0  0  0  0  0  0  0  0  0  0  0  0
   -1.7950   25.4400  -26.6270 C   0  0  0  0  0  0  0  0  0  0  0  0
   -2.7140   24.8290  -27.4810 C   0  0  0  0  0  0  0  0  0  0  0  0
   -2.2710   24.0330  -28.5490 C   0  0  0  0  0  0  0  0  0  0  0  0
   -3.1980   23.3700  -29.4250 N   0  0  0  0  0  0  0  0  0  0  0  0
   -4.0530   24.0580  -30.3590 C   0  0  0  0  0  0  0  0  0  0  0  0
   -3.9620   25.3080  -30.4950 O   0  0  0  0  0  0  0  0  0  0  0  0
   -5.0440   23.3180  -31.1740 C   0  0  0  0  0  0  0  0  0  0  0  0
   -6.3360   23.8430  -31.3480 C   0  0  0  0  0  0  0  0  0  0  0  0
   -7.2860   23.1510  -32.1030 C   0  0  0  0  0  0  0  0  0  0  0  0
   -6.9570   21.9300  -32.6950 C   0  0  0  0  0  0  0  0  0  0  0  0
   -5.6710   21.3980  -32.5440 C   0  0  0  0  0  0  0  0  0  0  0  0
   -5.2570   19.8480  -33.2800 S   0  0  0  0  0  0  0  0  0  0  0  0
   -3.7900   19.8320  -33.6060 O   0  0  0  0  0  0  0  0  0  0  0  0
   -6.0180   19.6930  -34.5670 O   0  0  0  0  0  0  0  0  0  0  0  0
   -5.6350   18.5020  -32.2250 N   0  0  0  0  0  0  0  0  0  0  0  0
   -6.9240   18.6960  -31.5520 C   0  0  0  0  0  0  0  0  0  0  0  0
   -7.9830   17.8890  -32.2920 C   0  0  0  0  0  0  0  0  0  0  0  0
   -7.2270   17.0020  -33.2600 C   0  0  0  0  0  0  0  0  0  0  0  0
   -5.7540   17.2530  -32.9850 C   0  0  0  0  0  0  0  0  0  0  0  0
   -4.7140   22.1000  -31.7950 C   0  0  0  0  0  0  0  0  0  0  0  0
   -0.8950   23.8270  -28.7230 C   0  0  0  0  0  0  0  0  0  0  0  0
    0.0390   24.4410  -27.8670 C   0  0  0  0  0  0  0  0  0  0  0  0
    1.4230   24.2660  -28.0250 O   0  0  0  0  0  0  0  0  0  0  0  0
    2.3940   25.2880  -27.8200 C   0  0  0  0  0  0  0  0  0  0  0  0
    1.3074   26.4534  -24.1527 H   0  0  0  0  0  0  0  0  0  0  0  0
   -0.4707   26.2049  -24.2095 H   0  0  0  0  0  0  0  0  0  0  0  0
    0.6346   24.7889  -24.2095 H   0  0  0  0  0  0  0  0  0  0  0  0
   -2.1535   26.0708  -25.8002 H   0  0  0  0  0  0  0  0  0  0  0  0
   -3.7922   24.9720  -27.3163 H   0  0  0  0  0  0  0  0  0  0  0  0
   -3.2040   22.3270  -29.4020 H   0  0  0  0  0  0  0  0  0  0  0  0
   -6.6010   24.8056  -30.8864 H   0  0  0  0  0  0  0  0  0  0  0  0
   -8.2954   23.5689  -32.2314 H   0  0  0  0  0  0  0  0  0  0  0  0
   -7.7106   21.3844  -33.2818 H   0  0  0  0  0  0  0  0  0  0  0  0
   -6.8544   18.3495  -30.5103 H   0  0  0  0  0  0  0  0  0  0  0  0
   -7.1933   19.7625  -31.5546 H   0  0  0  0  0  0  0  0  0  0  0  0
   -8.5618   17.2772  -31.5844 H   0  0  0  0  0  0  0  0  0  0  0  0
   -8.6965   18.5424  -32.8155 H   0  0  0  0  0  0  0  0  0  0  0  0
   -7.4749   15.9447  -33.0848 H   0  0  0  0  0  0  0  0  0  0  0  0
   -7.4885   17.2265  -34.3046 H   0  0  0  0  0  0  0  0  0  0  0  0
   -5.3374   16.4200  -32.3997 H   0  0  0  0  0  0  0  0  0  0  0  0
   -5.1990   17.3303  -33.9316 H   0  0  0  0  0  0  0  0  0  0  0  0
   -3.6968   21.6940  -31.6927 H   0  0  0  0  0  0  0  0  0  0  0  0
   -0.5412   23.1781  -29.5377 H   0  0  0  0  0  0  0  0  0  0  0  0
    2.5411   25.4429  -26.7409 H   0  0  0  0  0  0  0  0  0  0  0  0
    3.3464   24.9865  -28.2804 H   0  0  0  0  0  0  0  0  0  0  0  0
    2.0442   26.2238  -28.2804 H   0  0  0  0  0  0  0  0  0  0  0  0
  1  2  1  0
  2  3  1  0
  3  4  2  0
  4  5  1  0
  5  6  2  0
  6  7  1  0
  7  8  1  0
  8  9  2  0
  8 10  1  0
 10 11  2  0
 11 12  1  0
 12 13  2  0
 13 14  1  0
 14 15  1  0
 15 16  2  0
 15 17  2  0
 15 18  1  0
 18 19  1  0
 19 20  1  0
 20 21  1  0
 21 22  1  0
 14 23  2  0
  6 24  1  0
 24 25  2  0
 25 26  1  0
 26 27  1  0
 25  3  1  0
 23 10  1  0
 22 18  1  0
  1 28  1  0
  1 29  1  0
  1 30  1  0
  4 31  1  0
  5 32  1  0
  7 33  1  0
 11 34  1  0
 12 35  1  0
 13 36  1  0
 19 37  1  0
 19 38  1  0
 20 39  1  0
 20 40  1  0
 21 41  1  0
 21 42  1  0
 22 43  1  0
 22 44  1  0
 23 45  1  0
 24 46  1  0
 27 47  1  0
 27 48  1  0
 27 49  1  0
M  END
>  <UniqueID>  (21) 
19

>  <SMILES>  (21) 
COc1ccc(NC(=O)c2cccc(S(=O)(=O)N3CCCC3)c2)cc1OC

>  <Energy>  (21) 
55.53729702664448

>  <Genealogy>  (21) 
COc1ccc(NC(=O)c2cccc(S(=O)(=O)N3CCCC3)c2)cc1OC (3D coordinates assigned)
COc1ccc(NC(=O)c2cccc(S(=O)(=O)N3CCCC3)c2)cc1OC (nonaromatic ring conformer: 55.53729702664448 kcal/mol)

>  <smiles>  (21) 
COc1ccc(NC(=O)c2cccc(S(=O)(=O)N3CCCC3)c2)cc1OC

>  <score_type>  (21) 
oracle

>  <origin>  (21) 
adgpu

>  <m_score__min__energy>  (21) 
-10.029999999999999

>  <m_primary>  (21) 
energy

$$$$
21:0
     RDKit          3D

 31 32  0  0  0  0  0  0  0  0999 V2000
    2.8520   21.7000  -35.7130 C   0  0  0  0  0  0  0  0  0  0  0  0
    1.7170   22.6630  -35.8850 C   0  0  0  0  0  0  0  0  0  0  0  0
    1.7620   23.4970  -36.8270 O   0  0  0  0  0  0  0  0  0  0  0  0
    0.5620   22.6380  -35.0360 N   0  0  0  0  0  0  0  0  0  0  0  0
   -0.1250   21.4720  -34.5610 C   0  0  0  0  0  0  0  0  0  0  0  0
   -0.0020   20.2760  -35.2760 C   0  0  0  0  0  0  0  0  0  0  0  0
   -0.6810   19.1300  -34.8580 C   0  0  0  0  0  0  0  0  0  0  0  0
   -1.4990   19.1730  -33.7270 C   0  0  0  0  0  0  0  0  0  0  0  0
   -1.6410   20.3700  -33.0040 C   0  0  0  0  0  0  0  0  0  0  0  0
   -2.5010   20.4590  -31.8590 N   0  0  0  0  0  0  0  0  0  0  0  0
   -2.1050   20.8380  -30.5330 C   0  0  0  0  0  0  0  0  0  0  0  0
   -1.9040   19.9310  -29.6820 O   0  0  0  0  0  0  0  0  0  0  0  0
   -1.9810   22.2570  -30.1240 C   0  0  0  0  0  0  0  0  0  0  0  0
   -0.8570   22.6850  -29.3960 C   0  0  0  0  0  0  0  0  0  0  0  0
   -0.7330   24.0220  -29.0040 C   0  0  0  0  0  0  0  0  0  0  0  0
    0.3890   24.4320  -28.2940 O   0  0  0  0  0  0  0  0  0  0  0  0
   -1.7350   24.9440  -29.3300 C   0  0  0  0  0  0  0  0  0  0  0  0
   -1.6100   26.2740  -28.9430 O   0  0  0  0  0  0  0  0  0  0  0  0
   -2.8650   24.5240  -30.0410 C   0  0  0  0  0  0  0  0  0  0  0  0
   -3.8670   25.4330  -30.3590 O   0  0  0  0  0  0  0  0  0  0  0  0
   -2.9900   23.1870  -30.4320 C   0  0  0  0  0  0  0  0  0  0  0  0
   -0.9750   21.5210  -33.4420 C   0  0  0  0  0  0  0  0  0  0  0  0
    3.0390   21.5414  -34.6407 H   0  0  0  0  0  0  0  0  0  0  0  0
    2.5941   20.7410  -36.1860 H   0  0  0  0  0  0  0  0  0  0  0  0
    3.7562   22.1107  -36.1860 H   0  0  0  0  0  0  0  0  0  0  0  0
    0.6336   20.2382  -36.1730 H   0  0  0  0  0  0  0  0  0  0  0  0
   -0.5714   18.1912  -35.4207 H   0  0  0  0  0  0  0  0  0  0  0  0
   -2.0333   18.2683  -33.4013 H   0  0  0  0  0  0  0  0  0  0  0  0
   -0.0696   21.9634  -29.1328 H   0  0  0  0  0  0  0  0  0  0  0  0
   -3.8836   22.8606  -30.9842 H   0  0  0  0  0  0  0  0  0  0  0  0
   -1.1178   22.4712  -32.9065 H   0  0  0  0  0  0  0  0  0  0  0  0
  1  2  1  0
  2  3  2  0
  2  4  1  0
  4  5  1  0
  5  6  2  0
  6  7  1  0
  7  8  2  0
  8  9  1  0
  9 10  1  0
 10 11  1  0
 11 12  2  0
 11 13  1  0
 13 14  2  0
 14 15  1  0
 15 16  1  0
 15 17  2  0
 17 18  1  0
 17 19  1  0
 19 20  1  0
 19 21  2  0
  9 22  2  0
 22  5  1  0
 21 13  1  0
  1 23  1  0
  1 24  1  0
  1 25  1  0
  6 26  1  0
  7 27  1  0
  8 28  1  0
 14 29  1  0
 21 30  1  0
 22 31  1  0
M  CHG  5   4  -1  10  -1  16  -1  18  -1  20  -1
M  END
>  <UniqueID>  (22) 
20

>  <SMILES>  (22) 
CC(=O)[N-]c1cccc([N-]C(=O)c2cc([O-])c([O-])c([O-])c2)c1

>  <Energy>  (22) 
42.418719708604165

>  <Genealogy>  (22) 
CC(=O)[N-]c1cccc([N-]C(=O)c2cc([O-])c([O-])c([O-])c2)c1 (protonated)
CC(=O)[N-]c1cccc([N-]C(=O)c2cc([O-])c([O-])c([O-])c2)c1 (3D coordinates assigned)
CC(=O)[N-]c1cccc([N-]C(=O)c2cc([O-])c([O-])c([O-])c2)c1 (optimized conformer: 42.418719708604165 kcal/mol)

>  <smiles>  (22) 
CC(=O)Nc1cccc(NC(=O)c2cc(O)c(O)c(O)c2)c1

>  <score_type>  (22) 
oracle

>  <origin>  (22) 
adgpu

>  <m_score__min__energy>  (22) 
-13.26

>  <m_primary>  (22) 
energy

$$$$
22:0
     RDKit          3D

 42 44  0  0  0  0  0  0  0  0999 V2000
   -0.3200   20.8260  -34.9360 C   0  0  0  0  0  0  0  0  0  0  0  0
   -1.3240   20.7430  -33.8260 C   0  0  0  0  0  0  0  0  0  0  0  0
   -2.4810   19.9630  -33.9710 C   0  0  0  0  0  0  0  0  0  0  0  0
   -3.3840   19.8410  -32.9130 C   0  0  0  0  0  0  0  0  0  0  0  0
   -3.1340   20.4880  -31.7000 C   0  0  0  0  0  0  0  0  0  0  0  0
   -1.9810   21.2670  -31.5350 C   0  0  0  0  0  0  0  0  0  0  0  0
   -1.7470   21.8870  -30.2600 N   0  0  0  0  0  0  0  0  0  0  0  0
   -2.9800   22.4200  -29.1550 S   0  0  0  0  0  0  0  0  0  0  0  0
   -2.3740   23.4310  -28.2180 O   0  0  0  0  0  0  0  0  0  0  0  0
   -3.4680   21.2400  -28.3610 O   0  0  0  0  0  0  0  0  0  0  0  0
   -4.3290   23.1800  -30.0040 C   0  0  0  0  0  0  0  0  0  0  0  0
   -5.4740   22.4350  -30.3220 C   0  0  0  0  0  0  0  0  0  0  0  0
   -6.5660   23.0450  -30.9570 C   0  0  0  0  0  0  0  0  0  0  0  0
   -8.0300   22.1330  -31.3190 S   0  0  0  0  0  0  0  0  0  0  0  0
   -8.8120   21.9230  -30.0520 O   0  0  0  0  0  0  0  0  0  0  0  0
   -8.8730   22.9190  -32.2830 O   0  0  0  0  0  0  0  0  0  0  0  0
   -7.6510   20.5610  -32.0220 C   0  0  0  0  0  0  0  0  0  0  0  0
   -8.2500   19.3960  -31.5190 C   0  0  0  0  0  0  0  0  0  0  0  0
   -7.9390   18.1500  -32.0730 C   0  0  0  0  0  0  0  0  0  0  0  0
   -7.0140   18.0610  -33.1180 C   0  0  0  0  0  0  0  0  0  0  0  0
   -6.4040   19.2170  -33.6130 C   0  0  0  0  0  0  0  0  0  0  0  0
   -6.7190   20.4640  -33.0660 C   0  0  0  0  0  0  0  0  0  0  0  0
   -6.4910   24.3980  -31.3140 C   0  0  0  0  0  0  0  0  0  0  0  0
   -5.3400   25.1370  -31.0300 C   0  0  0  0  0  0  0  0  0  0  0  0
   -4.2620   24.5350  -30.3720 C   0  0  0  0  0  0  0  0  0  0  0  0
   -3.1320   25.2940  -30.0860 O   0  0  0  0  0  0  0  0  0  0  0  0
   -1.0740   21.3900  -32.6050 C   0  0  0  0  0  0  0  0  0  0  0  0
    0.6909   20.9096  -34.5105 H   0  0  0  0  0  0  0  0  0  0  0  0
   -0.3831   19.9196  -35.5560 H   0  0  0  0  0  0  0  0  0  0  0  0
   -0.5311   21.7098  -35.5560 H   0  0  0  0  0  0  0  0  0  0  0  0
   -2.6775   19.4456  -34.9216 H   0  0  0  0  0  0  0  0  0  0  0  0
   -4.2936   19.2346  -33.0346 H   0  0  0  0  0  0  0  0  0  0  0  0
   -3.8472   20.3851  -30.8689 H   0  0  0  0  0  0  0  0  0  0  0  0
   -5.5160   21.3647  -30.0717 H   0  0  0  0  0  0  0  0  0  0  0  0
   -8.9661   19.4629  -30.6867 H   0  0  0  0  0  0  0  0  0  0  0  0
   -8.4219   17.2402  -31.6868 H   0  0  0  0  0  0  0  0  0  0  0  0
   -6.7663   17.0805  -33.5507 H   0  0  0  0  0  0  0  0  0  0  0  0
   -5.6753   19.1453  -34.4339 H   0  0  0  0  0  0  0  0  0  0  0  0
   -6.2348   21.3718  -33.4552 H   0  0  0  0  0  0  0  0  0  0  0  0
   -7.3410   24.8797  -31.8194 H   0  0  0  0  0  0  0  0  0  0  0  0
   -5.2811   26.1952  -31.3245 H   0  0  0  0  0  0  0  0  0  0  0  0
   -0.1643   21.9964  -32.4837 H   0  0  0  0  0  0  0  0  0  0  0  0
  1  2  1  0
  2  3  2  0
  3  4  1  0
  4  5  2  0
  5  6  1  0
  6  7  1  0
  7  8  1  0
  8  9  2  0
  8 10  2  0
  8 11  1  0
 11 12  2  0
 12 13  1  0
 13 14  1  0
 14 15  2  0
 14 16  2  0
 14 17  1  0
 17 18  2  0
 18 19  1  0
 19 20  2  0
 20 21  1  0
 21 22  2  0
 13 23  2  0
 23 24  1  0
 24 25  2  0
 25 26  1  0
  6 27  2  0
 27  2  1  0
 25 11  1  0
 22 17  1  0
  1 28  1  0
  1 29  1  0
  1 30  1  0
  3 31  1  0
  4 32  1  0
  5 33  1  0
 12 34  1  0
 18 35  1  0
 19 36  1  0
 20 37  1  0
 21 38  1  0
 22 39  1  0
 23 40  1  0
 24 41  1  0
 27 42  1  0
M  CHG  2   7  -1  26  -1
M  END
>  <UniqueID>  (23) 
21

>  <SMILES>  (23) 
Cc1cccc([N-]S(=O)(=O)c2cc(S(=O)(=O)c3ccccc3)ccc2[O-])c1

>  <Energy>  (23) 
46.32739193130744

>  <Genealogy>  (23) 
Cc1cccc([N-]S(=O)(=O)c2cc(S(=O)(=O)c3ccccc3)ccc2[O-])c1 (protonated)
Cc1cccc([N-]S(=O)(=O)c2cc(S(=O)(=O)c3ccccc3)ccc2[O-])c1 (3D coordinates assigned)
Cc1cccc([N-]S(=O)(=O)c2cc(S(=O)(=O)c3ccccc3)ccc2[O-])c1 (optimized conformer: 46.32739193130744 kcal/mol)

>  <smiles>  (23) 
Cc1cccc(NS(=O)(=O)c2cc(S(=O)(=O)c3ccccc3)ccc2O)c1

>  <score_type>  (23) 
oracle

>  <origin>  (23) 
adgpu

>  <m_score__min__energy>  (23) 
-13.59

>  <m_primary>  (23) 
energy

$$$$
23:0
     RDKit          3D

 52 54  0  0  0  0  0  0  0  0999 V2000
    0.1360   24.0950  -24.6480 C   0  0  0  0  0  0  0  0  0  0  0  0
    0.8470   25.2500  -25.2090 N   0  0  0  0  0  0  0  0  0  0  0  0
    2.2760   24.9450  -25.3520 C   0  0  0  0  0  0  0  0  0  0  0  0
    0.1700   25.6670  -26.7630 S   0  0  0  0  0  0  0  0  0  0  0  0
    0.9690   25.0040  -27.8510 O   0  0  0  0  0  0  0  0  0  0  0  0
    0.2590   27.1550  -26.9650 O   0  0  0  0  0  0  0  0  0  0  0  0
   -1.5170   25.1640  -26.8930 C   0  0  0  0  0  0  0  0  0  0  0  0
   -2.4800   25.6900  -26.0220 C   0  0  0  0  0  0  0  0  0  0  0  0
   -3.8130   25.2950  -26.1290 C   0  0  0  0  0  0  0  0  0  0  0  0
   -4.1960   24.3660  -27.1000 C   0  0  0  0  0  0  0  0  0  0  0  0
   -3.2370   23.8120  -27.9670 C   0  0  0  0  0  0  0  0  0  0  0  0
   -3.6030   22.8720  -28.9930 N   0  0  0  0  0  0  0  0  0  0  0  0
   -3.4690   23.1250  -30.4010 C   0  0  0  0  0  0  0  0  0  0  0  0
   -3.5330   24.3090  -30.8330 O   0  0  0  0  0  0  0  0  0  0  0  0
   -3.3020   22.0040  -31.3580 C   0  0  0  0  0  0  0  0  0  0  0  0
   -2.0520   21.7480  -31.9420 C   0  0  0  0  0  0  0  0  0  0  0  0
   -1.8970   20.6900  -32.8380 C   0  0  0  0  0  0  0  0  0  0  0  0
   -2.9810   19.8690  -33.1630 C   0  0  0  0  0  0  0  0  0  0  0  0
   -2.7030   18.5520  -34.2980 Cl  0  0  0  0  0  0  0  0  0  0  0  0
   -4.2470   20.1040  -32.5800 C   0  0  0  0  0  0  0  0  0  0  0  0
   -5.6280   19.0540  -32.9900 S   0  0  0  0  0  0  0  0  0  0  0  0
   -6.0100   19.3220  -34.4190 O   0  0  0  0  0  0  0  0  0  0  0  0
   -5.1790   17.6240  -32.8720 O   0  0  0  0  0  0  0  0  0  0  0  0
   -7.0660   19.2480  -32.0100 N   0  0  0  0  0  0  0  0  0  0  0  0
   -7.7980   20.4890  -32.2900 C   0  0  0  0  0  0  0  0  0  0  0  0
   -9.2830   20.1510  -32.3620 C   0  0  0  0  0  0  0  0  0  0  0  0
   -9.3960   18.6850  -31.9900 C   0  0  0  0  0  0  0  0  0  0  0  0
   -7.9940   18.1230  -32.1290 C   0  0  0  0  0  0  0  0  0  0  0  0
   -4.3850   21.1690  -31.6750 C   0  0  0  0  0  0  0  0  0  0  0  0
   -1.9010   24.2310  -27.8660 C   0  0  0  0  0  0  0  0  0  0  0  0
    0.1662   24.1440  -23.5495 H   0  0  0  0  0  0  0  0  0  0  0  0
   -0.9104   24.1085  -24.9870 H   0  0  0  0  0  0  0  0  0  0  0  0
    0.6193   23.1669  -24.9870 H   0  0  0  0  0  0  0  0  0  0  0  0
    2.7317   24.8477  -24.3556 H   0  0  0  0  0  0  0  0  0  0  0  0
    2.3960   24.0010  -25.9038 H   0  0  0  0  0  0  0  0  0  0  0  0
    2.7710   25.7577  -25.9038 H   0  0  0  0  0  0  0  0  0  0  0  0
   -2.1837   26.4168  -25.2513 H   0  0  0  0  0  0  0  0  0  0  0  0
   -4.5658   25.7163  -25.4465 H   0  0  0  0  0  0  0  0  0  0  0  0
   -5.2510   24.0670  -27.1866 H   0  0  0  0  0  0  0  0  0  0  0  0
   -4.0620   21.9810  -28.6980 H   0  0  0  0  0  0  0  0  0  0  0  0
   -1.1903   22.3845  -31.6921 H   0  0  0  0  0  0  0  0  0  0  0  0
   -0.9135   20.5001  -33.2927 H   0  0  0  0  0  0  0  0  0  0  0  0
   -7.6192   21.2180  -31.4859 H   0  0  0  0  0  0  0  0  0  0  0  0
   -7.4585   20.9282  -33.2396 H   0  0  0  0  0  0  0  0  0  0  0  0
   -9.8509   20.7704  -31.6522 H   0  0  0  0  0  0  0  0  0  0  0  0
   -9.6925   20.3453  -33.3643 H   0  0  0  0  0  0  0  0  0  0  0  0
   -9.7526   18.5773  -30.9550 H   0  0  0  0  0  0  0  0  0  0  0  0
  -10.1140   18.1548  -32.6329 H   0  0  0  0  0  0  0  0  0  0  0  0
   -7.8011   17.3889  -31.3329 H   0  0  0  0  0  0  0  0  0  0  0  0
   -7.8703   17.6139  -33.0962 H   0  0  0  0  0  0  0  0  0  0  0  0
   -5.3623   21.3527  -31.2047 H   0  0  0  0  0  0  0  0  0  0  0  0
   -1.1484   23.8233  -28.5569 H   0  0  0  0  0  0  0  0  0  0  0  0
  1  2  1  0
  2  3  1  0
  2  4  1  0
  4  5  2  0
  4  6  2  0
  4  7  1  0
  7  8  2  0
  8  9  1  0
  9 10  2  0
 10 11  1  0
 11 12  1  0
 12 13  1  0
 13 14  2  0
 13 15  1  0
 15 16  2  0
 16 17  1  0
 17 18  2  0
 18 19  1  0
 18 20  1  0
 20 21  1  0
 21 22  2  0
 21 23  2  0
 21 24  1  0
 24 25  1  0
 25 26  1  0
 26 27  1  0
 27 28  1  0
 20 29  2  0
 11 30  2  0
 30  7  1  0
 29 15  1  0
 28 24  1  0
  1 31  1  0
  1 32  1  0
  1 33  1  0
  3 34  1  0
  3 35  1  0
  3 36  1  0
  8 37  1  0
  9 38  1  0
 10 39  1  0
 12 40  1  0
 16 41  1  0
 17 42  1  0
 25 43  1  0
 25 44  1  0
 26 45  1  0
 26 46  1  0
 27 47  1  0
 27 48  1  0
 28 49  1  0
 28 50  1  0
 29 51  1  0
 30 52  1  0
M  END
>  <UniqueID>  (24) 
22

>  <SMILES>  (24) 
CN(C)S(=O)(=O)c1cccc(NC(=O)c2ccc(Cl)c(S(=O)(=O)N3CCCC3)c2)c1

>  <Energy>  (24) 
61.032215314356

>  <Genealogy>  (24) 
CN(C)S(=O)(=O)c1cccc(NC(=O)c2ccc(Cl)c(S(=O)(=O)N3CCCC3)c2)c1 (3D coordinates assigned)
CN(C)S(=O)(=O)c1cccc(NC(=O)c2ccc(Cl)c(S(=O)(=O)N3CCCC3)c2)c1 (nonaromatic ring conformer: 61.032215314356 kcal/mol)

>  <smiles>  (24) 
CN(C)S(=O)(=O)c1cccc(NC(=O)c2ccc(Cl)c(S(=O)(=O)N3CCCC3)c2)c1

>  <score_type>  (24) 
oracle

>  <origin>  (24) 
adgpu

>  <m_score__min__energy>  (24) 
-10.359999999999999

>  <m_primary>  (24) 
energy

$$$$
24:0
     RDKit          3D

 57 60  0  0  0  0  0  0  0  0999 V2000
    0.0820   17.9390  -33.2910 C   0  0  0  0  0  0  0  0  0  0  0  0
    0.7290   18.7800  -32.3420 O   0  0  0  0  0  0  0  0  0  0  0  0
    0.2090   19.1060  -31.0800 C   0  0  0  0  0  0  0  0  0  0  0  0
    0.7510   18.5810  -29.8890 C   0  0  0  0  0  0  0  0  0  0  0  0
    0.2030   18.9280  -28.6520 C   0  0  0  0  0  0  0  0  0  0  0  0
   -0.8920   19.7880  -28.5890 C   0  0  0  0  0  0  0  0  0  0  0  0
   -1.4400   20.3150  -29.7640 C   0  0  0  0  0  0  0  0  0  0  0  0
   -0.8860   19.9850  -31.0150 C   0  0  0  0  0  0  0  0  0  0  0  0
   -1.3980   20.5330  -32.2390 N   0  0  0  0  0  0  0  0  0  0  0  0
   -2.7590   19.9280  -33.1240 S   0  0  0  0  0  0  0  0  0  0  0  0
   -2.4820   20.0130  -34.5990 O   0  0  0  0  0  0  0  0  0  0  0  0
   -3.0210   18.4940  -32.7600 O   0  0  0  0  0  0  0  0  0  0  0  0
   -4.1540   20.9420  -32.7300 C   0  0  0  0  0  0  0  0  0  0  0  0
   -3.9070   22.2320  -32.2460 C   0  0  0  0  0  0  0  0  0  0  0  0
   -4.9590   23.0580  -31.8240 C   0  0  0  0  0  0  0  0  0  0  0  0
   -4.7110   24.3370  -31.2210 N   0  0  0  0  0  0  0  0  0  0  0  0
   -4.6280   24.5950  -29.8110 C   0  0  0  0  0  0  0  0  0  0  0  0
   -5.4420   25.4080  -29.2970 O   0  0  0  0  0  0  0  0  0  0  0  0
   -3.6280   23.9250  -28.9440 C   0  0  0  0  0  0  0  0  0  0  0  0
   -3.9510   22.6970  -28.3440 C   0  0  0  0  0  0  0  0  0  0  0  0
   -3.0460   22.0710  -27.4800 C   0  0  0  0  0  0  0  0  0  0  0  0
   -1.8050   22.6600  -27.2130 C   0  0  0  0  0  0  0  0  0  0  0  0
   -0.9000   22.0470  -26.3490 O   0  0  0  0  0  0  0  0  0  0  0  0
   -1.4670   23.8710  -27.8230 C   0  0  0  0  0  0  0  0  0  0  0  0
   -2.3610   24.4970  -28.6990 C   0  0  0  0  0  0  0  0  0  0  0  0
   -1.9730   25.6730  -29.3320 O   0  0  0  0  0  0  0  0  0  0  0  0
   -6.2770   22.6230  -31.9790 C   0  0  0  0  0  0  0  0  0  0  0  0
   -6.5420   21.3410  -32.4650 C   0  0  0  0  0  0  0  0  0  0  0  0
   -5.4900   20.4800  -32.8140 C   0  0  0  0  0  0  0  0  0  0  0  0
   -5.8070   19.1390  -33.2150 N   0  0  0  0  0  0  0  0  0  0  0  0
   -6.1900   18.1710  -32.1760 C   0  0  0  0  0  0  0  0  0  0  0  0
   -6.1510   16.7240  -32.6820 C   0  0  0  0  0  0  0  0  0  0  0  0
   -6.6120   16.6340  -34.0140 O   0  0  0  0  0  0  0  0  0  0  0  0
   -5.6870   17.2810  -34.8600 C   0  0  0  0  0  0  0  0  0  0  0  0
   -5.7260   18.7940  -34.6410 C   0  0  0  0  0  0  0  0  0  0  0  0
   -0.5062   17.1744  -32.7624 H   0  0  0  0  0  0  0  0  0  0  0  0
   -0.5857   18.5440  -33.9219 H   0  0  0  0  0  0  0  0  0  0  0  0
    0.8380   17.4487  -33.9219 H   0  0  0  0  0  0  0  0  0  0  0  0
    1.6096   17.8948  -29.9342 H   0  0  0  0  0  0  0  0  0  0  0  0
    0.6363   18.5219  -27.7261 H   0  0  0  0  0  0  0  0  0  0  0  0
   -1.3264   20.0531  -27.6138 H   0  0  0  0  0  0  0  0  0  0  0  0
   -2.3070   20.9897  -29.7096 H   0  0  0  0  0  0  0  0  0  0  0  0
   -2.8728   22.6033  -32.1959 H   0  0  0  0  0  0  0  0  0  0  0  0
   -4.9217   22.2244  -28.5547 H   0  0  0  0  0  0  0  0  0  0  0  0
   -3.3108   21.1128  -27.0091 H   0  0  0  0  0  0  0  0  0  0  0  0
   -1.1890   21.6700  -25.4550 H   0  0  0  0  0  0  0  0  0  0  0  0
   -0.4920   24.3352  -27.6133 H   0  0  0  0  0  0  0  0  0  0  0  0
   -7.1094   23.2927  -31.7173 H   0  0  0  0  0  0  0  0  0  0  0  0
   -7.5831   21.0034  -32.5751 H   0  0  0  0  0  0  0  0  0  0  0  0
   -5.4945   18.2680  -31.3293 H   0  0  0  0  0  0  0  0  0  0  0  0
   -7.2245   18.3934  -31.8755 H   0  0  0  0  0  0  0  0  0  0  0  0
   -5.1155   16.3558  -32.6355 H   0  0  0  0  0  0  0  0  0  0  0  0
   -6.8092   16.1153  -32.0447 H   0  0  0  0  0  0  0  0  0  0  0  0
   -4.6751   16.9097  -34.6407 H   0  0  0  0  0  0  0  0  0  0  0  0
   -5.9520   17.0666  -35.9059 H   0  0  0  0  0  0  0  0  0  0  0  0
   -4.8124   19.2381  -35.0631 H   0  0  0  0  0  0  0  0  0  0  0  0
   -6.6246   19.1876  -35.1387 H   0  0  0  0  0  0  0  0  0  0  0  0
  1  2  1  0
  2  3  1  0
  3  4  2  0
  4  5  1  0
  5  6  2  0
  6  7  1  0
  7  8  2  0
  8  9  1  0
  9 10  1  0
 10 11  2  0
 10 12  2  0
 10 13  1  0
 13 14  2  0
 14 15  1  0
 15 16  1  0
 16 17  1  0
 17 18  2  0
 17 19  1  0
 19 20  2  0
 20 21  1  0
 21 22  2  0
 22 23  1  0
 22 24  1  0
 24 25  2  0
 25 26  1  0
 15 27  2  0
 27 28  1  0
 28 29  2  0
 29 30  1  0
 30 31  1  0
 31 32  1  0
 32 33  1  0
 33 34  1  0
 34 35  1  0
  8  3  1  0
 29 13  1  0
 35 30  1  0
 25 19  1  0
  1 36  1  0
  1 37  1  0
  1 38  1  0
  4 39  1  0
  5 40  1  0
  6 41  1  0
  7 42  1  0
 14 43  1  0
 20 44  1  0
 21 45  1  0
 23 46  1  0
 24 47  1  0
 27 48  1  0
 28 49  1  0
 31 50  1  0
 31 51  1  0
 32 52  1  0
 32 53  1  0
 34 54  1  0
 34 55  1  0
 35 56  1  0
 35 57  1  0
M  CHG  3   9  -1  16  -1  26  -1
M  END
>  <UniqueID>  (25) 
23

>  <SMILES>  (25) 
COc1ccccc1[N-]S(=O)(=O)c1cc([N-]C(=O)c2ccc(O)cc2[O-])ccc1N1CCOCC1

>  <Energy>  (25) 
79.52285567416685

>  <Genealogy>  (25) 
COc1ccccc1[N-]S(=O)(=O)c1cc([N-]C(=O)c2ccc(O)cc2[O-])ccc1N1CCOCC1 (protonated)
COc1ccccc1[N-]S(=O)(=O)c1cc([N-]C(=O)c2ccc(O)cc2[O-])ccc1N1CCOCC1 (3D coordinates assigned)
COc1ccccc1[N-]S(=O)(=O)c1cc([N-]C(=O)c2ccc(O)cc2[O-])ccc1N1CCOCC1 (nonaromatic ring conformer: 79.52285567416685 kcal/mol)

>  <smiles>  (25) 
COc1ccccc1NS(=O)(=O)c1cc(NC(=O)c2ccc(O)cc2O)ccc1N1CCOCC1

>  <score_type>  (25) 
oracle

>  <origin>  (25) 
adgpu

>  <m_score__min__energy>  (25) 
-12.49

>  <m_primary>  (25) 
energy

$$$$
25:0
     RDKit          3D

 51 53  0  0  0  0  0  0  0  0999 V2000
   -1.6150   25.4670  -27.8440 C   0  0  0  0  0  0  0  0  0  0  0  0
   -2.0730   25.3000  -29.1810 O   0  0  0  0  0  0  0  0  0  0  0  0
   -2.5850   24.1010  -29.7020 C   0  0  0  0  0  0  0  0  0  0  0  0
   -1.9040   22.8830  -29.5500 C   0  0  0  0  0  0  0  0  0  0  0  0
   -2.4530   21.7020  -30.0390 C   0  0  0  0  0  0  0  0  0  0  0  0
   -3.6980   21.7020  -30.6790 C   0  0  0  0  0  0  0  0  0  0  0  0
   -4.2810   20.3920  -31.1550 C   0  0  0  0  0  0  0  0  0  0  0  0
   -4.0620   20.2250  -32.5980 N   0  0  0  0  0  0  0  0  0  0  0  0
   -4.9000   19.2970  -33.3690 C   0  0  0  0  0  0  0  0  0  0  0  0
   -6.3090   19.2820  -32.8190 C   0  0  0  0  0  0  0  0  0  0  0  0
   -7.1330   20.4000  -33.0470 C   0  0  0  0  0  0  0  0  0  0  0  0
   -8.4570   20.4140  -32.6050 C   0  0  0  0  0  0  0  0  0  0  0  0
   -8.9710   19.3190  -31.9110 C   0  0  0  0  0  0  0  0  0  0  0  0
   -8.1610   18.2120  -31.6530 C   0  0  0  0  0  0  0  0  0  0  0  0
   -6.8330   18.1820  -32.0980 C   0  0  0  0  0  0  0  0  0  0  0  0
   -5.8720   16.7580  -31.7160 Cl  0  0  0  0  0  0  0  0  0  0  0  0
   -3.1890   21.1270  -33.2940 C   0  0  0  0  0  0  0  0  0  0  0  0
   -3.6650   22.1690  -33.8170 O   0  0  0  0  0  0  0  0  0  0  0  0
   -1.7470   20.8470  -33.4150 C   0  0  0  0  0  0  0  0  0  0  0  0
   -0.8360   21.5410  -34.2000 C   0  0  0  0  0  0  0  0  0  0  0  0
    0.4810   21.0980  -34.0430 C   0  0  0  0  0  0  0  0  0  0  0  0
    0.6150   20.0600  -33.1290 C   0  0  0  0  0  0  0  0  0  0  0  0
   -0.9060   19.7000  -32.5130 S   0  0  0  0  0  0  0  0  0  0  0  0
   -4.4080   22.9130  -30.8350 C   0  0  0  0  0  0  0  0  0  0  0  0
   -5.6680   22.8520  -31.4610 O   0  0  0  0  0  0  0  0  0  0  0  0
   -6.1780   23.7500  -32.4400 C   0  0  0  0  0  0  0  0  0  0  0  0
   -3.8270   24.1220  -30.3680 C   0  0  0  0  0  0  0  0  0  0  0  0
   -4.4870   25.3440  -30.5420 O   0  0  0  0  0  0  0  0  0  0  0  0
   -5.7560   25.6160  -29.9570 C   0  0  0  0  0  0  0  0  0  0  0  0
   -2.4124   25.1762  -27.1443 H   0  0  0  0  0  0  0  0  0  0  0  0
   -0.7316   24.8331  -27.6771 H   0  0  0  0  0  0  0  0  0  0  0  0
   -1.3470   26.5207  -27.6771 H   0  0  0  0  0  0  0  0  0  0  0  0
   -0.9293   22.8622  -29.0406 H   0  0  0  0  0  0  0  0  0  0  0  0
   -1.9023   20.7571  -29.9214 H   0  0  0  0  0  0  0  0  0  0  0  0
   -3.7967   19.5636  -30.6172 H   0  0  0  0  0  0  0  0  0  0  0  0
   -5.3631   20.3916  -30.9572 H   0  0  0  0  0  0  0  0  0  0  0  0
   -4.9243   19.6183  -34.4208 H   0  0  0  0  0  0  0  0  0  0  0  0
   -4.4757   18.2849  -33.2941 H   0  0  0  0  0  0  0  0  0  0  0  0
   -6.7288   21.2733  -33.5799 H   0  0  0  0  0  0  0  0  0  0  0  0
   -9.0945   21.2881  -32.8040 H   0  0  0  0  0  0  0  0  0  0  0  0
  -10.0157   19.3277  -31.5666 H   0  0  0  0  0  0  0  0  0  0  0  0
   -8.5688   17.3559  -31.0955 H   0  0  0  0  0  0  0  0  0  0  0  0
   -1.1220   22.3584  -34.8783 H   0  0  0  0  0  0  0  0  0  0  0  0
    1.3308   21.5305  -34.5914 H   0  0  0  0  0  0  0  0  0  0  0  0
    1.5557   19.5597  -32.8556 H   0  0  0  0  0  0  0  0  0  0  0  0
   -6.6618   24.6018  -31.9396 H   0  0  0  0  0  0  0  0  0  0  0  0
   -5.3523   24.1147  -33.0686 H   0  0  0  0  0  0  0  0  0  0  0  0
   -6.9142   23.2276  -33.0686 H   0  0  0  0  0  0  0  0  0  0  0  0
   -5.6661   25.5967  -28.8608 H   0  0  0  0  0  0  0  0  0  0  0  0
   -6.1030   26.6089  -30.2791 H   0  0  0  0  0  0  0  0  0  0  0  0
   -6.4794   24.8525  -30.2791 H   0  0  0  0  0  0  0  0  0  0  0  0
  1  2  1  0
  2  3  1  0
  3  4  2  0
  4  5  1  0
  5  6  2  0
  6  7  1  0
  7  8  1  0
  8  9  1  0
  9 10  1  0
 10 11  2  0
 11 12  1  0
 12 13  2  0
 13 14  1  0
 14 15  2  0
 15 16  1  0
  8 17  1  0
 17 18  2  0
 17 19  1  0
 19 20  2  0
 20 21  1  0
 21 22  2  0
 22 23  1  0
  6 24  1  0
 24 25  1  0
 25 26  1  0
 24 27  2  0
 27 28  1  0
 28 29  1  0
 27  3  1  0
 15 10  1  0
 23 19  1  0
  1 30  1  0
  1 31  1  0
  1 32  1  0
  4 33  1  0
  5 34  1  0
  7 35  1  0
  7 36  1  0
  9 37  1  0
  9 38  1  0
 11 39  1  0
 12 40  1  0
 13 41  1  0
 14 42  1  0
 20 43  1  0
 21 44  1  0
 22 45  1  0
 26 46  1  0
 26 47  1  0
 26 48  1  0
 29 49  1  0
 29 50  1  0
 29 51  1  0
M  END
>  <UniqueID>  (26) 
24

>  <SMILES>  (26) 
COc1ccc(CN(Cc2ccccc2Cl)C(=O)c2cccs2)c(OC)c1OC

>  <Energy>  (26) 
88.57789310926995

>  <Genealogy>  (26) 
COc1ccc(CN(Cc2ccccc2Cl)C(=O)c2cccs2)c(OC)c1OC (3D coordinates assigned)
COc1ccc(CN(Cc2ccccc2Cl)C(=O)c2cccs2)c(OC)c1OC (optimized conformer: 88.57789310926995 kcal/mol)

>  <smiles>  (26) 
COc1ccc(CN(Cc2ccccc2Cl)C(=O)c2cccs2)c(OC)c1OC

>  <score_type>  (26) 
oracle

>  <origin>  (26) 
adgpu

>  <m_score__min__energy>  (26) 
-9.5099999999999998

>  <m_primary>  (26) 
energy

$$$$
26:0
     RDKit          3D

 37 39  0  0  0  0  0  0  0  0999 V2000
   -5.7250   26.5080  -30.1240 O   0  0  0  0  0  0  0  0  0  0  0  0
   -5.2620   25.3510  -30.3110 C   0  0  0  0  0  0  0  0  0  0  0  0
   -6.1950   24.1840  -30.3980 C   0  0  0  0  0  0  0  0  0  0  0  0
   -6.5270   23.8400  -31.8560 C   0  0  0  0  0  0  0  0  0  0  0  0
   -7.2290   22.5100  -31.9700 C   0  0  0  0  0  0  0  0  0  0  0  0
   -6.5600   21.4000  -32.5110 C   0  0  0  0  0  0  0  0  0  0  0  0
   -7.2270   20.1820  -32.6690 C   0  0  0  0  0  0  0  0  0  0  0  0
   -8.5680   20.0650  -32.2920 C   0  0  0  0  0  0  0  0  0  0  0  0
   -9.2440   21.1670  -31.7610 C   0  0  0  0  0  0  0  0  0  0  0  0
   -8.5800   22.3860  -31.6020 C   0  0  0  0  0  0  0  0  0  0  0  0
   -3.8620   25.1510  -30.5320 N   0  0  0  0  0  0  0  0  0  0  0  0
   -3.1730   23.9100  -30.3360 C   0  0  0  0  0  0  0  0  0  0  0  0
   -3.5180   22.8310  -31.1590 C   0  0  0  0  0  0  0  0  0  0  0  0
   -2.8160   21.6260  -31.0780 C   0  0  0  0  0  0  0  0  0  0  0  0
   -1.7700   21.4870  -30.1660 C   0  0  0  0  0  0  0  0  0  0  0  0
   -1.4400   22.5420  -29.3130 C   0  0  0  0  0  0  0  0  0  0  0  0
   -2.1470   23.7550  -29.3690 C   0  0  0  0  0  0  0  0  0  0  0  0
   -1.8370   24.7850  -28.4160 N   0  0  0  0  0  0  0  0  0  0  0  0
   -2.3640   24.9530  -27.1900 C   0  0  0  0  0  0  0  0  0  0  0  0
   -1.7930   25.9940  -26.5530 N   0  0  0  0  0  0  0  0  0  0  0  0
   -0.8900   26.4300  -27.4580 C   0  0  0  0  0  0  0  0  0  0  0  0
   -0.8990   25.6980  -28.5890 N   0  0  0  0  0  0  0  0  0  0  0  0
   -5.7222   23.3116  -29.9232 H   0  0  0  0  0  0  0  0  0  0  0  0
   -7.1303   24.4494  -29.8834 H   0  0  0  0  0  0  0  0  0  0  0  0
   -7.1798   24.6240  -32.2674 H   0  0  0  0  0  0  0  0  0  0  0  0
   -5.5828   23.7783  -32.4170 H   0  0  0  0  0  0  0  0  0  0  0  0
   -5.5058   21.4897  -32.8119 H   0  0  0  0  0  0  0  0  0  0  0  0
   -6.6966   19.3152  -33.0901 H   0  0  0  0  0  0  0  0  0  0  0  0
   -9.0914   19.1052  -32.4133 H   0  0  0  0  0  0  0  0  0  0  0  0
  -10.3002   21.0745  -31.4679 H   0  0  0  0  0  0  0  0  0  0  0  0
   -9.1165   23.2521  -31.1872 H   0  0  0  0  0  0  0  0  0  0  0  0
   -4.3475   22.9329  -31.8742 H   0  0  0  0  0  0  0  0  0  0  0  0
   -3.0884   20.7861  -31.7340 H   0  0  0  0  0  0  0  0  0  0  0  0
   -1.2042   20.5449  -30.1186 H   0  0  0  0  0  0  0  0  0  0  0  0
   -0.6191   22.4225  -28.5906 H   0  0  0  0  0  0  0  0  0  0  0  0
   -3.1578   24.3226  -26.7629 H   0  0  0  0  0  0  0  0  0  0  0  0
   -0.2216   27.2874  -27.2902 H   0  0  0  0  0  0  0  0  0  0  0  0
  1  2  2  0
  2  3  1  0
  3  4  1  0
  4  5  1  0
  5  6  2  0
  6  7  1  0
  7  8  2  0
  8  9  1  0
  9 10  2  0
  2 11  1  0
 11 12  1  0
 12 13  2  0
 13 14  1  0
 14 15  2  0
 15 16  1  0
 16 17  2  0
 17 18  1  0
 18 19  1  0
 19 20  2  0
 20 21  1  0
 21 22  2  0
 10  5  1  0
 17 12  1  0
 22 18  1  0
  3 23  1  0
  3 24  1  0
  4 25  1  0
  4 26  1  0
  6 27  1  0
  7 28  1  0
  8 29  1  0
  9 30  1  0
 10 31  1  0
 13 32  1  0
 14 33  1  0
 15 34  1  0
 16 35  1  0
 19 36  1  0
 21 37  1  0
M  CHG  1  11  -1
M  END
>  <UniqueID>  (27) 
25

>  <SMILES>  (27) 
O=C(CCc1ccccc1)[N-]c1ccccc1-n1cncn1

>  <Energy>  (27) 
77.86105337300243

>  <Genealogy>  (27) 
O=C(CCc1ccccc1)[N-]c1ccccc1-n1cncn1 (protonated)
O=C(CCc1ccccc1)[N-]c1ccccc1-n1cncn1 (3D coordinates assigned)
O=C(CCc1ccccc1)[N-]c1ccccc1-n1cncn1 (optimized conformer: 77.86105337300243 kcal/mol)

>  <smiles>  (27) 
O=C(CCc1ccccc1)Nc1ccccc1-n1cncn1

>  <score_type>  (27) 
oracle

>  <origin>  (27) 
adgpu

>  <m_score__min__energy>  (27) 
-9.7200000000000006

>  <m_primary>  (27) 
energy

$$$$
27:0
     RDKit          3D

 52 55  0  0  0  0  0  0  0  0999 V2000
    5.0790   24.1830  -25.6760 N   0  0  0  0  0  0  0  0  0  0  0  0
    3.8750   25.2110  -24.9850 S   0  0  0  0  0  0  0  0  0  0  0  0
    3.7610   24.9340  -23.5120 O   0  0  0  0  0  0  0  0  0  0  0  0
    4.2780   26.6480  -25.1740 O   0  0  0  0  0  0  0  0  0  0  0  0
    2.3260   24.9170  -25.7680 C   0  0  0  0  0  0  0  0  0  0  0  0
    1.8840   25.7630  -26.7940 C   0  0  0  0  0  0  0  0  0  0  0  0
    0.6510   25.5350  -27.4130 C   0  0  0  0  0  0  0  0  0  0  0  0
   -0.1510   24.4490  -27.0190 C   0  0  0  0  0  0  0  0  0  0  0  0
   -1.4320   24.2030  -27.6240 N   0  0  0  0  0  0  0  0  0  0  0  0
   -1.6410   23.3200  -28.7410 C   0  0  0  0  0  0  0  0  0  0  0  0
   -0.6810   22.6600  -29.2210 O   0  0  0  0  0  0  0  0  0  0  0  0
   -2.9910   23.1600  -29.3310 C   0  0  0  0  0  0  0  0  0  0  0  0
   -3.1340   22.8200  -30.6890 C   0  0  0  0  0  0  0  0  0  0  0  0
   -1.9960   22.6470  -31.4750 O   0  0  0  0  0  0  0  0  0  0  0  0
   -4.4150   22.6630  -31.2560 C   0  0  0  0  0  0  0  0  0  0  0  0
   -4.5620   22.2260  -32.7030 C   0  0  0  0  0  0  0  0  0  0  0  0
   -4.8070   20.7420  -32.7970 C   0  0  0  0  0  0  0  0  0  0  0  0
   -3.7540   19.8610  -33.0890 C   0  0  0  0  0  0  0  0  0  0  0  0
   -3.9910   18.4890  -33.1990 C   0  0  0  0  0  0  0  0  0  0  0  0
   -5.2810   17.9780  -33.0100 C   0  0  0  0  0  0  0  0  0  0  0  0
   -5.5400   16.2450  -33.1590 Cl  0  0  0  0  0  0  0  0  0  0  0  0
   -6.3390   18.8510  -32.7060 C   0  0  0  0  0  0  0  0  0  0  0  0
   -7.9730   18.2510  -32.4570 Cl  0  0  0  0  0  0  0  0  0  0  0  0
   -6.0980   20.2260  -32.5990 C   0  0  0  0  0  0  0  0  0  0  0  0
   -5.5450   22.8450  -30.4220 C   0  0  0  0  0  0  0  0  0  0  0  0
   -6.9240   22.6750  -30.9130 C   0  0  0  0  0  0  0  0  0  0  0  0
   -7.7180   21.6100  -30.4620 C   0  0  0  0  0  0  0  0  0  0  0  0
   -9.0250   21.4600  -30.9340 C   0  0  0  0  0  0  0  0  0  0  0  0
   -9.5420   22.3640  -31.8670 C   0  0  0  0  0  0  0  0  0  0  0  0
   -8.7490   23.4160  -32.3340 C   0  0  0  0  0  0  0  0  0  0  0  0
   -7.4400   23.5670  -31.8650 C   0  0  0  0  0  0  0  0  0  0  0  0
   -5.3730   23.1440  -29.1080 N   0  0  0  0  0  0  0  0  0  0  0  0
   -4.1490   23.3040  -28.5470 C   0  0  0  0  0  0  0  0  0  0  0  0
   -4.0680   23.5540  -27.3150 O   0  0  0  0  0  0  0  0  0  0  0  0
    0.2800   23.6280  -25.9670 C   0  0  0  0  0  0  0  0  0  0  0  0
    1.5130   23.8550  -25.3490 C   0  0  0  0  0  0  0  0  0  0  0  0
    4.5800   23.4970  -26.2860 H   0  0  0  0  0  0  0  0  0  0  0  0
    2.5093   26.6096  -27.1137 H   0  0  0  0  0  0  0  0  0  0  0  0
    0.3067   26.2083  -28.2119 H   0  0  0  0  0  0  0  0  0  0  0  0
   -2.2670   24.6450  -27.1760 H   0  0  0  0  0  0  0  0  0  0  0  0
   -5.4105   22.7600  -33.1556 H   0  0  0  0  0  0  0  0  0  0  0  0
   -3.6294   22.4616  -33.2366 H   0  0  0  0  0  0  0  0  0  0  0  0
   -2.7364   20.2534  -33.2320 H   0  0  0  0  0  0  0  0  0  0  0  0
   -3.1609   17.8070  -33.4351 H   0  0  0  0  0  0  0  0  0  0  0  0
   -6.9268   20.9078  -32.3578 H   0  0  0  0  0  0  0  0  0  0  0  0
   -7.3111   20.8914  -29.7353 H   0  0  0  0  0  0  0  0  0  0  0  0
   -9.6480   20.6293  -30.5708 H   0  0  0  0  0  0  0  0  0  0  0  0
  -10.5726   22.2473  -32.2334 H   0  0  0  0  0  0  0  0  0  0  0  0
   -9.1545   24.1253  -33.0705 H   0  0  0  0  0  0  0  0  0  0  0  0
   -6.8131   24.3877  -32.2438 H   0  0  0  0  0  0  0  0  0  0  0  0
   -0.3572   22.7989  -25.6255 H   0  0  0  0  0  0  0  0  0  0  0  0
    1.8461   23.1985  -24.5317 H   0  0  0  0  0  0  0  0  0  0  0  0
  1  2  1  0
  2  3  2  0
  2  4  2  0
  2  5  1  0
  5  6  2  0
  6  7  1  0
  7  8  2  0
  8  9  1  0
  9 10  1  0
 10 11  2  0
 10 12  1  0
 12 13  2  0
 13 14  1  0
 13 15  1  0
 15 16  1  0
 16 17  1  0
 17 18  2  0
 18 19  1  0
 19 20  2  0
 20 21  1  0
 20 22  1  0
 22 23  1  0
 22 24  2  0
 15 25  2  0
 25 26  1  0
 26 27  2  0
 27 28  1  0
 28 29  2  0
 29 30  1  0
 30 31  2  0
 25 32  1  0
 32 33  1  0
 33 34  2  0
  8 35  1  0
 35 36  2  0
 36  5  1  0
 33 12  1  0
 24 17  1  0
 31 26  1  0
  1 37  1  0
  6 38  1  0
  7 39  1  0
  9 40  1  0
 16 41  1  0
 16 42  1  0
 18 43  1  0
 19 44  1  0
 24 45  1  0
 27 46  1  0
 28 47  1  0
 29 48  1  0
 30 49  1  0
 31 50  1  0
 35 51  1  0
 36 52  1  0
M  CHG  3   1  -1  14  -1  32  -1
M  END
>  <UniqueID>  (28) 
26

>  <SMILES>  (28) 
[NH-]S(=O)(=O)c1ccc(NC(=O)c2c([O-])c(Cc3ccc(Cl)c(Cl)c3)c(-c3ccccc3)[n-]c2=O)cc1

>  <Energy>  (28) 
75.00527480067221

>  <Genealogy>  (28) 
[NH-]S(=O)(=O)c1ccc(NC(=O)c2c([O-])c(Cc3ccc(Cl)c(Cl)c3)c(-c3ccccc3)[n-]c2=O)cc1 (protonated)
[NH-]S(=O)(=O)c1ccc(NC(=O)c2c([O-])c(Cc3ccc(Cl)c(Cl)c3)c(-c3ccccc3)[n-]c2=O)cc1 (3D coordinates assigned)
[NH-]S(=O)(=O)c1ccc(NC(=O)c2c([O-])c(Cc3ccc(Cl)c(Cl)c3)c(-c3ccccc3)[n-]c2=O)cc1 (optimized conformer: 75.00527480067221 kcal/mol)

>  <smiles>  (28) 
NS(=O)(=O)c1ccc(NC(=O)c2c(O)c(Cc3ccc(Cl)c(Cl)c3)c(-c3ccccc3)[nH]c2=O)cc1

>  <score_type>  (28) 
oracle

>  <origin>  (28) 
adgpu

>  <m_score__min__energy>  (28) 
-10.130000000000001

>  <m_primary>  (28) 
energy

$$$$
28:0
     RDKit          3D

 29 30  0  0  0  0  0  0  0  0999 V2000
   -8.4000   19.0750  -32.3390 C   0  0  0  0  0  0  0  0  0  0  0  0
   -8.1870   20.5350  -32.1220 C   0  0  0  0  0  0  0  0  0  0  0  0
   -9.1580   21.4410  -31.7410 C   0  0  0  0  0  0  0  0  0  0  0  0
   -8.5150   22.6580  -31.6470 C   0  0  0  0  0  0  0  0  0  0  0  0
   -7.1950   22.4120  -31.9740 C   0  0  0  0  0  0  0  0  0  0  0  0
   -6.1150   23.4030  -32.0150 C   0  0  0  0  0  0  0  0  0  0  0  0
   -6.3600   24.6170  -31.7780 O   0  0  0  0  0  0  0  0  0  0  0  0
   -4.7860   22.9820  -32.3280 N   0  0  0  0  0  0  0  0  0  0  0  0
   -4.0670   21.9820  -31.5490 C   0  0  0  0  0  0  0  0  0  0  0  0
   -4.1860   22.2870  -30.0540 C   0  0  0  0  0  0  0  0  0  0  0  0
   -3.0500   23.1620  -29.5780 C   0  0  0  0  0  0  0  0  0  0  0  0
   -2.0060   22.6110  -28.8250 C   0  0  0  0  0  0  0  0  0  0  0  0
   -1.0000   23.4020  -28.3700 N   0  0  0  0  0  0  0  0  0  0  0  0
   -0.9890   24.7350  -28.6270 C   0  0  0  0  0  0  0  0  0  0  0  0
   -0.0470   25.4490  -28.1970 O   0  0  0  0  0  0  0  0  0  0  0  0
   -1.9950   25.2970  -29.3450 N   0  0  0  0  0  0  0  0  0  0  0  0
   -3.0220   24.5480  -29.8210 C   0  0  0  0  0  0  0  0  0  0  0  0
   -3.9420   25.1060  -30.4760 O   0  0  0  0  0  0  0  0  0  0  0  0
   -7.0290   21.1390  -32.2510 O   0  0  0  0  0  0  0  0  0  0  0  0
   -8.4742   18.5667  -31.3663 H   0  0  0  0  0  0  0  0  0  0  0  0
   -9.3302   18.9204  -32.9054 H   0  0  0  0  0  0  0  0  0  0  0  0
   -7.5527   18.6610  -32.9054 H   0  0  0  0  0  0  0  0  0  0  0  0
  -10.2219   21.2350  -31.5520 H   0  0  0  0  0  0  0  0  0  0  0  0
   -8.9609   23.6244  -31.3692 H   0  0  0  0  0  0  0  0  0  0  0  0
   -4.4935   20.9885  -31.7517 H   0  0  0  0  0  0  0  0  0  0  0  0
   -3.0049   22.0016  -31.8347 H   0  0  0  0  0  0  0  0  0  0  0  0
   -5.1386   22.8051  -29.8691 H   0  0  0  0  0  0  0  0  0  0  0  0
   -4.1454   21.3362  -29.5023 H   0  0  0  0  0  0  0  0  0  0  0  0
   -2.0006   21.5340  -28.6012 H   0  0  0  0  0  0  0  0  0  0  0  0
  1  2  1  0
  2  3  2  0
  3  4  1  0
  4  5  2  0
  5  6  1  0
  6  7  2  0
  6  8  1  0
  8  9  1  0
  9 10  1  0
 10 11  1  0
 11 12  2  0
 12 13  1  0
 13 14  1  0
 14 15  2  0
 14 16  1  0
 16 17  1  0
 17 18  2  0
  5 19  1  0
 19  2  1  0
 17 11  1  0
  1 20  1  0
  1 21  1  0
  1 22  1  0
  3 23  1  0
  4 24  1  0
  9 25  1  0
  9 26  1  0
 10 27  1  0
 10 28  1  0
 12 29  1  0
M  CHG  3   8  -1  13  -1  16  -1
M  END
>  <UniqueID>  (29) 
27

>  <SMILES>  (29) 
Cc1ccc(C(=O)[N-]CCc2c[n-]c(=O)[n-]c2=O)o1

>  <Energy>  (29) 
49.91237925100766

>  <Genealogy>  (29) 
Cc1ccc(C(=O)[N-]CCc2c[n-]c(=O)[n-]c2=O)o1 (protonated)
Cc1ccc(C(=O)[N-]CCc2c[n-]c(=O)[n-]c2=O)o1 (3D coordinates assigned)
Cc1ccc(C(=O)[N-]CCc2c[n-]c(=O)[n-]c2=O)o1 (optimized conformer: 49.91237925100766 kcal/mol)

>  <smiles>  (29) 
Cc1ccc(C(=O)NCCc2c[nH]c(=O)[nH]c2=O)o1

>  <score_type>  (29) 
oracle

>  <origin>  (29) 
adgpu

>  <m_score__min__energy>  (29) 
-9.3499999999999996

>  <m_primary>  (29) 
energy

$$$$
29:0
     RDKit          3D

 36 37  0  0  0  0  0  0  0  0999 V2000
   -1.3250   25.7070  -27.1750 C   0  0  0  0  0  0  0  0  0  0  0  0
   -2.5580   25.1230  -26.4860 C   0  0  0  0  0  0  0  0  0  0  0  0
   -3.3980   24.2380  -27.4230 C   0  0  0  0  0  0  0  0  0  0  0  0
   -2.7800   24.0410  -28.8190 C   0  0  0  0  0  0  0  0  0  0  0  0
   -3.7760   23.5440  -29.7920 N   0  0  0  0  0  0  0  0  0  0  0  0
   -4.4460   24.4290  -30.6000 C   0  0  0  0  0  0  0  0  0  0  0  0
   -4.2390   25.6700  -30.5090 O   0  0  0  0  0  0  0  0  0  0  0  0
   -5.3700   23.9700  -31.5360 C   0  0  0  0  0  0  0  0  0  0  0  0
   -5.5980   22.6000  -31.6480 C   0  0  0  0  0  0  0  0  0  0  0  0
   -6.5540   22.1150  -32.6050 N   0  0  0  0  0  0  0  0  0  0  0  0
   -7.1850   20.8250  -32.5210 C   0  0  0  0  0  0  0  0  0  0  0  0
   -8.5070   20.7120  -32.0570 C   0  0  0  0  0  0  0  0  0  0  0  0
   -9.1140   19.4610  -31.9440 C   0  0  0  0  0  0  0  0  0  0  0  0
   -8.4060   18.3070  -32.2800 C   0  0  0  0  0  0  0  0  0  0  0  0
   -7.0850   18.3970  -32.7300 C   0  0  0  0  0  0  0  0  0  0  0  0
   -6.2300   16.9150  -33.1400 Cl  0  0  0  0  0  0  0  0  0  0  0  0
   -6.4650   19.6550  -32.8460 C   0  0  0  0  0  0  0  0  0  0  0  0
   -4.8060   19.7690  -33.4350 Cl  0  0  0  0  0  0  0  0  0  0  0  0
   -4.9420   21.7450  -30.8150 N   0  0  0  0  0  0  0  0  0  0  0  0
   -4.0400   22.1990  -29.9020 C   0  0  0  0  0  0  0  0  0  0  0  0
   -3.4540   21.3660  -29.1570 O   0  0  0  0  0  0  0  0  0  0  0  0
   -0.6067   26.0472  -26.4145 H   0  0  0  0  0  0  0  0  0  0  0  0
   -0.8560   24.9353  -27.8032 H   0  0  0  0  0  0  0  0  0  0  0  0
   -1.6249   26.5587  -27.8032 H   0  0  0  0  0  0  0  0  0  0  0  0
   -2.2284   24.5158  -25.6301 H   0  0  0  0  0  0  0  0  0  0  0  0
   -3.1908   25.9646  -26.1678 H   0  0  0  0  0  0  0  0  0  0  0  0
   -3.5142   23.2500  -26.9536 H   0  0  0  0  0  0  0  0  0  0  0  0
   -4.3590   24.7527  -27.5701 H   0  0  0  0  0  0  0  0  0  0  0  0
   -2.3852   25.0046  -29.1734 H   0  0  0  0  0  0  0  0  0  0  0  0
   -1.9777   23.2930  -28.7367 H   0  0  0  0  0  0  0  0  0  0  0  0
   -5.9124   24.6796  -32.1781 H   0  0  0  0  0  0  0  0  0  0  0  0
   -6.7730   22.7190  -33.4300 H   0  0  0  0  0  0  0  0  0  0  0  0
   -9.0675   21.6173  -31.7807 H   0  0  0  0  0  0  0  0  0  0  0  0
  -10.1525   19.3845  -31.5894 H   0  0  0  0  0  0  0  0  0  0  0  0
   -8.8886   17.3226  -32.1907 H   0  0  0  0  0  0  0  0  0  0  0  0
   -5.1420   20.7210  -30.8570 H   0  0  0  0  0  0  0  0  0  0  0  0
  1  2  1  0
  2  3  1  0
  3  4  1  0
  4  5  1  0
  5  6  1  0
  6  7  2  0
  6  8  1  0
  8  9  2  0
  9 10  1  0
 10 11  1  0
 11 12  2  0
 12 13  1  0
 13 14  2  0
 14 15  1  0
 15 16  1  0
 15 17  2  0
 17 18  1  0
  9 19  1  0
 19 20  1  0
 20 21  2  0
 20  5  1  0
 17 11  1  0
  1 22  1  0
  1 23  1  0
  1 24  1  0
  2 25  1  0
  2 26  1  0
  3 27  1  0
  3 28  1  0
  4 29  1  0
  4 30  1  0
  8 31  1  0
 10 32  1  0
 12 33  1  0
 13 34  1  0
 14 35  1  0
 19 36  1  0
M  END
>  <UniqueID>  (30) 
28

>  <SMILES>  (30) 
CCCCn1c(=O)cc(Nc2cccc(Cl)c2Cl)[nH]c1=O

>  <Energy>  (30) 
41.774221906247625

>  <Genealogy>  (30) 
CCCCn1c(=O)cc(Nc2cccc(Cl)c2Cl)[nH]c1=O (3D coordinates assigned)
CCCCn1c(=O)cc(Nc2cccc(Cl)c2Cl)[nH]c1=O (optimized conformer: 41.774221906247625 kcal/mol)

>  <smiles>  (30) 
CCCCn1c(=O)cc(Nc2cccc(Cl)c2Cl)[nH]c1=O

>  <score_type>  (30) 
oracle

>  <origin>  (30) 
adgpu

>  <m_score__min__energy>  (30) 
-7.6299999999999999

>  <m_primary>  (30) 
energy

$$$$
30:0
     RDKit          3D

 35 37  0  0  0  0  0  0  0  0999 V2000
   -4.8460   21.4140  -30.8760 O   0  0  0  0  0  0  0  0  0  0  0  0
   -4.5820   22.6400  -30.7330 C   0  0  0  0  0  0  0  0  0  0  0  0
   -5.3750   23.6000  -31.3880 C   0  0  0  0  0  0  0  0  0  0  0  0
   -6.4820   23.1940  -32.2210 N   0  0  0  0  0  0  0  0  0  0  0  0
   -7.7180   22.6180  -31.6870 C   0  0  0  0  0  0  0  0  0  0  0  0
   -7.7870   21.1430  -31.9770 C   0  0  0  0  0  0  0  0  0  0  0  0
   -6.8660   20.5470  -32.8520 C   0  0  0  0  0  0  0  0  0  0  0  0
   -6.9240   19.1700  -33.0770 C   0  0  0  0  0  0  0  0  0  0  0  0
   -7.8570   18.4130  -32.4430 N   0  0  0  0  0  0  0  0  0  0  0  0
   -8.7520   18.9610  -31.5780 C   0  0  0  0  0  0  0  0  0  0  0  0
   -8.7290   20.3350  -31.3240 C   0  0  0  0  0  0  0  0  0  0  0  0
   -5.0550   24.9500  -31.1980 C   0  0  0  0  0  0  0  0  0  0  0  0
   -4.0090   25.2960  -30.4110 N   0  0  0  0  0  0  0  0  0  0  0  0
   -3.2490   24.3650  -29.7850 C   0  0  0  0  0  0  0  0  0  0  0  0
   -1.9850   24.8880  -28.8730 S   0  0  0  0  0  0  0  0  0  0  0  0
   -3.5310   23.0290  -29.9410 N   0  0  0  0  0  0  0  0  0  0  0  0
   -2.7400   22.0200  -29.2800 C   0  0  0  0  0  0  0  0  0  0  0  0
   -1.5910   21.5070  -29.9020 C   0  0  0  0  0  0  0  0  0  0  0  0
   -0.8270   20.5250  -29.2640 C   0  0  0  0  0  0  0  0  0  0  0  0
   -1.2080   20.0490  -28.0050 C   0  0  0  0  0  0  0  0  0  0  0  0
   -2.3540   20.5540  -27.3840 C   0  0  0  0  0  0  0  0  0  0  0  0
   -3.1210   21.5370  -28.0190 C   0  0  0  0  0  0  0  0  0  0  0  0
   -6.3990   23.3170  -33.2570 H   0  0  0  0  0  0  0  0  0  0  0  0
   -7.7479   22.7736  -30.5985 H   0  0  0  0  0  0  0  0  0  0  0  0
   -8.5749   23.1130  -32.1674 H   0  0  0  0  0  0  0  0  0  0  0  0
   -6.1044   21.1596  -33.3567 H   0  0  0  0  0  0  0  0  0  0  0  0
   -6.2122   18.6970  -33.7695 H   0  0  0  0  0  0  0  0  0  0  0  0
   -9.4947   18.3221  -31.0778 H   0  0  0  0  0  0  0  0  0  0  0  0
   -9.4447   20.7796  -30.6169 H   0  0  0  0  0  0  0  0  0  0  0  0
   -5.6545   25.7307  -31.6890 H   0  0  0  0  0  0  0  0  0  0  0  0
   -1.2911   21.8782  -30.8931 H   0  0  0  0  0  0  0  0  0  0  0  0
    0.0744   20.1264  -29.7525 H   0  0  0  0  0  0  0  0  0  0  0  0
   -0.6057   19.2771  -27.5036 H   0  0  0  0  0  0  0  0  0  0  0  0
   -2.6533   20.1780  -26.3945 H   0  0  0  0  0  0  0  0  0  0  0  0
   -4.0235   21.9315  -27.5292 H   0  0  0  0  0  0  0  0  0  0  0  0
  1  2  2  0
  2  3  1  0
  3  4  1  0
  4  5  1  0
  5  6  1  0
  6  7  2  0
  7  8  1  0
  8  9  2  0
  9 10  1  0
 10 11  2  0
  3 12  2  0
 12 13  1  0
 13 14  1  0
 14 15  2  0
 14 16  1  0
 16 17  1  0
 17 18  2  0
 18 19  1  0
 19 20  2  0
 20 21  1  0
 21 22  2  0
 16  2  1  0
 22 17  1  0
 11  6  1  0
  4 23  1  0
  5 24  1  0
  5 25  1  0
  7 26  1  0
  8 27  1  0
 10 28  1  0
 11 29  1  0
 12 30  1  0
 18 31  1  0
 19 32  1  0
 20 33  1  0
 21 34  1  0
 22 35  1  0
M  CHG  1  13  -1
M  END
>  <UniqueID>  (31) 
29

>  <SMILES>  (31) 
O=c1c(NCc2ccncc2)c[n-]c(=S)n1-c1ccccc1

>  <Energy>  (31) 
51.72960091858037

>  <Genealogy>  (31) 
O=c1c(NCc2ccncc2)c[n-]c(=S)n1-c1ccccc1 (protonated)
O=c1c(NCc2ccncc2)c[n-]c(=S)n1-c1ccccc1 (3D coordinates assigned)
O=c1c(NCc2ccncc2)c[n-]c(=S)n1-c1ccccc1 (optimized conformer: 51.72960091858037 kcal/mol)

>  <smiles>  (31) 
O=c1c(NCc2ccncc2)c[nH]c(=S)n1-c1ccccc1

>  <score_type>  (31) 
oracle

>  <origin>  (31) 
adgpu

>  <m_score__min__energy>  (31) 
-8.7300000000000004

>  <m_primary>  (31) 
energy

$$$$
31:0
     RDKit          3D

 28 29  0  0  0  0  0  0  0  0999 V2000
   -8.3670   20.3410  -32.8170 N   0  0  0  0  0  0  0  0  0  0  0  0
   -7.6380   21.4800  -32.3420 C   0  0  0  0  0  0  0  0  0  0  0  0
   -8.2940   22.4310  -31.5480 C   0  0  0  0  0  0  0  0  0  0  0  0
   -7.5960   23.5170  -31.0180 C   0  0  0  0  0  0  0  0  0  0  0  0
   -6.2220   23.6720  -31.2640 C   0  0  0  0  0  0  0  0  0  0  0  0
   -5.5030   24.7860  -30.7050 N   0  0  0  0  0  0  0  0  0  0  0  0
   -6.1070   25.6900  -30.0900 O   0  0  0  0  0  0  0  0  0  0  0  0
   -4.1370   24.8750  -30.8390 O   0  0  0  0  0  0  0  0  0  0  0  0
   -5.5640   22.7230  -32.0670 C   0  0  0  0  0  0  0  0  0  0  0  0
   -6.2640   21.6440  -32.6260 C   0  0  0  0  0  0  0  0  0  0  0  0
   -5.5530   20.7170  -33.4600 N   0  0  0  0  0  0  0  0  0  0  0  0
   -5.7250   19.2890  -33.3970 C   0  0  0  0  0  0  0  0  0  0  0  0
   -5.7450   18.5460  -34.5890 C   0  0  0  0  0  0  0  0  0  0  0  0
   -5.9170   17.1580  -34.5560 C   0  0  0  0  0  0  0  0  0  0  0  0
   -6.0770   16.5010  -33.3330 C   0  0  0  0  0  0  0  0  0  0  0  0
   -6.0710   17.2300  -32.1420 C   0  0  0  0  0  0  0  0  0  0  0  0
   -5.8980   18.6180  -32.1690 C   0  0  0  0  0  0  0  0  0  0  0  0
   -8.3590   20.0630  -33.8220 H   0  0  0  0  0  0  0  0  0  0  0  0
   -8.8780   19.7220  -32.1480 H   0  0  0  0  0  0  0  0  0  0  0  0
   -9.3686   22.3202  -31.3409 H   0  0  0  0  0  0  0  0  0  0  0  0
   -8.1266   24.2581  -30.4022 H   0  0  0  0  0  0  0  0  0  0  0  0
   -4.4861   22.8286  -32.2591 H   0  0  0  0  0  0  0  0  0  0  0  0
   -4.9830   21.1130  -34.2420 H   0  0  0  0  0  0  0  0  0  0  0  0
   -5.6246   19.0589  -35.5546 H   0  0  0  0  0  0  0  0  0  0  0  0
   -5.9263   16.5831  -35.4938 H   0  0  0  0  0  0  0  0  0  0  0  0
   -6.2077   15.4091  -33.3085 H   0  0  0  0  0  0  0  0  0  0  0  0
   -6.2026   16.7119  -31.1806 H   0  0  0  0  0  0  0  0  0  0  0  0
   -5.8969   19.1882  -31.2283 H   0  0  0  0  0  0  0  0  0  0  0  0
  1  2  1  0
  2  3  2  0
  3  4  1  0
  4  5  2  0
  5  6  1  0
  6  7  2  0
  6  8  1  0
  5  9  1  0
  9 10  2  0
 10 11  1  0
 11 12  1  0
 12 13  2  0
 13 14  1  0
 14 15  2  0
 15 16  1  0
 16 17  2  0
 10  2  1  0
 17 12  1  0
  1 18  1  0
  1 19  1  0
  3 20  1  0
  4 21  1  0
  9 22  1  0
 11 23  1  0
 13 24  1  0
 14 25  1  0
 15 26  1  0
 16 27  1  0
 17 28  1  0
M  CHG  2   6   1   8  -1
M  END
>  <UniqueID>  (32) 
30

>  <SMILES>  (32) 
Nc1ccc([N+](=O)[O-])cc1Nc1ccccc1

>  <Energy>  (32) 
36.854084369628865

>  <Genealogy>  (32) 
Nc1ccc([N+](=O)[O-])cc1Nc1ccccc1 (3D coordinates assigned)
Nc1ccc([N+](=O)[O-])cc1Nc1ccccc1 (optimized conformer: 36.854084369628865 kcal/mol)

>  <smiles>  (32) 
Nc1ccc([N+](=O)[O-])cc1Nc1ccccc1

>  <score_type>  (32) 
oracle

>  <origin>  (32) 
adgpu

>  <m_score__min__energy>  (32) 
-7.4299999999999997

>  <m_primary>  (32) 
energy

$$$$
32:0
     RDKit          3D

 30 31  0  0  0  0  0  0  0  0999 V2000
   -5.1260   21.0680  -32.7190 C   0  0  0  0  0  0  0  0  0  0  0  0
   -5.5160   22.3190  -31.9860 C   0  0  0  0  0  0  0  0  0  0  0  0
   -6.8690   22.6500  -31.8240 C   0  0  0  0  0  0  0  0  0  0  0  0
   -7.2320   23.7890  -31.1020 C   0  0  0  0  0  0  0  0  0  0  0  0
   -6.2500   24.6030  -30.5330 C   0  0  0  0  0  0  0  0  0  0  0  0
   -4.8880   24.2870  -30.6890 C   0  0  0  0  0  0  0  0  0  0  0  0
   -3.8580   25.0880  -30.0850 N   0  0  0  0  0  0  0  0  0  0  0  0
   -2.7470   24.5540  -29.3500 C   0  0  0  0  0  0  0  0  0  0  0  0
   -2.7070   23.3300  -29.0510 O   0  0  0  0  0  0  0  0  0  0  0  0
   -1.6800   25.4310  -28.9700 N   0  0  0  0  0  0  0  0  0  0  0  0
   -1.3660   25.8710  -27.6390 C   0  0  0  0  0  0  0  0  0  0  0  0
   -1.9550   25.2900  -26.5000 C   0  0  0  0  0  0  0  0  0  0  0  0
   -1.6390   25.7680  -25.2240 C   0  0  0  0  0  0  0  0  0  0  0  0
   -0.7460   26.8320  -25.0740 C   0  0  0  0  0  0  0  0  0  0  0  0
   -0.1760   27.4280  -26.2030 C   0  0  0  0  0  0  0  0  0  0  0  0
   -0.4910   26.9550  -27.4800 C   0  0  0  0  0  0  0  0  0  0  0  0
   -4.5320   23.1280  -31.3970 C   0  0  0  0  0  0  0  0  0  0  0  0
   -4.8801   20.2791  -31.9929 H   0  0  0  0  0  0  0  0  0  0  0  0
   -5.9635   20.7369  -33.3506 H   0  0  0  0  0  0  0  0  0  0  0  0
   -4.2487   21.2715  -33.3506 H   0  0  0  0  0  0  0  0  0  0  0  0
   -7.6468   22.0106  -32.2669 H   0  0  0  0  0  0  0  0  0  0  0  0
   -8.2947   24.0459  -30.9811 H   0  0  0  0  0  0  0  0  0  0  0  0
   -6.5429   25.4953  -29.9602 H   0  0  0  0  0  0  0  0  0  0  0  0
   -3.9670   26.1260  -30.0980 H   0  0  0  0  0  0  0  0  0  0  0  0
   -2.6655   24.4580  -26.6138 H   0  0  0  0  0  0  0  0  0  0  0  0
   -2.0947   25.3050  -24.3363 H   0  0  0  0  0  0  0  0  0  0  0  0
   -0.4918   27.2002  -24.0691 H   0  0  0  0  0  0  0  0  0  0  0  0
    0.5215   28.2705  -26.0861 H   0  0  0  0  0  0  0  0  0  0  0  0
   -0.0498   27.4360  -28.3654 H   0  0  0  0  0  0  0  0  0  0  0  0
   -3.4715   22.8514  -31.4910 H   0  0  0  0  0  0  0  0  0  0  0  0
  1  2  1  0
  2  3  2  0
  3  4  1  0
  4  5  2  0
  5  6  1  0
  6  7  1  0
  7  8  1  0
  8  9  2  0
  8 10  1  0
 10 11  1  0
 11 12  2  0
 12 13  1  0
 13 14  2  0
 14 15  1  0
 15 16  2  0
  6 17  2  0
 17  2  1  0
 16 11  1  0
  1 18  1  0
  1 19  1  0
  1 20  1  0
  3 21  1  0
  4 22  1  0
  5 23  1  0
  7 24  1  0
 12 25  1  0
 13 26  1  0
 14 27  1  0
 15 28  1  0
 16 29  1  0
 17 30  1  0
M  CHG  1  10  -1
M  END
>  <UniqueID>  (33) 
31

>  <SMILES>  (33) 
Cc1cccc(NC(=O)[N-]c2ccccc2)c1

>  <Energy>  (33) 
36.45736777374573

>  <Genealogy>  (33) 
Cc1cccc(NC(=O)[N-]c2ccccc2)c1 (protonated)
Cc1cccc(NC(=O)[N-]c2ccccc2)c1 (3D coordinates assigned)
Cc1cccc(NC(=O)[N-]c2ccccc2)c1 (optimized conformer: 36.45736777374573 kcal/mol)

>  <smiles>  (33) 
Cc1cccc(NC(=O)Nc2ccccc2)c1

>  <score_type>  (33) 
oracle

>  <origin>  (33) 
adgpu

>  <m_score__min__energy>  (33) 
-8.3200000000000003

>  <m_primary>  (33) 
energy

$$$$
33:0
     RDKit          3D

 39 41  0  0  1  0  0  0  0  0999 V2000
   -4.4360   25.2020  -30.9360 O   0  0  0  0  0  0  0  0  0  0  0  0
   -5.4390   24.2200  -30.9250 C   0  0  0  0  0  0  0  0  0  0  0  0
   -6.1600   24.0700  -32.0880 C   0  0  0  0  0  0  0  0  0  0  0  0
   -7.1590   23.1170  -32.1340 C   0  0  0  0  0  0  0  0  0  0  0  0
   -7.4080   22.3360  -31.0040 C   0  0  0  0  0  0  0  0  0  0  0  0
   -8.4530   21.3790  -31.1360 N   0  0  0  0  0  0  0  0  0  0  0  0
   -8.2570   20.1690  -31.5390 C   0  0  0  0  0  0  0  0  0  0  0  0
   -7.0640   19.6480  -31.8850 N   0  0  0  0  0  0  0  0  0  0  0  0
   -7.2060   18.3650  -32.2550 C   0  0  0  0  0  0  0  0  0  0  0  0
   -5.8560   17.3240  -32.7830 S   0  0  0  0  0  0  0  0  0  0  0  0
   -4.6580   18.1800  -33.8060 C   0  0  0  0  0  0  0  0  0  0  0  0
   -4.0680   19.3700  -33.1450 C   0  0  0  0  0  0  0  0  0  0  0  0
   -2.9540   19.3220  -32.3350 C   0  0  0  0  0  0  0  0  0  0  0  0
   -2.4890   20.5100  -31.7630 C   0  0  0  0  0  0  0  0  0  0  0  0
   -3.1090   21.7200  -31.9860 C   0  0  0  0  0  0  0  0  0  0  0  0
   -2.6920   22.9200  -31.4490 O   0  0  0  0  0  0  0  0  0  0  0  0
   -2.2360   22.8810  -30.1050 C   0  0  0  0  0  0  0  0  0  0  0  0
   -2.2940   24.1810  -29.6380 F   0  0  0  0  0  0  0  0  0  0  0  0
   -0.9150   22.4690  -30.0720 F   0  0  0  0  0  0  0  0  0  0  0  0
   -2.9640   22.0710  -29.2920 F   0  0  0  0  0  0  0  0  0  0  0  0
   -4.2390   21.7700  -32.8090 C   0  0  0  0  0  0  0  0  0  0  0  0
   -4.6920   20.5920  -33.3690 C   0  0  0  0  0  0  0  0  0  0  0  0
   -8.5140   18.0830  -32.1360 N   0  0  0  0  0  0  0  0  0  0  0  0
   -9.1500   19.1660  -31.7050 N   0  0  0  0  0  0  0  0  0  0  0  0
   -6.6870   22.4810  -29.8380 C   0  0  0  0  0  0  0  0  0  0  0  0
   -5.6920   23.4450  -29.8210 C   0  0  0  0  0  0  0  0  0  0  0  0
   -3.4980   24.9150  -31.2200 H   0  0  0  0  0  0  0  0  0  0  0  0
   -5.9445   24.6978  -32.9651 H   0  0  0  0  0  0  0  0  0  0  0  0
   -7.7512   22.9752  -33.0501 H   0  0  0  0  0  0  0  0  0  0  0  0
   -3.8467   17.4799  -34.0541 H   0  0  0  0  0  0  0  0  0  0  0  0
   -5.1878   18.5337  -34.7028 H   0  0  0  0  0  0  0  0  0  0  0  0
   -2.4410   18.3682  -32.1424 H   0  0  0  0  0  0  0  0  0  0  0  0
   -1.6008   20.4776  -31.1149 H   0  0  0  0  0  0  0  0  0  0  0  0
   -4.7531   22.7226  -33.0049 H   0  0  0  0  0  0  0  0  0  0  0  0
   -5.5804   20.6215  -34.0170 H   0  0  0  0  0  0  0  0  0  0  0  0
   -8.9510   17.1490  -32.3540 H   0  0  0  0  0  0  0  0  0  0  0  0
  -10.1690   19.2960  -31.5060 H   0  0  0  0  0  0  0  0  0  0  0  0
   -6.8934   21.8564  -28.9564 H   0  0  0  0  0  0  0  0  0  0  0  0
   -5.0955   23.5915  -28.9084 H   0  0  0  0  0  0  0  0  0  0  0  0
  1  2  1  0
  2  3  2  0
  3  4  1  0
  4  5  2  0
  5  6  1  0
  6  7  2  0
  7  8  1  0
  8  9  2  0
  9 10  1  0
 10 11  1  0
 11 12  1  0
 12 13  2  0
 13 14  1  0
 14 15  2  0
 15 16  1  0
 16 17  1  0
 17 18  1  0
 17 19  1  0
 17 20  1  0
 15 21  1  0
 21 22  2  0
  9 23  1  0
 23 24  1  0
  5 25  1  0
 25 26  2  0
 26  2  1  0
 24  7  1  0
 22 12  1  0
  1 27  1  0
  3 28  1  0
  4 29  1  0
 11 30  1  0
 11 31  1  0
 13 32  1  0
 14 33  1  0
 21 34  1  0
 22 35  1  0
 23 36  1  0
 24 37  1  0
 25 38  1  0
 26 39  1  0
M  END
>  <smiles>  (34) 
Oc1ccc(N=c2nc(SCc3ccc(OC(F)(F)F)cc3)[nH][nH]2)cc1

>  <score_type>  (34) 
oracle

>  <origin>  (34) 
adgpu

>  <m_score__min__energy>  (34) 
-8.5600000000000005

>  <m_primary>  (34) 
energy

$$$$
34:0
     RDKit          3D

 51 53  0  0  0  0  0  0  0  0999 V2000
   -9.0940   22.3870  -31.6450 C   0  0  0  0  0  0  0  0  0  0  0  0
   -7.9060   21.5320  -31.9430 C   0  0  0  0  0  0  0  0  0  0  0  0
   -7.9770   20.2010  -32.1500 N   0  0  0  0  0  0  0  0  0  0  0  0
   -6.7780   19.7900  -32.5410 N   0  0  0  0  0  0  0  0  0  0  0  0
   -6.4730   18.4010  -32.8690 C   0  0  0  0  0  0  0  0  0  0  0  0
   -5.9290   20.8370  -32.6040 C   0  0  0  0  0  0  0  0  0  0  0  0
   -4.5020   20.7690  -33.0570 C   0  0  0  0  0  0  0  0  0  0  0  0
   -6.6290   21.9690  -32.2390 C   0  0  0  0  0  0  0  0  0  0  0  0
   -6.1920   23.3280  -32.3220 N   0  0  0  0  0  0  0  0  0  0  0  0
   -5.9160   24.2310  -30.8710 S   0  0  0  0  0  0  0  0  0  0  0  0
   -7.1620   24.2590  -30.0330 O   0  0  0  0  0  0  0  0  0  0  0  0
   -5.5420   25.6440  -31.2240 O   0  0  0  0  0  0  0  0  0  0  0  0
   -4.5880   23.4850  -29.9890 C   0  0  0  0  0  0  0  0  0  0  0  0
   -3.4720   22.9890  -30.6760 C   0  0  0  0  0  0  0  0  0  0  0  0
   -2.3660   22.5140  -29.9680 C   0  0  0  0  0  0  0  0  0  0  0  0
   -2.3610   22.5360  -28.5630 C   0  0  0  0  0  0  0  0  0  0  0  0
   -1.1960   22.1050  -27.8420 N   0  0  0  0  0  0  0  0  0  0  0  0
   -0.9490   20.6960  -27.6670 C   0  0  0  0  0  0  0  0  0  0  0  0
    0.1640   20.0770  -28.2650 C   0  0  0  0  0  0  0  0  0  0  0  0
    0.3750   18.7040  -28.1100 C   0  0  0  0  0  0  0  0  0  0  0  0
   -0.5250   17.9350  -27.3680 C   0  0  0  0  0  0  0  0  0  0  0  0
   -1.6400   18.5400  -26.7790 C   0  0  0  0  0  0  0  0  0  0  0  0
   -1.8530   19.9130  -26.9300 C   0  0  0  0  0  0  0  0  0  0  0  0
    0.0220   23.2810  -27.4300 S   0  0  0  0  0  0  0  0  0  0  0  0
   -0.5320   24.2330  -26.0320 C   0  0  0  0  0  0  0  0  0  0  0  0
    1.3130   22.5940  -27.0860 O   0  0  0  0  0  0  0  0  0  0  0  0
    0.2690   24.2030  -28.5920 O   0  0  0  0  0  0  0  0  0  0  0  0
   -3.4920   23.0060  -27.8800 C   0  0  0  0  0  0  0  0  0  0  0  0
   -4.5960   23.4850  -28.5900 C   0  0  0  0  0  0  0  0  0  0  0  0
   -9.2177   22.4760  -30.5556 H   0  0  0  0  0  0  0  0  0  0  0  0
   -8.9449   23.3863  -32.0800 H   0  0  0  0  0  0  0  0  0  0  0  0
   -9.9942   21.9283  -32.0800 H   0  0  0  0  0  0  0  0  0  0  0  0
   -6.3464   17.8244  -31.9408 H   0  0  0  0  0  0  0  0  0  0  0  0
   -7.2986   17.9732  -33.4567 H   0  0  0  0  0  0  0  0  0  0  0  0
   -5.5441   18.3585  -33.4567 H   0  0  0  0  0  0  0  0  0  0  0  0
   -3.8398   20.7374  -32.1792 H   0  0  0  0  0  0  0  0  0  0  0  0
   -4.3522   19.8627  -33.6621 H   0  0  0  0  0  0  0  0  0  0  0  0
   -4.2667   21.6569  -33.6621 H   0  0  0  0  0  0  0  0  0  0  0  0
   -5.6710   23.6270  -33.1750 H   0  0  0  0  0  0  0  0  0  0  0  0
   -3.4671   22.9737  -31.7759 H   0  0  0  0  0  0  0  0  0  0  0  0
   -1.4949   22.1209  -30.5126 H   0  0  0  0  0  0  0  0  0  0  0  0
    0.8713   20.6763  -28.8572 H   0  0  0  0  0  0  0  0  0  0  0  0
    1.2517   18.2278  -28.5733 H   0  0  0  0  0  0  0  0  0  0  0  0
   -0.3568   16.8547  -27.2471 H   0  0  0  0  0  0  0  0  0  0  0  0
   -2.3500   17.9346  -26.1964 H   0  0  0  0  0  0  0  0  0  0  0  0
   -2.7340   20.3834  -26.4689 H   0  0  0  0  0  0  0  0  0  0  0  0
   -0.2364   23.7250  -25.1022 H   0  0  0  0  0  0  0  0  0  0  0  0
   -0.0747   25.2329  -26.0649 H   0  0  0  0  0  0  0  0  0  0  0  0
   -1.6273   24.3294  -26.0649 H   0  0  0  0  0  0  0  0  0  0  0  0
   -3.5101   22.9975  -26.7802 H   0  0  0  0  0  0  0  0  0  0  0  0
   -5.4746   23.8635  -28.0470 H   0  0  0  0  0  0  0  0  0  0  0  0
  1  2  1  0
  2  3  2  0
  3  4  1  0
  4  5  1  0
  4  6  1  0
  6  7  1  0
  6  8  2  0
  8  9  1  0
  9 10  1  0
 10 11  2  0
 10 12  2  0
 10 13  1  0
 13 14  2  0
 14 15  1  0
 15 16  2  0
 16 17  1  0
 17 18  1  0
 18 19  2  0
 19 20  1  0
 20 21  2  0
 21 22  1  0
 22 23  2  0
 17 24  1  0
 24 25  1  0
 24 26  2  0
 24 27  2  0
 16 28  1  0
 28 29  2  0
  8  2  1  0
 29 13  1  0
 23 18  1  0
  1 30  1  0
  1 31  1  0
  1 32  1  0
  5 33  1  0
  5 34  1  0
  5 35  1  0
  7 36  1  0
  7 37  1  0
  7 38  1  0
  9 39  1  0
 14 40  1  0
 15 41  1  0
 19 42  1  0
 20 43  1  0
 21 44  1  0
 22 45  1  0
 23 46  1  0
 25 47  1  0
 25 48  1  0
 25 49  1  0
 28 50  1  0
 29 51  1  0
M  END
>  <UniqueID>  (35) 
32

>  <SMILES>  (35) 
Cc1nn(C)c(C)c1NS(=O)(=O)c1ccc(N(c2ccccc2)S(C)(=O)=O)cc1

>  <Energy>  (35) 
93.10796576141804

>  <Genealogy>  (35) 
Cc1nn(C)c(C)c1NS(=O)(=O)c1ccc(N(c2ccccc2)S(C)(=O)=O)cc1 (3D coordinates assigned)
Cc1nn(C)c(C)c1NS(=O)(=O)c1ccc(N(c2ccccc2)S(C)(=O)=O)cc1 (optimized conformer: 93.10796576141804 kcal/mol)

>  <smiles>  (35) 
Cc1nn(C)c(C)c1NS(=O)(=O)c1ccc(N(c2ccccc2)S(C)(=O)=O)cc1

>  <score_type>  (35) 
oracle

>  <origin>  (35) 
adgpu

>  <m_score__min__energy>  (35) 
-10.279999999999999

>  <m_primary>  (35) 
energy

$$$$
35:0
     RDKit          3D

 68 72  0  0  0  0  0  0  0  0999 V2000
    4.1370   23.2920  -36.4880 C   0  0  0  0  0  0  0  0  0  0  0  0
    3.5750   24.2460  -35.4360 C   0  0  0  0  0  0  0  0  0  0  0  0
    2.3060   24.9160  -35.9220 C   0  0  0  0  0  0  0  0  0  0  0  0
    2.3610   26.3000  -36.1820 C   0  0  0  0  0  0  0  0  0  0  0  0
    1.2210   27.0050  -36.5660 C   0  0  0  0  0  0  0  0  0  0  0  0
    0.0010   26.3450  -36.6850 C   0  0  0  0  0  0  0  0  0  0  0  0
   -0.0840   24.9770  -36.4250 C   0  0  0  0  0  0  0  0  0  0  0  0
    1.0550   24.2370  -36.0500 C   0  0  0  0  0  0  0  0  0  0  0  0
    0.8740   22.7780  -35.8060 C   0  0  0  0  0  0  0  0  0  0  0  0
    0.4560   22.2850  -34.6120 N   0  0  0  0  0  0  0  0  0  0  0  0
    0.3570   20.9660  -34.8380 C   0  0  0  0  0  0  0  0  0  0  0  0
    0.7190   20.6890  -36.1210 C   0  0  0  0  0  0  0  0  0  0  0  0
    1.0250   21.8280  -36.7590 N   0  0  0  0  0  0  0  0  0  0  0  0
    0.6340   19.3290  -36.7400 C   0  0  0  0  0  0  0  0  0  0  0  0
    0.5500   18.2460  -35.6470 C   0  0  0  0  0  0  0  0  0  0  0  0
   -0.3580   18.6630  -34.5610 N   0  0  0  0  0  0  0  0  0  0  0  0
   -1.2580   17.7060  -33.9790 C   0  0  0  0  0  0  0  0  0  0  0  0
   -0.8070   16.6080  -33.5530 O   0  0  0  0  0  0  0  0  0  0  0  0
   -2.7090   17.9860  -33.8540 C   0  0  0  0  0  0  0  0  0  0  0  0
   -3.1200   18.9880  -32.9600 C   0  0  0  0  0  0  0  0  0  0  0  0
   -4.4700   19.3160  -32.8290 C   0  0  0  0  0  0  0  0  0  0  0  0
   -5.4440   18.6500  -33.5880 C   0  0  0  0  0  0  0  0  0  0  0  0
   -6.9080   19.0290  -33.4630 C   0  0  0  0  0  0  0  0  0  0  0  0
   -7.1930   19.9850  -32.3670 N   0  0  0  0  0  0  0  0  0  0  0  0
   -8.5270   19.8330  -31.7370 C   0  0  0  0  0  0  0  0  0  0  0  0
   -9.4510   21.0100  -32.0730 C   0  0  0  0  0  0  0  0  0  0  0  0
   -8.8850   22.2950  -31.6000 N   0  0  0  0  0  0  0  0  0  0  0  0
   -9.4950   23.4220  -32.3230 C   0  0  0  0  0  0  0  0  0  0  0  0
   -7.4020   22.3550  -31.6550 C   0  0  0  0  0  0  0  0  0  0  0  0
   -6.8190   21.3800  -32.6870 C   0  0  0  0  0  0  0  0  0  0  0  0
   -5.0380   17.6580  -34.4930 C   0  0  0  0  0  0  0  0  0  0  0  0
   -3.6880   17.2800  -34.5980 C   0  0  0  0  0  0  0  0  0  0  0  0
   -3.3380   16.1310  -35.5080 C   0  0  0  0  0  0  0  0  0  0  0  0
   -0.0840   19.9300  -33.8560 C   0  0  0  0  0  0  0  0  0  0  0  0
    4.6345   22.4475  -35.9887 H   0  0  0  0  0  0  0  0  0  0  0  0
    3.3168   22.9148  -37.1165 H   0  0  0  0  0  0  0  0  0  0  0  0
    4.8645   23.8266  -37.1165 H   0  0  0  0  0  0  0  0  0  0  0  0
    3.3525   23.6787  -34.5202 H   0  0  0  0  0  0  0  0  0  0  0  0
    4.3253   25.0257  -35.2383 H   0  0  0  0  0  0  0  0  0  0  0  0
    3.3182   26.8324  -36.0804 H   0  0  0  0  0  0  0  0  0  0  0  0
    1.2856   28.0830  -36.7750 H   0  0  0  0  0  0  0  0  0  0  0  0
   -0.8980   26.9035  -36.9847 H   0  0  0  0  0  0  0  0  0  0  0  0
   -1.0552   24.4682  -36.5141 H   0  0  0  0  0  0  0  0  0  0  0  0
   -0.2633   19.2747  -37.3739 H   0  0  0  0  0  0  0  0  0  0  0  0
    1.5356   19.1556  -37.3458 H   0  0  0  0  0  0  0  0  0  0  0  0
    0.1741   17.3132  -36.0925 H   0  0  0  0  0  0  0  0  0  0  0  0
    1.5546   18.0931  -35.2258 H   0  0  0  0  0  0  0  0  0  0  0  0
   -2.3697   19.5200  -32.3566 H   0  0  0  0  0  0  0  0  0  0  0  0
   -4.7733   20.1041  -32.1241 H   0  0  0  0  0  0  0  0  0  0  0  0
   -7.2293   19.4845  -34.4113 H   0  0  0  0  0  0  0  0  0  0  0  0
   -7.4566   18.1047  -33.2290 H   0  0  0  0  0  0  0  0  0  0  0  0
   -8.9885   18.9027  -32.0998 H   0  0  0  0  0  0  0  0  0  0  0  0
   -8.3896   19.8058  -30.6460 H   0  0  0  0  0  0  0  0  0  0  0  0
   -9.5863   21.0586  -33.1636 H   0  0  0  0  0  0  0  0  0  0  0  0
  -10.4141   20.8491  -31.5665 H   0  0  0  0  0  0  0  0  0  0  0  0
   -9.8896   24.1510  -31.5999 H   0  0  0  0  0  0  0  0  0  0  0  0
   -8.7359   23.9063  -32.9548 H   0  0  0  0  0  0  0  0  0  0  0  0
  -10.3156   23.0512  -32.9548 H   0  0  0  0  0  0  0  0  0  0  0  0
   -7.0988   23.3777  -31.9235 H   0  0  0  0  0  0  0  0  0  0  0  0
   -7.0161   22.0691  -30.6654 H   0  0  0  0  0  0  0  0  0  0  0  0
   -7.2065   21.6369  -33.6839 H   0  0  0  0  0  0  0  0  0  0  0  0
   -5.7223   21.4626  -32.6675 H   0  0  0  0  0  0  0  0  0  0  0  0
   -5.7882   17.1679  -35.1309 H   0  0  0  0  0  0  0  0  0  0  0  0
   -3.0703   15.2523  -34.9028 H   0  0  0  0  0  0  0  0  0  0  0  0
   -4.2033   15.8893  -36.1427 H   0  0  0  0  0  0  0  0  0  0  0  0
   -2.4849   16.4127  -36.1427 H   0  0  0  0  0  0  0  0  0  0  0  0
   -0.9985   20.2719  -33.3493 H   0  0  0  0  0  0  0  0  0  0  0  0
    0.7112   19.7696  -33.1131 H   0  0  0  0  0  0  0  0  0  0  0  0
  1  2  1  0
  2  3  1  0
  3  4  2  0
  4  5  1  0
  5  6  2  0
  6  7  1  0
  7  8  2  0
  8  9  1  0
  9 10  2  0
 10 11  1  0
 11 12  2  0
 12 13  1  0
 12 14  1  0
 14 15  1  0
 15 16  1  0
 16 17  1  0
 17 18  2  0
 17 19  1  0
 19 20  2  0
 20 21  1  0
 21 22  2  0
 22 23  1  0
 23 24  1  0
 24 25  1  0
 25 26  1  0
 26 27  1  0
 27 28  1  0
 27 29  1  0
 29 30  1  0
 22 31  1  0
 31 32  2  0
 32 33  1  0
 16 34  1  0
  8  3  1  0
 13  9  1  0
 32 19  1  0
 34 11  1  0
 30 24  1  0
  1 35  1  0
  1 36  1  0
  1 37  1  0
  2 38  1  0
  2 39  1  0
  4 40  1  0
  5 41  1  0
  6 42  1  0
  7 43  1  0
 14 44  1  0
 14 45  1  0
 15 46  1  0
 15 47  1  0
 20 48  1  0
 21 49  1  0
 23 50  1  0
 23 51  1  0
 25 52  1  0
 25 53  1  0
 26 54  1  0
 26 55  1  0
 28 56  1  0
 28 57  1  0
 28 58  1  0
 29 59  1  0
 29 60  1  0
 30 61  1  0
 30 62  1  0
 31 63  1  0
 33 64  1  0
 33 65  1  0
 33 66  1  0
 34 67  1  0
 34 68  1  0
M  CHG  1  13  -1
M  END
>  <UniqueID>  (36) 
33

>  <SMILES>  (36) 
CCc1ccccc1-c1nc2c([n-]1)CCN(C(=O)c1ccc(CN3CCN(C)CC3)cc1C)C2

>  <Energy>  (36) 
126.13448697423497

>  <Genealogy>  (36) 
CCc1ccccc1-c1nc2c([n-]1)CCN(C(=O)c1ccc(CN3CCN(C)CC3)cc1C)C2 (protonated)
CCc1ccccc1-c1nc2c([n-]1)CCN(C(=O)c1ccc(CN3CCN(C)CC3)cc1C)C2 (3D coordinates assigned)
CCc1ccccc1-c1nc2c([n-]1)CCN(C(=O)c1ccc(CN3CCN(C)CC3)cc1C)C2 (nonaromatic ring conformer: 126.13448697423497 kcal/mol)

>  <smiles>  (36) 
CCc1ccccc1-c1nc2c([nH]1)CCN(C(=O)c1ccc(CN3CCN(C)CC3)cc1C)C2

>  <score_type>  (36) 
oracle

>  <origin>  (36) 
adgpu

>  <m_score__min__energy>  (36) 
-10.960000000000001

>  <m_primary>  (36) 
energy

$$$$
36:0
     RDKit          3D

 47 49  0  0  0  0  0  0  0  0999 V2000
   -2.6140   22.2230  -30.8680 C   0  0  0  0  0  0  0  0  0  0  0  0
   -3.3200   21.8580  -29.5650 C   0  0  0  0  0  0  0  0  0  0  0  0
   -2.8340   22.7340  -28.4340 C   0  0  0  0  0  0  0  0  0  0  0  0
   -1.6000   22.4360  -27.8290 C   0  0  0  0  0  0  0  0  0  0  0  0
   -1.0560   23.2900  -26.8660 C   0  0  0  0  0  0  0  0  0  0  0  0
   -1.7190   24.4650  -26.5180 C   0  0  0  0  0  0  0  0  0  0  0  0
   -2.9380   24.7820  -27.1190 C   0  0  0  0  0  0  0  0  0  0  0  0
   -3.5190   23.9140  -28.0520 C   0  0  0  0  0  0  0  0  0  0  0  0
   -4.7900   24.2650  -28.6160 N   0  0  0  0  0  0  0  0  0  0  0  0
   -4.9010   24.8830  -29.9060 C   0  0  0  0  0  0  0  0  0  0  0  0
   -3.8650   25.2740  -30.5120 O   0  0  0  0  0  0  0  0  0  0  0  0
   -6.2580   25.1280  -30.5060 C   0  0  0  0  0  0  0  0  0  0  0  0
   -7.1760   23.8930  -30.4720 C   0  0  0  0  0  0  0  0  0  0  0  0
   -7.6690   23.4550  -31.8620 C   0  0  0  0  0  0  0  0  0  0  0  0
   -7.3140   22.0580  -32.1500 N   0  0  0  0  0  0  0  0  0  0  0  0
   -8.2630   21.1220  -31.9880 N   0  0  0  0  0  0  0  0  0  0  0  0
   -8.0220   19.8030  -32.2310 C   0  0  0  0  0  0  0  0  0  0  0  0
   -9.1140   18.7940  -32.0540 C   0  0  0  0  0  0  0  0  0  0  0  0
   -6.7750   19.4460  -32.6300 N   0  0  0  0  0  0  0  0  0  0  0  0
   -6.2670   18.2350  -32.9300 C   0  0  0  0  0  0  0  0  0  0  0  0
   -4.9330   18.3810  -33.2770 C   0  0  0  0  0  0  0  0  0  0  0  0
   -4.6280   19.7320  -33.1790 C   0  0  0  0  0  0  0  0  0  0  0  0
   -5.7990   20.3490  -32.7830 C   0  0  0  0  0  0  0  0  0  0  0  0
   -6.0490   21.6990  -32.5520 C   0  0  0  0  0  0  0  0  0  0  0  0
   -5.1370   22.5550  -32.7110 O   0  0  0  0  0  0  0  0  0  0  0  0
   -1.6579   22.7173  -30.6410 H   0  0  0  0  0  0  0  0  0  0  0  0
   -2.4252   21.3096  -31.4511 H   0  0  0  0  0  0  0  0  0  0  0  0
   -3.2501   22.9052  -31.4511 H   0  0  0  0  0  0  0  0  0  0  0  0
   -4.4040   21.9970  -29.6899 H   0  0  0  0  0  0  0  0  0  0  0  0
   -3.0966   20.8086  -29.3223 H   0  0  0  0  0  0  0  0  0  0  0  0
   -1.0583   21.5228  -28.1163 H   0  0  0  0  0  0  0  0  0  0  0  0
   -0.1022   23.0340  -26.3816 H   0  0  0  0  0  0  0  0  0  0  0  0
   -1.2818   25.1425  -25.7698 H   0  0  0  0  0  0  0  0  0  0  0  0
   -3.4468   25.7216  -26.8577 H   0  0  0  0  0  0  0  0  0  0  0  0
   -5.6450   23.8410  -28.1910 H   0  0  0  0  0  0  0  0  0  0  0  0
   -6.7452   25.9396  -29.9456 H   0  0  0  0  0  0  0  0  0  0  0  0
   -6.1023   25.3866  -31.5638 H   0  0  0  0  0  0  0  0  0  0  0  0
   -6.6195   23.0581  -30.0211 H   0  0  0  0  0  0  0  0  0  0  0  0
   -8.0652   24.1675  -29.8855 H   0  0  0  0  0  0  0  0  0  0  0  0
   -8.7633   23.5600  -31.9014 H   0  0  0  0  0  0  0  0  0  0  0  0
   -7.1840   24.0940  -32.6147 H   0  0  0  0  0  0  0  0  0  0  0  0
   -9.2914   18.6301  -30.9808 H   0  0  0  0  0  0  0  0  0  0  0  0
  -10.0360   19.1650  -32.5256 H   0  0  0  0  0  0  0  0  0  0  0  0
   -8.8169   17.8456  -32.5256 H   0  0  0  0  0  0  0  0  0  0  0  0
   -6.8207   17.2849  -32.9039 H   0  0  0  0  0  0  0  0  0  0  0  0
   -4.2443   17.5765  -33.5746 H   0  0  0  0  0  0  0  0  0  0  0  0
   -3.6573   20.2108  -33.3755 H   0  0  0  0  0  0  0  0  0  0  0  0
  1  2  1  0
  2  3  1  0
  3  4  2  0
  4  5  1  0
  5  6  2  0
  6  7  1  0
  7  8  2  0
  8  9  1  0
  9 10  1  0
 10 11  2  0
 10 12  1  0
 12 13  1  0
 13 14  1  0
 14 15  1  0
 15 16  1  0
 16 17  2  0
 17 18  1  0
 17 19  1  0
 19 20  1  0
 20 21  2  0
 21 22  1  0
 22 23  2  0
 23 24  1  0
 24 25  2  0
  8  3  1  0
 24 15  1  0
 23 19  1  0
  1 26  1  0
  1 27  1  0
  1 28  1  0
  2 29  1  0
  2 30  1  0
  4 31  1  0
  5 32  1  0
  6 33  1  0
  7 34  1  0
  9 35  1  0
 12 36  1  0
 12 37  1  0
 13 38  1  0
 13 39  1  0
 14 40  1  0
 14 41  1  0
 18 42  1  0
 18 43  1  0
 18 44  1  0
 20 45  1  0
 21 46  1  0
 22 47  1  0
M  END
>  <UniqueID>  (37) 
34

>  <SMILES>  (37) 
CCc1ccccc1NC(=O)CCCn1nc(C)n2cccc2c1=O

>  <Energy>  (37) 
78.99397039269722

>  <Genealogy>  (37) 
CCc1ccccc1NC(=O)CCCn1nc(C)n2cccc2c1=O (3D coordinates assigned)
CCc1ccccc1NC(=O)CCCn1nc(C)n2cccc2c1=O (optimized conformer: 78.99397039269722 kcal/mol)

>  <smiles>  (37) 
CCc1ccccc1NC(=O)CCCn1nc(C)n2cccc2c1=O

>  <score_type>  (37) 
oracle

>  <origin>  (37) 
adgpu

>  <m_score__min__energy>  (37) 
-8.9800000000000004

>  <m_primary>  (37) 
energy

$$$$
37:0
     RDKit          3D

 53 57  0  0  0  0  0  0  0  0999 V2000
   -3.8730   15.6770  -35.6380 O   0  0  0  0  0  0  0  0  0  0  0  0
   -3.5500   16.5790  -34.8210 C   0  0  0  0  0  0  0  0  0  0  0  0
   -2.1630   16.8990  -34.6440 N   0  0  0  0  0  0  0  0  0  0  0  0
   -1.6530   17.7650  -33.6170 C   0  0  0  0  0  0  0  0  0  0  0  0
   -1.6330   19.1610  -33.7840 C   0  0  0  0  0  0  0  0  0  0  0  0
   -1.2190   19.9900  -32.7390 C   0  0  0  0  0  0  0  0  0  0  0  0
   -0.7910   19.4370  -31.5240 C   0  0  0  0  0  0  0  0  0  0  0  0
   -0.4340   20.3230  -30.3930 C   0  0  0  0  0  0  0  0  0  0  0  0
    0.5840   19.9090  -29.5200 C   0  0  0  0  0  0  0  0  0  0  0  0
    0.9810   20.7010  -28.4930 N   0  0  0  0  0  0  0  0  0  0  0  0
    0.4180   21.9130  -28.2550 C   0  0  0  0  0  0  0  0  0  0  0  0
    0.8360   22.6020  -27.2860 O   0  0  0  0  0  0  0  0  0  0  0  0
   -0.6210   22.3820  -29.0820 C   0  0  0  0  0  0  0  0  0  0  0  0
   -1.2320   23.6290  -28.8500 C   0  0  0  0  0  0  0  0  0  0  0  0
   -2.2800   24.0660  -29.6650 C   0  0  0  0  0  0  0  0  0  0  0  0
   -2.8750   25.2980  -29.4290 O   0  0  0  0  0  0  0  0  0  0  0  0
   -2.7330   23.2640  -30.7140 C   0  0  0  0  0  0  0  0  0  0  0  0
   -2.1370   22.0260  -30.9610 C   0  0  0  0  0  0  0  0  0  0  0  0
   -1.0640   21.5720  -30.1630 C   0  0  0  0  0  0  0  0  0  0  0  0
   -0.7730   18.0390  -31.3720 C   0  0  0  0  0  0  0  0  0  0  0  0
   -1.1880   17.2100  -32.4190 C   0  0  0  0  0  0  0  0  0  0  0  0
   -4.6010   17.2770  -34.0490 C   0  0  0  0  0  0  0  0  0  0  0  0
   -5.0710   18.5320  -34.4710 C   0  0  0  0  0  0  0  0  0  0  0  0
   -6.1680   19.1220  -33.8420 C   0  0  0  0  0  0  0  0  0  0  0  0
   -6.8020   18.4730  -32.7780 C   0  0  0  0  0  0  0  0  0  0  0  0
   -8.2940   19.1420  -32.1310 S   0  0  0  0  0  0  0  0  0  0  0  0
   -8.6520   18.4370  -30.8500 O   0  0  0  0  0  0  0  0  0  0  0  0
   -9.4270   18.9630  -33.1070 O   0  0  0  0  0  0  0  0  0  0  0  0
   -8.0250   20.8580  -31.8340 C   0  0  0  0  0  0  0  0  0  0  0  0
   -6.7570   21.3170  -31.4390 C   0  0  0  0  0  0  0  0  0  0  0  0
   -6.5240   22.6870  -31.2750 C   0  0  0  0  0  0  0  0  0  0  0  0
   -7.5530   23.6050  -31.5090 C   0  0  0  0  0  0  0  0  0  0  0  0
   -8.8170   23.1520  -31.9050 C   0  0  0  0  0  0  0  0  0  0  0  0
   -9.0530   21.7820  -32.0720 C   0  0  0  0  0  0  0  0  0  0  0  0
   -6.3020   17.2480  -32.3140 C   0  0  0  0  0  0  0  0  0  0  0  0
   -5.1990   16.6570  -32.9400 C   0  0  0  0  0  0  0  0  0  0  0  0
   -1.9449   19.6022  -34.7421 H   0  0  0  0  0  0  0  0  0  0  0  0
   -1.2288   21.0821  -32.8700 H   0  0  0  0  0  0  0  0  0  0  0  0
    1.0652   18.9313  -29.6704 H   0  0  0  0  0  0  0  0  0  0  0  0
   -0.8824   24.2633  -28.0221 H   0  0  0  0  0  0  0  0  0  0  0  0
   -3.5628   23.6089  -31.3484 H   0  0  0  0  0  0  0  0  0  0  0  0
   -2.5067   21.3982  -31.7851 H   0  0  0  0  0  0  0  0  0  0  0  0
   -0.4309   17.5956  -30.4252 H   0  0  0  0  0  0  0  0  0  0  0  0
   -1.1489   16.1171  -32.3006 H   0  0  0  0  0  0  0  0  0  0  0  0
   -4.5716   19.0522  -35.3016 H   0  0  0  0  0  0  0  0  0  0  0  0
   -6.5352   20.1008  -34.1843 H   0  0  0  0  0  0  0  0  0  0  0  0
   -5.9451   20.5972  -31.2582 H   0  0  0  0  0  0  0  0  0  0  0  0
   -5.5311   23.0422  -30.9619 H   0  0  0  0  0  0  0  0  0  0  0  0
   -7.3692   24.6821  -31.3820 H   0  0  0  0  0  0  0  0  0  0  0  0
   -9.6269   23.8742  -32.0854 H   0  0  0  0  0  0  0  0  0  0  0  0
  -10.0455   21.4301  -32.3901 H   0  0  0  0  0  0  0  0  0  0  0  0
   -6.7779   16.7505  -31.4560 H   0  0  0  0  0  0  0  0  0  0  0  0
   -4.7993   15.7043  -32.5624 H   0  0  0  0  0  0  0  0  0  0  0  0
  1  2  2  0
  2  3  1  0
  3  4  1  0
  4  5  2  0
  5  6  1  0
  6  7  2  0
  7  8  1  0
  8  9  2  0
  9 10  1  0
 10 11  1  0
 11 12  2  0
 11 13  1  0
 13 14  2  0
 14 15  1  0
 15 16  1  0
 15 17  2  0
 17 18  1  0
 18 19  2  0
  7 20  1  0
 20 21  2  0
  2 22  1  0
 22 23  2  0
 23 24  1  0
 24 25  2  0
 25 26  1  0
 26 27  2  0
 26 28  2  0
 26 29  1  0
 29 30  2  0
 30 31  1  0
 31 32  2  0
 32 33  1  0
 33 34  2  0
 25 35  1  0
 35 36  2  0
 21  4  1  0
 36 22  1  0
 19  8  1  0
 34 29  1  0
 19 13  1  0
  5 37  1  0
  6 38  1  0
  9 39  1  0
 14 40  1  0
 17 41  1  0
 18 42  1  0
 20 43  1  0
 21 44  1  0
 23 45  1  0
 24 46  1  0
 30 47  1  0
 31 48  1  0
 32 49  1  0
 33 50  1  0
 34 51  1  0
 35 52  1  0
 36 53  1  0
M  CHG  3   3  -1  10  -1  16  -1
M  END
>  <UniqueID>  (38) 
35

>  <SMILES>  (38) 
O=C([N-]c1ccc(-c2c[n-]c(=O)c3cc([O-])ccc23)cc1)c1ccc(S(=O)(=O)c2ccccc2)cc1

>  <Energy>  (38) 
82.77651920211555

>  <Genealogy>  (38) 
O=C([N-]c1ccc(-c2c[n-]c(=O)c3cc([O-])ccc23)cc1)c1ccc(S(=O)(=O)c2ccccc2)cc1 (protonated)
O=C([N-]c1ccc(-c2c[n-]c(=O)c3cc([O-])ccc23)cc1)c1ccc(S(=O)(=O)c2ccccc2)cc1 (3D coordinates assigned)
O=C([N-]c1ccc(-c2c[n-]c(=O)c3cc([O-])ccc23)cc1)c1ccc(S(=O)(=O)c2ccccc2)cc1 (optimized conformer: 82.77651920211555 kcal/mol)

>  <smiles>  (38) 
O=C(Nc1ccc(-c2c[nH]c(=O)c3cc(O)ccc23)cc1)c1ccc(S(=O)(=O)c2ccccc2)cc1

>  <score_type>  (38) 
oracle

>  <origin>  (38) 
adgpu

>  <m_score__min__energy>  (38) 
-13.16

>  <m_primary>  (38) 
energy

$$$$
38:0
     RDKit          3D

 59 63  0  0  0  0  0  0  0  0999 V2000
   -3.8350   22.3350  -28.7400 O   0  0  0  0  0  0  0  0  0  0  0  0
   -2.5470   22.9930  -29.1510 S   0  0  0  0  0  0  0  0  0  0  0  0
   -2.7110   23.5240  -30.5470 O   0  0  0  0  0  0  0  0  0  0  0  0
   -2.1710   24.3080  -28.0440 C   0  0  0  0  0  0  0  0  0  0  0  0
   -1.1090   25.1810  -28.3210 C   0  0  0  0  0  0  0  0  0  0  0  0
   -0.8210   26.2360  -27.4480 C   0  0  0  0  0  0  0  0  0  0  0  0
   -1.5950   26.4260  -26.2990 C   0  0  0  0  0  0  0  0  0  0  0  0
   -2.6620   25.5640  -26.0250 C   0  0  0  0  0  0  0  0  0  0  0  0
   -2.9510   24.5080  -26.8950 C   0  0  0  0  0  0  0  0  0  0  0  0
   -1.2380   21.8230  -29.1200 C   0  0  0  0  0  0  0  0  0  0  0  0
   -0.6490   21.1980  -30.1930 C   0  0  0  0  0  0  0  0  0  0  0  0
   -0.9950   21.3840  -31.5350 O   0  0  0  0  0  0  0  0  0  0  0  0
   -1.9340   20.6230  -32.2440 C   0  0  0  0  0  0  0  0  0  0  0  0
   -3.0990   21.1850  -32.7980 C   0  0  0  0  0  0  0  0  0  0  0  0
   -4.0040   20.3820  -33.4990 C   0  0  0  0  0  0  0  0  0  0  0  0
   -3.7510   19.0150  -33.6690 C   0  0  0  0  0  0  0  0  0  0  0  0
   -4.9110   18.0140  -34.5390 S   0  0  0  0  0  0  0  0  0  0  0  0
   -4.1860   17.1560  -35.5410 O   0  0  0  0  0  0  0  0  0  0  0  0
   -5.8640   18.9140  -35.2760 O   0  0  0  0  0  0  0  0  0  0  0  0
   -5.7810   17.0120  -33.3940 N   0  0  0  0  0  0  0  0  0  0  0  0
   -7.2520   17.1030  -33.6040 C   0  0  0  0  0  0  0  0  0  0  0  0
   -7.9940   17.9090  -32.5210 C   0  0  0  0  0  0  0  0  0  0  0  0
   -7.1600   19.0110  -32.0300 N   0  0  0  0  0  0  0  0  0  0  0  0
   -7.6680   20.3650  -31.9850 C   0  0  0  0  0  0  0  0  0  0  0  0
   -9.0440   20.6290  -31.8480 C   0  0  0  0  0  0  0  0  0  0  0  0
   -9.4940   21.9510  -31.8010 C   0  0  0  0  0  0  0  0  0  0  0  0
   -8.5790   23.0010  -31.8870 C   0  0  0  0  0  0  0  0  0  0  0  0
   -7.2210   22.7110  -32.0230 C   0  0  0  0  0  0  0  0  0  0  0  0
   -6.8020   21.4180  -32.0670 N   0  0  0  0  0  0  0  0  0  0  0  0
   -5.8120   18.6920  -31.5390 C   0  0  0  0  0  0  0  0  0  0  0  0
   -5.3670   17.2940  -32.0020 C   0  0  0  0  0  0  0  0  0  0  0  0
   -2.5820   18.4570  -33.1360 C   0  0  0  0  0  0  0  0  0  0  0  0
   -1.6760   19.2600  -32.4360 C   0  0  0  0  0  0  0  0  0  0  0  0
    0.3610   20.4240  -29.7360 N   0  0  0  0  0  0  0  0  0  0  0  0
    0.3610   20.5860  -28.4400 O   0  0  0  0  0  0  0  0  0  0  0  0
   -0.5660   21.4040  -28.0400 N   0  0  0  0  0  0  0  0  0  0  0  0
   -0.7720   21.7830  -26.7340 O   0  0  0  0  0  0  0  0  0  0  0  0
   -0.5012   25.0361  -29.2263 H   0  0  0  0  0  0  0  0  0  0  0  0
    0.0152   26.9167  -27.6658 H   0  0  0  0  0  0  0  0  0  0  0  0
   -1.3649   27.2529  -25.6110 H   0  0  0  0  0  0  0  0  0  0  0  0
   -3.2744   25.7170  -25.1242 H   0  0  0  0  0  0  0  0  0  0  0  0
   -3.7917   23.8326  -26.6781 H   0  0  0  0  0  0  0  0  0  0  0  0
   -3.2986   22.2602  -32.6792 H   0  0  0  0  0  0  0  0  0  0  0  0
   -4.9187   20.8259  -33.9188 H   0  0  0  0  0  0  0  0  0  0  0  0
   -5.4900   16.0280  -33.6000 H   0  0  0  0  0  0  0  0  0  0  0  0
   -7.4329   17.5836  -34.5768 H   0  0  0  0  0  0  0  0  0  0  0  0
   -7.6428   16.0758  -33.5580 H   0  0  0  0  0  0  0  0  0  0  0  0
   -8.9203   18.3204  -32.9486 H   0  0  0  0  0  0  0  0  0  0  0  0
   -8.2255   17.2396  -31.6794 H   0  0  0  0  0  0  0  0  0  0  0  0
   -9.7617   19.7983  -31.7783 H   0  0  0  0  0  0  0  0  0  0  0  0
  -10.5681   22.1637  -31.6963 H   0  0  0  0  0  0  0  0  0  0  0  0
   -8.9241   24.0447  -31.8480 H   0  0  0  0  0  0  0  0  0  0  0  0
   -6.4888   23.5288  -32.0947 H   0  0  0  0  0  0  0  0  0  0  0  0
   -5.1035   19.4399  -31.9245 H   0  0  0  0  0  0  0  0  0  0  0  0
   -5.8300   18.7051  -30.4392 H   0  0  0  0  0  0  0  0  0  0  0  0
   -4.2706   17.2313  -31.9382 H   0  0  0  0  0  0  0  0  0  0  0  0
   -5.8474   16.5512  -31.3481 H   0  0  0  0  0  0  0  0  0  0  0  0
   -2.3761   17.3846  -33.2684 H   0  0  0  0  0  0  0  0  0  0  0  0
   -0.7532   18.8174  -32.0329 H   0  0  0  0  0  0  0  0  0  0  0  0
  1  2  2  0
  2  3  2  0
  2  4  1  0
  4  5  2  0
  5  6  1  0
  6  7  2  0
  7  8  1  0
  8  9  2  0
  2 10  1  0
 10 11  1  0
 11 12  1  0
 12 13  1  0
 13 14  2  0
 14 15  1  0
 15 16  2  0
 16 17  1  0
 17 18  2  0
 17 19  2  0
 17 20  1  0
 20 21  1  0
 21 22  1  0
 22 23  1  0
 23 24  1  0
 24 25  2  0
 25 26  1  0
 26 27  2  0
 27 28  1  0
 28 29  2  0
 23 30  1  0
 30 31  1  0
 16 32  1  0
 32 33  2  0
 11 34  2  0
 34 35  1  0
 35 36  1  0
 36 37  1  0
  9  4  1  0
 36 10  2  0
 33 13  1  0
 31 20  1  0
 29 24  1  0
  5 38  1  0
  6 39  1  0
  7 40  1  0
  8 41  1  0
  9 42  1  0
 14 43  1  0
 15 44  1  0
 20 45  1  0
 21 46  1  0
 21 47  1  0
 22 48  1  0
 22 49  1  0
 25 50  1  0
 26 51  1  0
 27 52  1  0
 28 53  1  0
 30 54  1  0
 30 55  1  0
 31 56  1  0
 31 57  1  0
 32 58  1  0
 33 59  1  0
M  CHG  3  20   1  36   1  37  -1
M  END
>  <UniqueID>  (39) 
36

>  <SMILES>  (39) 
O=S(=O)(c1ccccc1)c1c(Oc2ccc(S(=O)(=O)[NH+]3CCN(c4ccccn4)CC3)cc2)no[n+]1[O-]

>  <Energy>  (39) 
118.92337220967543

>  <Genealogy>  (39) 
O=S(=O)(c1ccccc1)c1c(Oc2ccc(S(=O)(=O)[NH+]3CCN(c4ccccn4)CC3)cc2)no[n+]1[O-] (protonated)
O=S(=O)(c1ccccc1)c1c(Oc2ccc(S(=O)(=O)[NH+]3CCN(c4ccccn4)CC3)cc2)no[n+]1[O-] (3D coordinates assigned)
O=S(=O)(c1ccccc1)c1c(Oc2ccc(S(=O)(=O)[NH+]3CCN(c4ccccn4)CC3)cc2)no[n+]1[O-] (nonaromatic ring conformer: 118.92337220967543 kcal/mol)

>  <smiles>  (39) 
O=S(=O)(c1ccccc1)c1c(Oc2ccc(S(=O)(=O)N3CCN(c4ccccn4)CC3)cc2)no[n+]1[O-]

>  <score_type>  (39) 
oracle

>  <origin>  (39) 
adgpu

>  <m_score__min__energy>  (39) 
-9.8599999999999994

>  <m_primary>  (39) 
energy

$$$$
39:0
     RDKit          3D

 39 41  0  0  0  0  0  0  0  0999 V2000
   -0.3120   24.5790  -36.4870 N   0  0  0  0  0  0  0  0  0  0  0  0
    0.9380   23.9020  -36.3400 C   0  0  0  0  0  0  0  0  0  0  0  0
    1.9760   24.4180  -36.8320 O   0  0  0  0  0  0  0  0  0  0  0  0
    1.0180   22.6120  -35.6190 C   0  0  0  0  0  0  0  0  0  0  0  0
    2.2450   21.9540  -35.4460 C   0  0  0  0  0  0  0  0  0  0  0  0
    2.2820   20.7440  -34.7530 C   0  0  0  0  0  0  0  0  0  0  0  0
    1.1050   20.1950  -34.2430 C   0  0  0  0  0  0  0  0  0  0  0  0
   -0.1140   20.8660  -34.4390 C   0  0  0  0  0  0  0  0  0  0  0  0
   -1.3950   20.3300  -33.9130 C   0  0  0  0  0  0  0  0  0  0  0  0
   -1.6170   18.9420  -33.9000 C   0  0  0  0  0  0  0  0  0  0  0  0
   -2.8120   18.4190  -33.4020 C   0  0  0  0  0  0  0  0  0  0  0  0
   -3.7990   19.2720  -32.9060 C   0  0  0  0  0  0  0  0  0  0  0  0
   -3.5990   20.6630  -32.8960 C   0  0  0  0  0  0  0  0  0  0  0  0
   -4.6450   21.5700  -32.3600 C   0  0  0  0  0  0  0  0  0  0  0  0
   -6.0030   21.3500  -32.6560 C   0  0  0  0  0  0  0  0  0  0  0  0
   -6.9860   22.1980  -32.1420 C   0  0  0  0  0  0  0  0  0  0  0  0
   -6.6290   23.2780  -31.3320 C   0  0  0  0  0  0  0  0  0  0  0  0
   -5.2810   23.5240  -31.0390 C   0  0  0  0  0  0  0  0  0  0  0  0
   -4.8970   24.6680  -30.1400 C   0  0  0  0  0  0  0  0  0  0  0  0
   -3.8670   25.4150  -30.7250 O   0  0  0  0  0  0  0  0  0  0  0  0
   -4.2950   22.6620  -31.5430 C   0  0  0  0  0  0  0  0  0  0  0  0
   -2.3910   21.1830  -33.3990 C   0  0  0  0  0  0  0  0  0  0  0  0
   -0.1140   22.0520  -35.1110 N   0  0  0  0  0  0  0  0  0  0  0  0
   -1.1950   24.1860  -36.0910 H   0  0  0  0  0  0  0  0  0  0  0  0
   -0.3570   25.4880  -36.9980 H   0  0  0  0  0  0  0  0  0  0  0  0
    3.1698   22.3885  -35.8533 H   0  0  0  0  0  0  0  0  0  0  0  0
    3.2396   20.2223  -34.6085 H   0  0  0  0  0  0  0  0  0  0  0  0
    1.1311   19.2437  -33.6914 H   0  0  0  0  0  0  0  0  0  0  0  0
   -0.8428   18.2622  -34.2854 H   0  0  0  0  0  0  0  0  0  0  0  0
   -2.9760   17.3313  -33.4006 H   0  0  0  0  0  0  0  0  0  0  0  0
   -4.7399   18.8527  -32.5202 H   0  0  0  0  0  0  0  0  0  0  0  0
   -6.2922   20.5040  -33.2968 H   0  0  0  0  0  0  0  0  0  0  0  0
   -8.0451   22.0147  -32.3759 H   0  0  0  0  0  0  0  0  0  0  0  0
   -7.4083   23.9376  -30.9227 H   0  0  0  0  0  0  0  0  0  0  0  0
   -5.7718   25.3159  -29.9819 H   0  0  0  0  0  0  0  0  0  0  0  0
   -4.5488   24.2675  -29.1765 H   0  0  0  0  0  0  0  0  0  0  0  0
   -4.1820   25.6700  -31.6320 H   0  0  0  0  0  0  0  0  0  0  0  0
   -3.2379   22.8413  -31.2973 H   0  0  0  0  0  0  0  0  0  0  0  0
   -2.2229   22.2700  -33.3904 H   0  0  0  0  0  0  0  0  0  0  0  0
  1  2  1  0
  2  3  2  0
  2  4  1  0
  4  5  2  0
  5  6  1  0
  6  7  2  0
  7  8  1  0
  8  9  1  0
  9 10  2  0
 10 11  1  0
 11 12  2  0
 12 13  1  0
 13 14  1  0
 14 15  2  0
 15 16  1  0
 16 17  2  0
 17 18  1  0
 18 19  1  0
 19 20  1  0
 18 21  2  0
 13 22  2  0
  8 23  2  0
 23  4  1  0
 22  9  1  0
 21 14  1  0
  1 24  1  0
  1 25  1  0
  5 26  1  0
  6 27  1  0
  7 28  1  0
 10 29  1  0
 11 30  1  0
 12 31  1  0
 15 32  1  0
 16 33  1  0
 17 34  1  0
 19 35  1  0
 19 36  1  0
 20 37  1  0
 21 38  1  0
 22 39  1  0
M  END
>  <UniqueID>  (40) 
37

>  <SMILES>  (40) 
NC(=O)c1cccc(-c2cccc(-c3cccc(CO)c3)c2)n1

>  <Energy>  (40) 
49.44364420040464

>  <Genealogy>  (40) 
NC(=O)c1cccc(-c2cccc(-c3cccc(CO)c3)c2)n1 (3D coordinates assigned)
NC(=O)c1cccc(-c2cccc(-c3cccc(CO)c3)c2)n1 (optimized conformer: 49.44364420040464 kcal/mol)

>  <smiles>  (40) 
NC(=O)c1cccc(-c2cccc(-c3cccc(CO)c3)c2)n1

>  <score_type>  (40) 
oracle

>  <origin>  (40) 
adgpu

>  <m_score__min__energy>  (40) 
-9.5899999999999999

>  <m_primary>  (40) 
energy

$$$$
40:0
     RDKit          3D

 47 50  0  0  0  0  0  0  0  0999 V2000
   -1.7818   17.3706  -33.9197 H   0  0  0  0  0  0  0  0  0  0  0  0
   -1.7200   18.4630  -33.8060 C   0  0  0  0  0  0  0  0  0  0  0  0
   -2.5640   19.1180  -32.9070 C   0  0  0  0  0  0  0  0  0  0  0  0
   -3.2936   18.5390  -32.3218 H   0  0  0  0  0  0  0  0  0  0  0  0
   -2.4880   20.5090  -32.7450 C   0  0  0  0  0  0  0  0  0  0  0  0
   -3.3780   21.1650  -31.8230 N   0  0  0  0  0  0  0  0  0  0  0  0
   -2.9570   21.7370  -31.0540 H   0  0  0  0  0  0  0  0  0  0  0  0
   -4.8130   21.0830  -31.8970 C   0  0  0  0  0  0  0  0  0  0  0  0
   -5.4170   19.9130  -32.3780 C   0  0  0  0  0  0  0  0  0  0  0  0
   -4.7923   19.0508  -32.6542 H   0  0  0  0  0  0  0  0  0  0  0  0
   -6.8000   19.8330  -32.5090 C   0  0  0  0  0  0  0  0  0  0  0  0
   -7.2593   18.9108  -32.8945 H   0  0  0  0  0  0  0  0  0  0  0  0
   -7.6090   20.9140  -32.1550 C   0  0  0  0  0  0  0  0  0  0  0  0
   -9.5070   20.6970  -32.3330 Br  0  0  0  0  0  0  0  0  0  0  0  0
   -7.0280   22.1050  -31.6680 C   0  0  0  0  0  0  0  0  0  0  0  0
   -7.8660   23.1920  -31.2410 N   0  0  0  0  0  0  0  0  0  0  0  0
   -8.8860   23.0590  -31.0610 H   0  0  0  0  0  0  0  0  0  0  0  0
   -7.5000   24.1650  -31.1380 H   0  0  0  0  0  0  0  0  0  0  0  0
   -5.6150   22.1980  -31.5650 C   0  0  0  0  0  0  0  0  0  0  0  0
   -4.9670   23.4430  -31.0910 C   0  0  0  0  0  0  0  0  0  0  0  0
   -5.3710   24.5530  -31.5240 O   0  0  0  0  0  0  0  0  0  0  0  0
   -3.9070   23.4150  -30.1310 N   0  0  0  0  0  0  0  0  0  0  0  0
   -2.7020   23.6600  -30.4560 N   0  0  0  0  0  0  0  0  0  0  0  0
   -1.6390   23.6450  -29.5000 C   0  0  0  0  0  0  0  0  0  0  0  0
   -1.1540   24.7540  -28.8250 C   0  0  0  0  0  0  0  0  0  0  0  0
   -1.6170   26.0530  -28.9870 O   0  0  0  0  0  0  0  0  0  0  0  0
   -0.1580   24.4130  -27.9780 N   0  0  0  0  0  0  0  0  0  0  0  0
    0.3830   25.0500  -27.3520 H   0  0  0  0  0  0  0  0  0  0  0  0
   -0.0090   23.0810  -28.1170 C   0  0  0  0  0  0  0  0  0  0  0  0
    0.9040   22.2660  -27.4470 C   0  0  0  0  0  0  0  0  0  0  0  0
    1.6067   22.6863  -26.7125 H   0  0  0  0  0  0  0  0  0  0  0  0
    0.8980   20.8900  -27.7400 C   0  0  0  0  0  0  0  0  0  0  0  0
    1.6051   20.2199  -27.2291 H   0  0  0  0  0  0  0  0  0  0  0  0
   -0.0090   20.3630  -28.6850 C   0  0  0  0  0  0  0  0  0  0  0  0
   -0.0035   19.2852  -28.9047 H   0  0  0  0  0  0  0  0  0  0  0  0
   -0.9200   21.2060  -29.3480 C   0  0  0  0  0  0  0  0  0  0  0  0
   -1.6292   20.8047  -30.0869 H   0  0  0  0  0  0  0  0  0  0  0  0
   -0.8960   22.5680  -29.0390 C   0  0  0  0  0  0  0  0  0  0  0  0
   -1.5710   21.2400  -33.5240 C   0  0  0  0  0  0  0  0  0  0  0  0
   -1.5270   22.3349  -33.4273 H   0  0  0  0  0  0  0  0  0  0  0  0
   -0.7110   20.5870  -34.4240 C   0  0  0  0  0  0  0  0  0  0  0  0
    0.2410   21.4030  -35.2640 C   0  0  0  0  0  0  0  0  0  0  0  0
    1.5130   21.3190  -34.7240 F   0  0  0  0  0  0  0  0  0  0  0  0
    0.2660   20.9070  -36.5560 F   0  0  0  0  0  0  0  0  0  0  0  0
   -0.1360   22.7340  -35.3150 F   0  0  0  0  0  0  0  0  0  0  0  0
   -0.7980   19.1900  -34.5610 C   0  0  0  0  0  0  0  0  0  0  0  0
   -0.1359   18.6673  -35.2670 H   0  0  0  0  0  0  0  0  0  0  0  0
  1  2  1  0
  2  3  2  0
  3  4  1  0
  3  5  1  0
  5  6  1  0
  6  7  1  0
  6  8  1  0
  8  9  2  0
  9 10  1  0
  9 11  1  0
 11 12  1  0
 11 13  2  0
 13 14  1  0
 13 15  1  0
 15 16  1  0
 16 17  1  0
 16 18  1  0
 15 19  2  0
 19 20  1  0
 20 21  2  0
 20 22  1  0
 22 23  2  0
 23 24  1  0
 24 25  2  0
 25 26  1  0
 25 27  1  0
 27 28  1  0
 27 29  1  0
 29 30  2  0
 30 31  1  0
 30 32  1  0
 32 33  1  0
 32 34  2  0
 34 35  1  0
 34 36  1  0
 36 37  1  0
 36 38  2  0
  5 39  2  0
 39 40  1  0
 39 41  1  0
 41 42  1  0
 42 43  1  0
 42 44  1  0
 42 45  1  0
 41 46  2  0
 46 47  1  0
 46  2  1  0
 19  8  1  0
 38 24  1  0
 38 29  1  0
M  CHG  1  26  -1
M  END
>  <UniqueID>  (41) 
38

>  <SMILES>  (41) 
Nc1c(Br)ccc(Nc2cccc(C(F)(F)F)c2)c1C(=O)/N=N/c1c([O-])[nH]c2ccccc12

>  <Energy>  (41) 
102.451767905098

>  <Genealogy>  (41) 
Nc1c(Br)ccc(Nc2cccc(C(F)(F)F)c2)c1C(=O)N=Nc1c([O-])[nH]c2ccccc12 (protonated)
Nc1c(Br)ccc(Nc2cccc(C(F)(F)F)c2)c1C(=O)/N=N/c1c([O-])[nH]c2ccccc12 (cis-trans isomerization)
Nc1c(Br)ccc(Nc2cccc(C(F)(F)F)c2)c1C(=O)/N=N/c1c([O-])[nH]c2ccccc12 (3D coordinates assigned)
Nc1c(Br)ccc(Nc2cccc(C(F)(F)F)c2)c1C(=O)/N=N/c1c([O-])[nH]c2ccccc12 (optimized conformer: 102.451767905098 kcal/mol)

>  <smiles>  (41) 
Nc1c(Br)ccc(Nc2cccc(C(F)(F)F)c2)c1C(=O)N=Nc1c(O)[nH]c2ccccc12

>  <score_type>  (41) 
oracle

>  <origin>  (41) 
adgpu

>  <m_score__min__energy>  (41) 
-11.58

>  <m_primary>  (41) 
energy

$$$$
41:0
     RDKit          3D

 27 28  0  0  1  0  0  0  0  0999 V2000
   -2.5690   21.1260  -27.4740 C   0  0  0  0  0  0  0  0  0  0  0  0
   -2.4190   22.4080  -28.2080 C   0  0  0  0  0  0  0  0  0  0  0  0
   -3.3710   22.7750  -29.1350 C   0  0  0  0  0  0  0  0  0  0  0  0
   -3.1900   23.9650  -29.7870 C   0  0  0  0  0  0  0  0  0  0  0  0
   -4.0130   24.3930  -30.6620 N   0  0  0  0  0  0  0  0  0  0  0  0
   -5.1790   23.6670  -31.0250 C   0  0  0  0  0  0  0  0  0  0  0  0
   -5.1570   22.5590  -31.8470 C   0  0  0  0  0  0  0  0  0  0  0  0
   -6.3490   21.8980  -32.1590 C   0  0  0  0  0  0  0  0  0  0  0  0
   -7.5650   22.3530  -31.6420 C   0  0  0  0  0  0  0  0  0  0  0  0
   -9.0790   21.5520  -32.0100 Cl  0  0  0  0  0  0  0  0  0  0  0  0
   -7.5740   23.4730  -30.8130 C   0  0  0  0  0  0  0  0  0  0  0  0
   -6.3990   24.1220  -30.5080 C   0  0  0  0  0  0  0  0  0  0  0  0
   -6.4520   25.5390  -29.4540 Cl  0  0  0  0  0  0  0  0  0  0  0  0
   -2.1110   24.7590  -29.5310 N   0  0  0  0  0  0  0  0  0  0  0  0
   -1.1890   24.3900  -28.6240 C   0  0  0  0  0  0  0  0  0  0  0  0
   -0.1620   25.1510  -28.3840 N   0  0  0  0  0  0  0  0  0  0  0  0
   -1.3580   23.2320  -27.9850 N   0  0  0  0  0  0  0  0  0  0  0  0
   -2.5465   21.3186  -26.3912 H   0  0  0  0  0  0  0  0  0  0  0  0
   -3.5279   20.6592  -27.7435 H   0  0  0  0  0  0  0  0  0  0  0  0
   -1.7438   20.4505  -27.7435 H   0  0  0  0  0  0  0  0  0  0  0  0
   -4.2423   22.1364  -29.3427 H   0  0  0  0  0  0  0  0  0  0  0  0
   -4.2027   22.1961  -32.2564 H   0  0  0  0  0  0  0  0  0  0  0  0
   -6.3295   21.0151  -32.8149 H   0  0  0  0  0  0  0  0  0  0  0  0
   -8.5251   23.8404  -30.4001 H   0  0  0  0  0  0  0  0  0  0  0  0
   -1.9900   25.6750  -30.0470 H   0  0  0  0  0  0  0  0  0  0  0  0
   -0.0920   26.0530  -28.9270 H   0  0  0  0  0  0  0  0  0  0  0  0
   -0.6180   22.9730  -27.2810 H   0  0  0  0  0  0  0  0  0  0  0  0
  1  2  1  0
  2  3  2  0
  3  4  1  0
  4  5  2  0
  5  6  1  0
  6  7  2  0
  7  8  1  0
  8  9  2  0
  9 10  1  0
  9 11  1  0
 11 12  2  0
 12 13  1  0
  4 14  1  0
 14 15  1  0
 15 16  2  3
 15 17  1  0
 17  2  1  0
 12  6  1  0
  1 18  1  0
  1 19  1  0
  1 20  1  0
  3 21  1  0
  7 22  1  0
  8 23  1  0
 11 24  1  0
 14 25  1  0
 16 26  1  0
 17 27  1  0
M  END
>  <smiles>  (42) 
Cc1cc(=Nc2ccc(Cl)cc2Cl)[nH]c(=N)[nH]1

>  <score_type>  (42) 
oracle

>  <origin>  (42) 
adgpu

>  <m_score__min__energy>  (42) 
-7.9199999999999999

>  <m_primary>  (42) 
energy

$$$$
42:0
     RDKit          3D

 58 61  0  0  0  0  0  0  0  0999 V2000
   -0.3650   28.3350  -26.3660 C   0  0  0  0  0  0  0  0  0  0  0  0
    0.2210   27.0190  -26.7930 C   0  0  0  0  0  0  0  0  0  0  0  0
   -0.6140   25.9970  -27.2790 C   0  0  0  0  0  0  0  0  0  0  0  0
   -0.0750   24.7640  -27.6830 C   0  0  0  0  0  0  0  0  0  0  0  0
   -0.9590   23.6860  -28.1900 C   0  0  0  0  0  0  0  0  0  0  0  0
   -0.7080   22.3540  -27.8220 C   0  0  0  0  0  0  0  0  0  0  0  0
   -1.5270   21.3110  -28.2830 C   0  0  0  0  0  0  0  0  0  0  0  0
   -1.2530   19.9100  -27.8870 C   0  0  0  0  0  0  0  0  0  0  0  0
   -1.5160   19.5210  -26.7150 O   0  0  0  0  0  0  0  0  0  0  0  0
   -0.6550   19.0000  -28.8200 N   0  0  0  0  0  0  0  0  0  0  0  0
    0.6750   18.4800  -28.7100 C   0  0  0  0  0  0  0  0  0  0  0  0
    1.6460   18.9390  -29.6110 C   0  0  0  0  0  0  0  0  0  0  0  0
    2.9680   18.5030  -29.5130 C   0  0  0  0  0  0  0  0  0  0  0  0
    3.3300   17.5900  -28.5210 C   0  0  0  0  0  0  0  0  0  0  0  0
    2.3660   17.0960  -27.6390 C   0  0  0  0  0  0  0  0  0  0  0  0
    1.0300   17.5180  -27.7350 C   0  0  0  0  0  0  0  0  0  0  0  0
    0.0470   16.9150  -26.8820 N   0  0  0  0  0  0  0  0  0  0  0  0
   -2.6050   21.6160  -29.1290 C   0  0  0  0  0  0  0  0  0  0  0  0
   -2.8740   22.9390  -29.5060 C   0  0  0  0  0  0  0  0  0  0  0  0
   -3.9980   23.2230  -30.3600 N   0  0  0  0  0  0  0  0  0  0  0  0
   -4.9890   24.2210  -29.9390 C   0  0  0  0  0  0  0  0  0  0  0  0
   -5.9660   24.5240  -31.0760 C   0  0  0  0  0  0  0  0  0  0  0  0
   -6.5390   23.2680  -31.5980 N   0  0  0  0  0  0  0  0  0  0  0  0
   -7.5210   23.5550  -32.6570 C   0  0  0  0  0  0  0  0  0  0  0  0
   -5.5240   22.2810  -32.0620 C   0  0  0  0  0  0  0  0  0  0  0  0
   -4.0710   22.6500  -31.7080 C   0  0  0  0  0  0  0  0  0  0  0  0
   -2.0570   23.9770  -29.0230 C   0  0  0  0  0  0  0  0  0  0  0  0
   -2.3620   25.2990  -29.3370 O   0  0  0  0  0  0  0  0  0  0  0  0
    1.3130   24.5680  -27.6160 C   0  0  0  0  0  0  0  0  0  0  0  0
    2.1470   25.5820  -27.1420 C   0  0  0  0  0  0  0  0  0  0  0  0
    1.6090   26.8090  -26.7300 C   0  0  0  0  0  0  0  0  0  0  0  0
    2.4500   27.8180  -26.2620 O   0  0  0  0  0  0  0  0  0  0  0  0
   -0.3881   28.3869  -25.2675 H   0  0  0  0  0  0  0  0  0  0  0  0
    0.2525   29.1561  -26.7590 H   0  0  0  0  0  0  0  0  0  0  0  0
   -1.3884   28.4254  -26.7590 H   0  0  0  0  0  0  0  0  0  0  0  0
   -1.6993   26.1645  -27.3434 H   0  0  0  0  0  0  0  0  0  0  0  0
    0.1425   22.1247  -27.1631 H   0  0  0  0  0  0  0  0  0  0  0  0
    1.3633   19.6491  -30.4022 H   0  0  0  0  0  0  0  0  0  0  0  0
    3.7248   18.8787  -30.2174 H   0  0  0  0  0  0  0  0  0  0  0  0
    4.3755   17.2592  -28.4338 H   0  0  0  0  0  0  0  0  0  0  0  0
    2.6554   16.3713  -26.8637 H   0  0  0  0  0  0  0  0  0  0  0  0
    0.0320   15.8810  -26.7380 H   0  0  0  0  0  0  0  0  0  0  0  0
   -0.7320   17.4720  -26.4680 H   0  0  0  0  0  0  0  0  0  0  0  0
   -3.2480   20.8049  -29.5015 H   0  0  0  0  0  0  0  0  0  0  0  0
   -5.5488   23.8324  -29.0755 H   0  0  0  0  0  0  0  0  0  0  0  0
   -4.4640   25.1484  -29.6666 H   0  0  0  0  0  0  0  0  0  0  0  0
   -6.7765   25.1649  -30.6987 H   0  0  0  0  0  0  0  0  0  0  0  0
   -5.4287   25.0395  -31.8857 H   0  0  0  0  0  0  0  0  0  0  0  0
   -8.4815   23.8357  -32.2001 H   0  0  0  0  0  0  0  0  0  0  0  0
   -7.1556   24.3839  -33.2810 H   0  0  0  0  0  0  0  0  0  0  0  0
   -7.6595   22.6598  -33.2810 H   0  0  0  0  0  0  0  0  0  0  0  0
   -5.7540   21.3086  -31.6021 H   0  0  0  0  0  0  0  0  0  0  0  0
   -5.5845   22.2604  -33.1601 H   0  0  0  0  0  0  0  0  0  0  0  0
   -3.4475   21.7448  -31.7503 H   0  0  0  0  0  0  0  0  0  0  0  0
   -3.7083   23.3958  -32.4306 H   0  0  0  0  0  0  0  0  0  0  0  0
    1.7462   23.6098  -27.9389 H   0  0  0  0  0  0  0  0  0  0  0  0
    3.2334   25.4171  -27.0915 H   0  0  0  0  0  0  0  0  0  0  0  0
    2.8290   27.8000  -25.3220 H   0  0  0  0  0  0  0  0  0  0  0  0
  1  2  1  0
  2  3  2  0
  3  4  1  0
  4  5  1  0
  5  6  2  0
  6  7  1  0
  7  8  1  0
  8  9  2  0
  8 10  1  0
 10 11  1  0
 11 12  2  0
 12 13  1  0
 13 14  2  0
 14 15  1  0
 15 16  2  0
 16 17  1  0
  7 18  2  0
 18 19  1  0
 19 20  1  0
 20 21  1  0
 21 22  1  0
 22 23  1  0
 23 24  1  0
 23 25  1  0
 25 26  1  0
 19 27  2  0
 27 28  1  0
  4 29  2  0
 29 30  1  0
 30 31  2  0
 31 32  1  0
 31  2  1  0
 27  5  1  0
 16 11  1  0
 26 20  1  0
  1 33  1  0
  1 34  1  0
  1 35  1  0
  3 36  1  0
  6 37  1  0
 12 38  1  0
 13 39  1  0
 14 40  1  0
 15 41  1  0
 17 42  1  0
 17 43  1  0
 18 44  1  0
 21 45  1  0
 21 46  1  0
 22 47  1  0
 22 48  1  0
 24 49  1  0
 24 50  1  0
 24 51  1  0
 25 52  1  0
 25 53  1  0
 26 54  1  0
 26 55  1  0
 29 56  1  0
 30 57  1  0
 32 58  1  0
M  CHG  2  10  -1  28  -1
M  END
>  <UniqueID>  (43) 
39

>  <SMILES>  (43) 
Cc1cc(-c2cc(C(=O)[N-]c3ccccc3N)cc(N3CCN(C)CC3)c2[O-])ccc1O

>  <Energy>  (43) 
85.3056611207899

>  <Genealogy>  (43) 
Cc1cc(-c2cc(C(=O)[N-]c3ccccc3N)cc(N3CCN(C)CC3)c2[O-])ccc1O (protonated)
Cc1cc(-c2cc(C(=O)[N-]c3ccccc3N)cc(N3CCN(C)CC3)c2[O-])ccc1O (3D coordinates assigned)
Cc1cc(-c2cc(C(=O)[N-]c3ccccc3N)cc(N3CCN(C)CC3)c2[O-])ccc1O (nonaromatic ring conformer: 85.3056611207899 kcal/mol)

>  <smiles>  (43) 
Cc1cc(-c2cc(C(=O)Nc3ccccc3N)cc(N3CCN(C)CC3)c2O)ccc1O

>  <score_type>  (43) 
oracle

>  <origin>  (43) 
adgpu

>  <m_score__min__energy>  (43) 
-10.619999999999999

>  <m_primary>  (43) 
energy

$$$$
43:0
     RDKit          3D

 31 32  0  0  0  0  0  0  0  0999 V2000
   -4.8410   15.6360  -34.2130 C   0  0  0  0  0  0  0  0  0  0  0  0
   -6.1210   16.4020  -34.0630 C   0  0  0  0  0  0  0  0  0  0  0  0
   -7.1850   15.8810  -34.4950 O   0  0  0  0  0  0  0  0  0  0  0  0
   -6.1630   17.7460  -33.4250 C   0  0  0  0  0  0  0  0  0  0  0  0
   -5.2370   18.7500  -33.7690 C   0  0  0  0  0  0  0  0  0  0  0  0
   -5.2910   20.0060  -33.1590 C   0  0  0  0  0  0  0  0  0  0  0  0
   -6.2580   20.2830  -32.1830 C   0  0  0  0  0  0  0  0  0  0  0  0
   -6.3100   21.5930  -31.5900 N   0  0  0  0  0  0  0  0  0  0  0  0
   -5.1880   22.2520  -30.9770 C   0  0  0  0  0  0  0  0  0  0  0  0
   -4.1960   21.5280  -30.3010 C   0  0  0  0  0  0  0  0  0  0  0  0
   -3.1010   22.1850  -29.7380 C   0  0  0  0  0  0  0  0  0  0  0  0
   -2.9640   23.5830  -29.8490 C   0  0  0  0  0  0  0  0  0  0  0  0
   -1.7900   24.2560  -29.2370 C   0  0  0  0  0  0  0  0  0  0  0  0
   -0.7550   23.5970  -28.9490 O   0  0  0  0  0  0  0  0  0  0  0  0
   -1.8050   25.6200  -28.9670 O   0  0  0  0  0  0  0  0  0  0  0  0
   -3.9520   24.3060  -30.5520 C   0  0  0  0  0  0  0  0  0  0  0  0
   -3.8650   25.6850  -30.7030 O   0  0  0  0  0  0  0  0  0  0  0  0
   -5.0470   23.6380  -31.1140 C   0  0  0  0  0  0  0  0  0  0  0  0
   -7.1990   19.2950  -31.8530 C   0  0  0  0  0  0  0  0  0  0  0  0
   -7.1480   18.0380  -32.4620 C   0  0  0  0  0  0  0  0  0  0  0  0
   -4.4389   15.3954  -33.2178 H   0  0  0  0  0  0  0  0  0  0  0  0
   -5.0337   14.7046  -34.7656 H   0  0  0  0  0  0  0  0  0  0  0  0
   -4.1113   16.2460  -34.7656 H   0  0  0  0  0  0  0  0  0  0  0  0
   -4.4646   18.5436  -34.5245 H   0  0  0  0  0  0  0  0  0  0  0  0
   -4.5686   20.7838  -33.4472 H   0  0  0  0  0  0  0  0  0  0  0  0
   -7.2250   22.0990  -31.6070 H   0  0  0  0  0  0  0  0  0  0  0  0
   -4.2813   20.4348  -30.2137 H   0  0  0  0  0  0  0  0  0  0  0  0
   -2.3360   21.6047  -29.2013 H   0  0  0  0  0  0  0  0  0  0  0  0
   -5.8053   24.2091  -31.6697 H   0  0  0  0  0  0  0  0  0  0  0  0
   -7.9813   19.5114  -31.1106 H   0  0  0  0  0  0  0  0  0  0  0  0
   -7.8847   17.2691  -32.1863 H   0  0  0  0  0  0  0  0  0  0  0  0
  1  2  1  0
  2  3  2  0
  2  4  1  0
  4  5  2  0
  5  6  1  0
  6  7  2  0
  7  8  1  0
  8  9  1  0
  9 10  2  0
 10 11  1  0
 11 12  2  0
 12 13  1  0
 13 14  2  0
 13 15  1  0
 12 16  1  0
 16 17  1  0
 16 18  2  0
  7 19  1  0
 19 20  2  0
 20  4  1  0
 18  9  1  0
  1 21  1  0
  1 22  1  0
  1 23  1  0
  5 24  1  0
  6 25  1  0
  8 26  1  0
 10 27  1  0
 11 28  1  0
 18 29  1  0
 19 30  1  0
 20 31  1  0
M  CHG  2  15  -1  17  -1
M  END
>  <UniqueID>  (44) 
40

>  <SMILES>  (44) 
CC(=O)c1ccc(Nc2ccc(C(=O)[O-])c([O-])c2)cc1

>  <Energy>  (44) 
39.890479994808686

>  <Genealogy>  (44) 
CC(=O)c1ccc(Nc2ccc(C(=O)[O-])c([O-])c2)cc1 (protonated)
CC(=O)c1ccc(Nc2ccc(C(=O)[O-])c([O-])c2)cc1 (3D coordinates assigned)
CC(=O)c1ccc(Nc2ccc(C(=O)[O-])c([O-])c2)cc1 (optimized conformer: 39.890479994808686 kcal/mol)

>  <smiles>  (44) 
CC(=O)c1ccc(Nc2ccc(C(=O)O)c(O)c2)cc1

>  <score_type>  (44) 
oracle

>  <origin>  (44) 
adgpu

>  <m_score__min__energy>  (44) 
-11.74

>  <m_primary>  (44) 
energy

$$$$
44:0
     RDKit          3D

 40 42  0  0  0  0  0  0  0  0999 V2000
   -1.4640   26.7520  -24.7650 N   0  0  0  0  0  0  0  0  0  0  0  0
   -1.3880   26.0300  -25.9960 C   0  0  0  0  0  0  0  0  0  0  0  0
   -0.2310   26.0820  -26.7810 C   0  0  0  0  0  0  0  0  0  0  0  0
   -0.1710   25.4000  -27.9550 N   0  0  0  0  0  0  0  0  0  0  0  0
   -1.2100   24.6440  -28.3990 C   0  0  0  0  0  0  0  0  0  0  0  0
   -2.3840   24.5420  -27.6390 C   0  0  0  0  0  0  0  0  0  0  0  0
   -3.5320   23.7430  -28.1120 C   0  0  0  0  0  0  0  0  0  0  0  0
   -3.4270   22.4890  -28.1590 O   0  0  0  0  0  0  0  0  0  0  0  0
   -4.7660   24.3430  -28.5240 N   0  0  0  0  0  0  0  0  0  0  0  0
   -5.1200   24.8860  -30.1340 S   0  0  0  0  0  0  0  0  0  0  0  0
   -3.8590   25.3130  -30.8310 O   0  0  0  0  0  0  0  0  0  0  0  0
   -6.0800   26.0400  -30.0680 O   0  0  0  0  0  0  0  0  0  0  0  0
   -5.8370   23.5590  -31.0430 C   0  0  0  0  0  0  0  0  0  0  0  0
   -5.0250   22.5890  -31.6420 C   0  0  0  0  0  0  0  0  0  0  0  0
   -5.6020   21.5320  -32.3540 C   0  0  0  0  0  0  0  0  0  0  0  0
   -6.9930   21.4390  -32.4830 C   0  0  0  0  0  0  0  0  0  0  0  0
   -7.5330   20.3570  -33.1930 O   0  0  0  0  0  0  0  0  0  0  0  0
   -6.8980   19.1230  -33.4010 C   0  0  0  0  0  0  0  0  0  0  0  0
   -7.0870   18.0310  -32.5330 C   0  0  0  0  0  0  0  0  0  0  0  0
   -6.4490   16.8130  -32.7850 C   0  0  0  0  0  0  0  0  0  0  0  0
   -5.6300   16.6710  -33.9090 C   0  0  0  0  0  0  0  0  0  0  0  0
   -5.4540   17.7460  -34.7850 C   0  0  0  0  0  0  0  0  0  0  0  0
   -6.0910   18.9650  -34.5350 C   0  0  0  0  0  0  0  0  0  0  0  0
   -7.8070   22.4010  -31.8570 C   0  0  0  0  0  0  0  0  0  0  0  0
   -7.2300   23.4560  -31.1440 C   0  0  0  0  0  0  0  0  0  0  0  0
   -2.4720   25.2600  -26.4370 C   0  0  0  0  0  0  0  0  0  0  0  0
   -0.6310   26.8290  -24.1400 H   0  0  0  0  0  0  0  0  0  0  0  0
   -2.3530   27.2140  -24.4700 H   0  0  0  0  0  0  0  0  0  0  0  0
    0.6323   26.6764  -26.4471 H   0  0  0  0  0  0  0  0  0  0  0  0
   -1.1295   24.1105  -29.3576 H   0  0  0  0  0  0  0  0  0  0  0  0
   -3.9308   22.6579  -31.5527 H   0  0  0  0  0  0  0  0  0  0  0  0
   -4.9584   20.7687  -32.8157 H   0  0  0  0  0  0  0  0  0  0  0  0
   -7.7390   18.1365  -31.6534 H   0  0  0  0  0  0  0  0  0  0  0  0
   -6.5915   15.9656  -32.0983 H   0  0  0  0  0  0  0  0  0  0  0  0
   -5.1243   15.7138  -34.1040 H   0  0  0  0  0  0  0  0  0  0  0  0
   -4.8135   17.6326  -35.6721 H   0  0  0  0  0  0  0  0  0  0  0  0
   -5.9578   19.8049  -35.2327 H   0  0  0  0  0  0  0  0  0  0  0  0
   -8.9018   22.3226  -31.9289 H   0  0  0  0  0  0  0  0  0  0  0  0
   -7.8720   24.2074  -30.6609 H   0  0  0  0  0  0  0  0  0  0  0  0
   -3.3945   25.2183  -25.8393 H   0  0  0  0  0  0  0  0  0  0  0  0
  1  2  1  0
  2  3  2  0
  3  4  1  0
  4  5  2  0
  5  6  1  0
  6  7  1  0
  7  8  2  0
  7  9  1  0
  9 10  1  0
 10 11  2  0
 10 12  2  0
 10 13  1  0
 13 14  2  0
 14 15  1  0
 15 16  2  0
 16 17  1  0
 17 18  1  0
 18 19  2  0
 19 20  1  0
 20 21  2  0
 21 22  1  0
 22 23  2  0
 16 24  1  0
 24 25  2  0
  6 26  2  0
 26  2  1  0
 25 13  1  0
 23 18  1  0
  1 27  1  0
  1 28  1  0
  3 29  1  0
  5 30  1  0
 14 31  1  0
 15 32  1  0
 19 33  1  0
 20 34  1  0
 21 35  1  0
 22 36  1  0
 23 37  1  0
 24 38  1  0
 25 39  1  0
 26 40  1  0
M  CHG  1   9  -1
M  END
>  <UniqueID>  (45) 
41

>  <SMILES>  (45) 
Nc1cncc(C(=O)[N-]S(=O)(=O)c2ccc(Oc3ccccc3)cc2)c1

>  <Energy>  (45) 
57.83709127560251

>  <Genealogy>  (45) 
Nc1cncc(C(=O)[N-]S(=O)(=O)c2ccc(Oc3ccccc3)cc2)c1 (protonated)
Nc1cncc(C(=O)[N-]S(=O)(=O)c2ccc(Oc3ccccc3)cc2)c1 (3D coordinates assigned)
Nc1cncc(C(=O)[N-]S(=O)(=O)c2ccc(Oc3ccccc3)cc2)c1 (optimized conformer: 57.83709127560251 kcal/mol)

>  <smiles>  (45) 
Nc1cncc(C(=O)NS(=O)(=O)c2ccc(Oc3ccccc3)cc2)c1

>  <score_type>  (45) 
oracle

>  <origin>  (45) 
adgpu

>  <m_score__min__energy>  (45) 
-10.33

>  <m_primary>  (45) 
energy

$$$$
45:0
     RDKit          3D

 52 55  0  0  0  0  0  0  0  0999 V2000
   -5.5850   25.7570  -30.5030 C   0  0  0  0  0  0  0  0  0  0  0  0
   -4.1840   25.5640  -30.6710 O   0  0  0  0  0  0  0  0  0  0  0  0
   -3.5030   24.3830  -30.3420 C   0  0  0  0  0  0  0  0  0  0  0  0
   -3.8880   23.1280  -30.8530 C   0  0  0  0  0  0  0  0  0  0  0  0
   -3.1510   21.9730  -30.5410 C   0  0  0  0  0  0  0  0  0  0  0  0
   -3.5340   20.6400  -31.1340 C   0  0  0  0  0  0  0  0  0  0  0  0
   -3.1400   20.5590  -32.5630 N   0  0  0  0  0  0  0  0  0  0  0  0
   -1.9080   21.3370  -32.8160 C   0  0  0  0  0  0  0  0  0  0  0  0
   -1.0850   20.6670  -33.8850 C   0  0  0  0  0  0  0  0  0  0  0  0
   -0.2290   21.4340  -34.6930 C   0  0  0  0  0  0  0  0  0  0  0  0
    0.5200   20.8250  -35.7040 C   0  0  0  0  0  0  0  0  0  0  0  0
    0.4240   19.4450  -35.9130 C   0  0  0  0  0  0  0  0  0  0  0  0
    1.1690   18.8420  -36.9190 O   0  0  0  0  0  0  0  0  0  0  0  0
   -0.4220   18.6750  -35.1100 C   0  0  0  0  0  0  0  0  0  0  0  0
   -1.1760   19.2810  -34.0990 C   0  0  0  0  0  0  0  0  0  0  0  0
   -4.2320   20.9900  -33.4690 C   0  0  0  0  0  0  0  0  0  0  0  0
   -5.4800   20.1630  -33.2290 C   0  0  0  0  0  0  0  0  0  0  0  0
   -5.3980   18.7910  -33.5260 C   0  0  0  0  0  0  0  0  0  0  0  0
   -6.4740   17.9470  -33.2590 C   0  0  0  0  0  0  0  0  0  0  0  0
   -6.3920   16.7180  -33.5210 O   0  0  0  0  0  0  0  0  0  0  0  0
   -7.6080   18.4440  -32.7100 N   0  0  0  0  0  0  0  0  0  0  0  0
   -7.7430   19.7600  -32.4030 C   0  0  0  0  0  0  0  0  0  0  0  0
   -8.9330   20.2050  -31.8190 C   0  0  0  0  0  0  0  0  0  0  0  0
   -9.0900   21.5480  -31.4780 C   0  0  0  0  0  0  0  0  0  0  0  0
   -8.0580   22.4540  -31.7190 C   0  0  0  0  0  0  0  0  0  0  0  0
   -6.8620   22.0260  -32.3030 C   0  0  0  0  0  0  0  0  0  0  0  0
   -6.6800   20.6700  -32.6570 C   0  0  0  0  0  0  0  0  0  0  0  0
   -2.0690   22.0680  -29.6530 C   0  0  0  0  0  0  0  0  0  0  0  0
   -1.6910   23.3070  -29.1330 C   0  0  0  0  0  0  0  0  0  0  0  0
   -2.3990   24.4610  -29.4820 C   0  0  0  0  0  0  0  0  0  0  0  0
   -2.0010   25.6910  -28.9700 O   0  0  0  0  0  0  0  0  0  0  0  0
   -5.8245   25.7900  -29.4299 H   0  0  0  0  0  0  0  0  0  0  0  0
   -5.8837   26.7048  -30.9747 H   0  0  0  0  0  0  0  0  0  0  0  0
   -6.1289   24.9253  -30.9747 H   0  0  0  0  0  0  0  0  0  0  0  0
   -4.7730   23.0515  -31.5017 H   0  0  0  0  0  0  0  0  0  0  0  0
   -3.0273   19.8392  -30.5755 H   0  0  0  0  0  0  0  0  0  0  0  0
   -4.6260   20.5273  -31.0652 H   0  0  0  0  0  0  0  0  0  0  0  0
   -2.1789   22.3505  -33.1467 H   0  0  0  0  0  0  0  0  0  0  0  0
   -1.3191   21.3917  -31.8886 H   0  0  0  0  0  0  0  0  0  0  0  0
   -0.1478   22.5187  -34.5293 H   0  0  0  0  0  0  0  0  0  0  0  0
    1.1856   21.4314  -36.3359 H   0  0  0  0  0  0  0  0  0  0  0  0
   -0.4953   17.5897  -35.2732 H   0  0  0  0  0  0  0  0  0  0  0  0
   -1.8415   18.6712  -33.4703 H   0  0  0  0  0  0  0  0  0  0  0  0
   -4.4592   22.0501  -33.2831 H   0  0  0  0  0  0  0  0  0  0  0  0
   -3.9066   20.8483  -34.5102 H   0  0  0  0  0  0  0  0  0  0  0  0
   -4.4793   18.3818  -33.9716 H   0  0  0  0  0  0  0  0  0  0  0  0
   -9.7489   19.4925  -31.6277 H   0  0  0  0  0  0  0  0  0  0  0  0
  -10.0282   21.8927  -31.0188 H   0  0  0  0  0  0  0  0  0  0  0  0
   -8.1856   23.5124  -31.4479 H   0  0  0  0  0  0  0  0  0  0  0  0
   -6.0557   22.7509  -32.4885 H   0  0  0  0  0  0  0  0  0  0  0  0
   -1.5159   21.1618  -29.3652 H   0  0  0  0  0  0  0  0  0  0  0  0
   -0.8339   23.3756  -28.4469 H   0  0  0  0  0  0  0  0  0  0  0  0
  1  2  1  0
  2  3  1  0
  3  4  2  0
  4  5  1  0
  5  6  1  0
  6  7  1  0
  7  8  1  0
  8  9  1  0
  9 10  2  0
 10 11  1  0
 11 12  2  0
 12 13  1  0
 12 14  1  0
 14 15  2  0
  7 16  1  0
 16 17  1  0
 17 18  2  0
 18 19  1  0
 19 20  2  0
 19 21  1  0
 21 22  1  0
 22 23  2  0
 23 24  1  0
 24 25  2  0
 25 26  1  0
 26 27  2  0
  5 28  2  0
 28 29  1  0
 29 30  2  0
 30 31  1  0
 30  3  1  0
 15  9  1  0
 27 17  1  0
 27 22  1  0
  1 32  1  0
  1 33  1  0
  1 34  1  0
  4 35  1  0
  6 36  1  0
  6 37  1  0
  8 38  1  0
  8 39  1  0
 10 40  1  0
 11 41  1  0
 14 42  1  0
 15 43  1  0
 16 44  1  0
 16 45  1  0
 18 46  1  0
 23 47  1  0
 24 48  1  0
 25 49  1  0
 26 50  1  0
 28 51  1  0
 29 52  1  0
M  CHG  3  13  -1  21  -1  31  -1
M  END
>  <UniqueID>  (46) 
42

>  <SMILES>  (46) 
COc1cc(CN(Cc2ccc([O-])cc2)Cc2cc(=O)[n-]c3ccccc23)ccc1[O-]

>  <Energy>  (46) 
60.70178334015384

>  <Genealogy>  (46) 
COc1cc(CN(Cc2ccc([O-])cc2)Cc2cc(=O)[n-]c3ccccc23)ccc1[O-] (protonated)
COc1cc(CN(Cc2ccc([O-])cc2)Cc2cc(=O)[n-]c3ccccc23)ccc1[O-] (3D coordinates assigned)
COc1cc(CN(Cc2ccc([O-])cc2)Cc2cc(=O)[n-]c3ccccc23)ccc1[O-] (optimized conformer: 60.70178334015384 kcal/mol)

>  <smiles>  (46) 
COc1cc(CN(Cc2ccc(O)cc2)Cc2cc(=O)[nH]c3ccccc23)ccc1O

>  <score_type>  (46) 
oracle

>  <origin>  (46) 
adgpu

>  <m_score__min__energy>  (46) 
-13.01

>  <m_primary>  (46) 
energy

$$$$
46:0
     RDKit          3D

 41 43  0  0  0  0  0  0  0  0999 V2000
   -1.5910   25.7570  -28.9820 N   0  0  0  0  0  0  0  0  0  0  0  0
   -0.7310   24.5290  -28.1210 S   0  0  0  0  0  0  0  0  0  0  0  0
    0.5070   24.1780  -28.8990 O   0  0  0  0  0  0  0  0  0  0  0  0
   -0.3270   25.0420  -26.7680 O   0  0  0  0  0  0  0  0  0  0  0  0
   -1.7610   23.1030  -27.9300 C   0  0  0  0  0  0  0  0  0  0  0  0
   -1.1620   21.8670  -27.6330 C   0  0  0  0  0  0  0  0  0  0  0  0
   -1.9380   20.7140  -27.5110 C   0  0  0  0  0  0  0  0  0  0  0  0
   -3.3200   20.7810  -27.6780 C   0  0  0  0  0  0  0  0  0  0  0  0
   -3.9310   22.0020  -27.9670 C   0  0  0  0  0  0  0  0  0  0  0  0
   -3.1650   23.1750  -28.1000 C   0  0  0  0  0  0  0  0  0  0  0  0
   -3.8120   24.4270  -28.3900 N   0  0  0  0  0  0  0  0  0  0  0  0
   -4.7250   24.6920  -29.8400 S   0  0  0  0  0  0  0  0  0  0  0  0
   -5.9840   25.4400  -29.5020 O   0  0  0  0  0  0  0  0  0  0  0  0
   -3.9100   25.5140  -30.7990 O   0  0  0  0  0  0  0  0  0  0  0  0
   -5.0970   23.1470  -30.5990 C   0  0  0  0  0  0  0  0  0  0  0  0
   -6.4060   22.6470  -30.6020 C   0  0  0  0  0  0  0  0  0  0  0  0
   -6.6830   21.4060  -31.1790 C   0  0  0  0  0  0  0  0  0  0  0  0
   -5.6540   20.6440  -31.7640 C   0  0  0  0  0  0  0  0  0  0  0  0
   -5.9470   19.3210  -32.3730 C   0  0  0  0  0  0  0  0  0  0  0  0
   -6.5800   18.3120  -31.6220 C   0  0  0  0  0  0  0  0  0  0  0  0
   -6.8550   17.0680  -32.1960 C   0  0  0  0  0  0  0  0  0  0  0  0
   -6.5050   16.8150  -33.5260 C   0  0  0  0  0  0  0  0  0  0  0  0
   -6.8540   15.2540  -34.2440 Cl  0  0  0  0  0  0  0  0  0  0  0  0
   -5.8780   17.8100  -34.2820 C   0  0  0  0  0  0  0  0  0  0  0  0
   -5.6000   19.0550  -33.7100 C   0  0  0  0  0  0  0  0  0  0  0  0
   -4.3440   21.1540  -31.7600 C   0  0  0  0  0  0  0  0  0  0  0  0
   -4.0700   22.3970  -31.1810 C   0  0  0  0  0  0  0  0  0  0  0  0
   -1.9830   25.3100  -29.8410 H   0  0  0  0  0  0  0  0  0  0  0  0
   -0.0722   21.8081  -27.4956 H   0  0  0  0  0  0  0  0  0  0  0  0
   -1.4584   19.7508  -27.2827 H   0  0  0  0  0  0  0  0  0  0  0  0
   -3.9298   19.8706  -27.5819 H   0  0  0  0  0  0  0  0  0  0  0  0
   -5.0229   22.0480  -28.0921 H   0  0  0  0  0  0  0  0  0  0  0  0
   -3.6630   25.2520  -27.7700 H   0  0  0  0  0  0  0  0  0  0  0  0
   -7.2181   23.2341  -30.1483 H   0  0  0  0  0  0  0  0  0  0  0  0
   -7.7133   21.0208  -31.1764 H   0  0  0  0  0  0  0  0  0  0  0  0
   -6.8601   18.5045  -30.5758 H   0  0  0  0  0  0  0  0  0  0  0  0
   -7.3480   16.2858  -31.6001 H   0  0  0  0  0  0  0  0  0  0  0  0
   -5.6030   17.6129  -35.3287 H   0  0  0  0  0  0  0  0  0  0  0  0
   -5.1058   19.8330  -34.3104 H   0  0  0  0  0  0  0  0  0  0  0  0
   -3.5294   20.5716  -32.2152 H   0  0  0  0  0  0  0  0  0  0  0  0
   -3.0414   22.7869  -31.1833 H   0  0  0  0  0  0  0  0  0  0  0  0
  1  2  1  0
  2  3  2  0
  2  4  2  0
  2  5  1  0
  5  6  2  0
  6  7  1  0
  7  8  2  0
  8  9  1  0
  9 10  2  0
 10 11  1  0
 11 12  1  0
 12 13  2  0
 12 14  2  0
 12 15  1  0
 15 16  2  0
 16 17  1  0
 17 18  2  0
 18 19  1  0
 19 20  2  0
 20 21  1  0
 21 22  2  0
 22 23  1  0
 22 24  1  0
 24 25  2  0
 18 26  1  0
 26 27  2  0
 10  5  1  0
 27 15  1  0
 25 19  1  0
  1 28  1  0
  6 29  1  0
  7 30  1  0
  8 31  1  0
  9 32  1  0
 11 33  1  0
 16 34  1  0
 17 35  1  0
 20 36  1  0
 21 37  1  0
 24 38  1  0
 25 39  1  0
 26 40  1  0
 27 41  1  0
M  CHG  1   1  -1
M  END
>  <UniqueID>  (47) 
43

>  <SMILES>  (47) 
[NH-]S(=O)(=O)c1ccccc1NS(=O)(=O)c1ccc(-c2ccc(Cl)cc2)cc1

>  <Energy>  (47) 
53.475856346112465

>  <Genealogy>  (47) 
[NH-]S(=O)(=O)c1ccccc1NS(=O)(=O)c1ccc(-c2ccc(Cl)cc2)cc1 (protonated)
[NH-]S(=O)(=O)c1ccccc1NS(=O)(=O)c1ccc(-c2ccc(Cl)cc2)cc1 (3D coordinates assigned)
[NH-]S(=O)(=O)c1ccccc1NS(=O)(=O)c1ccc(-c2ccc(Cl)cc2)cc1 (optimized conformer: 53.475856346112465 kcal/mol)

>  <smiles>  (47) 
NS(=O)(=O)c1ccccc1NS(=O)(=O)c1ccc(-c2ccc(Cl)cc2)cc1

>  <score_type>  (47) 
oracle

>  <origin>  (47) 
adgpu

>  <m_score__min__energy>  (47) 
-12.859999999999999

>  <m_primary>  (47) 
energy

$$$$
47:0
     RDKit          3D

 30 31  0  0  0  0  0  0  0  0999 V2000
   -3.4890   26.0360  -31.2290 H   0  0  0  0  0  0  0  0  0  0  0  0
   -3.5180   25.2800  -30.5080 N   0  0  0  0  0  0  0  0  0  0  0  0
   -5.1550   24.7390  -30.4110 S   0  0  0  0  0  0  0  0  0  0  0  0
   -5.5770   24.6640  -28.9700 O   0  0  0  0  0  0  0  0  0  0  0  0
   -6.0510   25.7120  -31.1260 O   0  0  0  0  0  0  0  0  0  0  0  0
   -5.2880   23.1490  -31.1540 C   0  0  0  0  0  0  0  0  0  0  0  0
   -4.1490   22.5100  -31.6610 C   0  0  0  0  0  0  0  0  0  0  0  0
   -3.1670   23.0001  -31.5870 H   0  0  0  0  0  0  0  0  0  0  0  0
   -4.2560   21.2510  -32.2610 C   0  0  0  0  0  0  0  0  0  0  0  0
   -3.3563   20.7538  -32.6527 H   0  0  0  0  0  0  0  0  0  0  0  0
   -5.5010   20.6200  -32.3660 C   0  0  0  0  0  0  0  0  0  0  0  0
   -5.5750   19.3310  -32.9870 N   0  0  0  0  0  0  0  0  0  0  0  0
   -4.7600   18.3950  -32.7010 N   0  0  0  0  0  0  0  0  0  0  0  0
   -4.8280   17.1030  -33.3190 C   0  0  0  0  0  0  0  0  0  0  0  0
   -3.6760   16.4880  -33.8450 C   0  0  0  0  0  0  0  0  0  0  0  0
   -2.7054   17.0019  -33.7832 H   0  0  0  0  0  0  0  0  0  0  0  0
   -3.7580   15.2290  -34.4450 C   0  0  0  0  0  0  0  0  0  0  0  0
   -2.8533   14.7555  -34.8541 H   0  0  0  0  0  0  0  0  0  0  0  0
   -4.9870   14.5710  -34.5260 C   0  0  0  0  0  0  0  0  0  0  0  0
   -5.0497   13.5799  -34.9991 H   0  0  0  0  0  0  0  0  0  0  0  0
   -6.1360   15.1700  -34.0070 C   0  0  0  0  0  0  0  0  0  0  0  0
   -7.1016   14.6472  -34.0725 H   0  0  0  0  0  0  0  0  0  0  0  0
   -6.0680   16.4350  -33.4020 C   0  0  0  0  0  0  0  0  0  0  0  0
   -7.2620   17.0300  -32.8780 N   0  0  0  0  0  0  0  0  0  0  0  0
   -7.2870   18.0460  -32.6350 H   0  0  0  0  0  0  0  0  0  0  0  0
   -8.1320   16.4730  -32.7290 H   0  0  0  0  0  0  0  0  0  0  0  0
   -6.6460   21.2650  -31.8640 C   0  0  0  0  0  0  0  0  0  0  0  0
   -7.6293   20.7784  -31.9438 H   0  0  0  0  0  0  0  0  0  0  0  0
   -6.5370   22.5230  -31.2640 C   0  0  0  0  0  0  0  0  0  0  0  0
   -7.4362   23.0241  -30.8763 H   0  0  0  0  0  0  0  0  0  0  0  0
  1  2  1  0
  2  3  1  0
  3  4  2  0
  3  5  2  0
  3  6  1  0
  6  7  2  0
  7  8  1  0
  7  9  1  0
  9 10  1  0
  9 11  2  0
 11 12  1  0
 12 13  2  0
 13 14  1  0
 14 15  2  0
 15 16  1  0
 15 17  1  0
 17 18  1  0
 17 19  2  0
 19 20  1  0
 19 21  1  0
 21 22  1  0
 21 23  2  0
 23 24  1  0
 24 25  1  0
 24 26  1  0
 11 27  1  0
 27 28  1  0
 27 29  2  0
 29 30  1  0
 29  6  1  0
 23 14  1  0
M  CHG  1   2  -1
M  END
>  <UniqueID>  (48) 
44

>  <SMILES>  (48) 
[NH-]S(=O)(=O)c1ccc(/N=N/c2ccccc2N)cc1

>  <Energy>  (48) 
30.57099698182313

>  <Genealogy>  (48) 
[NH-]S(=O)(=O)c1ccc(N=Nc2ccccc2N)cc1 (protonated)
[NH-]S(=O)(=O)c1ccc(/N=N/c2ccccc2N)cc1 (cis-trans isomerization)
[NH-]S(=O)(=O)c1ccc(/N=N/c2ccccc2N)cc1 (3D coordinates assigned)
[NH-]S(=O)(=O)c1ccc(/N=N/c2ccccc2N)cc1 (optimized conformer: 30.57099698182313 kcal/mol)

>  <smiles>  (48) 
Nc1ccccc1N=Nc1ccc(S(N)(=O)=O)cc1

>  <score_type>  (48) 
oracle

>  <origin>  (48) 
adgpu

>  <m_score__min__energy>  (48) 
-8.3499999999999996

>  <m_primary>  (48) 
energy

$$$$
48:0
     RDKit          3D

 48 51  0  0  0  0  0  0  0  0999 V2000
    1.3050   22.9030  -26.6790 O   0  0  0  0  0  0  0  0  0  0  0  0
    0.3030   23.8700  -27.2440 S   0  0  0  0  0  0  0  0  0  0  0  0
    1.0430   25.0440  -27.8240 O   0  0  0  0  0  0  0  0  0  0  0  0
   -0.6170   23.0550  -28.5060 C   0  0  0  0  0  0  0  0  0  0  0  0
   -0.2060   21.8080  -28.9960 C   0  0  0  0  0  0  0  0  0  0  0  0
   -0.9310   21.1800  -30.0110 C   0  0  0  0  0  0  0  0  0  0  0  0
   -2.0670   21.7920  -30.5450 C   0  0  0  0  0  0  0  0  0  0  0  0
   -2.4870   23.0470  -30.0710 C   0  0  0  0  0  0  0  0  0  0  0  0
   -3.6860   23.6990  -30.6390 C   0  0  0  0  0  0  0  0  0  0  0  0
   -3.8970   25.0310  -30.6190 N   0  0  0  0  0  0  0  0  0  0  0  0
   -5.0620   25.2410  -31.2070 N   0  0  0  0  0  0  0  0  0  0  0  0
   -5.5280   24.0330  -31.5680 C   0  0  0  0  0  0  0  0  0  0  0  0
   -7.0950   23.7860  -32.3980 S   0  0  0  0  0  0  0  0  0  0  0  0
   -7.7430   22.6190  -31.1510 C   0  0  0  0  0  0  0  0  0  0  0  0
   -7.7710   21.2200  -31.6910 C   0  0  0  0  0  0  0  0  0  0  0  0
   -6.7870   20.7780  -32.5860 C   0  0  0  0  0  0  0  0  0  0  0  0
   -6.8580   19.4790  -33.0940 C   0  0  0  0  0  0  0  0  0  0  0  0
   -7.9050   18.6390  -32.7110 C   0  0  0  0  0  0  0  0  0  0  0  0
   -8.8700   19.1150  -31.8200 C   0  0  0  0  0  0  0  0  0  0  0  0
   -8.7850   20.3820  -31.3370 N   0  0  0  0  0  0  0  0  0  0  0  0
   -4.6960   23.0310  -31.2330 N   0  0  0  0  0  0  0  0  0  0  0  0
   -1.7510   23.6730  -29.0490 C   0  0  0  0  0  0  0  0  0  0  0  0
   -0.7730   24.4100  -25.9770 N   0  0  0  0  0  0  0  0  0  0  0  0
   -1.4050   25.6910  -26.3670 C   0  0  0  0  0  0  0  0  0  0  0  0
   -1.9790   26.4270  -25.1510 C   0  0  0  0  0  0  0  0  0  0  0  0
   -0.8680   26.7920  -24.1510 C   0  0  0  0  0  0  0  0  0  0  0  0
    0.3450   25.8510  -24.2400 C   0  0  0  0  0  0  0  0  0  0  0  0
   -0.0790   24.4370  -24.6660 C   0  0  0  0  0  0  0  0  0  0  0  0
    0.6895   21.3229  -28.5803 H   0  0  0  0  0  0  0  0  0  0  0  0
   -0.6062   20.2002  -30.3911 H   0  0  0  0  0  0  0  0  0  0  0  0
   -2.6362   21.2893  -31.3408 H   0  0  0  0  0  0  0  0  0  0  0  0
   -7.0979   22.6485  -30.2605 H   0  0  0  0  0  0  0  0  0  0  0  0
   -8.7698   22.9162  -30.8915 H   0  0  0  0  0  0  0  0  0  0  0  0
   -5.9671   21.4475  -32.8852 H   0  0  0  0  0  0  0  0  0  0  0  0
   -6.0904   19.1185  -33.7946 H   0  0  0  0  0  0  0  0  0  0  0  0
   -7.9695   17.6144  -33.1061 H   0  0  0  0  0  0  0  0  0  0  0  0
   -9.6997   18.4631  -31.5091 H   0  0  0  0  0  0  0  0  0  0  0  0
   -2.0686   24.6566  -28.6727 H   0  0  0  0  0  0  0  0  0  0  0  0
   -0.6501   26.3302  -26.8482 H   0  0  0  0  0  0  0  0  0  0  0  0
   -2.2311   25.4717  -27.0595 H   0  0  0  0  0  0  0  0  0  0  0  0
   -2.4749   27.3486  -25.4897 H   0  0  0  0  0  0  0  0  0  0  0  0
   -2.6985   25.7641  -24.6482 H   0  0  0  0  0  0  0  0  0  0  0  0
   -0.5323   27.8189  -24.3577 H   0  0  0  0  0  0  0  0  0  0  0  0
   -1.2882   26.6966  -23.1389 H   0  0  0  0  0  0  0  0  0  0  0  0
    1.0555   26.2504  -24.9787 H   0  0  0  0  0  0  0  0  0  0  0  0
    0.8123   25.7900  -23.2460 H   0  0  0  0  0  0  0  0  0  0  0  0
    0.8200   23.8066  -24.7323 H   0  0  0  0  0  0  0  0  0  0  0  0
   -0.7872   24.0645  -23.9112 H   0  0  0  0  0  0  0  0  0  0  0  0
  1  2  2  0
  2  3  2  0
  2  4  1  0
  4  5  2  0
  5  6  1  0
  6  7  2  0
  7  8  1  0
  8  9  1  0
  9 10  2  0
 10 11  1  0
 11 12  2  0
 12 13  1  0
 13 14  1  0
 14 15  1  0
 15 16  2  0
 16 17  1  0
 17 18  2  0
 18 19  1  0
 19 20  2  0
 12 21  1  0
  8 22  2  0
  2 23  1  0
 23 24  1  0
 24 25  1  0
 25 26  1  0
 26 27  1  0
 27 28  1  0
 22  4  1  0
 28 23  1  0
 21  9  1  0
 20 15  1  0
  5 29  1  0
  6 30  1  0
  7 31  1  0
 14 32  1  0
 14 33  1  0
 16 34  1  0
 17 35  1  0
 18 36  1  0
 19 37  1  0
 22 38  1  0
 24 39  1  0
 24 40  1  0
 25 41  1  0
 25 42  1  0
 26 43  1  0
 26 44  1  0
 27 45  1  0
 27 46  1  0
 28 47  1  0
 28 48  1  0
M  CHG  1  21  -1
M  END
>  <UniqueID>  (49) 
45

>  <SMILES>  (49) 
O=S(=O)(c1cccc(-c2nnc(SCc3ccccn3)[n-]2)c1)N1CCCCC1

>  <Energy>  (49) 
84.69138817451636

>  <Genealogy>  (49) 
O=S(=O)(c1cccc(-c2nnc(SCc3ccccn3)[n-]2)c1)N1CCCCC1 (protonated)
O=S(=O)(c1cccc(-c2nnc(SCc3ccccn3)[n-]2)c1)N1CCCCC1 (3D coordinates assigned)
O=S(=O)(c1cccc(-c2nnc(SCc3ccccn3)[n-]2)c1)N1CCCCC1 (nonaromatic ring conformer: 84.69138817451636 kcal/mol)

>  <smiles>  (49) 
O=S(=O)(c1cccc(-c2nnc(SCc3ccccn3)[nH]2)c1)N1CCCCC1

>  <score_type>  (49) 
oracle

>  <origin>  (49) 
adgpu

>  <m_score__min__energy>  (49) 
-11.960000000000001

>  <m_primary>  (49) 
energy

$$$$
49:0
     RDKit          3D

 39 41  0  0  0  0  0  0  0  0999 V2000
   -0.2020   23.0800  -24.9780 C   0  0  0  0  0  0  0  0  0  0  0  0
   -0.5090   22.2860  -26.1200 O   0  0  0  0  0  0  0  0  0  0  0  0
   -1.5480   22.5620  -27.0200 C   0  0  0  0  0  0  0  0  0  0  0  0
   -2.0920   21.5800  -27.8700 C   0  0  0  0  0  0  0  0  0  0  0  0
   -3.1320   21.9030  -28.7460 C   0  0  0  0  0  0  0  0  0  0  0  0
   -3.6510   23.2090  -28.7880 C   0  0  0  0  0  0  0  0  0  0  0  0
   -4.7200   23.5490  -29.6910 N   0  0  0  0  0  0  0  0  0  0  0  0
   -5.8320   22.8150  -29.9160 C   0  0  0  0  0  0  0  0  0  0  0  0
   -6.6360   23.4560  -30.8450 C   0  0  0  0  0  0  0  0  0  0  0  0
   -7.9950   23.0120  -31.3150 C   0  0  1  0  0  0  0  0  0  0  0  0
   -8.0900   23.1270  -32.7120 O   0  0  0  0  0  0  0  0  0  0  0  0
   -8.2680   21.6330  -30.8890 N   0  0  0  0  0  0  0  0  0  0  0  0
   -7.8870   20.4710  -31.6500 C   0  0  0  0  0  0  0  0  0  0  0  0
   -6.7220   20.4420  -32.4410 C   0  0  0  0  0  0  0  0  0  0  0  0
   -6.3970   19.2940  -33.1650 C   0  0  0  0  0  0  0  0  0  0  0  0
   -7.2350   18.1800  -33.0980 C   0  0  0  0  0  0  0  0  0  0  0  0
   -8.3570   18.2190  -32.3320 N   0  0  0  0  0  0  0  0  0  0  0  0
   -8.6960   19.3240  -31.6150 C   0  0  0  0  0  0  0  0  0  0  0  0
   -5.9980   24.6320  -31.1960 C   0  0  0  0  0  0  0  0  0  0  0  0
   -4.8240   24.6460  -30.4730 C   0  0  0  0  0  0  0  0  0  0  0  0
   -3.8630   25.6460  -30.5590 O   0  0  0  0  0  0  0  0  0  0  0  0
   -3.0970   24.1880  -27.9450 C   0  0  0  0  0  0  0  0  0  0  0  0
   -2.0580   23.8640  -27.0690 C   0  0  0  0  0  0  0  0  0  0  0  0
   -0.4228   22.5089  -24.0642 H   0  0  0  0  0  0  0  0  0  0  0  0
    0.8647   23.3483  -24.9939 H   0  0  0  0  0  0  0  0  0  0  0  0
   -0.8107   23.9961  -24.9939 H   0  0  0  0  0  0  0  0  0  0  0  0
   -1.6966   20.5538  -27.8444 H   0  0  0  0  0  0  0  0  0  0  0  0
   -3.5479   21.1292  -29.4080 H   0  0  0  0  0  0  0  0  0  0  0  0
   -6.0640   21.8537  -29.4344 H   0  0  0  0  0  0  0  0  0  0  0  0
   -8.7518   23.6667  -30.8582 H   0  0  0  0  0  0  0  0  0  0  0  0
   -7.1680   23.0950  -33.0790 H   0  0  0  0  0  0  0  0  0  0  0  0
   -8.7860   21.4810  -29.9940 H   0  0  0  0  0  0  0  0  0  0  0  0
   -6.0677   21.3250  -32.4882 H   0  0  0  0  0  0  0  0  0  0  0  0
   -5.4877   19.2674  -33.7834 H   0  0  0  0  0  0  0  0  0  0  0  0
   -6.9874   17.2705  -33.6651 H   0  0  0  0  0  0  0  0  0  0  0  0
   -9.6103   19.3190  -31.0035 H   0  0  0  0  0  0  0  0  0  0  0  0
   -6.3528   25.3959  -31.9035 H   0  0  0  0  0  0  0  0  0  0  0  0
   -3.4845   25.2170  -27.9753 H   0  0  0  0  0  0  0  0  0  0  0  0
   -1.6372   24.6394  -26.4120 H   0  0  0  0  0  0  0  0  0  0  0  0
  1  2  1  0
  2  3  1  0
  3  4  2  0
  4  5  1  0
  5  6  2  0
  6  7  1  0
  7  8  1  0
  8  9  2  0
  9 10  1  0
 10 11  1  0
 10 12  1  0
 12 13  1  0
 13 14  2  0
 14 15  1  0
 15 16  2  0
 16 17  1  0
 17 18  2  0
  9 19  1  0
 19 20  2  0
 20 21  1  0
  6 22  1  0
 22 23  2  0
 23  3  1  0
 20  7  1  0
 18 13  1  0
  1 24  1  0
  1 25  1  0
  1 26  1  0
  4 27  1  0
  5 28  1  0
  8 29  1  0
 10 30  1  1
 11 31  1  0
 12 32  1  0
 14 33  1  0
 15 34  1  0
 16 35  1  0
 18 36  1  0
 19 37  1  0
 22 38  1  0
 23 39  1  0
M  CHG  1  21  -1
M  END
>  <UniqueID>  (50) 
46

>  <SMILES>  (50) 
COc1ccc(-n2cc([C@@H](O)Nc3cccnc3)cc2[O-])cc1

>  <Energy>  (50) 
74.08304572410246

>  <Genealogy>  (50) 
COc1ccc(-n2cc(C(O)Nc3cccnc3)cc2[O-])cc1 (protonated)
COc1ccc(-n2cc([C@@H](O)Nc3cccnc3)cc2[O-])cc1 (chirality)
COc1ccc(-n2cc([C@@H](O)Nc3cccnc3)cc2[O-])cc1 (3D coordinates assigned)
COc1ccc(-n2cc([C@@H](O)Nc3cccnc3)cc2[O-])cc1 (optimized conformer: 74.08304572410246 kcal/mol)

>  <smiles>  (50) 
COc1ccc(-n2cc(C(O)Nc3cccnc3)cc2O)cc1

>  <score_type>  (50) 
oracle

>  <origin>  (50) 
adgpu

>  <m_score__min__energy>  (50) 
-9.8599999999999994

>  <m_primary>  (50) 
energy

$$$$
