0:0
     RDKit          3D

 37 39  0  0  0  0  0  0  0  0999 V2000
   -7.7350   18.6220  -32.6380 C   0  0  0  0  0  0  0  0  0  0  0  0
   -7.8970   20.0750  -32.3010 C   0  0  0  0  0  0  0  0  0  0  0  0
   -9.1430   20.5710  -31.8920 C   0  0  0  0  0  0  0  0  0  0  0  0
   -9.3030   21.9300  -31.6190 C   0  0  0  0  0  0  0  0  0  0  0  0
   -8.2240   22.8070  -31.7600 C   0  0  0  0  0  0  0  0  0  0  0  0
   -6.9680   22.3280  -32.1700 C   0  0  0  0  0  0  0  0  0  0  0  0
   -5.8150   23.2840  -32.3480 C   0  0  0  0  0  0  0  0  0  0  0  0
   -4.7630   23.0400  -31.3510 N   0  0  0  0  0  0  0  0  0  0  0  0
   -3.6810   22.2160  -31.4700 C   0  0  0  0  0  0  0  0  0  0  0  0
   -3.3890   21.3570  -32.6690 C   0  0  0  0  0  0  0  0  0  0  0  0
   -4.0130   20.1290  -32.5360 F   0  0  0  0  0  0  0  0  0  0  0  0
   -2.0280   21.1500  -32.7810 F   0  0  0  0  0  0  0  0  0  0  0  0
   -3.8600   21.9690  -33.8140 F   0  0  0  0  0  0  0  0  0  0  0  0
   -2.8670   22.2330  -30.3830 N   0  0  0  0  0  0  0  0  0  0  0  0
   -3.4740   23.1090  -29.5620 C   0  0  0  0  0  0  0  0  0  0  0  0
   -4.6070   23.5990  -30.1310 C   0  0  0  0  0  0  0  0  0  0  0  0
   -5.3840   24.5250  -29.4360 C   0  0  0  0  0  0  0  0  0  0  0  0
   -6.4370   25.0130  -29.9250 O   0  0  0  0  0  0  0  0  0  0  0  0
   -4.9730   24.8970  -28.1880 N   0  0  0  0  0  0  0  0  0  0  0  0
   -3.8280   24.3880  -27.6280 C   0  0  0  0  0  0  0  0  0  0  0  0
   -3.5010   24.7490  -26.4650 O   0  0  0  0  0  0  0  0  0  0  0  0
   -3.0480   23.4930  -28.3250 N   0  0  0  0  0  0  0  0  0  0  0  0
   -1.8390   22.9110  -27.7290 C   0  0  0  0  0  0  0  0  0  0  0  0
   -6.8180   20.9610  -32.4590 C   0  0  0  0  0  0  0  0  0  0  0  0
   -7.6696   18.0354  -31.7098 H   0  0  0  0  0  0  0  0  0  0  0  0
   -8.6009   18.2831  -33.2257 H   0  0  0  0  0  0  0  0  0  0  0  0
   -6.8157   18.4822  -33.2257 H   0  0  0  0  0  0  0  0  0  0  0  0
   -9.9974   19.8864  -31.7860 H   0  0  0  0  0  0  0  0  0  0  0  0
  -10.2812   22.3122  -31.2919 H   0  0  0  0  0  0  0  0  0  0  0  0
   -8.3586   23.8781  -31.5489 H   0  0  0  0  0  0  0  0  0  0  0  0
   -5.3923   23.1527  -33.3550 H   0  0  0  0  0  0  0  0  0  0  0  0
   -6.1895   24.3097  -32.2151 H   0  0  0  0  0  0  0  0  0  0  0  0
   -5.5460   25.5840  -27.6460 H   0  0  0  0  0  0  0  0  0  0  0  0
   -1.9164   22.9483  -26.6324 H   0  0  0  0  0  0  0  0  0  0  0  0
   -1.7370   21.8651  -28.0541 H   0  0  0  0  0  0  0  0  0  0  0  0
   -0.9578   23.4836  -28.0541 H   0  0  0  0  0  0  0  0  0  0  0  0
   -5.8477   20.5814  -32.8119 H   0  0  0  0  0  0  0  0  0  0  0  0
  1  2  1  0
  2  3  2  0
  3  4  1  0
  4  5  2  0
  5  6  1  0
  6  7  1  0
  7  8  1  0
  8  9  1  0
  9 10  1  0
 10 11  1  0
 10 12  1  0
 10 13  1  0
  9 14  2  0
 14 15  1  0
 15 16  2  0
 16 17  1  0
 17 18  2  0
 17 19  1  0
 19 20  1  0
 20 21  2  0
 20 22  1  0
 22 23  1  0
  6 24  2  0
 24  2  1  0
 16  8  1  0
 22 15  1  0
  1 25  1  0
  1 26  1  0
  1 27  1  0
  3 28  1  0
  4 29  1  0
  5 30  1  0
  7 31  1  0
  7 32  1  0
 19 33  1  0
 23 34  1  0
 23 35  1  0
 23 36  1  0
 24 37  1  0
M  END
>  <UniqueID>  (1) 
1

>  <SMILES>  (1) 
Cc1cccc(Cn2c(C(F)(F)F)nc3c2c(=O)[nH]c(=O)n3C)c1

>  <Energy>  (1) 
80.63074320237985

>  <Genealogy>  (1) 
Cc1cccc(Cn2c(C(F)(F)F)nc3c2c(=O)[nH]c(=O)n3C)c1 (3D coordinates assigned)
Cc1cccc(Cn2c(C(F)(F)F)nc3c2c(=O)[nH]c(=O)n3C)c1 (optimized conformer: 80.63074320237985 kcal/mol)

>  <smiles>  (1) 
Cc1cccc(Cn2c(C(F)(F)F)nc3c2c(=O)[nH]c(=O)n3C)c1

>  <score_type>  (1) 
oracle

>  <origin>  (1) 
adgpu

>  <m_score__min__energy>  (1) 
-7.0300000000000002

>  <m_primary>  (1) 
energy

$$$$
1:0
     RDKit          3D

 40 42  0  0  0  0  0  0  0  0999 V2000
   -6.8520   20.3460  -33.1310 C   0  0  0  0  0  0  0  0  0  0  0  0
   -5.7040   19.4110  -33.3500 C   0  0  0  0  0  0  0  0  0  0  0  0
   -5.8320   18.0760  -33.4510 N   0  0  0  0  0  0  0  0  0  0  0  0
   -4.6490   17.5660  -33.6180 O   0  0  0  0  0  0  0  0  0  0  0  0
   -3.7340   18.5070  -33.6350 C   0  0  0  0  0  0  0  0  0  0  0  0
   -2.4720   18.2240  -33.7840 N   0  0  0  0  0  0  0  0  0  0  0  0
   -1.1020   19.2880  -33.8460 S   0  0  0  0  0  0  0  0  0  0  0  0
    0.1610   18.5060  -34.0760 O   0  0  0  0  0  0  0  0  0  0  0  0
   -1.2710   20.3160  -34.9290 O   0  0  0  0  0  0  0  0  0  0  0  0
   -0.9890   20.1160  -32.2960 C   0  0  0  0  0  0  0  0  0  0  0  0
   -0.9190   21.5150  -32.2430 C   0  0  0  0  0  0  0  0  0  0  0  0
   -0.8120   22.1670  -31.0110 C   0  0  0  0  0  0  0  0  0  0  0  0
   -0.7460   21.4310  -29.8220 C   0  0  0  0  0  0  0  0  0  0  0  0
   -0.6600   22.1350  -28.5730 N   0  0  0  0  0  0  0  0  0  0  0  0
   -1.4170   23.1130  -28.1620 C   0  0  0  0  0  0  0  0  0  0  0  0
   -2.6320   23.5770  -28.8720 C   0  0  0  0  0  0  0  0  0  0  0  0
   -2.6710   24.8640  -29.4260 C   0  0  0  0  0  0  0  0  0  0  0  0
   -1.5680   25.7070  -29.3380 O   0  0  0  0  0  0  0  0  0  0  0  0
   -3.7870   25.2940  -30.0680 N   0  0  0  0  0  0  0  0  0  0  0  0
   -4.8840   24.5020  -30.1740 C   0  0  0  0  0  0  0  0  0  0  0  0
   -6.2100   25.0440  -30.9550 S   0  0  0  0  0  0  0  0  0  0  0  0
   -4.8840   23.2630  -29.6190 N   0  0  0  0  0  0  0  0  0  0  0  0
   -3.7930   22.7870  -28.9640 C   0  0  0  0  0  0  0  0  0  0  0  0
   -3.8440   21.6470  -28.4310 O   0  0  0  0  0  0  0  0  0  0  0  0
   -0.8440   20.0300  -29.8760 C   0  0  0  0  0  0  0  0  0  0  0  0
   -0.9500   19.3770  -31.1070 C   0  0  0  0  0  0  0  0  0  0  0  0
   -4.3620   19.7490  -33.4710 C   0  0  0  0  0  0  0  0  0  0  0  0
   -3.7960   21.1330  -33.3590 C   0  0  0  0  0  0  0  0  0  0  0  0
   -7.0156   20.4792  -32.0514 H   0  0  0  0  0  0  0  0  0  0  0  0
   -6.6249   21.3194  -33.5903 H   0  0  0  0  0  0  0  0  0  0  0  0
   -7.7593   19.9266  -33.5903 H   0  0  0  0  0  0  0  0  0  0  0  0
   -6.7160   17.5240  -33.4000 H   0  0  0  0  0  0  0  0  0  0  0  0
   -0.9483   22.1014  -33.1732 H   0  0  0  0  0  0  0  0  0  0  0  0
   -0.7794   23.2659  -30.9756 H   0  0  0  0  0  0  0  0  0  0  0  0
   -1.1366   23.6259  -27.2302 H   0  0  0  0  0  0  0  0  0  0  0  0
   -0.8372   19.4446  -28.9447 H   0  0  0  0  0  0  0  0  0  0  0  0
   -1.0030   18.2788  -31.1422 H   0  0  0  0  0  0  0  0  0  0  0  0
   -3.6869   21.3997  -32.2974 H   0  0  0  0  0  0  0  0  0  0  0  0
   -2.8116   21.1673  -33.8487 H   0  0  0  0  0  0  0  0  0  0  0  0
   -4.4742   21.8473  -33.8487 H   0  0  0  0  0  0  0  0  0  0  0  0
  1  2  1  0
  2  3  1  0
  3  4  1  0
  4  5  1  0
  5  6  2  3
  6  7  1  0
  7  8  2  0
  7  9  2  0
  7 10  1  0
 10 11  2  0
 11 12  1  0
 12 13  2  0
 13 14  1  0
 14 15  2  3
 15 16  1  0
 16 17  2  0
 17 18  1  0
 17 19  1  0
 19 20  1  0
 20 21  2  0
 20 22  1  0
 22 23  1  0
 23 24  2  0
 13 25  1  0
 25 26  2  0
  5 27  1  0
 27 28  1  0
 27  2  2  0
 26 10  1  0
 23 16  1  0
  1 29  1  0
  1 30  1  0
  1 31  1  0
  3 32  1  0
 11 33  1  0
 12 34  1  0
 15 35  1  0
 25 36  1  0
 26 37  1  0
 28 38  1  0
 28 39  1  0
 28 40  1  0
M  CHG  3  18  -1  19  -1  22  -1
M  END
>  <UniqueID>  (2) 
2

>  <SMILES>  (2) 
Cc1[nH]oc(=NS(=O)(=O)c2ccc(N=Cc3c([O-])[n-]c(=S)[n-]c3=O)cc2)c1C

>  <Energy>  (2) 
97.46303797164279

>  <Genealogy>  (2) 
Cc1[nH]oc(=NS(=O)(=O)c2ccc(N=Cc3c([O-])[n-]c(=S)[n-]c3=O)cc2)c1C (protonated)
Cc1[nH]oc(=NS(=O)(=O)c2ccc(N=Cc3c([O-])[n-]c(=S)[n-]c3=O)cc2)c1C (3D coordinates assigned)
Cc1[nH]oc(=NS(=O)(=O)c2ccc(N=Cc3c([O-])[n-]c(=S)[n-]c3=O)cc2)c1C (optimized conformer: 97.46303797164279 kcal/mol)

>  <smiles>  (2) 
Cc1[nH]oc(=NS(=O)(=O)c2ccc(N=Cc3c(O)[nH]c(=S)[nH]c3=O)cc2)c1C

>  <score_type>  (2) 
oracle

>  <origin>  (2) 
adgpu

>  <m_score__min__energy>  (2) 
-12.710000000000001

>  <m_primary>  (2) 
energy

$$$$
2:0
     RDKit          3D

 51 53  0  0  0  0  0  0  0  0999 V2000
   -2.4770   18.8170  -32.7240 C   0  0  0  0  0  0  0  0  0  0  0  0
   -1.7350   20.0900  -32.7070 N   0  0  0  0  0  0  0  0  0  0  0  0
   -2.6300   21.2340  -33.0310 C   0  0  0  0  0  0  0  0  0  0  0  0
   -3.0510   22.0130  -31.7780 C   0  0  0  0  0  0  0  0  0  0  0  0
   -1.8730   22.5930  -31.0970 N   0  0  0  0  0  0  0  0  0  0  0  0
   -2.2210   23.0010  -29.7210 C   0  0  0  0  0  0  0  0  0  0  0  0
   -2.7150   24.4240  -29.6840 C   0  0  0  0  0  0  0  0  0  0  0  0
   -2.0690   25.2760  -29.0190 O   0  0  0  0  0  0  0  0  0  0  0  0
   -3.8690   24.8560  -30.4200 N   0  0  0  0  0  0  0  0  0  0  0  0
   -5.0400   24.0790  -30.7060 C   0  0  0  0  0  0  0  0  0  0  0  0
   -5.7500   23.4180  -29.6900 C   0  0  0  0  0  0  0  0  0  0  0  0
   -6.9130   22.7050  -29.9940 C   0  0  0  0  0  0  0  0  0  0  0  0
   -7.3860   22.6520  -31.3130 C   0  0  0  0  0  0  0  0  0  0  0  0
   -8.8600   21.7590  -31.6960 S   0  0  0  0  0  0  0  0  0  0  0  0
   -9.4610   21.2300  -30.4230 O   0  0  0  0  0  0  0  0  0  0  0  0
   -9.8560   22.6990  -32.3190 O   0  0  0  0  0  0  0  0  0  0  0  0
   -8.5640   20.4270  -32.7930 N   0  0  0  0  0  0  0  0  0  0  0  0
   -9.0970   19.1710  -32.2560 C   0  0  0  0  0  0  0  0  0  0  0  0
   -7.9610   18.4220  -31.5780 C   0  0  0  0  0  0  0  0  0  0  0  0
   -6.6850   19.0780  -32.0670 C   0  0  0  0  0  0  0  0  0  0  0  0
   -7.1260   20.2090  -32.9840 C   0  0  0  0  0  0  0  0  0  0  0  0
   -6.6910   23.3330  -32.3210 C   0  0  0  0  0  0  0  0  0  0  0  0
   -5.5300   24.0490  -32.0160 C   0  0  0  0  0  0  0  0  0  0  0  0
   -0.6720   21.7170  -31.1400 C   0  0  0  0  0  0  0  0  0  0  0  0
   -1.0260   20.2460  -31.4130 C   0  0  0  0  0  0  0  0  0  0  0  0
   -2.6677   18.4899  -31.6912 H   0  0  0  0  0  0  0  0  0  0  0  0
   -3.4346   18.9577  -33.2467 H   0  0  0  0  0  0  0  0  0  0  0  0
   -1.8827   18.0531  -33.2467 H   0  0  0  0  0  0  0  0  0  0  0  0
   -1.0100   20.0300  -33.4620 H   0  0  0  0  0  0  0  0  0  0  0  0
   -2.1000   21.9169  -33.7113 H   0  0  0  0  0  0  0  0  0  0  0  0
   -3.5397   20.8294  -33.4987 H   0  0  0  0  0  0  0  0  0  0  0  0
   -3.7336   22.8244  -32.0707 H   0  0  0  0  0  0  0  0  0  0  0  0
   -3.5521   21.3207  -31.0854 H   0  0  0  0  0  0  0  0  0  0  0  0
   -3.0101   22.3370  -29.3384 H   0  0  0  0  0  0  0  0  0  0  0  0
   -1.3180   22.9291  -29.0970 H   0  0  0  0  0  0  0  0  0  0  0  0
   -5.3894   23.4617  -28.6517 H   0  0  0  0  0  0  0  0  0  0  0  0
   -7.4598   22.1830  -29.1949 H   0  0  0  0  0  0  0  0  0  0  0  0
   -9.8898   19.3859  -31.5244 H   0  0  0  0  0  0  0  0  0  0  0  0
   -9.5218   18.5618  -33.0674 H   0  0  0  0  0  0  0  0  0  0  0  0
   -8.0426   18.5103  -30.4846 H   0  0  0  0  0  0  0  0  0  0  0  0
   -7.9828   17.3488  -31.8185 H   0  0  0  0  0  0  0  0  0  0  0  0
   -6.1089   19.4754  -31.2183 H   0  0  0  0  0  0  0  0  0  0  0  0
   -6.0362   18.3610  -32.5914 H   0  0  0  0  0  0  0  0  0  0  0  0
   -6.5746   21.1271  -32.7329 H   0  0  0  0  0  0  0  0  0  0  0  0
   -6.9197   19.9474  -34.0323 H   0  0  0  0  0  0  0  0  0  0  0  0
   -7.0605   23.3041  -33.3567 H   0  0  0  0  0  0  0  0  0  0  0  0
   -4.9982   24.5923  -32.8110 H   0  0  0  0  0  0  0  0  0  0  0  0
   -0.0040   22.0731  -31.9381 H   0  0  0  0  0  0  0  0  0  0  0  0
   -0.1865   21.7666  -30.1542 H   0  0  0  0  0  0  0  0  0  0  0  0
   -0.0993   19.6540  -31.4392 H   0  0  0  0  0  0  0  0  0  0  0  0
   -1.6910   19.8956  -30.6099 H   0  0  0  0  0  0  0  0  0  0  0  0
  1  2  1  0
  2  3  1  0
  3  4  1  0
  4  5  1  0
  5  6  1  0
  6  7  1  0
  7  8  2  0
  7  9  1  0
  9 10  1  0
 10 11  2  0
 11 12  1  0
 12 13  2  0
 13 14  1  0
 14 15  2  0
 14 16  2  0
 14 17  1  0
 17 18  1  0
 18 19  1  0
 19 20  1  0
 20 21  1  0
 13 22  1  0
 22 23  2  0
  5 24  1  0
 24 25  1  0
 25  2  1  0
 23 10  1  0
 21 17  1  0
  1 26  1  0
  1 27  1  0
  1 28  1  0
  2 29  1  0
  3 30  1  0
  3 31  1  0
  4 32  1  0
  4 33  1  0
  6 34  1  0
  6 35  1  0
 11 36  1  0
 12 37  1  0
 18 38  1  0
 18 39  1  0
 19 40  1  0
 19 41  1  0
 20 42  1  0
 20 43  1  0
 21 44  1  0
 21 45  1  0
 22 46  1  0
 23 47  1  0
 24 48  1  0
 24 49  1  0
 25 50  1  0
 25 51  1  0
M  CHG  2   2   1   9  -1
M  END
>  <UniqueID>  (3) 
3

>  <SMILES>  (3) 
C[NH+]1CCN(CC(=O)[N-]c2ccc(S(=O)(=O)N3CCCC3)cc2)CC1

>  <Energy>  (3) 
64.3453874828528

>  <Genealogy>  (3) 
C[NH+]1CCN(CC(=O)[N-]c2ccc(S(=O)(=O)N3CCCC3)cc2)CC1 (protonated)
C[NH+]1CCN(CC(=O)[N-]c2ccc(S(=O)(=O)N3CCCC3)cc2)CC1 (3D coordinates assigned)
C[NH+]1CCN(CC(=O)[N-]c2ccc(S(=O)(=O)N3CCCC3)cc2)CC1 (nonaromatic ring conformer: 64.3453874828528 kcal/mol)

>  <smiles>  (3) 
CN1CCN(CC(=O)Nc2ccc(S(=O)(=O)N3CCCC3)cc2)CC1

>  <score_type>  (3) 
oracle

>  <origin>  (3) 
adgpu

>  <m_score__min__energy>  (3) 
-10.67

>  <m_primary>  (3) 
energy

$$$$
3:0
     RDKit          3D

 41 43  0  0  0  0  0  0  0  0999 V2000
   -3.8340   25.3360  -30.3590 O   0  0  0  0  0  0  0  0  0  0  0  0
   -3.4310   24.1420  -30.3980 C   0  0  0  0  0  0  0  0  0  0  0  0
   -4.0930   23.1810  -31.2330 N   0  0  0  0  0  0  0  0  0  0  0  0
   -5.5090   22.9740  -31.3440 C   0  0  0  0  0  0  0  0  0  0  0  0
   -6.4330   24.0170  -31.1530 C   0  0  0  0  0  0  0  0  0  0  0  0
   -7.8020   23.7780  -31.2950 C   0  0  0  0  0  0  0  0  0  0  0  0
   -8.2600   22.5040  -31.6400 C   0  0  0  0  0  0  0  0  0  0  0  0
   -7.3480   21.4620  -31.8510 C   0  0  0  0  0  0  0  0  0  0  0  0
   -7.9390   19.8640  -32.2960 S   0  0  0  0  0  0  0  0  0  0  0  0
   -8.5700   19.2260  -31.0890 O   0  0  0  0  0  0  0  0  0  0  0  0
   -8.9730   19.9830  -33.3830 O   0  0  0  0  0  0  0  0  0  0  0  0
   -6.6030   18.8840  -32.8450 N   0  0  0  0  0  0  0  0  0  0  0  0
   -6.1050   19.3410  -34.1420 C   0  0  0  0  0  0  0  0  0  0  0  0
   -5.4970   18.1270  -34.8270 C   0  0  0  0  0  0  0  0  0  0  0  0
   -6.0780   16.9210  -34.1040 C   0  0  0  0  0  0  0  0  0  0  0  0
   -7.0110   17.4950  -33.0500 C   0  0  0  0  0  0  0  0  0  0  0  0
   -5.9740   21.7050  -31.7130 C   0  0  0  0  0  0  0  0  0  0  0  0
   -2.2690   23.7210  -29.5850 C   0  0  0  0  0  0  0  0  0  0  0  0
   -2.0040   22.3440  -29.4580 C   0  0  0  0  0  0  0  0  0  0  0  0
   -0.8820   21.8970  -28.7600 C   0  0  0  0  0  0  0  0  0  0  0  0
   -0.0070   22.8150  -28.1780 C   0  0  0  0  0  0  0  0  0  0  0  0
   -0.2650   24.1830  -28.2780 C   0  0  0  0  0  0  0  0  0  0  0  0
   -1.3980   24.6490  -28.9570 C   0  0  0  0  0  0  0  0  0  0  0  0
   -1.6380   26.0240  -28.9550 O   0  0  0  0  0  0  0  0  0  0  0  0
   -6.0765   25.0241  -30.8910 H   0  0  0  0  0  0  0  0  0  0  0  0
   -8.5211   24.5948  -31.1348 H   0  0  0  0  0  0  0  0  0  0  0  0
   -9.3391   22.3188  -31.7462 H   0  0  0  0  0  0  0  0  0  0  0  0
   -6.9320   19.7428  -34.7458 H   0  0  0  0  0  0  0  0  0  0  0  0
   -5.3609   20.1420  -34.0211 H   0  0  0  0  0  0  0  0  0  0  0  0
   -5.7734   18.1073  -35.8915 H   0  0  0  0  0  0  0  0  0  0  0  0
   -4.3980   18.1401  -34.7822 H   0  0  0  0  0  0  0  0  0  0  0  0
   -6.6356   16.2831  -34.8056 H   0  0  0  0  0  0  0  0  0  0  0  0
   -5.2926   16.2933  -33.6578 H   0  0  0  0  0  0  0  0  0  0  0  0
   -8.0526   17.4530  -33.4013 H   0  0  0  0  0  0  0  0  0  0  0  0
   -6.9529   16.9214  -32.1132 H   0  0  0  0  0  0  0  0  0  0  0  0
   -5.2553   20.8926  -31.8960 H   0  0  0  0  0  0  0  0  0  0  0  0
   -2.6885   21.6134  -29.9137 H   0  0  0  0  0  0  0  0  0  0  0  0
   -0.6866   20.8184  -28.6682 H   0  0  0  0  0  0  0  0  0  0  0  0
    0.8853   22.4609  -27.6409 H   0  0  0  0  0  0  0  0  0  0  0  0
    0.4287   24.9027  -27.8188 H   0  0  0  0  0  0  0  0  0  0  0  0
   -2.5630   26.4290  -28.9680 H   0  0  0  0  0  0  0  0  0  0  0  0
  1  2  2  0
  2  3  1  0
  3  4  1  0
  4  5  2  0
  5  6  1  0
  6  7  2  0
  7  8  1  0
  8  9  1  0
  9 10  2  0
  9 11  2  0
  9 12  1  0
 12 13  1  0
 13 14  1  0
 14 15  1  0
 15 16  1  0
  8 17  2  0
  2 18  1  0
 18 19  2  0
 19 20  1  0
 20 21  2  0
 21 22  1  0
 22 23  2  0
 23 24  1  0
 17  4  1  0
 23 18  1  0
 16 12  1  0
  5 25  1  0
  6 26  1  0
  7 27  1  0
 13 28  1  0
 13 29  1  0
 14 30  1  0
 14 31  1  0
 15 32  1  0
 15 33  1  0
 16 34  1  0
 16 35  1  0
 17 36  1  0
 19 37  1  0
 20 38  1  0
 21 39  1  0
 22 40  1  0
 24 41  1  0
M  CHG  1   3  -1
M  END
>  <UniqueID>  (4) 
4

>  <SMILES>  (4) 
O=C([N-]c1cccc(S(=O)(=O)N2CCCC2)c1)c1ccccc1O

>  <Energy>  (4) 
52.14025823940425

>  <Genealogy>  (4) 
O=C([N-]c1cccc(S(=O)(=O)N2CCCC2)c1)c1ccccc1O (protonated)
O=C([N-]c1cccc(S(=O)(=O)N2CCCC2)c1)c1ccccc1O (3D coordinates assigned)
O=C([N-]c1cccc(S(=O)(=O)N2CCCC2)c1)c1ccccc1O (nonaromatic ring conformer: 52.14025823940425 kcal/mol)

>  <smiles>  (4) 
O=C(Nc1cccc(S(=O)(=O)N2CCCC2)c1)c1ccccc1O

>  <score_type>  (4) 
oracle

>  <origin>  (4) 
adgpu

>  <m_score__min__energy>  (4) 
-10.93

>  <m_primary>  (4) 
energy

$$$$
4:0
     RDKit          3D

 39 41  0  0  0  0  0  0  0  0999 V2000
   -6.0520   17.3060  -33.2950 O   0  0  0  0  0  0  0  0  0  0  0  0
   -6.0400   18.7820  -33.5850 S   0  0  0  0  0  0  0  0  0  0  0  0
   -6.0990   18.9800  -35.0740 O   0  0  0  0  0  0  0  0  0  0  0  0
   -7.4660   19.5230  -32.8870 C   0  0  0  0  0  0  0  0  0  0  0  0
   -8.5710   18.8530  -32.4260 C   0  0  0  0  0  0  0  0  0  0  0  0
   -9.4680   19.7540  -31.9900 N   0  0  0  0  0  0  0  0  0  0  0  0
   -8.8690   20.9450  -32.2010 C   0  0  0  0  0  0  0  0  0  0  0  0
   -7.6400   20.8470  -32.7490 N   0  0  0  0  0  0  0  0  0  0  0  0
   -4.5980   19.5250  -32.9110 N   0  0  0  0  0  0  0  0  0  0  0  0
   -4.7910   19.8420  -31.4800 C   0  0  0  0  0  0  0  0  0  0  0  0
   -4.4630   21.2850  -31.1970 C   0  0  0  0  0  0  0  0  0  0  0  0
   -3.2060   21.6260  -30.6680 C   0  0  0  0  0  0  0  0  0  0  0  0
   -2.8830   22.9660  -30.4320 C   0  0  0  0  0  0  0  0  0  0  0  0
   -3.8120   23.9720  -30.7170 C   0  0  0  0  0  0  0  0  0  0  0  0
   -3.4860   25.3030  -30.4880 O   0  0  0  0  0  0  0  0  0  0  0  0
   -5.0670   23.6380  -31.2330 C   0  0  0  0  0  0  0  0  0  0  0  0
   -5.3940   22.3000  -31.4710 C   0  0  0  0  0  0  0  0  0  0  0  0
   -3.4330   18.6350  -33.0920 C   0  0  0  0  0  0  0  0  0  0  0  0
   -2.1760   19.4430  -33.2850 C   0  0  0  0  0  0  0  0  0  0  0  0
   -0.9210   18.8730  -33.0110 C   0  0  0  0  0  0  0  0  0  0  0  0
    0.2470   19.6170  -33.2030 C   0  0  0  0  0  0  0  0  0  0  0  0
    0.1720   20.9300  -33.6790 C   0  0  0  0  0  0  0  0  0  0  0  0
    1.3070   21.6480  -33.8650 F   0  0  0  0  0  0  0  0  0  0  0  0
   -1.0710   21.4980  -33.9680 C   0  0  0  0  0  0  0  0  0  0  0  0
   -2.2430   20.7580  -33.7780 C   0  0  0  0  0  0  0  0  0  0  0  0
   -8.7011   17.7608  -32.4151 H   0  0  0  0  0  0  0  0  0  0  0  0
   -9.3395   21.9069  -31.9494 H   0  0  0  0  0  0  0  0  0  0  0  0
   -5.8396   19.6515  -31.2077 H   0  0  0  0  0  0  0  0  0  0  0  0
   -4.1169   19.2068  -30.8866 H   0  0  0  0  0  0  0  0  0  0  0  0
   -2.4747   20.8368  -30.4391 H   0  0  0  0  0  0  0  0  0  0  0  0
   -1.8969   23.2292  -30.0216 H   0  0  0  0  0  0  0  0  0  0  0  0
   -5.7988   24.4294  -31.4523 H   0  0  0  0  0  0  0  0  0  0  0  0
   -6.3841   22.0412  -31.8744 H   0  0  0  0  0  0  0  0  0  0  0  0
   -3.3214   17.9993  -32.2013 H   0  0  0  0  0  0  0  0  0  0  0  0
   -3.5962   18.0127  -33.9843 H   0  0  0  0  0  0  0  0  0  0  0  0
   -0.8574   17.8379  -32.6442 H   0  0  0  0  0  0  0  0  0  0  0  0
    1.2264   19.1690  -32.9794 H   0  0  0  0  0  0  0  0  0  0  0  0
   -1.1285   22.5295  -34.3458 H   0  0  0  0  0  0  0  0  0  0  0  0
   -3.2193   21.2061  -34.0149 H   0  0  0  0  0  0  0  0  0  0  0  0
  1  2  2  0
  2  3  2  0
  2  4  1  0
  4  5  2  0
  5  6  1  0
  6  7  1  0
  7  8  2  0
  2  9  1  0
  9 10  1  0
 10 11  1  0
 11 12  2  0
 12 13  1  0
 13 14  2  0
 14 15  1  0
 14 16  1  0
 16 17  2  0
  9 18  1  0
 18 19  1  0
 19 20  2  0
 20 21  1  0
 21 22  2  0
 22 23  1  0
 22 24  1  0
 24 25  2  0
  8  4  1  0
 17 11  1  0
 25 19  1  0
  5 26  1  0
  7 27  1  0
 10 28  1  0
 10 29  1  0
 12 30  1  0
 13 31  1  0
 16 32  1  0
 17 33  1  0
 18 34  1  0
 18 35  1  0
 20 36  1  0
 21 37  1  0
 24 38  1  0
 25 39  1  0
M  CHG  2   6  -1  15  -1
M  END
>  <UniqueID>  (5) 
5

>  <SMILES>  (5) 
O=S(=O)(c1c[n-]cn1)N(Cc1ccc([O-])cc1)Cc1ccc(F)cc1

>  <Energy>  (5) 
67.13508458904387

>  <Genealogy>  (5) 
O=S(=O)(c1c[n-]cn1)N(Cc1ccc([O-])cc1)Cc1ccc(F)cc1 (protonated)
O=S(=O)(c1c[n-]cn1)N(Cc1ccc([O-])cc1)Cc1ccc(F)cc1 (3D coordinates assigned)
O=S(=O)(c1c[n-]cn1)N(Cc1ccc([O-])cc1)Cc1ccc(F)cc1 (optimized conformer: 67.13508458904387 kcal/mol)

>  <smiles>  (5) 
O=S(=O)(c1c[nH]cn1)N(Cc1ccc(O)cc1)Cc1ccc(F)cc1

>  <score_type>  (5) 
oracle

>  <origin>  (5) 
adgpu

>  <m_score__min__energy>  (5) 
-10.279999999999999

>  <m_primary>  (5) 
energy

$$$$
5:0
     RDKit          3D

 36 38  0  0  0  0  0  0  0  0999 V2000
   -9.1230   18.5510  -32.1810 C   0  0  0  0  0  0  0  0  0  0  0  0
   -8.5280   19.9260  -32.1040 C   0  0  0  0  0  0  0  0  0  0  0  0
   -7.2860   20.1880  -32.7030 C   0  0  0  0  0  0  0  0  0  0  0  0
   -6.7110   21.4590  -32.6070 C   0  0  0  0  0  0  0  0  0  0  0  0
   -7.3720   22.4850  -31.9230 C   0  0  0  0  0  0  0  0  0  0  0  0
   -6.7330   23.7670  -31.8060 N   0  0  0  0  0  0  0  0  0  0  0  0
   -5.5880   24.0100  -31.2400 C   0  0  0  0  0  0  0  0  0  0  0  0
   -5.0440   25.2460  -31.2250 N   0  0  0  0  0  0  0  0  0  0  0  0
   -3.8880   25.3010  -30.5640 N   0  0  0  0  0  0  0  0  0  0  0  0
   -3.5160   24.1110  -30.0420 C   0  0  0  0  0  0  0  0  0  0  0  0
   -2.0290   23.8640  -29.1500 S   0  0  0  0  0  0  0  0  0  0  0  0
   -2.2540   22.8910  -28.0270 O   0  0  0  0  0  0  0  0  0  0  0  0
   -0.9870   23.3110  -30.0790 O   0  0  0  0  0  0  0  0  0  0  0  0
   -1.4740   25.3730  -28.4990 N   0  0  0  0  0  0  0  0  0  0  0  0
   -1.0600   25.5870  -27.1420 C   0  0  0  0  0  0  0  0  0  0  0  0
   -1.9550   26.1990  -26.2580 C   0  0  0  0  0  0  0  0  0  0  0  0
   -1.5950   26.4240  -24.9260 C   0  0  0  0  0  0  0  0  0  0  0  0
   -0.3350   26.0360  -24.4670 C   0  0  0  0  0  0  0  0  0  0  0  0
    0.5700   25.4210  -25.3410 C   0  0  0  0  0  0  0  0  0  0  0  0
    1.8710   25.0220  -24.8680 C   0  0  0  0  0  0  0  0  0  0  0  0
    2.9150   24.6990  -24.4880 N   0  0  0  0  0  0  0  0  0  0  0  0
    0.2140   25.2040  -26.6780 C   0  0  0  0  0  0  0  0  0  0  0  0
   -4.6360   22.9010  -30.3860 S   0  0  0  0  0  0  0  0  0  0  0  0
   -8.5910   22.2080  -31.2780 C   0  0  0  0  0  0  0  0  0  0  0  0
   -9.1670   20.9370  -31.3720 C   0  0  0  0  0  0  0  0  0  0  0  0
   -9.2896   18.1661  -31.1641 H   0  0  0  0  0  0  0  0  0  0  0  0
  -10.0821   18.5960  -32.7177 H   0  0  0  0  0  0  0  0  0  0  0  0
   -8.4336   17.8827  -32.7177 H   0  0  0  0  0  0  0  0  0  0  0  0
   -6.7627   19.3901  -33.2503 H   0  0  0  0  0  0  0  0  0  0  0  0
   -5.7332   21.6533  -33.0720 H   0  0  0  0  0  0  0  0  0  0  0  0
   -2.9497   26.5056  -26.6137 H   0  0  0  0  0  0  0  0  0  0  0  0
   -2.3053   26.9072  -24.2390 H   0  0  0  0  0  0  0  0  0  0  0  0
   -0.0530   26.2134  -23.4187 H   0  0  0  0  0  0  0  0  0  0  0  0
    0.9306   24.7335  -27.3673 H   0  0  0  0  0  0  0  0  0  0  0  0
   -9.0938   22.9950  -30.6968 H   0  0  0  0  0  0  0  0  0  0  0  0
  -10.1238   20.7299  -30.8704 H   0  0  0  0  0  0  0  0  0  0  0  0
  1  2  1  0
  2  3  2  0
  3  4  1  0
  4  5  2  0
  5  6  1  0
  6  7  2  3
  7  8  1  0
  8  9  1  0
  9 10  2  0
 10 11  1  0
 11 12  2  0
 11 13  2  0
 11 14  1  0
 14 15  1  0
 15 16  2  0
 16 17  1  0
 17 18  2  0
 18 19  1  0
 19 20  1  0
 20 21  3  0
 19 22  2  0
 10 23  1  0
  5 24  1  0
 24 25  2  0
 25  2  1  0
 23  7  1  0
 22 15  1  0
  1 26  1  0
  1 27  1  0
  1 28  1  0
  3 29  1  0
  4 30  1  0
 16 31  1  0
 17 32  1  0
 18 33  1  0
 22 34  1  0
 24 35  1  0
 25 36  1  0
M  CHG  2   8  -1  14  -1
M  END
>  <UniqueID>  (6) 
6

>  <SMILES>  (6) 
Cc1ccc(N=c2[n-]nc(S(=O)(=O)[N-]c3cccc(C#N)c3)s2)cc1

>  <Energy>  (6) 
81.29557898699947

>  <Genealogy>  (6) 
Cc1ccc(N=c2[n-]nc(S(=O)(=O)[N-]c3cccc(C#N)c3)s2)cc1 (protonated)
Cc1ccc(N=c2[n-]nc(S(=O)(=O)[N-]c3cccc(C#N)c3)s2)cc1 (3D coordinates assigned)
Cc1ccc(N=c2[n-]nc(S(=O)(=O)[N-]c3cccc(C#N)c3)s2)cc1 (optimized conformer: 81.29557898699947 kcal/mol)

>  <smiles>  (6) 
Cc1ccc(N=c2[nH]nc(S(=O)(=O)Nc3cccc(C#N)c3)s2)cc1

>  <score_type>  (6) 
oracle

>  <origin>  (6) 
adgpu

>  <m_score__min__energy>  (6) 
-11.4

>  <m_primary>  (6) 
energy

$$$$
6:0
     RDKit          3D

 47 49  0  0  0  0  0  0  0  0999 V2000
   -6.4800   25.8600  -28.9730 C   0  0  0  0  0  0  0  0  0  0  0  0
   -6.2460   25.6880  -30.3670 O   0  0  0  0  0  0  0  0  0  0  0  0
   -6.0210   24.4500  -30.9910 C   0  0  0  0  0  0  0  0  0  0  0  0
   -7.0730   23.6870  -31.5370 C   0  0  0  0  0  0  0  0  0  0  0  0
   -6.8130   22.4630  -32.1580 C   0  0  0  0  0  0  0  0  0  0  0  0
   -5.5010   21.9670  -32.2270 C   0  0  0  0  0  0  0  0  0  0  0  0
   -5.1960   20.6900  -32.9120 C   0  0  0  0  0  0  0  0  0  0  0  0
   -6.0960   19.7300  -33.3350 C   0  0  0  0  0  0  0  0  0  0  0  0
   -5.2960   18.7800  -33.9350 C   0  0  0  0  0  0  0  0  0  0  0  0
   -5.7630   17.5050  -34.5510 C   0  0  0  0  0  0  0  0  0  0  0  0
   -4.0050   19.1510  -33.8550 N   0  0  0  0  0  0  0  0  0  0  0  0
   -3.9830   20.3000  -33.2420 O   0  0  0  0  0  0  0  0  0  0  0  0
   -4.4560   22.7180  -31.6600 C   0  0  0  0  0  0  0  0  0  0  0  0
   -4.7050   23.9720  -31.0760 C   0  0  0  0  0  0  0  0  0  0  0  0
   -3.6410   24.7980  -30.5910 N   0  0  0  0  0  0  0  0  0  0  0  0
   -2.7540   24.5380  -29.1190 S   0  0  0  0  0  0  0  0  0  0  0  0
   -1.7820   25.6650  -28.9210 O   0  0  0  0  0  0  0  0  0  0  0  0
   -3.7180   24.5070  -27.9690 O   0  0  0  0  0  0  0  0  0  0  0  0
   -1.8510   23.0270  -29.2110 C   0  0  0  0  0  0  0  0  0  0  0  0
   -1.4410   22.3860  -28.0370 C   0  0  0  0  0  0  0  0  0  0  0  0
   -0.6450   21.2390  -28.1010 C   0  0  0  0  0  0  0  0  0  0  0  0
   -0.2460   20.7190  -29.3470 C   0  0  0  0  0  0  0  0  0  0  0  0
    0.5790   19.5880  -29.4540 O   0  0  0  0  0  0  0  0  0  0  0  0
    0.1730   18.3440  -30.0220 C   0  0  0  0  0  0  0  0  0  0  0  0
   -0.6730   21.3450  -30.5300 C   0  0  0  0  0  0  0  0  0  0  0  0
   -0.2630   20.8010  -31.7590 O   0  0  0  0  0  0  0  0  0  0  0  0
   -0.9700   20.9520  -32.9840 C   0  0  0  0  0  0  0  0  0  0  0  0
   -1.4790   22.4990  -30.4550 C   0  0  0  0  0  0  0  0  0  0  0  0
   -5.7222   25.3030  -28.4025 H   0  0  0  0  0  0  0  0  0  0  0  0
   -6.4174   26.9286  -28.7198 H   0  0  0  0  0  0  0  0  0  0  0  0
   -7.4812   25.4813  -28.7198 H   0  0  0  0  0  0  0  0  0  0  0  0
   -8.1065   24.0582  -31.4736 H   0  0  0  0  0  0  0  0  0  0  0  0
   -7.6403   21.8847  -32.5952 H   0  0  0  0  0  0  0  0  0  0  0  0
   -7.1900   19.7249  -33.2204 H   0  0  0  0  0  0  0  0  0  0  0  0
   -6.0252   16.7891  -33.7580 H   0  0  0  0  0  0  0  0  0  0  0  0
   -6.6475   17.7015  -35.1747 H   0  0  0  0  0  0  0  0  0  0  0  0
   -4.9608   17.0837  -35.1747 H   0  0  0  0  0  0  0  0  0  0  0  0
   -3.4310   22.3191  -31.6737 H   0  0  0  0  0  0  0  0  0  0  0  0
   -1.7465   22.7866  -27.0591 H   0  0  0  0  0  0  0  0  0  0  0  0
   -0.3286   20.7400  -27.1731 H   0  0  0  0  0  0  0  0  0  0  0  0
   -0.0595   17.6317  -29.2167 H   0  0  0  0  0  0  0  0  0  0  0  0
   -0.7211   18.4992  -30.6437 H   0  0  0  0  0  0  0  0  0  0  0  0
    0.9865   17.9419  -30.6437 H   0  0  0  0  0  0  0  0  0  0  0  0
   -2.0257   21.1775  -32.7727 H   0  0  0  0  0  0  0  0  0  0  0  0
   -0.5279   21.7760  -33.5633 H   0  0  0  0  0  0  0  0  0  0  0  0
   -0.9031   20.0193  -33.5633 H   0  0  0  0  0  0  0  0  0  0  0  0
   -1.8185   22.9888  -31.3796 H   0  0  0  0  0  0  0  0  0  0  0  0
  1  2  1  0
  2  3  1  0
  3  4  2  0
  4  5  1  0
  5  6  2  0
  6  7  1  0
  7  8  2  0
  8  9  1  0
  9 10  1  0
  9 11  2  0
 11 12  1  0
  6 13  1  0
 13 14  2  0
 14 15  1  0
 15 16  1  0
 16 17  2  0
 16 18  2  0
 16 19  1  0
 19 20  2  0
 20 21  1  0
 21 22  2  0
 22 23  1  0
 23 24  1  0
 22 25  1  0
 25 26  1  0
 26 27  1  0
 25 28  2  0
 14  3  1  0
 28 19  1  0
 12  7  1  0
  1 29  1  0
  1 30  1  0
  1 31  1  0
  4 32  1  0
  5 33  1  0
  8 34  1  0
 10 35  1  0
 10 36  1  0
 10 37  1  0
 13 38  1  0
 20 39  1  0
 21 40  1  0
 24 41  1  0
 24 42  1  0
 24 43  1  0
 27 44  1  0
 27 45  1  0
 27 46  1  0
 28 47  1  0
M  CHG  1  15  -1
M  END
>  <UniqueID>  (7) 
7

>  <SMILES>  (7) 
COc1ccc(-c2cc(C)no2)cc1[N-]S(=O)(=O)c1ccc(OC)c(OC)c1

>  <Energy>  (7) 
80.65874612258942

>  <Genealogy>  (7) 
COc1ccc(-c2cc(C)no2)cc1[N-]S(=O)(=O)c1ccc(OC)c(OC)c1 (protonated)
COc1ccc(-c2cc(C)no2)cc1[N-]S(=O)(=O)c1ccc(OC)c(OC)c1 (3D coordinates assigned)
COc1ccc(-c2cc(C)no2)cc1[N-]S(=O)(=O)c1ccc(OC)c(OC)c1 (optimized conformer: 80.65874612258942 kcal/mol)

>  <smiles>  (7) 
COc1ccc(-c2cc(C)no2)cc1NS(=O)(=O)c1ccc(OC)c(OC)c1

>  <score_type>  (7) 
oracle

>  <origin>  (7) 
adgpu

>  <m_score__min__energy>  (7) 
-9.4199999999999999

>  <m_primary>  (7) 
energy

$$$$
7:0
     RDKit          3D

 49 52  0  0  1  0  0  0  0  0999 V2000
   -2.5660   20.5540  -27.2180 C   0  0  0  0  0  0  0  0  0  0  0  0
   -1.5300   20.2570  -28.2600 C   0  0  0  0  0  0  0  0  0  0  0  0
   -0.4320   19.4700  -27.9560 C   0  0  0  0  0  0  0  0  0  0  0  0
    0.5090   19.2080  -28.9190 C   0  0  0  0  0  0  0  0  0  0  0  0
    0.3740   19.7230  -30.2080 C   0  0  0  0  0  0  0  0  0  0  0  0
   -0.7340   20.5190  -30.5190 C   0  0  0  0  0  0  0  0  0  0  0  0
   -0.9410   21.1890  -32.1360 Cl  0  0  0  0  0  0  0  0  0  0  0  0
   -1.6860   20.7810  -29.5300 C   0  0  0  0  0  0  0  0  0  0  0  0
   -2.7860   21.5930  -29.9090 N   0  0  0  0  0  0  0  0  0  0  0  0
   -2.7800   23.0120  -29.8250 C   0  0  0  0  0  0  0  0  0  0  0  0
   -1.7390   23.5780  -29.3920 O   0  0  0  0  0  0  0  0  0  0  0  0
   -3.9160   23.8370  -30.2160 C   0  0  0  0  0  0  0  0  0  0  0  0
   -5.0270   23.2090  -30.7190 C   0  0  0  0  0  0  0  0  0  0  0  0
   -6.0960   23.9750  -31.0870 C   0  0  0  0  0  0  0  0  0  0  0  0
   -7.1650   23.4550  -31.5640 N   0  0  0  0  0  0  0  0  0  0  0  0
   -7.3240   22.0530  -31.7470 C   0  0  0  0  0  0  0  0  0  0  0  0
   -6.5310   21.4810  -32.7460 C   0  0  0  0  0  0  0  0  0  0  0  0
   -6.6140   20.1270  -32.9990 C   0  0  0  0  0  0  0  0  0  0  0  0
   -7.4880   19.3580  -32.2500 C   0  0  0  0  0  0  0  0  0  0  0  0
   -7.5710   17.5940  -32.6070 S   0  0  0  0  0  0  0  0  0  0  0  0
   -6.0470   17.0620  -33.4130 C   0  0  0  0  0  0  0  0  0  0  0  0
   -5.2980   16.0090  -32.9100 C   0  0  0  0  0  0  0  0  0  0  0  0
   -4.1460   15.6850  -33.6080 C   0  0  0  0  0  0  0  0  0  0  0  0
   -3.7740   16.3800  -34.7410 C   0  0  0  0  0  0  0  0  0  0  0  0
   -4.5450   17.4210  -35.2100 C   0  0  0  0  0  0  0  0  0  0  0  0
   -5.6610   17.7300  -34.5280 N   0  0  0  0  0  0  0  0  0  0  0  0
   -8.2600   19.9400  -31.2710 C   0  0  0  0  0  0  0  0  0  0  0  0
   -8.2000   21.2970  -30.9940 C   0  0  0  0  0  0  0  0  0  0  0  0
   -6.0710   25.3180  -30.9630 N   0  0  0  0  0  0  0  0  0  0  0  0
   -4.9860   25.9280  -30.4720 C   0  0  0  0  0  0  0  0  0  0  0  0
   -3.9270   25.1580  -30.1090 N   0  0  0  0  0  0  0  0  0  0  0  0
   -2.1264   20.4280  -26.2175 H   0  0  0  0  0  0  0  0  0  0  0  0
   -2.9184   21.5893  -27.3359 H   0  0  0  0  0  0  0  0  0  0  0  0
   -3.4134   19.8626  -27.3359 H   0  0  0  0  0  0  0  0  0  0  0  0
   -0.3146   19.0556  -26.9438 H   0  0  0  0  0  0  0  0  0  0  0  0
    1.3806   18.5842  -28.6716 H   0  0  0  0  0  0  0  0  0  0  0  0
    1.1326   19.5052  -30.9742 H   0  0  0  0  0  0  0  0  0  0  0  0
   -3.6320   21.0960  -30.2630 H   0  0  0  0  0  0  0  0  0  0  0  0
   -5.0561   22.1144  -30.8235 H   0  0  0  0  0  0  0  0  0  0  0  0
   -5.8419   22.1092  -33.3295 H   0  0  0  0  0  0  0  0  0  0  0  0
   -5.9956   19.6661  -33.7833 H   0  0  0  0  0  0  0  0  0  0  0  0
   -5.6020   15.4608  -32.0061 H   0  0  0  0  0  0  0  0  0  0  0  0
   -3.5151   14.8572  -33.2521 H   0  0  0  0  0  0  0  0  0  0  0  0
   -2.8536   16.1002  -35.2744 H   0  0  0  0  0  0  0  0  0  0  0  0
   -4.2568   17.9804  -36.1123 H   0  0  0  0  0  0  0  0  0  0  0  0
   -8.9471   19.3080  -30.6892 H   0  0  0  0  0  0  0  0  0  0  0  0
   -8.8227   21.7512  -30.2091 H   0  0  0  0  0  0  0  0  0  0  0  0
   -4.9523   27.0223  -30.3652 H   0  0  0  0  0  0  0  0  0  0  0  0
   -3.1060   25.6710  -29.7320 H   0  0  0  0  0  0  0  0  0  0  0  0
  1  2  1  0
  2  3  2  0
  3  4  1  0
  4  5  2  0
  5  6  1  0
  6  7  1  0
  6  8  2  0
  8  9  1  0
  9 10  1  0
 10 11  2  0
 10 12  1  0
 12 13  2  0
 13 14  1  0
 14 15  2  0
 15 16  1  0
 16 17  2  0
 17 18  1  0
 18 19  2  0
 19 20  1  0
 20 21  1  0
 21 22  2  0
 22 23  1  0
 23 24  2  0
 24 25  1  0
 25 26  2  0
 19 27  1  0
 27 28  2  0
 14 29  1  0
 29 30  2  0
 30 31  1  0
  8  2  1  0
 31 12  1  0
 28 16  1  0
 26 21  1  0
  1 32  1  0
  1 33  1  0
  1 34  1  0
  3 35  1  0
  4 36  1  0
  5 37  1  0
  9 38  1  0
 13 39  1  0
 17 40  1  0
 18 41  1  0
 22 42  1  0
 23 43  1  0
 24 44  1  0
 25 45  1  0
 27 46  1  0
 28 47  1  0
 30 48  1  0
 31 49  1  0
M  END
>  <smiles>  (8) 
Cc1cccc(Cl)c1NC(=O)c1cc(=Nc2ccc(Sc3ccccn3)cc2)nc[nH]1

>  <score_type>  (8) 
oracle

>  <origin>  (8) 
adgpu

>  <m_score__min__energy>  (8) 
-9.8300000000000001

>  <m_primary>  (8) 
energy

$$$$
8:0
     RDKit          3D

 47 50  0  0  0  0  0  0  0  0999 V2000
   -0.5350   25.2650  -25.6650 N   0  0  0  0  0  0  0  0  0  0  0  0
   -1.2080   25.0940  -26.5900 C   0  0  0  0  0  0  0  0  0  0  0  0
   -2.0450   24.8840  -27.7380 C   0  0  0  0  0  0  0  0  0  0  0  0
   -3.2650   24.2450  -27.7390 C   0  0  0  0  0  0  0  0  0  0  0  0
   -3.6540   24.3030  -29.0660 C   0  0  0  0  0  0  0  0  0  0  0  0
   -4.9000   23.7690  -29.6640 C   0  0  0  0  0  0  0  0  0  0  0  0
   -5.9970   24.6040  -29.9400 C   0  0  0  0  0  0  0  0  0  0  0  0
   -7.1620   24.0780  -30.5060 C   0  0  0  0  0  0  0  0  0  0  0  0
   -7.2490   22.7130  -30.8020 C   0  0  0  0  0  0  0  0  0  0  0  0
   -8.7130   22.0680  -31.5430 S   0  0  0  0  0  0  0  0  0  0  0  0
   -9.4110   23.1800  -32.2780 O   0  0  0  0  0  0  0  0  0  0  0  0
   -9.6380   21.5450  -30.4780 O   0  0  0  0  0  0  0  0  0  0  0  0
   -8.3040   20.7860  -32.6590 N   0  0  0  0  0  0  0  0  0  0  0  0
   -6.9280   20.9930  -33.1700 C   0  0  0  0  0  0  0  0  0  0  0  0
   -6.3280   19.7060  -33.7440 C   0  0  0  0  0  0  0  0  0  0  0  0
   -6.3170   18.6520  -32.7200 N   0  0  0  0  0  0  0  0  0  0  0  0
   -5.3700   17.5630  -32.8010 C   0  0  0  0  0  0  0  0  0  0  0  0
   -5.6620   16.3150  -32.2180 C   0  0  0  0  0  0  0  0  0  0  0  0
   -4.7450   15.2630  -32.3000 C   0  0  0  0  0  0  0  0  0  0  0  0
   -3.5300   15.4410  -32.9630 C   0  0  0  0  0  0  0  0  0  0  0  0
   -3.2280   16.6730  -33.5470 C   0  0  0  0  0  0  0  0  0  0  0  0
   -4.1410   17.7300  -33.4670 C   0  0  0  0  0  0  0  0  0  0  0  0
   -7.2500   18.7550  -31.5900 C   0  0  0  0  0  0  0  0  0  0  0  0
   -8.5410   19.4550  -32.0370 C   0  0  0  0  0  0  0  0  0  0  0  0
   -6.1570   21.8770  -30.5360 C   0  0  0  0  0  0  0  0  0  0  0  0
   -4.9920   22.4000  -29.9690 C   0  0  0  0  0  0  0  0  0  0  0  0
   -2.7180   24.9260  -29.7480 O   0  0  0  0  0  0  0  0  0  0  0  0
   -1.7330   25.2910  -28.9800 N   0  0  0  0  0  0  0  0  0  0  0  0
   -3.8012   23.7965  -26.8897 H   0  0  0  0  0  0  0  0  0  0  0  0
   -5.9382   25.6779  -29.7091 H   0  0  0  0  0  0  0  0  0  0  0  0
   -8.0141   24.7400  -30.7197 H   0  0  0  0  0  0  0  0  0  0  0  0
   -8.9620   20.8820  -33.4690 H   0  0  0  0  0  0  0  0  0  0  0  0
   -6.9545   21.7561  -33.9618 H   0  0  0  0  0  0  0  0  0  0  0  0
   -6.2981   21.3146  -32.3275 H   0  0  0  0  0  0  0  0  0  0  0  0
   -6.9322   19.3739  -34.6011 H   0  0  0  0  0  0  0  0  0  0  0  0
   -5.2954   19.9038  -34.0674 H   0  0  0  0  0  0  0  0  0  0  0  0
   -6.6180   16.1668  -31.6945 H   0  0  0  0  0  0  0  0  0  0  0  0
   -4.9819   14.2920  -31.8405 H   0  0  0  0  0  0  0  0  0  0  0  0
   -2.8105   14.6113  -33.0256 H   0  0  0  0  0  0  0  0  0  0  0  0
   -2.2708   16.8126  -34.0707 H   0  0  0  0  0  0  0  0  0  0  0  0
   -3.8968   18.6985  -33.9278 H   0  0  0  0  0  0  0  0  0  0  0  0
   -7.4908   17.7462  -31.2234 H   0  0  0  0  0  0  0  0  0  0  0  0
   -6.7807   19.3419  -30.7867 H   0  0  0  0  0  0  0  0  0  0  0  0
   -9.0505   18.8127  -32.7704 H   0  0  0  0  0  0  0  0  0  0  0  0
   -9.1506   19.6202  -31.1364 H   0  0  0  0  0  0  0  0  0  0  0  0
   -6.2169   20.8048  -30.7744 H   0  0  0  0  0  0  0  0  0  0  0  0
   -4.1407   21.7356  -29.7598 H   0  0  0  0  0  0  0  0  0  0  0  0
  1  2  3  0
  2  3  1  0
  3  4  1  0
  4  5  2  0
  5  6  1  0
  6  7  2  0
  7  8  1  0
  8  9  2  0
  9 10  1  0
 10 11  2  0
 10 12  2  0
 10 13  1  0
 13 14  1  0
 14 15  1  0
 15 16  1  0
 16 17  1  0
 17 18  2  0
 18 19  1  0
 19 20  2  0
 20 21  1  0
 21 22  2  0
 16 23  1  0
 23 24  1  0
  9 25  1  0
 25 26  2  0
  5 27  1  0
 27 28  1  0
 28  3  2  0
 26  6  1  0
 24 13  1  0
 22 17  1  0
  4 29  1  0
  7 30  1  0
  8 31  1  0
 13 32  1  0
 14 33  1  0
 14 34  1  0
 15 35  1  0
 15 36  1  0
 18 37  1  0
 19 38  1  0
 20 39  1  0
 21 40  1  0
 22 41  1  0
 23 42  1  0
 23 43  1  0
 24 44  1  0
 24 45  1  0
 25 46  1  0
 26 47  1  0
M  CHG  1  13   1
M  END
>  <UniqueID>  (9) 
8

>  <SMILES>  (9) 
N#Cc1cc(-c2ccc(S(=O)(=O)[NH+]3CCN(c4ccccc4)CC3)cc2)on1

>  <Energy>  (9) 
89.27055761610455

>  <Genealogy>  (9) 
N#Cc1cc(-c2ccc(S(=O)(=O)[NH+]3CCN(c4ccccc4)CC3)cc2)on1 (protonated)
N#Cc1cc(-c2ccc(S(=O)(=O)[NH+]3CCN(c4ccccc4)CC3)cc2)on1 (3D coordinates assigned)
N#Cc1cc(-c2ccc(S(=O)(=O)[NH+]3CCN(c4ccccc4)CC3)cc2)on1 (nonaromatic ring conformer: 89.27055761610455 kcal/mol)

>  <smiles>  (9) 
N#Cc1cc(-c2ccc(S(=O)(=O)N3CCN(c4ccccc4)CC3)cc2)on1

>  <score_type>  (9) 
oracle

>  <origin>  (9) 
adgpu

>  <m_score__min__energy>  (9) 
-9.2799999999999994

>  <m_primary>  (9) 
energy

$$$$
9:0
     RDKit          3D

 49 50  0  0  0  0  0  0  0  0999 V2000
   -2.5150   19.9740  -27.0800 C   0  0  0  0  0  0  0  0  0  0  0  0
   -1.7500   21.2900  -26.9720 C   0  0  0  0  0  0  0  0  0  0  0  0
   -1.1380   21.6910  -28.3190 C   0  0  0  0  0  0  0  0  0  0  0  0
   -2.0100   22.6610  -29.0140 N   0  0  0  0  0  0  0  0  0  0  0  0
   -3.0360   22.2430  -29.8390 C   0  0  0  0  0  0  0  0  0  0  0  0
   -3.3290   20.8440  -30.0210 N   0  0  0  0  0  0  0  0  0  0  0  0
   -3.8340   23.2000  -30.4990 C   0  0  0  0  0  0  0  0  0  0  0  0
   -4.9180   22.7980  -31.3560 N   0  0  0  0  0  0  0  0  0  0  0  0
   -4.6150   22.4570  -32.7530 C   0  0  0  0  0  0  0  0  0  0  0  0
   -3.8880   21.1180  -32.8350 C   0  0  0  0  0  0  0  0  0  0  0  0
   -6.2690   22.8360  -30.8440 C   0  0  0  0  0  0  0  0  0  0  0  0
   -6.4700   22.7170  -29.6050 O   0  0  0  0  0  0  0  0  0  0  0  0
   -7.4630   22.9490  -31.7490 C   0  0  0  0  0  0  0  0  0  0  0  0
   -8.8070   21.8480  -31.1840 S   0  0  0  0  0  0  0  0  0  0  0  0
   -8.1130   20.3600  -31.9130 C   0  0  0  0  0  0  0  0  0  0  0  0
   -7.1770   20.4560  -32.9490 C   0  0  0  0  0  0  0  0  0  0  0  0
   -6.6400   19.2980  -33.5210 C   0  0  0  0  0  0  0  0  0  0  0  0
   -7.0320   18.0330  -33.0540 C   0  0  0  0  0  0  0  0  0  0  0  0
   -6.4890   16.7840  -33.6840 C   0  0  0  0  0  0  0  0  0  0  0  0
   -7.9830   17.9410  -32.0260 C   0  0  0  0  0  0  0  0  0  0  0  0
   -8.5210   19.1000  -31.4590 C   0  0  0  0  0  0  0  0  0  0  0  0
   -3.5810   24.5540  -30.2750 C   0  0  0  0  0  0  0  0  0  0  0  0
   -4.2740   25.4390  -30.8440 O   0  0  0  0  0  0  0  0  0  0  0  0
   -2.5890   24.9230  -29.4350 N   0  0  0  0  0  0  0  0  0  0  0  0
   -1.8160   24.0060  -28.8030 C   0  0  0  0  0  0  0  0  0  0  0  0
   -0.9180   24.4150  -28.0170 O   0  0  0  0  0  0  0  0  0  0  0  0
   -2.7357   19.5943  -26.0715 H   0  0  0  0  0  0  0  0  0  0  0  0
   -3.4569   20.1409  -27.6232 H   0  0  0  0  0  0  0  0  0  0  0  0
   -1.9039   19.2381  -27.6232 H   0  0  0  0  0  0  0  0  0  0  0  0
   -2.4410   22.0801  -26.6430 H   0  0  0  0  0  0  0  0  0  0  0  0
   -0.9345   21.1588  -26.2456 H   0  0  0  0  0  0  0  0  0  0  0  0
   -0.1523   22.1482  -28.1473 H   0  0  0  0  0  0  0  0  0  0  0  0
   -1.0346   20.7924  -28.9450 H   0  0  0  0  0  0  0  0  0  0  0  0
   -2.5680   20.1430  -30.1560 H   0  0  0  0  0  0  0  0  0  0  0  0
   -4.2970   20.4720  -30.1100 H   0  0  0  0  0  0  0  0  0  0  0  0
   -5.5547   22.3932  -33.3213 H   0  0  0  0  0  0  0  0  0  0  0  0
   -3.9663   23.2385  -33.1754 H   0  0  0  0  0  0  0  0  0  0  0  0
   -3.6867   20.7473  -31.8191 H   0  0  0  0  0  0  0  0  0  0  0  0
   -4.5159   20.3922  -33.3725 H   0  0  0  0  0  0  0  0  0  0  0  0
   -2.9373   21.2493  -33.3725 H   0  0  0  0  0  0  0  0  0  0  0  0
   -7.8221   23.9887  -31.7451 H   0  0  0  0  0  0  0  0  0  0  0  0
   -7.1659   22.6520  -32.7656 H   0  0  0  0  0  0  0  0  0  0  0  0
   -6.8628   21.4448  -33.3144 H   0  0  0  0  0  0  0  0  0  0  0  0
   -5.9087   19.3784  -34.3388 H   0  0  0  0  0  0  0  0  0  0  0  0
   -6.1827   16.0795  -32.8967 H   0  0  0  0  0  0  0  0  0  0  0  0
   -7.2668   16.3204  -34.3086 H   0  0  0  0  0  0  0  0  0  0  0  0
   -5.6194   17.0365  -34.3086 H   0  0  0  0  0  0  0  0  0  0  0  0
   -8.3062   16.9534  -31.6652 H   0  0  0  0  0  0  0  0  0  0  0  0
   -9.2667   19.0218  -30.6542 H   0  0  0  0  0  0  0  0  0  0  0  0
  1  2  1  0
  2  3  1  0
  3  4  1  0
  4  5  1  0
  5  6  1  0
  5  7  2  0
  7  8  1  0
  8  9  1  0
  9 10  1  0
  8 11  1  0
 11 12  2  0
 11 13  1  0
 13 14  1  0
 14 15  1  0
 15 16  2  0
 16 17  1  0
 17 18  2  0
 18 19  1  0
 18 20  1  0
 20 21  2  0
  7 22  1  0
 22 23  2  0
 22 24  1  0
 24 25  1  0
 25 26  2  0
 25  4  1  0
 21 15  1  0
  1 27  1  0
  1 28  1  0
  1 29  1  0
  2 30  1  0
  2 31  1  0
  3 32  1  0
  3 33  1  0
  6 34  1  0
  6 35  1  0
  9 36  1  0
  9 37  1  0
 10 38  1  0
 10 39  1  0
 10 40  1  0
 13 41  1  0
 13 42  1  0
 16 43  1  0
 17 44  1  0
 19 45  1  0
 19 46  1  0
 19 47  1  0
 20 48  1  0
 21 49  1  0
M  CHG  1  24  -1
M  END
>  <UniqueID>  (10) 
9

>  <SMILES>  (10) 
CCCn1c(N)c(N(CC)C(=O)CSc2ccc(C)cc2)c(=O)[n-]c1=O

>  <Energy>  (10) 
48.37379149654635

>  <Genealogy>  (10) 
CCCn1c(N)c(N(CC)C(=O)CSc2ccc(C)cc2)c(=O)[n-]c1=O (protonated)
CCCn1c(N)c(N(CC)C(=O)CSc2ccc(C)cc2)c(=O)[n-]c1=O (3D coordinates assigned)
CCCn1c(N)c(N(CC)C(=O)CSc2ccc(C)cc2)c(=O)[n-]c1=O (optimized conformer: 48.37379149654635 kcal/mol)

>  <smiles>  (10) 
CCCn1c(N)c(N(CC)C(=O)CSc2ccc(C)cc2)c(=O)[nH]c1=O

>  <score_type>  (10) 
oracle

>  <origin>  (10) 
adgpu

>  <m_score__min__energy>  (10) 
-9.6799999999999997

>  <m_primary>  (10) 
energy

$$$$
10:0
     RDKit          3D

 71 75  0  0  0  0  0  0  0  0999 V2000
   -5.7360   24.9280  -29.7860 C   0  0  0  0  0  0  0  0  0  0  0  0
   -4.9400   24.5600  -28.5360 C   0  0  0  0  0  0  0  0  0  0  0  0
   -3.7100   23.8250  -28.8980 N   0  0  0  0  0  0  0  0  0  0  0  0
   -3.8170   22.8820  -29.8840 C   0  0  0  0  0  0  0  0  0  0  0  0
   -2.7250   22.1010  -30.2790 C   0  0  0  0  0  0  0  0  0  0  0  0
   -2.9220   21.0490  -31.3070 C   0  0  0  0  0  0  0  0  0  0  0  0
   -3.9530   21.0830  -32.0350 O   0  0  0  0  0  0  0  0  0  0  0  0
   -1.9970   19.9520  -31.4220 N   0  0  0  0  0  0  0  0  0  0  0  0
   -2.0510   18.9770  -32.4770 C   0  0  0  0  0  0  0  0  0  0  0  0
   -0.8600   18.4670  -32.9990 C   0  0  0  0  0  0  0  0  0  0  0  0
   -0.8840   17.5320  -34.0330 C   0  0  0  0  0  0  0  0  0  0  0  0
   -2.1020   17.0990  -34.5810 C   0  0  0  0  0  0  0  0  0  0  0  0
   -2.0660   16.0870  -35.6940 C   0  0  0  0  0  0  0  0  0  0  0  0
   -3.3190   17.6190  -34.0670 C   0  0  0  0  0  0  0  0  0  0  0  0
   -4.9180   17.1520  -34.7010 S   0  0  0  0  0  0  0  0  0  0  0  0
   -4.9840   17.4240  -36.1790 O   0  0  0  0  0  0  0  0  0  0  0  0
   -5.0780   15.6700  -34.5150 O   0  0  0  0  0  0  0  0  0  0  0  0
   -6.2450   17.9350  -33.8590 N   0  0  0  0  0  0  0  0  0  0  0  0
   -6.1680   19.4050  -33.9570 C   0  0  0  0  0  0  0  0  0  0  0  0
   -7.1210   20.0800  -32.9510 C   0  0  0  0  0  0  0  0  0  0  0  0
   -8.1430   19.1850  -32.5580 O   0  0  0  0  0  0  0  0  0  0  0  0
   -7.5910   18.1190  -31.8020 C   0  0  0  0  0  0  0  0  0  0  0  0
   -6.3360   17.5030  -32.4580 C   0  0  0  0  0  0  0  0  0  0  0  0
   -3.2750   18.5640  -33.0260 C   0  0  0  0  0  0  0  0  0  0  0  0
   -1.4760   22.3370  -29.6870 C   0  0  0  0  0  0  0  0  0  0  0  0
   -0.4640   21.6850  -30.0670 O   0  0  0  0  0  0  0  0  0  0  0  0
   -1.3480   23.3190  -28.6880 C   0  0  0  0  0  0  0  0  0  0  0  0
   -0.1040   23.5630  -28.0760 C   0  0  0  0  0  0  0  0  0  0  0  0
    0.0220   24.5270  -27.0790 C   0  0  0  0  0  0  0  0  0  0  0  0
    1.2250   24.7070  -26.4800 F   0  0  0  0  0  0  0  0  0  0  0  0
   -1.0900   25.2750  -26.6780 C   0  0  0  0  0  0  0  0  0  0  0  0
   -0.9790   26.2560  -25.6350 N   0  0  0  0  0  0  0  0  0  0  0  0
   -0.9680   27.6850  -25.9650 C   0  0  0  0  0  0  0  0  0  0  0  0
    0.2210   28.3970  -25.2890 C   0  0  0  0  0  0  0  0  0  0  0  0
    0.7340   27.6850  -24.1030 N   0  0  0  0  0  0  0  0  0  0  0  0
   -0.3280   26.9880  -23.3730 C   0  0  0  0  0  0  0  0  0  0  0  0
   -0.8600   25.8370  -24.2330 C   0  0  0  0  0  0  0  0  0  0  0  0
   -2.3300   25.0520  -27.2900 C   0  0  0  0  0  0  0  0  0  0  0  0
   -2.4890   24.0690  -28.2960 C   0  0  0  0  0  0  0  0  0  0  0  0
   -6.6978   25.3726  -29.4905 H   0  0  0  0  0  0  0  0  0  0  0  0
   -5.1649   25.6535  -30.3840 H   0  0  0  0  0  0  0  0  0  0  0  0
   -5.9187   24.0230  -30.3840 H   0  0  0  0  0  0  0  0  0  0  0  0
   -4.6661   25.4798  -27.9984 H   0  0  0  0  0  0  0  0  0  0  0  0
   -5.5621   23.9158  -27.8973 H   0  0  0  0  0  0  0  0  0  0  0  0
   -4.7878   22.7339  -30.3796 H   0  0  0  0  0  0  0  0  0  0  0  0
   -1.3770   19.7490  -30.6040 H   0  0  0  0  0  0  0  0  0  0  0  0
    0.1039   18.8055  -32.5913 H   0  0  0  0  0  0  0  0  0  0  0  0
    0.0620   17.1290  -34.4238 H   0  0  0  0  0  0  0  0  0  0  0  0
   -2.0300   15.0738  -35.2673 H   0  0  0  0  0  0  0  0  0  0  0  0
   -2.9684   16.1918  -36.3142 H   0  0  0  0  0  0  0  0  0  0  0  0
   -1.1733   16.2556  -36.3142 H   0  0  0  0  0  0  0  0  0  0  0  0
   -5.1372   19.7254  -33.7456 H   0  0  0  0  0  0  0  0  0  0  0  0
   -6.4654   19.7030  -34.9733 H   0  0  0  0  0  0  0  0  0  0  0  0
   -6.5499   20.3893  -32.0632 H   0  0  0  0  0  0  0  0  0  0  0  0
   -7.5813   20.9563  -33.4308 H   0  0  0  0  0  0  0  0  0  0  0  0
   -7.3159   18.4999  -30.8074 H   0  0  0  0  0  0  0  0  0  0  0  0
   -8.3533   17.3283  -31.7415 H   0  0  0  0  0  0  0  0  0  0  0  0
   -5.4393   17.8351  -31.9143 H   0  0  0  0  0  0  0  0  0  0  0  0
   -6.4071   16.4060  -32.4197 H   0  0  0  0  0  0  0  0  0  0  0  0
   -4.2135   18.9854  -32.6365 H   0  0  0  0  0  0  0  0  0  0  0  0
    0.7785   22.9857  -28.3889 H   0  0  0  0  0  0  0  0  0  0  0  0
   -0.8850   27.8021  -27.0556 H   0  0  0  0  0  0  0  0  0  0  0  0
   -1.9020   28.1371  -25.5998 H   0  0  0  0  0  0  0  0  0  0  0  0
    1.0364   28.4859  -26.0219 H   0  0  0  0  0  0  0  0  0  0  0  0
   -0.1402   29.3782  -24.9472 H   0  0  0  0  0  0  0  0  0  0  0  0
    1.1650   28.3890  -23.4600 H   0  0  0  0  0  0  0  0  0  0  0  0
    0.0750   26.5875  -22.4311 H   0  0  0  0  0  0  0  0  0  0  0  0
   -1.1448   27.6902  -23.1498 H   0  0  0  0  0  0  0  0  0  0  0  0
   -0.1669   24.9854  -24.1671 H   0  0  0  0  0  0  0  0  0  0  0  0
   -1.8541   25.5459  -23.8628 H   0  0  0  0  0  0  0  0  0  0  0  0
   -3.1983   25.6533  -26.9825 H   0  0  0  0  0  0  0  0  0  0  0  0
  1  2  1  0
  2  3  1  0
  3  4  1  0
  4  5  2  0
  5  6  1  0
  6  7  2  0
  6  8  1  0
  8  9  1  0
  9 10  2  0
 10 11  1  0
 11 12  2  0
 12 13  1  0
 12 14  1  0
 14 15  1  0
 15 16  2  0
 15 17  2  0
 15 18  1  0
 18 19  1  0
 19 20  1  0
 20 21  1  0
 21 22  1  0
 22 23  1  0
 14 24  2  0
  5 25  1  0
 25 26  2  0
 25 27  1  0
 27 28  2  0
 28 29  1  0
 29 30  1  0
 29 31  2  0
 31 32  1  0
 32 33  1  0
 33 34  1  0
 34 35  1  0
 35 36  1  0
 36 37  1  0
 31 38  1  0
 38 39  2  0
 39  3  1  0
 24  9  1  0
 39 27  1  0
 23 18  1  0
 37 32  1  0
  1 40  1  0
  1 41  1  0
  1 42  1  0
  2 43  1  0
  2 44  1  0
  4 45  1  0
  8 46  1  0
 10 47  1  0
 11 48  1  0
 13 49  1  0
 13 50  1  0
 13 51  1  0
 19 52  1  0
 19 53  1  0
 20 54  1  0
 20 55  1  0
 22 56  1  0
 22 57  1  0
 23 58  1  0
 23 59  1  0
 24 60  1  0
 28 61  1  0
 33 62  1  0
 33 63  1  0
 34 64  1  0
 34 65  1  0
 35 66  1  0
 36 67  1  0
 36 68  1  0
 37 69  1  0
 37 70  1  0
 38 71  1  0
M  END
>  <UniqueID>  (11) 
10

>  <SMILES>  (11) 
CCn1cc(C(=O)Nc2ccc(C)c(S(=O)(=O)N3CCOCC3)c2)c(=O)c2cc(F)c(N3CCNCC3)cc21

>  <Energy>  (11) 
111.06591712060246

>  <Genealogy>  (11) 
CCn1cc(C(=O)Nc2ccc(C)c(S(=O)(=O)N3CCOCC3)c2)c(=O)c2cc(F)c(N3CCNCC3)cc21 (3D coordinates assigned)
CCn1cc(C(=O)Nc2ccc(C)c(S(=O)(=O)N3CCOCC3)c2)c(=O)c2cc(F)c(N3CCNCC3)cc21 (nonaromatic ring conformer: 111.06591712060246 kcal/mol)

>  <smiles>  (11) 
CCn1cc(C(=O)Nc2ccc(C)c(S(=O)(=O)N3CCOCC3)c2)c(=O)c2cc(F)c(N3CCNCC3)cc21

>  <score_type>  (11) 
oracle

>  <origin>  (11) 
adgpu

>  <m_score__min__energy>  (11) 
-9.0299999999999994

>  <m_primary>  (11) 
energy

$$$$
11:0
     RDKit          3D

 46 49  0  0  0  0  0  0  0  0999 V2000
   -7.2470   25.5350  -29.5190 N   0  0  0  0  0  0  0  0  0  0  0  0
   -6.5240   24.8200  -30.0700 C   0  0  0  0  0  0  0  0  0  0  0  0
   -5.6260   23.9300  -30.7580 C   0  0  0  0  0  0  0  0  0  0  0  0
   -4.2540   24.0250  -30.7930 C   0  0  0  0  0  0  0  0  0  0  0  0
   -3.4890   25.0840  -30.2080 N   0  0  0  0  0  0  0  0  0  0  0  0
   -2.5840   24.9110  -29.1110 C   0  0  0  0  0  0  0  0  0  0  0  0
   -1.6030   25.6880  -28.9580 O   0  0  0  0  0  0  0  0  0  0  0  0
   -2.8080   23.7980  -28.1360 C   0  0  0  0  0  0  0  0  0  0  0  0
   -2.2200   22.5160  -28.6610 C   0  0  0  0  0  0  0  0  0  0  0  0
   -2.5570   21.2880  -28.0670 C   0  0  0  0  0  0  0  0  0  0  0  0
   -1.9790   20.1000  -28.5280 C   0  0  0  0  0  0  0  0  0  0  0  0
   -1.0580   20.1310  -29.5790 C   0  0  0  0  0  0  0  0  0  0  0  0
   -0.7160   21.3490  -30.1750 C   0  0  0  0  0  0  0  0  0  0  0  0
   -1.2910   22.5390  -29.7160 C   0  0  0  0  0  0  0  0  0  0  0  0
   -3.7400   23.0010  -31.4330 O   0  0  0  0  0  0  0  0  0  0  0  0
   -4.7210   22.2200  -31.8340 C   0  0  0  0  0  0  0  0  0  0  0  0
   -4.4850   20.9870  -32.6110 C   0  0  0  0  0  0  0  0  0  0  0  0
   -3.2080   20.4000  -32.6070 C   0  0  0  0  0  0  0  0  0  0  0  0
   -2.9590   19.2410  -33.3470 C   0  0  0  0  0  0  0  0  0  0  0  0
   -3.9740   18.6700  -34.1170 C   0  0  0  0  0  0  0  0  0  0  0  0
   -5.2420   19.2610  -34.1480 C   0  0  0  0  0  0  0  0  0  0  0  0
   -5.4980   20.4160  -33.4020 C   0  0  0  0  0  0  0  0  0  0  0  0
   -5.9430   22.7570  -31.4270 C   0  0  0  0  0  0  0  0  0  0  0  0
   -7.2900   22.1560  -31.5460 C   0  0  0  0  0  0  0  0  0  0  0  0
   -7.4940   20.8020  -31.2330 C   0  0  0  0  0  0  0  0  0  0  0  0
   -8.7650   20.2330  -31.3560 C   0  0  0  0  0  0  0  0  0  0  0  0
   -9.8410   21.0100  -31.7960 C   0  0  0  0  0  0  0  0  0  0  0  0
   -9.6460   22.3550  -32.1180 C   0  0  0  0  0  0  0  0  0  0  0  0
   -8.3770   22.9270  -31.9960 C   0  0  0  0  0  0  0  0  0  0  0  0
   -2.3283   24.0520  -27.1792 H   0  0  0  0  0  0  0  0  0  0  0  0
   -3.8899   23.6620  -27.9913 H   0  0  0  0  0  0  0  0  0  0  0  0
   -3.2778   21.2605  -27.2366 H   0  0  0  0  0  0  0  0  0  0  0  0
   -2.2497   19.1407  -28.0628 H   0  0  0  0  0  0  0  0  0  0  0  0
   -0.6018   19.1965  -29.9376 H   0  0  0  0  0  0  0  0  0  0  0  0
    0.0054   21.3714  -31.0051 H   0  0  0  0  0  0  0  0  0  0  0  0
   -1.0152   23.4963  -30.1824 H   0  0  0  0  0  0  0  0  0  0  0  0
   -2.3990   20.8560  -32.0174 H   0  0  0  0  0  0  0  0  0  0  0  0
   -1.9616   18.7778  -33.3228 H   0  0  0  0  0  0  0  0  0  0  0  0
   -3.7773   17.7571  -34.6983 H   0  0  0  0  0  0  0  0  0  0  0  0
   -6.0397   18.8159  -34.7608 H   0  0  0  0  0  0  0  0  0  0  0  0
   -6.4951   20.8794  -33.4341 H   0  0  0  0  0  0  0  0  0  0  0  0
   -6.6496   20.1864  -30.8894 H   0  0  0  0  0  0  0  0  0  0  0  0
   -8.9188   19.1728  -31.1064 H   0  0  0  0  0  0  0  0  0  0  0  0
  -10.8413   20.5619  -31.8886 H   0  0  0  0  0  0  0  0  0  0  0  0
  -10.4922   22.9645  -32.4680 H   0  0  0  0  0  0  0  0  0  0  0  0
   -8.2273   23.9860  -32.2533 H   0  0  0  0  0  0  0  0  0  0  0  0
  1  2  3  0
  2  3  1  0
  3  4  2  0
  4  5  1  0
  5  6  1  0
  6  7  2  0
  6  8  1  0
  8  9  1  0
  9 10  2  0
 10 11  1  0
 11 12  2  0
 12 13  1  0
 13 14  2  0
  4 15  1  0
 15 16  1  0
 16 17  1  0
 17 18  2  0
 18 19  1  0
 19 20  2  0
 20 21  1  0
 21 22  2  0
 16 23  2  0
 23 24  1  0
 24 25  2  0
 25 26  1  0
 26 27  2  0
 27 28  1  0
 28 29  2  0
 23  3  1  0
 29 24  1  0
 14  9  1  0
 22 17  1  0
  8 30  1  0
  8 31  1  0
 10 32  1  0
 11 33  1  0
 12 34  1  0
 13 35  1  0
 14 36  1  0
 18 37  1  0
 19 38  1  0
 20 39  1  0
 21 40  1  0
 22 41  1  0
 25 42  1  0
 26 43  1  0
 27 44  1  0
 28 45  1  0
 29 46  1  0
M  CHG  1   5  -1
M  END
>  <UniqueID>  (12) 
11

>  <SMILES>  (12) 
N#Cc1c([N-]C(=O)Cc2ccccc2)oc(-c2ccccc2)c1-c1ccccc1

>  <Energy>  (12) 
84.18376058733362

>  <Genealogy>  (12) 
N#Cc1c([N-]C(=O)Cc2ccccc2)oc(-c2ccccc2)c1-c1ccccc1 (protonated)
N#Cc1c([N-]C(=O)Cc2ccccc2)oc(-c2ccccc2)c1-c1ccccc1 (3D coordinates assigned)
N#Cc1c([N-]C(=O)Cc2ccccc2)oc(-c2ccccc2)c1-c1ccccc1 (optimized conformer: 84.18376058733362 kcal/mol)

>  <smiles>  (12) 
N#Cc1c(NC(=O)Cc2ccccc2)oc(-c2ccccc2)c1-c1ccccc1

>  <score_type>  (12) 
oracle

>  <origin>  (12) 
adgpu

>  <m_score__min__energy>  (12) 
-11.66

>  <m_primary>  (12) 
energy

$$$$
12:0
     RDKit          3D

 51 54  0  0  0  0  0  0  0  0999 V2000
   -0.5220   26.8610  -23.3820 C   0  0  0  0  0  0  0  0  0  0  0  0
    0.5350   27.8790  -23.7960 C   0  0  0  0  0  0  0  0  0  0  0  0
    0.8100   27.7820  -25.1940 O   0  0  0  0  0  0  0  0  0  0  0  0
    0.3080   26.7970  -26.0600 C   0  0  0  0  0  0  0  0  0  0  0  0
    0.7380   25.4570  -26.0250 C   0  0  0  0  0  0  0  0  0  0  0  0
    0.2030   24.5200  -26.9130 C   0  0  0  0  0  0  0  0  0  0  0  0
   -0.7670   24.9030  -27.8540 C   0  0  0  0  0  0  0  0  0  0  0  0
   -1.3190   23.9390  -28.7690 N   0  0  0  0  0  0  0  0  0  0  0  0
   -0.8780   22.6800  -28.9860 C   0  0  0  0  0  0  0  0  0  0  0  0
    0.2180   22.1150  -28.3430 O   0  0  0  0  0  0  0  0  0  0  0  0
   -1.6300   22.0420  -29.9510 C   0  0  0  0  0  0  0  0  0  0  0  0
   -2.5950   22.9590  -30.3340 C   0  0  0  0  0  0  0  0  0  0  0  0
   -3.5890   22.7600  -31.3550 N   0  0  0  0  0  0  0  0  0  0  0  0
   -4.9020   23.4090  -31.2150 C   0  0  0  0  0  0  0  0  0  0  0  0
   -5.8700   22.9590  -32.3160 C   0  0  0  0  0  0  0  0  0  0  0  0
   -5.7470   21.5100  -32.5250 N   0  0  0  0  0  0  0  0  0  0  0  0
   -6.9020   20.6530  -32.4450 C   0  0  0  0  0  0  0  0  0  0  0  0
   -6.7920   19.2810  -32.7310 C   0  0  0  0  0  0  0  0  0  0  0  0
   -7.9180   18.4530  -32.6650 C   0  0  0  0  0  0  0  0  0  0  0  0
   -9.1610   18.9870  -32.3170 C   0  0  0  0  0  0  0  0  0  0  0  0
   -9.2820   20.3510  -32.0390 C   0  0  0  0  0  0  0  0  0  0  0  0
   -8.1590   21.1830  -32.1030 C   0  0  0  0  0  0  0  0  0  0  0  0
   -4.4170   20.9170  -32.7500 C   0  0  0  0  0  0  0  0  0  0  0  0
   -3.3050   21.9520  -32.5480 C   0  0  0  0  0  0  0  0  0  0  0  0
   -2.3660   24.1130  -29.6030 C   0  0  0  0  0  0  0  0  0  0  0  0
   -3.0860   25.2980  -29.7130 O   0  0  0  0  0  0  0  0  0  0  0  0
   -1.1920   26.2400  -27.8890 C   0  0  0  0  0  0  0  0  0  0  0  0
   -0.6560   27.1760  -27.0010 C   0  0  0  0  0  0  0  0  0  0  0  0
   -0.5734   26.8115  -22.2843 H   0  0  0  0  0  0  0  0  0  0  0  0
   -1.5006   27.1654  -23.7815 H   0  0  0  0  0  0  0  0  0  0  0  0
   -0.2545   25.8716  -23.7815 H   0  0  0  0  0  0  0  0  0  0  0  0
    0.1694   28.8914  -23.5694 H   0  0  0  0  0  0  0  0  0  0  0  0
    1.4608   27.6736  -23.2387 H   0  0  0  0  0  0  0  0  0  0  0  0
    1.4994   25.1458  -25.2946 H   0  0  0  0  0  0  0  0  0  0  0  0
    0.5440   23.4749  -26.8748 H   0  0  0  0  0  0  0  0  0  0  0  0
   -1.4922   21.0205  -30.3352 H   0  0  0  0  0  0  0  0  0  0  0  0
   -5.3279   23.1469  -30.2352 H   0  0  0  0  0  0  0  0  0  0  0  0
   -4.7611   24.4965  -31.3017 H   0  0  0  0  0  0  0  0  0  0  0  0
   -6.9009   23.1985  -32.0162 H   0  0  0  0  0  0  0  0  0  0  0  0
   -5.6249   23.4830  -33.2516 H   0  0  0  0  0  0  0  0  0  0  0  0
   -5.8159   18.8563  -33.0080 H   0  0  0  0  0  0  0  0  0  0  0  0
   -7.8242   17.3798  -32.8875 H   0  0  0  0  0  0  0  0  0  0  0  0
  -10.0444   18.3338  -32.2618 H   0  0  0  0  0  0  0  0  0  0  0  0
  -10.2620   20.7714  -31.7693 H   0  0  0  0  0  0  0  0  0  0  0  0
   -8.2597   22.2564  -31.8849 H   0  0  0  0  0  0  0  0  0  0  0  0
   -4.2691   20.0891  -32.0410 H   0  0  0  0  0  0  0  0  0  0  0  0
   -4.3695   20.5540  -33.7873 H   0  0  0  0  0  0  0  0  0  0  0  0
   -2.3432   21.4342  -32.4180 H   0  0  0  0  0  0  0  0  0  0  0  0
   -3.2557   22.6091  -33.4288 H   0  0  0  0  0  0  0  0  0  0  0  0
   -1.9519   26.5530  -28.6202 H   0  0  0  0  0  0  0  0  0  0  0  0
   -0.9952   28.2216  -27.0419 H   0  0  0  0  0  0  0  0  0  0  0  0
  1  2  1  0
  2  3  1  0
  3  4  1  0
  4  5  2  0
  5  6  1  0
  6  7  2  0
  7  8  1  0
  8  9  1  0
  9 10  1  0
  9 11  2  0
 11 12  1  0
 12 13  1  0
 13 14  1  0
 14 15  1  0
 15 16  1  0
 16 17  1  0
 17 18  2  0
 18 19  1  0
 19 20  2  0
 20 21  1  0
 21 22  2  0
 16 23  1  0
 23 24  1  0
 12 25  2  0
 25 26  1  0
  7 27  1  0
 27 28  2  0
 28  4  1  0
 25  8  1  0
 24 13  1  0
 22 17  1  0
  1 29  1  0
  1 30  1  0
  1 31  1  0
  2 32  1  0
  2 33  1  0
  5 34  1  0
  6 35  1  0
 11 36  1  0
 14 37  1  0
 14 38  1  0
 15 39  1  0
 15 40  1  0
 18 41  1  0
 19 42  1  0
 20 43  1  0
 21 44  1  0
 22 45  1  0
 23 46  1  0
 23 47  1  0
 24 48  1  0
 24 49  1  0
 27 50  1  0
 28 51  1  0
M  CHG  2  10  -1  26  -1
M  END
>  <UniqueID>  (13) 
12

>  <SMILES>  (13) 
CCOc1ccc(-n2c([O-])cc(N3CCN(c4ccccc4)CC3)c2[O-])cc1

>  <Energy>  (13) 
95.01996137133138

>  <Genealogy>  (13) 
CCOc1ccc(-n2c([O-])cc(N3CCN(c4ccccc4)CC3)c2[O-])cc1 (protonated)
CCOc1ccc(-n2c([O-])cc(N3CCN(c4ccccc4)CC3)c2[O-])cc1 (3D coordinates assigned)
CCOc1ccc(-n2c([O-])cc(N3CCN(c4ccccc4)CC3)c2[O-])cc1 (nonaromatic ring conformer: 95.01996137133138 kcal/mol)

>  <smiles>  (13) 
CCOc1ccc(-n2c(O)cc(N3CCN(c4ccccc4)CC3)c2O)cc1

>  <score_type>  (13) 
oracle

>  <origin>  (13) 
adgpu

>  <m_score__min__energy>  (13) 
-11.25

>  <m_primary>  (13) 
energy

$$$$
13:0
     RDKit          3D

 59 63  0  0  0  0  0  0  0  0999 V2000
   -9.4820   21.8940  -31.2600 C   0  0  0  0  0  0  0  0  0  0  0  0
   -8.8280   20.5140  -31.1860 C   0  0  0  0  0  0  0  0  0  0  0  0
   -8.7490   19.8290  -32.5580 C   0  0  0  0  0  0  0  0  0  0  0  0
   -7.6540   20.4080  -33.4710 C   0  0  0  0  0  0  0  0  0  0  0  0
   -6.5670   21.0970  -32.6740 C   0  0  0  0  0  0  0  0  0  0  0  0
   -6.6600   22.4550  -32.5250 N   0  0  0  0  0  0  0  0  0  0  0  0
   -5.7040   23.1060  -31.8280 C   0  0  0  0  0  0  0  0  0  0  0  0
   -5.6150   24.3930  -31.6120 O   0  0  0  0  0  0  0  0  0  0  0  0
   -4.5460   24.6520  -30.9060 N   0  0  0  0  0  0  0  0  0  0  0  0
   -3.9260   23.4720  -30.6550 C   0  0  0  0  0  0  0  0  0  0  0  0
   -2.7040   23.3520  -29.8400 C   0  0  0  0  0  0  0  0  0  0  0  0
   -2.6290   23.9960  -28.5960 C   0  0  0  0  0  0  0  0  0  0  0  0
   -1.4930   23.8580  -27.7980 C   0  0  0  0  0  0  0  0  0  0  0  0
   -0.4100   23.0770  -28.2350 C   0  0  0  0  0  0  0  0  0  0  0  0
    0.7840   22.8780  -27.3540 C   0  0  0  0  0  0  0  0  0  0  0  0
   -0.4950   22.4060  -29.4620 C   0  0  0  0  0  0  0  0  0  0  0  0
   -1.6350   22.5420  -30.2580 C   0  0  0  0  0  0  0  0  0  0  0  0
   -4.6630   22.4620  -31.2550 C   0  0  0  0  0  0  0  0  0  0  0  0
   -4.5200   21.0910  -31.4210 C   0  0  0  0  0  0  0  0  0  0  0  0
   -3.5170   20.4890  -30.9520 O   0  0  0  0  0  0  0  0  0  0  0  0
   -5.4880   20.4120  -32.1260 N   0  0  0  0  0  0  0  0  0  0  0  0
   -5.3570   18.9870  -32.2630 C   0  0  0  0  0  0  0  0  0  0  0  0
   -4.4200   18.4470  -33.1570 C   0  0  0  0  0  0  0  0  0  0  0  0
   -4.2650   17.0620  -33.2560 C   0  0  0  0  0  0  0  0  0  0  0  0
   -5.0090   16.2010  -32.4250 C   0  0  0  0  0  0  0  0  0  0  0  0
   -4.8750   14.8050  -32.4780 O   0  0  0  0  0  0  0  0  0  0  0  0
   -3.6710   14.0950  -32.3640 C   0  0  0  0  0  0  0  0  0  0  0  0
   -2.6890   14.2720  -33.3480 C   0  0  0  0  0  0  0  0  0  0  0  0
   -1.4720   13.5860  -33.2670 C   0  0  0  0  0  0  0  0  0  0  0  0
   -1.2360   12.7020  -32.2080 C   0  0  0  0  0  0  0  0  0  0  0  0
   -2.2200   12.4920  -31.2410 C   0  0  0  0  0  0  0  0  0  0  0  0
   -3.4380   13.1750  -31.3220 C   0  0  0  0  0  0  0  0  0  0  0  0
   -5.9470   16.7490  -31.5400 C   0  0  0  0  0  0  0  0  0  0  0  0
   -6.1180   18.1320  -31.4560 C   0  0  0  0  0  0  0  0  0  0  0  0
   -9.6603   22.2703  -30.2419 H   0  0  0  0  0  0  0  0  0  0  0  0
   -8.8165   22.5869  -31.7957 H   0  0  0  0  0  0  0  0  0  0  0  0
  -10.4397   21.8176  -31.7957 H   0  0  0  0  0  0  0  0  0  0  0  0
   -7.8086   20.6271  -30.7885 H   0  0  0  0  0  0  0  0  0  0  0  0
   -9.4483   19.8837  -30.5318 H   0  0  0  0  0  0  0  0  0  0  0  0
   -8.5428   18.7598  -32.4020 H   0  0  0  0  0  0  0  0  0  0  0  0
   -9.7126   19.9991  -33.0605 H   0  0  0  0  0  0  0  0  0  0  0  0
   -7.2051   19.5893  -34.0526 H   0  0  0  0  0  0  0  0  0  0  0  0
   -8.1185   21.1534  -34.1333 H   0  0  0  0  0  0  0  0  0  0  0  0
   -3.4704   24.6131  -28.2479 H   0  0  0  0  0  0  0  0  0  0  0  0
   -1.4450   24.3631  -26.8220 H   0  0  0  0  0  0  0  0  0  0  0  0
    0.4744   22.9296  -26.2997 H   0  0  0  0  0  0  0  0  0  0  0  0
    1.2298   21.8932  -27.5575 H   0  0  0  0  0  0  0  0  0  0  0  0
    1.5251   23.6650  -27.5575 H   0  0  0  0  0  0  0  0  0  0  0  0
    0.3374   21.7709  -29.7992 H   0  0  0  0  0  0  0  0  0  0  0  0
   -1.6960   22.0108  -31.2193 H   0  0  0  0  0  0  0  0  0  0  0  0
   -3.8070   19.1146  -33.7804 H   0  0  0  0  0  0  0  0  0  0  0  0
   -3.5583   16.6415  -33.9866 H   0  0  0  0  0  0  0  0  0  0  0  0
   -2.8761   14.9549  -34.1898 H   0  0  0  0  0  0  0  0  0  0  0  0
   -0.7008   13.7416  -34.0358 H   0  0  0  0  0  0  0  0  0  0  0  0
   -0.2744   12.1725  -32.1378 H   0  0  0  0  0  0  0  0  0  0  0  0
   -2.0377   11.7891  -30.4148 H   0  0  0  0  0  0  0  0  0  0  0  0
   -4.2183   12.9931  -30.5683 H   0  0  0  0  0  0  0  0  0  0  0  0
   -6.5532   16.0845  -30.9067 H   0  0  0  0  0  0  0  0  0  0  0  0
   -6.8531   18.5517  -30.7535 H   0  0  0  0  0  0  0  0  0  0  0  0
  1  2  1  0
  2  3  1  0
  3  4  1  0
  4  5  1  0
  5  6  2  0
  6  7  1  0
  7  8  1  0
  8  9  1  0
  9 10  2  0
 10 11  1  0
 11 12  2  0
 12 13  1  0
 13 14  2  0
 14 15  1  0
 14 16  1  0
 16 17  2  0
 10 18  1  0
 18 19  1  0
 19 20  2  0
 19 21  1  0
 21 22  1  0
 22 23  2  0
 23 24  1  0
 24 25  2  0
 25 26  1  0
 26 27  1  0
 27 28  2  0
 28 29  1  0
 29 30  2  0
 30 31  1  0
 31 32  2  0
 25 33  1  0
 33 34  2  0
 21  5  1  0
 34 22  1  0
 18  7  2  0
 32 27  1  0
 17 11  1  0
  1 35  1  0
  1 36  1  0
  1 37  1  0
  2 38  1  0
  2 39  1  0
  3 40  1  0
  3 41  1  0
  4 42  1  0
  4 43  1  0
 12 44  1  0
 13 45  1  0
 15 46  1  0
 15 47  1  0
 15 48  1  0
 16 49  1  0
 17 50  1  0
 23 51  1  0
 24 52  1  0
 28 53  1  0
 29 54  1  0
 30 55  1  0
 31 56  1  0
 32 57  1  0
 33 58  1  0
 34 59  1  0
M  END
>  <UniqueID>  (14) 
13

>  <SMILES>  (14) 
CCCCc1nc2onc(-c3ccc(C)cc3)c2c(=O)n1-c1ccc(Oc2ccccc2)cc1

>  <Energy>  (14) 
123.4392676264911

>  <Genealogy>  (14) 
CCCCc1nc2onc(-c3ccc(C)cc3)c2c(=O)n1-c1ccc(Oc2ccccc2)cc1 (3D coordinates assigned)
CCCCc1nc2onc(-c3ccc(C)cc3)c2c(=O)n1-c1ccc(Oc2ccccc2)cc1 (optimized conformer: 123.4392676264911 kcal/mol)

>  <smiles>  (14) 
CCCCc1nc2onc(-c3ccc(C)cc3)c2c(=O)n1-c1ccc(Oc2ccccc2)cc1

>  <score_type>  (14) 
oracle

>  <origin>  (14) 
adgpu

>  <m_score__min__energy>  (14) 
-10.130000000000001

>  <m_primary>  (14) 
energy

$$$$
14:0
     RDKit          3D

 41 43  0  0  0  0  0  0  0  0999 V2000
   -8.7410   20.0430  -32.8840 N   0  0  0  0  0  0  0  0  0  0  0  0
   -7.9220   21.0650  -32.3020 C   0  0  0  0  0  0  0  0  0  0  0  0
   -8.4960   22.3080  -31.9950 C   0  0  0  0  0  0  0  0  0  0  0  0
   -7.7460   23.2970  -31.3540 C   0  0  0  0  0  0  0  0  0  0  0  0
   -6.4110   23.0540  -31.0080 C   0  0  0  0  0  0  0  0  0  0  0  0
   -5.4680   24.2790  -30.1600 S   0  0  0  0  0  0  0  0  0  0  0  0
   -4.6120   25.0050  -31.1600 O   0  0  0  0  0  0  0  0  0  0  0  0
   -6.3870   25.2720  -29.5030 O   0  0  0  0  0  0  0  0  0  0  0  0
   -4.4530   23.5200  -28.9580 N   0  0  0  0  0  0  0  0  0  0  0  0
   -4.1620   24.4740  -27.8700 C   0  0  0  0  0  0  0  0  0  0  0  0
   -2.9020   24.0470  -27.0970 C   0  0  0  0  0  0  0  0  0  0  0  0
   -1.7260   23.9720  -27.8960 O   0  0  0  0  0  0  0  0  0  0  0  0
   -1.9850   23.8120  -29.2830 C   0  0  0  0  0  0  0  0  0  0  0  0
   -3.2300   22.9550  -29.5730 C   0  0  0  0  0  0  0  0  0  0  0  0
   -5.8310   21.8180  -31.3130 C   0  0  0  0  0  0  0  0  0  0  0  0
   -6.5650   20.8290  -31.9820 C   0  0  0  0  0  0  0  0  0  0  0  0
   -5.9180   19.5900  -32.3080 N   0  0  0  0  0  0  0  0  0  0  0  0
   -5.9680   19.0260  -33.6290 C   0  0  0  0  0  0  0  0  0  0  0  0
   -6.4950   19.6770  -34.5710 O   0  0  0  0  0  0  0  0  0  0  0  0
   -5.3960   17.6970  -33.9080 C   0  0  0  0  0  0  0  0  0  0  0  0
   -4.0910   17.4140  -34.3000 C   0  0  0  0  0  0  0  0  0  0  0  0
   -3.8490   16.0450  -34.4710 C   0  0  0  0  0  0  0  0  0  0  0  0
   -4.9550   15.2450  -34.2120 C   0  0  0  0  0  0  0  0  0  0  0  0
   -6.2320   16.2420  -33.7690 S   0  0  0  0  0  0  0  0  0  0  0  0
   -8.5360   19.6820  -33.8430 H   0  0  0  0  0  0  0  0  0  0  0  0
   -9.5990   19.6890  -32.4100 H   0  0  0  0  0  0  0  0  0  0  0  0
   -9.5449   22.5053  -32.2612 H   0  0  0  0  0  0  0  0  0  0  0  0
   -8.2052   24.2689  -31.1205 H   0  0  0  0  0  0  0  0  0  0  0  0
   -4.0010   25.4738  -28.2995 H   0  0  0  0  0  0  0  0  0  0  0  0
   -5.0150   24.4906  -27.1757 H   0  0  0  0  0  0  0  0  0  0  0  0
   -2.7268   24.7764  -26.2925 H   0  0  0  0  0  0  0  0  0  0  0  0
   -3.0921   23.0323  -26.7173 H   0  0  0  0  0  0  0  0  0  0  0  0
   -2.1343   24.8070  -29.7277 H   0  0  0  0  0  0  0  0  0  0  0  0
   -1.1204   23.2898  -29.7186 H   0  0  0  0  0  0  0  0  0  0  0  0
   -3.3750   22.8977  -30.6619 H   0  0  0  0  0  0  0  0  0  0  0  0
   -3.0628   21.9583  -29.1387 H   0  0  0  0  0  0  0  0  0  0  0  0
   -4.7880   21.6203  -31.0248 H   0  0  0  0  0  0  0  0  0  0  0  0
   -5.2140   19.2220  -31.6300 H   0  0  0  0  0  0  0  0  0  0  0  0
   -3.3260   18.1881  -34.4596 H   0  0  0  0  0  0  0  0  0  0  0  0
   -2.8741   15.6409  -34.7814 H   0  0  0  0  0  0  0  0  0  0  0  0
   -4.9885   14.1479  -34.2846 H   0  0  0  0  0  0  0  0  0  0  0  0
  1  2  1  0
  2  3  2  0
  3  4  1  0
  4  5  2  0
  5  6  1  0
  6  7  2  0
  6  8  2  0
  6  9  1  0
  9 10  1  0
 10 11  1  0
 11 12  1  0
 12 13  1  0
 13 14  1  0
  5 15  1  0
 15 16  2  0
 16 17  1  0
 17 18  1  0
 18 19  2  0
 18 20  1  0
 20 21  2  0
 21 22  1  0
 22 23  2  0
 23 24  1  0
 16  2  1  0
 24 20  1  0
 14  9  1  0
  1 25  1  0
  1 26  1  0
  3 27  1  0
  4 28  1  0
 10 29  1  0
 10 30  1  0
 11 31  1  0
 11 32  1  0
 13 33  1  0
 13 34  1  0
 14 35  1  0
 14 36  1  0
 15 37  1  0
 17 38  1  0
 21 39  1  0
 22 40  1  0
 23 41  1  0
M  END
>  <UniqueID>  (15) 
14

>  <SMILES>  (15) 
Nc1ccc(S(=O)(=O)N2CCOCC2)cc1NC(=O)c1cccs1

>  <Energy>  (15) 
85.7130746946774

>  <Genealogy>  (15) 
Nc1ccc(S(=O)(=O)N2CCOCC2)cc1NC(=O)c1cccs1 (3D coordinates assigned)
Nc1ccc(S(=O)(=O)N2CCOCC2)cc1NC(=O)c1cccs1 (nonaromatic ring conformer: 85.7130746946774 kcal/mol)

>  <smiles>  (15) 
Nc1ccc(S(=O)(=O)N2CCOCC2)cc1NC(=O)c1cccs1

>  <score_type>  (15) 
oracle

>  <origin>  (15) 
adgpu

>  <m_score__min__energy>  (15) 
-8.8300000000000001

>  <m_primary>  (15) 
energy

$$$$
15:0
     RDKit          3D

 38 39  0  0  0  0  0  0  0  0999 V2000
   -3.3720   21.0330  -32.8460 C   0  0  0  0  0  0  0  0  0  0  0  0
   -4.1640   22.1960  -32.6400 O   0  0  0  0  0  0  0  0  0  0  0  0
   -4.3270   22.8430  -31.4040 C   0  0  0  0  0  0  0  0  0  0  0  0
   -3.3920   22.6970  -30.3630 C   0  0  0  0  0  0  0  0  0  0  0  0
   -3.5890   23.3430  -29.1410 C   0  0  0  0  0  0  0  0  0  0  0  0
   -2.3910   23.1420  -27.8180 S   0  0  0  0  0  0  0  0  0  0  0  0
   -1.3520   24.5350  -28.3630 C   0  0  0  0  0  0  0  0  0  0  0  0
   -0.2080   24.0390  -28.9570 F   0  0  0  0  0  0  0  0  0  0  0  0
   -2.0410   25.3060  -29.2810 F   0  0  0  0  0  0  0  0  0  0  0  0
   -4.7080   24.1560  -28.9500 C   0  0  0  0  0  0  0  0  0  0  0  0
   -5.6500   24.3240  -29.9770 C   0  0  0  0  0  0  0  0  0  0  0  0
   -6.8490   25.2020  -29.7440 C   0  0  0  0  0  0  0  0  0  0  0  0
   -5.4650   23.6490  -31.2050 C   0  0  0  0  0  0  0  0  0  0  0  0
   -6.6720   23.8000  -32.5360 S   0  0  0  0  0  0  0  0  0  0  0  0
   -7.2990   22.1460  -32.2750 C   0  0  0  0  0  0  0  0  0  0  0  0
   -8.3410   21.9380  -31.4310 N   0  0  0  0  0  0  0  0  0  0  0  0
   -8.8210   20.6870  -31.2100 C   0  0  0  0  0  0  0  0  0  0  0  0
   -8.2440   19.5850  -31.8560 C   0  0  0  0  0  0  0  0  0  0  0  0
   -8.7720   18.1990  -31.6060 C   0  0  0  0  0  0  0  0  0  0  0  0
   -7.1630   19.8240  -32.7300 C   0  0  0  0  0  0  0  0  0  0  0  0
   -6.4770   18.7100  -33.4620 C   0  0  0  0  0  0  0  0  0  0  0  0
   -6.7240   21.0970  -32.9170 N   0  0  0  0  0  0  0  0  0  0  0  0
   -3.0832   20.6090  -31.8730 H   0  0  0  0  0  0  0  0  0  0  0  0
   -3.9524   20.2897  -33.4122 H   0  0  0  0  0  0  0  0  0  0  0  0
   -2.4677   21.3008  -33.4122 H   0  0  0  0  0  0  0  0  0  0  0  0
   -2.5005   22.0702  -30.5127 H   0  0  0  0  0  0  0  0  0  0  0  0
   -1.0888   25.1548  -27.4932 H   0  0  0  0  0  0  0  0  0  0  0  0
   -4.8524   24.6687  -27.9875 H   0  0  0  0  0  0  0  0  0  0  0  0
   -7.0117   25.3211  -28.6626 H   0  0  0  0  0  0  0  0  0  0  0  0
   -6.6754   26.1881  -30.1995 H   0  0  0  0  0  0  0  0  0  0  0  0
   -7.7367   24.7388  -30.1995 H   0  0  0  0  0  0  0  0  0  0  0  0
   -9.6658   20.5380  -30.5214 H   0  0  0  0  0  0  0  0  0  0  0  0
   -8.8393   18.0222  -30.5224 H   0  0  0  0  0  0  0  0  0  0  0  0
   -9.7707   18.1003  -32.0564 H   0  0  0  0  0  0  0  0  0  0  0  0
   -8.0921   17.4608  -32.0564 H   0  0  0  0  0  0  0  0  0  0  0  0
   -6.0437   18.0063  -32.7360 H   0  0  0  0  0  0  0  0  0  0  0  0
   -7.2067   18.1822  -34.0936 H   0  0  0  0  0  0  0  0  0  0  0  0
   -5.6772   19.1241  -34.0936 H   0  0  0  0  0  0  0  0  0  0  0  0
  1  2  1  0
  2  3  1  0
  3  4  2  0
  4  5  1  0
  5  6  1  0
  6  7  1  0
  7  8  1  0
  7  9  1  0
  5 10  2  0
 10 11  1  0
 11 12  1  0
 11 13  2  0
 13 14  1  0
 14 15  1  0
 15 16  2  0
 16 17  1  0
 17 18  2  0
 18 19  1  0
 18 20  1  0
 20 21  1  0
 20 22  2  0
 13  3  1  0
 22 15  1  0
  1 23  1  0
  1 24  1  0
  1 25  1  0
  4 26  1  0
  7 27  1  0
 10 28  1  0
 12 29  1  0
 12 30  1  0
 12 31  1  0
 17 32  1  0
 19 33  1  0
 19 34  1  0
 19 35  1  0
 21 36  1  0
 21 37  1  0
 21 38  1  0
M  END
>  <UniqueID>  (16) 
15

>  <SMILES>  (16) 
COc1cc(SC(F)F)cc(C)c1Sc1ncc(C)c(C)n1

>  <Energy>  (16) 
29.392189195950557

>  <Genealogy>  (16) 
COc1cc(SC(F)F)cc(C)c1Sc1ncc(C)c(C)n1 (3D coordinates assigned)
COc1cc(SC(F)F)cc(C)c1Sc1ncc(C)c(C)n1 (optimized conformer: 29.392189195950557 kcal/mol)

>  <smiles>  (16) 
COc1cc(SC(F)F)cc(C)c1Sc1ncc(C)c(C)n1

>  <score_type>  (16) 
oracle

>  <origin>  (16) 
adgpu

>  <m_score__min__energy>  (16) 
-7.3300000000000001

>  <m_primary>  (16) 
energy

$$$$
16:0
     RDKit          3D

 36 38  0  0  0  0  0  0  0  0999 V2000
   -0.7980   25.5950  -26.0480 C   0  0  0  0  0  0  0  0  0  0  0  0
   -0.5620   24.4750  -26.8960 O   0  0  0  0  0  0  0  0  0  0  0  0
   -1.4470   24.0340  -27.8920 C   0  0  0  0  0  0  0  0  0  0  0  0
   -1.5630   22.6610  -28.1100 C   0  0  0  0  0  0  0  0  0  0  0  0
   -2.4270   22.1670  -29.0870 C   0  0  0  0  0  0  0  0  0  0  0  0
   -3.1980   23.0400  -29.8750 C   0  0  0  0  0  0  0  0  0  0  0  0
   -4.1050   22.4720  -30.9050 C   0  0  0  0  0  0  0  0  0  0  0  0
   -3.8700   22.5510  -32.2320 N   0  0  0  0  0  0  0  0  0  0  0  0
   -4.8810   21.9420  -32.8210 N   0  0  0  0  0  0  0  0  0  0  0  0
   -5.7150   21.5020  -31.8610 C   0  0  0  0  0  0  0  0  0  0  0  0
   -6.9810   20.7620  -32.0940 C   0  0  0  0  0  0  0  0  0  0  0  0
   -6.9810   19.4020  -32.4630 C   0  0  0  0  0  0  0  0  0  0  0  0
   -8.1880   18.7270  -32.6760 C   0  0  0  0  0  0  0  0  0  0  0  0
   -9.4040   19.3960  -32.5240 C   0  0  0  0  0  0  0  0  0  0  0  0
   -9.4170   20.7440  -32.1590 C   0  0  0  0  0  0  0  0  0  0  0  0
   -8.2150   21.4240  -31.9440 C   0  0  0  0  0  0  0  0  0  0  0  0
   -5.2560   21.8200  -30.6330 N   0  0  0  0  0  0  0  0  0  0  0  0
   -3.0880   24.4360  -29.6650 C   0  0  0  0  0  0  0  0  0  0  0  0
   -3.8570   25.3130  -30.4490 O   0  0  0  0  0  0  0  0  0  0  0  0
   -5.2770   25.4110  -30.4090 C   0  0  0  0  0  0  0  0  0  0  0  0
   -2.2110   24.9200  -28.6720 C   0  0  0  0  0  0  0  0  0  0  0  0
   -0.7315   25.2792  -24.9964 H   0  0  0  0  0  0  0  0  0  0  0  0
   -0.0435   26.3705  -26.2464 H   0  0  0  0  0  0  0  0  0  0  0  0
   -1.8012   26.0002  -26.2464 H   0  0  0  0  0  0  0  0  0  0  0  0
   -0.9673   21.9612  -27.5055 H   0  0  0  0  0  0  0  0  0  0  0  0
   -2.5063   21.0810  -29.2431 H   0  0  0  0  0  0  0  0  0  0  0  0
   -4.9760   21.8440  -33.8550 H   0  0  0  0  0  0  0  0  0  0  0  0
   -6.0269   18.8681  -32.5843 H   0  0  0  0  0  0  0  0  0  0  0  0
   -8.1788   17.6655  -32.9642 H   0  0  0  0  0  0  0  0  0  0  0  0
  -10.3509   18.8619  -32.6916 H   0  0  0  0  0  0  0  0  0  0  0  0
  -10.3750   21.2715  -32.0405 H   0  0  0  0  0  0  0  0  0  0  0  0
   -8.2329   22.4853  -31.6552 H   0  0  0  0  0  0  0  0  0  0  0  0
   -5.6136   25.4342  -29.3620 H   0  0  0  0  0  0  0  0  0  0  0  0
   -5.5953   26.3333  -30.9170 H   0  0  0  0  0  0  0  0  0  0  0  0
   -5.7190   24.5412  -30.9170 H   0  0  0  0  0  0  0  0  0  0  0  0
   -2.1237   26.0039  -28.5057 H   0  0  0  0  0  0  0  0  0  0  0  0
  1  2  1  0
  2  3  1  0
  3  4  2  0
  4  5  1  0
  5  6  2  0
  6  7  1  0
  7  8  2  0
  8  9  1  0
  9 10  1  0
 10 11  1  0
 11 12  2  0
 12 13  1  0
 13 14  2  0
 14 15  1  0
 15 16  2  0
 10 17  2  0
  6 18  1  0
 18 19  1  0
 19 20  1  0
 18 21  2  0
 21  3  1  0
 17  7  1  0
 16 11  1  0
  1 22  1  0
  1 23  1  0
  1 24  1  0
  4 25  1  0
  5 26  1  0
  9 27  1  0
 12 28  1  0
 13 29  1  0
 14 30  1  0
 15 31  1  0
 16 32  1  0
 20 33  1  0
 20 34  1  0
 20 35  1  0
 21 36  1  0
M  END
>  <UniqueID>  (17) 
16

>  <SMILES>  (17) 
COc1ccc(-c2n[nH]c(-c3ccccc3)n2)c(OC)c1

>  <Energy>  (17) 
73.48770121175917

>  <Genealogy>  (17) 
COc1ccc(-c2n[nH]c(-c3ccccc3)n2)c(OC)c1 (3D coordinates assigned)
COc1ccc(-c2n[nH]c(-c3ccccc3)n2)c(OC)c1 (optimized conformer: 73.48770121175917 kcal/mol)

>  <smiles>  (17) 
COc1ccc(-c2n[nH]c(-c3ccccc3)n2)c(OC)c1

>  <score_type>  (17) 
oracle

>  <origin>  (17) 
adgpu

>  <m_score__min__energy>  (17) 
-7.6600000000000001

>  <m_primary>  (17) 
energy

$$$$
17:0
     RDKit          3D

 39 41  0  0  0  0  0  0  0  0999 V2000
    0.6250   21.5170  -27.0460 O   0  0  0  0  0  0  0  0  0  0  0  0
    0.1220   22.5770  -27.5050 C   0  0  0  0  0  0  0  0  0  0  0  0
   -1.0620   22.5280  -28.1680 N   0  0  0  0  0  0  0  0  0  0  0  0
   -1.6530   23.6400  -28.6910 C   0  0  0  0  0  0  0  0  0  0  0  0
   -2.9450   23.4940  -29.4020 C   0  0  0  0  0  0  0  0  0  0  0  0
   -4.1040   24.1510  -28.9510 C   0  0  0  0  0  0  0  0  0  0  0  0
   -5.3080   24.0190  -29.6470 C   0  0  0  0  0  0  0  0  0  0  0  0
   -5.3730   23.2350  -30.8040 C   0  0  0  0  0  0  0  0  0  0  0  0
   -6.8900   23.1000  -31.6890 S   0  0  0  0  0  0  0  0  0  0  0  0
   -7.9700   23.8610  -30.9710 O   0  0  0  0  0  0  0  0  0  0  0  0
   -6.7080   23.7030  -33.0540 O   0  0  0  0  0  0  0  0  0  0  0  0
   -7.3400   21.4210  -31.8450 N   0  0  0  0  0  0  0  0  0  0  0  0
   -8.8110   21.3040  -31.9510 C   0  0  0  0  0  0  0  0  0  0  0  0
   -9.2620   19.9070  -32.4330 C   0  0  0  0  0  0  0  0  0  0  0  0
   -8.1460   18.8710  -32.2840 C   0  0  0  0  0  0  0  0  0  0  0  0
   -6.8850   19.3070  -33.0480 C   0  0  0  0  0  0  0  0  0  0  0  0
   -6.6780   20.8340  -33.0210 C   0  0  0  0  0  0  0  0  0  0  0  0
   -4.2160   22.5980  -31.2740 C   0  0  0  0  0  0  0  0  0  0  0  0
   -3.0100   22.7300  -30.5790 C   0  0  0  0  0  0  0  0  0  0  0  0
   -1.0300   24.8920  -28.5180 C   0  0  0  0  0  0  0  0  0  0  0  0
   -1.6210   26.0650  -28.9770 O   0  0  0  0  0  0  0  0  0  0  0  0
    0.1930   24.9620  -27.8460 C   0  0  0  0  0  0  0  0  0  0  0  0
    0.7760   23.8010  -27.3360 C   0  0  0  0  0  0  0  0  0  0  0  0
    1.9920   23.8700  -26.6630 O   0  0  0  0  0  0  0  0  0  0  0  0
   -4.0621   24.7727  -28.0445 H   0  0  0  0  0  0  0  0  0  0  0  0
   -6.2095   24.5340  -29.2836 H   0  0  0  0  0  0  0  0  0  0  0  0
   -9.2519   21.4947  -30.9615 H   0  0  0  0  0  0  0  0  0  0  0  0
   -9.1513   22.0394  -32.6949 H   0  0  0  0  0  0  0  0  0  0  0  0
  -10.1285   19.5863  -31.8361 H   0  0  0  0  0  0  0  0  0  0  0  0
   -9.5235   19.9793  -33.4990 H   0  0  0  0  0  0  0  0  0  0  0  0
   -7.8998   18.7581  -31.2179 H   0  0  0  0  0  0  0  0  0  0  0  0
   -8.4963   17.9155  -32.7015 H   0  0  0  0  0  0  0  0  0  0  0  0
   -6.0097   18.8240  -32.5891 H   0  0  0  0  0  0  0  0  0  0  0  0
   -7.0089   19.0047  -34.0984 H   0  0  0  0  0  0  0  0  0  0  0  0
   -5.6009   21.0530  -32.9775 H   0  0  0  0  0  0  0  0  0  0  0  0
   -7.1159   21.2695  -33.9313 H   0  0  0  0  0  0  0  0  0  0  0  0
   -4.2571   21.9929  -32.1917 H   0  0  0  0  0  0  0  0  0  0  0  0
   -2.1050   22.2317  -30.9568 H   0  0  0  0  0  0  0  0  0  0  0  0
    0.6962   25.9319  -27.7189 H   0  0  0  0  0  0  0  0  0  0  0  0
  1  2  2  0
  2  3  1  0
  3  4  1  0
  4  5  1  0
  5  6  2  0
  6  7  1  0
  7  8  2  0
  8  9  1  0
  9 10  2  0
  9 11  2  0
  9 12  1  0
 12 13  1  0
 13 14  1  0
 14 15  1  0
 15 16  1  0
 16 17  1  0
  8 18  1  0
 18 19  2  0
  4 20  2  0
 20 21  1  0
 20 22  1  0
 22 23  2  0
 23 24  1  0
 23  2  1  0
 19  5  1  0
 17 12  1  0
  6 25  1  0
  7 26  1  0
 13 27  1  0
 13 28  1  0
 14 29  1  0
 14 30  1  0
 15 31  1  0
 15 32  1  0
 16 33  1  0
 16 34  1  0
 17 35  1  0
 17 36  1  0
 18 37  1  0
 19 38  1  0
 22 39  1  0
M  CHG  3   3  -1  21  -1  24  -1
M  END
>  <UniqueID>  (18) 
17

>  <SMILES>  (18) 
O=c1[n-]c(-c2ccc(S(=O)(=O)N3CCCCC3)cc2)c([O-])cc1[O-]

>  <Energy>  (18) 
50.13677860454546

>  <Genealogy>  (18) 
O=c1[n-]c(-c2ccc(S(=O)(=O)N3CCCCC3)cc2)c([O-])cc1[O-] (protonated)
O=c1[n-]c(-c2ccc(S(=O)(=O)N3CCCCC3)cc2)c([O-])cc1[O-] (3D coordinates assigned)
O=c1[n-]c(-c2ccc(S(=O)(=O)N3CCCCC3)cc2)c([O-])cc1[O-] (nonaromatic ring conformer: 50.13677860454546 kcal/mol)

>  <smiles>  (18) 
O=c1[nH]c(-c2ccc(S(=O)(=O)N3CCCCC3)cc2)c(O)cc1O

>  <score_type>  (18) 
oracle

>  <origin>  (18) 
adgpu

>  <m_score__min__energy>  (18) 
-11.779999999999999

>  <m_primary>  (18) 
energy

$$$$
18:0
     RDKit          3D

 36 38  0  0  0  0  0  0  0  0999 V2000
    2.3200   20.1370  -33.8540 C   0  0  0  0  0  0  0  0  0  0  0  0
    0.7880   20.9960  -34.1460 S   0  0  0  0  0  0  0  0  0  0  0  0
    1.0980   22.3640  -34.6850 O   0  0  0  0  0  0  0  0  0  0  0  0
   -0.0440   20.2570  -35.1550 O   0  0  0  0  0  0  0  0  0  0  0  0
   -0.0920   21.1700  -32.6620 N   0  0  0  0  0  0  0  0  0  0  0  0
   -1.5130   21.0530  -32.5120 C   0  0  0  0  0  0  0  0  0  0  0  0
   -2.1060   20.4990  -31.3630 C   0  0  0  0  0  0  0  0  0  0  0  0
   -3.4970   20.4120  -31.2590 C   0  0  0  0  0  0  0  0  0  0  0  0
   -4.3190   20.8820  -32.2960 C   0  0  0  0  0  0  0  0  0  0  0  0
   -5.7910   20.7990  -32.1830 C   0  0  0  0  0  0  0  0  0  0  0  0
   -6.6640   21.6880  -31.5630 C   0  0  0  0  0  0  0  0  0  0  0  0
   -6.3650   23.0190  -30.9900 C   0  0  0  0  0  0  0  0  0  0  0  0
   -7.4010   23.8040  -30.4540 C   0  0  0  0  0  0  0  0  0  0  0  0
   -7.1260   25.0650  -29.9160 C   0  0  0  0  0  0  0  0  0  0  0  0
   -5.8190   25.5570  -29.9150 C   0  0  0  0  0  0  0  0  0  0  0  0
   -4.7840   24.7920  -30.4600 C   0  0  0  0  0  0  0  0  0  0  0  0
   -3.4850   25.2860  -30.4680 O   0  0  0  0  0  0  0  0  0  0  0  0
   -5.0540   23.5310  -31.0020 C   0  0  0  0  0  0  0  0  0  0  0  0
   -7.9200   21.1080  -31.6420 C   0  0  0  0  0  0  0  0  0  0  0  0
   -7.8390   19.9530  -32.2640 O   0  0  0  0  0  0  0  0  0  0  0  0
   -6.5860   19.7460  -32.5950 C   0  0  0  0  0  0  0  0  0  0  0  0
   -6.1420   18.6000  -33.2400 O   0  0  0  0  0  0  0  0  0  0  0  0
   -3.7250   21.4200  -33.4480 C   0  0  0  0  0  0  0  0  0  0  0  0
   -2.3340   21.5050  -33.5520 C   0  0  0  0  0  0  0  0  0  0  0  0
    2.4871   20.0433  -32.7708 H   0  0  0  0  0  0  0  0  0  0  0  0
    2.2704   19.1351  -34.3054 H   0  0  0  0  0  0  0  0  0  0  0  0
    3.1489   20.7019  -34.3054 H   0  0  0  0  0  0  0  0  0  0  0  0
   -1.4718   20.1325  -30.5424 H   0  0  0  0  0  0  0  0  0  0  0  0
   -3.9510   19.9724  -30.3587 H   0  0  0  0  0  0  0  0  0  0  0  0
   -8.4333   23.4241  -30.4579 H   0  0  0  0  0  0  0  0  0  0  0  0
   -7.9408   25.6707  -29.4927 H   0  0  0  0  0  0  0  0  0  0  0  0
   -5.6041   26.5465  -29.4853 H   0  0  0  0  0  0  0  0  0  0  0  0
   -4.2381   22.9369  -31.4395 H   0  0  0  0  0  0  0  0  0  0  0  0
   -8.8461   21.5483  -31.2438 H   0  0  0  0  0  0  0  0  0  0  0  0
   -4.3579   21.7768  -34.2739 H   0  0  0  0  0  0  0  0  0  0  0  0
   -1.8802   21.9308  -34.4590 H   0  0  0  0  0  0  0  0  0  0  0  0
  1  2  1  0
  2  3  2  0
  2  4  2  0
  2  5  1  0
  5  6  1  0
  6  7  2  0
  7  8  1  0
  8  9  2  0
  9 10  1  0
 10 11  1  0
 11 12  1  0
 12 13  2  0
 13 14  1  0
 14 15  2  0
 15 16  1  0
 16 17  1  0
 16 18  2  0
 11 19  2  0
 19 20  1  0
 20 21  1  0
 21 22  1  0
  9 23  1  0
 23 24  2  0
 24  6  1  0
 21 10  2  0
 18 12  1  0
  1 25  1  0
  1 26  1  0
  1 27  1  0
  7 28  1  0
  8 29  1  0
 13 30  1  0
 14 31  1  0
 15 32  1  0
 18 33  1  0
 19 34  1  0
 23 35  1  0
 24 36  1  0
M  CHG  3   5  -1  17  -1  22  -1
M  END
>  <UniqueID>  (19) 
18

>  <SMILES>  (19) 
CS(=O)(=O)[N-]c1ccc(-c2c(-c3cccc([O-])c3)coc2[O-])cc1

>  <Energy>  (19) 
73.96400400003714

>  <Genealogy>  (19) 
CS(=O)(=O)[N-]c1ccc(-c2c(-c3cccc([O-])c3)coc2[O-])cc1 (protonated)
CS(=O)(=O)[N-]c1ccc(-c2c(-c3cccc([O-])c3)coc2[O-])cc1 (3D coordinates assigned)
CS(=O)(=O)[N-]c1ccc(-c2c(-c3cccc([O-])c3)coc2[O-])cc1 (optimized conformer: 73.96400400003714 kcal/mol)

>  <smiles>  (19) 
CS(=O)(=O)Nc1ccc(-c2c(-c3cccc(O)c3)coc2O)cc1

>  <score_type>  (19) 
oracle

>  <origin>  (19) 
adgpu

>  <m_score__min__energy>  (19) 
-11.31

>  <m_primary>  (19) 
energy

$$$$
19:0
     RDKit          3D

 42 45  0  0  0  0  0  0  0  0999 V2000
   -7.5298   16.7795  -33.3441 H   0  0  0  0  0  0  0  0  0  0  0  0
   -7.2490   17.8120  -33.0890 C   0  0  0  0  0  0  0  0  0  0  0  0
   -8.0330   18.5500  -32.2000 C   0  0  0  0  0  0  0  0  0  0  0  0
   -8.9282   18.0956  -31.7504 H   0  0  0  0  0  0  0  0  0  0  0  0
   -7.6830   19.8650  -31.8800 C   0  0  0  0  0  0  0  0  0  0  0  0
   -8.3012   20.4390  -31.1740 H   0  0  0  0  0  0  0  0  0  0  0  0
   -6.5440   20.4590  -32.4560 C   0  0  0  0  0  0  0  0  0  0  0  0
   -6.1620   21.8090  -32.1330 N   0  0  0  0  0  0  0  0  0  0  0  0
   -6.6820   22.8850  -32.7180 N   0  0  0  0  0  0  0  0  0  0  0  0
   -6.1200   23.9910  -32.1660 C   0  0  0  0  0  0  0  0  0  0  0  0
   -6.3373   25.0333  -32.4424 H   0  0  0  0  0  0  0  0  0  0  0  0
   -5.2290   23.5780  -31.1980 C   0  0  0  0  0  0  0  0  0  0  0  0
   -4.4190   24.2430  -30.2960 C   0  0  0  0  0  0  0  0  0  0  0  0
   -4.3790   25.5060  -30.2980 O   0  0  0  0  0  0  0  0  0  0  0  0
   -3.6700   23.5000  -29.4050 N   0  0  0  0  0  0  0  0  0  0  0  0
   -2.8320   24.2340  -28.4970 C   0  0  0  0  0  0  0  0  0  0  0  0
   -3.2830   24.5240  -27.2010 C   0  0  0  0  0  0  0  0  0  0  0  0
   -4.2585   24.1456  -26.8616 H   0  0  0  0  0  0  0  0  0  0  0  0
   -2.4950   25.2930  -26.3400 C   0  0  0  0  0  0  0  0  0  0  0  0
   -2.8468   25.5009  -25.3187 H   0  0  0  0  0  0  0  0  0  0  0  0
   -1.2620   25.8010  -26.7660 C   0  0  0  0  0  0  0  0  0  0  0  0
   -0.5070   26.5640  -25.8610 O   0  0  0  0  0  0  0  0  0  0  0  0
   -0.6720   26.5280  -24.4470 C   0  0  0  0  0  0  0  0  0  0  0  0
    0.2916   26.7382  -23.9599 H   0  0  0  0  0  0  0  0  0  0  0  0
   -1.4090   27.2865  -24.1444 H   0  0  0  0  0  0  0  0  0  0  0  0
   -1.0261   25.5315  -24.1444 H   0  0  0  0  0  0  0  0  0  0  0  0
   -0.8260   25.5370  -28.0790 C   0  0  0  0  0  0  0  0  0  0  0  0
    0.1378   25.9370  -28.4271 H   0  0  0  0  0  0  0  0  0  0  0  0
   -1.6130   24.7690  -28.9410 C   0  0  0  0  0  0  0  0  0  0  0  0
   -1.2758   24.5831  -29.9714 H   0  0  0  0  0  0  0  0  0  0  0  0
   -3.7580   22.1020  -29.4200 C   0  0  0  0  0  0  0  0  0  0  0  0
   -3.1000   21.3140  -28.6080 N   0  0  0  0  0  0  0  0  0  0  0  0
   -2.1590   21.5980  -27.5320 C   0  0  0  0  0  0  0  0  0  0  0  0
   -2.6553   21.4482  -26.5618 H   0  0  0  0  0  0  0  0  0  0  0  0
   -1.2962   20.9202  -27.6110 H   0  0  0  0  0  0  0  0  0  0  0  0
   -1.8152   22.6399  -27.6110 H   0  0  0  0  0  0  0  0  0  0  0  0
   -4.5780   21.4860  -30.3270 N   0  0  0  0  0  0  0  0  0  0  0  0
   -5.2810   22.2330  -31.2060 C   0  0  0  0  0  0  0  0  0  0  0  0
   -5.7540   19.7010  -33.3370 C   0  0  0  0  0  0  0  0  0  0  0  0
   -4.8507   20.1454  -33.7804 H   0  0  0  0  0  0  0  0  0  0  0  0
   -6.1080   18.3860  -33.6540 C   0  0  0  0  0  0  0  0  0  0  0  0
   -5.4868   17.8026  -34.3495 H   0  0  0  0  0  0  0  0  0  0  0  0
  1  2  1  0
  2  3  2  0
  3  4  1  0
  3  5  1  0
  5  6  1  0
  5  7  2  0
  7  8  1  0
  8  9  1  0
  9 10  2  0
 10 11  1  0
 10 12  1  0
 12 13  1  0
 13 14  2  0
 13 15  1  0
 15 16  1  0
 16 17  2  0
 17 18  1  0
 17 19  1  0
 19 20  1  0
 19 21  2  0
 21 22  1  0
 22 23  1  0
 23 24  1  0
 23 25  1  0
 23 26  1  0
 21 27  1  0
 27 28  1  0
 27 29  2  0
 29 30  1  0
 15 31  1  0
 31 32  2  0
 32 33  1  0
 33 34  1  0
 33 35  1  0
 33 36  1  0
 31 37  1  0
 37 38  1  0
  7 39  1  0
 39 40  1  0
 39 41  2  0
 41 42  1  0
 41  2  1  0
 38  8  1  0
 38 12  2  0
 29 16  1  0
M  CHG  1  37  -1
M  END
>  <UniqueID>  (20) 
19

>  <SMILES>  (20) 
C/N=c1/[n-]c2c(cnn2-c2ccccc2)c(=O)n1-c1ccc(OC)cc1

>  <Energy>  (20) 
110.5841330442804

>  <Genealogy>  (20) 
CN=c1[n-]c2c(cnn2-c2ccccc2)c(=O)n1-c1ccc(OC)cc1 (protonated)
C/N=c1/[n-]c2c(cnn2-c2ccccc2)c(=O)n1-c1ccc(OC)cc1 (cis-trans isomerization)
C/N=c1/[n-]c2c(cnn2-c2ccccc2)c(=O)n1-c1ccc(OC)cc1 (3D coordinates assigned)
C/N=c1/[n-]c2c(cnn2-c2ccccc2)c(=O)n1-c1ccc(OC)cc1 (optimized conformer: 110.5841330442804 kcal/mol)

>  <smiles>  (20) 
CN=c1[nH]c2c(cnn2-c2ccccc2)c(=O)n1-c1ccc(OC)cc1

>  <score_type>  (20) 
oracle

>  <origin>  (20) 
adgpu

>  <m_score__min__energy>  (20) 
-8.4499999999999993

>  <m_primary>  (20) 
energy

$$$$
20:0
     RDKit          3D

 38 41  0  0  0  0  0  0  0  0999 V2000
   -5.9650   26.0530  -29.8400 C   0  0  0  0  0  0  0  0  0  0  0  0
   -5.8860   24.7450  -30.5780 C   0  0  0  0  0  0  0  0  0  0  0  0
   -7.0620   24.0800  -30.9550 C   0  0  0  0  0  0  0  0  0  0  0  0
   -7.0000   22.8540  -31.6340 C   0  0  0  0  0  0  0  0  0  0  0  0
   -8.1830   22.1390  -32.0220 N   0  0  0  0  0  0  0  0  0  0  0  0
   -8.4740   20.7610  -31.7510 C   0  0  0  0  0  0  0  0  0  0  0  0
   -9.4390   20.4470  -31.0020 O   0  0  0  0  0  0  0  0  0  0  0  0
   -7.6680   19.7120  -32.4010 C   0  0  0  0  0  0  0  0  0  0  0  0
   -6.8870   19.9870  -33.5360 C   0  0  0  0  0  0  0  0  0  0  0  0
   -6.1400   18.9620  -34.1210 C   0  0  0  0  0  0  0  0  0  0  0  0
   -6.1750   17.6780  -33.5750 C   0  0  0  0  0  0  0  0  0  0  0  0
   -6.9620   17.4380  -32.4470 C   0  0  0  0  0  0  0  0  0  0  0  0
   -7.6830   18.4470  -31.8920 N   0  0  0  0  0  0  0  0  0  0  0  0
   -5.7550   22.2740  -31.8920 C   0  0  0  0  0  0  0  0  0  0  0  0
   -4.5620   22.9170  -31.5150 C   0  0  0  0  0  0  0  0  0  0  0  0
   -3.2590   22.2760  -31.8120 C   0  0  0  0  0  0  0  0  0  0  0  0
   -2.3310   21.9890  -30.8540 N   0  0  0  0  0  0  0  0  0  0  0  0
   -1.3520   21.4330  -31.5820 C   0  0  0  0  0  0  0  0  0  0  0  0
   -0.1690   20.9570  -31.1220 N   0  0  0  0  0  0  0  0  0  0  0  0
    0.7170   20.4190  -32.0170 C   0  0  0  0  0  0  0  0  0  0  0  0
    0.4000   20.3620  -33.3960 C   0  0  0  0  0  0  0  0  0  0  0  0
   -0.8340   20.8630  -33.8510 C   0  0  0  0  0  0  0  0  0  0  0  0
   -1.6890   21.3960  -32.8940 C   0  0  0  0  0  0  0  0  0  0  0  0
   -2.8750   21.9200  -33.0330 O   0  0  0  0  0  0  0  0  0  0  0  0
   -4.6360   24.1610  -30.8530 C   0  0  0  0  0  0  0  0  0  0  0  0
   -3.4740   24.8220  -30.4610 O   0  0  0  0  0  0  0  0  0  0  0  0
   -5.9536   25.8639  -28.7564 H   0  0  0  0  0  0  0  0  0  0  0  0
   -5.1031   26.6800  -30.1119 H   0  0  0  0  0  0  0  0  0  0  0  0
   -6.8961   26.5718  -30.1119 H   0  0  0  0  0  0  0  0  0  0  0  0
   -8.0401   24.5231  -30.7165 H   0  0  0  0  0  0  0  0  0  0  0  0
   -6.8640   21.0015  -33.9606 H   0  0  0  0  0  0  0  0  0  0  0  0
   -5.5254   19.1663  -35.0101 H   0  0  0  0  0  0  0  0  0  0  0  0
   -5.5893   16.8646  -34.0281 H   0  0  0  0  0  0  0  0  0  0  0  0
   -6.9984   16.4305  -32.0070 H   0  0  0  0  0  0  0  0  0  0  0  0
   -5.7071   21.2986  -32.3982 H   0  0  0  0  0  0  0  0  0  0  0  0
    1.6821   20.0282  -31.6621 H   0  0  0  0  0  0  0  0  0  0  0  0
    1.1159   19.9276  -34.1092 H   0  0  0  0  0  0  0  0  0  0  0  0
   -1.1091   20.8340  -34.9156 H   0  0  0  0  0  0  0  0  0  0  0  0
  1  2  1  0
  2  3  2  0
  3  4  1  0
  4  5  1  0
  5  6  1  0
  6  7  2  0
  6  8  1  0
  8  9  2  0
  9 10  1  0
 10 11  2  0
 11 12  1  0
 12 13  2  0
  4 14  2  0
 14 15  1  0
 15 16  1  0
 16 17  2  0
 17 18  1  0
 18 19  2  0
 19 20  1  0
 20 21  2  0
 21 22  1  0
 22 23  2  0
 23 24  1  0
 15 25  2  0
 25 26  1  0
 25  2  1  0
 13  8  1  0
 24 16  1  0
 23 18  1  0
  1 27  1  0
  1 28  1  0
  1 29  1  0
  3 30  1  0
  9 31  1  0
 10 32  1  0
 11 33  1  0
 12 34  1  0
 14 35  1  0
 20 36  1  0
 21 37  1  0
 22 38  1  0
M  CHG  2   5  -1  26  -1
M  END
>  <UniqueID>  (21) 
20

>  <SMILES>  (21) 
Cc1cc([N-]C(=O)c2ccccn2)cc(-c2nc3ncccc3o2)c1[O-]

>  <Energy>  (21) 
88.57289375028293

>  <Genealogy>  (21) 
Cc1cc([N-]C(=O)c2ccccn2)cc(-c2nc3ncccc3o2)c1[O-] (protonated)
Cc1cc([N-]C(=O)c2ccccn2)cc(-c2nc3ncccc3o2)c1[O-] (3D coordinates assigned)
Cc1cc([N-]C(=O)c2ccccn2)cc(-c2nc3ncccc3o2)c1[O-] (optimized conformer: 88.57289375028293 kcal/mol)

>  <smiles>  (21) 
Cc1cc(NC(=O)c2ccccn2)cc(-c2nc3ncccc3o2)c1O

>  <score_type>  (21) 
oracle

>  <origin>  (21) 
adgpu

>  <m_score__min__energy>  (21) 
-10.699999999999999

>  <m_primary>  (21) 
energy

$$$$
21:0
     RDKit          3D

 44 47  0  0  0  0  0  0  0  0999 V2000
   -2.8201   20.0590  -30.8111 H   0  0  0  0  0  0  0  0  0  0  0  0
   -3.5230   20.8200  -31.1810 C   0  0  0  0  0  0  0  0  0  0  0  0
   -3.6790   22.0200  -30.4820 C   0  0  0  0  0  0  0  0  0  0  0  0
   -3.0866   22.2073  -29.5743 H   0  0  0  0  0  0  0  0  0  0  0  0
   -4.5890   22.9860  -30.9350 C   0  0  0  0  0  0  0  0  0  0  0  0
   -4.7780   24.5090  -30.0730 S   0  0  0  0  0  0  0  0  0  0  0  0
   -4.0720   25.5940  -30.8340 O   0  0  0  0  0  0  0  0  0  0  0  0
   -6.2330   24.8650  -29.9440 O   0  0  0  0  0  0  0  0  0  0  0  0
   -4.0870   24.3810  -28.4870 N   0  0  0  0  0  0  0  0  0  0  0  0
   -2.8780   24.7570  -28.2090 C   0  0  0  0  0  0  0  0  0  0  0  0
   -2.0240   25.2870  -29.1120 N   0  0  0  0  0  0  0  0  0  0  0  0
   -0.8460   25.6090  -28.5820 N   0  0  0  0  0  0  0  0  0  0  0  0
   -0.7590   25.3250  -27.2620 C   0  0  0  0  0  0  0  0  0  0  0  0
    0.4350   25.6520  -26.4250 C   0  0  0  0  0  0  0  0  0  0  0  0
    0.9696   26.5018  -26.8744 H   0  0  0  0  0  0  0  0  0  0  0  0
    1.0902   24.7695  -26.3823 H   0  0  0  0  0  0  0  0  0  0  0  0
    0.0130   26.0190  -25.0080 C   0  0  0  0  0  0  0  0  0  0  0  0
    0.6393   25.4743  -24.2862 H   0  0  0  0  0  0  0  0  0  0  0  0
    0.1369   27.1016  -24.8573 H   0  0  0  0  0  0  0  0  0  0  0  0
   -1.0419   25.7461  -24.8573 H   0  0  0  0  0  0  0  0  0  0  0  0
   -2.1970   24.6630  -26.6760 S   0  0  0  0  0  0  0  0  0  0  0  0
   -5.3570   22.7300  -32.0780 C   0  0  0  0  0  0  0  0  0  0  0  0
   -6.0867   23.4759  -32.4260 H   0  0  0  0  0  0  0  0  0  0  0  0
   -5.2000   21.5310  -32.7780 C   0  0  0  0  0  0  0  0  0  0  0  0
   -5.8162   21.3297  -33.6667 H   0  0  0  0  0  0  0  0  0  0  0  0
   -4.2560   20.5810  -32.3490 C   0  0  0  0  0  0  0  0  0  0  0  0
   -4.1110   19.3220  -33.0230 N   0  0  0  0  0  0  0  0  0  0  0  0
   -4.9920   18.3620  -33.1250 C   0  0  0  0  0  0  0  0  0  0  0  0
   -6.3170   18.5150  -32.6700 C   0  0  0  0  0  0  0  0  0  0  0  0
   -6.6321   19.4611  -32.2058 H   0  0  0  0  0  0  0  0  0  0  0  0
   -7.2290   17.4700  -32.8070 C   0  0  0  0  0  0  0  0  0  0  0  0
   -8.2590   17.5934  -32.4410 H   0  0  0  0  0  0  0  0  0  0  0  0
   -6.8570   16.3020  -33.3880 N   0  0  0  0  0  0  0  0  0  0  0  0
   -7.5710   15.5420  -33.4740 H   0  0  0  0  0  0  0  0  0  0  0  0
   -5.5940   16.1120  -33.8630 C   0  0  0  0  0  0  0  0  0  0  0  0
   -5.2450   14.8940  -34.4710 C   0  0  0  0  0  0  0  0  0  0  0  0
   -5.9933   14.0927  -34.5605 H   0  0  0  0  0  0  0  0  0  0  0  0
   -3.9530   14.6960  -34.9620 C   0  0  0  0  0  0  0  0  0  0  0  0
   -3.6874   13.7404  -35.4376 H   0  0  0  0  0  0  0  0  0  0  0  0
   -2.9980   15.7070  -34.8510 C   0  0  0  0  0  0  0  0  0  0  0  0
   -1.9816   15.5452  -35.2392 H   0  0  0  0  0  0  0  0  0  0  0  0
   -3.3270   16.9240  -34.2490 C   0  0  0  0  0  0  0  0  0  0  0  0
   -2.5673   17.7151  -34.1649 H   0  0  0  0  0  0  0  0  0  0  0  0
   -4.6280   17.1450  -33.7480 C   0  0  0  0  0  0  0  0  0  0  0  0
  1  2  1  0
  2  3  2  0
  3  4  1  0
  3  5  1  0
  5  6  1  0
  6  7  2  0
  6  8  2  0
  6  9  1  0
  9 10  2  3
 10 11  1  0
 11 12  1  0
 12 13  2  0
 13 14  1  0
 14 15  1  0
 14 16  1  0
 14 17  1  0
 17 18  1  0
 17 19  1  0
 17 20  1  0
 13 21  1  0
  5 22  2  0
 22 23  1  0
 22 24  1  0
 24 25  1  0
 24 26  2  0
 26 27  1  0
 27 28  2  0
 28 29  1  0
 29 30  1  0
 29 31  2  0
 31 32  1  0
 31 33  1  0
 33 34  1  0
 33 35  1  0
 35 36  2  0
 36 37  1  0
 36 38  1  0
 38 39  1  0
 38 40  2  0
 40 41  1  0
 40 42  1  0
 42 43  1  0
 42 44  2  0
 26  2  1  0
 44 28  1  0
 21 10  1  0
 44 35  1  0
M  CHG  1  11  -1
M  END
>  <UniqueID>  (22) 
21

>  <SMILES>  (22) 
CCc1n[n-]c(=NS(=O)(=O)c2ccc(/N=c3\cc[nH]c4ccccc34)cc2)s1

>  <Energy>  (22) 
95.60703519092317

>  <Genealogy>  (22) 
CCc1n[n-]c(=NS(=O)(=O)c2ccc(N=c3cc[nH]c4ccccc34)cc2)s1 (protonated)
CCc1n[n-]c(=NS(=O)(=O)c2ccc(/N=c3\cc[nH]c4ccccc34)cc2)s1 (cis-trans isomerization)
CCc1n[n-]c(=NS(=O)(=O)c2ccc(/N=c3\cc[nH]c4ccccc34)cc2)s1 (3D coordinates assigned)
CCc1n[n-]c(=NS(=O)(=O)c2ccc(/N=c3\cc[nH]c4ccccc34)cc2)s1 (optimized conformer: 95.60703519092317 kcal/mol)

>  <smiles>  (22) 
CCc1n[nH]c(=NS(=O)(=O)c2ccc(N=c3cc[nH]c4ccccc34)cc2)s1

>  <score_type>  (22) 
oracle

>  <origin>  (22) 
adgpu

>  <m_score__min__energy>  (22) 
-10.1

>  <m_primary>  (22) 
energy

$$$$
22:0
     RDKit          3D

 41 43  0  0  0  0  0  0  0  0999 V2000
   -4.2760   19.8180  -32.8570 C   0  0  0  0  0  0  0  0  0  0  0  0
   -5.7650   19.4990  -32.5870 C   0  0  1  0  0  0  0  0  0  0  0  0
   -6.3780   20.7980  -32.0180 C   0  0  0  0  0  0  0  0  0  0  0  0
   -7.7090   21.1550  -32.3240 C   0  0  0  0  0  0  0  0  0  0  0  0
   -8.2740   22.2650  -31.7840 N   0  0  0  0  0  0  0  0  0  0  0  0
   -7.6120   23.0500  -30.8980 C   0  0  0  0  0  0  0  0  0  0  0  0
   -6.3210   22.7030  -30.4790 C   0  0  0  0  0  0  0  0  0  0  0  0
   -5.5960   23.5030  -29.5270 N   0  0  0  0  0  0  0  0  0  0  0  0
   -4.2590   23.9890  -29.7390 C   0  0  0  0  0  0  0  0  0  0  0  0
   -3.7590   23.9730  -30.8980 O   0  0  0  0  0  0  0  0  0  0  0  0
   -3.4800   24.5440  -28.6120 C   0  0  0  0  0  0  0  0  0  0  0  0
   -3.9720   24.4960  -27.2970 C   0  0  0  0  0  0  0  0  0  0  0  0
   -3.2100   25.0350  -26.2570 C   0  0  0  0  0  0  0  0  0  0  0  0
   -1.9710   25.6170  -26.5320 C   0  0  0  0  0  0  0  0  0  0  0  0
   -1.0040   26.2980  -25.2370 Cl  0  0  0  0  0  0  0  0  0  0  0  0
   -1.5110   25.6500  -27.8510 C   0  0  0  0  0  0  0  0  0  0  0  0
   -2.2670   25.1200  -28.8490 N   0  0  0  0  0  0  0  0  0  0  0  0
   -5.7140   21.5740  -31.0410 C   0  0  0  0  0  0  0  0  0  0  0  0
   -6.4780   19.0490  -33.9160 C   0  0  0  0  0  0  0  0  0  0  0  0
   -6.4780   17.5340  -34.2360 C   0  0  0  0  0  0  0  0  0  0  0  0
   -5.0160   16.6610  -33.5930 S   0  0  0  0  0  0  0  0  0  0  0  0
   -5.5010   17.0580  -31.9160 C   0  0  0  0  0  0  0  0  0  0  0  0
   -5.6620   16.1070  -31.0500 N   0  0  0  0  0  0  0  0  0  0  0  0
   -5.8630   18.4090  -31.5940 N   0  0  0  0  0  0  0  0  0  0  0  0
   -3.7459   19.9316  -31.8998 H   0  0  0  0  0  0  0  0  0  0  0  0
   -3.8233   18.9965  -33.4316 H   0  0  0  0  0  0  0  0  0  0  0  0
   -4.1996   20.7529  -33.4316 H   0  0  0  0  0  0  0  0  0  0  0  0
   -8.2960   20.5255  -33.0090 H   0  0  0  0  0  0  0  0  0  0  0  0
   -8.0896   23.9608  -30.5077 H   0  0  0  0  0  0  0  0  0  0  0  0
   -6.1080   23.8200  -28.6730 H   0  0  0  0  0  0  0  0  0  0  0  0
   -4.9497   24.0376  -27.0876 H   0  0  0  0  0  0  0  0  0  0  0  0
   -3.5856   25.0008  -25.2237 H   0  0  0  0  0  0  0  0  0  0  0  0
   -0.5366   26.1051  -28.0821 H   0  0  0  0  0  0  0  0  0  0  0  0
   -4.7031   21.2858  -30.7168 H   0  0  0  0  0  0  0  0  0  0  0  0
   -7.5267   19.3756  -33.8568 H   0  0  0  0  0  0  0  0  0  0  0  0
   -5.8930   19.5116  -34.7246 H   0  0  0  0  0  0  0  0  0  0  0  0
   -7.3773   17.0833  -33.7908 H   0  0  0  0  0  0  0  0  0  0  0  0
   -6.4617   17.4328  -35.3312 H   0  0  0  0  0  0  0  0  0  0  0  0
   -5.9970   16.3120  -30.0820 H   0  0  0  0  0  0  0  0  0  0  0  0
   -5.4540   15.1160  -31.3030 H   0  0  0  0  0  0  0  0  0  0  0  0
   -6.3730   18.5560  -30.6940 H   0  0  0  0  0  0  0  0  0  0  0  0
  2  1  1  6
  2  3  1  0
  3  4  2  0
  4  5  1  0
  5  6  2  0
  6  7  1  0
  7  8  1  0
  8  9  1  0
  9 10  2  0
  9 11  1  0
 11 12  2  0
 12 13  1  0
 13 14  2  0
 14 15  1  0
 14 16  1  0
 16 17  2  0
  7 18  2  0
  2 19  1  0
 19 20  1  0
 20 21  1  0
 21 22  1  0
 22 23  2  0
 22 24  1  0
 24  2  1  0
 18  3  1  0
 17 11  1  0
  1 25  1  0
  1 26  1  0
  1 27  1  0
  4 28  1  0
  6 29  1  0
  8 30  1  0
 12 31  1  0
 13 32  1  0
 16 33  1  0
 18 34  1  0
 19 35  1  0
 19 36  1  0
 20 37  1  0
 20 38  1  0
 23 39  1  0
 23 40  1  0
 24 41  1  0
M  CHG  1  23   1
M  END
>  <UniqueID>  (23) 
22

>  <SMILES>  (23) 
C[C@@]1(c2cncc(NC(=O)c3ccc(Cl)cn3)c2)CCSC(=[NH2+])N1

>  <Energy>  (23) 
59.27455502336467

>  <Genealogy>  (23) 
CC1(c2cncc(NC(=O)c3ccc(Cl)cn3)c2)CCSC(=[NH2+])N1 (protonated)
C[C@@]1(c2cncc(NC(=O)c3ccc(Cl)cn3)c2)CCSC(=[NH2+])N1 (chirality)
C[C@@]1(c2cncc(NC(=O)c3ccc(Cl)cn3)c2)CCSC(=[NH2+])N1 (3D coordinates assigned)
C[C@@]1(c2cncc(NC(=O)c3ccc(Cl)cn3)c2)CCSC(=[NH2+])N1 (nonaromatic ring conformer: 59.27455502336467 kcal/mol)

>  <smiles>  (23) 
CC1(c2cncc(NC(=O)c3ccc(Cl)cn3)c2)CCSC(=N)N1

>  <score_type>  (23) 
oracle

>  <origin>  (23) 
adgpu

>  <m_score__min__energy>  (23) 
-8.9100000000000001

>  <m_primary>  (23) 
energy

$$$$
23:0
     RDKit          3D

 44 47  0  0  0  0  0  0  0  0999 V2000
   -1.6670   22.9120  -27.7520 O   0  0  0  0  0  0  0  0  0  0  0  0
   -2.6490   23.4010  -28.3700 C   0  0  0  0  0  0  0  0  0  0  0  0
   -2.5290   24.3620  -29.3090 N   0  0  0  0  0  0  0  0  0  0  0  0
   -3.7350   24.7120  -29.8280 C   0  0  0  0  0  0  0  0  0  0  0  0
   -3.8560   25.6710  -30.8260 O   0  0  0  0  0  0  0  0  0  0  0  0
   -4.8240   24.0340  -29.2840 C   0  0  0  0  0  0  0  0  0  0  0  0
   -6.2540   24.1630  -29.7100 C   0  0  0  0  0  0  0  0  0  0  0  0
   -6.6420   23.0000  -30.5810 C   0  0  0  0  0  0  0  0  0  0  0  0
   -5.7840   22.5620  -31.6020 C   0  0  0  0  0  0  0  0  0  0  0  0
   -6.1290   21.4590  -32.3880 C   0  0  0  0  0  0  0  0  0  0  0  0
   -7.3410   20.7800  -32.1660 C   0  0  0  0  0  0  0  0  0  0  0  0
   -7.7140   19.6600  -32.9220 O   0  0  0  0  0  0  0  0  0  0  0  0
   -6.8440   18.6560  -33.3710 C   0  0  0  0  0  0  0  0  0  0  0  0
   -5.7310   19.0230  -34.1380 C   0  0  0  0  0  0  0  0  0  0  0  0
   -4.8360   18.0520  -34.5950 C   0  0  0  0  0  0  0  0  0  0  0  0
   -5.0410   16.7040  -34.2800 C   0  0  0  0  0  0  0  0  0  0  0  0
   -3.9000   15.4580  -34.8780 S   0  0  0  0  0  0  0  0  0  0  0  0
   -4.4570   14.2430  -33.6830 C   0  0  0  0  0  0  0  0  0  0  0  0
   -5.4130   13.2870  -34.0480 C   0  0  0  0  0  0  0  0  0  0  0  0
   -5.8530   12.3440  -33.1130 C   0  0  0  0  0  0  0  0  0  0  0  0
   -5.3360   12.3520  -31.8140 C   0  0  0  0  0  0  0  0  0  0  0  0
   -4.3780   13.3040  -31.4490 C   0  0  0  0  0  0  0  0  0  0  0  0
   -3.8770   13.3130  -30.1890 F   0  0  0  0  0  0  0  0  0  0  0  0
   -3.9370   14.2480  -32.3830 C   0  0  0  0  0  0  0  0  0  0  0  0
   -6.1360   16.3320  -33.4920 C   0  0  0  0  0  0  0  0  0  0  0  0
   -7.0320   17.3030  -33.0350 C   0  0  0  0  0  0  0  0  0  0  0  0
   -8.1800   21.2000  -31.1280 C   0  0  0  0  0  0  0  0  0  0  0  0
   -7.8370   22.3030  -30.3410 C   0  0  0  0  0  0  0  0  0  0  0  0
   -4.2480   22.9390  -28.1350 S   0  0  0  0  0  0  0  0  0  0  0  0
   -1.6200   24.7810  -29.6090 H   0  0  0  0  0  0  0  0  0  0  0  0
   -6.8987   24.1809  -28.8189 H   0  0  0  0  0  0  0  0  0  0  0  0
   -6.3765   25.0957  -30.2801 H   0  0  0  0  0  0  0  0  0  0  0  0
   -4.8359   23.0892  -31.7843 H   0  0  0  0  0  0  0  0  0  0  0  0
   -5.4496   21.1202  -33.1840 H   0  0  0  0  0  0  0  0  0  0  0  0
   -5.5604   20.0819  -34.3821 H   0  0  0  0  0  0  0  0  0  0  0  0
   -3.9687   18.3478  -35.2035 H   0  0  0  0  0  0  0  0  0  0  0  0
   -5.8182   13.2775  -35.0706 H   0  0  0  0  0  0  0  0  0  0  0  0
   -6.6063   11.5956  -33.4001 H   0  0  0  0  0  0  0  0  0  0  0  0
   -5.6823   11.6101  -31.0793 H   0  0  0  0  0  0  0  0  0  0  0  0
   -3.1816   14.9942  -32.0958 H   0  0  0  0  0  0  0  0  0  0  0  0
   -6.2919   15.2746  -33.2319 H   0  0  0  0  0  0  0  0  0  0  0  0
   -7.8877   17.0077  -32.4100 H   0  0  0  0  0  0  0  0  0  0  0  0
   -9.1165   20.6581  -30.9299 H   0  0  0  0  0  0  0  0  0  0  0  0
   -8.5062   22.6264  -29.5301 H   0  0  0  0  0  0  0  0  0  0  0  0
  1  2  2  0
  2  3  1  0
  3  4  1  0
  4  5  1  0
  4  6  2  0
  6  7  1  0
  7  8  1  0
  8  9  2  0
  9 10  1  0
 10 11  2  0
 11 12  1  0
 12 13  1  0
 13 14  2  0
 14 15  1  0
 15 16  2  0
 16 17  1  0
 17 18  1  0
 18 19  2  0
 19 20  1  0
 20 21  2  0
 21 22  1  0
 22 23  1  0
 22 24  2  0
 16 25  1  0
 25 26  2  0
 11 27  1  0
 27 28  2  0
  6 29  1  0
 29  2  1  0
 28  8  1  0
 26 13  1  0
 24 18  1  0
  3 30  1  0
  7 31  1  0
  7 32  1  0
  9 33  1  0
 10 34  1  0
 14 35  1  0
 15 36  1  0
 19 37  1  0
 20 38  1  0
 21 39  1  0
 24 40  1  0
 25 41  1  0
 26 42  1  0
 27 43  1  0
 28 44  1  0
M  CHG  1   5  -1
M  END
>  <UniqueID>  (24) 
23

>  <SMILES>  (24) 
O=c1[nH]c([O-])c(Cc2ccc(Oc3ccc(Sc4cccc(F)c4)cc3)cc2)s1

>  <Energy>  (24) 
79.48632958283297

>  <Genealogy>  (24) 
O=c1[nH]c([O-])c(Cc2ccc(Oc3ccc(Sc4cccc(F)c4)cc3)cc2)s1 (protonated)
O=c1[nH]c([O-])c(Cc2ccc(Oc3ccc(Sc4cccc(F)c4)cc3)cc2)s1 (3D coordinates assigned)
O=c1[nH]c([O-])c(Cc2ccc(Oc3ccc(Sc4cccc(F)c4)cc3)cc2)s1 (optimized conformer: 79.48632958283297 kcal/mol)

>  <smiles>  (24) 
O=c1[nH]c(O)c(Cc2ccc(Oc3ccc(Sc4cccc(F)c4)cc3)cc2)s1

>  <score_type>  (24) 
oracle

>  <origin>  (24) 
adgpu

>  <m_score__min__energy>  (24) 
-12.199999999999999

>  <m_primary>  (24) 
energy

$$$$
24:0
     RDKit          3D

 35 37  0  0  0  0  0  0  0  0999 V2000
   -6.8780   17.0950  -33.0430 C   0  0  0  0  0  0  0  0  0  0  0  0
   -7.1580   18.5410  -32.7660 C   0  0  0  0  0  0  0  0  0  0  0  0
   -6.1550   19.5030  -32.9500 C   0  0  0  0  0  0  0  0  0  0  0  0
   -6.4150   20.8520  -32.6920 C   0  0  0  0  0  0  0  0  0  0  0  0
   -7.6840   21.2570  -32.2500 C   0  0  0  0  0  0  0  0  0  0  0  0
   -7.9840   22.7170  -32.0350 C   0  0  0  0  0  0  0  0  0  0  0  0
   -7.3330   23.3180  -30.4290 S   0  0  0  0  0  0  0  0  0  0  0  0
   -5.9050   24.2590  -31.0840 C   0  0  0  0  0  0  0  0  0  0  0  0
   -4.7990   24.3280  -30.0780 C   0  0  0  0  0  0  0  0  0  0  0  0
   -3.4910   24.4760  -30.4210 N   0  0  0  0  0  0  0  0  0  0  0  0
   -2.8790   24.5510  -29.2260 C   0  0  0  0  0  0  0  0  0  0  0  0
   -1.5260   24.7670  -28.9750 C   0  0  0  0  0  0  0  0  0  0  0  0
   -1.1200   24.8670  -27.6300 C   0  0  0  0  0  0  0  0  0  0  0  0
   -2.0660   24.7540  -26.5850 C   0  0  0  0  0  0  0  0  0  0  0  0
   -3.4270   24.5400  -26.8760 C   0  0  0  0  0  0  0  0  0  0  0  0
   -3.7880   24.4410  -28.2180 C   0  0  0  0  0  0  0  0  0  0  0  0
   -5.0110   24.2890  -28.7390 N   0  0  0  0  0  0  0  0  0  0  0  0
   -8.6720   20.2870  -32.0160 C   0  0  0  0  0  0  0  0  0  0  0  0
   -8.4090   18.9370  -32.2690 C   0  0  0  0  0  0  0  0  0  0  0  0
   -6.7731   16.5530  -32.0915 H   0  0  0  0  0  0  0  0  0  0  0  0
   -7.7095   16.6646  -33.6204 H   0  0  0  0  0  0  0  0  0  0  0  0
   -5.9459   17.0061  -33.6204 H   0  0  0  0  0  0  0  0  0  0  0  0
   -5.1585   19.1947  -33.2991 H   0  0  0  0  0  0  0  0  0  0  0  0
   -5.6212   21.5997  -32.8361 H   0  0  0  0  0  0  0  0  0  0  0  0
   -7.5219   23.2985  -32.8464 H   0  0  0  0  0  0  0  0  0  0  0  0
   -9.0766   22.8439  -32.0296 H   0  0  0  0  0  0  0  0  0  0  0  0
   -5.5338   23.7626  -31.9927 H   0  0  0  0  0  0  0  0  0  0  0  0
   -6.2356   25.2833  -31.3110 H   0  0  0  0  0  0  0  0  0  0  0  0
   -0.8009   24.8562  -29.7974 H   0  0  0  0  0  0  0  0  0  0  0  0
   -0.0594   25.0342  -27.3907 H   0  0  0  0  0  0  0  0  0  0  0  0
   -1.7367   24.8338  -25.5385 H   0  0  0  0  0  0  0  0  0  0  0  0
   -4.1760   24.4543  -26.0750 H   0  0  0  0  0  0  0  0  0  0  0  0
   -5.9200   24.2060  -28.2320 H   0  0  0  0  0  0  0  0  0  0  0  0
   -9.6571   20.5904  -31.6320 H   0  0  0  0  0  0  0  0  0  0  0  0
   -9.1861   18.1824  -32.0776 H   0  0  0  0  0  0  0  0  0  0  0  0
  1  2  1  0
  2  3  2  0
  3  4  1  0
  4  5  2  0
  5  6  1  0
  6  7  1  0
  7  8  1  0
  8  9  1  0
  9 10  2  0
 10 11  1  0
 11 12  2  0
 12 13  1  0
 13 14  2  0
 14 15  1  0
 15 16  2  0
 16 17  1  0
  5 18  1  0
 18 19  2  0
 19  2  1  0
 17  9  1  0
 16 11  1  0
  1 20  1  0
  1 21  1  0
  1 22  1  0
  3 23  1  0
  4 24  1  0
  6 25  1  0
  6 26  1  0
  8 27  1  0
  8 28  1  0
 12 29  1  0
 13 30  1  0
 14 31  1  0
 15 32  1  0
 17 33  1  0
 18 34  1  0
 19 35  1  0
M  END
>  <UniqueID>  (25) 
24

>  <SMILES>  (25) 
Cc1ccc(CSCc2nc3ccccc3[nH]2)cc1

>  <Energy>  (25) 
63.99076468376339

>  <Genealogy>  (25) 
Cc1ccc(CSCc2nc3ccccc3[nH]2)cc1 (3D coordinates assigned)
Cc1ccc(CSCc2nc3ccccc3[nH]2)cc1 (optimized conformer: 63.99076468376339 kcal/mol)

>  <smiles>  (25) 
Cc1ccc(CSCc2nc3ccccc3[nH]2)cc1

>  <score_type>  (25) 
oracle

>  <origin>  (25) 
adgpu

>  <m_score__min__energy>  (25) 
-7.9500000000000002

>  <m_primary>  (25) 
energy

$$$$
25:0
     RDKit          3D

 47 50  0  0  0  0  0  0  0  0999 V2000
   -9.4930   20.2860  -32.1730 O   0  0  0  0  0  0  0  0  0  0  0  0
   -8.2470   20.3610  -32.3420 C   0  0  0  0  0  0  0  0  0  0  0  0
   -7.5850   19.3310  -33.0900 N   0  0  0  0  0  0  0  0  0  0  0  0
   -6.5470   18.4460  -32.5670 C   0  0  0  0  0  0  0  0  0  0  0  0
   -5.2200   19.1350  -32.5800 C   0  0  0  0  0  0  0  0  0  0  0  0
   -4.7100   19.7650  -31.4900 N   0  0  0  0  0  0  0  0  0  0  0  0
   -3.5680   20.2840  -31.9640 C   0  0  0  0  0  0  0  0  0  0  0  0
   -2.6340   21.0530  -31.2800 C   0  0  0  0  0  0  0  0  0  0  0  0
   -1.5060   21.5030  -31.9930 C   0  0  0  0  0  0  0  0  0  0  0  0
   -1.3490   21.1760  -33.3590 C   0  0  0  0  0  0  0  0  0  0  0  0
   -2.3200   20.4000  -34.0200 C   0  0  0  0  0  0  0  0  0  0  0  0
   -3.4200   19.9710  -33.2790 C   0  0  0  0  0  0  0  0  0  0  0  0
   -4.4610   19.2410  -33.7040 N   0  0  0  0  0  0  0  0  0  0  0  0
   -7.5180   21.5220  -31.8020 C   0  0  0  0  0  0  0  0  0  0  0  0
   -7.8460   22.0280  -30.5350 C   0  0  0  0  0  0  0  0  0  0  0  0
   -7.1680   23.1390  -30.0230 C   0  0  0  0  0  0  0  0  0  0  0  0
   -6.1420   23.7410  -30.7630 C   0  0  0  0  0  0  0  0  0  0  0  0
   -5.2830   25.1270  -30.0980 S   0  0  0  0  0  0  0  0  0  0  0  0
   -5.5870   25.2980  -28.6340 O   0  0  0  0  0  0  0  0  0  0  0  0
   -5.7290   26.3640  -30.8250 O   0  0  0  0  0  0  0  0  0  0  0  0
   -3.5740   24.9290  -30.3120 N   0  0  0  0  0  0  0  0  0  0  0  0
   -2.6820   24.3220  -29.3670 C   0  0  0  0  0  0  0  0  0  0  0  0
   -1.5830   25.0610  -28.9170 C   0  0  0  0  0  0  0  0  0  0  0  0
   -0.6690   24.4980  -28.0240 C   0  0  0  0  0  0  0  0  0  0  0  0
   -0.8510   23.1920  -27.5660 C   0  0  0  0  0  0  0  0  0  0  0  0
   -1.9590   22.4390  -27.9880 C   0  0  0  0  0  0  0  0  0  0  0  0
   -2.1190   21.0040  -27.5490 C   0  0  0  0  0  0  0  0  0  0  0  0
   -1.4910   20.8270  -26.3300 F   0  0  0  0  0  0  0  0  0  0  0  0
   -3.4590   20.6800  -27.4160 F   0  0  0  0  0  0  0  0  0  0  0  0
   -1.5570   20.1420  -28.4740 F   0  0  0  0  0  0  0  0  0  0  0  0
   -2.8650   23.0080  -28.9000 C   0  0  0  0  0  0  0  0  0  0  0  0
   -5.8010   23.2240  -32.0210 C   0  0  0  0  0  0  0  0  0  0  0  0
   -6.4870   22.1220  -32.5400 C   0  0  0  0  0  0  0  0  0  0  0  0
   -6.7984   18.1630  -31.5342 H   0  0  0  0  0  0  0  0  0  0  0  0
   -6.4898   17.5490  -33.2012 H   0  0  0  0  0  0  0  0  0  0  0  0
   -2.7712   21.3018  -30.2173 H   0  0  0  0  0  0  0  0  0  0  0  0
   -0.7438   22.1117  -31.4845 H   0  0  0  0  0  0  0  0  0  0  0  0
   -0.4639   21.5295  -33.9083 H   0  0  0  0  0  0  0  0  0  0  0  0
   -2.2144   20.1413  -35.0839 H   0  0  0  0  0  0  0  0  0  0  0  0
   -8.6393   21.5491  -29.9422 H   0  0  0  0  0  0  0  0  0  0  0  0
   -7.4412   23.5413  -29.0363 H   0  0  0  0  0  0  0  0  0  0  0  0
   -1.4377   26.0930  -29.2691 H   0  0  0  0  0  0  0  0  0  0  0  0
    0.1959   25.0847  -27.6809 H   0  0  0  0  0  0  0  0  0  0  0  0
   -0.1224   22.7500  -26.8705 H   0  0  0  0  0  0  0  0  0  0  0  0
   -3.7254   22.4198  -29.2518 H   0  0  0  0  0  0  0  0  0  0  0  0
   -4.9902   23.6876  -32.6021 H   0  0  0  0  0  0  0  0  0  0  0  0
   -6.2176   21.7244  -33.5296 H   0  0  0  0  0  0  0  0  0  0  0  0
  1  2  2  0
  2  3  1  0
  3  4  1  0
  4  5  1  0
  5  6  2  0
  6  7  1  0
  7  8  2  0
  8  9  1  0
  9 10  2  0
 10 11  1  0
 11 12  2  0
 12 13  1  0
  2 14  1  0
 14 15  2  0
 15 16  1  0
 16 17  2  0
 17 18  1  0
 18 19  2  0
 18 20  2  0
 18 21  1  0
 21 22  1  0
 22 23  2  0
 23 24  1  0
 24 25  2  0
 25 26  1  0
 26 27  1  0
 27 28  1  0
 27 29  1  0
 27 30  1  0
 26 31  2  0
 17 32  1  0
 32 33  2  0
 13  5  1  0
 33 14  1  0
 12  7  1  0
 31 22  1  0
  4 34  1  0
  4 35  1  0
  8 36  1  0
  9 37  1  0
 10 38  1  0
 11 39  1  0
 15 40  1  0
 16 41  1  0
 23 42  1  0
 24 43  1  0
 25 44  1  0
 31 45  1  0
 32 46  1  0
 33 47  1  0
M  CHG  3   3  -1  13  -1  21  -1
M  END
>  <UniqueID>  (26) 
25

>  <SMILES>  (26) 
O=C([N-]Cc1nc2ccccc2[n-]1)c1ccc(S(=O)(=O)[N-]c2cccc(C(F)(F)F)c2)cc1

>  <Energy>  (26) 
88.1196328998784

>  <Genealogy>  (26) 
O=C([N-]Cc1nc2ccccc2[n-]1)c1ccc(S(=O)(=O)[N-]c2cccc(C(F)(F)F)c2)cc1 (protonated)
O=C([N-]Cc1nc2ccccc2[n-]1)c1ccc(S(=O)(=O)[N-]c2cccc(C(F)(F)F)c2)cc1 (3D coordinates assigned)
O=C([N-]Cc1nc2ccccc2[n-]1)c1ccc(S(=O)(=O)[N-]c2cccc(C(F)(F)F)c2)cc1 (optimized conformer: 88.1196328998784 kcal/mol)

>  <smiles>  (26) 
O=C(NCc1nc2ccccc2[nH]1)c1ccc(S(=O)(=O)Nc2cccc(C(F)(F)F)c2)cc1

>  <score_type>  (26) 
oracle

>  <origin>  (26) 
adgpu

>  <m_score__min__energy>  (26) 
-13.050000000000001

>  <m_primary>  (26) 
energy

$$$$
26:0
     RDKit          3D

 62 65  0  0  0  0  0  0  0  0999 V2000
   -1.9240   19.9850  -26.7140 C   0  0  0  0  0  0  0  0  0  0  0  0
   -0.8910   20.9150  -26.4030 O   0  0  0  0  0  0  0  0  0  0  0  0
   -0.9480   22.2910  -26.6740 C   0  0  0  0  0  0  0  0  0  0  0  0
   -1.5650   22.7930  -27.8330 C   0  0  0  0  0  0  0  0  0  0  0  0
   -1.5960   24.1680  -28.0870 C   0  0  0  0  0  0  0  0  0  0  0  0
   -2.2700   24.6870  -29.3310 C   0  0  0  0  0  0  0  0  0  0  0  0
   -3.6670   24.2710  -29.3660 N   0  0  0  0  0  0  0  0  0  0  0  0
   -4.5430   24.5250  -30.4720 C   0  0  0  0  0  0  0  0  0  0  0  0
   -4.5620   25.6640  -31.0140 O   0  0  0  0  0  0  0  0  0  0  0  0
   -5.4060   23.4420  -30.9740 C   0  0  0  0  0  0  0  0  0  0  0  0
   -6.7880   23.4540  -30.9900 C   0  0  0  0  0  0  0  0  0  0  0  0
   -7.2440   22.2700  -31.4390 N   0  0  0  0  0  0  0  0  0  0  0  0
   -6.1970   21.5040  -31.7180 N   0  0  0  0  0  0  0  0  0  0  0  0
   -6.3340   20.1790  -32.2610 C   0  0  0  0  0  0  0  0  0  0  0  0
   -7.3200   19.3220  -31.7580 C   0  0  0  0  0  0  0  0  0  0  0  0
   -7.4800   18.0400  -32.2860 C   0  0  0  0  0  0  0  0  0  0  0  0
   -6.6620   17.5920  -33.3380 C   0  0  0  0  0  0  0  0  0  0  0  0
   -6.8610   16.2040  -33.8890 C   0  0  0  0  0  0  0  0  0  0  0  0
   -5.6760   18.4580  -33.8660 C   0  0  0  0  0  0  0  0  0  0  0  0
   -4.7880   18.0260  -35.0040 C   0  0  0  0  0  0  0  0  0  0  0  0
   -5.5310   19.7480  -33.3280 C   0  0  0  0  0  0  0  0  0  0  0  0
   -5.0560   22.1820  -31.4440 C   0  0  0  0  0  0  0  0  0  0  0  0
   -3.6890   21.6310  -31.5610 C   0  0  0  0  0  0  0  0  0  0  0  0
   -3.0400   21.0970  -30.4380 C   0  0  0  0  0  0  0  0  0  0  0  0
   -1.7390   20.6040  -30.5670 C   0  0  0  0  0  0  0  0  0  0  0  0
   -1.1060   20.6520  -31.7690 N   0  0  0  0  0  0  0  0  0  0  0  0
   -1.7090   21.1720  -32.8710 C   0  0  0  0  0  0  0  0  0  0  0  0
   -3.0120   21.6690  -32.7880 C   0  0  0  0  0  0  0  0  0  0  0  0
   -1.0150   25.0510  -27.1700 C   0  0  0  0  0  0  0  0  0  0  0  0
   -0.3990   24.5730  -25.9950 C   0  0  0  0  0  0  0  0  0  0  0  0
    0.1820   25.4610  -25.0750 O   0  0  0  0  0  0  0  0  0  0  0  0
   -0.4820   26.0180  -23.9430 C   0  0  0  0  0  0  0  0  0  0  0  0
   -0.3690   23.1750  -25.7480 C   0  0  0  0  0  0  0  0  0  0  0  0
    0.2180   22.5970  -24.6050 O   0  0  0  0  0  0  0  0  0  0  0  0
   -0.4420   22.2720  -23.3850 C   0  0  0  0  0  0  0  0  0  0  0  0
   -2.3582   19.5941  -25.7820 H   0  0  0  0  0  0  0  0  0  0  0  0
   -2.7067   20.4888  -27.3001 H   0  0  0  0  0  0  0  0  0  0  0  0
   -1.5048   19.1539  -27.3001 H   0  0  0  0  0  0  0  0  0  0  0  0
   -2.0284   22.0970  -28.5478 H   0  0  0  0  0  0  0  0  0  0  0  0
   -2.2192   25.7858  -29.3387 H   0  0  0  0  0  0  0  0  0  0  0  0
   -1.7546   24.2775  -30.2122 H   0  0  0  0  0  0  0  0  0  0  0  0
   -7.4186   24.3014  -30.6828 H   0  0  0  0  0  0  0  0  0  0  0  0
   -7.9734   19.6614  -30.9407 H   0  0  0  0  0  0  0  0  0  0  0  0
   -8.2532   17.3740  -31.8753 H   0  0  0  0  0  0  0  0  0  0  0  0
   -6.9633   15.4907  -33.0579 H   0  0  0  0  0  0  0  0  0  0  0  0
   -7.7716   16.1814  -34.5057 H   0  0  0  0  0  0  0  0  0  0  0  0
   -5.9935   15.9265  -34.5057 H   0  0  0  0  0  0  0  0  0  0  0  0
   -3.8675   17.5782  -34.6012 H   0  0  0  0  0  0  0  0  0  0  0  0
   -5.3170   17.2846  -35.6208 H   0  0  0  0  0  0  0  0  0  0  0  0
   -4.5312   18.8998  -35.6208 H   0  0  0  0  0  0  0  0  0  0  0  0
   -4.7774   20.4296  -33.7492 H   0  0  0  0  0  0  0  0  0  0  0  0
   -3.5508   21.0666  -29.4643 H   0  0  0  0  0  0  0  0  0  0  0  0
   -1.2256   20.1758  -29.6935 H   0  0  0  0  0  0  0  0  0  0  0  0
   -1.1701   21.2014  -33.8295 H   0  0  0  0  0  0  0  0  0  0  0  0
   -3.5032   22.0871  -33.6790 H   0  0  0  0  0  0  0  0  0  0  0  0
   -1.0391   26.1327  -27.3684 H   0  0  0  0  0  0  0  0  0  0  0  0
   -0.0219   25.6320  -23.0214 H   0  0  0  0  0  0  0  0  0  0  0  0
   -0.3910   27.1140  -23.9671 H   0  0  0  0  0  0  0  0  0  0  0  0
   -1.5454   25.7378  -23.9671 H   0  0  0  0  0  0  0  0  0  0  0  0
    0.1849   22.5807  -22.5355 H   0  0  0  0  0  0  0  0  0  0  0  0
   -1.4070   22.7979  -23.3388 H   0  0  0  0  0  0  0  0  0  0  0  0
   -0.6135   21.1864  -23.3388 H   0  0  0  0  0  0  0  0  0  0  0  0
  1  2  1  0
  2  3  1  0
  3  4  2  0
  4  5  1  0
  5  6  1  0
  6  7  1  0
  7  8  1  0
  8  9  2  0
  8 10  1  0
 10 11  1  0
 11 12  2  0
 12 13  1  0
 13 14  1  0
 14 15  2  0
 15 16  1  0
 16 17  2  0
 17 18  1  0
 17 19  1  0
 19 20  1  0
 19 21  2  0
 13 22  1  0
 22 23  1  0
 23 24  2  0
 24 25  1  0
 25 26  2  0
 26 27  1  0
 27 28  2  0
  5 29  2  0
 29 30  1  0
 30 31  1  0
 31 32  1  0
 30 33  2  0
 33 34  1  0
 34 35  1  0
 33  3  1  0
 22 10  2  0
 28 23  1  0
 21 14  1  0
  1 36  1  0
  1 37  1  0
  1 38  1  0
  4 39  1  0
  6 40  1  0
  6 41  1  0
 11 42  1  0
 15 43  1  0
 16 44  1  0
 18 45  1  0
 18 46  1  0
 18 47  1  0
 20 48  1  0
 20 49  1  0
 20 50  1  0
 21 51  1  0
 24 52  1  0
 25 53  1  0
 27 54  1  0
 28 55  1  0
 29 56  1  0
 32 57  1  0
 32 58  1  0
 32 59  1  0
 35 60  1  0
 35 61  1  0
 35 62  1  0
M  CHG  1   7  -1
M  END
>  <UniqueID>  (27) 
26

>  <SMILES>  (27) 
COc1cc(C[N-]C(=O)c2cnn(-c3ccc(C)c(C)c3)c2-c2ccncc2)cc(OC)c1OC

>  <Energy>  (27) 
106.65935713169472

>  <Genealogy>  (27) 
COc1cc(C[N-]C(=O)c2cnn(-c3ccc(C)c(C)c3)c2-c2ccncc2)cc(OC)c1OC (protonated)
COc1cc(C[N-]C(=O)c2cnn(-c3ccc(C)c(C)c3)c2-c2ccncc2)cc(OC)c1OC (3D coordinates assigned)
COc1cc(C[N-]C(=O)c2cnn(-c3ccc(C)c(C)c3)c2-c2ccncc2)cc(OC)c1OC (optimized conformer: 106.65935713169472 kcal/mol)

>  <smiles>  (27) 
COc1cc(CNC(=O)c2cnn(-c3ccc(C)c(C)c3)c2-c2ccncc2)cc(OC)c1OC

>  <score_type>  (27) 
oracle

>  <origin>  (27) 
adgpu

>  <m_score__min__energy>  (27) 
-10.51

>  <m_primary>  (27) 
energy

$$$$
27:0
     RDKit          3D

 50 52  0  0  0  0  0  0  0  0999 V2000
   -1.5980   25.7280  -25.3780 C   0  0  0  0  0  0  0  0  0  0  0  0
   -1.6060   24.8010  -26.5870 C   0  0  0  0  0  0  0  0  0  0  0  0
   -3.3150   24.4750  -27.1510 S   0  0  0  0  0  0  0  0  0  0  0  0
   -2.8460   23.3020  -28.4360 C   0  0  0  0  0  0  0  0  0  0  0  0
   -2.3050   22.0660  -28.0530 C   0  0  0  0  0  0  0  0  0  0  0  0
   -1.9680   21.1150  -29.0180 C   0  0  0  0  0  0  0  0  0  0  0  0
   -2.1750   21.3870  -30.3710 C   0  0  0  0  0  0  0  0  0  0  0  0
   -2.7250   22.6090  -30.7640 C   0  0  0  0  0  0  0  0  0  0  0  0
   -3.0730   23.5770  -29.8030 C   0  0  0  0  0  0  0  0  0  0  0  0
   -3.6450   24.8310  -30.2150 N   0  0  0  0  0  0  0  0  0  0  0  0
   -5.3520   25.1310  -30.1400 S   0  0  0  0  0  0  0  0  0  0  0  0
   -5.7570   25.3730  -28.7140 O   0  0  0  0  0  0  0  0  0  0  0  0
   -5.6770   26.3500  -30.9580 O   0  0  0  0  0  0  0  0  0  0  0  0
   -6.2100   23.7190  -30.7440 C   0  0  0  0  0  0  0  0  0  0  0  0
   -5.9730   23.2350  -32.0390 C   0  0  0  0  0  0  0  0  0  0  0  0
   -6.5840   22.0530  -32.4660 C   0  0  0  0  0  0  0  0  0  0  0  0
   -7.4300   21.3420  -31.6020 C   0  0  0  0  0  0  0  0  0  0  0  0
   -8.1170   19.7970  -32.1000 S   0  0  0  0  0  0  0  0  0  0  0  0
   -9.2000   19.4100  -31.1320 O   0  0  0  0  0  0  0  0  0  0  0  0
   -8.7490   19.9490  -33.4570 O   0  0  0  0  0  0  0  0  0  0  0  0
   -6.9130   18.5240  -32.1650 N   0  0  0  0  0  0  0  0  0  0  0  0
   -5.5910   18.9550  -31.6580 C   0  0  0  0  0  0  0  0  0  0  0  0
   -4.5790   19.2310  -32.7810 C   0  0  0  0  0  0  0  0  0  0  0  0
   -5.2420   19.6930  -33.9320 O   0  0  0  0  0  0  0  0  0  0  0  0
   -5.9860   18.6370  -34.5100 C   0  0  0  0  0  0  0  0  0  0  0  0
   -6.8570   17.8690  -33.4860 C   0  0  0  0  0  0  0  0  0  0  0  0
   -7.6930   21.8480  -30.3220 C   0  0  0  0  0  0  0  0  0  0  0  0
   -7.0830   23.0280  -29.8940 C   0  0  0  0  0  0  0  0  0  0  0  0
   -1.6032   25.1281  -24.4560 H   0  0  0  0  0  0  0  0  0  0  0  0
   -0.6944   26.3548  -25.4026 H   0  0  0  0  0  0  0  0  0  0  0  0
   -2.4906   26.3703  -25.4026 H   0  0  0  0  0  0  0  0  0  0  0  0
   -1.0408   25.2716  -27.4050 H   0  0  0  0  0  0  0  0  0  0  0  0
   -1.1434   23.8454  -26.2992 H   0  0  0  0  0  0  0  0  0  0  0  0
   -2.1455   21.8449  -26.9873 H   0  0  0  0  0  0  0  0  0  0  0  0
   -1.5386   20.1498  -28.7113 H   0  0  0  0  0  0  0  0  0  0  0  0
   -1.9045   20.6375  -31.1293 H   0  0  0  0  0  0  0  0  0  0  0  0
   -2.8874   22.8166  -31.8320 H   0  0  0  0  0  0  0  0  0  0  0  0
   -3.0280   25.6480  -30.4200 H   0  0  0  0  0  0  0  0  0  0  0  0
   -5.3061   23.7859  -32.7185 H   0  0  0  0  0  0  0  0  0  0  0  0
   -6.4008   21.6785  -33.4839 H   0  0  0  0  0  0  0  0  0  0  0  0
   -5.7237   19.8760  -31.0713 H   0  0  0  0  0  0  0  0  0  0  0  0
   -5.1889   18.1336  -31.0468 H   0  0  0  0  0  0  0  0  0  0  0  0
   -3.8621   19.9942  -32.4441 H   0  0  0  0  0  0  0  0  0  0  0  0
   -4.0494   18.2978  -33.0231 H   0  0  0  0  0  0  0  0  0  0  0  0
   -6.6455   19.0573  -35.2836 H   0  0  0  0  0  0  0  0  0  0  0  0
   -5.2636   17.9194  -34.9261 H   0  0  0  0  0  0  0  0  0  0  0  0
   -7.8801   17.7946  -33.8832 H   0  0  0  0  0  0  0  0  0  0  0  0
   -6.3973   16.8801  -33.3418 H   0  0  0  0  0  0  0  0  0  0  0  0
   -8.3826   21.3133  -29.6523 H   0  0  0  0  0  0  0  0  0  0  0  0
   -7.2885   23.4168  -28.8857 H   0  0  0  0  0  0  0  0  0  0  0  0
  1  2  1  0
  2  3  1  0
  3  4  1  0
  4  5  2  0
  5  6  1  0
  6  7  2  0
  7  8  1  0
  8  9  2  0
  9 10  1  0
 10 11  1  0
 11 12  2  0
 11 13  2  0
 11 14  1  0
 14 15  2  0
 15 16  1  0
 16 17  2  0
 17 18  1  0
 18 19  2  0
 18 20  2  0
 18 21  1  0
 21 22  1  0
 22 23  1  0
 23 24  1  0
 24 25  1  0
 25 26  1  0
 17 27  1  0
 27 28  2  0
  9  4  1  0
 28 14  1  0
 26 21  1  0
  1 29  1  0
  1 30  1  0
  1 31  1  0
  2 32  1  0
  2 33  1  0
  5 34  1  0
  6 35  1  0
  7 36  1  0
  8 37  1  0
 10 38  1  0
 15 39  1  0
 16 40  1  0
 22 41  1  0
 22 42  1  0
 23 43  1  0
 23 44  1  0
 25 45  1  0
 25 46  1  0
 26 47  1  0
 26 48  1  0
 27 49  1  0
 28 50  1  0
M  END
>  <UniqueID>  (28) 
27

>  <SMILES>  (28) 
CCSc1ccccc1NS(=O)(=O)c1ccc(S(=O)(=O)N2CCOCC2)cc1

>  <Energy>  (28) 
57.151452661208296

>  <Genealogy>  (28) 
CCSc1ccccc1NS(=O)(=O)c1ccc(S(=O)(=O)N2CCOCC2)cc1 (3D coordinates assigned)
CCSc1ccccc1NS(=O)(=O)c1ccc(S(=O)(=O)N2CCOCC2)cc1 (nonaromatic ring conformer: 57.151452661208296 kcal/mol)

>  <smiles>  (28) 
CCSc1ccccc1NS(=O)(=O)c1ccc(S(=O)(=O)N2CCOCC2)cc1

>  <score_type>  (28) 
oracle

>  <origin>  (28) 
adgpu

>  <m_score__min__energy>  (28) 
-10.199999999999999

>  <m_primary>  (28) 
energy

$$$$
28:0
     RDKit          3D

 29 31  0  0  0  0  0  0  0  0999 V2000
   -8.8960   21.8250  -31.5780 C   0  0  0  0  0  0  0  0  0  0  0  0
   -7.5400   22.4800  -31.6210 C   0  0  0  0  0  0  0  0  0  0  0  0
   -7.4200   23.7760  -31.2310 C   0  0  0  0  0  0  0  0  0  0  0  0
   -6.1170   24.5530  -31.3680 C   0  0  0  0  0  0  0  0  0  0  0  0
   -4.9260   23.6340  -31.2680 C   0  0  0  0  0  0  0  0  0  0  0  0
   -3.7070   23.9880  -30.6520 C   0  0  0  0  0  0  0  0  0  0  0  0
   -3.4910   25.2990  -30.2380 O   0  0  0  0  0  0  0  0  0  0  0  0
   -2.7170   22.9930  -30.4260 C   0  0  0  0  0  0  0  0  0  0  0  0
   -1.4370   23.3420  -29.7220 C   0  0  0  0  0  0  0  0  0  0  0  0
   -2.9920   21.6460  -30.7560 C   0  0  0  0  0  0  0  0  0  0  0  0
   -4.1920   21.3530  -31.4030 C   0  0  0  0  0  0  0  0  0  0  0  0
   -5.0840   22.3290  -31.7140 C   0  0  0  0  0  0  0  0  0  0  0  0
   -6.3500   21.7600  -32.2390 C   0  0  1  0  0  0  0  0  0  0  0  0
   -6.1870   20.2520  -31.8990 C   0  0  0  0  0  0  0  0  0  0  0  0
   -4.7680   20.0730  -31.5750 N   0  0  0  0  0  0  0  0  0  0  0  0
   -9.1994   21.6785  -30.5309 H   0  0  0  0  0  0  0  0  0  0  0  0
   -9.6300   22.4679  -32.0859 H   0  0  0  0  0  0  0  0  0  0  0  0
   -8.8487   20.8504  -32.0859 H   0  0  0  0  0  0  0  0  0  0  0  0
   -8.2962   24.2829  -30.8004 H   0  0  0  0  0  0  0  0  0  0  0  0
   -6.1005   25.0580  -32.3451 H   0  0  0  0  0  0  0  0  0  0  0  0
   -6.0608   25.2890  -30.5524 H   0  0  0  0  0  0  0  0  0  0  0  0
   -1.5935   23.2993  -28.6340 H   0  0  0  0  0  0  0  0  0  0  0  0
   -0.6538   22.6246  -30.0082 H   0  0  0  0  0  0  0  0  0  0  0  0
   -1.1263   24.3577  -30.0082 H   0  0  0  0  0  0  0  0  0  0  0  0
   -2.2764   20.8482  -30.5083 H   0  0  0  0  0  0  0  0  0  0  0  0
   -6.5436   21.8849  -33.3146 H   0  0  0  0  0  0  0  0  0  0  0  0
   -6.8148   19.9825  -31.0369 H   0  0  0  0  0  0  0  0  0  0  0  0
   -6.4980   19.6097  -32.7361 H   0  0  0  0  0  0  0  0  0  0  0  0
   -4.3350   19.1750  -31.2670 H   0  0  0  0  0  0  0  0  0  0  0  0
  1  2  1  0
  2  3  2  0
  3  4  1  0
  4  5  1  0
  5  6  2  0
  6  7  1  0
  6  8  1  0
  8  9  1  0
  8 10  2  0
 10 11  1  0
 11 12  2  0
 12 13  1  0
 13 14  1  0
 14 15  1  0
 13  2  1  0
 12  5  1  0
 15 11  1  0
  1 16  1  0
  1 17  1  0
  1 18  1  0
  3 19  1  0
  4 20  1  0
  4 21  1  0
  9 22  1  0
  9 23  1  0
  9 24  1  0
 10 25  1  0
 13 26  1  6
 14 27  1  0
 14 28  1  0
 15 29  1  0
M  CHG  1   7  -1
M  END
>  <UniqueID>  (29) 
28

>  <SMILES>  (29) 
CC1=CCc2c([O-])c(C)cc3c2[C@H]1CN3

>  <Energy>  (29) 
53.450291143203984

>  <Genealogy>  (29) 
CC1=CCc2c([O-])c(C)cc3c2C1CN3 (protonated)
CC1=CCc2c([O-])c(C)cc3c2[C@H]1CN3 (chirality)
CC1=CCc2c([O-])c(C)cc3c2[C@H]1CN3 (3D coordinates assigned)
CC1=CCc2c([O-])c(C)cc3c2[C@H]1CN3 (nonaromatic ring conformer: 53.450291143203984 kcal/mol)

>  <smiles>  (29) 
CC1=CCc2c(O)c(C)cc3c2C1CN3

>  <score_type>  (29) 
oracle

>  <origin>  (29) 
adgpu

>  <m_score__min__energy>  (29) 
-9.1799999999999997

>  <m_primary>  (29) 
energy

$$$$
29:0
     RDKit          3D

 39 41  0  0  0  0  0  0  0  0999 V2000
   -0.7760   26.7550  -27.9730 C   0  0  0  0  0  0  0  0  0  0  0  0
   -1.3010   25.8890  -28.9740 O   0  0  0  0  0  0  0  0  0  0  0  0
   -2.0280   24.7190  -28.7100 C   0  0  0  0  0  0  0  0  0  0  0  0
   -1.6780   23.8370  -27.6690 C   0  0  0  0  0  0  0  0  0  0  0  0
   -2.4290   22.6820  -27.4420 C   0  0  0  0  0  0  0  0  0  0  0  0
   -3.5340   22.3930  -28.2450 C   0  0  0  0  0  0  0  0  0  0  0  0
   -3.9000   23.2600  -29.2880 C   0  0  0  0  0  0  0  0  0  0  0  0
   -5.0880   22.9250  -30.1640 C   0  0  0  0  0  0  0  0  0  0  0  0
   -4.8650   23.3190  -31.5810 N   0  0  2  0  0  0  0  0  0  0  0  0
   -6.1230   23.7350  -32.2410 C   0  0  0  0  0  0  0  0  0  0  0  0
   -7.1450   22.5900  -32.3400 C   0  0  0  0  0  0  0  0  0  0  0  0
   -6.5130   21.2830  -32.7430 C   0  0  0  0  0  0  0  0  0  0  0  0
   -7.3370   20.2020  -33.0910 C   0  0  0  0  0  0  0  0  0  0  0  0
   -6.7790   18.9620  -33.4090 C   0  0  0  0  0  0  0  0  0  0  0  0
   -5.3940   18.7880  -33.3750 C   0  0  0  0  0  0  0  0  0  0  0  0
   -4.5630   19.8540  -33.0200 C   0  0  0  0  0  0  0  0  0  0  0  0
   -5.1140   21.1010  -32.6850 C   0  0  0  0  0  0  0  0  0  0  0  0
   -4.1990   22.2600  -32.3730 C   0  0  0  0  0  0  0  0  0  0  0  0
   -3.1390   24.4240  -29.5150 C   0  0  0  0  0  0  0  0  0  0  0  0
   -3.4850   25.2960  -30.5440 O   0  0  0  0  0  0  0  0  0  0  0  0
   -1.0188   26.3546  -26.9777 H   0  0  0  0  0  0  0  0  0  0  0  0
    0.3162   26.8241  -28.0840 H   0  0  0  0  0  0  0  0  0  0  0  0
   -1.2199   27.7553  -28.0840 H   0  0  0  0  0  0  0  0  0  0  0  0
   -0.8091   24.0591  -27.0320 H   0  0  0  0  0  0  0  0  0  0  0  0
   -2.1491   21.9974  -26.6277 H   0  0  0  0  0  0  0  0  0  0  0  0
   -4.1212   21.4814  -28.0599 H   0  0  0  0  0  0  0  0  0  0  0  0
   -5.2662   21.8404  -30.1209 H   0  0  0  0  0  0  0  0  0  0  0  0
   -5.9560   23.4864  -29.7881 H   0  0  0  0  0  0  0  0  0  0  0  0
   -4.2360   24.1570  -31.5910 H   0  0  0  0  0  0  0  0  0  0  0  0
   -6.5696   24.5569  -31.6621 H   0  0  0  0  0  0  0  0  0  0  0  0
   -5.8740   24.0491  -33.2654 H   0  0  0  0  0  0  0  0  0  0  0  0
   -7.6260   22.4612  -31.3591 H   0  0  0  0  0  0  0  0  0  0  0  0
   -7.8749   22.8609  -33.1171 H   0  0  0  0  0  0  0  0  0  0  0  0
   -8.4291   20.3320  -33.1135 H   0  0  0  0  0  0  0  0  0  0  0  0
   -7.4315   18.1211  -33.6867 H   0  0  0  0  0  0  0  0  0  0  0  0
   -4.9566   17.8109  -33.6279 H   0  0  0  0  0  0  0  0  0  0  0  0
   -3.4719   19.7153  -33.0030 H   0  0  0  0  0  0  0  0  0  0  0  0
   -3.3371   21.8838  -31.8024 H   0  0  0  0  0  0  0  0  0  0  0  0
   -3.8910   22.7061  -33.3301 H   0  0  0  0  0  0  0  0  0  0  0  0
  1  2  1  0
  2  3  1  0
  3  4  2  0
  4  5  1  0
  5  6  2  0
  6  7  1  0
  7  8  1  0
  8  9  1  0
  9 10  1  0
 10 11  1  0
 11 12  1  0
 12 13  2  0
 13 14  1  0
 14 15  2  0
 15 16  1  0
 16 17  2  0
 17 18  1  0
  7 19  2  0
 19 20  1  0
 19  3  1  0
 18  9  1  0
 17 12  1  0
  1 21  1  0
  1 22  1  0
  1 23  1  0
  4 24  1  0
  5 25  1  0
  6 26  1  0
  8 27  1  0
  8 28  1  0
  9 29  1  1
 10 30  1  0
 10 31  1  0
 11 32  1  0
 11 33  1  0
 13 34  1  0
 14 35  1  0
 15 36  1  0
 16 37  1  0
 18 38  1  0
 18 39  1  0
M  CHG  2   9   1  20  -1
M  END
>  <UniqueID>  (30) 
29

>  <SMILES>  (30) 
COc1cccc(C[N@@H+]2CCc3ccccc3C2)c1[O-]

>  <Energy>  (30) 
47.014632243438385

>  <Genealogy>  (30) 
COc1cccc(C[NH+]2CCc3ccccc3C2)c1[O-] (protonated)
COc1cccc(C[N@@H+]2CCc3ccccc3C2)c1[O-] (chirality)
COc1cccc(C[N@@H+]2CCc3ccccc3C2)c1[O-] (3D coordinates assigned)
COc1cccc(C[N@@H+]2CCc3ccccc3C2)c1[O-] (nonaromatic ring conformer: 47.014632243438385 kcal/mol)

>  <smiles>  (30) 
COc1cccc(CN2CCc3ccccc3C2)c1O

>  <score_type>  (30) 
oracle

>  <origin>  (30) 
adgpu

>  <m_score__min__energy>  (30) 
-10.56

>  <m_primary>  (30) 
energy

$$$$
30:0
     RDKit          3D

 57 60  0  0  0  0  0  0  0  0999 V2000
   -1.0230   26.3860  -26.7340 C   0  0  0  0  0  0  0  0  0  0  0  0
   -1.9600   25.2950  -27.2400 C   0  0  0  0  0  0  0  0  0  0  0  0
   -1.9760   25.2630  -28.6670 O   0  0  0  0  0  0  0  0  0  0  0  0
   -2.2020   24.1250  -29.4610 C   0  0  0  0  0  0  0  0  0  0  0  0
   -1.4280   22.9550  -29.3390 C   0  0  0  0  0  0  0  0  0  0  0  0
   -1.6910   21.8470  -30.1440 C   0  0  0  0  0  0  0  0  0  0  0  0
   -2.7360   21.8770  -31.0790 C   0  0  0  0  0  0  0  0  0  0  0  0
   -3.0140   20.7150  -31.9580 C   0  0  0  0  0  0  0  0  0  0  0  0
   -2.0360   19.7900  -32.1390 N   0  0  0  0  0  0  0  0  0  0  0  0
   -2.2190   18.7080  -32.9310 C   0  0  0  0  0  0  0  0  0  0  0  0
   -1.1980   17.7700  -33.0970 C   0  0  0  0  0  0  0  0  0  0  0  0
   -1.4060   16.6600  -33.9180 C   0  0  0  0  0  0  0  0  0  0  0  0
   -2.6360   16.5060  -34.5610 C   0  0  0  0  0  0  0  0  0  0  0  0
   -3.6170   17.4320  -34.3880 N   0  0  0  0  0  0  0  0  0  0  0  0
   -3.4480   18.5290  -33.5950 C   0  0  0  0  0  0  0  0  0  0  0  0
   -4.4490   19.4570  -33.4420 N   0  0  0  0  0  0  0  0  0  0  0  0
   -5.7210   19.3040  -34.1810 C   0  0  0  0  0  0  0  0  0  0  0  0
   -6.8870   19.2880  -33.2260 C   0  0  0  0  0  0  0  0  0  0  0  0
   -7.1860   18.1320  -32.4850 C   0  0  0  0  0  0  0  0  0  0  0  0
   -8.2910   18.1070  -31.6310 C   0  0  0  0  0  0  0  0  0  0  0  0
   -9.1110   19.2320  -31.5120 C   0  0  0  0  0  0  0  0  0  0  0  0
   -8.8280   20.3980  -32.2480 C   0  0  0  0  0  0  0  0  0  0  0  0
   -9.6210   21.5530  -32.1660 O   0  0  0  0  0  0  0  0  0  0  0  0
   -9.1080   22.8650  -31.9570 C   0  0  0  0  0  0  0  0  0  0  0  0
   -7.7150   20.4160  -33.0990 C   0  0  0  0  0  0  0  0  0  0  0  0
   -4.2420   20.5550  -32.6370 C   0  0  0  0  0  0  0  0  0  0  0  0
   -5.1390   21.4350  -32.5180 O   0  0  0  0  0  0  0  0  0  0  0  0
   -3.4990   23.0480  -31.2130 C   0  0  0  0  0  0  0  0  0  0  0  0
   -3.2430   24.1710  -30.4000 C   0  0  0  0  0  0  0  0  0  0  0  0
   -3.9900   25.3580  -30.4990 O   0  0  0  0  0  0  0  0  0  0  0  0
   -5.3700   25.5090  -30.1630 C   0  0  0  0  0  0  0  0  0  0  0  0
   -6.2330   24.5460  -30.9720 C   0  0  0  0  0  0  0  0  0  0  0  0
   -1.0219   26.3873  -25.6340 H   0  0  0  0  0  0  0  0  0  0  0  0
   -0.0042   26.1938  -27.1015 H   0  0  0  0  0  0  0  0  0  0  0  0
   -1.3669   27.3641  -27.1015 H   0  0  0  0  0  0  0  0  0  0  0  0
   -1.6173   24.3208  -26.8611 H   0  0  0  0  0  0  0  0  0  0  0  0
   -2.9773   25.5089  -26.8805 H   0  0  0  0  0  0  0  0  0  0  0  0
   -0.6106   22.9147  -28.6040 H   0  0  0  0  0  0  0  0  0  0  0  0
   -1.0737   20.9420  -30.0448 H   0  0  0  0  0  0  0  0  0  0  0  0
   -0.2346   17.9049  -32.5835 H   0  0  0  0  0  0  0  0  0  0  0  0
   -0.6092   15.9145  -34.0569 H   0  0  0  0  0  0  0  0  0  0  0  0
   -2.8118   15.6343  -35.2085 H   0  0  0  0  0  0  0  0  0  0  0  0
   -5.8371   20.1453  -34.8801 H   0  0  0  0  0  0  0  0  0  0  0  0
   -5.6998   18.3528  -34.7330 H   0  0  0  0  0  0  0  0  0  0  0  0
   -6.5463   17.2420  -32.5780 H   0  0  0  0  0  0  0  0  0  0  0  0
   -8.5161   17.1998  -31.0510 H   0  0  0  0  0  0  0  0  0  0  0  0
   -9.9816   19.2064  -30.8402 H   0  0  0  0  0  0  0  0  0  0  0  0
   -9.0313   23.0610  -30.8773 H   0  0  0  0  0  0  0  0  0  0  0  0
   -8.1117   22.9466  -32.4161 H   0  0  0  0  0  0  0  0  0  0  0  0
   -9.7847   23.6007  -32.4161 H   0  0  0  0  0  0  0  0  0  0  0  0
   -7.4866   21.3249  -33.6750 H   0  0  0  0  0  0  0  0  0  0  0  0
   -4.3051   23.0897  -31.9603 H   0  0  0  0  0  0  0  0  0  0  0  0
   -5.5051   25.3010  -29.0913 H   0  0  0  0  0  0  0  0  0  0  0  0
   -5.6787   26.5390  -30.3950 H   0  0  0  0  0  0  0  0  0  0  0  0
   -6.8075   23.9049  -30.2873 H   0  0  0  0  0  0  0  0  0  0  0  0
   -6.9258   25.1187  -31.6061 H   0  0  0  0  0  0  0  0  0  0  0  0
   -5.5880   23.9199  -31.6061 H   0  0  0  0  0  0  0  0  0  0  0  0
  1  2  1  0
  2  3  1  0
  3  4  1  0
  4  5  2  0
  5  6  1  0
  6  7  2  0
  7  8  1  0
  8  9  2  0
  9 10  1  0
 10 11  2  0
 11 12  1  0
 12 13  2  0
 13 14  1  0
 14 15  2  0
 15 16  1  0
 16 17  1  0
 17 18  1  0
 18 19  2  0
 19 20  1  0
 20 21  2  0
 21 22  1  0
 22 23  1  0
 23 24  1  0
 22 25  2  0
 16 26  1  0
 26 27  2  0
  7 28  1  0
 28 29  2  0
 29 30  1  0
 30 31  1  0
 31 32  1  0
 29  4  1  0
 26  8  1  0
 15 10  1  0
 25 18  1  0
  1 33  1  0
  1 34  1  0
  1 35  1  0
  2 36  1  0
  2 37  1  0
  5 38  1  0
  6 39  1  0
 11 40  1  0
 12 41  1  0
 13 42  1  0
 17 43  1  0
 17 44  1  0
 19 45  1  0
 20 46  1  0
 21 47  1  0
 24 48  1  0
 24 49  1  0
 24 50  1  0
 25 51  1  0
 28 52  1  0
 31 53  1  0
 31 54  1  0
 32 55  1  0
 32 56  1  0
 32 57  1  0
M  END
>  <UniqueID>  (31) 
30

>  <SMILES>  (31) 
CCOc1ccc(-c2nc3cccnc3n(Cc3cccc(OC)c3)c2=O)cc1OCC

>  <Energy>  (31) 
69.66346405789383

>  <Genealogy>  (31) 
CCOc1ccc(-c2nc3cccnc3n(Cc3cccc(OC)c3)c2=O)cc1OCC (3D coordinates assigned)
CCOc1ccc(-c2nc3cccnc3n(Cc3cccc(OC)c3)c2=O)cc1OCC (optimized conformer: 69.66346405789383 kcal/mol)

>  <smiles>  (31) 
CCOc1ccc(-c2nc3cccnc3n(Cc3cccc(OC)c3)c2=O)cc1OCC

>  <score_type>  (31) 
oracle

>  <origin>  (31) 
adgpu

>  <m_score__min__energy>  (31) 
-9.6400000000000006

>  <m_primary>  (31) 
energy

$$$$
31:0
     RDKit          3D

 29 31  0  0  0  0  0  0  0  0999 V2000
    1.6600   24.8220  -26.9290 O   0  0  0  0  0  0  0  0  0  0  0  0
    0.4780   24.6920  -27.6470 C   0  0  0  0  0  0  0  0  0  0  0  0
   -0.4310   25.7520  -27.6960 C   0  0  0  0  0  0  0  0  0  0  0  0
   -1.6210   25.6240  -28.4180 C   0  0  0  0  0  0  0  0  0  0  0  0
   -1.9170   24.4290  -29.1020 C   0  0  0  0  0  0  0  0  0  0  0  0
   -3.1740   24.2710  -29.8740 C   0  0  0  0  0  0  0  0  0  0  0  0
   -3.8720   23.0980  -30.1060 C   0  0  0  0  0  0  0  0  0  0  0  0
   -4.9560   23.4910  -30.8690 C   0  0  0  0  0  0  0  0  0  0  0  0
   -6.0380   22.6250  -31.4020 C   0  0  0  0  0  0  0  0  0  0  0  0
   -7.3800   22.9040  -31.0830 C   0  0  0  0  0  0  0  0  0  0  0  0
   -8.4100   22.0980  -31.5770 C   0  0  0  0  0  0  0  0  0  0  0  0
   -8.1150   21.0020  -32.3960 C   0  0  0  0  0  0  0  0  0  0  0  0
   -9.1330   20.1930  -32.8940 O   0  0  0  0  0  0  0  0  0  0  0  0
   -6.7850   20.7180  -32.7190 C   0  0  0  0  0  0  0  0  0  0  0  0
   -5.7520   21.5210  -32.2280 C   0  0  0  0  0  0  0  0  0  0  0  0
   -4.8960   24.8220  -31.0730 N   0  0  0  0  0  0  0  0  0  0  0  0
   -3.8170   25.2940  -30.4700 N   0  0  0  0  0  0  0  0  0  0  0  0
   -0.9920   23.3690  -29.0440 C   0  0  0  0  0  0  0  0  0  0  0  0
    0.1960   23.5010  -28.3210 C   0  0  0  0  0  0  0  0  0  0  0  0
   -0.2096   26.6896  -27.1651 H   0  0  0  0  0  0  0  0  0  0  0  0
   -2.3316   26.4629  -28.4522 H   0  0  0  0  0  0  0  0  0  0  0  0
   -3.6211   22.0839  -29.7616 H   0  0  0  0  0  0  0  0  0  0  0  0
   -7.6205   23.7633  -30.4397 H   0  0  0  0  0  0  0  0  0  0  0  0
   -9.4553   22.3259  -31.3213 H   0  0  0  0  0  0  0  0  0  0  0  0
   -9.1030   19.8260  -33.8390 H   0  0  0  0  0  0  0  0  0  0  0  0
   -6.5502   19.8578  -33.3631 H   0  0  0  0  0  0  0  0  0  0  0  0
   -4.7087   21.2892  -32.4885 H   0  0  0  0  0  0  0  0  0  0  0  0
   -1.2067   22.4286  -29.5727 H   0  0  0  0  0  0  0  0  0  0  0  0
    0.9108   22.6658  -28.2822 H   0  0  0  0  0  0  0  0  0  0  0  0
  1  2  1  0
  2  3  2  0
  3  4  1  0
  4  5  2  0
  5  6  1  0
  6  7  2  0
  7  8  1  0
  8  9  1  0
  9 10  2  0
 10 11  1  0
 11 12  2  0
 12 13  1  0
 12 14  1  0
 14 15  2  0
  8 16  2  0
 16 17  1  0
  5 18  1  0
 18 19  2  0
 19  2  1  0
 17  6  1  0
 15  9  1  0
  3 20  1  0
  4 21  1  0
  7 22  1  0
 10 23  1  0
 11 24  1  0
 13 25  1  0
 14 26  1  0
 15 27  1  0
 18 28  1  0
 19 29  1  0
M  CHG  2   1  -1  17  -1
M  END
>  <UniqueID>  (32) 
31

>  <SMILES>  (32) 
[O-]c1ccc(-c2cc(-c3ccc(O)cc3)n[n-]2)cc1

>  <Energy>  (32) 
63.95849189838006

>  <Genealogy>  (32) 
[O-]c1ccc(-c2cc(-c3ccc(O)cc3)n[n-]2)cc1 (protonated)
[O-]c1ccc(-c2cc(-c3ccc(O)cc3)n[n-]2)cc1 (3D coordinates assigned)
[O-]c1ccc(-c2cc(-c3ccc(O)cc3)n[n-]2)cc1 (optimized conformer: 63.95849189838006 kcal/mol)

>  <smiles>  (32) 
Oc1ccc(-c2cc(-c3ccc(O)cc3)[nH]n2)cc1

>  <score_type>  (32) 
oracle

>  <origin>  (32) 
adgpu

>  <m_score__min__energy>  (32) 
-9.3399999999999999

>  <m_primary>  (32) 
energy

$$$$
32:0
     RDKit          3D

 65 68  0  0  0  0  0  0  0  0999 V2000
    2.2750   24.0980  -35.4170 C   0  0  0  0  0  0  0  0  0  0  0  0
    1.3230   23.0080  -35.1710 N   0  0  0  0  0  0  0  0  0  0  0  0
    0.1710   23.1340  -36.0730 C   0  0  0  0  0  0  0  0  0  0  0  0
    2.1080   21.4730  -35.4460 S   0  0  0  0  0  0  0  0  0  0  0  0
    2.6360   21.4170  -36.8520 O   0  0  0  0  0  0  0  0  0  0  0  0
    3.2620   21.3020  -34.4960 O   0  0  0  0  0  0  0  0  0  0  0  0
    0.9520   20.1600  -35.2270 C   0  0  0  0  0  0  0  0  0  0  0  0
    1.1790   18.9250  -35.8440 C   0  0  0  0  0  0  0  0  0  0  0  0
    0.2600   17.8850  -35.6920 C   0  0  0  0  0  0  0  0  0  0  0  0
   -0.8920   18.0710  -34.9240 C   0  0  0  0  0  0  0  0  0  0  0  0
   -1.1360   19.3060  -34.2930 C   0  0  0  0  0  0  0  0  0  0  0  0
   -2.3580   19.5190  -33.4810 C   0  0  0  0  0  0  0  0  0  0  0  0
   -2.7080   18.6410  -32.6450 O   0  0  0  0  0  0  0  0  0  0  0  0
   -3.1730   20.6890  -33.6660 N   0  0  0  0  0  0  0  0  0  0  0  0
   -4.1730   21.1080  -32.7220 C   0  0  0  0  0  0  0  0  0  0  0  0
   -4.0450   22.3390  -32.0550 C   0  0  0  0  0  0  0  0  0  0  0  0
   -5.0450   22.7820  -31.1780 C   0  0  0  0  0  0  0  0  0  0  0  0
   -4.8680   24.3080  -30.3150 S   0  0  0  0  0  0  0  0  0  0  0  0
   -6.2320   24.7960  -29.9120 O   0  0  0  0  0  0  0  0  0  0  0  0
   -4.2370   25.3390  -31.2120 O   0  0  0  0  0  0  0  0  0  0  0  0
   -3.8790   24.0640  -28.8960 N   0  0  0  0  0  0  0  0  0  0  0  0
   -4.2390   22.8060  -28.2010 C   0  0  0  0  0  0  0  0  0  0  0  0
   -3.1920   21.7000  -28.4220 C   0  0  0  0  0  0  0  0  0  0  0  0
   -1.8910   22.0700  -27.9870 O   0  0  0  0  0  0  0  0  0  0  0  0
   -1.5860   23.4460  -28.1920 C   0  0  0  0  0  0  0  0  0  0  0  0
   -2.4520   24.1320  -29.2620 C   0  0  0  0  0  0  0  0  0  0  0  0
   -6.1830   21.9970  -30.9740 C   0  0  0  0  0  0  0  0  0  0  0  0
   -6.3300   20.7820  -31.6460 C   0  0  0  0  0  0  0  0  0  0  0  0
   -5.3310   20.3290  -32.5190 C   0  0  0  0  0  0  0  0  0  0  0  0
   -5.4860   19.0600  -33.1710 N   0  0  0  0  0  0  0  0  0  0  0  0
   -5.5490   17.8000  -32.4530 C   0  0  0  0  0  0  0  0  0  0  0  0
   -5.6570   16.7300  -33.5300 C   0  0  0  0  0  0  0  0  0  0  0  0
   -6.0980   17.4550  -34.8010 C   0  0  0  0  0  0  0  0  0  0  0  0
   -5.7410   18.9230  -34.5920 C   0  0  0  0  0  0  0  0  0  0  0  0
   -0.2070   20.3510  -34.4610 C   0  0  0  0  0  0  0  0  0  0  0  0
    2.6271   24.5012  -34.4560 H   0  0  0  0  0  0  0  0  0  0  0  0
    3.1321   23.7140  -35.9897 H   0  0  0  0  0  0  0  0  0  0  0  0
    1.7792   24.8956  -35.9897 H   0  0  0  0  0  0  0  0  0  0  0  0
   -0.7499   23.2347  -35.4798 H   0  0  0  0  0  0  0  0  0  0  0  0
    0.2976   24.0237  -36.7074 H   0  0  0  0  0  0  0  0  0  0  0  0
    0.1023   22.2380  -36.7074 H   0  0  0  0  0  0  0  0  0  0  0  0
    2.0840   18.7730  -36.4505 H   0  0  0  0  0  0  0  0  0  0  0  0
    0.4437   16.9158  -36.1787 H   0  0  0  0  0  0  0  0  0  0  0  0
   -1.6128   17.2478  -34.8115 H   0  0  0  0  0  0  0  0  0  0  0  0
   -3.1110   21.1990  -34.5760 H   0  0  0  0  0  0  0  0  0  0  0  0
   -3.1526   22.9599  -32.2227 H   0  0  0  0  0  0  0  0  0  0  0  0
   -4.3193   23.0075  -27.1226 H   0  0  0  0  0  0  0  0  0  0  0  0
   -5.1954   22.4533  -28.6145 H   0  0  0  0  0  0  0  0  0  0  0  0
   -3.5058   20.8045  -27.8656 H   0  0  0  0  0  0  0  0  0  0  0  0
   -3.1354   21.5131  -29.5045 H   0  0  0  0  0  0  0  0  0  0  0  0
   -1.7302   23.9768  -27.2394 H   0  0  0  0  0  0  0  0  0  0  0  0
   -0.5472   23.4890  -28.5514 H   0  0  0  0  0  0  0  0  0  0  0  0
   -2.1510   25.1864  -29.3494 H   0  0  0  0  0  0  0  0  0  0  0  0
   -2.3067   23.6143  -30.2216 H   0  0  0  0  0  0  0  0  0  0  0  0
   -6.9663   22.3378  -30.2810 H   0  0  0  0  0  0  0  0  0  0  0  0
   -7.2350   20.1766  -31.4895 H   0  0  0  0  0  0  0  0  0  0  0  0
   -4.6390   17.6524  -31.8529 H   0  0  0  0  0  0  0  0  0  0  0  0
   -6.3987   17.7673  -31.7552 H   0  0  0  0  0  0  0  0  0  0  0  0
   -4.6823   16.2445  -33.6855 H   0  0  0  0  0  0  0  0  0  0  0  0
   -6.3715   15.9433  -33.2463 H   0  0  0  0  0  0  0  0  0  0  0  0
   -5.5651   17.0526  -35.6751 H   0  0  0  0  0  0  0  0  0  0  0  0
   -7.1743   17.3243  -34.9870 H   0  0  0  0  0  0  0  0  0  0  0  0
   -4.8437   19.1868  -35.1710 H   0  0  0  0  0  0  0  0  0  0  0  0
   -6.5471   19.5915  -34.9288 H   0  0  0  0  0  0  0  0  0  0  0  0
   -0.3922   21.3262  -33.9869 H   0  0  0  0  0  0  0  0  0  0  0  0
  1  2  1  0
  2  3  1  0
  2  4  1  0
  4  5  2  0
  4  6  2  0
  4  7  1  0
  7  8  2  0
  8  9  1  0
  9 10  2  0
 10 11  1  0
 11 12  1  0
 12 13  2  0
 12 14  1  0
 14 15  1  0
 15 16  2  0
 16 17  1  0
 17 18  1  0
 18 19  2  0
 18 20  2  0
 18 21  1  0
 21 22  1  0
 22 23  1  0
 23 24  1  0
 24 25  1  0
 25 26  1  0
 17 27  2  0
 27 28  1  0
 28 29  2  0
 29 30  1  0
 30 31  1  0
 31 32  1  0
 32 33  1  0
 33 34  1  0
 11 35  2  0
 35  7  1  0
 29 15  1  0
 34 30  1  0
 26 21  1  0
  1 36  1  0
  1 37  1  0
  1 38  1  0
  3 39  1  0
  3 40  1  0
  3 41  1  0
  8 42  1  0
  9 43  1  0
 10 44  1  0
 14 45  1  0
 16 46  1  0
 22 47  1  0
 22 48  1  0
 23 49  1  0
 23 50  1  0
 25 51  1  0
 25 52  1  0
 26 53  1  0
 26 54  1  0
 27 55  1  0
 28 56  1  0
 31 57  1  0
 31 58  1  0
 32 59  1  0
 32 60  1  0
 33 61  1  0
 33 62  1  0
 34 63  1  0
 34 64  1  0
 35 65  1  0
M  END
>  <UniqueID>  (33) 
32

>  <SMILES>  (33) 
CN(C)S(=O)(=O)c1cccc(C(=O)Nc2cc(S(=O)(=O)N3CCOCC3)ccc2N2CCCC2)c1

>  <Energy>  (33) 
87.17580866301849

>  <Genealogy>  (33) 
CN(C)S(=O)(=O)c1cccc(C(=O)Nc2cc(S(=O)(=O)N3CCOCC3)ccc2N2CCCC2)c1 (3D coordinates assigned)
CN(C)S(=O)(=O)c1cccc(C(=O)Nc2cc(S(=O)(=O)N3CCOCC3)ccc2N2CCCC2)c1 (nonaromatic ring conformer: 87.17580866301849 kcal/mol)

>  <smiles>  (33) 
CN(C)S(=O)(=O)c1cccc(C(=O)Nc2cc(S(=O)(=O)N3CCOCC3)ccc2N2CCCC2)c1

>  <score_type>  (33) 
oracle

>  <origin>  (33) 
adgpu

>  <m_score__min__energy>  (33) 
-10.220000000000001

>  <m_primary>  (33) 
energy

$$$$
33:0
     RDKit          3D

 64 68  0  0  0  0  0  0  0  0999 V2000
   -5.6670   26.2560  -30.2890 O   0  0  0  0  0  0  0  0  0  0  0  0
   -4.9650   25.2600  -30.6100 C   0  0  0  0  0  0  0  0  0  0  0  0
   -3.5510   25.2720  -30.3710 N   0  0  0  0  0  0  0  0  0  0  0  0
   -2.8460   24.4920  -29.3950 C   0  0  0  0  0  0  0  0  0  0  0  0
   -3.1280   24.5920  -28.0230 C   0  0  0  0  0  0  0  0  0  0  0  0
   -2.3970   23.8440  -27.0970 C   0  0  0  0  0  0  0  0  0  0  0  0
   -1.3670   22.9980  -27.5280 C   0  0  0  0  0  0  0  0  0  0  0  0
   -0.4640   22.0500  -26.3510 S   0  0  0  0  0  0  0  0  0  0  0  0
    1.0040   22.1080  -26.6700 O   0  0  0  0  0  0  0  0  0  0  0  0
   -0.6780   22.6440  -24.9870 O   0  0  0  0  0  0  0  0  0  0  0  0
   -1.0250   20.3960  -26.3770 N   0  0  0  0  0  0  0  0  0  0  0  0
   -2.4470   20.3470  -26.7550 C   0  0  0  0  0  0  0  0  0  0  0  0
   -2.9480   18.8860  -26.8100 C   0  0  0  0  0  0  0  0  0  0  0  0
   -1.8940   17.9460  -26.6950 O   0  0  0  0  0  0  0  0  0  0  0  0
   -0.8800   18.2480  -27.6330 C   0  0  0  0  0  0  0  0  0  0  0  0
   -0.2060   19.5960  -27.3050 C   0  0  0  0  0  0  0  0  0  0  0  0
   -1.0740   22.9070  -28.8940 C   0  0  0  0  0  0  0  0  0  0  0  0
   -1.8050   23.6570  -29.8190 C   0  0  0  0  0  0  0  0  0  0  0  0
   -5.6120   24.0530  -31.1750 C   0  0  0  0  0  0  0  0  0  0  0  0
   -7.0130   23.9340  -31.1850 C   0  0  0  0  0  0  0  0  0  0  0  0
   -7.6230   22.7830  -31.6880 C   0  0  0  0  0  0  0  0  0  0  0  0
   -6.8460   21.7340  -32.1940 C   0  0  0  0  0  0  0  0  0  0  0  0
   -7.6380   20.2670  -32.7600 S   0  0  0  0  0  0  0  0  0  0  0  0
   -7.2300   20.0360  -34.1870 O   0  0  0  0  0  0  0  0  0  0  0  0
   -9.1300   20.4380  -32.7180 O   0  0  0  0  0  0  0  0  0  0  0  0
   -7.1320   18.9190  -31.7580 N   0  0  0  0  0  0  0  0  0  0  0  0
   -7.6210   17.6180  -32.2520 C   0  0  0  0  0  0  0  0  0  0  0  0
   -6.9070   17.1190  -33.5280 C   0  0  0  0  0  0  0  0  0  0  0  0
   -5.4830   17.5950  -33.6710 C   0  0  0  0  0  0  0  0  0  0  0  0
   -4.7320   17.1810  -34.7820 C   0  0  0  0  0  0  0  0  0  0  0  0
   -3.4270   17.6460  -34.9670 C   0  0  0  0  0  0  0  0  0  0  0  0
   -2.8610   18.5270  -34.0440 C   0  0  0  0  0  0  0  0  0  0  0  0
   -3.5970   18.9440  -32.9320 C   0  0  0  0  0  0  0  0  0  0  0  0
   -4.9150   18.4970  -32.7500 C   0  0  0  0  0  0  0  0  0  0  0  0
   -5.6810   18.9100  -31.5260 C   0  0  0  0  0  0  0  0  0  0  0  0
   -5.4500   21.8530  -32.2100 C   0  0  0  0  0  0  0  0  0  0  0  0
   -4.8360   23.0020  -31.7010 C   0  0  0  0  0  0  0  0  0  0  0  0
   -3.9281   25.2623  -27.6759 H   0  0  0  0  0  0  0  0  0  0  0  0
   -2.6311   23.9196  -26.0249 H   0  0  0  0  0  0  0  0  0  0  0  0
   -0.9210   20.0140  -25.4100 H   0  0  0  0  0  0  0  0  0  0  0  0
   -3.0374   20.9034  -26.0121 H   0  0  0  0  0  0  0  0  0  0  0  0
   -2.5637   20.7984  -27.7513 H   0  0  0  0  0  0  0  0  0  0  0  0
   -3.6562   18.7246  -25.9839 H   0  0  0  0  0  0  0  0  0  0  0  0
   -3.4264   18.7335  -27.7887 H   0  0  0  0  0  0  0  0  0  0  0  0
   -0.1212   17.4519  -27.6111 H   0  0  0  0  0  0  0  0  0  0  0  0
   -1.3364   18.3186  -28.6313 H   0  0  0  0  0  0  0  0  0  0  0  0
    0.7733   19.4031  -26.8426 H   0  0  0  0  0  0  0  0  0  0  0  0
   -0.0915   20.1622  -28.2411 H   0  0  0  0  0  0  0  0  0  0  0  0
   -0.2671   22.2441  -29.2396 H   0  0  0  0  0  0  0  0  0  0  0  0
   -1.5606   23.5909  -30.8895 H   0  0  0  0  0  0  0  0  0  0  0  0
   -7.6332   24.7538  -30.7936 H   0  0  0  0  0  0  0  0  0  0  0  0
   -8.7199   22.7000  -31.6867 H   0  0  0  0  0  0  0  0  0  0  0  0
   -7.4740   16.8700  -31.4590 H   0  0  0  0  0  0  0  0  0  0  0  0
   -8.6802   17.7562  -32.5147 H   0  0  0  0  0  0  0  0  0  0  0  0
   -6.9022   16.0191  -33.5119 H   0  0  0  0  0  0  0  0  0  0  0  0
   -7.4638   17.5326  -34.3817 H   0  0  0  0  0  0  0  0  0  0  0  0
   -5.1732   16.4862  -35.5118 H   0  0  0  0  0  0  0  0  0  0  0  0
   -2.8453   17.3174  -35.8409 H   0  0  0  0  0  0  0  0  0  0  0  0
   -1.8344   18.8933  -34.1923 H   0  0  0  0  0  0  0  0  0  0  0  0
   -3.1422   19.6245  -32.1971 H   0  0  0  0  0  0  0  0  0  0  0  0
   -5.4564   18.2046  -30.7124 H   0  0  0  0  0  0  0  0  0  0  0  0
   -5.3739   19.9332  -31.2638 H   0  0  0  0  0  0  0  0  0  0  0  0
   -4.8351   21.0403  -32.6241 H   0  0  0  0  0  0  0  0  0  0  0  0
   -3.7392   23.0853  -31.7116 H   0  0  0  0  0  0  0  0  0  0  0  0
  1  2  2  0
  2  3  1  0
  3  4  1  0
  4  5  2  0
  5  6  1  0
  6  7  2  0
  7  8  1  0
  8  9  2  0
  8 10  2  0
  8 11  1  0
 11 12  1  0
 12 13  1  0
 13 14  1  0
 14 15  1  0
 15 16  1  0
  7 17  1  0
 17 18  2  0
  2 19  1  0
 19 20  2  0
 20 21  1  0
 21 22  2  0
 22 23  1  0
 23 24  2  0
 23 25  2  0
 23 26  1  0
 26 27  1  0
 27 28  1  0
 28 29  1  0
 29 30  2  0
 30 31  1  0
 31 32  2  0
 32 33  1  0
 33 34  2  0
 34 35  1  0
 22 36  1  0
 36 37  2  0
 18  4  1  0
 37 19  1  0
 16 11  1  0
 35 26  1  0
 34 29  1  0
  5 38  1  0
  6 39  1  0
 11 40  1  0
 12 41  1  0
 12 42  1  0
 13 43  1  0
 13 44  1  0
 15 45  1  0
 15 46  1  0
 16 47  1  0
 16 48  1  0
 17 49  1  0
 18 50  1  0
 20 51  1  0
 21 52  1  0
 27 53  1  0
 27 54  1  0
 28 55  1  0
 28 56  1  0
 30 57  1  0
 31 58  1  0
 32 59  1  0
 33 60  1  0
 35 61  1  0
 35 62  1  0
 36 63  1  0
 37 64  1  0
M  CHG  2   3  -1  11   1
M  END
>  <UniqueID>  (34) 
33

>  <SMILES>  (34) 
O=C([N-]c1ccc(S(=O)(=O)[NH+]2CCOCC2)cc1)c1ccc(S(=O)(=O)N2CCc3ccccc3C2)cc1

>  <Energy>  (34) 
87.41144730763703

>  <Genealogy>  (34) 
O=C([N-]c1ccc(S(=O)(=O)[NH+]2CCOCC2)cc1)c1ccc(S(=O)(=O)N2CCc3ccccc3C2)cc1 (protonated)
O=C([N-]c1ccc(S(=O)(=O)[NH+]2CCOCC2)cc1)c1ccc(S(=O)(=O)N2CCc3ccccc3C2)cc1 (3D coordinates assigned)
O=C([N-]c1ccc(S(=O)(=O)[NH+]2CCOCC2)cc1)c1ccc(S(=O)(=O)N2CCc3ccccc3C2)cc1 (nonaromatic ring conformer: 87.41144730763703 kcal/mol)

>  <smiles>  (34) 
O=C(Nc1ccc(S(=O)(=O)N2CCOCC2)cc1)c1ccc(S(=O)(=O)N2CCc3ccccc3C2)cc1

>  <score_type>  (34) 
oracle

>  <origin>  (34) 
adgpu

>  <m_score__min__energy>  (34) 
-13.82

>  <m_primary>  (34) 
energy

$$$$
34:0
     RDKit          3D

 39 41  0  0  0  0  0  0  0  0999 V2000
   -5.7640   18.9300  -34.3990 C   0  0  0  0  0  0  0  0  0  0  0  0
   -6.7670   18.8000  -33.2960 C   0  0  0  0  0  0  0  0  0  0  0  0
   -7.0980   17.6450  -32.9140 O   0  0  0  0  0  0  0  0  0  0  0  0
   -7.3300   19.9490  -32.6400 N   0  0  0  0  0  0  0  0  0  0  0  0
   -8.7600   20.0830  -32.3560 C   0  0  0  0  0  0  0  0  0  0  0  0
   -8.9080   21.3430  -31.4720 C   0  0  0  0  0  0  0  0  0  0  0  0
   -7.5230   21.8800  -31.4030 C   0  0  0  0  0  0  0  0  0  0  0  0
   -7.1000   23.0670  -30.8070 C   0  0  0  0  0  0  0  0  0  0  0  0
   -5.7490   23.4360  -30.9200 C   0  0  0  0  0  0  0  0  0  0  0  0
   -5.1920   24.9440  -30.2040 S   0  0  0  0  0  0  0  0  0  0  0  0
   -6.0350   25.3150  -29.0150 O   0  0  0  0  0  0  0  0  0  0  0  0
   -5.2890   26.0360  -31.2320 O   0  0  0  0  0  0  0  0  0  0  0  0
   -3.5400   24.7830  -29.6990 N   0  0  0  0  0  0  0  0  0  0  0  0
   -3.0050   23.7080  -28.9100 C   0  0  0  0  0  0  0  0  0  0  0  0
   -3.7830   22.5650  -28.6300 C   0  0  0  0  0  0  0  0  0  0  0  0
   -3.2670   21.5260  -27.8550 C   0  0  0  0  0  0  0  0  0  0  0  0
   -1.9760   21.6110  -27.3430 C   0  0  0  0  0  0  0  0  0  0  0  0
   -1.1890   22.7320  -27.6110 C   0  0  0  0  0  0  0  0  0  0  0  0
   -1.6840   23.7920  -28.3970 C   0  0  0  0  0  0  0  0  0  0  0  0
   -0.7980   24.9570  -28.6720 C   0  0  0  0  0  0  0  0  0  0  0  0
   -1.2330   25.9460  -29.3230 O   0  0  0  0  0  0  0  0  0  0  0  0
    0.5140   24.9930  -28.2160 O   0  0  0  0  0  0  0  0  0  0  0  0
   -4.8550   22.6130  -31.6370 C   0  0  0  0  0  0  0  0  0  0  0  0
   -5.3070   21.4270  -32.2360 C   0  0  0  0  0  0  0  0  0  0  0  0
   -6.6520   21.0660  -32.0780 C   0  0  0  0  0  0  0  0  0  0  0  0
   -4.7602   19.0601  -33.9683 H   0  0  0  0  0  0  0  0  0  0  0  0
   -5.7818   18.0220  -35.0197 H   0  0  0  0  0  0  0  0  0  0  0  0
   -6.0127   19.8034  -35.0197 H   0  0  0  0  0  0  0  0  0  0  0  0
   -9.3248   20.2053  -33.2919 H   0  0  0  0  0  0  0  0  0  0  0  0
   -9.1535   19.1894  -31.8494 H   0  0  0  0  0  0  0  0  0  0  0  0
   -9.5899   22.0712  -31.9355 H   0  0  0  0  0  0  0  0  0  0  0  0
   -9.3340   21.1251  -30.4815 H   0  0  0  0  0  0  0  0  0  0  0  0
   -7.8105   23.7028  -30.2585 H   0  0  0  0  0  0  0  0  0  0  0  0
   -4.8064   22.4923  -29.0266 H   0  0  0  0  0  0  0  0  0  0  0  0
   -3.8820   20.6378  -27.6483 H   0  0  0  0  0  0  0  0  0  0  0  0
   -1.5750   20.7934  -26.7260 H   0  0  0  0  0  0  0  0  0  0  0  0
   -0.1689   22.7890  -27.2034 H   0  0  0  0  0  0  0  0  0  0  0  0
   -3.7976   22.9026  -31.7270 H   0  0  0  0  0  0  0  0  0  0  0  0
   -4.6202   20.7942  -32.8172 H   0  0  0  0  0  0  0  0  0  0  0  0
  1  2  1  0
  2  3  2  0
  2  4  1  0
  4  5  1  0
  5  6  1  0
  6  7  1  0
  7  8  2  0
  8  9  1  0
  9 10  1  0
 10 11  2  0
 10 12  2  0
 10 13  1  0
 13 14  1  0
 14 15  2  0
 15 16  1  0
 16 17  2  0
 17 18  1  0
 18 19  2  0
 19 20  1  0
 20 21  2  0
 20 22  1  0
  9 23  2  0
 23 24  1  0
 24 25  2  0
 25  4  1  0
 25  7  1  0
 19 14  1  0
  1 26  1  0
  1 27  1  0
  1 28  1  0
  5 29  1  0
  5 30  1  0
  6 31  1  0
  6 32  1  0
  8 33  1  0
 15 34  1  0
 16 35  1  0
 17 36  1  0
 18 37  1  0
 23 38  1  0
 24 39  1  0
M  CHG  2  13  -1  22  -1
M  END
>  <UniqueID>  (35) 
34

>  <SMILES>  (35) 
CC(=O)N1CCc2cc(S(=O)(=O)[N-]c3ccccc3C(=O)[O-])ccc21

>  <Energy>  (35) 
63.88490362572967

>  <Genealogy>  (35) 
CC(=O)N1CCc2cc(S(=O)(=O)[N-]c3ccccc3C(=O)[O-])ccc21 (protonated)
CC(=O)N1CCc2cc(S(=O)(=O)[N-]c3ccccc3C(=O)[O-])ccc21 (3D coordinates assigned)
CC(=O)N1CCc2cc(S(=O)(=O)[N-]c3ccccc3C(=O)[O-])ccc21 (nonaromatic ring conformer: 63.88490362572967 kcal/mol)

>  <smiles>  (35) 
CC(=O)N1CCc2cc(S(=O)(=O)Nc3ccccc3C(=O)O)ccc21

>  <score_type>  (35) 
oracle

>  <origin>  (35) 
adgpu

>  <m_score__min__energy>  (35) 
-12.720000000000001

>  <m_primary>  (35) 
energy

$$$$
35:0
     RDKit          3D

 45 47  0  0  0  0  0  0  0  0999 V2000
   -5.2190   25.7490  -30.4710 C   0  0  0  0  0  0  0  0  0  0  0  0
   -3.8600   25.3260  -30.4940 O   0  0  0  0  0  0  0  0  0  0  0  0
   -3.3970   24.0920  -30.0190 C   0  0  0  0  0  0  0  0  0  0  0  0
   -2.5100   24.0180  -28.9230 C   0  0  0  0  0  0  0  0  0  0  0  0
   -2.0860   22.7820  -28.4330 C   0  0  0  0  0  0  0  0  0  0  0  0
   -2.5440   21.6030  -29.0190 C   0  0  0  0  0  0  0  0  0  0  0  0
   -3.4210   21.6610  -30.1060 C   0  0  0  0  0  0  0  0  0  0  0  0
   -3.8410   22.8910  -30.6250 C   0  0  0  0  0  0  0  0  0  0  0  0
   -4.7270   22.8640  -31.7570 N   0  0  0  0  0  0  0  0  0  0  0  0
   -6.4610   22.8590  -31.7100 S   0  0  0  0  0  0  0  0  0  0  0  0
   -6.9130   23.3280  -30.3570 O   0  0  0  0  0  0  0  0  0  0  0  0
   -6.9910   23.7990  -32.7560 O   0  0  0  0  0  0  0  0  0  0  0  0
   -7.0640   21.2220  -31.9610 C   0  0  0  0  0  0  0  0  0  0  0  0
   -8.2490   20.7950  -31.3470 C   0  0  0  0  0  0  0  0  0  0  0  0
   -8.7390   19.5110  -31.5910 C   0  0  0  0  0  0  0  0  0  0  0  0
   -8.0420   18.6400  -32.4300 C   0  0  0  0  0  0  0  0  0  0  0  0
   -6.8370   19.0400  -33.0200 C   0  0  0  0  0  0  0  0  0  0  0  0
   -6.1460   18.1210  -33.8760 N   0  0  0  0  0  0  0  0  0  0  0  0
   -4.7420   18.1240  -34.1610 C   0  0  0  0  0  0  0  0  0  0  0  0
   -4.3250   17.9670  -35.3400 O   0  0  0  0  0  0  0  0  0  0  0  0
   -3.7550   18.3360  -33.0510 C   0  0  0  0  0  0  0  0  0  0  0  0
   -2.7180   19.3000  -33.4490 N   0  0  0  0  0  0  0  0  0  0  0  0
   -2.8420   20.6130  -33.0880 C   0  0  0  0  0  0  0  0  0  0  0  0
   -1.8740   21.5430  -33.4590 C   0  0  0  0  0  0  0  0  0  0  0  0
   -0.7860   21.1050  -34.2100 C   0  0  0  0  0  0  0  0  0  0  0  0
    0.1120   21.9140  -34.5620 O   0  0  0  0  0  0  0  0  0  0  0  0
   -0.6920   19.8010  -34.5660 N   0  0  0  0  0  0  0  0  0  0  0  0
   -1.6390   18.9010  -34.1970 C   0  0  0  0  0  0  0  0  0  0  0  0
   -1.5110   17.6990  -34.5500 O   0  0  0  0  0  0  0  0  0  0  0  0
   -6.3630   20.3450  -32.7980 C   0  0  0  0  0  0  0  0  0  0  0  0
   -5.5531   25.8530  -29.4281 H   0  0  0  0  0  0  0  0  0  0  0  0
   -5.3101   26.7180  -30.9836 H   0  0  0  0  0  0  0  0  0  0  0  0
   -5.8440   25.0029  -30.9836 H   0  0  0  0  0  0  0  0  0  0  0  0
   -2.1496   24.9437  -28.4507 H   0  0  0  0  0  0  0  0  0  0  0  0
   -1.3892   22.7380  -27.5830 H   0  0  0  0  0  0  0  0  0  0  0  0
   -2.2160   20.6290  -28.6269 H   0  0  0  0  0  0  0  0  0  0  0  0
   -3.7858   20.7276  -30.5594 H   0  0  0  0  0  0  0  0  0  0  0  0
   -8.7934   21.4721  -30.6723 H   0  0  0  0  0  0  0  0  0  0  0  0
   -9.6780   19.1843  -31.1203 H   0  0  0  0  0  0  0  0  0  0  0  0
   -8.4414   17.6345  -32.6286 H   0  0  0  0  0  0  0  0  0  0  0  0
   -4.2843   18.7207  -32.1668 H   0  0  0  0  0  0  0  0  0  0  0  0
   -3.2722   17.3747  -32.8211 H   0  0  0  0  0  0  0  0  0  0  0  0
   -3.7132   20.9373  -32.4999 H   0  0  0  0  0  0  0  0  0  0  0  0
   -1.9666   22.5991  -33.1656 H   0  0  0  0  0  0  0  0  0  0  0  0
   -5.4352   20.6794  -33.2851 H   0  0  0  0  0  0  0  0  0  0  0  0
  1  2  1  0
  2  3  1  0
  3  4  2  0
  4  5  1  0
  5  6  2  0
  6  7  1  0
  7  8  2  0
  8  9  1  0
  9 10  1  0
 10 11  2  0
 10 12  2  0
 10 13  1  0
 13 14  2  0
 14 15  1  0
 15 16  2  0
 16 17  1  0
 17 18  1  0
 18 19  1  0
 19 20  2  0
 19 21  1  0
 21 22  1  0
 22 23  1  0
 23 24  2  0
 24 25  1  0
 25 26  2  0
 25 27  1  0
 27 28  1  0
 28 29  2  0
 17 30  2  0
  8  3  1  0
 30 13  1  0
 28 22  1  0
  1 31  1  0
  1 32  1  0
  1 33  1  0
  4 34  1  0
  5 35  1  0
  6 36  1  0
  7 37  1  0
 14 38  1  0
 15 39  1  0
 16 40  1  0
 21 41  1  0
 21 42  1  0
 23 43  1  0
 24 44  1  0
 30 45  1  0
M  CHG  3   9  -1  18  -1  27  -1
M  END
>  <UniqueID>  (36) 
35

>  <SMILES>  (36) 
COc1ccccc1[N-]S(=O)(=O)c1cccc([N-]C(=O)Cn2ccc(=O)[n-]c2=O)c1

>  <Energy>  (36) 
57.72878748778251

>  <Genealogy>  (36) 
COc1ccccc1[N-]S(=O)(=O)c1cccc([N-]C(=O)Cn2ccc(=O)[n-]c2=O)c1 (protonated)
COc1ccccc1[N-]S(=O)(=O)c1cccc([N-]C(=O)Cn2ccc(=O)[n-]c2=O)c1 (3D coordinates assigned)
COc1ccccc1[N-]S(=O)(=O)c1cccc([N-]C(=O)Cn2ccc(=O)[n-]c2=O)c1 (optimized conformer: 57.72878748778251 kcal/mol)

>  <smiles>  (36) 
COc1ccccc1NS(=O)(=O)c1cccc(NC(=O)Cn2ccc(=O)[nH]c2=O)c1

>  <score_type>  (36) 
oracle

>  <origin>  (36) 
adgpu

>  <m_score__min__energy>  (36) 
-10.970000000000001

>  <m_primary>  (36) 
energy

$$$$
36:0
     RDKit          3D

 48 50  0  0  0  0  0  0  0  0999 V2000
   -6.8490   24.6850  -30.4830 C   0  0  0  0  0  0  0  0  0  0  0  0
   -6.8260   23.2680  -30.9760 C   0  0  0  0  0  0  0  0  0  0  0  0
   -7.9800   22.6980  -31.5340 C   0  0  0  0  0  0  0  0  0  0  0  0
   -7.9700   21.3680  -31.9640 C   0  0  0  0  0  0  0  0  0  0  0  0
   -6.8150   20.5880  -31.8210 C   0  0  0  0  0  0  0  0  0  0  0  0
   -6.8050   18.9170  -32.3720 S   0  0  0  0  0  0  0  0  0  0  0  0
   -6.4560   18.0320  -31.2090 O   0  0  0  0  0  0  0  0  0  0  0  0
   -8.1600   18.5310  -32.9000 O   0  0  0  0  0  0  0  0  0  0  0  0
   -5.6330   18.7260  -33.6430 N   0  0  0  0  0  0  0  0  0  0  0  0
   -6.0820   18.5310  -35.0200 C   0  0  0  0  0  0  0  0  0  0  0  0
   -4.2320   18.7710  -33.3400 C   0  0  0  0  0  0  0  0  0  0  0  0
   -3.4930   17.5830  -33.2580 C   0  0  0  0  0  0  0  0  0  0  0  0
   -2.1280   17.6240  -32.9650 C   0  0  0  0  0  0  0  0  0  0  0  0
   -1.4960   18.8490  -32.7360 C   0  0  0  0  0  0  0  0  0  0  0  0
   -2.2290   20.0460  -32.7880 C   0  0  0  0  0  0  0  0  0  0  0  0
   -1.5590   21.3340  -32.5010 C   0  0  0  0  0  0  0  0  0  0  0  0
   -0.4690   21.6010  -33.0730 O   0  0  0  0  0  0  0  0  0  0  0  0
   -2.1110   22.2990  -31.5920 N   0  0  0  0  0  0  0  0  0  0  0  0
   -2.4380   22.0730  -30.2110 C   0  0  0  0  0  0  0  0  0  0  0  0
   -2.5480   20.7470  -29.7750 C   0  0  0  0  0  0  0  0  0  0  0  0
   -2.7790   20.4580  -28.4290 C   0  0  0  0  0  0  0  0  0  0  0  0
   -2.9100   21.4940  -27.5060 C   0  0  0  0  0  0  0  0  0  0  0  0
   -2.8320   22.8220  -27.9280 C   0  0  0  0  0  0  0  0  0  0  0  0
   -2.6270   23.1330  -29.2840 C   0  0  0  0  0  0  0  0  0  0  0  0
   -2.6920   24.5510  -29.7040 C   0  0  0  0  0  0  0  0  0  0  0  0
   -1.8280   25.3730  -29.2970 O   0  0  0  0  0  0  0  0  0  0  0  0
   -3.7270   25.0040  -30.5110 O   0  0  0  0  0  0  0  0  0  0  0  0
   -3.5950   19.9990  -33.1170 C   0  0  0  0  0  0  0  0  0  0  0  0
   -5.6650   21.1510  -31.2510 C   0  0  0  0  0  0  0  0  0  0  0  0
   -5.6730   22.4830  -30.8240 C   0  0  0  0  0  0  0  0  0  0  0  0
   -6.8491   24.6906  -29.3830 H   0  0  0  0  0  0  0  0  0  0  0  0
   -5.9594   25.2162  -30.8523 H   0  0  0  0  0  0  0  0  0  0  0  0
   -7.7554   25.1870  -30.8523 H   0  0  0  0  0  0  0  0  0  0  0  0
   -8.8956   23.2995  -31.6335 H   0  0  0  0  0  0  0  0  0  0  0  0
   -8.8728   20.9319  -32.4166 H   0  0  0  0  0  0  0  0  0  0  0  0
   -7.0910   18.0928  -35.0181 H   0  0  0  0  0  0  0  0  0  0  0  0
   -6.1043   19.5005  -35.5392 H   0  0  0  0  0  0  0  0  0  0  0  0
   -5.3887   17.8529  -35.5392 H   0  0  0  0  0  0  0  0  0  0  0  0
   -3.9894   16.6156  -33.4249 H   0  0  0  0  0  0  0  0  0  0  0  0
   -1.5492   16.6899  -32.9144 H   0  0  0  0  0  0  0  0  0  0  0  0
   -0.4190   18.8760  -32.5139 H   0  0  0  0  0  0  0  0  0  0  0  0
   -2.4515   19.9253  -30.4999 H   0  0  0  0  0  0  0  0  0  0  0  0
   -2.8577   19.4123  -28.0968 H   0  0  0  0  0  0  0  0  0  0  0  0
   -3.0752   21.2646  -26.4430 H   0  0  0  0  0  0  0  0  0  0  0  0
   -2.9319   23.6337  -27.1924 H   0  0  0  0  0  0  0  0  0  0  0  0
   -4.1685   20.9340  -33.2001 H   0  0  0  0  0  0  0  0  0  0  0  0
   -4.7543   20.5442  -31.1392 H   0  0  0  0  0  0  0  0  0  0  0  0
   -4.7714   22.9170  -30.3670 H   0  0  0  0  0  0  0  0  0  0  0  0
  1  2  1  0
  2  3  2  0
  3  4  1  0
  4  5  2  0
  5  6  1  0
  6  7  2  0
  6  8  2  0
  6  9  1  0
  9 10  1  0
  9 11  1  0
 11 12  2  0
 12 13  1  0
 13 14  2  0
 14 15  1  0
 15 16  1  0
 16 17  2  0
 16 18  1  0
 18 19  1  0
 19 20  2  0
 20 21  1  0
 21 22  2  0
 22 23  1  0
 23 24  2  0
 24 25  1  0
 25 26  2  0
 25 27  1  0
 15 28  2  0
  5 29  1  0
 29 30  2  0
 30  2  1  0
 28 11  1  0
 24 19  1  0
  1 31  1  0
  1 32  1  0
  1 33  1  0
  3 34  1  0
  4 35  1  0
 10 36  1  0
 10 37  1  0
 10 38  1  0
 12 39  1  0
 13 40  1  0
 14 41  1  0
 20 42  1  0
 21 43  1  0
 22 44  1  0
 23 45  1  0
 28 46  1  0
 29 47  1  0
 30 48  1  0
M  CHG  2  18  -1  27  -1
M  END
>  <UniqueID>  (37) 
36

>  <SMILES>  (37) 
Cc1ccc(S(=O)(=O)N(C)c2cccc(C(=O)[N-]c3ccccc3C(=O)[O-])c2)cc1

>  <Energy>  (37) 
64.45544547181872

>  <Genealogy>  (37) 
Cc1ccc(S(=O)(=O)N(C)c2cccc(C(=O)[N-]c3ccccc3C(=O)[O-])c2)cc1 (protonated)
Cc1ccc(S(=O)(=O)N(C)c2cccc(C(=O)[N-]c3ccccc3C(=O)[O-])c2)cc1 (3D coordinates assigned)
Cc1ccc(S(=O)(=O)N(C)c2cccc(C(=O)[N-]c3ccccc3C(=O)[O-])c2)cc1 (optimized conformer: 64.45544547181872 kcal/mol)

>  <smiles>  (37) 
Cc1ccc(S(=O)(=O)N(C)c2cccc(C(=O)Nc3ccccc3C(=O)O)c2)cc1

>  <score_type>  (37) 
oracle

>  <origin>  (37) 
adgpu

>  <m_score__min__energy>  (37) 
-13.279999999999999

>  <m_primary>  (37) 
energy

$$$$
37:0
     RDKit          3D

 25 26  0  0  0  0  0  0  0  0999 V2000
   -2.8040   22.2630  -32.1100 O   0  0  0  0  0  0  0  0  0  0  0  0
   -3.3570   22.5210  -31.0070 C   0  0  0  0  0  0  0  0  0  0  0  0
   -2.6690   22.2310  -29.7820 N   0  0  0  0  0  0  0  0  0  0  0  0
   -2.0500   23.1800  -28.9010 C   0  0  0  0  0  0  0  0  0  0  0  0
   -1.4950   22.7990  -27.6640 C   0  0  0  0  0  0  0  0  0  0  0  0
   -0.8810   23.7540  -26.8470 C   0  0  0  0  0  0  0  0  0  0  0  0
   -0.8020   25.0860  -27.2600 C   0  0  0  0  0  0  0  0  0  0  0  0
   -1.3290   25.4660  -28.4980 C   0  0  0  0  0  0  0  0  0  0  0  0
   -1.2390   26.7890  -28.9150 O   0  0  0  0  0  0  0  0  0  0  0  0
   -1.9440   24.5140  -29.3180 C   0  0  0  0  0  0  0  0  0  0  0  0
   -4.7380   23.0710  -30.9690 C   0  0  0  0  0  0  0  0  0  0  0  0
   -5.8410   22.1920  -30.9950 C   0  0  0  0  0  0  0  0  0  0  0  0
   -7.1480   22.6850  -30.9600 C   0  0  0  0  0  0  0  0  0  0  0  0
   -8.6260   21.4740  -30.9970 Br  0  0  0  0  0  0  0  0  0  0  0  0
   -7.3770   24.0610  -30.8980 C   0  0  0  0  0  0  0  0  0  0  0  0
   -6.2990   24.9450  -30.8710 C   0  0  0  0  0  0  0  0  0  0  0  0
   -4.9860   24.4640  -30.9040 C   0  0  0  0  0  0  0  0  0  0  0  0
   -3.9410   25.3820  -30.8720 O   0  0  0  0  0  0  0  0  0  0  0  0
   -1.5444   21.7490  -27.3399 H   0  0  0  0  0  0  0  0  0  0  0  0
   -0.4590   23.4551  -25.8761 H   0  0  0  0  0  0  0  0  0  0  0  0
   -0.3253   25.8358  -26.6114 H   0  0  0  0  0  0  0  0  0  0  0  0
   -2.3470   24.8143  -30.2965 H   0  0  0  0  0  0  0  0  0  0  0  0
   -5.6703   21.1064  -31.0434 H   0  0  0  0  0  0  0  0  0  0  0  0
   -8.4066   24.4472  -30.8705 H   0  0  0  0  0  0  0  0  0  0  0  0
   -6.4825   26.0285  -30.8234 H   0  0  0  0  0  0  0  0  0  0  0  0
  1  2  2  0
  2  3  1  0
  3  4  1  0
  4  5  2  0
  5  6  1  0
  6  7  2  0
  7  8  1  0
  8  9  1  0
  8 10  2  0
  2 11  1  0
 11 12  2  0
 12 13  1  0
 13 14  1  0
 13 15  2  0
 15 16  1  0
 16 17  2  0
 17 18  1  0
 10  4  1  0
 17 11  1  0
  5 19  1  0
  6 20  1  0
  7 21  1  0
 10 22  1  0
 12 23  1  0
 15 24  1  0
 16 25  1  0
M  CHG  3   3  -1   9  -1  18  -1
M  END
>  <UniqueID>  (38) 
37

>  <SMILES>  (38) 
O=C([N-]c1cccc([O-])c1)c1cc(Br)ccc1[O-]

>  <Energy>  (38) 
32.05935830545065

>  <Genealogy>  (38) 
O=C([N-]c1cccc([O-])c1)c1cc(Br)ccc1[O-] (protonated)
O=C([N-]c1cccc([O-])c1)c1cc(Br)ccc1[O-] (3D coordinates assigned)
O=C([N-]c1cccc([O-])c1)c1cc(Br)ccc1[O-] (optimized conformer: 32.05935830545065 kcal/mol)

>  <smiles>  (38) 
O=C(Nc1cccc(O)c1)c1cc(Br)ccc1O

>  <score_type>  (38) 
oracle

>  <origin>  (38) 
adgpu

>  <m_score__min__energy>  (38) 
-12.140000000000001

>  <m_primary>  (38) 
energy

$$$$
38:0
     RDKit          3D

 53 57  0  0  0  0  0  0  0  0999 V2000
   -4.6714   21.9880  -33.7037 H   0  0  0  0  0  0  0  0  0  0  0  0
   -3.7960   21.3650  -33.4680 C   0  0  0  0  0  0  0  0  0  0  0  0
   -2.7450   21.7640  -32.7890 O   0  0  0  0  0  0  0  0  0  0  0  0
   -1.9000   20.7620  -32.7010 C   0  0  0  0  0  0  0  0  0  0  0  0
   -0.5840   20.8350  -31.9930 C   0  0  0  0  0  0  0  0  0  0  0  0
   -0.0899   21.7851  -32.2444 H   0  0  0  0  0  0  0  0  0  0  0  0
    0.0396   19.9872  -32.3127 H   0  0  0  0  0  0  0  0  0  0  0  0
   -0.7770   20.7610  -30.5440 N   0  0  0  0  0  0  0  0  0  0  0  0
   -0.5460   19.7530  -29.7440 C   0  0  0  0  0  0  0  0  0  0  0  0
   -0.0300   18.5360  -30.2460 C   0  0  0  0  0  0  0  0  0  0  0  0
    0.1127   18.4207  -31.3306 H   0  0  0  0  0  0  0  0  0  0  0  0
    0.3060   17.4670  -29.3910 C   0  0  0  0  0  0  0  0  0  0  0  0
    0.7700   16.2500  -29.8430 N   0  0  0  0  0  0  0  0  0  0  0  0
    0.6690   15.8990  -31.2770 C   0  0  0  0  0  0  0  0  0  0  0  0
    0.3661   14.8462  -31.3763 H   0  0  0  0  0  0  0  0  0  0  0  0
   -0.0802   16.5433  -31.7603 H   0  0  0  0  0  0  0  0  0  0  0  0
    1.6461   16.0466  -31.7603 H   0  0  0  0  0  0  0  0  0  0  0  0
    1.3170   15.3570  -28.9380 C   0  0  0  0  0  0  0  0  0  0  0  0
    2.0140   14.1940  -29.3560 C   0  0  0  0  0  0  0  0  0  0  0  0
    2.1560   14.0038  -30.4301 H   0  0  0  0  0  0  0  0  0  0  0  0
    2.5220   13.2880  -28.4240 C   0  0  0  0  0  0  0  0  0  0  0  0
    3.0478   12.3855  -28.7690 H   0  0  0  0  0  0  0  0  0  0  0  0
    2.3670   13.5200  -27.0600 C   0  0  0  0  0  0  0  0  0  0  0  0
    2.7545   12.7931  -26.3310 H   0  0  0  0  0  0  0  0  0  0  0  0
    1.7210   14.6730  -26.6180 C   0  0  0  0  0  0  0  0  0  0  0  0
    1.6102   14.8566  -25.5391 H   0  0  0  0  0  0  0  0  0  0  0  0
    1.2100   15.6030  -27.5390 C   0  0  0  0  0  0  0  0  0  0  0  0
    0.6230   16.7410  -27.0810 N   0  0  0  0  0  0  0  0  0  0  0  0
    0.5420   16.9010  -26.0510 H   0  0  0  0  0  0  0  0  0  0  0  0
    0.1890   17.6950  -27.9390 C   0  0  0  0  0  0  0  0  0  0  0  0
   -0.3590   18.8870  -27.4660 C   0  0  0  0  0  0  0  0  0  0  0  0
   -0.4722   19.0340  -26.3818 H   0  0  0  0  0  0  0  0  0  0  0  0
   -0.7680   19.9000  -28.3400 C   0  0  0  0  0  0  0  0  0  0  0  0
   -1.3020   20.9630  -27.7910 N   0  0  0  0  0  0  0  0  0  0  0  0
   -1.9280   22.0910  -28.4180 C   0  0  0  0  0  0  0  0  0  0  0  0
   -1.2210   23.2880  -28.6100 C   0  0  0  0  0  0  0  0  0  0  0  0
   -0.1861   23.3777  -28.2480 H   0  0  0  0  0  0  0  0  0  0  0  0
   -1.8280   24.3670  -29.2600 C   0  0  0  0  0  0  0  0  0  0  0  0
   -1.2762   25.3098  -29.3893 H   0  0  0  0  0  0  0  0  0  0  0  0
   -3.1440   24.2510  -29.7500 C   0  0  0  0  0  0  0  0  0  0  0  0
   -3.7990   25.3040  -30.4050 O   0  0  0  0  0  0  0  0  0  0  0  0
   -5.2130   25.4120  -30.5350 C   0  0  0  0  0  0  0  0  0  0  0  0
   -5.6715   25.4470  -29.5357 H   0  0  0  0  0  0  0  0  0  0  0  0
   -5.4615   26.3317  -31.0849 H   0  0  0  0  0  0  0  0  0  0  0  0
   -5.5983   24.5407  -31.0849 H   0  0  0  0  0  0  0  0  0  0  0  0
   -3.8290   23.0410  -29.5850 C   0  0  0  0  0  0  0  0  0  0  0  0
   -4.8538   22.9377  -29.9710 H   0  0  0  0  0  0  0  0  0  0  0  0
   -3.2220   21.9630  -28.9340 C   0  0  0  0  0  0  0  0  0  0  0  0
   -3.7634   21.0114  -28.8272 H   0  0  0  0  0  0  0  0  0  0  0  0
   -2.4120   19.6530  -33.3440 C   0  0  0  0  0  0  0  0  0  0  0  0
   -1.9417   18.6632  -33.4397 H   0  0  0  0  0  0  0  0  0  0  0  0
   -3.6360   20.0460  -33.8410 C   0  0  0  0  0  0  0  0  0  0  0  0
   -4.3428   19.4321  -34.4185 H   0  0  0  0  0  0  0  0  0  0  0  0
  1  2  1  0
  2  3  1  0
  3  4  1  0
  4  5  1  0
  5  6  1  0
  5  7  1  0
  5  8  1  0
  8  9  2  0
  9 10  1  0
 10 11  1  0
 10 12  2  0
 12 13  1  0
 13 14  1  0
 14 15  1  0
 14 16  1  0
 14 17  1  0
 13 18  1  0
 18 19  2  0
 19 20  1  0
 19 21  1  0
 21 22  1  0
 21 23  2  0
 23 24  1  0
 23 25  1  0
 25 26  1  0
 25 27  2  0
 27 28  1  0
 28 29  1  0
 28 30  1  0
 30 31  2  0
 31 32  1  0
 31 33  1  0
 33 34  2  0
 34 35  1  0
 35 36  2  0
 36 37  1  0
 36 38  1  0
 38 39  1  0
 38 40  2  0
 40 41  1  0
 41 42  1  0
 42 43  1  0
 42 44  1  0
 42 45  1  0
 40 46  1  0
 46 47  1  0
 46 48  2  0
 48 49  1  0
  4 50  2  0
 50 51  1  0
 50 52  1  0
 52 53  1  0
 52  2  2  0
 33  9  1  0
 48 35  1  0
 30 12  1  0
 27 18  1  0
M  END
>  <UniqueID>  (39) 
38

>  <SMILES>  (39) 
COc1ccc(/N=c2/cc3[nH]c4ccccc4n(C)c-3c/c2=N/Cc2ccco2)cc1

>  <Energy>  (39) 
115.99069966205855

>  <Genealogy>  (39) 
COc1ccc(/N=c2/cc3[nH]c4ccccc4n(C)c-3c/c2=N/Cc2ccco2)cc1 (cis-trans isomerization)
COc1ccc(/N=c2/cc3[nH]c4ccccc4n(C)c-3c/c2=N/Cc2ccco2)cc1 (3D coordinates assigned)
COc1ccc(/N=c2/cc3[nH]c4ccccc4n(C)c-3c/c2=N/Cc2ccco2)cc1 (optimized conformer: 115.99069966205855 kcal/mol)

>  <smiles>  (39) 
COc1ccc(N=c2cc3[nH]c4ccccc4n(C)c-3cc2=NCc2ccco2)cc1

>  <score_type>  (39) 
oracle

>  <origin>  (39) 
adgpu

>  <m_score__min__energy>  (39) 
-7.7400000000000002

>  <m_primary>  (39) 
energy

$$$$
39:0
     RDKit          3D

 43 45  0  0  1  0  0  0  0  0999 V2000
   -0.9990   26.2820  -27.7620 C   0  0  0  0  0  0  0  0  0  0  0  0
   -1.6010   25.8230  -28.9720 O   0  0  0  0  0  0  0  0  0  0  0  0
   -2.2800   24.6120  -28.9360 C   0  0  0  0  0  0  0  0  0  0  0  0
   -3.6490   24.5420  -28.8030 C   0  0  0  0  0  0  0  0  0  0  0  0
   -4.2700   23.3090  -28.7730 C   0  0  0  0  0  0  0  0  0  0  0  0
   -3.5400   22.1450  -28.8750 C   0  0  0  0  0  0  0  0  0  0  0  0
   -2.1740   22.2400  -29.0070 C   0  0  0  0  0  0  0  0  0  0  0  0
   -1.3050   21.0180  -29.1240 C   0  0  0  0  0  0  0  0  0  0  0  0
   -0.5360   21.0680  -30.3560 N   0  0  0  0  0  0  0  0  0  0  0  0
   -1.1330   21.1010  -31.4960 C   0  0  0  0  0  0  0  0  0  0  0  0
   -0.3890   21.1480  -32.6550 C   0  0  0  0  0  0  0  0  0  0  0  0
   -1.1070   21.1820  -33.8310 C   0  0  0  0  0  0  0  0  0  0  0  0
   -2.4730   21.1670  -33.7780 N   0  0  0  0  0  0  0  0  0  0  0  0
   -3.1730   21.1230  -32.6490 C   0  0  0  0  0  0  0  0  0  0  0  0
   -4.6150   21.1170  -32.5170 C   0  0  0  0  0  0  0  0  0  0  0  0
   -5.2240   22.2050  -31.8720 C   0  0  0  0  0  0  0  0  0  0  0  0
   -6.5800   22.3090  -31.6980 C   0  0  0  0  0  0  0  0  0  0  0  0
   -7.4290   21.3330  -32.1550 C   0  0  0  0  0  0  0  0  0  0  0  0
   -9.1650   21.4230  -31.9550 Cl  0  0  0  0  0  0  0  0  0  0  0  0
   -6.8620   20.2560  -32.7900 C   0  0  0  0  0  0  0  0  0  0  0  0
   -5.4720   20.1490  -32.9710 C   0  0  0  0  0  0  0  0  0  0  0  0
   -4.9410   18.7240  -33.8050 Cl  0  0  0  0  0  0  0  0  0  0  0  0
   -2.4620   21.0900  -31.5020 N   0  0  0  0  0  0  0  0  0  0  0  0
   -1.5250   23.4570  -29.0400 C   0  0  0  0  0  0  0  0  0  0  0  0
   -0.1390   23.5520  -29.1740 O   0  0  0  0  0  0  0  0  0  0  0  0
    0.7250   23.5440  -28.0500 C   0  0  0  0  0  0  0  0  0  0  0  0
   -1.5435   25.8668  -26.9011 H   0  0  0  0  0  0  0  0  0  0  0  0
    0.0498   25.9522  -27.7262 H   0  0  0  0  0  0  0  0  0  0  0  0
   -1.0393   27.3807  -27.7262 H   0  0  0  0  0  0  0  0  0  0  0  0
   -4.2445   25.4632  -28.7211 H   0  0  0  0  0  0  0  0  0  0  0  0
   -5.3635   23.2554  -28.6661 H   0  0  0  0  0  0  0  0  0  0  0  0
   -4.0371   21.1640  -28.8515 H   0  0  0  0  0  0  0  0  0  0  0  0
   -0.6167   20.9777  -28.2669 H   0  0  0  0  0  0  0  0  0  0  0  0
   -1.9432   20.1221  -29.1341 H   0  0  0  0  0  0  0  0  0  0  0  0
    0.7109   21.1578  -32.6424 H   0  0  0  0  0  0  0  0  0  0  0  0
   -0.5875   21.2207  -34.7999 H   0  0  0  0  0  0  0  0  0  0  0  0
   -2.9370   21.1890  -34.6840 H   0  0  0  0  0  0  0  0  0  0  0  0
   -4.5830   23.0123  -31.4880 H   0  0  0  0  0  0  0  0  0  0  0  0
   -6.9938   23.1890  -31.1838 H   0  0  0  0  0  0  0  0  0  0  0  0
   -7.5136   19.4543  -33.1678 H   0  0  0  0  0  0  0  0  0  0  0  0
    0.1263   23.5495  -27.1272 H   0  0  0  0  0  0  0  0  0  0  0  0
    1.3512   22.6400  -28.0753 H   0  0  0  0  0  0  0  0  0  0  0  0
    1.3679   24.4362  -28.0753 H   0  0  0  0  0  0  0  0  0  0  0  0
  1  2  1  0
  2  3  1  0
  3  4  2  0
  4  5  1  0
  5  6  2  0
  6  7  1  0
  7  8  1  0
  8  9  1  0
  9 10  2  0
 10 11  1  0
 11 12  2  0
 12 13  1  0
 13 14  1  0
 14 15  1  0
 15 16  2  0
 16 17  1  0
 17 18  2  0
 18 19  1  0
 18 20  1  0
 20 21  2  0
 21 22  1  0
 14 23  2  0
  7 24  2  0
 24 25  1  0
 25 26  1  0
 24  3  1  0
 23 10  1  0
 21 15  1  0
  1 27  1  0
  1 28  1  0
  1 29  1  0
  4 30  1  0
  5 31  1  0
  6 32  1  0
  8 33  1  0
  8 34  1  0
 11 35  1  0
 12 36  1  0
 13 37  1  0
 16 38  1  0
 17 39  1  0
 20 40  1  0
 26 41  1  0
 26 42  1  0
 26 43  1  0
M  END
>  <smiles>  (40) 
COc1cccc(CN=c2cc[nH]c(-c3ccc(Cl)cc3Cl)n2)c1OC

>  <score_type>  (40) 
oracle

>  <origin>  (40) 
adgpu

>  <m_score__min__energy>  (40) 
-9.4499999999999993

>  <m_primary>  (40) 
energy

$$$$
40:0
     RDKit          3D

 35 36  0  0  0  0  0  0  0  0999 V2000
   -6.9880   24.0840  -31.0920 C   0  0  0  0  0  0  0  0  0  0  0  0
   -6.6640   22.7180  -31.6310 C   0  0  0  0  0  0  0  0  0  0  0  0
   -5.3600   22.4180  -31.8850 N   0  0  0  0  0  0  0  0  0  0  0  0
   -4.9970   21.2060  -32.3690 C   0  0  0  0  0  0  0  0  0  0  0  0
   -3.2730   20.8380  -32.6740 S   0  0  0  0  0  0  0  0  0  0  0  0
   -2.6490   22.2880  -31.7530 C   0  0  0  0  0  0  0  0  0  0  0  0
   -2.9010   22.0690  -30.2790 C   0  0  0  0  0  0  0  0  0  0  0  0
   -2.9320   20.7370  -29.8190 C   0  0  0  0  0  0  0  0  0  0  0  0
   -3.0200   20.4540  -28.4530 C   0  0  0  0  0  0  0  0  0  0  0  0
   -3.0500   21.4950  -27.5280 C   0  0  0  0  0  0  0  0  0  0  0  0
   -3.0010   22.8230  -27.9590 C   0  0  0  0  0  0  0  0  0  0  0  0
   -2.9360   23.1310  -29.3300 C   0  0  0  0  0  0  0  0  0  0  0  0
   -2.9070   24.5580  -29.7180 C   0  0  0  0  0  0  0  0  0  0  0  0
   -1.9740   25.3090  -29.3370 O   0  0  0  0  0  0  0  0  0  0  0  0
   -3.8710   25.0610  -30.5860 O   0  0  0  0  0  0  0  0  0  0  0  0
   -5.9410   20.2660  -32.6280 N   0  0  0  0  0  0  0  0  0  0  0  0
   -7.2610   20.4950  -32.3920 C   0  0  0  0  0  0  0  0  0  0  0  0
   -8.2370   19.4000  -32.7150 C   0  0  0  0  0  0  0  0  0  0  0  0
   -7.6640   21.7340  -31.8390 C   0  0  0  0  0  0  0  0  0  0  0  0
   -9.1170   22.0230  -31.5240 C   0  0  0  0  0  0  0  0  0  0  0  0
   -6.9812   24.0554  -29.9924 H   0  0  0  0  0  0  0  0  0  0  0  0
   -6.2360   24.8052  -31.4447 H   0  0  0  0  0  0  0  0  0  0  0  0
   -7.9838   24.3906  -31.4447 H   0  0  0  0  0  0  0  0  0  0  0  0
   -1.5697   22.4035  -31.9311 H   0  0  0  0  0  0  0  0  0  0  0  0
   -3.1658   23.1983  -32.0910 H   0  0  0  0  0  0  0  0  0  0  0  0
   -2.8864   19.9105  -30.5435 H   0  0  0  0  0  0  0  0  0  0  0  0
   -3.0655   19.4102  -28.1088 H   0  0  0  0  0  0  0  0  0  0  0  0
   -3.1126   21.2704  -26.4530 H   0  0  0  0  0  0  0  0  0  0  0  0
   -3.0134   23.6363  -27.2185 H   0  0  0  0  0  0  0  0  0  0  0  0
   -8.6237   18.9662  -31.7810 H   0  0  0  0  0  0  0  0  0  0  0  0
   -9.0715   19.8135  -33.3003 H   0  0  0  0  0  0  0  0  0  0  0  0
   -7.7306   18.6183  -33.3003 H   0  0  0  0  0  0  0  0  0  0  0  0
   -9.2572   22.0509  -30.4333 H   0  0  0  0  0  0  0  0  0  0  0  0
   -9.3993   22.9949  -31.9549 H   0  0  0  0  0  0  0  0  0  0  0  0
   -9.7497   21.2331  -31.9549 H   0  0  0  0  0  0  0  0  0  0  0  0
  1  2  1  0
  2  3  2  0
  3  4  1  0
  4  5  1  0
  5  6  1  0
  6  7  1  0
  7  8  2  0
  8  9  1  0
  9 10  2  0
 10 11  1  0
 11 12  2  0
 12 13  1  0
 13 14  2  0
 13 15  1  0
  4 16  2  0
 16 17  1  0
 17 18  1  0
 17 19  2  0
 19 20  1  0
 19  2  1  0
 12  7  1  0
  1 21  1  0
  1 22  1  0
  1 23  1  0
  6 24  1  0
  6 25  1  0
  8 26  1  0
  9 27  1  0
 10 28  1  0
 11 29  1  0
 18 30  1  0
 18 31  1  0
 18 32  1  0
 20 33  1  0
 20 34  1  0
 20 35  1  0
M  CHG  1  15  -1
M  END
>  <UniqueID>  (41) 
39

>  <SMILES>  (41) 
Cc1nc(SCc2ccccc2C(=O)[O-])nc(C)c1C

>  <Energy>  (41) 
40.571168541290696

>  <Genealogy>  (41) 
Cc1nc(SCc2ccccc2C(=O)[O-])nc(C)c1C (protonated)
Cc1nc(SCc2ccccc2C(=O)[O-])nc(C)c1C (3D coordinates assigned)
Cc1nc(SCc2ccccc2C(=O)[O-])nc(C)c1C (optimized conformer: 40.571168541290696 kcal/mol)

>  <smiles>  (41) 
Cc1nc(SCc2ccccc2C(=O)O)nc(C)c1C

>  <score_type>  (41) 
oracle

>  <origin>  (41) 
adgpu

>  <m_score__min__energy>  (41) 
-10.19

>  <m_primary>  (41) 
energy

$$$$
41:0
     RDKit          3D

 37 39  0  0  0  0  0  0  0  0999 V2000
   -0.3560   24.9990  -28.5980 O   0  0  0  0  0  0  0  0  0  0  0  0
   -1.4720   24.4430  -28.7760 C   0  0  0  0  0  0  0  0  0  0  0  0
   -2.5690   25.1710  -29.3430 N   0  0  0  0  0  0  0  0  0  0  0  0
   -3.6390   24.6300  -30.1320 C   0  0  0  0  0  0  0  0  0  0  0  0
   -4.8620   25.3090  -30.1610 C   0  0  0  0  0  0  0  0  0  0  0  0
   -5.9340   24.8070  -30.9040 C   0  0  0  0  0  0  0  0  0  0  0  0
   -5.8070   23.6080  -31.6220 C   0  0  0  0  0  0  0  0  0  0  0  0
   -6.9280   23.1230  -32.3830 N   0  0  0  0  0  0  0  0  0  0  0  0
   -8.1800   22.1160  -31.7260 S   0  0  0  0  0  0  0  0  0  0  0  0
   -8.2250   22.2990  -30.2340 O   0  0  0  0  0  0  0  0  0  0  0  0
   -9.5020   22.5270  -32.3090 O   0  0  0  0  0  0  0  0  0  0  0  0
   -7.8780   20.4310  -32.1380 C   0  0  0  0  0  0  0  0  0  0  0  0
   -8.7070   19.4250  -31.6210 C   0  0  0  0  0  0  0  0  0  0  0  0
   -8.4790   18.0870  -31.9550 C   0  0  0  0  0  0  0  0  0  0  0  0
   -7.4220   17.7470  -32.8040 C   0  0  0  0  0  0  0  0  0  0  0  0
   -6.5900   18.7460  -33.3180 C   0  0  0  0  0  0  0  0  0  0  0  0
   -6.8160   20.0860  -32.9870 C   0  0  0  0  0  0  0  0  0  0  0  0
   -4.5870   22.9070  -31.5630 C   0  0  0  0  0  0  0  0  0  0  0  0
   -3.5140   23.4110  -30.8220 C   0  0  0  0  0  0  0  0  0  0  0  0
   -1.6640   23.0510  -28.3490 C   0  0  0  0  0  0  0  0  0  0  0  0
   -0.7290   22.0280  -28.4530 C   0  0  0  0  0  0  0  0  0  0  0  0
   -1.1970   20.8020  -27.9590 C   0  0  0  0  0  0  0  0  0  0  0  0
   -2.4950   20.8570  -27.4670 C   0  0  0  0  0  0  0  0  0  0  0  0
   -3.0610   22.4300  -27.6470 S   0  0  0  0  0  0  0  0  0  0  0  0
   -4.9806   26.2447  -29.5949 H   0  0  0  0  0  0  0  0  0  0  0  0
   -6.8864   25.3570  -30.9262 H   0  0  0  0  0  0  0  0  0  0  0  0
   -6.9640   23.3140  -33.4090 H   0  0  0  0  0  0  0  0  0  0  0  0
   -9.5385   19.6894  -30.9512 H   0  0  0  0  0  0  0  0  0  0  0  0
   -9.1323   17.3006  -31.5491 H   0  0  0  0  0  0  0  0  0  0  0  0
   -7.2449   16.6938  -33.0676 H   0  0  0  0  0  0  0  0  0  0  0  0
   -5.7564   18.4778  -33.9837 H   0  0  0  0  0  0  0  0  0  0  0  0
   -6.1602   20.8703  -33.3929 H   0  0  0  0  0  0  0  0  0  0  0  0
   -4.4775   21.9556  -32.1041 H   0  0  0  0  0  0  0  0  0  0  0  0
   -2.5678   22.8516  -30.7785 H   0  0  0  0  0  0  0  0  0  0  0  0
    0.2756   22.1660  -28.8793 H   0  0  0  0  0  0  0  0  0  0  0  0
   -0.5929   19.8827  -27.9609 H   0  0  0  0  0  0  0  0  0  0  0  0
   -3.0562   20.0158  -27.0340 H   0  0  0  0  0  0  0  0  0  0  0  0
  1  2  2  0
  2  3  1  0
  3  4  1  0
  4  5  2  0
  5  6  1  0
  6  7  2  0
  7  8  1  0
  8  9  1  0
  9 10  2  0
  9 11  2  0
  9 12  1  0
 12 13  2  0
 13 14  1  0
 14 15  2  0
 15 16  1  0
 16 17  2  0
  7 18  1  0
 18 19  2  0
  2 20  1  0
 20 21  2  0
 21 22  1  0
 22 23  2  0
 23 24  1  0
 19  4  1  0
 24 20  1  0
 17 12  1  0
  5 25  1  0
  6 26  1  0
  8 27  1  0
 13 28  1  0
 14 29  1  0
 15 30  1  0
 16 31  1  0
 17 32  1  0
 18 33  1  0
 19 34  1  0
 21 35  1  0
 22 36  1  0
 23 37  1  0
M  CHG  1   3  -1
M  END
>  <UniqueID>  (42) 
40

>  <SMILES>  (42) 
O=C([N-]c1ccc(NS(=O)(=O)c2ccccc2)cc1)c1cccs1

>  <Energy>  (42) 
70.85677315071688

>  <Genealogy>  (42) 
O=C([N-]c1ccc(NS(=O)(=O)c2ccccc2)cc1)c1cccs1 (protonated)
O=C([N-]c1ccc(NS(=O)(=O)c2ccccc2)cc1)c1cccs1 (3D coordinates assigned)
O=C([N-]c1ccc(NS(=O)(=O)c2ccccc2)cc1)c1cccs1 (optimized conformer: 70.85677315071688 kcal/mol)

>  <smiles>  (42) 
O=C(Nc1ccc(NS(=O)(=O)c2ccccc2)cc1)c1cccs1

>  <score_type>  (42) 
oracle

>  <origin>  (42) 
adgpu

>  <m_score__min__energy>  (42) 
-10.960000000000001

>  <m_primary>  (42) 
energy

$$$$
42:0
     RDKit          3D

 51 53  0  0  0  0  0  0  0  0999 V2000
   -9.0170   21.9340  -31.2950 C   0  0  0  0  0  0  0  0  0  0  0  0
   -8.0220   21.8720  -32.3120 O   0  0  0  0  0  0  0  0  0  0  0  0
   -6.6430   21.7440  -32.0730 C   0  0  0  0  0  0  0  0  0  0  0  0
   -5.9180   22.7230  -31.3640 C   0  0  0  0  0  0  0  0  0  0  0  0
   -4.5300   22.5970  -31.1750 C   0  0  0  0  0  0  0  0  0  0  0  0
   -3.7800   23.6400  -30.4330 C   0  0  0  0  0  0  0  0  0  0  0  0
   -3.9280   24.8530  -30.7500 O   0  0  0  0  0  0  0  0  0  0  0  0
   -2.8480   23.2830  -29.4000 N   0  0  0  0  0  0  0  0  0  0  0  0
   -2.3450   24.2140  -28.4260 C   0  0  0  0  0  0  0  0  0  0  0  0
   -3.0000   24.4140  -27.1980 C   0  0  0  0  0  0  0  0  0  0  0  0
   -2.4830   25.3110  -26.2590 C   0  0  0  0  0  0  0  0  0  0  0  0
   -1.3000   26.0190  -26.5270 C   0  0  0  0  0  0  0  0  0  0  0  0
   -0.7630   26.9470  -25.5660 N   0  0  0  0  0  0  0  0  0  0  0  0
   -0.8390   26.6550  -24.1310 C   0  0  0  0  0  0  0  0  0  0  0  0
    0.3130   27.3540  -23.4010 C   0  0  0  0  0  0  0  0  0  0  0  0
    0.3490   28.7330  -23.7200 O   0  0  0  0  0  0  0  0  0  0  0  0
    0.6420   28.8990  -25.0950 C   0  0  0  0  0  0  0  0  0  0  0  0
   -0.4840   28.3310  -25.9630 C   0  0  0  0  0  0  0  0  0  0  0  0
   -0.6330   25.7980  -27.7420 C   0  0  0  0  0  0  0  0  0  0  0  0
   -1.1480   24.8980  -28.6790 C   0  0  0  0  0  0  0  0  0  0  0  0
   -3.8730   21.4670  -31.6870 C   0  0  0  0  0  0  0  0  0  0  0  0
   -4.5860   20.4880  -32.3810 C   0  0  0  0  0  0  0  0  0  0  0  0
   -5.9690   20.6120  -32.5730 C   0  0  0  0  0  0  0  0  0  0  0  0
   -6.6870   19.5910  -33.2930 N   0  0  0  0  0  0  0  0  0  0  0  0
   -7.9250   19.0250  -32.7530 C   0  0  0  0  0  0  0  0  0  0  0  0
   -6.1160   19.0050  -34.5070 C   0  0  0  0  0  0  0  0  0  0  0  0
   -8.5340   21.9039  -30.3072 H   0  0  0  0  0  0  0  0  0  0  0  0
   -9.5869   22.8694  -31.3962 H   0  0  0  0  0  0  0  0  0  0  0  0
   -9.6986   21.0766  -31.3962 H   0  0  0  0  0  0  0  0  0  0  0  0
   -6.4446   23.5970  -30.9531 H   0  0  0  0  0  0  0  0  0  0  0  0
   -2.4110   22.3340  -29.4370 H   0  0  0  0  0  0  0  0  0  0  0  0
   -3.9246   23.8614  -26.9750 H   0  0  0  0  0  0  0  0  0  0  0  0
   -3.0063   25.4635  -25.3035 H   0  0  0  0  0  0  0  0  0  0  0  0
   -1.7981   27.0189  -23.7339 H   0  0  0  0  0  0  0  0  0  0  0  0
   -0.7637   25.5687  -23.9754 H   0  0  0  0  0  0  0  0  0  0  0  0
    0.1748   27.2386  -22.3158 H   0  0  0  0  0  0  0  0  0  0  0  0
    1.2609   26.8945  -23.7179 H   0  0  0  0  0  0  0  0  0  0  0  0
    0.7589   29.9710  -25.3120 H   0  0  0  0  0  0  0  0  0  0  0  0
    1.5718   28.3582  -25.3253 H   0  0  0  0  0  0  0  0  0  0  0  0
   -1.3907   28.9395  -25.8302 H   0  0  0  0  0  0  0  0  0  0  0  0
   -0.1766   28.3525  -27.0189 H   0  0  0  0  0  0  0  0  0  0  0  0
    0.3013   26.3368  -27.9582 H   0  0  0  0  0  0  0  0  0  0  0  0
   -0.6097   24.7250  -29.6226 H   0  0  0  0  0  0  0  0  0  0  0  0
   -2.7889   21.3523  -31.5403 H   0  0  0  0  0  0  0  0  0  0  0  0
   -4.0573   19.6104  -32.7813 H   0  0  0  0  0  0  0  0  0  0  0  0
   -7.8872   19.0423  -31.6538 H   0  0  0  0  0  0  0  0  0  0  0  0
   -8.7823   19.6206  -33.0998 H   0  0  0  0  0  0  0  0  0  0  0  0
   -8.0354   17.9870  -33.0998 H   0  0  0  0  0  0  0  0  0  0  0  0
   -5.3728   18.2423  -34.2314 H   0  0  0  0  0  0  0  0  0  0  0  0
   -6.9163   18.5394  -35.1009 H   0  0  0  0  0  0  0  0  0  0  0  0
   -5.6298   19.7930  -35.1009 H   0  0  0  0  0  0  0  0  0  0  0  0
  1  2  1  0
  2  3  1  0
  3  4  2  0
  4  5  1  0
  5  6  1  0
  6  7  2  0
  6  8  1  0
  8  9  1  0
  9 10  2  0
 10 11  1  0
 11 12  2  0
 12 13  1  0
 13 14  1  0
 14 15  1  0
 15 16  1  0
 16 17  1  0
 17 18  1  0
 12 19  1  0
 19 20  2  0
  5 21  2  0
 21 22  1  0
 22 23  2  0
 23 24  1  0
 24 25  1  0
 24 26  1  0
 23  3  1  0
 20  9  1  0
 18 13  1  0
  1 27  1  0
  1 28  1  0
  1 29  1  0
  4 30  1  0
  8 31  1  0
 10 32  1  0
 11 33  1  0
 14 34  1  0
 14 35  1  0
 15 36  1  0
 15 37  1  0
 17 38  1  0
 17 39  1  0
 18 40  1  0
 18 41  1  0
 19 42  1  0
 20 43  1  0
 21 44  1  0
 22 45  1  0
 25 46  1  0
 25 47  1  0
 25 48  1  0
 26 49  1  0
 26 50  1  0
 26 51  1  0
M  END
>  <UniqueID>  (43) 
41

>  <SMILES>  (43) 
COc1cc(C(=O)Nc2ccc(N3CCOCC3)cc2)ccc1N(C)C

>  <Energy>  (43) 
66.07698636216502

>  <Genealogy>  (43) 
COc1cc(C(=O)Nc2ccc(N3CCOCC3)cc2)ccc1N(C)C (3D coordinates assigned)
COc1cc(C(=O)Nc2ccc(N3CCOCC3)cc2)ccc1N(C)C (nonaromatic ring conformer: 66.07698636216502 kcal/mol)

>  <smiles>  (43) 
COc1cc(C(=O)Nc2ccc(N3CCOCC3)cc2)ccc1N(C)C

>  <score_type>  (43) 
oracle

>  <origin>  (43) 
adgpu

>  <m_score__min__energy>  (43) 
-7.7000000000000002

>  <m_primary>  (43) 
energy

$$$$
43:0
     RDKit          3D

 40 42  0  0  0  0  0  0  0  0999 V2000
   -6.4920   24.9950  -30.9540 N   0  0  0  0  0  0  0  0  0  0  0  0
   -6.8980   23.6500  -31.2480 C   0  0  0  0  0  0  0  0  0  0  0  0
   -8.2260   23.4170  -31.6350 C   0  0  0  0  0  0  0  0  0  0  0  0
   -8.6680   22.1260  -31.9250 C   0  0  0  0  0  0  0  0  0  0  0  0
   -7.7890   21.0440  -31.8230 C   0  0  0  0  0  0  0  0  0  0  0  0
   -8.3370   19.4160  -32.2060 S   0  0  0  0  0  0  0  0  0  0  0  0
   -8.7170   18.6960  -30.9410 O   0  0  0  0  0  0  0  0  0  0  0  0
   -9.5480   19.4720  -33.0930 O   0  0  0  0  0  0  0  0  0  0  0  0
   -7.0370   18.5530  -33.0210 C   0  0  0  0  0  0  0  0  0  0  0  0
   -6.7760   17.2120  -32.7060 C   0  0  0  0  0  0  0  0  0  0  0  0
   -5.7300   16.5340  -33.3390 C   0  0  0  0  0  0  0  0  0  0  0  0
   -4.9380   17.1930  -34.2840 C   0  0  0  0  0  0  0  0  0  0  0  0
   -5.1890   18.5330  -34.5930 C   0  0  0  0  0  0  0  0  0  0  0  0
   -6.2340   19.2140  -33.9620 C   0  0  0  0  0  0  0  0  0  0  0  0
   -6.4600   21.2640  -31.4470 C   0  0  0  0  0  0  0  0  0  0  0  0
   -5.9990   22.5590  -31.1580 C   0  0  0  0  0  0  0  0  0  0  0  0
   -4.3100   22.7720  -30.6710 S   0  0  0  0  0  0  0  0  0  0  0  0
   -4.1770   22.4200  -29.2160 O   0  0  0  0  0  0  0  0  0  0  0  0
   -3.8820   24.2020  -30.8560 O   0  0  0  0  0  0  0  0  0  0  0  0
   -3.2700   21.7490  -31.6590 C   0  0  0  0  0  0  0  0  0  0  0  0
   -3.5770   21.5400  -33.0110 C   0  0  0  0  0  0  0  0  0  0  0  0
   -2.7590   20.7280  -33.8000 C   0  0  0  0  0  0  0  0  0  0  0  0
   -1.6270   20.1230  -33.2440 C   0  0  0  0  0  0  0  0  0  0  0  0
   -1.3130   20.3340  -31.8980 C   0  0  0  0  0  0  0  0  0  0  0  0
   -2.1300   21.1460  -31.1060 C   0  0  0  0  0  0  0  0  0  0  0  0
   -7.0450   25.6280  -30.3380 H   0  0  0  0  0  0  0  0  0  0  0  0
   -5.6120   25.3820  -31.3620 H   0  0  0  0  0  0  0  0  0  0  0  0
   -8.9266   24.2616  -31.7107 H   0  0  0  0  0  0  0  0  0  0  0  0
   -9.7103   21.9592  -32.2345 H   0  0  0  0  0  0  0  0  0  0  0  0
   -7.3951   16.6926  -31.9597 H   0  0  0  0  0  0  0  0  0  0  0  0
   -5.5299   15.4807  -33.0932 H   0  0  0  0  0  0  0  0  0  0  0  0
   -4.1177   16.6573  -34.7842 H   0  0  0  0  0  0  0  0  0  0  0  0
   -4.5633   19.0523  -35.3338 H   0  0  0  0  0  0  0  0  0  0  0  0
   -6.4268   20.2696  -34.2038 H   0  0  0  0  0  0  0  0  0  0  0  0
   -5.7672   20.4125  -31.3767 H   0  0  0  0  0  0  0  0  0  0  0  0
   -4.4648   22.0170  -33.4517 H   0  0  0  0  0  0  0  0  0  0  0  0
   -3.0052   20.5642  -34.8595 H   0  0  0  0  0  0  0  0  0  0  0  0
   -0.9844   19.4818  -33.8652 H   0  0  0  0  0  0  0  0  0  0  0  0
   -0.4214   19.8602  -31.4615 H   0  0  0  0  0  0  0  0  0  0  0  0
   -1.8789   21.3125  -30.0480 H   0  0  0  0  0  0  0  0  0  0  0  0
  1  2  1  0
  2  3  2  0
  3  4  1  0
  4  5  2  0
  5  6  1  0
  6  7  2  0
  6  8  2  0
  6  9  1  0
  9 10  2  0
 10 11  1  0
 11 12  2  0
 12 13  1  0
 13 14  2  0
  5 15  1  0
 15 16  2  0
 16 17  1  0
 17 18  2  0
 17 19  2  0
 17 20  1  0
 20 21  2  0
 21 22  1  0
 22 23  2  0
 23 24  1  0
 24 25  2  0
 16  2  1  0
 25 20  1  0
 14  9  1  0
  1 26  1  0
  1 27  1  0
  3 28  1  0
  4 29  1  0
 10 30  1  0
 11 31  1  0
 12 32  1  0
 13 33  1  0
 14 34  1  0
 15 35  1  0
 21 36  1  0
 22 37  1  0
 23 38  1  0
 24 39  1  0
 25 40  1  0
M  END
>  <UniqueID>  (44) 
42

>  <SMILES>  (44) 
Nc1ccc(S(=O)(=O)c2ccccc2)cc1S(=O)(=O)c1ccccc1

>  <Energy>  (44) 
47.83385273424287

>  <Genealogy>  (44) 
Nc1ccc(S(=O)(=O)c2ccccc2)cc1S(=O)(=O)c1ccccc1 (3D coordinates assigned)
Nc1ccc(S(=O)(=O)c2ccccc2)cc1S(=O)(=O)c1ccccc1 (optimized conformer: 47.83385273424287 kcal/mol)

>  <smiles>  (44) 
Nc1ccc(S(=O)(=O)c2ccccc2)cc1S(=O)(=O)c1ccccc1

>  <score_type>  (44) 
oracle

>  <origin>  (44) 
adgpu

>  <m_score__min__energy>  (44) 
-9.8900000000000006

>  <m_primary>  (44) 
energy

$$$$
44:0
     RDKit          3D

 35 36  0  0  0  0  0  0  0  0999 V2000
   -6.5150   16.2320  -34.0730 C   0  0  0  0  0  0  0  0  0  0  0  0
   -6.5510   16.8340  -32.7830 O   0  0  0  0  0  0  0  0  0  0  0  0
   -7.2090   18.0380  -32.4820 C   0  0  0  0  0  0  0  0  0  0  0  0
   -8.4840   18.0550  -31.8800 C   0  0  0  0  0  0  0  0  0  0  0  0
   -9.1210   19.2670  -31.6040 C   0  0  0  0  0  0  0  0  0  0  0  0
   -8.5000   20.4740  -31.9310 C   0  0  0  0  0  0  0  0  0  0  0  0
   -9.3060   21.9950  -31.5900 Cl  0  0  0  0  0  0  0  0  0  0  0  0
   -7.2390   20.4700  -32.5290 C   0  0  0  0  0  0  0  0  0  0  0  0
   -6.5820   19.2600  -32.7950 C   0  0  0  0  0  0  0  0  0  0  0  0
   -4.9790   19.2880  -33.5400 S   0  0  0  0  0  0  0  0  0  0  0  0
   -5.1030   18.8290  -34.9650 O   0  0  0  0  0  0  0  0  0  0  0  0
   -4.0360   18.3720  -32.8100 O   0  0  0  0  0  0  0  0  0  0  0  0
   -4.3240   20.8960  -33.5180 N   0  0  0  0  0  0  0  0  0  0  0  0
   -3.4450   21.3970  -32.4950 C   0  0  0  0  0  0  0  0  0  0  0  0
   -2.2290   20.7610  -32.1780 C   0  0  0  0  0  0  0  0  0  0  0  0
   -1.4100   21.2690  -31.1660 C   0  0  0  0  0  0  0  0  0  0  0  0
   -1.7880   22.4130  -30.4630 C   0  0  0  0  0  0  0  0  0  0  0  0
   -2.9880   23.0630  -30.7740 C   0  0  0  0  0  0  0  0  0  0  0  0
   -3.4750   24.4980  -29.8750 S   0  0  0  0  0  0  0  0  0  0  0  0
   -2.0740   25.2790  -29.2340 N   0  0  0  0  0  0  0  0  0  0  0  0
   -4.2080   25.4450  -30.7830 O   0  0  0  0  0  0  0  0  0  0  0  0
   -4.3890   24.1060  -28.7470 O   0  0  0  0  0  0  0  0  0  0  0  0
   -3.8140   22.5500  -31.7830 C   0  0  0  0  0  0  0  0  0  0  0  0
   -6.4496   15.1392  -33.9659 H   0  0  0  0  0  0  0  0  0  0  0  0
   -7.4303   16.4923  -34.6248 H   0  0  0  0  0  0  0  0  0  0  0  0
   -5.6372   16.5995  -34.6248 H   0  0  0  0  0  0  0  0  0  0  0  0
   -8.9805   17.1069  -31.6259 H   0  0  0  0  0  0  0  0  0  0  0  0
  -10.1129   19.2706  -31.1285 H   0  0  0  0  0  0  0  0  0  0  0  0
   -6.7570   21.4227  -32.7936 H   0  0  0  0  0  0  0  0  0  0  0  0
   -4.6200   21.5350  -34.2900 H   0  0  0  0  0  0  0  0  0  0  0  0
   -1.9225   19.8601  -32.7297 H   0  0  0  0  0  0  0  0  0  0  0  0
   -0.4632   20.7646  -30.9228 H   0  0  0  0  0  0  0  0  0  0  0  0
   -1.1423   22.8048  -29.6633 H   0  0  0  0  0  0  0  0  0  0  0  0
   -1.5440   25.6680  -30.0460 H   0  0  0  0  0  0  0  0  0  0  0  0
   -4.7616   23.0558  -32.0200 H   0  0  0  0  0  0  0  0  0  0  0  0
  1  2  1  0
  2  3  1  0
  3  4  2  0
  4  5  1  0
  5  6  2  0
  6  7  1  0
  6  8  1  0
  8  9  2  0
  9 10  1  0
 10 11  2  0
 10 12  2  0
 10 13  1  0
 13 14  1  0
 14 15  2  0
 15 16  1  0
 16 17  2  0
 17 18  1  0
 18 19  1  0
 19 20  1  0
 19 21  2  0
 19 22  2  0
 18 23  2  0
  9  3  1  0
 23 14  1  0
  1 24  1  0
  1 25  1  0
  1 26  1  0
  4 27  1  0
  5 28  1  0
  8 29  1  0
 13 30  1  0
 15 31  1  0
 16 32  1  0
 17 33  1  0
 20 34  1  0
 23 35  1  0
M  CHG  1  20  -1
M  END
>  <UniqueID>  (45) 
43

>  <SMILES>  (45) 
COc1ccc(Cl)cc1S(=O)(=O)Nc1cccc(S([NH-])(=O)=O)c1

>  <Energy>  (45) 
37.84893761467732

>  <Genealogy>  (45) 
COc1ccc(Cl)cc1S(=O)(=O)Nc1cccc(S([NH-])(=O)=O)c1 (protonated)
COc1ccc(Cl)cc1S(=O)(=O)Nc1cccc(S([NH-])(=O)=O)c1 (3D coordinates assigned)
COc1ccc(Cl)cc1S(=O)(=O)Nc1cccc(S([NH-])(=O)=O)c1 (optimized conformer: 37.84893761467732 kcal/mol)

>  <smiles>  (45) 
COc1ccc(Cl)cc1S(=O)(=O)Nc1cccc(S(N)(=O)=O)c1

>  <score_type>  (45) 
oracle

>  <origin>  (45) 
adgpu

>  <m_score__min__energy>  (45) 
-11.300000000000001

>  <m_primary>  (45) 
energy

$$$$
45:0
     RDKit          3D

 49 52  0  0  0  0  0  0  0  0999 V2000
   -5.2080   25.5790  -30.9380 O   0  0  0  0  0  0  0  0  0  0  0  0
   -4.3810   24.6510  -30.7320 C   0  0  0  0  0  0  0  0  0  0  0  0
   -3.1310   24.9230  -30.0870 N   0  0  0  0  0  0  0  0  0  0  0  0
   -2.5910   24.2490  -28.9410 C   0  0  0  0  0  0  0  0  0  0  0  0
   -3.3070   23.1740  -28.3990 C   0  0  0  0  0  0  0  0  0  0  0  0
   -2.8050   22.4720  -27.3000 C   0  0  0  0  0  0  0  0  0  0  0  0
   -1.5750   22.8290  -26.7420 C   0  0  0  0  0  0  0  0  0  0  0  0
   -0.8380   23.8880  -27.2870 C   0  0  0  0  0  0  0  0  0  0  0  0
    0.7370   24.3240  -26.6270 S   0  0  0  0  0  0  0  0  0  0  0  0
    1.6160   23.1050  -26.6670 O   0  0  0  0  0  0  0  0  0  0  0  0
    1.3690   25.3970  -27.4700 O   0  0  0  0  0  0  0  0  0  0  0  0
    0.5720   24.8680  -24.9690 N   0  0  0  0  0  0  0  0  0  0  0  0
   -0.8420   24.9770  -24.5650 C   0  0  0  0  0  0  0  0  0  0  0  0
   -1.5380   26.2120  -25.1870 C   0  0  0  0  0  0  0  0  0  0  0  0
   -0.6350   27.1920  -25.6660 O   0  0  0  0  0  0  0  0  0  0  0  0
    0.4230   27.3700  -24.7520 C   0  0  0  0  0  0  0  0  0  0  0  0
    1.3220   26.1200  -24.7250 C   0  0  0  0  0  0  0  0  0  0  0  0
   -1.3430   24.5910  -28.3900 C   0  0  0  0  0  0  0  0  0  0  0  0
   -4.7330   23.2720  -31.1160 C   0  0  0  0  0  0  0  0  0  0  0  0
   -6.0180   22.7940  -31.3010 C   0  0  0  0  0  0  0  0  0  0  0  0
   -5.9800   21.4880  -31.6470 N   0  0  0  0  0  0  0  0  0  0  0  0
   -7.1130   20.6410  -31.9230 C   0  0  0  0  0  0  0  0  0  0  0  0
   -6.9540   19.2460  -32.0400 C   0  0  0  0  0  0  0  0  0  0  0  0
   -8.0550   18.4270  -32.3070 C   0  0  0  0  0  0  0  0  0  0  0  0
   -9.3250   18.9860  -32.4620 C   0  0  0  0  0  0  0  0  0  0  0  0
   -9.4960   20.3680  -32.3500 C   0  0  0  0  0  0  0  0  0  0  0  0
   -8.3990   21.1920  -32.0810 C   0  0  0  0  0  0  0  0  0  0  0  0
   -4.6790   21.1280  -31.6860 C   0  0  0  0  0  0  0  0  0  0  0  0
   -3.8810   22.2060  -31.3660 C   0  0  0  0  0  0  0  0  0  0  0  0
   -1.9700   22.1660  -31.3000 Br  0  0  0  0  0  0  0  0  0  0  0  0
   -4.2705   22.8806  -28.8413 H   0  0  0  0  0  0  0  0  0  0  0  0
   -3.3795   21.6366  -26.8733 H   0  0  0  0  0  0  0  0  0  0  0  0
   -1.1849   22.2778  -25.8737 H   0  0  0  0  0  0  0  0  0  0  0  0
   -1.3735   24.0705  -24.8901 H   0  0  0  0  0  0  0  0  0  0  0  0
   -0.8714   25.0899  -23.4712 H   0  0  0  0  0  0  0  0  0  0  0  0
   -2.1610   25.8730  -26.0278 H   0  0  0  0  0  0  0  0  0  0  0  0
   -2.1310   26.6831  -24.3892 H   0  0  0  0  0  0  0  0  0  0  0  0
    1.0220   28.2413  -25.0555 H   0  0  0  0  0  0  0  0  0  0  0  0
    0.0047   27.5317  -23.7476 H   0  0  0  0  0  0  0  0  0  0  0  0
    2.0930   26.2249  -25.5026 H   0  0  0  0  0  0  0  0  0  0  0  0
    1.7627   26.0511  -23.7195 H   0  0  0  0  0  0  0  0  0  0  0  0
   -0.7597   25.4149  -28.8270 H   0  0  0  0  0  0  0  0  0  0  0  0
   -6.9356   23.3892  -31.1838 H   0  0  0  0  0  0  0  0  0  0  0  0
   -5.9565   18.7981  -31.9204 H   0  0  0  0  0  0  0  0  0  0  0  0
   -7.9204   17.3388  -32.3952 H   0  0  0  0  0  0  0  0  0  0  0  0
  -10.1896   18.3392  -32.6720 H   0  0  0  0  0  0  0  0  0  0  0  0
  -10.4961   20.8089  -32.4737 H   0  0  0  0  0  0  0  0  0  0  0  0
   -8.5417   22.2791  -31.9921 H   0  0  0  0  0  0  0  0  0  0  0  0
   -4.3100   20.1224  -31.9363 H   0  0  0  0  0  0  0  0  0  0  0  0
  1  2  2  0
  2  3  1  0
  3  4  1  0
  4  5  2  0
  5  6  1  0
  6  7  2  0
  7  8  1  0
  8  9  1  0
  9 10  2  0
  9 11  2  0
  9 12  1  0
 12 13  1  0
 13 14  1  0
 14 15  1  0
 15 16  1  0
 16 17  1  0
  8 18  2  0
  2 19  1  0
 19 20  2  0
 20 21  1  0
 21 22  1  0
 22 23  2  0
 23 24  1  0
 24 25  2  0
 25 26  1  0
 26 27  2  0
 21 28  1  0
 28 29  2  0
 29 30  1  0
 18  4  1  0
 29 19  1  0
 17 12  1  0
 27 22  1  0
  5 31  1  0
  6 32  1  0
  7 33  1  0
 13 34  1  0
 13 35  1  0
 14 36  1  0
 14 37  1  0
 16 38  1  0
 16 39  1  0
 17 40  1  0
 17 41  1  0
 18 42  1  0
 20 43  1  0
 23 44  1  0
 24 45  1  0
 25 46  1  0
 26 47  1  0
 27 48  1  0
 28 49  1  0
M  CHG  1   3  -1
M  END
>  <UniqueID>  (46) 
44

>  <SMILES>  (46) 
O=C([N-]c1cccc(S(=O)(=O)N2CCOCC2)c1)c1cn(-c2ccccc2)cc1Br

>  <Energy>  (46) 
97.03047783716043

>  <Genealogy>  (46) 
O=C([N-]c1cccc(S(=O)(=O)N2CCOCC2)c1)c1cn(-c2ccccc2)cc1Br (protonated)
O=C([N-]c1cccc(S(=O)(=O)N2CCOCC2)c1)c1cn(-c2ccccc2)cc1Br (3D coordinates assigned)
O=C([N-]c1cccc(S(=O)(=O)N2CCOCC2)c1)c1cn(-c2ccccc2)cc1Br (nonaromatic ring conformer: 97.03047783716043 kcal/mol)

>  <smiles>  (46) 
O=C(Nc1cccc(S(=O)(=O)N2CCOCC2)c1)c1cn(-c2ccccc2)cc1Br

>  <score_type>  (46) 
oracle

>  <origin>  (46) 
adgpu

>  <m_score__min__energy>  (46) 
-11.02

>  <m_primary>  (46) 
energy

$$$$
46:0
     RDKit          3D

 34 35  0  0  0  0  0  0  0  0999 V2000
   -3.8310   23.7180  -28.5630 C   0  0  0  0  0  0  0  0  0  0  0  0
   -3.2040   24.8250  -29.3410 C   0  0  0  0  0  0  0  0  0  0  0  0
   -2.0890   25.2860  -28.9810 O   0  0  0  0  0  0  0  0  0  0  0  0
   -3.8590   25.3210  -30.5160 N   0  0  0  0  0  0  0  0  0  0  0  0
   -5.2710   25.1350  -30.8480 C   0  0  2  0  0  0  0  0  0  0  0  0
   -6.1650   25.5170  -29.6620 C   0  0  0  0  0  0  0  0  0  0  0  0
   -5.5210   23.7310  -31.3500 C   0  0  0  0  0  0  0  0  0  0  0  0
   -6.8050   23.3560  -31.7710 C   0  0  0  0  0  0  0  0  0  0  0  0
   -7.0190   22.0690  -32.2670 C   0  0  0  0  0  0  0  0  0  0  0  0
   -5.9550   21.1590  -32.3440 C   0  0  0  0  0  0  0  0  0  0  0  0
   -6.1590   19.7930  -32.8850 C   0  0  0  0  0  0  0  0  0  0  0  0
   -5.1970   19.2560  -33.7600 C   0  0  0  0  0  0  0  0  0  0  0  0
   -5.3620   17.9780  -34.2990 C   0  0  0  0  0  0  0  0  0  0  0  0
   -6.4840   17.2180  -33.9680 C   0  0  0  0  0  0  0  0  0  0  0  0
   -7.4430   17.7300  -33.0930 C   0  0  0  0  0  0  0  0  0  0  0  0
   -7.2900   19.0110  -32.5440 C   0  0  0  0  0  0  0  0  0  0  0  0
   -8.2790   19.4800  -31.6010 C   0  0  0  0  0  0  0  0  0  0  0  0
   -9.0710   19.8550  -30.8460 N   0  0  0  0  0  0  0  0  0  0  0  0
   -4.6810   21.5800  -31.9340 C   0  0  0  0  0  0  0  0  0  0  0  0
   -4.4970   22.8380  -31.4550 N   0  0  0  0  0  0  0  0  0  0  0  0
   -3.7185   23.9166  -27.4869 H   0  0  0  0  0  0  0  0  0  0  0  0
   -4.9000   23.6531  -28.8141 H   0  0  0  0  0  0  0  0  0  0  0  0
   -3.3370   22.7678  -28.8141 H   0  0  0  0  0  0  0  0  0  0  0  0
   -5.5383   25.8148  -31.6705 H   0  0  0  0  0  0  0  0  0  0  0  0
   -5.6412   25.2932  -28.7210 H   0  0  0  0  0  0  0  0  0  0  0  0
   -6.3946   26.5918  -29.7072 H   0  0  0  0  0  0  0  0  0  0  0  0
   -7.1004   24.9400  -29.7072 H   0  0  0  0  0  0  0  0  0  0  0  0
   -7.6382   24.0716  -31.7107 H   0  0  0  0  0  0  0  0  0  0  0  0
   -8.0239   21.7681  -32.5980 H   0  0  0  0  0  0  0  0  0  0  0  0
   -4.3074   19.8476  -34.0219 H   0  0  0  0  0  0  0  0  0  0  0  0
   -4.6058   17.5701  -34.9858 H   0  0  0  0  0  0  0  0  0  0  0  0
   -6.6130   16.2135  -34.3974 H   0  0  0  0  0  0  0  0  0  0  0  0
   -8.3240   17.1251  -32.8325 H   0  0  0  0  0  0  0  0  0  0  0  0
   -3.8278   20.8889  -32.0006 H   0  0  0  0  0  0  0  0  0  0  0  0
  1  2  1  0
  2  3  2  0
  2  4  1  0
  4  5  1  0
  5  6  1  0
  5  7  1  0
  7  8  2  0
  8  9  1  0
  9 10  2  0
 10 11  1  0
 11 12  2  0
 12 13  1  0
 13 14  2  0
 14 15  1  0
 15 16  2  0
 16 17  1  0
 17 18  3  0
 10 19  1  0
 19 20  2  0
 20  7  1  0
 16 11  1  0
  1 21  1  0
  1 22  1  0
  1 23  1  0
  5 24  1  6
  6 25  1  0
  6 26  1  0
  6 27  1  0
  8 28  1  0
  9 29  1  0
 12 30  1  0
 13 31  1  0
 14 32  1  0
 15 33  1  0
 19 34  1  0
M  CHG  1   4  -1
M  END
>  <UniqueID>  (47) 
45

>  <SMILES>  (47) 
CC(=O)[N-][C@H](C)c1ccc(-c2ccccc2C#N)cn1

>  <Energy>  (47) 
37.88035803714665

>  <Genealogy>  (47) 
CC(=O)[N-]C(C)c1ccc(-c2ccccc2C#N)cn1 (protonated)
CC(=O)[N-][C@H](C)c1ccc(-c2ccccc2C#N)cn1 (chirality)
CC(=O)[N-][C@H](C)c1ccc(-c2ccccc2C#N)cn1 (3D coordinates assigned)
CC(=O)[N-][C@H](C)c1ccc(-c2ccccc2C#N)cn1 (optimized conformer: 37.88035803714665 kcal/mol)

>  <smiles>  (47) 
CC(=O)NC(C)c1ccc(-c2ccccc2C#N)cn1

>  <score_type>  (47) 
oracle

>  <origin>  (47) 
adgpu

>  <m_score__min__energy>  (47) 
-10.9

>  <m_primary>  (47) 
energy

$$$$
47:0
     RDKit          3D

 61 66  0  0  0  0  0  0  0  0999 V2000
   -2.1770   25.6680  -26.3150 C   0  0  0  0  0  0  0  0  0  0  0  0
   -1.8400   25.5620  -27.6940 O   0  0  0  0  0  0  0  0  0  0  0  0
   -1.4970   24.3620  -28.3410 C   0  0  0  0  0  0  0  0  0  0  0  0
   -0.5120   23.4970  -27.8310 C   0  0  0  0  0  0  0  0  0  0  0  0
   -0.1880   22.3170  -28.5060 C   0  0  0  0  0  0  0  0  0  0  0  0
    0.7470   21.4780  -27.9900 N   0  0  0  0  0  0  0  0  0  0  0  0
    1.0760   20.3180  -28.6160 C   0  0  0  0  0  0  0  0  0  0  0  0
    2.1160   19.4240  -27.9940 C   0  0  0  0  0  0  0  0  0  0  0  0
    1.7550   17.9540  -27.8300 C   0  0  0  0  0  0  0  0  0  0  0  0
    2.7080   18.3860  -28.9340 C   0  0  0  0  0  0  0  0  0  0  0  0
    0.4800   19.9960  -29.7940 N   0  0  0  0  0  0  0  0  0  0  0  0
   -0.4560   20.8000  -30.3650 C   0  0  0  0  0  0  0  0  0  0  0  0
   -1.0100   20.4210  -31.6320 N   0  0  0  0  0  0  0  0  0  0  0  0
   -1.6160   19.0860  -31.7700 C   0  0  0  0  0  0  0  0  0  0  0  0
   -2.5840   19.0410  -32.9560 C   0  0  0  0  0  0  0  0  0  0  0  0
   -3.4350   20.2410  -32.9400 N   0  0  0  0  0  0  0  0  0  0  0  0
   -4.8730   20.1300  -32.9040 C   0  0  0  0  0  0  0  0  0  0  0  0
   -5.5090   18.9750  -33.3940 C   0  0  0  0  0  0  0  0  0  0  0  0
   -6.9000   18.8610  -33.3580 C   0  0  0  0  0  0  0  0  0  0  0  0
   -7.6790   19.8960  -32.8220 C   0  0  0  0  0  0  0  0  0  0  0  0
   -9.0770   19.7920  -32.7850 C   0  0  0  0  0  0  0  0  0  0  0  0
   -9.8440   20.8310  -32.2460 C   0  0  0  0  0  0  0  0  0  0  0  0
   -9.2210   21.9760  -31.7420 C   0  0  0  0  0  0  0  0  0  0  0  0
   -7.8300   22.0930  -31.7740 C   0  0  0  0  0  0  0  0  0  0  0  0
   -7.0490   21.0580  -32.3130 C   0  0  0  0  0  0  0  0  0  0  0  0
   -5.6520   21.1650  -32.3570 C   0  0  0  0  0  0  0  0  0  0  0  0
   -2.8050   21.5720  -32.8540 C   0  0  0  0  0  0  0  0  0  0  0  0
   -1.2910   21.4620  -32.6280 C   0  0  0  0  0  0  0  0  0  0  0  0
   -0.8370   21.9900  -29.7130 C   0  0  0  0  0  0  0  0  0  0  0  0
   -1.8430   22.8360  -30.2060 C   0  0  0  0  0  0  0  0  0  0  0  0
   -2.1690   24.0280  -29.5270 C   0  0  0  0  0  0  0  0  0  0  0  0
   -3.1550   24.9070  -30.0010 O   0  0  0  0  0  0  0  0  0  0  0  0
   -4.5440   24.6070  -30.0580 C   0  0  0  0  0  0  0  0  0  0  0  0
   -1.3054   25.3939  -25.7024 H   0  0  0  0  0  0  0  0  0  0  0  0
   -2.4735   26.7028  -26.0885 H   0  0  0  0  0  0  0  0  0  0  0  0
   -3.0125   24.9893  -26.0885 H   0  0  0  0  0  0  0  0  0  0  0  0
    0.0066   23.7510  -26.8948 H   0  0  0  0  0  0  0  0  0  0  0  0
    2.5104   20.1965  -27.3174 H   0  0  0  0  0  0  0  0  0  0  0  0
    2.1339   17.3874  -26.9666 H   0  0  0  0  0  0  0  0  0  0  0  0
    0.8156   17.3829  -27.7922 H   0  0  0  0  0  0  0  0  0  0  0  0
    3.7761   18.1312  -28.8692 H   0  0  0  0  0  0  0  0  0  0  0  0
    2.7429   18.2560  -30.0257 H   0  0  0  0  0  0  0  0  0  0  0  0
   -0.8193   18.3442  -31.9279 H   0  0  0  0  0  0  0  0  0  0  0  0
   -2.1774   18.8600  -30.8514 H   0  0  0  0  0  0  0  0  0  0  0  0
   -2.0121   19.0095  -33.8951 H   0  0  0  0  0  0  0  0  0  0  0  0
   -3.2148   18.1430  -32.8807 H   0  0  0  0  0  0  0  0  0  0  0  0
   -4.9052   18.1546  -33.8091 H   0  0  0  0  0  0  0  0  0  0  0  0
   -7.3863   17.9562  -33.7515 H   0  0  0  0  0  0  0  0  0  0  0  0
   -9.5714   18.8924  -33.1802 H   0  0  0  0  0  0  0  0  0  0  0  0
  -10.9404   20.7462  -32.2189 H   0  0  0  0  0  0  0  0  0  0  0  0
   -9.8292   22.7887  -31.3182 H   0  0  0  0  0  0  0  0  0  0  0  0
   -7.3454   22.9970  -31.3765 H   0  0  0  0  0  0  0  0  0  0  0  0
   -5.1611   22.0660  -31.9604 H   0  0  0  0  0  0  0  0  0  0  0  0
   -2.9881   22.1158  -33.7925 H   0  0  0  0  0  0  0  0  0  0  0  0
   -3.2442   22.1081  -31.9998 H   0  0  0  0  0  0  0  0  0  0  0  0
   -0.7984   21.2020  -33.5765 H   0  0  0  0  0  0  0  0  0  0  0  0
   -0.9079   22.4263  -32.2627 H   0  0  0  0  0  0  0  0  0  0  0  0
   -2.3802   22.5674  -31.1276 H   0  0  0  0  0  0  0  0  0  0  0  0
   -4.9427   24.5209  -29.0364 H   0  0  0  0  0  0  0  0  0  0  0  0
   -5.0714   25.4119  -30.5908 H   0  0  0  0  0  0  0  0  0  0  0  0
   -4.6922   23.6561  -30.5908 H   0  0  0  0  0  0  0  0  0  0  0  0
  1  2  1  0
  2  3  1  0
  3  4  2  0
  4  5  1  0
  5  6  2  0
  6  7  1  0
  7  8  1  0
  8  9  1  0
  9 10  1  0
  7 11  2  0
 11 12  1  0
 12 13  1  0
 13 14  1  0
 14 15  1  0
 15 16  1  0
 16 17  1  0
 17 18  2  0
 18 19  1  0
 19 20  2  0
 20 21  1  0
 21 22  2  0
 22 23  1  0
 23 24  2  0
 24 25  1  0
 25 26  2  0
 16 27  1  0
 27 28  1  0
 12 29  2  0
 29 30  1  0
 30 31  2  0
 31 32  1  0
 32 33  1  0
 31  3  1  0
 29  5  1  0
 10  8  1  0
 28 13  1  0
 26 17  1  0
 25 20  1  0
  1 34  1  0
  1 35  1  0
  1 36  1  0
  4 37  1  0
  8 38  1  0
  9 39  1  0
  9 40  1  0
 10 41  1  0
 10 42  1  0
 14 43  1  0
 14 44  1  0
 15 45  1  0
 15 46  1  0
 18 47  1  0
 19 48  1  0
 21 49  1  0
 22 50  1  0
 23 51  1  0
 24 52  1  0
 26 53  1  0
 27 54  1  0
 27 55  1  0
 28 56  1  0
 28 57  1  0
 30 58  1  0
 33 59  1  0
 33 60  1  0
 33 61  1  0
M  END
>  <UniqueID>  (48) 
46

>  <SMILES>  (48) 
COc1cc2nc(C3CC3)nc(N3CCN(c4ccc5ccccc5c4)CC3)c2cc1OC

>  <Energy>  (48) 
348.35889138869123

>  <Genealogy>  (48) 
COc1cc2nc(C3CC3)nc(N3CCN(c4ccc5ccccc5c4)CC3)c2cc1OC (3D coordinates assigned)
COc1cc2nc(C3CC3)nc(N3CCN(c4ccc5ccccc5c4)CC3)c2cc1OC (nonaromatic ring conformer: 348.35889138869123 kcal/mol)

>  <smiles>  (48) 
COc1cc2nc(C3CC3)nc(N3CCN(c4ccc5ccccc5c4)CC3)c2cc1OC

>  <score_type>  (48) 
oracle

>  <origin>  (48) 
adgpu

>  <m_score__min__energy>  (48) 
-9.4800000000000004

>  <m_primary>  (48) 
energy

$$$$
48:0
     RDKit          3D

 32 32  0  0  0  0  0  0  0  0999 V2000
   -8.8940   23.2060  -32.0020 C   0  0  0  0  0  0  0  0  0  0  0  0
   -8.7870   21.9340  -31.3710 O   0  0  0  0  0  0  0  0  0  0  0  0
   -8.1250   20.8200  -31.9110 C   0  0  0  0  0  0  0  0  0  0  0  0
   -8.7090   19.5390  -31.8570 C   0  0  0  0  0  0  0  0  0  0  0  0
   -8.0470   18.4330  -32.3880 C   0  0  0  0  0  0  0  0  0  0  0  0
   -6.7970   18.5830  -32.9790 C   0  0  0  0  0  0  0  0  0  0  0  0
   -6.1900   19.8500  -33.0480 C   0  0  0  0  0  0  0  0  0  0  0  0
   -4.9310   20.0380  -33.6390 O   0  0  0  0  0  0  0  0  0  0  0  0
   -3.7360   19.3870  -33.2190 C   0  0  0  0  0  0  0  0  0  0  0  0
   -6.8500   20.9730  -32.5170 C   0  0  0  0  0  0  0  0  0  0  0  0
   -6.1810   22.2060  -32.6270 O   0  0  0  0  0  0  0  0  0  0  0  0
   -4.9940   22.5970  -31.9410 C   0  0  0  0  0  0  0  0  0  0  0  0
   -5.3590   23.3060  -30.6340 C   0  0  0  0  0  0  0  0  0  0  0  0
   -4.1420   23.5750  -29.7360 C   0  0  0  0  0  0  0  0  0  0  0  0
   -3.5070   24.8960  -30.0400 C   0  0  0  0  0  0  0  0  0  0  0  0
   -4.0200   25.6640  -30.8970 O   0  0  0  0  0  0  0  0  0  0  0  0
   -2.3680   25.2950  -29.3530 O   0  0  0  0  0  0  0  0  0  0  0  0
   -8.9601   23.9915  -31.2348 H   0  0  0  0  0  0  0  0  0  0  0  0
   -8.0073   23.3799  -32.6293 H   0  0  0  0  0  0  0  0  0  0  0  0
   -9.7973   23.2293  -32.6293 H   0  0  0  0  0  0  0  0  0  0  0  0
   -9.6972   19.4103  -31.3912 H   0  0  0  0  0  0  0  0  0  0  0  0
   -8.5147   17.4386  -32.3394 H   0  0  0  0  0  0  0  0  0  0  0  0
   -6.2800   17.7057  -33.3949 H   0  0  0  0  0  0  0  0  0  0  0  0
   -3.6969   19.3657  -32.1199 H   0  0  0  0  0  0  0  0  0  0  0  0
   -3.7237   18.3575  -33.6064 H   0  0  0  0  0  0  0  0  0  0  0  0
   -2.8644   19.9349  -33.6064 H   0  0  0  0  0  0  0  0  0  0  0  0
   -4.3915   21.7045  -31.7162 H   0  0  0  0  0  0  0  0  0  0  0  0
   -4.4167   23.2838  -32.5774 H   0  0  0  0  0  0  0  0  0  0  0  0
   -5.8339   24.2678  -30.8779 H   0  0  0  0  0  0  0  0  0  0  0  0
   -6.0373   22.6419  -30.0781 H   0  0  0  0  0  0  0  0  0  0  0  0
   -4.4670   23.5698  -28.6851 H   0  0  0  0  0  0  0  0  0  0  0  0
   -3.3979   22.7870  -29.9241 H   0  0  0  0  0  0  0  0  0  0  0  0
  1  2  1  0
  2  3  1  0
  3  4  2  0
  4  5  1  0
  5  6  2  0
  6  7  1  0
  7  8  1  0
  8  9  1  0
  7 10  2  0
 10 11  1  0
 11 12  1  0
 12 13  1  0
 13 14  1  0
 14 15  1  0
 15 16  2  0
 15 17  1  0
 10  3  1  0
  1 18  1  0
  1 19  1  0
  1 20  1  0
  4 21  1  0
  5 22  1  0
  6 23  1  0
  9 24  1  0
  9 25  1  0
  9 26  1  0
 12 27  1  0
 12 28  1  0
 13 29  1  0
 13 30  1  0
 14 31  1  0
 14 32  1  0
M  CHG  1  17  -1
M  END
>  <UniqueID>  (49) 
47

>  <SMILES>  (49) 
COc1cccc(OC)c1OCCCC(=O)[O-]

>  <Energy>  (49) 
26.71326665186396

>  <Genealogy>  (49) 
COc1cccc(OC)c1OCCCC(=O)[O-] (protonated)
COc1cccc(OC)c1OCCCC(=O)[O-] (3D coordinates assigned)
COc1cccc(OC)c1OCCCC(=O)[O-] (optimized conformer: 26.71326665186396 kcal/mol)

>  <smiles>  (49) 
COc1cccc(OC)c1OCCCC(=O)O

>  <score_type>  (49) 
oracle

>  <origin>  (49) 
adgpu

>  <m_score__min__energy>  (49) 
-7.8899999999999997

>  <m_primary>  (49) 
energy

$$$$
49:0
     RDKit          3D

 33 35  0  0  0  0  0  0  0  0999 V2000
   -7.0609   20.2440  -33.0331 H   0  0  0  0  0  0  0  0  0  0  0  0
   -6.9800   21.2260  -32.5440 C   0  0  0  0  0  0  0  0  0  0  0  0
   -8.2160   22.1780  -31.9580 S   0  0  0  0  0  0  0  0  0  0  0  0
   -7.3650   23.4770  -31.3720 N   0  0  0  0  0  0  0  0  0  0  0  0
   -6.0620   23.1820  -31.6320 C   0  0  0  0  0  0  0  0  0  0  0  0
   -4.9810   24.0640  -31.2830 N   0  0  0  0  0  0  0  0  0  0  0  0
   -4.1600   23.9400  -30.2780 C   0  0  0  0  0  0  0  0  0  0  0  0
   -4.2580   22.8930  -29.4160 N   0  0  0  0  0  0  0  0  0  0  0  0
   -3.4170   22.7610  -28.3580 C   0  0  0  0  0  0  0  0  0  0  0  0
   -3.5160   21.6670  -27.4880 O   0  0  0  0  0  0  0  0  0  0  0  0
   -2.6410   20.5700  -27.4700 C   0  0  0  0  0  0  0  0  0  0  0  0
   -1.4890   20.6180  -28.2640 C   0  0  0  0  0  0  0  0  0  0  0  0
   -1.2880   21.5056  -28.8818 H   0  0  0  0  0  0  0  0  0  0  0  0
   -0.5920   19.5450  -28.2770 C   0  0  0  0  0  0  0  0  0  0  0  0
    0.3050   19.5859  -28.9124 H   0  0  0  0  0  0  0  0  0  0  0  0
   -0.8350   18.4210  -27.4830 C   0  0  0  0  0  0  0  0  0  0  0  0
   -0.1332   17.5741  -27.4991 H   0  0  0  0  0  0  0  0  0  0  0  0
   -1.9690   18.3730  -26.6690 C   0  0  0  0  0  0  0  0  0  0  0  0
   -2.1558   17.4903  -26.0398 H   0  0  0  0  0  0  0  0  0  0  0  0
   -2.8670   19.4440  -26.6520 C   0  0  0  0  0  0  0  0  0  0  0  0
   -3.7517   19.4083  -25.9992 H   0  0  0  0  0  0  0  0  0  0  0  0
   -2.4140   23.7070  -28.1570 C   0  0  0  0  0  0  0  0  0  0  0  0
   -1.7144   23.6104  -27.3137 H   0  0  0  0  0  0  0  0  0  0  0  0
   -2.3120   24.7870  -29.0510 C   0  0  0  0  0  0  0  0  0  0  0  0
   -1.3320   25.7810  -28.9110 O   0  0  0  0  0  0  0  0  0  0  0  0
   -0.7400   26.1590  -27.6720 C   0  0  0  0  0  0  0  0  0  0  0  0
   -1.3480   25.7708  -26.8416 H   0  0  0  0  0  0  0  0  0  0  0  0
    0.2760   25.7421  -27.6088 H   0  0  0  0  0  0  0  0  0  0  0  0
   -0.6907   27.2561  -27.6088 H   0  0  0  0  0  0  0  0  0  0  0  0
   -3.1890   24.8760  -30.0880 N   0  0  0  0  0  0  0  0  0  0  0  0
   -3.1100   25.6830  -30.7500 H   0  0  0  0  0  0  0  0  0  0  0  0
   -5.8260   21.9490  -32.2770 C   0  0  0  0  0  0  0  0  0  0  0  0
   -4.0870   21.3150  -32.7470 Br  0  0  0  0  0  0  0  0  0  0  0  0
  1  2  1  0
  2  3  1  0
  3  4  1  0
  4  5  2  0
  5  6  1  0
  6  7  2  0
  7  8  1  0
  8  9  2  0
  9 10  1  0
 10 11  1  0
 11 12  2  0
 12 13  1  0
 12 14  1  0
 14 15  1  0
 14 16  2  0
 16 17  1  0
 16 18  1  0
 18 19  1  0
 18 20  2  0
 20 21  1  0
  9 22  1  0
 22 23  1  0
 22 24  2  0
 24 25  1  0
 25 26  1  0
 26 27  1  0
 26 28  1  0
 26 29  1  0
 24 30  1  0
 30 31  1  0
  5 32  1  0
 32 33  1  0
 32  2  2  0
 30  7  1  0
 20 11  1  0
M  END
>  <UniqueID>  (50) 
48

>  <SMILES>  (50) 
COc1cc(Oc2ccccc2)n/c(=N\c2nscc2Br)[nH]1

>  <Energy>  (50) 
73.03318962012789

>  <Genealogy>  (50) 
COc1cc(Oc2ccccc2)n/c(=N\c2nscc2Br)[nH]1 (cis-trans isomerization)
COc1cc(Oc2ccccc2)n/c(=N\c2nscc2Br)[nH]1 (3D coordinates assigned)
COc1cc(Oc2ccccc2)n/c(=N\c2nscc2Br)[nH]1 (optimized conformer: 73.03318962012789 kcal/mol)

>  <smiles>  (50) 
COc1cc(Oc2ccccc2)nc(=Nc2nscc2Br)[nH]1

>  <score_type>  (50) 
oracle

>  <origin>  (50) 
adgpu

>  <m_score__min__energy>  (50) 
-8.5700000000000003

>  <m_primary>  (50) 
energy

$$$$
