0:0
     RDKit          3D

 37 38  0  0  0  0  0  0  0  0999 V2000
   -5.9440   19.0340  -33.3170 C   0  0  0  0  0  0  0  0  0  0  0  0
   -6.7330   20.1950  -32.8150 C   0  0  0  0  0  0  0  0  0  0  0  0
   -7.9920   20.1330  -32.2480 C   0  0  0  0  0  0  0  0  0  0  0  0
   -8.2760   21.4410  -31.9150 C   0  0  0  0  0  0  0  0  0  0  0  0
   -9.5420   21.9240  -31.2790 C   0  0  0  0  0  0  0  0  0  0  0  0
   -7.2200   22.2150  -32.2510 N   0  0  0  0  0  0  0  0  0  0  0  0
   -7.1040   23.6690  -32.1260 C   0  0  0  0  0  0  0  0  0  0  0  0
   -6.7670   24.0520  -30.6850 C   0  0  0  0  0  0  0  0  0  0  0  0
   -5.3160   23.9310  -30.4660 N   0  0  0  0  0  0  0  0  0  0  0  0
   -4.9980   23.2000  -29.2340 C   0  0  0  0  0  0  0  0  0  0  0  0
   -3.6790   23.6810  -28.6780 C   0  0  0  0  0  0  0  0  0  0  0  0
   -3.1980   23.1200  -27.4830 C   0  0  0  0  0  0  0  0  0  0  0  0
   -1.9990   23.5680  -26.9240 C   0  0  0  0  0  0  0  0  0  0  0  0
   -1.2720   24.5840  -27.5460 C   0  0  0  0  0  0  0  0  0  0  0  0
   -1.7430   25.1580  -28.7350 C   0  0  0  0  0  0  0  0  0  0  0  0
   -1.0260   26.1790  -29.3540 O   0  0  0  0  0  0  0  0  0  0  0  0
   -2.9430   24.7070  -29.3030 C   0  0  0  0  0  0  0  0  0  0  0  0
   -3.3930   25.2840  -30.4860 O   0  0  0  0  0  0  0  0  0  0  0  0
   -6.2780   21.4630  -32.8000 N   0  0  0  0  0  0  0  0  0  0  0  0
   -5.5537   18.4596  -32.4639 H   0  0  0  0  0  0  0  0  0  0  0  0
   -6.5909   18.3880  -33.9287 H   0  0  0  0  0  0  0  0  0  0  0  0
   -5.1052   19.3977  -33.9287 H   0  0  0  0  0  0  0  0  0  0  0  0
   -8.6227   19.2445  -32.0970 H   0  0  0  0  0  0  0  0  0  0  0  0
   -9.4404   21.8852  -30.1844 H   0  0  0  0  0  0  0  0  0  0  0  0
   -9.7378   22.9600  -31.5926 H   0  0  0  0  0  0  0  0  0  0  0  0
  -10.3781   21.2817  -31.5926 H   0  0  0  0  0  0  0  0  0  0  0  0
   -6.3064   24.0281  -32.7930 H   0  0  0  0  0  0  0  0  0  0  0  0
   -8.0634   24.1299  -32.4039 H   0  0  0  0  0  0  0  0  0  0  0  0
   -7.0794   25.0903  -30.5000 H   0  0  0  0  0  0  0  0  0  0  0  0
   -7.2970   23.3785  -29.9955 H   0  0  0  0  0  0  0  0  0  0  0  0
   -4.9140   24.8950  -30.3890 H   0  0  0  0  0  0  0  0  0  0  0  0
   -5.7915   23.3728  -28.4920 H   0  0  0  0  0  0  0  0  0  0  0  0
   -4.9267   22.1254  -29.4582 H   0  0  0  0  0  0  0  0  0  0  0  0
   -3.7693   22.3230  -26.9846 H   0  0  0  0  0  0  0  0  0  0  0  0
   -1.6269   23.1190  -25.9913 H   0  0  0  0  0  0  0  0  0  0  0  0
   -0.3283   24.9348  -27.1028 H   0  0  0  0  0  0  0  0  0  0  0  0
   -1.2320   26.4740  -30.3010 H   0  0  0  0  0  0  0  0  0  0  0  0
  1  2  1  0
  2  3  1  0
  3  4  2  0
  4  5  1  0
  4  6  1  0
  6  7  1  0
  7  8  1  0
  8  9  1  0
  9 10  1  0
 10 11  1  0
 11 12  2  0
 12 13  1  0
 13 14  2  0
 14 15  1  0
 15 16  1  0
 15 17  2  0
 17 18  1  0
  6 19  1  0
 19  2  2  0
 17 11  1  0
  1 20  1  0
  1 21  1  0
  1 22  1  0
  3 23  1  0
  5 24  1  0
  5 25  1  0
  5 26  1  0
  7 27  1  0
  7 28  1  0
  8 29  1  0
  8 30  1  0
  9 31  1  0
 10 32  1  0
 10 33  1  0
 12 34  1  0
 13 35  1  0
 14 36  1  0
 16 37  1  0
M  CHG  1  18  -1
M  END
>  <UniqueID>  (1) 
1

>  <SMILES>  (1) 
Cc1cc(C)n(CCNCc2cccc(O)c2[O-])n1

>  <Energy>  (1) 
57.44599383401232

>  <Genealogy>  (1) 
Cc1cc(C)n(CCNCc2cccc(O)c2[O-])n1 (protonated)
Cc1cc(C)n(CCNCc2cccc(O)c2[O-])n1 (3D coordinates assigned)
Cc1cc(C)n(CCNCc2cccc(O)c2[O-])n1 (optimized conformer: 57.44599383401232 kcal/mol)

>  <smiles>  (1) 
Cc1cc(C)n(CCNCc2cccc(O)c2O)n1

>  <score_type>  (1) 
oracle

>  <origin>  (1) 
adgpu

>  <m_score__min__energy>  (1) 
-11.56

>  <m_primary>  (1) 
energy

$$$$
1:0
     RDKit          3D

 56 58  0  0  0  0  0  0  0  0999 V2000
   -3.9920   24.8750  -30.0940 C   0  0  0  0  0  0  0  0  0  0  0  0
   -5.4490   24.8140  -29.6500 C   0  0  0  0  0  0  0  0  0  0  0  0
   -6.3960   24.8400  -30.8530 C   0  0  0  0  0  0  0  0  0  0  0  0
   -6.7480   23.4460  -31.2720 C   0  0  0  0  0  0  0  0  0  0  0  0
   -8.0420   23.0970  -31.4560 N   0  0  0  0  0  0  0  0  0  0  0  0
   -8.4020   21.8320  -31.7960 C   0  0  0  0  0  0  0  0  0  0  0  0
   -9.8680   21.5530  -31.9340 C   0  0  0  0  0  0  0  0  0  0  0  0
   -7.4030   20.8410  -31.9900 C   0  0  0  0  0  0  0  0  0  0  0  0
   -7.8590   19.1300  -32.2800 S   0  0  0  0  0  0  0  0  0  0  0  0
   -8.1260   18.3830  -31.0040 O   0  0  0  0  0  0  0  0  0  0  0  0
   -9.1230   19.1200  -33.0940 O   0  0  0  0  0  0  0  0  0  0  0  0
   -6.6010   18.2220  -33.1210 C   0  0  0  0  0  0  0  0  0  0  0  0
   -6.0620   17.0490  -32.5640 C   0  0  0  0  0  0  0  0  0  0  0  0
   -5.0750   16.3350  -33.2500 C   0  0  0  0  0  0  0  0  0  0  0  0
   -4.6080   16.7930  -34.4850 C   0  0  0  0  0  0  0  0  0  0  0  0
   -3.3720   15.8940  -35.3460 Cl  0  0  0  0  0  0  0  0  0  0  0  0
   -5.1240   17.9730  -35.0320 C   0  0  0  0  0  0  0  0  0  0  0  0
   -6.1110   18.6880  -34.3470 C   0  0  0  0  0  0  0  0  0  0  0  0
   -6.0550   21.2400  -31.7840 C   0  0  0  0  0  0  0  0  0  0  0  0
   -4.6500   20.1300  -31.9770 S   0  0  0  0  0  0  0  0  0  0  0  0
   -3.4620   21.4000  -32.5530 C   0  0  0  0  0  0  0  0  0  0  0  0
   -2.2320   21.4650  -31.6860 C   0  0  0  0  0  0  0  0  0  0  0  0
   -1.1270   21.1380  -32.1950 O   0  0  0  0  0  0  0  0  0  0  0  0
   -2.2880   21.9100  -30.3120 N   0  0  0  0  0  0  0  0  0  0  0  0
   -3.4980   21.6890  -29.5020 C   0  0  0  0  0  0  0  0  0  0  0  0
   -3.2610   22.0120  -28.0210 C   0  0  0  0  0  0  0  0  0  0  0  0
   -1.9260   21.4200  -27.5590 C   0  0  0  0  0  0  0  0  0  0  0  0
   -0.7310   21.9460  -28.3840 C   0  0  0  0  0  0  0  0  0  0  0  0
   -1.1390   22.6030  -29.7120 C   0  0  0  0  0  0  0  0  0  0  0  0
   -5.7760   22.5150  -31.4150 N   0  0  0  0  0  0  0  0  0  0  0  0
   -3.3397   24.9023  -29.2087 H   0  0  0  0  0  0  0  0  0  0  0  0
   -3.7549   23.9860  -30.6969 H   0  0  0  0  0  0  0  0  0  0  0  0
   -3.8300   25.7807  -30.6969 H   0  0  0  0  0  0  0  0  0  0  0  0
   -5.6131   23.8850  -29.0842 H   0  0  0  0  0  0  0  0  0  0  0  0
   -5.6590   25.6926  -29.0224 H   0  0  0  0  0  0  0  0  0  0  0  0
   -7.3150   25.3788  -30.5790 H   0  0  0  0  0  0  0  0  0  0  0  0
   -5.8947   25.3478  -31.6902 H   0  0  0  0  0  0  0  0  0  0  0  0
  -10.3205   21.4669  -30.9351 H   0  0  0  0  0  0  0  0  0  0  0  0
  -10.3477   22.3760  -32.4841 H   0  0  0  0  0  0  0  0  0  0  0  0
  -10.0119   20.6114  -32.4841 H   0  0  0  0  0  0  0  0  0  0  0  0
   -6.4177   16.6922  -31.5862 H   0  0  0  0  0  0  0  0  0  0  0  0
   -4.6651   15.4107  -32.8167 H   0  0  0  0  0  0  0  0  0  0  0  0
   -4.7531   18.3381  -36.0011 H   0  0  0  0  0  0  0  0  0  0  0  0
   -6.5049   19.6222  -34.7738 H   0  0  0  0  0  0  0  0  0  0  0  0
   -3.1574   21.1590  -33.5821 H   0  0  0  0  0  0  0  0  0  0  0  0
   -3.9628   22.3781  -32.5017 H   0  0  0  0  0  0  0  0  0  0  0  0
   -4.3035   22.3343  -29.8824 H   0  0  0  0  0  0  0  0  0  0  0  0
   -3.7715   20.6264  -29.5800 H   0  0  0  0  0  0  0  0  0  0  0  0
   -3.2411   23.1034  -27.8856 H   0  0  0  0  0  0  0  0  0  0  0  0
   -4.0743   21.5749  -27.4231 H   0  0  0  0  0  0  0  0  0  0  0  0
   -1.7693   21.6839  -26.5027 H   0  0  0  0  0  0  0  0  0  0  0  0
   -1.9762   20.3301  -27.6993 H   0  0  0  0  0  0  0  0  0  0  0  0
   -0.1923   22.6904  -27.7793 H   0  0  0  0  0  0  0  0  0  0  0  0
   -0.1054   21.0765  -28.6342 H   0  0  0  0  0  0  0  0  0  0  0  0
   -1.4094   23.6528  -29.5257 H   0  0  0  0  0  0  0  0  0  0  0  0
   -0.2900   22.5413  -30.4087 H   0  0  0  0  0  0  0  0  0  0  0  0
  1  2  1  0
  2  3  1  0
  3  4  1  0
  4  5  2  0
  5  6  1  0
  6  7  1  0
  6  8  2  0
  8  9  1  0
  9 10  2  0
  9 11  2  0
  9 12  1  0
 12 13  2  0
 13 14  1  0
 14 15  2  0
 15 16  1  0
 15 17  1  0
 17 18  2  0
  8 19  1  0
 19 20  1  0
 20 21  1  0
 21 22  1  0
 22 23  2  0
 22 24  1  0
 24 25  1  0
 25 26  1  0
 26 27  1  0
 27 28  1  0
 28 29  1  0
 19 30  2  0
 30  4  1  0
 18 12  1  0
 29 24  1  0
  1 31  1  0
  1 32  1  0
  1 33  1  0
  2 34  1  0
  2 35  1  0
  3 36  1  0
  3 37  1  0
  7 38  1  0
  7 39  1  0
  7 40  1  0
 13 41  1  0
 14 42  1  0
 17 43  1  0
 18 44  1  0
 21 45  1  0
 21 46  1  0
 25 47  1  0
 25 48  1  0
 26 49  1  0
 26 50  1  0
 27 51  1  0
 27 52  1  0
 28 53  1  0
 28 54  1  0
 29 55  1  0
 29 56  1  0
M  END
>  <UniqueID>  (2) 
2

>  <SMILES>  (2) 
CCCc1nc(C)c(S(=O)(=O)c2ccc(Cl)cc2)c(SCC(=O)N2CCCCC2)n1

>  <Energy>  (2) 
55.78735039071577

>  <Genealogy>  (2) 
CCCc1nc(C)c(S(=O)(=O)c2ccc(Cl)cc2)c(SCC(=O)N2CCCCC2)n1 (3D coordinates assigned)
CCCc1nc(C)c(S(=O)(=O)c2ccc(Cl)cc2)c(SCC(=O)N2CCCCC2)n1 (nonaromatic ring conformer: 55.78735039071577 kcal/mol)

>  <smiles>  (2) 
CCCc1nc(C)c(S(=O)(=O)c2ccc(Cl)cc2)c(SCC(=O)N2CCCCC2)n1

>  <score_type>  (2) 
oracle

>  <origin>  (2) 
adgpu

>  <m_score__min__energy>  (2) 
-10.289999999999999

>  <m_primary>  (2) 
energy

$$$$
2:0
     RDKit          3D

 44 47  0  0  0  0  0  0  0  0999 V2000
    0.7080   20.3440  -28.3880 C   0  0  0  0  0  0  0  0  0  0  0  0
   -0.7140   20.3120  -27.8900 C   0  0  0  0  0  0  0  0  0  0  0  0
   -1.1690   19.1920  -27.1820 C   0  0  0  0  0  0  0  0  0  0  0  0
   -2.4850   19.1620  -26.7140 C   0  0  0  0  0  0  0  0  0  0  0  0
   -2.9020   18.1630  -26.0720 O   0  0  0  0  0  0  0  0  0  0  0  0
   -3.3020   20.1830  -26.9430 O   0  0  0  0  0  0  0  0  0  0  0  0
   -2.9270   21.2690  -27.6120 C   0  0  0  0  0  0  0  0  0  0  0  0
   -3.8460   22.3050  -27.8080 C   0  0  0  0  0  0  0  0  0  0  0  0
   -3.4760   23.4700  -28.4960 C   0  0  0  0  0  0  0  0  0  0  0  0
   -4.4400   24.5260  -28.6550 N   0  0  0  0  0  0  0  0  0  0  0  0
   -5.2340   24.8810  -30.1580 S   0  0  0  0  0  0  0  0  0  0  0  0
   -6.2000   26.0130  -29.9470 O   0  0  0  0  0  0  0  0  0  0  0  0
   -4.2080   25.2930  -31.1750 O   0  0  0  0  0  0  0  0  0  0  0  0
   -6.0700   23.4480  -30.7460 C   0  0  0  0  0  0  0  0  0  0  0  0
   -7.2250   22.9710  -30.0870 C   0  0  0  0  0  0  0  0  0  0  0  0
   -7.8770   21.8140  -30.5460 C   0  0  0  0  0  0  0  0  0  0  0  0
   -7.3570   21.1540  -31.6600 C   0  0  0  0  0  0  0  0  0  0  0  0
   -6.2430   21.6180  -32.2990 C   0  0  0  0  0  0  0  0  0  0  0  0
   -5.5750   22.7650  -31.8730 C   0  0  0  0  0  0  0  0  0  0  0  0
   -5.8940   20.8030  -33.3970 N   0  0  0  0  0  0  0  0  0  0  0  0
   -6.8590   19.7080  -33.4960 C   0  0  1  0  0  0  0  0  0  0  0  0
   -6.1400   18.3620  -33.4010 C   0  0  0  0  0  0  0  0  0  0  0  0
   -7.8640   19.9210  -32.3250 C   0  0  0  0  0  0  0  0  0  0  0  0
   -2.1730   23.5720  -29.0130 C   0  0  0  0  0  0  0  0  0  0  0  0
   -1.2490   22.5430  -28.8230 C   0  0  0  0  0  0  0  0  0  0  0  0
   -1.6110   21.3810  -28.1180 C   0  0  0  0  0  0  0  0  0  0  0  0
    1.3966   20.3595  -27.5303 H   0  0  0  0  0  0  0  0  0  0  0  0
    0.9029   19.4500  -28.9986 H   0  0  0  0  0  0  0  0  0  0  0  0
    0.8625   21.2458  -28.9986 H   0  0  0  0  0  0  0  0  0  0  0  0
   -0.4952   18.3427  -26.9960 H   0  0  0  0  0  0  0  0  0  0  0  0
   -4.8698   22.2051  -27.4184 H   0  0  0  0  0  0  0  0  0  0  0  0
   -4.5870   25.2010  -27.8720 H   0  0  0  0  0  0  0  0  0  0  0  0
   -7.6159   23.5080  -29.2102 H   0  0  0  0  0  0  0  0  0  0  0  0
   -8.7772   21.4370  -30.0385 H   0  0  0  0  0  0  0  0  0  0  0  0
   -4.6828   23.1275  -32.4046 H   0  0  0  0  0  0  0  0  0  0  0  0
   -5.0950   20.9720  -34.0480 H   0  0  0  0  0  0  0  0  0  0  0  0
   -7.3890   19.7026  -34.4599 H   0  0  0  0  0  0  0  0  0  0  0  0
   -5.9979   18.0960  -32.3431 H   0  0  0  0  0  0  0  0  0  0  0  0
   -6.7446   17.5876  -33.8958 H   0  0  0  0  0  0  0  0  0  0  0  0
   -5.1602   18.4340  -33.8958 H   0  0  0  0  0  0  0  0  0  0  0  0
   -8.8858   20.0694  -32.7044 H   0  0  0  0  0  0  0  0  0  0  0  0
   -7.9231   19.0580  -31.6454 H   0  0  0  0  0  0  0  0  0  0  0  0
   -1.8784   24.4718  -29.5730 H   0  0  0  0  0  0  0  0  0  0  0  0
   -0.2308   22.6416  -29.2274 H   0  0  0  0  0  0  0  0  0  0  0  0
  1  2  1  0
  2  3  2  0
  3  4  1  0
  4  5  2  0
  4  6  1  0
  6  7  1  0
  7  8  2  0
  8  9  1  0
  9 10  1  0
 10 11  1  0
 11 12  2  0
 11 13  2  0
 11 14  1  0
 14 15  2  0
 15 16  1  0
 16 17  2  0
 17 18  1  0
 18 19  2  0
 18 20  1  0
 20 21  1  0
 21 22  1  0
 21 23  1  0
  9 24  2  0
 24 25  1  0
 25 26  2  0
 26  2  1  0
 26  7  1  0
 19 14  1  0
 23 17  1  0
  1 27  1  0
  1 28  1  0
  1 29  1  0
  3 30  1  0
  8 31  1  0
 10 32  1  0
 15 33  1  0
 16 34  1  0
 19 35  1  0
 20 36  1  0
 21 37  1  6
 22 38  1  0
 22 39  1  0
 22 40  1  0
 23 41  1  0
 23 42  1  0
 24 43  1  0
 25 44  1  0
M  END
>  <UniqueID>  (3) 
3

>  <SMILES>  (3) 
Cc1cc(=O)oc2cc(NS(=O)(=O)c3ccc4c(c3)N[C@@H](C)C4)ccc12

>  <Energy>  (3) 
67.3723460636443

>  <Genealogy>  (3) 
Cc1cc(=O)oc2cc(NS(=O)(=O)c3ccc4c(c3)N[C@@H](C)C4)ccc12 (chirality)
Cc1cc(=O)oc2cc(NS(=O)(=O)c3ccc4c(c3)N[C@@H](C)C4)ccc12 (3D coordinates assigned)
Cc1cc(=O)oc2cc(NS(=O)(=O)c3ccc4c(c3)N[C@@H](C)C4)ccc12 (nonaromatic ring conformer: 67.3723460636443 kcal/mol)

>  <smiles>  (3) 
Cc1cc(=O)oc2cc(NS(=O)(=O)c3ccc4c(c3)NC(C)C4)ccc12

>  <score_type>  (3) 
oracle

>  <origin>  (3) 
adgpu

>  <m_score__min__energy>  (3) 
-10.710000000000001

>  <m_primary>  (3) 
energy

$$$$
3:0
     RDKit          3D

 54 57  0  0  0  0  0  0  0  0999 V2000
   -2.6470   18.9480  -26.2820 C   0  0  0  0  0  0  0  0  0  0  0  0
   -1.9450   20.0450  -26.9840 N   0  0  0  0  0  0  0  0  0  0  0  0
   -1.2110   20.8730  -25.9960 C   0  0  0  0  0  0  0  0  0  0  0  0
   -0.3480   21.8980  -26.7250 C   0  0  0  0  0  0  0  0  0  0  0  0
   -1.1930   22.7180  -27.6600 C   0  0  0  0  0  0  0  0  0  0  0  0
   -0.7950   24.0150  -27.9990 C   0  0  0  0  0  0  0  0  0  0  0  0
   -1.5810   24.7850  -28.8690 C   0  0  0  0  0  0  0  0  0  0  0  0
   -1.1970   26.0900  -29.1760 O   0  0  0  0  0  0  0  0  0  0  0  0
   -2.7520   24.2540  -29.4330 C   0  0  0  0  0  0  0  0  0  0  0  0
   -3.5450   25.0790  -30.2990 N   0  0  0  0  0  0  0  0  0  0  0  0
   -5.2820   25.0940  -30.3350 S   0  0  0  0  0  0  0  0  0  0  0  0
   -5.8160   25.2910  -28.9480 O   0  0  0  0  0  0  0  0  0  0  0  0
   -5.7530   26.2250  -31.2010 O   0  0  0  0  0  0  0  0  0  0  0  0
   -5.8510   23.5800  -31.0240 C   0  0  0  0  0  0  0  0  0  0  0  0
   -7.1640   23.1660  -30.7870 C   0  0  0  0  0  0  0  0  0  0  0  0
   -7.6620   22.0130  -31.3850 C   0  0  0  0  0  0  0  0  0  0  0  0
   -6.8370   21.2460  -32.2210 C   0  0  0  0  0  0  0  0  0  0  0  0
   -7.4630   19.8020  -33.0170 S   0  0  0  0  0  0  0  0  0  0  0  0
   -6.8450   19.6770  -34.3840 O   0  0  0  0  0  0  0  0  0  0  0  0
   -8.9470   19.9420  -33.1800 O   0  0  0  0  0  0  0  0  0  0  0  0
   -7.1150   18.3840  -32.0510 N   0  0  0  0  0  0  0  0  0  0  0  0
   -5.7090   18.3720  -31.6360 C   0  0  0  0  0  0  0  0  0  0  0  0
   -4.9110   17.6090  -32.6870 C   0  0  0  0  0  0  0  0  0  0  0  0
   -5.9400   16.8120  -33.4700 C   0  0  0  0  0  0  0  0  0  0  0  0
   -7.2880   17.1670  -32.8540 C   0  0  0  0  0  0  0  0  0  0  0  0
   -5.5180   21.6530  -32.4490 C   0  0  0  0  0  0  0  0  0  0  0  0
   -5.0280   22.8180  -31.8520 C   0  0  0  0  0  0  0  0  0  0  0  0
   -3.1320   22.9410  -29.1180 C   0  0  0  0  0  0  0  0  0  0  0  0
   -2.3640   22.1700  -28.2320 C   0  0  0  0  0  0  0  0  0  0  0  0
   -2.9320   20.8640  -27.7260 C   0  0  0  0  0  0  0  0  0  0  0  0
   -2.5557   19.0906  -25.1951 H   0  0  0  0  0  0  0  0  0  0  0  0
   -3.7101   18.9530  -26.5645 H   0  0  0  0  0  0  0  0  0  0  0  0
   -2.1971   17.9848  -26.5645 H   0  0  0  0  0  0  0  0  0  0  0  0
   -1.9315   21.3952  -25.3493 H   0  0  0  0  0  0  0  0  0  0  0  0
   -0.5675   20.2245  -25.3833 H   0  0  0  0  0  0  0  0  0  0  0  0
    0.1276   22.5621  -25.9883 H   0  0  0  0  0  0  0  0  0  0  0  0
    0.4217   21.3699  -27.3070 H   0  0  0  0  0  0  0  0  0  0  0  0
    0.1345   24.4314  -27.5834 H   0  0  0  0  0  0  0  0  0  0  0  0
   -1.2350   26.4450  -30.1220 H   0  0  0  0  0  0  0  0  0  0  0  0
   -7.8100   23.7572  -30.1214 H   0  0  0  0  0  0  0  0  0  0  0  0
   -8.7015   21.7030  -31.2025 H   0  0  0  0  0  0  0  0  0  0  0  0
   -5.3341   19.4033  -31.5594 H   0  0  0  0  0  0  0  0  0  0  0  0
   -5.6059   17.8877  -30.6537 H   0  0  0  0  0  0  0  0  0  0  0  0
   -4.3792   18.3078  -33.3495 H   0  0  0  0  0  0  0  0  0  0  0  0
   -4.1486   16.9597  -32.2319 H   0  0  0  0  0  0  0  0  0  0  0  0
   -5.9171   17.0946  -34.5328 H   0  0  0  0  0  0  0  0  0  0  0  0
   -5.7416   15.7312  -33.4205 H   0  0  0  0  0  0  0  0  0  0  0  0
   -8.0260   17.3468  -33.6496 H   0  0  0  0  0  0  0  0  0  0  0  0
   -7.6483   16.3414  -32.2227 H   0  0  0  0  0  0  0  0  0  0  0  0
   -4.8644   21.0542  -33.1003 H   0  0  0  0  0  0  0  0  0  0  0  0
   -3.9906   23.1343  -32.0359 H   0  0  0  0  0  0  0  0  0  0  0  0
   -4.0391   22.5124  -29.5690 H   0  0  0  0  0  0  0  0  0  0  0  0
   -3.7757   21.0862  -27.0560 H   0  0  0  0  0  0  0  0  0  0  0  0
   -3.2440   20.2815  -28.6054 H   0  0  0  0  0  0  0  0  0  0  0  0
  1  2  1  0
  2  3  1  0
  3  4  1  0
  4  5  1  0
  5  6  2  0
  6  7  1  0
  7  8  1  0
  7  9  2  0
  9 10  1  0
 10 11  1  0
 11 12  2  0
 11 13  2  0
 11 14  1  0
 14 15  2  0
 15 16  1  0
 16 17  2  0
 17 18  1  0
 18 19  2  0
 18 20  2  0
 18 21  1  0
 21 22  1  0
 22 23  1  0
 23 24  1  0
 24 25  1  0
 17 26  1  0
 26 27  2  0
  9 28  1  0
 28 29  2  0
 29 30  1  0
 30  2  1  0
 29  5  1  0
 27 14  1  0
 25 21  1  0
  1 31  1  0
  1 32  1  0
  1 33  1  0
  3 34  1  0
  3 35  1  0
  4 36  1  0
  4 37  1  0
  6 38  1  0
  8 39  1  0
 15 40  1  0
 16 41  1  0
 22 42  1  0
 22 43  1  0
 23 44  1  0
 23 45  1  0
 24 46  1  0
 24 47  1  0
 25 48  1  0
 25 49  1  0
 26 50  1  0
 27 51  1  0
 28 52  1  0
 30 53  1  0
 30 54  1  0
M  CHG  1  10  -1
M  END
>  <UniqueID>  (4) 
4

>  <SMILES>  (4) 
CN1CCc2cc(O)c([N-]S(=O)(=O)c3ccc(S(=O)(=O)N4CCCC4)cc3)cc2C1

>  <Energy>  (4) 
64.0068307465388

>  <Genealogy>  (4) 
CN1CCc2cc(O)c([N-]S(=O)(=O)c3ccc(S(=O)(=O)N4CCCC4)cc3)cc2C1 (protonated)
CN1CCc2cc(O)c([N-]S(=O)(=O)c3ccc(S(=O)(=O)N4CCCC4)cc3)cc2C1 (3D coordinates assigned)
CN1CCc2cc(O)c([N-]S(=O)(=O)c3ccc(S(=O)(=O)N4CCCC4)cc3)cc2C1 (nonaromatic ring conformer: 64.0068307465388 kcal/mol)

>  <smiles>  (4) 
CN1CCc2cc(O)c(NS(=O)(=O)c3ccc(S(=O)(=O)N4CCCC4)cc3)cc2C1

>  <score_type>  (4) 
oracle

>  <origin>  (4) 
adgpu

>  <m_score__min__energy>  (4) 
-13.73

>  <m_primary>  (4) 
energy

$$$$
4:0
     RDKit          3D

 60 64  0  0  0  0  0  0  0  0999 V2000
   -5.4640   18.5350  -35.4090 O   0  0  0  0  0  0  0  0  0  0  0  0
   -5.1830   18.7970  -34.2090 C   0  0  0  0  0  0  0  0  0  0  0  0
   -3.8120   18.9760  -33.8290 N   0  0  0  0  0  0  0  0  0  0  0  0
   -3.3070   19.9890  -32.9480 C   0  0  0  0  0  0  0  0  0  0  0  0
   -2.0570   20.5630  -33.2260 C   0  0  0  0  0  0  0  0  0  0  0  0
   -1.5290   21.5500  -32.3880 C   0  0  0  0  0  0  0  0  0  0  0  0
   -2.2370   21.9500  -31.2520 C   0  0  0  0  0  0  0  0  0  0  0  0
   -3.4550   21.3360  -30.9340 C   0  0  0  0  0  0  0  0  0  0  0  0
   -3.9970   20.3680  -31.7820 C   0  0  0  0  0  0  0  0  0  0  0  0
   -4.1100   21.7020  -29.7520 O   0  0  0  0  0  0  0  0  0  0  0  0
   -3.4440   22.4730  -28.7490 C   0  0  0  0  0  0  0  0  0  0  0  0
   -2.5620   23.5430  -29.4030 C   0  0  0  0  0  0  0  0  0  0  0  0
   -1.7410   22.9540  -30.4140 O   0  0  0  0  0  0  0  0  0  0  0  0
   -6.2550   18.8780  -33.1800 C   0  0  0  0  0  0  0  0  0  0  0  0
   -6.6930   20.1460  -32.7470 C   0  0  0  0  0  0  0  0  0  0  0  0
   -7.7050   20.2720  -31.7890 C   0  0  0  0  0  0  0  0  0  0  0  0
   -8.2180   21.8630  -31.2330 S   0  0  0  0  0  0  0  0  0  0  0  0
   -8.8980   22.6020  -32.3540 O   0  0  0  0  0  0  0  0  0  0  0  0
   -9.1970   21.6980  -30.1040 O   0  0  0  0  0  0  0  0  0  0  0  0
   -6.8240   22.7530  -30.6780 N   0  0  0  0  0  0  0  0  0  0  0  0
   -6.1320   23.4260  -31.7820 C   0  0  0  0  0  0  0  0  0  0  0  0
   -5.4610   24.6620  -31.1930 C   0  0  0  0  0  0  0  0  0  0  0  0
   -6.1050   24.8680  -29.8280 C   0  0  0  0  0  0  0  0  0  0  0  0
   -7.1930   23.8090  -29.7350 C   0  0  0  0  0  0  0  0  0  0  0  0
   -8.2860   19.1270  -31.2400 C   0  0  0  0  0  0  0  0  0  0  0  0
   -7.8680   17.8640  -31.6520 C   0  0  0  0  0  0  0  0  0  0  0  0
   -6.8590   17.7240  -32.6160 C   0  0  0  0  0  0  0  0  0  0  0  0
   -6.4560   16.4020  -32.9940 N   0  0  0  0  0  0  0  0  0  0  0  0
   -7.0650   15.7970  -34.1850 C   0  0  0  0  0  0  0  0  0  0  0  0
   -6.6240   14.3450  -34.3750 C   0  0  0  0  0  0  0  0  0  0  0  0
   -4.8100   14.1960  -34.5850 S   0  0  0  0  0  0  0  0  0  0  0  0
   -4.2490   15.3920  -33.3050 C   0  0  0  0  0  0  0  0  0  0  0  0
   -5.3360   15.7590  -32.3000 C   0  0  0  0  0  0  0  0  0  0  0  0
   -1.4889   20.2344  -34.1088 H   0  0  0  0  0  0  0  0  0  0  0  0
   -0.5581   22.0106  -32.6228 H   0  0  0  0  0  0  0  0  0  0  0  0
   -4.9632   19.9019  -31.5384 H   0  0  0  0  0  0  0  0  0  0  0  0
   -4.1934   22.9613  -28.1088 H   0  0  0  0  0  0  0  0  0  0  0  0
   -2.8113   21.8062  -28.1448 H   0  0  0  0  0  0  0  0  0  0  0  0
   -3.2019   24.3136  -29.8576 H   0  0  0  0  0  0  0  0  0  0  0  0
   -1.9174   23.9959  -28.6353 H   0  0  0  0  0  0  0  0  0  0  0  0
   -6.2317   21.0510  -33.1691 H   0  0  0  0  0  0  0  0  0  0  0  0
   -6.1650   22.0850  -30.2120 H   0  0  0  0  0  0  0  0  0  0  0  0
   -5.3763   22.7569  -32.2192 H   0  0  0  0  0  0  0  0  0  0  0  0
   -6.8370   23.7021  -32.5800 H   0  0  0  0  0  0  0  0  0  0  0  0
   -4.3788   24.4968  -31.0857 H   0  0  0  0  0  0  0  0  0  0  0  0
   -5.5900   25.5420  -31.8403 H   0  0  0  0  0  0  0  0  0  0  0  0
   -5.3636   24.7303  -29.0272 H   0  0  0  0  0  0  0  0  0  0  0  0
   -6.5104   25.8843  -29.7144 H   0  0  0  0  0  0  0  0  0  0  0  0
   -7.2445   23.4053  -28.7130 H   0  0  0  0  0  0  0  0  0  0  0  0
   -8.1806   24.2301  -29.9746 H   0  0  0  0  0  0  0  0  0  0  0  0
   -9.0757   19.2228  -30.4803 H   0  0  0  0  0  0  0  0  0  0  0  0
   -8.3338   16.9674  -31.2170 H   0  0  0  0  0  0  0  0  0  0  0  0
   -8.1594   15.8253  -34.0783 H   0  0  0  0  0  0  0  0  0  0  0  0
   -6.7377   16.3709  -35.0645 H   0  0  0  0  0  0  0  0  0  0  0  0
   -6.9275   13.7639  -33.4917 H   0  0  0  0  0  0  0  0  0  0  0  0
   -7.1028   13.9629  -35.2887 H   0  0  0  0  0  0  0  0  0  0  0  0
   -3.4047   14.9468  -32.7582 H   0  0  0  0  0  0  0  0  0  0  0  0
   -3.9648   16.3172  -33.8278 H   0  0  0  0  0  0  0  0  0  0  0  0
   -5.6922   14.8474  -31.7979 H   0  0  0  0  0  0  0  0  0  0  0  0
   -4.9225   16.4545  -31.5548 H   0  0  0  0  0  0  0  0  0  0  0  0
  1  2  2  0
  2  3  1  0
  3  4  1  0
  4  5  2  0
  5  6  1  0
  6  7  2  0
  7  8  1  0
  8  9  2  0
  8 10  1  0
 10 11  1  0
 11 12  1  0
 12 13  1  0
  2 14  1  0
 14 15  2  0
 15 16  1  0
 16 17  1  0
 17 18  2  0
 17 19  2  0
 17 20  1  0
 20 21  1  0
 21 22  1  0
 22 23  1  0
 23 24  1  0
 16 25  2  0
 25 26  1  0
 26 27  2  0
 27 28  1  0
 28 29  1  0
 29 30  1  0
 30 31  1  0
 31 32  1  0
 32 33  1  0
  9  4  1  0
 27 14  1  0
 33 28  1  0
 13  7  1  0
 24 20  1  0
  5 34  1  0
  6 35  1  0
  9 36  1  0
 11 37  1  0
 11 38  1  0
 12 39  1  0
 12 40  1  0
 15 41  1  0
 20 42  1  0
 21 43  1  0
 21 44  1  0
 22 45  1  0
 22 46  1  0
 23 47  1  0
 23 48  1  0
 24 49  1  0
 24 50  1  0
 25 51  1  0
 26 52  1  0
 29 53  1  0
 29 54  1  0
 30 55  1  0
 30 56  1  0
 32 57  1  0
 32 58  1  0
 33 59  1  0
 33 60  1  0
M  CHG  2   3  -1  20   1
M  END
>  <UniqueID>  (5) 
5

>  <SMILES>  (5) 
O=C([N-]c1ccc2c(c1)OCCO2)c1cc(S(=O)(=O)[NH+]2CCCC2)ccc1N1CCSCC1

>  <Energy>  (5) 
76.85037989323199

>  <Genealogy>  (5) 
O=C([N-]c1ccc2c(c1)OCCO2)c1cc(S(=O)(=O)[NH+]2CCCC2)ccc1N1CCSCC1 (protonated)
O=C([N-]c1ccc2c(c1)OCCO2)c1cc(S(=O)(=O)[NH+]2CCCC2)ccc1N1CCSCC1 (3D coordinates assigned)
O=C([N-]c1ccc2c(c1)OCCO2)c1cc(S(=O)(=O)[NH+]2CCCC2)ccc1N1CCSCC1 (nonaromatic ring conformer: 76.85037989323199 kcal/mol)

>  <smiles>  (5) 
O=C(Nc1ccc2c(c1)OCCO2)c1cc(S(=O)(=O)N2CCCC2)ccc1N1CCSCC1

>  <score_type>  (5) 
oracle

>  <origin>  (5) 
adgpu

>  <m_score__min__energy>  (5) 
-10.92

>  <m_primary>  (5) 
energy

$$$$
5:0
     RDKit          3D

 64 68  0  0  0  0  0  0  0  0999 V2000
   -7.8320   22.3560  -32.2730 O   0  0  0  0  0  0  0  0  0  0  0  0
   -6.6510   21.9320  -32.1320 C   0  0  0  0  0  0  0  0  0  0  0  0
   -5.6380   22.8090  -31.5130 C   0  0  0  0  0  0  0  0  0  0  0  0
   -5.9940   24.0790  -31.0290 C   0  0  0  0  0  0  0  0  0  0  0  0
   -5.0360   24.8960  -30.4200 C   0  0  0  0  0  0  0  0  0  0  0  0
   -3.7110   24.4620  -30.3040 C   0  0  0  0  0  0  0  0  0  0  0  0
   -2.7680   25.2980  -29.7140 O   0  0  0  0  0  0  0  0  0  0  0  0
   -3.3410   23.1970  -30.7980 C   0  0  0  0  0  0  0  0  0  0  0  0
   -1.9920   22.7350  -30.6940 N   0  0  0  0  0  0  0  0  0  0  0  0
   -1.5080   21.2720  -31.4800 S   0  0  0  0  0  0  0  0  0  0  0  0
   -2.6730   20.7130  -32.2470 O   0  0  0  0  0  0  0  0  0  0  0  0
   -0.3940   21.5450  -32.4510 O   0  0  0  0  0  0  0  0  0  0  0  0
   -0.9730   20.1090  -30.2710 C   0  0  0  0  0  0  0  0  0  0  0  0
   -1.3210   20.2940  -28.9150 C   0  0  0  0  0  0  0  0  0  0  0  0
   -0.8820   19.3830  -27.9400 C   0  0  0  0  0  0  0  0  0  0  0  0
   -0.1050   18.2980  -28.3450 C   0  0  0  0  0  0  0  0  0  0  0  0
    0.2160   18.1090  -29.6590 C   0  0  0  0  0  0  0  0  0  0  0  0
   -0.2060   18.9910  -30.6540 C   0  0  0  0  0  0  0  0  0  0  0  0
    0.9920   16.9440  -29.8430 N   0  0  0  0  0  0  0  0  0  0  0  0
    1.2180   16.3240  -28.5390 C   0  0  0  0  0  0  0  0  0  0  0  0
    0.4840   17.2170  -27.5060 C   0  0  0  0  0  0  0  0  0  0  0  0
   -4.3000   22.3860  -31.4210 C   0  0  0  0  0  0  0  0  0  0  0  0
   -6.3100   20.6060  -32.5780 N   0  0  0  0  0  0  0  0  0  0  0  0
   -7.0380   20.0150  -33.7090 C   0  0  0  0  0  0  0  0  0  0  0  0
   -6.1200   19.1380  -34.5910 C   0  0  0  0  0  0  0  0  0  0  0  0
   -4.8530   18.6040  -33.8650 C   0  0  0  0  0  0  0  0  0  0  0  0
   -3.8280   19.5660  -34.0030 O   0  0  0  0  0  0  0  0  0  0  0  0
   -4.3940   17.2520  -34.4820 C   0  0  0  0  0  0  0  0  0  0  0  0
   -3.0860   16.7570  -33.9130 C   0  0  0  0  0  0  0  0  0  0  0  0
   -1.9050   17.5020  -34.0840 C   0  0  0  0  0  0  0  0  0  0  0  0
   -0.6950   17.0360  -33.5560 C   0  0  0  0  0  0  0  0  0  0  0  0
   -0.6550   15.8260  -32.8590 C   0  0  0  0  0  0  0  0  0  0  0  0
   -1.8240   15.0810  -32.6840 C   0  0  0  0  0  0  0  0  0  0  0  0
   -3.0360   15.5420  -33.2060 C   0  0  0  0  0  0  0  0  0  0  0  0
   -5.1770   18.4010  -32.3650 C   0  0  0  0  0  0  0  0  0  0  0  0
   -5.5010   19.7430  -31.6980 C   0  0  0  0  0  0  0  0  0  0  0  0
   -7.0308   24.4324  -31.1295 H   0  0  0  0  0  0  0  0  0  0  0  0
   -5.3253   25.8833  -30.0308 H   0  0  0  0  0  0  0  0  0  0  0  0
   -1.2410   23.4360  -30.4910 H   0  0  0  0  0  0  0  0  0  0  0  0
   -1.9386   21.1554  -28.6209 H   0  0  0  0  0  0  0  0  0  0  0  0
   -1.1451   19.5223  -26.8811 H   0  0  0  0  0  0  0  0  0  0  0  0
    0.0531   18.8183  -31.7090 H   0  0  0  0  0  0  0  0  0  0  0  0
    1.3460   16.5850  -30.7580 H   0  0  0  0  0  0  0  0  0  0  0  0
    0.8051   15.3045  -28.5242 H   0  0  0  0  0  0  0  0  0  0  0  0
    2.2914   16.2454  -28.3118 H   0  0  0  0  0  0  0  0  0  0  0  0
   -0.3016   16.6512  -26.9837 H   0  0  0  0  0  0  0  0  0  0  0  0
    1.1489   17.5983  -26.7170 H   0  0  0  0  0  0  0  0  0  0  0  0
   -4.0041   21.4131  -31.8403 H   0  0  0  0  0  0  0  0  0  0  0  0
   -7.8565   19.3924  -33.3186 H   0  0  0  0  0  0  0  0  0  0  0  0
   -7.4255   20.8354  -34.3309 H   0  0  0  0  0  0  0  0  0  0  0  0
   -6.7038   18.2752  -34.9441 H   0  0  0  0  0  0  0  0  0  0  0  0
   -5.7655   19.7796  -35.4111 H   0  0  0  0  0  0  0  0  0  0  0  0
   -4.1700   20.4250  -33.6480 H   0  0  0  0  0  0  0  0  0  0  0  0
   -5.1693   16.4965  -34.2867 H   0  0  0  0  0  0  0  0  0  0  0  0
   -4.2427   17.4167  -35.5590 H   0  0  0  0  0  0  0  0  0  0  0  0
   -1.9323   18.4540  -34.6345 H   0  0  0  0  0  0  0  0  0  0  0  0
    0.2253   17.6234  -33.6901 H   0  0  0  0  0  0  0  0  0  0  0  0
    0.2972   15.4596  -32.4478 H   0  0  0  0  0  0  0  0  0  0  0  0
   -1.7905   14.1290  -32.1339 H   0  0  0  0  0  0  0  0  0  0  0  0
   -3.9538   14.9526  -33.0634 H   0  0  0  0  0  0  0  0  0  0  0  0
   -6.0441   17.7309  -32.2696 H   0  0  0  0  0  0  0  0  0  0  0  0
   -4.2999   17.9601  -31.8686 H   0  0  0  0  0  0  0  0  0  0  0  0
   -6.0611   19.5543  -30.7703 H   0  0  0  0  0  0  0  0  0  0  0  0
   -4.5531   20.2596  -31.4869 H   0  0  0  0  0  0  0  0  0  0  0  0
  1  2  2  0
  2  3  1  0
  3  4  2  0
  4  5  1  0
  5  6  2  0
  6  7  1  0
  6  8  1  0
  8  9  1  0
  9 10  1  0
 10 11  2  0
 10 12  2  0
 10 13  1  0
 13 14  2  0
 14 15  1  0
 15 16  2  0
 16 17  1  0
 17 18  2  0
 17 19  1  0
 19 20  1  0
 20 21  1  0
  8 22  2  0
  2 23  1  0
 23 24  1  0
 24 25  1  0
 25 26  1  0
 26 27  1  0
 26 28  1  0
 28 29  1  0
 29 30  2  0
 30 31  1  0
 31 32  2  0
 32 33  1  0
 33 34  2  0
 26 35  1  0
 35 36  1  0
 22  3  1  0
 36 23  1  0
 18 13  1  0
 34 29  1  0
 21 16  1  0
  4 37  1  0
  5 38  1  0
  9 39  1  0
 14 40  1  0
 15 41  1  0
 18 42  1  0
 19 43  1  0
 20 44  1  0
 20 45  1  0
 21 46  1  0
 21 47  1  0
 22 48  1  0
 24 49  1  0
 24 50  1  0
 25 51  1  0
 25 52  1  0
 27 53  1  0
 28 54  1  0
 28 55  1  0
 30 56  1  0
 31 57  1  0
 32 58  1  0
 33 59  1  0
 34 60  1  0
 35 61  1  0
 35 62  1  0
 36 63  1  0
 36 64  1  0
M  CHG  1   7  -1
M  END
>  <UniqueID>  (6) 
6

>  <SMILES>  (6) 
O=C(c1ccc([O-])c(NS(=O)(=O)c2ccc3c(c2)NCC3)c1)N1CCC(O)(Cc2ccccc2)CC1

>  <Energy>  (6) 
92.18110044238492

>  <Genealogy>  (6) 
O=C(c1ccc([O-])c(NS(=O)(=O)c2ccc3c(c2)NCC3)c1)N1CCC(O)(Cc2ccccc2)CC1 (protonated)
O=C(c1ccc([O-])c(NS(=O)(=O)c2ccc3c(c2)NCC3)c1)N1CCC(O)(Cc2ccccc2)CC1 (3D coordinates assigned)
O=C(c1ccc([O-])c(NS(=O)(=O)c2ccc3c(c2)NCC3)c1)N1CCC(O)(Cc2ccccc2)CC1 (nonaromatic ring conformer: 92.18110044238492 kcal/mol)

>  <smiles>  (6) 
O=C(c1ccc(O)c(NS(=O)(=O)c2ccc3c(c2)NCC3)c1)N1CCC(O)(Cc2ccccc2)CC1

>  <score_type>  (6) 
oracle

>  <origin>  (6) 
adgpu

>  <m_score__min__energy>  (6) 
-11.720000000000001

>  <m_primary>  (6) 
energy

$$$$
6:0
     RDKit          3D

 54 57  0  0  0  0  0  0  0  0999 V2000
   -6.1910   23.7230  -29.3560 O   0  0  0  0  0  0  0  0  0  0  0  0
   -5.3670   23.2010  -30.1550 C   0  0  0  0  0  0  0  0  0  0  0  0
   -3.9340   23.3260  -29.8500 C   0  0  0  0  0  0  0  0  0  0  0  0
   -3.0890   22.2200  -30.0070 C   0  0  0  0  0  0  0  0  0  0  0  0
   -1.7240   22.3330  -29.7290 C   0  0  0  0  0  0  0  0  0  0  0  0
   -1.1900   23.5500  -29.2910 C   0  0  0  0  0  0  0  0  0  0  0  0
    0.1740   23.6250  -29.0090 O   0  0  0  0  0  0  0  0  0  0  0  0
   -2.0360   24.6680  -29.1400 C   0  0  0  0  0  0  0  0  0  0  0  0
   -1.5190   25.9280  -28.7130 N   0  0  0  0  0  0  0  0  0  0  0  0
   -0.4280   26.0410  -27.3740 S   0  0  0  0  0  0  0  0  0  0  0  0
    0.9790   25.7940  -27.8420 O   0  0  0  0  0  0  0  0  0  0  0  0
   -0.7950   25.0040  -26.3500 O   0  0  0  0  0  0  0  0  0  0  0  0
   -0.5280   27.6320  -26.6380 C   0  0  0  0  0  0  0  0  0  0  0  0
   -0.8910   27.9030  -25.3260 C   0  0  0  0  0  0  0  0  0  0  0  0
   -0.8320   29.2640  -25.0120 C   0  0  0  0  0  0  0  0  0  0  0  0
   -0.4230   30.0610  -26.0730 C   0  0  0  0  0  0  0  0  0  0  0  0
   -0.1410   29.0730  -27.4080 S   0  0  0  0  0  0  0  0  0  0  0  0
   -3.4050   24.5480  -29.4090 C   0  0  0  0  0  0  0  0  0  0  0  0
   -5.8450   22.4730  -31.3100 N   0  0  0  0  0  0  0  0  0  0  0  0
   -7.2930   22.2520  -31.4480 C   0  0  0  0  0  0  0  0  0  0  0  0
   -7.6430   21.4060  -32.6850 C   0  0  0  0  0  0  0  0  0  0  0  0
   -6.7460   20.1500  -32.8510 C   0  0  0  0  0  0  0  0  0  0  0  0
   -7.3540   18.8620  -32.2300 C   0  0  0  0  0  0  0  0  0  0  0  0
   -6.6310   17.5820  -32.5880 C   0  0  0  0  0  0  0  0  0  0  0  0
   -6.8440   16.9540  -33.8280 C   0  0  0  0  0  0  0  0  0  0  0  0
   -6.1470   15.7890  -34.1660 C   0  0  0  0  0  0  0  0  0  0  0  0
   -5.2490   15.2240  -33.2580 C   0  0  0  0  0  0  0  0  0  0  0  0
   -5.0600   15.8140  -32.0060 C   0  0  0  0  0  0  0  0  0  0  0  0
   -5.7530   16.9820  -31.6670 C   0  0  0  0  0  0  0  0  0  0  0  0
   -5.2690   20.3810  -32.4290 C   0  0  0  0  0  0  0  0  0  0  0  0
   -4.9310   21.8630  -32.2900 C   0  0  0  0  0  0  0  0  0  0  0  0
   -3.5010   21.2595  -30.3502 H   0  0  0  0  0  0  0  0  0  0  0  0
   -1.0659   21.4606  -29.8552 H   0  0  0  0  0  0  0  0  0  0  0  0
    0.5430   24.2010  -28.2640 H   0  0  0  0  0  0  0  0  0  0  0  0
   -1.1938   27.1270  -24.6075 H   0  0  0  0  0  0  0  0  0  0  0  0
   -1.0853   29.6651  -24.0195 H   0  0  0  0  0  0  0  0  0  0  0  0
   -0.3032   31.1541  -26.0463 H   0  0  0  0  0  0  0  0  0  0  0  0
   -4.0680   25.4153  -29.2740 H   0  0  0  0  0  0  0  0  0  0  0  0
   -7.6580   21.7322  -30.5499 H   0  0  0  0  0  0  0  0  0  0  0  0
   -7.7720   23.2350  -31.5680 H   0  0  0  0  0  0  0  0  0  0  0  0
   -8.6891   21.0775  -32.5973 H   0  0  0  0  0  0  0  0  0  0  0  0
   -7.4773   22.0406  -33.5681 H   0  0  0  0  0  0  0  0  0  0  0  0
   -6.7205   19.9703  -33.9359 H   0  0  0  0  0  0  0  0  0  0  0  0
   -7.3377   18.9694  -31.1354 H   0  0  0  0  0  0  0  0  0  0  0  0
   -8.3696   18.7694  -32.6423 H   0  0  0  0  0  0  0  0  0  0  0  0
   -7.5655   17.3828  -34.5390 H   0  0  0  0  0  0  0  0  0  0  0  0
   -6.3064   15.3180  -35.1472 H   0  0  0  0  0  0  0  0  0  0  0  0
   -4.6911   14.3154  -33.5284 H   0  0  0  0  0  0  0  0  0  0  0  0
   -4.3648   15.3596  -31.2847 H   0  0  0  0  0  0  0  0  0  0  0  0
   -5.6102   17.4336  -30.6742 H   0  0  0  0  0  0  0  0  0  0  0  0
   -5.0960   19.8865  -31.4617 H   0  0  0  0  0  0  0  0  0  0  0  0
   -4.6248   19.9614  -33.2157 H   0  0  0  0  0  0  0  0  0  0  0  0
   -3.8925   21.9736  -31.9445 H   0  0  0  0  0  0  0  0  0  0  0  0
   -5.0426   22.3626  -33.2636 H   0  0  0  0  0  0  0  0  0  0  0  0
  1  2  2  0
  2  3  1  0
  3  4  2  0
  4  5  1  0
  5  6  2  0
  6  7  1  0
  6  8  1  0
  8  9  1  0
  9 10  1  0
 10 11  2  0
 10 12  2  0
 10 13  1  0
 13 14  2  0
 14 15  1  0
 15 16  2  0
 16 17  1  0
  8 18  2  0
  2 19  1  0
 19 20  1  0
 20 21  1  0
 21 22  1  0
 22 23  1  0
 23 24  1  0
 24 25  2  0
 25 26  1  0
 26 27  2  0
 27 28  1  0
 28 29  2  0
 22 30  1  0
 30 31  1  0
 18  3  1  0
 31 19  1  0
 17 13  1  0
 29 24  1  0
  4 32  1  0
  5 33  1  0
  7 34  1  0
 14 35  1  0
 15 36  1  0
 16 37  1  0
 18 38  1  0
 20 39  1  0
 20 40  1  0
 21 41  1  0
 21 42  1  0
 22 43  1  0
 23 44  1  0
 23 45  1  0
 25 46  1  0
 26 47  1  0
 27 48  1  0
 28 49  1  0
 29 50  1  0
 30 51  1  0
 30 52  1  0
 31 53  1  0
 31 54  1  0
M  CHG  1   9  -1
M  END
>  <UniqueID>  (7) 
7

>  <SMILES>  (7) 
O=C(c1ccc(O)c([N-]S(=O)(=O)c2cccs2)c1)N1CCC(Cc2ccccc2)CC1

>  <Energy>  (7) 
100.80582128410454

>  <Genealogy>  (7) 
O=C(c1ccc(O)c([N-]S(=O)(=O)c2cccs2)c1)N1CCC(Cc2ccccc2)CC1 (protonated)
O=C(c1ccc(O)c([N-]S(=O)(=O)c2cccs2)c1)N1CCC(Cc2ccccc2)CC1 (3D coordinates assigned)
O=C(c1ccc(O)c([N-]S(=O)(=O)c2cccs2)c1)N1CCC(Cc2ccccc2)CC1 (nonaromatic ring conformer: 100.80582128410454 kcal/mol)

>  <smiles>  (7) 
O=C(c1ccc(O)c(NS(=O)(=O)c2cccs2)c1)N1CCC(Cc2ccccc2)CC1

>  <score_type>  (7) 
oracle

>  <origin>  (7) 
adgpu

>  <m_score__min__energy>  (7) 
-11.31

>  <m_primary>  (7) 
energy

$$$$
7:0
     RDKit          3D

 51 54  0  0  0  0  0  0  0  0999 V2000
   -5.3050   16.2990  -32.3510 C   0  0  0  0  0  0  0  0  0  0  0  0
   -6.3450   16.5600  -33.4380 C   0  0  0  0  0  0  0  0  0  0  0  0
   -5.8470   17.5150  -34.5290 C   0  0  0  0  0  0  0  0  0  0  0  0
   -5.9700   18.9240  -34.0850 N   0  0  0  0  0  0  0  0  0  0  0  0
   -6.9010   19.1310  -32.8920 C   0  0  0  0  0  0  0  0  0  0  0  0
   -6.2880   19.9480  -31.6200 C   0  0  0  0  0  0  0  0  0  0  0  0
   -5.0890   21.0080  -31.9050 C   0  0  2  0  0  0  0  0  0  0  0  0
   -5.4370   22.4010  -31.3250 C   0  0  0  0  0  0  0  0  0  0  0  0
   -6.7250   22.6450  -30.7920 C   0  0  0  0  0  0  0  0  0  0  0  0
   -7.0540   23.8790  -30.2280 C   0  0  0  0  0  0  0  0  0  0  0  0
   -6.1010   24.8940  -30.1570 C   0  0  0  0  0  0  0  0  0  0  0  0
   -4.8110   24.6690  -30.6370 C   0  0  0  0  0  0  0  0  0  0  0  0
   -3.8550   25.6730  -30.5460 O   0  0  0  0  0  0  0  0  0  0  0  0
   -4.4760   23.4350  -31.2050 C   0  0  0  0  0  0  0  0  0  0  0  0
   -4.9960   21.0340  -33.4140 C   0  0  0  0  0  0  0  0  0  0  0  0
   -4.7050   19.5540  -33.7220 C   0  0  2  0  0  0  0  0  0  0  0  0
   -3.1850   19.3700  -33.7580 C   0  0  0  0  0  0  0  0  0  0  0  0
   -2.6880   19.9270  -32.3760 C   0  0  0  0  0  0  0  0  0  0  0  0
   -3.6270   20.5710  -31.4480 C   0  0  0  0  0  0  0  0  0  0  0  0
   -3.1800   20.8210  -30.1390 C   0  0  0  0  0  0  0  0  0  0  0  0
   -1.8660   20.5440  -29.7600 C   0  0  0  0  0  0  0  0  0  0  0  0
   -0.9500   19.9890  -30.6710 C   0  0  0  0  0  0  0  0  0  0  0  0
    0.3810   19.7200  -30.3190 O   0  0  0  0  0  0  0  0  0  0  0  0
    0.9720   18.4240  -30.3230 C   0  0  0  0  0  0  0  0  0  0  0  0
   -1.3710   19.6710  -31.9680 C   0  0  0  0  0  0  0  0  0  0  0  0
   -0.4730   19.0800  -32.8510 O   0  0  0  0  0  0  0  0  0  0  0  0
   -5.7714   16.4160  -31.3617 H   0  0  0  0  0  0  0  0  0  0  0  0
   -4.9158   15.2753  -32.4541 H   0  0  0  0  0  0  0  0  0  0  0  0
   -4.4786   17.0176  -32.4541 H   0  0  0  0  0  0  0  0  0  0  0  0
   -6.6101   15.6008  -33.9066 H   0  0  0  0  0  0  0  0  0  0  0  0
   -7.2116   17.0359  -32.9557 H   0  0  0  0  0  0  0  0  0  0  0  0
   -4.7914   17.2956  -34.7472 H   0  0  0  0  0  0  0  0  0  0  0  0
   -6.4597   17.3728  -35.4314 H   0  0  0  0  0  0  0  0  0  0  0  0
   -7.7833   19.6825  -33.2490 H   0  0  0  0  0  0  0  0  0  0  0  0
   -7.1146   18.1210  -32.5122 H   0  0  0  0  0  0  0  0  0  0  0  0
   -7.1162   20.5060  -31.1588 H   0  0  0  0  0  0  0  0  0  0  0  0
   -5.8278   19.1730  -30.9895 H   0  0  0  0  0  0  0  0  0  0  0  0
   -7.4815   21.8470  -30.8227 H   0  0  0  0  0  0  0  0  0  0  0  0
   -8.0683   24.0509  -29.8385 H   0  0  0  0  0  0  0  0  0  0  0  0
   -6.3658   25.8697  -29.7236 H   0  0  0  0  0  0  0  0  0  0  0  0
   -3.4502   23.2650  -31.5641 H   0  0  0  0  0  0  0  0  0  0  0  0
   -5.9415   21.3623  -33.8704 H   0  0  0  0  0  0  0  0  0  0  0  0
   -4.2435   21.7332  -33.8077 H   0  0  0  0  0  0  0  0  0  0  0  0
   -4.5388   18.4832  -33.5331 H   0  0  0  0  0  0  0  0  0  0  0  0
   -2.9246   18.3066  -33.8649 H   0  0  0  0  0  0  0  0  0  0  0  0
   -2.7210   19.8895  -34.6094 H   0  0  0  0  0  0  0  0  0  0  0  0
   -3.8781   21.2423  -29.4007 H   0  0  0  0  0  0  0  0  0  0  0  0
   -1.5415   20.7633  -28.7321 H   0  0  0  0  0  0  0  0  0  0  0  0
    1.1253   18.0877  -29.2869 H   0  0  0  0  0  0  0  0  0  0  0  0
    0.3063   17.7191  -30.8426 H   0  0  0  0  0  0  0  0  0  0  0  0
    1.9407   18.4644  -30.8426 H   0  0  0  0  0  0  0  0  0  0  0  0
  1  2  1  0
  2  3  1  0
  3  4  1  0
  4  5  1  0
  5  6  1  0
  6  7  1  0
  7  8  1  1
  8  9  2  0
  9 10  1  0
 10 11  2  0
 11 12  1  0
 12 13  1  0
 12 14  2  0
  7 15  1  0
 15 16  1  0
 16 17  1  0
 17 18  1  0
 18 19  2  0
 19 20  1  0
 20 21  2  0
 21 22  1  0
 22 23  1  0
 23 24  1  0
 22 25  2  0
 25 26  1  0
 16  4  1  0
 25 18  1  0
 19  7  1  0
 14  8  1  0
  1 27  1  0
  1 28  1  0
  1 29  1  0
  2 30  1  0
  2 31  1  0
  3 32  1  0
  3 33  1  0
  5 34  1  0
  5 35  1  0
  6 36  1  0
  6 37  1  0
  9 38  1  0
 10 39  1  0
 11 40  1  0
 14 41  1  0
 15 42  1  0
 15 43  1  0
 16 44  1  1
 17 45  1  0
 17 46  1  0
 20 47  1  0
 21 48  1  0
 24 49  1  0
 24 50  1  0
 24 51  1  0
M  CHG  2  13  -1  26  -1
M  END
>  <UniqueID>  (8) 
8

>  <SMILES>  (8) 
CCCN1CC[C@]2(c3cccc([O-])c3)C[C@@H]1Cc1c2ccc(OC)c1[O-]

>  <Energy>  (8) 
197.92760881872164

>  <Genealogy>  (8) 
CCCN1CCC2(c3cccc([O-])c3)CC1Cc1c2ccc(OC)c1[O-] (protonated)
CCCN1CC[C@]2(c3cccc([O-])c3)C[C@@H]1Cc1c2ccc(OC)c1[O-] (chirality)
CCCN1CC[C@]2(c3cccc([O-])c3)C[C@@H]1Cc1c2ccc(OC)c1[O-] (3D coordinates assigned)
CCCN1CC[C@]2(c3cccc([O-])c3)C[C@@H]1Cc1c2ccc(OC)c1[O-] (nonaromatic ring conformer: 197.92760881872164 kcal/mol)

>  <smiles>  (8) 
CCCN1CCC2(c3cccc(O)c3)CC1Cc1c2ccc(OC)c1O

>  <score_type>  (8) 
oracle

>  <origin>  (8) 
adgpu

>  <m_score__min__energy>  (8) 
-11.17

>  <m_primary>  (8) 
energy

$$$$
8:0
     RDKit          3D

 40 42  0  0  0  0  0  0  0  0999 V2000
   -6.8610   16.5560  -33.5420 C   0  0  0  0  0  0  0  0  0  0  0  0
   -5.4240   17.0780  -33.5890 C   0  0  0  0  0  0  0  0  0  0  0  0
   -5.3050   18.5200  -33.0580 C   0  0  2  0  0  0  0  0  0  0  0  0
   -6.7780   19.4700  -33.5640 S   0  0  0  0  0  0  0  0  0  0  0  0
   -6.3120   20.9430  -32.6420 C   0  0  0  0  0  0  0  0  0  0  0  0
   -7.2780   21.6310  -31.9020 C   0  0  0  0  0  0  0  0  0  0  0  0
   -6.9480   22.8260  -31.2560 C   0  0  0  0  0  0  0  0  0  0  0  0
   -5.6480   23.3390  -31.3450 C   0  0  0  0  0  0  0  0  0  0  0  0
   -5.2370   24.8270  -30.4970 S   0  0  0  0  0  0  0  0  0  0  0  0
   -5.7810   26.0260  -31.2230 O   0  0  0  0  0  0  0  0  0  0  0  0
   -5.8310   24.7790  -29.1180 O   0  0  0  0  0  0  0  0  0  0  0  0
   -3.5140   24.9730  -30.3710 N   0  0  0  0  0  0  0  0  0  0  0  0
   -2.6910   24.2780  -29.4220 C   0  0  0  0  0  0  0  0  0  0  0  0
   -3.0010   22.9770  -28.9820 C   0  0  0  0  0  0  0  0  0  0  0  0
   -2.1810   22.3280  -28.0450 C   0  0  0  0  0  0  0  0  0  0  0  0
   -2.5460   20.9640  -27.5400 C   0  0  0  0  0  0  0  0  0  0  0  0
   -1.0580   22.9940  -27.5320 C   0  0  0  0  0  0  0  0  0  0  0  0
   -0.7410   24.2790  -27.9740 C   0  0  0  0  0  0  0  0  0  0  0  0
   -1.5520   24.9200  -28.9160 C   0  0  0  0  0  0  0  0  0  0  0  0
   -1.2240   26.2020  -29.3440 O   0  0  0  0  0  0  0  0  0  0  0  0
   -4.6730   22.6410  -32.0720 C   0  0  0  0  0  0  0  0  0  0  0  0
   -4.9930   21.4330  -32.7010 C   0  0  0  0  0  0  0  0  0  0  0  0
   -3.9550   20.6630  -33.3160 N   0  0  0  0  0  0  0  0  0  0  0  0
   -4.0900   19.2610  -33.5720 C   0  0  0  0  0  0  0  0  0  0  0  0
   -3.1770   18.6630  -34.2010 O   0  0  0  0  0  0  0  0  0  0  0  0
   -7.1755   16.4418  -32.4941 H   0  0  0  0  0  0  0  0  0  0  0  0
   -7.5271   17.2696  -34.0490 H   0  0  0  0  0  0  0  0  0  0  0  0
   -6.9138   15.5813  -34.0490 H   0  0  0  0  0  0  0  0  0  0  0  0
   -4.7896   16.4219  -32.9749 H   0  0  0  0  0  0  0  0  0  0  0  0
   -5.1023   17.0803  -34.6409 H   0  0  0  0  0  0  0  0  0  0  0  0
   -5.2122   18.4349  -31.9652 H   0  0  0  0  0  0  0  0  0  0  0  0
   -8.3001   21.2312  -31.8279 H   0  0  0  0  0  0  0  0  0  0  0  0
   -7.7117   23.3649  -30.6761 H   0  0  0  0  0  0  0  0  0  0  0  0
   -3.8919   22.4654  -29.3751 H   0  0  0  0  0  0  0  0  0  0  0  0
   -2.5450   20.9679  -26.4400 H   0  0  0  0  0  0  0  0  0  0  0  0
   -3.5480   20.6940  -27.9048 H   0  0  0  0  0  0  0  0  0  0  0  0
   -1.8128   20.2296  -27.9048 H   0  0  0  0  0  0  0  0  0  0  0  0
   -0.4253   22.5017  -26.7789 H   0  0  0  0  0  0  0  0  0  0  0  0
    0.1501   24.7897  -27.5801 H   0  0  0  0  0  0  0  0  0  0  0  0
   -3.6526   23.0448  -32.1480 H   0  0  0  0  0  0  0  0  0  0  0  0
  1  2  1  0
  2  3  1  0
  3  4  1  0
  4  5  1  0
  5  6  2  0
  6  7  1  0
  7  8  2  0
  8  9  1  0
  9 10  2  0
  9 11  2  0
  9 12  1  0
 12 13  1  0
 13 14  2  0
 14 15  1  0
 15 16  1  0
 15 17  2  0
 17 18  1  0
 18 19  2  0
 19 20  1  0
  8 21  1  0
 21 22  2  0
 22 23  1  0
 23 24  1  0
 24 25  2  0
 24  3  1  0
 22  5  1  0
 19 13  1  0
  1 26  1  0
  1 27  1  0
  1 28  1  0
  2 29  1  0
  2 30  1  0
  3 31  1  1
  6 32  1  0
  7 33  1  0
 14 34  1  0
 16 35  1  0
 16 36  1  0
 16 37  1  0
 17 38  1  0
 18 39  1  0
 21 40  1  0
M  CHG  3  12  -1  20  -1  23  -1
M  END
>  <UniqueID>  (9) 
9

>  <SMILES>  (9) 
CC[C@@H]1Sc2ccc(S(=O)(=O)[N-]c3cc(C)ccc3[O-])cc2[N-]C1=O

>  <Energy>  (9) 
46.871749360793686

>  <Genealogy>  (9) 
CCC1Sc2ccc(S(=O)(=O)[N-]c3cc(C)ccc3[O-])cc2[N-]C1=O (protonated)
CC[C@@H]1Sc2ccc(S(=O)(=O)[N-]c3cc(C)ccc3[O-])cc2[N-]C1=O (chirality)
CC[C@@H]1Sc2ccc(S(=O)(=O)[N-]c3cc(C)ccc3[O-])cc2[N-]C1=O (3D coordinates assigned)
CC[C@@H]1Sc2ccc(S(=O)(=O)[N-]c3cc(C)ccc3[O-])cc2[N-]C1=O (nonaromatic ring conformer: 46.871749360793686 kcal/mol)

>  <smiles>  (9) 
CCC1Sc2ccc(S(=O)(=O)Nc3cc(C)ccc3O)cc2NC1=O

>  <score_type>  (9) 
oracle

>  <origin>  (9) 
adgpu

>  <m_score__min__energy>  (9) 
-14.279999999999999

>  <m_primary>  (9) 
energy

$$$$
9:0
     RDKit          3D

 44 46  0  0  0  0  0  0  0  0999 V2000
   -0.5050   22.2340  -29.7140 C   0  0  0  0  0  0  0  0  0  0  0  0
   -0.4850   20.4260  -29.9290 S   0  0  0  0  0  0  0  0  0  0  0  0
   -0.5330   20.5060  -31.7260 C   0  0  0  0  0  0  0  0  0  0  0  0
    0.6140   20.2360  -32.4060 N   0  0  0  0  0  0  0  0  0  0  0  0
    0.6910   20.3210  -33.7590 C   0  0  0  0  0  0  0  0  0  0  0  0
   -0.4230   20.7180  -34.4960 C   0  0  0  0  0  0  0  0  0  0  0  0
   -1.6090   21.0220  -33.8310 C   0  0  0  0  0  0  0  0  0  0  0  0
   -1.6890   20.9110  -32.4330 C   0  0  0  0  0  0  0  0  0  0  0  0
   -2.9470   21.2910  -31.7550 C   0  0  0  0  0  0  0  0  0  0  0  0
   -3.8030   20.4000  -31.4990 O   0  0  0  0  0  0  0  0  0  0  0  0
   -3.1690   22.6420  -31.3210 N   0  0  0  0  0  0  0  0  0  0  0  0
   -4.4760   23.1930  -31.0810 C   0  0  0  0  0  0  0  0  0  0  0  0
   -5.6360   22.4410  -31.3410 C   0  0  0  0  0  0  0  0  0  0  0  0
   -6.9070   22.9860  -31.1140 C   0  0  0  0  0  0  0  0  0  0  0  0
   -8.3570   22.0270  -31.4350 S   0  0  0  0  0  0  0  0  0  0  0  0
   -9.0470   21.7320  -30.1320 O   0  0  0  0  0  0  0  0  0  0  0  0
   -9.2980   22.8320  -32.2860 O   0  0  0  0  0  0  0  0  0  0  0  0
   -8.0050   20.5190  -32.2450 N   0  0  0  0  0  0  0  0  0  0  0  0
   -6.8850   19.8110  -31.6280 C   0  0  0  0  0  0  0  0  0  0  0  0
   -7.0740   18.3400  -31.9590 C   0  0  0  0  0  0  0  0  0  0  0  0
   -8.5450   18.1940  -32.3210 C   0  0  0  0  0  0  0  0  0  0  0  0
   -9.1330   19.5900  -32.1910 C   0  0  0  0  0  0  0  0  0  0  0  0
   -7.0200   24.3050  -30.6540 C   0  0  0  0  0  0  0  0  0  0  0  0
   -5.8740   25.0670  -30.4170 C   0  0  0  0  0  0  0  0  0  0  0  0
   -4.6070   24.5190  -30.6300 C   0  0  0  0  0  0  0  0  0  0  0  0
   -3.4790   25.2950  -30.3840 O   0  0  0  0  0  0  0  0  0  0  0  0
   -0.5077   22.4756  -28.6409 H   0  0  0  0  0  0  0  0  0  0  0  0
    0.3884   22.6692  -30.1856 H   0  0  0  0  0  0  0  0  0  0  0  0
   -1.4078   22.6494  -30.1856 H   0  0  0  0  0  0  0  0  0  0  0  0
    1.6323   20.0766  -34.2730 H   0  0  0  0  0  0  0  0  0  0  0  0
   -0.3666   20.7907  -35.5921 H   0  0  0  0  0  0  0  0  0  0  0  0
   -2.4882   21.3510  -34.4044 H   0  0  0  0  0  0  0  0  0  0  0  0
   -2.3320   23.2180  -31.0880 H   0  0  0  0  0  0  0  0  0  0  0  0
   -5.5446   21.4148  -31.7264 H   0  0  0  0  0  0  0  0  0  0  0  0
   -5.9318   20.1743  -32.0396 H   0  0  0  0  0  0  0  0  0  0  0  0
   -6.8591   19.9754  -30.5407 H   0  0  0  0  0  0  0  0  0  0  0  0
   -6.4379   18.0518  -32.8089 H   0  0  0  0  0  0  0  0  0  0  0  0
   -6.7934   17.6913  -31.1161 H   0  0  0  0  0  0  0  0  0  0  0  0
   -8.6530   17.8253  -33.3517 H   0  0  0  0  0  0  0  0  0  0  0  0
   -9.0573   17.4718  -31.6683 H   0  0  0  0  0  0  0  0  0  0  0  0
   -9.8293   19.7883  -33.0192 H   0  0  0  0  0  0  0  0  0  0  0  0
   -9.6961   19.7001  -31.2525 H   0  0  0  0  0  0  0  0  0  0  0  0
   -8.0145   24.7414  -30.4791 H   0  0  0  0  0  0  0  0  0  0  0  0
   -5.9695   26.1034  -30.0610 H   0  0  0  0  0  0  0  0  0  0  0  0
  1  2  1  0
  2  3  1  0
  3  4  2  0
  4  5  1  0
  5  6  2  0
  6  7  1  0
  7  8  2  0
  8  9  1  0
  9 10  2  0
  9 11  1  0
 11 12  1  0
 12 13  2  0
 13 14  1  0
 14 15  1  0
 15 16  2  0
 15 17  2  0
 15 18  1  0
 18 19  1  0
 19 20  1  0
 20 21  1  0
 21 22  1  0
 14 23  2  0
 23 24  1  0
 24 25  2  0
 25 26  1  0
  8  3  1  0
 25 12  1  0
 22 18  1  0
  1 27  1  0
  1 28  1  0
  1 29  1  0
  5 30  1  0
  6 31  1  0
  7 32  1  0
 11 33  1  0
 13 34  1  0
 19 35  1  0
 19 36  1  0
 20 37  1  0
 20 38  1  0
 21 39  1  0
 21 40  1  0
 22 41  1  0
 22 42  1  0
 23 43  1  0
 24 44  1  0
M  CHG  1  26  -1
M  END
>  <UniqueID>  (10) 
10

>  <SMILES>  (10) 
CSc1ncccc1C(=O)Nc1cc(S(=O)(=O)N2CCCC2)ccc1[O-]

>  <Energy>  (10) 
52.78577557208952

>  <Genealogy>  (10) 
CSc1ncccc1C(=O)Nc1cc(S(=O)(=O)N2CCCC2)ccc1[O-] (protonated)
CSc1ncccc1C(=O)Nc1cc(S(=O)(=O)N2CCCC2)ccc1[O-] (3D coordinates assigned)
CSc1ncccc1C(=O)Nc1cc(S(=O)(=O)N2CCCC2)ccc1[O-] (nonaromatic ring conformer: 52.78577557208952 kcal/mol)

>  <smiles>  (10) 
CSc1ncccc1C(=O)Nc1cc(S(=O)(=O)N2CCCC2)ccc1O

>  <score_type>  (10) 
oracle

>  <origin>  (10) 
adgpu

>  <m_score__min__energy>  (10) 
-11.81

>  <m_primary>  (10) 
energy

$$$$
10:0
     RDKit          3D

 61 65  0  0  0  0  0  0  0  0999 V2000
   -4.5170   15.7920  -33.6480 C   0  0  0  0  0  0  0  0  0  0  0  0
   -5.4930   16.3570  -34.5960 N   0  0  0  0  0  0  0  0  0  0  0  0
   -6.8770   16.2580  -34.0870 C   0  0  0  0  0  0  0  0  0  0  0  0
   -7.1440   17.2160  -32.9120 C   0  0  0  0  0  0  0  0  0  0  0  0
   -6.5080   18.6100  -33.1360 C   0  0  0  0  0  0  0  0  0  0  0  0
   -7.3670   19.7570  -32.5990 C   0  0  0  0  0  0  0  0  0  0  0  0
   -8.7640   19.6210  -32.7120 C   0  0  0  0  0  0  0  0  0  0  0  0
   -9.6140   20.6280  -32.2640 C   0  0  0  0  0  0  0  0  0  0  0  0
   -9.1040   21.7560  -31.7150 N   0  0  0  0  0  0  0  0  0  0  0  0
   -7.7680   21.9440  -31.5710 C   0  0  0  0  0  0  0  0  0  0  0  0
   -7.3090   23.1460  -31.0190 C   0  0  0  0  0  0  0  0  0  0  0  0
   -5.9400   23.3830  -30.8800 C   0  0  0  0  0  0  0  0  0  0  0  0
   -5.3510   24.9550  -30.3410 S   0  0  0  0  0  0  0  0  0  0  0  0
   -5.8390   25.2050  -28.9410 O   0  0  0  0  0  0  0  0  0  0  0  0
   -5.8970   26.0280  -31.2410 O   0  0  0  0  0  0  0  0  0  0  0  0
   -3.6150   25.0270  -30.3620 N   0  0  0  0  0  0  0  0  0  0  0  0
   -2.7800   24.2470  -29.4990 C   0  0  0  0  0  0  0  0  0  0  0  0
   -3.1160   22.9260  -29.1680 C   0  0  0  0  0  0  0  0  0  0  0  0
   -2.3350   22.1970  -28.2590 C   0  0  0  0  0  0  0  0  0  0  0  0
   -1.1550   22.7690  -27.7420 C   0  0  0  0  0  0  0  0  0  0  0  0
   -0.7980   24.0750  -28.1120 C   0  0  0  0  0  0  0  0  0  0  0  0
   -1.6030   24.8080  -28.9890 C   0  0  0  0  0  0  0  0  0  0  0  0
   -1.2360   26.1040  -29.3360 O   0  0  0  0  0  0  0  0  0  0  0  0
   -0.3240   22.0410  -26.7110 C   0  0  0  0  0  0  0  0  0  0  0  0
   -0.5420   20.5800  -26.7150 N   0  0  0  0  0  0  0  0  0  0  0  0
    0.1800   19.9160  -27.8150 C   0  0  0  0  0  0  0  0  0  0  0  0
   -1.9800   20.2470  -26.6910 C   0  0  0  0  0  0  0  0  0  0  0  0
   -2.7270   20.7810  -27.9240 C   0  0  0  0  0  0  0  0  0  0  0  0
   -5.0270   22.3960  -31.2620 C   0  0  0  0  0  0  0  0  0  0  0  0
   -5.4710   21.1950  -31.8180 C   0  0  0  0  0  0  0  0  0  0  0  0
   -6.8500   20.9460  -31.9970 C   0  0  0  0  0  0  0  0  0  0  0  0
   -6.0560   18.8420  -34.5880 C   0  0  0  0  0  0  0  0  0  0  0  0
   -5.1070   17.7190  -35.0560 C   0  0  0  0  0  0  0  0  0  0  0  0
   -4.8516   15.9857  -32.6182 H   0  0  0  0  0  0  0  0  0  0  0  0
   -4.4353   14.7069  -33.8090 H   0  0  0  0  0  0  0  0  0  0  0  0
   -3.5353   16.2615  -33.8090 H   0  0  0  0  0  0  0  0  0  0  0  0
   -7.5716   16.5008  -34.9047 H   0  0  0  0  0  0  0  0  0  0  0  0
   -7.0254   15.2314  -33.7210 H   0  0  0  0  0  0  0  0  0  0  0  0
   -8.2309   17.3376  -32.7943 H   0  0  0  0  0  0  0  0  0  0  0  0
   -6.6895   16.7789  -32.0107 H   0  0  0  0  0  0  0  0  0  0  0  0
   -5.5904   18.6098  -32.5294 H   0  0  0  0  0  0  0  0  0  0  0  0
   -9.1879   18.7096  -33.1589 H   0  0  0  0  0  0  0  0  0  0  0  0
  -10.7035   20.5072  -32.3562 H   0  0  0  0  0  0  0  0  0  0  0  0
   -8.0315   23.9086  -30.6927 H   0  0  0  0  0  0  0  0  0  0  0  0
   -3.9999   22.4575  -29.6254 H   0  0  0  0  0  0  0  0  0  0  0  0
    0.1214   24.5249  -27.7092 H   0  0  0  0  0  0  0  0  0  0  0  0
    0.7387   22.2366  -26.9168 H   0  0  0  0  0  0  0  0  0  0  0  0
   -0.6285   22.4145  -25.7222 H   0  0  0  0  0  0  0  0  0  0  0  0
    0.9294   19.2268  -27.3984 H   0  0  0  0  0  0  0  0  0  0  0  0
   -0.5332   19.3517  -28.4338 H   0  0  0  0  0  0  0  0  0  0  0  0
    0.6827   20.6739  -28.4338 H   0  0  0  0  0  0  0  0  0  0  0  0
   -2.0885   19.1528  -26.6589 H   0  0  0  0  0  0  0  0  0  0  0  0
   -2.4191   20.7224  -25.8015 H   0  0  0  0  0  0  0  0  0  0  0  0
   -2.4956   20.1365  -28.7848 H   0  0  0  0  0  0  0  0  0  0  0  0
   -3.8030   20.7739  -27.6958 H   0  0  0  0  0  0  0  0  0  0  0  0
   -3.9493   22.5671  -31.1233 H   0  0  0  0  0  0  0  0  0  0  0  0
   -4.7378   20.4328  -32.1206 H   0  0  0  0  0  0  0  0  0  0  0  0
   -6.9405   18.8616  -35.2416 H   0  0  0  0  0  0  0  0  0  0  0  0
   -5.5184   19.8003  -34.6396 H   0  0  0  0  0  0  0  0  0  0  0  0
   -5.0901   17.7188  -36.1559 H   0  0  0  0  0  0  0  0  0  0  0  0
   -4.1236   17.9335  -34.6123 H   0  0  0  0  0  0  0  0  0  0  0  0
  1  2  1  0
  2  3  1  0
  3  4  1  0
  4  5  1  0
  5  6  1  0
  6  7  2  0
  7  8  1  0
  8  9  2  0
  9 10  1  0
 10 11  2  0
 11 12  1  0
 12 13  1  0
 13 14  2  0
 13 15  2  0
 13 16  1  0
 16 17  1  0
 17 18  2  0
 18 19  1  0
 19 20  2  0
 20 21  1  0
 21 22  2  0
 22 23  1  0
 20 24  1  0
 24 25  1  0
 25 26  1  0
 25 27  1  0
 27 28  1  0
 12 29  2  0
 29 30  1  0
 30 31  2  0
  5 32  1  0
 32 33  1  0
 33  2  1  0
 31  6  1  0
 31 10  1  0
 22 17  1  0
 28 19  1  0
  1 34  1  0
  1 35  1  0
  1 36  1  0
  3 37  1  0
  3 38  1  0
  4 39  1  0
  4 40  1  0
  5 41  1  0
  7 42  1  0
  8 43  1  0
 11 44  1  0
 18 45  1  0
 21 46  1  0
 24 47  1  0
 24 48  1  0
 26 49  1  0
 26 50  1  0
 26 51  1  0
 27 52  1  0
 27 53  1  0
 28 54  1  0
 28 55  1  0
 29 56  1  0
 30 57  1  0
 32 58  1  0
 32 59  1  0
 33 60  1  0
 33 61  1  0
M  CHG  2  16  -1  23  -1
M  END
>  <UniqueID>  (11) 
11

>  <SMILES>  (11) 
CN1CCC(c2ccnc3cc(S(=O)(=O)[N-]c4cc5c(cc4[O-])CN(C)CC5)ccc23)CC1

>  <Energy>  (11) 
95.01581528892353

>  <Genealogy>  (11) 
CN1CCC(c2ccnc3cc(S(=O)(=O)[N-]c4cc5c(cc4[O-])CN(C)CC5)ccc23)CC1 (protonated)
CN1CCC(c2ccnc3cc(S(=O)(=O)[N-]c4cc5c(cc4[O-])CN(C)CC5)ccc23)CC1 (3D coordinates assigned)
CN1CCC(c2ccnc3cc(S(=O)(=O)[N-]c4cc5c(cc4[O-])CN(C)CC5)ccc23)CC1 (nonaromatic ring conformer: 95.01581528892353 kcal/mol)

>  <smiles>  (11) 
CN1CCC(c2ccnc3cc(S(=O)(=O)Nc4cc5c(cc4O)CN(C)CC5)ccc23)CC1

>  <score_type>  (11) 
oracle

>  <origin>  (11) 
adgpu

>  <m_score__min__energy>  (11) 
-17.129999999999999

>  <m_primary>  (11) 
energy

$$$$
11:0
     RDKit          3D

 54 57  0  0  0  0  0  0  0  0999 V2000
   -1.6520   20.2960  -27.4460 C   0  0  0  0  0  0  0  0  0  0  0  0
   -1.7150   21.7110  -27.9340 C   0  0  0  0  0  0  0  0  0  0  0  0
   -0.5420   22.4180  -28.2390 C   0  0  0  0  0  0  0  0  0  0  0  0
   -0.6170   23.7280  -28.7140 C   0  0  0  0  0  0  0  0  0  0  0  0
   -1.8570   24.3480  -28.8890 C   0  0  0  0  0  0  0  0  0  0  0  0
   -1.8980   25.6670  -29.3310 O   0  0  0  0  0  0  0  0  0  0  0  0
   -3.0450   23.6490  -28.5980 C   0  0  0  0  0  0  0  0  0  0  0  0
   -4.3730   24.2790  -28.8090 C   0  0  0  0  0  0  0  0  0  0  0  0
   -4.9000   24.9360  -27.8740 O   0  0  0  0  0  0  0  0  0  0  0  0
   -5.0430   24.2280  -30.0760 N   0  0  0  0  0  0  0  0  0  0  0  0
   -5.7240   23.0880  -30.6170 C   0  0  0  0  0  0  0  0  0  0  0  0
   -7.0250   22.8050  -30.1850 C   0  0  0  0  0  0  0  0  0  0  0  0
   -7.7270   21.7200  -30.7200 C   0  0  0  0  0  0  0  0  0  0  0  0
   -7.1250   20.8970  -31.6820 C   0  0  0  0  0  0  0  0  0  0  0  0
   -8.0130   19.5500  -32.3880 S   0  0  0  0  0  0  0  0  0  0  0  0
   -8.8270   18.8800  -31.3160 O   0  0  0  0  0  0  0  0  0  0  0  0
   -8.9390   20.0450  -33.4660 O   0  0  0  0  0  0  0  0  0  0  0  0
   -6.8730   18.4180  -33.1090 C   0  0  0  0  0  0  0  0  0  0  0  0
   -6.7210   17.1440  -32.5550 C   0  0  0  0  0  0  0  0  0  0  0  0
   -5.8410   16.2230  -33.1270 C   0  0  0  0  0  0  0  0  0  0  0  0
   -5.0810   16.5540  -34.2750 C   0  0  0  0  0  0  0  0  0  0  0  0
   -4.1530   15.5950  -34.8730 N   0  0  0  0  0  0  0  0  0  0  0  0
   -4.4310   14.1480  -34.7550 C   0  0  0  0  0  0  0  0  0  0  0  0
   -3.3320   13.2620  -35.3480 C   0  0  0  0  0  0  0  0  0  0  0  0
   -2.8160   13.8220  -36.5320 O   0  0  0  0  0  0  0  0  0  0  0  0
   -2.0990   14.9850  -36.1950 C   0  0  0  0  0  0  0  0  0  0  0  0
   -3.0430   16.0910  -35.7140 C   0  0  0  0  0  0  0  0  0  0  0  0
   -5.2590   17.8460  -34.8260 C   0  0  0  0  0  0  0  0  0  0  0  0
   -6.1430   18.7620  -34.2490 C   0  0  0  0  0  0  0  0  0  0  0  0
   -5.8090   21.1540  -32.0850 C   0  0  0  0  0  0  0  0  0  0  0  0
   -5.1060   22.2370  -31.5510 C   0  0  0  0  0  0  0  0  0  0  0  0
   -2.9610   22.3250  -28.1280 C   0  0  0  0  0  0  0  0  0  0  0  0
   -1.6516   20.2872  -26.3460 H   0  0  0  0  0  0  0  0  0  0  0  0
   -2.5263   19.7410  -27.8168 H   0  0  0  0  0  0  0  0  0  0  0  0
   -0.7318   19.8209  -27.8168 H   0  0  0  0  0  0  0  0  0  0  0  0
    0.4387   21.9386  -28.1034 H   0  0  0  0  0  0  0  0  0  0  0  0
    0.3063   24.2763  -28.9523 H   0  0  0  0  0  0  0  0  0  0  0  0
   -7.4978   23.4393  -29.4207 H   0  0  0  0  0  0  0  0  0  0  0  0
   -8.7539   21.5120  -30.3851 H   0  0  0  0  0  0  0  0  0  0  0  0
   -7.2989   16.8647  -31.6617 H   0  0  0  0  0  0  0  0  0  0  0  0
   -5.7365   15.2241  -32.6785 H   0  0  0  0  0  0  0  0  0  0  0  0
   -4.5395   13.9006  -33.6887 H   0  0  0  0  0  0  0  0  0  0  0  0
   -5.3495   13.9485  -35.3265 H   0  0  0  0  0  0  0  0  0  0  0  0
   -2.5186   13.1587  -34.6148 H   0  0  0  0  0  0  0  0  0  0  0  0
   -3.7646   12.2788  -35.5851 H   0  0  0  0  0  0  0  0  0  0  0  0
   -1.3847   14.7476  -35.3929 H   0  0  0  0  0  0  0  0  0  0  0  0
   -1.5683   15.3416  -37.0901 H   0  0  0  0  0  0  0  0  0  0  0  0
   -2.4594   16.8162  -35.1279 H   0  0  0  0  0  0  0  0  0  0  0  0
   -3.4933   16.5439  -36.6096 H   0  0  0  0  0  0  0  0  0  0  0  0
   -4.6919   18.1338  -35.7235 H   0  0  0  0  0  0  0  0  0  0  0  0
   -6.2646   19.7600  -34.6954 H   0  0  0  0  0  0  0  0  0  0  0  0
   -5.3260   20.4999  -32.8259 H   0  0  0  0  0  0  0  0  0  0  0  0
   -4.0675   22.4244  -31.8615 H   0  0  0  0  0  0  0  0  0  0  0  0
   -3.8828   21.7656  -27.9104 H   0  0  0  0  0  0  0  0  0  0  0  0
  1  2  1  0
  2  3  2  0
  3  4  1  0
  4  5  2  0
  5  6  1  0
  5  7  1  0
  7  8  1  0
  8  9  2  0
  8 10  1  0
 10 11  1  0
 11 12  2  0
 12 13  1  0
 13 14  2  0
 14 15  1  0
 15 16  2  0
 15 17  2  0
 15 18  1  0
 18 19  2  0
 19 20  1  0
 20 21  2  0
 21 22  1  0
 22 23  1  0
 23 24  1  0
 24 25  1  0
 25 26  1  0
 26 27  1  0
 21 28  1  0
 28 29  2  0
 14 30  1  0
 30 31  2  0
  7 32  2  0
 32  2  1  0
 31 11  1  0
 29 18  1  0
 27 22  1  0
  1 33  1  0
  1 34  1  0
  1 35  1  0
  3 36  1  0
  4 37  1  0
 12 38  1  0
 13 39  1  0
 19 40  1  0
 20 41  1  0
 23 42  1  0
 23 43  1  0
 24 44  1  0
 24 45  1  0
 26 46  1  0
 26 47  1  0
 27 48  1  0
 27 49  1  0
 28 50  1  0
 29 51  1  0
 30 52  1  0
 31 53  1  0
 32 54  1  0
M  CHG  2   6  -1  10  -1
M  END
>  <UniqueID>  (12) 
12

>  <SMILES>  (12) 
Cc1ccc([O-])c(C(=O)[N-]c2ccc(S(=O)(=O)c3ccc(N4CCOCC4)cc3)cc2)c1

>  <Energy>  (12) 
74.09005181928164

>  <Genealogy>  (12) 
Cc1ccc([O-])c(C(=O)[N-]c2ccc(S(=O)(=O)c3ccc(N4CCOCC4)cc3)cc2)c1 (protonated)
Cc1ccc([O-])c(C(=O)[N-]c2ccc(S(=O)(=O)c3ccc(N4CCOCC4)cc3)cc2)c1 (3D coordinates assigned)
Cc1ccc([O-])c(C(=O)[N-]c2ccc(S(=O)(=O)c3ccc(N4CCOCC4)cc3)cc2)c1 (nonaromatic ring conformer: 74.09005181928164 kcal/mol)

>  <smiles>  (12) 
Cc1ccc(O)c(C(=O)Nc2ccc(S(=O)(=O)c3ccc(N4CCOCC4)cc3)cc2)c1

>  <score_type>  (12) 
oracle

>  <origin>  (12) 
adgpu

>  <m_score__min__energy>  (12) 
-14.199999999999999

>  <m_primary>  (12) 
energy

$$$$
12:0
     RDKit          3D

 71 75  0  0  0  0  0  0  0  0999 V2000
   -3.9470   25.1210  -30.7110 O   0  0  0  0  0  0  0  0  0  0  0  0
   -4.5370   24.2500  -29.6350 S   0  0  0  0  0  0  0  0  0  0  0  0
   -5.3120   25.1410  -28.7050 O   0  0  0  0  0  0  0  0  0  0  0  0
   -5.6540   23.0980  -30.3770 C   0  0  0  0  0  0  0  0  0  0  0  0
   -6.9170   22.8720  -29.8100 C   0  0  0  0  0  0  0  0  0  0  0  0
   -7.8560   22.0730  -30.4730 C   0  0  0  0  0  0  0  0  0  0  0  0
   -7.5420   21.4960  -31.7160 C   0  0  0  0  0  0  0  0  0  0  0  0
   -8.5590   20.8960  -32.5330 N   0  0  0  0  0  0  0  0  0  0  0  0
   -8.6030   19.6710  -32.8940 N   0  0  0  0  0  0  0  0  0  0  0  0
   -7.5510   18.7200  -32.6970 C   0  0  0  0  0  0  0  0  0  0  0  0
   -7.5980   17.8640  -31.5900 C   0  0  0  0  0  0  0  0  0  0  0  0
   -6.5060   17.0540  -31.2810 C   0  0  0  0  0  0  0  0  0  0  0  0
   -5.3680   17.0770  -32.0890 C   0  0  0  0  0  0  0  0  0  0  0  0
   -5.3170   17.8950  -33.2280 C   0  0  0  0  0  0  0  0  0  0  0  0
   -3.9000   17.7980  -34.2890 S   0  0  0  0  0  0  0  0  0  0  0  0
   -4.3700   17.6200  -35.7060 O   0  0  0  0  0  0  0  0  0  0  0  0
   -3.0610   16.6020  -33.9360 O   0  0  0  0  0  0  0  0  0  0  0  0
   -2.9020   19.2310  -34.1620 N   0  0  0  0  0  0  0  0  0  0  0  0
   -3.3160   20.0940  -33.0300 C   0  0  0  0  0  0  0  0  0  0  0  0
   -2.1380   20.7960  -32.3590 C   0  0  0  0  0  0  0  0  0  0  0  0
   -1.1830   19.7740  -31.9300 N   0  0  0  0  0  0  0  0  0  0  0  0
   -0.7160   19.7490  -30.5700 C   0  0  0  0  0  0  0  0  0  0  0  0
    0.6290   19.4600  -30.2920 C   0  0  0  0  0  0  0  0  0  0  0  0
    1.0930   19.4670  -28.9750 C   0  0  0  0  0  0  0  0  0  0  0  0
    0.2220   19.7710  -27.9250 C   0  0  0  0  0  0  0  0  0  0  0  0
   -1.1300   20.0540  -28.1820 C   0  0  0  0  0  0  0  0  0  0  0  0
   -2.0670   20.4580  -27.0710 C   0  0  0  0  0  0  0  0  0  0  0  0
   -3.2100   21.0080  -27.6190 F   0  0  0  0  0  0  0  0  0  0  0  0
   -1.4770   21.3890  -26.2340 F   0  0  0  0  0  0  0  0  0  0  0  0
   -2.4170   19.3530  -26.3160 F   0  0  0  0  0  0  0  0  0  0  0  0
   -1.5850   20.0540  -29.5110 C   0  0  0  0  0  0  0  0  0  0  0  0
   -0.7740   18.7340  -32.8830 C   0  0  0  0  0  0  0  0  0  0  0  0
   -1.4540   18.9210  -34.2540 C   0  0  0  0  0  0  0  0  0  0  0  0
   -6.4110   18.7380  -33.5250 C   0  0  0  0  0  0  0  0  0  0  0  0
   -6.3690   19.5720  -34.6430 O   0  0  0  0  0  0  0  0  0  0  0  0
   -6.2730   21.7050  -32.2670 C   0  0  0  0  0  0  0  0  0  0  0  0
   -5.3290   22.4870  -31.5960 C   0  0  0  0  0  0  0  0  0  0  0  0
   -3.2270   23.4840  -28.7620 N   0  0  0  0  0  0  0  0  0  0  0  0
   -2.0410   23.2260  -29.6060 C   0  0  0  0  0  0  0  0  0  0  0  0
   -0.8830   24.1830  -29.3090 C   0  0  0  0  0  0  0  0  0  0  0  0
   -1.3850   25.4540  -28.9660 O   0  0  0  0  0  0  0  0  0  0  0  0
   -1.9920   25.4020  -27.6900 C   0  0  0  0  0  0  0  0  0  0  0  0
   -2.9220   24.1790  -27.4970 C   0  0  0  0  0  0  0  0  0  0  0  0
   -7.1707   23.3246  -28.8401 H   0  0  0  0  0  0  0  0  0  0  0  0
   -8.8426   21.8961  -30.0200 H   0  0  0  0  0  0  0  0  0  0  0  0
   -8.5001   17.8304  -30.9615 H   0  0  0  0  0  0  0  0  0  0  0  0
   -6.5413   16.3964  -30.3999 H   0  0  0  0  0  0  0  0  0  0  0  0
   -4.5033   16.4481  -31.8305 H   0  0  0  0  0  0  0  0  0  0  0  0
   -4.0120   20.8579  -33.4068 H   0  0  0  0  0  0  0  0  0  0  0  0
   -3.7888   19.4471  -32.2763 H   0  0  0  0  0  0  0  0  0  0  0  0
   -1.6561   21.4801  -33.0729 H   0  0  0  0  0  0  0  0  0  0  0  0
   -2.4853   21.3796  -31.4937 H   0  0  0  0  0  0  0  0  0  0  0  0
    1.3206   19.2270  -31.1151 H   0  0  0  0  0  0  0  0  0  0  0  0
    2.1467   19.2327  -28.7633 H   0  0  0  0  0  0  0  0  0  0  0  0
    0.5973   19.7888  -26.8912 H   0  0  0  0  0  0  0  0  0  0  0  0
   -2.6365   20.2963  -29.7245 H   0  0  0  0  0  0  0  0  0  0  0  0
    0.3169   18.7811  -33.0163 H   0  0  0  0  0  0  0  0  0  0  0  0
   -1.0787   17.7576  -32.4783 H   0  0  0  0  0  0  0  0  0  0  0  0
   -0.9542   19.7477  -34.7801 H   0  0  0  0  0  0  0  0  0  0  0  0
   -1.3623   17.9661  -34.7922 H   0  0  0  0  0  0  0  0  0  0  0  0
   -7.1940   20.0230  -35.0180 H   0  0  0  0  0  0  0  0  0  0  0  0
   -6.0165   21.2505  -33.2353 H   0  0  0  0  0  0  0  0  0  0  0  0
   -4.3260   22.6237  -32.0265 H   0  0  0  0  0  0  0  0  0  0  0  0
   -1.7001   22.1955  -29.4278 H   0  0  0  0  0  0  0  0  0  0  0  0
   -2.3392   23.3813  -30.6534 H   0  0  0  0  0  0  0  0  0  0  0  0
   -0.2891   23.7877  -28.4717 H   0  0  0  0  0  0  0  0  0  0  0  0
   -0.2505   24.2738  -30.2044 H   0  0  0  0  0  0  0  0  0  0  0  0
   -1.1990   25.3598  -26.9288 H   0  0  0  0  0  0  0  0  0  0  0  0
   -2.6170   26.3019  -27.5924 H   0  0  0  0  0  0  0  0  0  0  0  0
   -2.4307   23.4686  -26.8159 H   0  0  0  0  0  0  0  0  0  0  0  0
   -3.8730   24.5492  -27.0863 H   0  0  0  0  0  0  0  0  0  0  0  0
  1  2  2  0
  2  3  2  0
  2  4  1  0
  4  5  2  0
  5  6  1  0
  6  7  2  0
  7  8  1  0
  8  9  2  3
  9 10  1  0
 10 11  2  0
 11 12  1  0
 12 13  2  0
 13 14  1  0
 14 15  1  0
 15 16  2  0
 15 17  2  0
 15 18  1  0
 18 19  1  0
 19 20  1  0
 20 21  1  0
 21 22  1  0
 22 23  2  0
 23 24  1  0
 24 25  2  0
 25 26  1  0
 26 27  1  0
 27 28  1  0
 27 29  1  0
 27 30  1  0
 26 31  2  0
 21 32  1  0
 32 33  1  0
 14 34  2  0
 34 35  1  0
  7 36  1  0
 36 37  2  0
  2 38  1  0
 38 39  1  0
 39 40  1  0
 40 41  1  0
 41 42  1  0
 42 43  1  0
 37  4  1  0
 43 38  1  0
 34 10  1  0
 33 18  1  0
 31 22  1  0
  5 44  1  0
  6 45  1  0
 11 46  1  0
 12 47  1  0
 13 48  1  0
 19 49  1  0
 19 50  1  0
 20 51  1  0
 20 52  1  0
 23 53  1  0
 24 54  1  0
 25 55  1  0
 31 56  1  0
 32 57  1  0
 32 58  1  0
 33 59  1  0
 33 60  1  0
 35 61  1  0
 36 62  1  0
 37 63  1  0
 39 64  1  0
 39 65  1  0
 40 66  1  0
 40 67  1  0
 42 68  1  0
 42 69  1  0
 43 70  1  0
 43 71  1  0
M  END
>  <UniqueID>  (13) 
13

>  <SMILES>  (13) 
O=S(=O)(c1ccc(N=Nc2cccc(S(=O)(=O)N3CCN(c4cccc(C(F)(F)F)c4)CC3)c2O)cc1)N1CCOCC1

>  <Energy>  (13) 
107.94164217339872

>  <Genealogy>  (13) 
O=S(=O)(c1ccc(N=Nc2cccc(S(=O)(=O)N3CCN(c4cccc(C(F)(F)F)c4)CC3)c2O)cc1)N1CCOCC1 (3D coordinates assigned)
O=S(=O)(c1ccc(N=Nc2cccc(S(=O)(=O)N3CCN(c4cccc(C(F)(F)F)c4)CC3)c2O)cc1)N1CCOCC1 (nonaromatic ring conformer: 107.94164217339872 kcal/mol)

>  <smiles>  (13) 
O=S(=O)(c1ccc(N=Nc2cccc(S(=O)(=O)N3CCN(c4cccc(C(F)(F)F)c4)CC3)c2O)cc1)N1CCOCC1

>  <score_type>  (13) 
oracle

>  <origin>  (13) 
adgpu

>  <m_score__min__energy>  (13) 
-11.83

>  <m_primary>  (13) 
energy

$$$$
13:0
     RDKit          3D

 41 43  0  0  0  0  0  0  0  0999 V2000
   -0.5570   20.0530  -28.6910 C   0  0  0  0  0  0  0  0  0  0  0  0
   -1.3820   20.5910  -29.8220 C   0  0  0  0  0  0  0  0  0  0  0  0
   -2.7810   20.4830  -29.7910 C   0  0  0  0  0  0  0  0  0  0  0  0
   -3.5450   20.9510  -30.8640 C   0  0  0  0  0  0  0  0  0  0  0  0
   -2.9190   21.5220  -31.9790 C   0  0  0  0  0  0  0  0  0  0  0  0
   -3.9050   22.1250  -33.3500 S   0  0  0  0  0  0  0  0  0  0  0  0
   -5.4280   21.4480  -32.6740 C   0  0  0  0  0  0  0  0  0  0  0  0
   -5.7260   20.1520  -32.9700 N   0  0  0  0  0  0  0  0  0  0  0  0
   -6.8200   19.5270  -32.4670 C   0  0  0  0  0  0  0  0  0  0  0  0
   -7.6800   20.2090  -31.6090 C   0  0  0  0  0  0  0  0  0  0  0  0
   -7.4080   21.5370  -31.2850 C   0  0  0  0  0  0  0  0  0  0  0  0
   -6.2840   22.1890  -31.8220 C   0  0  0  0  0  0  0  0  0  0  0  0
   -6.0400   23.6070  -31.4720 C   0  0  0  0  0  0  0  0  0  0  0  0
   -7.0030   24.3770  -31.2100 O   0  0  0  0  0  0  0  0  0  0  0  0
   -4.6980   24.1030  -31.4070 N   0  0  0  0  0  0  0  0  0  0  0  0
   -4.2270   25.0240  -30.3780 C   0  0  0  0  0  0  0  0  0  0  0  0
   -3.5860   24.2580  -29.2500 C   0  0  0  0  0  0  0  0  0  0  0  0
   -4.2750   23.1970  -28.6360 C   0  0  0  0  0  0  0  0  0  0  0  0
   -3.6990   22.5050  -27.5680 C   0  0  0  0  0  0  0  0  0  0  0  0
   -2.4320   22.8640  -27.1030 C   0  0  0  0  0  0  0  0  0  0  0  0
   -1.7400   23.9190  -27.7030 C   0  0  0  0  0  0  0  0  0  0  0  0
   -2.3130   24.6220  -28.7680 C   0  0  0  0  0  0  0  0  0  0  0  0
   -1.6160   25.6800  -29.3400 O   0  0  0  0  0  0  0  0  0  0  0  0
   -1.5230   21.6080  -32.0230 C   0  0  0  0  0  0  0  0  0  0  0  0
   -0.7560   21.1390  -30.9530 C   0  0  0  0  0  0  0  0  0  0  0  0
   -1.0104   20.3487  -27.7334 H   0  0  0  0  0  0  0  0  0  0  0  0
   -0.5183   18.9555  -28.7550 H   0  0  0  0  0  0  0  0  0  0  0  0
    0.4629   20.4602  -28.7550 H   0  0  0  0  0  0  0  0  0  0  0  0
   -3.2773   20.0291  -28.9205 H   0  0  0  0  0  0  0  0  0  0  0  0
   -4.6416   20.8705  -30.8324 H   0  0  0  0  0  0  0  0  0  0  0  0
   -7.0281   18.4811  -32.7368 H   0  0  0  0  0  0  0  0  0  0  0  0
   -8.5642   19.7048  -31.1918 H   0  0  0  0  0  0  0  0  0  0  0  0
   -8.0788   22.0800  -30.6029 H   0  0  0  0  0  0  0  0  0  0  0  0
   -3.4888   25.7119  -30.8160 H   0  0  0  0  0  0  0  0  0  0  0  0
   -5.0828   25.5928  -29.9856 H   0  0  0  0  0  0  0  0  0  0  0  0
   -5.2731   22.9104  -28.9987 H   0  0  0  0  0  0  0  0  0  0  0  0
   -4.2441   21.6762  -27.0926 H   0  0  0  0  0  0  0  0  0  0  0  0
   -1.9787   22.3159  -26.2639 H   0  0  0  0  0  0  0  0  0  0  0  0
   -0.7410   24.1978  -27.3366 H   0  0  0  0  0  0  0  0  0  0  0  0
   -1.0279   22.0460  -32.9022 H   0  0  0  0  0  0  0  0  0  0  0  0
    0.3415   21.1994  -30.9970 H   0  0  0  0  0  0  0  0  0  0  0  0
  1  2  1  0
  2  3  2  0
  3  4  1  0
  4  5  2  0
  5  6  1  0
  6  7  1  0
  7  8  2  0
  8  9  1  0
  9 10  2  0
 10 11  1  0
 11 12  2  0
 12 13  1  0
 13 14  2  0
 13 15  1  0
 15 16  1  0
 16 17  1  0
 17 18  2  0
 18 19  1  0
 19 20  2  0
 20 21  1  0
 21 22  2  0
 22 23  1  0
  5 24  1  0
 24 25  2  0
 25  2  1  0
 12  7  1  0
 22 17  1  0
  1 26  1  0
  1 27  1  0
  1 28  1  0
  3 29  1  0
  4 30  1  0
  9 31  1  0
 10 32  1  0
 11 33  1  0
 16 34  1  0
 16 35  1  0
 18 36  1  0
 19 37  1  0
 20 38  1  0
 21 39  1  0
 24 40  1  0
 25 41  1  0
M  CHG  2  15  -1  23  -1
M  END
>  <UniqueID>  (14) 
14

>  <SMILES>  (14) 
Cc1ccc(Sc2ncccc2C(=O)[N-]Cc2ccccc2[O-])cc1

>  <Energy>  (14) 
38.87195089298204

>  <Genealogy>  (14) 
Cc1ccc(Sc2ncccc2C(=O)[N-]Cc2ccccc2[O-])cc1 (protonated)
Cc1ccc(Sc2ncccc2C(=O)[N-]Cc2ccccc2[O-])cc1 (3D coordinates assigned)
Cc1ccc(Sc2ncccc2C(=O)[N-]Cc2ccccc2[O-])cc1 (optimized conformer: 38.87195089298204 kcal/mol)

>  <smiles>  (14) 
Cc1ccc(Sc2ncccc2C(=O)NCc2ccccc2O)cc1

>  <score_type>  (14) 
oracle

>  <origin>  (14) 
adgpu

>  <m_score__min__energy>  (14) 
-12.210000000000001

>  <m_primary>  (14) 
energy

$$$$
14:0
     RDKit          3D

 52 55  0  0  0  0  0  0  0  0999 V2000
   -4.1860   24.2510  -27.0520 C   0  0  0  0  0  0  0  0  0  0  0  0
   -2.7450   24.6410  -27.2440 C   0  0  0  0  0  0  0  0  0  0  0  0
   -1.9000   24.6900  -26.1230 C   0  0  0  0  0  0  0  0  0  0  0  0
   -0.5660   25.0980  -26.2500 C   0  0  0  0  0  0  0  0  0  0  0  0
    0.4690   25.2080  -24.8240 S   0  0  0  0  0  0  0  0  0  0  0  0
    1.8700   25.5450  -25.2560 O   0  0  0  0  0  0  0  0  0  0  0  0
    0.5080   23.8720  -24.1360 O   0  0  0  0  0  0  0  0  0  0  0  0
   -0.1010   26.4180  -23.6930 N   0  0  0  0  0  0  0  0  0  0  0  0
    0.9380   27.4130  -23.4080 C   0  0  0  0  0  0  0  0  0  0  0  0
    0.6550   28.6610  -24.2340 C   0  0  0  0  0  0  0  0  0  0  0  0
   -0.7160   28.4550  -24.8440 C   0  0  0  0  0  0  0  0  0  0  0  0
   -1.2400   27.1600  -24.2430 C   0  0  0  0  0  0  0  0  0  0  0  0
   -0.0650   25.4410  -27.5110 C   0  0  0  0  0  0  0  0  0  0  0  0
   -0.8900   25.3790  -28.6340 C   0  0  0  0  0  0  0  0  0  0  0  0
   -2.2190   24.9560  -28.5200 C   0  0  0  0  0  0  0  0  0  0  0  0
   -3.0250   24.9110  -29.7030 N   0  0  0  0  0  0  0  0  0  0  0  0
   -3.9080   23.8350  -30.0310 C   0  0  0  0  0  0  0  0  0  0  0  0
   -3.7310   22.6950  -29.5220 O   0  0  0  0  0  0  0  0  0  0  0  0
   -4.9960   24.0720  -30.9350 N   0  0  0  0  0  0  0  0  0  0  0  0
   -5.8510   23.0410  -31.4560 C   0  0  0  0  0  0  0  0  0  0  0  0
   -7.2640   23.1920  -31.4670 C   0  0  0  0  0  0  0  0  0  0  0  0
   -8.0920   22.1680  -31.9600 C   0  0  0  0  0  0  0  0  0  0  0  0
   -7.4870   21.0050  -32.4300 C   0  0  0  0  0  0  0  0  0  0  0  0
   -6.1200   20.8420  -32.4000 C   0  0  0  0  0  0  0  0  0  0  0  0
   -5.2760   21.8350  -31.9110 C   0  0  0  0  0  0  0  0  0  0  0  0
   -5.8250   19.5120  -32.9190 C   0  0  0  0  0  0  0  0  0  0  0  0
   -4.6770   18.9970  -33.0060 O   0  0  0  0  0  0  0  0  0  0  0  0
   -7.0320   18.8530  -33.3100 N   0  0  0  0  0  0  0  0  0  0  0  0
   -7.2000   17.4160  -33.4790 C   0  0  0  0  0  0  0  0  0  0  0  0
   -8.0660   19.7790  -32.9670 C   0  0  0  0  0  0  0  0  0  0  0  0
   -9.2980   19.5420  -33.0860 O   0  0  0  0  0  0  0  0  0  0  0  0
   -4.4093   24.1906  -25.9766 H   0  0  0  0  0  0  0  0  0  0  0  0
   -4.8355   25.0057  -27.5195 H   0  0  0  0  0  0  0  0  0  0  0  0
   -4.3663   23.2718  -27.5195 H   0  0  0  0  0  0  0  0  0  0  0  0
   -2.2900   24.4049  -25.1348 H   0  0  0  0  0  0  0  0  0  0  0  0
    0.9251   27.6662  -22.3376 H   0  0  0  0  0  0  0  0  0  0  0  0
    1.9275   27.0077  -23.6662 H   0  0  0  0  0  0  0  0  0  0  0  0
    0.6573   29.5536  -23.5911 H   0  0  0  0  0  0  0  0  0  0  0  0
    1.4216   28.8148  -25.0077 H   0  0  0  0  0  0  0  0  0  0  0  0
   -1.3802   29.2936  -24.5880 H   0  0  0  0  0  0  0  0  0  0  0  0
   -0.6699   28.4051  -25.9419 H   0  0  0  0  0  0  0  0  0  0  0  0
   -1.9597   27.3853  -23.4422 H   0  0  0  0  0  0  0  0  0  0  0  0
   -1.7481   26.5612  -25.0132 H   0  0  0  0  0  0  0  0  0  0  0  0
    0.9823   25.7604  -27.6168 H   0  0  0  0  0  0  0  0  0  0  0  0
   -0.4921   25.6654  -29.6187 H   0  0  0  0  0  0  0  0  0  0  0  0
   -5.2380   25.0670  -31.1450 H   0  0  0  0  0  0  0  0  0  0  0  0
   -7.7149   24.1201  -31.0857 H   0  0  0  0  0  0  0  0  0  0  0  0
   -9.1860   22.2822  -31.9740 H   0  0  0  0  0  0  0  0  0  0  0  0
   -4.1869   21.6834  -31.8799 H   0  0  0  0  0  0  0  0  0  0  0  0
   -7.2563   16.9348  -32.4915 H   0  0  0  0  0  0  0  0  0  0  0  0
   -8.1274   17.2183  -34.0366 H   0  0  0  0  0  0  0  0  0  0  0  0
   -6.3432   17.0097  -34.0366 H   0  0  0  0  0  0  0  0  0  0  0  0
  1  2  1  0
  2  3  2  0
  3  4  1  0
  4  5  1  0
  5  6  2  0
  5  7  2  0
  5  8  1  0
  8  9  1  0
  9 10  1  0
 10 11  1  0
 11 12  1  0
  4 13  2  0
 13 14  1  0
 14 15  2  0
 15 16  1  0
 16 17  1  0
 17 18  2  0
 17 19  1  0
 19 20  1  0
 20 21  2  0
 21 22  1  0
 22 23  2  0
 23 24  1  0
 24 25  2  0
 24 26  1  0
 26 27  2  0
 26 28  1  0
 28 29  1  0
 28 30  1  0
 30 31  2  0
 15  2  1  0
 25 20  1  0
 12  8  1  0
 30 23  1  0
  1 32  1  0
  1 33  1  0
  1 34  1  0
  3 35  1  0
  9 36  1  0
  9 37  1  0
 10 38  1  0
 10 39  1  0
 11 40  1  0
 11 41  1  0
 12 42  1  0
 12 43  1  0
 13 44  1  0
 14 45  1  0
 19 46  1  0
 21 47  1  0
 22 48  1  0
 25 49  1  0
 29 50  1  0
 29 51  1  0
 29 52  1  0
M  CHG  1  16  -1
M  END
>  <UniqueID>  (15) 
15

>  <SMILES>  (15) 
Cc1cc(S(=O)(=O)N2CCCC2)ccc1[N-]C(=O)Nc1ccc2c(c1)C(=O)N(C)C2=O

>  <Energy>  (15) 
95.74696526023587

>  <Genealogy>  (15) 
Cc1cc(S(=O)(=O)N2CCCC2)ccc1[N-]C(=O)Nc1ccc2c(c1)C(=O)N(C)C2=O (protonated)
Cc1cc(S(=O)(=O)N2CCCC2)ccc1[N-]C(=O)Nc1ccc2c(c1)C(=O)N(C)C2=O (3D coordinates assigned)
Cc1cc(S(=O)(=O)N2CCCC2)ccc1[N-]C(=O)Nc1ccc2c(c1)C(=O)N(C)C2=O (nonaromatic ring conformer: 95.74696526023587 kcal/mol)

>  <smiles>  (15) 
Cc1cc(S(=O)(=O)N2CCCC2)ccc1NC(=O)Nc1ccc2c(c1)C(=O)N(C)C2=O

>  <score_type>  (15) 
oracle

>  <origin>  (15) 
adgpu

>  <m_score__min__energy>  (15) 
-12.27

>  <m_primary>  (15) 
energy

$$$$
15:0
     RDKit          3D

 60 64  0  0  0  0  0  0  0  0999 V2000
   -2.2250   22.0310  -32.7130 O   0  0  0  0  0  0  0  0  0  0  0  0
   -2.9240   21.4160  -31.8630 C   0  0  0  0  0  0  0  0  0  0  0  0
   -2.3790   21.1250  -30.5680 N   0  0  0  0  0  0  0  0  0  0  0  0
   -1.6650   22.0370  -29.7230 C   0  0  0  0  0  0  0  0  0  0  0  0
   -0.7820   21.5170  -28.7670 C   0  0  0  0  0  0  0  0  0  0  0  0
   -0.0740   22.3730  -27.9170 C   0  0  0  0  0  0  0  0  0  0  0  0
   -0.2580   23.7540  -28.0080 C   0  0  0  0  0  0  0  0  0  0  0  0
   -1.1770   24.2800  -28.9250 C   0  0  0  0  0  0  0  0  0  0  0  0
   -1.8750   23.4280  -29.7860 C   0  0  0  0  0  0  0  0  0  0  0  0
   -1.3890   25.6630  -28.9590 O   0  0  0  0  0  0  0  0  0  0  0  0
   -0.8930   26.5110  -27.9210 C   0  0  0  0  0  0  0  0  0  0  0  0
    0.4890   26.0320  -27.4560 C   0  0  0  0  0  0  0  0  0  0  0  0
    0.4600   24.6290  -27.1870 O   0  0  0  0  0  0  0  0  0  0  0  0
   -4.2940   20.9570  -32.2050 C   0  0  0  0  0  0  0  0  0  0  0  0
   -4.4470   19.7560  -32.9240 C   0  0  0  0  0  0  0  0  0  0  0  0
   -5.7190   19.2600  -33.2340 C   0  0  0  0  0  0  0  0  0  0  0  0
   -5.8700   17.7110  -34.0570 S   0  0  0  0  0  0  0  0  0  0  0  0
   -5.7200   17.9220  -35.5380 O   0  0  0  0  0  0  0  0  0  0  0  0
   -7.2280   17.1160  -33.7920 O   0  0  0  0  0  0  0  0  0  0  0  0
   -4.6160   16.6400  -33.4850 N   0  0  0  0  0  0  0  0  0  0  0  0
   -4.2190   15.6710  -34.5080 C   0  0  0  0  0  0  0  0  0  0  0  0
   -3.6660   14.4680  -33.7630 C   0  0  0  0  0  0  0  0  0  0  0  0
   -4.2830   14.5360  -32.3740 C   0  0  0  0  0  0  0  0  0  0  0  0
   -5.0560   15.8490  -32.3320 C   0  0  0  0  0  0  0  0  0  0  0  0
   -6.8560   19.9650  -32.8310 C   0  0  0  0  0  0  0  0  0  0  0  0
   -6.7250   21.1620  -32.1270 C   0  0  0  0  0  0  0  0  0  0  0  0
   -5.4560   21.6690  -31.8100 C   0  0  0  0  0  0  0  0  0  0  0  0
   -5.3710   22.9100  -31.0960 N   0  0  0  0  0  0  0  0  0  0  0  0
   -4.9160   22.8700  -29.7010 C   0  0  0  0  0  0  0  0  0  0  0  0
   -4.9160   24.2550  -29.0580 C   0  0  0  0  0  0  0  0  0  0  0  0
   -4.5010   25.2300  -29.9890 O   0  0  0  0  0  0  0  0  0  0  0  0
   -5.5220   25.4090  -30.9480 C   0  0  0  0  0  0  0  0  0  0  0  0
   -5.7420   24.1500  -31.7970 C   0  0  0  0  0  0  0  0  0  0  0  0
   -0.6448   20.4287  -28.6846 H   0  0  0  0  0  0  0  0  0  0  0  0
    0.6271   21.9585  -27.1776 H   0  0  0  0  0  0  0  0  0  0  0  0
   -2.5882   23.8442  -30.5127 H   0  0  0  0  0  0  0  0  0  0  0  0
   -0.8113   27.5400  -28.3011 H   0  0  0  0  0  0  0  0  0  0  0  0
   -1.5883   26.4778  -27.0692 H   0  0  0  0  0  0  0  0  0  0  0  0
    1.2284   26.2356  -28.2445 H   0  0  0  0  0  0  0  0  0  0  0  0
    0.7640   26.5684  -26.5358 H   0  0  0  0  0  0  0  0  0  0  0  0
   -3.5546   19.1997  -33.2466 H   0  0  0  0  0  0  0  0  0  0  0  0
   -3.7830   17.2150  -33.2140 H   0  0  0  0  0  0  0  0  0  0  0  0
   -5.0895   15.3774  -35.1129 H   0  0  0  0  0  0  0  0  0  0  0  0
   -3.4706   16.0962  -35.1929 H   0  0  0  0  0  0  0  0  0  0  0  0
   -3.9567   13.5352  -34.2683 H   0  0  0  0  0  0  0  0  0  0  0  0
   -2.5668   14.4802  -33.7240 H   0  0  0  0  0  0  0  0  0  0  0  0
   -4.9619   13.6855  -32.2135 H   0  0  0  0  0  0  0  0  0  0  0  0
   -3.5170   14.4896  -31.5859 H   0  0  0  0  0  0  0  0  0  0  0  0
   -6.1366   15.6539  -32.3975 H   0  0  0  0  0  0  0  0  0  0  0  0
   -4.8675   16.3866  -31.3910 H   0  0  0  0  0  0  0  0  0  0  0  0
   -7.8566   19.5752  -33.0694 H   0  0  0  0  0  0  0  0  0  0  0  0
   -7.6250   21.7135  -31.8175 H   0  0  0  0  0  0  0  0  0  0  0  0
   -5.5863   22.2126  -29.1278 H   0  0  0  0  0  0  0  0  0  0  0  0
   -3.8831   22.4918  -29.6918 H   0  0  0  0  0  0  0  0  0  0  0  0
   -5.9325   24.4938  -28.7120 H   0  0  0  0  0  0  0  0  0  0  0  0
   -4.2177   24.2535  -28.2081 H   0  0  0  0  0  0  0  0  0  0  0  0
   -6.4593   25.6540  -30.4270 H   0  0  0  0  0  0  0  0  0  0  0  0
   -5.2159   26.2231  -31.6215 H   0  0  0  0  0  0  0  0  0  0  0  0
   -6.8061   24.0931  -32.0700 H   0  0  0  0  0  0  0  0  0  0  0  0
   -5.0942   24.2334  -32.6821 H   0  0  0  0  0  0  0  0  0  0  0  0
  1  2  2  0
  2  3  1  0
  3  4  1  0
  4  5  2  0
  5  6  1  0
  6  7  2  0
  7  8  1  0
  8  9  2  0
  8 10  1  0
 10 11  1  0
 11 12  1  0
 12 13  1  0
  2 14  1  0
 14 15  2  0
 15 16  1  0
 16 17  1  0
 17 18  2  0
 17 19  2  0
 17 20  1  0
 20 21  1  0
 21 22  1  0
 22 23  1  0
 23 24  1  0
 16 25  2  0
 25 26  1  0
 26 27  2  0
 27 28  1  0
 28 29  1  0
 29 30  1  0
 30 31  1  0
 31 32  1  0
 32 33  1  0
  9  4  1  0
 27 14  1  0
 33 28  1  0
 13  7  1  0
 24 20  1  0
  5 34  1  0
  6 35  1  0
  9 36  1  0
 11 37  1  0
 11 38  1  0
 12 39  1  0
 12 40  1  0
 15 41  1  0
 20 42  1  0
 21 43  1  0
 21 44  1  0
 22 45  1  0
 22 46  1  0
 23 47  1  0
 23 48  1  0
 24 49  1  0
 24 50  1  0
 25 51  1  0
 26 52  1  0
 29 53  1  0
 29 54  1  0
 30 55  1  0
 30 56  1  0
 32 57  1  0
 32 58  1  0
 33 59  1  0
 33 60  1  0
M  CHG  2   3  -1  20   1
M  END
>  <UniqueID>  (16) 
16

>  <SMILES>  (16) 
O=C([N-]c1ccc2c(c1)OCCO2)c1cc(S(=O)(=O)[NH+]2CCCC2)ccc1N1CCOCC1

>  <Energy>  (16) 
80.47022766770733

>  <Genealogy>  (16) 
O=C([N-]c1ccc2c(c1)OCCO2)c1cc(S(=O)(=O)[NH+]2CCCC2)ccc1N1CCOCC1 (protonated)
O=C([N-]c1ccc2c(c1)OCCO2)c1cc(S(=O)(=O)[NH+]2CCCC2)ccc1N1CCOCC1 (3D coordinates assigned)
O=C([N-]c1ccc2c(c1)OCCO2)c1cc(S(=O)(=O)[NH+]2CCCC2)ccc1N1CCOCC1 (nonaromatic ring conformer: 80.47022766770733 kcal/mol)

>  <smiles>  (16) 
O=C(Nc1ccc2c(c1)OCCO2)c1cc(S(=O)(=O)N2CCCC2)ccc1N1CCOCC1

>  <score_type>  (16) 
oracle

>  <origin>  (16) 
adgpu

>  <m_score__min__energy>  (16) 
-10.27

>  <m_primary>  (16) 
energy

$$$$
16:0
     RDKit          3D

 55 58  0  0  0  0  0  0  0  0999 V2000
   -5.5940   25.2810  -28.7580 O   0  0  0  0  0  0  0  0  0  0  0  0
   -5.3320   25.0560  -30.2210 S   0  0  0  0  0  0  0  0  0  0  0  0
   -5.7770   26.2720  -30.9830 O   0  0  0  0  0  0  0  0  0  0  0  0
   -3.6380   24.7950  -30.4850 N   0  0  0  0  0  0  0  0  0  0  0  0
   -2.8370   24.0460  -29.5560 C   0  0  0  0  0  0  0  0  0  0  0  0
   -3.0470   22.6680  -29.3790 C   0  0  0  0  0  0  0  0  0  0  0  0
   -2.2640   21.9390  -28.4730 C   0  0  0  0  0  0  0  0  0  0  0  0
   -1.2440   22.5850  -27.7570 C   0  0  0  0  0  0  0  0  0  0  0  0
   -1.0300   23.9590  -27.9300 C   0  0  0  0  0  0  0  0  0  0  0  0
   -1.8270   24.6880  -28.8180 C   0  0  0  0  0  0  0  0  0  0  0  0
   -1.5980   26.0510  -28.9770 O   0  0  0  0  0  0  0  0  0  0  0  0
   -0.4050   21.7750  -26.8110 C   0  0  0  0  0  0  0  0  0  0  0  0
   -1.3120   20.8480  -25.9980 C   0  0  0  0  0  0  0  0  0  0  0  0
   -2.2060   19.9450  -26.8820 C   0  0  0  0  0  0  0  0  0  0  0  0
   -2.4420   20.4490  -28.3260 C   0  0  0  0  0  0  0  0  0  0  0  0
   -6.2150   23.6540  -30.8130 C   0  0  0  0  0  0  0  0  0  0  0  0
   -7.2400   23.0780  -30.0500 C   0  0  0  0  0  0  0  0  0  0  0  0
   -7.8510   21.8960  -30.4760 C   0  0  0  0  0  0  0  0  0  0  0  0
   -7.4420   21.2780  -31.6660 C   0  0  0  0  0  0  0  0  0  0  0  0
   -8.1450   19.7350  -32.1550 S   0  0  0  0  0  0  0  0  0  0  0  0
   -8.9080   19.1480  -31.0000 O   0  0  0  0  0  0  0  0  0  0  0  0
   -9.1120   19.9650  -33.2830 O   0  0  0  0  0  0  0  0  0  0  0  0
   -6.9090   18.6060  -32.6680 N   0  0  0  0  0  0  0  0  0  0  0  0
   -6.4220   18.9510  -34.0220 C   0  0  0  0  0  0  0  0  0  0  0  0
   -5.0680   18.3020  -34.3160 C   0  0  0  0  0  0  0  0  0  0  0  0
   -3.9910   18.8160  -33.3470 C   0  0  0  0  0  0  0  0  0  0  0  0
   -4.5650   19.2370  -31.9840 C   0  0  0  0  0  0  0  0  0  0  0  0
   -5.8460   18.4570  -31.6440 C   0  0  0  0  0  0  0  0  0  0  0  0
   -6.4380   21.8730  -32.4430 C   0  0  0  0  0  0  0  0  0  0  0  0
   -5.8240   23.0510  -32.0140 C   0  0  0  0  0  0  0  0  0  0  0  0
   -3.2750   24.9770  -31.4470 H   0  0  0  0  0  0  0  0  0  0  0  0
   -3.8320   22.1572  -29.9559 H   0  0  0  0  0  0  0  0  0  0  0  0
   -0.2330   24.4654  -27.3658 H   0  0  0  0  0  0  0  0  0  0  0  0
    0.3171   21.1738  -27.3829 H   0  0  0  0  0  0  0  0  0  0  0  0
    0.1384   22.4480  -26.1315 H   0  0  0  0  0  0  0  0  0  0  0  0
   -0.6804   20.2053  -25.3671 H   0  0  0  0  0  0  0  0  0  0  0  0
   -1.9795   21.4848  -25.3990 H   0  0  0  0  0  0  0  0  0  0  0  0
   -1.7321   18.9541  -26.9422 H   0  0  0  0  0  0  0  0  0  0  0  0
   -3.1949   19.9355  -26.4004 H   0  0  0  0  0  0  0  0  0  0  0  0
   -1.7278   19.9443  -28.9933 H   0  0  0  0  0  0  0  0  0  0  0  0
   -3.4856   20.2178  -28.5858 H   0  0  0  0  0  0  0  0  0  0  0  0
   -7.5638   23.5573  -29.1144 H   0  0  0  0  0  0  0  0  0  0  0  0
   -8.6564   21.4484  -29.8751 H   0  0  0  0  0  0  0  0  0  0  0  0
   -7.1543   18.6012  -34.7646 H   0  0  0  0  0  0  0  0  0  0  0  0
   -6.2990   20.0428  -34.0755 H   0  0  0  0  0  0  0  0  0  0  0  0
   -5.1601   17.2114  -34.2064 H   0  0  0  0  0  0  0  0  0  0  0  0
   -4.7696   18.5613  -35.3425 H   0  0  0  0  0  0  0  0  0  0  0  0
   -3.2535   18.0160  -33.1854 H   0  0  0  0  0  0  0  0  0  0  0  0
   -3.5347   19.7071  -33.8028 H   0  0  0  0  0  0  0  0  0  0  0  0
   -3.8126   19.0447  -31.2050 H   0  0  0  0  0  0  0  0  0  0  0  0
   -4.8161   20.3069  -32.0320 H   0  0  0  0  0  0  0  0  0  0  0  0
   -5.5928   17.3902  -31.5553 H   0  0  0  0  0  0  0  0  0  0  0  0
   -6.2389   18.8676  -30.7022 H   0  0  0  0  0  0  0  0  0  0  0  0
   -6.1333   21.4103  -33.3933 H   0  0  0  0  0  0  0  0  0  0  0  0
   -5.0294   23.5073  -32.6225 H   0  0  0  0  0  0  0  0  0  0  0  0
  1  2  2  0
  2  3  2  0
  2  4  1  0
  4  5  1  0
  5  6  2  0
  6  7  1  0
  7  8  2  0
  8  9  1  0
  9 10  2  0
 10 11  1  0
  8 12  1  0
 12 13  1  0
 13 14  1  0
 14 15  1  0
  2 16  1  0
 16 17  2  0
 17 18  1  0
 18 19  2  0
 19 20  1  0
 20 21  2  0
 20 22  2  0
 20 23  1  0
 23 24  1  0
 24 25  1  0
 25 26  1  0
 26 27  1  0
 27 28  1  0
 19 29  1  0
 29 30  2  0
 10  5  1  0
 30 16  1  0
 15  7  1  0
 28 23  1  0
  4 31  1  0
  6 32  1  0
  9 33  1  0
 12 34  1  0
 12 35  1  0
 13 36  1  0
 13 37  1  0
 14 38  1  0
 14 39  1  0
 15 40  1  0
 15 41  1  0
 17 42  1  0
 18 43  1  0
 24 44  1  0
 24 45  1  0
 25 46  1  0
 25 47  1  0
 26 48  1  0
 26 49  1  0
 27 50  1  0
 27 51  1  0
 28 52  1  0
 28 53  1  0
 29 54  1  0
 30 55  1  0
M  CHG  1  11  -1
M  END
>  <UniqueID>  (17) 
17

>  <SMILES>  (17) 
O=S(=O)(Nc1cc2c(cc1[O-])CCCC2)c1ccc(S(=O)(=O)N2CCCCC2)cc1

>  <Energy>  (17) 
65.9295587181553

>  <Genealogy>  (17) 
O=S(=O)(Nc1cc2c(cc1[O-])CCCC2)c1ccc(S(=O)(=O)N2CCCCC2)cc1 (protonated)
O=S(=O)(Nc1cc2c(cc1[O-])CCCC2)c1ccc(S(=O)(=O)N2CCCCC2)cc1 (3D coordinates assigned)
O=S(=O)(Nc1cc2c(cc1[O-])CCCC2)c1ccc(S(=O)(=O)N2CCCCC2)cc1 (nonaromatic ring conformer: 65.9295587181553 kcal/mol)

>  <smiles>  (17) 
O=S(=O)(Nc1cc2c(cc1O)CCCC2)c1ccc(S(=O)(=O)N2CCCCC2)cc1

>  <score_type>  (17) 
oracle

>  <origin>  (17) 
adgpu

>  <m_score__min__energy>  (17) 
-15.140000000000001

>  <m_primary>  (17) 
energy

$$$$
17:0
     RDKit          3D

 52 55  0  0  0  0  0  0  0  0999 V2000
   -9.3970   22.7170  -31.9530 O   0  0  0  0  0  0  0  0  0  0  0  0
   -8.1950   21.8480  -31.6970 S   0  0  0  0  0  0  0  0  0  0  0  0
   -8.4500   21.0180  -30.4680 O   0  0  0  0  0  0  0  0  0  0  0  0
   -7.9600   20.7850  -33.0540 N   0  0  0  0  0  0  0  0  0  0  0  0
   -7.2080   19.5650  -32.9990 C   0  0  0  0  0  0  0  0  0  0  0  0
   -6.0950   19.3650  -33.8320 C   0  0  0  0  0  0  0  0  0  0  0  0
   -5.3210   18.2030  -33.7170 C   0  0  0  0  0  0  0  0  0  0  0  0
   -5.6820   17.2120  -32.7950 C   0  0  0  0  0  0  0  0  0  0  0  0
   -6.8230   17.3830  -31.9960 C   0  0  0  0  0  0  0  0  0  0  0  0
   -7.5910   18.5500  -32.0990 C   0  0  0  0  0  0  0  0  0  0  0  0
   -8.7150   18.6900  -31.2830 O   0  0  0  0  0  0  0  0  0  0  0  0
   -4.7980   16.0010  -32.6570 C   0  0  0  0  0  0  0  0  0  0  0  0
   -4.3730   15.4820  -34.0400 C   0  0  0  0  0  0  0  0  0  0  0  0
   -3.9140   16.5870  -35.0320 C   0  0  0  0  0  0  0  0  0  0  0  0
   -4.0500   18.0290  -34.5050 C   0  0  0  0  0  0  0  0  0  0  0  0
   -6.7790   22.8590  -31.4040 C   0  0  0  0  0  0  0  0  0  0  0  0
   -6.9350   24.2400  -31.2300 C   0  0  0  0  0  0  0  0  0  0  0  0
   -5.8320   25.0370  -30.9180 C   0  0  0  0  0  0  0  0  0  0  0  0
   -4.5670   24.4620  -30.7660 C   0  0  0  0  0  0  0  0  0  0  0  0
   -3.4870   25.2800  -30.4530 O   0  0  0  0  0  0  0  0  0  0  0  0
   -4.4010   23.0740  -30.9270 C   0  0  0  0  0  0  0  0  0  0  0  0
   -2.8270   22.2970  -30.7140 S   0  0  0  0  0  0  0  0  0  0  0  0
   -3.0240   20.9850  -30.0030 O   0  0  0  0  0  0  0  0  0  0  0  0
   -1.9290   23.1590  -29.8680 O   0  0  0  0  0  0  0  0  0  0  0  0
   -2.1060   21.9990  -32.2760 N   0  0  0  0  0  0  0  0  0  0  0  0
   -0.8510   21.2580  -32.1510 C   0  0  0  0  0  0  0  0  0  0  0  0
   -0.6610   20.5260  -33.4690 C   0  0  0  0  0  0  0  0  0  0  0  0
   -2.0600   20.3900  -34.0550 C   0  0  0  0  0  0  0  0  0  0  0  0
   -2.9710   21.1630  -33.1100 C   0  0  0  0  0  0  0  0  0  0  0  0
   -5.5090   22.2830  -31.2660 C   0  0  0  0  0  0  0  0  0  0  0  0
   -5.8291   20.1263  -34.5801 H   0  0  0  0  0  0  0  0  0  0  0  0
   -7.1158   16.5964  -31.2850 H   0  0  0  0  0  0  0  0  0  0  0  0
   -9.1740   19.5830  -31.1460 H   0  0  0  0  0  0  0  0  0  0  0  0
   -3.9009   16.2719  -32.0810 H   0  0  0  0  0  0  0  0  0  0  0  0
   -5.3585   15.2097  -32.1378 H   0  0  0  0  0  0  0  0  0  0  0  0
   -3.5395   14.7777  -33.9010 H   0  0  0  0  0  0  0  0  0  0  0  0
   -5.2635   15.0137  -34.4847 H   0  0  0  0  0  0  0  0  0  0  0  0
   -2.8558   16.4102  -35.2747 H   0  0  0  0  0  0  0  0  0  0  0  0
   -4.5790   16.5135  -35.9051 H   0  0  0  0  0  0  0  0  0  0  0  0
   -3.1915   18.2563  -33.8560 H   0  0  0  0  0  0  0  0  0  0  0  0
   -4.0774   18.7133  -35.3658 H   0  0  0  0  0  0  0  0  0  0  0  0
   -7.9292   24.6978  -31.3395 H   0  0  0  0  0  0  0  0  0  0  0  0
   -5.9590   26.1223  -30.7912 H   0  0  0  0  0  0  0  0  0  0  0  0
   -0.0147   21.9505  -31.9748 H   0  0  0  0  0  0  0  0  0  0  0  0
   -0.8803   20.5580  -31.3030 H   0  0  0  0  0  0  0  0  0  0  0  0
   -0.0150   21.1072  -34.1435 H   0  0  0  0  0  0  0  0  0  0  0  0
   -0.1763   19.5483  -33.3303 H   0  0  0  0  0  0  0  0  0  0  0  0
   -2.0977   20.8226  -35.0657 H   0  0  0  0  0  0  0  0  0  0  0  0
   -2.3646   19.3370  -34.1469 H   0  0  0  0  0  0  0  0  0  0  0  0
   -3.6658   21.7928  -33.6850 H   0  0  0  0  0  0  0  0  0  0  0  0
   -3.5710   20.4781  -32.4928 H   0  0  0  0  0  0  0  0  0  0  0  0
   -5.3798   21.2022  -31.4247 H   0  0  0  0  0  0  0  0  0  0  0  0
  1  2  2  0
  2  3  2  0
  2  4  1  0
  4  5  1  0
  5  6  2  0
  6  7  1  0
  7  8  2  0
  8  9  1  0
  9 10  2  0
 10 11  1  0
  8 12  1  0
 12 13  1  0
 13 14  1  0
 14 15  1  0
  2 16  1  0
 16 17  2  0
 17 18  1  0
 18 19  2  0
 19 20  1  0
 19 21  1  0
 21 22  1  0
 22 23  2  0
 22 24  2  0
 22 25  1  0
 25 26  1  0
 26 27  1  0
 27 28  1  0
 28 29  1  0
 21 30  2  0
 10  5  1  0
 30 16  1  0
 15  7  1  0
 29 25  1  0
  6 31  1  0
  9 32  1  0
 11 33  1  0
 12 34  1  0
 12 35  1  0
 13 36  1  0
 13 37  1  0
 14 38  1  0
 14 39  1  0
 15 40  1  0
 15 41  1  0
 17 42  1  0
 18 43  1  0
 26 44  1  0
 26 45  1  0
 27 46  1  0
 27 47  1  0
 28 48  1  0
 28 49  1  0
 29 50  1  0
 29 51  1  0
 30 52  1  0
M  CHG  2   4  -1  20  -1
M  END
>  <UniqueID>  (18) 
18

>  <SMILES>  (18) 
O=S(=O)([N-]c1cc2c(cc1O)CCCC2)c1ccc([O-])c(S(=O)(=O)N2CCCC2)c1

>  <Energy>  (18) 
67.29731666552611

>  <Genealogy>  (18) 
O=S(=O)([N-]c1cc2c(cc1O)CCCC2)c1ccc([O-])c(S(=O)(=O)N2CCCC2)c1 (protonated)
O=S(=O)([N-]c1cc2c(cc1O)CCCC2)c1ccc([O-])c(S(=O)(=O)N2CCCC2)c1 (3D coordinates assigned)
O=S(=O)([N-]c1cc2c(cc1O)CCCC2)c1ccc([O-])c(S(=O)(=O)N2CCCC2)c1 (nonaromatic ring conformer: 67.29731666552611 kcal/mol)

>  <smiles>  (18) 
O=S(=O)(Nc1cc2c(cc1O)CCCC2)c1ccc(O)c(S(=O)(=O)N2CCCC2)c1

>  <score_type>  (18) 
oracle

>  <origin>  (18) 
adgpu

>  <m_score__min__energy>  (18) 
-12.44

>  <m_primary>  (18) 
energy

$$$$
18:0
     RDKit          3D

 57 60  0  0  0  0  0  0  0  0999 V2000
   -9.7375   20.4110  -32.7779 H   0  0  0  0  0  0  0  0  0  0  0  0
   -8.9890   21.0910  -32.3450 C   0  0  0  0  0  0  0  0  0  0  0  0
   -9.2740   22.6660  -31.8200 S   0  0  0  0  0  0  0  0  0  0  0  0
   -7.6840   22.9040  -31.3500 C   0  0  0  0  0  0  0  0  0  0  0  0
   -7.2340   24.0180  -30.8530 N   0  0  0  0  0  0  0  0  0  0  0  0
   -5.8860   24.2480  -30.4180 C   0  0  0  0  0  0  0  0  0  0  0  0
   -5.0230   24.5900  -31.2680 O   0  0  0  0  0  0  0  0  0  0  0  0
   -5.5310   24.1670  -29.0290 N   0  0  0  0  0  0  0  0  0  0  0  0
   -6.2310   24.5100  -28.3310 H   0  0  0  0  0  0  0  0  0  0  0  0
   -4.2650   23.6830  -28.5440 C   0  0  0  0  0  0  0  0  0  0  0  0
   -4.1200   22.3800  -28.0460 C   0  0  0  0  0  0  0  0  0  0  0  0
   -4.9813   21.6957  -28.0420 H   0  0  0  0  0  0  0  0  0  0  0  0
   -2.8880   21.9490  -27.5560 C   0  0  0  0  0  0  0  0  0  0  0  0
   -2.7823   20.9200  -27.1819 H   0  0  0  0  0  0  0  0  0  0  0  0
   -1.7800   22.8120  -27.5340 C   0  0  0  0  0  0  0  0  0  0  0  0
   -0.4650   22.2770  -27.0270 C   0  0  0  0  0  0  0  0  0  0  0  0
   -0.4682   22.2783  -25.9270 H   0  0  0  0  0  0  0  0  0  0  0  0
   -0.3221   21.2492  -27.3920 H   0  0  0  0  0  0  0  0  0  0  0  0
    0.3549   22.9131  -27.3920 H   0  0  0  0  0  0  0  0  0  0  0  0
   -1.9170   24.1400  -28.0200 C   0  0  0  0  0  0  0  0  0  0  0  0
   -0.5320   25.2690  -27.9990 S   0  0  0  0  0  0  0  0  0  0  0  0
   -0.8480   26.4230  -28.9100 O   0  0  0  0  0  0  0  0  0  0  0  0
    0.6730   24.5460  -28.5370 O   0  0  0  0  0  0  0  0  0  0  0  0
   -0.1000   25.9420  -26.4410 N   0  0  0  0  0  0  0  0  0  0  0  0
   -0.2520   27.3950  -26.3810 C   0  0  0  0  0  0  0  0  0  0  0  0
    0.6966   27.8858  -26.6440 H   0  0  0  0  0  0  0  0  0  0  0  0
   -1.0174   27.7407  -27.0914 H   0  0  0  0  0  0  0  0  0  0  0  0
   -0.6400   27.7390  -24.9530 C   0  0  0  0  0  0  0  0  0  0  0  0
    0.2481   28.0288  -24.3722 H   0  0  0  0  0  0  0  0  0  0  0  0
   -1.3393   28.5871  -24.9125 H   0  0  0  0  0  0  0  0  0  0  0  0
   -1.2560   26.4720  -24.3850 C   0  0  0  0  0  0  0  0  0  0  0  0
   -0.8777   26.2853  -23.3691 H   0  0  0  0  0  0  0  0  0  0  0  0
   -2.3509   26.5524  -24.3158 H   0  0  0  0  0  0  0  0  0  0  0  0
   -0.8370   25.3440  -25.3220 C   0  0  0  0  0  0  0  0  0  0  0  0
   -0.1915   24.6326  -24.7862 H   0  0  0  0  0  0  0  0  0  0  0  0
   -1.7203   24.8012  -25.6896 H   0  0  0  0  0  0  0  0  0  0  0  0
   -3.1700   24.5530  -28.5070 C   0  0  0  0  0  0  0  0  0  0  0  0
   -3.2921   25.5850  -28.8675 H   0  0  0  0  0  0  0  0  0  0  0  0
   -6.9220   21.8170  -31.5890 N   0  0  0  0  0  0  0  0  0  0  0  0
   -7.6350   20.7950  -32.1360 C   0  0  0  0  0  0  0  0  0  0  0  0
   -6.9840   19.4990  -32.4680 C   0  0  0  0  0  0  0  0  0  0  0  0
   -7.0320   18.3970  -31.5920 C   0  0  0  0  0  0  0  0  0  0  0  0
   -7.5628   18.4857  -30.6326 H   0  0  0  0  0  0  0  0  0  0  0  0
   -6.4100   17.1900  -31.9320 C   0  0  0  0  0  0  0  0  0  0  0  0
   -6.4507   16.3391  -31.2361 H   0  0  0  0  0  0  0  0  0  0  0  0
   -5.7360   17.0590  -33.1530 C   0  0  0  0  0  0  0  0  0  0  0  0
   -4.9480   15.5440  -33.5820 S   0  0  0  0  0  0  0  0  0  0  0  0
   -5.9530   14.6110  -34.1980 O   0  0  0  0  0  0  0  0  0  0  0  0
   -4.3780   14.8950  -32.3520 O   0  0  0  0  0  0  0  0  0  0  0  0
   -3.6380   15.8640  -34.7430 C   0  0  0  0  0  0  0  0  0  0  0  0
   -2.7107   16.0905  -34.1963 H   0  0  0  0  0  0  0  0  0  0  0  0
   -3.4836   14.9772  -35.3752 H   0  0  0  0  0  0  0  0  0  0  0  0
   -3.9099   16.7221  -35.3752 H   0  0  0  0  0  0  0  0  0  0  0  0
   -5.6750   18.1520  -34.0260 C   0  0  0  0  0  0  0  0  0  0  0  0
   -5.1387   18.0595  -34.9820 H   0  0  0  0  0  0  0  0  0  0  0  0
   -6.2920   19.3600  -33.6890 C   0  0  0  0  0  0  0  0  0  0  0  0
   -6.2373   20.2113  -34.3835 H   0  0  0  0  0  0  0  0  0  0  0  0
  1  2  1  0
  2  3  1  0
  3  4  1  0
  4  5  2  0
  5  6  1  0
  6  7  2  0
  6  8  1  0
  8  9  1  0
  8 10  1  0
 10 11  2  0
 11 12  1  0
 11 13  1  0
 13 14  1  0
 13 15  2  0
 15 16  1  0
 16 17  1  0
 16 18  1  0
 16 19  1  0
 15 20  1  0
 20 21  1  0
 21 22  2  0
 21 23  2  0
 21 24  1  0
 24 25  1  0
 25 26  1  0
 25 27  1  0
 25 28  1  0
 28 29  1  0
 28 30  1  0
 28 31  1  0
 31 32  1  0
 31 33  1  0
 31 34  1  0
 34 35  1  0
 34 36  1  0
 20 37  2  0
 37 38  1  0
  4 39  1  0
 39 40  1  0
 40 41  1  0
 41 42  2  0
 42 43  1  0
 42 44  1  0
 44 45  1  0
 44 46  2  0
 46 47  1  0
 47 48  2  0
 47 49  2  0
 47 50  1  0
 50 51  1  0
 50 52  1  0
 50 53  1  0
 46 54  1  0
 54 55  1  0
 54 56  2  0
 56 57  1  0
 40  2  2  0
 56 41  1  0
 37 10  1  0
 34 24  1  0
M  CHG  1  39  -1
M  END
>  <UniqueID>  (19) 
19

>  <SMILES>  (19) 
Cc1ccc(NC(=O)/N=c2\[n-]c(-c3ccc(S(C)(=O)=O)cc3)cs2)cc1S(=O)(=O)N1CCCC1

>  <Energy>  (19) 
101.5394203753512

>  <Genealogy>  (19) 
Cc1ccc(NC(=O)N=c2[n-]c(-c3ccc(S(C)(=O)=O)cc3)cs2)cc1S(=O)(=O)N1CCCC1 (protonated)
Cc1ccc(NC(=O)/N=c2\[n-]c(-c3ccc(S(C)(=O)=O)cc3)cs2)cc1S(=O)(=O)N1CCCC1 (cis-trans isomerization)
Cc1ccc(NC(=O)/N=c2\[n-]c(-c3ccc(S(C)(=O)=O)cc3)cs2)cc1S(=O)(=O)N1CCCC1 (3D coordinates assigned)
Cc1ccc(NC(=O)/N=c2\[n-]c(-c3ccc(S(C)(=O)=O)cc3)cs2)cc1S(=O)(=O)N1CCCC1 (nonaromatic ring conformer: 101.5394203753512 kcal/mol)

>  <smiles>  (19) 
Cc1ccc(NC(=O)N=c2[nH]c(-c3ccc(S(C)(=O)=O)cc3)cs2)cc1S(=O)(=O)N1CCCC1

>  <score_type>  (19) 
oracle

>  <origin>  (19) 
adgpu

>  <m_score__min__energy>  (19) 
-12.289999999999999

>  <m_primary>  (19) 
energy

$$$$
19:0
     RDKit          3D

 63 66  0  0  0  0  0  0  0  0999 V2000
   -2.4460   19.3290  -33.7520 C   0  0  0  0  0  0  0  0  0  0  0  0
   -1.8500   19.9790  -32.5750 N   0  0  0  0  0  0  0  0  0  0  0  0
   -1.8210   21.4420  -32.7390 C   0  0  0  0  0  0  0  0  0  0  0  0
   -0.5260   19.4160  -32.2200 C   0  0  0  0  0  0  0  0  0  0  0  0
   -0.3520   19.1500  -30.7380 C   0  0  0  0  0  0  0  0  0  0  0  0
    0.1230   17.9040  -30.2920 C   0  0  0  0  0  0  0  0  0  0  0  0
    0.3000   17.6660  -28.9260 C   0  0  0  0  0  0  0  0  0  0  0  0
    0.0100   18.6660  -27.9950 C   0  0  0  0  0  0  0  0  0  0  0  0
   -0.4710   19.9130  -28.4240 C   0  0  0  0  0  0  0  0  0  0  0  0
   -0.8260   20.9800  -27.4240 C   0  0  0  0  0  0  0  0  0  0  0  0
    0.1260   22.0830  -27.5090 N   0  0  0  0  0  0  0  0  0  0  0  0
   -0.0910   23.3130  -28.2140 C   0  0  0  0  0  0  0  0  0  0  0  0
    0.8170   24.1840  -28.2050 O   0  0  0  0  0  0  0  0  0  0  0  0
   -1.3490   23.5960  -28.9270 C   0  0  0  0  0  0  0  0  0  0  0  0
   -2.3470   22.6890  -29.2500 C   0  0  0  0  0  0  0  0  0  0  0  0
   -3.3750   23.3260  -29.8570 N   0  0  0  0  0  0  0  0  0  0  0  0
   -4.5910   22.7110  -30.3260 C   0  0  0  0  0  0  0  0  0  0  0  0
   -4.5990   21.3590  -30.7130 C   0  0  0  0  0  0  0  0  0  0  0  0
   -5.7710   20.7630  -31.1850 C   0  0  0  0  0  0  0  0  0  0  0  0
   -6.9550   21.5060  -31.2750 C   0  0  0  0  0  0  0  0  0  0  0  0
   -8.4380   20.7460  -31.8570 S   0  0  0  0  0  0  0  0  0  0  0  0
   -9.3990   21.8160  -32.2970 O   0  0  0  0  0  0  0  0  0  0  0  0
   -9.0800   19.9860  -30.7300 O   0  0  0  0  0  0  0  0  0  0  0  0
   -8.1360   19.6480  -33.1890 N   0  0  0  0  0  0  0  0  0  0  0  0
   -8.0520   18.2620  -32.7190 C   0  0  0  0  0  0  0  0  0  0  0  0
   -6.5850   17.9060  -32.5460 C   0  0  0  0  0  0  0  0  0  0  0  0
   -5.8170   18.9430  -33.3410 C   0  0  0  0  0  0  0  0  0  0  0  0
   -6.8540   19.9400  -33.8410 C   0  0  0  0  0  0  0  0  0  0  0  0
   -6.9510   22.8570  -30.9010 C   0  0  0  0  0  0  0  0  0  0  0  0
   -5.7790   23.4550  -30.4320 C   0  0  0  0  0  0  0  0  0  0  0  0
   -3.0470   24.6360  -29.8960 C   0  0  0  0  0  0  0  0  0  0  0  0
   -3.8650   25.6420  -30.4000 O   0  0  0  0  0  0  0  0  0  0  0  0
   -1.8110   24.8340  -29.3260 C   0  0  0  0  0  0  0  0  0  0  0  0
   -1.1500   26.0500  -29.1750 O   0  0  0  0  0  0  0  0  0  0  0  0
   -0.6650   20.1440  -29.7950 C   0  0  0  0  0  0  0  0  0  0  0  0
   -3.1555   18.5552  -33.4236 H   0  0  0  0  0  0  0  0  0  0  0  0
   -2.9761   20.0798  -34.3564 H   0  0  0  0  0  0  0  0  0  0  0  0
   -1.6521   18.8658  -34.3564 H   0  0  0  0  0  0  0  0  0  0  0  0
   -1.8115   21.9218  -31.7492 H   0  0  0  0  0  0  0  0  0  0  0  0
   -0.9170   21.7308  -33.2952 H   0  0  0  0  0  0  0  0  0  0  0  0
   -2.7129   21.7664  -33.2952 H   0  0  0  0  0  0  0  0  0  0  0  0
   -0.3966   18.4666  -32.7603 H   0  0  0  0  0  0  0  0  0  0  0  0
    0.2273   20.1666  -32.5015 H   0  0  0  0  0  0  0  0  0  0  0  0
    0.3562   17.1136  -31.0207 H   0  0  0  0  0  0  0  0  0  0  0  0
    0.6689   16.6880  -28.5832 H   0  0  0  0  0  0  0  0  0  0  0  0
    0.1591   18.4757  -26.9219 H   0  0  0  0  0  0  0  0  0  0  0  0
   -1.8379   21.3555  -27.6362 H   0  0  0  0  0  0  0  0  0  0  0  0
   -0.7909   20.5510  -26.4117 H   0  0  0  0  0  0  0  0  0  0  0  0
   -2.3086   21.6093  -29.0430 H   0  0  0  0  0  0  0  0  0  0  0  0
   -3.6751   20.7661  -30.6435 H   0  0  0  0  0  0  0  0  0  0  0  0
   -5.7640   19.7054  -31.4874 H   0  0  0  0  0  0  0  0  0  0  0  0
   -8.5749   18.1632  -31.7563 H   0  0  0  0  0  0  0  0  0  0  0  0
   -8.5233   17.5853  -33.4470 H   0  0  0  0  0  0  0  0  0  0  0  0
   -6.3020   17.9496  -31.4839 H   0  0  0  0  0  0  0  0  0  0  0  0
   -6.3702   16.8850  -32.8946 H   0  0  0  0  0  0  0  0  0  0  0  0
   -5.0797   19.4476  -32.6994 H   0  0  0  0  0  0  0  0  0  0  0  0
   -5.2642   18.4843  -34.1740 H   0  0  0  0  0  0  0  0  0  0  0  0
   -6.5355   20.9628  -33.5911 H   0  0  0  0  0  0  0  0  0  0  0  0
   -6.9598   19.8568  -34.9327 H   0  0  0  0  0  0  0  0  0  0  0  0
   -7.8750   23.4489  -30.9772 H   0  0  0  0  0  0  0  0  0  0  0  0
   -5.7857   24.5164  -30.1433 H   0  0  0  0  0  0  0  0  0  0  0  0
   -0.1550   26.0810  -28.9910 H   0  0  0  0  0  0  0  0  0  0  0  0
   -1.0653   21.1109  -30.1340 H   0  0  0  0  0  0  0  0  0  0  0  0
  1  2  1  0
  2  3  1  0
  2  4  1  0
  4  5  1  0
  5  6  2  0
  6  7  1  0
  7  8  2  0
  8  9  1  0
  9 10  1  0
 10 11  1  0
 11 12  1  0
 12 13  2  0
 12 14  1  0
 14 15  2  0
 15 16  1  0
 16 17  1  0
 17 18  2  0
 18 19  1  0
 19 20  2  0
 20 21  1  0
 21 22  2  0
 21 23  2  0
 21 24  1  0
 24 25  1  0
 25 26  1  0
 26 27  1  0
 27 28  1  0
 20 29  1  0
 29 30  2  0
 16 31  1  0
 31 32  1  0
 31 33  2  0
 33 34  1  0
  9 35  2  0
 35  5  1  0
 33 14  1  0
 30 17  1  0
 28 24  1  0
  1 36  1  0
  1 37  1  0
  1 38  1  0
  3 39  1  0
  3 40  1  0
  3 41  1  0
  4 42  1  0
  4 43  1  0
  6 44  1  0
  7 45  1  0
  8 46  1  0
 10 47  1  0
 10 48  1  0
 15 49  1  0
 18 50  1  0
 19 51  1  0
 25 52  1  0
 25 53  1  0
 26 54  1  0
 26 55  1  0
 27 56  1  0
 27 57  1  0
 28 58  1  0
 28 59  1  0
 29 60  1  0
 30 61  1  0
 34 62  1  0
 35 63  1  0
M  CHG  2  11  -1  32  -1
M  END
>  <UniqueID>  (20) 
20

>  <SMILES>  (20) 
CN(C)Cc1cccc(C[N-]C(=O)c2cn(-c3ccc(S(=O)(=O)N4CCCC4)cc3)c([O-])c2O)c1

>  <Energy>  (20) 
102.99086443960661

>  <Genealogy>  (20) 
CN(C)Cc1cccc(C[N-]C(=O)c2cn(-c3ccc(S(=O)(=O)N4CCCC4)cc3)c([O-])c2O)c1 (protonated)
CN(C)Cc1cccc(C[N-]C(=O)c2cn(-c3ccc(S(=O)(=O)N4CCCC4)cc3)c([O-])c2O)c1 (3D coordinates assigned)
CN(C)Cc1cccc(C[N-]C(=O)c2cn(-c3ccc(S(=O)(=O)N4CCCC4)cc3)c([O-])c2O)c1 (nonaromatic ring conformer: 102.99086443960661 kcal/mol)

>  <smiles>  (20) 
CN(C)Cc1cccc(CNC(=O)c2cn(-c3ccc(S(=O)(=O)N4CCCC4)cc3)c(O)c2O)c1

>  <score_type>  (20) 
oracle

>  <origin>  (20) 
adgpu

>  <m_score__min__energy>  (20) 
-12.73

>  <m_primary>  (20) 
energy

$$$$
20:0
     RDKit          3D

 52 54  0  0  0  0  0  0  0  0999 V2000
   -4.2370   24.5440  -27.0160 C   0  0  0  0  0  0  0  0  0  0  0  0
   -4.2940   24.1790  -28.4970 C   0  0  0  0  0  0  0  0  0  0  0  0
   -4.2920   22.6600  -28.7510 C   0  0  0  0  0  0  0  0  0  0  0  0
   -3.4270   22.2410  -29.9420 C   0  0  0  0  0  0  0  0  0  0  0  0
   -2.1180   21.7120  -29.7530 C   0  0  0  0  0  0  0  0  0  0  0  0
   -1.2940   21.7120  -28.1750 S   0  0  0  0  0  0  0  0  0  0  0  0
    0.0680   21.0900  -28.3030 O   0  0  0  0  0  0  0  0  0  0  0  0
   -2.1020   20.9170  -27.1860 O   0  0  0  0  0  0  0  0  0  0  0  0
   -1.0970   23.3420  -27.5270 C   0  0  0  0  0  0  0  0  0  0  0  0
   -1.0400   24.4440  -28.3900 C   0  0  0  0  0  0  0  0  0  0  0  0
   -0.9090   25.7360  -27.8740 C   0  0  0  0  0  0  0  0  0  0  0  0
   -0.8280   25.9390  -26.4880 C   0  0  0  0  0  0  0  0  0  0  0  0
   -0.7290   27.3300  -25.9340 C   0  0  0  0  0  0  0  0  0  0  0  0
   -0.9120   24.8370  -25.6230 C   0  0  0  0  0  0  0  0  0  0  0  0
   -1.0410   23.5440  -26.1410 C   0  0  0  0  0  0  0  0  0  0  0  0
   -1.4100   21.2200  -30.8560 C   0  0  0  0  0  0  0  0  0  0  0  0
   -1.9290   21.2910  -32.1460 C   0  0  0  0  0  0  0  0  0  0  0  0
   -1.1270   20.7850  -33.2340 C   0  0  0  0  0  0  0  0  0  0  0  0
   -0.4830   20.3800  -34.1050 N   0  0  0  0  0  0  0  0  0  0  0  0
   -3.1830   21.8860  -32.3720 C   0  0  0  0  0  0  0  0  0  0  0  0
   -3.6730   22.0370  -33.7180 N   0  0  0  0  0  0  0  0  0  0  0  0
   -3.9420   22.3500  -31.2680 C   0  0  0  0  0  0  0  0  0  0  0  0
   -5.2680   22.9700  -31.5170 C   0  0  0  0  0  0  0  0  0  0  0  0
   -5.3400   24.2270  -31.5820 O   0  0  0  0  0  0  0  0  0  0  0  0
   -6.4920   22.1500  -31.7160 C   0  0  0  0  0  0  0  0  0  0  0  0
   -7.7550   22.6670  -31.3720 C   0  0  0  0  0  0  0  0  0  0  0  0
   -8.9100   21.9000  -31.5510 C   0  0  0  0  0  0  0  0  0  0  0  0
   -8.8190   20.6080  -32.0720 C   0  0  0  0  0  0  0  0  0  0  0  0
   -7.5730   20.0780  -32.4120 C   0  0  0  0  0  0  0  0  0  0  0  0
   -6.4150   20.8410  -32.2350 C   0  0  0  0  0  0  0  0  0  0  0  0
   -4.3786   23.6375  -26.4092 H   0  0  0  0  0  0  0  0  0  0  0  0
   -3.2583   24.9902  -26.7857 H   0  0  0  0  0  0  0  0  0  0  0  0
   -5.0331   25.2674  -26.7857 H   0  0  0  0  0  0  0  0  0  0  0  0
   -5.2137   24.6034  -28.9260 H   0  0  0  0  0  0  0  0  0  0  0  0
   -3.3888   24.5892  -28.9685 H   0  0  0  0  0  0  0  0  0  0  0  0
   -3.9111   22.1569  -27.8500 H   0  0  0  0  0  0  0  0  0  0  0  0
   -5.3269   22.3699  -28.9850 H   0  0  0  0  0  0  0  0  0  0  0  0
   -1.0986   24.2917  -29.4778 H   0  0  0  0  0  0  0  0  0  0  0  0
   -0.8692   26.5973  -28.5571 H   0  0  0  0  0  0  0  0  0  0  0  0
   -0.7320   27.2880  -24.8348 H   0  0  0  0  0  0  0  0  0  0  0  0
    0.2047   27.7971  -26.2805 H   0  0  0  0  0  0  0  0  0  0  0  0
   -1.5871   27.9246  -26.2805 H   0  0  0  0  0  0  0  0  0  0  0  0
   -0.8763   24.9905  -24.5343 H   0  0  0  0  0  0  0  0  0  0  0  0
   -1.0987   22.6832  -25.4586 H   0  0  0  0  0  0  0  0  0  0  0  0
   -0.4201   20.7665  -30.6998 H   0  0  0  0  0  0  0  0  0  0  0  0
   -4.5800   22.5100  -33.9230 H   0  0  0  0  0  0  0  0  0  0  0  0
   -3.1670   21.6430  -34.5410 H   0  0  0  0  0  0  0  0  0  0  0  0
   -7.8340   23.6833  -30.9587 H   0  0  0  0  0  0  0  0  0  0  0  0
   -9.8922   22.3152  -31.2809 H   0  0  0  0  0  0  0  0  0  0  0  0
   -9.7294   20.0074  -32.2147 H   0  0  0  0  0  0  0  0  0  0  0  0
   -7.5023   19.0588  -32.8197 H   0  0  0  0  0  0  0  0  0  0  0  0
   -5.4360   20.4169  -32.5027 H   0  0  0  0  0  0  0  0  0  0  0  0
  1  2  1  0
  2  3  1  0
  3  4  1  0
  4  5  2  0
  5  6  1  0
  6  7  2  0
  6  8  2  0
  6  9  1  0
  9 10  2  0
 10 11  1  0
 11 12  2  0
 12 13  1  0
 12 14  1  0
 14 15  2  0
  5 16  1  0
 16 17  2  0
 17 18  1  0
 18 19  3  0
 17 20  1  0
 20 21  1  0
 20 22  2  0
 22 23  1  0
 23 24  2  0
 23 25  1  0
 25 26  2  0
 26 27  1  0
 27 28  2  0
 28 29  1  0
 29 30  2  0
 22  4  1  0
 30 25  1  0
 15  9  1  0
  1 31  1  0
  1 32  1  0
  1 33  1  0
  2 34  1  0
  2 35  1  0
  3 36  1  0
  3 37  1  0
 10 38  1  0
 11 39  1  0
 13 40  1  0
 13 41  1  0
 13 42  1  0
 14 43  1  0
 15 44  1  0
 16 45  1  0
 21 46  1  0
 21 47  1  0
 26 48  1  0
 27 49  1  0
 28 50  1  0
 29 51  1  0
 30 52  1  0
M  END
>  <UniqueID>  (21) 
21

>  <SMILES>  (21) 
CCCc1c(S(=O)(=O)c2ccc(C)cc2)cc(C#N)c(N)c1C(=O)c1ccccc1

>  <Energy>  (21) 
67.77960378305772

>  <Genealogy>  (21) 
CCCc1c(S(=O)(=O)c2ccc(C)cc2)cc(C#N)c(N)c1C(=O)c1ccccc1 (3D coordinates assigned)
CCCc1c(S(=O)(=O)c2ccc(C)cc2)cc(C#N)c(N)c1C(=O)c1ccccc1 (optimized conformer: 67.77960378305772 kcal/mol)

>  <smiles>  (21) 
CCCc1c(S(=O)(=O)c2ccc(C)cc2)cc(C#N)c(N)c1C(=O)c1ccccc1

>  <score_type>  (21) 
oracle

>  <origin>  (21) 
adgpu

>  <m_score__min__energy>  (21) 
-9.6899999999999995

>  <m_primary>  (21) 
energy

$$$$
21:0
     RDKit          3D

 69 72  0  0  0  0  0  0  0  0999 V2000
   -5.7070   18.3390  -34.8790 C   0  0  0  0  0  0  0  0  0  0  0  0
   -5.7580   18.9340  -33.5860 O   0  0  0  0  0  0  0  0  0  0  0  0
   -6.9340   19.3670  -32.9570 C   0  0  0  0  0  0  0  0  0  0  0  0
   -7.9660   18.4770  -32.5970 C   0  0  0  0  0  0  0  0  0  0  0  0
   -9.1180   18.9520  -31.9650 C   0  0  0  0  0  0  0  0  0  0  0  0
   -9.2490   20.3110  -31.6760 C   0  0  0  0  0  0  0  0  0  0  0  0
   -8.2340   21.2020  -32.0290 C   0  0  0  0  0  0  0  0  0  0  0  0
   -7.0800   20.7380  -32.6880 C   0  0  0  0  0  0  0  0  0  0  0  0
   -6.0460   21.6120  -33.0510 O   0  0  0  0  0  0  0  0  0  0  0  0
   -4.7160   21.5200  -32.6100 C   0  0  0  0  0  0  0  0  0  0  0  0
   -3.6970   21.0720  -33.4730 C   0  0  0  0  0  0  0  0  0  0  0  0
   -2.3830   20.9530  -33.0170 C   0  0  0  0  0  0  0  0  0  0  0  0
   -2.0670   21.2660  -31.6930 C   0  0  0  0  0  0  0  0  0  0  0  0
   -0.4040   21.1350  -31.1230 S   0  0  0  0  0  0  0  0  0  0  0  0
   -0.2070   19.6070  -30.2360 C   0  0  0  0  0  0  0  0  0  0  0  0
    0.5410   21.1610  -32.2940 O   0  0  0  0  0  0  0  0  0  0  0  0
   -0.0840   22.2920  -30.2180 O   0  0  0  0  0  0  0  0  0  0  0  0
   -3.0740   21.7090  -30.8260 C   0  0  0  0  0  0  0  0  0  0  0  0
   -4.4040   21.8190  -31.2690 C   0  0  0  0  0  0  0  0  0  0  0  0
   -5.4680   22.3180  -30.3180 C   0  0  0  0  0  0  0  0  0  0  0  0
   -5.2560   23.7350  -29.9630 N   0  0  0  0  0  0  0  0  0  0  0  0
   -6.1090   24.7580  -30.5920 C   0  0  0  0  0  0  0  0  0  0  0  0
   -4.1810   24.1440  -29.0740 C   0  0  0  0  0  0  0  0  0  0  0  0
   -4.3710   24.1950  -27.6770 C   0  0  0  0  0  0  0  0  0  0  0  0
   -3.3350   24.5950  -26.8290 C   0  0  0  0  0  0  0  0  0  0  0  0
   -2.0790   24.9240  -27.3490 C   0  0  0  0  0  0  0  0  0  0  0  0
   -0.7680   25.4060  -26.2720 S   0  0  0  0  0  0  0  0  0  0  0  0
   -1.3410   25.8290  -24.9450 O   0  0  0  0  0  0  0  0  0  0  0  0
   -0.0700   26.5990  -26.8710 O   0  0  0  0  0  0  0  0  0  0  0  0
    0.4070   24.1310  -26.0240 N   0  0  0  0  0  0  0  0  0  0  0  0
   -0.0340   23.0940  -25.0680 C   0  0  0  0  0  0  0  0  0  0  0  0
   -0.8990   21.9810  -25.6970 C   0  0  0  0  0  0  0  0  0  0  0  0
   -0.5830   21.7100  -27.1740 C   0  0  0  0  0  0  0  0  0  0  0  0
    0.8380   22.1340  -27.5220 C   0  0  0  0  0  0  0  0  0  0  0  0
    1.0150   23.6410  -27.2860 C   0  0  0  0  0  0  0  0  0  0  0  0
   -1.8750   24.8810  -28.7340 C   0  0  0  0  0  0  0  0  0  0  0  0
   -2.9140   24.5000  -29.5870 C   0  0  0  0  0  0  0  0  0  0  0  0
   -5.6135   17.2477  -34.7770 H   0  0  0  0  0  0  0  0  0  0  0  0
   -6.6289   18.5782  -35.4293 H   0  0  0  0  0  0  0  0  0  0  0  0
   -4.8392   18.7316  -35.4293 H   0  0  0  0  0  0  0  0  0  0  0  0
   -7.8640   17.4036  -32.8146 H   0  0  0  0  0  0  0  0  0  0  0  0
   -9.9234   18.2533  -31.6946 H   0  0  0  0  0  0  0  0  0  0  0  0
  -10.1529   20.6804  -31.1696 H   0  0  0  0  0  0  0  0  0  0  0  0
   -8.3364   22.2711  -31.7912 H   0  0  0  0  0  0  0  0  0  0  0  0
   -3.9385   20.8138  -34.5146 H   0  0  0  0  0  0  0  0  0  0  0  0
   -1.5937   20.6115  -33.7028 H   0  0  0  0  0  0  0  0  0  0  0  0
   -0.2325   19.8051  -29.1543 H   0  0  0  0  0  0  0  0  0  0  0  0
   -1.0241   18.9204  -30.5024 H   0  0  0  0  0  0  0  0  0  0  0  0
    0.7575   19.1501  -30.5024 H   0  0  0  0  0  0  0  0  0  0  0  0
   -2.8219   21.9734  -29.7884 H   0  0  0  0  0  0  0  0  0  0  0  0
   -6.4528   22.2131  -30.7968 H   0  0  0  0  0  0  0  0  0  0  0  0
   -5.4145   21.7200  -29.3963 H   0  0  0  0  0  0  0  0  0  0  0  0
   -6.6049   25.3528  -29.8108 H   0  0  0  0  0  0  0  0  0  0  0  0
   -5.4897   25.4178  -31.2175 H   0  0  0  0  0  0  0  0  0  0  0  0
   -6.8693   24.2674  -31.2175 H   0  0  0  0  0  0  0  0  0  0  0  0
   -5.3460   23.9167  -27.2504 H   0  0  0  0  0  0  0  0  0  0  0  0
   -3.5085   24.6516  -25.7443 H   0  0  0  0  0  0  0  0  0  0  0  0
    0.8599   22.6286  -24.6271 H   0  0  0  0  0  0  0  0  0  0  0  0
   -0.6634   23.5997  -24.3209 H   0  0  0  0  0  0  0  0  0  0  0  0
   -0.7340   21.0522  -25.1311 H   0  0  0  0  0  0  0  0  0  0  0  0
   -1.9435   22.3228  -25.6507 H   0  0  0  0  0  0  0  0  0  0  0  0
   -0.6949   20.6339  -27.3729 H   0  0  0  0  0  0  0  0  0  0  0  0
   -1.2811   22.2942  -27.7916 H   0  0  0  0  0  0  0  0  0  0  0  0
    1.5474   21.5813  -26.8886 H   0  0  0  0  0  0  0  0  0  0  0  0
    1.0291   21.9120  -28.5823 H   0  0  0  0  0  0  0  0  0  0  0  0
    2.0921   23.8626  -27.2596 H   0  0  0  0  0  0  0  0  0  0  0  0
    0.4963   24.1546  -28.1089 H   0  0  0  0  0  0  0  0  0  0  0  0
   -0.8931   25.1482  -29.1518 H   0  0  0  0  0  0  0  0  0  0  0  0
   -2.7429   24.4770  -30.6734 H   0  0  0  0  0  0  0  0  0  0  0  0
  1  2  1  0
  2  3  1  0
  3  4  2  0
  4  5  1  0
  5  6  2  0
  6  7  1  0
  7  8  2  0
  8  9  1  0
  9 10  1  0
 10 11  2  0
 11 12  1  0
 12 13  2  0
 13 14  1  0
 14 15  1  0
 14 16  2  0
 14 17  2  0
 13 18  1  0
 18 19  2  0
 19 20  1  0
 20 21  1  0
 21 22  1  0
 21 23  1  0
 23 24  2  0
 24 25  1  0
 25 26  2  0
 26 27  1  0
 27 28  2  0
 27 29  2  0
 27 30  1  0
 30 31  1  0
 31 32  1  0
 32 33  1  0
 33 34  1  0
 34 35  1  0
 26 36  1  0
 36 37  2  0
  8  3  1  0
 19 10  1  0
 37 23  1  0
 35 30  1  0
  1 38  1  0
  1 39  1  0
  1 40  1  0
  4 41  1  0
  5 42  1  0
  6 43  1  0
  7 44  1  0
 11 45  1  0
 12 46  1  0
 15 47  1  0
 15 48  1  0
 15 49  1  0
 18 50  1  0
 20 51  1  0
 20 52  1  0
 22 53  1  0
 22 54  1  0
 22 55  1  0
 24 56  1  0
 25 57  1  0
 31 58  1  0
 31 59  1  0
 32 60  1  0
 32 61  1  0
 33 62  1  0
 33 63  1  0
 34 64  1  0
 34 65  1  0
 35 66  1  0
 35 67  1  0
 36 68  1  0
 37 69  1  0
M  END
>  <UniqueID>  (22) 
22

>  <SMILES>  (22) 
COc1ccccc1Oc1ccc(S(C)(=O)=O)cc1CN(C)c1ccc(S(=O)(=O)N2CCCCC2)cc1

>  <Energy>  (22) 
83.06802452240397

>  <Genealogy>  (22) 
COc1ccccc1Oc1ccc(S(C)(=O)=O)cc1CN(C)c1ccc(S(=O)(=O)N2CCCCC2)cc1 (3D coordinates assigned)
COc1ccccc1Oc1ccc(S(C)(=O)=O)cc1CN(C)c1ccc(S(=O)(=O)N2CCCCC2)cc1 (nonaromatic ring conformer: 83.06802452240397 kcal/mol)

>  <smiles>  (22) 
COc1ccccc1Oc1ccc(S(C)(=O)=O)cc1CN(C)c1ccc(S(=O)(=O)N2CCCCC2)cc1

>  <score_type>  (22) 
oracle

>  <origin>  (22) 
adgpu

>  <m_score__min__energy>  (22) 
-10.109999999999999

>  <m_primary>  (22) 
energy

$$$$
22:0
     RDKit          3D

 51 53  0  0  0  0  0  0  0  0999 V2000
   -4.5720   16.4380  -32.6480 C   0  0  0  0  0  0  0  0  0  0  0  0
   -5.6140   17.5680  -32.7330 C   0  0  0  0  0  0  0  0  0  0  0  0
   -6.5060   17.3370  -33.9700 C   0  0  0  0  0  0  0  0  0  0  0  0
   -6.4930   17.5600  -31.4680 C   0  0  0  0  0  0  0  0  0  0  0  0
   -4.9070   18.9040  -32.8460 C   0  0  0  0  0  0  0  0  0  0  0  0
   -5.1930   19.9270  -33.7260 C   0  0  0  0  0  0  0  0  0  0  0  0
   -4.3310   20.9400  -33.5180 N   0  0  0  0  0  0  0  0  0  0  0  0
   -3.5530   20.4860  -32.5110 C   0  0  0  0  0  0  0  0  0  0  0  0
   -2.4380   21.2550  -31.9380 C   0  0  0  0  0  0  0  0  0  0  0  0
   -1.5030   21.6420  -32.6880 O   0  0  0  0  0  0  0  0  0  0  0  0
   -2.3580   21.5130  -30.4850 C   0  0  0  0  0  0  0  0  0  0  0  0
   -1.7750   20.5380  -29.6600 C   0  0  0  0  0  0  0  0  0  0  0  0
   -1.7750   20.6900  -28.2710 C   0  0  0  0  0  0  0  0  0  0  0  0
   -1.0620   19.4540  -27.2520 Cl  0  0  0  0  0  0  0  0  0  0  0  0
   -2.3610   21.8190  -27.6930 C   0  0  0  0  0  0  0  0  0  0  0  0
   -2.9220   22.8080  -28.5020 C   0  0  0  0  0  0  0  0  0  0  0  0
   -2.9020   22.6800  -29.8960 C   0  0  0  0  0  0  0  0  0  0  0  0
   -3.4010   23.7650  -30.6860 N   0  0  0  0  0  0  0  0  0  0  0  0
   -4.9640   24.4660  -30.4200 S   0  0  0  0  0  0  0  0  0  0  0  0
   -5.0750   25.7540  -31.1890 O   0  0  0  0  0  0  0  0  0  0  0  0
   -5.1300   24.7680  -28.9580 O   0  0  0  0  0  0  0  0  0  0  0  0
   -6.2200   23.3450  -30.9310 C   0  0  0  0  0  0  0  0  0  0  0  0
   -5.9780   21.9670  -30.8810 C   0  0  0  0  0  0  0  0  0  0  0  0
   -6.9710   21.0630  -31.2690 C   0  0  0  0  0  0  0  0  0  0  0  0
   -8.2200   21.5280  -31.7080 C   0  0  0  0  0  0  0  0  0  0  0  0
   -9.2830   20.5540  -32.1480 C   0  0  0  0  0  0  0  0  0  0  0  0
   -8.7270   19.5340  -33.0350 N   0  0  0  0  0  0  0  0  0  0  0  0
   -8.4540   22.9110  -31.7760 C   0  0  0  0  0  0  0  0  0  0  0  0
   -7.4620   23.8140  -31.3810 C   0  0  0  0  0  0  0  0  0  0  0  0
   -3.8900   19.2810  -32.1120 O   0  0  0  0  0  0  0  0  0  0  0  0
   -4.3626   16.2110  -31.5922 H   0  0  0  0  0  0  0  0  0  0  0  0
   -4.9647   15.5390  -33.1455 H   0  0  0  0  0  0  0  0  0  0  0  0
   -3.6441   16.7567  -33.1455 H   0  0  0  0  0  0  0  0  0  0  0  0
   -7.5232   17.0736  -33.6445 H   0  0  0  0  0  0  0  0  0  0  0  0
   -6.5406   18.2558  -34.5738 H   0  0  0  0  0  0  0  0  0  0  0  0
   -6.0903   16.5169  -34.5738 H   0  0  0  0  0  0  0  0  0  0  0  0
   -5.8506   17.5658  -30.5751 H   0  0  0  0  0  0  0  0  0  0  0  0
   -7.1362   18.4523  -31.4628 H   0  0  0  0  0  0  0  0  0  0  0  0
   -7.1199   16.6561  -31.4628 H   0  0  0  0  0  0  0  0  0  0  0  0
   -5.9965   19.9168  -34.4772 H   0  0  0  0  0  0  0  0  0  0  0  0
   -1.3143   19.6467  -30.1110 H   0  0  0  0  0  0  0  0  0  0  0  0
   -2.3802   21.9284  -26.5986 H   0  0  0  0  0  0  0  0  0  0  0  0
   -3.3830   23.6941  -28.0413 H   0  0  0  0  0  0  0  0  0  0  0  0
   -5.0026   21.5942  -30.5350 H   0  0  0  0  0  0  0  0  0  0  0  0
   -6.7724   19.9818  -31.2300 H   0  0  0  0  0  0  0  0  0  0  0  0
   -9.7109   20.0642  -31.2609 H   0  0  0  0  0  0  0  0  0  0  0  0
  -10.0595   21.1080  -32.6959 H   0  0  0  0  0  0  0  0  0  0  0  0
   -9.5120   18.9570  -33.4190 H   0  0  0  0  0  0  0  0  0  0  0  0
   -8.2570   20.0100  -33.8400 H   0  0  0  0  0  0  0  0  0  0  0  0
   -9.4216   23.2855  -32.1415 H   0  0  0  0  0  0  0  0  0  0  0  0
   -7.6569   24.8958  -31.4235 H   0  0  0  0  0  0  0  0  0  0  0  0
  1  2  1  0
  2  3  1  0
  2  4  1  0
  2  5  1  0
  5  6  2  0
  6  7  1  0
  7  8  2  0
  8  9  1  0
  9 10  2  0
  9 11  1  0
 11 12  2  0
 12 13  1  0
 13 14  1  0
 13 15  2  0
 15 16  1  0
 16 17  2  0
 17 18  1  0
 18 19  1  0
 19 20  2  0
 19 21  2  0
 19 22  1  0
 22 23  2  0
 23 24  1  0
 24 25  2  0
 25 26  1  0
 26 27  1  0
 25 28  1  0
 28 29  2  0
  8 30  1  0
 30  5  1  0
 17 11  1  0
 29 22  1  0
  1 31  1  0
  1 32  1  0
  1 33  1  0
  3 34  1  0
  3 35  1  0
  3 36  1  0
  4 37  1  0
  4 38  1  0
  4 39  1  0
  6 40  1  0
 12 41  1  0
 15 42  1  0
 16 43  1  0
 23 44  1  0
 24 45  1  0
 26 46  1  0
 26 47  1  0
 27 48  1  0
 27 49  1  0
 28 50  1  0
 29 51  1  0
M  CHG  1  18  -1
M  END
>  <UniqueID>  (23) 
23

>  <SMILES>  (23) 
CC(C)(C)c1cnc(C(=O)c2cc(Cl)ccc2[N-]S(=O)(=O)c2ccc(CN)cc2)o1

>  <Energy>  (23) 
83.80282313947369

>  <Genealogy>  (23) 
CC(C)(C)c1cnc(C(=O)c2cc(Cl)ccc2[N-]S(=O)(=O)c2ccc(CN)cc2)o1 (protonated)
CC(C)(C)c1cnc(C(=O)c2cc(Cl)ccc2[N-]S(=O)(=O)c2ccc(CN)cc2)o1 (3D coordinates assigned)
CC(C)(C)c1cnc(C(=O)c2cc(Cl)ccc2[N-]S(=O)(=O)c2ccc(CN)cc2)o1 (optimized conformer: 83.80282313947369 kcal/mol)

>  <smiles>  (23) 
CC(C)(C)c1cnc(C(=O)c2cc(Cl)ccc2NS(=O)(=O)c2ccc(CN)cc2)o1

>  <score_type>  (23) 
oracle

>  <origin>  (23) 
adgpu

>  <m_score__min__energy>  (23) 
-11.01

>  <m_primary>  (23) 
energy

$$$$
23:0
     RDKit          3D

 38 40  0  0  1  0  0  0  0  0999 V2000
   -9.4620   18.2210  -31.6400 N   0  0  0  0  0  0  0  0  0  0  0  0
   -8.7310   19.1330  -31.7290 C   0  0  0  0  0  0  0  0  0  0  0  0
   -7.8330   20.2490  -31.8180 C   0  0  0  0  0  0  0  0  0  0  0  0
   -8.2000   21.4120  -31.1490 C   0  0  0  0  0  0  0  0  0  0  0  0
   -7.3390   22.4870  -31.2320 C   0  0  0  0  0  0  0  0  0  0  0  0
   -6.1560   22.4620  -31.9330 C   0  0  0  0  0  0  0  0  0  0  0  0
   -5.3890   23.6110  -31.9330 O   0  0  0  0  0  0  0  0  0  0  0  0
   -4.4270   23.7020  -30.9090 C   0  0  0  0  0  0  0  0  0  0  0  0
   -3.2200   23.0590  -31.0530 C   0  0  0  0  0  0  0  0  0  0  0  0
   -2.2950   23.1750  -30.0180 C   0  0  0  0  0  0  0  0  0  0  0  0
   -2.5890   23.9200  -28.8710 C   0  0  0  0  0  0  0  0  0  0  0  0
   -1.3830   24.0090  -27.6360 S   0  0  0  0  0  0  0  0  0  0  0  0
   -0.1090   24.5450  -28.2200 O   0  0  0  0  0  0  0  0  0  0  0  0
   -1.2030   22.6710  -26.9770 O   0  0  0  0  0  0  0  0  0  0  0  0
   -1.8710   25.1510  -26.4070 N   0  0  0  0  0  0  0  0  0  0  0  0
   -1.0580   25.5000  -25.4740 C   0  0  0  0  0  0  0  0  0  0  0  0
   -1.4860   26.4170  -24.5080 C   0  0  0  0  0  0  0  0  0  0  0  0
   -0.6020   26.7950  -23.4960 C   0  0  0  0  0  0  0  0  0  0  0  0
    0.6310   26.2460  -23.5100 N   0  0  0  0  0  0  0  0  0  0  0  0
    1.0250   25.3630  -24.4520 C   0  0  0  0  0  0  0  0  0  0  0  0
    0.1820   24.9810  -25.4450 N   0  0  0  0  0  0  0  0  0  0  0  0
   -3.8100   24.5420  -28.7770 C   0  0  0  0  0  0  0  0  0  0  0  0
   -4.7540   24.4460  -29.7940 C   0  0  0  0  0  0  0  0  0  0  0  0
   -6.0310   25.1070  -29.6760 C   0  0  0  0  0  0  0  0  0  0  0  0
   -7.0660   25.6460  -29.5980 N   0  0  0  0  0  0  0  0  0  0  0  0
   -5.8190   21.3030  -32.5830 C   0  0  0  0  0  0  0  0  0  0  0  0
   -6.6490   20.1890  -32.5330 C   0  0  0  0  0  0  0  0  0  0  0  0
   -6.2540   18.6990  -33.3460 Cl  0  0  0  0  0  0  0  0  0  0  0  0
   -9.1379   21.4722  -30.5774 H   0  0  0  0  0  0  0  0  0  0  0  0
   -7.6138   23.4148  -30.7089 H   0  0  0  0  0  0  0  0  0  0  0  0
   -2.9925   22.4726  -31.9554 H   0  0  0  0  0  0  0  0  0  0  0  0
   -1.3196   22.6737  -30.1038 H   0  0  0  0  0  0  0  0  0  0  0  0
   -2.5033   26.8337  -24.5454 H   0  0  0  0  0  0  0  0  0  0  0  0
   -0.8988   27.5127  -22.7170 H   0  0  0  0  0  0  0  0  0  0  0  0
    1.2890   26.5440  -22.7350 H   0  0  0  0  0  0  0  0  0  0  0  0
    2.0428   24.9475  -24.4144 H   0  0  0  0  0  0  0  0  0  0  0  0
   -4.0466   25.1291  -27.8774 H   0  0  0  0  0  0  0  0  0  0  0  0
   -4.8789   21.2539  -33.1520 H   0  0  0  0  0  0  0  0  0  0  0  0
  1  2  3  0
  2  3  1  0
  3  4  2  0
  4  5  1  0
  5  6  2  0
  6  7  1  0
  7  8  1  0
  8  9  2  0
  9 10  1  0
 10 11  2  0
 11 12  1  0
 12 13  2  0
 12 14  2  0
 12 15  1  0
 15 16  2  0
 16 17  1  0
 17 18  2  0
 18 19  1  0
 19 20  1  0
 20 21  2  0
 11 22  1  0
 22 23  2  0
 23 24  1  0
 24 25  3  0
  6 26  1  0
 26 27  2  0
 27 28  1  0
 27  3  1  0
 23  8  1  0
 21 16  1  0
  4 29  1  0
  5 30  1  0
  9 31  1  0
 10 32  1  0
 17 33  1  0
 18 34  1  0
 19 35  1  0
 20 36  1  0
 22 37  1  0
 26 38  1  0
M  END
>  <smiles>  (24) 
N#Cc1ccc(Oc2ccc(S(=O)(=O)N=c3cc[nH]cn3)cc2C#N)cc1Cl

>  <score_type>  (24) 
oracle

>  <origin>  (24) 
adgpu

>  <m_score__min__energy>  (24) 
-10.039999999999999

>  <m_primary>  (24) 
energy

$$$$
24:0
     RDKit          3D

 43 46  0  0  0  0  0  0  0  0999 V2000
   -4.1790   24.3280  -28.1610 O   0  0  0  0  0  0  0  0  0  0  0  0
   -3.3550   24.2360  -29.4150 S   0  0  0  0  0  0  0  0  0  0  0  0
   -2.2820   25.2880  -29.3410 O   0  0  0  0  0  0  0  0  0  0  0  0
   -2.6000   22.6430  -29.4970 C   0  0  0  0  0  0  0  0  0  0  0  0
   -2.3630   21.9120  -28.3250 C   0  0  0  0  0  0  0  0  0  0  0  0
   -1.8040   20.6340  -28.3950 C   0  0  0  0  0  0  0  0  0  0  0  0
   -1.4730   20.0790  -29.6340 C   0  0  0  0  0  0  0  0  0  0  0  0
   -1.6860   20.8090  -30.8130 C   0  0  0  0  0  0  0  0  0  0  0  0
   -1.3830   20.1980  -32.1490 C   0  0  0  0  0  0  0  0  0  0  0  0
   -2.1870   21.1780  -33.4580 S   0  0  0  0  0  0  0  0  0  0  0  0
   -3.8130   20.5190  -33.1050 C   0  0  0  0  0  0  0  0  0  0  0  0
   -4.0070   19.3020  -32.5250 N   0  0  0  0  0  0  0  0  0  0  0  0
   -5.3470   19.2290  -32.4500 C   0  0  0  0  0  0  0  0  0  0  0  0
   -6.1320   18.2010  -31.9390 C   0  0  0  0  0  0  0  0  0  0  0  0
   -7.5270   18.3770  -31.9780 C   0  0  0  0  0  0  0  0  0  0  0  0
   -8.0710   19.5670  -32.5220 C   0  0  0  0  0  0  0  0  0  0  0  0
   -7.2510   20.5460  -33.0100 N   0  0  0  0  0  0  0  0  0  0  0  0
   -5.9100   20.3520  -32.9620 C   0  0  0  0  0  0  0  0  0  0  0  0
   -4.9590   21.1880  -33.3870 N   0  0  0  0  0  0  0  0  0  0  0  0
   -2.2530   22.0920  -30.7380 C   0  0  0  0  0  0  0  0  0  0  0  0
   -4.3810   24.5470  -30.8010 N   0  0  0  0  0  0  0  0  0  0  0  0
   -5.3720   25.5850  -30.5010 C   0  0  0  0  0  0  0  0  0  0  0  0
   -6.6810   24.9040  -30.1310 C   0  0  0  0  0  0  0  0  0  0  0  0
   -6.5470   23.4710  -30.6080 C   0  0  0  0  0  0  0  0  0  0  0  0
   -5.1410   23.3510  -31.1800 C   0  0  0  0  0  0  0  0  0  0  0  0
   -2.6180   22.3461  -27.3470 H   0  0  0  0  0  0  0  0  0  0  0  0
   -1.6238   20.0628  -27.4724 H   0  0  0  0  0  0  0  0  0  0  0  0
   -1.0444   19.0672  -29.6850 H   0  0  0  0  0  0  0  0  0  0  0  0
   -0.2951   20.1911  -32.3113 H   0  0  0  0  0  0  0  0  0  0  0  0
   -1.7631   19.1661  -32.1762 H   0  0  0  0  0  0  0  0  0  0  0  0
   -5.6809   17.2886  -31.5218 H   0  0  0  0  0  0  0  0  0  0  0  0
   -8.1933   17.5936  -31.5876 H   0  0  0  0  0  0  0  0  0  0  0  0
   -9.1620   19.7042  -32.5519 H   0  0  0  0  0  0  0  0  0  0  0  0
   -5.0700   22.1300  -33.8240 H   0  0  0  0  0  0  0  0  0  0  0  0
   -2.4257   22.6679  -31.6592 H   0  0  0  0  0  0  0  0  0  0  0  0
   -5.0223   26.2008  -29.6592 H   0  0  0  0  0  0  0  0  0  0  0  0
   -5.5173   26.2343  -31.3769 H   0  0  0  0  0  0  0  0  0  0  0  0
   -6.8341   24.9331  -29.0421 H   0  0  0  0  0  0  0  0  0  0  0  0
   -7.5444   25.4063  -30.5917 H   0  0  0  0  0  0  0  0  0  0  0  0
   -6.6787   22.7740  -29.7672 H   0  0  0  0  0  0  0  0  0  0  0  0
   -7.3111   23.2224  -31.3593 H   0  0  0  0  0  0  0  0  0  0  0  0
   -4.6500   22.4548  -30.7729 H   0  0  0  0  0  0  0  0  0  0  0  0
   -5.1859   23.2643  -32.2757 H   0  0  0  0  0  0  0  0  0  0  0  0
  1  2  2  0
  2  3  2  0
  2  4  1  0
  4  5  2  0
  5  6  1  0
  6  7  2  0
  7  8  1  0
  8  9  1  0
  9 10  1  0
 10 11  1  0
 11 12  2  0
 12 13  1  0
 13 14  2  0
 14 15  1  0
 15 16  2  0
 16 17  1  0
 17 18  2  0
 18 19  1  0
  8 20  2  0
  2 21  1  0
 21 22  1  0
 22 23  1  0
 23 24  1  0
 24 25  1  0
 20  4  1  0
 25 21  1  0
 19 11  1  0
 18 13  1  0
  5 26  1  0
  6 27  1  0
  7 28  1  0
  9 29  1  0
  9 30  1  0
 14 31  1  0
 15 32  1  0
 16 33  1  0
 19 34  1  0
 20 35  1  0
 22 36  1  0
 22 37  1  0
 23 38  1  0
 23 39  1  0
 24 40  1  0
 24 41  1  0
 25 42  1  0
 25 43  1  0
M  END
>  <UniqueID>  (25) 
24

>  <SMILES>  (25) 
O=S(=O)(c1cccc(CSc2nc3cccnc3[nH]2)c1)N1CCCC1

>  <Energy>  (25) 
79.91661648934483

>  <Genealogy>  (25) 
O=S(=O)(c1cccc(CSc2nc3cccnc3[nH]2)c1)N1CCCC1 (3D coordinates assigned)
O=S(=O)(c1cccc(CSc2nc3cccnc3[nH]2)c1)N1CCCC1 (nonaromatic ring conformer: 79.91661648934483 kcal/mol)

>  <smiles>  (25) 
O=S(=O)(c1cccc(CSc2nc3cccnc3[nH]2)c1)N1CCCC1

>  <score_type>  (25) 
oracle

>  <origin>  (25) 
adgpu

>  <m_score__min__energy>  (25) 
-10.07

>  <m_primary>  (25) 
energy

$$$$
25:0
     RDKit          3D

 40 42  0  0  0  0  0  0  0  0999 V2000
   -1.8660   25.4460  -28.9330 N   0  0  0  0  0  0  0  0  0  0  0  0
   -0.9110   24.3460  -28.0000 S   0  0  0  0  0  0  0  0  0  0  0  0
    0.4650   24.2620  -28.6000 O   0  0  0  0  0  0  0  0  0  0  0  0
   -0.7970   24.8480  -26.5870 O   0  0  0  0  0  0  0  0  0  0  0  0
   -1.6810   22.7550  -27.9960 C   0  0  0  0  0  0  0  0  0  0  0  0
   -1.4500   21.8720  -26.9300 C   0  0  0  0  0  0  0  0  0  0  0  0
   -2.0510   20.6110  -26.9160 C   0  0  0  0  0  0  0  0  0  0  0  0
   -2.8800   20.2200  -27.9680 C   0  0  0  0  0  0  0  0  0  0  0  0
   -3.1200   21.0910  -29.0330 C   0  0  0  0  0  0  0  0  0  0  0  0
   -2.5400   22.3740  -29.0470 C   0  0  0  0  0  0  0  0  0  0  0  0
   -2.7560   23.2770  -30.1440 N   0  0  0  0  0  0  0  0  0  0  0  0
   -3.9400   24.0400  -30.4040 C   0  0  0  0  0  0  0  0  0  0  0  0
   -3.8820   25.2930  -30.5230 O   0  0  0  0  0  0  0  0  0  0  0  0
   -5.2220   23.3500  -30.5890 C   0  0  0  0  0  0  0  0  0  0  0  0
   -6.4520   23.7660  -30.0880 C   0  0  0  0  0  0  0  0  0  0  0  0
   -7.5050   22.9090  -30.4270 C   0  0  0  0  0  0  0  0  0  0  0  0
   -7.0970   21.8250  -31.1920 C   0  0  0  0  0  0  0  0  0  0  0  0
   -8.1420   20.5570  -31.8010 S   0  0  0  0  0  0  0  0  0  0  0  0
   -9.1620   21.1420  -32.7360 O   0  0  0  0  0  0  0  0  0  0  0  0
   -8.8580   19.9070  -30.6500 O   0  0  0  0  0  0  0  0  0  0  0  0
   -7.1760   19.3710  -32.6730 C   0  0  0  0  0  0  0  0  0  0  0  0
   -7.1030   18.0510  -32.2060 C   0  0  0  0  0  0  0  0  0  0  0  0
   -6.3520   17.1010  -32.9040 C   0  0  0  0  0  0  0  0  0  0  0  0
   -5.6740   17.4630  -34.0720 C   0  0  0  0  0  0  0  0  0  0  0  0
   -5.7520   18.7760  -34.5450 C   0  0  0  0  0  0  0  0  0  0  0  0
   -6.5030   19.7290  -33.8500 C   0  0  0  0  0  0  0  0  0  0  0  0
   -5.4410   21.9210  -31.4540 S   0  0  0  0  0  0  0  0  0  0  0  0
   -2.8640   25.2860  -28.6660 H   0  0  0  0  0  0  0  0  0  0  0  0
   -1.7710   25.1610  -29.9340 H   0  0  0  0  0  0  0  0  0  0  0  0
   -0.7926   22.1743  -26.1015 H   0  0  0  0  0  0  0  0  0  0  0  0
   -1.8705   19.9256  -26.0748 H   0  0  0  0  0  0  0  0  0  0  0  0
   -3.3456   19.2234  -27.9585 H   0  0  0  0  0  0  0  0  0  0  0  0
   -3.7654   20.7731  -29.8651 H   0  0  0  0  0  0  0  0  0  0  0  0
   -6.5833   24.6772  -29.4859 H   0  0  0  0  0  0  0  0  0  0  0  0
   -8.5476   23.0769  -30.1192 H   0  0  0  0  0  0  0  0  0  0  0  0
   -7.6376   17.7626  -31.2889 H   0  0  0  0  0  0  0  0  0  0  0  0
   -6.2943   16.0668  -32.5338 H   0  0  0  0  0  0  0  0  0  0  0  0
   -5.0799   16.7154  -34.6180 H   0  0  0  0  0  0  0  0  0  0  0  0
   -5.2215   19.0601  -35.4658 H   0  0  0  0  0  0  0  0  0  0  0  0
   -6.5659   20.7605  -34.2269 H   0  0  0  0  0  0  0  0  0  0  0  0
  1  2  1  0
  2  3  2  0
  2  4  2  0
  2  5  1  0
  5  6  2  0
  6  7  1  0
  7  8  2  0
  8  9  1  0
  9 10  2  0
 10 11  1  0
 11 12  1  0
 12 13  2  0
 12 14  1  0
 14 15  2  0
 15 16  1  0
 16 17  2  0
 17 18  1  0
 18 19  2  0
 18 20  2  0
 18 21  1  0
 21 22  2  0
 22 23  1  0
 23 24  2  0
 24 25  1  0
 25 26  2  0
 17 27  1  0
 10  5  1  0
 27 14  1  0
 26 21  1  0
  1 28  1  0
  1 29  1  0
  6 30  1  0
  7 31  1  0
  8 32  1  0
  9 33  1  0
 15 34  1  0
 16 35  1  0
 22 36  1  0
 23 37  1  0
 24 38  1  0
 25 39  1  0
 26 40  1  0
M  CHG  1  11  -1
M  END
>  <UniqueID>  (26) 
25

>  <SMILES>  (26) 
NS(=O)(=O)c1ccccc1[N-]C(=O)c1ccc(S(=O)(=O)c2ccccc2)s1

>  <Energy>  (26) 
72.77491649160477

>  <Genealogy>  (26) 
NS(=O)(=O)c1ccccc1[N-]C(=O)c1ccc(S(=O)(=O)c2ccccc2)s1 (protonated)
NS(=O)(=O)c1ccccc1[N-]C(=O)c1ccc(S(=O)(=O)c2ccccc2)s1 (3D coordinates assigned)
NS(=O)(=O)c1ccccc1[N-]C(=O)c1ccc(S(=O)(=O)c2ccccc2)s1 (optimized conformer: 72.77491649160477 kcal/mol)

>  <smiles>  (26) 
NS(=O)(=O)c1ccccc1NC(=O)c1ccc(S(=O)(=O)c2ccccc2)s1

>  <score_type>  (26) 
oracle

>  <origin>  (26) 
adgpu

>  <m_score__min__energy>  (26) 
-11.23

>  <m_primary>  (26) 
energy

$$$$
26:0
     RDKit          3D

 58 61  0  0  0  0  0  0  0  0999 V2000
   -5.0170   23.7220  -27.7780 H   0  0  0  0  0  0  0  0  0  0  0  0
   -4.2170   23.2660  -27.3590 O   0  0  0  0  0  0  0  0  0  0  0  0
   -3.2780   22.5470  -28.1000 C   0  0  0  0  0  0  0  0  0  0  0  0
   -3.0750   21.1990  -27.7830 C   0  0  0  0  0  0  0  0  0  0  0  0
   -3.6338   20.7440  -26.9519 H   0  0  0  0  0  0  0  0  0  0  0  0
   -2.1690   20.4270  -28.5130 C   0  0  0  0  0  0  0  0  0  0  0  0
   -2.0118   19.3707  -28.2493 H   0  0  0  0  0  0  0  0  0  0  0  0
   -1.4610   20.9920  -29.5780 C   0  0  0  0  0  0  0  0  0  0  0  0
   -0.2800   20.0310  -30.4740 S   0  0  0  0  0  0  0  0  0  0  0  0
    0.9630   19.8720  -29.6440 O   0  0  0  0  0  0  0  0  0  0  0  0
   -0.8500   18.6610  -30.7230 O   0  0  0  0  0  0  0  0  0  0  0  0
    0.1480   20.7710  -31.9950 N   0  0  0  0  0  0  0  0  0  0  0  0
   -1.0610   21.1600  -32.7440 C   0  0  0  0  0  0  0  0  0  0  0  0
   -1.7638   20.3140  -32.7606 H   0  0  0  0  0  0  0  0  0  0  0  0
   -1.5213   22.0275  -32.2485 H   0  0  0  0  0  0  0  0  0  0  0  0
   -0.7010   21.5480  -34.1920 C   0  0  0  0  0  0  0  0  0  0  0  0
   -0.9956   20.7308  -34.8669 H   0  0  0  0  0  0  0  0  0  0  0  0
   -1.2366   22.4737  -34.4494 H   0  0  0  0  0  0  0  0  0  0  0  0
    0.6880   21.7800  -34.3260 O   0  0  0  0  0  0  0  0  0  0  0  0
    1.4090   20.5800  -34.0940 C   0  0  0  0  0  0  0  0  0  0  0  0
    1.2476   19.9024  -34.9453 H   0  0  0  0  0  0  0  0  0  0  0  0
    2.4703   20.8466  -33.9816 H   0  0  0  0  0  0  0  0  0  0  0  0
    0.9700   19.8620  -32.8020 C   0  0  0  0  0  0  0  0  0  0  0  0
    0.3833   18.9680  -33.0601 H   0  0  0  0  0  0  0  0  0  0  0  0
    1.8590   19.5626  -32.2276 H   0  0  0  0  0  0  0  0  0  0  0  0
   -1.6650   22.3370  -29.9070 C   0  0  0  0  0  0  0  0  0  0  0  0
   -1.1229   22.7772  -30.7569 H   0  0  0  0  0  0  0  0  0  0  0  0
   -2.5530   23.1300  -29.1650 C   0  0  0  0  0  0  0  0  0  0  0  0
   -2.6560   24.5650  -29.4950 C   0  0  0  0  0  0  0  0  0  0  0  0
   -1.8450   25.3840  -28.9890 O   0  0  0  0  0  0  0  0  0  0  0  0
   -3.5960   25.0270  -30.4720 N   0  0  0  0  0  0  0  0  0  0  0  0
   -4.8350   24.3720  -30.7820 C   0  0  0  0  0  0  0  0  0  0  0  0
   -6.0310   24.9080  -30.2900 C   0  0  0  0  0  0  0  0  0  0  0  0
   -6.0208   25.8671  -29.7515 H   0  0  0  0  0  0  0  0  0  0  0  0
   -7.2370   24.2300  -30.4800 C   0  0  0  0  0  0  0  0  0  0  0  0
   -8.1764   24.6683  -30.1120 H   0  0  0  0  0  0  0  0  0  0  0  0
   -7.2540   22.9950  -31.1370 C   0  0  0  0  0  0  0  0  0  0  0  0
   -8.2016   22.4492  -31.2560 H   0  0  0  0  0  0  0  0  0  0  0  0
   -6.0650   22.4520  -31.6440 C   0  0  0  0  0  0  0  0  0  0  0  0
   -6.0310   20.8470  -32.3690 S   0  0  0  0  0  0  0  0  0  0  0  0
   -6.3860   19.8560  -31.2950 O   0  0  0  0  0  0  0  0  0  0  0  0
   -7.0490   20.7030  -33.4630 O   0  0  0  0  0  0  0  0  0  0  0  0
   -4.4360   20.4620  -32.9440 N   0  0  0  0  0  0  0  0  0  0  0  0
   -3.9800   19.4110  -33.5660 C   0  0  0  0  0  0  0  0  0  0  0  0
   -2.7090   19.3010  -33.8750 O   0  0  0  0  0  0  0  0  0  0  0  0
   -2.4520   18.1610  -34.4460 N   0  0  0  0  0  0  0  0  0  0  0  0
   -3.6160   17.4900  -34.5270 C   0  0  0  0  0  0  0  0  0  0  0  0
   -3.7250   16.0980  -35.0650 C   0  0  0  0  0  0  0  0  0  0  0  0
   -3.7808   15.3852  -34.2291 H   0  0  0  0  0  0  0  0  0  0  0  0
   -4.6326   16.0129  -35.6807 H   0  0  0  0  0  0  0  0  0  0  0  0
   -2.8418   15.8727  -35.6807 H   0  0  0  0  0  0  0  0  0  0  0  0
   -4.6400   18.2560  -33.9880 C   0  0  0  0  0  0  0  0  0  0  0  0
   -6.0770   17.8450  -33.8880 C   0  0  0  0  0  0  0  0  0  0  0  0
   -6.3622   17.7634  -32.8287 H   0  0  0  0  0  0  0  0  0  0  0  0
   -6.7090   18.5984  -34.3809 H   0  0  0  0  0  0  0  0  0  0  0  0
   -6.2151   16.8714  -34.3809 H   0  0  0  0  0  0  0  0  0  0  0  0
   -4.8590   23.1460  -31.4700 C   0  0  0  0  0  0  0  0  0  0  0  0
   -3.9252   22.7284  -31.8746 H   0  0  0  0  0  0  0  0  0  0  0  0
  1  2  1  0
  2  3  1  0
  3  4  2  0
  4  5  1  0
  4  6  1  0
  6  7  1  0
  6  8  2  0
  8  9  1  0
  9 10  2  0
  9 11  2  0
  9 12  1  0
 12 13  1  0
 13 14  1  0
 13 15  1  0
 13 16  1  0
 16 17  1  0
 16 18  1  0
 16 19  1  0
 19 20  1  0
 20 21  1  0
 20 22  1  0
 20 23  1  0
 23 24  1  0
 23 25  1  0
  8 26  1  0
 26 27  1  0
 26 28  2  0
 28 29  1  0
 29 30  2  0
 29 31  1  0
 31 32  1  0
 32 33  2  0
 33 34  1  0
 33 35  1  0
 35 36  1  0
 35 37  2  0
 37 38  1  0
 37 39  1  0
 39 40  1  0
 40 41  2  0
 40 42  2  0
 40 43  1  0
 43 44  2  0
 44 45  1  0
 45 46  1  0
 46 47  1  0
 47 48  1  0
 48 49  1  0
 48 50  1  0
 48 51  1  0
 47 52  2  0
 52 53  1  0
 53 54  1  0
 53 55  1  0
 53 56  1  0
 39 57  2  0
 57 58  1  0
 28  3  1  0
 57 32  1  0
 23 12  1  0
 52 44  1  0
M  CHG  2  31  -1  46  -1
M  END
>  <UniqueID>  (27) 
26

>  <SMILES>  (27) 
Cc1[n-]o/c(=N/S(=O)(=O)c2cccc([N-]C(=O)c3cc(S(=O)(=O)N4CCOCC4)ccc3O)c2)c1C

>  <Energy>  (27) 
114.99993848761282

>  <Genealogy>  (27) 
Cc1[n-]oc(=NS(=O)(=O)c2cccc([N-]C(=O)c3cc(S(=O)(=O)N4CCOCC4)ccc3O)c2)c1C (protonated)
Cc1[n-]o/c(=N/S(=O)(=O)c2cccc([N-]C(=O)c3cc(S(=O)(=O)N4CCOCC4)ccc3O)c2)c1C (cis-trans isomerization)
Cc1[n-]o/c(=N/S(=O)(=O)c2cccc([N-]C(=O)c3cc(S(=O)(=O)N4CCOCC4)ccc3O)c2)c1C (3D coordinates assigned)
Cc1[n-]o/c(=N/S(=O)(=O)c2cccc([N-]C(=O)c3cc(S(=O)(=O)N4CCOCC4)ccc3O)c2)c1C (nonaromatic ring conformer: 114.99993848761282 kcal/mol)

>  <smiles>  (27) 
Cc1[nH]oc(=NS(=O)(=O)c2cccc(NC(=O)c3cc(S(=O)(=O)N4CCOCC4)ccc3O)c2)c1C

>  <score_type>  (27) 
oracle

>  <origin>  (27) 
adgpu

>  <m_score__min__energy>  (27) 
-13.01

>  <m_primary>  (27) 
energy

$$$$
27:0
     RDKit          3D

 58 61  0  0  0  0  0  0  0  0999 V2000
   -2.3570   19.6070  -27.0490 C   0  0  0  0  0  0  0  0  0  0  0  0
   -1.3090   21.0430  -26.9850 S   0  0  0  0  0  0  0  0  0  0  0  0
    0.0810   20.6740  -27.4250 O   0  0  0  0  0  0  0  0  0  0  0  0
   -1.2500   21.5540  -25.5730 O   0  0  0  0  0  0  0  0  0  0  0  0
   -1.9520   22.2870  -28.0530 C   0  0  0  0  0  0  0  0  0  0  0  0
   -1.2520   23.4860  -28.2250 C   0  0  0  0  0  0  0  0  0  0  0  0
   -1.7610   24.4840  -29.0600 C   0  0  0  0  0  0  0  0  0  0  0  0
   -2.9690   24.2880  -29.7380 C   0  0  0  0  0  0  0  0  0  0  0  0
   -3.4850   25.3220  -30.5090 O   0  0  0  0  0  0  0  0  0  0  0  0
   -3.6580   23.0640  -29.6070 C   0  0  0  0  0  0  0  0  0  0  0  0
   -4.8960   22.8090  -30.2850 N   0  0  0  0  0  0  0  0  0  0  0  0
   -5.0600   22.6710  -31.7030 C   0  0  0  0  0  0  0  0  0  0  0  0
   -5.7140   23.5380  -32.3430 O   0  0  0  0  0  0  0  0  0  0  0  0
   -4.3940   21.5560  -32.4210 C   0  0  0  0  0  0  0  0  0  0  0  0
   -3.0400   21.6870  -32.7860 C   0  0  0  0  0  0  0  0  0  0  0  0
   -2.3910   20.6780  -33.5080 C   0  0  0  0  0  0  0  0  0  0  0  0
   -0.7010   20.8560  -33.9760 S   0  0  0  0  0  0  0  0  0  0  0  0
   -0.3460   19.8280  -35.0160 O   0  0  0  0  0  0  0  0  0  0  0  0
   -0.4970   22.2300  -34.5490 O   0  0  0  0  0  0  0  0  0  0  0  0
    0.3270   20.6480  -32.5760 N   0  0  0  0  0  0  0  0  0  0  0  0
   -0.2670   21.2810  -31.3900 C   0  0  0  0  0  0  0  0  0  0  0  0
    0.0160   20.3710  -30.2130 C   0  0  0  0  0  0  0  0  0  0  0  0
    0.0660   18.9930  -30.8250 C   0  0  0  0  0  0  0  0  0  0  0  0
    0.5200   19.2240  -32.2590 C   0  0  0  0  0  0  0  0  0  0  0  0
   -3.0870   19.5170  -33.8560 C   0  0  0  0  0  0  0  0  0  0  0  0
   -4.4250   19.3670  -33.4940 C   0  0  0  0  0  0  0  0  0  0  0  0
   -5.0870   20.3730  -32.7760 C   0  0  0  0  0  0  0  0  0  0  0  0
   -6.4410   20.1500  -32.3670 N   0  0  0  0  0  0  0  0  0  0  0  0
   -6.9060   18.8750  -31.8530 C   0  0  0  0  0  0  0  0  0  0  0  0
   -8.3840   19.0830  -31.5480 C   0  0  0  0  0  0  0  0  0  0  0  0
   -8.8030   20.3180  -32.3450 C   0  0  0  0  0  0  0  0  0  0  0  0
   -7.5180   21.0830  -32.6430 C   0  0  0  0  0  0  0  0  0  0  0  0
   -3.1560   22.0830  -28.7410 C   0  0  0  0  0  0  0  0  0  0  0  0
   -2.5950   19.2809  -26.0258 H   0  0  0  0  0  0  0  0  0  0  0  0
   -3.2875   19.8555  -27.5804 H   0  0  0  0  0  0  0  0  0  0  0  0
   -1.8365   18.7966  -27.5804 H   0  0  0  0  0  0  0  0  0  0  0  0
   -0.2977   23.6436  -27.7011 H   0  0  0  0  0  0  0  0  0  0  0  0
   -1.2097   25.4276  -29.1848 H   0  0  0  0  0  0  0  0  0  0  0  0
   -2.4856   22.5931  -32.5004 H   0  0  0  0  0  0  0  0  0  0  0  0
    0.1873   22.2686  -31.2216 H   0  0  0  0  0  0  0  0  0  0  0  0
   -1.3494   21.4252  -31.5230 H   0  0  0  0  0  0  0  0  0  0  0  0
    0.9774   20.6259  -29.7433 H   0  0  0  0  0  0  0  0  0  0  0  0
   -0.7406   20.4559  -29.4191 H   0  0  0  0  0  0  0  0  0  0  0  0
    0.7845   18.3560  -30.2884 H   0  0  0  0  0  0  0  0  0  0  0  0
   -0.9051   18.4790  -30.7734 H   0  0  0  0  0  0  0  0  0  0  0  0
    1.5831   18.9602  -32.3606 H   0  0  0  0  0  0  0  0  0  0  0  0
   -0.0640   18.5974  -32.9492 H   0  0  0  0  0  0  0  0  0  0  0  0
   -2.5778   18.7195  -34.4170 H   0  0  0  0  0  0  0  0  0  0  0  0
   -4.9661   18.4512  -33.7742 H   0  0  0  0  0  0  0  0  0  0  0  0
   -6.7751   18.0843  -32.6065 H   0  0  0  0  0  0  0  0  0  0  0  0
   -6.3425   18.5604  -30.9622 H   0  0  0  0  0  0  0  0  0  0  0  0
   -8.9678   18.2062  -31.8649 H   0  0  0  0  0  0  0  0  0  0  0  0
   -8.5604   19.2170  -30.4705 H   0  0  0  0  0  0  0  0  0  0  0  0
   -9.2956   20.0190  -33.2820 H   0  0  0  0  0  0  0  0  0  0  0  0
   -9.5183   20.9362  -31.7828 H   0  0  0  0  0  0  0  0  0  0  0  0
   -7.4934   21.3984  -33.6965 H   0  0  0  0  0  0  0  0  0  0  0  0
   -7.4347   21.9955  -32.0344 H   0  0  0  0  0  0  0  0  0  0  0  0
   -3.7120   21.1444  -28.6000 H   0  0  0  0  0  0  0  0  0  0  0  0
  1  2  1  0
  2  3  2  0
  2  4  2  0
  2  5  1  0
  5  6  2  0
  6  7  1  0
  7  8  2  0
  8  9  1  0
  8 10  1  0
 10 11  1  0
 11 12  1  0
 12 13  2  0
 12 14  1  0
 14 15  2  0
 15 16  1  0
 16 17  1  0
 17 18  2  0
 17 19  2  0
 17 20  1  0
 20 21  1  0
 21 22  1  0
 22 23  1  0
 23 24  1  0
 16 25  2  0
 25 26  1  0
 26 27  2  0
 27 28  1  0
 28 29  1  0
 29 30  1  0
 30 31  1  0
 31 32  1  0
 10 33  2  0
 33  5  1  0
 27 14  1  0
 32 28  1  0
 24 20  1  0
  1 34  1  0
  1 35  1  0
  1 36  1  0
  6 37  1  0
  7 38  1  0
 15 39  1  0
 21 40  1  0
 21 41  1  0
 22 42  1  0
 22 43  1  0
 23 44  1  0
 23 45  1  0
 24 46  1  0
 24 47  1  0
 25 48  1  0
 26 49  1  0
 29 50  1  0
 29 51  1  0
 30 52  1  0
 30 53  1  0
 31 54  1  0
 31 55  1  0
 32 56  1  0
 32 57  1  0
 33 58  1  0
M  CHG  2   9  -1  11  -1
M  END
>  <UniqueID>  (28) 
27

>  <SMILES>  (28) 
CS(=O)(=O)c1ccc([O-])c([N-]C(=O)c2cc(S(=O)(=O)N3CCCC3)ccc2N2CCCC2)c1

>  <Energy>  (28) 
71.72756755411987

>  <Genealogy>  (28) 
CS(=O)(=O)c1ccc([O-])c([N-]C(=O)c2cc(S(=O)(=O)N3CCCC3)ccc2N2CCCC2)c1 (protonated)
CS(=O)(=O)c1ccc([O-])c([N-]C(=O)c2cc(S(=O)(=O)N3CCCC3)ccc2N2CCCC2)c1 (3D coordinates assigned)
CS(=O)(=O)c1ccc([O-])c([N-]C(=O)c2cc(S(=O)(=O)N3CCCC3)ccc2N2CCCC2)c1 (nonaromatic ring conformer: 71.72756755411987 kcal/mol)

>  <smiles>  (28) 
CS(=O)(=O)c1ccc(O)c(NC(=O)c2cc(S(=O)(=O)N3CCCC3)ccc2N2CCCC2)c1

>  <score_type>  (28) 
oracle

>  <origin>  (28) 
adgpu

>  <m_score__min__energy>  (28) 
-13.640000000000001

>  <m_primary>  (28) 
energy

$$$$
28:0
     RDKit          3D

 83 88  0  0  0  0  0  0  0  0999 V2000
   -6.1980   17.4650  -33.6970 C   0  0  0  0  0  0  0  0  0  0  0  0
   -6.2890   18.9320  -33.7140 N   0  0  0  0  0  0  0  0  0  0  0  0
   -4.9860   19.5240  -33.3390 C   0  0  0  0  0  0  0  0  0  0  0  0
   -5.1070   21.0300  -33.0890 C   0  0  0  0  0  0  0  0  0  0  0  0
   -6.1300   21.3020  -32.0730 N   0  0  0  0  0  0  0  0  0  0  0  0
   -6.0850   22.5240  -31.3190 C   0  0  0  0  0  0  0  0  0  0  0  0
   -7.1630   23.4200  -31.3760 C   0  0  0  0  0  0  0  0  0  0  0  0
   -7.1540   24.5900  -30.6150 C   0  0  0  0  0  0  0  0  0  0  0  0
   -6.0720   24.8730  -29.7810 C   0  0  0  0  0  0  0  0  0  0  0  0
   -4.9890   23.9980  -29.7230 C   0  0  0  0  0  0  0  0  0  0  0  0
   -4.9670   22.8360  -30.5180 C   0  0  0  0  0  0  0  0  0  0  0  0
   -3.8380   21.9500  -30.5040 N   0  0  0  0  0  0  0  0  0  0  0  0
   -2.4690   22.2880  -30.7780 C   0  0  0  0  0  0  0  0  0  0  0  0
   -2.0760   23.4580  -30.5230 O   0  0  0  0  0  0  0  0  0  0  0  0
   -1.4910   21.2990  -31.2700 C   0  0  0  0  0  0  0  0  0  0  0  0
   -1.3790   19.9860  -30.8250 C   0  0  0  0  0  0  0  0  0  0  0  0
   -0.3430   19.4410  -31.5570 C   0  0  0  0  0  0  0  0  0  0  0  0
    0.1790   18.1520  -31.4790 C   0  0  0  0  0  0  0  0  0  0  0  0
    1.2660   17.8260  -32.3190 C   0  0  0  0  0  0  0  0  0  0  0  0
    1.8640   16.5190  -32.3130 N   0  0  0  0  0  0  0  0  0  0  0  0
    2.6160   15.9430  -31.2350 C   0  0  0  0  0  0  0  0  0  0  0  0
    3.6960   15.3370  -31.4620 O   0  0  0  0  0  0  0  0  0  0  0  0
    2.1240   15.9970  -29.8940 N   0  0  0  0  0  0  0  0  0  0  0  0
    2.6660   16.8530  -28.8420 C   0  0  0  0  0  0  0  0  0  0  0  0
    1.6240   17.8390  -28.3900 C   0  0  0  0  0  0  0  0  0  0  0  0
    1.9090   19.2140  -28.3370 C   0  0  0  0  0  0  0  0  0  0  0  0
    0.9430   20.1160  -27.8740 C   0  0  0  0  0  0  0  0  0  0  0  0
   -0.3180   19.6570  -27.4670 C   0  0  0  0  0  0  0  0  0  0  0  0
   -1.5410   20.7940  -26.8910 S   0  0  0  0  0  0  0  0  0  0  0  0
   -1.2210   21.1860  -25.4760 O   0  0  0  0  0  0  0  0  0  0  0  0
   -2.8840   20.1200  -26.8900 O   0  0  0  0  0  0  0  0  0  0  0  0
   -1.6240   22.2280  -27.8910 N   0  0  0  0  0  0  0  0  0  0  0  0
   -0.3830   23.0190  -27.7630 C   0  0  0  0  0  0  0  0  0  0  0  0
   -0.5820   24.4400  -28.3110 C   0  0  0  0  0  0  0  0  0  0  0  0
   -1.6520   25.1790  -27.5940 N   0  0  0  0  0  0  0  0  0  0  0  0
   -1.0900   26.1890  -26.6840 C   0  0  0  0  0  0  0  0  0  0  0  0
   -2.5980   24.3020  -26.8680 C   0  0  0  0  0  0  0  0  0  0  0  0
   -2.8620   23.0040  -27.6460 C   0  0  0  0  0  0  0  0  0  0  0  0
   -0.6060   18.2870  -27.5290 C   0  0  0  0  0  0  0  0  0  0  0  0
    0.3610   17.3830  -27.9760 C   0  0  0  0  0  0  0  0  0  0  0  0
    1.7510   18.7900  -33.2290 C   0  0  0  0  0  0  0  0  0  0  0  0
    1.1770   20.0690  -33.2680 C   0  0  0  0  0  0  0  0  0  0  0  0
    0.1540   20.3430  -32.4200 N   0  0  0  0  0  0  0  0  0  0  0  0
   -0.5380   21.4840  -32.2680 C   0  0  0  0  0  0  0  0  0  0  0  0
   -7.0500   20.2310  -31.6780 C   0  0  0  0  0  0  0  0  0  0  0  0
   -7.4490   19.4090  -32.9140 C   0  0  0  0  0  0  0  0  0  0  0  0
   -6.1760   17.1110  -32.6557 H   0  0  0  0  0  0  0  0  0  0  0  0
   -7.0714   17.0375  -34.2113 H   0  0  0  0  0  0  0  0  0  0  0  0
   -5.2785   17.1487  -34.2113 H   0  0  0  0  0  0  0  0  0  0  0  0
   -4.6225   19.0372  -32.4220 H   0  0  0  0  0  0  0  0  0  0  0  0
   -4.2826   19.3667  -34.1700 H   0  0  0  0  0  0  0  0  0  0  0  0
   -4.1385   21.4180  -32.7404 H   0  0  0  0  0  0  0  0  0  0  0  0
   -5.3979   21.5241  -34.0278 H   0  0  0  0  0  0  0  0  0  0  0  0
   -8.0225   23.1986  -32.0258 H   0  0  0  0  0  0  0  0  0  0  0  0
   -8.0008   25.2896  -30.6729 H   0  0  0  0  0  0  0  0  0  0  0  0
   -6.0738   25.7871  -29.1691 H   0  0  0  0  0  0  0  0  0  0  0  0
   -4.1455   24.2165  -29.0516 H   0  0  0  0  0  0  0  0  0  0  0  0
   -1.9861   19.4882  -30.0545 H   0  0  0  0  0  0  0  0  0  0  0  0
   -0.2427   17.4107  -30.7843 H   0  0  0  0  0  0  0  0  0  0  0  0
    2.9725   16.2306  -27.9884 H   0  0  0  0  0  0  0  0  0  0  0  0
    3.5342   17.4018  -29.2359 H   0  0  0  0  0  0  0  0  0  0  0  0
    2.8937   19.5829  -28.6601 H   0  0  0  0  0  0  0  0  0  0  0  0
    1.1746   21.1904  -27.8293 H   0  0  0  0  0  0  0  0  0  0  0  0
   -0.1012   23.0782  -26.7014 H   0  0  0  0  0  0  0  0  0  0  0  0
    0.4106   22.5256  -28.3433 H   0  0  0  0  0  0  0  0  0  0  0  0
    0.3620   24.9947  -28.2054 H   0  0  0  0  0  0  0  0  0  0  0  0
   -0.8831   24.3535  -29.3654 H   0  0  0  0  0  0  0  0  0  0  0  0
   -1.2619   25.8801  -25.6423 H   0  0  0  0  0  0  0  0  0  0  0  0
   -0.0091   26.2843  -26.8646 H   0  0  0  0  0  0  0  0  0  0  0  0
   -1.5788   27.1578  -26.8646 H   0  0  0  0  0  0  0  0  0  0  0  0
   -2.1723   24.0509  -25.8853 H   0  0  0  0  0  0  0  0  0  0  0  0
   -3.5513   24.8385  -26.7524 H   0  0  0  0  0  0  0  0  0  0  0  0
   -3.5599   22.3814  -27.0670 H   0  0  0  0  0  0  0  0  0  0  0  0
   -3.2826   23.2801  -28.6242 H   0  0  0  0  0  0  0  0  0  0  0  0
   -1.5978   17.9217  -27.2244 H   0  0  0  0  0  0  0  0  0  0  0  0
    0.1321   16.3074  -28.0040 H   0  0  0  0  0  0  0  0  0  0  0  0
    2.5792   18.5380  -33.9076 H   0  0  0  0  0  0  0  0  0  0  0  0
    1.5472   20.8315  -33.9691 H   0  0  0  0  0  0  0  0  0  0  0  0
   -0.3782   22.4113  -32.8378 H   0  0  0  0  0  0  0  0  0  0  0  0
   -6.5551   19.5750  -30.9467 H   0  0  0  0  0  0  0  0  0  0  0  0
   -7.9512   20.6725  -31.2276 H   0  0  0  0  0  0  0  0  0  0  0  0
   -8.0231   18.5329  -32.5781 H   0  0  0  0  0  0  0  0  0  0  0  0
   -8.0380   20.0719  -33.5649 H   0  0  0  0  0  0  0  0  0  0  0  0
  1  2  1  0
  2  3  1  0
  3  4  1  0
  4  5  1  0
  5  6  1  0
  6  7  2  0
  7  8  1  0
  8  9  2  0
  9 10  1  0
 10 11  2  0
 11 12  1  0
 12 13  1  0
 13 14  2  0
 13 15  1  0
 15 16  1  0
 16 17  2  0
 17 18  1  0
 18 19  2  0
 19 20  1  0
 20 21  1  0
 21 22  2  0
 21 23  1  0
 23 24  1  0
 24 25  1  0
 25 26  2  0
 26 27  1  0
 27 28  2  0
 28 29  1  0
 29 30  2  0
 29 31  2  0
 29 32  1  0
 32 33  1  0
 33 34  1  0
 34 35  1  0
 35 36  1  0
 35 37  1  0
 37 38  1  0
 28 39  1  0
 39 40  2  0
 19 41  1  0
 41 42  2  0
 42 43  1  0
 43 44  1  0
  5 45  1  0
 45 46  1  0
 46  2  1  0
 11  6  1  0
 44 15  2  0
 43 17  1  0
 40 25  1  0
 38 32  1  0
  1 47  1  0
  1 48  1  0
  1 49  1  0
  3 50  1  0
  3 51  1  0
  4 52  1  0
  4 53  1  0
  7 54  1  0
  8 55  1  0
  9 56  1  0
 10 57  1  0
 16 58  1  0
 18 59  1  0
 24 60  1  0
 24 61  1  0
 26 62  1  0
 27 63  1  0
 33 64  1  0
 33 65  1  0
 34 66  1  0
 34 67  1  0
 36 68  1  0
 36 69  1  0
 36 70  1  0
 37 71  1  0
 37 72  1  0
 38 73  1  0
 38 74  1  0
 39 75  1  0
 40 76  1  0
 41 77  1  0
 42 78  1  0
 44 79  1  0
 45 80  1  0
 45 81  1  0
 46 82  1  0
 46 83  1  0
M  CHG  3  12  -1  20  -1  23  -1
M  END
>  <UniqueID>  (29) 
28

>  <SMILES>  (29) 
CN1CCN(c2ccccc2[N-]C(=O)c2cc3cc([N-]C(=O)[N-]Cc4ccc(S(=O)(=O)N5CCN(C)CC5)cc4)ccn3c2)CC1

>  <Energy>  (29) 
148.86437991855087

>  <Genealogy>  (29) 
CN1CCN(c2ccccc2[N-]C(=O)c2cc3cc([N-]C(=O)[N-]Cc4ccc(S(=O)(=O)N5CCN(C)CC5)cc4)ccn3c2)CC1 (protonated)
CN1CCN(c2ccccc2[N-]C(=O)c2cc3cc([N-]C(=O)[N-]Cc4ccc(S(=O)(=O)N5CCN(C)CC5)cc4)ccn3c2)CC1 (3D coordinates assigned)
CN1CCN(c2ccccc2[N-]C(=O)c2cc3cc([N-]C(=O)[N-]Cc4ccc(S(=O)(=O)N5CCN(C)CC5)cc4)ccn3c2)CC1 (nonaromatic ring conformer: 148.86437991855087 kcal/mol)

>  <smiles>  (29) 
CN1CCN(c2ccccc2NC(=O)c2cc3cc(NC(=O)NCc4ccc(S(=O)(=O)N5CCN(C)CC5)cc4)ccn3c2)CC1

>  <score_type>  (29) 
oracle

>  <origin>  (29) 
adgpu

>  <m_score__min__energy>  (29) 
-12.57

>  <m_primary>  (29) 
energy

$$$$
29:0
     RDKit          3D

 46 48  0  0  0  0  0  0  0  0999 V2000
   -0.5200   25.7710  -26.4480 C   0  0  0  0  0  0  0  0  0  0  0  0
   -1.3550   24.6710  -26.9470 N   0  0  0  0  0  0  0  0  0  0  0  0
   -2.3510   24.9360  -27.8390 C   0  0  0  0  0  0  0  0  0  0  0  0
   -3.1320   23.9080  -28.3600 C   0  0  0  0  0  0  0  0  0  0  0  0
   -4.4000   24.2900  -29.5410 S   0  0  0  0  0  0  0  0  0  0  0  0
   -5.5710   24.9300  -28.8490 O   0  0  0  0  0  0  0  0  0  0  0  0
   -3.8540   25.2810  -30.5320 O   0  0  0  0  0  0  0  0  0  0  0  0
   -4.9380   22.8610  -30.3930 N   0  0  0  0  0  0  0  0  0  0  0  0
   -3.9060   22.4100  -31.3520 C   0  0  0  0  0  0  0  0  0  0  0  0
   -4.4530   21.4620  -32.4470 C   0  0  0  0  0  0  0  0  0  0  0  0
   -5.7770   20.9170  -32.1130 N   0  0  0  0  0  0  0  0  0  0  0  0
   -6.1530   19.6110  -32.5930 C   0  0  0  0  0  0  0  0  0  0  0  0
   -7.3890   19.0480  -32.2310 C   0  0  0  0  0  0  0  0  0  0  0  0
   -7.7540   17.7820  -32.6980 C   0  0  0  0  0  0  0  0  0  0  0  0
   -6.8900   17.0650  -33.5290 C   0  0  0  0  0  0  0  0  0  0  0  0
   -5.6570   17.6130  -33.8950 C   0  0  0  0  0  0  0  0  0  0  0  0
   -4.5740   16.7130  -34.9400 Cl  0  0  0  0  0  0  0  0  0  0  0  0
   -5.2890   18.8800  -33.4290 C   0  0  0  0  0  0  0  0  0  0  0  0
   -6.8170   21.7940  -31.5550 C   0  0  0  0  0  0  0  0  0  0  0  0
   -6.2220   23.1180  -31.0670 C   0  0  0  0  0  0  0  0  0  0  0  0
   -2.8740   22.5970  -27.9370 C   0  0  0  0  0  0  0  0  0  0  0  0
   -3.5560   21.6440  -28.4070 O   0  0  0  0  0  0  0  0  0  0  0  0
   -1.8810   22.3500  -27.0240 N   0  0  0  0  0  0  0  0  0  0  0  0
   -1.5910   20.9650  -26.6110 C   0  0  0  0  0  0  0  0  0  0  0  0
   -1.1050   23.3820  -26.5570 C   0  0  0  0  0  0  0  0  0  0  0  0
   -0.1500   23.1450  -25.7640 O   0  0  0  0  0  0  0  0  0  0  0  0
   -0.5246   25.7650  -25.3480 H   0  0  0  0  0  0  0  0  0  0  0  0
    0.5104   25.6430  -26.8111 H   0  0  0  0  0  0  0  0  0  0  0  0
   -0.9203   26.7291  -26.8111 H   0  0  0  0  0  0  0  0  0  0  0  0
   -2.5398   25.9739  -28.1507 H   0  0  0  0  0  0  0  0  0  0  0  0
   -5.0750   22.1140  -29.6710 H   0  0  0  0  0  0  0  0  0  0  0  0
   -3.4749   23.2956  -31.8417 H   0  0  0  0  0  0  0  0  0  0  0  0
   -3.1567   21.8442  -30.7789 H   0  0  0  0  0  0  0  0  0  0  0  0
   -4.5302   22.0215  -33.3909 H   0  0  0  0  0  0  0  0  0  0  0  0
   -3.7562   20.6152  -32.5331 H   0  0  0  0  0  0  0  0  0  0  0  0
   -8.0734   19.6072  -31.5761 H   0  0  0  0  0  0  0  0  0  0  0  0
   -8.7237   17.3495  -32.4105 H   0  0  0  0  0  0  0  0  0  0  0  0
   -7.1798   16.0691  -33.8955 H   0  0  0  0  0  0  0  0  0  0  0  0
   -4.3176   19.3075  -33.7182 H   0  0  0  0  0  0  0  0  0  0  0  0
   -7.5660   22.0025  -32.3332 H   0  0  0  0  0  0  0  0  0  0  0  0
   -7.2800   21.2833  -30.6978 H   0  0  0  0  0  0  0  0  0  0  0  0
   -6.0579   23.7849  -31.9262 H   0  0  0  0  0  0  0  0  0  0  0  0
   -6.9178   23.5941  -30.3605 H   0  0  0  0  0  0  0  0  0  0  0  0
   -1.5784   20.9049  -25.5127 H   0  0  0  0  0  0  0  0  0  0  0  0
   -2.3682   20.2942  -27.0060 H   0  0  0  0  0  0  0  0  0  0  0  0
   -0.6100   20.6624  -27.0060 H   0  0  0  0  0  0  0  0  0  0  0  0
  1  2  1  0
  2  3  1  0
  3  4  2  0
  4  5  1  0
  5  6  2  0
  5  7  2  0
  5  8  1  0
  8  9  1  0
  9 10  1  0
 10 11  1  0
 11 12  1  0
 12 13  2  0
 13 14  1  0
 14 15  2  0
 15 16  1  0
 16 17  1  0
 16 18  2  0
 11 19  1  0
 19 20  1  0
  4 21  1  0
 21 22  2  0
 21 23  1  0
 23 24  1  0
 23 25  1  0
 25 26  2  0
 25  2  1  0
 20  8  1  0
 18 12  1  0
  1 27  1  0
  1 28  1  0
  1 29  1  0
  3 30  1  0
  8 31  1  0
  9 32  1  0
  9 33  1  0
 10 34  1  0
 10 35  1  0
 13 36  1  0
 14 37  1  0
 15 38  1  0
 18 39  1  0
 19 40  1  0
 19 41  1  0
 20 42  1  0
 20 43  1  0
 24 44  1  0
 24 45  1  0
 24 46  1  0
M  CHG  1   8   1
M  END
>  <UniqueID>  (30) 
29

>  <SMILES>  (30) 
Cn1cc(S(=O)(=O)[NH+]2CCN(c3cccc(Cl)c3)CC2)c(=O)n(C)c1=O

>  <Energy>  (30) 
61.73909852118228

>  <Genealogy>  (30) 
Cn1cc(S(=O)(=O)[NH+]2CCN(c3cccc(Cl)c3)CC2)c(=O)n(C)c1=O (protonated)
Cn1cc(S(=O)(=O)[NH+]2CCN(c3cccc(Cl)c3)CC2)c(=O)n(C)c1=O (3D coordinates assigned)
Cn1cc(S(=O)(=O)[NH+]2CCN(c3cccc(Cl)c3)CC2)c(=O)n(C)c1=O (nonaromatic ring conformer: 61.73909852118228 kcal/mol)

>  <smiles>  (30) 
Cn1cc(S(=O)(=O)N2CCN(c3cccc(Cl)c3)CC2)c(=O)n(C)c1=O

>  <score_type>  (30) 
oracle

>  <origin>  (30) 
adgpu

>  <m_score__min__energy>  (30) 
-7.8200000000000003

>  <m_primary>  (30) 
energy

$$$$
30:0
     RDKit          3D

 33 35  0  0  0  0  0  0  0  0999 V2000
   -5.2810   14.1520  -34.6180 N   0  0  0  0  0  0  0  0  0  0  0  0
   -5.6030   15.1990  -34.2460 C   0  0  0  0  0  0  0  0  0  0  0  0
   -6.0040   16.5000  -33.7860 C   0  0  0  0  0  0  0  0  0  0  0  0
   -7.2000   16.7860  -33.1400 C   0  0  0  0  0  0  0  0  0  0  0  0
   -7.1350   18.1410  -32.8960 C   0  0  0  0  0  0  0  0  0  0  0  0
   -8.0360   18.9980  -32.2700 C   0  0  0  0  0  0  0  0  0  0  0  0
   -9.2390   18.4920  -31.7750 O   0  0  0  0  0  0  0  0  0  0  0  0
   -7.6810   20.3670  -32.1640 C   0  0  0  0  0  0  0  0  0  0  0  0
   -8.8820   21.6210  -31.3390 Br  0  0  0  0  0  0  0  0  0  0  0  0
   -6.4440   20.8280  -32.6980 C   0  0  0  0  0  0  0  0  0  0  0  0
   -6.0800   22.2120  -32.5740 N   0  0  0  0  0  0  0  0  0  0  0  0
   -5.2090   22.7220  -31.5490 C   0  0  0  0  0  0  0  0  0  0  0  0
   -5.6280   23.8070  -30.7640 C   0  0  0  0  0  0  0  0  0  0  0  0
   -4.7930   24.3310  -29.7720 C   0  0  0  0  0  0  0  0  0  0  0  0
   -3.5240   23.7780  -29.5570 C   0  0  0  0  0  0  0  0  0  0  0  0
   -2.4670   24.4500  -28.3180 S   0  0  0  0  0  0  0  0  0  0  0  0
   -1.6000   25.7960  -28.9670 N   0  0  0  0  0  0  0  0  0  0  0  0
   -1.4930   23.4020  -27.8570 O   0  0  0  0  0  0  0  0  0  0  0  0
   -3.2860   24.8980  -27.1400 O   0  0  0  0  0  0  0  0  0  0  0  0
   -3.0890   22.7120  -30.3530 C   0  0  0  0  0  0  0  0  0  0  0  0
   -3.9230   22.1870  -31.3440 C   0  0  0  0  0  0  0  0  0  0  0  0
   -5.5540   19.9130  -33.3080 C   0  0  0  0  0  0  0  0  0  0  0  0
   -4.3170   20.3180  -33.7950 O   0  0  0  0  0  0  0  0  0  0  0  0
   -5.9390   18.5800  -33.3950 C   0  0  0  0  0  0  0  0  0  0  0  0
   -5.2680   17.5850  -33.9250 O   0  0  0  0  0  0  0  0  0  0  0  0
   -8.0125   16.0907  -32.8823 H   0  0  0  0  0  0  0  0  0  0  0  0
   -9.3010   17.9690  -30.9110 H   0  0  0  0  0  0  0  0  0  0  0  0
   -6.4510   22.8800  -33.2870 H   0  0  0  0  0  0  0  0  0  0  0  0
   -6.6215   24.2491  -30.9303 H   0  0  0  0  0  0  0  0  0  0  0  0
   -5.1333   25.1789  -29.1595 H   0  0  0  0  0  0  0  0  0  0  0  0
   -1.5820   25.6740  -30.0040 H   0  0  0  0  0  0  0  0  0  0  0  0
   -2.0868   22.2858  -30.1980 H   0  0  0  0  0  0  0  0  0  0  0  0
   -3.5727   21.3511  -31.9673 H   0  0  0  0  0  0  0  0  0  0  0  0
  1  2  3  0
  2  3  1  0
  3  4  2  0
  4  5  1  0
  5  6  2  0
  6  7  1  0
  6  8  1  0
  8  9  1  0
  8 10  2  0
 10 11  1  0
 11 12  1  0
 12 13  2  0
 13 14  1  0
 14 15  2  0
 15 16  1  0
 16 17  1  0
 16 18  2  0
 16 19  2  0
 15 20  1  0
 20 21  2  0
 10 22  1  0
 22 23  1  0
 22 24  2  0
 24 25  1  0
 25  3  1  0
 24  5  1  0
 21 12  1  0
  4 26  1  0
  7 27  1  0
 11 28  1  0
 13 29  1  0
 14 30  1  0
 17 31  1  0
 20 32  1  0
 21 33  1  0
M  CHG  2  17  -1  23  -1
M  END
>  <UniqueID>  (31) 
30

>  <SMILES>  (31) 
N#Cc1cc2c(O)c(Br)c(Nc3ccc(S([NH-])(=O)=O)cc3)c([O-])c2o1

>  <Energy>  (31) 
76.8999140070538

>  <Genealogy>  (31) 
N#Cc1cc2c(O)c(Br)c(Nc3ccc(S([NH-])(=O)=O)cc3)c([O-])c2o1 (protonated)
N#Cc1cc2c(O)c(Br)c(Nc3ccc(S([NH-])(=O)=O)cc3)c([O-])c2o1 (3D coordinates assigned)
N#Cc1cc2c(O)c(Br)c(Nc3ccc(S([NH-])(=O)=O)cc3)c([O-])c2o1 (optimized conformer: 76.8999140070538 kcal/mol)

>  <smiles>  (31) 
N#Cc1cc2c(O)c(Br)c(Nc3ccc(S(N)(=O)=O)cc3)c(O)c2o1

>  <score_type>  (31) 
oracle

>  <origin>  (31) 
adgpu

>  <m_score__min__energy>  (31) 
-10.699999999999999

>  <m_primary>  (31) 
energy

$$$$
31:0
     RDKit          3D

 81 87  0  0  0  0  0  0  0  0999 V2000
    0.5860   19.5820  -36.3240 C   0  0  0  0  0  0  0  0  0  0  0  0
    0.0770   19.9190  -34.9490 C   0  0  0  0  0  0  0  0  0  0  0  0
    0.6460   20.9870  -34.2390 C   0  0  0  0  0  0  0  0  0  0  0  0
    0.1980   21.3030  -32.9540 C   0  0  0  0  0  0  0  0  0  0  0  0
   -0.8390   20.5640  -32.3580 C   0  0  0  0  0  0  0  0  0  0  0  0
   -1.3400   20.9060  -31.0040 C   0  0  0  0  0  0  0  0  0  0  0  0
   -1.8250   19.9950  -30.2800 O   0  0  0  0  0  0  0  0  0  0  0  0
   -1.2440   22.2310  -30.4610 N   0  0  0  0  0  0  0  0  0  0  0  0
   -2.1810   22.8660  -29.5750 C   0  0  0  0  0  0  0  0  0  0  0  0
   -3.4560   23.2460  -30.0330 C   0  0  0  0  0  0  0  0  0  0  0  0
   -4.3620   23.9110  -29.1920 C   0  0  0  0  0  0  0  0  0  0  0  0
   -5.7070   24.3070  -29.7760 C   0  0  0  0  0  0  0  0  0  0  0  0
   -5.7330   25.4420  -30.7920 C   0  0  0  0  0  0  0  0  0  0  0  0
   -6.2570   25.6700  -29.3790 C   0  0  0  0  0  0  0  0  0  0  0  0
   -3.9750   24.1820  -27.8650 C   0  0  0  0  0  0  0  0  0  0  0  0
   -2.7210   23.7880  -27.3970 C   0  0  0  0  0  0  0  0  0  0  0  0
   -1.8260   23.0920  -28.2290 C   0  0  0  0  0  0  0  0  0  0  0  0
   -0.4440   22.7140  -27.7290 C   0  0  0  0  0  0  0  0  0  0  0  0
   -0.3080   21.2560  -27.5250 N   0  0  0  0  0  0  0  0  0  0  0  0
   -1.6250   20.5870  -27.5030 C   0  0  0  0  0  0  0  0  0  0  0  0
   -1.4600   19.0950  -27.1370 C   0  0  0  0  0  0  0  0  0  0  0  0
   -0.0470   18.6680  -27.2280 N   0  0  0  0  0  0  0  0  0  0  0  0
    0.0550   17.2050  -27.1040 C   0  0  0  0  0  0  0  0  0  0  0  0
    0.5460   19.1200  -28.5000 C   0  0  0  0  0  0  0  0  0  0  0  0
    0.5400   20.6610  -28.5800 C   0  0  0  0  0  0  0  0  0  0  0  0
   -1.3750   19.4670  -33.0500 C   0  0  0  0  0  0  0  0  0  0  0  0
   -0.9200   19.1370  -34.3320 C   0  0  0  0  0  0  0  0  0  0  0  0
   -1.4780   18.0080  -35.0030 N   0  0  0  0  0  0  0  0  0  0  0  0
   -2.3790   16.8150  -34.1340 S   0  0  0  0  0  0  0  0  0  0  0  0
   -2.5600   15.6030  -35.0030 O   0  0  0  0  0  0  0  0  0  0  0  0
   -1.6110   16.4220  -32.9040 O   0  0  0  0  0  0  0  0  0  0  0  0
   -3.9570   17.4490  -33.6820 C   0  0  0  0  0  0  0  0  0  0  0  0
   -5.0250   16.5750  -33.4590 C   0  0  0  0  0  0  0  0  0  0  0  0
   -6.2720   17.0700  -33.0730 C   0  0  0  0  0  0  0  0  0  0  0  0
   -6.4690   18.4510  -32.8980 C   0  0  0  0  0  0  0  0  0  0  0  0
   -5.3910   19.3380  -33.1170 C   0  0  0  0  0  0  0  0  0  0  0  0
   -4.1400   18.8260  -33.5080 C   0  0  0  0  0  0  0  0  0  0  0  0
   -5.5810   20.7960  -32.9270 C   0  0  0  0  0  0  0  0  0  0  0  0
   -4.6190   21.5870  -33.1190 O   0  0  0  0  0  0  0  0  0  0  0  0
   -6.9030   21.3250  -32.5100 C   0  0  0  0  0  0  0  0  0  0  0  0
   -7.0950   22.7070  -32.3280 C   0  0  0  0  0  0  0  0  0  0  0  0
   -8.3380   23.2020  -31.9320 C   0  0  0  0  0  0  0  0  0  0  0  0
   -9.4020   22.3260  -31.7140 C   0  0  0  0  0  0  0  0  0  0  0  0
   -9.2280   20.9520  -31.8910 C   0  0  0  0  0  0  0  0  0  0  0  0
   -7.9800   20.4390  -32.2900 C   0  0  0  0  0  0  0  0  0  0  0  0
   -7.7890   18.9810  -32.4770 C   0  0  0  0  0  0  0  0  0  0  0  0
   -8.7510   18.1880  -32.2760 O   0  0  0  0  0  0  0  0  0  0  0  0
    1.5004   18.9766  -36.2383 H   0  0  0  0  0  0  0  0  0  0  0  0
   -0.1809   19.0126  -36.8695 H   0  0  0  0  0  0  0  0  0  0  0  0
    0.8107   20.5104  -36.8695 H   0  0  0  0  0  0  0  0  0  0  0  0
    1.4510   21.5800  -34.6976 H   0  0  0  0  0  0  0  0  0  0  0  0
    0.6601   22.1363  -32.4044 H   0  0  0  0  0  0  0  0  0  0  0  0
   -3.7480   23.0179  -31.0687 H   0  0  0  0  0  0  0  0  0  0  0  0
   -6.0866   23.2747  -29.7598 H   0  0  0  0  0  0  0  0  0  0  0  0
   -4.7930   25.9146  -31.1131 H   0  0  0  0  0  0  0  0  0  0  0  0
   -6.1434   25.5709  -31.8044 H   0  0  0  0  0  0  0  0  0  0  0  0
   -5.6953   26.3075  -28.6803 H   0  0  0  0  0  0  0  0  0  0  0  0
   -7.2026   26.0320  -28.9491 H   0  0  0  0  0  0  0  0  0  0  0  0
   -4.6674   24.7088  -27.1919 H   0  0  0  0  0  0  0  0  0  0  0  0
   -2.4285   24.0250  -26.3634 H   0  0  0  0  0  0  0  0  0  0  0  0
    0.3025   23.0403  -28.4681 H   0  0  0  0  0  0  0  0  0  0  0  0
   -0.2867   23.2087  -26.7592 H   0  0  0  0  0  0  0  0  0  0  0  0
   -2.2681   21.0753  -26.7560 H   0  0  0  0  0  0  0  0  0  0  0  0
   -2.0828   20.6632  -28.5003 H   0  0  0  0  0  0  0  0  0  0  0  0
   -1.8154   18.9379  -26.1079 H   0  0  0  0  0  0  0  0  0  0  0  0
   -2.0478   18.4977  -27.8495 H   0  0  0  0  0  0  0  0  0  0  0  0
    0.0743   16.9277  -26.0397 H   0  0  0  0  0  0  0  0  0  0  0  0
   -0.8125   16.7345  -27.5898 H   0  0  0  0  0  0  0  0  0  0  0  0
    0.9794   16.8594  -27.5898 H   0  0  0  0  0  0  0  0  0  0  0  0
    1.5826   18.7579  -28.5653 H   0  0  0  0  0  0  0  0  0  0  0  0
   -0.0487   18.7176  -29.3333 H   0  0  0  0  0  0  0  0  0  0  0  0
    1.5697   21.0290  -28.4605 H   0  0  0  0  0  0  0  0  0  0  0  0
    0.1300   20.9538  -29.5578 H   0  0  0  0  0  0  0  0  0  0  0  0
   -2.1619   18.8593  -32.5794 H   0  0  0  0  0  0  0  0  0  0  0  0
   -4.8821   15.4920  -33.5883 H   0  0  0  0  0  0  0  0  0  0  0  0
   -7.1070   16.3740  -32.9045 H   0  0  0  0  0  0  0  0  0  0  0  0
   -3.2985   19.5137  -33.6784 H   0  0  0  0  0  0  0  0  0  0  0  0
   -6.2596   23.4018  -32.4991 H   0  0  0  0  0  0  0  0  0  0  0  0
   -8.4793   24.2838  -31.7915 H   0  0  0  0  0  0  0  0  0  0  0  0
  -10.3808   22.7191  -31.4018 H   0  0  0  0  0  0  0  0  0  0  0  0
  -10.0710   20.2670  -31.7176 H   0  0  0  0  0  0  0  0  0  0  0  0
  1  2  1  0
  2  3  2  0
  3  4  1  0
  4  5  2  0
  5  6  1  0
  6  7  2  0
  6  8  1  0
  8  9  1  0
  9 10  2  0
 10 11  1  0
 11 12  1  0
 12 13  1  0
 13 14  1  0
 11 15  2  0
 15 16  1  0
 16 17  2  0
 17 18  1  0
 18 19  1  0
 19 20  1  0
 20 21  1  0
 21 22  1  0
 22 23  1  0
 22 24  1  0
 24 25  1  0
  5 26  1  0
 26 27  2  0
 27 28  1  0
 28 29  1  0
 29 30  2  0
 29 31  2  0
 29 32  1  0
 32 33  2  0
 33 34  1  0
 34 35  2  0
 35 36  1  0
 36 37  2  0
 36 38  1  0
 38 39  2  0
 38 40  1  0
 40 41  2  0
 41 42  1  0
 42 43  2  0
 43 44  1  0
 44 45  2  0
 45 46  1  0
 46 47  2  0
 27  2  1  0
 37 32  1  0
 45 40  1  0
 17  9  1  0
 25 19  1  0
 46 35  1  0
 14 12  1  0
  1 48  1  0
  1 49  1  0
  1 50  1  0
  3 51  1  0
  4 52  1  0
 10 53  1  0
 12 54  1  0
 13 55  1  0
 13 56  1  0
 14 57  1  0
 14 58  1  0
 15 59  1  0
 16 60  1  0
 18 61  1  0
 18 62  1  0
 20 63  1  0
 20 64  1  0
 21 65  1  0
 21 66  1  0
 23 67  1  0
 23 68  1  0
 23 69  1  0
 24 70  1  0
 24 71  1  0
 25 72  1  0
 25 73  1  0
 26 74  1  0
 33 75  1  0
 34 76  1  0
 37 77  1  0
 41 78  1  0
 42 79  1  0
 43 80  1  0
 44 81  1  0
M  CHG  2   8  -1  28  -1
M  END
>  <UniqueID>  (32) 
31

>  <SMILES>  (32) 
Cc1ccc(C(=O)[N-]c2cc(C3CC3)ccc2CN2CCN(C)CC2)cc1[N-]S(=O)(=O)c1ccc2c(c1)C(=O)c1ccccc1C2=O

>  <Energy>  (32) 
387.2575449735677

>  <Genealogy>  (32) 
Cc1ccc(C(=O)[N-]c2cc(C3CC3)ccc2CN2CCN(C)CC2)cc1[N-]S(=O)(=O)c1ccc2c(c1)C(=O)c1ccccc1C2=O (protonated)
Cc1ccc(C(=O)[N-]c2cc(C3CC3)ccc2CN2CCN(C)CC2)cc1[N-]S(=O)(=O)c1ccc2c(c1)C(=O)c1ccccc1C2=O (3D coordinates assigned)
Cc1ccc(C(=O)[N-]c2cc(C3CC3)ccc2CN2CCN(C)CC2)cc1[N-]S(=O)(=O)c1ccc2c(c1)C(=O)c1ccccc1C2=O (nonaromatic ring conformer: 387.2575449735677 kcal/mol)

>  <smiles>  (32) 
Cc1ccc(C(=O)Nc2cc(C3CC3)ccc2CN2CCN(C)CC2)cc1NS(=O)(=O)c1ccc2c(c1)C(=O)c1ccccc1C2=O

>  <score_type>  (32) 
oracle

>  <origin>  (32) 
adgpu

>  <m_score__min__energy>  (32) 
-13.98

>  <m_primary>  (32) 
energy

$$$$
32:0
     RDKit          3D

 61 64  0  0  0  0  0  0  0  0999 V2000
    0.8060   17.0410  -35.8030 C   0  0  0  0  0  0  0  0  0  0  0  0
    0.5940   18.5210  -35.6870 C   0  0  0  0  0  0  0  0  0  0  0  0
    1.3300   19.4050  -36.4890 C   0  0  0  0  0  0  0  0  0  0  0  0
    1.1140   20.7810  -36.3980 C   0  0  0  0  0  0  0  0  0  0  0  0
    0.1540   21.2950  -35.5200 C   0  0  0  0  0  0  0  0  0  0  0  0
    0.0260   22.6810  -35.4150 O   0  0  0  0  0  0  0  0  0  0  0  0
   -0.6360   20.4080  -34.7530 C   0  0  0  0  0  0  0  0  0  0  0  0
   -1.6850   20.8790  -33.8930 N   0  0  0  0  0  0  0  0  0  0  0  0
   -1.6300   20.7800  -32.4580 C   0  0  0  0  0  0  0  0  0  0  0  0
   -0.3860   20.6400  -31.8170 C   0  0  0  0  0  0  0  0  0  0  0  0
   -0.3040   20.5510  -30.4270 C   0  0  0  0  0  0  0  0  0  0  0  0
   -1.4610   20.5930  -29.6480 C   0  0  0  0  0  0  0  0  0  0  0  0
   -1.3420   20.4940  -28.2220 N   0  0  0  0  0  0  0  0  0  0  0  0
   -1.3450   21.5870  -27.2910 C   0  0  0  0  0  0  0  0  0  0  0  0
   -1.4300   21.3310  -26.0600 O   0  0  0  0  0  0  0  0  0  0  0  0
   -1.3010   22.9990  -27.7370 C   0  0  0  0  0  0  0  0  0  0  0  0
   -0.3040   23.8720  -27.2680 C   0  0  0  0  0  0  0  0  0  0  0  0
   -0.2840   25.2090  -27.6780 C   0  0  0  0  0  0  0  0  0  0  0  0
   -1.2500   25.6840  -28.5690 C   0  0  0  0  0  0  0  0  0  0  0  0
   -1.2270   27.0150  -28.9690 O   0  0  0  0  0  0  0  0  0  0  0  0
   -2.2360   24.8190  -29.0570 C   0  0  0  0  0  0  0  0  0  0  0  0
   -3.1970   25.2850  -29.9460 O   0  0  0  0  0  0  0  0  0  0  0  0
   -2.2580   23.4810  -28.6470 C   0  0  0  0  0  0  0  0  0  0  0  0
   -2.7040   20.7700  -30.2740 C   0  0  0  0  0  0  0  0  0  0  0  0
   -2.8060   20.8500  -31.6710 C   0  0  0  0  0  0  0  0  0  0  0  0
   -4.4330   20.9630  -32.3750 S   0  0  0  0  0  0  0  0  0  0  0  0
   -4.3620   21.0450  -33.8740 O   0  0  0  0  0  0  0  0  0  0  0  0
   -5.1860   19.7070  -32.0310 O   0  0  0  0  0  0  0  0  0  0  0  0
   -5.3140   22.3410  -31.7610 N   0  0  0  0  0  0  0  0  0  0  0  0
   -5.3280   22.3390  -30.2870 C   0  0  0  0  0  0  0  0  0  0  0  0
   -6.3550   23.3440  -29.7170 C   0  0  0  0  0  0  0  0  0  0  0  0
   -6.8030   24.3380  -30.7130 N   0  0  0  0  0  0  0  0  0  0  0  0
   -5.7530   25.3240  -31.0210 C   0  0  0  0  0  0  0  0  0  0  0  0
   -7.3580   23.7030  -31.9340 C   0  0  0  0  0  0  0  0  0  0  0  0
   -6.6850   22.3620  -32.2860 C   0  0  0  0  0  0  0  0  0  0  0  0
   -0.3930   19.0280  -34.8300 C   0  0  0  0  0  0  0  0  0  0  0  0
    0.8692   16.5997  -34.7974 H   0  0  0  0  0  0  0  0  0  0  0  0
   -0.0369   16.5915  -36.3484 H   0  0  0  0  0  0  0  0  0  0  0  0
    1.7412   16.8462  -36.3484 H   0  0  0  0  0  0  0  0  0  0  0  0
    2.0798   19.0129  -37.1919 H   0  0  0  0  0  0  0  0  0  0  0  0
    1.7043   21.4676  -37.0226 H   0  0  0  0  0  0  0  0  0  0  0  0
   -0.7960   23.1820  -35.7230 H   0  0  0  0  0  0  0  0  0  0  0  0
   -2.3970   21.5140  -34.3150 H   0  0  0  0  0  0  0  0  0  0  0  0
    0.5338   20.6002  -32.4190 H   0  0  0  0  0  0  0  0  0  0  0  0
    0.6781   20.4472  -29.9425 H   0  0  0  0  0  0  0  0  0  0  0  0
    0.4651   23.5013  -26.5744 H   0  0  0  0  0  0  0  0  0  0  0  0
    0.4937   25.8880  -27.2983 H   0  0  0  0  0  0  0  0  0  0  0  0
   -3.0293   22.8020  -29.0395 H   0  0  0  0  0  0  0  0  0  0  0  0
   -3.6132   20.8473  -29.6597 H   0  0  0  0  0  0  0  0  0  0  0  0
   -5.5864   21.3292  -29.9355 H   0  0  0  0  0  0  0  0  0  0  0  0
   -4.3290   22.6383  -29.9370 H   0  0  0  0  0  0  0  0  0  0  0  0
   -7.2326   22.7845  -29.3608 H   0  0  0  0  0  0  0  0  0  0  0  0
   -5.8605   23.8938  -28.9026 H   0  0  0  0  0  0  0  0  0  0  0  0
   -5.3335   25.7179  -30.0835 H   0  0  0  0  0  0  0  0  0  0  0  0
   -4.9558   24.8405  -31.6048 H   0  0  0  0  0  0  0  0  0  0  0  0
   -6.1855   26.1499  -31.6048 H   0  0  0  0  0  0  0  0  0  0  0  0
   -8.4318   23.5235  -31.7764 H   0  0  0  0  0  0  0  0  0  0  0  0
   -7.1701   24.3906  -32.7718 H   0  0  0  0  0  0  0  0  0  0  0  0
   -7.2596   21.5368  -31.8400 H   0  0  0  0  0  0  0  0  0  0  0  0
   -6.6571   22.2455  -33.3795 H   0  0  0  0  0  0  0  0  0  0  0  0
   -0.9835   18.3364  -34.2111 H   0  0  0  0  0  0  0  0  0  0  0  0
  1  2  1  0
  2  3  2  0
  3  4  1  0
  4  5  2  0
  5  6  1  0
  5  7  1  0
  7  8  1  0
  8  9  1  0
  9 10  2  0
 10 11  1  0
 11 12  2  0
 12 13  1  0
 13 14  1  0
 14 15  2  0
 14 16  1  0
 16 17  2  0
 17 18  1  0
 18 19  2  0
 19 20  1  0
 19 21  1  0
 21 22  1  0
 21 23  2  0
 12 24  1  0
 24 25  2  0
 25 26  1  0
 26 27  2  0
 26 28  2  0
 26 29  1  0
 29 30  1  0
 30 31  1  0
 31 32  1  0
 32 33  1  0
 32 34  1  0
 34 35  1  0
  7 36  2  0
 36  2  1  0
 25  9  1  0
 35 29  1  0
 23 16  1  0
  1 37  1  0
  1 38  1  0
  1 39  1  0
  3 40  1  0
  4 41  1  0
  6 42  1  0
  8 43  1  0
 10 44  1  0
 11 45  1  0
 17 46  1  0
 18 47  1  0
 23 48  1  0
 24 49  1  0
 30 50  1  0
 30 51  1  0
 31 52  1  0
 31 53  1  0
 33 54  1  0
 33 55  1  0
 33 56  1  0
 34 57  1  0
 34 58  1  0
 35 59  1  0
 35 60  1  0
 36 61  1  0
M  CHG  3  13  -1  20  -1  22  -1
M  END
>  <UniqueID>  (33) 
32

>  <SMILES>  (33) 
Cc1ccc(O)c(Nc2ccc([N-]C(=O)c3ccc([O-])c([O-])c3)cc2S(=O)(=O)N2CCN(C)CC2)c1

>  <Energy>  (33) 
88.76914322813202

>  <Genealogy>  (33) 
Cc1ccc(O)c(Nc2ccc([N-]C(=O)c3ccc([O-])c([O-])c3)cc2S(=O)(=O)N2CCN(C)CC2)c1 (protonated)
Cc1ccc(O)c(Nc2ccc([N-]C(=O)c3ccc([O-])c([O-])c3)cc2S(=O)(=O)N2CCN(C)CC2)c1 (3D coordinates assigned)
Cc1ccc(O)c(Nc2ccc([N-]C(=O)c3ccc([O-])c([O-])c3)cc2S(=O)(=O)N2CCN(C)CC2)c1 (nonaromatic ring conformer: 88.76914322813202 kcal/mol)

>  <smiles>  (33) 
Cc1ccc(O)c(Nc2ccc(NC(=O)c3ccc(O)c(O)c3)cc2S(=O)(=O)N2CCN(C)CC2)c1

>  <score_type>  (33) 
oracle

>  <origin>  (33) 
adgpu

>  <m_score__min__energy>  (33) 
-15.16

>  <m_primary>  (33) 
energy

$$$$
33:0
     RDKit          3D

 48 51  0  0  0  0  0  0  0  0999 V2000
   -5.6970   19.2170  -34.2150 C   0  0  0  0  0  0  0  0  0  0  0  0
   -6.1610   18.9840  -32.7710 C   0  0  0  0  0  0  0  0  0  0  0  0
   -5.7420   17.5780  -32.3110 C   0  0  0  0  0  0  0  0  0  0  0  0
   -7.6230   19.0590  -32.7290 N   0  0  0  0  0  0  0  0  0  0  0  0
   -8.3350   20.2740  -32.4940 C   0  0  0  0  0  0  0  0  0  0  0  0
   -9.5780   20.3130  -32.7000 O   0  0  0  0  0  0  0  0  0  0  0  0
   -7.6160   21.4510  -31.9730 C   0  0  0  0  0  0  0  0  0  0  0  0
   -8.2730   22.6790  -31.7850 C   0  0  0  0  0  0  0  0  0  0  0  0
   -7.5810   23.7770  -31.2700 C   0  0  0  0  0  0  0  0  0  0  0  0
   -6.2330   23.6570  -30.9160 C   0  0  0  0  0  0  0  0  0  0  0  0
   -5.3410   25.0650  -30.3450 S   0  0  0  0  0  0  0  0  0  0  0  0
   -5.7440   26.2620  -31.1590 O   0  0  0  0  0  0  0  0  0  0  0  0
   -5.6790   25.3370  -28.9060 O   0  0  0  0  0  0  0  0  0  0  0  0
   -3.6280   24.8350  -30.4950 N   0  0  0  0  0  0  0  0  0  0  0  0
   -2.8540   24.1270  -29.5220 C   0  0  0  0  0  0  0  0  0  0  0  0
   -3.1880   22.8180  -29.1510 C   0  0  0  0  0  0  0  0  0  0  0  0
   -2.4570   22.1430  -28.1640 C   0  0  0  0  0  0  0  0  0  0  0  0
   -1.3630   22.7890  -27.5440 C   0  0  0  0  0  0  0  0  0  0  0  0
   -0.9920   24.0740  -27.9690 C   0  0  0  0  0  0  0  0  0  0  0  0
   -1.7340   24.7410  -28.9490 C   0  0  0  0  0  0  0  0  0  0  0  0
   -1.3620   26.0220  -29.3400 O   0  0  0  0  0  0  0  0  0  0  0  0
   -0.5110   22.0850  -26.5140 C   0  0  0  0  0  0  0  0  0  0  0  0
   -1.2350   20.9030  -25.8610 C   0  0  0  0  0  0  0  0  0  0  0  0
   -1.8700   20.0110  -26.9290 C   0  0  0  0  0  0  0  0  0  0  0  0
   -2.9380   20.7860  -27.7050 C   0  0  0  0  0  0  0  0  0  0  0  0
   -5.5760   22.4300  -31.0840 C   0  0  0  0  0  0  0  0  0  0  0  0
   -6.2550   21.3260  -31.6300 C   0  0  0  0  0  0  0  0  0  0  0  0
   -5.5430   20.0480  -31.8770 C   0  0  0  0  0  0  0  0  0  0  0  0
   -4.3780   19.8830  -31.4210 O   0  0  0  0  0  0  0  0  0  0  0  0
   -4.7140   19.7106  -34.2091 H   0  0  0  0  0  0  0  0  0  0  0  0
   -5.6192   18.2511  -34.7355 H   0  0  0  0  0  0  0  0  0  0  0  0
   -6.4252   19.8563  -34.7355 H   0  0  0  0  0  0  0  0  0  0  0  0
   -5.7307   17.5401  -31.2117 H   0  0  0  0  0  0  0  0  0  0  0  0
   -6.4585   16.8375  -32.6961 H   0  0  0  0  0  0  0  0  0  0  0  0
   -4.7370   17.3505  -32.6961 H   0  0  0  0  0  0  0  0  0  0  0  0
   -9.3375   22.7757  -32.0448 H   0  0  0  0  0  0  0  0  0  0  0  0
   -8.0976   24.7397  -31.1422 H   0  0  0  0  0  0  0  0  0  0  0  0
   -4.0344   22.3138  -29.6404 H   0  0  0  0  0  0  0  0  0  0  0  0
   -0.1099   24.5608  -27.5275 H   0  0  0  0  0  0  0  0  0  0  0  0
    0.4002   21.7127  -27.0050 H   0  0  0  0  0  0  0  0  0  0  0  0
   -0.2762   22.8114  -25.7221 H   0  0  0  0  0  0  0  0  0  0  0  0
   -0.5126   20.3126  -25.2783 H   0  0  0  0  0  0  0  0  0  0  0  0
   -2.0264   21.2893  -25.2019 H   0  0  0  0  0  0  0  0  0  0  0  0
   -1.0909   19.6701  -27.6267 H   0  0  0  0  0  0  0  0  0  0  0  0
   -2.3419   19.1471  -26.4381 H   0  0  0  0  0  0  0  0  0  0  0  0
   -3.2270   20.1979  -28.5885 H   0  0  0  0  0  0  0  0  0  0  0  0
   -3.7891   20.9475  -27.0271 H   0  0  0  0  0  0  0  0  0  0  0  0
   -4.5217   22.3300  -30.7866 H   0  0  0  0  0  0  0  0  0  0  0  0
  1  2  1  0
  2  3  1  0
  2  4  1  0
  4  5  1  0
  5  6  2  0
  5  7  1  0
  7  8  2  0
  8  9  1  0
  9 10  2  0
 10 11  1  0
 11 12  2  0
 11 13  2  0
 11 14  1  0
 14 15  1  0
 15 16  2  0
 16 17  1  0
 17 18  2  0
 18 19  1  0
 19 20  2  0
 20 21  1  0
 18 22  1  0
 22 23  1  0
 23 24  1  0
 24 25  1  0
 10 26  1  0
 26 27  2  0
 27 28  1  0
 28 29  2  0
 28  2  1  0
 27  7  1  0
 20 15  1  0
 25 17  1  0
  1 30  1  0
  1 31  1  0
  1 32  1  0
  3 33  1  0
  3 34  1  0
  3 35  1  0
  8 36  1  0
  9 37  1  0
 16 38  1  0
 19 39  1  0
 22 40  1  0
 22 41  1  0
 23 42  1  0
 23 43  1  0
 24 44  1  0
 24 45  1  0
 25 46  1  0
 25 47  1  0
 26 48  1  0
M  CHG  3   4  -1  14  -1  21  -1
M  END
>  <UniqueID>  (34) 
33

>  <SMILES>  (34) 
CC1(C)[N-]C(=O)c2ccc(S(=O)(=O)[N-]c3cc4c(cc3[O-])CCCC4)cc2C1=O

>  <Energy>  (34) 
57.275268838592424

>  <Genealogy>  (34) 
CC1(C)[N-]C(=O)c2ccc(S(=O)(=O)[N-]c3cc4c(cc3[O-])CCCC4)cc2C1=O (protonated)
CC1(C)[N-]C(=O)c2ccc(S(=O)(=O)[N-]c3cc4c(cc3[O-])CCCC4)cc2C1=O (3D coordinates assigned)
CC1(C)[N-]C(=O)c2ccc(S(=O)(=O)[N-]c3cc4c(cc3[O-])CCCC4)cc2C1=O (nonaromatic ring conformer: 57.275268838592424 kcal/mol)

>  <smiles>  (34) 
CC1(C)NC(=O)c2ccc(S(=O)(=O)Nc3cc4c(cc3O)CCCC4)cc2C1=O

>  <score_type>  (34) 
oracle

>  <origin>  (34) 
adgpu

>  <m_score__min__energy>  (34) 
-15.49

>  <m_primary>  (34) 
energy

$$$$
34:0
     RDKit          3D

 59 63  0  0  0  0  0  0  0  0999 V2000
   -9.0690   19.4260  -31.7420 C   0  0  0  0  0  0  0  0  0  0  0  0
   -9.2370   20.8580  -32.2300 C   0  0  0  0  0  0  0  0  0  0  0  0
   -8.0170   21.6250  -31.9880 N   0  0  0  0  0  0  0  0  0  0  0  0
   -7.9700   23.0510  -31.6470 C   0  0  0  0  0  0  0  0  0  0  0  0
   -6.5070   23.3020  -31.4180 C   0  0  0  0  0  0  0  0  0  0  0  0
   -5.8870   24.4940  -31.0460 C   0  0  0  0  0  0  0  0  0  0  0  0
   -4.4950   24.4930  -30.8370 C   0  0  0  0  0  0  0  0  0  0  0  0
   -3.8620   25.6690  -30.4540 O   0  0  0  0  0  0  0  0  0  0  0  0
   -3.7480   23.3020  -31.0050 C   0  0  0  0  0  0  0  0  0  0  0  0
   -2.3560   23.2700  -30.6970 N   0  0  0  0  0  0  0  0  0  0  0  0
   -1.6080   21.7870  -30.2130 S   0  0  0  0  0  0  0  0  0  0  0  0
   -2.5700   20.9620  -29.4070 O   0  0  0  0  0  0  0  0  0  0  0  0
   -0.4030   22.0930  -29.3690 O   0  0  0  0  0  0  0  0  0  0  0  0
   -1.1130   20.9020  -31.6540 C   0  0  0  0  0  0  0  0  0  0  0  0
   -2.0100   20.7290  -32.7320 C   0  0  0  0  0  0  0  0  0  0  0  0
   -1.6390   19.9530  -33.8420 C   0  0  0  0  0  0  0  0  0  0  0  0
   -0.3760   19.3630  -33.8480 C   0  0  0  0  0  0  0  0  0  0  0  0
    0.4880   19.5210  -32.8060 C   0  0  0  0  0  0  0  0  0  0  0  0
    0.1520   20.2870  -31.6920 C   0  0  0  0  0  0  0  0  0  0  0  0
    1.7290   18.7540  -33.0580 C   0  0  0  0  0  0  0  0  0  0  0  0
    1.6560   18.3620  -34.4870 N   0  0  0  0  0  0  0  0  0  0  0  0
    2.5640   19.1560  -35.3570 C   0  0  0  0  0  0  0  0  0  0  0  0
    2.1570   20.6120  -35.5370 C   0  0  0  0  0  0  0  0  0  0  0  0
    1.0440   20.9620  -36.3160 C   0  0  0  0  0  0  0  0  0  0  0  0
    0.6630   22.2990  -36.4400 C   0  0  0  0  0  0  0  0  0  0  0  0
    1.4150   23.2950  -35.8010 C   0  0  0  0  0  0  0  0  0  0  0  0
    1.0380   24.7220  -35.9030 C   0  0  0  0  0  0  0  0  0  0  0  0
    1.5500   25.6830  -34.9770 N   0  0  0  0  0  0  0  0  0  0  0  0
    0.2550   25.1070  -36.8130 O   0  0  0  0  0  0  0  0  0  0  0  0
    2.5160   22.9400  -35.0840 N   0  0  0  0  0  0  0  0  0  0  0  0
    2.9050   21.6440  -34.9470 C   0  0  0  0  0  0  0  0  0  0  0  0
    0.2300   18.4870  -34.8760 C   0  0  0  0  0  0  0  0  0  0  0  0
   -4.3930   22.1150  -31.3970 C   0  0  0  0  0  0  0  0  0  0  0  0
   -5.7720   22.1500  -31.5910 C   0  0  0  0  0  0  0  0  0  0  0  0
   -6.6940   21.0990  -31.9360 C   0  0  0  0  0  0  0  0  0  0  0  0
   -6.3970   19.8920  -32.1410 O   0  0  0  0  0  0  0  0  0  0  0  0
   -9.0673   19.4113  -30.6421 H   0  0  0  0  0  0  0  0  0  0  0  0
   -9.9012   18.8113  -32.1156 H   0  0  0  0  0  0  0  0  0  0  0  0
   -8.1171   19.0206  -32.1156 H   0  0  0  0  0  0  0  0  0  0  0  0
   -9.4524   20.8504  -33.3087 H   0  0  0  0  0  0  0  0  0  0  0  0
  -10.0677   21.3266  -31.6820 H   0  0  0  0  0  0  0  0  0  0  0  0
   -8.3509   23.6671  -32.4748 H   0  0  0  0  0  0  0  0  0  0  0  0
   -8.5926   23.3069  -30.7770 H   0  0  0  0  0  0  0  0  0  0  0  0
   -6.4733   25.4159  -30.9185 H   0  0  0  0  0  0  0  0  0  0  0  0
   -3.0019   21.2036  -32.7016 H   0  0  0  0  0  0  0  0  0  0  0  0
   -2.3291   19.8139  -34.6873 H   0  0  0  0  0  0  0  0  0  0  0  0
    0.8607   20.4085  -30.8596 H   0  0  0  0  0  0  0  0  0  0  0  0
    2.6144   19.3802  -32.8738 H   0  0  0  0  0  0  0  0  0  0  0  0
    1.8165   17.8810  -32.3945 H   0  0  0  0  0  0  0  0  0  0  0  0
    3.5704   19.1334  -34.9136 H   0  0  0  0  0  0  0  0  0  0  0  0
    2.5215   18.6949  -36.3548 H   0  0  0  0  0  0  0  0  0  0  0  0
    0.4688   20.1789  -36.8316 H   0  0  0  0  0  0  0  0  0  0  0  0
   -0.2216   22.5696  -37.0352 H   0  0  0  0  0  0  0  0  0  0  0  0
    1.2830   26.6880  -35.0660 H   0  0  0  0  0  0  0  0  0  0  0  0
    2.1960   25.4050  -34.2060 H   0  0  0  0  0  0  0  0  0  0  0  0
    3.8105   21.4027  -34.3709 H   0  0  0  0  0  0  0  0  0  0  0  0
    0.1405   18.9429  -35.8731 H   0  0  0  0  0  0  0  0  0  0  0  0
   -0.2695   17.5084  -34.9293 H   0  0  0  0  0  0  0  0  0  0  0  0
   -3.8244   21.1852  -31.5462 H   0  0  0  0  0  0  0  0  0  0  0  0
  1  2  1  0
  2  3  1  0
  3  4  1  0
  4  5  1  0
  5  6  2  0
  6  7  1  0
  7  8  1  0
  7  9  2  0
  9 10  1  0
 10 11  1  0
 11 12  2  0
 11 13  2  0
 11 14  1  0
 14 15  2  0
 15 16  1  0
 16 17  2  0
 17 18  1  0
 18 19  2  0
 18 20  1  0
 20 21  1  0
 21 22  1  0
 22 23  1  0
 23 24  2  0
 24 25  1  0
 25 26  2  0
 26 27  1  0
 27 28  1  0
 27 29  2  0
 26 30  1  0
 30 31  2  0
 21 32  1  0
  9 33  1  0
 33 34  2  0
 34 35  1  0
 35 36  2  0
 35  3  1  0
 34  5  1  0
 19 14  1  0
 31 23  1  0
 32 17  1  0
  1 37  1  0
  1 38  1  0
  1 39  1  0
  2 40  1  0
  2 41  1  0
  4 42  1  0
  4 43  1  0
  6 44  1  0
 15 45  1  0
 16 46  1  0
 19 47  1  0
 20 48  1  0
 20 49  1  0
 22 50  1  0
 22 51  1  0
 24 52  1  0
 25 53  1  0
 28 54  1  0
 28 55  1  0
 31 56  1  0
 32 57  1  0
 32 58  1  0
 33 59  1  0
M  CHG  2   8  -1  10  -1
M  END
>  <UniqueID>  (35) 
34

>  <SMILES>  (35) 
CCN1Cc2cc([O-])c([N-]S(=O)(=O)c3ccc4c(c3)CN(Cc3ccc(C(N)=O)nc3)C4)cc2C1=O

>  <Energy>  (35) 
105.30423440835821

>  <Genealogy>  (35) 
CCN1Cc2cc([O-])c([N-]S(=O)(=O)c3ccc4c(c3)CN(Cc3ccc(C(N)=O)nc3)C4)cc2C1=O (protonated)
CCN1Cc2cc([O-])c([N-]S(=O)(=O)c3ccc4c(c3)CN(Cc3ccc(C(N)=O)nc3)C4)cc2C1=O (3D coordinates assigned)
CCN1Cc2cc([O-])c([N-]S(=O)(=O)c3ccc4c(c3)CN(Cc3ccc(C(N)=O)nc3)C4)cc2C1=O (nonaromatic ring conformer: 105.30423440835821 kcal/mol)

>  <smiles>  (35) 
CCN1Cc2cc(O)c(NS(=O)(=O)c3ccc4c(c3)CN(Cc3ccc(C(N)=O)nc3)C4)cc2C1=O

>  <score_type>  (35) 
oracle

>  <origin>  (35) 
adgpu

>  <m_score__min__energy>  (35) 
-15.460000000000001

>  <m_primary>  (35) 
energy

$$$$
35:0
     RDKit          3D

 64 68  0  0  0  0  0  0  0  0999 V2000
   -4.7326   26.5636  -31.4103 H   0  0  0  0  0  0  0  0  0  0  0  0
   -4.9070   25.6430  -30.8340 C   0  0  0  0  0  0  0  0  0  0  0  0
   -3.8970   24.8100  -30.4650 N   0  0  0  0  0  0  0  0  0  0  0  0
   -4.3630   23.7540  -29.7640 C   0  0  0  0  0  0  0  0  0  0  0  0
   -3.6110   22.8090  -29.2910 N   0  0  0  0  0  0  0  0  0  0  0  0
   -1.8910   22.7720  -29.5000 S   0  0  0  0  0  0  0  0  0  0  0  0
   -1.3750   24.1750  -29.6640 O   0  0  0  0  0  0  0  0  0  0  0  0
   -1.2370   22.1380  -28.3040 O   0  0  0  0  0  0  0  0  0  0  0  0
   -1.5200   21.8150  -30.9290 C   0  0  0  0  0  0  0  0  0  0  0  0
   -2.2980   21.9280  -32.0910 C   0  0  0  0  0  0  0  0  0  0  0  0
   -3.1419   22.6329  -32.1202 H   0  0  0  0  0  0  0  0  0  0  0  0
   -2.0030   21.1470  -33.2110 C   0  0  0  0  0  0  0  0  0  0  0  0
   -2.6090   21.2492  -34.1233 H   0  0  0  0  0  0  0  0  0  0  0  0
   -0.9400   20.2340  -33.1800 C   0  0  0  0  0  0  0  0  0  0  0  0
   -0.6550   19.4760  -34.3620 N   0  0  0  0  0  0  0  0  0  0  0  0
   -0.8570   18.0710  -34.5580 C   0  0  0  0  0  0  0  0  0  0  0  0
    0.0150   17.3870  -35.1600 O   0  0  0  0  0  0  0  0  0  0  0  0
   -2.0830   17.4090  -34.0430 C   0  0  0  0  0  0  0  0  0  0  0  0
   -3.3270   18.0370  -34.2460 C   0  0  0  0  0  0  0  0  0  0  0  0
   -3.3749   18.9736  -34.8208 H   0  0  0  0  0  0  0  0  0  0  0  0
   -4.5030   17.4850  -33.7260 C   0  0  0  0  0  0  0  0  0  0  0  0
   -6.0440   18.3130  -33.9340 S   0  0  0  0  0  0  0  0  0  0  0  0
   -7.1610   17.3140  -33.8090 O   0  0  0  0  0  0  0  0  0  0  0  0
   -6.1100   18.9350  -35.3030 O   0  0  0  0  0  0  0  0  0  0  0  0
   -6.2060   19.5340  -32.6990 N   0  0  0  0  0  0  0  0  0  0  0  0
   -5.8860   19.1310  -31.7870 H   0  0  0  0  0  0  0  0  0  0  0  0
   -7.5910   19.9930  -32.5640 C   0  0  0  0  0  0  0  0  0  0  0  0
   -8.0958   19.9670  -33.5410 H   0  0  0  0  0  0  0  0  0  0  0  0
   -8.1570   19.3458  -31.8779 H   0  0  0  0  0  0  0  0  0  0  0  0
   -7.5300   21.4220  -32.0430 C   0  0  0  0  0  0  0  0  0  0  0  0
   -8.2587   22.0548  -32.5707 H   0  0  0  0  0  0  0  0  0  0  0  0
   -7.7742   21.4761  -30.9718 H   0  0  0  0  0  0  0  0  0  0  0  0
   -6.1110   21.8980  -32.3230 C   0  0  0  0  0  0  0  0  0  0  0  0
   -6.1237   22.7760  -32.9855 H   0  0  0  0  0  0  0  0  0  0  0  0
   -5.5923   22.1998  -31.4011 H   0  0  0  0  0  0  0  0  0  0  0  0
   -5.4170   20.7280  -33.0040 C   0  0  0  0  0  0  0  0  0  0  0  0
   -5.3801   20.8902  -34.0914 H   0  0  0  0  0  0  0  0  0  0  0  0
   -4.3824   20.6199  -32.6464 H   0  0  0  0  0  0  0  0  0  0  0  0
   -4.4460   16.2990  -32.9890 C   0  0  0  0  0  0  0  0  0  0  0  0
   -5.3660   15.8723  -32.5630 H   0  0  0  0  0  0  0  0  0  0  0  0
   -3.2250   15.6560  -32.7930 C   0  0  0  0  0  0  0  0  0  0  0  0
   -3.1904   14.7179  -32.2197 H   0  0  0  0  0  0  0  0  0  0  0  0
   -2.0410   16.1910  -33.3180 C   0  0  0  0  0  0  0  0  0  0  0  0
   -0.8230   15.4500  -33.1450 N   0  0  0  0  0  0  0  0  0  0  0  0
   -0.6490   14.1800  -33.8600 C   0  0  0  0  0  0  0  0  0  0  0  0
   -1.5587   13.5717  -33.7485 H   0  0  0  0  0  0  0  0  0  0  0  0
   -0.4668   14.3873  -34.9248 H   0  0  0  0  0  0  0  0  0  0  0  0
    0.5410   13.4180  -33.2880 C   0  0  0  0  0  0  0  0  0  0  0  0
    0.4957   12.3666  -33.6082 H   0  0  0  0  0  0  0  0  0  0  0  0
    1.4797   13.8622  -33.6507 H   0  0  0  0  0  0  0  0  0  0  0  0
    0.4890   13.4880  -31.8800 O   0  0  0  0  0  0  0  0  0  0  0  0
    0.8770   14.7770  -31.4380 C   0  0  0  0  0  0  0  0  0  0  0  0
    0.6142   14.8718  -30.3741 H   0  0  0  0  0  0  0  0  0  0  0  0
    1.9592   14.8626  -31.6155 H   0  0  0  0  0  0  0  0  0  0  0  0
    0.2010   15.9380  -32.2130 C   0  0  0  0  0  0  0  0  0  0  0  0
   -0.2713   16.6203  -31.4909 H   0  0  0  0  0  0  0  0  0  0  0  0
    0.9762   16.4548  -32.7978 H   0  0  0  0  0  0  0  0  0  0  0  0
   -0.1520   20.1340  -32.0190 C   0  0  0  0  0  0  0  0  0  0  0  0
    0.7006   19.4395  -31.9931 H   0  0  0  0  0  0  0  0  0  0  0  0
   -0.4490   20.9140  -30.8990 C   0  0  0  0  0  0  0  0  0  0  0  0
    0.1617   20.8198  -29.9889 H   0  0  0  0  0  0  0  0  0  0  0  0
   -6.0300   23.8040  -29.5720 S   0  0  0  0  0  0  0  0  0  0  0  0
   -6.1760   25.2450  -30.4290 C   0  0  0  0  0  0  0  0  0  0  0  0
   -7.1149   25.7804  -30.6337 H   0  0  0  0  0  0  0  0  0  0  0  0
  1  2  1  0
  2  3  1  0
  3  4  1  0
  4  5  2  0
  5  6  1  0
  6  7  2  0
  6  8  2  0
  6  9  1  0
  9 10  2  0
 10 11  1  0
 10 12  1  0
 12 13  1  0
 12 14  2  0
 14 15  1  0
 15 16  1  0
 16 17  2  0
 16 18  1  0
 18 19  2  0
 19 20  1  0
 19 21  1  0
 21 22  1  0
 22 23  2  0
 22 24  2  0
 22 25  1  0
 25 26  1  0
 25 27  1  0
 27 28  1  0
 27 29  1  0
 27 30  1  0
 30 31  1  0
 30 32  1  0
 30 33  1  0
 33 34  1  0
 33 35  1  0
 33 36  1  0
 36 37  1  0
 36 38  1  0
 21 39  2  0
 39 40  1  0
 39 41  1  0
 41 42  1  0
 41 43  2  0
 43 44  1  0
 44 45  1  0
 45 46  1  0
 45 47  1  0
 45 48  1  0
 48 49  1  0
 48 50  1  0
 48 51  1  0
 51 52  1  0
 52 53  1  0
 52 54  1  0
 52 55  1  0
 55 56  1  0
 55 57  1  0
 14 58  1  0
 58 59  1  0
 58 60  2  0
 60 61  1  0
  4 62  1  0
 62 63  1  0
 63 64  1  0
 63  2  2  0
 60  9  1  0
 43 18  1  0
 55 44  1  0
 36 25  1  0
M  CHG  3   3  -1  15  -1  25   1
M  END
>  <UniqueID>  (36) 
35

>  <SMILES>  (36) 
O=C([N-]c1ccc(S(=O)(=O)/N=c2\[n-]ccs2)cc1)c1cc(S(=O)(=O)[NH+]2CCCC2)ccc1N1CCOCC1

>  <Energy>  (36) 
120.14803693276727

>  <Genealogy>  (36) 
O=C([N-]c1ccc(S(=O)(=O)N=c2[n-]ccs2)cc1)c1cc(S(=O)(=O)[NH+]2CCCC2)ccc1N1CCOCC1 (protonated)
O=C([N-]c1ccc(S(=O)(=O)/N=c2\[n-]ccs2)cc1)c1cc(S(=O)(=O)[NH+]2CCCC2)ccc1N1CCOCC1 (cis-trans isomerization)
O=C([N-]c1ccc(S(=O)(=O)/N=c2\[n-]ccs2)cc1)c1cc(S(=O)(=O)[NH+]2CCCC2)ccc1N1CCOCC1 (3D coordinates assigned)
O=C([N-]c1ccc(S(=O)(=O)/N=c2\[n-]ccs2)cc1)c1cc(S(=O)(=O)[NH+]2CCCC2)ccc1N1CCOCC1 (nonaromatic ring conformer: 120.14803693276727 kcal/mol)

>  <smiles>  (36) 
O=C(Nc1ccc(S(=O)(=O)N=c2[nH]ccs2)cc1)c1cc(S(=O)(=O)N2CCCC2)ccc1N1CCOCC1

>  <score_type>  (36) 
oracle

>  <origin>  (36) 
adgpu

>  <m_score__min__energy>  (36) 
-13.23

>  <m_primary>  (36) 
energy

$$$$
36:0
     RDKit          3D

 51 54  0  0  0  0  0  0  0  0999 V2000
   -3.0630   18.7210  -26.2940 C   0  0  0  0  0  0  0  0  0  0  0  0
   -1.8650   19.8960  -26.8870 S   0  0  0  0  0  0  0  0  0  0  0  0
   -0.7890   19.1830  -27.6570 O   0  0  0  0  0  0  0  0  0  0  0  0
   -1.2420   20.5880  -25.7070 O   0  0  0  0  0  0  0  0  0  0  0  0
   -2.6540   21.0700  -27.9360 C   0  0  0  0  0  0  0  0  0  0  0  0
   -2.9760   20.7190  -29.2540 C   0  0  0  0  0  0  0  0  0  0  0  0
   -3.6060   21.6410  -30.0950 C   0  0  0  0  0  0  0  0  0  0  0  0
   -3.9140   22.9240  -29.6280 C   0  0  0  0  0  0  0  0  0  0  0  0
   -4.7240   24.0780  -30.6830 S   0  0  0  0  0  0  0  0  0  0  0  0
   -6.0540   24.4780  -30.1090 O   0  0  0  0  0  0  0  0  0  0  0  0
   -3.8670   25.3050  -30.8140 O   0  0  0  0  0  0  0  0  0  0  0  0
   -4.9690   23.3950  -32.2600 N   0  0  0  0  0  0  0  0  0  0  0  0
   -5.4210   22.0660  -32.5730 C   0  0  0  0  0  0  0  0  0  0  0  0
   -4.4770   21.1760  -33.1040 C   0  0  0  0  0  0  0  0  0  0  0  0
   -4.8250   19.8580  -33.4400 C   0  0  0  0  0  0  0  0  0  0  0  0
   -3.8060   18.9440  -34.0070 C   0  0  0  0  0  0  0  0  0  0  0  0
   -4.1510   17.7960  -34.3920 O   0  0  0  0  0  0  0  0  0  0  0  0
   -2.4200   19.3070  -34.0880 N   0  0  0  0  0  0  0  0  0  0  0  0
   -1.5530   19.5980  -32.9810 C   0  0  0  0  0  0  0  0  0  0  0  0
   -1.2340   18.6170  -32.0220 C   0  0  0  0  0  0  0  0  0  0  0  0
   -0.3980   18.9290  -30.9460 C   0  0  0  0  0  0  0  0  0  0  0  0
    0.1100   20.2210  -30.8060 C   0  0  0  0  0  0  0  0  0  0  0  0
   -0.2220   21.2080  -31.7390 C   0  0  0  0  0  0  0  0  0  0  0  0
   -1.0570   20.9010  -32.8240 C   0  0  0  0  0  0  0  0  0  0  0  0
   -1.3910   21.8850  -33.7520 O   0  0  0  0  0  0  0  0  0  0  0  0
   -6.1470   19.4280  -33.2520 C   0  0  0  0  0  0  0  0  0  0  0  0
   -7.0990   20.2890  -32.6940 C   0  0  0  0  0  0  0  0  0  0  0  0
   -8.4090   19.8510  -32.4610 C   0  0  0  0  0  0  0  0  0  0  0  0
   -9.3360   20.7120  -31.8720 C   0  0  0  0  0  0  0  0  0  0  0  0
   -8.9440   22.0030  -31.5210 C   0  0  0  0  0  0  0  0  0  0  0  0
   -7.6720   22.4160  -31.7620 N   0  0  0  0  0  0  0  0  0  0  0  0
   -6.7400   21.6140  -32.3440 C   0  0  0  0  0  0  0  0  0  0  0  0
   -3.5850   23.2800  -28.3130 C   0  0  0  0  0  0  0  0  0  0  0  0
   -2.9600   22.3570  -27.4700 C   0  0  0  0  0  0  0  0  0  0  0  0
   -3.0631   18.7209  -25.1940 H   0  0  0  0  0  0  0  0  0  0  0  0
   -4.0621   18.9992  -26.6607 H   0  0  0  0  0  0  0  0  0  0  0  0
   -2.8043   17.7167  -26.6607 H   0  0  0  0  0  0  0  0  0  0  0  0
   -2.7320   19.7138  -29.6283 H   0  0  0  0  0  0  0  0  0  0  0  0
   -3.8604   21.3573  -31.1269 H   0  0  0  0  0  0  0  0  0  0  0  0
   -3.4430   21.5171  -33.2605 H   0  0  0  0  0  0  0  0  0  0  0  0
   -1.6444   17.6012  -32.1202 H   0  0  0  0  0  0  0  0  0  0  0  0
   -0.1402   18.1547  -30.2084 H   0  0  0  0  0  0  0  0  0  0  0  0
    0.7718   20.4631  -29.9614 H   0  0  0  0  0  0  0  0  0  0  0  0
    0.1726   22.2281  -31.6221 H   0  0  0  0  0  0  0  0  0  0  0  0
   -2.0110   21.6910  -34.5310 H   0  0  0  0  0  0  0  0  0  0  0  0
   -6.4371   18.4082  -33.5448 H   0  0  0  0  0  0  0  0  0  0  0  0
   -8.7066   18.8299  -32.7419 H   0  0  0  0  0  0  0  0  0  0  0  0
  -10.3666   20.3751  -31.6864 H   0  0  0  0  0  0  0  0  0  0  0  0
   -9.6643   22.6873  -31.0490 H   0  0  0  0  0  0  0  0  0  0  0  0
   -3.8194   24.2891  -27.9432 H   0  0  0  0  0  0  0  0  0  0  0  0
   -2.7073   22.6408  -26.4377 H   0  0  0  0  0  0  0  0  0  0  0  0
  1  2  1  0
  2  3  2  0
  2  4  2  0
  2  5  1  0
  5  6  2  0
  6  7  1  0
  7  8  2  0
  8  9  1  0
  9 10  2  0
  9 11  2  0
  9 12  1  0
 12 13  1  0
 13 14  2  0
 14 15  1  0
 15 16  1  0
 16 17  2  0
 16 18  1  0
 18 19  1  0
 19 20  2  0
 20 21  1  0
 21 22  2  0
 22 23  1  0
 23 24  2  0
 24 25  1  0
 15 26  2  0
 26 27  1  0
 27 28  2  0
 28 29  1  0
 29 30  2  0
 30 31  1  0
 31 32  2  0
  8 33  1  0
 33 34  2  0
 34  5  1  0
 32 13  1  0
 24 19  1  0
 32 27  1  0
  1 35  1  0
  1 36  1  0
  1 37  1  0
  6 38  1  0
  7 39  1  0
 14 40  1  0
 20 41  1  0
 21 42  1  0
 22 43  1  0
 23 44  1  0
 25 45  1  0
 26 46  1  0
 28 47  1  0
 29 48  1  0
 30 49  1  0
 33 50  1  0
 34 51  1  0
M  CHG  2  12  -1  18  -1
M  END
>  <UniqueID>  (37) 
36

>  <SMILES>  (37) 
CS(=O)(=O)c1ccc(S(=O)(=O)[N-]c2cc(C(=O)[N-]c3ccccc3O)cc3cccnc23)cc1

>  <Energy>  (37) 
69.69052533141078

>  <Genealogy>  (37) 
CS(=O)(=O)c1ccc(S(=O)(=O)[N-]c2cc(C(=O)[N-]c3ccccc3O)cc3cccnc23)cc1 (protonated)
CS(=O)(=O)c1ccc(S(=O)(=O)[N-]c2cc(C(=O)[N-]c3ccccc3O)cc3cccnc23)cc1 (3D coordinates assigned)
CS(=O)(=O)c1ccc(S(=O)(=O)[N-]c2cc(C(=O)[N-]c3ccccc3O)cc3cccnc23)cc1 (optimized conformer: 69.69052533141078 kcal/mol)

>  <smiles>  (37) 
CS(=O)(=O)c1ccc(S(=O)(=O)Nc2cc(C(=O)Nc3ccccc3O)cc3cccnc23)cc1

>  <score_type>  (37) 
oracle

>  <origin>  (37) 
adgpu

>  <m_score__min__energy>  (37) 
-12.82

>  <m_primary>  (37) 
energy

$$$$
37:0
     RDKit          3D

 57 60  0  0  0  0  0  0  0  0999 V2000
   -0.4680   21.6710  -30.8850 O   0  0  0  0  0  0  0  0  0  0  0  0
   -1.6770   21.8990  -30.6060 C   0  0  0  0  0  0  0  0  0  0  0  0
   -2.0080   22.8490  -29.5750 N   0  0  0  0  0  0  0  0  0  0  0  0
   -1.0270   23.5160  -28.7630 C   0  0  0  0  0  0  0  0  0  0  0  0
   -0.0710   22.7860  -28.0360 C   0  0  0  0  0  0  0  0  0  0  0  0
    0.8560   23.4470  -27.2260 C   0  0  0  0  0  0  0  0  0  0  0  0
    0.8300   24.8420  -27.1130 C   0  0  0  0  0  0  0  0  0  0  0  0
    1.9860   25.6720  -26.0700 S   0  0  0  0  0  0  0  0  0  0  0  0
    2.6550   26.7700  -26.8510 O   0  0  0  0  0  0  0  0  0  0  0  0
    3.0490   24.7000  -25.6390 O   0  0  0  0  0  0  0  0  0  0  0  0
    1.2210   26.3560  -24.6510 N   0  0  0  0  0  0  0  0  0  0  0  0
    0.0870   25.5360  -24.2130 C   0  0  0  0  0  0  0  0  0  0  0  0
   -1.1930   26.1580  -24.7510 C   0  0  0  0  0  0  0  0  0  0  0  0
   -0.8130   27.5520  -25.2110 C   0  0  0  0  0  0  0  0  0  0  0  0
    0.6770   27.6900  -24.9310 C   0  0  0  0  0  0  0  0  0  0  0  0
   -0.1290   25.5730  -27.8250 C   0  0  0  0  0  0  0  0  0  0  0  0
   -1.0590   24.9170  -28.6390 C   0  0  0  0  0  0  0  0  0  0  0  0
   -2.0080   25.6620  -29.3290 O   0  0  0  0  0  0  0  0  0  0  0  0
   -2.7330   21.1800  -31.3570 C   0  0  0  0  0  0  0  0  0  0  0  0
   -2.7090   21.0990  -32.7610 C   0  0  0  0  0  0  0  0  0  0  0  0
   -3.7140   20.4140  -33.4500 C   0  0  0  0  0  0  0  0  0  0  0  0
   -4.7590   19.7990  -32.7500 C   0  0  0  0  0  0  0  0  0  0  0  0
   -6.0410   18.9540  -33.6230 S   0  0  0  0  0  0  0  0  0  0  0  0
   -6.1150   17.5320  -33.1410 O   0  0  0  0  0  0  0  0  0  0  0  0
   -5.7100   18.9310  -35.0900 O   0  0  0  0  0  0  0  0  0  0  0  0
   -7.5950   19.7230  -33.3910 N   0  0  0  0  0  0  0  0  0  0  0  0
   -8.5520   18.8260  -32.7070 C   0  0  0  0  0  0  0  0  0  0  0  0
   -8.7630   19.2220  -31.2340 C   0  0  0  0  0  0  0  0  0  0  0  0
   -9.2390   20.5510  -31.0720 O   0  0  0  0  0  0  0  0  0  0  0  0
   -8.7500   21.4600  -32.0520 C   0  0  0  0  0  0  0  0  0  0  0  0
   -7.4300   21.0220  -32.7100 C   0  0  0  0  0  0  0  0  0  0  0  0
   -4.7770   19.8560  -31.3510 C   0  0  0  0  0  0  0  0  0  0  0  0
   -3.7720   20.5380  -30.6590 C   0  0  0  0  0  0  0  0  0  0  0  0
   -3.0080   23.1060  -29.4200 H   0  0  0  0  0  0  0  0  0  0  0  0
   -0.0525   21.6883  -28.1051 H   0  0  0  0  0  0  0  0  0  0  0  0
    1.6107   22.8677  -26.6738 H   0  0  0  0  0  0  0  0  0  0  0  0
    0.1955   24.5134  -24.6035 H   0  0  0  0  0  0  0  0  0  0  0  0
    0.0535   25.4941  -23.1143 H   0  0  0  0  0  0  0  0  0  0  0  0
   -1.5801   25.5683  -25.5950 H   0  0  0  0  0  0  0  0  0  0  0  0
   -1.9827   26.1853  -23.9858 H   0  0  0  0  0  0  0  0  0  0  0  0
   -1.0129   27.6682  -26.2864 H   0  0  0  0  0  0  0  0  0  0  0  0
   -1.3963   28.3239  -24.6875 H   0  0  0  0  0  0  0  0  0  0  0  0
    1.1817   28.1204  -25.8086 H   0  0  0  0  0  0  0  0  0  0  0  0
    0.8398   28.3533  -24.0687 H   0  0  0  0  0  0  0  0  0  0  0  0
   -0.1513   26.6698  -27.7439 H   0  0  0  0  0  0  0  0  0  0  0  0
   -1.8928   21.5785  -33.3213 H   0  0  0  0  0  0  0  0  0  0  0  0
   -3.6837   20.3578  -34.5481 H   0  0  0  0  0  0  0  0  0  0  0  0
   -9.5188   18.8737  -33.2294 H   0  0  0  0  0  0  0  0  0  0  0  0
   -8.1375   17.8073  -32.7287 H   0  0  0  0  0  0  0  0  0  0  0  0
   -9.4949   18.5322  -30.7884 H   0  0  0  0  0  0  0  0  0  0  0  0
   -7.7832   19.1640  -30.7374 H   0  0  0  0  0  0  0  0  0  0  0  0
   -9.5115   21.5622  -32.8392 H   0  0  0  0  0  0  0  0  0  0  0  0
   -8.5469   22.4082  -31.5327 H   0  0  0  0  0  0  0  0  0  0  0  0
   -7.1242   21.7799  -33.4463 H   0  0  0  0  0  0  0  0  0  0  0  0
   -6.6620   20.9181  -31.9294 H   0  0  0  0  0  0  0  0  0  0  0  0
   -5.5862   19.3615  -30.7936 H   0  0  0  0  0  0  0  0  0  0  0  0
   -3.7938   20.5729  -29.5598 H   0  0  0  0  0  0  0  0  0  0  0  0
  1  2  2  0
  2  3  1  0
  3  4  1  0
  4  5  2  0
  5  6  1  0
  6  7  2  0
  7  8  1  0
  8  9  2  0
  8 10  2  0
  8 11  1  0
 11 12  1  0
 12 13  1  0
 13 14  1  0
 14 15  1  0
  7 16  1  0
 16 17  2  0
 17 18  1  0
  2 19  1  0
 19 20  2  0
 20 21  1  0
 21 22  2  0
 22 23  1  0
 23 24  2  0
 23 25  2  0
 23 26  1  0
 26 27  1  0
 27 28  1  0
 28 29  1  0
 29 30  1  0
 30 31  1  0
 22 32  1  0
 32 33  2  0
 17  4  1  0
 33 19  1  0
 15 11  1  0
 31 26  1  0
  3 34  1  0
  5 35  1  0
  6 36  1  0
 12 37  1  0
 12 38  1  0
 13 39  1  0
 13 40  1  0
 14 41  1  0
 14 42  1  0
 15 43  1  0
 15 44  1  0
 16 45  1  0
 20 46  1  0
 21 47  1  0
 27 48  1  0
 27 49  1  0
 28 50  1  0
 28 51  1  0
 30 52  1  0
 30 53  1  0
 31 54  1  0
 31 55  1  0
 32 56  1  0
 33 57  1  0
M  CHG  1  18  -1
M  END
>  <UniqueID>  (38) 
37

>  <SMILES>  (38) 
O=C(Nc1ccc(S(=O)(=O)N2CCCC2)cc1[O-])c1ccc(S(=O)(=O)N2CCOCC2)cc1

>  <Energy>  (38) 
78.41311673701146

>  <Genealogy>  (38) 
O=C(Nc1ccc(S(=O)(=O)N2CCCC2)cc1[O-])c1ccc(S(=O)(=O)N2CCOCC2)cc1 (protonated)
O=C(Nc1ccc(S(=O)(=O)N2CCCC2)cc1[O-])c1ccc(S(=O)(=O)N2CCOCC2)cc1 (3D coordinates assigned)
O=C(Nc1ccc(S(=O)(=O)N2CCCC2)cc1[O-])c1ccc(S(=O)(=O)N2CCOCC2)cc1 (nonaromatic ring conformer: 78.41311673701146 kcal/mol)

>  <smiles>  (38) 
O=C(Nc1ccc(S(=O)(=O)N2CCCC2)cc1O)c1ccc(S(=O)(=O)N2CCOCC2)cc1

>  <score_type>  (38) 
oracle

>  <origin>  (38) 
adgpu

>  <m_score__min__energy>  (38) 
-11.9

>  <m_primary>  (38) 
energy

$$$$
38:0
     RDKit          3D

 46 49  0  0  0  0  0  0  0  0999 V2000
   -9.0540   18.7290  -31.5880 C   0  0  0  0  0  0  0  0  0  0  0  0
   -7.8160   19.2200  -32.2770 C   0  0  0  0  0  0  0  0  0  0  0  0
   -7.3340   20.5320  -32.3330 C   0  0  0  0  0  0  0  0  0  0  0  0
   -7.9390   21.7260  -31.7090 C   0  0  0  0  0  0  0  0  0  0  0  0
   -8.9800   21.6050  -31.0110 O   0  0  0  0  0  0  0  0  0  0  0  0
   -7.4100   23.0390  -31.9330 N   0  0  0  0  0  0  0  0  0  0  0  0
   -6.2130   23.5820  -31.3560 C   0  0  0  0  0  0  0  0  0  0  0  0
   -6.1760   24.9430  -31.0290 C   0  0  0  0  0  0  0  0  0  0  0  0
   -5.0240   25.5030  -30.4720 C   0  0  0  0  0  0  0  0  0  0  0  0
   -3.9020   24.7070  -30.2220 C   0  0  0  0  0  0  0  0  0  0  0  0
   -2.7560   25.2930  -29.6970 O   0  0  0  0  0  0  0  0  0  0  0  0
   -3.9410   23.3300  -30.5070 C   0  0  0  0  0  0  0  0  0  0  0  0
   -2.5310   22.3020  -30.2300 S   0  0  0  0  0  0  0  0  0  0  0  0
   -1.2980   23.1580  -30.2880 O   0  0  0  0  0  0  0  0  0  0  0  0
   -2.6220   21.6580  -28.8730 O   0  0  0  0  0  0  0  0  0  0  0  0
   -2.4350   21.0680  -31.4640 N   0  0  0  0  0  0  0  0  0  0  0  0
   -1.0680   20.5670  -31.6220 C   0  0  0  0  0  0  0  0  0  0  0  0
   -0.9460   20.0850  -33.0590 C   0  0  0  0  0  0  0  0  0  0  0  0
   -2.0940   20.7470  -33.8070 C   0  0  0  0  0  0  0  0  0  0  0  0
   -2.8070   21.6020  -32.7730 C   0  0  0  0  0  0  0  0  0  0  0  0
   -5.1010   22.7750  -31.0650 C   0  0  0  0  0  0  0  0  0  0  0  0
   -6.2180   20.5730  -33.0410 O   0  0  0  0  0  0  0  0  0  0  0  0
   -5.9510   19.3560  -33.4430 C   0  0  0  0  0  0  0  0  0  0  0  0
   -4.8650   18.9360  -34.2070 C   0  0  0  0  0  0  0  0  0  0  0  0
   -4.7730   17.5690  -34.5240 C   0  0  0  0  0  0  0  0  0  0  0  0
   -5.7600   16.6630  -34.0770 C   0  0  0  0  0  0  0  0  0  0  0  0
   -6.8460   17.1160  -33.3050 C   0  0  0  0  0  0  0  0  0  0  0  0
   -6.9080   18.4780  -33.0040 C   0  0  0  0  0  0  0  0  0  0  0  0
   -8.9138   18.7846  -30.4984 H   0  0  0  0  0  0  0  0  0  0  0  0
   -9.9093   19.3560  -31.8801 H   0  0  0  0  0  0  0  0  0  0  0  0
   -9.2471   17.6862  -31.8801 H   0  0  0  0  0  0  0  0  0  0  0  0
   -7.0583   25.5741  -31.2116 H   0  0  0  0  0  0  0  0  0  0  0  0
   -4.9993   26.5755  -30.2288 H   0  0  0  0  0  0  0  0  0  0  0  0
   -0.3439   21.3722  -31.4289 H   0  0  0  0  0  0  0  0  0  0  0  0
   -0.8587   19.7538  -30.9114 H   0  0  0  0  0  0  0  0  0  0  0  0
    0.0198   20.3918  -33.4870 H   0  0  0  0  0  0  0  0  0  0  0  0
   -0.9921   18.9881  -33.1275 H   0  0  0  0  0  0  0  0  0  0  0  0
   -1.7100   21.3731  -34.6259 H   0  0  0  0  0  0  0  0  0  0  0  0
   -2.7682   20.0062  -34.2616 H   0  0  0  0  0  0  0  0  0  0  0  0
   -2.4863   22.6505  -32.8606 H   0  0  0  0  0  0  0  0  0  0  0  0
   -3.8970   21.5749  -32.9182 H   0  0  0  0  0  0  0  0  0  0  0  0
   -5.1407   21.6964  -31.2771 H   0  0  0  0  0  0  0  0  0  0  0  0
   -4.1033   19.6509  -34.5516 H   0  0  0  0  0  0  0  0  0  0  0  0
   -3.9268   17.2030  -35.1240 H   0  0  0  0  0  0  0  0  0  0  0  0
   -5.6793   15.5965  -34.3339 H   0  0  0  0  0  0  0  0  0  0  0  0
   -7.6205   16.4200  -32.9504 H   0  0  0  0  0  0  0  0  0  0  0  0
  1  2  1  0
  2  3  2  0
  3  4  1  0
  4  5  2  0
  4  6  1  0
  6  7  1  0
  7  8  2  0
  8  9  1  0
  9 10  2  0
 10 11  1  0
 10 12  1  0
 12 13  1  0
 13 14  2  0
 13 15  2  0
 13 16  1  0
 16 17  1  0
 17 18  1  0
 18 19  1  0
 19 20  1  0
 12 21  2  0
  3 22  1  0
 22 23  1  0
 23 24  2  0
 24 25  1  0
 25 26  2  0
 26 27  1  0
 27 28  2  0
 28  2  1  0
 21  7  1  0
 28 23  1  0
 20 16  1  0
  1 29  1  0
  1 30  1  0
  1 31  1  0
  8 32  1  0
  9 33  1  0
 17 34  1  0
 17 35  1  0
 18 36  1  0
 18 37  1  0
 19 38  1  0
 19 39  1  0
 20 40  1  0
 20 41  1  0
 21 42  1  0
 24 43  1  0
 25 44  1  0
 26 45  1  0
 27 46  1  0
M  CHG  2   6  -1  11  -1
M  END
>  <UniqueID>  (39) 
38

>  <SMILES>  (39) 
Cc1c(C(=O)[N-]c2ccc([O-])c(S(=O)(=O)N3CCCC3)c2)oc2ccccc12

>  <Energy>  (39) 
88.44842396049903

>  <Genealogy>  (39) 
Cc1c(C(=O)[N-]c2ccc([O-])c(S(=O)(=O)N3CCCC3)c2)oc2ccccc12 (protonated)
Cc1c(C(=O)[N-]c2ccc([O-])c(S(=O)(=O)N3CCCC3)c2)oc2ccccc12 (3D coordinates assigned)
Cc1c(C(=O)[N-]c2ccc([O-])c(S(=O)(=O)N3CCCC3)c2)oc2ccccc12 (nonaromatic ring conformer: 88.44842396049903 kcal/mol)

>  <smiles>  (39) 
Cc1c(C(=O)Nc2ccc(O)c(S(=O)(=O)N3CCCC3)c2)oc2ccccc12

>  <score_type>  (39) 
oracle

>  <origin>  (39) 
adgpu

>  <m_score__min__energy>  (39) 
-12.880000000000001

>  <m_primary>  (39) 
energy

$$$$
39:0
     RDKit          3D

 73 77  0  0  0  0  0  0  0  0999 V2000
   -4.1750   12.5210  -34.1010 C   0  0  0  0  0  0  0  0  0  0  0  0
   -4.5980   13.8860  -33.6460 C   0  0  0  0  0  0  0  0  0  0  0  0
   -4.8750   14.8860  -34.5890 C   0  0  0  0  0  0  0  0  0  0  0  0
   -5.2320   16.1710  -34.1710 C   0  0  0  0  0  0  0  0  0  0  0  0
   -5.3080   16.4800  -32.8010 C   0  0  0  0  0  0  0  0  0  0  0  0
   -5.6960   17.8780  -32.3550 C   0  0  0  0  0  0  0  0  0  0  0  0
   -6.7760   17.8450  -31.2410 C   0  0  0  0  0  0  0  0  0  0  0  0
   -7.8020   18.9900  -31.3410 C   0  0  0  0  0  0  0  0  0  0  0  0
   -7.1810   20.2190  -31.8490 N   0  0  0  0  0  0  0  0  0  0  0  0
   -7.5990   21.4900  -31.3250 C   0  0  0  0  0  0  0  0  0  0  0  0
   -8.8190   21.6870  -31.0700 O   0  0  0  0  0  0  0  0  0  0  0  0
   -6.6210   22.5720  -31.0750 C   0  0  0  0  0  0  0  0  0  0  0  0
   -6.6740   23.7600  -31.8170 C   0  0  0  0  0  0  0  0  0  0  0  0
   -5.7490   24.7780  -31.5840 C   0  0  0  0  0  0  0  0  0  0  0  0
   -4.7630   24.6290  -30.6040 C   0  0  0  0  0  0  0  0  0  0  0  0
   -3.8640   25.6760  -30.3940 O   0  0  0  0  0  0  0  0  0  0  0  0
   -4.6950   23.4420  -29.8510 C   0  0  0  0  0  0  0  0  0  0  0  0
   -3.6930   23.3200  -28.8300 N   0  0  0  0  0  0  0  0  0  0  0  0
   -1.9810   23.4440  -29.0780 S   0  0  0  0  0  0  0  0  0  0  0  0
   -1.5980   24.8690  -29.3650 O   0  0  0  0  0  0  0  0  0  0  0  0
   -1.2570   22.9680  -27.8490 O   0  0  0  0  0  0  0  0  0  0  0  0
   -1.5450   22.4590  -30.4690 C   0  0  0  0  0  0  0  0  0  0  0  0
   -0.2900   21.8400  -30.5500 C   0  0  0  0  0  0  0  0  0  0  0  0
    0.0370   21.0600  -31.6650 C   0  0  0  0  0  0  0  0  0  0  0  0
   -0.8900   20.8900  -32.7030 C   0  0  0  0  0  0  0  0  0  0  0  0
   -0.4870   19.9380  -34.1280 S   0  0  0  0  0  0  0  0  0  0  0  0
    0.8850   19.3520  -33.9370 O   0  0  0  0  0  0  0  0  0  0  0  0
   -0.4650   20.8230  -35.3450 O   0  0  0  0  0  0  0  0  0  0  0  0
   -1.6730   18.6640  -34.3110 N   0  0  0  0  0  0  0  0  0  0  0  0
   -1.1490   17.5350  -35.1120 C   0  0  0  0  0  0  0  0  0  0  0  0
   -0.6820   16.3540  -34.2400 C   0  0  0  0  0  0  0  0  0  0  0  0
   -0.1590   16.8240  -33.0190 O   0  0  0  0  0  0  0  0  0  0  0  0
   -1.1940   17.3680  -32.2170 C   0  0  0  0  0  0  0  0  0  0  0  0
   -2.2090   18.2260  -33.0110 C   0  0  0  0  0  0  0  0  0  0  0  0
   -2.1440   21.5080  -32.6190 C   0  0  0  0  0  0  0  0  0  0  0  0
   -2.4710   22.2860  -31.5050 C   0  0  0  0  0  0  0  0  0  0  0  0
   -5.6160   22.4090  -30.1070 C   0  0  0  0  0  0  0  0  0  0  0  0
   -6.3780   20.1850  -33.0820 C   0  0  0  0  0  0  0  0  0  0  0  0
   -6.1210   18.7480  -33.5520 C   0  0  0  0  0  0  0  0  0  0  0  0
   -5.0110   15.4770  -31.8590 C   0  0  0  0  0  0  0  0  0  0  0  0
   -4.6540   14.1940  -32.2790 C   0  0  0  0  0  0  0  0  0  0  0  0
   -3.9784   11.8867  -33.2240 H   0  0  0  0  0  0  0  0  0  0  0  0
   -4.9760   12.0717  -34.7064 H   0  0  0  0  0  0  0  0  0  0  0  0
   -3.2603   12.6034  -34.7064 H   0  0  0  0  0  0  0  0  0  0  0  0
   -4.8110   14.6580  -35.6632 H   0  0  0  0  0  0  0  0  0  0  0  0
   -5.4551   16.9462  -34.9188 H   0  0  0  0  0  0  0  0  0  0  0  0
   -4.8040   18.3477  -31.9148 H   0  0  0  0  0  0  0  0  0  0  0  0
   -7.3151   16.8885  -31.3078 H   0  0  0  0  0  0  0  0  0  0  0  0
   -6.2524   17.9647  -30.2811 H   0  0  0  0  0  0  0  0  0  0  0  0
   -8.6103   18.6884  -32.0234 H   0  0  0  0  0  0  0  0  0  0  0  0
   -8.1975   19.1910  -30.3344 H   0  0  0  0  0  0  0  0  0  0  0  0
   -7.4488   23.8903  -32.5869 H   0  0  0  0  0  0  0  0  0  0  0  0
   -5.7957   25.7043  -32.1754 H   0  0  0  0  0  0  0  0  0  0  0  0
   -3.0890   25.6050  -29.7450 H   0  0  0  0  0  0  0  0  0  0  0  0
    0.4389   21.9675  -29.7361 H   0  0  0  0  0  0  0  0  0  0  0  0
    1.0242   20.5789  -31.7272 H   0  0  0  0  0  0  0  0  0  0  0  0
   -1.9440   17.1824  -35.7855 H   0  0  0  0  0  0  0  0  0  0  0  0
   -0.2753   17.9013  -35.6709 H   0  0  0  0  0  0  0  0  0  0  0  0
   -1.5369   15.6921  -34.0377 H   0  0  0  0  0  0  0  0  0  0  0  0
    0.1036   15.8019  -34.7767 H   0  0  0  0  0  0  0  0  0  0  0  0
   -1.7374   16.5384  -31.7412 H   0  0  0  0  0  0  0  0  0  0  0  0
   -0.7163   18.0323  -31.4818 H   0  0  0  0  0  0  0  0  0  0  0  0
   -3.1167   17.6296  -33.1852 H   0  0  0  0  0  0  0  0  0  0  0  0
   -2.4278   19.1253  -32.4165 H   0  0  0  0  0  0  0  0  0  0  0  0
   -2.8737   21.3807  -33.4322 H   0  0  0  0  0  0  0  0  0  0  0  0
   -3.4596   22.7643  -31.4418 H   0  0  0  0  0  0  0  0  0  0  0  0
   -5.5483   21.4662  -29.5444 H   0  0  0  0  0  0  0  0  0  0  0  0
   -6.9161   20.7279  -33.8730 H   0  0  0  0  0  0  0  0  0  0  0  0
   -5.4064   20.6559  -32.8716 H   0  0  0  0  0  0  0  0  0  0  0  0
   -7.0412   18.3378  -33.9936 H   0  0  0  0  0  0  0  0  0  0  0  0
   -5.3185   18.7491  -34.3043 H   0  0  0  0  0  0  0  0  0  0  0  0
   -5.0605   15.7056  -30.7842 H   0  0  0  0  0  0  0  0  0  0  0  0
   -4.4155   13.4209  -31.5337 H   0  0  0  0  0  0  0  0  0  0  0  0
  1  2  1  0
  2  3  2  0
  3  4  1  0
  4  5  2  0
  5  6  1  0
  6  7  1  0
  7  8  1  0
  8  9  1  0
  9 10  1  0
 10 11  2  0
 10 12  1  0
 12 13  2  0
 13 14  1  0
 14 15  2  0
 15 16  1  0
 15 17  1  0
 17 18  1  0
 18 19  1  0
 19 20  2  0
 19 21  2  0
 19 22  1  0
 22 23  2  0
 23 24  1  0
 24 25  2  0
 25 26  1  0
 26 27  2  0
 26 28  2  0
 26 29  1  0
 29 30  1  0
 30 31  1  0
 31 32  1  0
 32 33  1  0
 33 34  1  0
 25 35  1  0
 35 36  2  0
 17 37  2  0
  9 38  1  0
 38 39  1  0
  5 40  1  0
 40 41  2  0
 41  2  1  0
 39  6  1  0
 37 12  1  0
 36 22  1  0
 34 29  1  0
  1 42  1  0
  1 43  1  0
  1 44  1  0
  3 45  1  0
  4 46  1  0
  6 47  1  0
  7 48  1  0
  7 49  1  0
  8 50  1  0
  8 51  1  0
 13 52  1  0
 14 53  1  0
 16 54  1  0
 23 55  1  0
 24 56  1  0
 30 57  1  0
 30 58  1  0
 31 59  1  0
 31 60  1  0
 33 61  1  0
 33 62  1  0
 34 63  1  0
 34 64  1  0
 35 65  1  0
 36 66  1  0
 37 67  1  0
 38 68  1  0
 38 69  1  0
 39 70  1  0
 39 71  1  0
 40 72  1  0
 41 73  1  0
M  CHG  1  18  -1
M  END
>  <UniqueID>  (40) 
39

>  <SMILES>  (40) 
Cc1ccc(C2CCN(C(=O)c3ccc(O)c([N-]S(=O)(=O)c4ccc(S(=O)(=O)N5CCOCC5)cc4)c3)CC2)cc1

>  <Energy>  (40) 
100.21749686959504

>  <Genealogy>  (40) 
Cc1ccc(C2CCN(C(=O)c3ccc(O)c([N-]S(=O)(=O)c4ccc(S(=O)(=O)N5CCOCC5)cc4)c3)CC2)cc1 (protonated)
Cc1ccc(C2CCN(C(=O)c3ccc(O)c([N-]S(=O)(=O)c4ccc(S(=O)(=O)N5CCOCC5)cc4)c3)CC2)cc1 (3D coordinates assigned)
Cc1ccc(C2CCN(C(=O)c3ccc(O)c([N-]S(=O)(=O)c4ccc(S(=O)(=O)N5CCOCC5)cc4)c3)CC2)cc1 (nonaromatic ring conformer: 100.21749686959504 kcal/mol)

>  <smiles>  (40) 
Cc1ccc(C2CCN(C(=O)c3ccc(O)c(NS(=O)(=O)c4ccc(S(=O)(=O)N5CCOCC5)cc4)c3)CC2)cc1

>  <score_type>  (40) 
oracle

>  <origin>  (40) 
adgpu

>  <m_score__min__energy>  (40) 
-13.57

>  <m_primary>  (40) 
energy

$$$$
40:0
     RDKit          3D

 53 56  0  0  0  0  0  0  0  0999 V2000
   -1.9200   19.9680  -26.5990 C   0  0  0  0  0  0  0  0  0  0  0  0
   -1.8560   20.5240  -27.9900 C   0  0  0  0  0  0  0  0  0  0  0  0
   -0.6440   20.5490  -28.6950 C   0  0  0  0  0  0  0  0  0  0  0  0
   -0.5940   21.0740  -29.9900 C   0  0  0  0  0  0  0  0  0  0  0  0
   -1.7490   21.5830  -30.5850 C   0  0  0  0  0  0  0  0  0  0  0  0
   -2.9610   21.5870  -29.8830 C   0  0  0  0  0  0  0  0  0  0  0  0
   -4.1640   22.0690  -30.5090 N   0  0  0  0  0  0  0  0  0  0  0  0
   -4.9140   23.1800  -29.9140 C   0  0  0  0  0  0  0  0  0  0  0  0
   -4.4270   24.4800  -30.4710 C   0  0  0  0  0  0  0  0  0  0  0  0
   -5.1760   25.1620  -31.2200 O   0  0  0  0  0  0  0  0  0  0  0  0
   -3.1010   24.9250  -30.1610 N   0  0  0  0  0  0  0  0  0  0  0  0
   -2.4080   24.6970  -28.9280 C   0  0  0  0  0  0  0  0  0  0  0  0
   -3.0950   24.5950  -27.6960 C   0  0  0  0  0  0  0  0  0  0  0  0
   -2.3890   24.3370  -26.5100 C   0  0  0  0  0  0  0  0  0  0  0  0
   -1.0040   24.1710  -26.5740 C   0  0  0  0  0  0  0  0  0  0  0  0
   -0.3380   24.2420  -27.7700 C   0  0  0  0  0  0  0  0  0  0  0  0
   -1.0180   24.4950  -28.9630 C   0  0  0  0  0  0  0  0  0  0  0  0
    1.1150   24.0080  -27.6130 C   0  0  0  0  0  0  0  0  0  0  0  0
    1.2980   23.7940  -26.0980 C   0  0  0  0  0  0  0  0  0  0  0  0
   -0.0940   23.8860  -25.4440 C   0  0  0  0  0  0  0  0  0  0  0  0
   -4.6660   21.4260  -32.0450 S   0  0  0  0  0  0  0  0  0  0  0  0
   -4.2260   22.3550  -33.1410 O   0  0  0  0  0  0  0  0  0  0  0  0
   -4.0390   20.0770  -32.2720 O   0  0  0  0  0  0  0  0  0  0  0  0
   -6.4150   21.2370  -32.0520 C   0  0  0  0  0  0  0  0  0  0  0  0
   -7.2580   22.3540  -31.9610 C   0  0  0  0  0  0  0  0  0  0  0  0
   -8.6460   22.1880  -31.9470 C   0  0  0  0  0  0  0  0  0  0  0  0
   -9.1970   20.9050  -32.0180 C   0  0  0  0  0  0  0  0  0  0  0  0
   -8.3610   19.7890  -32.1040 C   0  0  0  0  0  0  0  0  0  0  0  0
   -6.9730   19.9520  -32.1180 C   0  0  0  0  0  0  0  0  0  0  0  0
   -3.0080   21.0580  -28.5840 C   0  0  0  0  0  0  0  0  0  0  0  0
   -1.8256   20.7879  -25.8717 H   0  0  0  0  0  0  0  0  0  0  0  0
   -2.8829   19.4568  -26.4524 H   0  0  0  0  0  0  0  0  0  0  0  0
   -1.0984   19.2514  -26.4524 H   0  0  0  0  0  0  0  0  0  0  0  0
    0.2703   20.1543  -28.2277 H   0  0  0  0  0  0  0  0  0  0  0  0
    0.3580   21.0858  -30.5410 H   0  0  0  0  0  0  0  0  0  0  0  0
   -1.7075   21.9825  -31.6090 H   0  0  0  0  0  0  0  0  0  0  0  0
   -5.9833   23.0626  -30.1439 H   0  0  0  0  0  0  0  0  0  0  0  0
   -4.7648   23.1747  -28.8242 H   0  0  0  0  0  0  0  0  0  0  0  0
   -4.1877   24.7184  -27.6667 H   0  0  0  0  0  0  0  0  0  0  0  0
   -2.9174   24.2669  -25.5478 H   0  0  0  0  0  0  0  0  0  0  0  0
   -0.4728   24.5356  -29.9175 H   0  0  0  0  0  0  0  0  0  0  0  0
    1.4301   23.1161  -28.1745 H   0  0  0  0  0  0  0  0  0  0  0  0
    1.7215   24.8407  -27.9987 H   0  0  0  0  0  0  0  0  0  0  0  0
    1.7365   22.8030  -25.9093 H   0  0  0  0  0  0  0  0  0  0  0  0
    1.9732   24.5545  -25.6788 H   0  0  0  0  0  0  0  0  0  0  0  0
   -0.3607   22.9361  -24.9576 H   0  0  0  0  0  0  0  0  0  0  0  0
   -0.1420   24.6546  -24.6585 H   0  0  0  0  0  0  0  0  0  0  0  0
   -6.8258   23.3637  -31.9005 H   0  0  0  0  0  0  0  0  0  0  0  0
   -9.3045   23.0666  -31.8801 H   0  0  0  0  0  0  0  0  0  0  0  0
  -10.2891   20.7742  -32.0061 H   0  0  0  0  0  0  0  0  0  0  0  0
   -8.7960   18.7802  -32.1608 H   0  0  0  0  0  0  0  0  0  0  0  0
   -6.3172   19.0711  -32.1809 H   0  0  0  0  0  0  0  0  0  0  0  0
   -3.9567   21.0624  -28.0273 H   0  0  0  0  0  0  0  0  0  0  0  0
  1  2  1  0
  2  3  2  0
  3  4  1  0
  4  5  2  0
  5  6  1  0
  6  7  1  0
  7  8  1  0
  8  9  1  0
  9 10  2  0
  9 11  1  0
 11 12  1  0
 12 13  2  0
 13 14  1  0
 14 15  2  0
 15 16  1  0
 16 17  2  0
 16 18  1  0
 18 19  1  0
 19 20  1  0
  7 21  1  0
 21 22  2  0
 21 23  2  0
 21 24  1  0
 24 25  2  0
 25 26  1  0
 26 27  2  0
 27 28  1  0
 28 29  2  0
  6 30  2  0
 30  2  1  0
 17 12  1  0
 29 24  1  0
 20 15  1  0
  1 31  1  0
  1 32  1  0
  1 33  1  0
  3 34  1  0
  4 35  1  0
  5 36  1  0
  8 37  1  0
  8 38  1  0
 13 39  1  0
 14 40  1  0
 17 41  1  0
 18 42  1  0
 18 43  1  0
 19 44  1  0
 19 45  1  0
 20 46  1  0
 20 47  1  0
 25 48  1  0
 26 49  1  0
 27 50  1  0
 28 51  1  0
 29 52  1  0
 30 53  1  0
M  CHG  1  11  -1
M  END
>  <UniqueID>  (41) 
40

>  <SMILES>  (41) 
Cc1cccc(N(CC(=O)[N-]c2ccc3c(c2)CCC3)S(=O)(=O)c2ccccc2)c1

>  <Energy>  (41) 
69.01463841785123

>  <Genealogy>  (41) 
Cc1cccc(N(CC(=O)[N-]c2ccc3c(c2)CCC3)S(=O)(=O)c2ccccc2)c1 (protonated)
Cc1cccc(N(CC(=O)[N-]c2ccc3c(c2)CCC3)S(=O)(=O)c2ccccc2)c1 (3D coordinates assigned)
Cc1cccc(N(CC(=O)[N-]c2ccc3c(c2)CCC3)S(=O)(=O)c2ccccc2)c1 (nonaromatic ring conformer: 69.01463841785123 kcal/mol)

>  <smiles>  (41) 
Cc1cccc(N(CC(=O)Nc2ccc3c(c2)CCC3)S(=O)(=O)c2ccccc2)c1

>  <score_type>  (41) 
oracle

>  <origin>  (41) 
adgpu

>  <m_score__min__energy>  (41) 
-12.289999999999999

>  <m_primary>  (41) 
energy

$$$$
41:0
     RDKit          3D

 89 93  0  0  0  0  0  0  0  0999 V2000
    0.1420   13.5630  -31.1160 C   0  0  0  0  0  0  0  0  0  0  0  0
    1.4570   13.3360  -31.0710 C   0  0  0  0  0  0  0  0  0  0  0  0
    2.3910   14.2310  -30.3010 C   0  0  0  0  0  0  0  0  0  0  0  0
    1.7710   15.5930  -30.0680 C   0  0  0  0  0  0  0  0  0  0  0  0
    1.2950   15.9350  -28.7840 C   0  0  0  0  0  0  0  0  0  0  0  0
    1.4170   15.0320  -27.7310 O   0  0  0  0  0  0  0  0  0  0  0  0
    0.6920   17.1850  -28.5560 C   0  0  0  0  0  0  0  0  0  0  0  0
    0.1500   17.5470  -27.1950 C   0  0  0  0  0  0  0  0  0  0  0  0
   -0.7540   18.7480  -27.2880 C   0  0  0  0  0  0  0  0  0  0  0  0
   -0.2220   20.0220  -27.5410 C   0  0  0  0  0  0  0  0  0  0  0  0
   -1.0630   21.1350  -27.6140 C   0  0  0  0  0  0  0  0  0  0  0  0
   -2.4490   20.9980  -27.4290 C   0  0  0  0  0  0  0  0  0  0  0  0
   -3.2890   22.1650  -27.5160 N   0  0  0  0  0  0  0  0  0  0  0  0
   -2.7770   23.5330  -27.3960 C   0  0  0  0  0  0  0  0  0  0  0  0
   -3.8930   24.5050  -27.0210 C   0  0  0  0  0  0  0  0  0  0  0  0
   -2.9790   19.7200  -27.1630 C   0  0  0  0  0  0  0  0  0  0  0  0
   -2.1360   18.6070  -27.0920 C   0  0  0  0  0  0  0  0  0  0  0  0
    0.5400   18.0810  -29.6190 C   0  0  0  0  0  0  0  0  0  0  0  0
    0.9950   17.7560  -30.9000 C   0  0  0  0  0  0  0  0  0  0  0  0
    0.7480   18.8900  -32.2360 S   0  0  0  0  0  0  0  0  0  0  0  0
    0.7630   18.0840  -33.5020 O   0  0  0  0  0  0  0  0  0  0  0  0
    1.8720   19.8870  -32.2730 O   0  0  0  0  0  0  0  0  0  0  0  0
   -0.7890   19.7600  -32.0320 C   0  0  0  0  0  0  0  0  0  0  0  0
   -0.7650   20.9530  -31.2850 C   0  0  0  0  0  0  0  0  0  0  0  0
   -1.9330   21.6720  -31.0410 C   0  0  0  0  0  0  0  0  0  0  0  0
   -3.1510   21.2290  -31.5570 C   0  0  0  0  0  0  0  0  0  0  0  0
   -4.6350   22.1190  -31.2080 S   0  0  0  0  0  0  0  0  0  0  0  0
   -4.6280   23.3820  -32.0260 O   0  0  0  0  0  0  0  0  0  0  0  0
   -4.5940   22.4770  -29.7510 O   0  0  0  0  0  0  0  0  0  0  0  0
   -6.0810   21.1500  -31.5990 C   0  0  0  0  0  0  0  0  0  0  0  0
   -5.9230   19.7480  -31.5790 C   0  0  0  0  0  0  0  0  0  0  0  0
   -6.9820   18.8940  -31.8690 C   0  0  0  0  0  0  0  0  0  0  0  0
   -8.2280   19.4130  -32.1880 C   0  0  0  0  0  0  0  0  0  0  0  0
   -8.4150   20.7910  -32.2330 C   0  0  0  0  0  0  0  0  0  0  0  0
   -7.3590   21.6940  -31.9660 C   0  0  0  0  0  0  0  0  0  0  0  0
   -7.7310   23.1800  -32.0340 C   0  0  0  0  0  0  0  0  0  0  0  0
   -9.2250   23.3770  -32.3210 C   0  0  0  0  0  0  0  0  0  0  0  0
   -7.2280   24.0450  -30.8700 C   0  0  0  0  0  0  0  0  0  0  0  0
   -3.1900   20.0630  -32.3280 C   0  0  0  0  0  0  0  0  0  0  0  0
   -2.0240   19.3220  -32.5860 C   0  0  0  0  0  0  0  0  0  0  0  0
   -2.1780   17.8840  -33.6180 S   0  0  0  0  0  0  0  0  0  0  0  0
   -1.4590   16.7200  -32.9960 O   0  0  0  0  0  0  0  0  0  0  0  0
   -1.5460   18.1620  -34.9530 O   0  0  0  0  0  0  0  0  0  0  0  0
   -3.8660   17.4160  -33.7980 C   0  0  0  0  0  0  0  0  0  0  0  0
   -4.7130   18.1760  -34.6180 C   0  0  0  0  0  0  0  0  0  0  0  0
   -6.0550   17.8120  -34.7700 C   0  0  0  0  0  0  0  0  0  0  0  0
   -6.5580   16.6910  -34.1030 C   0  0  0  0  0  0  0  0  0  0  0  0
   -5.7200   15.9370  -33.2770 C   0  0  0  0  0  0  0  0  0  0  0  0
   -4.3780   16.3000  -33.1190 C   0  0  0  0  0  0  0  0  0  0  0  0
    1.6150   16.5160  -31.1330 C   0  0  0  0  0  0  0  0  0  0  0  0
    2.0470   16.2220  -32.4300 O   0  0  0  0  0  0  0  0  0  0  0  0
   -0.5131   12.8895  -31.6880 H   0  0  0  0  0  0  0  0  0  0  0  0
   -0.2862   14.4235  -30.5810 H   0  0  0  0  0  0  0  0  0  0  0  0
    1.8693   12.4712  -31.6115 H   0  0  0  0  0  0  0  0  0  0  0  0
    2.6141   13.7666  -29.3291 H   0  0  0  0  0  0  0  0  0  0  0  0
    3.3126   14.3618  -30.8871 H   0  0  0  0  0  0  0  0  0  0  0  0
   -0.4197   16.6956  -26.7944 H   0  0  0  0  0  0  0  0  0  0  0  0
    0.9924   17.7873  -26.5297 H   0  0  0  0  0  0  0  0  0  0  0  0
    0.8620   20.1445  -27.6824 H   0  0  0  0  0  0  0  0  0  0  0  0
   -0.6361   22.1280  -27.8182 H   0  0  0  0  0  0  0  0  0  0  0  0
   -4.3150   22.0230  -27.6620 H   0  0  0  0  0  0  0  0  0  0  0  0
   -2.0006   23.5593  -26.6172 H   0  0  0  0  0  0  0  0  0  0  0  0
   -2.3597   23.8370  -28.3673 H   0  0  0  0  0  0  0  0  0  0  0  0
   -3.9689   24.5711  -25.9256 H   0  0  0  0  0  0  0  0  0  0  0  0
   -3.6672   25.4994  -27.4336 H   0  0  0  0  0  0  0  0  0  0  0  0
   -4.8470   24.1448  -27.4336 H   0  0  0  0  0  0  0  0  0  0  0  0
   -4.0614   19.5973  -27.0104 H   0  0  0  0  0  0  0  0  0  0  0  0
   -2.5592   17.6138  -26.8810 H   0  0  0  0  0  0  0  0  0  0  0  0
    0.0564   19.0535  -29.4448 H   0  0  0  0  0  0  0  0  0  0  0  0
    0.1915   21.3234  -30.8876 H   0  0  0  0  0  0  0  0  0  0  0  0
   -1.8947   22.5921  -30.4394 H   0  0  0  0  0  0  0  0  0  0  0  0
   -4.9407   19.3209  -31.3286 H   0  0  0  0  0  0  0  0  0  0  0  0
   -6.8309   17.8047  -31.8453 H   0  0  0  0  0  0  0  0  0  0  0  0
   -9.0674   18.7360  -32.4052 H   0  0  0  0  0  0  0  0  0  0  0  0
   -9.4097   21.1887  -32.4827 H   0  0  0  0  0  0  0  0  0  0  0  0
   -7.1665   23.5676  -32.8949 H   0  0  0  0  0  0  0  0  0  0  0  0
   -9.7745   23.4495  -31.3708 H   0  0  0  0  0  0  0  0  0  0  0  0
   -9.3685   24.3018  -32.8990 H   0  0  0  0  0  0  0  0  0  0  0  0
   -9.6033   22.5210  -32.8990 H   0  0  0  0  0  0  0  0  0  0  0  0
   -7.5032   23.5718  -29.9159 H   0  0  0  0  0  0  0  0  0  0  0  0
   -6.1338   24.1401  -30.9300 H   0  0  0  0  0  0  0  0  0  0  0  0
   -7.6866   25.0430  -30.9300 H   0  0  0  0  0  0  0  0  0  0  0  0
   -4.1504   19.7196  -32.7399 H   0  0  0  0  0  0  0  0  0  0  0  0
   -4.3212   19.0599  -35.1425 H   0  0  0  0  0  0  0  0  0  0  0  0
   -6.7159   18.4090  -35.4156 H   0  0  0  0  0  0  0  0  0  0  0  0
   -7.6122   16.4028  -34.2282 H   0  0  0  0  0  0  0  0  0  0  0  0
   -6.1162   15.0565  -32.7501 H   0  0  0  0  0  0  0  0  0  0  0  0
   -3.7232   15.7094  -32.4613 H   0  0  0  0  0  0  0  0  0  0  0  0
    1.6470   16.6280  -33.2650 H   0  0  0  0  0  0  0  0  0  0  0  0
  1  2  2  0
  2  3  1  0
  3  4  1  0
  4  5  2  0
  5  6  1  0
  5  7  1  0
  7  8  1  0
  8  9  1  0
  9 10  2  0
 10 11  1  0
 11 12  2  0
 12 13  1  0
 13 14  1  0
 14 15  1  0
 12 16  1  0
 16 17  2  0
  7 18  2  0
 18 19  1  0
 19 20  1  0
 20 21  2  0
 20 22  2  0
 20 23  1  0
 23 24  2  0
 24 25  1  0
 25 26  2  0
 26 27  1  0
 27 28  2  0
 27 29  2  0
 27 30  1  0
 30 31  2  0
 31 32  1  0
 32 33  2  0
 33 34  1  0
 34 35  2  0
 35 36  1  0
 36 37  1  0
 36 38  1  0
 26 39  1  0
 39 40  2  0
 40 41  1  0
 41 42  2  0
 41 43  2  0
 41 44  1  0
 44 45  2  0
 45 46  1  0
 46 47  2  0
 47 48  1  0
 48 49  2  0
 19 50  2  0
 50 51  1  0
 50  4  1  0
 17  9  1  0
 40 23  1  0
 49 44  1  0
 35 30  1  0
  1 52  1  0
  1 53  1  0
  2 54  1  0
  3 55  1  0
  3 56  1  0
  8 57  1  0
  8 58  1  0
 10 59  1  0
 11 60  1  0
 13 61  1  0
 14 62  1  0
 14 63  1  0
 15 64  1  0
 15 65  1  0
 15 66  1  0
 16 67  1  0
 17 68  1  0
 18 69  1  0
 24 70  1  0
 25 71  1  0
 31 72  1  0
 32 73  1  0
 33 74  1  0
 34 75  1  0
 36 76  1  0
 37 77  1  0
 37 78  1  0
 37 79  1  0
 38 80  1  0
 38 81  1  0
 38 82  1  0
 39 83  1  0
 45 84  1  0
 46 85  1  0
 47 86  1  0
 48 87  1  0
 49 88  1  0
 51 89  1  0
M  CHG  1   6  -1
M  END
>  <UniqueID>  (42) 
41

>  <SMILES>  (42) 
C=CCc1c([O-])c(Cc2ccc(NCC)cc2)cc(S(=O)(=O)c2ccc(S(=O)(=O)c3ccccc3C(C)C)cc2S(=O)(=O)c2ccccc2)c1O

>  <Energy>  (42) 
108.34084767912924

>  <Genealogy>  (42) 
C=CCc1c([O-])c(Cc2ccc(NCC)cc2)cc(S(=O)(=O)c2ccc(S(=O)(=O)c3ccccc3C(C)C)cc2S(=O)(=O)c2ccccc2)c1O (protonated)
C=CCc1c([O-])c(Cc2ccc(NCC)cc2)cc(S(=O)(=O)c2ccc(S(=O)(=O)c3ccccc3C(C)C)cc2S(=O)(=O)c2ccccc2)c1O (3D coordinates assigned)
C=CCc1c([O-])c(Cc2ccc(NCC)cc2)cc(S(=O)(=O)c2ccc(S(=O)(=O)c3ccccc3C(C)C)cc2S(=O)(=O)c2ccccc2)c1O (optimized conformer: 108.34084767912924 kcal/mol)

>  <smiles>  (42) 
C=CCc1c(O)c(Cc2ccc(NCC)cc2)cc(S(=O)(=O)c2ccc(S(=O)(=O)c3ccccc3C(C)C)cc2S(=O)(=O)c2ccccc2)c1O

>  <score_type>  (42) 
oracle

>  <origin>  (42) 
adgpu

>  <m_score__min__energy>  (42) 
-12.48

>  <m_primary>  (42) 
energy

$$$$
42:0
     RDKit          3D

 62 66  0  0  0  0  0  0  0  0999 V2000
   -8.7470   18.2220  -31.9330 C   0  0  0  0  0  0  0  0  0  0  0  0
   -8.4700   19.4190  -32.7420 N   0  0  0  0  0  0  0  0  0  0  0  0
   -9.3070   20.5670  -32.3190 C   0  0  0  0  0  0  0  0  0  0  0  0
   -8.6220   21.4570  -31.2710 C   0  0  0  0  0  0  0  0  0  0  0  0
   -7.2680   21.8180  -31.6950 N   0  0  0  0  0  0  0  0  0  0  0  0
   -6.5620   22.8600  -31.0110 C   0  0  0  0  0  0  0  0  0  0  0  0
   -7.1840   24.1060  -30.8370 C   0  0  0  0  0  0  0  0  0  0  0  0
   -6.5330   25.1370  -30.1540 C   0  0  0  0  0  0  0  0  0  0  0  0
   -5.2520   24.9370  -29.6390 C   0  0  0  0  0  0  0  0  0  0  0  0
   -4.6100   23.6990  -29.8000 C   0  0  0  0  0  0  0  0  0  0  0  0
   -3.3270   23.4940  -29.2690 C   0  0  0  0  0  0  0  0  0  0  0  0
   -2.6850   22.2570  -29.4280 C   0  0  0  0  0  0  0  0  0  0  0  0
   -1.1100   21.9560  -28.7020 S   0  0  0  0  0  0  0  0  0  0  0  0
   -0.4480   20.7550  -29.3170 O   0  0  0  0  0  0  0  0  0  0  0  0
   -1.2920   21.7020  -27.2330 O   0  0  0  0  0  0  0  0  0  0  0  0
   -0.1150   23.3570  -28.9290 N   0  0  0  0  0  0  0  0  0  0  0  0
   -0.1000   24.4490  -27.9910 C   0  0  0  0  0  0  0  0  0  0  0  0
    0.6990   24.3970  -26.8370 C   0  0  0  0  0  0  0  0  0  0  0  0
    0.7140   25.4640  -25.9220 C   0  0  0  0  0  0  0  0  0  0  0  0
   -0.0820   26.5980  -26.1650 C   0  0  0  0  0  0  0  0  0  0  0  0
   -0.8810   26.6520  -27.3160 C   0  0  0  0  0  0  0  0  0  0  0  0
   -0.9020   25.5830  -28.2160 C   0  0  0  0  0  0  0  0  0  0  0  0
   -1.7080   25.6640  -29.3470 O   0  0  0  0  0  0  0  0  0  0  0  0
    0.0110   27.7920  -25.2550 C   0  0  0  0  0  0  0  0  0  0  0  0
    0.3100   27.4030  -23.8630 N   0  0  0  0  0  0  0  0  0  0  0  0
   -0.8390   26.7550  -23.2080 C   0  0  0  0  0  0  0  0  0  0  0  0
    1.5460   26.5960  -23.7770 C   0  0  0  0  0  0  0  0  0  0  0  0
    1.5150   25.3250  -24.6520 C   0  0  0  0  0  0  0  0  0  0  0  0
   -3.3270   21.2230  -30.1220 C   0  0  0  0  0  0  0  0  0  0  0  0
   -4.6030   21.4140  -30.6540 C   0  0  0  0  0  0  0  0  0  0  0  0
   -5.2650   22.6480  -30.4950 C   0  0  0  0  0  0  0  0  0  0  0  0
   -6.6750   21.1820  -32.8670 C   0  0  0  0  0  0  0  0  0  0  0  0
   -7.0090   19.6880  -32.8350 C   0  0  0  0  0  0  0  0  0  0  0  0
   -8.6875   18.4793  -30.8652 H   0  0  0  0  0  0  0  0  0  0  0  0
   -9.7554   17.8483  -32.1644 H   0  0  0  0  0  0  0  0  0  0  0  0
   -8.0053   17.4433  -32.1644 H   0  0  0  0  0  0  0  0  0  0  0  0
   -9.5345   21.1795  -33.2039 H   0  0  0  0  0  0  0  0  0  0  0  0
  -10.2175   20.1572  -31.8573 H   0  0  0  0  0  0  0  0  0  0  0  0
   -9.2135   22.3745  -31.1360 H   0  0  0  0  0  0  0  0  0  0  0  0
   -8.5565   20.8988  -30.3254 H   0  0  0  0  0  0  0  0  0  0  0  0
   -8.1931   24.2726  -31.2419 H   0  0  0  0  0  0  0  0  0  0  0  0
   -7.0319   26.1085  -30.0222 H   0  0  0  0  0  0  0  0  0  0  0  0
   -4.7429   25.7527  -29.1046 H   0  0  0  0  0  0  0  0  0  0  0  0
   -2.8228   24.3069  -28.7258 H   0  0  0  0  0  0  0  0  0  0  0  0
    0.6170   23.3060  -29.6760 H   0  0  0  0  0  0  0  0  0  0  0  0
    1.3210   23.5099  -26.6468 H   0  0  0  0  0  0  0  0  0  0  0  0
   -1.4960   27.5427  -27.5121 H   0  0  0  0  0  0  0  0  0  0  0  0
    0.8105   28.4543  -25.6184 H   0  0  0  0  0  0  0  0  0  0  0  0
   -0.9630   28.3031  -25.2637 H   0  0  0  0  0  0  0  0  0  0  0  0
   -0.7233   26.8202  -22.1160 H   0  0  0  0  0  0  0  0  0  0  0  0
   -1.7671   27.2627  -23.5094 H   0  0  0  0  0  0  0  0  0  0  0  0
   -0.8847   25.6981  -23.5094 H   0  0  0  0  0  0  0  0  0  0  0  0
    2.3922   27.2202  -24.0999 H   0  0  0  0  0  0  0  0  0  0  0  0
    1.6446   26.2665  -22.7321 H   0  0  0  0  0  0  0  0  0  0  0  0
    2.5496   25.0688  -24.9238 H   0  0  0  0  0  0  0  0  0  0  0  0
    1.0234   24.5434  -24.0541 H   0  0  0  0  0  0  0  0  0  0  0  0
   -2.8219   20.2540  -30.2484 H   0  0  0  0  0  0  0  0  0  0  0  0
   -5.0952   20.5962  -31.2009 H   0  0  0  0  0  0  0  0  0  0  0  0
   -7.0864   21.6340  -33.7816 H   0  0  0  0  0  0  0  0  0  0  0  0
   -5.5841   21.3229  -32.8588 H   0  0  0  0  0  0  0  0  0  0  0  0
   -6.6252   19.2235  -33.7553 H   0  0  0  0  0  0  0  0  0  0  0  0
   -6.5394   19.2658  -31.9343 H   0  0  0  0  0  0  0  0  0  0  0  0
  1  2  1  0
  2  3  1  0
  3  4  1  0
  4  5  1  0
  5  6  1  0
  6  7  2  0
  7  8  1  0
  8  9  2  0
  9 10  1  0
 10 11  2  0
 11 12  1  0
 12 13  1  0
 13 14  2  0
 13 15  2  0
 13 16  1  0
 16 17  1  0
 17 18  2  0
 18 19  1  0
 19 20  2  0
 20 21  1  0
 21 22  2  0
 22 23  1  0
 20 24  1  0
 24 25  1  0
 25 26  1  0
 25 27  1  0
 27 28  1  0
 12 29  2  0
 29 30  1  0
 30 31  2  0
  5 32  1  0
 32 33  1  0
 33  2  1  0
 31  6  1  0
 31 10  1  0
 22 17  1  0
 28 19  1  0
  1 34  1  0
  1 35  1  0
  1 36  1  0
  3 37  1  0
  3 38  1  0
  4 39  1  0
  4 40  1  0
  7 41  1  0
  8 42  1  0
  9 43  1  0
 11 44  1  0
 16 45  1  0
 18 46  1  0
 21 47  1  0
 24 48  1  0
 24 49  1  0
 26 50  1  0
 26 51  1  0
 26 52  1  0
 27 53  1  0
 27 54  1  0
 28 55  1  0
 28 56  1  0
 29 57  1  0
 30 58  1  0
 32 59  1  0
 32 60  1  0
 33 61  1  0
 33 62  1  0
M  CHG  1  23  -1
M  END
>  <UniqueID>  (43) 
42

>  <SMILES>  (43) 
CN1CCN(c2cccc3cc(S(=O)(=O)Nc4cc5c(cc4[O-])CN(C)CC5)ccc23)CC1

>  <Energy>  (43) 
92.06064547470578

>  <Genealogy>  (43) 
CN1CCN(c2cccc3cc(S(=O)(=O)Nc4cc5c(cc4[O-])CN(C)CC5)ccc23)CC1 (protonated)
CN1CCN(c2cccc3cc(S(=O)(=O)Nc4cc5c(cc4[O-])CN(C)CC5)ccc23)CC1 (3D coordinates assigned)
CN1CCN(c2cccc3cc(S(=O)(=O)Nc4cc5c(cc4[O-])CN(C)CC5)ccc23)CC1 (nonaromatic ring conformer: 92.06064547470578 kcal/mol)

>  <smiles>  (43) 
CN1CCN(c2cccc3cc(S(=O)(=O)Nc4cc5c(cc4O)CN(C)CC5)ccc23)CC1

>  <score_type>  (43) 
oracle

>  <origin>  (43) 
adgpu

>  <m_score__min__energy>  (43) 
-15.02

>  <m_primary>  (43) 
energy

$$$$
43:0
     RDKit          3D

 60 63  0  0  0  0  0  0  0  0999 V2000
   -3.6530   20.9270  -33.0800 C   0  0  0  0  0  0  0  0  0  0  0  0
   -5.0240   21.1750  -33.3610 O   0  0  0  0  0  0  0  0  0  0  0  0
   -5.9350   21.7520  -32.4610 C   0  0  0  0  0  0  0  0  0  0  0  0
   -5.6170   22.9000  -31.7110 C   0  0  0  0  0  0  0  0  0  0  0  0
   -6.5490   23.4450  -30.8130 C   0  0  0  0  0  0  0  0  0  0  0  0
   -6.2680   24.6450  -30.0750 N   0  0  0  0  0  0  0  0  0  0  0  0
   -5.2080   25.5720  -30.3480 C   0  0  0  0  0  0  0  0  0  0  0  0
   -5.4750   26.7990  -30.4290 O   0  0  0  0  0  0  0  0  0  0  0  0
   -3.8520   25.1380  -30.5110 N   0  0  0  0  0  0  0  0  0  0  0  0
   -3.1410   24.2770  -29.6090 C   0  0  0  0  0  0  0  0  0  0  0  0
   -3.5100   22.9300  -29.5410 C   0  0  0  0  0  0  0  0  0  0  0  0
   -2.8540   22.0620  -28.6680 C   0  0  0  0  0  0  0  0  0  0  0  0
   -1.8120   22.5250  -27.8560 C   0  0  0  0  0  0  0  0  0  0  0  0
   -1.1540   21.6410  -27.0010 O   0  0  0  0  0  0  0  0  0  0  0  0
   -1.4260   23.8800  -27.9130 C   0  0  0  0  0  0  0  0  0  0  0  0
   -0.1010   24.4800  -26.8990 S   0  0  0  0  0  0  0  0  0  0  0  0
    0.8630   25.2860  -27.7290 O   0  0  0  0  0  0  0  0  0  0  0  0
    0.6520   23.3250  -26.3040 O   0  0  0  0  0  0  0  0  0  0  0  0
   -0.8020   25.4630  -25.5740 C   0  0  0  0  0  0  0  0  0  0  0  0
   -2.2990   25.7000  -25.6750 C   0  0  0  0  0  0  0  0  0  0  0  0
   -1.3260   26.8260  -25.9950 C   0  0  0  0  0  0  0  0  0  0  0  0
   -2.0690   24.7450  -28.8230 C   0  0  0  0  0  0  0  0  0  0  0  0
   -1.6220   26.0540  -28.9690 O   0  0  0  0  0  0  0  0  0  0  0  0
   -7.8040   22.8480  -30.6800 C   0  0  0  0  0  0  0  0  0  0  0  0
   -8.1310   21.7140  -31.4230 C   0  0  0  0  0  0  0  0  0  0  0  0
   -7.2050   21.1690  -32.3320 C   0  0  0  0  0  0  0  0  0  0  0  0
   -7.5100   20.0550  -33.1350 O   0  0  0  0  0  0  0  0  0  0  0  0
   -8.0830   18.8320  -32.6680 C   0  0  0  0  0  0  0  0  0  0  0  0
   -7.0080   17.9100  -32.0740 C   0  0  0  0  0  0  0  0  0  0  0  0
   -6.3380   17.1400  -33.1400 N   0  0  0  0  0  0  0  0  0  0  0  0
   -5.0240   16.6470  -32.7150 C   0  0  0  0  0  0  0  0  0  0  0  0
   -4.1860   16.5400  -33.9710 C   0  0  0  0  0  0  0  0  0  0  0  0
   -4.6810   17.6820  -34.8280 C   0  0  0  0  0  0  0  0  0  0  0  0
   -6.1180   17.9220  -34.3720 C   0  0  0  0  0  0  0  0  0  0  0  0
   -3.5011   20.8995  -31.9909 H   0  0  0  0  0  0  0  0  0  0  0  0
   -3.3583   19.9610  -33.5158 H   0  0  0  0  0  0  0  0  0  0  0  0
   -3.0386   21.7286  -33.5158 H   0  0  0  0  0  0  0  0  0  0  0  0
   -4.6313   23.3736  -31.8292 H   0  0  0  0  0  0  0  0  0  0  0  0
   -4.3223   22.5526  -30.1796 H   0  0  0  0  0  0  0  0  0  0  0  0
   -3.1577   21.0060  -28.6173 H   0  0  0  0  0  0  0  0  0  0  0  0
   -0.3790   21.9380  -26.4170 H   0  0  0  0  0  0  0  0  0  0  0  0
   -0.1221   25.0978  -24.7902 H   0  0  0  0  0  0  0  0  0  0  0  0
   -2.8776   25.2270  -26.4821 H   0  0  0  0  0  0  0  0  0  0  0  0
   -3.1534   25.5805  -24.9926 H   0  0  0  0  0  0  0  0  0  0  0  0
   -1.2011   27.1668  -27.0334 H   0  0  0  0  0  0  0  0  0  0  0  0
   -1.1854   27.8576  -25.6399 H   0  0  0  0  0  0  0  0  0  0  0  0
   -8.5406   23.2754  -29.9838 H   0  0  0  0  0  0  0  0  0  0  0  0
   -9.1173   21.2433  -31.2980 H   0  0  0  0  0  0  0  0  0  0  0  0
   -8.8305   19.0581  -31.8934 H   0  0  0  0  0  0  0  0  0  0  0  0
   -8.5526   18.3182  -33.5197 H   0  0  0  0  0  0  0  0  0  0  0  0
   -6.2612   18.5197  -31.5444 H   0  0  0  0  0  0  0  0  0  0  0  0
   -7.4886   17.2074  -31.3773 H   0  0  0  0  0  0  0  0  0  0  0  0
   -4.5627   17.3521  -32.0079 H   0  0  0  0  0  0  0  0  0  0  0  0
   -5.1063   15.6762  -32.2044 H   0  0  0  0  0  0  0  0  0  0  0  0
   -3.1168   16.6568  -33.7407 H   0  0  0  0  0  0  0  0  0  0  0  0
   -4.2813   15.5622  -34.4659 H   0  0  0  0  0  0  0  0  0  0  0  0
   -4.0684   18.5811  -34.6659 H   0  0  0  0  0  0  0  0  0  0  0  0
   -4.6208   17.4500  -35.9016 H   0  0  0  0  0  0  0  0  0  0  0  0
   -6.2720   18.9920  -34.1683 H   0  0  0  0  0  0  0  0  0  0  0  0
   -6.8259   17.6121  -35.1548 H   0  0  0  0  0  0  0  0  0  0  0  0
  1  2  1  0
  2  3  1  0
  3  4  2  0
  4  5  1  0
  5  6  1  0
  6  7  1  0
  7  8  2  0
  7  9  1  0
  9 10  1  0
 10 11  2  0
 11 12  1  0
 12 13  2  0
 13 14  1  0
 13 15  1  0
 15 16  1  0
 16 17  2  0
 16 18  2  0
 16 19  1  0
 19 20  1  0
 20 21  1  0
 15 22  2  0
 22 23  1  0
  5 24  2  0
 24 25  1  0
 25 26  2  0
 26 27  1  0
 27 28  1  0
 28 29  1  0
 29 30  1  0
 30 31  1  0
 31 32  1  0
 32 33  1  0
 33 34  1  0
 26  3  1  0
 34 30  1  0
 22 10  1  0
 21 19  1  0
  1 35  1  0
  1 36  1  0
  1 37  1  0
  4 38  1  0
 11 39  1  0
 12 40  1  0
 14 41  1  0
 19 42  1  0
 20 43  1  0
 20 44  1  0
 21 45  1  0
 21 46  1  0
 24 47  1  0
 25 48  1  0
 28 49  1  0
 28 50  1  0
 29 51  1  0
 29 52  1  0
 31 53  1  0
 31 54  1  0
 32 55  1  0
 32 56  1  0
 33 57  1  0
 33 58  1  0
 34 59  1  0
 34 60  1  0
M  CHG  3   6  -1   9  -1  23  -1
M  END
>  <UniqueID>  (44) 
43

>  <SMILES>  (44) 
COc1cc([N-]C(=O)[N-]c2ccc(O)c(S(=O)(=O)C3CC3)c2[O-])ccc1OCCN1CCCC1

>  <Energy>  (44) 
334.9406557469672

>  <Genealogy>  (44) 
COc1cc([N-]C(=O)[N-]c2ccc(O)c(S(=O)(=O)C3CC3)c2[O-])ccc1OCCN1CCCC1 (protonated)
COc1cc([N-]C(=O)[N-]c2ccc(O)c(S(=O)(=O)C3CC3)c2[O-])ccc1OCCN1CCCC1 (3D coordinates assigned)
COc1cc([N-]C(=O)[N-]c2ccc(O)c(S(=O)(=O)C3CC3)c2[O-])ccc1OCCN1CCCC1 (nonaromatic ring conformer: 334.9406557469672 kcal/mol)

>  <smiles>  (44) 
COc1cc(NC(=O)Nc2ccc(O)c(S(=O)(=O)C3CC3)c2O)ccc1OCCN1CCCC1

>  <score_type>  (44) 
oracle

>  <origin>  (44) 
adgpu

>  <m_score__min__energy>  (44) 
-14.4

>  <m_primary>  (44) 
energy

$$$$
44:0
     RDKit          3D

 59 61  0  0  0  0  0  0  0  0999 V2000
   -6.9040   24.6850  -30.4210 C   0  0  0  0  0  0  0  0  0  0  0  0
   -6.3580   23.3770  -31.0710 C   0  0  0  0  0  0  0  0  0  0  0  0
   -6.6400   23.4580  -32.5850 C   0  0  0  0  0  0  0  0  0  0  0  0
   -7.1890   22.2360  -30.4300 C   0  0  0  0  0  0  0  0  0  0  0  0
   -4.8180   23.2260  -30.8370 C   0  0  0  0  0  0  0  0  0  0  0  0
   -4.1480   24.2840  -30.1650 C   0  0  0  0  0  0  0  0  0  0  0  0
   -2.8140   24.1970  -29.7630 C   0  0  0  0  0  0  0  0  0  0  0  0
   -2.2520   25.2970  -29.0310 N   0  0  0  0  0  0  0  0  0  0  0  0
   -1.0250   25.2430  -27.8010 S   0  0  0  0  0  0  0  0  0  0  0  0
    0.2600   24.7050  -28.3650 O   0  0  0  0  0  0  0  0  0  0  0  0
   -0.7630   26.6530  -27.3560 O   0  0  0  0  0  0  0  0  0  0  0  0
   -1.5290   24.3150  -26.4000 N   0  0  0  0  0  0  0  0  0  0  0  0
   -1.5830   22.8720  -26.6870 C   0  0  0  0  0  0  0  0  0  0  0  0
   -0.1960   22.1910  -26.5990 C   0  0  0  0  0  0  0  0  0  0  0  0
    0.8070   23.0370  -26.0700 O   0  0  0  0  0  0  0  0  0  0  0  0
    0.3520   23.6320  -24.8780 C   0  0  0  0  0  0  0  0  0  0  0  0
   -0.7790   24.6360  -25.1680 C   0  0  0  0  0  0  0  0  0  0  0  0
   -2.0970   23.0380  -30.0450 C   0  0  0  0  0  0  0  0  0  0  0  0
   -2.6770   22.0250  -30.7940 C   0  0  0  0  0  0  0  0  0  0  0  0
   -3.9960   22.1210  -31.2720 C   0  0  0  0  0  0  0  0  0  0  0  0
   -4.4490   20.8600  -32.4510 S   0  0  0  0  0  0  0  0  0  0  0  0
   -3.4550   19.7320  -32.4610 O   0  0  0  0  0  0  0  0  0  0  0  0
   -4.5430   21.4740  -33.8210 O   0  0  0  0  0  0  0  0  0  0  0  0
   -6.0090   20.1900  -32.0260 N   0  0  0  0  0  0  0  0  0  0  0  0
   -5.9010   18.7320  -31.8420 C   0  0  0  0  0  0  0  0  0  0  0  0
   -7.2030   18.1710  -31.2380 C   0  0  0  0  0  0  0  0  0  0  0  0
   -8.4200   19.0640  -31.5380 C   0  0  0  0  0  0  0  0  0  0  0  0
   -8.3050   19.6990  -32.9270 C   0  0  0  0  0  0  0  0  0  0  0  0
   -7.0000   20.5140  -33.0750 C   0  0  0  0  0  0  0  0  0  0  0  0
   -6.8659   24.5936  -29.3255 H   0  0  0  0  0  0  0  0  0  0  0  0
   -6.2868   25.5380  -30.7395 H   0  0  0  0  0  0  0  0  0  0  0  0
   -7.9445   24.8461  -30.7395 H   0  0  0  0  0  0  0  0  0  0  0  0
   -7.6856   23.7583  -32.7477 H   0  0  0  0  0  0  0  0  0  0  0  0
   -5.9698   24.2000  -33.0436 H   0  0  0  0  0  0  0  0  0  0  0  0
   -6.4657   22.4735  -33.0436 H   0  0  0  0  0  0  0  0  0  0  0  0
   -7.1331   22.3128  -29.3341 H   0  0  0  0  0  0  0  0  0  0  0  0
   -8.2378   22.3216  -30.7505 H   0  0  0  0  0  0  0  0  0  0  0  0
   -6.7858   21.2641  -30.7505 H   0  0  0  0  0  0  0  0  0  0  0  0
   -4.7034   25.2095  -29.9529 H   0  0  0  0  0  0  0  0  0  0  0  0
   -2.2561   22.3940  -25.9600 H   0  0  0  0  0  0  0  0  0  0  0  0
   -1.9458   22.7527  -27.7186 H   0  0  0  0  0  0  0  0  0  0  0  0
   -0.2820   21.3045  -25.9535 H   0  0  0  0  0  0  0  0  0  0  0  0
    0.1049   21.9279  -27.6238 H   0  0  0  0  0  0  0  0  0  0  0  0
   -0.0248   22.8484  -24.2042 H   0  0  0  0  0  0  0  0  0  0  0  0
    1.1896   24.1687  -24.4085 H   0  0  0  0  0  0  0  0  0  0  0  0
   -1.4789   24.6314  -24.3194 H   0  0  0  0  0  0  0  0  0  0  0  0
   -0.3161   25.6236  -25.3105 H   0  0  0  0  0  0  0  0  0  0  0  0
   -1.0680   22.9251  -29.6730 H   0  0  0  0  0  0  0  0  0  0  0  0
   -2.0898   21.1227  -31.0201 H   0  0  0  0  0  0  0  0  0  0  0  0
   -5.7185   18.2558  -32.8167 H   0  0  0  0  0  0  0  0  0  0  0  0
   -5.0677   18.5187  -31.1564 H   0  0  0  0  0  0  0  0  0  0  0  0
   -7.3858   17.1713  -31.6589 H   0  0  0  0  0  0  0  0  0  0  0  0
   -7.0767   18.1311  -30.1460 H   0  0  0  0  0  0  0  0  0  0  0  0
   -9.3337   18.4529  -31.4962 H   0  0  0  0  0  0  0  0  0  0  0  0
   -8.4592   19.8671  -30.7874 H   0  0  0  0  0  0  0  0  0  0  0  0
   -8.3161   18.9024  -33.6855 H   0  0  0  0  0  0  0  0  0  0  0  0
   -9.1550   20.3838  -33.0632 H   0  0  0  0  0  0  0  0  0  0  0  0
   -6.5573   20.2960  -34.0581 H   0  0  0  0  0  0  0  0  0  0  0  0
   -7.2573   21.5788  -32.9749 H   0  0  0  0  0  0  0  0  0  0  0  0
  1  2  1  0
  2  3  1  0
  2  4  1  0
  2  5  1  0
  5  6  2  0
  6  7  1  0
  7  8  1  0
  8  9  1  0
  9 10  2  0
  9 11  2  0
  9 12  1  0
 12 13  1  0
 13 14  1  0
 14 15  1  0
 15 16  1  0
 16 17  1  0
  7 18  2  0
 18 19  1  0
 19 20  2  0
 20 21  1  0
 21 22  2  0
 21 23  2  0
 21 24  1  0
 24 25  1  0
 25 26  1  0
 26 27  1  0
 27 28  1  0
 28 29  1  0
 20  5  1  0
 29 24  1  0
 17 12  1  0
  1 30  1  0
  1 31  1  0
  1 32  1  0
  3 33  1  0
  3 34  1  0
  3 35  1  0
  4 36  1  0
  4 37  1  0
  4 38  1  0
  6 39  1  0
 13 40  1  0
 13 41  1  0
 14 42  1  0
 14 43  1  0
 16 44  1  0
 16 45  1  0
 17 46  1  0
 17 47  1  0
 18 48  1  0
 19 49  1  0
 25 50  1  0
 25 51  1  0
 26 52  1  0
 26 53  1  0
 27 54  1  0
 27 55  1  0
 28 56  1  0
 28 57  1  0
 29 58  1  0
 29 59  1  0
M  CHG  1   8  -1
M  END
>  <UniqueID>  (45) 
44

>  <SMILES>  (45) 
CC(C)(C)c1cc([N-]S(=O)(=O)N2CCOCC2)ccc1S(=O)(=O)N1CCCCC1

>  <Energy>  (45) 
93.70319331221168

>  <Genealogy>  (45) 
CC(C)(C)c1cc([N-]S(=O)(=O)N2CCOCC2)ccc1S(=O)(=O)N1CCCCC1 (protonated)
CC(C)(C)c1cc([N-]S(=O)(=O)N2CCOCC2)ccc1S(=O)(=O)N1CCCCC1 (3D coordinates assigned)
CC(C)(C)c1cc([N-]S(=O)(=O)N2CCOCC2)ccc1S(=O)(=O)N1CCCCC1 (nonaromatic ring conformer: 93.70319331221168 kcal/mol)

>  <smiles>  (45) 
CC(C)(C)c1cc(NS(=O)(=O)N2CCOCC2)ccc1S(=O)(=O)N1CCCCC1

>  <score_type>  (45) 
oracle

>  <origin>  (45) 
adgpu

>  <m_score__min__energy>  (45) 
-11.31

>  <m_primary>  (45) 
energy

$$$$
45:0
     RDKit          3D

 41 43  0  0  0  0  0  0  0  0999 V2000
   -9.4292   19.6694  -30.4107 H   0  0  0  0  0  0  0  0  0  0  0  0
   -8.7480   19.5180  -31.2610 C   0  0  0  0  0  0  0  0  0  0  0  0
   -8.3080   20.6140  -32.0080 C   0  0  0  0  0  0  0  0  0  0  0  0
   -8.6393   21.6287  -31.7423 H   0  0  0  0  0  0  0  0  0  0  0  0
   -7.4470   20.4220  -33.0930 C   0  0  0  0  0  0  0  0  0  0  0  0
   -7.0947   21.2892  -33.6708 H   0  0  0  0  0  0  0  0  0  0  0  0
   -7.0290   19.1300  -33.4500 C   0  0  0  0  0  0  0  0  0  0  0  0
   -6.1220   18.9600  -34.5530 N   0  0  0  0  0  0  0  0  0  0  0  0
   -6.4810   19.1590  -35.5140 H   0  0  0  0  0  0  0  0  0  0  0  0
   -4.7530   18.5350  -34.4150 C   0  0  0  0  0  0  0  0  0  0  0  0
   -4.2840   17.4050  -35.1040 C   0  0  0  0  0  0  0  0  0  0  0  0
   -4.9724   16.8279  -35.7389 H   0  0  0  0  0  0  0  0  0  0  0  0
   -2.9850   17.0190  -34.9920 N   0  0  0  0  0  0  0  0  0  0  0  0
   -2.6570   16.1730  -35.5110 H   0  0  0  0  0  0  0  0  0  0  0  0
   -2.1030   17.7130  -34.2270 C   0  0  0  0  0  0  0  0  0  0  0  0
   -1.0589   17.3749  -34.1528 H   0  0  0  0  0  0  0  0  0  0  0  0
   -2.5140   18.8520  -33.5350 C   0  0  0  0  0  0  0  0  0  0  0  0
   -1.7961   19.4130  -32.9186 H   0  0  0  0  0  0  0  0  0  0  0  0
   -3.8530   19.2810  -33.6290 C   0  0  0  0  0  0  0  0  0  0  0  0
   -4.2910   20.3330  -32.9970 N   0  0  0  0  0  0  0  0  0  0  0  0
   -3.3800   21.3800  -31.9520 S   0  0  0  0  0  0  0  0  0  0  0  0
   -2.8960   20.6220  -30.7480 O   0  0  0  0  0  0  0  0  0  0  0  0
   -2.2010   21.9230  -32.7120 O   0  0  0  0  0  0  0  0  0  0  0  0
   -4.4190   22.7100  -31.4170 C   0  0  0  0  0  0  0  0  0  0  0  0
   -5.6860   22.8590  -32.0060 C   0  0  0  0  0  0  0  0  0  0  0  0
   -6.0077   22.1585  -32.7907 H   0  0  0  0  0  0  0  0  0  0  0  0
   -6.5400   23.8870  -31.6050 C   0  0  0  0  0  0  0  0  0  0  0  0
   -7.5295   23.9932  -32.0737 H   0  0  0  0  0  0  0  0  0  0  0  0
   -6.1410   24.7800  -30.6110 C   0  0  0  0  0  0  0  0  0  0  0  0
   -6.8183   25.5863  -30.2929 H   0  0  0  0  0  0  0  0  0  0  0  0
   -4.8830   24.6520  -30.0190 C   0  0  0  0  0  0  0  0  0  0  0  0
   -4.5776   25.3553  -29.2303 H   0  0  0  0  0  0  0  0  0  0  0  0
   -4.0030   23.6320  -30.4220 C   0  0  0  0  0  0  0  0  0  0  0  0
   -2.6650   23.5220  -29.7400 C   0  0  0  0  0  0  0  0  0  0  0  0
   -2.8073   23.5337  -28.6493 H   0  0  0  0  0  0  0  0  0  0  0  0
   -2.1787   22.5808  -30.0362 H   0  0  0  0  0  0  0  0  0  0  0  0
   -2.0315   24.3711  -30.0362 H   0  0  0  0  0  0  0  0  0  0  0  0
   -7.4620   18.0330  -32.6790 C   0  0  0  0  0  0  0  0  0  0  0  0
   -7.1216   17.0179  -32.9314 H   0  0  0  0  0  0  0  0  0  0  0  0
   -8.3220   18.2290  -31.5950 C   0  0  0  0  0  0  0  0  0  0  0  0
   -8.6645   17.3672  -31.0033 H   0  0  0  0  0  0  0  0  0  0  0  0
  1  2  1  0
  2  3  2  0
  3  4  1  0
  3  5  1  0
  5  6  1  0
  5  7  2  0
  7  8  1  0
  8  9  1  0
  8 10  1  0
 10 11  2  0
 11 12  1  0
 11 13  1  0
 13 14  1  0
 13 15  1  0
 15 16  1  0
 15 17  2  0
 17 18  1  0
 17 19  1  0
 19 20  2  0
 20 21  1  0
 21 22  2  0
 21 23  2  0
 21 24  1  0
 24 25  2  0
 25 26  1  0
 25 27  1  0
 27 28  1  0
 27 29  2  0
 29 30  1  0
 29 31  1  0
 31 32  1  0
 31 33  2  0
 33 34  1  0
 34 35  1  0
 34 36  1  0
 34 37  1  0
  7 38  1  0
 38 39  1  0
 38 40  2  0
 40 41  1  0
 40  2  1  0
 19 10  1  0
 33 24  1  0
M  END
>  <UniqueID>  (46) 
45

>  <SMILES>  (46) 
Cc1ccccc1S(=O)(=O)/N=c1\cc[nH]cc1Nc1ccccc1

>  <Energy>  (46) 
57.02682975542585

>  <Genealogy>  (46) 
Cc1ccccc1S(=O)(=O)/N=c1\cc[nH]cc1Nc1ccccc1 (cis-trans isomerization)
Cc1ccccc1S(=O)(=O)/N=c1\cc[nH]cc1Nc1ccccc1 (3D coordinates assigned)
Cc1ccccc1S(=O)(=O)/N=c1\cc[nH]cc1Nc1ccccc1 (optimized conformer: 57.02682975542585 kcal/mol)

>  <smiles>  (46) 
Cc1ccccc1S(=O)(=O)N=c1cc[nH]cc1Nc1ccccc1

>  <score_type>  (46) 
oracle

>  <origin>  (46) 
adgpu

>  <m_score__min__energy>  (46) 
-8.5500000000000007

>  <m_primary>  (46) 
energy

$$$$
46:0
     RDKit          3D

 50 53  0  0  0  0  0  0  0  0999 V2000
   -9.1410   18.1440  -31.6100 C   0  0  0  0  0  0  0  0  0  0  0  0
   -8.8110   19.3720  -32.4050 C   0  0  0  0  0  0  0  0  0  0  0  0
   -9.7240   19.9060  -33.0930 O   0  0  0  0  0  0  0  0  0  0  0  0
   -7.5010   19.9710  -32.3800 N   0  0  0  0  0  0  0  0  0  0  0  0
   -7.1440   21.2380  -31.8390 C   0  0  0  0  0  0  0  0  0  0  0  0
   -7.7890   21.9390  -30.8110 C   0  0  0  0  0  0  0  0  0  0  0  0
   -7.2320   23.1490  -30.3700 C   0  0  0  0  0  0  0  0  0  0  0  0
   -6.0290   23.6260  -30.9310 C   0  0  0  0  0  0  0  0  0  0  0  0
   -5.3020   25.1250  -30.3610 S   0  0  0  0  0  0  0  0  0  0  0  0
   -5.7240   25.4310  -28.9500 O   0  0  0  0  0  0  0  0  0  0  0  0
   -5.7490   26.2490  -31.2510 O   0  0  0  0  0  0  0  0  0  0  0  0
   -3.5730   24.9970  -30.4310 N   0  0  0  0  0  0  0  0  0  0  0  0
   -2.7600   24.1870  -29.5680 C   0  0  0  0  0  0  0  0  0  0  0  0
   -3.1020   22.8580  -29.2550 C   0  0  0  0  0  0  0  0  0  0  0  0
   -2.2900   22.0900  -28.4050 C   0  0  0  0  0  0  0  0  0  0  0  0
   -1.1400   22.6730  -27.8230 C   0  0  0  0  0  0  0  0  0  0  0  0
   -0.7980   23.9950  -28.1500 C   0  0  0  0  0  0  0  0  0  0  0  0
   -1.6010   24.7430  -29.0150 C   0  0  0  0  0  0  0  0  0  0  0  0
   -1.2380   26.0520  -29.3220 O   0  0  0  0  0  0  0  0  0  0  0  0
   -0.2120   21.8770  -26.9350 C   0  0  0  0  0  0  0  0  0  0  0  0
   -0.8810   20.6300  -26.3500 C   0  0  0  0  0  0  0  0  0  0  0  0
   -1.6070   19.8480  -27.4450 C   0  0  0  0  0  0  0  0  0  0  0  0
   -2.7370   20.6920  -28.0410 C   0  0  0  0  0  0  0  0  0  0  0  0
   -5.3810   22.8810  -31.9310 C   0  0  0  0  0  0  0  0  0  0  0  0
   -5.9590   21.6860  -32.3580 C   0  0  0  0  0  0  0  0  0  0  0  0
   -5.4150   20.7180  -33.3460 C   0  0  0  0  0  0  0  0  0  0  0  0
   -6.3940   19.5130  -33.2360 C   0  0  1  0  0  0  0  0  0  0  0  0
   -5.7050   18.2930  -32.6110 C   0  0  0  0  0  0  0  0  0  0  0  0
   -9.0790   18.3747  -30.5363 H   0  0  0  0  0  0  0  0  0  0  0  0
  -10.1604   17.8114  -31.8553 H   0  0  0  0  0  0  0  0  0  0  0  0
   -8.4257   17.3452  -31.8553 H   0  0  0  0  0  0  0  0  0  0  0  0
   -8.7129   21.5487  -30.3592 H   0  0  0  0  0  0  0  0  0  0  0  0
   -7.7362   23.7286  -29.5827 H   0  0  0  0  0  0  0  0  0  0  0  0
   -4.0150   22.4163  -29.6808 H   0  0  0  0  0  0  0  0  0  0  0  0
    0.1095   24.4455  -27.7217 H   0  0  0  0  0  0  0  0  0  0  0  0
    0.6598   21.5635  -27.5280 H   0  0  0  0  0  0  0  0  0  0  0  0
    0.0798   22.5235  -26.0942 H   0  0  0  0  0  0  0  0  0  0  0  0
   -0.1132   19.9872  -25.8946 H   0  0  0  0  0  0  0  0  0  0  0  0
   -1.6133   20.9422  -25.5909 H   0  0  0  0  0  0  0  0  0  0  0  0
   -0.8920   19.5865  -28.2389 H   0  0  0  0  0  0  0  0  0  0  0  0
   -2.0356   18.9342  -27.0077 H   0  0  0  0  0  0  0  0  0  0  0  0
   -3.1079   20.1934  -28.9486 H   0  0  0  0  0  0  0  0  0  0  0  0
   -3.5233   20.7824  -27.2771 H   0  0  0  0  0  0  0  0  0  0  0  0
   -4.4356   23.2339  -32.3687 H   0  0  0  0  0  0  0  0  0  0  0  0
   -5.4238   21.1425  -34.3607 H   0  0  0  0  0  0  0  0  0  0  0  0
   -4.3679   20.4434  -33.1507 H   0  0  0  0  0  0  0  0  0  0  0  0
   -6.7470   19.1992  -34.2294 H   0  0  0  0  0  0  0  0  0  0  0  0
   -5.7481   18.3693  -31.5145 H   0  0  0  0  0  0  0  0  0  0  0  0
   -6.2185   17.3758  -32.9352 H   0  0  0  0  0  0  0  0  0  0  0  0
   -4.6544   18.2591  -32.9352 H   0  0  0  0  0  0  0  0  0  0  0  0
  1  2  1  0
  2  3  2  0
  2  4  1  0
  4  5  1  0
  5  6  2  0
  6  7  1  0
  7  8  2  0
  8  9  1  0
  9 10  2  0
  9 11  2  0
  9 12  1  0
 12 13  1  0
 13 14  2  0
 14 15  1  0
 15 16  2  0
 16 17  1  0
 17 18  2  0
 18 19  1  0
 16 20  1  0
 20 21  1  0
 21 22  1  0
 22 23  1  0
  8 24  1  0
 24 25  2  0
 25 26  1  0
 26 27  1  0
 27 28  1  0
 27  4  1  0
 25  5  1  0
 18 13  1  0
 23 15  1  0
  1 29  1  0
  1 30  1  0
  1 31  1  0
  6 32  1  0
  7 33  1  0
 14 34  1  0
 17 35  1  0
 20 36  1  0
 20 37  1  0
 21 38  1  0
 21 39  1  0
 22 40  1  0
 22 41  1  0
 23 42  1  0
 23 43  1  0
 24 44  1  0
 26 45  1  0
 26 46  1  0
 27 47  1  6
 28 48  1  0
 28 49  1  0
 28 50  1  0
M  CHG  2  12  -1  19  -1
M  END
>  <UniqueID>  (47) 
46

>  <SMILES>  (47) 
CC(=O)N1c2ccc(S(=O)(=O)[N-]c3cc4c(cc3[O-])CCCC4)cc2C[C@H]1C

>  <Energy>  (47) 
70.64210713935661

>  <Genealogy>  (47) 
CC(=O)N1c2ccc(S(=O)(=O)[N-]c3cc4c(cc3[O-])CCCC4)cc2CC1C (protonated)
CC(=O)N1c2ccc(S(=O)(=O)[N-]c3cc4c(cc3[O-])CCCC4)cc2C[C@H]1C (chirality)
CC(=O)N1c2ccc(S(=O)(=O)[N-]c3cc4c(cc3[O-])CCCC4)cc2C[C@H]1C (3D coordinates assigned)
CC(=O)N1c2ccc(S(=O)(=O)[N-]c3cc4c(cc3[O-])CCCC4)cc2C[C@H]1C (nonaromatic ring conformer: 70.64210713935661 kcal/mol)

>  <smiles>  (47) 
CC(=O)N1c2ccc(S(=O)(=O)Nc3cc4c(cc3O)CCCC4)cc2CC1C

>  <score_type>  (47) 
oracle

>  <origin>  (47) 
adgpu

>  <m_score__min__energy>  (47) 
-15.130000000000001

>  <m_primary>  (47) 
energy

$$$$
47:0
     RDKit          3D

 63 67  0  0  0  0  0  0  0  0999 V2000
   -4.2400   25.5170  -30.4570 O   0  0  0  0  0  0  0  0  0  0  0  0
   -4.2540   24.0130  -30.3750 S   0  0  0  0  0  0  0  0  0  0  0  0
   -5.6240   23.5680  -29.9360 O   0  0  0  0  0  0  0  0  0  0  0  0
   -3.8780   23.3520  -31.9290 N   0  0  0  0  0  0  0  0  0  0  0  0
   -3.5290   21.9780  -32.1190 C   0  0  0  0  0  0  0  0  0  0  0  0
   -4.4650   21.0490  -32.6050 C   0  0  0  0  0  0  0  0  0  0  0  0
   -4.0960   19.7130  -32.8290 C   0  0  0  0  0  0  0  0  0  0  0  0
   -2.7850   19.2920  -32.5140 C   0  0  0  0  0  0  0  0  0  0  0  0
   -1.8560   20.2270  -32.0230 C   0  0  0  0  0  0  0  0  0  0  0  0
   -2.2220   21.5610  -31.8350 C   0  0  0  0  0  0  0  0  0  0  0  0
   -1.2840   22.4700  -31.3500 O   0  0  0  0  0  0  0  0  0  0  0  0
   -2.3140   17.9000  -32.8530 C   0  0  0  0  0  0  0  0  0  0  0  0
   -3.4760   16.9360  -33.1190 C   0  0  0  0  0  0  0  0  0  0  0  0
   -4.4570   17.5750  -34.0180 N   0  0  0  0  0  0  0  0  0  0  0  0
   -5.4040   16.6110  -34.6490 C   0  0  0  0  0  0  0  0  0  0  0  0
   -6.8550   16.7170  -34.1280 C   0  0  0  0  0  0  0  0  0  0  0  0
   -6.8780   17.0110  -32.6260 C   0  0  0  0  0  0  0  0  0  0  0  0
   -6.1270   18.3090  -32.2790 C   0  0  0  0  0  0  0  0  0  0  0  0
   -5.1200   18.7370  -33.3810 C   0  0  1  0  0  0  0  0  0  0  0  0
   -3.0130   23.4800  -29.2410 C   0  0  0  0  0  0  0  0  0  0  0  0
   -3.0120   22.1630  -28.7540 C   0  0  0  0  0  0  0  0  0  0  0  0
   -2.0300   21.7460  -27.8390 C   0  0  0  0  0  0  0  0  0  0  0  0
   -2.0950   20.1220  -27.1460 S   0  0  0  0  0  0  0  0  0  0  0  0
   -3.5260   19.6510  -27.0990 O   0  0  0  0  0  0  0  0  0  0  0  0
   -1.5740   20.1680  -25.7330 O   0  0  0  0  0  0  0  0  0  0  0  0
   -1.1460   18.9950  -28.0910 N   0  0  0  0  0  0  0  0  0  0  0  0
   -0.2060   18.2620  -27.2220 C   0  0  0  0  0  0  0  0  0  0  0  0
    0.4770   17.1200  -28.0010 C   0  0  0  0  0  0  0  0  0  0  0  0
    0.4810   17.3600  -29.5190 C   0  0  0  0  0  0  0  0  0  0  0  0
    0.6620   18.8470  -29.8370 C   0  0  0  0  0  0  0  0  0  0  0  0
   -0.4210   19.7170  -29.1650 C   0  0  0  0  0  0  0  0  0  0  0  0
   -1.0280   22.6430  -27.4390 C   0  0  0  0  0  0  0  0  0  0  0  0
   -1.0070   23.9490  -27.9440 C   0  0  0  0  0  0  0  0  0  0  0  0
    0.2660   25.0530  -27.4370 Cl  0  0  0  0  0  0  0  0  0  0  0  0
   -1.9990   24.3700  -28.8420 C   0  0  0  0  0  0  0  0  0  0  0  0
   -1.9740   25.6710  -29.3390 O   0  0  0  0  0  0  0  0  0  0  0  0
   -5.4961   21.3716  -32.8118 H   0  0  0  0  0  0  0  0  0  0  0  0
   -0.8317   19.9041  -31.7850 H   0  0  0  0  0  0  0  0  0  0  0  0
   -1.6840   17.9502  -33.7533 H   0  0  0  0  0  0  0  0  0  0  0  0
   -1.7530   17.5168  -31.9879 H   0  0  0  0  0  0  0  0  0  0  0  0
   -3.0905   16.0200  -33.5905 H   0  0  0  0  0  0  0  0  0  0  0  0
   -3.9652   16.6837  -32.1666 H   0  0  0  0  0  0  0  0  0  0  0  0
   -5.4123   16.7950  -35.7335 H   0  0  0  0  0  0  0  0  0  0  0  0
   -5.0479   15.6027  -34.3911 H   0  0  0  0  0  0  0  0  0  0  0  0
   -7.3704   17.5292  -34.6615 H   0  0  0  0  0  0  0  0  0  0  0  0
   -7.3622   15.7571  -34.3052 H   0  0  0  0  0  0  0  0  0  0  0  0
   -7.9239   17.1081  -32.2995 H   0  0  0  0  0  0  0  0  0  0  0  0
   -6.3747   16.1800  -32.1102 H   0  0  0  0  0  0  0  0  0  0  0  0
   -6.8631   19.1151  -32.1439 H   0  0  0  0  0  0  0  0  0  0  0  0
   -5.5516   18.1222  -31.3603 H   0  0  0  0  0  0  0  0  0  0  0  0
   -5.6979   19.2462  -34.1663 H   0  0  0  0  0  0  0  0  0  0  0  0
   -3.7833   21.4544  -29.0901 H   0  0  0  0  0  0  0  0  0  0  0  0
    0.5622   18.9575  -26.8529 H   0  0  0  0  0  0  0  0  0  0  0  0
   -0.7659   17.8304  -26.3792 H   0  0  0  0  0  0  0  0  0  0  0  0
    1.5176   17.0311  -27.6556 H   0  0  0  0  0  0  0  0  0  0  0  0
   -0.0937   16.1991  -27.8108 H   0  0  0  0  0  0  0  0  0  0  0  0
    1.3073   16.7919  -29.9712 H   0  0  0  0  0  0  0  0  0  0  0  0
   -0.4839   17.0278  -29.9297 H   0  0  0  0  0  0  0  0  0  0  0  0
    1.6503   19.1695  -29.4775 H   0  0  0  0  0  0  0  0  0  0  0  0
    0.5739   18.9751  -30.9260 H   0  0  0  0  0  0  0  0  0  0  0  0
    0.0603   20.6052  -28.7298 H   0  0  0  0  0  0  0  0  0  0  0  0
   -1.1551   19.9912  -29.9370 H   0  0  0  0  0  0  0  0  0  0  0  0
   -0.2557   22.3190  -26.7258 H   0  0  0  0  0  0  0  0  0  0  0  0
  1  2  2  0
  2  3  2  0
  2  4  1  0
  4  5  1  0
  5  6  2  0
  6  7  1  0
  7  8  2  0
  8  9  1  0
  9 10  2  0
 10 11  1  0
  8 12  1  0
 12 13  1  0
 13 14  1  0
 14 15  1  0
 15 16  1  0
 16 17  1  0
 17 18  1  0
 18 19  1  0
  2 20  1  0
 20 21  2  0
 21 22  1  0
 22 23  1  0
 23 24  2  0
 23 25  2  0
 23 26  1  0
 26 27  1  0
 27 28  1  0
 28 29  1  0
 29 30  1  0
 30 31  1  0
 22 32  2  0
 32 33  1  0
 33 34  1  0
 33 35  2  0
 35 36  1  0
 10  5  1  0
 19 14  1  0
 35 20  1  0
 19  7  1  0
 31 26  1  0
  6 37  1  0
  9 38  1  0
 12 39  1  0
 12 40  1  0
 13 41  1  0
 13 42  1  0
 15 43  1  0
 15 44  1  0
 16 45  1  0
 16 46  1  0
 17 47  1  0
 17 48  1  0
 18 49  1  0
 18 50  1  0
 19 51  1  6
 21 52  1  0
 27 53  1  0
 27 54  1  0
 28 55  1  0
 28 56  1  0
 29 57  1  0
 29 58  1  0
 30 59  1  0
 30 60  1  0
 31 61  1  0
 31 62  1  0
 32 63  1  0
M  CHG  3   4  -1  11  -1  36  -1
M  END
>  <UniqueID>  (48) 
47

>  <SMILES>  (48) 
O=S(=O)([N-]c1cc2c(cc1[O-])CCN1CCCC[C@@H]21)c1cc(S(=O)(=O)N2CCCCC2)cc(Cl)c1[O-]

>  <Energy>  (48) 
86.7451931600087

>  <Genealogy>  (48) 
O=S(=O)([N-]c1cc2c(cc1[O-])CCN1CCCCC21)c1cc(S(=O)(=O)N2CCCCC2)cc(Cl)c1[O-] (protonated)
O=S(=O)([N-]c1cc2c(cc1[O-])CCN1CCCC[C@@H]21)c1cc(S(=O)(=O)N2CCCCC2)cc(Cl)c1[O-] (chirality)
O=S(=O)([N-]c1cc2c(cc1[O-])CCN1CCCC[C@@H]21)c1cc(S(=O)(=O)N2CCCCC2)cc(Cl)c1[O-] (3D coordinates assigned)
O=S(=O)([N-]c1cc2c(cc1[O-])CCN1CCCC[C@@H]21)c1cc(S(=O)(=O)N2CCCCC2)cc(Cl)c1[O-] (nonaromatic ring conformer: 86.7451931600087 kcal/mol)

>  <smiles>  (48) 
O=S(=O)(Nc1cc2c(cc1O)CCN1CCCCC21)c1cc(S(=O)(=O)N2CCCCC2)cc(Cl)c1O

>  <score_type>  (48) 
oracle

>  <origin>  (48) 
adgpu

>  <m_score__min__energy>  (48) 
-15.220000000000001

>  <m_primary>  (48) 
energy

$$$$
48:0
     RDKit          3D

 63 66  0  0  0  0  0  0  0  0999 V2000
   -1.1480   21.6680  -26.4780 C   0  0  0  0  0  0  0  0  0  0  0  0
   -1.6110   22.6390  -27.5290 C   0  0  0  0  0  0  0  0  0  0  0  0
   -1.1700   23.9520  -27.6540 C   0  0  0  0  0  0  0  0  0  0  0  0
    0.1160   24.7330  -26.7380 S   0  0  0  0  0  0  0  0  0  0  0  0
    1.0240   23.6840  -26.1550 O   0  0  0  0  0  0  0  0  0  0  0  0
    0.9250   25.6140  -27.6490 O   0  0  0  0  0  0  0  0  0  0  0  0
   -0.6330   25.7260  -25.4470 C   0  0  0  0  0  0  0  0  0  0  0  0
   -2.1280   25.9720  -25.5790 C   0  0  0  0  0  0  0  0  0  0  0  0
   -1.1420   27.0750  -25.9280 C   0  0  0  0  0  0  0  0  0  0  0  0
   -1.7970   24.4660  -28.7680 C   0  0  0  0  0  0  0  0  0  0  0  0
   -1.5790   25.7190  -29.3290 O   0  0  0  0  0  0  0  0  0  0  0  0
   -2.6100   23.4710  -29.2720 C   0  0  0  0  0  0  0  0  0  0  0  0
   -3.3070   23.5230  -30.5230 N   0  0  0  0  0  0  0  0  0  0  0  0
   -4.3160   24.4890  -30.8280 C   0  0  0  0  0  0  0  0  0  0  0  0
   -4.1880   25.6680  -30.4110 O   0  0  0  0  0  0  0  0  0  0  0  0
   -5.4890   24.1440  -31.5770 N   0  0  0  0  0  0  0  0  0  0  0  0
   -6.3240   22.9750  -31.4640 C   0  0  0  0  0  0  0  0  0  0  0  0
   -7.5220   22.9850  -30.7230 C   0  0  0  0  0  0  0  0  0  0  0  0
   -8.2990   21.8320  -30.6100 C   0  0  0  0  0  0  0  0  0  0  0  0
   -7.9060   20.6570  -31.2470 C   0  0  0  0  0  0  0  0  0  0  0  0
   -6.7400   20.6300  -32.0190 C   0  0  0  0  0  0  0  0  0  0  0  0
   -6.3550   19.4510  -32.6610 O   0  0  0  0  0  0  0  0  0  0  0  0
   -5.9410   21.7840  -32.1390 C   0  0  0  0  0  0  0  0  0  0  0  0
   -4.7990   21.7400  -33.0200 N   0  0  0  0  0  0  0  0  0  0  0  0
   -3.6580   20.8760  -32.8750 C   0  0  0  0  0  0  0  0  0  0  0  0
   -2.6170   21.2790  -32.0240 C   0  0  0  0  0  0  0  0  0  0  0  0
   -1.4800   20.4900  -31.8770 C   0  0  0  0  0  0  0  0  0  0  0  0
   -1.3620   19.2940  -32.5870 C   0  0  0  0  0  0  0  0  0  0  0  0
   -2.3800   18.8740  -33.4540 C   0  0  0  0  0  0  0  0  0  0  0  0
   -2.2430   17.5830  -34.1660 C   0  0  0  0  0  0  0  0  0  0  0  0
   -1.1510   17.3050  -34.7320 O   0  0  0  0  0  0  0  0  0  0  0  0
   -3.3400   16.6550  -34.2500 N   0  0  0  0  0  0  0  0  0  0  0  0
   -4.1930   16.4150  -33.0830 C   0  0  0  0  0  0  0  0  0  0  0  0
   -3.5190   15.8740  -35.4740 C   0  0  0  0  0  0  0  0  0  0  0  0
   -3.5340   19.6730  -33.6030 C   0  0  0  0  0  0  0  0  0  0  0  0
   -4.5360   19.2890  -34.4890 O   0  0  0  0  0  0  0  0  0  0  0  0
   -2.4760   22.3480  -28.5330 N   0  0  0  0  0  0  0  0  0  0  0  0
   -3.1360   21.0640  -28.7760 C   0  0  0  0  0  0  0  0  0  0  0  0
   -1.3471   22.0855  -25.4799 H   0  0  0  0  0  0  0  0  0  0  0  0
   -1.6898   20.7176  -26.5927 H   0  0  0  0  0  0  0  0  0  0  0  0
   -0.0685   21.4907  -26.5927 H   0  0  0  0  0  0  0  0  0  0  0  0
    0.0174   25.3681  -24.6353 H   0  0  0  0  0  0  0  0  0  0  0  0
   -2.6994   25.4728  -26.3754 H   0  0  0  0  0  0  0  0  0  0  0  0
   -2.9930   25.8864  -24.9049 H   0  0  0  0  0  0  0  0  0  0  0  0
   -1.0001   27.3741  -26.9770 H   0  0  0  0  0  0  0  0  0  0  0  0
   -0.9982   28.1184  -25.6109 H   0  0  0  0  0  0  0  0  0  0  0  0
   -7.8482   23.9117  -30.2283 H   0  0  0  0  0  0  0  0  0  0  0  0
   -9.2248   21.8506  -30.0162 H   0  0  0  0  0  0  0  0  0  0  0  0
   -8.5150   19.7470  -31.1424 H   0  0  0  0  0  0  0  0  0  0  0  0
   -5.7940   19.4640  -33.5080 H   0  0  0  0  0  0  0  0  0  0  0  0
   -4.7900   22.4060  -33.8240 H   0  0  0  0  0  0  0  0  0  0  0  0
   -2.7005   22.2252  -31.4693 H   0  0  0  0  0  0  0  0  0  0  0  0
   -0.6734   20.8092  -31.2006 H   0  0  0  0  0  0  0  0  0  0  0  0
   -0.4610   18.6749  -32.4648 H   0  0  0  0  0  0  0  0  0  0  0  0
   -3.6114   16.5787  -32.1638 H   0  0  0  0  0  0  0  0  0  0  0  0
   -5.0473   17.1077  -33.1046 H   0  0  0  0  0  0  0  0  0  0  0  0
   -4.5607   15.3785  -33.1046 H   0  0  0  0  0  0  0  0  0  0  0  0
   -3.7577   14.8325  -35.2128 H   0  0  0  0  0  0  0  0  0  0  0  0
   -4.3424   16.3018  -36.0648 H   0  0  0  0  0  0  0  0  0  0  0  0
   -2.5915   15.9005  -36.0648 H   0  0  0  0  0  0  0  0  0  0  0  0
   -3.3800   20.5893  -27.8142 H   0  0  0  0  0  0  0  0  0  0  0  0
   -4.0607   21.2296  -29.3482 H   0  0  0  0  0  0  0  0  0  0  0  0
   -2.4632   20.4084  -29.3482 H   0  0  0  0  0  0  0  0  0  0  0  0
  1  2  1  0
  2  3  2  0
  3  4  1  0
  4  5  2  0
  4  6  2  0
  4  7  1  0
  7  8  1  0
  8  9  1  0
  3 10  1  0
 10 11  1  0
 10 12  2  0
 12 13  1  0
 13 14  1  0
 14 15  2  0
 14 16  1  0
 16 17  1  0
 17 18  2  0
 18 19  1  0
 19 20  2  0
 20 21  1  0
 21 22  1  0
 21 23  2  0
 23 24  1  0
 24 25  1  0
 25 26  2  0
 26 27  1  0
 27 28  2  0
 28 29  1  0
 29 30  1  0
 30 31  2  0
 30 32  1  0
 32 33  1  0
 32 34  1  0
 29 35  2  0
 35 36  1  0
 12 37  1  0
 37 38  1  0
 37  2  1  0
  9  7  1  0
 23 17  1  0
 35 25  1  0
  1 39  1  0
  1 40  1  0
  1 41  1  0
  7 42  1  0
  8 43  1  0
  8 44  1  0
  9 45  1  0
  9 46  1  0
 18 47  1  0
 19 48  1  0
 20 49  1  0
 22 50  1  0
 24 51  1  0
 26 52  1  0
 27 53  1  0
 28 54  1  0
 33 55  1  0
 33 56  1  0
 33 57  1  0
 34 58  1  0
 34 59  1  0
 34 60  1  0
 38 61  1  0
 38 62  1  0
 38 63  1  0
M  CHG  4  11  -1  13  -1  16  -1  36  -1
M  END
>  <UniqueID>  (49) 
48

>  <SMILES>  (49) 
Cc1c(S(=O)(=O)C2CC2)c([O-])c([N-]C(=O)[N-]c2cccc(O)c2Nc2cccc(C(=O)N(C)C)c2[O-])n1C

>  <Energy>  (49) 
381.33127643610936

>  <Genealogy>  (49) 
Cc1c(S(=O)(=O)C2CC2)c([O-])c([N-]C(=O)[N-]c2cccc(O)c2Nc2cccc(C(=O)N(C)C)c2[O-])n1C (protonated)
Cc1c(S(=O)(=O)C2CC2)c([O-])c([N-]C(=O)[N-]c2cccc(O)c2Nc2cccc(C(=O)N(C)C)c2[O-])n1C (3D coordinates assigned)
Cc1c(S(=O)(=O)C2CC2)c([O-])c([N-]C(=O)[N-]c2cccc(O)c2Nc2cccc(C(=O)N(C)C)c2[O-])n1C (nonaromatic ring conformer: 381.33127643610936 kcal/mol)

>  <smiles>  (49) 
Cc1c(S(=O)(=O)C2CC2)c(O)c(NC(=O)Nc2cccc(O)c2Nc2cccc(C(=O)N(C)C)c2O)n1C

>  <score_type>  (49) 
oracle

>  <origin>  (49) 
adgpu

>  <m_score__min__energy>  (49) 
-14.960000000000001

>  <m_primary>  (49) 
energy

$$$$
49:0
     RDKit          3D

 46 48  0  0  0  0  0  0  0  0999 V2000
   -5.6541   24.5422  -32.8934 H   0  0  0  0  0  0  0  0  0  0  0  0
   -6.1850   23.8860  -32.1880 C   0  0  0  0  0  0  0  0  0  0  0  0
   -6.8920   22.7790  -32.6640 C   0  0  0  0  0  0  0  0  0  0  0  0
   -6.9100   22.5624  -33.7423 H   0  0  0  0  0  0  0  0  0  0  0  0
   -7.5780   21.9440  -31.7730 C   0  0  0  0  0  0  0  0  0  0  0  0
   -8.4380   20.5300  -32.3760 S   0  0  0  0  0  0  0  0  0  0  0  0
   -7.8780   20.1260  -33.7110 O   0  0  0  0  0  0  0  0  0  0  0  0
   -9.8900   20.8710  -32.5510 O   0  0  0  0  0  0  0  0  0  0  0  0
   -8.2890   19.1760  -31.2220 C   0  0  0  0  0  0  0  0  0  0  0  0
   -9.2740   18.7030  -31.0948 H   0  0  0  0  0  0  0  0  0  0  0  0
   -7.9229   19.5738  -30.2640 H   0  0  0  0  0  0  0  0  0  0  0  0
   -7.2980   18.1330  -31.7210 C   0  0  0  0  0  0  0  0  0  0  0  0
   -6.8253   17.6355  -30.8613 H   0  0  0  0  0  0  0  0  0  0  0  0
   -7.8275   17.3864  -32.3311 H   0  0  0  0  0  0  0  0  0  0  0  0
   -6.5253   18.6237  -32.3311 H   0  0  0  0  0  0  0  0  0  0  0  0
   -7.5820   22.2460  -30.4050 C   0  0  0  0  0  0  0  0  0  0  0  0
   -8.1443   21.6108  -29.7048 H   0  0  0  0  0  0  0  0  0  0  0  0
   -6.8730   23.3530  -29.9270 C   0  0  0  0  0  0  0  0  0  0  0  0
   -6.8825   23.5888  -28.8526 H   0  0  0  0  0  0  0  0  0  0  0  0
   -6.1500   24.1630  -30.8150 C   0  0  0  0  0  0  0  0  0  0  0  0
   -5.3110   25.2660  -30.3160 C   0  0  0  0  0  0  0  0  0  0  0  0
   -5.8670   26.2730  -29.8040 O   0  0  0  0  0  0  0  0  0  0  0  0
   -3.8830   25.2630  -30.4660 N   0  0  0  0  0  0  0  0  0  0  0  0
   -2.9340   24.4490  -29.7050 C   0  0  0  0  0  0  0  0  0  0  0  0
   -1.9737   24.9823  -29.6454 H   0  0  0  0  0  0  0  0  0  0  0  0
   -3.3524   24.2803  -28.7018 H   0  0  0  0  0  0  0  0  0  0  0  0
   -2.7090   23.1070  -30.3540 C   0  0  0  0  0  0  0  0  0  0  0  0
   -1.4070   22.5570  -30.4270 C   0  0  0  0  0  0  0  0  0  0  0  0
   -0.5680   23.0778  -29.9424 H   0  0  0  0  0  0  0  0  0  0  0  0
   -1.1750   21.3510  -31.1130 C   0  0  0  0  0  0  0  0  0  0  0  0
   -0.1617   20.9274  -31.1747 H   0  0  0  0  0  0  0  0  0  0  0  0
   -2.2550   20.7020  -31.7140 C   0  0  0  0  0  0  0  0  0  0  0  0
   -3.5320   21.2280  -31.6120 C   0  0  0  0  0  0  0  0  0  0  0  0
   -4.6080   20.2370  -32.4350 S   0  0  0  0  0  0  0  0  0  0  0  0
   -3.3790   19.1610  -32.9030 C   0  0  0  0  0  0  0  0  0  0  0  0
   -3.5240   18.0610  -33.5860 N   0  0  0  0  0  0  0  0  0  0  0  0
   -4.7110   17.5100  -34.1830 C   0  0  0  0  0  0  0  0  0  0  0  0
   -4.9070   16.2690  -34.0910 O   0  0  0  0  0  0  0  0  0  0  0  0
   -5.7060   18.3330  -34.9430 C   0  0  0  0  0  0  0  0  0  0  0  0
   -6.3548   18.8697  -34.2352 H   0  0  0  0  0  0  0  0  0  0  0  0
   -5.1744   19.0588  -35.5759 H   0  0  0  0  0  0  0  0  0  0  0  0
   -6.3193   17.6747  -35.5759 H   0  0  0  0  0  0  0  0  0  0  0  0
   -2.1690   19.5490  -32.4280 N   0  0  0  0  0  0  0  0  0  0  0  0
   -1.2800   19.0260  -32.5910 H   0  0  0  0  0  0  0  0  0  0  0  0
   -3.7920   22.4120  -30.9320 C   0  0  0  0  0  0  0  0  0  0  0  0
   -4.8184   22.7981  -30.8465 H   0  0  0  0  0  0  0  0  0  0  0  0
  1  2  1  0
  2  3  2  0
  3  4  1  0
  3  5  1  0
  5  6  1  0
  6  7  2  0
  6  8  2  0
  6  9  1  0
  9 10  1  0
  9 11  1  0
  9 12  1  0
 12 13  1  0
 12 14  1  0
 12 15  1  0
  5 16  2  0
 16 17  1  0
 16 18  1  0
 18 19  1  0
 18 20  2  0
 20 21  1  0
 21 22  2  0
 21 23  1  0
 23 24  1  0
 24 25  1  0
 24 26  1  0
 24 27  1  0
 27 28  2  0
 28 29  1  0
 28 30  1  0
 30 31  1  0
 30 32  2  0
 32 33  1  0
 33 34  1  0
 34 35  1  0
 35 36  2  0
 36 37  1  0
 37 38  2  0
 37 39  1  0
 39 40  1  0
 39 41  1  0
 39 42  1  0
 35 43  1  0
 43 44  1  0
 33 45  2  0
 45 46  1  0
 20  2  1  0
 45 27  1  0
 43 32  1  0
M  CHG  1  23  -1
M  END
>  <UniqueID>  (50) 
49

>  <SMILES>  (50) 
CCS(=O)(=O)c1ccc(C(=O)[N-]Cc2ccc3[nH]/c(=N/C(C)=O)sc3c2)cc1

>  <Energy>  (50) 
81.46599105542242

>  <Genealogy>  (50) 
CCS(=O)(=O)c1ccc(C(=O)[N-]Cc2ccc3[nH]c(=NC(C)=O)sc3c2)cc1 (protonated)
CCS(=O)(=O)c1ccc(C(=O)[N-]Cc2ccc3[nH]/c(=N/C(C)=O)sc3c2)cc1 (cis-trans isomerization)
CCS(=O)(=O)c1ccc(C(=O)[N-]Cc2ccc3[nH]/c(=N/C(C)=O)sc3c2)cc1 (3D coordinates assigned)
CCS(=O)(=O)c1ccc(C(=O)[N-]Cc2ccc3[nH]/c(=N/C(C)=O)sc3c2)cc1 (optimized conformer: 81.46599105542242 kcal/mol)

>  <smiles>  (50) 
CCS(=O)(=O)c1ccc(C(=O)NCc2ccc3[nH]c(=NC(C)=O)sc3c2)cc1

>  <score_type>  (50) 
oracle

>  <origin>  (50) 
adgpu

>  <m_score__min__energy>  (50) 
-11.369999999999999

>  <m_primary>  (50) 
energy

$$$$
