0:0
     RDKit          3D

 27 29  0  0  0  0  0  0  0  0999 V2000
   -1.8490   25.6570  -28.9530 O   0  0  0  0  0  0  0  0  0  0  0  0
   -2.5910   24.7260  -29.3630 C   0  0  0  0  0  0  0  0  0  0  0  0
   -3.4910   24.9880  -30.4470 N   0  0  0  0  0  0  0  0  0  0  0  0
   -4.6030   24.1710  -30.8360 C   0  0  0  0  0  0  0  0  0  0  0  0
   -4.4260   22.9810  -31.5600 C   0  0  0  0  0  0  0  0  0  0  0  0
   -5.5290   22.1970  -31.9090 C   0  0  0  0  0  0  0  0  0  0  0  0
   -6.8290   22.5770  -31.5270 C   0  0  0  0  0  0  0  0  0  0  0  0
   -7.9560   21.7580  -31.8970 N   0  0  0  0  0  0  0  0  0  0  0  0
   -7.9800   20.4580  -32.2460 C   0  0  0  0  0  0  0  0  0  0  0  0
   -9.2460   20.0810  -32.5120 N   0  0  0  0  0  0  0  0  0  0  0  0
   -9.9810   21.1670  -32.3200 N   0  0  0  0  0  0  0  0  0  0  0  0
   -9.2090   22.1760  -31.9490 N   0  0  0  0  0  0  0  0  0  0  0  0
   -6.9950   23.7590  -30.7800 C   0  0  0  0  0  0  0  0  0  0  0  0
   -5.8900   24.5410  -30.4330 C   0  0  0  0  0  0  0  0  0  0  0  0
   -2.4680   23.3900  -28.7530 C   0  0  0  0  0  0  0  0  0  0  0  0
   -3.4070   22.7520  -27.9470 C   0  0  0  0  0  0  0  0  0  0  0  0
   -3.0150   21.4680  -27.5510 C   0  0  0  0  0  0  0  0  0  0  0  0
   -1.7770   21.0820  -28.0480 C   0  0  0  0  0  0  0  0  0  0  0  0
   -1.1720   22.3410  -28.9840 S   0  0  0  0  0  0  0  0  0  0  0  0
   -3.4144   22.6644  -31.8539 H   0  0  0  0  0  0  0  0  0  0  0  0
   -5.3795   21.2737  -32.4880 H   0  0  0  0  0  0  0  0  0  0  0  0
   -7.0988   19.8023  -32.3051 H   0  0  0  0  0  0  0  0  0  0  0  0
   -8.0028   24.0694  -30.4670 H   0  0  0  0  0  0  0  0  0  0  0  0
   -6.0337   25.4550  -29.8380 H   0  0  0  0  0  0  0  0  0  0  0  0
   -4.3617   23.2112  -27.6509 H   0  0  0  0  0  0  0  0  0  0  0  0
   -3.6307   20.8241  -26.9057 H   0  0  0  0  0  0  0  0  0  0  0  0
   -1.2785   20.1193  -27.8616 H   0  0  0  0  0  0  0  0  0  0  0  0
  1  2  2  0
  2  3  1  0
  3  4  1  0
  4  5  2  0
  5  6  1  0
  6  7  2  0
  7  8  1  0
  8  9  1  0
  9 10  2  0
 10 11  1  0
 11 12  2  0
  7 13  1  0
 13 14  2  0
  2 15  1  0
 15 16  2  0
 16 17  1  0
 17 18  2  0
 18 19  1  0
 14  4  1  0
 19 15  1  0
 12  8  1  0
  5 20  1  0
  6 21  1  0
  9 22  1  0
 13 23  1  0
 14 24  1  0
 16 25  1  0
 17 26  1  0
 18 27  1  0
M  CHG  1   3  -1
M  END
>  <UniqueID>  (1) 
1

>  <SMILES>  (1) 
O=C([N-]c1ccc(-n2cnnn2)cc1)c1cccs1

>  <Energy>  (1) 
102.57529235346777

>  <Genealogy>  (1) 
O=C([N-]c1ccc(-n2cnnn2)cc1)c1cccs1 (protonated)
O=C([N-]c1ccc(-n2cnnn2)cc1)c1cccs1 (3D coordinates assigned)
O=C([N-]c1ccc(-n2cnnn2)cc1)c1cccs1 (optimized conformer: 102.57529235346777 kcal/mol)

>  <smiles>  (1) 
O=C(Nc1ccc(-n2cnnn2)cc1)c1cccs1

>  <score_type>  (1) 
oracle

>  <origin>  (1) 
adgpu

>  <m_score__min__energy>  (1) 
-9.1600000000000001

>  <m_primary>  (1) 
energy

$$$$
1:0
     RDKit          3D

 36 38  0  0  0  0  0  0  0  0999 V2000
   -4.0930   17.0840  -35.0880 C   0  0  0  0  0  0  0  0  0  0  0  0
   -5.3030   16.0140  -34.2530 S   0  0  0  0  0  0  0  0  0  0  0  0
   -6.1510   17.3850  -33.4780 C   0  0  0  0  0  0  0  0  0  0  0  0
   -7.2600   17.2470  -32.7240 N   0  0  0  0  0  0  0  0  0  0  0  0
   -7.7050   18.4410  -32.2520 C   0  0  0  0  0  0  0  0  0  0  0  0
   -6.9420   19.5510  -32.6320 C   0  0  0  0  0  0  0  0  0  0  0  0
   -7.1900   20.9700  -32.2740 C   0  0  0  0  0  0  0  0  0  0  0  0
   -8.4830   21.3970  -31.9210 C   0  0  0  0  0  0  0  0  0  0  0  0
   -8.7240   22.7310  -31.5840 C   0  0  0  0  0  0  0  0  0  0  0  0
   -7.6800   23.6550  -31.5890 C   0  0  0  0  0  0  0  0  0  0  0  0
   -6.3790   23.2470  -31.9210 C   0  0  0  0  0  0  0  0  0  0  0  0
   -5.2820   24.1730  -31.9290 N   0  0  0  0  0  0  0  0  0  0  0  0
   -4.9670   25.1060  -30.8870 C   0  0  0  0  0  0  0  0  0  0  0  0
   -5.8910   25.8030  -30.3920 O   0  0  0  0  0  0  0  0  0  0  0  0
   -3.6310   25.2680  -30.3920 N   0  0  0  0  0  0  0  0  0  0  0  0
   -3.0180   24.4870  -29.3570 C   0  0  0  0  0  0  0  0  0  0  0  0
   -3.5820   23.2760  -28.9180 C   0  0  0  0  0  0  0  0  0  0  0  0
   -2.9670   22.5420  -27.9000 C   0  0  0  0  0  0  0  0  0  0  0  0
   -1.7780   22.9980  -27.3270 C   0  0  0  0  0  0  0  0  0  0  0  0
   -1.1830   22.2850  -26.3390 F   0  0  0  0  0  0  0  0  0  0  0  0
   -1.1970   24.1870  -27.7780 C   0  0  0  0  0  0  0  0  0  0  0  0
   -1.8110   24.9260  -28.7950 C   0  0  0  0  0  0  0  0  0  0  0  0
   -1.2420   26.0830  -29.2190 F   0  0  0  0  0  0  0  0  0  0  0  0
   -6.1440   21.9150  -32.2830 C   0  0  0  0  0  0  0  0  0  0  0  0
   -5.6740   18.9880  -33.5950 S   0  0  0  0  0  0  0  0  0  0  0  0
   -3.4922   17.6153  -34.3351 H   0  0  0  0  0  0  0  0  0  0  0  0
   -3.4324   16.4692  -35.7170 H   0  0  0  0  0  0  0  0  0  0  0  0
   -4.6224   17.8148  -35.7170 H   0  0  0  0  0  0  0  0  0  0  0  0
   -8.5994   18.5287  -31.6177 H   0  0  0  0  0  0  0  0  0  0  0  0
   -9.3118   20.6739  -31.9102 H   0  0  0  0  0  0  0  0  0  0  0  0
   -9.7404   23.0534  -31.3139 H   0  0  0  0  0  0  0  0  0  0  0  0
   -7.8766   24.7064  -31.3321 H   0  0  0  0  0  0  0  0  0  0  0  0
   -4.5102   22.9052  -29.3773 H   0  0  0  0  0  0  0  0  0  0  0  0
   -3.4205   21.6032  -27.5494 H   0  0  0  0  0  0  0  0  0  0  0  0
   -0.2559   24.5419  -27.3326 H   0  0  0  0  0  0  0  0  0  0  0  0
   -5.1314   21.6023  -32.5778 H   0  0  0  0  0  0  0  0  0  0  0  0
  1  2  1  0
  2  3  1  0
  3  4  2  0
  4  5  1  0
  5  6  2  0
  6  7  1  0
  7  8  2  0
  8  9  1  0
  9 10  2  0
 10 11  1  0
 11 12  1  0
 12 13  1  0
 13 14  2  0
 13 15  1  0
 15 16  1  0
 16 17  2  0
 17 18  1  0
 18 19  2  0
 19 20  1  0
 19 21  1  0
 21 22  2  0
 22 23  1  0
 11 24  2  0
  6 25  1  0
 25  3  1  0
 24  7  1  0
 22 16  1  0
  1 26  1  0
  1 27  1  0
  1 28  1  0
  5 29  1  0
  8 30  1  0
  9 31  1  0
 10 32  1  0
 17 33  1  0
 18 34  1  0
 21 35  1  0
 24 36  1  0
M  CHG  2  12  -1  15  -1
M  END
>  <UniqueID>  (2) 
2

>  <SMILES>  (2) 
CSc1ncc(-c2cccc([N-]C(=O)[N-]c3ccc(F)cc3F)c2)s1

>  <Energy>  (2) 
74.24150545963168

>  <Genealogy>  (2) 
CSc1ncc(-c2cccc([N-]C(=O)[N-]c3ccc(F)cc3F)c2)s1 (protonated)
CSc1ncc(-c2cccc([N-]C(=O)[N-]c3ccc(F)cc3F)c2)s1 (3D coordinates assigned)
CSc1ncc(-c2cccc([N-]C(=O)[N-]c3ccc(F)cc3F)c2)s1 (optimized conformer: 74.24150545963168 kcal/mol)

>  <smiles>  (2) 
CSc1ncc(-c2cccc(NC(=O)Nc3ccc(F)cc3F)c2)s1

>  <score_type>  (2) 
oracle

>  <origin>  (2) 
adgpu

>  <m_score__min__energy>  (2) 
-11.51

>  <m_primary>  (2) 
energy

$$$$
2:0
     RDKit          3D

 29 31  0  0  0  0  0  0  0  0999 V2000
   -0.1950   25.9240  -24.5580 Cl  0  0  0  0  0  0  0  0  0  0  0  0
   -1.2210   25.4660  -25.9050 C   0  0  0  0  0  0  0  0  0  0  0  0
   -0.6700   25.2860  -27.1760 C   0  0  0  0  0  0  0  0  0  0  0  0
   -1.4840   24.9210  -28.2510 C   0  0  0  0  0  0  0  0  0  0  0  0
   -2.8700   24.7300  -28.0710 C   0  0  0  0  0  0  0  0  0  0  0  0
   -3.7450   24.3410  -29.2140 C   0  0  0  0  0  0  0  0  0  0  0  0
   -4.7180   23.3520  -29.2120 C   0  0  0  0  0  0  0  0  0  0  0  0
   -5.2460   23.3750  -30.4940 C   0  0  0  0  0  0  0  0  0  0  0  0
   -6.3270   22.5120  -31.0320 C   0  0  0  0  0  0  0  0  0  0  0  0
   -6.0230   21.5160  -31.9790 C   0  0  0  0  0  0  0  0  0  0  0  0
   -7.0300   20.6950  -32.4950 C   0  0  0  0  0  0  0  0  0  0  0  0
   -8.3510   20.8570  -32.0740 C   0  0  0  0  0  0  0  0  0  0  0  0
   -8.6670   21.8410  -31.1360 C   0  0  0  0  0  0  0  0  0  0  0  0
   -7.6640   22.6660  -30.6150 C   0  0  0  0  0  0  0  0  0  0  0  0
   -4.6200   24.3250  -31.2170 N   0  0  0  0  0  0  0  0  0  0  0  0
   -3.7180   24.9020  -30.4420 N   0  0  0  0  0  0  0  0  0  0  0  0
   -3.4110   24.9160  -26.7820 C   0  0  0  0  0  0  0  0  0  0  0  0
   -2.5910   25.2810  -25.7100 C   0  0  0  0  0  0  0  0  0  0  0  0
    0.4092   25.4323  -27.3310 H   0  0  0  0  0  0  0  0  0  0  0  0
   -1.0398   24.7812  -29.2476 H   0  0  0  0  0  0  0  0  0  0  0  0
   -5.0066   22.6952  -28.3782 H   0  0  0  0  0  0  0  0  0  0  0  0
   -4.9844   21.3825  -32.3159 H   0  0  0  0  0  0  0  0  0  0  0  0
   -6.7808   19.9196  -33.2344 H   0  0  0  0  0  0  0  0  0  0  0  0
   -9.1420   20.2099  -32.4810 H   0  0  0  0  0  0  0  0  0  0  0  0
   -9.7083   21.9685  -30.8051 H   0  0  0  0  0  0  0  0  0  0  0  0
   -7.9208   23.4391  -29.8758 H   0  0  0  0  0  0  0  0  0  0  0  0
   -3.1000   25.6740  -30.7730 H   0  0  0  0  0  0  0  0  0  0  0  0
   -4.4892   24.7724  -26.6183 H   0  0  0  0  0  0  0  0  0  0  0  0
   -3.0266   25.4228  -24.7099 H   0  0  0  0  0  0  0  0  0  0  0  0
  1  2  1  0
  2  3  2  0
  3  4  1  0
  4  5  2  0
  5  6  1  0
  6  7  2  0
  7  8  1  0
  8  9  1  0
  9 10  2  0
 10 11  1  0
 11 12  2  0
 12 13  1  0
 13 14  2  0
  8 15  2  0
 15 16  1  0
  5 17  1  0
 17 18  2  0
 18  2  1  0
 16  6  1  0
 14  9  1  0
  3 19  1  0
  4 20  1  0
  7 21  1  0
 10 22  1  0
 11 23  1  0
 12 24  1  0
 13 25  1  0
 14 26  1  0
 16 27  1  0
 17 28  1  0
 18 29  1  0
M  END
>  <UniqueID>  (3) 
3

>  <SMILES>  (3) 
Clc1ccc(-c2cc(-c3ccccc3)n[nH]2)cc1

>  <Energy>  (3) 
65.55600998895335

>  <Genealogy>  (3) 
Clc1ccc(-c2cc(-c3ccccc3)n[nH]2)cc1 (3D coordinates assigned)
Clc1ccc(-c2cc(-c3ccccc3)n[nH]2)cc1 (optimized conformer: 65.55600998895335 kcal/mol)

>  <smiles>  (3) 
Clc1ccc(-c2cc(-c3ccccc3)n[nH]2)cc1

>  <score_type>  (3) 
oracle

>  <origin>  (3) 
adgpu

>  <m_score__min__energy>  (3) 
-8.1199999999999992

>  <m_primary>  (3) 
energy

$$$$
3:0
     RDKit          3D

 60 63  0  0  0  0  0  0  0  0999 V2000
   -6.5007   11.0149  -35.0778 H   0  0  0  0  0  0  0  0  0  0  0  0
   -6.5040   12.0850  -34.8230 C   0  0  0  0  0  0  0  0  0  0  0  0
   -7.5810   12.8910  -35.2010 C   0  0  0  0  0  0  0  0  0  0  0  0
   -8.4250   12.4548  -35.7555 H   0  0  0  0  0  0  0  0  0  0  0  0
   -7.5880   14.2500  -34.8760 C   0  0  0  0  0  0  0  0  0  0  0  0
   -8.4395   14.8797  -35.1733 H   0  0  0  0  0  0  0  0  0  0  0  0
   -6.5120   14.8160  -34.1710 C   0  0  0  0  0  0  0  0  0  0  0  0
   -6.5050   16.2850  -33.8350 C   0  0  0  0  0  0  0  0  0  0  0  0
   -6.8303   16.4171  -32.7925 H   0  0  0  0  0  0  0  0  0  0  0  0
   -7.1898   16.8047  -34.5213 H   0  0  0  0  0  0  0  0  0  0  0  0
   -5.1660   16.8530  -33.9940 N   0  0  0  0  0  0  0  0  0  0  0  0
   -4.7350   17.9330  -33.4080 C   0  0  0  0  0  0  0  0  0  0  0  0
   -5.5440   18.6480  -32.5810 N   0  0  0  0  0  0  0  0  0  0  0  0
   -5.1130   19.7640  -31.9950 N   0  0  0  0  0  0  0  0  0  0  0  0
   -3.8530   20.2300  -32.1940 C   0  0  0  0  0  0  0  0  0  0  0  0
   -3.4330   21.4610  -31.4880 C   0  0  0  0  0  0  0  0  0  0  0  0
   -2.2720   21.4520  -30.7090 C   0  0  0  0  0  0  0  0  0  0  0  0
   -1.6605   20.5393  -30.6529 H   0  0  0  0  0  0  0  0  0  0  0  0
   -1.8790   22.5980  -29.9970 C   0  0  0  0  0  0  0  0  0  0  0  0
   -0.7240   22.6140  -29.1970 O   0  0  0  0  0  0  0  0  0  0  0  0
   -0.3000   21.5380  -28.3660 C   0  0  0  0  0  0  0  0  0  0  0  0
   -0.4127   21.8240  -27.3098 H   0  0  0  0  0  0  0  0  0  0  0  0
   -0.9155   20.6502  -28.5732 H   0  0  0  0  0  0  0  0  0  0  0  0
    0.7557   21.3087  -28.5732 H   0  0  0  0  0  0  0  0  0  0  0  0
   -2.6510   23.7720  -30.0710 C   0  0  0  0  0  0  0  0  0  0  0  0
   -2.1950   24.8750  -29.3230 O   0  0  0  0  0  0  0  0  0  0  0  0
   -2.0310   24.9330  -27.9100 C   0  0  0  0  0  0  0  0  0  0  0  0
   -2.9592   24.6047  -27.4194 H   0  0  0  0  0  0  0  0  0  0  0  0
   -1.2041   24.2728  -27.6094 H   0  0  0  0  0  0  0  0  0  0  0  0
   -1.8030   25.9663  -27.6094 H   0  0  0  0  0  0  0  0  0  0  0  0
   -3.8230   23.7930  -30.8700 C   0  0  0  0  0  0  0  0  0  0  0  0
   -4.6120   24.9530  -30.9310 O   0  0  0  0  0  0  0  0  0  0  0  0
   -5.7530   25.2080  -30.1170 C   0  0  0  0  0  0  0  0  0  0  0  0
   -5.4684   25.1444  -29.0564 H   0  0  0  0  0  0  0  0  0  0  0  0
   -6.1399   26.2148  -30.3331 H   0  0  0  0  0  0  0  0  0  0  0  0
   -6.5317   24.4617  -30.3331 H   0  0  0  0  0  0  0  0  0  0  0  0
   -4.1850   22.6370  -31.5880 C   0  0  0  0  0  0  0  0  0  0  0  0
   -5.0725   22.6587  -32.2375 H   0  0  0  0  0  0  0  0  0  0  0  0
   -2.9990   19.5070  -33.0580 C   0  0  0  0  0  0  0  0  0  0  0  0
   -1.6290   19.9710  -33.3830 C   0  0  0  0  0  0  0  0  0  0  0  0
   -1.4470   21.1200  -34.1660 C   0  0  0  0  0  0  0  0  0  0  0  0
   -2.3214   21.6903  -34.5127 H   0  0  0  0  0  0  0  0  0  0  0  0
   -0.1600   21.5440  -34.5080 C   0  0  0  0  0  0  0  0  0  0  0  0
   -0.0292   22.4422  -35.1294 H   0  0  0  0  0  0  0  0  0  0  0  0
    0.9640   20.8360  -34.0670 C   0  0  0  0  0  0  0  0  0  0  0  0
    2.2330   21.2960  -34.4490 O   0  0  0  0  0  0  0  0  0  0  0  0
    3.3810   20.4660  -34.5910 C   0  0  0  0  0  0  0  0  0  0  0  0
    3.7605   20.1916  -33.5956 H   0  0  0  0  0  0  0  0  0  0  0  0
    3.1085   19.5547  -35.1435 H   0  0  0  0  0  0  0  0  0  0  0  0
    4.1610   21.0104  -35.1435 H   0  0  0  0  0  0  0  0  0  0  0  0
    0.7830   19.6950  -33.2610 C   0  0  0  0  0  0  0  0  0  0  0  0
    1.6584   19.1352  -32.8999 H   0  0  0  0  0  0  0  0  0  0  0  0
   -0.5040   19.2710  -32.9180 C   0  0  0  0  0  0  0  0  0  0  0  0
   -0.6362   18.3844  -32.2805 H   0  0  0  0  0  0  0  0  0  0  0  0
   -3.4660   18.3630  -33.6350 N   0  0  0  0  0  0  0  0  0  0  0  0
   -2.8500   17.8200  -34.2840 H   0  0  0  0  0  0  0  0  0  0  0  0
   -5.4320   14.0010  -33.7960 C   0  0  0  0  0  0  0  0  0  0  0  0
   -4.5841   14.4342  -33.2451 H   0  0  0  0  0  0  0  0  0  0  0  0
   -5.4300   12.6410  -34.1200 C   0  0  0  0  0  0  0  0  0  0  0  0
   -4.5822   12.0069  -33.8215 H   0  0  0  0  0  0  0  0  0  0  0  0
  1  2  1  0
  2  3  2  0
  3  4  1  0
  3  5  1  0
  5  6  1  0
  5  7  2  0
  7  8  1  0
  8  9  1  0
  8 10  1  0
  8 11  1  0
 11 12  2  0
 12 13  1  0
 13 14  2  0
 14 15  1  0
 15 16  1  0
 16 17  2  0
 17 18  1  0
 17 19  1  0
 19 20  1  0
 20 21  1  0
 21 22  1  0
 21 23  1  0
 21 24  1  0
 19 25  2  0
 25 26  1  0
 26 27  1  0
 27 28  1  0
 27 29  1  0
 27 30  1  0
 25 31  1  0
 31 32  1  0
 32 33  1  0
 33 34  1  0
 33 35  1  0
 33 36  1  0
 31 37  2  0
 37 38  1  0
 15 39  2  0
 39 40  1  0
 40 41  2  0
 41 42  1  0
 41 43  1  0
 43 44  1  0
 43 45  2  0
 45 46  1  0
 46 47  1  0
 47 48  1  0
 47 49  1  0
 47 50  1  0
 45 51  1  0
 51 52  1  0
 51 53  2  0
 53 54  1  0
 39 55  1  0
 55 56  1  0
  7 57  1  0
 57 58  1  0
 57 59  2  0
 59 60  1  0
 59  2  1  0
 55 12  1  0
 37 16  1  0
 53 40  1  0
M  END
>  <UniqueID>  (4) 
4

>  <SMILES>  (4) 
COc1ccc(-c2[nH]/c(=N/Cc3ccccc3)nnc2-c2cc(OC)c(OC)c(OC)c2)cc1

>  <Energy>  (4) 
76.96679720539545

>  <Genealogy>  (4) 
COc1ccc(-c2[nH]/c(=N/Cc3ccccc3)nnc2-c2cc(OC)c(OC)c(OC)c2)cc1 (cis-trans isomerization)
COc1ccc(-c2[nH]/c(=N/Cc3ccccc3)nnc2-c2cc(OC)c(OC)c(OC)c2)cc1 (3D coordinates assigned)
COc1ccc(-c2[nH]/c(=N/Cc3ccccc3)nnc2-c2cc(OC)c(OC)c(OC)c2)cc1 (optimized conformer: 76.96679720539545 kcal/mol)

>  <smiles>  (4) 
COc1ccc(-c2[nH]c(=NCc3ccccc3)nnc2-c2cc(OC)c(OC)c(OC)c2)cc1

>  <score_type>  (4) 
oracle

>  <origin>  (4) 
adgpu

>  <m_score__min__energy>  (4) 
-7.9500000000000002

>  <m_primary>  (4) 
energy

$$$$
4:0
     RDKit          3D

 33 34  0  0  0  0  0  0  0  0999 V2000
   -4.2050   25.6100  -31.6160 H   0  0  0  0  0  0  0  0  0  0  0  0
   -3.8760   25.6660  -30.6600 O   0  0  0  0  0  0  0  0  0  0  0  0
   -3.6170   24.5220  -29.9070 C   0  0  0  0  0  0  0  0  0  0  0  0
   -2.2920   24.1170  -29.6810 C   0  0  0  0  0  0  0  0  0  0  0  0
   -1.4605   24.7170  -30.0792 H   0  0  0  0  0  0  0  0  0  0  0  0
   -2.0250   22.9560  -28.9530 C   0  0  0  0  0  0  0  0  0  0  0  0
   -0.9845   22.6508  -28.7680 H   0  0  0  0  0  0  0  0  0  0  0  0
   -3.0780   22.1810  -28.4590 C   0  0  0  0  0  0  0  0  0  0  0  0
   -2.7090   20.5920  -27.4670 Br  0  0  0  0  0  0  0  0  0  0  0  0
   -4.4000   22.5760  -28.6820 C   0  0  0  0  0  0  0  0  0  0  0  0
   -5.2268   21.9529  -28.3102 H   0  0  0  0  0  0  0  0  0  0  0  0
   -4.6790   23.7620  -29.3770 C   0  0  0  0  0  0  0  0  0  0  0  0
   -6.0900   24.1730  -29.5470 C   0  0  0  0  0  0  0  0  0  0  0  0
   -6.5516   24.7605  -28.7397 H   0  0  0  0  0  0  0  0  0  0  0  0
   -6.8480   23.8800  -30.6170 C   0  0  0  0  0  0  0  0  0  0  0  0
   -7.9061   24.1789  -30.5852 H   0  0  0  0  0  0  0  0  0  0  0  0
   -6.3720   23.1870  -31.8350 C   0  0  0  0  0  0  0  0  0  0  0  0
   -5.6490   23.8300  -32.6420 O   0  0  0  0  0  0  0  0  0  0  0  0
   -6.6800   21.7660  -32.1200 C   0  0  0  0  0  0  0  0  0  0  0  0
   -5.6650   20.9010  -32.5570 C   0  0  0  0  0  0  0  0  0  0  0  0
   -4.6339   21.2725  -32.6515 H   0  0  0  0  0  0  0  0  0  0  0  0
   -5.9550   19.5710  -32.8730 C   0  0  0  0  0  0  0  0  0  0  0  0
   -5.1537   18.9047  -33.2249 H   0  0  0  0  0  0  0  0  0  0  0  0
   -7.2680   19.0800  -32.7430 C   0  0  0  0  0  0  0  0  0  0  0  0
   -7.6120   17.7570  -33.0580 O   0  0  0  0  0  0  0  0  0  0  0  0
   -6.7010   16.7890  -33.5670 C   0  0  0  0  0  0  0  0  0  0  0  0
   -6.2122   16.2696  -32.7296 H   0  0  0  0  0  0  0  0  0  0  0  0
   -7.2475   16.0591  -34.1824 H   0  0  0  0  0  0  0  0  0  0  0  0
   -5.9394   17.2902  -34.1824 H   0  0  0  0  0  0  0  0  0  0  0  0
   -8.2740   19.9370  -32.2830 C   0  0  0  0  0  0  0  0  0  0  0  0
   -9.3017   19.5614  -32.1702 H   0  0  0  0  0  0  0  0  0  0  0  0
   -7.9830   21.2660  -31.9660 C   0  0  0  0  0  0  0  0  0  0  0  0
   -8.7804   21.9256  -31.5930 H   0  0  0  0  0  0  0  0  0  0  0  0
  1  2  1  0
  2  3  1  0
  3  4  2  0
  4  5  1  0
  4  6  1  0
  6  7  1  0
  6  8  2  0
  8  9  1  0
  8 10  1  0
 10 11  1  0
 10 12  2  0
 12 13  1  0
 13 14  1  0
 13 15  2  0
 15 16  1  0
 15 17  1  0
 17 18  2  0
 17 19  1  0
 19 20  2  0
 20 21  1  0
 20 22  1  0
 22 23  1  0
 22 24  2  0
 24 25  1  0
 25 26  1  0
 26 27  1  0
 26 28  1  0
 26 29  1  0
 24 30  1  0
 30 31  1  0
 30 32  2  0
 32 33  1  0
 12  3  1  0
 32 19  1  0
M  END
>  <UniqueID>  (5) 
5

>  <SMILES>  (5) 
COc1ccc(C(=O)/C=C\c2cc(Br)ccc2O)cc1

>  <Energy>  (5) 
43.142143879312336

>  <Genealogy>  (5) 
COc1ccc(C(=O)/C=C\c2cc(Br)ccc2O)cc1 (cis-trans isomerization)
COc1ccc(C(=O)/C=C\c2cc(Br)ccc2O)cc1 (3D coordinates assigned)
COc1ccc(C(=O)/C=C\c2cc(Br)ccc2O)cc1 (optimized conformer: 43.142143879312336 kcal/mol)

>  <smiles>  (5) 
COc1ccc(C(=O)C=Cc2cc(Br)ccc2O)cc1

>  <score_type>  (5) 
oracle

>  <origin>  (5) 
adgpu

>  <m_score__min__energy>  (5) 
-9.0800000000000001

>  <m_primary>  (5) 
energy

$$$$
5:0
     RDKit          3D

 81 86  0  0  0  0  0  0  0  0999 V2000
    1.6490   20.0590  -33.8100 C   0  0  0  0  0  0  0  0  0  0  0  0
    0.7910   20.0520  -32.6730 O   0  0  0  0  0  0  0  0  0  0  0  0
    0.7550   19.0330  -31.7050 C   0  0  0  0  0  0  0  0  0  0  0  0
    1.1200   19.2640  -30.3640 C   0  0  0  0  0  0  0  0  0  0  0  0
    1.0710   18.2230  -29.4230 C   0  0  0  0  0  0  0  0  0  0  0  0
    1.4160   18.4220  -28.0700 C   0  0  0  0  0  0  0  0  0  0  0  0
    1.7700   19.6870  -27.5880 O   0  0  0  0  0  0  0  0  0  0  0  0
    0.8820   20.7730  -27.5340 C   0  0  0  0  0  0  0  0  0  0  0  0
    1.3310   22.1080  -27.5170 C   0  0  0  0  0  0  0  0  0  0  0  0
    0.4160   23.1610  -27.4960 C   0  0  0  0  0  0  0  0  0  0  0  0
   -0.9640   22.9000  -27.4960 C   0  0  0  0  0  0  0  0  0  0  0  0
   -1.9230   23.9650  -27.4610 N   0  0  0  0  0  0  0  0  0  0  0  0
   -2.2240   24.8350  -28.5600 C   0  0  0  0  0  0  0  0  0  0  0  0
   -1.5800   25.9100  -28.6770 O   0  0  0  0  0  0  0  0  0  0  0  0
   -3.3210   24.5210  -29.4990 C   0  0  0  0  0  0  0  0  0  0  0  0
   -3.6120   25.2900  -30.5680 N   0  0  0  0  0  0  0  0  0  0  0  0
   -4.6340   24.7510  -31.2140 N   0  0  0  0  0  0  0  0  0  0  0  0
   -5.0180   23.6350  -30.5640 C   0  0  0  0  0  0  0  0  0  0  0  0
   -6.1570   22.8020  -31.0030 C   0  0  0  0  0  0  0  0  0  0  0  0
   -7.4320   23.0270  -30.4560 C   0  0  0  0  0  0  0  0  0  0  0  0
   -8.5220   22.2500  -30.8640 C   0  0  0  0  0  0  0  0  0  0  0  0
   -8.3480   21.2370  -31.8070 C   0  0  0  0  0  0  0  0  0  0  0  0
   -7.0790   20.9870  -32.3390 C   0  0  0  0  0  0  0  0  0  0  0  0
   -6.8580   19.6990  -33.5090 Cl  0  0  0  0  0  0  0  0  0  0  0  0
   -5.9850   21.7600  -31.9330 C   0  0  0  0  0  0  0  0  0  0  0  0
   -4.1830   23.4320  -29.4710 C   0  0  0  0  0  0  0  0  0  0  0  0
   -4.2450   22.3300  -28.4540 C   0  0  0  0  0  0  0  0  0  0  0  0
   -1.4110   21.5740  -27.4770 C   0  0  0  0  0  0  0  0  0  0  0  0
   -0.4950   20.5170  -27.5110 C   0  0  0  0  0  0  0  0  0  0  0  0
   -0.9470   19.2380  -27.5260 F   0  0  0  0  0  0  0  0  0  0  0  0
    1.3980   17.3400  -27.1870 C   0  0  0  0  0  0  0  0  0  0  0  0
    1.0090   16.0800  -27.6450 C   0  0  0  0  0  0  0  0  0  0  0  0
    0.6530   15.9060  -28.9440 N   0  0  0  0  0  0  0  0  0  0  0  0
    0.6720   16.9330  -29.8370 C   0  0  0  0  0  0  0  0  0  0  0  0
    0.2980   16.7080  -31.1640 C   0  0  0  0  0  0  0  0  0  0  0  0
    0.3330   17.7550  -32.1050 C   0  0  0  0  0  0  0  0  0  0  0  0
   -0.0320   17.5710  -33.4500 O   0  0  0  0  0  0  0  0  0  0  0  0
   -1.3500   17.2800  -33.9170 C   0  0  0  0  0  0  0  0  0  0  0  0
   -2.1070   18.5790  -34.2140 C   0  0  0  0  0  0  0  0  0  0  0  0
   -3.3780   18.6890  -33.3610 C   0  0  0  0  0  0  0  0  0  0  0  0
   -3.5550   20.0140  -32.7300 N   0  0  0  0  0  0  0  0  0  0  0  0
   -3.5940   20.0440  -31.2530 C   0  0  0  0  0  0  0  0  0  0  0  0
   -2.2680   20.5050  -30.6350 C   0  0  0  0  0  0  0  0  0  0  0  0
   -1.8480   21.7820  -31.2350 N   0  0  0  0  0  0  0  0  0  0  0  0
   -0.6290   22.2720  -30.5720 C   0  0  0  0  0  0  0  0  0  0  0  0
   -1.5970   21.5890  -32.6730 C   0  0  0  0  0  0  0  0  0  0  0  0
   -2.8840   21.1570  -33.3870 C   0  0  0  0  0  0  0  0  0  0  0  0
    2.6977   20.0676  -33.4780 H   0  0  0  0  0  0  0  0  0  0  0  0
    1.4633   19.1593  -34.4150 H   0  0  0  0  0  0  0  0  0  0  0  0
    1.4486   20.9555  -34.4150 H   0  0  0  0  0  0  0  0  0  0  0  0
    1.4458   20.2672  -30.0519 H   0  0  0  0  0  0  0  0  0  0  0  0
    2.4100   22.3217  -27.5203 H   0  0  0  0  0  0  0  0  0  0  0  0
    0.7769   24.2000  -27.4794 H   0  0  0  0  0  0  0  0  0  0  0  0
   -7.5737   23.8172  -29.7040 H   0  0  0  0  0  0  0  0  0  0  0  0
   -9.5192   22.4387  -30.4397 H   0  0  0  0  0  0  0  0  0  0  0  0
   -9.2091   20.6347  -32.1323 H   0  0  0  0  0  0  0  0  0  0  0  0
   -4.9857   21.5519  -32.3430 H   0  0  0  0  0  0  0  0  0  0  0  0
   -4.2207   22.7624  -27.4429 H   0  0  0  0  0  0  0  0  0  0  0  0
   -5.1766   21.7604  -28.5869 H   0  0  0  0  0  0  0  0  0  0  0  0
   -3.3832   21.6595  -28.5869 H   0  0  0  0  0  0  0  0  0  0  0  0
   -2.4894   21.3614  -27.4351 H   0  0  0  0  0  0  0  0  0  0  0  0
    1.6890   17.4801  -26.1355 H   0  0  0  0  0  0  0  0  0  0  0  0
    0.9908   15.2259  -26.9520 H   0  0  0  0  0  0  0  0  0  0  0  0
   -0.0266   15.7045  -31.4765 H   0  0  0  0  0  0  0  0  0  0  0  0
   -1.2851   16.6794  -34.8363 H   0  0  0  0  0  0  0  0  0  0  0  0
   -1.8902   16.7205  -33.1391 H   0  0  0  0  0  0  0  0  0  0  0  0
   -1.4517   19.4345  -33.9932 H   0  0  0  0  0  0  0  0  0  0  0  0
   -2.3988   18.5770  -35.2746 H   0  0  0  0  0  0  0  0  0  0  0  0
   -4.2474   18.4919  -34.0055 H   0  0  0  0  0  0  0  0  0  0  0  0
   -3.2848   17.9544  -32.5475 H   0  0  0  0  0  0  0  0  0  0  0  0
   -4.3890   20.7349  -30.9359 H   0  0  0  0  0  0  0  0  0  0  0  0
   -3.7839   19.0180  -30.9048 H   0  0  0  0  0  0  0  0  0  0  0  0
   -2.3984   20.6377  -29.5508 H   0  0  0  0  0  0  0  0  0  0  0  0
   -1.4967   19.7450  -30.8286 H   0  0  0  0  0  0  0  0  0  0  0  0
   -0.7588   22.2198  -29.4809 H   0  0  0  0  0  0  0  0  0  0  0  0
    0.2265   21.6479  -30.8697 H   0  0  0  0  0  0  0  0  0  0  0  0
   -0.4435   23.3146  -30.8697 H   0  0  0  0  0  0  0  0  0  0  0  0
   -1.2404   22.5340  -33.1088 H   0  0  0  0  0  0  0  0  0  0  0  0
   -0.8374   20.8037  -32.8004 H   0  0  0  0  0  0  0  0  0  0  0  0
   -3.5790   22.0095  -33.4026 H   0  0  0  0  0  0  0  0  0  0  0  0
   -2.6049   20.8354  -34.4012 H   0  0  0  0  0  0  0  0  0  0  0  0
  1  2  1  0
  2  3  1  0
  3  4  2  0
  4  5  1  0
  5  6  2  0
  6  7  1  0
  7  8  1  0
  8  9  2  0
  9 10  1  0
 10 11  2  0
 11 12  1  0
 12 13  1  0
 13 14  2  0
 13 15  1  0
 15 16  1  0
 16 17  1  0
 17 18  2  0
 18 19  1  0
 19 20  2  0
 20 21  1  0
 21 22  2  0
 22 23  1  0
 23 24  1  0
 23 25  2  0
 18 26  1  0
 26 27  1  0
 11 28  1  0
 28 29  2  0
 29 30  1  0
  6 31  1  0
 31 32  2  0
 32 33  1  0
 33 34  2  0
 34 35  1  0
 35 36  2  0
 36 37  1  0
 37 38  1  0
 38 39  1  0
 39 40  1  0
 40 41  1  0
 41 42  1  0
 42 43  1  0
 43 44  1  0
 44 45  1  0
 44 46  1  0
 46 47  1  0
 36  3  1  0
 47 41  1  0
 34  5  1  0
 29  8  1  0
 26 15  2  0
 25 19  1  0
  1 48  1  0
  1 49  1  0
  1 50  1  0
  4 51  1  0
  9 52  1  0
 10 53  1  0
 20 54  1  0
 21 55  1  0
 22 56  1  0
 25 57  1  0
 27 58  1  0
 27 59  1  0
 27 60  1  0
 28 61  1  0
 31 62  1  0
 32 63  1  0
 35 64  1  0
 38 65  1  0
 38 66  1  0
 39 67  1  0
 39 68  1  0
 40 69  1  0
 40 70  1  0
 42 71  1  0
 42 72  1  0
 43 73  1  0
 43 74  1  0
 45 75  1  0
 45 76  1  0
 45 77  1  0
 46 78  1  0
 46 79  1  0
 47 80  1  0
 47 81  1  0
M  CHG  2  12  -1  16  -1
M  END
>  <UniqueID>  (6) 
6

>  <SMILES>  (6) 
COc1cc2c(Oc3ccc([N-]C(=O)c4[n-]nc(-c5cccc(Cl)c5)c4C)cc3F)ccnc2cc1OCCCN1CCN(C)CC1

>  <Energy>  (6) 
146.19087036418082

>  <Genealogy>  (6) 
COc1cc2c(Oc3ccc([N-]C(=O)c4[n-]nc(-c5cccc(Cl)c5)c4C)cc3F)ccnc2cc1OCCCN1CCN(C)CC1 (protonated)
COc1cc2c(Oc3ccc([N-]C(=O)c4[n-]nc(-c5cccc(Cl)c5)c4C)cc3F)ccnc2cc1OCCCN1CCN(C)CC1 (3D coordinates assigned)
COc1cc2c(Oc3ccc([N-]C(=O)c4[n-]nc(-c5cccc(Cl)c5)c4C)cc3F)ccnc2cc1OCCCN1CCN(C)CC1 (nonaromatic ring conformer: 146.19087036418082 kcal/mol)

>  <smiles>  (6) 
COc1cc2c(Oc3ccc(NC(=O)c4[nH]nc(-c5cccc(Cl)c5)c4C)cc3F)ccnc2cc1OCCCN1CCN(C)CC1

>  <score_type>  (6) 
oracle

>  <origin>  (6) 
adgpu

>  <m_score__min__energy>  (6) 
-13.039999999999999

>  <m_primary>  (6) 
energy

$$$$
6:0
     RDKit          3D

 54 55  0  0  0  0  0  0  0  0999 V2000
   -1.4270   26.2990  -24.8880 C   0  0  0  0  0  0  0  0  0  0  0  0
   -1.1000   25.1860  -25.7140 O   0  0  0  0  0  0  0  0  0  0  0  0
   -1.8130   24.8110  -26.8630 C   0  0  0  0  0  0  0  0  0  0  0  0
   -3.1980   24.5690  -26.8360 C   0  0  0  0  0  0  0  0  0  0  0  0
   -3.8750   24.1980  -27.9990 C   0  0  0  0  0  0  0  0  0  0  0  0
   -3.1850   24.0560  -29.2110 C   0  0  0  0  0  0  0  0  0  0  0  0
   -3.9090   23.6590  -30.4400 C   0  0  0  0  0  0  0  0  0  0  0  0
   -3.8290   22.4730  -30.8660 O   0  0  0  0  0  0  0  0  0  0  0  0
   -4.6870   24.6010  -31.1250 O   0  0  0  0  0  0  0  0  0  0  0  0
   -6.1080   24.6720  -31.0200 C   0  0  0  0  0  0  0  0  0  0  0  0
   -6.7380   23.4710  -31.6550 C   0  0  0  0  0  0  0  0  0  0  0  0
   -7.3800   23.6110  -32.7310 O   0  0  0  0  0  0  0  0  0  0  0  0
   -6.5490   22.1680  -31.0820 N   0  0  0  0  0  0  0  0  0  0  0  0
   -7.1750   20.9800  -31.5980 C   0  0  0  0  0  0  0  0  0  0  0  0
   -6.3920   19.9650  -32.1750 C   0  0  0  0  0  0  0  0  0  0  0  0
   -6.9880   18.8160  -32.7070 C   0  0  0  0  0  0  0  0  0  0  0  0
   -5.9890   17.5430  -33.4130 S   0  0  0  0  0  0  0  0  0  0  0  0
   -5.2660   16.8150  -32.3140 O   0  0  0  0  0  0  0  0  0  0  0  0
   -6.8740   16.5550  -34.1220 O   0  0  0  0  0  0  0  0  0  0  0  0
   -4.8270   18.1940  -34.5430 N   0  0  0  0  0  0  0  0  0  0  0  0
   -3.8010   18.9570  -33.8220 C   0  0  0  0  0  0  0  0  0  0  0  0
   -4.2040   17.1000  -35.3000 C   0  0  0  0  0  0  0  0  0  0  0  0
   -8.3800   18.6820  -32.6760 C   0  0  0  0  0  0  0  0  0  0  0  0
   -9.1710   19.6880  -32.1190 C   0  0  0  0  0  0  0  0  0  0  0  0
   -8.5810   20.8400  -31.5740 C   0  0  0  0  0  0  0  0  0  0  0  0
   -9.4550   21.9090  -30.9740 C   0  0  0  0  0  0  0  0  0  0  0  0
   -1.8000   24.2990  -29.2390 C   0  0  0  0  0  0  0  0  0  0  0  0
   -1.1110   24.6760  -28.0700 C   0  0  0  0  0  0  0  0  0  0  0  0
    0.2720   24.9250  -28.0660 O   0  0  0  0  0  0  0  0  0  0  0  0
    1.2320   24.1360  -27.3740 C   0  0  0  0  0  0  0  0  0  0  0  0
   -1.3416   26.0084  -23.8305 H   0  0  0  0  0  0  0  0  0  0  0  0
   -0.7343   27.1273  -25.0977 H   0  0  0  0  0  0  0  0  0  0  0  0
   -2.4577   26.6210  -25.0977 H   0  0  0  0  0  0  0  0  0  0  0  0
   -3.7520   24.6728  -25.8914 H   0  0  0  0  0  0  0  0  0  0  0  0
   -4.9592   24.0155  -27.9641 H   0  0  0  0  0  0  0  0  0  0  0  0
   -6.3916   24.7114  -29.9579 H   0  0  0  0  0  0  0  0  0  0  0  0
   -6.4598   25.5761  -31.5384 H   0  0  0  0  0  0  0  0  0  0  0  0
   -5.8710   22.0700  -30.2930 H   0  0  0  0  0  0  0  0  0  0  0  0
   -5.2981   20.0752  -32.2087 H   0  0  0  0  0  0  0  0  0  0  0  0
   -3.9535   18.8436  -32.7385 H   0  0  0  0  0  0  0  0  0  0  0  0
   -2.8044   18.5789  -34.0936 H   0  0  0  0  0  0  0  0  0  0  0  0
   -3.8763   20.0203  -34.0936 H   0  0  0  0  0  0  0  0  0  0  0  0
   -3.7840   16.3625  -34.6002 H   0  0  0  0  0  0  0  0  0  0  0  0
   -4.9612   16.6147  -35.9333 H   0  0  0  0  0  0  0  0  0  0  0  0
   -3.4003   17.5036  -35.9333 H   0  0  0  0  0  0  0  0  0  0  0  0
   -8.8530   17.7803  -33.0922 H   0  0  0  0  0  0  0  0  0  0  0  0
  -10.2654   19.5776  -32.1068 H   0  0  0  0  0  0  0  0  0  0  0  0
   -9.4062   21.8494  -29.8767 H   0  0  0  0  0  0  0  0  0  0  0  0
   -9.1033   22.8978  -31.3035 H   0  0  0  0  0  0  0  0  0  0  0  0
  -10.4940   21.7609  -31.3035 H   0  0  0  0  0  0  0  0  0  0  0  0
   -1.2485   24.1934  -30.1849 H   0  0  0  0  0  0  0  0  0  0  0  0
    1.0897   24.2530  -26.2895 H   0  0  0  0  0  0  0  0  0  0  0  0
    1.1041   23.0785  -27.6486 H   0  0  0  0  0  0  0  0  0  0  0  0
    2.2447   24.4663  -27.6486 H   0  0  0  0  0  0  0  0  0  0  0  0
  1  2  1  0
  2  3  1  0
  3  4  2  0
  4  5  1  0
  5  6  2  0
  6  7  1  0
  7  8  2  0
  7  9  1  0
  9 10  1  0
 10 11  1  0
 11 12  2  0
 11 13  1  0
 13 14  1  0
 14 15  2  0
 15 16  1  0
 16 17  1  0
 17 18  2  0
 17 19  2  0
 17 20  1  0
 20 21  1  0
 20 22  1  0
 16 23  2  0
 23 24  1  0
 24 25  2  0
 25 26  1  0
  6 27  1  0
 27 28  2  0
 28 29  1  0
 29 30  1  0
 28  3  1  0
 25 14  1  0
  1 31  1  0
  1 32  1  0
  1 33  1  0
  4 34  1  0
  5 35  1  0
 10 36  1  0
 10 37  1  0
 13 38  1  0
 15 39  1  0
 21 40  1  0
 21 41  1  0
 21 42  1  0
 22 43  1  0
 22 44  1  0
 22 45  1  0
 23 46  1  0
 24 47  1  0
 26 48  1  0
 26 49  1  0
 26 50  1  0
 27 51  1  0
 30 52  1  0
 30 53  1  0
 30 54  1  0
M  END
>  <UniqueID>  (7) 
7

>  <SMILES>  (7) 
COc1ccc(C(=O)OCC(=O)Nc2cc(S(=O)(=O)N(C)C)ccc2C)cc1OC

>  <Energy>  (7) 
51.4961681202088

>  <Genealogy>  (7) 
COc1ccc(C(=O)OCC(=O)Nc2cc(S(=O)(=O)N(C)C)ccc2C)cc1OC (3D coordinates assigned)
COc1ccc(C(=O)OCC(=O)Nc2cc(S(=O)(=O)N(C)C)ccc2C)cc1OC (optimized conformer: 51.4961681202088 kcal/mol)

>  <smiles>  (7) 
COc1ccc(C(=O)OCC(=O)Nc2cc(S(=O)(=O)N(C)C)ccc2C)cc1OC

>  <score_type>  (7) 
oracle

>  <origin>  (7) 
adgpu

>  <m_score__min__energy>  (7) 
-9.2599999999999998

>  <m_primary>  (7) 
energy

$$$$
7:0
     RDKit          3D

 39 41  0  0  0  0  0  0  0  0999 V2000
   -6.3730   25.6050  -29.3920 C   0  0  0  0  0  0  0  0  0  0  0  0
   -5.6380   24.4200  -29.6840 O   0  0  0  0  0  0  0  0  0  0  0  0
   -6.0820   23.3950  -30.5340 C   0  0  0  0  0  0  0  0  0  0  0  0
   -7.3920   22.8870  -30.4680 C   0  0  0  0  0  0  0  0  0  0  0  0
   -7.8040   21.8550  -31.3240 C   0  0  0  0  0  0  0  0  0  0  0  0
   -6.9060   21.3420  -32.2800 C   0  0  0  0  0  0  0  0  0  0  0  0
   -5.5990   21.8490  -32.3420 C   0  0  0  0  0  0  0  0  0  0  0  0
   -5.1820   22.8730  -31.4720 C   0  0  0  0  0  0  0  0  0  0  0  0
   -3.8800   23.3970  -31.5100 O   0  0  0  0  0  0  0  0  0  0  0  0
   -2.7820   22.8860  -30.7620 C   0  0  0  0  0  0  0  0  0  0  0  0
   -7.3070   20.2010  -33.2020 C   0  0  1  0  0  0  0  0  0  0  0  0
   -6.6140   18.8930  -32.8570 C   0  0  0  0  0  0  0  0  0  0  0  0
   -6.7390   18.2920  -31.5870 C   0  0  0  0  0  0  0  0  0  0  0  0
   -6.1120   17.0740  -31.3150 C   0  0  0  0  0  0  0  0  0  0  0  0
   -5.3640   16.4340  -32.3050 C   0  0  0  0  0  0  0  0  0  0  0  0
   -5.2460   17.0090  -33.5720 C   0  0  0  0  0  0  0  0  0  0  0  0
   -5.8720   18.2280  -33.8500 C   0  0  0  0  0  0  0  0  0  0  0  0
   -8.7670   20.0000  -33.2680 N   0  0  0  0  0  0  0  0  0  0  0  0
   -9.3960   20.0130  -31.9400 C   0  0  0  0  0  0  0  0  0  0  0  0
   -9.2290   21.3770  -31.2670 C   0  0  0  0  0  0  0  0  0  0  0  0
   -6.4501   25.7293  -28.3018 H   0  0  0  0  0  0  0  0  0  0  0  0
   -5.8549   26.4737  -29.8244 H   0  0  0  0  0  0  0  0  0  0  0  0
   -7.3814   25.5269  -29.8244 H   0  0  0  0  0  0  0  0  0  0  0  0
   -8.1009   23.3035  -29.7373 H   0  0  0  0  0  0  0  0  0  0  0  0
   -4.8922   21.4410  -33.0795 H   0  0  0  0  0  0  0  0  0  0  0  0
   -2.9933   22.9843  -29.6870 H   0  0  0  0  0  0  0  0  0  0  0  0
   -2.6311   21.8251  -31.0105 H   0  0  0  0  0  0  0  0  0  0  0  0
   -1.8732   23.4537  -31.0105 H   0  0  0  0  0  0  0  0  0  0  0  0
   -6.9653   20.5130  -34.1999 H   0  0  0  0  0  0  0  0  0  0  0  0
   -7.3346   18.7862  -30.8053 H   0  0  0  0  0  0  0  0  0  0  0  0
   -6.2077   16.6180  -30.3186 H   0  0  0  0  0  0  0  0  0  0  0  0
   -4.8677   15.4769  -32.0869 H   0  0  0  0  0  0  0  0  0  0  0  0
   -4.6597   16.5022  -34.3526 H   0  0  0  0  0  0  0  0  0  0  0  0
   -5.7835   18.6705  -34.8532 H   0  0  0  0  0  0  0  0  0  0  0  0
   -9.1890   20.7670  -33.8440 H   0  0  0  0  0  0  0  0  0  0  0  0
  -10.4686   19.7941  -32.0479 H   0  0  0  0  0  0  0  0  0  0  0  0
   -8.9082   19.2514  -31.3139 H   0  0  0  0  0  0  0  0  0  0  0  0
   -9.8711   22.1084  -31.7796 H   0  0  0  0  0  0  0  0  0  0  0  0
   -9.5142   21.2747  -30.2096 H   0  0  0  0  0  0  0  0  0  0  0  0
  1  2  1  0
  2  3  1  0
  3  4  2  0
  4  5  1  0
  5  6  2  0
  6  7  1  0
  7  8  2  0
  8  9  1  0
  9 10  1  0
  6 11  1  0
 11 12  1  0
 12 13  2  0
 13 14  1  0
 14 15  2  0
 15 16  1  0
 16 17  2  0
 11 18  1  0
 18 19  1  0
 19 20  1  0
  8  3  1  0
 17 12  1  0
 20  5  1  0
  1 21  1  0
  1 22  1  0
  1 23  1  0
  4 24  1  0
  7 25  1  0
 10 26  1  0
 10 27  1  0
 10 28  1  0
 11 29  1  6
 13 30  1  0
 14 31  1  0
 15 32  1  0
 16 33  1  0
 17 34  1  0
 18 35  1  0
 19 36  1  0
 19 37  1  0
 20 38  1  0
 20 39  1  0
M  END
>  <UniqueID>  (8) 
8

>  <SMILES>  (8) 
COc1cc2c(cc1OC)[C@@H](c1ccccc1)NCC2

>  <Energy>  (8) 
43.85047061391439

>  <Genealogy>  (8) 
COc1cc2c(cc1OC)[C@@H](c1ccccc1)NCC2 (chirality)
COc1cc2c(cc1OC)[C@@H](c1ccccc1)NCC2 (3D coordinates assigned)
COc1cc2c(cc1OC)[C@@H](c1ccccc1)NCC2 (nonaromatic ring conformer: 43.85047061391439 kcal/mol)

>  <smiles>  (8) 
COc1cc2c(cc1OC)C(c1ccccc1)NCC2

>  <score_type>  (8) 
oracle

>  <origin>  (8) 
adgpu

>  <m_score__min__energy>  (8) 
-7.3099999999999996

>  <m_primary>  (8) 
energy

$$$$
8:0
     RDKit          3D

 37 39  0  0  0  0  0  0  0  0999 V2000
   -3.8490   22.2840  -33.2680 O   0  0  0  0  0  0  0  0  0  0  0  0
   -4.6420   21.4560  -32.7440 C   0  0  0  0  0  0  0  0  0  0  0  0
   -4.1250   20.1280  -32.2890 C   0  0  0  0  0  0  0  0  0  0  0  0
   -5.1330   19.1260  -32.3850 O   0  0  0  0  0  0  0  0  0  0  0  0
   -6.4980   19.3990  -32.2610 C   0  0  0  0  0  0  0  0  0  0  0  0
   -7.3860   18.3300  -32.1060 C   0  0  0  0  0  0  0  0  0  0  0  0
   -8.7570   18.5610  -32.0160 C   0  0  0  0  0  0  0  0  0  0  0  0
   -9.2490   19.8620  -32.1030 C   0  0  0  0  0  0  0  0  0  0  0  0
   -8.3730   20.9390  -32.2660 C   0  0  0  0  0  0  0  0  0  0  0  0
   -6.9750   20.7290  -32.3200 C   0  0  0  0  0  0  0  0  0  0  0  0
   -6.0180   21.8100  -32.4990 N   0  0  0  0  0  0  0  0  0  0  0  0
   -6.3490   23.2410  -32.3470 C   0  0  0  0  0  0  0  0  0  0  0  0
   -6.6550   23.6060  -30.8870 C   0  0  0  0  0  0  0  0  0  0  0  0
   -5.3800   24.6060  -30.1210 S   0  0  0  0  0  0  0  0  0  0  0  0
   -6.0280   25.6100  -29.2110 O   0  0  0  0  0  0  0  0  0  0  0  0
   -4.6340   25.3410  -31.1990 O   0  0  0  0  0  0  0  0  0  0  0  0
   -4.2550   23.6310  -29.1760 C   0  0  0  0  0  0  0  0  0  0  0  0
   -3.6310   24.1760  -28.0430 C   0  0  0  0  0  0  0  0  0  0  0  0
   -2.7540   23.3970  -27.2820 C   0  0  0  0  0  0  0  0  0  0  0  0
   -2.4850   22.0760  -27.6540 C   0  0  0  0  0  0  0  0  0  0  0  0
   -1.3930   21.0970  -26.6930 Cl  0  0  0  0  0  0  0  0  0  0  0  0
   -3.0890   21.5360  -28.7950 C   0  0  0  0  0  0  0  0  0  0  0  0
   -3.9680   22.3120  -29.5570 C   0  0  0  0  0  0  0  0  0  0  0  0
   -3.2706   19.8399  -32.9191 H   0  0  0  0  0  0  0  0  0  0  0  0
   -3.8169   20.2145  -31.2366 H   0  0  0  0  0  0  0  0  0  0  0  0
   -7.0000   17.3012  -32.0549 H   0  0  0  0  0  0  0  0  0  0  0  0
   -9.4498   17.7181  -31.8765 H   0  0  0  0  0  0  0  0  0  0  0  0
  -10.3325   20.0423  -32.0431 H   0  0  0  0  0  0  0  0  0  0  0  0
   -8.7744   21.9594  -32.3531 H   0  0  0  0  0  0  0  0  0  0  0  0
   -5.4950   23.8422  -32.6924 H   0  0  0  0  0  0  0  0  0  0  0  0
   -7.2480   23.4485  -32.9459 H   0  0  0  0  0  0  0  0  0  0  0  0
   -7.6014   24.1660  -30.8586 H   0  0  0  0  0  0  0  0  0  0  0  0
   -6.7121   22.6640  -30.3219 H   0  0  0  0  0  0  0  0  0  0  0  0
   -3.8323   25.2179  -27.7532 H   0  0  0  0  0  0  0  0  0  0  0  0
   -2.2746   23.8241  -26.3888 H   0  0  0  0  0  0  0  0  0  0  0  0
   -2.8720   20.4996  -29.0929 H   0  0  0  0  0  0  0  0  0  0  0  0
   -4.4355   21.8869  -30.4574 H   0  0  0  0  0  0  0  0  0  0  0  0
  1  2  2  0
  2  3  1  0
  3  4  1  0
  4  5  1  0
  5  6  2  0
  6  7  1  0
  7  8  2  0
  8  9  1  0
  9 10  2  0
 10 11  1  0
 11 12  1  0
 12 13  1  0
 13 14  1  0
 14 15  2  0
 14 16  2  0
 14 17  1  0
 17 18  2  0
 18 19  1  0
 19 20  2  0
 20 21  1  0
 20 22  1  0
 22 23  2  0
 11  2  1  0
 23 17  1  0
 10  5  1  0
  3 24  1  0
  3 25  1  0
  6 26  1  0
  7 27  1  0
  8 28  1  0
  9 29  1  0
 12 30  1  0
 12 31  1  0
 13 32  1  0
 13 33  1  0
 18 34  1  0
 19 35  1  0
 22 36  1  0
 23 37  1  0
M  END
>  <UniqueID>  (9) 
9

>  <SMILES>  (9) 
O=C1COc2ccccc2N1CCS(=O)(=O)c1ccc(Cl)cc1

>  <Energy>  (9) 
39.79615345882432

>  <Genealogy>  (9) 
O=C1COc2ccccc2N1CCS(=O)(=O)c1ccc(Cl)cc1 (3D coordinates assigned)
O=C1COc2ccccc2N1CCS(=O)(=O)c1ccc(Cl)cc1 (nonaromatic ring conformer: 39.79615345882432 kcal/mol)

>  <smiles>  (9) 
O=C1COc2ccccc2N1CCS(=O)(=O)c1ccc(Cl)cc1

>  <score_type>  (9) 
oracle

>  <origin>  (9) 
adgpu

>  <m_score__min__energy>  (9) 
-8.6199999999999992

>  <m_primary>  (9) 
energy

$$$$
9:0
     RDKit          3D

 37 39  0  0  0  0  0  0  0  0999 V2000
   -3.4850   26.0200  -31.2130 H   0  0  0  0  0  0  0  0  0  0  0  0
   -3.7410   25.2870  -30.5150 N   0  0  0  0  0  0  0  0  0  0  0  0
   -2.7540   24.7090  -29.6630 C   0  0  0  0  0  0  0  0  0  0  0  0
   -2.0830   25.4600  -28.9060 O   0  0  0  0  0  0  0  0  0  0  0  0
   -2.5200   23.2460  -29.6640 C   0  0  0  0  0  0  0  0  0  0  0  0
   -2.3640   22.5480  -28.4530 C   0  0  0  0  0  0  0  0  0  0  0  0
   -2.4053   23.0939  -27.4989 H   0  0  0  0  0  0  0  0  0  0  0  0
   -2.1570   21.1670  -28.4530 C   0  0  0  0  0  0  0  0  0  0  0  0
   -2.0448   20.6295  -27.4998 H   0  0  0  0  0  0  0  0  0  0  0  0
   -2.0920   20.4660  -29.6590 C   0  0  0  0  0  0  0  0  0  0  0  0
   -1.9407   19.3765  -29.6519 H   0  0  0  0  0  0  0  0  0  0  0  0
   -2.2190   21.1460  -30.8800 C   0  0  0  0  0  0  0  0  0  0  0  0
   -2.1850   20.4130  -32.1640 C   0  0  0  0  0  0  0  0  0  0  0  0
   -3.3540   19.9030  -32.6370 N   0  0  0  0  0  0  0  0  0  0  0  0
   -3.4130   19.1940  -33.7960 C   0  0  0  0  0  0  0  0  0  0  0  0
   -4.5410   18.7290  -34.2470 N   0  0  0  0  0  0  0  0  0  0  0  0
   -5.8240   18.8000  -33.6000 C   0  0  0  0  0  0  0  0  0  0  0  0
   -6.5310   20.0120  -33.4740 C   0  0  0  0  0  0  0  0  0  0  0  0
   -6.1139   20.9374  -33.8980 H   0  0  0  0  0  0  0  0  0  0  0  0
   -7.7620   20.0410  -32.8110 C   0  0  0  0  0  0  0  0  0  0  0  0
   -8.3185   20.9862  -32.7285 H   0  0  0  0  0  0  0  0  0  0  0  0
   -8.2870   18.8720  -32.2530 C   0  0  0  0  0  0  0  0  0  0  0  0
   -9.4800   18.9040  -31.6090 F   0  0  0  0  0  0  0  0  0  0  0  0
   -7.5750   17.6740  -32.3470 C   0  0  0  0  0  0  0  0  0  0  0  0
   -7.9834   16.7556  -31.9001 H   0  0  0  0  0  0  0  0  0  0  0  0
   -6.3430   17.6410  -33.0090 C   0  0  0  0  0  0  0  0  0  0  0  0
   -5.7782   16.6988  -33.0658 H   0  0  0  0  0  0  0  0  0  0  0  0
   -2.2810   18.9990  -34.5170 N   0  0  0  0  0  0  0  0  0  0  0  0
   -1.0880   19.4970  -34.1030 C   0  0  0  0  0  0  0  0  0  0  0  0
   -0.1822   19.3139  -34.6996 H   0  0  0  0  0  0  0  0  0  0  0  0
   -1.0040   20.2430  -32.9200 C   0  0  0  0  0  0  0  0  0  0  0  0
    0.3220   20.8250  -32.5060 C   0  0  0  0  0  0  0  0  0  0  0  0
    0.3838   20.8521  -31.4081 H   0  0  0  0  0  0  0  0  0  0  0  0
    1.1363   20.2016  -32.9038 H   0  0  0  0  0  0  0  0  0  0  0  0
    0.4144   21.8464  -32.9038 H   0  0  0  0  0  0  0  0  0  0  0  0
   -2.4520   22.5320  -30.8760 C   0  0  0  0  0  0  0  0  0  0  0  0
   -2.5826   23.0647  -31.8295 H   0  0  0  0  0  0  0  0  0  0  0  0
  1  2  1  0
  2  3  1  0
  3  4  2  0
  3  5  1  0
  5  6  2  0
  6  7  1  0
  6  8  1  0
  8  9  1  0
  8 10  2  0
 10 11  1  0
 10 12  1  0
 12 13  1  0
 13 14  2  0
 14 15  1  0
 15 16  2  0
 16 17  1  0
 17 18  2  0
 18 19  1  0
 18 20  1  0
 20 21  1  0
 20 22  2  0
 22 23  1  0
 22 24  1  0
 24 25  1  0
 24 26  2  0
 26 27  1  0
 15 28  1  0
 28 29  1  0
 29 30  1  0
 29 31  2  0
 31 32  1  0
 32 33  1  0
 32 34  1  0
 32 35  1  0
 12 36  2  0
 36 37  1  0
 36  5  1  0
 31 13  1  0
 26 17  1  0
M  CHG  2   2  -1  28  -1
M  END
>  <UniqueID>  (10) 
10

>  <SMILES>  (10) 
Cc1c[n-]/c(=N/c2ccc(F)cc2)nc1-c1cccc(C([NH-])=O)c1

>  <Energy>  (10) 
53.4535685417899

>  <Genealogy>  (10) 
Cc1c[n-]c(=Nc2ccc(F)cc2)nc1-c1cccc(C([NH-])=O)c1 (protonated)
Cc1c[n-]/c(=N/c2ccc(F)cc2)nc1-c1cccc(C([NH-])=O)c1 (cis-trans isomerization)
Cc1c[n-]/c(=N/c2ccc(F)cc2)nc1-c1cccc(C([NH-])=O)c1 (3D coordinates assigned)
Cc1c[n-]/c(=N/c2ccc(F)cc2)nc1-c1cccc(C([NH-])=O)c1 (optimized conformer: 53.4535685417899 kcal/mol)

>  <smiles>  (10) 
Cc1c[nH]c(=Nc2ccc(F)cc2)nc1-c1cccc(C(N)=O)c1

>  <score_type>  (10) 
oracle

>  <origin>  (10) 
adgpu

>  <m_score__min__energy>  (10) 
-11.15

>  <m_primary>  (10) 
energy

$$$$
10:0
     RDKit          3D

 23 24  0  0  0  0  0  0  0  0999 V2000
   -4.7490   27.1940  -30.1600 H   0  0  0  0  0  0  0  0  0  0  0  0
   -5.3840   26.4250  -30.4690 N   0  0  0  0  0  0  0  0  0  0  0  0
   -4.9650   25.2070  -30.5830 C   0  0  0  0  0  0  0  0  0  0  0  0
   -3.6750   24.8980  -30.2990 N   0  0  0  0  0  0  0  0  0  0  0  0
   -3.2060   23.6270  -30.4170 C   0  0  0  0  0  0  0  0  0  0  0  0
   -1.8320   23.3700  -30.1140 N   0  0  0  0  0  0  0  0  0  0  0  0
   -1.4900   22.4300  -29.8190 H   0  0  0  0  0  0  0  0  0  0  0  0
   -1.1350   24.1450  -30.1720 H   0  0  0  0  0  0  0  0  0  0  0  0
   -4.0760   22.6020  -30.8430 C   0  0  0  0  0  0  0  0  0  0  0  0
   -3.4230   20.8140  -31.1410 Br  0  0  0  0  0  0  0  0  0  0  0  0
   -5.4190   22.9420  -31.1120 C   0  0  0  0  0  0  0  0  0  0  0  0
   -6.4170   21.9430  -31.5440 C   0  0  0  0  0  0  0  0  0  0  0  0
   -7.6200   21.7720  -30.8360 C   0  0  0  0  0  0  0  0  0  0  0  0
   -7.8148   22.3708  -29.9341 H   0  0  0  0  0  0  0  0  0  0  0  0
   -8.5690   20.8440  -31.2740 C   0  0  0  0  0  0  0  0  0  0  0  0
   -9.5031   20.7057  -30.7098 H   0  0  0  0  0  0  0  0  0  0  0  0
   -8.3330   20.0920  -32.4270 C   0  0  0  0  0  0  0  0  0  0  0  0
   -9.0788   19.3584  -32.7670 H   0  0  0  0  0  0  0  0  0  0  0  0
   -7.1500   20.2710  -33.1490 C   0  0  0  0  0  0  0  0  0  0  0  0
   -6.9677   19.6822  -34.0601 H   0  0  0  0  0  0  0  0  0  0  0  0
   -6.1980   21.1980  -32.7140 C   0  0  0  0  0  0  0  0  0  0  0  0
   -5.2730   21.3444  -33.2910 H   0  0  0  0  0  0  0  0  0  0  0  0
   -5.8210   24.2360  -30.9850 N   0  0  0  0  0  0  0  0  0  0  0  0
  1  2  1  0
  2  3  2  0
  3  4  1  0
  4  5  2  0
  5  6  1  0
  6  7  1  0
  6  8  1  0
  5  9  1  0
  9 10  1  0
  9 11  2  0
 11 12  1  0
 12 13  2  0
 13 14  1  0
 13 15  1  0
 15 16  1  0
 15 17  2  0
 17 18  1  0
 17 19  1  0
 19 20  1  0
 19 21  2  0
 21 22  1  0
 11 23  1  0
 23  3  1  0
 21 12  1  0
M  CHG  1  23  -1
M  END
>  <UniqueID>  (11) 
11

>  <SMILES>  (11) 
[H]/N=c1\nc(N)c(Br)c(-c2ccccc2)[n-]1

>  <Energy>  (11) 
32.24753053823038

>  <Genealogy>  (11) 
N=c1nc(N)c(Br)c(-c2ccccc2)[n-]1 (protonated)
[H]/N=c1\nc(N)c(Br)c(-c2ccccc2)[n-]1 (cis-trans isomerization)
[H]/N=c1\nc(N)c(Br)c(-c2ccccc2)[n-]1 (3D coordinates assigned)
[H]/N=c1\nc(N)c(Br)c(-c2ccccc2)[n-]1 (optimized conformer: 32.24753053823038 kcal/mol)

>  <smiles>  (11) 
N=c1nc(N)c(Br)c(-c2ccccc2)[nH]1

>  <score_type>  (11) 
oracle

>  <origin>  (11) 
adgpu

>  <m_score__min__energy>  (11) 
-7.4400000000000004

>  <m_primary>  (11) 
energy

$$$$
11:0
     RDKit          3D

 34 36  0  0  0  0  0  0  0  0999 V2000
   -0.0885   25.8103  -26.9217 H   0  0  0  0  0  0  0  0  0  0  0  0
   -0.5000   25.0980  -27.6520 C   0  0  0  0  0  0  0  0  0  0  0  0
    0.1190   23.8610  -27.8450 C   0  0  0  0  0  0  0  0  0  0  0  0
    1.0129   23.5968  -27.2610 H   0  0  0  0  0  0  0  0  0  0  0  0
   -0.3960   22.9590  -28.7790 C   0  0  0  0  0  0  0  0  0  0  0  0
    0.2200   21.7700  -28.9850 F   0  0  0  0  0  0  0  0  0  0  0  0
   -1.5400   23.2900  -29.5140 C   0  0  0  0  0  0  0  0  0  0  0  0
   -1.9348   22.5848  -30.2602 H   0  0  0  0  0  0  0  0  0  0  0  0
   -2.1880   24.5230  -29.3020 C   0  0  0  0  0  0  0  0  0  0  0  0
   -3.3430   24.9190  -30.0610 N   0  0  0  0  0  0  0  0  0  0  0  0
   -4.3330   24.1580  -30.4320 C   0  0  0  0  0  0  0  0  0  0  0  0
   -4.4210   22.8590  -30.0340 N   0  0  0  0  0  0  0  0  0  0  0  0
   -5.4450   22.0830  -30.3940 N   0  0  0  0  0  0  0  0  0  0  0  0
   -6.4530   22.5480  -31.1800 C   0  0  0  0  0  0  0  0  0  0  0  0
   -7.5460   21.6790  -31.5130 N   0  0  0  0  0  0  0  0  0  0  0  0
   -7.4490   20.3590  -31.4420 N   0  0  0  0  0  0  0  0  0  0  0  0
   -8.6300   19.8420  -31.8350 C   0  0  0  0  0  0  0  0  0  0  0  0
   -8.8970   18.3790  -31.9590 C   0  0  0  0  0  0  0  0  0  0  0  0
   -8.9781   17.9348  -30.9560 H   0  0  0  0  0  0  0  0  0  0  0  0
   -9.8384   18.2232  -32.5062 H   0  0  0  0  0  0  0  0  0  0  0  0
   -8.0713   17.9007  -32.5062 H   0  0  0  0  0  0  0  0  0  0  0  0
   -9.4940   20.8550  -32.2010 C   0  0  0  0  0  0  0  0  0  0  0  0
  -10.5244   20.7618  -32.5747 H   0  0  0  0  0  0  0  0  0  0  0  0
   -8.7700   22.0110  -31.9910 C   0  0  0  0  0  0  0  0  0  0  0  0
   -9.2550   23.3930  -32.3070 C   0  0  0  0  0  0  0  0  0  0  0  0
   -9.4461   23.9376  -31.3706 H   0  0  0  0  0  0  0  0  0  0  0  0
   -8.4900   23.9254  -32.8912 H   0  0  0  0  0  0  0  0  0  0  0  0
  -10.1849   23.3306  -32.8912 H   0  0  0  0  0  0  0  0  0  0  0  0
   -6.4310   23.8890  -31.5830 C   0  0  0  0  0  0  0  0  0  0  0  0
   -7.2517   24.3005  -32.1889 H   0  0  0  0  0  0  0  0  0  0  0  0
   -5.3600   24.6960  -31.2090 C   0  0  0  0  0  0  0  0  0  0  0  0
   -5.3235   25.7495  -31.5234 H   0  0  0  0  0  0  0  0  0  0  0  0
   -1.6420   25.4320  -28.3860 C   0  0  0  0  0  0  0  0  0  0  0  0
   -2.1150   26.4148  -28.2435 H   0  0  0  0  0  0  0  0  0  0  0  0
  1  2  1  0
  2  3  2  0
  3  4  1  0
  3  5  1  0
  5  6  1  0
  5  7  2  0
  7  8  1  0
  7  9  1  0
  9 10  1  0
 10 11  2  0
 11 12  1  0
 12 13  1  0
 13 14  2  0
 14 15  1  0
 15 16  1  0
 16 17  2  0
 17 18  1  0
 18 19  1  0
 18 20  1  0
 18 21  1  0
 17 22  1  0
 22 23  1  0
 22 24  2  0
 24 25  1  0
 25 26  1  0
 25 27  1  0
 25 28  1  0
 14 29  1  0
 29 30  1  0
 29 31  2  0
 31 32  1  0
  9 33  2  0
 33 34  1  0
 33  2  1  0
 31 11  1  0
 24 15  1  0
M  CHG  1  12  -1
M  END
>  <UniqueID>  (12) 
12

>  <SMILES>  (12) 
Cc1cc(C)n(-c2cc/c(=N/c3cccc(F)c3)[n-]n2)n1

>  <Energy>  (12) 
76.62538836404664

>  <Genealogy>  (12) 
Cc1cc(C)n(-c2ccc(=Nc3cccc(F)c3)[n-]n2)n1 (protonated)
Cc1cc(C)n(-c2cc/c(=N/c3cccc(F)c3)[n-]n2)n1 (cis-trans isomerization)
Cc1cc(C)n(-c2cc/c(=N/c3cccc(F)c3)[n-]n2)n1 (3D coordinates assigned)
Cc1cc(C)n(-c2cc/c(=N/c3cccc(F)c3)[n-]n2)n1 (optimized conformer: 76.62538836404664 kcal/mol)

>  <smiles>  (12) 
Cc1cc(C)n(-c2ccc(=Nc3cccc(F)c3)[nH]n2)n1

>  <score_type>  (12) 
oracle

>  <origin>  (12) 
adgpu

>  <m_score__min__energy>  (12) 
-8.1899999999999995

>  <m_primary>  (12) 
energy

$$$$
12:0
     RDKit          3D

 27 28  0  0  0  0  0  0  0  0999 V2000
   -0.8110   26.9310  -27.8980 C   0  0  0  0  0  0  0  0  0  0  0  0
   -1.2960   26.0880  -28.9370 O   0  0  0  0  0  0  0  0  0  0  0  0
   -1.5700   24.7190  -28.7960 C   0  0  0  0  0  0  0  0  0  0  0  0
   -0.7680   23.8950  -27.9800 C   0  0  0  0  0  0  0  0  0  0  0  0
   -1.0840   22.5470  -27.8020 C   0  0  0  0  0  0  0  0  0  0  0  0
   -2.2030   22.0020  -28.4300 C   0  0  0  0  0  0  0  0  0  0  0  0
   -2.6060   20.3120  -28.1950 Cl  0  0  0  0  0  0  0  0  0  0  0  0
   -3.0010   22.8030  -29.2500 C   0  0  0  0  0  0  0  0  0  0  0  0
   -2.6840   24.1520  -29.4620 C   0  0  0  0  0  0  0  0  0  0  0  0
   -3.5360   24.9000  -30.3450 N   0  0  0  0  0  0  0  0  0  0  0  0
   -5.2560   25.0930  -30.2170 S   0  0  0  0  0  0  0  0  0  0  0  0
   -5.6430   25.0840  -28.7660 O   0  0  0  0  0  0  0  0  0  0  0  0
   -5.6610   26.4050  -30.8270 O   0  0  0  0  0  0  0  0  0  0  0  0
   -6.0810   23.7690  -31.0210 C   0  0  0  0  0  0  0  0  0  0  0  0
   -5.9410   23.4220  -32.3440 C   0  0  0  0  0  0  0  0  0  0  0  0
   -6.7560   22.3830  -32.5790 N   0  0  0  0  0  0  0  0  0  0  0  0
   -7.3650   22.1270  -31.4060 C   0  0  0  0  0  0  0  0  0  0  0  0
   -6.9750   22.9620  -30.4180 N   0  0  0  0  0  0  0  0  0  0  0  0
   -1.0636   26.4919  -26.9216 H   0  0  0  0  0  0  0  0  0  0  0  0
    0.2812   27.0284  -27.9847 H   0  0  0  0  0  0  0  0  0  0  0  0
   -1.2758   27.9242  -27.9847 H   0  0  0  0  0  0  0  0  0  0  0  0
    0.1150   24.3184  -27.4789 H   0  0  0  0  0  0  0  0  0  0  0  0
   -0.4490   21.9137  -27.1651 H   0  0  0  0  0  0  0  0  0  0  0  0
   -3.8884   22.3703  -29.7350 H   0  0  0  0  0  0  0  0  0  0  0  0
   -5.2804   23.9083  -33.0769 H   0  0  0  0  0  0  0  0  0  0  0  0
   -6.8920   21.8810  -33.4850 H   0  0  0  0  0  0  0  0  0  0  0  0
   -8.1024   21.3228  -31.2666 H   0  0  0  0  0  0  0  0  0  0  0  0
  1  2  1  0
  2  3  1  0
  3  4  2  0
  4  5  1  0
  5  6  2  0
  6  7  1  0
  6  8  1  0
  8  9  2  0
  9 10  1  0
 10 11  1  0
 11 12  2  0
 11 13  2  0
 11 14  1  0
 14 15  2  0
 15 16  1  0
 16 17  1  0
 17 18  2  0
  9  3  1  0
 18 14  1  0
  1 19  1  0
  1 20  1  0
  1 21  1  0
  4 22  1  0
  5 23  1  0
  8 24  1  0
 15 25  1  0
 16 26  1  0
 17 27  1  0
M  CHG  1  10  -1
M  END
>  <UniqueID>  (13) 
13

>  <SMILES>  (13) 
COc1ccc(Cl)cc1[N-]S(=O)(=O)c1c[nH]cn1

>  <Energy>  (13) 
61.31333288827671

>  <Genealogy>  (13) 
COc1ccc(Cl)cc1[N-]S(=O)(=O)c1c[nH]cn1 (protonated)
COc1ccc(Cl)cc1[N-]S(=O)(=O)c1c[nH]cn1 (3D coordinates assigned)
COc1ccc(Cl)cc1[N-]S(=O)(=O)c1c[nH]cn1 (optimized conformer: 61.31333288827671 kcal/mol)

>  <smiles>  (13) 
COc1ccc(Cl)cc1NS(=O)(=O)c1c[nH]cn1

>  <score_type>  (13) 
oracle

>  <origin>  (13) 
adgpu

>  <m_score__min__energy>  (13) 
-7.79

>  <m_primary>  (13) 
energy

$$$$
13:0
     RDKit          3D

 33 35  0  0  0  0  0  0  0  0999 V2000
   -9.3620   22.3140  -31.8390 C   0  0  0  0  0  0  0  0  0  0  0  0
   -8.8070   21.5490  -30.8120 C   0  0  0  0  0  0  0  0  0  0  0  0
   -7.5540   21.8800  -30.2870 C   0  0  0  0  0  0  0  0  0  0  0  0
   -6.8350   22.9790  -30.7930 C   0  0  0  0  0  0  0  0  0  0  0  0
   -5.5070   23.3200  -30.2190 C   0  0  0  0  0  0  0  0  0  0  0  0
   -5.0590   22.7800  -29.0050 C   0  0  0  0  0  0  0  0  0  0  0  0
   -3.8070   23.1380  -28.5140 C   0  0  0  0  0  0  0  0  0  0  0  0
   -3.0130   24.0420  -29.2360 C   0  0  0  0  0  0  0  0  0  0  0  0
   -1.7070   24.4480  -28.7710 N   0  0  0  0  0  0  0  0  0  0  0  0
   -0.4930   23.7550  -29.2220 C   0  0  0  0  0  0  0  0  0  0  0  0
    0.6260   23.9090  -28.1880 C   0  0  0  0  0  0  0  0  0  0  0  0
    0.8050   25.2660  -27.8370 O   0  0  0  0  0  0  0  0  0  0  0  0
   -0.3490   25.7390  -27.1710 C   0  0  0  0  0  0  0  0  0  0  0  0
   -1.5530   25.7560  -28.1180 C   0  0  0  0  0  0  0  0  0  0  0  0
   -3.4980   24.5390  -30.4060 N   0  0  0  0  0  0  0  0  0  0  0  0
   -4.6970   24.1950  -30.8770 N   0  0  0  0  0  0  0  0  0  0  0  0
   -7.4110   23.7500  -31.8230 C   0  0  0  0  0  0  0  0  0  0  0  0
   -8.6650   23.4150  -32.3420 C   0  0  0  0  0  0  0  0  0  0  0  0
  -10.3469   22.0502  -32.2517 H   0  0  0  0  0  0  0  0  0  0  0  0
   -9.3569   20.6832  -30.4145 H   0  0  0  0  0  0  0  0  0  0  0  0
   -7.1270   21.2768  -29.4723 H   0  0  0  0  0  0  0  0  0  0  0  0
   -5.6932   22.0777  -28.4442 H   0  0  0  0  0  0  0  0  0  0  0  0
   -3.4423   22.7151  -27.5663 H   0  0  0  0  0  0  0  0  0  0  0  0
   -0.7154   22.6864  -29.3587 H   0  0  0  0  0  0  0  0  0  0  0  0
   -0.1626   24.1975  -30.1733 H   0  0  0  0  0  0  0  0  0  0  0  0
    0.3648   23.3353  -27.2865 H   0  0  0  0  0  0  0  0  0  0  0  0
    1.5626   23.5326  -28.6251 H   0  0  0  0  0  0  0  0  0  0  0  0
   -0.5695   25.0796  -26.3186 H   0  0  0  0  0  0  0  0  0  0  0  0
   -0.1598   26.7647  -26.8216 H   0  0  0  0  0  0  0  0  0  0  0  0
   -2.4631   25.9843  -27.5439 H   0  0  0  0  0  0  0  0  0  0  0  0
   -1.3911   26.5239  -28.8888 H   0  0  0  0  0  0  0  0  0  0  0  0
   -6.8700   24.6212  -32.2210 H   0  0  0  0  0  0  0  0  0  0  0  0
   -9.1041   24.0202  -33.1488 H   0  0  0  0  0  0  0  0  0  0  0  0
  1  2  2  0
  2  3  1  0
  3  4  2  0
  4  5  1  0
  5  6  2  0
  6  7  1  0
  7  8  2  0
  8  9  1  0
  9 10  1  0
 10 11  1  0
 11 12  1  0
 12 13  1  0
 13 14  1  0
  8 15  1  0
 15 16  2  0
  4 17  1  0
 17 18  2  0
 18  1  1  0
 16  5  1  0
 14  9  1  0
  1 19  1  0
  2 20  1  0
  3 21  1  0
  6 22  1  0
  7 23  1  0
 10 24  1  0
 10 25  1  0
 11 26  1  0
 11 27  1  0
 13 28  1  0
 13 29  1  0
 14 30  1  0
 14 31  1  0
 17 32  1  0
 18 33  1  0
M  END
>  <UniqueID>  (14) 
14

>  <SMILES>  (14) 
c1ccc(-c2ccc(N3CCOCC3)nn2)cc1

>  <Energy>  (14) 
43.86635296104691

>  <Genealogy>  (14) 
c1ccc(-c2ccc(N3CCOCC3)nn2)cc1 (3D coordinates assigned)
c1ccc(-c2ccc(N3CCOCC3)nn2)cc1 (nonaromatic ring conformer: 43.86635296104691 kcal/mol)

>  <smiles>  (14) 
c1ccc(-c2ccc(N3CCOCC3)nn2)cc1

>  <score_type>  (14) 
oracle

>  <origin>  (14) 
adgpu

>  <m_score__min__energy>  (14) 
-7.1200000000000001

>  <m_primary>  (14) 
energy

$$$$
14:0
     RDKit          3D

 24 25  0  0  0  0  0  0  0  0999 V2000
   -1.8920   24.4270  -30.0760 H   0  0  0  0  0  0  0  0  0  0  0  0
   -2.7450   24.9080  -29.7120 N   0  0  0  0  0  0  0  0  0  0  0  0
   -3.9300   24.6340  -30.1570 C   0  0  0  0  0  0  0  0  0  0  0  0
   -5.0020   25.2950  -29.6460 N   0  0  0  0  0  0  0  0  0  0  0  0
   -6.2590   25.0450  -30.0940 C   0  0  0  0  0  0  0  0  0  0  0  0
   -7.2340   25.6750  -29.6080 O   0  0  0  0  0  0  0  0  0  0  0  0
   -6.4640   24.0920  -31.0910 C   0  0  0  0  0  0  0  0  0  0  0  0
   -7.4755   23.8884  -31.4723 H   0  0  0  0  0  0  0  0  0  0  0  0
   -5.3590   23.4000  -31.5970 C   0  0  0  0  0  0  0  0  0  0  0  0
   -5.5500   22.4250  -32.6370 N   0  0  0  0  0  0  0  0  0  0  0  0
   -5.0050   22.5410  -33.5210 H   0  0  0  0  0  0  0  0  0  0  0  0
   -6.4500   21.3090  -32.5380 C   0  0  0  0  0  0  0  0  0  0  0  0
   -7.7270   21.4980  -31.9860 C   0  0  0  0  0  0  0  0  0  0  0  0
   -8.0356   22.4999  -31.6530 H   0  0  0  0  0  0  0  0  0  0  0  0
   -8.6080   20.4220  -31.8570 C   0  0  0  0  0  0  0  0  0  0  0  0
   -9.6108   20.5809  -31.4339 H   0  0  0  0  0  0  0  0  0  0  0  0
   -8.2170   19.1430  -32.2650 C   0  0  0  0  0  0  0  0  0  0  0  0
   -8.9144   18.2978  -32.1682 H   0  0  0  0  0  0  0  0  0  0  0  0
   -6.9400   18.9380  -32.7960 C   0  0  0  0  0  0  0  0  0  0  0  0
   -6.4430   17.3300  -33.2880 Cl  0  0  0  0  0  0  0  0  0  0  0  0
   -6.0550   20.0150  -32.9250 C   0  0  0  0  0  0  0  0  0  0  0  0
   -5.0461   19.8490  -33.3308 H   0  0  0  0  0  0  0  0  0  0  0  0
   -4.1100   23.6980  -31.1340 N   0  0  0  0  0  0  0  0  0  0  0  0
   -3.2770   23.2210  -31.5470 H   0  0  0  0  0  0  0  0  0  0  0  0
  1  2  1  0
  2  3  2  0
  3  4  1  0
  4  5  1  0
  5  6  2  0
  5  7  1  0
  7  8  1  0
  7  9  2  0
  9 10  1  0
 10 11  1  0
 10 12  1  0
 12 13  2  0
 13 14  1  0
 13 15  1  0
 15 16  1  0
 15 17  2  0
 17 18  1  0
 17 19  1  0
 19 20  1  0
 19 21  2  0
 21 22  1  0
  9 23  1  0
 23 24  1  0
 23  3  1  0
 21 12  1  0
M  CHG  1   4  -1
M  END
>  <UniqueID>  (15) 
15

>  <SMILES>  (15) 
[H]/N=c1/[n-]c(=O)cc(Nc2cccc(Cl)c2)[nH]1

>  <Energy>  (15) 
30.13041560294917

>  <Genealogy>  (15) 
N=c1[n-]c(=O)cc(Nc2cccc(Cl)c2)[nH]1 (protonated)
[H]/N=c1/[n-]c(=O)cc(Nc2cccc(Cl)c2)[nH]1 (cis-trans isomerization)
[H]/N=c1/[n-]c(=O)cc(Nc2cccc(Cl)c2)[nH]1 (3D coordinates assigned)
[H]/N=c1/[n-]c(=O)cc(Nc2cccc(Cl)c2)[nH]1 (optimized conformer: 30.13041560294917 kcal/mol)

>  <smiles>  (15) 
N=c1[nH]c(Nc2cccc(Cl)c2)cc(=O)[nH]1

>  <score_type>  (15) 
oracle

>  <origin>  (15) 
adgpu

>  <m_score__min__energy>  (15) 
-8.1500000000000004

>  <m_primary>  (15) 
energy

$$$$
15:0
     RDKit          3D

 38 40  0  0  0  0  0  0  0  0999 V2000
   -4.5380   24.3210  -31.1480 O   0  0  0  0  0  0  0  0  0  0  0  0
   -4.8700   23.1390  -31.4320 C   0  0  0  0  0  0  0  0  0  0  0  0
   -3.8450   22.2290  -31.9790 C   0  0  0  0  0  0  0  0  0  0  0  0
   -3.8790   21.6100  -33.2140 C   0  0  0  0  0  0  0  0  0  0  0  0
   -2.7300   20.8450  -33.2800 C   0  0  0  0  0  0  0  0  0  0  0  0
   -2.0510   20.9680  -32.1600 O   0  0  0  0  0  0  0  0  0  0  0  0
   -2.6940   21.7870  -31.3550 C   0  0  0  0  0  0  0  0  0  0  0  0
   -6.2340   22.7140  -31.2310 N   0  0  0  0  0  0  0  0  0  0  0  0
   -7.3110   23.7180  -31.2520 C   0  0  0  0  0  0  0  0  0  0  0  0
   -8.4300   23.3490  -32.2480 C   0  0  0  0  0  0  0  0  0  0  0  0
   -9.5090   22.6620  -31.6410 O   0  0  0  0  0  0  0  0  0  0  0  0
   -9.1000   21.3860  -31.1780 C   0  0  0  0  0  0  0  0  0  0  0  0
   -7.8390   20.8730  -31.9250 C   0  0  2  0  0  0  0  0  0  0  0  0
   -7.9230   19.4480  -32.0340 O   0  0  0  0  0  0  0  0  0  0  0  0
   -7.0930   18.6250  -32.8140 C   0  0  0  0  0  0  0  0  0  0  0  0
   -6.2840   19.2340  -33.7800 C   0  0  0  0  0  0  0  0  0  0  0  0
   -5.4450   18.4680  -34.5910 C   0  0  0  0  0  0  0  0  0  0  0  0
   -5.3960   17.0820  -34.4340 C   0  0  0  0  0  0  0  0  0  0  0  0
   -6.1910   16.4620  -33.4690 C   0  0  0  0  0  0  0  0  0  0  0  0
   -7.0380   17.2250  -32.6590 C   0  0  0  0  0  0  0  0  0  0  0  0
   -6.5130   21.2610  -31.2190 C   0  0  0  0  0  0  0  0  0  0  0  0
   -4.6584   21.7062  -33.9842 H   0  0  0  0  0  0  0  0  0  0  0  0
   -2.4289   20.2270  -34.1387 H   0  0  0  0  0  0  0  0  0  0  0  0
   -2.3668   22.0743  -30.3449 H   0  0  0  0  0  0  0  0  0  0  0  0
   -7.7445   23.7941  -30.2439 H   0  0  0  0  0  0  0  0  0  0  0  0
   -6.8748   24.6756  -31.5726 H   0  0  0  0  0  0  0  0  0  0  0  0
   -8.8147   24.2746  -32.7011 H   0  0  0  0  0  0  0  0  0  0  0  0
   -7.9921   22.6744  -32.9985 H   0  0  0  0  0  0  0  0  0  0  0  0
   -8.8734   21.4538  -30.1037 H   0  0  0  0  0  0  0  0  0  0  0  0
   -9.9193   20.6770  -31.3677 H   0  0  0  0  0  0  0  0  0  0  0  0
   -7.8205   21.3510  -32.9156 H   0  0  0  0  0  0  0  0  0  0  0  0
   -6.3095   20.3270  -33.9014 H   0  0  0  0  0  0  0  0  0  0  0  0
   -4.8220   18.9570  -35.3544 H   0  0  0  0  0  0  0  0  0  0  0  0
   -4.7315   16.4790  -35.0702 H   0  0  0  0  0  0  0  0  0  0  0  0
   -6.1513   15.3697  -33.3451 H   0  0  0  0  0  0  0  0  0  0  0  0
   -7.6625   16.7318  -31.8995 H   0  0  0  0  0  0  0  0  0  0  0  0
   -6.5664   20.9266  -30.1724 H   0  0  0  0  0  0  0  0  0  0  0  0
   -5.6989   20.7735  -31.7753 H   0  0  0  0  0  0  0  0  0  0  0  0
  1  2  2  0
  2  3  1  0
  3  4  1  0
  4  5  2  0
  5  6  1  0
  6  7  1  0
  2  8  1  0
  8  9  1  0
  9 10  1  0
 10 11  1  0
 11 12  1  0
 12 13  1  0
 13 14  1  0
 14 15  1  0
 15 16  2  0
 16 17  1  0
 17 18  2  0
 18 19  1  0
 19 20  2  0
 13 21  1  0
  7  3  2  0
 21  8  1  0
 20 15  1  0
  4 22  1  0
  5 23  1  0
  7 24  1  0
  9 25  1  0
  9 26  1  0
 10 27  1  0
 10 28  1  0
 12 29  1  0
 12 30  1  0
 13 31  1  6
 16 32  1  0
 17 33  1  0
 18 34  1  0
 19 35  1  0
 20 36  1  0
 21 37  1  0
 21 38  1  0
M  END
>  <UniqueID>  (16) 
16

>  <SMILES>  (16) 
O=C(c1ccoc1)N1CCOC[C@H](Oc2ccccc2)C1

>  <Energy>  (16) 
82.17860388866231

>  <Genealogy>  (16) 
O=C(c1ccoc1)N1CCOC[C@H](Oc2ccccc2)C1 (chirality)
O=C(c1ccoc1)N1CCOC[C@H](Oc2ccccc2)C1 (3D coordinates assigned)
O=C(c1ccoc1)N1CCOC[C@H](Oc2ccccc2)C1 (nonaromatic ring conformer: 82.17860388866231 kcal/mol)

>  <smiles>  (16) 
O=C(c1ccoc1)N1CCOCC(Oc2ccccc2)C1

>  <score_type>  (16) 
oracle

>  <origin>  (16) 
adgpu

>  <m_score__min__energy>  (16) 
-5.5300000000000002

>  <m_primary>  (16) 
energy

$$$$
16:0
     RDKit          3D

 36 38  0  0  0  0  0  0  0  0999 V2000
   -5.9110   21.0510  -32.7060 C   0  0  0  0  0  0  0  0  0  0  0  0
   -5.9970   22.3340  -31.9270 C   0  0  0  0  0  0  0  0  0  0  0  0
   -4.8220   23.0150  -31.5660 C   0  0  0  0  0  0  0  0  0  0  0  0
   -4.8860   24.2210  -30.8470 C   0  0  0  0  0  0  0  0  0  0  0  0
   -3.6990   24.9190  -30.4470 N   0  0  0  0  0  0  0  0  0  0  0  0
   -2.8860   24.6030  -29.3120 C   0  0  0  0  0  0  0  0  0  0  0  0
   -3.2990   23.7460  -28.4860 O   0  0  0  0  0  0  0  0  0  0  0  0
   -1.6430   25.2840  -29.0820 N   0  0  0  0  0  0  0  0  0  0  0  0
   -0.7030   24.8350  -28.0970 C   0  0  0  0  0  0  0  0  0  0  0  0
    0.2510   23.8790  -28.4680 C   0  0  0  0  0  0  0  0  0  0  0  0
    1.1700   23.3930  -27.5390 C   0  0  0  0  0  0  0  0  0  0  0  0
    1.1580   23.8640  -26.2250 C   0  0  0  0  0  0  0  0  0  0  0  0
    0.2310   24.8420  -25.8350 C   0  0  0  0  0  0  0  0  0  0  0  0
    0.2350   25.3340  -24.5200 C   0  0  0  0  0  0  0  0  0  0  0  0
   -0.6700   26.3260  -24.1380 C   0  0  0  0  0  0  0  0  0  0  0  0
   -1.5790   26.8410  -25.0640 C   0  0  0  0  0  0  0  0  0  0  0  0
   -1.5960   26.3610  -26.3760 C   0  0  0  0  0  0  0  0  0  0  0  0
   -0.7050   25.3460  -26.7760 C   0  0  0  0  0  0  0  0  0  0  0  0
   -6.1300   24.7150  -30.4440 C   0  0  0  0  0  0  0  0  0  0  0  0
   -7.3030   24.0440  -30.7940 C   0  0  0  0  0  0  0  0  0  0  0  0
   -7.2460   22.8590  -31.5360 C   0  0  0  0  0  0  0  0  0  0  0  0
   -8.7540   22.0490  -31.9490 Cl  0  0  0  0  0  0  0  0  0  0  0  0
   -5.8541   20.2019  -32.0090 H   0  0  0  0  0  0  0  0  0  0  0  0
   -6.8041   20.9461  -33.3395 H   0  0  0  0  0  0  0  0  0  0  0  0
   -5.0119   21.0662  -33.3395 H   0  0  0  0  0  0  0  0  0  0  0  0
   -3.8431   22.6004  -31.8487 H   0  0  0  0  0  0  0  0  0  0  0  0
   -1.3330   26.0280  -29.7460 H   0  0  0  0  0  0  0  0  0  0  0  0
    0.2754   23.5077  -29.5032 H   0  0  0  0  0  0  0  0  0  0  0  0
    1.9074   22.6354  -27.8427 H   0  0  0  0  0  0  0  0  0  0  0  0
    1.8773   23.4672  -25.4935 H   0  0  0  0  0  0  0  0  0  0  0  0
    0.9537   24.9365  -23.7882 H   0  0  0  0  0  0  0  0  0  0  0  0
   -0.6668   26.7029  -23.1046 H   0  0  0  0  0  0  0  0  0  0  0  0
   -2.2847   27.6279  -24.7594 H   0  0  0  0  0  0  0  0  0  0  0  0
   -2.3099   26.7785  -27.1013 H   0  0  0  0  0  0  0  0  0  0  0  0
   -6.1849   25.6377  -29.8477 H   0  0  0  0  0  0  0  0  0  0  0  0
   -8.2778   24.4491  -30.4847 H   0  0  0  0  0  0  0  0  0  0  0  0
  1  2  1  0
  2  3  2  0
  3  4  1  0
  4  5  1  0
  5  6  1  0
  6  7  2  0
  6  8  1  0
  8  9  1  0
  9 10  2  0
 10 11  1  0
 11 12  2  0
 12 13  1  0
 13 14  2  0
 14 15  1  0
 15 16  2  0
 16 17  1  0
 17 18  2  0
  4 19  2  0
 19 20  1  0
 20 21  2  0
 21 22  1  0
 21  2  1  0
 18  9  1  0
 18 13  1  0
  1 23  1  0
  1 24  1  0
  1 25  1  0
  3 26  1  0
  8 27  1  0
 10 28  1  0
 11 29  1  0
 12 30  1  0
 14 31  1  0
 15 32  1  0
 16 33  1  0
 17 34  1  0
 19 35  1  0
 20 36  1  0
M  CHG  1   5  -1
M  END
>  <UniqueID>  (17) 
17

>  <SMILES>  (17) 
Cc1cc([N-]C(=O)Nc2cccc3ccccc23)ccc1Cl

>  <Energy>  (17) 
53.358684888899234

>  <Genealogy>  (17) 
Cc1cc([N-]C(=O)Nc2cccc3ccccc23)ccc1Cl (protonated)
Cc1cc([N-]C(=O)Nc2cccc3ccccc23)ccc1Cl (3D coordinates assigned)
Cc1cc([N-]C(=O)Nc2cccc3ccccc23)ccc1Cl (optimized conformer: 53.358684888899234 kcal/mol)

>  <smiles>  (17) 
Cc1cc(NC(=O)Nc2cccc3ccccc23)ccc1Cl

>  <score_type>  (17) 
oracle

>  <origin>  (17) 
adgpu

>  <m_score__min__energy>  (17) 
-10.08

>  <m_primary>  (17) 
energy

$$$$
17:0
     RDKit          3D

 44 46  0  0  0  0  0  0  0  0999 V2000
   -4.0090   15.5440  -32.8440 C   0  0  0  0  0  0  0  0  0  0  0  0
   -5.0100   16.4950  -32.2730 C   0  0  0  0  0  0  0  0  0  0  0  0
   -5.6960   16.2720  -31.1340 N   0  0  0  0  0  0  0  0  0  0  0  0
   -6.5100   17.2760  -30.9760 O   0  0  0  0  0  0  0  0  0  0  0  0
   -6.3960   18.1430  -31.9570 C   0  0  0  0  0  0  0  0  0  0  0  0
   -7.2060   19.3920  -32.0680 C   0  0  0  0  0  0  0  0  0  0  0  0
   -5.4390   17.6790  -32.8370 C   0  0  0  0  0  0  0  0  0  0  0  0
   -4.8960   18.3950  -34.3530 S   0  0  0  0  0  0  0  0  0  0  0  0
   -4.5900   17.3350  -35.3750 O   0  0  0  0  0  0  0  0  0  0  0  0
   -5.9860   19.2800  -34.8850 O   0  0  0  0  0  0  0  0  0  0  0  0
   -3.4700   19.3430  -34.0700 N   0  0  0  0  0  0  0  0  0  0  0  0
   -3.4250   20.4670  -33.1730 C   0  0  0  0  0  0  0  0  0  0  0  0
   -2.2620   20.6950  -32.4200 C   0  0  0  0  0  0  0  0  0  0  0  0
   -2.1870   21.7770  -31.5380 C   0  0  0  0  0  0  0  0  0  0  0  0
   -3.2750   22.6470  -31.3950 C   0  0  0  0  0  0  0  0  0  0  0  0
   -3.2060   23.7960  -30.4730 C   0  0  0  0  0  0  0  0  0  0  0  0
   -2.6110   23.6610  -29.3700 O   0  0  0  0  0  0  0  0  0  0  0  0
   -3.8360   25.0490  -30.7710 N   0  0  0  0  0  0  0  0  0  0  0  0
   -5.1740   25.4480  -30.3410 C   0  0  0  0  0  0  0  0  0  0  0  0
   -6.1850   24.3910  -30.6890 C   0  0  0  0  0  0  0  0  0  0  0  0
   -6.6320   23.4790  -29.7200 C   0  0  0  0  0  0  0  0  0  0  0  0
   -7.5700   22.5090  -30.0760 C   0  0  0  0  0  0  0  0  0  0  0  0
   -8.0590   22.4590  -31.3820 C   0  0  0  0  0  0  0  0  0  0  0  0
   -7.5880   23.3760  -32.3230 C   0  0  0  0  0  0  0  0  0  0  0  0
   -6.6680   24.3100  -31.9620 N   0  0  0  0  0  0  0  0  0  0  0  0
   -4.4470   22.4120  -32.1270 C   0  0  0  0  0  0  0  0  0  0  0  0
   -4.5200   21.3340  -33.0140 C   0  0  0  0  0  0  0  0  0  0  0  0
   -3.4760   15.0376  -32.0258 H   0  0  0  0  0  0  0  0  0  0  0  0
   -4.5256   14.7960  -33.4633 H   0  0  0  0  0  0  0  0  0  0  0  0
   -3.2884   16.0982  -33.4633 H   0  0  0  0  0  0  0  0  0  0  0  0
   -7.4469   19.7635  -31.0610 H   0  0  0  0  0  0  0  0  0  0  0  0
   -6.6304   20.1551  -32.6124 H   0  0  0  0  0  0  0  0  0  0  0  0
   -8.1375   19.1777  -32.6124 H   0  0  0  0  0  0  0  0  0  0  0  0
   -2.6380   19.1370  -34.6690 H   0  0  0  0  0  0  0  0  0  0  0  0
   -1.4026   20.0165  -32.5250 H   0  0  0  0  0  0  0  0  0  0  0  0
   -1.2701   21.9456  -30.9542 H   0  0  0  0  0  0  0  0  0  0  0  0
   -5.1721   25.6002  -29.2516 H   0  0  0  0  0  0  0  0  0  0  0  0
   -5.4467   26.3799  -30.8578 H   0  0  0  0  0  0  0  0  0  0  0  0
   -6.2469   23.5284  -28.6908 H   0  0  0  0  0  0  0  0  0  0  0  0
   -7.9236   21.7844  -29.3277 H   0  0  0  0  0  0  0  0  0  0  0  0
   -8.8076   21.7050  -31.6668 H   0  0  0  0  0  0  0  0  0  0  0  0
   -7.9612   23.3431  -33.3572 H   0  0  0  0  0  0  0  0  0  0  0  0
   -5.3131   23.0787  -32.0030 H   0  0  0  0  0  0  0  0  0  0  0  0
   -5.4405   21.1630  -33.5914 H   0  0  0  0  0  0  0  0  0  0  0  0
  1  2  1  0
  2  3  2  0
  3  4  1  0
  4  5  1  0
  5  6  1  0
  5  7  2  0
  7  8  1  0
  8  9  2  0
  8 10  2  0
  8 11  1  0
 11 12  1  0
 12 13  2  0
 13 14  1  0
 14 15  2  0
 15 16  1  0
 16 17  2  0
 16 18  1  0
 18 19  1  0
 19 20  1  0
 20 21  2  0
 21 22  1  0
 22 23  2  0
 23 24  1  0
 24 25  2  0
 15 26  1  0
 26 27  2  0
  7  2  1  0
 27 12  1  0
 25 20  1  0
  1 28  1  0
  1 29  1  0
  1 30  1  0
  6 31  1  0
  6 32  1  0
  6 33  1  0
 11 34  1  0
 13 35  1  0
 14 36  1  0
 19 37  1  0
 19 38  1  0
 21 39  1  0
 22 40  1  0
 23 41  1  0
 24 42  1  0
 26 43  1  0
 27 44  1  0
M  CHG  1  18  -1
M  END
>  <UniqueID>  (18) 
18

>  <SMILES>  (18) 
Cc1noc(C)c1S(=O)(=O)Nc1ccc(C(=O)[N-]Cc2ccccn2)cc1

>  <Energy>  (18) 
77.69013796024383

>  <Genealogy>  (18) 
Cc1noc(C)c1S(=O)(=O)Nc1ccc(C(=O)[N-]Cc2ccccn2)cc1 (protonated)
Cc1noc(C)c1S(=O)(=O)Nc1ccc(C(=O)[N-]Cc2ccccn2)cc1 (3D coordinates assigned)
Cc1noc(C)c1S(=O)(=O)Nc1ccc(C(=O)[N-]Cc2ccccn2)cc1 (optimized conformer: 77.69013796024383 kcal/mol)

>  <smiles>  (18) 
Cc1noc(C)c1S(=O)(=O)Nc1ccc(C(=O)NCc2ccccn2)cc1

>  <score_type>  (18) 
oracle

>  <origin>  (18) 
adgpu

>  <m_score__min__energy>  (18) 
-11.220000000000001

>  <m_primary>  (18) 
energy

$$$$
18:0
     RDKit          3D

 43 46  0  0  0  0  0  0  0  0999 V2000
   -3.5420   24.8440  -30.4360 O   0  0  0  0  0  0  0  0  0  0  0  0
   -3.6480   23.6830  -29.9540 C   0  0  0  0  0  0  0  0  0  0  0  0
   -3.5010   23.4730  -28.5420 N   0  0  0  0  0  0  0  0  0  0  0  0
   -3.1720   24.5550  -27.6170 C   0  0  0  0  0  0  0  0  0  0  0  0
   -1.6910   24.8200  -27.6320 C   0  0  0  0  0  0  0  0  0  0  0  0
   -0.8120   23.8670  -28.1680 C   0  0  0  0  0  0  0  0  0  0  0  0
    0.5630   24.1160  -28.1560 C   0  0  0  0  0  0  0  0  0  0  0  0
    1.0420   25.2720  -27.6260 N   0  0  0  0  0  0  0  0  0  0  0  0
    0.2120   26.2110  -27.0970 C   0  0  0  0  0  0  0  0  0  0  0  0
   -1.1690   26.0020  -27.0890 C   0  0  0  0  0  0  0  0  0  0  0  0
   -3.9880   22.5560  -30.8470 C   0  0  0  0  0  0  0  0  0  0  0  0
   -5.3440   22.2440  -31.0280 C   0  0  0  0  0  0  0  0  0  0  0  0
   -5.7200   21.1460  -31.8180 C   0  0  0  0  0  0  0  0  0  0  0  0
   -7.1450   20.7770  -32.0160 C   0  0  0  0  0  0  0  0  0  0  0  0
   -8.1540   21.7280  -31.7690 C   0  0  0  0  0  0  0  0  0  0  0  0
   -9.5000   21.3990  -31.9570 C   0  0  0  0  0  0  0  0  0  0  0  0
   -9.8550   20.1240  -32.4000 C   0  0  0  0  0  0  0  0  0  0  0  0
   -8.8650   19.1760  -32.6620 C   0  0  0  0  0  0  0  0  0  0  0  0
   -7.5170   19.4980  -32.4750 C   0  0  0  0  0  0  0  0  0  0  0  0
   -4.7540   20.4070  -32.4280 N   0  0  0  0  0  0  0  0  0  0  0  0
   -3.4310   20.6860  -32.3020 C   0  0  0  0  0  0  0  0  0  0  0  0
   -2.4930   19.8920  -32.9710 C   0  0  0  0  0  0  0  0  0  0  0  0
   -1.1310   20.1860  -32.8770 C   0  0  0  0  0  0  0  0  0  0  0  0
   -0.7020   21.2800  -32.1250 C   0  0  0  0  0  0  0  0  0  0  0  0
   -1.6290   22.0800  -31.4490 C   0  0  0  0  0  0  0  0  0  0  0  0
   -3.0060   21.7810  -31.5110 C   0  0  0  0  0  0  0  0  0  0  0  0
   -3.6640   22.5180  -28.1490 H   0  0  0  0  0  0  0  0  0  0  0  0
   -3.7073   25.4670  -27.9197 H   0  0  0  0  0  0  0  0  0  0  0  0
   -3.4736   24.2620  -26.6005 H   0  0  0  0  0  0  0  0  0  0  0  0
   -1.2021   22.9310  -28.5944 H   0  0  0  0  0  0  0  0  0  0  0  0
    1.2588   23.3750  -28.5763 H   0  0  0  0  0  0  0  0  0  0  0  0
    0.6294   27.1370  -26.6746 H   0  0  0  0  0  0  0  0  0  0  0  0
   -1.8417   26.7592  -26.6599 H   0  0  0  0  0  0  0  0  0  0  0  0
   -6.1165   22.8630  -30.5484 H   0  0  0  0  0  0  0  0  0  0  0  0
   -7.8813   22.7368  -31.4257 H   0  0  0  0  0  0  0  0  0  0  0  0
  -10.2810   22.1469  -31.7552 H   0  0  0  0  0  0  0  0  0  0  0  0
  -10.9149   19.8664  -32.5426 H   0  0  0  0  0  0  0  0  0  0  0  0
   -9.1456   18.1732  -33.0164 H   0  0  0  0  0  0  0  0  0  0  0  0
   -6.7416   18.7473  -32.6878 H   0  0  0  0  0  0  0  0  0  0  0  0
   -2.8291   19.0344  -33.5723 H   0  0  0  0  0  0  0  0  0  0  0  0
   -0.3955   19.5542  -33.3965 H   0  0  0  0  0  0  0  0  0  0  0  0
    0.3709   21.5146  -32.0634 H   0  0  0  0  0  0  0  0  0  0  0  0
   -1.2826   22.9463  -30.8663 H   0  0  0  0  0  0  0  0  0  0  0  0
  1  2  2  0
  2  3  1  0
  3  4  1  0
  4  5  1  0
  5  6  2  0
  6  7  1  0
  7  8  2  0
  8  9  1  0
  9 10  2  0
  2 11  1  0
 11 12  2  0
 12 13  1  0
 13 14  1  0
 14 15  2  0
 15 16  1  0
 16 17  2  0
 17 18  1  0
 18 19  2  0
 13 20  2  0
 20 21  1  0
 21 22  2  0
 22 23  1  0
 23 24  2  0
 24 25  1  0
 25 26  2  0
 10  5  1  0
 26 11  1  0
 19 14  1  0
 26 21  1  0
  3 27  1  0
  4 28  1  0
  4 29  1  0
  6 30  1  0
  7 31  1  0
  9 32  1  0
 10 33  1  0
 12 34  1  0
 15 35  1  0
 16 36  1  0
 17 37  1  0
 18 38  1  0
 19 39  1  0
 22 40  1  0
 23 41  1  0
 24 42  1  0
 25 43  1  0
M  END
>  <UniqueID>  (19) 
19

>  <SMILES>  (19) 
O=C(NCc1ccncc1)c1cc(-c2ccccc2)nc2ccccc12

>  <Energy>  (19) 
60.460581712322075

>  <Genealogy>  (19) 
O=C(NCc1ccncc1)c1cc(-c2ccccc2)nc2ccccc12 (3D coordinates assigned)
O=C(NCc1ccncc1)c1cc(-c2ccccc2)nc2ccccc12 (optimized conformer: 60.460581712322075 kcal/mol)

>  <smiles>  (19) 
O=C(NCc1ccncc1)c1cc(-c2ccccc2)nc2ccccc12

>  <score_type>  (19) 
oracle

>  <origin>  (19) 
adgpu

>  <m_score__min__energy>  (19) 
-8.8599999999999994

>  <m_primary>  (19) 
energy

$$$$
19:0
     RDKit          3D

 29 30  0  0  0  0  0  0  0  0999 V2000
   -6.1340   25.2320  -29.4650 C   0  0  0  0  0  0  0  0  0  0  0  0
   -4.8330   24.5300  -29.1960 C   0  0  0  0  0  0  0  0  0  0  0  0
   -4.2920   24.5230  -27.8980 C   0  0  0  0  0  0  0  0  0  0  0  0
   -3.0810   23.8800  -27.6430 C   0  0  0  0  0  0  0  0  0  0  0  0
   -2.3970   23.2390  -28.6760 C   0  0  0  0  0  0  0  0  0  0  0  0
   -2.9240   23.2390  -29.9700 C   0  0  0  0  0  0  0  0  0  0  0  0
   -4.1440   23.8880  -30.2440 C   0  0  0  0  0  0  0  0  0  0  0  0
   -4.7040   23.9150  -31.5350 O   0  0  0  0  0  0  0  0  0  0  0  0
   -5.0070   22.7680  -32.3300 C   0  0  0  0  0  0  0  0  0  0  0  0
   -6.4620   22.4010  -32.2040 C   0  0  0  0  0  0  0  0  0  0  0  0
   -7.4340   23.4080  -32.0910 C   0  0  0  0  0  0  0  0  0  0  0  0
   -8.7850   23.0720  -31.9670 C   0  0  0  0  0  0  0  0  0  0  0  0
   -9.1740   21.7300  -31.9480 C   0  0  0  0  0  0  0  0  0  0  0  0
   -8.2120   20.7200  -32.0480 C   0  0  0  0  0  0  0  0  0  0  0  0
   -8.7450   18.8860  -32.0160 Br  0  0  0  0  0  0  0  0  0  0  0  0
   -6.8580   21.0530  -32.1700 C   0  0  0  0  0  0  0  0  0  0  0  0
   -6.6149   25.4915  -28.5103 H   0  0  0  0  0  0  0  0  0  0  0  0
   -5.9433   26.1496  -30.0408 H   0  0  0  0  0  0  0  0  0  0  0  0
   -6.7963   24.5688  -30.0408 H   0  0  0  0  0  0  0  0  0  0  0  0
   -4.8267   25.0273  -27.0796 H   0  0  0  0  0  0  0  0  0  0  0  0
   -2.6643   23.8783  -26.6250 H   0  0  0  0  0  0  0  0  0  0  0  0
   -1.4419   22.7331  -28.4717 H   0  0  0  0  0  0  0  0  0  0  0  0
   -2.3826   22.7288  -30.7803 H   0  0  0  0  0  0  0  0  0  0  0  0
   -4.7805   22.9890  -33.3835 H   0  0  0  0  0  0  0  0  0  0  0  0
   -4.3977   21.9228  -31.9772 H   0  0  0  0  0  0  0  0  0  0  0  0
   -7.1310   24.4654  -32.1001 H   0  0  0  0  0  0  0  0  0  0  0  0
   -9.5429   23.8649  -31.8843 H   0  0  0  0  0  0  0  0  0  0  0  0
  -10.2382   21.4678  -31.8543 H   0  0  0  0  0  0  0  0  0  0  0  0
   -6.1017   20.2573  -32.2395 H   0  0  0  0  0  0  0  0  0  0  0  0
  1  2  1  0
  2  3  2  0
  3  4  1  0
  4  5  2  0
  5  6  1  0
  6  7  2  0
  7  8  1  0
  8  9  1  0
  9 10  1  0
 10 11  2  0
 11 12  1  0
 12 13  2  0
 13 14  1  0
 14 15  1  0
 14 16  2  0
  7  2  1  0
 16 10  1  0
  1 17  1  0
  1 18  1  0
  1 19  1  0
  3 20  1  0
  4 21  1  0
  5 22  1  0
  6 23  1  0
  9 24  1  0
  9 25  1  0
 11 26  1  0
 12 27  1  0
 13 28  1  0
 16 29  1  0
M  END
>  <UniqueID>  (20) 
20

>  <SMILES>  (20) 
Cc1ccccc1OCc1cccc(Br)c1

>  <Energy>  (20) 
28.699569664089655

>  <Genealogy>  (20) 
Cc1ccccc1OCc1cccc(Br)c1 (3D coordinates assigned)
Cc1ccccc1OCc1cccc(Br)c1 (optimized conformer: 28.699569664089655 kcal/mol)

>  <smiles>  (20) 
Cc1ccccc1OCc1cccc(Br)c1

>  <score_type>  (20) 
oracle

>  <origin>  (20) 
adgpu

>  <m_score__min__energy>  (20) 
-7.2199999999999998

>  <m_primary>  (20) 
energy

$$$$
20:0
     RDKit          3D

 35 37  0  0  0  0  0  0  0  0999 V2000
   -7.5030   23.3670  -32.4600 C   0  0  0  0  0  0  0  0  0  0  0  0
   -6.3850   22.5260  -31.9610 N   0  0  0  0  0  0  0  0  0  0  0  0
   -6.4610   21.1750  -32.3000 C   0  0  0  0  0  0  0  0  0  0  0  0
   -7.5600   20.4380  -31.8400 C   0  0  0  0  0  0  0  0  0  0  0  0
   -7.7320   19.0950  -32.1910 C   0  0  0  0  0  0  0  0  0  0  0  0
   -9.1140   18.1950  -31.6020 Cl  0  0  0  0  0  0  0  0  0  0  0  0
   -6.8420   18.4250  -32.9970 C   0  0  0  0  0  0  0  0  0  0  0  0
   -5.7630   19.1380  -33.4540 C   0  0  0  0  0  0  0  0  0  0  0  0
   -4.5940   18.3230  -34.4920 Cl  0  0  0  0  0  0  0  0  0  0  0  0
   -5.5940   20.4770  -33.1050 C   0  0  0  0  0  0  0  0  0  0  0  0
   -5.3810   23.2240  -31.2590 C   0  0  0  0  0  0  0  0  0  0  0  0
   -5.5600   24.3380  -30.4860 C   0  0  0  0  0  0  0  0  0  0  0  0
   -4.5530   24.9240  -29.7220 C   0  0  0  0  0  0  0  0  0  0  0  0
   -3.2940   24.3890  -29.7130 C   0  0  0  0  0  0  0  0  0  0  0  0
   -2.3590   24.9910  -28.9620 N   0  0  0  0  0  0  0  0  0  0  0  0
   -1.1290   24.4490  -28.9700 C   0  0  0  0  0  0  0  0  0  0  0  0
   -0.2060   25.0180  -28.2460 N   0  0  0  0  0  0  0  0  0  0  0  0
   -0.8770   23.3690  -29.6960 N   0  0  0  0  0  0  0  0  0  0  0  0
   -1.8090   22.7370  -30.4690 C   0  0  0  0  0  0  0  0  0  0  0  0
   -1.4090   21.7170  -31.1030 N   0  0  0  0  0  0  0  0  0  0  0  0
   -3.0710   23.2690  -30.4790 C   0  0  0  0  0  0  0  0  0  0  0  0
   -4.0720   22.6950  -31.2310 C   0  0  0  0  0  0  0  0  0  0  0  0
   -8.0574   23.7841  -31.6064 H   0  0  0  0  0  0  0  0  0  0  0  0
   -7.0999   24.1876  -33.0716 H   0  0  0  0  0  0  0  0  0  0  0  0
   -8.1797   22.7521  -33.0716 H   0  0  0  0  0  0  0  0  0  0  0  0
   -8.3021   20.9249  -31.1902 H   0  0  0  0  0  0  0  0  0  0  0  0
   -6.9883   17.3676  -33.2626 H   0  0  0  0  0  0  0  0  0  0  0  0
   -4.7135   21.0064  -33.4978 H   0  0  0  0  0  0  0  0  0  0  0  0
   -6.5586   24.7988  -30.4663 H   0  0  0  0  0  0  0  0  0  0  0  0
   -4.7713   25.8207  -29.1235 H   0  0  0  0  0  0  0  0  0  0  0  0
   -2.5890   25.8440  -28.3980 H   0  0  0  0  0  0  0  0  0  0  0  0
   -0.4460   25.8670  -27.6900 H   0  0  0  0  0  0  0  0  0  0  0  0
    0.1160   22.9940  -29.6560 H   0  0  0  0  0  0  0  0  0  0  0  0
   -2.0150   21.1680  -31.7100 H   0  0  0  0  0  0  0  0  0  0  0  0
   -3.8453   21.7987  -31.8270 H   0  0  0  0  0  0  0  0  0  0  0  0
  1  2  1  0
  2  3  1  0
  3  4  2  0
  4  5  1  0
  5  6  1  0
  5  7  2  0
  7  8  1  0
  8  9  1  0
  8 10  2  0
  2 11  1  0
 11 12  2  0
 12 13  1  0
 13 14  2  0
 14 15  1  0
 15 16  1  0
 16 17  2  3
 16 18  1  0
 18 19  1  0
 19 20  2  3
 19 21  1  0
 21 22  2  0
 10  3  1  0
 22 11  1  0
 21 14  1  0
  1 23  1  0
  1 24  1  0
  1 25  1  0
  4 26  1  0
  7 27  1  0
 10 28  1  0
 12 29  1  0
 13 30  1  0
 15 31  1  0
 17 32  1  0
 18 33  1  0
 20 34  1  0
 22 35  1  0
M  END
>  <smiles>  (21) 
CN(c1cc(Cl)cc(Cl)c1)c1ccc2[nH]c(=N)[nH]c(=N)c2c1

>  <score_type>  (21) 
oracle

>  <origin>  (21) 
adgpu

>  <m_score__min__energy>  (21) 
-8.1500000000000004

>  <m_primary>  (21) 
energy

$$$$
21:0
     RDKit          3D

 47 50  0  0  0  0  0  0  0  0999 V2000
   -8.8660   18.9600  -31.6300 C   0  0  0  0  0  0  0  0  0  0  0  0
   -8.5390   20.4230  -31.6480 C   0  0  0  0  0  0  0  0  0  0  0  0
   -9.5120   21.3610  -32.0240 C   0  0  0  0  0  0  0  0  0  0  0  0
   -9.2190   22.7270  -31.9970 C   0  0  0  0  0  0  0  0  0  0  0  0
   -7.9560   23.1660  -31.5890 C   0  0  0  0  0  0  0  0  0  0  0  0
   -6.9730   22.2400  -31.2140 C   0  0  0  0  0  0  0  0  0  0  0  0
   -5.6510   22.7110  -30.7520 C   0  0  0  0  0  0  0  0  0  0  0  0
   -5.4600   23.6810  -29.7870 C   0  0  0  0  0  0  0  0  0  0  0  0
   -4.0930   23.6860  -29.5730 C   0  0  0  0  0  0  0  0  0  0  0  0
   -3.3450   24.5470  -28.5900 C   0  0  0  0  0  0  0  0  0  0  0  0
   -1.8360   24.3150  -28.7100 C   0  0  0  0  0  0  0  0  0  0  0  0
   -3.8310   24.2860  -27.1620 C   0  0  0  0  0  0  0  0  0  0  0  0
   -3.5000   22.7780  -30.3710 N   0  0  0  0  0  0  0  0  0  0  0  0
   -4.4450   22.1920  -31.0890 N   0  0  0  0  0  0  0  0  0  0  0  0
   -4.1420   21.2320  -32.1110 C   0  0  0  0  0  0  0  0  0  0  0  0
   -4.8190   20.0710  -32.2420 N   0  0  0  0  0  0  0  0  0  0  0  0
   -4.2970   19.2750  -33.2180 C   0  0  0  0  0  0  0  0  0  0  0  0
   -4.8930   17.9500  -33.5360 C   0  0  0  0  0  0  0  0  0  0  0  0
   -4.0910   16.8450  -33.8880 C   0  0  0  0  0  0  0  0  0  0  0  0
   -4.6770   15.6100  -34.1860 C   0  0  0  0  0  0  0  0  0  0  0  0
   -6.0650   15.4620  -34.1410 C   0  0  0  0  0  0  0  0  0  0  0  0
   -6.6280   14.2630  -34.4300 F   0  0  0  0  0  0  0  0  0  0  0  0
   -6.8710   16.5490  -33.8010 C   0  0  0  0  0  0  0  0  0  0  0  0
   -6.2920   17.7860  -33.5020 C   0  0  0  0  0  0  0  0  0  0  0  0
   -3.1660   19.8040  -33.8510 C   0  0  0  0  0  0  0  0  0  0  0  0
   -2.8300   21.2990  -33.1610 S   0  0  0  0  0  0  0  0  0  0  0  0
   -7.2790   20.8690  -31.2190 C   0  0  0  0  0  0  0  0  0  0  0  0
   -8.9433   18.6143  -30.5886 H   0  0  0  0  0  0  0  0  0  0  0  0
   -9.8239   18.7920  -32.1441 H   0  0  0  0  0  0  0  0  0  0  0  0
   -8.0708   18.4002  -32.1441 H   0  0  0  0  0  0  0  0  0  0  0  0
  -10.5086   21.0201  -32.3410 H   0  0  0  0  0  0  0  0  0  0  0  0
   -9.9837   23.4584  -32.2974 H   0  0  0  0  0  0  0  0  0  0  0  0
   -7.7328   24.2428  -31.5622 H   0  0  0  0  0  0  0  0  0  0  0  0
   -6.2217   24.3072  -29.2995 H   0  0  0  0  0  0  0  0  0  0  0  0
   -3.5469   25.6018  -28.8279 H   0  0  0  0  0  0  0  0  0  0  0  0
   -1.3944   24.2471  -27.7048 H   0  0  0  0  0  0  0  0  0  0  0  0
   -1.6513   23.3779  -29.2557 H   0  0  0  0  0  0  0  0  0  0  0  0
   -1.3784   25.1533  -29.2557 H   0  0  0  0  0  0  0  0  0  0  0  0
   -3.0951   24.6812  -26.4463 H   0  0  0  0  0  0  0  0  0  0  0  0
   -4.7985   24.7859  -27.0068 H   0  0  0  0  0  0  0  0  0  0  0  0
   -3.9486   23.2034  -27.0068 H   0  0  0  0  0  0  0  0  0  0  0  0
   -2.9972   16.9547  -33.9286 H   0  0  0  0  0  0  0  0  0  0  0  0
   -4.0426   14.7530  -34.4565 H   0  0  0  0  0  0  0  0  0  0  0  0
   -7.9643   16.4325  -33.7681 H   0  0  0  0  0  0  0  0  0  0  0  0
   -6.9345   18.6389  -33.2378 H   0  0  0  0  0  0  0  0  0  0  0  0
   -2.5959   19.3241  -34.6601 H   0  0  0  0  0  0  0  0  0  0  0  0
   -6.5262   20.1400  -30.8845 H   0  0  0  0  0  0  0  0  0  0  0  0
  1  2  1  0
  2  3  2  0
  3  4  1  0
  4  5  2  0
  5  6  1  0
  6  7  1  0
  7  8  2  0
  8  9  1  0
  9 10  1  0
 10 11  1  0
 10 12  1  0
  9 13  2  0
 13 14  1  0
 14 15  1  0
 15 16  2  0
 16 17  1  0
 17 18  1  0
 18 19  2  0
 19 20  1  0
 20 21  2  0
 21 22  1  0
 21 23  1  0
 23 24  2  0
 17 25  2  0
 25 26  1  0
  6 27  2  0
 27  2  1  0
 14  7  1  0
 26 15  1  0
 24 18  1  0
  1 28  1  0
  1 29  1  0
  1 30  1  0
  3 31  1  0
  4 32  1  0
  5 33  1  0
  8 34  1  0
 10 35  1  0
 11 36  1  0
 11 37  1  0
 11 38  1  0
 12 39  1  0
 12 40  1  0
 12 41  1  0
 19 42  1  0
 20 43  1  0
 23 44  1  0
 24 45  1  0
 25 46  1  0
 27 47  1  0
M  END
>  <UniqueID>  (22) 
21

>  <SMILES>  (22) 
Cc1cccc(-c2cc(C(C)C)nn2-c2nc(-c3ccc(F)cc3)cs2)c1

>  <Energy>  (22) 
115.06859404015293

>  <Genealogy>  (22) 
Cc1cccc(-c2cc(C(C)C)nn2-c2nc(-c3ccc(F)cc3)cs2)c1 (3D coordinates assigned)
Cc1cccc(-c2cc(C(C)C)nn2-c2nc(-c3ccc(F)cc3)cs2)c1 (optimized conformer: 115.06859404015293 kcal/mol)

>  <smiles>  (22) 
Cc1cccc(-c2cc(C(C)C)nn2-c2nc(-c3ccc(F)cc3)cs2)c1

>  <score_type>  (22) 
oracle

>  <origin>  (22) 
adgpu

>  <m_score__min__energy>  (22) 
-9

>  <m_primary>  (22) 
energy

$$$$
22:0
     RDKit          3D

 30 31  0  0  0  0  0  0  0  0999 V2000
   -6.6090   24.2630  -32.3280 O   0  0  0  0  0  0  0  0  0  0  0  0
   -5.7300   24.0670  -31.4460 C   0  0  0  0  0  0  0  0  0  0  0  0
   -5.2910   25.2090  -30.5790 C   0  0  0  0  0  0  0  0  0  0  0  0
   -3.8330   25.2540  -30.4670 N   0  0  0  0  0  0  0  0  0  0  0  0
   -3.2510   24.1080  -29.2930 S   0  0  0  0  0  0  0  0  0  0  0  0
   -2.3100   23.1500  -29.9670 O   0  0  0  0  0  0  0  0  0  0  0  0
   -4.4060   23.3290  -28.7300 O   0  0  0  0  0  0  0  0  0  0  0  0
   -2.3920   24.9190  -27.9940 C   0  0  0  0  0  0  0  0  0  0  0  0
   -2.7470   24.9140  -26.6540 C   0  0  0  0  0  0  0  0  0  0  0  0
   -1.8850   25.6790  -25.8600 C   0  0  0  0  0  0  0  0  0  0  0  0
   -0.8590   26.2840  -26.5750 C   0  0  0  0  0  0  0  0  0  0  0  0
   -1.0230   25.8690  -28.1970 S   0  0  0  0  0  0  0  0  0  0  0  0
   -5.1450   22.7670  -31.2790 N   0  0  0  0  0  0  0  0  0  0  0  0
   -5.5970   21.6190  -32.0140 C   0  0  0  0  0  0  0  0  0  0  0  0
   -4.6940   20.9110  -32.8320 C   0  0  0  0  0  0  0  0  0  0  0  0
   -3.0180   21.4220  -32.9930 Cl  0  0  0  0  0  0  0  0  0  0  0  0
   -5.1280   19.7910  -33.5500 C   0  0  0  0  0  0  0  0  0  0  0  0
   -6.4520   19.3620  -33.4500 C   0  0  0  0  0  0  0  0  0  0  0  0
   -7.3470   20.0420  -32.6230 C   0  0  0  0  0  0  0  0  0  0  0  0
   -6.9280   21.1630  -31.8990 C   0  0  0  0  0  0  0  0  0  0  0  0
   -8.0700   21.9250  -30.7990 Cl  0  0  0  0  0  0  0  0  0  0  0  0
   -5.6469   26.1521  -31.0194 H   0  0  0  0  0  0  0  0  0  0  0  0
   -5.7148   25.0680  -29.5738 H   0  0  0  0  0  0  0  0  0  0  0  0
   -3.6145   24.3666  -26.2567 H   0  0  0  0  0  0  0  0  0  0  0  0
   -2.0082   25.7907  -24.7726 H   0  0  0  0  0  0  0  0  0  0  0  0
   -0.0723   26.9260  -26.1520 H   0  0  0  0  0  0  0  0  0  0  0  0
   -4.2730   22.6790  -30.7100 H   0  0  0  0  0  0  0  0  0  0  0  0
   -4.4229   19.2469  -34.1955 H   0  0  0  0  0  0  0  0  0  0  0  0
   -6.7907   18.4867  -34.0238 H   0  0  0  0  0  0  0  0  0  0  0  0
   -8.3874   19.6946  -32.5401 H   0  0  0  0  0  0  0  0  0  0  0  0
  1  2  2  0
  2  3  1  0
  3  4  1  0
  4  5  1  0
  5  6  2  0
  5  7  2  0
  5  8  1  0
  8  9  2  0
  9 10  1  0
 10 11  2  0
 11 12  1  0
  2 13  1  0
 13 14  1  0
 14 15  2  0
 15 16  1  0
 15 17  1  0
 17 18  2  0
 18 19  1  0
 19 20  2  0
 20 21  1  0
 12  8  1  0
 20 14  1  0
  3 22  1  0
  3 23  1  0
  9 24  1  0
 10 25  1  0
 11 26  1  0
 13 27  1  0
 17 28  1  0
 18 29  1  0
 19 30  1  0
M  CHG  1   4  -1
M  END
>  <UniqueID>  (23) 
22

>  <SMILES>  (23) 
O=C(C[N-]S(=O)(=O)c1cccs1)Nc1c(Cl)cccc1Cl

>  <Energy>  (23) 
60.19263429809267

>  <Genealogy>  (23) 
O=C(C[N-]S(=O)(=O)c1cccs1)Nc1c(Cl)cccc1Cl (protonated)
O=C(C[N-]S(=O)(=O)c1cccs1)Nc1c(Cl)cccc1Cl (3D coordinates assigned)
O=C(C[N-]S(=O)(=O)c1cccs1)Nc1c(Cl)cccc1Cl (optimized conformer: 60.19263429809267 kcal/mol)

>  <smiles>  (23) 
O=C(CNS(=O)(=O)c1cccs1)Nc1c(Cl)cccc1Cl

>  <score_type>  (23) 
oracle

>  <origin>  (23) 
adgpu

>  <m_score__min__energy>  (23) 
-9.6400000000000006

>  <m_primary>  (23) 
energy

$$$$
23:0
     RDKit          3D

 46 49  0  0  0  0  0  0  0  0999 V2000
   -7.1530   23.7920  -32.3030 C   0  0  0  0  0  0  0  0  0  0  0  0
   -5.8050   23.5050  -31.7980 N   0  0  0  0  0  0  0  0  0  0  0  0
   -5.0750   22.4820  -32.3630 C   0  0  0  0  0  0  0  0  0  0  0  0
   -3.7590   22.2020  -31.9340 C   0  0  0  0  0  0  0  0  0  0  0  0
   -2.9570   21.1470  -32.5930 C   0  0  0  0  0  0  0  0  0  0  0  0
   -1.8940   21.5290  -33.4290 C   0  0  0  0  0  0  0  0  0  0  0  0
   -1.1520   20.5660  -34.1220 C   0  0  0  0  0  0  0  0  0  0  0  0
    0.1820   21.0640  -35.1580 S   0  0  0  0  0  0  0  0  0  0  0  0
    1.6620   20.2110  -34.6620 C   0  0  0  0  0  0  0  0  0  0  0  0
    0.3900   22.5470  -35.0370 O   0  0  0  0  0  0  0  0  0  0  0  0
   -0.1290   20.7350  -36.5920 O   0  0  0  0  0  0  0  0  0  0  0  0
   -1.4650   19.2100  -33.9740 C   0  0  0  0  0  0  0  0  0  0  0  0
   -2.5100   18.8180  -33.1360 C   0  0  0  0  0  0  0  0  0  0  0  0
   -3.2440   19.7700  -32.4190 C   0  0  0  0  0  0  0  0  0  0  0  0
   -4.2580   19.3140  -31.5630 O   0  0  0  0  0  0  0  0  0  0  0  0
   -5.6140   19.2190  -31.9110 C   0  0  0  0  0  0  0  0  0  0  0  0
   -6.5590   20.1680  -31.4760 C   0  0  0  0  0  0  0  0  0  0  0  0
   -7.8950   20.0610  -31.8710 C   0  0  0  0  0  0  0  0  0  0  0  0
   -8.3020   19.0020  -32.6850 C   0  0  0  0  0  0  0  0  0  0  0  0
   -9.5980   18.9040  -33.0740 F   0  0  0  0  0  0  0  0  0  0  0  0
   -7.3750   18.0410  -33.0970 C   0  0  0  0  0  0  0  0  0  0  0  0
   -6.0360   18.1440  -32.7050 C   0  0  0  0  0  0  0  0  0  0  0  0
   -5.1410   17.2140  -33.1190 F   0  0  0  0  0  0  0  0  0  0  0  0
   -3.2520   22.9880  -30.8970 C   0  0  0  0  0  0  0  0  0  0  0  0
   -2.0360   22.9610  -30.2400 C   0  0  0  0  0  0  0  0  0  0  0  0
   -2.0990   23.9940  -29.3110 C   0  0  0  0  0  0  0  0  0  0  0  0
   -3.2900   24.6270  -29.3800 N   0  0  0  0  0  0  0  0  0  0  0  0
   -3.9820   24.0010  -30.3480 C   0  0  0  0  0  0  0  0  0  0  0  0
   -5.2710   24.2810  -30.7960 C   0  0  0  0  0  0  0  0  0  0  0  0
   -5.9280   25.2290  -30.2850 O   0  0  0  0  0  0  0  0  0  0  0  0
   -7.8387   23.9380  -31.4554 H   0  0  0  0  0  0  0  0  0  0  0  0
   -7.1282   24.7050  -32.9160 H   0  0  0  0  0  0  0  0  0  0  0  0
   -7.5023   22.9481  -32.9160 H   0  0  0  0  0  0  0  0  0  0  0  0
   -5.5247   21.8734  -33.1614 H   0  0  0  0  0  0  0  0  0  0  0  0
   -1.6430   22.5943  -33.5396 H   0  0  0  0  0  0  0  0  0  0  0  0
    1.7165   20.1796  -33.5638 H   0  0  0  0  0  0  0  0  0  0  0  0
    1.6439   19.1848  -35.0577 H   0  0  0  0  0  0  0  0  0  0  0  0
    2.5408   20.7411  -35.0577 H   0  0  0  0  0  0  0  0  0  0  0  0
   -0.8856   18.4508  -34.5198 H   0  0  0  0  0  0  0  0  0  0  0  0
   -2.7591   17.7511  -33.0381 H   0  0  0  0  0  0  0  0  0  0  0  0
   -6.2446   20.9958  -30.8234 H   0  0  0  0  0  0  0  0  0  0  0  0
   -8.6273   20.8122  -31.5402 H   0  0  0  0  0  0  0  0  0  0  0  0
   -7.6986   17.2021  -33.7306 H   0  0  0  0  0  0  0  0  0  0  0  0
   -1.1979   22.2703  -30.4146 H   0  0  0  0  0  0  0  0  0  0  0  0
   -1.2894   24.2592  -28.6151 H   0  0  0  0  0  0  0  0  0  0  0  0
   -3.6030   25.4350  -28.7970 H   0  0  0  0  0  0  0  0  0  0  0  0
  1  2  1  0
  2  3  1  0
  3  4  2  0
  4  5  1  0
  5  6  2  0
  6  7  1  0
  7  8  1  0
  8  9  1  0
  8 10  2  0
  8 11  2  0
  7 12  2  0
 12 13  1  0
 13 14  2  0
 14 15  1  0
 15 16  1  0
 16 17  2  0
 17 18  1  0
 18 19  2  0
 19 20  1  0
 19 21  1  0
 21 22  2  0
 22 23  1  0
  4 24  1  0
 24 25  1  0
 25 26  2  0
 26 27  1  0
 27 28  1  0
 28 29  1  0
 29 30  2  0
 29  2  1  0
 14  5  1  0
 22 16  1  0
 28 24  2  0
  1 31  1  0
  1 32  1  0
  1 33  1  0
  3 34  1  0
  6 35  1  0
  9 36  1  0
  9 37  1  0
  9 38  1  0
 12 39  1  0
 13 40  1  0
 17 41  1  0
 18 42  1  0
 21 43  1  0
 25 44  1  0
 26 45  1  0
 27 46  1  0
M  END
>  <UniqueID>  (24) 
23

>  <SMILES>  (24) 
Cn1cc(-c2cc(S(C)(=O)=O)ccc2Oc2ccc(F)cc2F)c2cc[nH]c2c1=O

>  <Energy>  (24) 
94.26782568702275

>  <Genealogy>  (24) 
Cn1cc(-c2cc(S(C)(=O)=O)ccc2Oc2ccc(F)cc2F)c2cc[nH]c2c1=O (3D coordinates assigned)
Cn1cc(-c2cc(S(C)(=O)=O)ccc2Oc2ccc(F)cc2F)c2cc[nH]c2c1=O (optimized conformer: 94.26782568702275 kcal/mol)

>  <smiles>  (24) 
Cn1cc(-c2cc(S(C)(=O)=O)ccc2Oc2ccc(F)cc2F)c2cc[nH]c2c1=O

>  <score_type>  (24) 
oracle

>  <origin>  (24) 
adgpu

>  <m_score__min__energy>  (24) 
-9.1799999999999997

>  <m_primary>  (24) 
energy

$$$$
24:0
     RDKit          3D

 42 45  0  0  0  0  0  0  0  0999 V2000
   -4.1840   25.6720  -30.5200 N   0  0  0  0  0  0  0  0  0  0  0  0
   -3.3870   24.4090  -29.6530 S   0  0  0  0  0  0  0  0  0  0  0  0
   -4.1120   24.1510  -28.3610 O   0  0  0  0  0  0  0  0  0  0  0  0
   -1.9790   24.8280  -29.3400 O   0  0  0  0  0  0  0  0  0  0  0  0
   -3.3710   22.9440  -30.6290 C   0  0  0  0  0  0  0  0  0  0  0  0
   -2.1560   22.3900  -31.0510 C   0  0  0  0  0  0  0  0  0  0  0  0
   -2.1430   21.2340  -31.8370 C   0  0  0  0  0  0  0  0  0  0  0  0
   -3.3500   20.6310  -32.2310 C   0  0  0  0  0  0  0  0  0  0  0  0
   -3.3590   19.3990  -33.0460 C   0  0  0  0  0  0  0  0  0  0  0  0
   -2.2730   18.8550  -33.5370 O   0  0  0  0  0  0  0  0  0  0  0  0
   -2.6440   17.8130  -34.2490 C   0  0  0  0  0  0  0  0  0  0  0  0
   -1.7000   16.9390  -34.9720 C   0  0  0  0  0  0  0  0  0  0  0  0
   -0.3250   17.2320  -34.9740 C   0  0  0  0  0  0  0  0  0  0  0  0
    0.5720   16.4070  -35.6580 C   0  0  0  0  0  0  0  0  0  0  0  0
    0.1070   15.2830  -36.3460 C   0  0  0  0  0  0  0  0  0  0  0  0
   -1.2580   14.9840  -36.3510 C   0  0  0  0  0  0  0  0  0  0  0  0
   -2.1590   15.8060  -35.6670 C   0  0  0  0  0  0  0  0  0  0  0  0
   -3.9820   17.6310  -34.2430 N   0  0  0  0  0  0  0  0  0  0  0  0
   -4.4390   18.6350  -33.4670 C   0  0  0  0  0  0  0  0  0  0  0  0
   -5.8620   18.7730  -33.0960 C   0  0  0  0  0  0  0  0  0  0  0  0
   -6.4690   17.7990  -32.2870 C   0  0  0  0  0  0  0  0  0  0  0  0
   -7.8100   17.9280  -31.9120 C   0  0  0  0  0  0  0  0  0  0  0  0
   -8.5510   19.0370  -32.3300 C   0  0  0  0  0  0  0  0  0  0  0  0
   -9.8510   19.1600  -31.9640 F   0  0  0  0  0  0  0  0  0  0  0  0
   -7.9490   20.0230  -33.1160 C   0  0  0  0  0  0  0  0  0  0  0  0
   -6.6080   19.8970  -33.4910 C   0  0  0  0  0  0  0  0  0  0  0  0
   -4.5650   21.1790  -31.7930 C   0  0  0  0  0  0  0  0  0  0  0  0
   -4.5760   22.3350  -31.0050 C   0  0  0  0  0  0  0  0  0  0  0  0
   -3.5060   26.0310  -31.2280 H   0  0  0  0  0  0  0  0  0  0  0  0
   -1.2075   22.8667  -30.7627 H   0  0  0  0  0  0  0  0  0  0  0  0
   -1.1840   20.7944  -32.1485 H   0  0  0  0  0  0  0  0  0  0  0  0
    0.0468   18.1154  -34.4343 H   0  0  0  0  0  0  0  0  0  0  0  0
    1.6464   16.6429  -35.6548 H   0  0  0  0  0  0  0  0  0  0  0  0
    0.8147   14.6343  -36.8830 H   0  0  0  0  0  0  0  0  0  0  0  0
   -1.6244   14.1003  -36.8940 H   0  0  0  0  0  0  0  0  0  0  0  0
   -3.2323   15.5651  -35.6726 H   0  0  0  0  0  0  0  0  0  0  0  0
   -5.8867   16.9301  -31.9465 H   0  0  0  0  0  0  0  0  0  0  0  0
   -8.2823   17.1556  -31.2872 H   0  0  0  0  0  0  0  0  0  0  0  0
   -8.5304   20.8988  -33.4399 H   0  0  0  0  0  0  0  0  0  0  0  0
   -6.1340   20.6819  -34.0986 H   0  0  0  0  0  0  0  0  0  0  0  0
   -5.5141   20.6972  -32.0706 H   0  0  0  0  0  0  0  0  0  0  0  0
   -5.5336   22.7674  -30.6794 H   0  0  0  0  0  0  0  0  0  0  0  0
  1  2  1  0
  2  3  2  0
  2  4  2  0
  2  5  1  0
  5  6  2  0
  6  7  1  0
  7  8  2  0
  8  9  1  0
  9 10  1  0
 10 11  1  0
 11 12  1  0
 12 13  2  0
 13 14  1  0
 14 15  2  0
 15 16  1  0
 16 17  2  0
 11 18  2  0
 18 19  1  0
 19 20  1  0
 20 21  2  0
 21 22  1  0
 22 23  2  0
 23 24  1  0
 23 25  1  0
 25 26  2  0
  8 27  1  0
 27 28  2  0
 28  5  1  0
 19  9  2  0
 26 20  1  0
 17 12  1  0
  1 29  1  0
  6 30  1  0
  7 31  1  0
 13 32  1  0
 14 33  1  0
 15 34  1  0
 16 35  1  0
 17 36  1  0
 21 37  1  0
 22 38  1  0
 25 39  1  0
 26 40  1  0
 27 41  1  0
 28 42  1  0
M  CHG  1   1  -1
M  END
>  <UniqueID>  (25) 
24

>  <SMILES>  (25) 
[NH-]S(=O)(=O)c1ccc(-c2oc(-c3ccccc3)nc2-c2ccc(F)cc2)cc1

>  <Energy>  (25) 
84.03695494538127

>  <Genealogy>  (25) 
[NH-]S(=O)(=O)c1ccc(-c2oc(-c3ccccc3)nc2-c2ccc(F)cc2)cc1 (protonated)
[NH-]S(=O)(=O)c1ccc(-c2oc(-c3ccccc3)nc2-c2ccc(F)cc2)cc1 (3D coordinates assigned)
[NH-]S(=O)(=O)c1ccc(-c2oc(-c3ccccc3)nc2-c2ccc(F)cc2)cc1 (optimized conformer: 84.03695494538127 kcal/mol)

>  <smiles>  (25) 
NS(=O)(=O)c1ccc(-c2oc(-c3ccccc3)nc2-c2ccc(F)cc2)cc1

>  <score_type>  (25) 
oracle

>  <origin>  (25) 
adgpu

>  <m_score__min__energy>  (25) 
-10.69

>  <m_primary>  (25) 
energy

$$$$
25:0
     RDKit          3D

 25 26  0  0  0  0  0  0  0  0999 V2000
   -3.4760   21.4360  -32.8540 C   0  0  0  0  0  0  0  0  0  0  0  0
   -4.1330   22.6100  -32.3880 O   0  0  0  0  0  0  0  0  0  0  0  0
   -5.3780   22.6210  -31.7370 C   0  0  0  0  0  0  0  0  0  0  0  0
   -6.5500   22.1580  -32.3700 C   0  0  0  0  0  0  0  0  0  0  0  0
   -7.7680   22.1510  -31.6850 C   0  0  0  0  0  0  0  0  0  0  0  0
   -7.8330   22.6000  -30.3660 C   0  0  0  0  0  0  0  0  0  0  0  0
   -6.6820   23.0670  -29.7290 C   0  0  0  0  0  0  0  0  0  0  0  0
   -5.4520   23.0920  -30.4080 C   0  0  0  0  0  0  0  0  0  0  0  0
   -4.2470   23.5990  -29.7090 C   0  0  0  0  0  0  0  0  0  0  0  0
   -3.6400   22.8180  -28.7120 C   0  0  0  0  0  0  0  0  0  0  0  0
   -2.5040   23.2860  -28.0490 C   0  0  0  0  0  0  0  0  0  0  0  0
   -1.9850   24.5360  -28.3840 C   0  0  0  0  0  0  0  0  0  0  0  0
   -2.5870   25.2900  -29.3400 N   0  0  0  0  0  0  0  0  0  0  0  0
   -3.6960   24.8620  -30.0020 C   0  0  0  0  0  0  0  0  0  0  0  0
   -4.2280   25.6130  -30.8630 O   0  0  0  0  0  0  0  0  0  0  0  0
   -3.1410   20.8374  -31.9940 H   0  0  0  0  0  0  0  0  0  0  0  0
   -4.1734   20.8431  -33.4640 H   0  0  0  0  0  0  0  0  0  0  0  0
   -2.6059   21.7204  -33.4640 H   0  0  0  0  0  0  0  0  0  0  0  0
   -6.5052   21.8002  -33.4092 H   0  0  0  0  0  0  0  0  0  0  0  0
   -8.6778   21.7905  -32.1873 H   0  0  0  0  0  0  0  0  0  0  0  0
   -8.7920   22.5861  -29.8273 H   0  0  0  0  0  0  0  0  0  0  0  0
   -6.7383   23.4180  -28.6880 H   0  0  0  0  0  0  0  0  0  0  0  0
   -4.0607   21.8352  -28.4529 H   0  0  0  0  0  0  0  0  0  0  0  0
   -2.0235   22.6751  -27.2706 H   0  0  0  0  0  0  0  0  0  0  0  0
   -1.0864   24.9122  -27.8731 H   0  0  0  0  0  0  0  0  0  0  0  0
  1  2  1  0
  2  3  1  0
  3  4  2  0
  4  5  1  0
  5  6  2  0
  6  7  1  0
  7  8  2  0
  8  9  1  0
  9 10  2  0
 10 11  1  0
 11 12  2  0
 12 13  1  0
 13 14  1  0
 14 15  2  0
  8  3  1  0
 14  9  1  0
  1 16  1  0
  1 17  1  0
  1 18  1  0
  4 19  1  0
  5 20  1  0
  6 21  1  0
  7 22  1  0
 10 23  1  0
 11 24  1  0
 12 25  1  0
M  CHG  1  13  -1
M  END
>  <UniqueID>  (26) 
25

>  <SMILES>  (26) 
COc1ccccc1-c1ccc[n-]c1=O

>  <Energy>  (26) 
33.89261950688362

>  <Genealogy>  (26) 
COc1ccccc1-c1ccc[n-]c1=O (protonated)
COc1ccccc1-c1ccc[n-]c1=O (3D coordinates assigned)
COc1ccccc1-c1ccc[n-]c1=O (optimized conformer: 33.89261950688362 kcal/mol)

>  <smiles>  (26) 
COc1ccccc1-c1ccc[nH]c1=O

>  <score_type>  (26) 
oracle

>  <origin>  (26) 
adgpu

>  <m_score__min__energy>  (26) 
-7.8499999999999996

>  <m_primary>  (26) 
energy

$$$$
26:0
     RDKit          3D

 43 46  0  0  0  0  0  0  0  0999 V2000
   -2.8760   21.9610  -30.8510 C   0  0  0  0  0  0  0  0  0  0  0  0
   -2.5910   23.2960  -30.4480 O   0  0  0  0  0  0  0  0  0  0  0  0
   -2.4760   23.7200  -29.1140 C   0  0  0  0  0  0  0  0  0  0  0  0
   -1.2520   23.6550  -28.4180 C   0  0  0  0  0  0  0  0  0  0  0  0
   -1.1820   24.0320  -27.0750 C   0  0  0  0  0  0  0  0  0  0  0  0
   -2.3270   24.4700  -26.4100 C   0  0  0  0  0  0  0  0  0  0  0  0
   -3.5440   24.5460  -27.0890 C   0  0  0  0  0  0  0  0  0  0  0  0
   -3.6240   24.1990  -28.4460 C   0  0  0  0  0  0  0  0  0  0  0  0
   -4.8940   24.2790  -29.1110 N   0  0  0  0  0  0  0  0  0  0  0  0
   -5.0640   24.8690  -30.4090 C   0  0  0  0  0  0  0  0  0  0  0  0
   -4.2010   25.6710  -30.8570 O   0  0  0  0  0  0  0  0  0  0  0  0
   -6.2490   24.6240  -31.1740 N   0  0  0  0  0  0  0  0  0  0  0  0
   -6.7740   23.3300  -31.5020 C   0  0  0  0  0  0  0  0  0  0  0  0
   -8.1260   23.0670  -31.2600 C   0  0  0  0  0  0  0  0  0  0  0  0
   -8.6720   21.8240  -31.5880 C   0  0  0  0  0  0  0  0  0  0  0  0
   -7.8740   20.8400  -32.1760 C   0  0  0  0  0  0  0  0  0  0  0  0
   -6.5200   21.0930  -32.4520 C   0  0  0  0  0  0  0  0  0  0  0  0
   -5.6750   20.0590  -33.0900 C   0  0  0  0  0  0  0  0  0  0  0  0
   -4.3160   20.0640  -33.0140 N   0  0  0  0  0  0  0  0  0  0  0  0
   -3.9780   18.9720  -33.7130 C   0  0  0  0  0  0  0  0  0  0  0  0
   -2.6970   18.4840  -33.9660 C   0  0  0  0  0  0  0  0  0  0  0  0
   -2.5870   17.3080  -34.7320 C   0  0  0  0  0  0  0  0  0  0  0  0
   -3.7460   16.6610  -35.2200 C   0  0  0  0  0  0  0  0  0  0  0  0
   -5.0240   17.1860  -34.9430 C   0  0  0  0  0  0  0  0  0  0  0  0
   -5.0930   18.3500  -34.1820 C   0  0  0  0  0  0  0  0  0  0  0  0
   -6.1890   19.0180  -33.8010 N   0  0  0  0  0  0  0  0  0  0  0  0
   -5.9780   22.3490  -32.1210 C   0  0  0  0  0  0  0  0  0  0  0  0
   -3.0107   21.3299  -29.9602 H   0  0  0  0  0  0  0  0  0  0  0  0
   -3.7971   21.9482  -31.4521 H   0  0  0  0  0  0  0  0  0  0  0  0
   -2.0404   21.5732  -31.4521 H   0  0  0  0  0  0  0  0  0  0  0  0
   -0.3466   23.3053  -28.9356 H   0  0  0  0  0  0  0  0  0  0  0  0
   -0.2217   23.9834  -26.5406 H   0  0  0  0  0  0  0  0  0  0  0  0
   -2.2708   24.7558  -25.3493 H   0  0  0  0  0  0  0  0  0  0  0  0
   -4.4466   24.8803  -26.5565 H   0  0  0  0  0  0  0  0  0  0  0  0
   -5.7520   24.0180  -28.5750 H   0  0  0  0  0  0  0  0  0  0  0  0
   -8.7624   23.8427  -30.8092 H   0  0  0  0  0  0  0  0  0  0  0  0
   -9.7331   21.6195  -31.3827 H   0  0  0  0  0  0  0  0  0  0  0  0
   -8.3086   19.8605  -32.4246 H   0  0  0  0  0  0  0  0  0  0  0  0
   -1.8045   18.9991  -33.5811 H   0  0  0  0  0  0  0  0  0  0  0  0
   -1.5937   16.8899  -34.9523 H   0  0  0  0  0  0  0  0  0  0  0  0
   -3.6494   15.7433  -35.8188 H   0  0  0  0  0  0  0  0  0  0  0  0
   -5.9348   16.6938  -35.3148 H   0  0  0  0  0  0  0  0  0  0  0  0
   -4.9237   22.5653  -32.3481 H   0  0  0  0  0  0  0  0  0  0  0  0
  1  2  1  0
  2  3  1  0
  3  4  2  0
  4  5  1  0
  5  6  2  0
  6  7  1  0
  7  8  2  0
  8  9  1  0
  9 10  1  0
 10 11  2  0
 10 12  1  0
 12 13  1  0
 13 14  2  0
 14 15  1  0
 15 16  2  0
 16 17  1  0
 17 18  1  0
 18 19  2  0
 19 20  1  0
 20 21  2  0
 21 22  1  0
 22 23  2  0
 23 24  1  0
 24 25  2  0
 25 26  1  0
 17 27  2  0
  8  3  1  0
 27 13  1  0
 26 18  1  0
 25 20  1  0
  1 28  1  0
  1 29  1  0
  1 30  1  0
  4 31  1  0
  5 32  1  0
  6 33  1  0
  7 34  1  0
  9 35  1  0
 14 36  1  0
 15 37  1  0
 16 38  1  0
 21 39  1  0
 22 40  1  0
 23 41  1  0
 24 42  1  0
 27 43  1  0
M  CHG  2  12  -1  26  -1
M  END
>  <UniqueID>  (27) 
26

>  <SMILES>  (27) 
COc1ccccc1NC(=O)[N-]c1cccc(-c2nc3ccccc3[n-]2)c1

>  <Energy>  (27) 
90.38124312866209

>  <Genealogy>  (27) 
COc1ccccc1NC(=O)[N-]c1cccc(-c2nc3ccccc3[n-]2)c1 (protonated)
COc1ccccc1NC(=O)[N-]c1cccc(-c2nc3ccccc3[n-]2)c1 (3D coordinates assigned)
COc1ccccc1NC(=O)[N-]c1cccc(-c2nc3ccccc3[n-]2)c1 (optimized conformer: 90.38124312866209 kcal/mol)

>  <smiles>  (27) 
COc1ccccc1NC(=O)Nc1cccc(-c2nc3ccccc3[nH]2)c1

>  <score_type>  (27) 
oracle

>  <origin>  (27) 
adgpu

>  <m_score__min__energy>  (27) 
-11.08

>  <m_primary>  (27) 
energy

$$$$
27:0
     RDKit          3D

 43 45  0  0  0  0  0  0  0  0999 V2000
   -2.3160   19.5880  -26.7940 C   0  0  0  0  0  0  0  0  0  0  0  0
   -0.7830   20.2810  -27.4870 S   0  0  0  0  0  0  0  0  0  0  0  0
   -1.6320   21.5950  -28.3640 C   0  0  0  0  0  0  0  0  0  0  0  0
   -2.7310   21.2970  -29.1790 C   0  0  0  0  0  0  0  0  0  0  0  0
   -3.3920   22.3210  -29.8630 C   0  0  0  0  0  0  0  0  0  0  0  0
   -2.9610   23.6490  -29.7460 C   0  0  0  0  0  0  0  0  0  0  0  0
   -3.6760   24.6670  -30.4590 N   0  0  0  0  0  0  0  0  0  0  0  0
   -5.3790   24.9740  -30.3250 S   0  0  0  0  0  0  0  0  0  0  0  0
   -5.7320   26.1510  -31.1880 O   0  0  0  0  0  0  0  0  0  0  0  0
   -5.7060   25.2970  -28.8930 O   0  0  0  0  0  0  0  0  0  0  0  0
   -6.2990   23.5740  -30.8670 C   0  0  0  0  0  0  0  0  0  0  0  0
   -7.2990   23.0320  -30.0530 C   0  0  0  0  0  0  0  0  0  0  0  0
   -8.0260   21.9160  -30.4780 C   0  0  0  0  0  0  0  0  0  0  0  0
   -7.7620   21.3250  -31.7270 C   0  0  0  0  0  0  0  0  0  0  0  0
   -8.5330   20.1420  -32.1780 C   0  0  0  0  0  0  0  0  0  0  0  0
   -9.6680   20.2950  -32.7060 O   0  0  0  0  0  0  0  0  0  0  0  0
   -8.0110   18.8220  -31.9660 N   0  0  0  0  0  0  0  0  0  0  0  0
   -6.8860   18.2300  -32.6310 C   0  0  0  0  0  0  0  0  0  0  0  0
   -6.4670   18.7710  -33.8530 C   0  0  0  0  0  0  0  0  0  0  0  0
   -5.3930   18.2040  -34.5490 C   0  0  0  0  0  0  0  0  0  0  0  0
   -4.7420   17.0800  -34.0350 C   0  0  0  0  0  0  0  0  0  0  0  0
   -5.1670   16.5190  -32.8270 C   0  0  0  0  0  0  0  0  0  0  0  0
   -6.2380   17.0840  -32.1280 C   0  0  0  0  0  0  0  0  0  0  0  0
   -6.7600   21.8810  -32.5430 C   0  0  0  0  0  0  0  0  0  0  0  0
   -6.0360   22.9980  -32.1160 C   0  0  0  0  0  0  0  0  0  0  0  0
   -1.8490   23.9410  -28.9340 C   0  0  0  0  0  0  0  0  0  0  0  0
   -1.1880   22.9160  -28.2490 C   0  0  0  0  0  0  0  0  0  0  0  0
   -2.2650   19.6111  -25.6954 H   0  0  0  0  0  0  0  0  0  0  0  0
   -3.1749   20.1854  -27.1338 H   0  0  0  0  0  0  0  0  0  0  0  0
   -2.4349   18.5486  -27.1338 H   0  0  0  0  0  0  0  0  0  0  0  0
   -3.0741   20.2569  -29.2809 H   0  0  0  0  0  0  0  0  0  0  0  0
   -4.2577   22.0824  -30.4984 H   0  0  0  0  0  0  0  0  0  0  0  0
   -7.5143   23.4857  -29.0743 H   0  0  0  0  0  0  0  0  0  0  0  0
   -8.8105   21.4968  -29.8308 H   0  0  0  0  0  0  0  0  0  0  0  0
   -6.9855   19.6476  -34.2687 H   0  0  0  0  0  0  0  0  0  0  0  0
   -5.0615   18.6438  -35.5012 H   0  0  0  0  0  0  0  0  0  0  0  0
   -3.8957   16.6367  -34.5802 H   0  0  0  0  0  0  0  0  0  0  0  0
   -4.6574   15.6307  -32.4254 H   0  0  0  0  0  0  0  0  0  0  0  0
   -6.5756   16.6330  -31.1832 H   0  0  0  0  0  0  0  0  0  0  0  0
   -6.5446   21.4334  -33.5245 H   0  0  0  0  0  0  0  0  0  0  0  0
   -5.2567   23.4261  -32.7636 H   0  0  0  0  0  0  0  0  0  0  0  0
   -1.4984   24.9792  -28.8377 H   0  0  0  0  0  0  0  0  0  0  0  0
   -0.3173   23.1496  -27.6187 H   0  0  0  0  0  0  0  0  0  0  0  0
  1  2  1  0
  2  3  1  0
  3  4  2  0
  4  5  1  0
  5  6  2  0
  6  7  1  0
  7  8  1  0
  8  9  2  0
  8 10  2  0
  8 11  1  0
 11 12  2  0
 12 13  1  0
 13 14  2  0
 14 15  1  0
 15 16  2  0
 15 17  1  0
 17 18  1  0
 18 19  2  0
 19 20  1  0
 20 21  2  0
 21 22  1  0
 22 23  2  0
 14 24  1  0
 24 25  2  0
  6 26  1  0
 26 27  2  0
 27  3  1  0
 25 11  1  0
 23 18  1  0
  1 28  1  0
  1 29  1  0
  1 30  1  0
  4 31  1  0
  5 32  1  0
 12 33  1  0
 13 34  1  0
 19 35  1  0
 20 36  1  0
 21 37  1  0
 22 38  1  0
 23 39  1  0
 24 40  1  0
 25 41  1  0
 26 42  1  0
 27 43  1  0
M  CHG  2   7  -1  17  -1
M  END
>  <UniqueID>  (28) 
27

>  <SMILES>  (28) 
CSc1ccc([N-]S(=O)(=O)c2ccc(C(=O)[N-]c3ccccc3)cc2)cc1

>  <Energy>  (28) 
48.772161687000356

>  <Genealogy>  (28) 
CSc1ccc([N-]S(=O)(=O)c2ccc(C(=O)[N-]c3ccccc3)cc2)cc1 (protonated)
CSc1ccc([N-]S(=O)(=O)c2ccc(C(=O)[N-]c3ccccc3)cc2)cc1 (3D coordinates assigned)
CSc1ccc([N-]S(=O)(=O)c2ccc(C(=O)[N-]c3ccccc3)cc2)cc1 (optimized conformer: 48.772161687000356 kcal/mol)

>  <smiles>  (28) 
CSc1ccc(NS(=O)(=O)c2ccc(C(=O)Nc3ccccc3)cc2)cc1

>  <score_type>  (28) 
oracle

>  <origin>  (28) 
adgpu

>  <m_score__min__energy>  (28) 
-11.01

>  <m_primary>  (28) 
energy

$$$$
28:0
     RDKit          3D

 43 44  0  0  0  0  0  0  0  0999 V2000
    0.4060   19.3210  -27.8210 C   0  0  0  0  0  0  0  0  0  0  0  0
    0.7200   20.4370  -28.6480 O   0  0  0  0  0  0  0  0  0  0  0  0
   -0.1180   21.5460  -28.8390 C   0  0  0  0  0  0  0  0  0  0  0  0
   -0.3230   22.5100  -27.8330 C   0  0  0  0  0  0  0  0  0  0  0  0
   -1.1690   23.5970  -28.0600 C   0  0  0  0  0  0  0  0  0  0  0  0
   -1.8380   23.7350  -29.2780 C   0  0  0  0  0  0  0  0  0  0  0  0
   -2.6840   24.8780  -29.4710 N   0  0  0  0  0  0  0  0  0  0  0  0
   -3.9790   24.8860  -30.0870 C   0  0  0  0  0  0  0  0  0  0  0  0
   -4.2390   25.6910  -31.0220 O   0  0  0  0  0  0  0  0  0  0  0  0
   -5.0120   23.8900  -29.6230 C   0  0  1  0  0  0  0  0  0  0  0  0
   -6.4610   24.3690  -29.8110 C   0  0  0  0  0  0  0  0  0  0  0  0
   -4.7790   22.5610  -30.2110 N   0  0  0  0  0  0  0  0  0  0  0  0
   -5.2120   22.4290  -31.8980 S   0  0  0  0  0  0  0  0  0  0  0  0
   -5.5510   23.7790  -32.4700 O   0  0  0  0  0  0  0  0  0  0  0  0
   -4.0460   21.8650  -32.6560 O   0  0  0  0  0  0  0  0  0  0  0  0
   -6.5800   21.3340  -32.0780 C   0  0  0  0  0  0  0  0  0  0  0  0
   -6.3610   20.0100  -32.4840 C   0  0  0  0  0  0  0  0  0  0  0  0
   -7.4390   19.1290  -32.6220 C   0  0  0  0  0  0  0  0  0  0  0  0
   -8.7400   19.5680  -32.3590 C   0  0  0  0  0  0  0  0  0  0  0  0
   -9.7840   18.7150  -32.4920 F   0  0  0  0  0  0  0  0  0  0  0  0
   -8.9630   20.8900  -31.9590 C   0  0  0  0  0  0  0  0  0  0  0  0
   -7.8870   21.7720  -31.8200 C   0  0  0  0  0  0  0  0  0  0  0  0
   -1.6180   22.7900  -30.2950 C   0  0  0  0  0  0  0  0  0  0  0  0
   -0.7650   21.6890  -30.0770 C   0  0  0  0  0  0  0  0  0  0  0  0
   -0.5300   20.7210  -31.0650 O   0  0  0  0  0  0  0  0  0  0  0  0
   -1.1300   20.7220  -32.3570 C   0  0  0  0  0  0  0  0  0  0  0  0
    0.4883   19.6134  -26.7638 H   0  0  0  0  0  0  0  0  0  0  0  0
   -0.6210   18.9870  -28.0302 H   0  0  0  0  0  0  0  0  0  0  0  0
    1.1082   18.5005  -28.0302 H   0  0  0  0  0  0  0  0  0  0  0  0
    0.1861   22.4059  -26.8635 H   0  0  0  0  0  0  0  0  0  0  0  0
   -1.3099   24.3517  -27.2723 H   0  0  0  0  0  0  0  0  0  0  0  0
   -4.8820   23.7995  -28.5345 H   0  0  0  0  0  0  0  0  0  0  0  0
   -6.9269   24.5230  -28.8265 H   0  0  0  0  0  0  0  0  0  0  0  0
   -6.4644   25.3161  -30.3705 H   0  0  0  0  0  0  0  0  0  0  0  0
   -7.0282   23.6106  -30.3705 H   0  0  0  0  0  0  0  0  0  0  0  0
   -5.3387   19.6629  -32.6946 H   0  0  0  0  0  0  0  0  0  0  0  0
   -7.2628   18.0901  -32.9377 H   0  0  0  0  0  0  0  0  0  0  0  0
   -9.9867   21.2361  -31.7535 H   0  0  0  0  0  0  0  0  0  0  0  0
   -8.0660   22.8114  -31.5077 H   0  0  0  0  0  0  0  0  0  0  0  0
   -2.1154   22.9105  -31.2687 H   0  0  0  0  0  0  0  0  0  0  0  0
   -2.2250   20.7238  -32.2527 H   0  0  0  0  0  0  0  0  0  0  0  0
   -0.8126   21.6196  -32.9080 H   0  0  0  0  0  0  0  0  0  0  0  0
   -0.8156   19.8233  -32.9080 H   0  0  0  0  0  0  0  0  0  0  0  0
  1  2  1  0
  2  3  1  0
  3  4  2  0
  4  5  1  0
  5  6  2  0
  6  7  1  0
  7  8  1  0
  8  9  2  0
  8 10  1  0
 10 11  1  0
 10 12  1  0
 12 13  1  0
 13 14  2  0
 13 15  2  0
 13 16  1  0
 16 17  2  0
 17 18  1  0
 18 19  2  0
 19 20  1  0
 19 21  1  0
 21 22  2  0
  6 23  1  0
 23 24  2  0
 24 25  1  0
 25 26  1  0
 24  3  1  0
 22 16  1  0
  1 27  1  0
  1 28  1  0
  1 29  1  0
  4 30  1  0
  5 31  1  0
 10 32  1  1
 11 33  1  0
 11 34  1  0
 11 35  1  0
 17 36  1  0
 18 37  1  0
 21 38  1  0
 22 39  1  0
 23 40  1  0
 26 41  1  0
 26 42  1  0
 26 43  1  0
M  CHG  2   7  -1  12  -1
M  END
>  <UniqueID>  (29) 
28

>  <SMILES>  (29) 
COc1ccc([N-]C(=O)[C@@H](C)[N-]S(=O)(=O)c2ccc(F)cc2)cc1OC

>  <Energy>  (29) 
46.9282257138943

>  <Genealogy>  (29) 
COc1ccc([N-]C(=O)C(C)[N-]S(=O)(=O)c2ccc(F)cc2)cc1OC (protonated)
COc1ccc([N-]C(=O)[C@@H](C)[N-]S(=O)(=O)c2ccc(F)cc2)cc1OC (chirality)
COc1ccc([N-]C(=O)[C@@H](C)[N-]S(=O)(=O)c2ccc(F)cc2)cc1OC (3D coordinates assigned)
COc1ccc([N-]C(=O)[C@@H](C)[N-]S(=O)(=O)c2ccc(F)cc2)cc1OC (optimized conformer: 46.9282257138943 kcal/mol)

>  <smiles>  (29) 
COc1ccc(NC(=O)C(C)NS(=O)(=O)c2ccc(F)cc2)cc1OC

>  <score_type>  (29) 
oracle

>  <origin>  (29) 
adgpu

>  <m_score__min__energy>  (29) 
-9.9399999999999995

>  <m_primary>  (29) 
energy

$$$$
29:0
     RDKit          3D

 48 51  0  0  0  0  0  0  0  0999 V2000
   -2.6060   18.7660  -33.5310 C   0  0  0  0  0  0  0  0  0  0  0  0
   -3.2630   19.9300  -32.8510 C   0  0  0  0  0  0  0  0  0  0  0  0
   -3.2310   21.2040  -33.4380 C   0  0  0  0  0  0  0  0  0  0  0  0
   -3.8650   22.2820  -32.8160 C   0  0  0  0  0  0  0  0  0  0  0  0
   -4.5450   22.1000  -31.6030 C   0  0  0  0  0  0  0  0  0  0  0  0
   -5.1980   23.2090  -30.9630 N   0  0  0  0  0  0  0  0  0  0  0  0
   -6.3980   23.7600  -31.2500 C   0  0  0  0  0  0  0  0  0  0  0  0
   -7.3010   23.3540  -32.3820 C   0  0  0  0  0  0  0  0  0  0  0  0
   -7.7050   21.9080  -32.2600 C   0  0  0  0  0  0  0  0  0  0  0  0
   -8.7030   21.5190  -31.3510 C   0  0  0  0  0  0  0  0  0  0  0  0
   -9.0480   20.1710  -31.2150 C   0  0  0  0  0  0  0  0  0  0  0  0
   -8.4080   19.2020  -31.9930 C   0  0  0  0  0  0  0  0  0  0  0  0
   -8.7430   17.8950  -31.8600 F   0  0  0  0  0  0  0  0  0  0  0  0
   -7.4240   19.5820  -32.9110 C   0  0  0  0  0  0  0  0  0  0  0  0
   -7.0730   20.9280  -33.0470 C   0  0  0  0  0  0  0  0  0  0  0  0
   -6.6450   24.8270  -30.4630 N   0  0  0  0  0  0  0  0  0  0  0  0
   -5.6010   24.9700  -29.6600 N   0  0  0  0  0  0  0  0  0  0  0  0
   -4.7300   23.9930  -29.9710 C   0  0  0  0  0  0  0  0  0  0  0  0
   -3.1310   23.8120  -29.1710 S   0  0  0  0  0  0  0  0  0  0  0  0
   -3.6550   22.4570  -28.0640 C   0  0  0  0  0  0  0  0  0  0  0  0
   -2.6850   21.3080  -28.1150 C   0  0  0  0  0  0  0  0  0  0  0  0
   -2.6560   20.3540  -27.0870 C   0  0  0  0  0  0  0  0  0  0  0  0
   -1.7410   19.2990  -27.1290 C   0  0  0  0  0  0  0  0  0  0  0  0
   -0.8490   19.1810  -28.2020 C   0  0  0  0  0  0  0  0  0  0  0  0
    0.2710   17.8270  -28.2330 Cl  0  0  0  0  0  0  0  0  0  0  0  0
   -0.8750   20.1300  -29.2370 C   0  0  0  0  0  0  0  0  0  0  0  0
    0.2110   20.0050  -30.6150 Cl  0  0  0  0  0  0  0  0  0  0  0  0
   -1.7860   21.1910  -29.1870 C   0  0  0  0  0  0  0  0  0  0  0  0
   -4.5930   20.8230  -31.0270 C   0  0  0  0  0  0  0  0  0  0  0  0
   -3.9650   19.7420  -31.6520 C   0  0  0  0  0  0  0  0  0  0  0  0
   -2.2142   18.0719  -32.7729 H   0  0  0  0  0  0  0  0  0  0  0  0
   -3.3431   18.2447  -34.1594 H   0  0  0  0  0  0  0  0  0  0  0  0
   -1.7788   19.1276  -34.1594 H   0  0  0  0  0  0  0  0  0  0  0  0
   -2.7044   21.3544  -34.3920 H   0  0  0  0  0  0  0  0  0  0  0  0
   -3.8308   23.2788  -33.2799 H   0  0  0  0  0  0  0  0  0  0  0  0
   -8.2038   23.9822  -32.3647 H   0  0  0  0  0  0  0  0  0  0  0  0
   -6.7566   23.4865  -33.3286 H   0  0  0  0  0  0  0  0  0  0  0  0
   -9.2157   22.2790  -30.7431 H   0  0  0  0  0  0  0  0  0  0  0  0
   -9.8241   19.8726  -30.4948 H   0  0  0  0  0  0  0  0  0  0  0  0
   -6.9250   18.8198  -33.5275 H   0  0  0  0  0  0  0  0  0  0  0  0
   -6.2998   21.2222  -33.7720 H   0  0  0  0  0  0  0  0  0  0  0  0
   -3.7084   22.8362  -27.0328 H   0  0  0  0  0  0  0  0  0  0  0  0
   -4.6400   22.0968  -28.3958 H   0  0  0  0  0  0  0  0  0  0  0  0
   -3.3572   20.4369  -26.2435 H   0  0  0  0  0  0  0  0  0  0  0  0
   -1.7212   18.5582  -26.3161 H   0  0  0  0  0  0  0  0  0  0  0  0
   -1.7978   21.9389  -29.9936 H   0  0  0  0  0  0  0  0  0  0  0  0
   -5.1278   20.6708  -30.0779 H   0  0  0  0  0  0  0  0  0  0  0  0
   -4.0217   18.7401  -31.2015 H   0  0  0  0  0  0  0  0  0  0  0  0
  1  2  1  0
  2  3  2  0
  3  4  1  0
  4  5  2  0
  5  6  1  0
  6  7  1  0
  7  8  1  0
  8  9  1  0
  9 10  2  0
 10 11  1  0
 11 12  2  0
 12 13  1  0
 12 14  1  0
 14 15  2  0
  7 16  2  0
 16 17  1  0
 17 18  2  0
 18 19  1  0
 19 20  1  0
 20 21  1  0
 21 22  2  0
 22 23  1  0
 23 24  2  0
 24 25  1  0
 24 26  1  0
 26 27  1  0
 26 28  2  0
  5 29  1  0
 29 30  2  0
 30  2  1  0
 18  6  1  0
 28 21  1  0
 15  9  1  0
  1 31  1  0
  1 32  1  0
  1 33  1  0
  3 34  1  0
  4 35  1  0
  8 36  1  0
  8 37  1  0
 10 38  1  0
 11 39  1  0
 14 40  1  0
 15 41  1  0
 20 42  1  0
 20 43  1  0
 22 44  1  0
 23 45  1  0
 28 46  1  0
 29 47  1  0
 30 48  1  0
M  END
>  <UniqueID>  (30) 
29

>  <SMILES>  (30) 
Cc1ccc(-n2c(Cc3ccc(F)cc3)nnc2SCc2ccc(Cl)c(Cl)c2)cc1

>  <Energy>  (30) 
80.5775832277847

>  <Genealogy>  (30) 
Cc1ccc(-n2c(Cc3ccc(F)cc3)nnc2SCc2ccc(Cl)c(Cl)c2)cc1 (3D coordinates assigned)
Cc1ccc(-n2c(Cc3ccc(F)cc3)nnc2SCc2ccc(Cl)c(Cl)c2)cc1 (optimized conformer: 80.5775832277847 kcal/mol)

>  <smiles>  (30) 
Cc1ccc(-n2c(Cc3ccc(F)cc3)nnc2SCc2ccc(Cl)c(Cl)c2)cc1

>  <score_type>  (30) 
oracle

>  <origin>  (30) 
adgpu

>  <m_score__min__energy>  (30) 
-10.029999999999999

>  <m_primary>  (30) 
energy

$$$$
30:0
     RDKit          3D

 35 37  0  0  0  0  0  0  0  0999 V2000
   -1.3010   21.1360  -30.9930 O   0  0  0  0  0  0  0  0  0  0  0  0
   -2.4480   21.6520  -30.9050 C   0  0  0  0  0  0  0  0  0  0  0  0
   -3.5820   21.0660  -31.6870 C   0  0  0  0  0  0  0  0  0  0  0  0
   -4.2270   22.2750  -32.8940 S   0  0  0  0  0  0  0  0  0  0  0  0
   -5.0780   23.2770  -31.6670 C   0  0  0  0  0  0  0  0  0  0  0  0
   -4.5610   24.4000  -31.1390 N   0  0  0  0  0  0  0  0  0  0  0  0
   -5.5230   24.8950  -30.3730 N   0  0  0  0  0  0  0  0  0  0  0  0
   -6.5930   24.1170  -30.4270 N   0  0  0  0  0  0  0  0  0  0  0  0
   -6.3360   23.0930  -31.2230 N   0  0  0  0  0  0  0  0  0  0  0  0
   -7.2840   22.0660  -31.5580 C   0  0  0  0  0  0  0  0  0  0  0  0
   -8.6500   22.3800  -31.6500 C   0  0  0  0  0  0  0  0  0  0  0  0
   -9.5820   21.3900  -31.9690 C   0  0  0  0  0  0  0  0  0  0  0  0
   -9.1620   20.0770  -32.1870 C   0  0  0  0  0  0  0  0  0  0  0  0
   -7.8070   19.7480  -32.0780 C   0  0  0  0  0  0  0  0  0  0  0  0
   -7.2830   18.0940  -32.3310 Cl  0  0  0  0  0  0  0  0  0  0  0  0
   -6.8720   20.7380  -31.7580 C   0  0  0  0  0  0  0  0  0  0  0  0
   -2.6630   22.8070  -30.0820 N   0  0  0  0  0  0  0  0  0  0  0  0
   -1.5620   23.5420  -29.4650 C   0  0  0  0  0  0  0  0  0  0  0  0
   -2.0600   24.3100  -28.2810 C   0  0  0  0  0  0  0  0  0  0  0  0
   -3.2690   24.1110  -27.6290 C   0  0  0  0  0  0  0  0  0  0  0  0
   -3.4290   24.9300  -26.5060 C   0  0  0  0  0  0  0  0  0  0  0  0
   -2.3440   25.7640  -26.2640 C   0  0  0  0  0  0  0  0  0  0  0  0
   -1.1850   25.4800  -27.4500 S   0  0  0  0  0  0  0  0  0  0  0  0
   -3.2273   20.1739  -32.2239 H   0  0  0  0  0  0  0  0  0  0  0  0
   -4.3897   20.7965  -30.9905 H   0  0  0  0  0  0  0  0  0  0  0  0
   -8.9875   23.4113  -31.4698 H   0  0  0  0  0  0  0  0  0  0  0  0
  -10.6489   21.6455  -32.0486 H   0  0  0  0  0  0  0  0  0  0  0  0
   -9.8972   19.3004  -32.4447 H   0  0  0  0  0  0  0  0  0  0  0  0
   -5.8082   20.4751  -31.6624 H   0  0  0  0  0  0  0  0  0  0  0  0
   -3.6360   23.1650  -29.9550 H   0  0  0  0  0  0  0  0  0  0  0  0
   -0.7873   22.8322  -29.1393 H   0  0  0  0  0  0  0  0  0  0  0  0
   -1.1397   24.2438  -30.1993 H   0  0  0  0  0  0  0  0  0  0  0  0
   -4.0243   23.3836  -27.9613 H   0  0  0  0  0  0  0  0  0  0  0  0
   -4.3291   24.9152  -25.8739 H   0  0  0  0  0  0  0  0  0  0  0  0
   -2.2578   26.4860  -25.4386 H   0  0  0  0  0  0  0  0  0  0  0  0
  1  2  2  0
  2  3  1  0
  3  4  1  0
  4  5  1  0
  5  6  2  0
  6  7  1  0
  7  8  2  0
  8  9  1  0
  9 10  1  0
 10 11  2  0
 11 12  1  0
 12 13  2  0
 13 14  1  0
 14 15  1  0
 14 16  2  0
  2 17  1  0
 17 18  1  0
 18 19  1  0
 19 20  2  0
 20 21  1  0
 21 22  2  0
 22 23  1  0
  9  5  1  0
 16 10  1  0
 23 19  1  0
  3 24  1  0
  3 25  1  0
 11 26  1  0
 12 27  1  0
 13 28  1  0
 16 29  1  0
 17 30  1  0
 18 31  1  0
 18 32  1  0
 20 33  1  0
 21 34  1  0
 22 35  1  0
M  END
>  <UniqueID>  (31) 
30

>  <SMILES>  (31) 
O=C(CSc1nnnn1-c1cccc(Cl)c1)NCc1cccs1

>  <Energy>  (31) 
97.98893633580553

>  <Genealogy>  (31) 
O=C(CSc1nnnn1-c1cccc(Cl)c1)NCc1cccs1 (3D coordinates assigned)
O=C(CSc1nnnn1-c1cccc(Cl)c1)NCc1cccs1 (optimized conformer: 97.98893633580553 kcal/mol)

>  <smiles>  (31) 
O=C(CSc1nnnn1-c1cccc(Cl)c1)NCc1cccs1

>  <score_type>  (31) 
oracle

>  <origin>  (31) 
adgpu

>  <m_score__min__energy>  (31) 
-8.8100000000000005

>  <m_primary>  (31) 
energy

$$$$
31:0
     RDKit          3D

 44 47  0  0  0  0  0  0  0  0999 V2000
   -5.3850   26.3800  -30.5960 O   0  0  0  0  0  0  0  0  0  0  0  0
   -4.9270   25.2220  -30.4020 C   0  0  0  0  0  0  0  0  0  0  0  0
   -5.8750   24.0820  -30.1790 C   0  0  0  0  0  0  0  0  0  0  0  0
   -6.4920   23.6930  -31.4080 O   0  0  0  0  0  0  0  0  0  0  0  0
   -7.2780   22.5450  -31.6080 C   0  0  0  0  0  0  0  0  0  0  0  0
   -8.3380   22.1840  -30.7520 C   0  0  0  0  0  0  0  0  0  0  0  0
   -9.0870   21.0300  -31.0050 C   0  0  0  0  0  0  0  0  0  0  0  0
   -8.7860   20.2260  -32.1070 C   0  0  0  0  0  0  0  0  0  0  0  0
   -9.5140   19.1090  -32.3500 F   0  0  0  0  0  0  0  0  0  0  0  0
   -7.7310   20.5730  -32.9550 C   0  0  0  0  0  0  0  0  0  0  0  0
   -6.9800   21.7240  -32.7050 C   0  0  0  0  0  0  0  0  0  0  0  0
   -3.5170   24.9760  -30.4680 N   0  0  0  0  0  0  0  0  0  0  0  0
   -2.7240   24.2550  -29.5110 C   0  0  0  0  0  0  0  0  0  0  0  0
   -2.1610   24.9160  -28.4020 C   0  0  0  0  0  0  0  0  0  0  0  0
   -1.4490   24.2030  -27.4360 C   0  0  0  0  0  0  0  0  0  0  0  0
   -1.3070   22.8220  -27.5520 C   0  0  0  0  0  0  0  0  0  0  0  0
   -1.8760   22.1470  -28.6320 C   0  0  0  0  0  0  0  0  0  0  0  0
   -2.5880   22.8490  -29.6210 C   0  0  0  0  0  0  0  0  0  0  0  0
   -3.1690   22.0870  -30.7520 C   0  0  0  0  0  0  0  0  0  0  0  0
   -3.7340   20.8690  -30.6490 N   0  0  0  0  0  0  0  0  0  0  0  0
   -4.0990   20.6250  -31.9240 C   0  0  0  0  0  0  0  0  0  0  0  0
   -4.7710   19.3790  -32.3610 C   0  0  0  0  0  0  0  0  0  0  0  0
   -5.7080   18.7570  -31.5150 C   0  0  0  0  0  0  0  0  0  0  0  0
   -6.3400   17.5720  -31.9030 C   0  0  0  0  0  0  0  0  0  0  0  0
   -6.0480   16.9970  -33.1400 C   0  0  0  0  0  0  0  0  0  0  0  0
   -5.1230   17.6040  -33.9920 C   0  0  0  0  0  0  0  0  0  0  0  0
   -4.4850   18.7890  -33.6110 C   0  0  0  0  0  0  0  0  0  0  0  0
   -3.5830   19.3460  -34.4580 F   0  0  0  0  0  0  0  0  0  0  0  0
   -3.7760   21.6400  -32.7490 N   0  0  0  0  0  0  0  0  0  0  0  0
   -3.2080   22.5240  -31.9870 O   0  0  0  0  0  0  0  0  0  0  0  0
   -5.3206   23.2263  -29.7661 H   0  0  0  0  0  0  0  0  0  0  0  0
   -6.6573   24.4037  -29.4758 H   0  0  0  0  0  0  0  0  0  0  0  0
   -8.5773   22.8123  -29.8814 H   0  0  0  0  0  0  0  0  0  0  0  0
   -9.9148   20.7550  -30.3348 H   0  0  0  0  0  0  0  0  0  0  0  0
   -7.4914   19.9386  -33.8211 H   0  0  0  0  0  0  0  0  0  0  0  0
   -6.1480   21.9885  -33.3742 H   0  0  0  0  0  0  0  0  0  0  0  0
   -2.2835   26.0040  -28.2962 H   0  0  0  0  0  0  0  0  0  0  0  0
   -0.9997   24.7319  -26.5826 H   0  0  0  0  0  0  0  0  0  0  0  0
   -0.7447   22.2624  -26.7900 H   0  0  0  0  0  0  0  0  0  0  0  0
   -1.7668   21.0553  -28.7109 H   0  0  0  0  0  0  0  0  0  0  0  0
   -5.9452   19.2073  -30.5398 H   0  0  0  0  0  0  0  0  0  0  0  0
   -7.0682   17.0925  -31.2323 H   0  0  0  0  0  0  0  0  0  0  0  0
   -6.5467   16.0650  -33.4444 H   0  0  0  0  0  0  0  0  0  0  0  0
   -4.8951   17.1483  -34.9669 H   0  0  0  0  0  0  0  0  0  0  0  0
  1  2  2  0
  2  3  1  0
  3  4  1  0
  4  5  1  0
  5  6  2  0
  6  7  1  0
  7  8  2  0
  8  9  1  0
  8 10  1  0
 10 11  2  0
  2 12  1  0
 12 13  1  0
 13 14  2  0
 14 15  1  0
 15 16  2  0
 16 17  1  0
 17 18  2  0
 18 19  1  0
 19 20  2  0
 20 21  1  0
 21 22  1  0
 22 23  2  0
 23 24  1  0
 24 25  2  0
 25 26  1  0
 26 27  2  0
 27 28  1  0
 21 29  2  0
 29 30  1  0
 11  5  1  0
 18 13  1  0
 30 19  1  0
 27 22  1  0
  3 31  1  0
  3 32  1  0
  6 33  1  0
  7 34  1  0
 10 35  1  0
 11 36  1  0
 14 37  1  0
 15 38  1  0
 16 39  1  0
 17 40  1  0
 23 41  1  0
 24 42  1  0
 25 43  1  0
 26 44  1  0
M  CHG  1  12  -1
M  END
>  <UniqueID>  (32) 
31

>  <SMILES>  (32) 
O=C(COc1ccc(F)cc1)[N-]c1ccccc1-c1nc(-c2ccccc2F)no1

>  <Energy>  (32) 
86.54113544557528

>  <Genealogy>  (32) 
O=C(COc1ccc(F)cc1)[N-]c1ccccc1-c1nc(-c2ccccc2F)no1 (protonated)
O=C(COc1ccc(F)cc1)[N-]c1ccccc1-c1nc(-c2ccccc2F)no1 (3D coordinates assigned)
O=C(COc1ccc(F)cc1)[N-]c1ccccc1-c1nc(-c2ccccc2F)no1 (optimized conformer: 86.54113544557528 kcal/mol)

>  <smiles>  (32) 
O=C(COc1ccc(F)cc1)Nc1ccccc1-c1nc(-c2ccccc2F)no1

>  <score_type>  (32) 
oracle

>  <origin>  (32) 
adgpu

>  <m_score__min__energy>  (32) 
-11.07

>  <m_primary>  (32) 
energy

$$$$
32:0
     RDKit          3D

 34 35  0  0  0  0  0  0  0  0999 V2000
   -4.4550   14.9550  -32.3480 C   0  0  0  0  0  0  0  0  0  0  0  0
   -4.2920   16.3400  -32.6360 O   0  0  0  0  0  0  0  0  0  0  0  0
   -5.3510   17.2490  -32.7810 C   0  0  0  0  0  0  0  0  0  0  0  0
   -5.3240   18.2940  -33.7220 C   0  0  0  0  0  0  0  0  0  0  0  0
   -6.4050   19.1760  -33.8300 C   0  0  0  0  0  0  0  0  0  0  0  0
   -7.5310   19.0290  -32.9980 C   0  0  0  0  0  0  0  0  0  0  0  0
   -8.6590   19.9200  -33.0830 N   0  0  0  0  0  0  0  0  0  0  0  0
   -9.1770   20.6680  -31.9350 C   0  0  0  0  0  0  0  0  0  0  0  0
   -8.4010   21.9340  -31.7370 C   0  0  0  0  0  0  0  0  0  0  0  0
   -8.8560   23.0200  -32.1900 O   0  0  0  0  0  0  0  0  0  0  0  0
   -7.1150   21.8940  -31.1010 N   0  0  0  0  0  0  0  0  0  0  0  0
   -6.3330   23.0720  -30.8620 C   0  0  0  0  0  0  0  0  0  0  0  0
   -6.8700   24.1090  -30.0890 C   0  0  0  0  0  0  0  0  0  0  0  0
   -6.1230   25.2610  -29.8460 C   0  0  0  0  0  0  0  0  0  0  0  0
   -4.8460   25.3760  -30.3950 C   0  0  0  0  0  0  0  0  0  0  0  0
   -4.3460   24.3770  -31.1700 N   0  0  0  0  0  0  0  0  0  0  0  0
   -5.0490   23.2390  -31.4190 C   0  0  0  0  0  0  0  0  0  0  0  0
   -4.3510   22.0480  -32.5070 Cl  0  0  0  0  0  0  0  0  0  0  0  0
   -7.5500   17.9840  -32.0600 C   0  0  0  0  0  0  0  0  0  0  0  0
   -6.4700   17.1040  -31.9550 C   0  0  0  0  0  0  0  0  0  0  0  0
   -4.4725   14.8067  -31.2582 H   0  0  0  0  0  0  0  0  0  0  0  0
   -5.4012   14.5992  -32.7817 H   0  0  0  0  0  0  0  0  0  0  0  0
   -3.6172   14.3892  -32.7817 H   0  0  0  0  0  0  0  0  0  0  0  0
   -4.4486   18.4186  -34.3764 H   0  0  0  0  0  0  0  0  0  0  0  0
   -6.3747   19.9895  -34.5698 H   0  0  0  0  0  0  0  0  0  0  0  0
   -9.1270   20.0350  -34.0110 H   0  0  0  0  0  0  0  0  0  0  0  0
  -10.2340   20.9158  -32.1121 H   0  0  0  0  0  0  0  0  0  0  0  0
   -9.0779   20.0465  -31.0328 H   0  0  0  0  0  0  0  0  0  0  0  0
   -6.6510   20.9650  -30.9880 H   0  0  0  0  0  0  0  0  0  0  0  0
   -7.8837   24.0145  -29.6725 H   0  0  0  0  0  0  0  0  0  0  0  0
   -6.5367   26.0711  -29.2275 H   0  0  0  0  0  0  0  0  0  0  0  0
   -4.2431   26.2754  -30.2009 H   0  0  0  0  0  0  0  0  0  0  0  0
   -8.4226   17.8573  -31.4024 H   0  0  0  0  0  0  0  0  0  0  0  0
   -6.5002   16.2898  -31.2160 H   0  0  0  0  0  0  0  0  0  0  0  0
  1  2  1  0
  2  3  1  0
  3  4  2  0
  4  5  1  0
  5  6  2  0
  6  7  1  0
  7  8  1  0
  8  9  1  0
  9 10  2  0
  9 11  1  0
 11 12  1  0
 12 13  2  0
 13 14  1  0
 14 15  2  0
 15 16  1  0
 16 17  2  0
 17 18  1  0
  6 19  1  0
 19 20  2  0
 20  3  1  0
 17 12  1  0
  1 21  1  0
  1 22  1  0
  1 23  1  0
  4 24  1  0
  5 25  1  0
  7 26  1  0
  8 27  1  0
  8 28  1  0
 11 29  1  0
 13 30  1  0
 14 31  1  0
 15 32  1  0
 19 33  1  0
 20 34  1  0
M  END
>  <UniqueID>  (33) 
32

>  <SMILES>  (33) 
COc1ccc(NCC(=O)Nc2cccnc2Cl)cc1

>  <Energy>  (33) 
39.02440330648651

>  <Genealogy>  (33) 
COc1ccc(NCC(=O)Nc2cccnc2Cl)cc1 (3D coordinates assigned)
COc1ccc(NCC(=O)Nc2cccnc2Cl)cc1 (optimized conformer: 39.02440330648651 kcal/mol)

>  <smiles>  (33) 
COc1ccc(NCC(=O)Nc2cccnc2Cl)cc1

>  <score_type>  (33) 
oracle

>  <origin>  (33) 
adgpu

>  <m_score__min__energy>  (33) 
-7.3300000000000001

>  <m_primary>  (33) 
energy

$$$$
33:0
     RDKit          3D

 52 54  0  0  0  0  0  0  0  0999 V2000
   -8.5120   22.4850  -31.9590 C   0  0  0  0  0  0  0  0  0  0  0  0
   -7.0320   22.2760  -32.2550 C   0  0  0  0  0  0  0  0  0  0  0  0
   -6.3850   23.5670  -32.5050 N   0  0  0  0  0  0  0  0  0  0  0  0
   -5.8700   24.2670  -31.0000 S   0  0  0  0  0  0  0  0  0  0  0  0
   -5.4390   25.6870  -31.2350 O   0  0  0  0  0  0  0  0  0  0  0  0
   -7.0200   24.2720  -30.0300 O   0  0  0  0  0  0  0  0  0  0  0  0
   -4.5140   23.3600  -30.3330 C   0  0  0  0  0  0  0  0  0  0  0  0
   -4.5750   21.9660  -30.2160 C   0  0  0  0  0  0  0  0  0  0  0  0
   -3.4940   21.2590  -29.6860 C   0  0  0  0  0  0  0  0  0  0  0  0
   -2.3280   21.9300  -29.2840 C   0  0  0  0  0  0  0  0  0  0  0  0
   -1.2760   21.1920  -28.6360 N   0  0  0  0  0  0  0  0  0  0  0  0
   -1.3970   20.7880  -27.2330 C   0  0  0  0  0  0  0  0  0  0  0  0
   -1.2120   19.2700  -27.1370 C   0  0  0  0  0  0  0  0  0  0  0  0
   -0.0020   18.8690  -27.7570 O   0  0  0  0  0  0  0  0  0  0  0  0
   -0.0480   19.1490  -29.1450 C   0  0  0  0  0  0  0  0  0  0  0  0
   -0.1420   20.6580  -29.3910 C   0  0  0  0  0  0  0  0  0  0  0  0
   -2.2490   23.3330  -29.4440 C   0  0  0  0  0  0  0  0  0  0  0  0
   -1.0720   24.0710  -29.0930 N   0  0  0  0  0  0  0  0  0  0  0  0
   -1.0780   25.2990  -28.3550 C   0  0  0  0  0  0  0  0  0  0  0  0
   -1.2380   26.3930  -28.9640 O   0  0  0  0  0  0  0  0  0  0  0  0
   -0.9180   25.2860  -26.8830 C   0  0  0  0  0  0  0  0  0  0  0  0
   -1.0320   26.4770  -26.1430 C   0  0  0  0  0  0  0  0  0  0  0  0
   -0.8600   26.4680  -24.7570 C   0  0  0  0  0  0  0  0  0  0  0  0
   -0.5760   25.2740  -24.0910 C   0  0  0  0  0  0  0  0  0  0  0  0
   -0.4740   24.0750  -24.8100 C   0  0  0  0  0  0  0  0  0  0  0  0
   -0.1270   22.7980  -24.1000 C   0  0  0  0  0  0  0  0  0  0  0  0
   -0.6290   24.0880  -26.2050 C   0  0  0  0  0  0  0  0  0  0  0  0
   -3.3530   24.0370  -29.9410 C   0  0  0  0  0  0  0  0  0  0  0  0
   -8.6687   22.5071  -30.8704 H   0  0  0  0  0  0  0  0  0  0  0  0
   -8.8423   23.4387  -32.3964 H   0  0  0  0  0  0  0  0  0  0  0  0
   -9.0935   21.6601  -32.3964 H   0  0  0  0  0  0  0  0  0  0  0  0
   -6.5530   21.7891  -31.3927 H   0  0  0  0  0  0  0  0  0  0  0  0
   -6.9278   21.6405  -33.1468 H   0  0  0  0  0  0  0  0  0  0  0  0
   -5.5220   23.3950  -33.0700 H   0  0  0  0  0  0  0  0  0  0  0  0
   -5.4765   21.4268  -30.5423 H   0  0  0  0  0  0  0  0  0  0  0  0
   -3.5564   20.1657  -29.5824 H   0  0  0  0  0  0  0  0  0  0  0  0
   -0.6239   21.2929  -26.6352 H   0  0  0  0  0  0  0  0  0  0  0  0
   -2.3887   21.0681  -26.8483 H   0  0  0  0  0  0  0  0  0  0  0  0
   -1.1886   18.9761  -26.0772 H   0  0  0  0  0  0  0  0  0  0  0  0
   -2.0510   18.7798  -27.6525 H   0  0  0  0  0  0  0  0  0  0  0  0
    0.8645   18.7617  -29.6218 H   0  0  0  0  0  0  0  0  0  0  0  0
   -0.9379   18.6651  -29.5737 H   0  0  0  0  0  0  0  0  0  0  0  0
    0.7861   21.1450  -29.0570 H   0  0  0  0  0  0  0  0  0  0  0  0
   -0.2844   20.8523  -30.4643 H   0  0  0  0  0  0  0  0  0  0  0  0
   -1.2581   27.4216  -26.6594 H   0  0  0  0  0  0  0  0  0  0  0  0
   -0.9486   27.4051  -24.1878 H   0  0  0  0  0  0  0  0  0  0  0  0
   -0.4321   25.2743  -23.0005 H   0  0  0  0  0  0  0  0  0  0  0  0
   -0.1708   22.9594  -23.0128 H   0  0  0  0  0  0  0  0  0  0  0  0
   -0.8447   22.0141  -24.3836 H   0  0  0  0  0  0  0  0  0  0  0  0
    0.8887   22.4851  -24.3836 H   0  0  0  0  0  0  0  0  0  0  0  0
   -0.5234   23.1522  -26.7735 H   0  0  0  0  0  0  0  0  0  0  0  0
   -3.3074   25.1329  -30.0242 H   0  0  0  0  0  0  0  0  0  0  0  0
  1  2  1  0
  2  3  1  0
  3  4  1  0
  4  5  2  0
  4  6  2  0
  4  7  1  0
  7  8  2  0
  8  9  1  0
  9 10  2  0
 10 11  1  0
 11 12  1  0
 12 13  1  0
 13 14  1  0
 14 15  1  0
 15 16  1  0
 10 17  1  0
 17 18  1  0
 18 19  1  0
 19 20  2  0
 19 21  1  0
 21 22  2  0
 22 23  1  0
 23 24  2  0
 24 25  1  0
 25 26  1  0
 25 27  2  0
 17 28  2  0
 28  7  1  0
 16 11  1  0
 27 21  1  0
  1 29  1  0
  1 30  1  0
  1 31  1  0
  2 32  1  0
  2 33  1  0
  3 34  1  0
  8 35  1  0
  9 36  1  0
 12 37  1  0
 12 38  1  0
 13 39  1  0
 13 40  1  0
 15 41  1  0
 15 42  1  0
 16 43  1  0
 16 44  1  0
 22 45  1  0
 23 46  1  0
 24 47  1  0
 26 48  1  0
 26 49  1  0
 26 50  1  0
 27 51  1  0
 28 52  1  0
M  CHG  1  18  -1
M  END
>  <UniqueID>  (34) 
33

>  <SMILES>  (34) 
CCNS(=O)(=O)c1ccc(N2CCOCC2)c([N-]C(=O)c2cccc(C)c2)c1

>  <Energy>  (34) 
58.903648438719635

>  <Genealogy>  (34) 
CCNS(=O)(=O)c1ccc(N2CCOCC2)c([N-]C(=O)c2cccc(C)c2)c1 (protonated)
CCNS(=O)(=O)c1ccc(N2CCOCC2)c([N-]C(=O)c2cccc(C)c2)c1 (3D coordinates assigned)
CCNS(=O)(=O)c1ccc(N2CCOCC2)c([N-]C(=O)c2cccc(C)c2)c1 (nonaromatic ring conformer: 58.903648438719635 kcal/mol)

>  <smiles>  (34) 
CCNS(=O)(=O)c1ccc(N2CCOCC2)c(NC(=O)c2cccc(C)c2)c1

>  <score_type>  (34) 
oracle

>  <origin>  (34) 
adgpu

>  <m_score__min__energy>  (34) 
-9.5500000000000007

>  <m_primary>  (34) 
energy

$$$$
34:0
     RDKit          3D

 39 42  0  0  0  0  0  0  0  0999 V2000
   -4.9175   16.6773  -35.5471 H   0  0  0  0  0  0  0  0  0  0  0  0
   -4.8990   17.5710  -34.9060 C   0  0  0  0  0  0  0  0  0  0  0  0
   -6.0920   18.1090  -34.4270 C   0  0  0  0  0  0  0  0  0  0  0  0
   -7.0499   17.6394  -34.6951 H   0  0  0  0  0  0  0  0  0  0  0  0
   -6.0790   19.2430  -33.6070 C   0  0  0  0  0  0  0  0  0  0  0  0
   -7.6220   19.8380  -32.9970 Cl  0  0  0  0  0  0  0  0  0  0  0  0
   -4.8510   19.8500  -33.2570 C   0  0  0  0  0  0  0  0  0  0  0  0
   -4.8300   21.0460  -32.3880 C   0  0  0  0  0  0  0  0  0  0  0  0
   -5.0530   21.0110  -31.0540 N   0  0  0  0  0  0  0  0  0  0  0  0
   -4.9140   22.3140  -30.7340 C   0  0  0  0  0  0  0  0  0  0  0  0
   -5.0470   22.7650  -29.5260 N   0  0  0  0  0  0  0  0  0  0  0  0
   -4.8940   24.1750  -29.1850 C   0  0  0  0  0  0  0  0  0  0  0  0
   -5.6789   24.4676  -28.4720 H   0  0  0  0  0  0  0  0  0  0  0  0
   -4.9819   24.7855  -30.0958 H   0  0  0  0  0  0  0  0  0  0  0  0
   -3.5500   24.3920  -28.5650 C   0  0  0  0  0  0  0  0  0  0  0  0
   -3.4640   24.9190  -27.3120 N   0  0  0  0  0  0  0  0  0  0  0  0
   -2.2670   25.1660  -26.7150 C   0  0  0  0  0  0  0  0  0  0  0  0
   -2.2250   25.7000  -25.4250 C   0  0  0  0  0  0  0  0  0  0  0  0
   -3.1628   25.9191  -24.8935 H   0  0  0  0  0  0  0  0  0  0  0  0
   -0.9930   25.9590  -24.8020 C   0  0  0  0  0  0  0  0  0  0  0  0
   -0.9800   26.5080  -23.4770 N   0  0  0  0  0  0  0  0  0  0  0  0
   -0.3260   26.1320  -22.7550 H   0  0  0  0  0  0  0  0  0  0  0  0
   -1.6130   27.2870  -23.1960 H   0  0  0  0  0  0  0  0  0  0  0  0
    0.2060   25.6750  -25.4890 C   0  0  0  0  0  0  0  0  0  0  0  0
    1.7810   25.9760  -24.7640 Cl  0  0  0  0  0  0  0  0  0  0  0  0
    0.1620   25.1400  -26.7830 C   0  0  0  0  0  0  0  0  0  0  0  0
    1.0986   24.9199  -27.3163 H   0  0  0  0  0  0  0  0  0  0  0  0
   -1.0680   24.8840  -27.4010 C   0  0  0  0  0  0  0  0  0  0  0  0
   -1.1350   24.3530  -28.6960 C   0  0  0  0  0  0  0  0  0  0  0  0
   -0.2109   24.1275  -29.2484 H   0  0  0  0  0  0  0  0  0  0  0  0
   -2.3790   24.1110  -29.2830 C   0  0  0  0  0  0  0  0  0  0  0  0
   -2.4397   23.7024  -30.3025 H   0  0  0  0  0  0  0  0  0  0  0  0
   -4.6300   23.0600  -31.7750 O   0  0  0  0  0  0  0  0  0  0  0  0
   -4.5710   22.2960  -32.8200 N   0  0  0  0  0  0  0  0  0  0  0  0
   -4.3410   22.6090  -33.7890 H   0  0  0  0  0  0  0  0  0  0  0  0
   -3.6470   19.2990  -33.7550 C   0  0  0  0  0  0  0  0  0  0  0  0
   -2.0800   20.0400  -33.4390 Cl  0  0  0  0  0  0  0  0  0  0  0  0
   -3.6810   18.1650  -34.5730 C   0  0  0  0  0  0  0  0  0  0  0  0
   -2.7420   17.7389  -34.9561 H   0  0  0  0  0  0  0  0  0  0  0  0
  1  2  1  0
  2  3  2  0
  3  4  1  0
  3  5  1  0
  5  6  1  0
  5  7  2  0
  7  8  1  0
  8  9  2  0
  9 10  1  0
 10 11  2  0
 11 12  1  0
 12 13  1  0
 12 14  1  0
 12 15  1  0
 15 16  2  0
 16 17  1  0
 17 18  2  0
 18 19  1  0
 18 20  1  0
 20 21  1  0
 21 22  1  0
 21 23  1  0
 20 24  2  0
 24 25  1  0
 24 26  1  0
 26 27  1  0
 26 28  2  0
 28 29  1  0
 29 30  1  0
 29 31  2  0
 31 32  1  0
 10 33  1  0
 33 34  1  0
 34 35  1  0
  7 36  1  0
 36 37  1  0
 36 38  2  0
 38 39  1  0
 38  2  1  0
 34  8  1  0
 31 15  1  0
 28 17  1  0
M  END
>  <UniqueID>  (35) 
34

>  <SMILES>  (35) 
Nc1cc2nc(C/N=c3/nc(-c4c(Cl)cccc4Cl)[nH]o3)ccc2cc1Cl

>  <Energy>  (35) 
87.40916002682131

>  <Genealogy>  (35) 
Nc1cc2nc(C/N=c3/nc(-c4c(Cl)cccc4Cl)[nH]o3)ccc2cc1Cl (cis-trans isomerization)
Nc1cc2nc(C/N=c3/nc(-c4c(Cl)cccc4Cl)[nH]o3)ccc2cc1Cl (3D coordinates assigned)
Nc1cc2nc(C/N=c3/nc(-c4c(Cl)cccc4Cl)[nH]o3)ccc2cc1Cl (optimized conformer: 87.40916002682131 kcal/mol)

>  <smiles>  (35) 
Nc1cc2nc(CN=c3nc(-c4c(Cl)cccc4Cl)[nH]o3)ccc2cc1Cl

>  <score_type>  (35) 
oracle

>  <origin>  (35) 
adgpu

>  <m_score__min__energy>  (35) 
-9.1500000000000004

>  <m_primary>  (35) 
energy

$$$$
35:0
     RDKit          3D

 28 30  0  0  0  0  0  0  0  0999 V2000
   -0.4762   25.7579  -28.0511 H   0  0  0  0  0  0  0  0  0  0  0  0
   -1.3970   25.1860  -28.2380 C   0  0  0  0  0  0  0  0  0  0  0  0
   -2.1540   25.2990  -29.3050 O   0  0  0  0  0  0  0  0  0  0  0  0
   -3.1640   24.4660  -29.1940 C   0  0  0  0  0  0  0  0  0  0  0  0
   -4.2330   24.3220  -30.1970 C   0  0  0  0  0  0  0  0  0  0  0  0
   -4.5460   25.3090  -30.9130 O   0  0  0  0  0  0  0  0  0  0  0  0
   -4.8670   23.0590  -30.4420 N   0  0  0  0  0  0  0  0  0  0  0  0
   -4.5110   22.1900  -31.3420 C   0  0  0  0  0  0  0  0  0  0  0  0
   -5.1900   21.0410  -31.5350 N   0  0  0  0  0  0  0  0  0  0  0  0
   -4.6120   20.2600  -32.4900 C   0  0  0  0  0  0  0  0  0  0  0  0
   -5.1940   18.9570  -32.8990 C   0  0  0  0  0  0  0  0  0  0  0  0
   -4.3350   17.8790  -33.1840 C   0  0  0  0  0  0  0  0  0  0  0  0
   -3.2472   18.0088  -33.0852 H   0  0  0  0  0  0  0  0  0  0  0  0
   -4.8500   16.6460  -33.5910 C   0  0  0  0  0  0  0  0  0  0  0  0
   -4.1672   15.8123  -33.8120 H   0  0  0  0  0  0  0  0  0  0  0  0
   -6.2280   16.4690  -33.7180 C   0  0  0  0  0  0  0  0  0  0  0  0
   -6.8710   14.9190  -34.2290 Cl  0  0  0  0  0  0  0  0  0  0  0  0
   -7.0950   17.5270  -33.4330 C   0  0  0  0  0  0  0  0  0  0  0  0
   -8.1813   17.3836  -33.5300 H   0  0  0  0  0  0  0  0  0  0  0  0
   -6.5920   18.7680  -33.0250 C   0  0  0  0  0  0  0  0  0  0  0  0
   -7.7550   20.0270  -32.6190 Cl  0  0  0  0  0  0  0  0  0  0  0  0
   -3.4550   20.7960  -33.0600 C   0  0  0  0  0  0  0  0  0  0  0  0
   -2.8483   20.3273  -33.8488 H   0  0  0  0  0  0  0  0  0  0  0  0
   -3.1490   22.2810  -32.3330 S   0  0  0  0  0  0  0  0  0  0  0  0
   -3.0750   23.7760  -28.0000 C   0  0  0  0  0  0  0  0  0  0  0  0
   -3.7712   23.0146  -27.6186 H   0  0  0  0  0  0  0  0  0  0  0  0
   -1.9320   24.2410  -27.3870 C   0  0  0  0  0  0  0  0  0  0  0  0
   -1.5275   23.9228  -26.4148 H   0  0  0  0  0  0  0  0  0  0  0  0
  1  2  1  0
  2  3  1  0
  3  4  1  0
  4  5  1  0
  5  6  2  0
  5  7  1  0
  7  8  2  0
  8  9  1  0
  9 10  1  0
 10 11  1  0
 11 12  2  0
 12 13  1  0
 12 14  1  0
 14 15  1  0
 14 16  2  0
 16 17  1  0
 16 18  1  0
 18 19  1  0
 18 20  2  0
 20 21  1  0
 10 22  2  0
 22 23  1  0
 22 24  1  0
  4 25  2  0
 25 26  1  0
 25 27  1  0
 27 28  1  0
 27  2  2  0
 24  8  1  0
 20 11  1  0
M  CHG  1   9  -1
M  END
>  <UniqueID>  (36) 
35

>  <SMILES>  (36) 
O=C(/N=c1/[n-]c(-c2ccc(Cl)cc2Cl)cs1)c1ccco1

>  <Energy>  (36) 
98.42632409563195

>  <Genealogy>  (36) 
O=C(N=c1[n-]c(-c2ccc(Cl)cc2Cl)cs1)c1ccco1 (protonated)
O=C(/N=c1/[n-]c(-c2ccc(Cl)cc2Cl)cs1)c1ccco1 (cis-trans isomerization)
O=C(/N=c1/[n-]c(-c2ccc(Cl)cc2Cl)cs1)c1ccco1 (3D coordinates assigned)
O=C(/N=c1/[n-]c(-c2ccc(Cl)cc2Cl)cs1)c1ccco1 (optimized conformer: 98.42632409563195 kcal/mol)

>  <smiles>  (36) 
O=C(N=c1[nH]c(-c2ccc(Cl)cc2Cl)cs1)c1ccco1

>  <score_type>  (36) 
oracle

>  <origin>  (36) 
adgpu

>  <m_score__min__energy>  (36) 
-9.4399999999999995

>  <m_primary>  (36) 
energy

$$$$
36:0
     RDKit          3D

 36 38  0  0  0  0  0  0  0  0999 V2000
   -0.4740   27.2910  -27.4870 C   0  0  0  0  0  0  0  0  0  0  0  0
   -0.8570   25.9260  -27.9510 C   0  0  0  0  0  0  0  0  0  0  0  0
   -0.3410   24.7340  -27.4720 C   0  0  0  0  0  0  0  0  0  0  0  0
   -1.0440   23.7570  -28.1540 C   0  0  0  0  0  0  0  0  0  0  0  0
   -0.8650   22.2950  -28.0060 C   0  0  0  0  0  0  0  0  0  0  0  0
   -1.3880   21.6310  -26.8820 C   0  0  0  0  0  0  0  0  0  0  0  0
   -1.2160   20.2510  -26.7300 C   0  0  0  0  0  0  0  0  0  0  0  0
   -0.5110   19.5230  -27.6940 C   0  0  0  0  0  0  0  0  0  0  0  0
   -0.2940   17.7930  -27.5010 Cl  0  0  0  0  0  0  0  0  0  0  0  0
    0.0260   20.1770  -28.8070 C   0  0  0  0  0  0  0  0  0  0  0  0
   -0.1460   21.5540  -28.9620 C   0  0  0  0  0  0  0  0  0  0  0  0
   -1.9310   24.3700  -28.9650 N   0  0  0  0  0  0  0  0  0  0  0  0
   -2.8940   23.7270  -29.7600 N   0  0  0  0  0  0  0  0  0  0  0  0
   -4.4700   24.4020  -30.0020 S   0  0  0  0  0  0  0  0  0  0  0  0
   -5.0390   24.8210  -28.6760 O   0  0  0  0  0  0  0  0  0  0  0  0
   -4.3530   25.6050  -30.8950 O   0  0  0  0  0  0  0  0  0  0  0  0
   -5.5270   23.1940  -30.7260 C   0  0  0  0  0  0  0  0  0  0  0  0
   -5.0370   22.3210  -31.7080 C   0  0  0  0  0  0  0  0  0  0  0  0
   -5.8790   21.3580  -32.2730 C   0  0  0  0  0  0  0  0  0  0  0  0
   -7.2130   21.2630  -31.8610 C   0  0  0  0  0  0  0  0  0  0  0  0
   -8.3600   19.9450  -32.6320 Br  0  0  0  0  0  0  0  0  0  0  0  0
   -7.7050   22.1360  -30.8850 C   0  0  0  0  0  0  0  0  0  0  0  0
   -6.8650   23.1000  -30.3200 C   0  0  0  0  0  0  0  0  0  0  0  0
   -1.8370   25.6830  -28.8430 N   0  0  0  0  0  0  0  0  0  0  0  0
   -0.4670   27.3159  -26.3873 H   0  0  0  0  0  0  0  0  0  0  0  0
    0.5285   27.5392  -27.8658 H   0  0  0  0  0  0  0  0  0  0  0  0
   -1.2010   28.0245  -27.8658 H   0  0  0  0  0  0  0  0  0  0  0  0
    0.4492   24.5951  -26.7194 H   0  0  0  0  0  0  0  0  0  0  0  0
   -1.9361   22.2007  -26.1171 H   0  0  0  0  0  0  0  0  0  0  0  0
   -1.6354   19.7382  -25.8519 H   0  0  0  0  0  0  0  0  0  0  0  0
    0.5853   19.6054  -29.5623 H   0  0  0  0  0  0  0  0  0  0  0  0
    0.2835   22.0630  -29.8375 H   0  0  0  0  0  0  0  0  0  0  0  0
   -3.9890   22.3938  -32.0343 H   0  0  0  0  0  0  0  0  0  0  0  0
   -5.4920   20.6740  -33.0426 H   0  0  0  0  0  0  0  0  0  0  0  0
   -8.7540   22.0639  -30.5618 H   0  0  0  0  0  0  0  0  0  0  0  0
   -7.2554   23.7868  -29.5545 H   0  0  0  0  0  0  0  0  0  0  0  0
  1  2  1  0
  2  3  1  0
  3  4  2  0
  4  5  1  0
  5  6  2  0
  6  7  1  0
  7  8  2  0
  8  9  1  0
  8 10  1  0
 10 11  2  0
  4 12  1  0
 12 13  1  0
 13 14  1  0
 14 15  2  0
 14 16  2  0
 14 17  1  0
 17 18  2  0
 18 19  1  0
 19 20  2  0
 20 21  1  0
 20 22  1  0
 22 23  2  0
 12 24  1  0
 24  2  2  0
 11  5  1  0
 23 17  1  0
  1 25  1  0
  1 26  1  0
  1 27  1  0
  3 28  1  0
  6 29  1  0
  7 30  1  0
 10 31  1  0
 11 32  1  0
 18 33  1  0
 19 34  1  0
 22 35  1  0
 23 36  1  0
M  CHG  1  13  -1
M  END
>  <UniqueID>  (37) 
36

>  <SMILES>  (37) 
Cc1cc(-c2ccc(Cl)cc2)n([N-]S(=O)(=O)c2ccc(Br)cc2)n1

>  <Energy>  (37) 
72.91939536134664

>  <Genealogy>  (37) 
Cc1cc(-c2ccc(Cl)cc2)n([N-]S(=O)(=O)c2ccc(Br)cc2)n1 (protonated)
Cc1cc(-c2ccc(Cl)cc2)n([N-]S(=O)(=O)c2ccc(Br)cc2)n1 (3D coordinates assigned)
Cc1cc(-c2ccc(Cl)cc2)n([N-]S(=O)(=O)c2ccc(Br)cc2)n1 (optimized conformer: 72.91939536134664 kcal/mol)

>  <smiles>  (37) 
Cc1cc(-c2ccc(Cl)cc2)n(NS(=O)(=O)c2ccc(Br)cc2)n1

>  <score_type>  (37) 
oracle

>  <origin>  (37) 
adgpu

>  <m_score__min__energy>  (37) 
-10.9

>  <m_primary>  (37) 
energy

$$$$
37:0
     RDKit          3D

 33 34  0  0  0  0  0  0  0  0999 V2000
   -4.1640   24.3940  -27.0070 C   0  0  0  0  0  0  0  0  0  0  0  0
   -3.9390   23.0980  -27.7840 C   0  0  0  0  0  0  0  0  0  0  0  0
   -3.1300   23.3010  -29.0770 C   0  0  0  0  0  0  0  0  0  0  0  0
   -2.7660   24.7660  -29.3480 C   0  0  0  0  0  0  0  0  0  0  0  0
   -3.5410   25.2820  -30.4730 N   0  0  0  0  0  0  0  0  0  0  0  0
   -4.9710   25.2820  -30.5520 C   0  0  0  0  0  0  0  0  0  0  0  0
   -5.5900   26.3570  -30.3340 O   0  0  0  0  0  0  0  0  0  0  0  0
   -5.7430   24.0580  -30.8450 C   0  0  0  0  0  0  0  0  0  0  0  0
   -6.8850   23.7290  -30.1060 C   0  0  0  0  0  0  0  0  0  0  0  0
   -7.5890   22.5570  -30.3880 C   0  0  0  0  0  0  0  0  0  0  0  0
   -7.1350   21.7050  -31.4080 C   0  0  0  0  0  0  0  0  0  0  0  0
   -7.8480   20.4570  -31.7420 C   0  0  0  0  0  0  0  0  0  0  0  0
   -7.2870   19.1830  -31.7650 C   0  0  0  0  0  0  0  0  0  0  0  0
   -8.1960   18.1790  -32.1180 C   0  0  0  0  0  0  0  0  0  0  0  0
   -9.4770   18.6500  -32.3730 C   0  0  0  0  0  0  0  0  0  0  0  0
   -9.4760   20.3170  -32.1600 S   0  0  0  0  0  0  0  0  0  0  0  0
   -6.0080   22.0370  -32.0960 N   0  0  0  0  0  0  0  0  0  0  0  0
   -5.3070   23.1720  -31.8380 C   0  0  0  0  0  0  0  0  0  0  0  0
   -4.1278   24.1854  -25.9276 H   0  0  0  0  0  0  0  0  0  0  0  0
   -3.3782   25.1185  -27.2670 H   0  0  0  0  0  0  0  0  0  0  0  0
   -5.1480   24.8113  -27.2670 H   0  0  0  0  0  0  0  0  0  0  0  0
   -3.3954   22.3927  -27.1382 H   0  0  0  0  0  0  0  0  0  0  0  0
   -4.9282   22.7136  -28.0734 H   0  0  0  0  0  0  0  0  0  0  0  0
   -2.1994   22.7196  -29.0002 H   0  0  0  0  0  0  0  0  0  0  0  0
   -3.7641   22.9658  -29.9110 H   0  0  0  0  0  0  0  0  0  0  0  0
   -2.9841   25.3656  -28.4520 H   0  0  0  0  0  0  0  0  0  0  0  0
   -1.6954   24.8289  -29.5927 H   0  0  0  0  0  0  0  0  0  0  0  0
   -7.2286   24.3954  -29.3011 H   0  0  0  0  0  0  0  0  0  0  0  0
   -8.4930   22.3026  -29.8153 H   0  0  0  0  0  0  0  0  0  0  0  0
   -6.2312   18.9846  -31.5285 H   0  0  0  0  0  0  0  0  0  0  0  0
   -7.9212   17.1161  -32.1870 H   0  0  0  0  0  0  0  0  0  0  0  0
  -10.3431   18.0376  -32.6642 H   0  0  0  0  0  0  0  0  0  0  0  0
   -4.3947   23.3955  -32.4106 H   0  0  0  0  0  0  0  0  0  0  0  0
  1  2  1  0
  2  3  1  0
  3  4  1  0
  4  5  1  0
  5  6  1  0
  6  7  2  0
  6  8  1  0
  8  9  2  0
  9 10  1  0
 10 11  2  0
 11 12  1  0
 12 13  2  0
 13 14  1  0
 14 15  2  0
 15 16  1  0
 11 17  1  0
 17 18  2  0
 18  8  1  0
 16 12  1  0
  1 19  1  0
  1 20  1  0
  1 21  1  0
  2 22  1  0
  2 23  1  0
  3 24  1  0
  3 25  1  0
  4 26  1  0
  4 27  1  0
  9 28  1  0
 10 29  1  0
 13 30  1  0
 14 31  1  0
 15 32  1  0
 18 33  1  0
M  CHG  1   5  -1
M  END
>  <UniqueID>  (38) 
37

>  <SMILES>  (38) 
CCCC[N-]C(=O)c1ccc(-c2cccs2)nc1

>  <Energy>  (38) 
59.005053254773706

>  <Genealogy>  (38) 
CCCC[N-]C(=O)c1ccc(-c2cccs2)nc1 (protonated)
CCCC[N-]C(=O)c1ccc(-c2cccs2)nc1 (3D coordinates assigned)
CCCC[N-]C(=O)c1ccc(-c2cccs2)nc1 (optimized conformer: 59.005053254773706 kcal/mol)

>  <smiles>  (38) 
CCCCNC(=O)c1ccc(-c2cccs2)nc1

>  <score_type>  (38) 
oracle

>  <origin>  (38) 
adgpu

>  <m_score__min__energy>  (38) 
-8.8499999999999996

>  <m_primary>  (38) 
energy

$$$$
38:0
     RDKit          3D

 56 59  0  0  0  0  0  0  0  0999 V2000
   -0.4600   26.7950  -23.2310 C   0  0  0  0  0  0  0  0  0  0  0  0
    0.1810   25.7410  -24.0370 N   0  0  0  0  0  0  0  0  0  0  0  0
   -0.8510   24.8160  -24.5740 C   0  0  0  0  0  0  0  0  0  0  0  0
   -0.3350   24.0520  -25.8020 C   0  0  0  0  0  0  0  0  0  0  0  0
    0.0590   24.9670  -26.8990 N   0  0  0  0  0  0  0  0  0  0  0  0
   -0.8080   24.9040  -28.0990 C   0  0  0  0  0  0  0  0  0  0  0  0
   -1.1620   23.4900  -28.5300 C   0  0  0  0  0  0  0  0  0  0  0  0
   -0.1750   22.4870  -28.5050 C   0  0  0  0  0  0  0  0  0  0  0  0
   -0.4780   21.1800  -28.8870 C   0  0  0  0  0  0  0  0  0  0  0  0
   -1.7670   20.8540  -29.3060 C   0  0  0  0  0  0  0  0  0  0  0  0
   -2.7530   21.8400  -29.3620 C   0  0  0  0  0  0  0  0  0  0  0  0
   -2.4570   23.1680  -29.0040 C   0  0  0  0  0  0  0  0  0  0  0  0
   -3.4670   24.1870  -29.0780 N   0  0  0  0  0  0  0  0  0  0  0  0
   -4.1940   24.5770  -30.2510 C   0  0  0  0  0  0  0  0  0  0  0  0
   -3.8610   25.6390  -30.8410 O   0  0  0  0  0  0  0  0  0  0  0  0
   -5.2840   23.7440  -30.8120 C   0  0  0  0  0  0  0  0  0  0  0  0
   -6.6220   24.1400  -30.6580 C   0  0  0  0  0  0  0  0  0  0  0  0
   -7.6540   23.3530  -31.1720 C   0  0  0  0  0  0  0  0  0  0  0  0
   -7.3640   22.1670  -31.8520 C   0  0  0  0  0  0  0  0  0  0  0  0
   -6.0300   21.7610  -32.0350 C   0  0  0  0  0  0  0  0  0  0  0  0
   -5.7190   20.5010  -32.7580 C   0  0  0  0  0  0  0  0  0  0  0  0
   -4.3920   20.1870  -33.1080 C   0  0  0  0  0  0  0  0  0  0  0  0
   -4.1010   18.9970  -33.7830 C   0  0  0  0  0  0  0  0  0  0  0  0
   -5.1280   18.1090  -34.1140 C   0  0  0  0  0  0  0  0  0  0  0  0
   -6.4490   18.4110  -33.7730 C   0  0  0  0  0  0  0  0  0  0  0  0
   -6.7450   19.5990  -33.0990 C   0  0  0  0  0  0  0  0  0  0  0  0
   -4.9970   22.5620  -31.5190 C   0  0  0  0  0  0  0  0  0  0  0  0
    0.3800   26.3450  -26.4640 C   0  0  0  0  0  0  0  0  0  0  0  0
    1.0580   26.3310  -25.0880 C   0  0  0  0  0  0  0  0  0  0  0  0
   -0.3247   26.5726  -22.1622 H   0  0  0  0  0  0  0  0  0  0  0  0
    0.0005   27.7663  -23.4645 H   0  0  0  0  0  0  0  0  0  0  0  0
   -1.5343   26.8329  -23.4645 H   0  0  0  0  0  0  0  0  0  0  0  0
    0.7930   25.1910  -23.3870 H   0  0  0  0  0  0  0  0  0  0  0  0
   -1.1250   24.0928  -23.7918 H   0  0  0  0  0  0  0  0  0  0  0  0
   -1.7243   25.4114  -24.8788 H   0  0  0  0  0  0  0  0  0  0  0  0
    0.5398   23.4541  -25.5067 H   0  0  0  0  0  0  0  0  0  0  0  0
   -1.1491   23.4104  -26.1702 H   0  0  0  0  0  0  0  0  0  0  0  0
   -1.7415   25.4433  -27.8805 H   0  0  0  0  0  0  0  0  0  0  0  0
   -0.2418   25.3574  -28.9260 H   0  0  0  0  0  0  0  0  0  0  0  0
    0.8461   22.7363  -28.1808 H   0  0  0  0  0  0  0  0  0  0  0  0
    0.3019   20.4049  -28.8575 H   0  0  0  0  0  0  0  0  0  0  0  0
   -2.0070   19.8194  -29.5925 H   0  0  0  0  0  0  0  0  0  0  0  0
   -3.7698   21.5768  -29.6887 H   0  0  0  0  0  0  0  0  0  0  0  0
   -6.8584   25.0753  -30.1295 H   0  0  0  0  0  0  0  0  0  0  0  0
   -8.6999   23.6677  -31.0413 H   0  0  0  0  0  0  0  0  0  0  0  0
   -8.1834   21.5479  -32.2461 H   0  0  0  0  0  0  0  0  0  0  0  0
   -3.5793   20.8816  -32.8491 H   0  0  0  0  0  0  0  0  0  0  0  0
   -3.0616   18.7597  -34.0538 H   0  0  0  0  0  0  0  0  0  0  0  0
   -4.8966   17.1726  -34.6428 H   0  0  0  0  0  0  0  0  0  0  0  0
   -7.2573   17.7126  -34.0355 H   0  0  0  0  0  0  0  0  0  0  0  0
   -7.7868   19.8310  -32.8330 H   0  0  0  0  0  0  0  0  0  0  0  0
   -3.9499   22.2607  -31.6699 H   0  0  0  0  0  0  0  0  0  0  0  0
    1.0580   26.8070  -27.1967 H   0  0  0  0  0  0  0  0  0  0  0  0
   -0.5538   26.9221  -26.3941 H   0  0  0  0  0  0  0  0  0  0  0  0
    1.9817   25.7372  -25.1537 H   0  0  0  0  0  0  0  0  0  0  0  0
    1.2723   27.3722  -24.8052 H   0  0  0  0  0  0  0  0  0  0  0  0
  1  2  1  0
  2  3  1  0
  3  4  1  0
  4  5  1  0
  5  6  1  0
  6  7  1  0
  7  8  2  0
  8  9  1  0
  9 10  2  0
 10 11  1  0
 11 12  2  0
 12 13  1  0
 13 14  1  0
 14 15  2  0
 14 16  1  0
 16 17  2  0
 17 18  1  0
 18 19  2  0
 19 20  1  0
 20 21  1  0
 21 22  2  0
 22 23  1  0
 23 24  2  0
 24 25  1  0
 25 26  2  0
 20 27  2  0
  5 28  1  0
 28 29  1  0
 29  2  1  0
 12  7  1  0
 27 16  1  0
 26 21  1  0
  1 30  1  0
  1 31  1  0
  1 32  1  0
  2 33  1  0
  3 34  1  0
  3 35  1  0
  4 36  1  0
  4 37  1  0
  6 38  1  0
  6 39  1  0
  8 40  1  0
  9 41  1  0
 10 42  1  0
 11 43  1  0
 17 44  1  0
 18 45  1  0
 19 46  1  0
 22 47  1  0
 23 48  1  0
 24 49  1  0
 25 50  1  0
 26 51  1  0
 27 52  1  0
 28 53  1  0
 28 54  1  0
 29 55  1  0
 29 56  1  0
M  CHG  2   2   1  13  -1
M  END
>  <UniqueID>  (39) 
38

>  <SMILES>  (39) 
C[NH+]1CCN(Cc2ccccc2[N-]C(=O)c2cccc(-c3ccccc3)c2)CC1

>  <Energy>  (39) 
86.61025731546083

>  <Genealogy>  (39) 
C[NH+]1CCN(Cc2ccccc2[N-]C(=O)c2cccc(-c3ccccc3)c2)CC1 (protonated)
C[NH+]1CCN(Cc2ccccc2[N-]C(=O)c2cccc(-c3ccccc3)c2)CC1 (3D coordinates assigned)
C[NH+]1CCN(Cc2ccccc2[N-]C(=O)c2cccc(-c3ccccc3)c2)CC1 (nonaromatic ring conformer: 86.61025731546083 kcal/mol)

>  <smiles>  (39) 
CN1CCN(Cc2ccccc2NC(=O)c2cccc(-c3ccccc3)c2)CC1

>  <score_type>  (39) 
oracle

>  <origin>  (39) 
adgpu

>  <m_score__min__energy>  (39) 
-11.210000000000001

>  <m_primary>  (39) 
energy

$$$$
39:0
     RDKit          3D

 33 34  0  0  0  0  0  0  0  0999 V2000
   -6.0520   25.6730  -30.0900 C   0  0  0  0  0  0  0  0  0  0  0  0
   -4.8660   24.7770  -30.2250 C   0  0  0  0  0  0  0  0  0  0  0  0
   -3.7600   24.8660  -29.4610 N   0  0  0  0  0  0  0  0  0  0  0  0
   -2.9080   23.9370  -29.8750 N   0  0  0  0  0  0  0  0  0  0  0  0
   -1.6140   23.7010  -29.2450 C   0  0  0  0  0  0  0  0  0  0  0  0
   -3.4520   23.2310  -30.8910 C   0  0  0  0  0  0  0  0  0  0  0  0
   -2.8100   22.0510  -31.5570 C   0  0  0  0  0  0  0  0  0  0  0  0
   -4.6970   23.7730  -31.1590 C   0  0  0  0  0  0  0  0  0  0  0  0
   -5.6580   23.3510  -32.1320 N   0  0  0  0  0  0  0  0  0  0  0  0
   -7.0130   22.3490  -31.7170 S   0  0  0  0  0  0  0  0  0  0  0  0
   -8.2460   22.9400  -32.3400 O   0  0  0  0  0  0  0  0  0  0  0  0
   -7.1740   22.2960  -30.2240 O   0  0  0  0  0  0  0  0  0  0  0  0
   -6.7630   20.6980  -32.3030 C   0  0  0  0  0  0  0  0  0  0  0  0
   -5.4640   20.2640  -32.6180 C   0  0  0  0  0  0  0  0  0  0  0  0
   -5.2410   18.9630  -33.0770 C   0  0  0  0  0  0  0  0  0  0  0  0
   -6.3110   18.0770  -33.2150 C   0  0  0  0  0  0  0  0  0  0  0  0
   -6.0030   16.2980  -33.8400 Br  0  0  0  0  0  0  0  0  0  0  0  0
   -7.6040   18.4870  -32.8850 C   0  0  0  0  0  0  0  0  0  0  0  0
   -7.8380   19.7890  -32.4230 C   0  0  0  0  0  0  0  0  0  0  0  0
   -9.4860   20.2250  -31.9810 Cl  0  0  0  0  0  0  0  0  0  0  0  0
   -6.2685   25.8366  -29.0240 H   0  0  0  0  0  0  0  0  0  0  0  0
   -5.8394   26.6380  -30.5733 H   0  0  0  0  0  0  0  0  0  0  0  0
   -6.9222   25.2048  -30.5733 H   0  0  0  0  0  0  0  0  0  0  0  0
   -1.7294   23.7220  -28.1513 H   0  0  0  0  0  0  0  0  0  0  0  0
   -1.2295   22.7179  -29.5543 H   0  0  0  0  0  0  0  0  0  0  0  0
   -0.9072   24.4850  -29.5543 H   0  0  0  0  0  0  0  0  0  0  0  0
   -2.4328   21.3578  -30.7907 H   0  0  0  0  0  0  0  0  0  0  0  0
   -3.5520   21.5355  -32.1845 H   0  0  0  0  0  0  0  0  0  0  0  0
   -1.9741   22.3940  -32.1845 H   0  0  0  0  0  0  0  0  0  0  0  0
   -5.4230   23.4560  -33.1440 H   0  0  0  0  0  0  0  0  0  0  0  0
   -4.6154   20.9543  -32.5023 H   0  0  0  0  0  0  0  0  0  0  0  0
   -4.2214   18.6367  -33.3298 H   0  0  0  0  0  0  0  0  0  0  0  0
   -8.4438   17.7841  -32.9882 H   0  0  0  0  0  0  0  0  0  0  0  0
  1  2  1  0
  2  3  2  0
  3  4  1  0
  4  5  1  0
  4  6  1  0
  6  7  1  0
  6  8  2  0
  8  9  1  0
  9 10  1  0
 10 11  2  0
 10 12  2  0
 10 13  1  0
 13 14  2  0
 14 15  1  0
 15 16  2  0
 16 17  1  0
 16 18  1  0
 18 19  2  0
 19 20  1  0
  8  2  1  0
 19 13  1  0
  1 21  1  0
  1 22  1  0
  1 23  1  0
  5 24  1  0
  5 25  1  0
  5 26  1  0
  7 27  1  0
  7 28  1  0
  7 29  1  0
  9 30  1  0
 14 31  1  0
 15 32  1  0
 18 33  1  0
M  END
>  <UniqueID>  (40) 
39

>  <SMILES>  (40) 
Cc1nn(C)c(C)c1NS(=O)(=O)c1ccc(Br)cc1Cl

>  <Energy>  (40) 
69.5188606541639

>  <Genealogy>  (40) 
Cc1nn(C)c(C)c1NS(=O)(=O)c1ccc(Br)cc1Cl (3D coordinates assigned)
Cc1nn(C)c(C)c1NS(=O)(=O)c1ccc(Br)cc1Cl (optimized conformer: 69.5188606541639 kcal/mol)

>  <smiles>  (40) 
Cc1nn(C)c(C)c1NS(=O)(=O)c1ccc(Br)cc1Cl

>  <score_type>  (40) 
oracle

>  <origin>  (40) 
adgpu

>  <m_score__min__energy>  (40) 
-8.3000000000000007

>  <m_primary>  (40) 
energy

$$$$
40:0
     RDKit          3D

 48 52  0  0  1  0  0  0  0  0999 V2000
   -6.1010   25.2850  -31.5920 O   0  0  0  0  0  0  0  0  0  0  0  0
   -5.4530   24.2390  -31.2330 C   0  0  0  0  0  0  0  0  0  0  0  0
   -4.1420   24.3390  -30.6950 N   0  0  0  0  0  0  0  0  0  0  0  0
   -3.9250   24.4140  -29.4250 C   0  0  0  0  0  0  0  0  0  0  0  0
   -2.7370   24.5130  -28.8040 N   0  0  0  0  0  0  0  0  0  0  0  0
   -2.9140   24.5720  -27.4700 C   0  0  0  0  0  0  0  0  0  0  0  0
   -1.8960   24.6880  -26.4170 C   0  0  0  0  0  0  0  0  0  0  0  0
   -1.0010   23.6530  -26.2600 C   0  0  0  0  0  0  0  0  0  0  0  0
   -0.0090   23.6990  -25.2760 C   0  0  0  0  0  0  0  0  0  0  0  0
    0.0210   24.8340  -24.4760 C   0  0  0  0  0  0  0  0  0  0  0  0
   -0.8850   25.8740  -24.6410 C   0  0  0  0  0  0  0  0  0  0  0  0
   -1.8610   25.8150  -25.6200 C   0  0  0  0  0  0  0  0  0  0  0  0
   -4.2440   24.5070  -27.2630 N   0  0  0  0  0  0  0  0  0  0  0  0
   -4.8400   24.4120  -28.4520 N   0  0  0  0  0  0  0  0  0  0  0  0
   -6.1570   22.9780  -31.4190 C   0  0  0  0  0  0  0  0  0  0  0  0
   -5.4330   21.8090  -31.3970 C   0  0  0  0  0  0  0  0  0  0  0  0
   -6.0220   20.5660  -31.5660 C   0  0  0  0  0  0  0  0  0  0  0  0
   -7.3890   20.5220  -31.7620 C   0  0  0  0  0  0  0  0  0  0  0  0
   -8.1630   21.6690  -31.7930 C   0  0  0  0  0  0  0  0  0  0  0  0
   -9.4640   21.3010  -32.0020 C   0  0  0  0  0  0  0  0  0  0  0  0
   -9.4840   19.9660  -32.0970 N   0  0  0  0  0  0  0  0  0  0  0  0
   -8.2380   19.4920  -31.9530 N   0  0  0  0  0  0  0  0  0  0  0  0
   -7.9580   18.0690  -32.0170 C   0  0  0  0  0  0  0  0  0  0  0  0
   -6.7160   17.8390  -32.8320 C   0  0  0  0  0  0  0  0  0  0  0  0
   -6.4840   18.5620  -33.9870 C   0  0  0  0  0  0  0  0  0  0  0  0
   -5.3420   18.3620  -34.7510 C   0  0  0  0  0  0  0  0  0  0  0  0
   -4.4530   17.4180  -34.3140 C   0  0  0  0  0  0  0  0  0  0  0  0
   -4.6260   16.6650  -33.1710 C   0  0  0  0  0  0  0  0  0  0  0  0
   -5.7880   16.8910  -32.4240 C   0  0  0  0  0  0  0  0  0  0  0  0
   -7.5190   22.8880  -31.6180 C   0  0  0  0  0  0  0  0  0  0  0  0
   -1.0678   22.7755  -26.9199 H   0  0  0  0  0  0  0  0  0  0  0  0
    0.7110   22.8782  -25.1422 H   0  0  0  0  0  0  0  0  0  0  0  0
    0.7849   24.9117  -23.6883 H   0  0  0  0  0  0  0  0  0  0  0  0
   -0.8258   26.7552  -23.9853 H   0  0  0  0  0  0  0  0  0  0  0  0
   -2.5815   26.6346  -25.7581 H   0  0  0  0  0  0  0  0  0  0  0  0
   -4.7630   24.5270  -26.3350 H   0  0  0  0  0  0  0  0  0  0  0  0
   -5.8740   24.3450  -28.5550 H   0  0  0  0  0  0  0  0  0  0  0  0
   -4.3457   21.8626  -31.2394 H   0  0  0  0  0  0  0  0  0  0  0  0
   -5.4211   19.6449  -31.5448 H   0  0  0  0  0  0  0  0  0  0  0  0
  -10.3301   21.9750  -32.0777 H   0  0  0  0  0  0  0  0  0  0  0  0
   -7.8065   17.6790  -30.9997 H   0  0  0  0  0  0  0  0  0  0  0  0
   -8.8062   17.5491  -32.4864 H   0  0  0  0  0  0  0  0  0  0  0  0
   -7.2209   19.3129  -34.3082 H   0  0  0  0  0  0  0  0  0  0  0  0
   -5.1594   18.9387  -35.6698 H   0  0  0  0  0  0  0  0  0  0  0  0
   -3.5445   17.2491  -34.9108 H   0  0  0  0  0  0  0  0  0  0  0  0
   -3.8813   15.9177  -32.8595 H   0  0  0  0  0  0  0  0  0  0  0  0
   -5.9672   16.3124  -31.5058 H   0  0  0  0  0  0  0  0  0  0  0  0
   -8.1154   23.8121  -31.6389 H   0  0  0  0  0  0  0  0  0  0  0  0
  1  2  2  0
  2  3  1  0
  3  4  2  0
  4  5  1  0
  5  6  2  0
  6  7  1  0
  7  8  2  0
  8  9  1  0
  9 10  2  0
 10 11  1  0
 11 12  2  0
  6 13  1  0
 13 14  1  0
  2 15  1  0
 15 16  2  0
 16 17  1  0
 17 18  2  0
 18 19  1  0
 19 20  1  0
 20 21  2  0
 21 22  1  0
 22 23  1  0
 23 24  1  0
 24 25  2  0
 25 26  1  0
 26 27  2  0
 27 28  1  0
 28 29  2  0
 19 30  2  0
 14  4  1  0
 30 15  1  0
 12  7  1  0
 22 18  1  0
 29 24  1  0
  8 31  1  0
  9 32  1  0
 10 33  1  0
 11 34  1  0
 12 35  1  0
 13 36  1  0
 14 37  1  0
 16 38  1  0
 17 39  1  0
 20 40  1  0
 23 41  1  0
 23 42  1  0
 25 43  1  0
 26 44  1  0
 27 45  1  0
 28 46  1  0
 29 47  1  0
 30 48  1  0
M  END
>  <smiles>  (41) 
O=C(N=c1nc(-c2ccccc2)[nH][nH]1)c1ccc2c(cnn2Cc2ccccc2)c1

>  <score_type>  (41) 
oracle

>  <origin>  (41) 
adgpu

>  <m_score__min__energy>  (41) 
-10.779999999999999

>  <m_primary>  (41) 
energy

$$$$
41:0
     RDKit          3D

 40 41  0  0  0  0  0  0  0  0999 V2000
   -0.7450   19.4430  -27.4460 C   0  0  0  0  0  0  0  0  0  0  0  0
   -0.5000   20.8230  -27.6960 O   0  0  0  0  0  0  0  0  0  0  0  0
   -1.4980   21.7770  -27.9470 C   0  0  0  0  0  0  0  0  0  0  0  0
   -2.8330   21.3830  -27.8310 C   0  0  0  0  0  0  0  0  0  0  0  0
   -3.8640   22.2910  -28.0720 C   0  0  0  0  0  0  0  0  0  0  0  0
   -3.5780   23.6170  -28.4380 C   0  0  0  0  0  0  0  0  0  0  0  0
   -4.6390   24.5530  -28.6910 N   0  0  0  0  0  0  0  0  0  0  0  0
   -5.3260   24.7830  -30.2670 S   0  0  0  0  0  0  0  0  0  0  0  0
   -4.3160   25.4450  -31.1620 O   0  0  0  0  0  0  0  0  0  0  0  0
   -6.5240   25.6860  -30.1540 O   0  0  0  0  0  0  0  0  0  0  0  0
   -5.7780   23.2160  -30.9620 C   0  0  0  0  0  0  0  0  0  0  0  0
   -7.1330   22.8430  -30.9700 C   0  0  0  0  0  0  0  0  0  0  0  0
   -7.5380   21.6000  -31.4830 C   0  0  0  0  0  0  0  0  0  0  0  0
   -8.9260   21.2180  -31.4770 N   0  0  0  0  0  0  0  0  0  0  0  0
   -9.3360   20.2890  -32.2030 O   0  0  0  0  0  0  0  0  0  0  0  0
   -9.8290   21.8790  -30.6750 O   0  0  0  0  0  0  0  0  0  0  0  0
   -6.5680   20.7280  -31.9980 C   0  0  0  0  0  0  0  0  0  0  0  0
   -5.2200   21.0860  -31.9940 C   0  0  0  0  0  0  0  0  0  0  0  0
   -4.8060   22.3240  -31.4780 C   0  0  0  0  0  0  0  0  0  0  0  0
   -3.3390   22.6640  -31.4880 C   0  0  0  0  0  0  0  0  0  0  0  0
   -2.2370   24.0300  -28.5530 C   0  0  0  0  0  0  0  0  0  0  0  0
   -1.9690   25.3570  -28.9280 O   0  0  0  0  0  0  0  0  0  0  0  0
   -1.1360   26.2520  -28.2000 C   0  0  0  0  0  0  0  0  0  0  0  0
   -1.2020   23.1050  -28.3060 C   0  0  0  0  0  0  0  0  0  0  0  0
   -0.7763   19.2669  -26.3606 H   0  0  0  0  0  0  0  0  0  0  0  0
   -1.7083   19.1549  -27.8921 H   0  0  0  0  0  0  0  0  0  0  0  0
    0.0603   18.8409  -27.8921 H   0  0  0  0  0  0  0  0  0  0  0  0
   -3.0733   20.3478  -27.5472 H   0  0  0  0  0  0  0  0  0  0  0  0
   -4.9104   21.9660  -27.9746 H   0  0  0  0  0  0  0  0  0  0  0  0
   -4.9050   25.2440  -27.9540 H   0  0  0  0  0  0  0  0  0  0  0  0
   -7.8877   23.5351  -30.5684 H   0  0  0  0  0  0  0  0  0  0  0  0
   -6.8727   19.7539  -32.4084 H   0  0  0  0  0  0  0  0  0  0  0  0
   -4.4719   20.3894  -32.4003 H   0  0  0  0  0  0  0  0  0  0  0  0
   -2.9751   22.7483  -30.4534 H   0  0  0  0  0  0  0  0  0  0  0  0
   -2.7824   21.8711  -32.0090 H   0  0  0  0  0  0  0  0  0  0  0  0
   -3.1879   23.6210  -32.0090 H   0  0  0  0  0  0  0  0  0  0  0  0
   -1.2828   26.0942  -27.1213 H   0  0  0  0  0  0  0  0  0  0  0  0
   -0.0832   26.0649  -28.4580 H   0  0  0  0  0  0  0  0  0  0  0  0
   -1.3981   27.2887  -28.4580 H   0  0  0  0  0  0  0  0  0  0  0  0
   -0.1532   23.4245  -28.3948 H   0  0  0  0  0  0  0  0  0  0  0  0
  1  2  1  0
  2  3  1  0
  3  4  2  0
  4  5  1  0
  5  6  2  0
  6  7  1  0
  7  8  1  0
  8  9  2  0
  8 10  2  0
  8 11  1  0
 11 12  2  0
 12 13  1  0
 13 14  1  0
 14 15  2  0
 14 16  1  0
 13 17  2  0
 17 18  1  0
 18 19  2  0
 19 20  1  0
  6 21  1  0
 21 22  1  0
 22 23  1  0
 21 24  2  0
 24  3  1  0
 19 11  1  0
  1 25  1  0
  1 26  1  0
  1 27  1  0
  4 28  1  0
  5 29  1  0
  7 30  1  0
 12 31  1  0
 17 32  1  0
 18 33  1  0
 20 34  1  0
 20 35  1  0
 20 36  1  0
 23 37  1  0
 23 38  1  0
 23 39  1  0
 24 40  1  0
M  CHG  2  14   1  16  -1
M  END
>  <UniqueID>  (42) 
40

>  <SMILES>  (42) 
COc1ccc(NS(=O)(=O)c2cc([N+](=O)[O-])ccc2C)c(OC)c1

>  <Energy>  (42) 
44.6779331993139

>  <Genealogy>  (42) 
COc1ccc(NS(=O)(=O)c2cc([N+](=O)[O-])ccc2C)c(OC)c1 (3D coordinates assigned)
COc1ccc(NS(=O)(=O)c2cc([N+](=O)[O-])ccc2C)c(OC)c1 (optimized conformer: 44.6779331993139 kcal/mol)

>  <smiles>  (42) 
COc1ccc(NS(=O)(=O)c2cc([N+](=O)[O-])ccc2C)c(OC)c1

>  <score_type>  (42) 
oracle

>  <origin>  (42) 
adgpu

>  <m_score__min__energy>  (42) 
-8.6199999999999992

>  <m_primary>  (42) 
energy

$$$$
42:0
     RDKit          3D

 38 41  0  0  1  0  0  0  0  0999 V2000
   -2.0670   21.3470  -30.5050 N   0  0  0  0  0  0  0  0  0  0  0  0
   -1.3440   22.4760  -28.0930 C   0  0  0  0  0  0  0  0  0  0  0  0
   -3.5260   23.0490  -30.8420 C   0  0  0  0  0  0  0  0  0  0  0  0
   -3.8840   22.5110  -32.0120 C   0  0  0  0  0  0  0  0  0  0  0  0
   -3.2700   21.2970  -32.4380 N   0  0  0  0  0  0  0  0  0  0  0  0
   -4.1150   20.2000  -32.7700 C   0  0  0  0  0  0  0  0  0  0  0  0
   -3.6170   19.0900  -33.4220 C   0  0  0  0  0  0  0  0  0  0  0  0
   -4.4600   18.0380  -33.7320 C   0  0  0  0  0  0  0  0  0  0  0  0
   -5.8120   18.0600  -33.4060 C   0  0  0  0  0  0  0  0  0  0  0  0
   -6.8510   16.7020  -33.8180 Cl  0  0  0  0  0  0  0  0  0  0  0  0
   -6.3130   19.1750  -32.7500 C   0  0  0  0  0  0  0  0  0  0  0  0
   -5.4590   20.2020  -32.4550 C   0  0  0  0  0  0  0  0  0  0  0  0
   -4.1350   24.2070  -30.4740 C   0  0  0  0  0  0  0  0  0  0  0  0
   -5.0040   24.7860  -31.1680 O   0  0  0  0  0  0  0  0  0  0  0  0
   -3.7990   24.7760  -29.3020 N   0  0  0  0  0  0  0  0  0  0  0  0
   -2.8580   24.1790  -28.5140 C   0  0  0  0  0  0  0  0  0  0  0  0
   -2.5780   24.8050  -27.3670 N   0  0  0  0  0  0  0  0  0  0  0  0
   -1.6630   24.2860  -26.5290 C   0  0  0  0  0  0  0  0  0  0  0  0
   -1.3500   24.9170  -25.3230 C   0  0  0  0  0  0  0  0  0  0  0  0
   -0.4000   24.3480  -24.4910 C   0  0  0  0  0  0  0  0  0  0  0  0
    0.2240   23.1760  -24.8520 C   0  0  0  0  0  0  0  0  0  0  0  0
   -0.0930   22.5590  -26.0470 C   0  0  0  0  0  0  0  0  0  0  0  0
   -1.0480   23.1120  -26.9080 C   0  0  0  0  0  0  0  0  0  0  0  0
   -2.5540   22.4110  -30.0530 C   0  0  0  0  0  0  0  0  0  0  0  0
   -0.7270   21.4150  -28.3400 O   0  0  0  0  0  0  0  0  0  0  0  0
   -2.2630   23.0260  -28.9010 N   0  0  0  0  0  0  0  0  0  0  0  0
   -1.4100   20.6520  -30.2730 H   0  0  0  0  0  0  0  0  0  0  0  0
   -4.6441   22.9996  -32.6393 H   0  0  0  0  0  0  0  0  0  0  0  0
   -2.2370   21.1700  -32.5210 H   0  0  0  0  0  0  0  0  0  0  0  0
   -2.5523   19.0421  -33.6944 H   0  0  0  0  0  0  0  0  0  0  0  0
   -4.0496   17.1592  -34.2510 H   0  0  0  0  0  0  0  0  0  0  0  0
   -7.3759   19.2321  -32.4726 H   0  0  0  0  0  0  0  0  0  0  0  0
   -5.8674   21.0817  -31.9360 H   0  0  0  0  0  0  0  0  0  0  0  0
   -4.2570   25.6720  -28.9970 H   0  0  0  0  0  0  0  0  0  0  0  0
   -1.8514   25.8536  -25.0376 H   0  0  0  0  0  0  0  0  0  0  0  0
   -0.1435   24.8347  -23.5385 H   0  0  0  0  0  0  0  0  0  0  0  0
    0.9776   22.7288  -24.1871 H   0  0  0  0  0  0  0  0  0  0  0  0
    0.4113   21.6218  -26.3251 H   0  0  0  0  0  0  0  0  0  0  0  0
  1  2  2  0
  2  3  1  0
  3  4  2  0
  4  5  1  0
  5  6  1  0
  6  7  2  0
  7  8  1  0
  8  9  2  0
  9 10  1  0
  9 11  1  0
 11 12  2  0
  3 13  1  0
 13 14  2  0
 13 15  1  0
 15 16  1  0
 16 17  2  0
 17 18  1  0
 18 19  2  0
 19 20  1  0
 20 21  2  0
 21 22  1  0
 22 23  2  0
 23 24  1  0
 24 25  2  0
 24 26  1  0
 26  2  1  0
 12  6  1  0
 26 16  1  0
 23 18  1  0
  1 27  1  0
  4 28  1  0
  5 29  1  0
  7 30  1  0
  8 31  1  0
 11 32  1  0
 12 33  1  0
 15 34  1  0
 19 35  1  0
 20 36  1  0
 21 37  1  0
 22 38  1  0
M  END
>  <smiles>  (43) 
N=c1c(=CNc2ccc(Cl)cc2)c(=O)[nH]c2nc3ccccc3c(=O)n12

>  <score_type>  (43) 
oracle

>  <origin>  (43) 
adgpu

>  <m_score__min__energy>  (43) 
-9.3499999999999996

>  <m_primary>  (43) 
energy

$$$$
43:0
     RDKit          3D

 33 35  0  0  0  0  0  0  0  0999 V2000
   -0.2500   26.9060  -28.3360 H   0  0  0  0  0  0  0  0  0  0  0  0
   -0.8840   26.3610  -28.9640 N   0  0  0  0  0  0  0  0  0  0  0  0
   -1.8170   25.5870  -28.5070 C   0  0  0  0  0  0  0  0  0  0  0  0
   -2.6060   24.9050  -29.3800 N   0  0  0  0  0  0  0  0  0  0  0  0
   -3.6040   24.0720  -28.9690 C   0  0  0  0  0  0  0  0  0  0  0  0
   -4.4270   23.3660  -29.9850 C   0  0  0  0  0  0  0  0  0  0  0  0
   -5.8300   23.4120  -29.9040 C   0  0  0  0  0  0  0  0  0  0  0  0
   -6.3109   23.9668  -29.0849 H   0  0  0  0  0  0  0  0  0  0  0  0
   -6.6190   22.7590  -30.8550 C   0  0  0  0  0  0  0  0  0  0  0  0
   -7.7155   22.8053  -30.7807 H   0  0  0  0  0  0  0  0  0  0  0  0
   -6.0200   22.0440  -31.9050 C   0  0  0  0  0  0  0  0  0  0  0  0
   -6.7790   21.3900  -32.8860 O   0  0  0  0  0  0  0  0  0  0  0  0
   -6.8510   20.0010  -33.0680 C   0  0  0  0  0  0  0  0  0  0  0  0
   -6.0500   19.4090  -34.0520 C   0  0  0  0  0  0  0  0  0  0  0  0
   -5.3909   20.0358  -34.6706 H   0  0  0  0  0  0  0  0  0  0  0  0
   -6.0830   18.0250  -34.2530 C   0  0  0  0  0  0  0  0  0  0  0  0
   -5.4589   17.5684  -35.0353 H   0  0  0  0  0  0  0  0  0  0  0  0
   -6.9080   17.2220  -33.4610 C   0  0  0  0  0  0  0  0  0  0  0  0
   -6.9384   16.1346  -33.6240 H   0  0  0  0  0  0  0  0  0  0  0  0
   -7.6950   17.8020  -32.4610 C   0  0  0  0  0  0  0  0  0  0  0  0
   -8.3387   17.1690  -31.8325 H   0  0  0  0  0  0  0  0  0  0  0  0
   -7.6650   19.1840  -32.2590 C   0  0  0  0  0  0  0  0  0  0  0  0
   -8.2789   19.6356  -31.4658 H   0  0  0  0  0  0  0  0  0  0  0  0
   -4.6260   22.0240  -32.0080 C   0  0  0  0  0  0  0  0  0  0  0  0
   -4.1486   21.4920  -32.8441 H   0  0  0  0  0  0  0  0  0  0  0  0
   -3.8340   22.6740  -31.0580 C   0  0  0  0  0  0  0  0  0  0  0  0
   -2.7382   22.6448  -31.1493 H   0  0  0  0  0  0  0  0  0  0  0  0
   -3.8400   23.9190  -27.5900 C   0  0  0  0  0  0  0  0  0  0  0  0
   -4.6474   23.2613  -27.2358 H   0  0  0  0  0  0  0  0  0  0  0  0
   -3.0420   24.6080  -26.6750 C   0  0  0  0  0  0  0  0  0  0  0  0
   -3.2173   24.4905  -25.5954 H   0  0  0  0  0  0  0  0  0  0  0  0
   -2.0230   25.4450  -27.1280 C   0  0  0  0  0  0  0  0  0  0  0  0
   -1.3884   25.9874  -26.4117 H   0  0  0  0  0  0  0  0  0  0  0  0
  1  2  1  0
  2  3  2  0
  3  4  1  0
  4  5  1  0
  5  6  1  0
  6  7  2  0
  7  8  1  0
  7  9  1  0
  9 10  1  0
  9 11  2  0
 11 12  1  0
 12 13  1  0
 13 14  2  0
 14 15  1  0
 14 16  1  0
 16 17  1  0
 16 18  2  0
 18 19  1  0
 18 20  1  0
 20 21  1  0
 20 22  2  0
 22 23  1  0
 11 24  1  0
 24 25  1  0
 24 26  2  0
 26 27  1  0
  5 28  2  0
 28 29  1  0
 28 30  1  0
 30 31  1  0
 30 32  2  0
 32 33  1  0
 32  3  1  0
 26  6  1  0
 22 13  1  0
M  CHG  1   4  -1
M  END
>  <UniqueID>  (44) 
41

>  <SMILES>  (44) 
[H]/N=c1\cccc(-c2ccc(Oc3ccccc3)cc2)[n-]1

>  <Energy>  (44) 
47.30244632611899

>  <Genealogy>  (44) 
N=c1cccc(-c2ccc(Oc3ccccc3)cc2)[n-]1 (protonated)
[H]/N=c1\cccc(-c2ccc(Oc3ccccc3)cc2)[n-]1 (cis-trans isomerization)
[H]/N=c1\cccc(-c2ccc(Oc3ccccc3)cc2)[n-]1 (3D coordinates assigned)
[H]/N=c1\cccc(-c2ccc(Oc3ccccc3)cc2)[n-]1 (optimized conformer: 47.30244632611899 kcal/mol)

>  <smiles>  (44) 
N=c1cccc(-c2ccc(Oc3ccccc3)cc2)[nH]1

>  <score_type>  (44) 
oracle

>  <origin>  (44) 
adgpu

>  <m_score__min__energy>  (44) 
-9.1400000000000006

>  <m_primary>  (44) 
energy

$$$$
44:0
     RDKit          3D

 30 31  0  0  1  0  0  0  0  0999 V2000
   -8.7820   21.8680  -30.5450 N   0  0  0  0  0  0  0  0  0  0  0  0
   -8.1050   22.5960  -31.2710 N   0  0  0  0  0  0  0  0  0  0  0  0
   -7.4170   23.3100  -32.0090 N   0  0  0  0  0  0  0  0  0  0  0  0
   -6.0100   23.0970  -32.0060 C   0  0  2  0  0  0  0  0  0  0  0  0
   -5.6060   21.6310  -31.8420 C   0  0  0  0  0  0  0  0  0  0  0  0
   -4.2350   21.7790  -31.2250 C   0  0  1  0  0  0  0  0  0  0  0  0
   -3.1990   21.1280  -31.9680 N   0  0  0  0  0  0  0  0  0  0  0  0
   -2.4000   20.2210  -31.3420 C   0  0  0  0  0  0  0  0  0  0  0  0
   -1.4010   19.6010  -32.0850 C   0  0  0  0  0  0  0  0  0  0  0  0
   -3.0190   21.4170  -33.2910 C   0  0  0  0  0  0  0  0  0  0  0  0
   -0.3250   19.3660  -34.1650 N   0  0  0  0  0  0  0  0  0  0  0  0
   -2.0510   20.8050  -33.9760 N   0  0  0  0  0  0  0  0  0  0  0  0
   -1.2280   19.8980  -33.4090 C   0  0  0  0  0  0  0  0  0  0  0  0
   -3.8010   22.2770  -33.8210 O   0  0  0  0  0  0  0  0  0  0  0  0
   -4.0130   23.1590  -31.0860 O   0  0  0  0  0  0  0  0  0  0  0  0
   -5.3000   23.6220  -30.7750 C   0  0  1  0  0  0  0  0  0  0  0  0
   -5.3690   25.1160  -30.6710 C   0  0  0  0  0  0  0  0  0  0  0  0
   -4.0620   25.6020  -30.8230 O   0  0  0  0  0  0  0  0  0  0  0  0
   -5.7441   23.5772  -32.9593 H   0  0  0  0  0  0  0  0  0  0  0  0
   -6.2947   21.0943  -31.1729 H   0  0  0  0  0  0  0  0  0  0  0  0
   -5.6238   21.0480  -32.7746 H   0  0  0  0  0  0  0  0  0  0  0  0
   -4.2047   21.2727  -30.2489 H   0  0  0  0  0  0  0  0  0  0  0  0
   -2.5407   19.9847  -30.2769 H   0  0  0  0  0  0  0  0  0  0  0  0
   -0.7427   18.8636  -31.6025 H   0  0  0  0  0  0  0  0  0  0  0  0
    0.3260   18.6570  -33.7430 H   0  0  0  0  0  0  0  0  0  0  0  0
   -1.9420   21.0500  -34.9850 H   0  0  0  0  0  0  0  0  0  0  0  0
   -5.7053   23.3002  -29.8043 H   0  0  0  0  0  0  0  0  0  0  0  0
   -6.0160   25.5197  -31.4637 H   0  0  0  0  0  0  0  0  0  0  0  0
   -5.7895   25.4214  -29.7015 H   0  0  0  0  0  0  0  0  0  0  0  0
   -3.4810   24.9240  -31.2490 H   0  0  0  0  0  0  0  0  0  0  0  0
  1  2  2  0
  2  3  2  0
  3  4  1  0
  4  5  1  0
  5  6  1  0
  6  7  1  0
  7  8  1  0
  8  9  2  0
  9 10  1  0
 10 11  2  3
 10 12  1  0
 12 13  1  0
 13 14  2  0
  6 15  1  0
 15 16  1  0
 16 17  1  0
 17 18  1  0
 16  4  1  0
 13  7  1  0
  4 19  1  6
  5 20  1  0
  5 21  1  0
  6 22  1  1
  8 23  1  0
  9 24  1  0
 11 25  1  0
 12 26  1  0
 16 27  1  1
 17 28  1  0
 17 29  1  0
 18 30  1  0
M  CHG  2   1  -1   2   1
M  END
>  <smiles>  (45) 
[N-]=[N+]=NC1CC(n2ccc(=N)[nH]c2=O)OC1CO

>  <score_type>  (45) 
oracle

>  <origin>  (45) 
adgpu

>  <m_score__min__energy>  (45) 
-7.0999999999999996

>  <m_primary>  (45) 
energy

$$$$
45:0
     RDKit          3D

 32 34  0  0  0  0  0  0  0  0999 V2000
   -9.9380   18.9570  -33.0850 N   0  0  0  0  0  0  0  0  0  0  0  0
   -9.0720   19.6360  -32.7270 C   0  0  0  0  0  0  0  0  0  0  0  0
   -7.9900   20.4860  -32.2780 C   0  0  0  0  0  0  0  0  0  0  0  0
   -6.6420   20.0740  -32.3810 C   0  0  0  0  0  0  0  0  0  0  0  0
   -6.2580   18.7870  -33.0120 C   0  0  0  0  0  0  0  0  0  0  0  0
   -5.7650   18.7660  -34.3290 C   0  0  0  0  0  0  0  0  0  0  0  0
   -5.4150   17.5540  -34.9320 C   0  0  0  0  0  0  0  0  0  0  0  0
   -5.5600   16.3550  -34.2310 C   0  0  0  0  0  0  0  0  0  0  0  0
   -6.0600   16.3640  -32.9260 C   0  0  0  0  0  0  0  0  0  0  0  0
   -6.4110   17.5740  -32.3180 C   0  0  0  0  0  0  0  0  0  0  0  0
   -5.6330   20.9070  -31.8740 C   0  0  0  0  0  0  0  0  0  0  0  0
   -5.9650   22.1360  -31.2820 C   0  0  0  0  0  0  0  0  0  0  0  0
   -4.9250   23.0490  -30.7430 C   0  0  0  0  0  0  0  0  0  0  0  0
   -5.1930   24.4260  -30.6250 C   0  0  0  0  0  0  0  0  0  0  0  0
   -4.2260   25.2980  -30.1140 C   0  0  0  0  0  0  0  0  0  0  0  0
   -2.9840   24.8050  -29.7050 C   0  0  0  0  0  0  0  0  0  0  0  0
   -2.0250   25.6730  -29.1970 O   0  0  0  0  0  0  0  0  0  0  0  0
   -2.7080   23.4400  -29.8060 C   0  0  0  0  0  0  0  0  0  0  0  0
   -3.6720   22.5640  -30.3180 C   0  0  0  0  0  0  0  0  0  0  0  0
   -7.2720   22.5080  -31.2200 N   0  0  0  0  0  0  0  0  0  0  0  0
   -8.2780   21.7280  -31.6900 C   0  0  0  0  0  0  0  0  0  0  0  0
   -9.4690   22.1310  -31.5900 O   0  0  0  0  0  0  0  0  0  0  0  0
   -5.6543   19.7073  -34.8872 H   0  0  0  0  0  0  0  0  0  0  0  0
   -5.0247   17.5450  -35.9604 H   0  0  0  0  0  0  0  0  0  0  0  0
   -5.2806   15.4031  -34.7061 H   0  0  0  0  0  0  0  0  0  0  0  0
   -6.1777   15.4185  -32.3763 H   0  0  0  0  0  0  0  0  0  0  0  0
   -6.8085   17.5764  -31.2923 H   0  0  0  0  0  0  0  0  0  0  0  0
   -4.5798   20.5965  -31.9405 H   0  0  0  0  0  0  0  0  0  0  0  0
   -6.1715   24.8197  -30.9374 H   0  0  0  0  0  0  0  0  0  0  0  0
   -4.4435   26.3733  -30.0340 H   0  0  0  0  0  0  0  0  0  0  0  0
   -1.7308   23.0523  -29.4824 H   0  0  0  0  0  0  0  0  0  0  0  0
   -3.4500   21.4890  -30.3892 H   0  0  0  0  0  0  0  0  0  0  0  0
  1  2  3  0
  2  3  1  0
  3  4  2  0
  4  5  1  0
  5  6  2  0
  6  7  1  0
  7  8  2  0
  8  9  1  0
  9 10  2  0
  4 11  1  0
 11 12  2  0
 12 13  1  0
 13 14  2  0
 14 15  1  0
 15 16  2  0
 16 17  1  0
 16 18  1  0
 18 19  2  0
 12 20  1  0
 20 21  1  0
 21 22  2  0
 21  3  1  0
 10  5  1  0
 19 13  1  0
  6 23  1  0
  7 24  1  0
  8 25  1  0
  9 26  1  0
 10 27  1  0
 11 28  1  0
 14 29  1  0
 15 30  1  0
 18 31  1  0
 19 32  1  0
M  CHG  2  17  -1  20  -1
M  END
>  <UniqueID>  (46) 
42

>  <SMILES>  (46) 
N#Cc1c(-c2ccccc2)cc(-c2ccc([O-])cc2)[n-]c1=O

>  <Energy>  (46) 
47.774344173365876

>  <Genealogy>  (46) 
N#Cc1c(-c2ccccc2)cc(-c2ccc([O-])cc2)[n-]c1=O (protonated)
N#Cc1c(-c2ccccc2)cc(-c2ccc([O-])cc2)[n-]c1=O (3D coordinates assigned)
N#Cc1c(-c2ccccc2)cc(-c2ccc([O-])cc2)[n-]c1=O (optimized conformer: 47.774344173365876 kcal/mol)

>  <smiles>  (46) 
N#Cc1c(-c2ccccc2)cc(-c2ccc(O)cc2)[nH]c1=O

>  <score_type>  (46) 
oracle

>  <origin>  (46) 
adgpu

>  <m_score__min__energy>  (46) 
-10.92

>  <m_primary>  (46) 
energy

$$$$
46:0
     RDKit          3D

 36 38  0  0  0  0  0  0  0  0999 V2000
   -6.6350   20.1550  -34.1930 N   0  0  0  0  0  0  0  0  0  0  0  0
   -6.8340   19.3650  -33.0470 N   0  0  0  0  0  0  0  0  0  0  0  0
   -7.9490   19.2860  -32.3040 C   0  0  0  0  0  0  0  0  0  0  0  0
   -9.5150   20.0640  -32.7030 S   0  0  0  0  0  0  0  0  0  0  0  0
   -9.4810   21.2070  -31.2790 C   0  0  0  0  0  0  0  0  0  0  0  0
   -8.1830   21.9670  -31.2290 C   0  0  0  0  0  0  0  0  0  0  0  0
   -7.3970   21.9450  -30.0680 C   0  0  0  0  0  0  0  0  0  0  0  0
   -6.2050   22.6720  -30.0060 C   0  0  0  0  0  0  0  0  0  0  0  0
   -5.7800   23.4410  -31.1070 C   0  0  0  0  0  0  0  0  0  0  0  0
   -4.5550   24.1930  -31.0470 N   0  0  0  0  0  0  0  0  0  0  0  0
   -3.4500   23.6200  -31.1440 O   0  0  0  0  0  0  0  0  0  0  0  0
   -4.5810   25.5590  -30.8830 O   0  0  0  0  0  0  0  0  0  0  0  0
   -6.5740   23.4630  -32.2670 C   0  0  0  0  0  0  0  0  0  0  0  0
   -7.7650   22.7340  -32.3270 C   0  0  0  0  0  0  0  0  0  0  0  0
   -7.7390   18.5580  -31.1890 N   0  0  0  0  0  0  0  0  0  0  0  0
   -6.4720   18.1640  -31.2180 N   0  0  0  0  0  0  0  0  0  0  0  0
   -5.9250   18.6540  -32.3510 C   0  0  0  0  0  0  0  0  0  0  0  0
   -4.5260   18.4050  -32.7500 C   0  0  0  0  0  0  0  0  0  0  0  0
   -3.5880   19.4510  -32.7910 C   0  0  0  0  0  0  0  0  0  0  0  0
   -2.2730   19.2030  -33.1970 C   0  0  0  0  0  0  0  0  0  0  0  0
   -1.8880   17.9160  -33.5780 C   0  0  0  0  0  0  0  0  0  0  0  0
   -2.8190   16.8750  -33.5630 C   0  0  0  0  0  0  0  0  0  0  0  0
   -4.1350   17.1180  -33.1580 C   0  0  0  0  0  0  0  0  0  0  0  0
   -5.9520   20.9430  -34.1910 H   0  0  0  0  0  0  0  0  0  0  0  0
   -7.2290   20.0180  -35.0400 H   0  0  0  0  0  0  0  0  0  0  0  0
  -10.3127   21.9210  -31.3708 H   0  0  0  0  0  0  0  0  0  0  0  0
   -9.5787   20.6187  -30.3547 H   0  0  0  0  0  0  0  0  0  0  0  0
   -7.7208   21.3516  -29.2002 H   0  0  0  0  0  0  0  0  0  0  0  0
   -5.5946   22.6435  -29.0913 H   0  0  0  0  0  0  0  0  0  0  0  0
   -6.2552   24.0590  -33.1348 H   0  0  0  0  0  0  0  0  0  0  0  0
   -8.3779   22.7617  -33.2400 H   0  0  0  0  0  0  0  0  0  0  0  0
   -3.8895   20.4688  -32.5026 H   0  0  0  0  0  0  0  0  0  0  0  0
   -1.5405   20.0234  -33.2163 H   0  0  0  0  0  0  0  0  0  0  0  0
   -0.8512   17.7220  -33.8900 H   0  0  0  0  0  0  0  0  0  0  0  0
   -2.5166   15.8630  -33.8701 H   0  0  0  0  0  0  0  0  0  0  0  0
   -4.8680   16.2979  -33.1587 H   0  0  0  0  0  0  0  0  0  0  0  0
  1  2  1  0
  2  3  1  0
  3  4  1  0
  4  5  1  0
  5  6  1  0
  6  7  2  0
  7  8  1  0
  8  9  2  0
  9 10  1  0
 10 11  2  0
 10 12  1  0
  9 13  1  0
 13 14  2  0
  3 15  2  0
 15 16  1  0
 16 17  2  0
 17 18  1  0
 18 19  2  0
 19 20  1  0
 20 21  2  0
 21 22  1  0
 22 23  2  0
 17  2  1  0
 23 18  1  0
 14  6  1  0
  1 24  1  0
  1 25  1  0
  5 26  1  0
  5 27  1  0
  7 28  1  0
  8 29  1  0
 13 30  1  0
 14 31  1  0
 19 32  1  0
 20 33  1  0
 21 34  1  0
 22 35  1  0
 23 36  1  0
M  CHG  2  10   1  12  -1
M  END
>  <UniqueID>  (47) 
43

>  <SMILES>  (47) 
Nn1c(SCc2ccc([N+](=O)[O-])cc2)nnc1-c1ccccc1

>  <Energy>  (47) 
75.79254866839177

>  <Genealogy>  (47) 
Nn1c(SCc2ccc([N+](=O)[O-])cc2)nnc1-c1ccccc1 (3D coordinates assigned)
Nn1c(SCc2ccc([N+](=O)[O-])cc2)nnc1-c1ccccc1 (optimized conformer: 75.79254866839177 kcal/mol)

>  <smiles>  (47) 
Nn1c(SCc2ccc([N+](=O)[O-])cc2)nnc1-c1ccccc1

>  <score_type>  (47) 
oracle

>  <origin>  (47) 
adgpu

>  <m_score__min__energy>  (47) 
-8.8599999999999994

>  <m_primary>  (47) 
energy

$$$$
47:0
     RDKit          3D

 31 33  0  0  0  0  0  0  0  0999 V2000
   -5.5230   26.3930  -30.4820 O   0  0  0  0  0  0  0  0  0  0  0  0
   -4.9140   25.3030  -30.6590 C   0  0  0  0  0  0  0  0  0  0  0  0
   -3.5000   25.2220  -30.4590 N   0  0  0  0  0  0  0  0  0  0  0  0
   -2.8850   24.6550  -29.2640 C   0  0  0  0  0  0  0  0  0  0  0  0
   -2.6560   23.1790  -29.4430 C   0  0  0  0  0  0  0  0  0  0  0  0
   -2.3810   22.6610  -30.7190 C   0  0  0  0  0  0  0  0  0  0  0  0
   -2.1900   21.2870  -30.8960 C   0  0  0  0  0  0  0  0  0  0  0  0
   -2.2790   20.4220  -29.8030 C   0  0  0  0  0  0  0  0  0  0  0  0
   -2.5600   20.9280  -28.5290 C   0  0  0  0  0  0  0  0  0  0  0  0
   -2.6780   19.8390  -27.1600 Cl  0  0  0  0  0  0  0  0  0  0  0  0
   -2.7500   22.3030  -28.3490 C   0  0  0  0  0  0  0  0  0  0  0  0
   -5.6550   24.1070  -31.0750 C   0  0  0  0  0  0  0  0  0  0  0  0
   -6.9760   23.8140  -30.7410 C   0  0  0  0  0  0  0  0  0  0  0  0
   -7.2180   22.6060  -31.3540 C   0  0  0  0  0  0  0  0  0  0  0  0
   -8.3600   21.8090  -31.3810 C   0  0  0  0  0  0  0  0  0  0  0  0
   -8.2990   20.6050  -32.1070 C   0  0  0  0  0  0  0  0  0  0  0  0
   -7.1130   20.2320  -32.7780 C   0  0  0  0  0  0  0  0  0  0  0  0
   -5.9760   21.0610  -32.7290 C   0  0  0  0  0  0  0  0  0  0  0  0
   -6.0670   22.2460  -32.0030 C   0  0  0  0  0  0  0  0  0  0  0  0
   -5.1380   23.1530  -31.8290 O   0  0  0  0  0  0  0  0  0  0  0  0
   -1.9208   25.1521  -29.0818 H   0  0  0  0  0  0  0  0  0  0  0  0
   -3.5579   24.8108  -28.4078 H   0  0  0  0  0  0  0  0  0  0  0  0
   -2.3156   23.3388  -31.5829 H   0  0  0  0  0  0  0  0  0  0  0  0
   -1.9695   20.8872  -31.8968 H   0  0  0  0  0  0  0  0  0  0  0  0
   -2.1280   19.3416  -29.9439 H   0  0  0  0  0  0  0  0  0  0  0  0
   -2.9737   22.6989  -27.3474 H   0  0  0  0  0  0  0  0  0  0  0  0
   -7.6668   24.4114  -30.1279 H   0  0  0  0  0  0  0  0  0  0  0  0
   -9.2771   22.1100  -30.8535 H   0  0  0  0  0  0  0  0  0  0  0  0
   -9.1812   19.9495  -32.1524 H   0  0  0  0  0  0  0  0  0  0  0  0
   -7.0777   19.2883  -33.3421 H   0  0  0  0  0  0  0  0  0  0  0  0
   -5.0466   20.7819  -33.2470 H   0  0  0  0  0  0  0  0  0  0  0  0
  1  2  2  0
  2  3  1  0
  3  4  1  0
  4  5  1  0
  5  6  2  0
  6  7  1  0
  7  8  2  0
  8  9  1  0
  9 10  1  0
  9 11  2  0
  2 12  1  0
 12 13  2  0
 13 14  1  0
 14 15  2  0
 15 16  1  0
 16 17  2  0
 17 18  1  0
 18 19  2  0
 19 20  1  0
 11  5  1  0
 20 12  1  0
 19 14  1  0
  4 21  1  0
  4 22  1  0
  6 23  1  0
  7 24  1  0
  8 25  1  0
 11 26  1  0
 13 27  1  0
 15 28  1  0
 16 29  1  0
 17 30  1  0
 18 31  1  0
M  CHG  1   3  -1
M  END
>  <UniqueID>  (48) 
44

>  <SMILES>  (48) 
O=C([N-]Cc1cccc(Cl)c1)c1cc2ccccc2o1

>  <Energy>  (48) 
63.741700673345086

>  <Genealogy>  (48) 
O=C([N-]Cc1cccc(Cl)c1)c1cc2ccccc2o1 (protonated)
O=C([N-]Cc1cccc(Cl)c1)c1cc2ccccc2o1 (3D coordinates assigned)
O=C([N-]Cc1cccc(Cl)c1)c1cc2ccccc2o1 (optimized conformer: 63.741700673345086 kcal/mol)

>  <smiles>  (48) 
O=C(NCc1cccc(Cl)c1)c1cc2ccccc2o1

>  <score_type>  (48) 
oracle

>  <origin>  (48) 
adgpu

>  <m_score__min__energy>  (48) 
-9.2799999999999994

>  <m_primary>  (48) 
energy

$$$$
48:0
     RDKit          3D

 67 73  0  0  0  0  0  0  0  0999 V2000
    3.2220   19.1210  -29.4980 C   0  0  0  0  0  0  0  0  0  0  0  0
    1.7630   18.9400  -29.6840 N   0  0  0  0  0  0  0  0  0  0  0  0
    1.0950   18.9340  -28.3490 C   0  0  0  0  0  0  0  0  0  0  0  0
    1.4830   17.7140  -27.4920 C   0  0  0  0  0  0  0  0  0  0  0  0
    1.4580   16.4840  -28.3340 C   0  0  0  0  0  0  0  0  0  0  0  0
    1.4750   16.4830  -29.7190 C   0  0  0  0  0  0  0  0  0  0  0  0
    1.4080   15.2130  -30.1930 N   0  0  0  0  0  0  0  0  0  0  0  0
    1.3990   14.4210  -29.1030 C   0  0  0  0  0  0  0  0  0  0  0  0
    1.3380   13.0290  -29.0730 C   0  0  0  0  0  0  0  0  0  0  0  0
    1.3220   12.3990  -27.8130 C   0  0  0  0  0  0  0  0  0  0  0  0
    1.3600   13.1660  -26.6270 C   0  0  0  0  0  0  0  0  0  0  0  0
    1.4140   14.5700  -26.6880 C   0  0  0  0  0  0  0  0  0  0  0  0
    1.4350   15.1640  -27.9480 C   0  0  0  0  0  0  0  0  0  0  0  0
    1.3800   17.7590  -30.5450 C   0  0  0  0  0  0  0  0  0  0  0  0
    2.3030   17.6220  -31.7990 C   0  0  0  0  0  0  0  0  0  0  0  0
    2.1370   18.7950  -32.7900 C   0  0  0  0  0  0  0  0  0  0  0  0
    0.7260   19.2020  -33.0190 N   0  0  0  0  0  0  0  0  0  0  0  0
    0.4250   20.5520  -32.4960 C   0  0  0  0  0  0  0  0  0  0  0  0
   -1.0630   20.7630  -32.4150 C   0  0  0  0  0  0  0  0  0  0  0  0
   -1.7000   20.7880  -31.1640 C   0  0  0  0  0  0  0  0  0  0  0  0
   -3.0830   20.9760  -31.0800 C   0  0  0  0  0  0  0  0  0  0  0  0
   -3.8460   21.1290  -32.2460 C   0  0  0  0  0  0  0  0  0  0  0  0
   -5.3050   21.3380  -32.1560 C   0  0  0  0  0  0  0  0  0  0  0  0
   -6.1450   20.2970  -32.5880 C   0  0  0  0  0  0  0  0  0  0  0  0
   -7.5300   20.4050  -32.4670 C   0  0  0  0  0  0  0  0  0  0  0  0
   -8.0950   21.5520  -31.9160 C   0  0  0  0  0  0  0  0  0  0  0  0
   -7.2790   22.6040  -31.4960 C   0  0  0  0  0  0  0  0  0  0  0  0
   -5.8780   22.5250  -31.6210 C   0  0  0  0  0  0  0  0  0  0  0  0
   -5.0660   23.7080  -31.2280 C   0  0  0  0  0  0  0  0  0  0  0  0
   -3.8560   23.6340  -30.6380 N   0  0  0  0  0  0  0  0  0  0  0  0
   -3.5050   24.8890  -30.4150 N   0  0  0  0  0  0  0  0  0  0  0  0
   -4.4580   25.7020  -30.8430 N   0  0  0  0  0  0  0  0  0  0  0  0
   -5.4520   24.9920  -31.3520 N   0  0  0  0  0  0  0  0  0  0  0  0
   -3.2100   21.1150  -33.4960 C   0  0  0  0  0  0  0  0  0  0  0  0
   -1.8270   20.9290  -33.5810 C   0  0  0  0  0  0  0  0  0  0  0  0
   -0.2460   18.1970  -32.5460 C   0  0  0  0  0  0  0  0  0  0  0  0
   -0.1050   17.9260  -31.0360 C   0  0  0  0  0  0  0  0  0  0  0  0
    3.4538   19.1498  -28.4231 H   0  0  0  0  0  0  0  0  0  0  0  0
    3.7582   18.2825  -29.9664 H   0  0  0  0  0  0  0  0  0  0  0  0
    3.5370   20.0651  -29.9664 H   0  0  0  0  0  0  0  0  0  0  0  0
    1.3815   19.8483  -27.8087 H   0  0  0  0  0  0  0  0  0  0  0  0
    0.0098   18.8850  -28.5222 H   0  0  0  0  0  0  0  0  0  0  0  0
    2.4948   17.8590  -27.0854 H   0  0  0  0  0  0  0  0  0  0  0  0
    0.7661   17.6054  -26.6648 H   0  0  0  0  0  0  0  0  0  0  0  0
    1.3400   14.9000  -31.1860 H   0  0  0  0  0  0  0  0  0  0  0  0
    1.3035   12.4416  -30.0024 H   0  0  0  0  0  0  0  0  0  0  0  0
    1.2796   11.3015  -27.7521 H   0  0  0  0  0  0  0  0  0  0  0  0
    1.3473   12.6617  -25.6495 H   0  0  0  0  0  0  0  0  0  0  0  0
    1.4388   15.1785  -25.7720 H   0  0  0  0  0  0  0  0  0  0  0  0
    3.3502   17.5896  -31.4638 H   0  0  0  0  0  0  0  0  0  0  0  0
    2.0163   16.6991  -32.3243 H   0  0  0  0  0  0  0  0  0  0  0  0
    2.6865   19.6618  -32.3942 H   0  0  0  0  0  0  0  0  0  0  0  0
    2.5282   18.4495  -33.7583 H   0  0  0  0  0  0  0  0  0  0  0  0
    0.8613   20.6573  -31.4917 H   0  0  0  0  0  0  0  0  0  0  0  0
    0.8555   21.3023  -33.1755 H   0  0  0  0  0  0  0  0  0  0  0  0
   -1.1083   20.6591  -30.2457 H   0  0  0  0  0  0  0  0  0  0  0  0
   -3.5738   21.0039  -30.0960 H   0  0  0  0  0  0  0  0  0  0  0  0
   -5.7056   19.3885  -33.0257 H   0  0  0  0  0  0  0  0  0  0  0  0
   -8.1769   19.5830  -32.8073 H   0  0  0  0  0  0  0  0  0  0  0  0
   -9.1873   21.6295  -31.8113 H   0  0  0  0  0  0  0  0  0  0  0  0
   -7.7356   23.5058  -31.0621 H   0  0  0  0  0  0  0  0  0  0  0  0
   -3.8018   21.2509  -34.4132 H   0  0  0  0  0  0  0  0  0  0  0  0
   -1.3357   20.9127  -34.5651 H   0  0  0  0  0  0  0  0  0  0  0  0
   -1.2632   18.5638  -32.7478 H   0  0  0  0  0  0  0  0  0  0  0  0
   -0.0499   17.2558  -33.0806 H   0  0  0  0  0  0  0  0  0  0  0  0
   -0.5555   18.7687  -30.4911 H   0  0  0  0  0  0  0  0  0  0  0  0
   -0.6118   16.9699  -30.8386 H   0  0  0  0  0  0  0  0  0  0  0  0
  1  2  1  0
  2  3  1  0
  3  4  1  0
  4  5  1  0
  5  6  2  0
  6  7  1  0
  7  8  1  0
  8  9  2  0
  9 10  1  0
 10 11  2  0
 11 12  1  0
 12 13  2  0
  6 14  1  0
 14 15  1  0
 15 16  1  0
 16 17  1  0
 17 18  1  0
 18 19  1  0
 19 20  2  0
 20 21  1  0
 21 22  2  0
 22 23  1  0
 23 24  2  0
 24 25  1  0
 25 26  2  0
 26 27  1  0
 27 28  2  0
 28 29  1  0
 29 30  1  0
 30 31  2  0
 31 32  1  0
 32 33  1  0
 22 34  1  0
 34 35  2  0
 17 36  1  0
 36 37  1  0
 14  2  1  0
 35 19  1  0
 13  5  1  0
 37 14  1  0
 13  8  1  0
 28 23  1  0
 33 29  2  0
  1 38  1  0
  1 39  1  0
  1 40  1  0
  3 41  1  0
  3 42  1  0
  4 43  1  0
  4 44  1  0
  7 45  1  0
  9 46  1  0
 10 47  1  0
 11 48  1  0
 12 49  1  0
 15 50  1  0
 15 51  1  0
 16 52  1  0
 16 53  1  0
 18 54  1  0
 18 55  1  0
 20 56  1  0
 21 57  1  0
 24 58  1  0
 25 59  1  0
 26 60  1  0
 27 61  1  0
 34 62  1  0
 35 63  1  0
 36 64  1  0
 36 65  1  0
 37 66  1  0
 37 67  1  0
M  CHG  1  32  -1
M  END
>  <UniqueID>  (49) 
45

>  <SMILES>  (49) 
CN1CCc2c([nH]c3ccccc23)C12CCN(Cc1ccc(-c3ccccc3-c3nn[n-]n3)cc1)CC2

>  <Energy>  (49) 
183.31446442489272

>  <Genealogy>  (49) 
CN1CCc2c([nH]c3ccccc23)C12CCN(Cc1ccc(-c3ccccc3-c3nn[n-]n3)cc1)CC2 (protonated)
CN1CCc2c([nH]c3ccccc23)C12CCN(Cc1ccc(-c3ccccc3-c3nn[n-]n3)cc1)CC2 (3D coordinates assigned)
CN1CCc2c([nH]c3ccccc23)C12CCN(Cc1ccc(-c3ccccc3-c3nn[n-]n3)cc1)CC2 (nonaromatic ring conformer: 183.31446442489272 kcal/mol)

>  <smiles>  (49) 
CN1CCc2c([nH]c3ccccc23)C12CCN(Cc1ccc(-c3ccccc3-c3nn[nH]n3)cc1)CC2

>  <score_type>  (49) 
oracle

>  <origin>  (49) 
adgpu

>  <m_score__min__energy>  (49) 
-11.59

>  <m_primary>  (49) 
energy

$$$$
49:0
     RDKit          3D

 42 43  0  0  0  0  0  0  0  0999 V2000
   -4.7760   18.1790  -34.6010 C   0  0  0  0  0  0  0  0  0  0  0  0
   -6.0880   18.7950  -34.1040 C   0  0  0  0  0  0  0  0  0  0  0  0
   -5.8940   19.5960  -32.8710 N   0  0  0  0  0  0  0  0  0  0  0  0
   -5.8180   18.7520  -31.6530 C   0  0  0  0  0  0  0  0  0  0  0  0
   -6.4520   17.3600  -31.7990 C   0  0  0  0  0  0  0  0  0  0  0  0
   -6.8990   20.6340  -32.7180 C   0  0  0  0  0  0  0  0  0  0  0  0
   -8.1000   20.4120  -33.0400 O   0  0  0  0  0  0  0  0  0  0  0  0
   -6.5680   21.9250  -32.0770 C   0  0  0  0  0  0  0  0  0  0  0  0
   -7.5370   22.5780  -31.3030 C   0  0  0  0  0  0  0  0  0  0  0  0
   -7.2390   23.7890  -30.6790 C   0  0  0  0  0  0  0  0  0  0  0  0
   -5.9680   24.3480  -30.8380 C   0  0  0  0  0  0  0  0  0  0  0  0
   -5.6290   25.6560  -30.1980 C   0  0  0  0  0  0  0  0  0  0  0  0
   -5.0500   23.7190  -31.6190 N   0  0  0  0  0  0  0  0  0  0  0  0
   -5.3070   22.5310  -32.2350 C   0  0  0  0  0  0  0  0  0  0  0  0
   -4.3520   21.9480  -33.0790 O   0  0  0  0  0  0  0  0  0  0  0  0
   -3.0730   21.5270  -32.6910 C   0  0  0  0  0  0  0  0  0  0  0  0
   -2.2060   20.8480  -33.5690 C   0  0  0  0  0  0  0  0  0  0  0  0
   -0.9320   20.4610  -33.1410 C   0  0  0  0  0  0  0  0  0  0  0  0
   -0.5090   20.7580  -31.8420 C   0  0  0  0  0  0  0  0  0  0  0  0
    0.7280   20.3850  -31.4300 F   0  0  0  0  0  0  0  0  0  0  0  0
   -1.3560   21.4510  -30.9730 C   0  0  0  0  0  0  0  0  0  0  0  0
   -2.6310   21.8390  -31.3990 C   0  0  0  0  0  0  0  0  0  0  0  0
   -4.1575   17.8886  -33.7389 H   0  0  0  0  0  0  0  0  0  0  0  0
   -4.9960   17.2901  -35.2104 H   0  0  0  0  0  0  0  0  0  0  0  0
   -4.2326   18.9161  -35.2104 H   0  0  0  0  0  0  0  0  0  0  0  0
   -6.4945   19.4473  -34.8909 H   0  0  0  0  0  0  0  0  0  0  0  0
   -6.7815   17.9739  -33.8700 H   0  0  0  0  0  0  0  0  0  0  0  0
   -4.9530   20.0500  -32.9460 H   0  0  0  0  0  0  0  0  0  0  0  0
   -4.7575   18.6204  -31.3924 H   0  0  0  0  0  0  0  0  0  0  0  0
   -6.3918   19.2759  -30.8743 H   0  0  0  0  0  0  0  0  0  0  0  0
   -6.6441   16.9381  -30.8014 H   0  0  0  0  0  0  0  0  0  0  0  0
   -7.4002   17.4449  -32.3500 H   0  0  0  0  0  0  0  0  0  0  0  0
   -5.7655   16.7004  -32.3500 H   0  0  0  0  0  0  0  0  0  0  0  0
   -8.5365   22.1335  -31.1873 H   0  0  0  0  0  0  0  0  0  0  0  0
   -7.9974   24.2996  -30.0673 H   0  0  0  0  0  0  0  0  0  0  0  0
   -5.6572   25.5470  -29.1038 H   0  0  0  0  0  0  0  0  0  0  0  0
   -4.6208   25.9663  -30.5097 H   0  0  0  0  0  0  0  0  0  0  0  0
   -6.3596   26.4170  -30.5097 H   0  0  0  0  0  0  0  0  0  0  0  0
   -2.5320   20.6213  -34.5948 H   0  0  0  0  0  0  0  0  0  0  0  0
   -0.2620   19.9223  -33.8272 H   0  0  0  0  0  0  0  0  0  0  0  0
   -1.0202   21.6916  -29.9535 H   0  0  0  0  0  0  0  0  0  0  0  0
   -3.2907   22.3927  -30.7147 H   0  0  0  0  0  0  0  0  0  0  0  0
  1  2  1  0
  2  3  1  0
  3  4  1  0
  4  5  1  0
  3  6  1  0
  6  7  2  0
  6  8  1  0
  8  9  2  0
  9 10  1  0
 10 11  2  0
 11 12  1  0
 11 13  1  0
 13 14  2  0
 14 15  1  0
 15 16  1  0
 16 17  2  0
 17 18  1  0
 18 19  2  0
 19 20  1  0
 19 21  1  0
 21 22  2  0
 14  8  1  0
 22 16  1  0
  1 23  1  0
  1 24  1  0
  1 25  1  0
  2 26  1  0
  2 27  1  0
  3 28  1  0
  4 29  1  0
  4 30  1  0
  5 31  1  0
  5 32  1  0
  5 33  1  0
  9 34  1  0
 10 35  1  0
 12 36  1  0
 12 37  1  0
 12 38  1  0
 17 39  1  0
 18 40  1  0
 21 41  1  0
 22 42  1  0
M  CHG  1   3   1
M  END
>  <UniqueID>  (50) 
46

>  <SMILES>  (50) 
CC[NH+](CC)C(=O)c1ccc(C)nc1Oc1ccc(F)cc1

>  <Energy>  (50) 
52.22779449906889

>  <Genealogy>  (50) 
CC[NH+](CC)C(=O)c1ccc(C)nc1Oc1ccc(F)cc1 (protonated)
CC[NH+](CC)C(=O)c1ccc(C)nc1Oc1ccc(F)cc1 (3D coordinates assigned)
CC[NH+](CC)C(=O)c1ccc(C)nc1Oc1ccc(F)cc1 (optimized conformer: 52.22779449906889 kcal/mol)

>  <smiles>  (50) 
CCN(CC)C(=O)c1ccc(C)nc1Oc1ccc(F)cc1

>  <score_type>  (50) 
oracle

>  <origin>  (50) 
adgpu

>  <m_score__min__energy>  (50) 
-6.0300000000000002

>  <m_primary>  (50) 
energy

$$$$
