0:0
     RDKit          3D

 43 46  0  0  0  0  0  0  0  0999 V2000
   -4.2290   25.6680  -31.0330 N   0  0  0  0  0  0  0  0  0  0  0  0
   -4.8690   24.5960  -30.7470 C   0  0  0  0  0  0  0  0  0  0  0  0
   -6.0310   24.7110  -30.0300 C   0  0  0  0  0  0  0  0  0  0  0  0
   -6.7160   23.5640  -29.7240 C   0  0  0  0  0  0  0  0  0  0  0  0
   -6.2370   22.3640  -30.1320 N   0  0  0  0  0  0  0  0  0  0  0  0
   -5.1060   22.2140  -30.8340 C   0  0  0  0  0  0  0  0  0  0  0  0
   -4.5270   21.1170  -31.2920 O   0  0  0  0  0  0  0  0  0  0  0  0
   -3.5580   20.6950  -32.0810 C   0  0  0  0  0  0  0  0  0  0  0  0
   -3.6160   20.0270  -33.2810 C   0  0  0  0  0  0  0  0  0  0  0  0
   -2.4990   19.6440  -34.0060 C   0  0  0  0  0  0  0  0  0  0  0  0
   -1.2540   19.9290  -33.5350 C   0  0  0  0  0  0  0  0  0  0  0  0
   -1.1330   20.5950  -32.3440 C   0  0  0  0  0  0  0  0  0  0  0  0
   -2.2340   20.9680  -31.6360 C   0  0  0  0  0  0  0  0  0  0  0  0
   -2.0200   21.6760  -30.3730 C   0  0  0  0  0  0  0  0  0  0  0  0
   -2.1430   21.0250  -29.1620 C   0  0  0  0  0  0  0  0  0  0  0  0
   -1.9320   21.7340  -27.9840 C   0  0  0  0  0  0  0  0  0  0  0  0
   -1.6020   23.0720  -27.9800 C   0  0  0  0  0  0  0  0  0  0  0  0
   -1.3710   23.8570  -26.7920 C   0  0  0  0  0  0  0  0  0  0  0  0
   -0.5890   23.4110  -25.7530 C   0  0  0  0  0  0  0  0  0  0  0  0
   -0.3660   24.1410  -24.6320 N   0  0  0  0  0  0  0  0  0  0  0  0
   -0.9200   25.3630  -24.4950 C   0  0  0  0  0  0  0  0  0  0  0  0
   -0.7530   26.1000  -23.4710 N   0  0  0  0  0  0  0  0  0  0  0  0
   -1.7030   25.8020  -25.5410 C   0  0  0  0  0  0  0  0  0  0  0  0
   -1.9260   25.0820  -26.6540 N   0  0  0  0  0  0  0  0  0  0  0  0
   -1.4910   23.6780  -29.2260 C   0  0  0  0  0  0  0  0  0  0  0  0
   -1.1660   25.0000  -29.2610 F   0  0  0  0  0  0  0  0  0  0  0  0
   -1.6930   23.0080  -30.4060 C   0  0  0  0  0  0  0  0  0  0  0  0
   -4.4510   23.3980  -31.1170 N   0  0  0  0  0  0  0  0  0  0  0  0
   -3.3340   25.5830  -31.5860 H   0  0  0  0  0  0  0  0  0  0  0  0
   -6.4032   25.6952  -29.7093 H   0  0  0  0  0  0  0  0  0  0  0  0
   -7.6521   23.6175  -29.1488 H   0  0  0  0  0  0  0  0  0  0  0  0
   -6.7950   21.5490  -29.8710 H   0  0  0  0  0  0  0  0  0  0  0  0
   -4.6074   19.7821  -33.6897 H   0  0  0  0  0  0  0  0  0  0  0  0
   -2.6181   19.1105  -34.9606 H   0  0  0  0  0  0  0  0  0  0  0  0
   -0.3599   19.6295  -34.1014 H   0  0  0  0  0  0  0  0  0  0  0  0
   -0.1319   20.8317  -31.9544 H   0  0  0  0  0  0  0  0  0  0  0  0
   -2.4050   19.9572  -29.1289 H   0  0  0  0  0  0  0  0  0  0  0  0
   -2.0320   21.2087  -27.0227 H   0  0  0  0  0  0  0  0  0  0  0  0
   -0.1234   22.4177  -25.8345 H   0  0  0  0  0  0  0  0  0  0  0  0
    0.2220   23.8050  -23.8500 H   0  0  0  0  0  0  0  0  0  0  0  0
   -0.1740   25.8180  -22.6570 H   0  0  0  0  0  0  0  0  0  0  0  0
   -2.1703   26.7945  -25.4607 H   0  0  0  0  0  0  0  0  0  0  0  0
   -1.5939   23.5328  -31.3677 H   0  0  0  0  0  0  0  0  0  0  0  0
  1  2  2  3
  2  3  1  0
  3  4  2  0
  4  5  1  0
  5  6  1  0
  6  7  1  0
  7  8  1  0
  8  9  2  0
  9 10  1  0
 10 11  2  0
 11 12  1  0
 12 13  2  0
 13 14  1  0
 14 15  2  0
 15 16  1  0
 16 17  2  0
 17 18  1  0
 18 19  2  0
 19 20  1  0
 20 21  1  0
 21 22  2  3
 21 23  1  0
 23 24  2  0
 17 25  1  0
 25 26  1  0
 25 27  2  0
  6 28  2  0
 28  2  1  0
 13  8  1  0
 27 14  1  0
 24 18  1  0
  1 29  1  0
  3 30  1  0
  4 31  1  0
  5 32  1  0
  9 33  1  0
 10 34  1  0
 11 35  1  0
 12 36  1  0
 15 37  1  0
 16 38  1  0
 19 39  1  0
 20 40  1  0
 22 41  1  0
 23 42  1  0
 27 43  1  0
M  END
>  <smiles>  (1) 
N=c1cc[nH]c(Oc2ccccc2-c2ccc(-c3c[nH]c(=N)cn3)c(F)c2)n1

>  <score_type>  (1) 
oracle

>  <origin>  (1) 
adgpu

>  <m_score__min__energy>  (1) 
-9.0299999999999994

>  <m_primary>  (1) 
energy

$$$$
1:0
     RDKit          3D

 48 50  0  0  0  0  0  0  0  0999 V2000
   -1.2290   26.0700  -27.8570 C   0  0  0  0  0  0  0  0  0  0  0  0
   -1.9890   25.6730  -28.9940 O   0  0  0  0  0  0  0  0  0  0  0  0
   -2.2510   24.3410  -29.3480 C   0  0  0  0  0  0  0  0  0  0  0  0
   -1.2870   23.3240  -29.2170 C   0  0  0  0  0  0  0  0  0  0  0  0
   -1.5960   22.0130  -29.5850 C   0  0  0  0  0  0  0  0  0  0  0  0
   -2.8620   21.7020  -30.0850 C   0  0  0  0  0  0  0  0  0  0  0  0
   -3.8390   22.7040  -30.2220 C   0  0  0  0  0  0  0  0  0  0  0  0
   -5.1880   22.3760  -30.7490 C   0  0  0  0  0  0  0  0  0  0  0  0
   -6.1880   23.3630  -30.8140 C   0  0  0  0  0  0  0  0  0  0  0  0
   -7.4570   23.0580  -31.3130 C   0  0  0  0  0  0  0  0  0  0  0  0
   -7.7470   21.7640  -31.7530 C   0  0  0  0  0  0  0  0  0  0  0  0
   -8.9780   21.4730  -32.2450 N   0  0  0  0  0  0  0  0  0  0  0  0
   -9.2790   20.2240  -32.6820 C   0  0  0  0  0  0  0  0  0  0  0  0
   -8.3460   19.2390  -32.6290 N   0  0  0  0  0  0  0  0  0  0  0  0
   -7.0970   19.4720  -32.1470 C   0  0  0  0  0  0  0  0  0  0  0  0
   -6.1440   18.3930  -32.0980 N   0  0  0  0  0  0  0  0  0  0  0  0
   -6.2470   17.4760  -30.9550 C   0  0  0  0  0  0  0  0  0  0  0  0
   -5.2870   18.0760  -33.2730 C   0  0  0  0  0  0  0  0  0  0  0  0
   -3.8500   17.7960  -32.7870 C   0  0  0  0  0  0  0  0  0  0  0  0
   -5.8230   16.8220  -34.0120 C   0  0  0  0  0  0  0  0  0  0  0  0
   -5.2810   19.2680  -34.2730 C   0  0  0  0  0  0  0  0  0  0  0  0
   -6.4320   19.2820  -35.0790 O   0  0  0  0  0  0  0  0  0  0  0  0
   -6.7590   20.7600  -31.6890 C   0  0  0  0  0  0  0  0  0  0  0  0
   -5.4820   21.0730  -31.1920 C   0  0  0  0  0  0  0  0  0  0  0  0
   -3.5180   24.0220  -29.8480 C   0  0  0  0  0  0  0  0  0  0  0  0
   -1.7672   25.7888  -26.9398 H   0  0  0  0  0  0  0  0  0  0  0  0
   -0.2505   25.5678  -27.8765 H   0  0  0  0  0  0  0  0  0  0  0  0
   -1.0822   27.1600  -27.8765 H   0  0  0  0  0  0  0  0  0  0  0  0
   -0.2878   23.5625  -28.8238 H   0  0  0  0  0  0  0  0  0  0  0  0
   -0.8389   21.2219  -29.4806 H   0  0  0  0  0  0  0  0  0  0  0  0
   -3.0966   20.6668  -30.3735 H   0  0  0  0  0  0  0  0  0  0  0  0
   -5.9691   24.3842  -30.4689 H   0  0  0  0  0  0  0  0  0  0  0  0
   -8.2301   23.8391  -31.3596 H   0  0  0  0  0  0  0  0  0  0  0  0
  -10.2816   20.0090  -33.0802 H   0  0  0  0  0  0  0  0  0  0  0  0
   -6.1826   18.0490  -30.0182 H   0  0  0  0  0  0  0  0  0  0  0  0
   -7.2103   16.9464  -30.9954 H   0  0  0  0  0  0  0  0  0  0  0  0
   -5.4252   16.7459  -30.9954 H   0  0  0  0  0  0  0  0  0  0  0  0
   -3.8291   17.7919  -31.6872 H   0  0  0  0  0  0  0  0  0  0  0  0
   -3.5198   16.8166  -33.1636 H   0  0  0  0  0  0  0  0  0  0  0  0
   -3.1763   18.5798  -33.1636 H   0  0  0  0  0  0  0  0  0  0  0  0
   -6.1439   16.0712  -33.2749 H   0  0  0  0  0  0  0  0  0  0  0  0
   -6.6785   17.1057  -34.6426 H   0  0  0  0  0  0  0  0  0  0  0  0
   -5.0267   16.3997  -34.6426 H   0  0  0  0  0  0  0  0  0  0  0  0
   -5.2334   20.2086  -33.7047 H   0  0  0  0  0  0  0  0  0  0  0  0
   -4.4060   19.1569  -34.9303 H   0  0  0  0  0  0  0  0  0  0  0  0
   -7.2070   19.4300  -34.4760 H   0  0  0  0  0  0  0  0  0  0  0  0
   -4.7068   20.2938  -31.1490 H   0  0  0  0  0  0  0  0  0  0  0  0
   -4.2749   24.8136  -29.9504 H   0  0  0  0  0  0  0  0  0  0  0  0
  1  2  1  0
  2  3  1  0
  3  4  2  0
  4  5  1  0
  5  6  2  0
  6  7  1  0
  7  8  1  0
  8  9  2  0
  9 10  1  0
 10 11  2  0
 11 12  1  0
 12 13  2  0
 13 14  1  0
 14 15  2  0
 15 16  1  0
 16 17  1  0
 16 18  1  0
 18 19  1  0
 18 20  1  0
 18 21  1  0
 21 22  1  0
 15 23  1  0
 23 24  2  0
  7 25  2  0
 25  3  1  0
 24  8  1  0
 23 11  1  0
  1 26  1  0
  1 27  1  0
  1 28  1  0
  4 29  1  0
  5 30  1  0
  6 31  1  0
  9 32  1  0
 10 33  1  0
 13 34  1  0
 17 35  1  0
 17 36  1  0
 17 37  1  0
 19 38  1  0
 19 39  1  0
 19 40  1  0
 20 41  1  0
 20 42  1  0
 20 43  1  0
 21 44  1  0
 21 45  1  0
 22 46  1  0
 24 47  1  0
 25 48  1  0
M  END
>  <UniqueID>  (2) 
1

>  <SMILES>  (2) 
COc1cccc(-c2ccc3ncnc(N(C)C(C)(C)CO)c3c2)c1

>  <Energy>  (2) 
64.46177180408921

>  <Genealogy>  (2) 
COc1cccc(-c2ccc3ncnc(N(C)C(C)(C)CO)c3c2)c1 (3D coordinates assigned)
COc1cccc(-c2ccc3ncnc(N(C)C(C)(C)CO)c3c2)c1 (optimized conformer: 64.46177180408921 kcal/mol)

>  <smiles>  (2) 
COc1cccc(-c2ccc3ncnc(N(C)C(C)(C)CO)c3c2)c1

>  <score_type>  (2) 
oracle

>  <origin>  (2) 
adgpu

>  <m_score__min__energy>  (2) 
-9.0199999999999996

>  <m_primary>  (2) 
energy

$$$$
2:0
     RDKit          3D

 56 60  0  0  0  0  0  0  0  0999 V2000
   -1.1470   17.5720  -33.1280 C   0  0  0  0  0  0  0  0  0  0  0  0
   -2.5430   18.0710  -33.4060 C   0  0  0  0  0  0  0  0  0  0  0  0
   -3.0040   19.1940  -32.7040 C   0  0  0  0  0  0  0  0  0  0  0  0
   -4.2930   19.7080  -32.8930 C   0  0  0  0  0  0  0  0  0  0  0  0
   -5.1460   19.0860  -33.8390 C   0  0  0  0  0  0  0  0  0  0  0  0
   -4.6840   17.9640  -34.5450 C   0  0  0  0  0  0  0  0  0  0  0  0
   -3.4040   17.4240  -34.3240 C   0  0  0  0  0  0  0  0  0  0  0  0
   -2.9570   16.2050  -35.1120 C   0  0  0  0  0  0  0  0  0  0  0  0
   -2.8690   15.1150  -34.2640 F   0  0  0  0  0  0  0  0  0  0  0  0
   -3.8620   15.9270  -36.1210 F   0  0  0  0  0  0  0  0  0  0  0  0
   -1.7190   16.3990  -35.7000 F   0  0  0  0  0  0  0  0  0  0  0  0
   -6.4730   19.5520  -34.1240 N   0  0  0  0  0  0  0  0  0  0  0  0
   -7.3480   19.9900  -33.0930 C   0  0  0  0  0  0  0  0  0  0  0  0
   -8.6940   19.7030  -32.9960 C   0  0  0  0  0  0  0  0  0  0  0  0
   -9.1750   20.2800  -31.9170 O   0  0  0  0  0  0  0  0  0  0  0  0
   -8.1970   20.9310  -31.3270 C   0  0  0  0  0  0  0  0  0  0  0  0
   -8.3570   21.6480  -30.1480 O   0  0  0  0  0  0  0  0  0  0  0  0
   -7.0150   20.7900  -32.0350 C   0  0  0  0  0  0  0  0  0  0  0  0
   -5.7200   21.4560  -31.8090 C   0  0  0  0  0  0  0  0  0  0  0  0
   -5.6670   22.7580  -31.1060 C   0  0  0  0  0  0  0  0  0  0  0  0
   -6.5580   23.7910  -31.4410 C   0  0  0  0  0  0  0  0  0  0  0  0
   -6.4900   25.0220  -30.7870 C   0  0  0  0  0  0  0  0  0  0  0  0
   -5.5270   25.2410  -29.8000 C   0  0  0  0  0  0  0  0  0  0  0  0
   -4.6140   24.2290  -29.4590 C   0  0  0  0  0  0  0  0  0  0  0  0
   -3.5830   24.4650  -28.4150 C   0  0  0  0  0  0  0  0  0  0  0  0
   -3.9560   24.7020  -27.0830 C   0  0  0  0  0  0  0  0  0  0  0  0
   -2.9870   24.9220  -26.1010 C   0  0  0  0  0  0  0  0  0  0  0  0
   -1.6140   24.9110  -26.4230 C   0  0  0  0  0  0  0  0  0  0  0  0
   -0.6060   25.1400  -25.4030 N   0  0  0  0  0  0  0  0  0  0  0  0
    0.4990   24.1910  -25.2210 C   0  0  0  0  0  0  0  0  0  0  0  0
   -0.6770   26.3230  -24.5360 C   0  0  0  0  0  0  0  0  0  0  0  0
   -1.2470   24.6720  -27.7640 C   0  0  0  0  0  0  0  0  0  0  0  0
   -2.2180   24.4510  -28.7440 C   0  0  0  0  0  0  0  0  0  0  0  0
   -4.6890   22.9900  -30.1220 C   0  0  0  0  0  0  0  0  0  0  0  0
   -4.5920   20.9290  -32.1920 N   0  0  0  0  0  0  0  0  0  0  0  0
   -0.9876   17.5150  -32.0411 H   0  0  0  0  0  0  0  0  0  0  0  0
   -1.0200   16.5728  -33.5701 H   0  0  0  0  0  0  0  0  0  0  0  0
   -0.4153   18.2643  -33.5701 H   0  0  0  0  0  0  0  0  0  0  0  0
   -2.3335   19.6856  -31.9837 H   0  0  0  0  0  0  0  0  0  0  0  0
   -5.3411   17.4941  -35.2916 H   0  0  0  0  0  0  0  0  0  0  0  0
   -6.9210   19.2430  -35.0170 H   0  0  0  0  0  0  0  0  0  0  0  0
   -9.2705   19.0913  -33.7055 H   0  0  0  0  0  0  0  0  0  0  0  0
   -7.3139   23.6287  -32.2235 H   0  0  0  0  0  0  0  0  0  0  0  0
   -7.1974   25.8223  -31.0500 H   0  0  0  0  0  0  0  0  0  0  0  0
   -5.4828   26.2125  -29.2859 H   0  0  0  0  0  0  0  0  0  0  0  0
   -5.0214   24.7147  -26.8096 H   0  0  0  0  0  0  0  0  0  0  0  0
   -3.2992   25.1063  -25.0625 H   0  0  0  0  0  0  0  0  0  0  0  0
    0.6775   24.0377  -24.1465 H   0  0  0  0  0  0  0  0  0  0  0  0
    0.2386   23.2307  -25.6901 H   0  0  0  0  0  0  0  0  0  0  0  0
    1.4090   24.5934  -25.6901 H   0  0  0  0  0  0  0  0  0  0  0  0
   -0.6580   26.0072  -23.4825 H   0  0  0  0  0  0  0  0  0  0  0  0
    0.1835   26.9778  -24.7380 H   0  0  0  0  0  0  0  0  0  0  0  0
   -1.6096   26.8702  -24.7380 H   0  0  0  0  0  0  0  0  0  0  0  0
   -0.1827   24.6595  -28.0417 H   0  0  0  0  0  0  0  0  0  0  0  0
   -1.9102   24.2642  -29.7834 H   0  0  0  0  0  0  0  0  0  0  0  0
   -3.9743   22.1934  -29.8677 H   0  0  0  0  0  0  0  0  0  0  0  0
  1  2  1  0
  2  3  2  0
  3  4  1  0
  4  5  2  0
  5  6  1  0
  6  7  2  0
  7  8  1  0
  8  9  1  0
  8 10  1  0
  8 11  1  0
  5 12  1  0
 12 13  1  0
 13 14  2  0
 14 15  1  0
 15 16  1  0
 16 17  1  0
 16 18  2  0
 18 19  1  0
 19 20  1  0
 20 21  2  0
 21 22  1  0
 22 23  2  0
 23 24  1  0
 24 25  1  0
 25 26  2  0
 26 27  1  0
 27 28  2  0
 28 29  1  0
 29 30  1  0
 29 31  1  0
 28 32  1  0
 32 33  2  0
 24 34  2  0
 19 35  2  0
  7  2  1  0
 18 13  1  0
 34 20  1  0
 35  4  1  0
 33 25  1  0
  1 36  1  0
  1 37  1  0
  1 38  1  0
  3 39  1  0
  6 40  1  0
 12 41  1  0
 14 42  1  0
 21 43  1  0
 22 44  1  0
 23 45  1  0
 26 46  1  0
 27 47  1  0
 30 48  1  0
 30 49  1  0
 30 50  1  0
 31 51  1  0
 31 52  1  0
 31 53  1  0
 32 54  1  0
 33 55  1  0
 34 56  1  0
M  CHG  1  17  -1
M  END
>  <UniqueID>  (3) 
2

>  <SMILES>  (3) 
Cc1cc2c(cc1C(F)(F)F)Nc1coc([O-])c1C(c1cccc(-c3ccc(N(C)C)cc3)c1)=N2

>  <Energy>  (3) 
122.69771854419582

>  <Genealogy>  (3) 
Cc1cc2c(cc1C(F)(F)F)Nc1coc([O-])c1C(c1cccc(-c3ccc(N(C)C)cc3)c1)=N2 (protonated)
Cc1cc2c(cc1C(F)(F)F)Nc1coc([O-])c1C(c1cccc(-c3ccc(N(C)C)cc3)c1)=N2 (3D coordinates assigned)
Cc1cc2c(cc1C(F)(F)F)Nc1coc([O-])c1C(c1cccc(-c3ccc(N(C)C)cc3)c1)=N2 (nonaromatic ring conformer: 122.69771854419582 kcal/mol)

>  <smiles>  (3) 
Cc1cc2c(cc1C(F)(F)F)Nc1coc(O)c1C(c1cccc(-c3ccc(N(C)C)cc3)c1)=N2

>  <score_type>  (3) 
oracle

>  <origin>  (3) 
adgpu

>  <m_score__min__energy>  (3) 
-9.5800000000000001

>  <m_primary>  (3) 
energy

$$$$
3:0
     RDKit          3D

 42 45  0  0  0  0  0  0  0  0999 V2000
   -1.5100   25.6550  -29.9060 H   0  0  0  0  0  0  0  0  0  0  0  0
   -1.9640   25.6770  -28.9650 N   0  0  0  0  0  0  0  0  0  0  0  0
   -1.0560   24.6200  -27.9420 S   0  0  0  0  0  0  0  0  0  0  0  0
    0.4110   24.7800  -28.2290 O   0  0  0  0  0  0  0  0  0  0  0  0
   -1.3080   24.9790  -26.5050 O   0  0  0  0  0  0  0  0  0  0  0  0
   -1.5440   22.9540  -28.2380 C   0  0  0  0  0  0  0  0  0  0  0  0
   -2.0060   22.1560  -27.1840 C   0  0  0  0  0  0  0  0  0  0  0  0
   -2.0681   22.5711  -26.1672 H   0  0  0  0  0  0  0  0  0  0  0  0
   -2.3880   20.8340  -27.4220 C   0  0  0  0  0  0  0  0  0  0  0  0
   -2.7371   20.2057  -26.5894 H   0  0  0  0  0  0  0  0  0  0  0  0
   -2.3280   20.3070  -28.7150 C   0  0  0  0  0  0  0  0  0  0  0  0
   -2.6135   19.2599  -28.8944 H   0  0  0  0  0  0  0  0  0  0  0  0
   -1.9030   21.1130  -29.7890 C   0  0  0  0  0  0  0  0  0  0  0  0
   -1.8010   20.6030  -31.1290 N   0  0  0  0  0  0  0  0  0  0  0  0
   -2.7850   20.2850  -31.9200 C   0  0  0  0  0  0  0  0  0  0  0  0
   -4.0800   20.4990  -31.5570 N   0  0  0  0  0  0  0  0  0  0  0  0
   -5.1130   20.1980  -32.3900 C   0  0  0  0  0  0  0  0  0  0  0  0
   -6.4630   20.4090  -31.9460 N   0  0  0  0  0  0  0  0  0  0  0  0
   -7.0310   21.5100  -31.3920 C   0  0  0  0  0  0  0  0  0  0  0  0
   -6.3080   22.7180  -30.9410 C   0  0  0  0  0  0  0  0  0  0  0  0
   -5.4310   22.6380  -29.8480 C   0  0  0  0  0  0  0  0  0  0  0  0
   -5.2976   21.6810  -29.3223 H   0  0  0  0  0  0  0  0  0  0  0  0
   -4.7260   23.7690  -29.4240 C   0  0  0  0  0  0  0  0  0  0  0  0
   -4.0490   23.7025  -28.5595 H   0  0  0  0  0  0  0  0  0  0  0  0
   -4.8810   24.9840  -30.0980 C   0  0  0  0  0  0  0  0  0  0  0  0
   -4.3315   25.8749  -29.7598 H   0  0  0  0  0  0  0  0  0  0  0  0
   -5.7340   25.0660  -31.2010 C   0  0  0  0  0  0  0  0  0  0  0  0
   -5.8504   26.0207  -31.7348 H   0  0  0  0  0  0  0  0  0  0  0  0
   -6.4400   23.9380  -31.6280 C   0  0  0  0  0  0  0  0  0  0  0  0
   -7.1013   24.0046  -32.5045 H   0  0  0  0  0  0  0  0  0  0  0  0
   -8.3620   21.3630  -31.2080 N   0  0  0  0  0  0  0  0  0  0  0  0
   -8.6280   20.1190  -31.6510 C   0  0  0  0  0  0  0  0  0  0  0  0
   -9.6217   19.6473  -31.6562 H   0  0  0  0  0  0  0  0  0  0  0  0
   -7.4680   19.5280  -32.0960 C   0  0  0  0  0  0  0  0  0  0  0  0
   -7.3781   18.5105  -32.5041 H   0  0  0  0  0  0  0  0  0  0  0  0
   -4.8380   19.6330  -33.6410 C   0  0  0  0  0  0  0  0  0  0  0  0
   -5.6547   19.3521  -34.3222 H   0  0  0  0  0  0  0  0  0  0  0  0
   -3.5070   19.4340  -34.0050 C   0  0  0  0  0  0  0  0  0  0  0  0
   -3.2640   19.0078  -34.9895 H   0  0  0  0  0  0  0  0  0  0  0  0
   -2.5110   19.7660  -33.1450 N   0  0  0  0  0  0  0  0  0  0  0  0
   -1.4900   22.4270  -29.5370 C   0  0  0  0  0  0  0  0  0  0  0  0
   -1.1203   23.0509  -30.3641 H   0  0  0  0  0  0  0  0  0  0  0  0
  1  2  1  0
  2  3  1  0
  3  4  2  0
  3  5  2  0
  3  6  1  0
  6  7  2  0
  7  8  1  0
  7  9  1  0
  9 10  1  0
  9 11  2  0
 11 12  1  0
 11 13  1  0
 13 14  1  0
 14 15  2  0
 15 16  1  0
 16 17  2  0
 17 18  1  0
 18 19  1  0
 19 20  1  0
 20 21  2  0
 21 22  1  0
 21 23  1  0
 23 24  1  0
 23 25  2  0
 25 26  1  0
 25 27  1  0
 27 28  1  0
 27 29  2  0
 29 30  1  0
 19 31  2  0
 31 32  1  0
 32 33  1  0
 32 34  2  0
 34 35  1  0
 17 36  1  0
 36 37  1  0
 36 38  2  0
 38 39  1  0
 38 40  1  0
 13 41  2  0
 41 42  1  0
 41  6  1  0
 40 15  1  0
 34 18  1  0
 29 20  1  0
M  CHG  2   2  -1  40  -1
M  END
>  <UniqueID>  (4) 
3

>  <SMILES>  (4) 
[NH-]S(=O)(=O)c1cccc(/N=c2\nc(-n3ccnc3-c3ccccc3)cc[n-]2)c1

>  <Energy>  (4) 
91.42986357126377

>  <Genealogy>  (4) 
[NH-]S(=O)(=O)c1cccc(N=c2nc(-n3ccnc3-c3ccccc3)cc[n-]2)c1 (protonated)
[NH-]S(=O)(=O)c1cccc(/N=c2\nc(-n3ccnc3-c3ccccc3)cc[n-]2)c1 (cis-trans isomerization)
[NH-]S(=O)(=O)c1cccc(/N=c2\nc(-n3ccnc3-c3ccccc3)cc[n-]2)c1 (3D coordinates assigned)
[NH-]S(=O)(=O)c1cccc(/N=c2\nc(-n3ccnc3-c3ccccc3)cc[n-]2)c1 (optimized conformer: 91.42986357126377 kcal/mol)

>  <smiles>  (4) 
NS(=O)(=O)c1cccc(N=c2nc(-n3ccnc3-c3ccccc3)cc[nH]2)c1

>  <score_type>  (4) 
oracle

>  <origin>  (4) 
adgpu

>  <m_score__min__energy>  (4) 
-11.69

>  <m_primary>  (4) 
energy

$$$$
4:0
     RDKit          3D

 48 50  0  0  0  0  0  0  0  0999 V2000
   -9.2810   19.0720  -32.1580 C   0  0  0  0  0  0  0  0  0  0  0  0
   -8.3440   17.8700  -32.2150 C   0  0  0  0  0  0  0  0  0  0  0  0
   -6.9850   18.2750  -32.7290 C   0  0  0  0  0  0  0  0  0  0  0  0
   -6.3860   19.4510  -32.2510 C   0  0  0  0  0  0  0  0  0  0  0  0
   -5.1080   19.8340  -32.6860 C   0  0  0  0  0  0  0  0  0  0  0  0
   -4.4840   21.0750  -32.1780 C   0  0  0  0  0  0  0  0  0  0  0  0
   -4.5320   22.2590  -32.8210 N   0  0  0  0  0  0  0  0  0  0  0  0
   -3.8770   23.0820  -32.0600 O   0  0  0  0  0  0  0  0  0  0  0  0
   -3.4400   22.4520  -30.9960 C   0  0  0  0  0  0  0  0  0  0  0  0
   -2.6520   23.0810  -29.9090 C   0  0  0  0  0  0  0  0  0  0  0  0
   -1.8400   22.2820  -29.0820 C   0  0  0  0  0  0  0  0  0  0  0  0
   -1.0670   22.8360  -28.0300 C   0  0  0  0  0  0  0  0  0  0  0  0
   -0.1720   21.9480  -27.1210 C   0  0  0  0  0  0  0  0  0  0  0  0
    1.3320   22.3160  -27.2040 C   0  0  0  0  0  0  0  0  0  0  0  0
   -0.2960   20.4660  -27.5440 C   0  0  0  0  0  0  0  0  0  0  0  0
   -0.5940   22.1090  -25.6430 C   0  0  0  0  0  0  0  0  0  0  0  0
   -1.1440   24.2420  -27.8380 C   0  0  0  0  0  0  0  0  0  0  0  0
   -0.4250   24.8820  -26.8350 O   0  0  0  0  0  0  0  0  0  0  0  0
   -1.9500   25.0330  -28.6580 C   0  0  0  0  0  0  0  0  0  0  0  0
   -2.6990   24.4670  -29.6860 C   0  0  0  0  0  0  0  0  0  0  0  0
   -3.4880   25.2950  -30.4770 O   0  0  0  0  0  0  0  0  0  0  0  0
   -3.8020   21.1530  -31.0160 N   0  0  0  0  0  0  0  0  0  0  0  0
   -4.4240   19.0220  -33.6050 C   0  0  0  0  0  0  0  0  0  0  0  0
   -5.0070   17.8400  -34.0880 C   0  0  0  0  0  0  0  0  0  0  0  0
   -4.2550   16.9660  -35.0520 C   0  0  0  0  0  0  0  0  0  0  0  0
   -6.2830   17.4600  -33.6380 C   0  0  0  0  0  0  0  0  0  0  0  0
   -6.8520   16.2730  -34.0920 O   0  0  0  0  0  0  0  0  0  0  0  0
   -9.4824   19.3304  -31.1079 H   0  0  0  0  0  0  0  0  0  0  0  0
   -8.8098   19.9285  -32.6625 H   0  0  0  0  0  0  0  0  0  0  0  0
  -10.2265   18.8241  -32.6625 H   0  0  0  0  0  0  0  0  0  0  0  0
   -8.2366   17.4481  -31.2048 H   0  0  0  0  0  0  0  0  0  0  0  0
   -8.7712   17.1217  -32.8987 H   0  0  0  0  0  0  0  0  0  0  0  0
   -6.9247   20.0798  -31.5269 H   0  0  0  0  0  0  0  0  0  0  0  0
   -1.8040   21.1966  -29.2568 H   0  0  0  0  0  0  0  0  0  0  0  0
    1.7416   22.4162  -26.1880 H   0  0  0  0  0  0  0  0  0  0  0  0
    1.8742   21.5240  -27.7414 H   0  0  0  0  0  0  0  0  0  0  0  0
    1.4472   23.2688  -27.7414 H   0  0  0  0  0  0  0  0  0  0  0  0
   -0.3491   19.8318  -26.6468 H   0  0  0  0  0  0  0  0  0  0  0  0
   -1.2086   20.3308  -28.1431 H   0  0  0  0  0  0  0  0  0  0  0  0
    0.5814   20.1810  -28.1431 H   0  0  0  0  0  0  0  0  0  0  0  0
    0.2325   21.7937  -24.9893 H   0  0  0  0  0  0  0  0  0  0  0  0
   -0.8373   23.1631  -25.4439 H   0  0  0  0  0  0  0  0  0  0  0  0
   -1.4776   21.4848  -25.4439 H   0  0  0  0  0  0  0  0  0  0  0  0
   -1.9941   26.1191  -28.4897 H   0  0  0  0  0  0  0  0  0  0  0  0
   -3.4214   19.3151  -33.9498 H   0  0  0  0  0  0  0  0  0  0  0  0
   -3.6377   16.2485  -34.4915 H   0  0  0  0  0  0  0  0  0  0  0  0
   -4.9693   16.4191  -35.6850 H   0  0  0  0  0  0  0  0  0  0  0  0
   -3.6076   17.5907  -35.6850 H   0  0  0  0  0  0  0  0  0  0  0  0
  1  2  1  0
  2  3  1  0
  3  4  2  0
  4  5  1  0
  5  6  1  0
  6  7  2  0
  7  8  1  0
  8  9  1  0
  9 10  1  0
 10 11  2  0
 11 12  1  0
 12 13  1  0
 13 14  1  0
 13 15  1  0
 13 16  1  0
 12 17  2  0
 17 18  1  0
 17 19  1  0
 19 20  2  0
 20 21  1  0
  9 22  2  0
  5 23  2  0
 23 24  1  0
 24 25  1  0
 24 26  2  0
 26 27  1  0
 26  3  1  0
 22  6  1  0
 20 10  1  0
  1 28  1  0
  1 29  1  0
  1 30  1  0
  2 31  1  0
  2 32  1  0
  4 33  1  0
 11 34  1  0
 14 35  1  0
 14 36  1  0
 14 37  1  0
 15 38  1  0
 15 39  1  0
 15 40  1  0
 16 41  1  0
 16 42  1  0
 16 43  1  0
 19 44  1  0
 23 45  1  0
 25 46  1  0
 25 47  1  0
 25 48  1  0
M  CHG  3  18  -1  21  -1  27  -1
M  END
>  <UniqueID>  (5) 
4

>  <SMILES>  (5) 
CCc1cc(-c2noc(-c3cc(C(C)(C)C)c([O-])cc3[O-])n2)cc(C)c1[O-]

>  <Energy>  (5) 
87.21445675816372

>  <Genealogy>  (5) 
CCc1cc(-c2noc(-c3cc(C(C)(C)C)c([O-])cc3[O-])n2)cc(C)c1[O-] (protonated)
CCc1cc(-c2noc(-c3cc(C(C)(C)C)c([O-])cc3[O-])n2)cc(C)c1[O-] (3D coordinates assigned)
CCc1cc(-c2noc(-c3cc(C(C)(C)C)c([O-])cc3[O-])n2)cc(C)c1[O-] (optimized conformer: 87.21445675816372 kcal/mol)

>  <smiles>  (5) 
CCc1cc(-c2noc(-c3cc(C(C)(C)C)c(O)cc3O)n2)cc(C)c1O

>  <score_type>  (5) 
oracle

>  <origin>  (5) 
adgpu

>  <m_score__min__energy>  (5) 
-12.140000000000001

>  <m_primary>  (5) 
energy

$$$$
5:0
     RDKit          3D

 43 45  0  0  0  0  0  0  0  0999 V2000
    2.3930   21.0380  -35.1760 C   0  0  0  0  0  0  0  0  0  0  0  0
    1.1000   20.5970  -34.5590 C   0  0  0  0  0  0  0  0  0  0  0  0
   -0.1240   21.0380  -35.0880 C   0  0  0  0  0  0  0  0  0  0  0  0
   -1.3300   20.5960  -34.5370 C   0  0  0  0  0  0  0  0  0  0  0  0
   -1.3240   19.6940  -33.4660 C   0  0  0  0  0  0  0  0  0  0  0  0
   -2.8740   19.1180  -32.7680 S   0  0  0  0  0  0  0  0  0  0  0  0
   -3.1540   20.6510  -31.8650 C   0  0  0  0  0  0  0  0  0  0  0  0
   -2.0330   21.3310  -31.3700 C   0  0  0  0  0  0  0  0  0  0  0  0
   -2.1760   22.5560  -30.7190 C   0  0  0  0  0  0  0  0  0  0  0  0
   -3.4430   23.1240  -30.5610 C   0  0  0  0  0  0  0  0  0  0  0  0
   -3.6240   24.6680  -29.7350 S   0  0  0  0  0  0  0  0  0  0  0  0
   -2.0720   25.2450  -29.2410 N   0  0  0  0  0  0  0  0  0  0  0  0
   -4.5050   24.4990  -28.5280 O   0  0  0  0  0  0  0  0  0  0  0  0
   -4.2590   25.6700  -30.6560 O   0  0  0  0  0  0  0  0  0  0  0  0
   -4.5710   22.4460  -31.0390 C   0  0  0  0  0  0  0  0  0  0  0  0
   -4.4460   21.2020  -31.6830 C   0  0  0  0  0  0  0  0  0  0  0  0
   -5.6700   20.5240  -32.1660 C   0  0  0  0  0  0  0  0  0  0  0  0
   -6.6640   20.4010  -31.4010 O   0  0  0  0  0  0  0  0  0  0  0  0
   -5.7320   20.0660  -33.5270 N   0  0  0  0  0  0  0  0  0  0  0  0
   -5.8750   18.8410  -33.9420 C   0  0  0  0  0  0  0  0  0  0  0  0
   -5.9240   17.6840  -33.1790 C   0  0  0  0  0  0  0  0  0  0  0  0
   -6.0400   16.6870  -34.1310 C   0  0  0  0  0  0  0  0  0  0  0  0
   -6.1150   15.2220  -33.8610 C   0  0  0  0  0  0  0  0  0  0  0  0
   -6.0490   17.2260  -35.3300 O   0  0  0  0  0  0  0  0  0  0  0  0
   -5.9490   18.5180  -35.2450 N   0  0  0  0  0  0  0  0  0  0  0  0
   -0.1070   19.2460  -32.9400 C   0  0  0  0  0  0  0  0  0  0  0  0
    1.1000   19.6870  -33.4900 C   0  0  0  0  0  0  0  0  0  0  0  0
    3.1133   21.2837  -34.3818 H   0  0  0  0  0  0  0  0  0  0  0  0
    2.7972   20.2269  -35.7995 H   0  0  0  0  0  0  0  0  0  0  0  0
    2.2173   21.9270  -35.7995 H   0  0  0  0  0  0  0  0  0  0  0  0
   -0.1335   21.7342  -35.9396 H   0  0  0  0  0  0  0  0  0  0  0  0
   -2.2854   20.9573  -34.9453 H   0  0  0  0  0  0  0  0  0  0  0  0
   -1.0312   20.8945  -31.4961 H   0  0  0  0  0  0  0  0  0  0  0  0
   -1.2890   23.0766  -30.3288 H   0  0  0  0  0  0  0  0  0  0  0  0
   -1.6150   25.6520  -30.0880 H   0  0  0  0  0  0  0  0  0  0  0  0
   -5.5680   22.8922  -30.9091 H   0  0  0  0  0  0  0  0  0  0  0  0
   -5.8811   17.5836  -32.0844 H   0  0  0  0  0  0  0  0  0  0  0  0
   -6.1238   15.0494  -32.7747 H   0  0  0  0  0  0  0  0  0  0  0  0
   -7.0352   14.8140  -34.3046 H   0  0  0  0  0  0  0  0  0  0  0  0
   -5.2413   14.7222  -34.3046 H   0  0  0  0  0  0  0  0  0  0  0  0
   -5.9260   19.1720  -36.0590 H   0  0  0  0  0  0  0  0  0  0  0  0
   -0.1003   18.5454  -32.0920 H   0  0  0  0  0  0  0  0  0  0  0  0
    2.0538   19.3195  -33.0835 H   0  0  0  0  0  0  0  0  0  0  0  0
  1  2  1  0
  2  3  2  0
  3  4  1  0
  4  5  2  0
  5  6  1  0
  6  7  1  0
  7  8  2  0
  8  9  1  0
  9 10  2  0
 10 11  1  0
 11 12  1  0
 11 13  2  0
 11 14  2  0
 10 15  1  0
 15 16  2  0
 16 17  1  0
 17 18  2  0
 17 19  1  0
 19 20  2  3
 20 21  1  0
 21 22  2  0
 22 23  1  0
 22 24  1  0
 24 25  1  0
  5 26  1  0
 26 27  2  0
 27  2  1  0
 16  7  1  0
 25 20  1  0
  1 28  1  0
  1 29  1  0
  1 30  1  0
  3 31  1  0
  4 32  1  0
  8 33  1  0
  9 34  1  0
 12 35  1  0
 15 36  1  0
 21 37  1  0
 23 38  1  0
 23 39  1  0
 23 40  1  0
 25 41  1  0
 26 42  1  0
 27 43  1  0
M  CHG  1  12  -1
M  END
>  <UniqueID>  (6) 
5

>  <SMILES>  (6) 
Cc1ccc(Sc2ccc(S([NH-])(=O)=O)cc2C(=O)N=c2cc(C)o[nH]2)cc1

>  <Energy>  (6) 
78.03210959993973

>  <Genealogy>  (6) 
Cc1ccc(Sc2ccc(S([NH-])(=O)=O)cc2C(=O)N=c2cc(C)o[nH]2)cc1 (protonated)
Cc1ccc(Sc2ccc(S([NH-])(=O)=O)cc2C(=O)N=c2cc(C)o[nH]2)cc1 (3D coordinates assigned)
Cc1ccc(Sc2ccc(S([NH-])(=O)=O)cc2C(=O)N=c2cc(C)o[nH]2)cc1 (optimized conformer: 78.03210959993973 kcal/mol)

>  <smiles>  (6) 
Cc1ccc(Sc2ccc(S(N)(=O)=O)cc2C(=O)N=c2cc(C)o[nH]2)cc1

>  <score_type>  (6) 
oracle

>  <origin>  (6) 
adgpu

>  <m_score__min__energy>  (6) 
-10.970000000000001

>  <m_primary>  (6) 
energy

$$$$
6:0
     RDKit          3D

 38 39  0  0  0  0  0  0  0  0999 V2000
   -0.1170   22.9730  -24.1620 C   0  0  0  0  0  0  0  0  0  0  0  0
    0.8310   23.9000  -24.9150 C   0  0  0  0  0  0  0  0  0  0  0  0
    0.1010   24.7750  -25.7730 O   0  0  0  0  0  0  0  0  0  0  0  0
    0.1140   24.6770  -27.1680 C   0  0  0  0  0  0  0  0  0  0  0  0
    1.1890   24.8410  -27.8070 O   0  0  0  0  0  0  0  0  0  0  0  0
   -1.1320   24.3720  -27.8970 C   0  0  0  0  0  0  0  0  0  0  0  0
   -1.9490   23.2510  -27.7560 C   0  0  0  0  0  0  0  0  0  0  0  0
   -1.7370   22.0800  -26.8470 C   0  0  0  0  0  0  0  0  0  0  0  0
   -2.9790   23.3990  -28.6700 C   0  0  0  0  0  0  0  0  0  0  0  0
   -3.9760   22.4550  -28.9060 O   0  0  0  0  0  0  0  0  0  0  0  0
   -2.8480   24.5690  -29.3310 N   0  0  0  0  0  0  0  0  0  0  0  0
   -3.6690   25.0690  -30.3590 N   0  0  0  0  0  0  0  0  0  0  0  0
   -4.8330   24.3650  -30.8270 C   0  0  0  0  0  0  0  0  0  0  0  0
   -4.6940   23.2910  -31.7240 C   0  0  0  0  0  0  0  0  0  0  0  0
   -5.8130   22.5840  -32.1660 C   0  0  0  0  0  0  0  0  0  0  0  0
   -7.0840   22.9310  -31.7090 C   0  0  0  0  0  0  0  0  0  0  0  0
   -7.2410   23.9900  -30.8120 C   0  0  0  0  0  0  0  0  0  0  0  0
   -6.1240   24.7180  -30.3670 C   0  0  0  0  0  0  0  0  0  0  0  0
   -6.3210   25.8560  -29.4030 C   0  0  0  0  0  0  0  0  0  0  0  0
   -1.7200   25.1490  -28.8830 C   0  0  0  0  0  0  0  0  0  0  0  0
   -1.2360   26.3630  -29.3560 O   0  0  0  0  0  0  0  0  0  0  0  0
    0.0212   23.1082  -23.0791 H   0  0  0  0  0  0  0  0  0  0  0  0
   -1.1560   23.2132  -24.4318 H   0  0  0  0  0  0  0  0  0  0  0  0
    0.0999   21.9289  -24.4318 H   0  0  0  0  0  0  0  0  0  0  0  0
    1.4030   24.4982  -24.1905 H   0  0  0  0  0  0  0  0  0  0  0  0
    1.5121   23.2901  -25.5267 H   0  0  0  0  0  0  0  0  0  0  0  0
   -1.7972   22.4127  -25.8003 H   0  0  0  0  0  0  0  0  0  0  0  0
   -2.5128   21.3235  -27.0365 H   0  0  0  0  0  0  0  0  0  0  0  0
   -0.7452   21.6435  -27.0365 H   0  0  0  0  0  0  0  0  0  0  0  0
   -4.9410   22.6220  -28.6530 H   0  0  0  0  0  0  0  0  0  0  0  0
   -3.5140   26.0520  -30.6790 H   0  0  0  0  0  0  0  0  0  0  0  0
   -3.6934   23.0054  -32.0808 H   0  0  0  0  0  0  0  0  0  0  0  0
   -5.6924   21.7522  -32.8756 H   0  0  0  0  0  0  0  0  0  0  0  0
   -7.9643   22.3698  -32.0555 H   0  0  0  0  0  0  0  0  0  0  0  0
   -8.2456   24.2561  -30.4514 H   0  0  0  0  0  0  0  0  0  0  0  0
   -6.2557   25.4785  -28.3719 H   0  0  0  0  0  0  0  0  0  0  0  0
   -5.5407   26.6140  -29.5661 H   0  0  0  0  0  0  0  0  0  0  0  0
   -7.3107   26.3076  -29.5661 H   0  0  0  0  0  0  0  0  0  0  0  0
  1  2  1  0
  2  3  1  0
  3  4  1  0
  4  5  2  0
  4  6  1  0
  6  7  1  0
  7  8  1  0
  7  9  2  0
  9 10  1  0
  9 11  1  0
 11 12  1  0
 12 13  1  0
 13 14  2  0
 14 15  1  0
 15 16  2  0
 16 17  1  0
 17 18  2  0
 18 19  1  0
 11 20  1  0
 20 21  1  0
 20  6  2  0
 18 13  1  0
  1 22  1  0
  1 23  1  0
  1 24  1  0
  2 25  1  0
  2 26  1  0
  8 27  1  0
  8 28  1  0
  8 29  1  0
 10 30  1  0
 12 31  1  0
 14 32  1  0
 15 33  1  0
 16 34  1  0
 17 35  1  0
 19 36  1  0
 19 37  1  0
 19 38  1  0
M  CHG  1  21  -1
M  END
>  <UniqueID>  (7) 
6

>  <SMILES>  (7) 
CCOC(=O)c1c(C)c(O)n(Nc2ccccc2C)c1[O-]

>  <Energy>  (7) 
68.78400116168426

>  <Genealogy>  (7) 
CCOC(=O)c1c(C)c(O)n(Nc2ccccc2C)c1[O-] (protonated)
CCOC(=O)c1c(C)c(O)n(Nc2ccccc2C)c1[O-] (3D coordinates assigned)
CCOC(=O)c1c(C)c(O)n(Nc2ccccc2C)c1[O-] (optimized conformer: 68.78400116168426 kcal/mol)

>  <smiles>  (7) 
CCOC(=O)c1c(C)c(O)n(Nc2ccccc2C)c1O

>  <score_type>  (7) 
oracle

>  <origin>  (7) 
adgpu

>  <m_score__min__energy>  (7) 
-9.6400000000000006

>  <m_primary>  (7) 
energy

$$$$
7:0
     RDKit          3D

 53 56  0  0  0  0  0  0  0  0999 V2000
   -1.5650   26.3590  -28.1760 H   0  0  0  0  0  0  0  0  0  0  0  0
   -2.0690   25.6720  -28.7840 N   0  0  0  0  0  0  0  0  0  0  0  0
   -1.5770   24.4990  -29.0350 C   0  0  0  0  0  0  0  0  0  0  0  0
   -0.3820   24.1480  -28.4830 N   0  0  0  0  0  0  0  0  0  0  0  0
    0.1770   22.9310  -28.6850 C   0  0  0  0  0  0  0  0  0  0  0  0
    1.1434   22.6849  -28.2207 H   0  0  0  0  0  0  0  0  0  0  0  0
   -0.4730   21.9920  -29.4810 C   0  0  0  0  0  0  0  0  0  0  0  0
   -0.0198   21.0039  -29.6490 H   0  0  0  0  0  0  0  0  0  0  0  0
   -1.7060   22.3080  -30.0680 C   0  0  0  0  0  0  0  0  0  0  0  0
   -2.3370   21.3350  -30.9140 N   0  0  0  0  0  0  0  0  0  0  0  0
   -3.3080   21.0380  -30.6710 H   0  0  0  0  0  0  0  0  0  0  0  0
   -1.6820   20.7460  -32.0540 C   0  0  0  0  0  0  0  0  0  0  0  0
   -0.4270   20.1280  -31.9110 C   0  0  0  0  0  0  0  0  0  0  0  0
    0.0150   20.0190  -30.9096 H   0  0  0  0  0  0  0  0  0  0  0  0
    0.2630   19.6520  -33.0250 C   0  0  0  0  0  0  0  0  0  0  0  0
    1.2405   19.1647  -32.8947 H   0  0  0  0  0  0  0  0  0  0  0  0
   -0.2800   19.7900  -34.3100 C   0  0  0  0  0  0  0  0  0  0  0  0
    0.4590   19.3370  -35.4620 N   0  0  0  0  0  0  0  0  0  0  0  0
    1.1600   20.2950  -36.3220 C   0  0  0  0  0  0  0  0  0  0  0  0
    0.4826   20.6358  -37.1188 H   0  0  0  0  0  0  0  0  0  0  0  0
    1.4838   21.1574  -35.7208 H   0  0  0  0  0  0  0  0  0  0  0  0
    2.3860   19.6210  -36.9480 C   0  0  0  0  0  0  0  0  0  0  0  0
    2.8263   20.2986  -37.6943 H   0  0  0  0  0  0  0  0  0  0  0  0
    3.1097   19.4021  -36.1491 H   0  0  0  0  0  0  0  0  0  0  0  0
    2.0330   18.4040  -37.5800 O   0  0  0  0  0  0  0  0  0  0  0  0
    1.5510   17.4820  -36.6210 C   0  0  0  0  0  0  0  0  0  0  0  0
    1.3634   16.5157  -37.1120 H   0  0  0  0  0  0  0  0  0  0  0  0
    2.3066   17.3687  -35.8296 H   0  0  0  0  0  0  0  0  0  0  0  0
    0.2510   17.9850  -35.9900 C   0  0  0  0  0  0  0  0  0  0  0  0
   -0.5427   18.0061  -36.7513 H   0  0  0  0  0  0  0  0  0  0  0  0
   -0.0456   17.3120  -35.1720 H   0  0  0  0  0  0  0  0  0  0  0  0
   -1.5370   20.3960  -34.4600 C   0  0  0  0  0  0  0  0  0  0  0  0
   -1.9674   20.5126  -35.4656 H   0  0  0  0  0  0  0  0  0  0  0  0
   -2.2500   20.8540  -33.3450 C   0  0  0  0  0  0  0  0  0  0  0  0
   -3.5480   21.4350  -33.5460 N   0  0  0  0  0  0  0  0  0  0  0  0
   -3.6010   22.3170  -34.1040 H   0  0  0  0  0  0  0  0  0  0  0  0
   -4.7770   20.7970  -33.1630 C   0  0  0  0  0  0  0  0  0  0  0  0
   -5.8790   21.5400  -32.7040 C   0  0  0  0  0  0  0  0  0  0  0  0
   -5.8080   22.6353  -32.6308 H   0  0  0  0  0  0  0  0  0  0  0  0
   -7.0650   20.8940  -32.3400 C   0  0  0  0  0  0  0  0  0  0  0  0
   -7.9268   21.4828  -31.9927 H   0  0  0  0  0  0  0  0  0  0  0  0
   -7.1570   19.4990  -32.4170 C   0  0  0  0  0  0  0  0  0  0  0  0
   -8.3740   18.8330  -32.0340 C   0  0  0  0  0  0  0  0  0  0  0  0
   -9.3520   18.2960  -31.7270 N   0  0  0  0  0  0  0  0  0  0  0  0
   -6.0590   18.7530  -32.8580 C   0  0  0  0  0  0  0  0  0  0  0  0
   -6.1280   17.6568  -32.9172 H   0  0  0  0  0  0  0  0  0  0  0  0
   -4.8730   19.3990  -33.2240 C   0  0  0  0  0  0  0  0  0  0  0  0
   -4.0100   18.8064  -33.5619 H   0  0  0  0  0  0  0  0  0  0  0  0
   -2.2790   23.5810  -29.8520 C   0  0  0  0  0  0  0  0  0  0  0  0
   -3.5540   23.9610  -30.5080 C   0  0  0  0  0  0  0  0  0  0  0  0
   -4.3880   23.0810  -30.8420 O   0  0  0  0  0  0  0  0  0  0  0  0
   -3.8450   25.3290  -30.7740 N   0  0  0  0  0  0  0  0  0  0  0  0
   -3.8620   26.0310  -30.0020 H   0  0  0  0  0  0  0  0  0  0  0  0
  1  2  1  0
  2  3  2  0
  3  4  1  0
  4  5  1  0
  5  6  1  0
  5  7  2  0
  7  8  1  0
  7  9  1  0
  9 10  1  0
 10 11  1  0
 10 12  1  0
 12 13  2  0
 13 14  1  0
 13 15  1  0
 15 16  1  0
 15 17  2  0
 17 18  1  0
 18 19  1  0
 19 20  1  0
 19 21  1  0
 19 22  1  0
 22 23  1  0
 22 24  1  0
 22 25  1  0
 25 26  1  0
 26 27  1  0
 26 28  1  0
 26 29  1  0
 29 30  1  0
 29 31  1  0
 17 32  1  0
 32 33  1  0
 32 34  2  0
 34 35  1  0
 35 36  1  0
 35 37  1  0
 37 38  2  0
 38 39  1  0
 38 40  1  0
 40 41  1  0
 40 42  2  0
 42 43  1  0
 43 44  3  0
 42 45  1  0
 45 46  1  0
 45 47  2  0
 47 48  1  0
  9 49  2  0
 49 50  1  0
 50 51  2  0
 50 52  1  0
 52 53  1  0
 49  3  1  0
 34 12  1  0
 47 37  1  0
 29 18  1  0
M  CHG  2   4  -1  52  -1
M  END
>  <UniqueID>  (8) 
7

>  <SMILES>  (8) 
[H]/N=c1\[n-]ccc(Nc2ccc(N3CCOCC3)cc2Nc2ccc(C#N)cc2)c1C([NH-])=O

>  <Energy>  (8) 
81.12703330322023

>  <Genealogy>  (8) 
N#Cc1ccc(Nc2cc(N3CCOCC3)ccc2Nc2cc[n-]c(=N)c2C([NH-])=O)cc1 (protonated)
[H]/N=c1\[n-]ccc(Nc2ccc(N3CCOCC3)cc2Nc2ccc(C#N)cc2)c1C([NH-])=O (cis-trans isomerization)
[H]/N=c1\[n-]ccc(Nc2ccc(N3CCOCC3)cc2Nc2ccc(C#N)cc2)c1C([NH-])=O (3D coordinates assigned)
[H]/N=c1\[n-]ccc(Nc2ccc(N3CCOCC3)cc2Nc2ccc(C#N)cc2)c1C([NH-])=O (nonaromatic ring conformer: 81.12703330322023 kcal/mol)

>  <smiles>  (8) 
N#Cc1ccc(Nc2cc(N3CCOCC3)ccc2Nc2cc[nH]c(=N)c2C(N)=O)cc1

>  <score_type>  (8) 
oracle

>  <origin>  (8) 
adgpu

>  <m_score__min__energy>  (8) 
-12.25

>  <m_primary>  (8) 
energy

$$$$
8:0
     RDKit          3D

 51 54  0  0  0  0  0  0  0  0999 V2000
   -6.3930   16.0500  -33.8210 C   0  0  0  0  0  0  0  0  0  0  0  0
   -6.4490   17.4800  -33.3520 C   0  0  0  0  0  0  0  0  0  0  0  0
   -7.5190   17.8970  -32.5450 C   0  0  0  0  0  0  0  0  0  0  0  0
   -7.6030   19.2160  -32.0980 C   0  0  0  0  0  0  0  0  0  0  0  0
   -6.6170   20.1520  -32.4500 C   0  0  0  0  0  0  0  0  0  0  0  0
   -6.7060   21.5550  -31.9700 C   0  0  0  0  0  0  0  0  0  0  0  0
   -7.9350   22.2360  -31.9850 C   0  0  0  0  0  0  0  0  0  0  0  0
   -8.0180   23.5540  -31.5310 C   0  0  0  0  0  0  0  0  0  0  0  0
   -6.8800   24.2090  -31.0590 C   0  0  0  0  0  0  0  0  0  0  0  0
   -5.6370   23.5510  -31.0360 C   0  0  0  0  0  0  0  0  0  0  0  0
   -4.4270   24.2460  -30.5380 C   0  0  0  0  0  0  0  0  0  0  0  0
   -4.2230   25.4530  -30.8450 O   0  0  0  0  0  0  0  0  0  0  0  0
   -3.5140   23.5620  -29.6680 N   0  0  0  0  0  0  0  0  0  0  0  0
   -2.3970   22.7510  -30.0620 C   0  0  0  0  0  0  0  0  0  0  0  0
   -2.4740   21.8760  -31.1610 C   0  0  0  0  0  0  0  0  0  0  0  0
   -1.3770   21.0820  -31.5100 C   0  0  0  0  0  0  0  0  0  0  0  0
   -0.2010   21.1480  -30.7630 C   0  0  0  0  0  0  0  0  0  0  0  0
   -0.1220   21.9940  -29.6560 C   0  0  0  0  0  0  0  0  0  0  0  0
   -1.2260   22.7810  -29.2820 C   0  0  0  0  0  0  0  0  0  0  0  0
   -1.1560   23.6680  -28.1560 N   0  0  0  0  0  0  0  0  0  0  0  0
   -1.1890   25.1010  -28.2080 C   0  0  0  0  0  0  0  0  0  0  0  0
   -1.2630   25.6670  -29.3300 O   0  0  0  0  0  0  0  0  0  0  0  0
   -1.2020   25.9300  -26.9900 C   0  0  0  0  0  0  0  0  0  0  0  0
   -1.7590   25.5960  -25.7680 C   0  0  0  0  0  0  0  0  0  0  0  0
   -1.5430   26.6840  -24.9520 C   0  0  0  0  0  0  0  0  0  0  0  0
   -0.8760   27.6150  -25.7210 C   0  0  0  0  0  0  0  0  0  0  0  0
   -0.6890   27.1370  -26.9300 O   0  0  0  0  0  0  0  0  0  0  0  0
   -5.5610   22.2220  -31.4930 C   0  0  0  0  0  0  0  0  0  0  0  0
   -5.5460   19.7400  -33.2610 C   0  0  0  0  0  0  0  0  0  0  0  0
   -5.4560   18.4170  -33.7240 C   0  0  0  0  0  0  0  0  0  0  0  0
   -4.2860   18.0140  -34.5830 C   0  0  0  0  0  0  0  0  0  0  0  0
   -6.3667   15.3791  -32.9497 H   0  0  0  0  0  0  0  0  0  0  0  0
   -7.2831   15.8280  -34.4279 H   0  0  0  0  0  0  0  0  0  0  0  0
   -5.4882   15.8983  -34.4279 H   0  0  0  0  0  0  0  0  0  0  0  0
   -8.3000   17.1759  -32.2618 H   0  0  0  0  0  0  0  0  0  0  0  0
   -8.4479   19.5251  -31.4651 H   0  0  0  0  0  0  0  0  0  0  0  0
   -8.8371   21.7279  -32.3566 H   0  0  0  0  0  0  0  0  0  0  0  0
   -8.9850   24.0782  -31.5456 H   0  0  0  0  0  0  0  0  0  0  0  0
   -6.9554   25.2469  -30.7025 H   0  0  0  0  0  0  0  0  0  0  0  0
   -3.4019   21.8161  -31.7488 H   0  0  0  0  0  0  0  0  0  0  0  0
   -1.4416   20.4048  -32.3744 H   0  0  0  0  0  0  0  0  0  0  0  0
    0.6653   20.5324  -31.0468 H   0  0  0  0  0  0  0  0  0  0  0  0
    0.8091   22.0456  -29.0726 H   0  0  0  0  0  0  0  0  0  0  0  0
   -2.2680   24.6574  -25.5037 H   0  0  0  0  0  0  0  0  0  0  0  0
   -1.8422   26.7895  -23.8987 H   0  0  0  0  0  0  0  0  0  0  0  0
   -0.5503   28.6068  -25.3744 H   0  0  0  0  0  0  0  0  0  0  0  0
   -4.5944   21.6972  -31.4774 H   0  0  0  0  0  0  0  0  0  0  0  0
   -4.7661   20.4648  -33.5375 H   0  0  0  0  0  0  0  0  0  0  0  0
   -3.4421   17.7233  -33.9401 H   0  0  0  0  0  0  0  0  0  0  0  0
   -4.5733   17.1630  -35.2181 H   0  0  0  0  0  0  0  0  0  0  0  0
   -3.9883   18.8614  -35.2181 H   0  0  0  0  0  0  0  0  0  0  0  0
  1  2  1  0
  2  3  2  0
  3  4  1  0
  4  5  2  0
  5  6  1  0
  6  7  2  0
  7  8  1  0
  8  9  2  0
  9 10  1  0
 10 11  1  0
 11 12  2  0
 11 13  1  0
 13 14  1  0
 14 15  2  0
 15 16  1  0
 16 17  2  0
 17 18  1  0
 18 19  2  0
 19 20  1  0
 20 21  1  0
 21 22  2  0
 21 23  1  0
 23 24  2  0
 24 25  1  0
 25 26  2  0
 26 27  1  0
 10 28  2  0
  5 29  1  0
 29 30  2  0
 30 31  1  0
 30  2  1  0
 28  6  1  0
 19 14  1  0
 27 23  1  0
  1 32  1  0
  1 33  1  0
  1 34  1  0
  3 35  1  0
  4 36  1  0
  7 37  1  0
  8 38  1  0
  9 39  1  0
 15 40  1  0
 16 41  1  0
 17 42  1  0
 18 43  1  0
 24 44  1  0
 25 45  1  0
 26 46  1  0
 28 47  1  0
 29 48  1  0
 31 49  1  0
 31 50  1  0
 31 51  1  0
M  CHG  2  13  -1  20  -1
M  END
>  <UniqueID>  (9) 
8

>  <SMILES>  (9) 
Cc1ccc(-c2cccc(C(=O)[N-]c3ccccc3[N-]C(=O)c3ccco3)c2)cc1C

>  <Energy>  (9) 
96.65095681346473

>  <Genealogy>  (9) 
Cc1ccc(-c2cccc(C(=O)[N-]c3ccccc3[N-]C(=O)c3ccco3)c2)cc1C (protonated)
Cc1ccc(-c2cccc(C(=O)[N-]c3ccccc3[N-]C(=O)c3ccco3)c2)cc1C (3D coordinates assigned)
Cc1ccc(-c2cccc(C(=O)[N-]c3ccccc3[N-]C(=O)c3ccco3)c2)cc1C (optimized conformer: 96.65095681346473 kcal/mol)

>  <smiles>  (9) 
Cc1ccc(-c2cccc(C(=O)Nc3ccccc3NC(=O)c3ccco3)c2)cc1C

>  <score_type>  (9) 
oracle

>  <origin>  (9) 
adgpu

>  <m_score__min__energy>  (9) 
-13.32

>  <m_primary>  (9) 
energy

$$$$
9:0
     RDKit          3D

 44 46  0  0  0  0  0  0  0  0999 V2000
   -5.8380   18.8820  -34.9610 O   0  0  0  0  0  0  0  0  0  0  0  0
   -4.9680   17.9630  -34.3740 C   0  0  0  0  0  0  0  0  0  0  0  0
   -3.5850   18.0730  -34.5850 C   0  0  0  0  0  0  0  0  0  0  0  0
   -2.7080   17.1580  -33.9980 C   0  0  0  0  0  0  0  0  0  0  0  0
   -3.2050   16.1290  -33.1960 C   0  0  0  0  0  0  0  0  0  0  0  0
   -4.5810   16.0110  -32.9800 C   0  0  0  0  0  0  0  0  0  0  0  0
   -5.4740   16.9220  -33.5690 C   0  0  0  0  0  0  0  0  0  0  0  0
   -6.9590   16.7980  -33.3030 C   0  0  0  0  0  0  0  0  0  0  0  0
   -7.6110   18.1110  -33.1780 N   0  0  0  0  0  0  0  0  0  0  0  0
   -7.8030   18.4970  -31.7750 C   0  0  0  0  0  0  0  0  0  0  0  0
   -8.0550   19.9780  -31.6900 C   0  0  0  0  0  0  0  0  0  0  0  0
   -9.3040   20.4980  -32.0440 C   0  0  0  0  0  0  0  0  0  0  0  0
   -9.5290   21.8720  -31.9930 C   0  0  0  0  0  0  0  0  0  0  0  0
   -8.5060   22.7410  -31.6060 C   0  0  0  0  0  0  0  0  0  0  0  0
   -7.2210   22.2520  -31.2670 C   0  0  0  0  0  0  0  0  0  0  0  0
   -6.1440   23.1600  -30.8740 N   0  0  0  0  0  0  0  0  0  0  0  0
   -4.7390   22.7200  -31.0150 C   0  0  0  0  0  0  0  0  0  0  0  0
   -3.7220   23.7400  -30.4980 C   0  0  0  0  0  0  0  0  0  0  0  0
   -4.1250   25.0540  -30.7990 O   0  0  0  0  0  0  0  0  0  0  0  0
   -5.2590   25.3580  -30.0240 C   0  0  0  0  0  0  0  0  0  0  0  0
   -6.4720   24.5480  -30.4840 C   0  0  0  0  0  0  0  0  0  0  0  0
   -7.0190   20.8500  -31.3180 C   0  0  0  0  0  0  0  0  0  0  0  0
   -6.8180   18.6670  -35.1080 H   0  0  0  0  0  0  0  0  0  0  0  0
   -3.1899   18.8833  -35.2154 H   0  0  0  0  0  0  0  0  0  0  0  0
   -1.6249   17.2482  -34.1678 H   0  0  0  0  0  0  0  0  0  0  0  0
   -2.5128   15.4101  -32.7334 H   0  0  0  0  0  0  0  0  0  0  0  0
   -4.9671   15.2000  -32.3450 H   0  0  0  0  0  0  0  0  0  0  0  0
   -7.4237   16.2492  -34.1354 H   0  0  0  0  0  0  0  0  0  0  0  0
   -7.0887   16.2636  -32.3503 H   0  0  0  0  0  0  0  0  0  0  0  0
   -7.0240   18.8360  -33.6540 H   0  0  0  0  0  0  0  0  0  0  0  0
   -8.6654   17.9543  -31.3605 H   0  0  0  0  0  0  0  0  0  0  0  0
   -6.8996   18.2461  -31.1997 H   0  0  0  0  0  0  0  0  0  0  0  0
  -10.1101   19.8211  -32.3632 H   0  0  0  0  0  0  0  0  0  0  0  0
  -10.5175   22.2747  -32.2589 H   0  0  0  0  0  0  0  0  0  0  0  0
   -8.7018   23.8226  -31.5639 H   0  0  0  0  0  0  0  0  0  0  0  0
   -4.6097   21.7840  -30.4518 H   0  0  0  0  0  0  0  0  0  0  0  0
   -4.5480   22.5913  -32.0906 H   0  0  0  0  0  0  0  0  0  0  0  0
   -3.6292   23.6336  -29.4071 H   0  0  0  0  0  0  0  0  0  0  0  0
   -2.7559   23.5497  -30.9884 H   0  0  0  0  0  0  0  0  0  0  0  0
   -5.0480   25.1225  -28.9704 H   0  0  0  0  0  0  0  0  0  0  0  0
   -5.4872   26.4276  -30.1423 H   0  0  0  0  0  0  0  0  0  0  0  0
   -7.2005   24.5148  -29.6605 H   0  0  0  0  0  0  0  0  0  0  0  0
   -6.8733   25.0478  -31.3780 H   0  0  0  0  0  0  0  0  0  0  0  0
   -6.0322   20.4372  -31.0614 H   0  0  0  0  0  0  0  0  0  0  0  0
  1  2  1  0
  2  3  2  0
  3  4  1  0
  4  5  2  0
  5  6  1  0
  6  7  2  0
  7  8  1  0
  8  9  1  0
  9 10  1  0
 10 11  1  0
 11 12  2  0
 12 13  1  0
 13 14  2  0
 14 15  1  0
 15 16  1  0
 16 17  1  0
 17 18  1  0
 18 19  1  0
 19 20  1  0
 20 21  1  0
 15 22  2  0
  7  2  1  0
 22 11  1  0
 21 16  1  0
  1 23  1  0
  3 24  1  0
  4 25  1  0
  5 26  1  0
  6 27  1  0
  8 28  1  0
  8 29  1  0
  9 30  1  0
 10 31  1  0
 10 32  1  0
 12 33  1  0
 13 34  1  0
 14 35  1  0
 17 36  1  0
 17 37  1  0
 18 38  1  0
 18 39  1  0
 20 40  1  0
 20 41  1  0
 21 42  1  0
 21 43  1  0
 22 44  1  0
M  END
>  <UniqueID>  (10) 
9

>  <SMILES>  (10) 
Oc1ccccc1CNCc1cccc(N2CCOCC2)c1

>  <Energy>  (10) 
52.27313024914092

>  <Genealogy>  (10) 
Oc1ccccc1CNCc1cccc(N2CCOCC2)c1 (3D coordinates assigned)
Oc1ccccc1CNCc1cccc(N2CCOCC2)c1 (nonaromatic ring conformer: 52.27313024914092 kcal/mol)

>  <smiles>  (10) 
Oc1ccccc1CNCc1cccc(N2CCOCC2)c1

>  <score_type>  (10) 
oracle

>  <origin>  (10) 
adgpu

>  <m_score__min__energy>  (10) 
-9.0800000000000001

>  <m_primary>  (10) 
energy

$$$$
10:0
     RDKit          3D

 64 68  0  0  0  0  0  0  0  0999 V2000
   -2.3740   25.2920  -28.9720 O   0  0  0  0  0  0  0  0  0  0  0  0
   -2.9620   24.4540  -29.7060 C   0  0  0  0  0  0  0  0  0  0  0  0
   -4.2030   24.8310  -30.3180 N   0  0  0  0  0  0  0  0  0  0  0  0
   -5.2550   23.9280  -30.6810 C   0  0  0  0  0  0  0  0  0  0  0  0
   -5.9440   23.1810  -29.7110 C   0  0  0  0  0  0  0  0  0  0  0  0
   -6.9450   22.2870  -30.0950 C   0  0  0  0  0  0  0  0  0  0  0  0
   -7.2660   22.1220  -31.4500 C   0  0  0  0  0  0  0  0  0  0  0  0
   -8.4720   20.9280  -31.9340 S   0  0  0  0  0  0  0  0  0  0  0  0
   -9.5590   21.6090  -32.7180 O   0  0  0  0  0  0  0  0  0  0  0  0
   -9.0920   20.3290  -30.7010 O   0  0  0  0  0  0  0  0  0  0  0  0
   -7.7620   19.6590  -32.9040 N   0  0  0  0  0  0  0  0  0  0  0  0
   -7.8890   18.3560  -32.2300 C   0  0  0  0  0  0  0  0  0  0  0  0
   -7.1890   17.2420  -33.0410 C   0  0  0  0  0  0  0  0  0  0  0  0
   -6.5870   17.7440  -34.2190 O   0  0  0  0  0  0  0  0  0  0  0  0
   -5.6570   18.7580  -33.8880 C   0  0  0  0  0  0  0  0  0  0  0  0
   -6.3460   19.9550  -33.1910 C   0  0  0  0  0  0  0  0  0  0  0  0
   -6.6050   22.8950  -32.4140 C   0  0  0  0  0  0  0  0  0  0  0  0
   -5.6110   23.8000  -32.0300 C   0  0  0  0  0  0  0  0  0  0  0  0
   -2.3140   23.1460  -29.9810 C   0  0  0  0  0  0  0  0  0  0  0  0
   -3.0820   21.9810  -30.1470 C   0  0  0  0  0  0  0  0  0  0  0  0
   -2.4680   20.7630  -30.4500 C   0  0  0  0  0  0  0  0  0  0  0  0
   -1.0790   20.6910  -30.6130 C   0  0  0  0  0  0  0  0  0  0  0  0
   -0.3180   19.1510  -31.0390 S   0  0  0  0  0  0  0  0  0  0  0  0
   -0.4880   18.1920  -29.8910 O   0  0  0  0  0  0  0  0  0  0  0  0
    1.1550   19.3890  -31.2150 O   0  0  0  0  0  0  0  0  0  0  0  0
   -0.9390   18.4530  -32.5250 N   0  0  0  0  0  0  0  0  0  0  0  0
   -2.1120   19.1620  -33.0650 C   0  0  0  0  0  0  0  0  0  0  0  0
   -1.7670   20.5660  -33.5790 C   0  0  0  0  0  0  0  0  0  0  0  0
   -0.4630   20.6070  -34.3310 C   0  0  0  0  0  0  0  0  0  0  0  0
   -0.1090   21.7790  -35.0200 C   0  0  0  0  0  0  0  0  0  0  0  0
    1.1140   21.8630  -35.6890 C   0  0  0  0  0  0  0  0  0  0  0  0
    1.9940   20.7780  -35.6760 C   0  0  0  0  0  0  0  0  0  0  0  0
    1.6630   19.6150  -34.9770 C   0  0  0  0  0  0  0  0  0  0  0  0
    0.4460   19.5270  -34.2830 C   0  0  0  0  0  0  0  0  0  0  0  0
    0.1010   18.2530  -33.5490 C   0  0  0  0  0  0  0  0  0  0  0  0
   -0.3100   21.8520  -30.4660 C   0  0  0  0  0  0  0  0  0  0  0  0
   -0.9200   23.0700  -30.1480 C   0  0  0  0  0  0  0  0  0  0  0  0
   -5.6941   23.3008  -28.6465 H   0  0  0  0  0  0  0  0  0  0  0  0
   -7.4848   21.7089  -29.3306 H   0  0  0  0  0  0  0  0  0  0  0  0
   -8.2910   19.6300  -33.8060 H   0  0  0  0  0  0  0  0  0  0  0  0
   -7.4271   18.4199  -31.2337 H   0  0  0  0  0  0  0  0  0  0  0  0
   -8.9574   18.1085  -32.1445 H   0  0  0  0  0  0  0  0  0  0  0  0
   -6.4121   16.7806  -32.4138 H   0  0  0  0  0  0  0  0  0  0  0  0
   -7.9511   16.5055  -33.3356 H   0  0  0  0  0  0  0  0  0  0  0  0
   -4.8977   18.3392  -33.2112 H   0  0  0  0  0  0  0  0  0  0  0  0
   -5.1958   19.1199  -34.8188 H   0  0  0  0  0  0  0  0  0  0  0  0
   -5.8250   20.1690  -32.2461 H   0  0  0  0  0  0  0  0  0  0  0  0
   -6.3001   20.8244  -33.8633 H   0  0  0  0  0  0  0  0  0  0  0  0
   -6.8692   22.7893  -33.4766 H   0  0  0  0  0  0  0  0  0  0  0  0
   -5.1063   24.4142  -32.7903 H   0  0  0  0  0  0  0  0  0  0  0  0
   -4.1755   22.0283  -30.0375 H   0  0  0  0  0  0  0  0  0  0  0  0
   -3.0793   19.8553  -30.5612 H   0  0  0  0  0  0  0  0  0  0  0  0
   -2.5269   18.5742  -33.8971 H   0  0  0  0  0  0  0  0  0  0  0  0
   -2.8387   19.2756  -32.2470 H   0  0  0  0  0  0  0  0  0  0  0  0
   -2.5709   20.9020  -34.2505 H   0  0  0  0  0  0  0  0  0  0  0  0
   -1.6657   21.2241  -32.7034 H   0  0  0  0  0  0  0  0  0  0  0  0
   -0.7991   22.6355  -35.0326 H   0  0  0  0  0  0  0  0  0  0  0  0
    1.3845   22.7839  -36.2264 H   0  0  0  0  0  0  0  0  0  0  0  0
    2.9495   20.8398  -36.2174 H   0  0  0  0  0  0  0  0  0  0  0  0
    2.3595   18.7637  -34.9703 H   0  0  0  0  0  0  0  0  0  0  0  0
   -0.2604   17.5131  -34.2783 H   0  0  0  0  0  0  0  0  0  0  0  0
    1.0108   17.9069  -33.0367 H   0  0  0  0  0  0  0  0  0  0  0  0
    0.7807   21.8059  -30.6014 H   0  0  0  0  0  0  0  0  0  0  0  0
   -0.3051   23.9742  -30.0278 H   0  0  0  0  0  0  0  0  0  0  0  0
  1  2  2  0
  2  3  1  0
  3  4  1  0
  4  5  2  0
  5  6  1  0
  6  7  2  0
  7  8  1  0
  8  9  2  0
  8 10  2  0
  8 11  1  0
 11 12  1  0
 12 13  1  0
 13 14  1  0
 14 15  1  0
 15 16  1  0
  7 17  1  0
 17 18  2  0
  2 19  1  0
 19 20  2  0
 20 21  1  0
 21 22  2  0
 22 23  1  0
 23 24  2  0
 23 25  2  0
 23 26  1  0
 26 27  1  0
 27 28  1  0
 28 29  1  0
 29 30  2  0
 30 31  1  0
 31 32  2  0
 32 33  1  0
 33 34  2  0
 34 35  1  0
 22 36  1  0
 36 37  2  0
 18  4  1  0
 37 19  1  0
 16 11  1  0
 35 26  1  0
 34 29  1  0
  5 38  1  0
  6 39  1  0
 11 40  1  0
 12 41  1  0
 12 42  1  0
 13 43  1  0
 13 44  1  0
 15 45  1  0
 15 46  1  0
 16 47  1  0
 16 48  1  0
 17 49  1  0
 18 50  1  0
 20 51  1  0
 21 52  1  0
 27 53  1  0
 27 54  1  0
 28 55  1  0
 28 56  1  0
 30 57  1  0
 31 58  1  0
 32 59  1  0
 33 60  1  0
 35 61  1  0
 35 62  1  0
 36 63  1  0
 37 64  1  0
M  CHG  2   3  -1  11   1
M  END
>  <UniqueID>  (11) 
10

>  <SMILES>  (11) 
O=C([N-]c1ccc(S(=O)(=O)[NH+]2CCOCC2)cc1)c1ccc(S(=O)(=O)N2CCc3ccccc3C2)cc1

>  <Energy>  (11) 
83.31818472025797

>  <Genealogy>  (11) 
O=C([N-]c1ccc(S(=O)(=O)[NH+]2CCOCC2)cc1)c1ccc(S(=O)(=O)N2CCc3ccccc3C2)cc1 (protonated)
O=C([N-]c1ccc(S(=O)(=O)[NH+]2CCOCC2)cc1)c1ccc(S(=O)(=O)N2CCc3ccccc3C2)cc1 (3D coordinates assigned)
O=C([N-]c1ccc(S(=O)(=O)[NH+]2CCOCC2)cc1)c1ccc(S(=O)(=O)N2CCc3ccccc3C2)cc1 (nonaromatic ring conformer: 83.31818472025797 kcal/mol)

>  <smiles>  (11) 
O=C(Nc1ccc(S(=O)(=O)N2CCOCC2)cc1)c1ccc(S(=O)(=O)N2CCc3ccccc3C2)cc1

>  <score_type>  (11) 
oracle

>  <origin>  (11) 
adgpu

>  <m_score__min__energy>  (11) 
-12.460000000000001

>  <m_primary>  (11) 
energy

$$$$
11:0
     RDKit          3D

 62 65  0  0  0  0  0  0  0  0999 V2000
    5.0250   18.2230  -38.4550 C   0  0  0  0  0  0  0  0  0  0  0  0
    3.8960   18.5910  -37.6080 N   0  0  0  0  0  0  0  0  0  0  0  0
    3.4880   19.9580  -37.4520 C   0  0  0  0  0  0  0  0  0  0  0  0
    4.0340   20.8540  -38.1530 O   0  0  0  0  0  0  0  0  0  0  0  0
    2.4230   20.3350  -36.4910 C   0  0  0  0  0  0  0  0  0  0  0  0
    1.8580   19.3590  -35.6570 C   0  0  0  0  0  0  0  0  0  0  0  0
    0.8490   19.6960  -34.7530 C   0  0  0  0  0  0  0  0  0  0  0  0
    0.3580   21.0120  -34.6900 C   0  0  0  0  0  0  0  0  0  0  0  0
   -0.6670   21.3980  -33.7540 N   0  0  0  0  0  0  0  0  0  0  0  0
   -1.8070   20.8110  -33.5340 C   0  0  0  0  0  0  0  0  0  0  0  0
   -2.6330   21.3110  -32.5820 N   0  0  0  0  0  0  0  0  0  0  0  0
   -3.8520   20.7610  -32.3300 C   0  0  0  0  0  0  0  0  0  0  0  0
   -4.6890   21.3060  -31.3450 O   0  0  0  0  0  0  0  0  0  0  0  0
   -4.7170   22.6570  -30.9690 C   0  0  0  0  0  0  0  0  0  0  0  0
   -5.8490   23.4170  -31.2860 C   0  0  0  0  0  0  0  0  0  0  0  0
   -5.9030   24.7760  -30.9650 C   0  0  0  0  0  0  0  0  0  0  0  0
   -4.8230   25.3880  -30.3220 C   0  0  0  0  0  0  0  0  0  0  0  0
   -3.6880   24.6410  -29.9850 C   0  0  0  0  0  0  0  0  0  0  0  0
   -2.5790   25.2950  -29.3550 N   0  0  0  0  0  0  0  0  0  0  0  0
   -1.4970   24.6160  -28.7060 C   0  0  0  0  0  0  0  0  0  0  0  0
   -0.5350   24.1600  -29.3840 O   0  0  0  0  0  0  0  0  0  0  0  0
   -1.5650   24.3670  -27.2280 C   0  0  0  0  0  0  0  0  0  0  0  0
   -1.2660   25.6180  -26.4370 C   0  0  0  0  0  0  0  0  0  0  0  0
   -0.7520   26.7600  -27.0760 C   0  0  0  0  0  0  0  0  0  0  0  0
   -0.4770   27.9170  -26.3390 C   0  0  0  0  0  0  0  0  0  0  0  0
   -0.7170   27.9460  -24.9620 C   0  0  0  0  0  0  0  0  0  0  0  0
   -1.2220   26.8130  -24.3170 C   0  0  0  0  0  0  0  0  0  0  0  0
   -1.4890   25.6510  -25.0480 C   0  0  0  0  0  0  0  0  0  0  0  0
   -3.6280   23.2810  -30.3320 C   0  0  0  0  0  0  0  0  0  0  0  0
   -4.2620   19.6240  -33.0470 C   0  0  0  0  0  0  0  0  0  0  0  0
   -5.6030   18.9850  -32.7760 C   0  0  0  0  0  0  0  0  0  0  0  0
   -5.7230   18.5900  -31.4550 F   0  0  0  0  0  0  0  0  0  0  0  0
   -6.6120   19.8900  -33.0560 F   0  0  0  0  0  0  0  0  0  0  0  0
   -5.7550   17.8740  -33.5850 F   0  0  0  0  0  0  0  0  0  0  0  0
   -3.4040   19.1380  -34.0440 C   0  0  0  0  0  0  0  0  0  0  0  0
   -2.2080   19.7390  -34.2690 N   0  0  0  0  0  0  0  0  0  0  0  0
    0.9340   22.0040  -35.4990 C   0  0  0  0  0  0  0  0  0  0  0  0
    0.4620   23.3230  -35.3780 O   0  0  0  0  0  0  0  0  0  0  0  0
    0.9820   24.4360  -36.0980 C   0  0  0  0  0  0  0  0  0  0  0  0
    1.9560   21.6590  -36.4050 C   0  0  0  0  0  0  0  0  0  0  0  0
    5.8814   17.9439  -37.8236 H   0  0  0  0  0  0  0  0  0  0  0  0
    4.7442   17.3699  -39.0901 H   0  0  0  0  0  0  0  0  0  0  0  0
    5.3009   19.0777  -39.0901 H   0  0  0  0  0  0  0  0  0  0  0  0
    3.3460   17.8240  -37.1610 H   0  0  0  0  0  0  0  0  0  0  0  0
    2.2129   18.3195  -35.7157 H   0  0  0  0  0  0  0  0  0  0  0  0
    0.4350   18.9263  -34.0850 H   0  0  0  0  0  0  0  0  0  0  0  0
   -6.7022   22.9410  -31.7914 H   0  0  0  0  0  0  0  0  0  0  0  0
   -6.7967   25.3651  -31.2187 H   0  0  0  0  0  0  0  0  0  0  0  0
   -4.8652   26.4602  -30.0800 H   0  0  0  0  0  0  0  0  0  0  0  0
   -2.5755   24.0161  -26.9717 H   0  0  0  0  0  0  0  0  0  0  0  0
   -0.8085   23.6104  -26.9724 H   0  0  0  0  0  0  0  0  0  0  0  0
   -0.5653   26.7438  -28.1599 H   0  0  0  0  0  0  0  0  0  0  0  0
   -0.0710   28.8058  -26.8441 H   0  0  0  0  0  0  0  0  0  0  0  0
   -0.5086   28.8598  -24.3863 H   0  0  0  0  0  0  0  0  0  0  0  0
   -1.4095   26.8356  -23.2333 H   0  0  0  0  0  0  0  0  0  0  0  0
   -1.8753   24.7582  -24.5345 H   0  0  0  0  0  0  0  0  0  0  0  0
   -2.7227   22.6992  -30.1041 H   0  0  0  0  0  0  0  0  0  0  0  0
   -3.7013   18.2666  -34.6459 H   0  0  0  0  0  0  0  0  0  0  0  0
    1.3379   25.1977  -35.3887 H   0  0  0  0  0  0  0  0  0  0  0  0
    1.8186   24.1049  -36.7308 H   0  0  0  0  0  0  0  0  0  0  0  0
    0.1912   24.8652  -36.7308 H   0  0  0  0  0  0  0  0  0  0  0  0
    2.3936   22.4334  -37.0522 H   0  0  0  0  0  0  0  0  0  0  0  0
  1  2  1  0
  2  3  1  0
  3  4  2  0
  3  5  1  0
  5  6  2  0
  6  7  1  0
  7  8  2  0
  8  9  1  0
  9 10  2  3
 10 11  1  0
 11 12  2  0
 12 13  1  0
 13 14  1  0
 14 15  2  0
 15 16  1  0
 16 17  2  0
 17 18  1  0
 18 19  1  0
 19 20  1  0
 20 21  2  0
 20 22  1  0
 22 23  1  0
 23 24  2  0
 24 25  1  0
 25 26  2  0
 26 27  1  0
 27 28  2  0
 18 29  2  0
 12 30  1  0
 30 31  1  0
 31 32  1  0
 31 33  1  0
 31 34  1  0
 30 35  2  0
 35 36  1  0
  8 37  1  0
 37 38  1  0
 38 39  1  0
 37 40  2  0
 40  5  1  0
 36 10  1  0
 29 14  1  0
 28 23  1  0
  1 41  1  0
  1 42  1  0
  1 43  1  0
  2 44  1  0
  6 45  1  0
  7 46  1  0
 15 47  1  0
 16 48  1  0
 17 49  1  0
 22 50  1  0
 22 51  1  0
 24 52  1  0
 25 53  1  0
 26 54  1  0
 27 55  1  0
 28 56  1  0
 29 57  1  0
 35 58  1  0
 39 59  1  0
 39 60  1  0
 39 61  1  0
 40 62  1  0
M  CHG  2  19  -1  36  -1
M  END
>  <UniqueID>  (12) 
11

>  <SMILES>  (12) 
CNC(=O)c1ccc(N=c2nc(Oc3cccc([N-]C(=O)Cc4ccccc4)c3)c(C(F)(F)F)c[n-]2)c(OC)c1

>  <Energy>  (12) 
78.78433547137949

>  <Genealogy>  (12) 
CNC(=O)c1ccc(N=c2nc(Oc3cccc([N-]C(=O)Cc4ccccc4)c3)c(C(F)(F)F)c[n-]2)c(OC)c1 (protonated)
CNC(=O)c1ccc(N=c2nc(Oc3cccc([N-]C(=O)Cc4ccccc4)c3)c(C(F)(F)F)c[n-]2)c(OC)c1 (3D coordinates assigned)
CNC(=O)c1ccc(N=c2nc(Oc3cccc([N-]C(=O)Cc4ccccc4)c3)c(C(F)(F)F)c[n-]2)c(OC)c1 (optimized conformer: 78.78433547137949 kcal/mol)

>  <smiles>  (12) 
CNC(=O)c1ccc(N=c2nc(Oc3cccc(NC(=O)Cc4ccccc4)c3)c(C(F)(F)F)c[nH]2)c(OC)c1

>  <score_type>  (12) 
oracle

>  <origin>  (12) 
adgpu

>  <m_score__min__energy>  (12) 
-10.94

>  <m_primary>  (12) 
energy

$$$$
12:0
     RDKit          3D

 55 57  0  0  0  0  0  0  0  0999 V2000
   -4.0080   16.9580  -33.3530 C   0  0  0  0  0  0  0  0  0  0  0  0
   -2.5620   16.8140  -33.5880 N   0  0  0  0  0  0  0  0  0  0  0  0
   -2.2050   15.3830  -33.5660 C   0  0  0  0  0  0  0  0  0  0  0  0
   -2.1910   17.4360  -34.8780 C   0  0  0  0  0  0  0  0  0  0  0  0
   -0.9810   18.3690  -34.7060 C   0  0  0  0  0  0  0  0  0  0  0  0
   -1.2550   19.4850  -33.7360 C   0  0  0  0  0  0  0  0  0  0  0  0
   -0.9480   20.6700  -34.0380 O   0  0  0  0  0  0  0  0  0  0  0  0
   -1.7540   19.1800  -32.4260 N   0  0  0  0  0  0  0  0  0  0  0  0
   -1.9680   20.1840  -31.4240 C   0  0  0  0  0  0  0  0  0  0  0  0
   -3.2650   20.6010  -31.0790 C   0  0  0  0  0  0  0  0  0  0  0  0
   -3.4500   21.6400  -30.1620 C   0  0  0  0  0  0  0  0  0  0  0  0
   -2.3430   22.2930  -29.6060 C   0  0  0  0  0  0  0  0  0  0  0  0
   -2.5450   23.4720  -28.8170 N   0  0  0  0  0  0  0  0  0  0  0  0
   -2.5990   24.8040  -29.3490 C   0  0  0  0  0  0  0  0  0  0  0  0
   -1.6010   25.5570  -29.2140 O   0  0  0  0  0  0  0  0  0  0  0  0
   -3.7540   25.2960  -30.0460 N   0  0  0  0  0  0  0  0  0  0  0  0
   -4.9330   24.5280  -30.3270 C   0  0  0  0  0  0  0  0  0  0  0  0
   -5.4440   24.5100  -31.6300 C   0  0  0  0  0  0  0  0  0  0  0  0
   -6.5090   23.6640  -31.9560 C   0  0  0  0  0  0  0  0  0  0  0  0
   -7.1000   22.8530  -30.9700 C   0  0  0  0  0  0  0  0  0  0  0  0
   -8.1170   21.9340  -31.2660 O   0  0  0  0  0  0  0  0  0  0  0  0
   -7.9290   20.6380  -31.7650 C   0  0  0  0  0  0  0  0  0  0  0  0
   -6.8590   20.4030  -32.6360 C   0  0  0  0  0  0  0  0  0  0  0  0
   -6.6270   19.1200  -33.1400 C   0  0  0  0  0  0  0  0  0  0  0  0
   -7.4580   18.0600  -32.7660 C   0  0  0  0  0  0  0  0  0  0  0  0
   -8.5160   18.2820  -31.8830 C   0  0  0  0  0  0  0  0  0  0  0  0
   -8.7500   19.5650  -31.3770 C   0  0  0  0  0  0  0  0  0  0  0  0
   -6.6200   22.9160  -29.6570 C   0  0  0  0  0  0  0  0  0  0  0  0
   -5.5530   23.7580  -29.3320 C   0  0  0  0  0  0  0  0  0  0  0  0
   -1.0500   21.8210  -29.8840 C   0  0  0  0  0  0  0  0  0  0  0  0
   -0.8650   20.7680  -30.7840 C   0  0  0  0  0  0  0  0  0  0  0  0
   -4.2034   16.9775  -32.2707 H   0  0  0  0  0  0  0  0  0  0  0  0
   -4.3616   17.8958  -33.8064 H   0  0  0  0  0  0  0  0  0  0  0  0
   -4.5396   16.1083  -33.8064 H   0  0  0  0  0  0  0  0  0  0  0  0
   -2.1200   15.0423  -32.5236 H   0  0  0  0  0  0  0  0  0  0  0  0
   -2.9858   14.8024  -34.0790 H   0  0  0  0  0  0  0  0  0  0  0  0
   -1.2429   15.2372  -34.0790 H   0  0  0  0  0  0  0  0  0  0  0  0
   -1.9373   16.6456  -35.5998 H   0  0  0  0  0  0  0  0  0  0  0  0
   -3.0437   18.0278  -35.2424 H   0  0  0  0  0  0  0  0  0  0  0  0
   -0.1294   17.7794  -34.3357 H   0  0  0  0  0  0  0  0  0  0  0  0
   -0.7616   18.8200  -35.6850 H   0  0  0  0  0  0  0  0  0  0  0  0
   -1.7670   18.1790  -32.1280 H   0  0  0  0  0  0  0  0  0  0  0  0
   -4.1378   20.1081  -31.5321 H   0  0  0  0  0  0  0  0  0  0  0  0
   -4.4675   21.9453  -29.8766 H   0  0  0  0  0  0  0  0  0  0  0  0
   -5.0068   25.1630  -32.3997 H   0  0  0  0  0  0  0  0  0  0  0  0
   -6.8865   23.6326  -32.9887 H   0  0  0  0  0  0  0  0  0  0  0  0
   -6.1970   21.2324  -32.9255 H   0  0  0  0  0  0  0  0  0  0  0  0
   -5.7898   18.9443  -33.8315 H   0  0  0  0  0  0  0  0  0  0  0  0
   -7.2783   17.0517  -33.1672 H   0  0  0  0  0  0  0  0  0  0  0  0
   -9.1667   17.4468  -31.5846 H   0  0  0  0  0  0  0  0  0  0  0  0
   -9.5786   19.7346  -30.6737 H   0  0  0  0  0  0  0  0  0  0  0  0
   -7.0859   22.2983  -28.8751 H   0  0  0  0  0  0  0  0  0  0  0  0
   -5.1982   23.8171  -28.2925 H   0  0  0  0  0  0  0  0  0  0  0  0
   -0.1805   22.2813  -29.3921 H   0  0  0  0  0  0  0  0  0  0  0  0
    0.1492   20.3959  -30.9912 H   0  0  0  0  0  0  0  0  0  0  0  0
  1  2  1  0
  2  3  1  0
  2  4  1  0
  4  5  1  0
  5  6  1  0
  6  7  2  0
  6  8  1  0
  8  9  1  0
  9 10  2  0
 10 11  1  0
 11 12  2  0
 12 13  1  0
 13 14  1  0
 14 15  2  0
 14 16  1  0
 16 17  1  0
 17 18  2  0
 18 19  1  0
 19 20  2  0
 20 21  1  0
 21 22  1  0
 22 23  2  0
 23 24  1  0
 24 25  2  0
 25 26  1  0
 26 27  2  0
 20 28  1  0
 28 29  2  0
 12 30  1  0
 30 31  2  0
 31  9  1  0
 29 17  1  0
 27 22  1  0
  1 32  1  0
  1 33  1  0
  1 34  1  0
  3 35  1  0
  3 36  1  0
  3 37  1  0
  4 38  1  0
  4 39  1  0
  5 40  1  0
  5 41  1  0
  8 42  1  0
 10 43  1  0
 11 44  1  0
 18 45  1  0
 19 46  1  0
 23 47  1  0
 24 48  1  0
 25 49  1  0
 26 50  1  0
 27 51  1  0
 28 52  1  0
 29 53  1  0
 30 54  1  0
 31 55  1  0
M  CHG  2  13  -1  16  -1
M  END
>  <UniqueID>  (13) 
12

>  <SMILES>  (13) 
CN(C)CCC(=O)Nc1ccc([N-]C(=O)[N-]c2ccc(Oc3ccccc3)cc2)cc1

>  <Energy>  (13) 
71.93246789878037

>  <Genealogy>  (13) 
CN(C)CCC(=O)Nc1ccc([N-]C(=O)[N-]c2ccc(Oc3ccccc3)cc2)cc1 (protonated)
CN(C)CCC(=O)Nc1ccc([N-]C(=O)[N-]c2ccc(Oc3ccccc3)cc2)cc1 (3D coordinates assigned)
CN(C)CCC(=O)Nc1ccc([N-]C(=O)[N-]c2ccc(Oc3ccccc3)cc2)cc1 (optimized conformer: 71.93246789878037 kcal/mol)

>  <smiles>  (13) 
CN(C)CCC(=O)Nc1ccc(NC(=O)Nc2ccc(Oc3ccccc3)cc2)cc1

>  <score_type>  (13) 
oracle

>  <origin>  (13) 
adgpu

>  <m_score__min__energy>  (13) 
-10.960000000000001

>  <m_primary>  (13) 
energy

$$$$
13:0
     RDKit          3D

 55 58  0  0  0  0  0  0  0  0999 V2000
   -2.9140   21.1790  -30.2810 O   0  0  0  0  0  0  0  0  0  0  0  0
   -3.0480   22.4300  -30.2790 C   0  0  0  0  0  0  0  0  0  0  0  0
   -1.9450   23.2370  -29.8420 N   0  0  0  0  0  0  0  0  0  0  0  0
   -1.7580   23.7490  -28.5140 C   0  0  0  0  0  0  0  0  0  0  0  0
   -1.8980   25.1230  -28.2480 C   0  0  0  0  0  0  0  0  0  0  0  0
   -1.6490   25.6230  -26.9690 C   0  0  0  0  0  0  0  0  0  0  0  0
   -1.2500   24.7620  -25.9450 C   0  0  0  0  0  0  0  0  0  0  0  0
   -1.1000   23.3960  -26.2000 C   0  0  0  0  0  0  0  0  0  0  0  0
   -1.3540   22.8800  -27.4800 C   0  0  0  0  0  0  0  0  0  0  0  0
   -1.2360   21.4660  -27.7120 N   0  0  0  0  0  0  0  0  0  0  0  0
    0.0090   20.9260  -28.2730 C   0  0  0  0  0  0  0  0  0  0  0  0
   -0.2400   19.5570  -28.9110 C   0  0  0  0  0  0  0  0  0  0  0  0
   -0.8720   18.5580  -27.9230 C   0  0  0  0  0  0  0  0  0  0  0  0
   -1.7490   19.2210  -26.8430 C   0  0  0  0  0  0  0  0  0  0  0  0
   -2.3200   20.5660  -27.2970 C   0  0  0  0  0  0  0  0  0  0  0  0
   -4.3540   23.0320  -30.6480 C   0  0  0  0  0  0  0  0  0  0  0  0
   -5.4440   22.1980  -30.9500 C   0  0  0  0  0  0  0  0  0  0  0  0
   -6.6770   22.7380  -31.3330 C   0  0  0  0  0  0  0  0  0  0  0  0
   -8.0360   21.6750  -31.6920 S   0  0  0  0  0  0  0  0  0  0  0  0
   -9.2270   22.5020  -32.0920 O   0  0  0  0  0  0  0  0  0  0  0  0
   -8.3650   20.8940  -30.4500 O   0  0  0  0  0  0  0  0  0  0  0  0
   -7.6140   20.5730  -32.9880 N   0  0  0  0  0  0  0  0  0  0  0  0
   -8.2310   19.2590  -32.7730 C   0  0  0  0  0  0  0  0  0  0  0  0
   -7.2180   18.3650  -32.0730 C   0  0  0  0  0  0  0  0  0  0  0  0
   -5.8890   19.0860  -32.1800 C   0  0  0  0  0  0  0  0  0  0  0  0
   -6.1690   20.3290  -33.0100 C   0  0  0  0  0  0  0  0  0  0  0  0
   -6.8280   24.1270  -31.4160 C   0  0  0  0  0  0  0  0  0  0  0  0
   -5.7510   24.9680  -31.1250 C   0  0  0  0  0  0  0  0  0  0  0  0
   -4.5180   24.4300  -30.7420 C   0  0  0  0  0  0  0  0  0  0  0  0
   -3.4670   25.2920  -30.4450 O   0  0  0  0  0  0  0  0  0  0  0  0
   -2.2055   25.8073  -29.0525 H   0  0  0  0  0  0  0  0  0  0  0  0
   -1.7674   26.6979  -26.7673 H   0  0  0  0  0  0  0  0  0  0  0  0
   -1.0538   25.1585  -24.9379 H   0  0  0  0  0  0  0  0  0  0  0  0
   -0.7808   22.7211  -25.3922 H   0  0  0  0  0  0  0  0  0  0  0  0
    0.3913   21.6178  -29.0380 H   0  0  0  0  0  0  0  0  0  0  0  0
    0.7444   20.8125  -27.4629 H   0  0  0  0  0  0  0  0  0  0  0  0
   -0.9180   19.6841  -29.7679 H   0  0  0  0  0  0  0  0  0  0  0  0
    0.7325   19.1502  -29.2252 H   0  0  0  0  0  0  0  0  0  0  0  0
   -1.4966   17.8546  -28.4931 H   0  0  0  0  0  0  0  0  0  0  0  0
   -0.0438   18.0575  -27.4000 H   0  0  0  0  0  0  0  0  0  0  0  0
   -2.5839   18.5461  -26.6031 H   0  0  0  0  0  0  0  0  0  0  0  0
   -1.1141   19.4067  -25.9641 H   0  0  0  0  0  0  0  0  0  0  0  0
   -3.0013   20.4033  -28.1452 H   0  0  0  0  0  0  0  0  0  0  0  0
   -2.8648   21.0248  -26.4587 H   0  0  0  0  0  0  0  0  0  0  0  0
   -5.3265   21.1063  -30.8845 H   0  0  0  0  0  0  0  0  0  0  0  0
   -9.1279   19.3673  -32.1455 H   0  0  0  0  0  0  0  0  0  0  0  0
   -8.5259   18.8164  -33.7359 H   0  0  0  0  0  0  0  0  0  0  0  0
   -7.4946   18.2258  -31.0175 H   0  0  0  0  0  0  0  0  0  0  0  0
   -7.1749   17.3657  -32.5307 H   0  0  0  0  0  0  0  0  0  0  0  0
   -5.5211   19.3649  -31.1816 H   0  0  0  0  0  0  0  0  0  0  0  0
   -5.1162   18.4527  -32.6401 H   0  0  0  0  0  0  0  0  0  0  0  0
   -5.6383   21.1917  -32.5808 H   0  0  0  0  0  0  0  0  0  0  0  0
   -5.8219   20.1841  -34.0437 H   0  0  0  0  0  0  0  0  0  0  0  0
   -7.7964   24.5573  -31.7109 H   0  0  0  0  0  0  0  0  0  0  0  0
   -5.8733   26.0588  -31.1975 H   0  0  0  0  0  0  0  0  0  0  0  0
  1  2  2  0
  2  3  1  0
  3  4  1  0
  4  5  2  0
  5  6  1  0
  6  7  2  0
  7  8  1  0
  8  9  2  0
  9 10  1  0
 10 11  1  0
 11 12  1  0
 12 13  1  0
 13 14  1  0
 14 15  1  0
  2 16  1  0
 16 17  2  0
 17 18  1  0
 18 19  1  0
 19 20  2  0
 19 21  2  0
 19 22  1  0
 22 23  1  0
 23 24  1  0
 24 25  1  0
 25 26  1  0
 18 27  2  0
 27 28  1  0
 28 29  2  0
 29 30  1  0
  9  4  1  0
 15 10  1  0
 29 16  1  0
 26 22  1  0
  5 31  1  0
  6 32  1  0
  7 33  1  0
  8 34  1  0
 11 35  1  0
 11 36  1  0
 12 37  1  0
 12 38  1  0
 13 39  1  0
 13 40  1  0
 14 41  1  0
 14 42  1  0
 15 43  1  0
 15 44  1  0
 17 45  1  0
 23 46  1  0
 23 47  1  0
 24 48  1  0
 24 49  1  0
 25 50  1  0
 25 51  1  0
 26 52  1  0
 26 53  1  0
 27 54  1  0
 28 55  1  0
M  CHG  2   3  -1  30  -1
M  END
>  <UniqueID>  (14) 
13

>  <SMILES>  (14) 
O=C([N-]c1ccccc1N1CCCCC1)c1cc(S(=O)(=O)N2CCCC2)ccc1[O-]

>  <Energy>  (14) 
69.62872919385288

>  <Genealogy>  (14) 
O=C([N-]c1ccccc1N1CCCCC1)c1cc(S(=O)(=O)N2CCCC2)ccc1[O-] (protonated)
O=C([N-]c1ccccc1N1CCCCC1)c1cc(S(=O)(=O)N2CCCC2)ccc1[O-] (3D coordinates assigned)
O=C([N-]c1ccccc1N1CCCCC1)c1cc(S(=O)(=O)N2CCCC2)ccc1[O-] (nonaromatic ring conformer: 69.62872919385288 kcal/mol)

>  <smiles>  (14) 
O=C(Nc1ccccc1N1CCCCC1)c1cc(S(=O)(=O)N2CCCC2)ccc1O

>  <score_type>  (14) 
oracle

>  <origin>  (14) 
adgpu

>  <m_score__min__energy>  (14) 
-13.94

>  <m_primary>  (14) 
energy

$$$$
14:0
     RDKit          3D

 27 29  0  0  0  0  0  0  0  0999 V2000
   -3.7957   16.6408  -35.5317 H   0  0  0  0  0  0  0  0  0  0  0  0
   -4.3570   17.4300  -35.0100 C   0  0  0  0  0  0  0  0  0  0  0  0
   -3.8190   18.4300  -34.3500 O   0  0  0  0  0  0  0  0  0  0  0  0
   -4.7850   19.1720  -33.8570 C   0  0  0  0  0  0  0  0  0  0  0  0
   -4.5630   20.3810  -33.0580 C   0  0  0  0  0  0  0  0  0  0  0  0
   -3.3670   20.7230  -32.5290 N   0  0  0  0  0  0  0  0  0  0  0  0
   -3.4020   21.8630  -31.8420 N   0  0  0  0  0  0  0  0  0  0  0  0
   -4.6320   22.4260  -31.8200 C   0  0  0  0  0  0  0  0  0  0  0  0
   -4.9140   23.5520  -31.2350 N   0  0  0  0  0  0  0  0  0  0  0  0
   -4.0050   24.3480  -30.4580 C   0  0  0  0  0  0  0  0  0  0  0  0
   -3.8830   25.5700  -30.7400 O   0  0  0  0  0  0  0  0  0  0  0  0
   -3.2360   23.7950  -29.3190 C   0  0  0  0  0  0  0  0  0  0  0  0
   -3.6050   22.5520  -28.7760 C   0  0  0  0  0  0  0  0  0  0  0  0
   -4.4582   22.0019  -29.1995 H   0  0  0  0  0  0  0  0  0  0  0  0
   -2.8940   22.0110  -27.7010 C   0  0  0  0  0  0  0  0  0  0  0  0
   -3.1952   21.0426  -27.2751 H   0  0  0  0  0  0  0  0  0  0  0  0
   -1.8020   22.6980  -27.1670 C   0  0  0  0  0  0  0  0  0  0  0  0
   -1.2478   22.2737  -26.3168 H   0  0  0  0  0  0  0  0  0  0  0  0
   -1.4130   23.9240  -27.7120 C   0  0  0  0  0  0  0  0  0  0  0  0
   -0.5502   24.4613  -27.2915 H   0  0  0  0  0  0  0  0  0  0  0  0
   -2.1160   24.4710  -28.7900 C   0  0  0  0  0  0  0  0  0  0  0  0
   -1.6830   25.6730  -29.3400 O   0  0  0  0  0  0  0  0  0  0  0  0
   -5.7520   21.5190  -32.6850 S   0  0  0  0  0  0  0  0  0  0  0  0
   -6.0120   18.6450  -34.2050 C   0  0  0  0  0  0  0  0  0  0  0  0
   -7.0045   19.0404  -33.9430 H   0  0  0  0  0  0  0  0  0  0  0  0
   -5.7330   17.5190  -34.9500 C   0  0  0  0  0  0  0  0  0  0  0  0
   -6.4603   16.8304  -35.4048 H   0  0  0  0  0  0  0  0  0  0  0  0
  1  2  1  0
  2  3  1  0
  3  4  1  0
  4  5  1  0
  5  6  2  0
  6  7  1  0
  7  8  1  0
  8  9  2  0
  9 10  1  0
 10 11  2  0
 10 12  1  0
 12 13  2  0
 13 14  1  0
 13 15  1  0
 15 16  1  0
 15 17  2  0
 17 18  1  0
 17 19  1  0
 19 20  1  0
 19 21  2  0
 21 22  1  0
  8 23  1  0
  4 24  2  0
 24 25  1  0
 24 26  1  0
 26 27  1  0
 26  2  2  0
 23  5  1  0
 21 12  1  0
M  CHG  2   7  -1  22  -1
M  END
>  <UniqueID>  (15) 
14

>  <SMILES>  (15) 
O=C(/N=c1\[n-]nc(-c2ccco2)s1)c1ccccc1[O-]

>  <Energy>  (15) 
98.00172627826628

>  <Genealogy>  (15) 
O=C(N=c1[n-]nc(-c2ccco2)s1)c1ccccc1[O-] (protonated)
O=C(/N=c1\[n-]nc(-c2ccco2)s1)c1ccccc1[O-] (cis-trans isomerization)
O=C(/N=c1\[n-]nc(-c2ccco2)s1)c1ccccc1[O-] (3D coordinates assigned)
O=C(/N=c1\[n-]nc(-c2ccco2)s1)c1ccccc1[O-] (optimized conformer: 98.00172627826628 kcal/mol)

>  <smiles>  (15) 
O=C(N=c1[nH]nc(-c2ccco2)s1)c1ccccc1O

>  <score_type>  (15) 
oracle

>  <origin>  (15) 
adgpu

>  <m_score__min__energy>  (15) 
-10.859999999999999

>  <m_primary>  (15) 
energy

$$$$
15:0
     RDKit          3D

 49 51  0  0  0  0  0  0  0  0999 V2000
   -1.8840   16.9910  -34.7120 C   0  0  0  0  0  0  0  0  0  0  0  0
   -3.0150   16.2450  -34.2730 O   0  0  0  0  0  0  0  0  0  0  0  0
   -4.2430   16.8150  -33.9040 C   0  0  0  0  0  0  0  0  0  0  0  0
   -4.8930   17.7850  -34.6910 C   0  0  0  0  0  0  0  0  0  0  0  0
   -6.1160   18.3240  -34.2800 C   0  0  0  0  0  0  0  0  0  0  0  0
   -6.7030   17.9110  -33.0740 C   0  0  0  0  0  0  0  0  0  0  0  0
   -8.0230   18.4860  -32.6280 C   0  0  0  0  0  0  0  0  0  0  0  0
   -8.1480   19.8820  -33.0490 N   0  0  0  0  0  0  0  0  0  0  0  0
   -7.5040   20.9920  -32.3930 C   0  0  0  0  0  0  0  0  0  0  0  0
   -6.1850   21.3780  -32.7030 C   0  0  0  0  0  0  0  0  0  0  0  0
   -5.5910   22.4580  -32.0450 C   0  0  0  0  0  0  0  0  0  0  0  0
   -6.3000   23.1680  -31.0690 C   0  0  0  0  0  0  0  0  0  0  0  0
   -5.5480   24.5470  -30.2730 S   0  0  0  0  0  0  0  0  0  0  0  0
   -4.6350   25.2760  -31.2200 O   0  0  0  0  0  0  0  0  0  0  0  0
   -6.6230   25.4940  -29.8190 O   0  0  0  0  0  0  0  0  0  0  0  0
   -4.6400   24.0090  -28.8960 N   0  0  0  0  0  0  0  0  0  0  0  0
   -3.5970   23.2410  -28.9770 C   0  0  0  0  0  0  0  0  0  0  0  0
   -3.1430   22.8030  -30.1820 N   0  0  0  0  0  0  0  0  0  0  0  0
   -2.0610   21.9880  -30.2770 C   0  0  0  0  0  0  0  0  0  0  0  0
   -1.5810   21.5430  -31.6210 C   0  0  0  0  0  0  0  0  0  0  0  0
   -1.3820   21.6060  -29.1150 C   0  0  0  0  0  0  0  0  0  0  0  0
   -1.8630   22.0570  -27.8810 C   0  0  0  0  0  0  0  0  0  0  0  0
   -1.1570   21.6920  -26.6140 C   0  0  0  0  0  0  0  0  0  0  0  0
   -2.9530   22.8680  -27.8400 N   0  0  0  0  0  0  0  0  0  0  0  0
   -7.6160   22.7960  -30.7630 C   0  0  0  0  0  0  0  0  0  0  0  0
   -8.2130   21.7170  -31.4220 C   0  0  0  0  0  0  0  0  0  0  0  0
   -6.0610   16.9350  -32.2960 C   0  0  0  0  0  0  0  0  0  0  0  0
   -4.8390   16.3970  -32.7090 C   0  0  0  0  0  0  0  0  0  0  0  0
   -1.3260   17.3591  -33.8384 H   0  0  0  0  0  0  0  0  0  0  0  0
   -1.2317   16.3453  -35.3183 H   0  0  0  0  0  0  0  0  0  0  0  0
   -2.2208   17.8448  -35.3183 H   0  0  0  0  0  0  0  0  0  0  0  0
   -4.4364   18.1204  -35.6339 H   0  0  0  0  0  0  0  0  0  0  0  0
   -6.6205   19.0755  -34.9051 H   0  0  0  0  0  0  0  0  0  0  0  0
   -8.8408   17.9001  -33.0729 H   0  0  0  0  0  0  0  0  0  0  0  0
   -8.0751   18.4418  -31.5301 H   0  0  0  0  0  0  0  0  0  0  0  0
   -8.7840   20.0810  -33.8540 H   0  0  0  0  0  0  0  0  0  0  0  0
   -5.6193   20.8257  -33.4678 H   0  0  0  0  0  0  0  0  0  0  0  0
   -4.5609   22.7518  -32.2952 H   0  0  0  0  0  0  0  0  0  0  0  0
   -0.7795   20.7999  -31.4966 H   0  0  0  0  0  0  0  0  0  0  0  0
   -2.4158   21.0922  -32.1777 H   0  0  0  0  0  0  0  0  0  0  0  0
   -1.1945   22.4094  -32.1777 H   0  0  0  0  0  0  0  0  0  0  0  0
   -0.4896   20.9652  -29.1703 H   0  0  0  0  0  0  0  0  0  0  0  0
   -1.7643   22.0060  -25.7523 H   0  0  0  0  0  0  0  0  0  0  0  0
   -1.0062   20.6030  -26.5789 H   0  0  0  0  0  0  0  0  0  0  0  0
   -0.1812   22.1986  -26.5789 H   0  0  0  0  0  0  0  0  0  0  0  0
   -8.1809   23.3545  -30.0021 H   0  0  0  0  0  0  0  0  0  0  0  0
   -9.2474   21.4336  -31.1775 H   0  0  0  0  0  0  0  0  0  0  0  0
   -6.5214   16.5922  -31.3576 H   0  0  0  0  0  0  0  0  0  0  0  0
   -4.3408   15.6375  -32.0885 H   0  0  0  0  0  0  0  0  0  0  0  0
  1  2  1  0
  2  3  1  0
  3  4  2  0
  4  5  1  0
  5  6  2  0
  6  7  1  0
  7  8  1  0
  8  9  1  0
  9 10  2  0
 10 11  1  0
 11 12  2  0
 12 13  1  0
 13 14  2  0
 13 15  2  0
 13 16  1  0
 16 17  2  3
 17 18  1  0
 18 19  2  0
 19 20  1  0
 19 21  1  0
 21 22  2  0
 22 23  1  0
 22 24  1  0
 12 25  1  0
 25 26  2  0
  6 27  1  0
 27 28  2  0
 28  3  1  0
 26  9  1  0
 24 17  1  0
  1 29  1  0
  1 30  1  0
  1 31  1  0
  4 32  1  0
  5 33  1  0
  7 34  1  0
  7 35  1  0
  8 36  1  0
 10 37  1  0
 11 38  1  0
 20 39  1  0
 20 40  1  0
 20 41  1  0
 21 42  1  0
 23 43  1  0
 23 44  1  0
 23 45  1  0
 25 46  1  0
 26 47  1  0
 27 48  1  0
 28 49  1  0
M  CHG  1  24  -1
M  END
>  <UniqueID>  (16) 
15

>  <SMILES>  (16) 
COc1ccc(CNc2ccc(S(=O)(=O)N=c3nc(C)cc(C)[n-]3)cc2)cc1

>  <Energy>  (16) 
50.25475674997144

>  <Genealogy>  (16) 
COc1ccc(CNc2ccc(S(=O)(=O)N=c3nc(C)cc(C)[n-]3)cc2)cc1 (protonated)
COc1ccc(CNc2ccc(S(=O)(=O)N=c3nc(C)cc(C)[n-]3)cc2)cc1 (3D coordinates assigned)
COc1ccc(CNc2ccc(S(=O)(=O)N=c3nc(C)cc(C)[n-]3)cc2)cc1 (optimized conformer: 50.25475674997144 kcal/mol)

>  <smiles>  (16) 
COc1ccc(CNc2ccc(S(=O)(=O)N=c3nc(C)cc(C)[nH]3)cc2)cc1

>  <score_type>  (16) 
oracle

>  <origin>  (16) 
adgpu

>  <m_score__min__energy>  (16) 
-9.7899999999999991

>  <m_primary>  (16) 
energy

$$$$
16:0
     RDKit          3D

 60 63  0  0  0  0  0  0  0  0999 V2000
    0.2430   22.9330  -26.3990 C   0  0  0  0  0  0  0  0  0  0  0  0
   -0.6780   23.7070  -25.4520 C   0  0  0  0  0  0  0  0  0  0  0  0
   -0.9680   25.0740  -25.9470 N   0  0  0  0  0  0  0  0  0  0  0  0
   -0.1620   25.4030  -27.1520 C   0  0  0  0  0  0  0  0  0  0  0  0
   -0.9320   25.2910  -28.4880 C   0  0  0  0  0  0  0  0  0  0  0  0
   -2.0500   24.3480  -28.3800 N   0  0  0  0  0  0  0  0  0  0  0  0
   -2.3300   23.4240  -29.4430 C   0  0  0  0  0  0  0  0  0  0  0  0
   -1.7320   22.1570  -29.4300 C   0  0  0  0  0  0  0  0  0  0  0  0
   -1.9840   21.2440  -30.4540 C   0  0  0  0  0  0  0  0  0  0  0  0
   -2.8260   21.5910  -31.5170 C   0  0  0  0  0  0  0  0  0  0  0  0
   -3.1230   20.4420  -32.8220 S   0  0  0  0  0  0  0  0  0  0  0  0
   -3.2560   19.0720  -32.2190 O   0  0  0  0  0  0  0  0  0  0  0  0
   -4.4350   20.7800  -33.4750 O   0  0  0  0  0  0  0  0  0  0  0  0
   -1.8450   20.3920  -34.0230 N   0  0  0  0  0  0  0  0  0  0  0  0
   -0.8460   21.4710  -33.9040 C   0  0  0  0  0  0  0  0  0  0  0  0
    0.2560   21.1490  -32.8890 C   0  0  0  0  0  0  0  0  0  0  0  0
    0.9200   19.8190  -33.2320 C   0  0  0  0  0  0  0  0  0  0  0  0
   -0.1220   18.7050  -33.2770 C   0  0  0  0  0  0  0  0  0  0  0  0
   -1.2720   19.0470  -34.2420 C   0  0  0  0  0  0  0  0  0  0  0  0
   -3.4480   22.8460  -31.5230 C   0  0  0  0  0  0  0  0  0  0  0  0
   -3.2180   23.7630  -30.4820 C   0  0  0  0  0  0  0  0  0  0  0  0
   -3.8550   25.0490  -30.4800 N   0  0  0  0  0  0  0  0  0  0  0  0
   -5.2680   25.2880  -30.4970 C   0  0  0  0  0  0  0  0  0  0  0  0
   -5.6960   26.4200  -30.1490 O   0  0  0  0  0  0  0  0  0  0  0  0
   -6.2320   24.2260  -30.8430 C   0  0  0  0  0  0  0  0  0  0  0  0
   -6.6050   23.8620  -32.1320 C   0  0  0  0  0  0  0  0  0  0  0  0
   -7.5800   22.8580  -32.1660 C   0  0  0  0  0  0  0  0  0  0  0  0
   -7.9890   22.4340  -30.9080 C   0  0  0  0  0  0  0  0  0  0  0  0
   -7.1380   23.3130  -29.7560 S   0  0  0  0  0  0  0  0  0  0  0  0
   -2.9960   24.4700  -27.2680 C   0  0  0  0  0  0  0  0  0  0  0  0
   -2.4090   25.3450  -26.1520 C   0  0  0  0  0  0  0  0  0  0  0  0
    0.9546   22.3349  -25.8109 H   0  0  0  0  0  0  0  0  0  0  0  0
   -0.3598   22.2664  -27.0332 H   0  0  0  0  0  0  0  0  0  0  0  0
    0.7959   23.6416  -27.0332 H   0  0  0  0  0  0  0  0  0  0  0  0
   -1.6258   23.1578  -25.3520 H   0  0  0  0  0  0  0  0  0  0  0  0
   -0.1655   23.8000  -24.4831 H   0  0  0  0  0  0  0  0  0  0  0  0
    0.2018   26.4361  -27.0506 H   0  0  0  0  0  0  0  0  0  0  0  0
    0.6510   24.6634  -27.1963 H   0  0  0  0  0  0  0  0  0  0  0  0
   -1.3240   26.2821  -28.7601 H   0  0  0  0  0  0  0  0  0  0  0  0
   -0.2392   24.9221  -29.2587 H   0  0  0  0  0  0  0  0  0  0  0  0
   -1.0584   21.8801  -28.6057 H   0  0  0  0  0  0  0  0  0  0  0  0
   -1.5192   20.2474  -30.4261 H   0  0  0  0  0  0  0  0  0  0  0  0
   -0.3817   21.6306  -34.8884 H   0  0  0  0  0  0  0  0  0  0  0  0
   -1.3703   22.3709  -33.5501 H   0  0  0  0  0  0  0  0  0  0  0  0
    1.0121   21.9477  -32.9087 H   0  0  0  0  0  0  0  0  0  0  0  0
   -0.1909   21.0776  -31.8864 H   0  0  0  0  0  0  0  0  0  0  0  0
    1.4083   19.8995  -34.2144 H   0  0  0  0  0  0  0  0  0  0  0  0
    1.6662   19.5810  -32.4597 H   0  0  0  0  0  0  0  0  0  0  0  0
    0.3621   17.7761  -33.6127 H   0  0  0  0  0  0  0  0  0  0  0  0
   -0.5425   18.5846  -32.2677 H   0  0  0  0  0  0  0  0  0  0  0  0
   -0.8894   18.9950  -35.2720 H   0  0  0  0  0  0  0  0  0  0  0  0
   -2.0759   18.3189  -34.0584 H   0  0  0  0  0  0  0  0  0  0  0  0
   -4.1221   23.1166  -32.3490 H   0  0  0  0  0  0  0  0  0  0  0  0
   -6.1761   24.3182  -33.0364 H   0  0  0  0  0  0  0  0  0  0  0  0
   -7.9844   22.4437  -33.1013 H   0  0  0  0  0  0  0  0  0  0  0  0
   -8.7400   21.6572  -30.7016 H   0  0  0  0  0  0  0  0  0  0  0  0
   -3.9269   24.9275  -27.6341 H   0  0  0  0  0  0  0  0  0  0  0  0
   -3.1980   23.4674  -26.8630 H   0  0  0  0  0  0  0  0  0  0  0  0
   -2.5381   26.4032  -26.4231 H   0  0  0  0  0  0  0  0  0  0  0  0
   -2.9392   25.1111  -25.2170 H   0  0  0  0  0  0  0  0  0  0  0  0
  1  2  1  0
  2  3  1  0
  3  4  1  0
  4  5  1  0
  5  6  1  0
  6  7  1  0
  7  8  2  0
  8  9  1  0
  9 10  2  0
 10 11  1  0
 11 12  2  0
 11 13  2  0
 11 14  1  0
 14 15  1  0
 15 16  1  0
 16 17  1  0
 17 18  1  0
 18 19  1  0
 10 20  1  0
 20 21  2  0
 21 22  1  0
 22 23  1  0
 23 24  2  0
 23 25  1  0
 25 26  2  0
 26 27  1  0
 27 28  2  0
 28 29  1  0
  6 30  1  0
 30 31  1  0
 31  3  1  0
 21  7  1  0
 29 25  1  0
 19 14  1  0
  1 32  1  0
  1 33  1  0
  1 34  1  0
  2 35  1  0
  2 36  1  0
  4 37  1  0
  4 38  1  0
  5 39  1  0
  5 40  1  0
  8 41  1  0
  9 42  1  0
 15 43  1  0
 15 44  1  0
 16 45  1  0
 16 46  1  0
 17 47  1  0
 17 48  1  0
 18 49  1  0
 18 50  1  0
 19 51  1  0
 19 52  1  0
 20 53  1  0
 26 54  1  0
 27 55  1  0
 28 56  1  0
 30 57  1  0
 30 58  1  0
 31 59  1  0
 31 60  1  0
M  CHG  1  22  -1
M  END
>  <UniqueID>  (17) 
16

>  <SMILES>  (17) 
CCN1CCN(c2ccc(S(=O)(=O)N3CCCCC3)cc2[N-]C(=O)c2cccs2)CC1

>  <Energy>  (17) 
105.65892057994147

>  <Genealogy>  (17) 
CCN1CCN(c2ccc(S(=O)(=O)N3CCCCC3)cc2[N-]C(=O)c2cccs2)CC1 (protonated)
CCN1CCN(c2ccc(S(=O)(=O)N3CCCCC3)cc2[N-]C(=O)c2cccs2)CC1 (3D coordinates assigned)
CCN1CCN(c2ccc(S(=O)(=O)N3CCCCC3)cc2[N-]C(=O)c2cccs2)CC1 (nonaromatic ring conformer: 105.65892057994147 kcal/mol)

>  <smiles>  (17) 
CCN1CCN(c2ccc(S(=O)(=O)N3CCCCC3)cc2NC(=O)c2cccs2)CC1

>  <score_type>  (17) 
oracle

>  <origin>  (17) 
adgpu

>  <m_score__min__energy>  (17) 
-11.109999999999999

>  <m_primary>  (17) 
energy

$$$$
17:0
     RDKit          3D

 43 45  0  0  0  0  0  0  0  0999 V2000
   -3.4690   16.0930  -35.0010 C   0  0  0  0  0  0  0  0  0  0  0  0
   -4.3770   17.1110  -35.4110 O   0  0  0  0  0  0  0  0  0  0  0  0
   -4.7690   18.1920  -34.6080 C   0  0  0  0  0  0  0  0  0  0  0  0
   -3.8640   18.8900  -33.7850 C   0  0  0  0  0  0  0  0  0  0  0  0
   -4.3050   19.9630  -33.0040 C   0  0  0  0  0  0  0  0  0  0  0  0
   -5.6530   20.3510  -33.0270 C   0  0  0  0  0  0  0  0  0  0  0  0
   -6.0980   21.4630  -32.2340 N   0  0  0  0  0  0  0  0  0  0  0  0
   -7.3550   21.7260  -31.8080 C   0  0  0  0  0  0  0  0  0  0  0  0
   -8.4580   20.9010  -32.0190 O   0  0  0  0  0  0  0  0  0  0  0  0
   -7.4010   22.9080  -31.0950 C   0  0  0  0  0  0  0  0  0  0  0  0
   -6.0980   23.3800  -31.0660 C   0  0  0  0  0  0  0  0  0  0  0  0
   -5.6510   24.5810  -30.4030 N   0  0  0  0  0  0  0  0  0  0  0  0
   -6.6390   25.4150  -29.7120 C   0  0  0  0  0  0  0  0  0  0  0  0
   -4.2250   24.9430  -30.3670 C   0  0  0  0  0  0  0  0  0  0  0  0
   -3.4900   24.1140  -29.3410 C   0  0  0  0  0  0  0  0  0  0  0  0
   -4.0650   22.9310  -28.8430 C   0  0  0  0  0  0  0  0  0  0  0  0
   -3.4000   22.1730  -27.8760 C   0  0  0  0  0  0  0  0  0  0  0  0
   -2.1540   22.5840  -27.4000 C   0  0  0  0  0  0  0  0  0  0  0  0
   -1.5660   23.7510  -27.8930 C   0  0  0  0  0  0  0  0  0  0  0  0
   -2.2260   24.5150  -28.8620 C   0  0  0  0  0  0  0  0  0  0  0  0
   -1.6190   25.6700  -29.3460 O   0  0  0  0  0  0  0  0  0  0  0  0
   -5.3310   22.4760  -31.7830 C   0  0  0  0  0  0  0  0  0  0  0  0
   -3.9760   22.6010  -32.0660 O   0  0  0  0  0  0  0  0  0  0  0  0
   -6.5510   19.6610  -33.8540 C   0  0  0  0  0  0  0  0  0  0  0  0
   -6.1110   18.5890  -34.6360 C   0  0  0  0  0  0  0  0  0  0  0  0
   -3.4340   16.0537  -33.9023 H   0  0  0  0  0  0  0  0  0  0  0  0
   -3.8062   15.1217  -35.3921 H   0  0  0  0  0  0  0  0  0  0  0  0
   -2.4656   16.3174  -35.3921 H   0  0  0  0  0  0  0  0  0  0  0  0
   -2.8061   18.5900  -33.7564 H   0  0  0  0  0  0  0  0  0  0  0  0
   -3.5906   20.5060  -32.3678 H   0  0  0  0  0  0  0  0  0  0  0  0
   -9.1940   20.8050  -31.3320 H   0  0  0  0  0  0  0  0  0  0  0  0
   -8.2876   23.3774  -30.6438 H   0  0  0  0  0  0  0  0  0  0  0  0
   -6.5126   25.3083  -28.6245 H   0  0  0  0  0  0  0  0  0  0  0  0
   -6.4935   26.4676  -29.9965 H   0  0  0  0  0  0  0  0  0  0  0  0
   -7.6522   25.0949  -29.9965 H   0  0  0  0  0  0  0  0  0  0  0  0
   -3.7824   24.7663  -31.3584 H   0  0  0  0  0  0  0  0  0  0  0  0
   -4.1363   26.0047  -30.0934 H   0  0  0  0  0  0  0  0  0  0  0  0
   -5.0450   22.6003  -29.2174 H   0  0  0  0  0  0  0  0  0  0  0  0
   -3.8590   21.2511  -27.4893 H   0  0  0  0  0  0  0  0  0  0  0  0
   -1.6343   21.9879  -26.6354 H   0  0  0  0  0  0  0  0  0  0  0  0
   -0.5821   24.0702  -27.5188 H   0  0  0  0  0  0  0  0  0  0  0  0
   -7.6076   19.9650  -33.8876 H   0  0  0  0  0  0  0  0  0  0  0  0
   -6.8252   18.0531  -35.2785 H   0  0  0  0  0  0  0  0  0  0  0  0
  1  2  1  0
  2  3  1  0
  3  4  2  0
  4  5  1  0
  5  6  2  0
  6  7  1  0
  7  8  1  0
  8  9  1  0
  8 10  2  0
 10 11  1  0
 11 12  1  0
 12 13  1  0
 12 14  1  0
 14 15  1  0
 15 16  2  0
 16 17  1  0
 17 18  2  0
 18 19  1  0
 19 20  2  0
 20 21  1  0
 11 22  2  0
 22 23  1  0
  6 24  1  0
 24 25  2  0
 25  3  1  0
 22  7  1  0
 20 15  1  0
  1 26  1  0
  1 27  1  0
  1 28  1  0
  4 29  1  0
  5 30  1  0
  9 31  1  0
 10 32  1  0
 13 33  1  0
 13 34  1  0
 13 35  1  0
 14 36  1  0
 14 37  1  0
 16 38  1  0
 17 39  1  0
 18 40  1  0
 19 41  1  0
 24 42  1  0
 25 43  1  0
M  CHG  2  21  -1  23  -1
M  END
>  <UniqueID>  (18) 
17

>  <SMILES>  (18) 
COc1ccc(-n2c(O)cc(N(C)Cc3ccccc3[O-])c2[O-])cc1

>  <Energy>  (18) 
79.98058669125531

>  <Genealogy>  (18) 
COc1ccc(-n2c(O)cc(N(C)Cc3ccccc3[O-])c2[O-])cc1 (protonated)
COc1ccc(-n2c(O)cc(N(C)Cc3ccccc3[O-])c2[O-])cc1 (3D coordinates assigned)
COc1ccc(-n2c(O)cc(N(C)Cc3ccccc3[O-])c2[O-])cc1 (optimized conformer: 79.98058669125531 kcal/mol)

>  <smiles>  (18) 
COc1ccc(-n2c(O)cc(N(C)Cc3ccccc3O)c2O)cc1

>  <score_type>  (18) 
oracle

>  <origin>  (18) 
adgpu

>  <m_score__min__energy>  (18) 
-11.93

>  <m_primary>  (18) 
energy

$$$$
18:0
     RDKit          3D

 66 69  0  0  0  0  0  0  0  0999 V2000
   -4.4620   15.2710  -34.2180 C   0  0  0  0  0  0  0  0  0  0  0  0
   -5.9150   14.9430  -33.8820 C   0  0  0  0  0  0  0  0  0  0  0  0
   -6.6770   16.1360  -33.6890 O   0  0  0  0  0  0  0  0  0  0  0  0
   -6.1380   17.4130  -33.4590 C   0  0  0  0  0  0  0  0  0  0  0  0
   -6.1040   18.4170  -34.4470 C   0  0  0  0  0  0  0  0  0  0  0  0
   -5.5630   19.6700  -34.1590 C   0  0  0  0  0  0  0  0  0  0  0  0
   -5.0540   19.9520  -32.8850 C   0  0  0  0  0  0  0  0  0  0  0  0
   -4.4920   21.2440  -32.6010 N   0  0  0  0  0  0  0  0  0  0  0  0
   -3.3650   21.7500  -33.3930 C   0  0  0  0  0  0  0  0  0  0  0  0
   -2.1610   20.8790  -33.2170 C   0  0  0  0  0  0  0  0  0  0  0  0
   -1.9490   19.9430  -34.0310 O   0  0  0  0  0  0  0  0  0  0  0  0
   -1.2350   21.1590  -32.1580 N   0  0  0  0  0  0  0  0  0  0  0  0
   -1.4970   21.2460  -30.7510 C   0  0  0  0  0  0  0  0  0  0  0  0
   -1.4930   20.1210  -29.9070 C   0  0  0  0  0  0  0  0  0  0  0  0
   -1.8420   20.2520  -28.5600 C   0  0  0  0  0  0  0  0  0  0  0  0
   -2.2120   21.4970  -28.0470 C   0  0  0  0  0  0  0  0  0  0  0  0
   -2.2320   22.6230  -28.8810 C   0  0  0  0  0  0  0  0  0  0  0  0
   -2.7470   24.1870  -28.2540 S   0  0  0  0  0  0  0  0  0  0  0  0
   -2.6160   25.2130  -29.3420 O   0  0  0  0  0  0  0  0  0  0  0  0
   -4.2000   24.1110  -27.8730 O   0  0  0  0  0  0  0  0  0  0  0  0
   -1.8040   24.6990  -26.8670 N   0  0  0  0  0  0  0  0  0  0  0  0
   -0.7940   23.7030  -26.4620 C   0  0  0  0  0  0  0  0  0  0  0  0
    0.5080   23.7850  -27.2910 C   0  0  0  0  0  0  0  0  0  0  0  0
    0.5520   24.9060  -28.1500 O   0  0  0  0  0  0  0  0  0  0  0  0
    0.2300   26.0700  -27.4240 C   0  0  0  0  0  0  0  0  0  0  0  0
   -1.2540   26.0630  -27.0230 C   0  0  0  0  0  0  0  0  0  0  0  0
   -1.8640   22.4920  -30.2270 C   0  0  0  0  0  0  0  0  0  0  0  0
   -5.2790   22.2870  -31.4470 S   0  0  0  0  0  0  0  0  0  0  0  0
   -4.8070   21.9330  -30.0630 O   0  0  0  0  0  0  0  0  0  0  0  0
   -4.9040   23.7180  -31.7090 O   0  0  0  0  0  0  0  0  0  0  0  0
   -7.0320   22.1190  -31.5460 C   0  0  0  0  0  0  0  0  0  0  0  0
   -7.6390   20.8960  -31.2330 C   0  0  0  0  0  0  0  0  0  0  0  0
   -9.0300   20.7570  -31.3100 C   0  0  0  0  0  0  0  0  0  0  0  0
   -9.8210   21.8410  -31.6950 C   0  0  0  0  0  0  0  0  0  0  0  0
   -9.2210   23.0640  -32.0120 C   0  0  0  0  0  0  0  0  0  0  0  0
   -7.8300   23.2010  -31.9450 C   0  0  0  0  0  0  0  0  0  0  0  0
   -5.0860   18.9580  -31.8990 C   0  0  0  0  0  0  0  0  0  0  0  0
   -5.6210   17.6960  -32.1880 C   0  0  0  0  0  0  0  0  0  0  0  0
   -3.8905   15.4000  -33.2870 H   0  0  0  0  0  0  0  0  0  0  0  0
   -4.0266   14.4485  -34.8045 H   0  0  0  0  0  0  0  0  0  0  0  0
   -4.4222   16.2007  -34.8045 H   0  0  0  0  0  0  0  0  0  0  0  0
   -6.3540   14.3654  -34.7088 H   0  0  0  0  0  0  0  0  0  0  0  0
   -5.9363   14.3586  -32.9503 H   0  0  0  0  0  0  0  0  0  0  0  0
   -6.5060   18.2117  -35.4501 H   0  0  0  0  0  0  0  0  0  0  0  0
   -5.5359   20.4441  -34.9400 H   0  0  0  0  0  0  0  0  0  0  0  0
   -3.6482   21.7641  -34.4558 H   0  0  0  0  0  0  0  0  0  0  0  0
   -3.1196   22.7658  -33.0497 H   0  0  0  0  0  0  0  0  0  0  0  0
   -1.2144   19.1353  -30.3081 H   0  0  0  0  0  0  0  0  0  0  0  0
   -1.8252   19.3711  -27.9014 H   0  0  0  0  0  0  0  0  0  0  0  0
   -2.4882   21.5940  -26.9867 H   0  0  0  0  0  0  0  0  0  0  0  0
   -0.5454   23.8677  -25.4032 H   0  0  0  0  0  0  0  0  0  0  0  0
   -1.2291   22.7074  -26.6340 H   0  0  0  0  0  0  0  0  0  0  0  0
    1.3605   23.8420  -26.5981 H   0  0  0  0  0  0  0  0  0  0  0  0
    0.5491   22.8865  -27.9242 H   0  0  0  0  0  0  0  0  0  0  0  0
    0.8498   26.1132  -26.5162 H   0  0  0  0  0  0  0  0  0  0  0  0
    0.4225   26.9483  -28.0576 H   0  0  0  0  0  0  0  0  0  0  0  0
   -1.3612   26.5957  -26.0666 H   0  0  0  0  0  0  0  0  0  0  0  0
   -1.8156   26.5538  -27.8315 H   0  0  0  0  0  0  0  0  0  0  0  0
   -1.8634   23.3778  -30.8793 H   0  0  0  0  0  0  0  0  0  0  0  0
   -7.0197   20.0406  -30.9252 H   0  0  0  0  0  0  0  0  0  0  0  0
   -9.5001   19.7927  -31.0669 H   0  0  0  0  0  0  0  0  0  0  0  0
  -10.9144   21.7334  -31.7490 H   0  0  0  0  0  0  0  0  0  0  0  0
   -9.8433   23.9192  -32.3143 H   0  0  0  0  0  0  0  0  0  0  0  0
   -7.3607   24.1610  -32.2063 H   0  0  0  0  0  0  0  0  0  0  0  0
   -4.6899   19.1688  -30.8947 H   0  0  0  0  0  0  0  0  0  0  0  0
   -5.6353   16.9194  -31.4091 H   0  0  0  0  0  0  0  0  0  0  0  0
  1  2  1  0
  2  3  1  0
  3  4  1  0
  4  5  2  0
  5  6  1  0
  6  7  2  0
  7  8  1  0
  8  9  1  0
  9 10  1  0
 10 11  2  0
 10 12  1  0
 12 13  1  0
 13 14  2  0
 14 15  1  0
 15 16  2  0
 16 17  1  0
 17 18  1  0
 18 19  2  0
 18 20  2  0
 18 21  1  0
 21 22  1  0
 22 23  1  0
 23 24  1  0
 24 25  1  0
 25 26  1  0
 17 27  2  0
  8 28  1  0
 28 29  2  0
 28 30  2  0
 28 31  1  0
 31 32  2  0
 32 33  1  0
 33 34  2  0
 34 35  1  0
 35 36  2  0
  7 37  1  0
 37 38  2  0
 38  4  1  0
 27 13  1  0
 36 31  1  0
 26 21  1  0
  1 39  1  0
  1 40  1  0
  1 41  1  0
  2 42  1  0
  2 43  1  0
  5 44  1  0
  6 45  1  0
  9 46  1  0
  9 47  1  0
 14 48  1  0
 15 49  1  0
 16 50  1  0
 22 51  1  0
 22 52  1  0
 23 53  1  0
 23 54  1  0
 25 55  1  0
 25 56  1  0
 26 57  1  0
 26 58  1  0
 27 59  1  0
 32 60  1  0
 33 61  1  0
 34 62  1  0
 35 63  1  0
 36 64  1  0
 37 65  1  0
 38 66  1  0
M  CHG  1  12  -1
M  END
>  <UniqueID>  (19) 
18

>  <SMILES>  (19) 
CCOc1ccc(N(CC(=O)[N-]c2cccc(S(=O)(=O)N3CCOCC3)c2)S(=O)(=O)c2ccccc2)cc1

>  <Energy>  (19) 
78.08936844459775

>  <Genealogy>  (19) 
CCOc1ccc(N(CC(=O)[N-]c2cccc(S(=O)(=O)N3CCOCC3)c2)S(=O)(=O)c2ccccc2)cc1 (protonated)
CCOc1ccc(N(CC(=O)[N-]c2cccc(S(=O)(=O)N3CCOCC3)c2)S(=O)(=O)c2ccccc2)cc1 (3D coordinates assigned)
CCOc1ccc(N(CC(=O)[N-]c2cccc(S(=O)(=O)N3CCOCC3)c2)S(=O)(=O)c2ccccc2)cc1 (nonaromatic ring conformer: 78.08936844459775 kcal/mol)

>  <smiles>  (19) 
CCOc1ccc(N(CC(=O)Nc2cccc(S(=O)(=O)N3CCOCC3)c2)S(=O)(=O)c2ccccc2)cc1

>  <score_type>  (19) 
oracle

>  <origin>  (19) 
adgpu

>  <m_score__min__energy>  (19) 
-12.59

>  <m_primary>  (19) 
energy

$$$$
19:0
     RDKit          3D

 50 52  0  0  0  0  0  0  0  0999 V2000
   -2.3040   21.8740  -32.2710 C   0  0  0  0  0  0  0  0  0  0  0  0
   -2.4120   21.9980  -30.7880 C   0  0  0  0  0  0  0  0  0  0  0  0
   -2.1320   21.0010  -29.9230 N   0  0  0  0  0  0  0  0  0  0  0  0
   -2.4680   21.4150  -28.7090 N   0  0  0  0  0  0  0  0  0  0  0  0
   -2.3050   20.6040  -27.5080 C   0  0  0  0  0  0  0  0  0  0  0  0
   -2.9690   22.6680  -28.7720 C   0  0  0  0  0  0  0  0  0  0  0  0
   -3.5040   23.4450  -27.6080 C   0  0  0  0  0  0  0  0  0  0  0  0
   -2.9510   23.0610  -30.0940 C   0  0  0  0  0  0  0  0  0  0  0  0
   -3.5220   24.2390  -30.6630 N   0  0  0  0  0  0  0  0  0  0  0  0
   -5.1990   24.6080  -30.4540 S   0  0  0  0  0  0  0  0  0  0  0  0
   -5.5110   24.7970  -28.9960 O   0  0  0  0  0  0  0  0  0  0  0  0
   -5.5170   25.8820  -31.1840 O   0  0  0  0  0  0  0  0  0  0  0  0
   -6.1660   23.2930  -31.1150 C   0  0  0  0  0  0  0  0  0  0  0  0
   -7.4580   23.5300  -31.5980 C   0  0  0  0  0  0  0  0  0  0  0  0
   -8.1970   22.4900  -32.1640 C   0  0  0  0  0  0  0  0  0  0  0  0
   -7.6470   21.2050  -32.2680 C   0  0  0  0  0  0  0  0  0  0  0  0
   -8.3810   20.1780  -32.8600 O   0  0  0  0  0  0  0  0  0  0  0  0
   -6.3450   20.9600  -31.7920 C   0  0  0  0  0  0  0  0  0  0  0  0
   -5.7570   19.6510  -31.8900 N   0  0  0  0  0  0  0  0  0  0  0  0
   -6.5540   18.4540  -31.6130 C   0  0  0  0  0  0  0  0  0  0  0  0
   -6.6680   17.5830  -32.8780 C   0  0  0  0  0  0  0  0  0  0  0  0
   -5.4780   17.6550  -33.7680 N   0  0  0  0  0  0  0  0  0  0  0  0
   -5.7430   18.4570  -34.9740 C   0  0  0  0  0  0  0  0  0  0  0  0
   -4.2480   18.0930  -33.0730 C   0  0  0  0  0  0  0  0  0  0  0  0
   -4.4110   19.4890  -32.4460 C   0  0  0  0  0  0  0  0  0  0  0  0
   -5.6160   22.0100  -31.2140 C   0  0  0  0  0  0  0  0  0  0  0  0
   -1.6005   21.0662  -32.5211 H   0  0  0  0  0  0  0  0  0  0  0  0
   -3.2932   21.6423  -32.6926 H   0  0  0  0  0  0  0  0  0  0  0  0
   -1.9387   22.8221  -32.6926 H   0  0  0  0  0  0  0  0  0  0  0  0
   -2.4323   21.2374  -26.6178 H   0  0  0  0  0  0  0  0  0  0  0  0
   -3.0604   19.8044  -27.5002 H   0  0  0  0  0  0  0  0  0  0  0  0
   -1.2993   20.1584  -27.5002 H   0  0  0  0  0  0  0  0  0  0  0  0
   -3.1780   22.9715  -26.6702 H   0  0  0  0  0  0  0  0  0  0  0  0
   -3.1236   24.4763  -27.6496 H   0  0  0  0  0  0  0  0  0  0  0  0
   -4.6031   23.4576  -27.6496 H   0  0  0  0  0  0  0  0  0  0  0  0
   -7.8922   24.5385  -31.5314 H   0  0  0  0  0  0  0  0  0  0  0  0
   -9.2166   22.6799  -32.5305 H   0  0  0  0  0  0  0  0  0  0  0  0
   -8.3660   20.0250  -33.8620 H   0  0  0  0  0  0  0  0  0  0  0  0
   -6.0699   17.8725  -30.8145 H   0  0  0  0  0  0  0  0  0  0  0  0
   -7.5623   18.7606  -31.2977 H   0  0  0  0  0  0  0  0  0  0  0  0
   -6.8053   16.5368  -32.5671 H   0  0  0  0  0  0  0  0  0  0  0  0
   -7.5221   17.9674  -33.4548 H   0  0  0  0  0  0  0  0  0  0  0  0
   -6.0755   19.4633  -34.6794 H   0  0  0  0  0  0  0  0  0  0  0  0
   -4.8229   18.5352  -35.5718 H   0  0  0  0  0  0  0  0  0  0  0  0
   -6.5285   17.9717  -35.5718 H   0  0  0  0  0  0  0  0  0  0  0  0
   -4.0124   17.3708  -32.2774 H   0  0  0  0  0  0  0  0  0  0  0  0
   -3.4368   18.1441  -33.8141 H   0  0  0  0  0  0  0  0  0  0  0  0
   -3.6705   19.6128  -31.6420 H   0  0  0  0  0  0  0  0  0  0  0  0
   -4.2561   20.2485  -33.2265 H   0  0  0  0  0  0  0  0  0  0  0  0
   -4.6007   21.8227  -30.8344 H   0  0  0  0  0  0  0  0  0  0  0  0
  1  2  1  0
  2  3  2  0
  3  4  1  0
  4  5  1  0
  4  6  1  0
  6  7  1  0
  6  8  2  0
  8  9  1  0
  9 10  1  0
 10 11  2  0
 10 12  2  0
 10 13  1  0
 13 14  2  0
 14 15  1  0
 15 16  2  0
 16 17  1  0
 16 18  1  0
 18 19  1  0
 19 20  1  0
 20 21  1  0
 21 22  1  0
 22 23  1  0
 22 24  1  0
 24 25  1  0
 18 26  2  0
  8  2  1  0
 26 13  1  0
 25 19  1  0
  1 27  1  0
  1 28  1  0
  1 29  1  0
  5 30  1  0
  5 31  1  0
  5 32  1  0
  7 33  1  0
  7 34  1  0
  7 35  1  0
 14 36  1  0
 15 37  1  0
 17 38  1  0
 20 39  1  0
 20 40  1  0
 21 41  1  0
 21 42  1  0
 23 43  1  0
 23 44  1  0
 23 45  1  0
 24 46  1  0
 24 47  1  0
 25 48  1  0
 25 49  1  0
 26 50  1  0
M  CHG  1   9  -1
M  END
>  <UniqueID>  (20) 
19

>  <SMILES>  (20) 
Cc1nn(C)c(C)c1[N-]S(=O)(=O)c1ccc(O)c(N2CCN(C)CC2)c1

>  <Energy>  (20) 
96.47590454085766

>  <Genealogy>  (20) 
Cc1nn(C)c(C)c1[N-]S(=O)(=O)c1ccc(O)c(N2CCN(C)CC2)c1 (protonated)
Cc1nn(C)c(C)c1[N-]S(=O)(=O)c1ccc(O)c(N2CCN(C)CC2)c1 (3D coordinates assigned)
Cc1nn(C)c(C)c1[N-]S(=O)(=O)c1ccc(O)c(N2CCN(C)CC2)c1 (nonaromatic ring conformer: 96.47590454085766 kcal/mol)

>  <smiles>  (20) 
Cc1nn(C)c(C)c1NS(=O)(=O)c1ccc(O)c(N2CCN(C)CC2)c1

>  <score_type>  (20) 
oracle

>  <origin>  (20) 
adgpu

>  <m_score__min__energy>  (20) 
-9.1799999999999997

>  <m_primary>  (20) 
energy

$$$$
20:0
     RDKit          3D

 45 48  0  0  0  0  0  0  0  0999 V2000
   -5.3618   25.8147  -29.0971 H   0  0  0  0  0  0  0  0  0  0  0  0
   -5.1980   24.9500  -29.7570 C   0  0  0  0  0  0  0  0  0  0  0  0
   -6.2920   24.2840  -30.3180 C   0  0  0  0  0  0  0  0  0  0  0  0
   -7.3147   24.6162  -30.0863 H   0  0  0  0  0  0  0  0  0  0  0  0
   -6.0880   23.1940  -31.1750 C   0  0  0  0  0  0  0  0  0  0  0  0
   -7.4460   22.2250  -31.7350 S   0  0  0  0  0  0  0  0  0  0  0  0
   -8.0620   21.4610  -30.5960 O   0  0  0  0  0  0  0  0  0  0  0  0
   -8.4810   23.1310  -32.3400 O   0  0  0  0  0  0  0  0  0  0  0  0
   -6.8900   21.1040  -32.9370 N   0  0  0  0  0  0  0  0  0  0  0  0
   -7.0030   19.8120  -32.8380 C   0  0  0  0  0  0  0  0  0  0  0  0
   -6.5010   18.9100  -33.7490 C   0  0  0  0  0  0  0  0  0  0  0  0
   -5.9746   19.1117  -34.6936 H   0  0  0  0  0  0  0  0  0  0  0  0
   -6.8210   17.6870  -33.1850 C   0  0  0  0  0  0  0  0  0  0  0  0
   -6.4660   16.3460  -33.7310 C   0  0  0  0  0  0  0  0  0  0  0  0
   -6.2815   15.6490  -32.9003 H   0  0  0  0  0  0  0  0  0  0  0  0
   -7.2955   15.9699  -34.3478 H   0  0  0  0  0  0  0  0  0  0  0  0
   -5.5591   16.4296  -34.3478 H   0  0  0  0  0  0  0  0  0  0  0  0
   -7.4550   17.8830  -32.0500 O   0  0  0  0  0  0  0  0  0  0  0  0
   -7.5840   19.1540  -31.8150 N   0  0  0  0  0  0  0  0  0  0  0  0
   -8.0580   19.5520  -30.9750 H   0  0  0  0  0  0  0  0  0  0  0  0
   -4.7840   22.8170  -31.5170 C   0  0  0  0  0  0  0  0  0  0  0  0
   -4.6199   21.9986  -32.2335 H   0  0  0  0  0  0  0  0  0  0  0  0
   -3.6920   23.4760  -30.9520 C   0  0  0  0  0  0  0  0  0  0  0  0
   -2.6695   23.1780  -31.2270 H   0  0  0  0  0  0  0  0  0  0  0  0
   -3.8940   24.5190  -30.0330 C   0  0  0  0  0  0  0  0  0  0  0  0
   -2.7910   25.1250  -29.3470 N   0  0  0  0  0  0  0  0  0  0  0  0
   -1.5830   24.4370  -28.9940 C   0  0  0  0  0  0  0  0  0  0  0  0
   -0.4770   24.9390  -29.3240 O   0  0  0  0  0  0  0  0  0  0  0  0
   -1.6130   23.2020  -28.1720 C   0  0  0  0  0  0  0  0  0  0  0  0
   -2.0600   22.0150  -28.7780 C   0  0  0  0  0  0  0  0  0  0  0  0
   -2.3884   22.0324  -29.8277 H   0  0  0  0  0  0  0  0  0  0  0  0
   -2.0930   20.8170  -28.0680 C   0  0  0  0  0  0  0  0  0  0  0  0
   -2.4435   19.8979  -28.5604 H   0  0  0  0  0  0  0  0  0  0  0  0
   -1.6840   20.7780  -26.7370 C   0  0  0  0  0  0  0  0  0  0  0  0
   -1.7176   19.8293  -26.1813 H   0  0  0  0  0  0  0  0  0  0  0  0
   -1.2300   21.9420  -26.1030 C   0  0  0  0  0  0  0  0  0  0  0  0
   -0.8060   21.8900  -24.7650 C   0  0  0  0  0  0  0  0  0  0  0  0
   -0.8541   20.9406  -24.2116 H   0  0  0  0  0  0  0  0  0  0  0  0
   -0.3240   23.0380  -24.1350 C   0  0  0  0  0  0  0  0  0  0  0  0
    0.0014   22.9926  -23.0852 H   0  0  0  0  0  0  0  0  0  0  0  0
   -0.2540   24.2430  -24.8340 C   0  0  0  0  0  0  0  0  0  0  0  0
    0.1344   25.1429  -24.3346 H   0  0  0  0  0  0  0  0  0  0  0  0
   -0.6740   24.3140  -26.1640 C   0  0  0  0  0  0  0  0  0  0  0  0
   -0.6062   25.2681  -26.7073 H   0  0  0  0  0  0  0  0  0  0  0  0
   -1.1850   23.1710  -26.8170 C   0  0  0  0  0  0  0  0  0  0  0  0
  1  2  1  0
  2  3  2  0
  3  4  1  0
  3  5  1  0
  5  6  1  0
  6  7  2  0
  6  8  2  0
  6  9  1  0
  9 10  2  0
 10 11  1  0
 11 12  1  0
 11 13  2  0
 13 14  1  0
 14 15  1  0
 14 16  1  0
 14 17  1  0
 13 18  1  0
 18 19  1  0
 19 20  1  0
  5 21  2  0
 21 22  1  0
 21 23  1  0
 23 24  1  0
 23 25  2  0
 25 26  1  0
 26 27  1  0
 27 28  2  0
 27 29  1  0
 29 30  2  0
 30 31  1  0
 30 32  1  0
 32 33  1  0
 32 34  2  0
 34 35  1  0
 34 36  1  0
 36 37  2  0
 37 38  1  0
 37 39  1  0
 39 40  1  0
 39 41  2  0
 41 42  1  0
 41 43  1  0
 43 44  1  0
 43 45  2  0
 25  2  1  0
 45 29  1  0
 19 10  1  0
 45 36  1  0
M  CHG  1  26  -1
M  END
>  <UniqueID>  (21) 
20

>  <SMILES>  (21) 
Cc1c/c(=N/S(=O)(=O)c2ccc([N-]C(=O)c3cccc4ccccc34)cc2)[nH]o1

>  <Energy>  (21) 
96.24199080643658

>  <Genealogy>  (21) 
Cc1cc(=NS(=O)(=O)c2ccc([N-]C(=O)c3cccc4ccccc34)cc2)[nH]o1 (protonated)
Cc1c/c(=N/S(=O)(=O)c2ccc([N-]C(=O)c3cccc4ccccc34)cc2)[nH]o1 (cis-trans isomerization)
Cc1c/c(=N/S(=O)(=O)c2ccc([N-]C(=O)c3cccc4ccccc34)cc2)[nH]o1 (3D coordinates assigned)
Cc1c/c(=N/S(=O)(=O)c2ccc([N-]C(=O)c3cccc4ccccc34)cc2)[nH]o1 (optimized conformer: 96.24199080643658 kcal/mol)

>  <smiles>  (21) 
Cc1cc(=NS(=O)(=O)c2ccc(NC(=O)c3cccc4ccccc34)cc2)[nH]o1

>  <score_type>  (21) 
oracle

>  <origin>  (21) 
adgpu

>  <m_score__min__energy>  (21) 
-11.32

>  <m_primary>  (21) 
energy

$$$$
21:0
     RDKit          3D

 22 22  0  0  0  0  0  0  0  0999 V2000
   -8.2510   22.9190  -31.9230 C   0  0  0  0  0  0  0  0  0  0  0  0
   -6.9720   22.3990  -32.2750 O   0  0  0  0  0  0  0  0  0  0  0  0
   -5.7720   22.7250  -31.6230 C   0  0  0  0  0  0  0  0  0  0  0  0
   -5.4090   24.0570  -31.3550 C   0  0  0  0  0  0  0  0  0  0  0  0
   -4.2110   24.3500  -30.7020 C   0  0  0  0  0  0  0  0  0  0  0  0
   -3.8790   25.6810  -30.4700 O   0  0  0  0  0  0  0  0  0  0  0  0
   -3.3550   23.3130  -30.2910 C   0  0  0  0  0  0  0  0  0  0  0  0
   -2.0450   23.6330  -29.6090 C   0  0  0  0  0  0  0  0  0  0  0  0
   -2.1220   24.9440  -28.9740 N   0  0  0  0  0  0  0  0  0  0  0  0
   -3.6990   21.9760  -30.5730 C   0  0  0  0  0  0  0  0  0  0  0  0
   -2.8230   20.9540  -30.1970 O   0  0  0  0  0  0  0  0  0  0  0  0
   -4.9130   21.6870  -31.2330 C   0  0  0  0  0  0  0  0  0  0  0  0
   -5.3750   20.0230  -31.5870 Cl  0  0  0  0  0  0  0  0  0  0  0  0
   -8.3428   22.9563  -30.8275 H   0  0  0  0  0  0  0  0  0  0  0  0
   -8.3605   23.9331  -32.3349 H   0  0  0  0  0  0  0  0  0  0  0  0
   -9.0371   22.2691  -32.3349 H   0  0  0  0  0  0  0  0  0  0  0  0
   -6.0758   24.8758  -31.6631 H   0  0  0  0  0  0  0  0  0  0  0  0
   -1.8357   22.8697  -28.8451 H   0  0  0  0  0  0  0  0  0  0  0  0
   -1.2396   23.6407  -30.3582 H   0  0  0  0  0  0  0  0  0  0  0  0
   -3.0950   25.0660  -28.6120 H   0  0  0  0  0  0  0  0  0  0  0  0
   -1.9860   25.6720  -29.7130 H   0  0  0  0  0  0  0  0  0  0  0  0
   -2.6810   20.1160  -30.7470 H   0  0  0  0  0  0  0  0  0  0  0  0
  1  2  1  0
  2  3  1  0
  3  4  2  0
  4  5  1  0
  5  6  1  0
  5  7  2  0
  7  8  1  0
  8  9  1  0
  7 10  1  0
 10 11  1  0
 10 12  2  0
 12 13  1  0
 12  3  1  0
  1 14  1  0
  1 15  1  0
  1 16  1  0
  4 17  1  0
  8 18  1  0
  8 19  1  0
  9 20  1  0
  9 21  1  0
 11 22  1  0
M  CHG  1   6  -1
M  END
>  <UniqueID>  (22) 
21

>  <SMILES>  (22) 
COc1cc([O-])c(CN)c(O)c1Cl

>  <Energy>  (22) 
21.00558552745039

>  <Genealogy>  (22) 
COc1cc([O-])c(CN)c(O)c1Cl (protonated)
COc1cc([O-])c(CN)c(O)c1Cl (3D coordinates assigned)
COc1cc([O-])c(CN)c(O)c1Cl (optimized conformer: 21.00558552745039 kcal/mol)

>  <smiles>  (22) 
COc1cc(O)c(CN)c(O)c1Cl

>  <score_type>  (22) 
oracle

>  <origin>  (22) 
adgpu

>  <m_score__min__energy>  (22) 
-7.5700000000000003

>  <m_primary>  (22) 
energy

$$$$
22:0
     RDKit          3D

 74 78  0  0  0  0  0  0  0  0999 V2000
   -3.8650   18.2370  -25.3250 C   0  0  0  0  0  0  0  0  0  0  0  0
   -2.5530   18.2570  -25.8780 O   0  0  0  0  0  0  0  0  0  0  0  0
   -2.1580   19.0800  -26.9440 C   0  0  0  0  0  0  0  0  0  0  0  0
   -3.0450   19.9770  -27.5720 C   0  0  0  0  0  0  0  0  0  0  0  0
   -2.6120   20.7610  -28.6480 C   0  0  0  0  0  0  0  0  0  0  0  0
   -1.2890   20.6620  -29.1060 C   0  0  0  0  0  0  0  0  0  0  0  0
   -0.8440   21.4510  -30.2200 N   0  0  0  0  0  0  0  0  0  0  0  0
   -0.5500   22.8810  -30.0640 C   0  0  0  0  0  0  0  0  0  0  0  0
   -0.7690   23.3400  -28.6460 C   0  0  0  0  0  0  0  0  0  0  0  0
   -1.9410   24.0280  -28.2920 C   0  0  0  0  0  0  0  0  0  0  0  0
   -2.1450   24.4410  -26.9720 C   0  0  0  0  0  0  0  0  0  0  0  0
   -1.1770   24.1770  -25.9970 C   0  0  0  0  0  0  0  0  0  0  0  0
   -0.0020   23.5050  -26.3440 C   0  0  0  0  0  0  0  0  0  0  0  0
    0.2050   23.0920  -27.6650 C   0  0  0  0  0  0  0  0  0  0  0  0
   -0.2580   20.6160  -31.6260 S   0  0  0  0  0  0  0  0  0  0  0  0
    0.4150   21.5800  -32.5620 O   0  0  0  0  0  0  0  0  0  0  0  0
    0.7550   19.5940  -31.1920 O   0  0  0  0  0  0  0  0  0  0  0  0
   -1.5920   19.8380  -32.4710 C   0  0  0  0  0  0  0  0  0  0  0  0
   -2.6950   20.6000  -32.8770 C   0  0  0  0  0  0  0  0  0  0  0  0
   -3.7410   20.0030  -33.5820 C   0  0  0  0  0  0  0  0  0  0  0  0
   -3.6990   18.6310  -33.8920 C   0  0  0  0  0  0  0  0  0  0  0  0
   -4.7810   17.9970  -34.6820 C   0  0  0  0  0  0  0  0  0  0  0  0
   -4.5120   17.0140  -35.4220 O   0  0  0  0  0  0  0  0  0  0  0  0
   -6.1210   18.5070  -34.6840 N   0  0  0  0  0  0  0  0  0  0  0  0
   -6.8320   19.0340  -33.5550 C   0  0  0  0  0  0  0  0  0  0  0  0
   -6.9070   20.4190  -33.3130 C   0  0  0  0  0  0  0  0  0  0  0  0
   -7.5550   20.9040  -32.1680 C   0  0  0  0  0  0  0  0  0  0  0  0
   -7.6560   22.6380  -31.8690 S   0  0  0  0  0  0  0  0  0  0  0  0
   -9.0790   22.9850  -31.5280 O   0  0  0  0  0  0  0  0  0  0  0  0
   -7.2670   23.3910  -33.1120 O   0  0  0  0  0  0  0  0  0  0  0  0
   -6.6070   23.0800  -30.5390 N   0  0  0  0  0  0  0  0  0  0  0  0
   -5.3000   22.3910  -30.6300 C   0  0  0  0  0  0  0  0  0  0  0  0
   -4.1900   23.3190  -31.1540 C   0  0  0  0  0  0  0  0  0  0  0  0
   -3.9980   24.4770  -30.3520 O   0  0  0  0  0  0  0  0  0  0  0  0
   -5.1890   24.9480  -29.7310 C   0  0  0  0  0  0  0  0  0  0  0  0
   -6.4780   24.5480  -30.4700 C   0  0  0  0  0  0  0  0  0  0  0  0
   -8.1170   20.0030  -31.2540 C   0  0  0  0  0  0  0  0  0  0  0  0
   -8.0470   18.6300  -31.4900 C   0  0  0  0  0  0  0  0  0  0  0  0
   -7.4050   18.1410  -32.6370 C   0  0  0  0  0  0  0  0  0  0  0  0
   -7.3360   16.7690  -32.8710 O   0  0  0  0  0  0  0  0  0  0  0  0
   -2.5890   17.8720  -33.4820 C   0  0  0  0  0  0  0  0  0  0  0  0
   -1.5450   18.4710  -32.7740 C   0  0  0  0  0  0  0  0  0  0  0  0
   -0.4000   19.7870  -28.4670 C   0  0  0  0  0  0  0  0  0  0  0  0
   -0.8350   19.0010  -27.3950 C   0  0  0  0  0  0  0  0  0  0  0  0
   -3.8001   18.2380  -24.2269 H   0  0  0  0  0  0  0  0  0  0  0  0
   -4.4179   19.1268  -25.6604 H   0  0  0  0  0  0  0  0  0  0  0  0
   -4.3905   17.3307  -25.6604 H   0  0  0  0  0  0  0  0  0  0  0  0
   -4.0821   20.0616  -27.2152 H   0  0  0  0  0  0  0  0  0  0  0  0
   -3.3107   21.4566  -29.1359 H   0  0  0  0  0  0  0  0  0  0  0  0
    0.4993   23.0620  -30.3399 H   0  0  0  0  0  0  0  0  0  0  0  0
   -1.2308   23.4458  -30.7178 H   0  0  0  0  0  0  0  0  0  0  0  0
   -2.7019   24.2429  -29.0567 H   0  0  0  0  0  0  0  0  0  0  0  0
   -3.0678   24.9742  -26.6997 H   0  0  0  0  0  0  0  0  0  0  0  0
   -1.3408   24.4983  -24.9578 H   0  0  0  0  0  0  0  0  0  0  0  0
    0.7608   23.3005  -25.5783 H   0  0  0  0  0  0  0  0  0  0  0  0
    1.1349   22.5707  -27.9363 H   0  0  0  0  0  0  0  0  0  0  0  0
   -2.7369   21.6732  -32.6392 H   0  0  0  0  0  0  0  0  0  0  0  0
   -4.6035   20.6086  -33.8973 H   0  0  0  0  0  0  0  0  0  0  0  0
   -6.4549   21.1243  -34.0259 H   0  0  0  0  0  0  0  0  0  0  0  0
   -5.0184   22.0316  -29.6292 H   0  0  0  0  0  0  0  0  0  0  0  0
   -5.4062   21.5569  -31.3392 H   0  0  0  0  0  0  0  0  0  0  0  0
   -3.2468   22.7536  -31.1818 H   0  0  0  0  0  0  0  0  0  0  0  0
   -4.4979   23.6625  -32.1526 H   0  0  0  0  0  0  0  0  0  0  0  0
   -5.2332   24.5382  -28.7111 H   0  0  0  0  0  0  0  0  0  0  0  0
   -5.1421   26.0469  -29.7431 H   0  0  0  0  0  0  0  0  0  0  0  0
   -7.3447   24.9616  -29.9335 H   0  0  0  0  0  0  0  0  0  0  0  0
   -6.4362   24.9473  -31.4941 H   0  0  0  0  0  0  0  0  0  0  0  0
   -8.6147   20.3793  -30.3481 H   0  0  0  0  0  0  0  0  0  0  0  0
   -8.4974   17.9276  -30.7732 H   0  0  0  0  0  0  0  0  0  0  0  0
   -6.8100   16.3890  -33.6490 H   0  0  0  0  0  0  0  0  0  0  0  0
   -2.5425   16.7992  -33.7205 H   0  0  0  0  0  0  0  0  0  0  0  0
   -0.6830   17.8676  -32.4532 H   0  0  0  0  0  0  0  0  0  0  0  0
    0.6430   19.7182  -28.8096 H   0  0  0  0  0  0  0  0  0  0  0  0
   -0.1312   18.3145  -26.9017 H   0  0  0  0  0  0  0  0  0  0  0  0
  1  2  1  0
  2  3  1  0
  3  4  2  0
  4  5  1  0
  5  6  2  0
  6  7  1  0
  7  8  1  0
  8  9  1  0
  9 10  2  0
 10 11  1  0
 11 12  2  0
 12 13  1  0
 13 14  2  0
  7 15  1  0
 15 16  2  0
 15 17  2  0
 15 18  1  0
 18 19  2  0
 19 20  1  0
 20 21  2  0
 21 22  1  0
 22 23  2  0
 22 24  1  0
 24 25  1  0
 25 26  2  0
 26 27  1  0
 27 28  1  0
 28 29  2  0
 28 30  2  0
 28 31  1  0
 31 32  1  0
 32 33  1  0
 33 34  1  0
 34 35  1  0
 35 36  1  0
 27 37  2  0
 37 38  1  0
 38 39  2  0
 39 40  1  0
 21 41  1  0
 41 42  2  0
  6 43  1  0
 43 44  2  0
 44  3  1  0
 14  9  1  0
 42 18  1  0
 39 25  1  0
 36 31  1  0
  1 45  1  0
  1 46  1  0
  1 47  1  0
  4 48  1  0
  5 49  1  0
  8 50  1  0
  8 51  1  0
 10 52  1  0
 11 53  1  0
 12 54  1  0
 13 55  1  0
 14 56  1  0
 19 57  1  0
 20 58  1  0
 26 59  1  0
 32 60  1  0
 32 61  1  0
 33 62  1  0
 33 63  1  0
 35 64  1  0
 35 65  1  0
 36 66  1  0
 36 67  1  0
 37 68  1  0
 38 69  1  0
 40 70  1  0
 41 71  1  0
 42 72  1  0
 43 73  1  0
 44 74  1  0
M  CHG  1  24  -1
M  END
>  <UniqueID>  (23) 
22

>  <SMILES>  (23) 
COc1ccc(N(Cc2ccccc2)S(=O)(=O)c2ccc(C(=O)[N-]c3cc(S(=O)(=O)N4CCOCC4)ccc3O)cc2)cc1

>  <Energy>  (23) 
100.37960582110769

>  <Genealogy>  (23) 
COc1ccc(N(Cc2ccccc2)S(=O)(=O)c2ccc(C(=O)[N-]c3cc(S(=O)(=O)N4CCOCC4)ccc3O)cc2)cc1 (protonated)
COc1ccc(N(Cc2ccccc2)S(=O)(=O)c2ccc(C(=O)[N-]c3cc(S(=O)(=O)N4CCOCC4)ccc3O)cc2)cc1 (3D coordinates assigned)
COc1ccc(N(Cc2ccccc2)S(=O)(=O)c2ccc(C(=O)[N-]c3cc(S(=O)(=O)N4CCOCC4)ccc3O)cc2)cc1 (nonaromatic ring conformer: 100.37960582110769 kcal/mol)

>  <smiles>  (23) 
COc1ccc(N(Cc2ccccc2)S(=O)(=O)c2ccc(C(=O)Nc3cc(S(=O)(=O)N4CCOCC4)ccc3O)cc2)cc1

>  <score_type>  (23) 
oracle

>  <origin>  (23) 
adgpu

>  <m_score__min__energy>  (23) 
-11.300000000000001

>  <m_primary>  (23) 
energy

$$$$
23:0
     RDKit          3D

 59 62  0  0  0  0  0  0  0  0999 V2000
   -5.7380   18.9000  -34.6120 C   0  0  0  0  0  0  0  0  0  0  0  0
   -5.2900   19.5000  -33.3600 N   0  0  0  0  0  0  0  0  0  0  0  0
   -3.9110   19.8570  -33.1820 C   0  0  0  0  0  0  0  0  0  0  0  0
   -3.4890   21.1770  -33.3980 C   0  0  0  0  0  0  0  0  0  0  0  0
   -2.1460   21.5250  -33.2240 C   0  0  0  0  0  0  0  0  0  0  0  0
   -1.2170   20.5560  -32.8330 C   0  0  0  0  0  0  0  0  0  0  0  0
   -1.6290   19.2390  -32.6190 C   0  0  0  0  0  0  0  0  0  0  0  0
   -2.9700   18.8880  -32.7950 C   0  0  0  0  0  0  0  0  0  0  0  0
   -6.4210   19.6950  -32.0560 S   0  0  0  0  0  0  0  0  0  0  0  0
   -5.9430   18.9070  -30.8680 O   0  0  0  0  0  0  0  0  0  0  0  0
   -7.7810   19.1920  -32.4540 O   0  0  0  0  0  0  0  0  0  0  0  0
   -6.5440   21.4070  -31.6660 C   0  0  0  0  0  0  0  0  0  0  0  0
   -7.7410   22.0830  -31.9160 C   0  0  0  0  0  0  0  0  0  0  0  0
   -7.8560   23.4410  -31.6210 C   0  0  0  0  0  0  0  0  0  0  0  0
   -6.7750   24.1350  -31.0740 C   0  0  0  0  0  0  0  0  0  0  0  0
   -5.5570   23.4740  -30.8240 C   0  0  0  0  0  0  0  0  0  0  0  0
   -4.3980   24.2140  -30.2730 C   0  0  0  0  0  0  0  0  0  0  0  0
   -3.9970   25.2680  -30.8400 O   0  0  0  0  0  0  0  0  0  0  0  0
   -3.7730   23.7660  -29.0610 N   0  0  0  0  0  0  0  0  0  0  0  0
   -2.8700   22.6620  -28.9060 C   0  0  0  0  0  0  0  0  0  0  0  0
   -1.7540   22.4770  -29.7440 C   0  0  0  0  0  0  0  0  0  0  0  0
   -0.9050   21.3840  -29.5550 C   0  0  0  0  0  0  0  0  0  0  0  0
   -1.1670   20.4530  -28.5410 C   0  0  0  0  0  0  0  0  0  0  0  0
   -0.0920   19.0720  -28.3030 S   0  0  0  0  0  0  0  0  0  0  0  0
   -0.7050   18.1390  -27.2970 O   0  0  0  0  0  0  0  0  0  0  0  0
    1.2180   19.5590  -27.7480 O   0  0  0  0  0  0  0  0  0  0  0  0
    0.1950   18.2050  -29.7910 N   0  0  0  0  0  0  0  0  0  0  0  0
    0.6170   16.8230  -29.5120 C   0  0  0  0  0  0  0  0  0  0  0  0
    1.0580   16.1180  -30.8130 C   0  0  0  0  0  0  0  0  0  0  0  0
    0.7320   16.8930  -31.9500 O   0  0  0  0  0  0  0  0  0  0  0  0
    1.4430   18.1190  -31.9180 C   0  0  0  0  0  0  0  0  0  0  0  0
    1.2120   18.8910  -30.6010 C   0  0  0  0  0  0  0  0  0  0  0  0
   -2.2930   20.6200  -27.7250 C   0  0  0  0  0  0  0  0  0  0  0  0
   -3.1410   21.7140  -27.9120 C   0  0  0  0  0  0  0  0  0  0  0  0
   -5.4540   22.1010  -31.1190 C   0  0  0  0  0  0  0  0  0  0  0  0
   -6.3831   18.0360  -34.3944 H   0  0  0  0  0  0  0  0  0  0  0  0
   -6.3040   19.6431  -35.1928 H   0  0  0  0  0  0  0  0  0  0  0  0
   -4.8647   18.5684  -35.1928 H   0  0  0  0  0  0  0  0  0  0  0  0
   -4.2176   21.9416  -33.7055 H   0  0  0  0  0  0  0  0  0  0  0  0
   -1.8202   22.5617  -33.3948 H   0  0  0  0  0  0  0  0  0  0  0  0
   -0.1611   20.8312  -32.6939 H   0  0  0  0  0  0  0  0  0  0  0  0
   -0.8973   18.4773  -32.3116 H   0  0  0  0  0  0  0  0  0  0  0  0
   -3.2903   17.8487  -32.6299 H   0  0  0  0  0  0  0  0  0  0  0  0
   -8.5960   21.5418  -32.3472 H   0  0  0  0  0  0  0  0  0  0  0  0
   -8.8013   23.9671  -31.8199 H   0  0  0  0  0  0  0  0  0  0  0  0
   -6.8754   25.2044  -30.8369 H   0  0  0  0  0  0  0  0  0  0  0  0
   -1.5497   23.1961  -30.5509 H   0  0  0  0  0  0  0  0  0  0  0  0
   -0.0271   21.2536  -30.2048 H   0  0  0  0  0  0  0  0  0  0  0  0
    1.4596   16.8377  -28.8050 H   0  0  0  0  0  0  0  0  0  0  0  0
   -0.2318   16.2727  -29.0798 H   0  0  0  0  0  0  0  0  0  0  0  0
    2.1465   15.9617  -30.7853 H   0  0  0  0  0  0  0  0  0  0  0  0
    0.5299   15.1557  -30.8841 H   0  0  0  0  0  0  0  0  0  0  0  0
    2.5177   17.9084  -32.0217 H   0  0  0  0  0  0  0  0  0  0  0  0
    1.0767   18.7443  -32.7455 H   0  0  0  0  0  0  0  0  0  0  0  0
    2.1551   18.9405  -30.0370 H   0  0  0  0  0  0  0  0  0  0  0  0
    0.8641   19.9083  -30.8336 H   0  0  0  0  0  0  0  0  0  0  0  0
   -2.5103   19.8870  -26.9341 H   0  0  0  0  0  0  0  0  0  0  0  0
   -4.0288   21.8317  -27.2733 H   0  0  0  0  0  0  0  0  0  0  0  0
   -4.5123   21.5687  -30.9192 H   0  0  0  0  0  0  0  0  0  0  0  0
  1  2  1  0
  2  3  1  0
  3  4  2  0
  4  5  1  0
  5  6  2  0
  6  7  1  0
  7  8  2  0
  2  9  1  0
  9 10  2  0
  9 11  2  0
  9 12  1  0
 12 13  2  0
 13 14  1  0
 14 15  2  0
 15 16  1  0
 16 17  1  0
 17 18  2  0
 17 19  1  0
 19 20  1  0
 20 21  2  0
 21 22  1  0
 22 23  2  0
 23 24  1  0
 24 25  2  0
 24 26  2  0
 24 27  1  0
 27 28  1  0
 28 29  1  0
 29 30  1  0
 30 31  1  0
 31 32  1  0
 23 33  1  0
 33 34  2  0
 16 35  2  0
  8  3  1  0
 35 12  1  0
 34 20  1  0
 32 27  1  0
  1 36  1  0
  1 37  1  0
  1 38  1  0
  4 39  1  0
  5 40  1  0
  6 41  1  0
  7 42  1  0
  8 43  1  0
 13 44  1  0
 14 45  1  0
 15 46  1  0
 21 47  1  0
 22 48  1  0
 28 49  1  0
 28 50  1  0
 29 51  1  0
 29 52  1  0
 31 53  1  0
 31 54  1  0
 32 55  1  0
 32 56  1  0
 33 57  1  0
 34 58  1  0
 35 59  1  0
M  CHG  1  19  -1
M  END
>  <UniqueID>  (24) 
23

>  <SMILES>  (24) 
CN(c1ccccc1)S(=O)(=O)c1cccc(C(=O)[N-]c2ccc(S(=O)(=O)N3CCOCC3)cc2)c1

>  <Energy>  (24) 
79.10249000871738

>  <Genealogy>  (24) 
CN(c1ccccc1)S(=O)(=O)c1cccc(C(=O)[N-]c2ccc(S(=O)(=O)N3CCOCC3)cc2)c1 (protonated)
CN(c1ccccc1)S(=O)(=O)c1cccc(C(=O)[N-]c2ccc(S(=O)(=O)N3CCOCC3)cc2)c1 (3D coordinates assigned)
CN(c1ccccc1)S(=O)(=O)c1cccc(C(=O)[N-]c2ccc(S(=O)(=O)N3CCOCC3)cc2)c1 (nonaromatic ring conformer: 79.10249000871738 kcal/mol)

>  <smiles>  (24) 
CN(c1ccccc1)S(=O)(=O)c1cccc(C(=O)Nc2ccc(S(=O)(=O)N3CCOCC3)cc2)c1

>  <score_type>  (24) 
oracle

>  <origin>  (24) 
adgpu

>  <m_score__min__energy>  (24) 
-12.01

>  <m_primary>  (24) 
energy

$$$$
24:0
     RDKit          3D

 48 51  0  0  0  0  0  0  0  0999 V2000
   -2.9210   24.5970  -27.0980 C   0  0  0  0  0  0  0  0  0  0  0  0
   -2.9580   24.2650  -28.5270 N   0  0  0  0  0  0  0  0  0  0  0  0
   -1.7530   23.7970  -29.1600 C   0  0  0  0  0  0  0  0  0  0  0  0
   -0.7100   24.5040  -29.0960 O   0  0  0  0  0  0  0  0  0  0  0  0
   -1.7200   22.5030  -29.8820 C   0  0  0  0  0  0  0  0  0  0  0  0
   -0.8660   21.4710  -29.4540 C   0  0  0  0  0  0  0  0  0  0  0  0
   -0.8260   20.2550  -30.1430 C   0  0  0  0  0  0  0  0  0  0  0  0
   -1.6420   20.0540  -31.2590 C   0  0  0  0  0  0  0  0  0  0  0  0
   -2.5110   21.0670  -31.6890 C   0  0  0  0  0  0  0  0  0  0  0  0
   -3.5600   20.7950  -33.0770 S   0  0  0  0  0  0  0  0  0  0  0  0
   -4.2310   22.0840  -33.4700 O   0  0  0  0  0  0  0  0  0  0  0  0
   -2.7520   20.3170  -34.2510 O   0  0  0  0  0  0  0  0  0  0  0  0
   -4.7790   19.6320  -32.6610 N   0  0  0  0  0  0  0  0  0  0  0  0
   -4.5670   18.1870  -32.7450 C   0  0  0  0  0  0  0  0  0  0  0  0
   -5.9520   17.5380  -32.5040 C   0  0  0  0  0  0  0  0  0  0  0  0
   -6.8620   18.7100  -32.3560 C   0  0  0  0  0  0  0  0  0  0  0  0
   -8.2430   18.7040  -32.1490 C   0  0  0  0  0  0  0  0  0  0  0  0
   -8.9100   19.9340  -32.0400 C   0  0  0  0  0  0  0  0  0  0  0  0
   -8.1910   21.1420  -32.1380 C   0  0  0  0  0  0  0  0  0  0  0  0
   -6.8010   21.1230  -32.3460 C   0  0  0  0  0  0  0  0  0  0  0  0
   -6.1600   19.8830  -32.4530 C   0  0  0  0  0  0  0  0  0  0  0  0
   -2.5530   22.2850  -30.9930 C   0  0  0  0  0  0  0  0  0  0  0  0
   -4.2170   24.1940  -29.2350 C   0  0  0  0  0  0  0  0  0  0  0  0
   -4.5960   25.1960  -30.1510 C   0  0  0  0  0  0  0  0  0  0  0  0
   -5.8070   25.1030  -30.8430 C   0  0  0  0  0  0  0  0  0  0  0  0
   -6.6540   24.0130  -30.6320 C   0  0  0  0  0  0  0  0  0  0  0  0
   -6.2920   23.0120  -29.7290 C   0  0  0  0  0  0  0  0  0  0  0  0
   -5.0810   23.0990  -29.0350 C   0  0  0  0  0  0  0  0  0  0  0  0
   -3.0236   23.6763  -26.5049 H   0  0  0  0  0  0  0  0  0  0  0  0
   -1.9632   25.0823  -26.8590 H   0  0  0  0  0  0  0  0  0  0  0  0
   -3.7484   25.2813  -26.8590 H   0  0  0  0  0  0  0  0  0  0  0  0
   -0.2258   21.6212  -28.5722 H   0  0  0  0  0  0  0  0  0  0  0  0
   -0.1506   19.4550  -29.8056 H   0  0  0  0  0  0  0  0  0  0  0  0
   -1.6027   19.0982  -31.8020 H   0  0  0  0  0  0  0  0  0  0  0  0
   -4.1848   17.9139  -33.7396 H   0  0  0  0  0  0  0  0  0  0  0  0
   -3.8274   17.8446  -32.0062 H   0  0  0  0  0  0  0  0  0  0  0  0
   -6.2490   16.9148  -33.3604 H   0  0  0  0  0  0  0  0  0  0  0  0
   -5.9669   16.8698  -31.6303 H   0  0  0  0  0  0  0  0  0  0  0  0
   -8.7959   17.7561  -32.0730 H   0  0  0  0  0  0  0  0  0  0  0  0
   -9.9977   19.9552  -31.8775 H   0  0  0  0  0  0  0  0  0  0  0  0
   -8.7193   22.1030  -32.0514 H   0  0  0  0  0  0  0  0  0  0  0  0
   -6.2304   22.0603  -32.4229 H   0  0  0  0  0  0  0  0  0  0  0  0
   -3.2439   23.0761  -31.3198 H   0  0  0  0  0  0  0  0  0  0  0  0
   -3.9339   26.0575  -30.3226 H   0  0  0  0  0  0  0  0  0  0  0  0
   -6.0935   25.8905  -31.5556 H   0  0  0  0  0  0  0  0  0  0  0  0
   -7.6067   23.9432  -31.1775 H   0  0  0  0  0  0  0  0  0  0  0  0
   -6.9599   22.1539  -29.5631 H   0  0  0  0  0  0  0  0  0  0  0  0
   -4.8004   22.3056  -28.3267 H   0  0  0  0  0  0  0  0  0  0  0  0
  1  2  1  0
  2  3  1  0
  3  4  2  0
  3  5  1  0
  5  6  2  0
  6  7  1  0
  7  8  2  0
  8  9  1  0
  9 10  1  0
 10 11  2  0
 10 12  2  0
 10 13  1  0
 13 14  1  0
 14 15  1  0
 15 16  1  0
 16 17  2  0
 17 18  1  0
 18 19  2  0
 19 20  1  0
 20 21  2  0
  9 22  2  0
  2 23  1  0
 23 24  2  0
 24 25  1  0
 25 26  2  0
 26 27  1  0
 27 28  2  0
 22  5  1  0
 28 23  1  0
 21 13  1  0
 21 16  1  0
  1 29  1  0
  1 30  1  0
  1 31  1  0
  6 32  1  0
  7 33  1  0
  8 34  1  0
 14 35  1  0
 14 36  1  0
 15 37  1  0
 15 38  1  0
 17 39  1  0
 18 40  1  0
 19 41  1  0
 20 42  1  0
 22 43  1  0
 24 44  1  0
 25 45  1  0
 26 46  1  0
 27 47  1  0
 28 48  1  0
M  END
>  <UniqueID>  (25) 
24

>  <SMILES>  (25) 
CN(C(=O)c1cccc(S(=O)(=O)N2CCc3ccccc32)c1)c1ccccc1

>  <Energy>  (25) 
77.76269883774579

>  <Genealogy>  (25) 
CN(C(=O)c1cccc(S(=O)(=O)N2CCc3ccccc32)c1)c1ccccc1 (3D coordinates assigned)
CN(C(=O)c1cccc(S(=O)(=O)N2CCc3ccccc32)c1)c1ccccc1 (nonaromatic ring conformer: 77.76269883774579 kcal/mol)

>  <smiles>  (25) 
CN(C(=O)c1cccc(S(=O)(=O)N2CCc3ccccc32)c1)c1ccccc1

>  <score_type>  (25) 
oracle

>  <origin>  (25) 
adgpu

>  <m_score__min__energy>  (25) 
-9.7799999999999994

>  <m_primary>  (25) 
energy

$$$$
25:0
     RDKit          3D

 38 41  0  0  0  0  0  0  0  0999 V2000
   -3.2750   12.0520  -34.5620 N   0  0  0  0  0  0  0  0  0  0  0  0
   -3.5090   12.8890  -33.4310 C   0  0  0  0  0  0  0  0  0  0  0  0
   -2.8390   12.7040  -32.3800 O   0  0  0  0  0  0  0  0  0  0  0  0
   -4.5280   13.9630  -33.4880 C   0  0  0  0  0  0  0  0  0  0  0  0
   -5.7580   13.7560  -34.1700 C   0  0  0  0  0  0  0  0  0  0  0  0
   -6.7300   14.7730  -34.2270 C   0  0  0  0  0  0  0  0  0  0  0  0
   -6.4430   15.9800  -33.5980 C   0  0  0  0  0  0  0  0  0  0  0  0
   -7.2140   17.0730  -33.5280 N   0  0  0  0  0  0  0  0  0  0  0  0
   -6.4480   17.9350  -32.8050 C   0  0  0  0  0  0  0  0  0  0  0  0
   -6.8870   19.3050  -32.4590 C   0  0  0  0  0  0  0  0  0  0  0  0
   -8.2230   19.6950  -32.6530 C   0  0  0  0  0  0  0  0  0  0  0  0
   -8.6350   20.9890  -32.3300 C   0  0  0  0  0  0  0  0  0  0  0  0
   -7.7220   21.9090  -31.8110 C   0  0  0  0  0  0  0  0  0  0  0  0
   -6.3810   21.5420  -31.6070 C   0  0  0  0  0  0  0  0  0  0  0  0
   -5.4100   22.5210  -31.0530 C   0  0  0  0  0  0  0  0  0  0  0  0
   -5.8590   23.7080  -30.4440 C   0  0  0  0  0  0  0  0  0  0  0  0
   -4.9440   24.6270  -29.9250 C   0  0  0  0  0  0  0  0  0  0  0  0
   -3.5720   24.3750  -30.0040 C   0  0  0  0  0  0  0  0  0  0  0  0
   -2.6690   25.2970  -29.4840 O   0  0  0  0  0  0  0  0  0  0  0  0
   -3.1080   23.1990  -30.6050 C   0  0  0  0  0  0  0  0  0  0  0  0
   -1.7390   22.9530  -30.6770 O   0  0  0  0  0  0  0  0  0  0  0  0
   -4.0250   22.2760  -31.1280 C   0  0  0  0  0  0  0  0  0  0  0  0
   -5.9720   20.2370  -31.9350 C   0  0  0  0  0  0  0  0  0  0  0  0
   -5.2440   17.4260  -32.4270 N   0  0  0  0  0  0  0  0  0  0  0  0
   -5.2710   16.1900  -32.9430 C   0  0  0  0  0  0  0  0  0  0  0  0
   -4.2840   15.2110  -32.8620 C   0  0  0  0  0  0  0  0  0  0  0  0
   -4.0710   11.6260  -35.0880 H   0  0  0  0  0  0  0  0  0  0  0  0
   -5.9526   12.7900  -34.6589 H   0  0  0  0  0  0  0  0  0  0  0  0
   -7.6845   14.6182  -34.7514 H   0  0  0  0  0  0  0  0  0  0  0  0
   -8.9485   18.9763  -33.0618 H   0  0  0  0  0  0  0  0  0  0  0  0
   -9.6830   21.2850  -32.4850 H   0  0  0  0  0  0  0  0  0  0  0  0
   -8.0544   22.9272  -31.5603 H   0  0  0  0  0  0  0  0  0  0  0  0
   -6.9376   23.9132  -30.3764 H   0  0  0  0  0  0  0  0  0  0  0  0
   -5.3049   25.5524  -29.4524 H   0  0  0  0  0  0  0  0  0  0  0  0
   -1.0600   23.6380  -30.3640 H   0  0  0  0  0  0  0  0  0  0  0  0
   -3.6595   21.3526  -31.6010 H   0  0  0  0  0  0  0  0  0  0  0  0
   -4.9239   19.9411  -31.7800 H   0  0  0  0  0  0  0  0  0  0  0  0
   -3.3416   15.4009  -32.3273 H   0  0  0  0  0  0  0  0  0  0  0  0
  1  2  1  0
  2  3  2  0
  2  4  1  0
  4  5  2  0
  5  6  1  0
  6  7  2  0
  7  8  1  0
  8  9  1  0
  9 10  1  0
 10 11  2  0
 11 12  1  0
 12 13  2  0
 13 14  1  0
 14 15  1  0
 15 16  2  0
 16 17  1  0
 17 18  2  0
 18 19  1  0
 18 20  1  0
 20 21  1  0
 20 22  2  0
 14 23  2  0
  9 24  2  0
 24 25  1  0
 25 26  2  0
 26  4  1  0
 25  7  1  0
 23 10  1  0
 22 15  1  0
  1 27  1  0
  5 28  1  0
  6 29  1  0
 11 30  1  0
 12 31  1  0
 13 32  1  0
 16 33  1  0
 17 34  1  0
 21 35  1  0
 22 36  1  0
 23 37  1  0
 26 38  1  0
M  CHG  3   1  -1   8  -1  19  -1
M  END
>  <UniqueID>  (26) 
25

>  <SMILES>  (26) 
[NH-]C(=O)c1ccc2[n-]c(-c3cccc(-c4ccc([O-])c(O)c4)c3)nc2c1

>  <Energy>  (26) 
83.79252096702221

>  <Genealogy>  (26) 
[NH-]C(=O)c1ccc2[n-]c(-c3cccc(-c4ccc([O-])c(O)c4)c3)nc2c1 (protonated)
[NH-]C(=O)c1ccc2[n-]c(-c3cccc(-c4ccc([O-])c(O)c4)c3)nc2c1 (3D coordinates assigned)
[NH-]C(=O)c1ccc2[n-]c(-c3cccc(-c4ccc([O-])c(O)c4)c3)nc2c1 (optimized conformer: 83.79252096702221 kcal/mol)

>  <smiles>  (26) 
NC(=O)c1ccc2[nH]c(-c3cccc(-c4ccc(O)c(O)c4)c3)nc2c1

>  <score_type>  (26) 
oracle

>  <origin>  (26) 
adgpu

>  <m_score__min__energy>  (26) 
-11.050000000000001

>  <m_primary>  (26) 
energy

$$$$
26:0
     RDKit          3D

 54 56  0  0  0  0  0  0  0  0999 V2000
   -2.7680   20.9940  -28.0900 C   0  0  0  0  0  0  0  0  0  0  0  0
   -2.3670   22.2420  -28.6450 O   0  0  0  0  0  0  0  0  0  0  0  0
   -1.9390   23.3500  -27.8990 C   0  0  0  0  0  0  0  0  0  0  0  0
   -1.3320   23.1900  -26.6360 C   0  0  0  0  0  0  0  0  0  0  0  0
   -0.8580   24.2970  -25.9300 C   0  0  0  0  0  0  0  0  0  0  0  0
   -0.9770   25.5760  -26.4720 C   0  0  0  0  0  0  0  0  0  0  0  0
   -1.5830   25.7520  -27.7170 C   0  0  0  0  0  0  0  0  0  0  0  0
   -2.0890   24.6560  -28.4290 C   0  0  0  0  0  0  0  0  0  0  0  0
   -2.7170   24.9230  -29.6920 N   0  0  0  0  0  0  0  0  0  0  0  0
   -4.2100   24.2560  -30.2730 S   0  0  0  0  0  0  0  0  0  0  0  0
   -4.9190   25.2680  -31.1300 O   0  0  0  0  0  0  0  0  0  0  0  0
   -5.0660   23.8860  -29.0940 O   0  0  0  0  0  0  0  0  0  0  0  0
   -3.8650   22.8280  -31.2560 C   0  0  0  0  0  0  0  0  0  0  0  0
   -2.5280   22.4630  -31.4690 C   0  0  0  0  0  0  0  0  0  0  0  0
   -2.2010   21.3350  -32.2360 C   0  0  0  0  0  0  0  0  0  0  0  0
   -0.8190   20.9730  -32.4080 N   0  0  0  0  0  0  0  0  0  0  0  0
   -0.0970   21.1430  -33.6410 C   0  0  0  0  0  0  0  0  0  0  0  0
   -0.5290   21.9510  -34.5090 O   0  0  0  0  0  0  0  0  0  0  0  0
    1.1300   20.4250  -33.8860 N   0  0  0  0  0  0  0  0  0  0  0  0
    1.6030   19.4100  -32.9390 C   0  0  0  0  0  0  0  0  0  0  0  0
    1.8810   20.6890  -35.1170 C   0  0  0  0  0  0  0  0  0  0  0  0
   -3.2340   20.5490  -32.7700 C   0  0  0  0  0  0  0  0  0  0  0  0
   -4.5670   20.9100  -32.5740 C   0  0  0  0  0  0  0  0  0  0  0  0
   -4.8950   22.0510  -31.8300 C   0  0  0  0  0  0  0  0  0  0  0  0
   -6.2750   22.4030  -31.6660 N   0  0  0  0  0  0  0  0  0  0  0  0
   -6.9220   23.4250  -32.4660 C   0  0  0  0  0  0  0  0  0  0  0  0
   -8.3790   23.4160  -32.0280 C   0  0  0  0  0  0  0  0  0  0  0  0
   -8.5970   22.0720  -31.3320 C   0  0  0  0  0  0  0  0  0  0  0  0
   -7.2150   21.5790  -30.9270 C   0  0  0  0  0  0  0  0  0  0  0  0
   -2.7476   21.0575  -26.9920 H   0  0  0  0  0  0  0  0  0  0  0  0
   -3.7882   20.7548  -28.4246 H   0  0  0  0  0  0  0  0  0  0  0  0
   -2.0780   20.2053  -28.4246 H   0  0  0  0  0  0  0  0  0  0  0  0
   -1.2312   22.1837  -26.2033 H   0  0  0  0  0  0  0  0  0  0  0  0
   -0.3897   24.1600  -24.9441 H   0  0  0  0  0  0  0  0  0  0  0  0
   -0.5935   26.4460  -25.9188 H   0  0  0  0  0  0  0  0  0  0  0  0
   -1.6644   26.7624  -28.1442 H   0  0  0  0  0  0  0  0  0  0  0  0
   -1.7237   23.0702  -31.0281 H   0  0  0  0  0  0  0  0  0  0  0  0
   -0.2940   20.6630  -31.5610 H   0  0  0  0  0  0  0  0  0  0  0  0
    1.4384   19.7632  -31.9103 H   0  0  0  0  0  0  0  0  0  0  0  0
    1.0486   18.4733  -33.0982 H   0  0  0  0  0  0  0  0  0  0  0  0
    2.6768   19.2321  -33.0982 H   0  0  0  0  0  0  0  0  0  0  0  0
    2.8904   21.0438  -34.8617 H   0  0  0  0  0  0  0  0  0  0  0  0
    1.9559   19.7633  -35.7065 H   0  0  0  0  0  0  0  0  0  0  0  0
    1.3602   21.4579  -35.7065 H   0  0  0  0  0  0  0  0  0  0  0  0
   -2.9911   19.6438  -33.3459 H   0  0  0  0  0  0  0  0  0  0  0  0
   -5.3680   20.2932  -33.0075 H   0  0  0  0  0  0  0  0  0  0  0  0
   -6.4683   24.4086  -32.2746 H   0  0  0  0  0  0  0  0  0  0  0  0
   -6.8167   23.2299  -33.5434 H   0  0  0  0  0  0  0  0  0  0  0  0
   -8.5745   24.2443  -31.3311 H   0  0  0  0  0  0  0  0  0  0  0  0
   -9.0593   23.5441  -32.8828 H   0  0  0  0  0  0  0  0  0  0  0  0
   -9.2323   22.2006  -30.4433 H   0  0  0  0  0  0  0  0  0  0  0  0
   -9.1027   21.3534  -31.9937 H   0  0  0  0  0  0  0  0  0  0  0  0
   -7.0653   21.7024  -29.8442 H   0  0  0  0  0  0  0  0  0  0  0  0
   -7.0824   20.5100  -31.1500 H   0  0  0  0  0  0  0  0  0  0  0  0
  1  2  1  0
  2  3  1  0
  3  4  2  0
  4  5  1  0
  5  6  2  0
  6  7  1  0
  7  8  2  0
  8  9  1  0
  9 10  1  0
 10 11  2  0
 10 12  2  0
 10 13  1  0
 13 14  2  0
 14 15  1  0
 15 16  1  0
 16 17  1  0
 17 18  2  0
 17 19  1  0
 19 20  1  0
 19 21  1  0
 15 22  2  0
 22 23  1  0
 23 24  2  0
 24 25  1  0
 25 26  1  0
 26 27  1  0
 27 28  1  0
 28 29  1  0
  8  3  1  0
 24 13  1  0
 29 25  1  0
  1 30  1  0
  1 31  1  0
  1 32  1  0
  4 33  1  0
  5 34  1  0
  6 35  1  0
  7 36  1  0
 14 37  1  0
 16 38  1  0
 20 39  1  0
 20 40  1  0
 20 41  1  0
 21 42  1  0
 21 43  1  0
 21 44  1  0
 22 45  1  0
 23 46  1  0
 26 47  1  0
 26 48  1  0
 27 49  1  0
 27 50  1  0
 28 51  1  0
 28 52  1  0
 29 53  1  0
 29 54  1  0
M  CHG  1   9  -1
M  END
>  <UniqueID>  (27) 
26

>  <SMILES>  (27) 
COc1ccccc1[N-]S(=O)(=O)c1cc(NC(=O)N(C)C)ccc1N1CCCC1

>  <Energy>  (27) 
68.91680632923205

>  <Genealogy>  (27) 
COc1ccccc1[N-]S(=O)(=O)c1cc(NC(=O)N(C)C)ccc1N1CCCC1 (protonated)
COc1ccccc1[N-]S(=O)(=O)c1cc(NC(=O)N(C)C)ccc1N1CCCC1 (3D coordinates assigned)
COc1ccccc1[N-]S(=O)(=O)c1cc(NC(=O)N(C)C)ccc1N1CCCC1 (nonaromatic ring conformer: 68.91680632923205 kcal/mol)

>  <smiles>  (27) 
COc1ccccc1NS(=O)(=O)c1cc(NC(=O)N(C)C)ccc1N1CCCC1

>  <score_type>  (27) 
oracle

>  <origin>  (27) 
adgpu

>  <m_score__min__energy>  (27) 
-10.49

>  <m_primary>  (27) 
energy

$$$$
27:0
     RDKit          3D

 51 54  0  0  0  0  0  0  0  0999 V2000
   -0.7310   28.4470  -26.4570 C   0  0  0  0  0  0  0  0  0  0  0  0
    0.1280   27.5960  -27.0160 C   0  0  0  0  0  0  0  0  0  0  0  0
   -0.3140   26.4230  -27.7980 C   0  0  0  0  0  0  0  0  0  0  0  0
   -1.3840   26.4730  -28.4610 O   0  0  0  0  0  0  0  0  0  0  0  0
    0.4920   25.2400  -27.8820 N   0  0  0  0  0  0  0  0  0  0  0  0
    0.0490   23.9370  -28.2830 C   0  0  0  0  0  0  0  0  0  0  0  0
    0.5970   22.7690  -27.7250 C   0  0  0  0  0  0  0  0  0  0  0  0
    0.1050   21.5160  -28.0940 C   0  0  0  0  0  0  0  0  0  0  0  0
   -0.9380   21.4160  -29.0180 C   0  0  0  0  0  0  0  0  0  0  0  0
   -1.4920   22.5680  -29.5890 C   0  0  0  0  0  0  0  0  0  0  0  0
   -2.5940   22.4250  -30.5010 N   0  0  0  0  0  0  0  0  0  0  0  0
   -3.5980   23.2400  -30.6480 C   0  0  0  0  0  0  0  0  0  0  0  0
   -4.5840   22.9230  -31.5280 N   0  0  0  0  0  0  0  0  0  0  0  0
   -5.6390   23.7540  -31.7440 C   0  0  0  0  0  0  0  0  0  0  0  0
   -6.6890   23.3850  -32.6550 N   0  0  0  0  0  0  0  0  0  0  0  0
   -7.6240   22.3210  -32.4150 C   0  0  0  0  0  0  0  0  0  0  0  0
   -8.8860   22.5700  -31.8480 C   0  0  0  0  0  0  0  0  0  0  0  0
   -9.7760   21.5180  -31.6210 C   0  0  0  0  0  0  0  0  0  0  0  0
   -9.4090   20.2080  -31.9340 C   0  0  0  0  0  0  0  0  0  0  0  0
   -8.1360   19.9320  -32.4550 C   0  0  0  0  0  0  0  0  0  0  0  0
   -7.7860   18.5770  -32.7780 N   0  0  0  0  0  0  0  0  0  0  0  0
   -6.7020   17.8590  -32.1660 C   0  0  0  0  0  0  0  0  0  0  0  0
   -6.1680   18.2830  -31.1060 O   0  0  0  0  0  0  0  0  0  0  0  0
   -6.2630   16.5440  -32.7350 C   0  0  0  0  0  0  0  0  0  0  0  0
   -5.1310   16.6350  -33.7470 C   0  0  0  0  0  0  0  0  0  0  0  0
   -6.5510   16.3690  -34.2180 C   0  0  0  0  0  0  0  0  0  0  0  0
   -7.2520   20.9990  -32.7030 C   0  0  0  0  0  0  0  0  0  0  0  0
   -5.7200   24.9570  -31.0350 C   0  0  0  0  0  0  0  0  0  0  0  0
   -4.6970   25.2760  -30.1430 C   0  0  0  0  0  0  0  0  0  0  0  0
   -3.6580   24.4190  -29.9700 N   0  0  0  0  0  0  0  0  0  0  0  0
   -1.0150   23.8320  -29.1880 C   0  0  0  0  0  0  0  0  0  0  0  0
   -0.3576   29.3077  -25.8828 H   0  0  0  0  0  0  0  0  0  0  0  0
   -1.8138   28.2890  -26.5696 H   0  0  0  0  0  0  0  0  0  0  0  0
    1.2064   27.7732  -26.8907 H   0  0  0  0  0  0  0  0  0  0  0  0
    1.4165   22.8427  -26.9949 H   0  0  0  0  0  0  0  0  0  0  0  0
    0.5395   20.6052  -27.6562 H   0  0  0  0  0  0  0  0  0  0  0  0
   -1.3264   20.4259  -29.2987 H   0  0  0  0  0  0  0  0  0  0  0  0
   -6.8330   23.9810  -33.5030 H   0  0  0  0  0  0  0  0  0  0  0  0
   -9.1737   23.5978  -31.5820 H   0  0  0  0  0  0  0  0  0  0  0  0
  -10.7691   21.7222  -31.1943 H   0  0  0  0  0  0  0  0  0  0  0  0
  -10.1226   19.3869  -31.7711 H   0  0  0  0  0  0  0  0  0  0  0  0
   -8.3980   18.0530  -33.4430 H   0  0  0  0  0  0  0  0  0  0  0  0
   -6.4515   15.9520  -31.8273 H   0  0  0  0  0  0  0  0  0  0  0  0
   -4.6554   17.6049  -33.9544 H   0  0  0  0  0  0  0  0  0  0  0  0
   -4.1615   16.1318  -33.8767 H   0  0  0  0  0  0  0  0  0  0  0  0
   -7.1032   17.1464  -34.7664 H   0  0  0  0  0  0  0  0  0  0  0  0
   -7.0348   15.5935  -34.8299 H   0  0  0  0  0  0  0  0  0  0  0  0
   -6.2581   20.7941  -33.1275 H   0  0  0  0  0  0  0  0  0  0  0  0
   -6.5727   25.6370  -31.1781 H   0  0  0  0  0  0  0  0  0  0  0  0
   -4.7315   26.2205  -29.5802 H   0  0  0  0  0  0  0  0  0  0  0  0
   -1.4821   24.7436  -29.5890 H   0  0  0  0  0  0  0  0  0  0  0  0
  1  2  2  0
  2  3  1  0
  3  4  2  0
  3  5  1  0
  5  6  1  0
  6  7  2  0
  7  8  1  0
  8  9  2  0
  9 10  1  0
 10 11  1  0
 11 12  2  3
 12 13  1  0
 13 14  2  0
 14 15  1  0
 15 16  1  0
 16 17  2  0
 17 18  1  0
 18 19  2  0
 19 20  1  0
 20 21  1  0
 21 22  1  0
 22 23  2  0
 22 24  1  0
 24 25  1  0
 25 26  1  0
 20 27  2  0
 14 28  1  0
 28 29  2  0
 29 30  1  0
 10 31  2  0
 31  6  1  0
 30 12  1  0
 27 16  1  0
 26 24  1  0
  1 32  1  0
  1 33  1  0
  2 34  1  0
  7 35  1  0
  8 36  1  0
  9 37  1  0
 15 38  1  0
 17 39  1  0
 18 40  1  0
 19 41  1  0
 21 42  1  0
 24 43  1  0
 25 44  1  0
 25 45  1  0
 26 46  1  0
 26 47  1  0
 27 48  1  0
 28 49  1  0
 29 50  1  0
 31 51  1  0
M  CHG  2   5  -1  30  -1
M  END
>  <UniqueID>  (28) 
27

>  <SMILES>  (28) 
C=CC(=O)[N-]c1cccc(N=c2nc(Nc3cccc(NC(=O)C4CC4)c3)cc[n-]2)c1

>  <Energy>  (28) 
334.34678401362646

>  <Genealogy>  (28) 
C=CC(=O)[N-]c1cccc(N=c2nc(Nc3cccc(NC(=O)C4CC4)c3)cc[n-]2)c1 (protonated)
C=CC(=O)[N-]c1cccc(N=c2nc(Nc3cccc(NC(=O)C4CC4)c3)cc[n-]2)c1 (3D coordinates assigned)
C=CC(=O)[N-]c1cccc(N=c2nc(Nc3cccc(NC(=O)C4CC4)c3)cc[n-]2)c1 (nonaromatic ring conformer: 334.34678401362646 kcal/mol)

>  <smiles>  (28) 
C=CC(=O)Nc1cccc(N=c2nc(Nc3cccc(NC(=O)C4CC4)c3)cc[nH]2)c1

>  <score_type>  (28) 
oracle

>  <origin>  (28) 
adgpu

>  <m_score__min__energy>  (28) 
-11.48

>  <m_primary>  (28) 
energy

$$$$
28:0
     RDKit          3D

 36 38  0  0  0  0  0  0  0  0999 V2000
    0.1330   24.6330  -26.9460 C   0  0  0  0  0  0  0  0  0  0  0  0
    0.2270   24.4910  -28.3590 O   0  0  0  0  0  0  0  0  0  0  0  0
   -0.7530   23.8190  -29.0930 C   0  0  0  0  0  0  0  0  0  0  0  0
   -0.4600   22.5530  -29.6060 C   0  0  0  0  0  0  0  0  0  0  0  0
   -1.4080   21.8600  -30.3590 C   0  0  0  0  0  0  0  0  0  0  0  0
   -2.6710   22.4190  -30.5960 C   0  0  0  0  0  0  0  0  0  0  0  0
   -3.6360   21.6560  -31.4120 C   0  0  0  0  0  0  0  0  0  0  0  0
   -4.9190   21.4730  -31.0420 N   0  0  0  0  0  0  0  0  0  0  0  0
   -5.4220   20.7710  -32.0850 C   0  0  0  0  0  0  0  0  0  0  0  0
   -6.8210   20.2990  -32.1580 C   0  0  0  0  0  0  0  0  0  0  0  0
   -7.8870   21.2150  -32.0930 C   0  0  0  0  0  0  0  0  0  0  0  0
   -9.2110   20.7660  -32.1530 C   0  0  0  0  0  0  0  0  0  0  0  0
   -9.4830   19.4010  -32.2730 C   0  0  0  0  0  0  0  0  0  0  0  0
   -8.4320   18.4830  -32.3480 C   0  0  0  0  0  0  0  0  0  0  0  0
   -7.1070   18.9270  -32.2900 C   0  0  0  0  0  0  0  0  0  0  0  0
   -4.5050   20.5530  -33.0510 N   0  0  0  0  0  0  0  0  0  0  0  0
   -3.3900   21.1140  -32.6240 N   0  0  0  0  0  0  0  0  0  0  0  0
   -2.1740   21.1920  -33.4290 C   0  0  0  0  0  0  0  0  0  0  0  0
   -2.9700   23.7030  -30.0930 C   0  0  0  0  0  0  0  0  0  0  0  0
   -4.6360   24.5720  -30.5000 Br  0  0  0  0  0  0  0  0  0  0  0  0
   -2.0220   24.3880  -29.3130 C   0  0  0  0  0  0  0  0  0  0  0  0
   -2.3620   25.6210  -28.7560 O   0  0  0  0  0  0  0  0  0  0  0  0
    0.6771   23.8110  -26.4579 H   0  0  0  0  0  0  0  0  0  0  0  0
    0.5735   25.5946  -26.6440 H   0  0  0  0  0  0  0  0  0  0  0  0
   -0.9243   24.6031  -26.6440 H   0  0  0  0  0  0  0  0  0  0  0  0
    0.5240   22.1000  -29.4150 H   0  0  0  0  0  0  0  0  0  0  0  0
   -1.1628   20.8692  -30.7690 H   0  0  0  0  0  0  0  0  0  0  0  0
   -7.6784   22.2905  -31.9944 H   0  0  0  0  0  0  0  0  0  0  0  0
  -10.0388   21.4889  -32.1056 H   0  0  0  0  0  0  0  0  0  0  0  0
  -10.5245   19.0488  -32.3085 H   0  0  0  0  0  0  0  0  0  0  0  0
   -8.6472   17.4094  -32.4528 H   0  0  0  0  0  0  0  0  0  0  0  0
   -6.2836   18.1999  -32.3479 H   0  0  0  0  0  0  0  0  0  0  0  0
   -1.2982   21.2482  -32.7658 H   0  0  0  0  0  0  0  0  0  0  0  0
   -2.0964   20.2970  -34.0638 H   0  0  0  0  0  0  0  0  0  0  0  0
   -2.2114   22.0896  -34.0638 H   0  0  0  0  0  0  0  0  0  0  0  0
   -3.0740   25.7190  -28.0430 H   0  0  0  0  0  0  0  0  0  0  0  0
  1  2  1  0
  2  3  1  0
  3  4  2  0
  4  5  1  0
  5  6  2  0
  6  7  1  0
  7  8  2  0
  8  9  1  0
  9 10  1  0
 10 11  2  0
 11 12  1  0
 12 13  2  0
 13 14  1  0
 14 15  2  0
  9 16  2  0
 16 17  1  0
 17 18  1  0
  6 19  1  0
 19 20  1  0
 19 21  2  0
 21 22  1  0
 21  3  1  0
 17  7  1  0
 15 10  1  0
  1 23  1  0
  1 24  1  0
  1 25  1  0
  4 26  1  0
  5 27  1  0
 11 28  1  0
 12 29  1  0
 13 30  1  0
 14 31  1  0
 15 32  1  0
 18 33  1  0
 18 34  1  0
 18 35  1  0
 22 36  1  0
M  END
>  <UniqueID>  (29) 
28

>  <SMILES>  (29) 
COc1ccc(-c2nc(-c3ccccc3)nn2C)c(Br)c1O

>  <Energy>  (29) 
86.31567097562257

>  <Genealogy>  (29) 
COc1ccc(-c2nc(-c3ccccc3)nn2C)c(Br)c1O (3D coordinates assigned)
COc1ccc(-c2nc(-c3ccccc3)nn2C)c(Br)c1O (optimized conformer: 86.31567097562257 kcal/mol)

>  <smiles>  (29) 
COc1ccc(-c2nc(-c3ccccc3)nn2C)c(Br)c1O

>  <score_type>  (29) 
oracle

>  <origin>  (29) 
adgpu

>  <m_score__min__energy>  (29) 
-8.3399999999999999

>  <m_primary>  (29) 
energy

$$$$
29:0
     RDKit          3D

 49 51  0  0  0  0  0  0  0  0999 V2000
   -6.8380   18.7410  -31.6410 N   0  0  0  0  0  0  0  0  0  0  0  0
   -7.6530   20.0880  -32.3540 S   0  0  0  0  0  0  0  0  0  0  0  0
   -9.1190   20.0140  -32.0280 O   0  0  0  0  0  0  0  0  0  0  0  0
   -7.4900   20.0400  -33.8480 O   0  0  0  0  0  0  0  0  0  0  0  0
   -6.9760   21.5870  -31.7270 C   0  0  0  0  0  0  0  0  0  0  0  0
   -7.4120   22.0990  -30.4980 C   0  0  0  0  0  0  0  0  0  0  0  0
   -6.8680   23.2860  -29.9950 C   0  0  0  0  0  0  0  0  0  0  0  0
   -5.8850   23.9770  -30.7230 C   0  0  0  0  0  0  0  0  0  0  0  0
   -5.2780   25.2320  -30.1690 C   0  0  0  0  0  0  0  0  0  0  0  0
   -3.8740   25.3010  -30.5620 N   0  0  0  0  0  0  0  0  0  0  0  0
   -2.8770   24.6370  -29.3050 S   0  0  0  0  0  0  0  0  0  0  0  0
   -3.7080   24.4050  -28.0740 O   0  0  0  0  0  0  0  0  0  0  0  0
   -1.7850   25.6140  -28.9720 O   0  0  0  0  0  0  0  0  0  0  0  0
   -2.1470   23.1290  -29.8510 C   0  0  0  0  0  0  0  0  0  0  0  0
   -1.0580   22.5720  -29.1670 C   0  0  0  0  0  0  0  0  0  0  0  0
   -0.5010   21.3690  -29.6040 C   0  0  0  0  0  0  0  0  0  0  0  0
   -1.0290   20.7110  -30.7180 C   0  0  0  0  0  0  0  0  0  0  0  0
   -2.1310   21.2500  -31.4070 C   0  0  0  0  0  0  0  0  0  0  0  0
   -2.6960   20.5690  -32.5960 C   0  0  0  0  0  0  0  0  0  0  0  0
   -3.2910   21.2510  -33.4750 O   0  0  0  0  0  0  0  0  0  0  0  0
   -2.5860   19.1450  -32.7580 N   0  0  0  0  0  0  0  0  0  0  0  0
   -2.8920   18.4780  -34.0220 C   0  0  0  0  0  0  0  0  0  0  0  0
   -4.1730   17.6990  -33.8980 C   0  0  0  0  0  0  0  0  0  0  0  0
   -5.2820   18.0370  -34.6880 C   0  0  0  0  0  0  0  0  0  0  0  0
   -6.4730   17.3220  -34.5430 C   0  0  0  0  0  0  0  0  0  0  0  0
   -6.5570   16.3090  -33.6400 N   0  0  0  0  0  0  0  0  0  0  0  0
   -5.5000   15.9640  -32.8570 C   0  0  0  0  0  0  0  0  0  0  0  0
   -4.2890   16.6530  -32.9680 C   0  0  0  0  0  0  0  0  0  0  0  0
   -2.6780   22.4690  -30.9660 C   0  0  0  0  0  0  0  0  0  0  0  0
   -5.4310   23.4470  -31.9400 C   0  0  0  0  0  0  0  0  0  0  0  0
   -5.9760   22.2610  -32.4410 C   0  0  0  0  0  0  0  0  0  0  0  0
   -6.9370   17.9400  -32.3040 H   0  0  0  0  0  0  0  0  0  0  0  0
   -8.1854   21.5655  -29.9259 H   0  0  0  0  0  0  0  0  0  0  0  0
   -7.2110   23.6793  -29.0267 H   0  0  0  0  0  0  0  0  0  0  0  0
   -5.8145   26.1064  -30.5661 H   0  0  0  0  0  0  0  0  0  0  0  0
   -5.3544   25.2259  -29.0717 H   0  0  0  0  0  0  0  0  0  0  0  0
   -0.6423   23.0827  -28.2859 H   0  0  0  0  0  0  0  0  0  0  0  0
    0.3575   20.9369  -29.0690 H   0  0  0  0  0  0  0  0  0  0  0  0
   -0.5804   19.7660  -31.0583 H   0  0  0  0  0  0  0  0  0  0  0  0
   -2.3180   18.5490  -31.9430 H   0  0  0  0  0  0  0  0  0  0  0  0
   -3.0004   19.2328  -34.8148 H   0  0  0  0  0  0  0  0  0  0  0  0
   -2.0732   17.7874  -34.2724 H   0  0  0  0  0  0  0  0  0  0  0  0
   -5.2141   18.8588  -35.4160 H   0  0  0  0  0  0  0  0  0  0  0  0
   -7.3457   17.5792  -35.1612 H   0  0  0  0  0  0  0  0  0  0  0  0
   -5.5983   15.1405  -32.1344 H   0  0  0  0  0  0  0  0  0  0  0  0
   -3.4342   16.3784  -32.3325 H   0  0  0  0  0  0  0  0  0  0  0  0
   -3.5318   22.9082  -31.5028 H   0  0  0  0  0  0  0  0  0  0  0  0
   -4.6421   23.9673  -32.5030 H   0  0  0  0  0  0  0  0  0  0  0  0
   -5.6186   21.8554  -33.3990 H   0  0  0  0  0  0  0  0  0  0  0  0
  1  2  1  0
  2  3  2  0
  2  4  2  0
  2  5  1  0
  5  6  2  0
  6  7  1  0
  7  8  2  0
  8  9  1  0
  9 10  1  0
 10 11  1  0
 11 12  2  0
 11 13  2  0
 11 14  1  0
 14 15  2  0
 15 16  1  0
 16 17  2  0
 17 18  1  0
 18 19  1  0
 19 20  2  0
 19 21  1  0
 21 22  1  0
 22 23  1  0
 23 24  2  0
 24 25  1  0
 25 26  2  0
 26 27  1  0
 27 28  2  0
 18 29  2  0
  8 30  1  0
 30 31  2  0
 31  5  1  0
 29 14  1  0
 28 23  1  0
  1 32  1  0
  6 33  1  0
  7 34  1  0
  9 35  1  0
  9 36  1  0
 15 37  1  0
 16 38  1  0
 17 39  1  0
 21 40  1  0
 22 41  1  0
 22 42  1  0
 24 43  1  0
 25 44  1  0
 27 45  1  0
 28 46  1  0
 29 47  1  0
 30 48  1  0
 31 49  1  0
M  CHG  2   1  -1  10  -1
M  END
>  <UniqueID>  (30) 
29

>  <SMILES>  (30) 
[NH-]S(=O)(=O)c1ccc(C[N-]S(=O)(=O)c2cccc(C(=O)NCc3ccncc3)c2)cc1

>  <Energy>  (30) 
49.53582393197577

>  <Genealogy>  (30) 
[NH-]S(=O)(=O)c1ccc(C[N-]S(=O)(=O)c2cccc(C(=O)NCc3ccncc3)c2)cc1 (protonated)
[NH-]S(=O)(=O)c1ccc(C[N-]S(=O)(=O)c2cccc(C(=O)NCc3ccncc3)c2)cc1 (3D coordinates assigned)
[NH-]S(=O)(=O)c1ccc(C[N-]S(=O)(=O)c2cccc(C(=O)NCc3ccncc3)c2)cc1 (optimized conformer: 49.53582393197577 kcal/mol)

>  <smiles>  (30) 
NS(=O)(=O)c1ccc(CNS(=O)(=O)c2cccc(C(=O)NCc3ccncc3)c2)cc1

>  <score_type>  (30) 
oracle

>  <origin>  (30) 
adgpu

>  <m_score__min__energy>  (30) 
-12.210000000000001

>  <m_primary>  (30) 
energy

$$$$
30:0
     RDKit          3D

 64 67  0  0  0  0  0  0  0  0999 V2000
   -5.6940   26.1210  -30.5770 O   0  0  0  0  0  0  0  0  0  0  0  0
   -5.1130   25.0100  -30.7270 C   0  0  0  0  0  0  0  0  0  0  0  0
   -3.6900   24.9400  -30.5870 N   0  0  0  0  0  0  0  0  0  0  0  0
   -3.0250   24.1170  -29.6170 C   0  0  0  0  0  0  0  0  0  0  0  0
   -3.2330   24.3650  -28.2580 C   0  0  0  0  0  0  0  0  0  0  0  0
   -2.5110   23.6570  -27.2900 C   0  0  0  0  0  0  0  0  0  0  0  0
   -1.5580   22.7030  -27.6750 C   0  0  0  0  0  0  0  0  0  0  0  0
   -0.5740   21.9060  -26.4460 S   0  0  0  0  0  0  0  0  0  0  0  0
    0.6580   21.3590  -27.1160 O   0  0  0  0  0  0  0  0  0  0  0  0
   -1.3050   20.7480  -25.8250 O   0  0  0  0  0  0  0  0  0  0  0  0
   -0.0900   23.0420  -25.2180 N   0  0  0  0  0  0  0  0  0  0  0  0
    0.3700   24.2530  -25.4160 C   0  0  0  0  0  0  0  0  0  0  0  0
    0.6750   24.8060  -26.7970 C   0  0  0  0  0  0  0  0  0  0  0  0
    0.0220   26.1770  -27.0040 C   0  0  0  0  0  0  0  0  0  0  0  0
   -1.2880   26.3620  -26.2050 C   0  0  0  0  0  0  0  0  0  0  0  0
   -1.1140   26.7320  -24.7190 C   0  0  0  0  0  0  0  0  0  0  0  0
    0.3020   26.4850  -24.1930 C   0  0  0  0  0  0  0  0  0  0  0  0
    0.6530   25.0700  -24.2680 N   0  0  0  0  0  0  0  0  0  0  0  0
   -1.3540   22.4460  -29.0360 C   0  0  0  0  0  0  0  0  0  0  0  0
   -2.0910   23.1400  -30.0040 C   0  0  0  0  0  0  0  0  0  0  0  0
   -5.8970   23.7900  -31.0430 C   0  0  0  0  0  0  0  0  0  0  0  0
   -7.2960   23.7780  -30.8760 C   0  0  0  0  0  0  0  0  0  0  0  0
   -8.0420   22.6480  -31.2300 C   0  0  0  0  0  0  0  0  0  0  0  0
   -7.4010   21.5240  -31.7550 C   0  0  0  0  0  0  0  0  0  0  0  0
   -6.0060   21.5140  -31.9100 C   0  0  0  0  0  0  0  0  0  0  0  0
   -5.1890   20.0770  -32.5300 S   0  0  0  0  0  0  0  0  0  0  0  0
   -5.5720   19.8910  -33.9710 O   0  0  0  0  0  0  0  0  0  0  0  0
   -5.6500   18.8700  -31.7610 O   0  0  0  0  0  0  0  0  0  0  0  0
   -3.4530   20.2220  -32.4010 N   0  0  0  0  0  0  0  0  0  0  0  0
   -2.8040   18.9310  -32.6970 C   0  0  0  0  0  0  0  0  0  0  0  0
   -1.2680   19.0630  -32.5670 C   0  0  0  0  0  0  0  0  0  0  0  0
   -0.8450   20.4150  -32.4650 O   0  0  0  0  0  0  0  0  0  0  0  0
   -1.4260   21.1720  -33.5060 C   0  0  0  0  0  0  0  0  0  0  0  0
   -2.9510   21.2830  -33.3030 C   0  0  0  0  0  0  0  0  0  0  0  0
   -5.2600   22.6500  -31.5610 C   0  0  0  0  0  0  0  0  0  0  0  0
   -3.9686   25.1213  -27.9467 H   0  0  0  0  0  0  0  0  0  0  0  0
   -2.6920   23.8499  -26.2223 H   0  0  0  0  0  0  0  0  0  0  0  0
   -0.2260   22.7150  -24.2330 H   0  0  0  0  0  0  0  0  0  0  0  0
    1.7645   24.9072  -26.9100 H   0  0  0  0  0  0  0  0  0  0  0  0
    0.2691   24.1111  -27.5469 H   0  0  0  0  0  0  0  0  0  0  0  0
    0.7347   26.9534  -26.6890 H   0  0  0  0  0  0  0  0  0  0  0  0
   -0.2353   26.2555  -28.0706 H   0  0  0  0  0  0  0  0  0  0  0  0
   -1.8687   27.1620  -26.6874 H   0  0  0  0  0  0  0  0  0  0  0  0
   -1.7880   25.3822  -26.2150 H   0  0  0  0  0  0  0  0  0  0  0  0
   -1.3507   27.7991  -24.5953 H   0  0  0  0  0  0  0  0  0  0  0  0
   -1.7921   26.0861  -24.1419 H   0  0  0  0  0  0  0  0  0  0  0  0
    1.0155   27.0643  -24.7974 H   0  0  0  0  0  0  0  0  0  0  0  0
    0.3422   26.7988  -23.1395 H   0  0  0  0  0  0  0  0  0  0  0  0
    0.9530   24.5990  -23.3830 H   0  0  0  0  0  0  0  0  0  0  0  0
   -0.6118   21.6959  -29.3465 H   0  0  0  0  0  0  0  0  0  0  0  0
   -1.9385   22.9198  -31.0709 H   0  0  0  0  0  0  0  0  0  0  0  0
   -7.8050   24.6622  -30.4649 H   0  0  0  0  0  0  0  0  0  0  0  0
   -9.1336   22.6453  -31.0946 H   0  0  0  0  0  0  0  0  0  0  0  0
   -7.9914   20.6433  -32.0481 H   0  0  0  0  0  0  0  0  0  0  0  0
   -3.2350   20.4880  -31.4070 H   0  0  0  0  0  0  0  0  0  0  0  0
   -3.1648   18.1718  -31.9875 H   0  0  0  0  0  0  0  0  0  0  0  0
   -3.0528   18.6317  -33.7259 H   0  0  0  0  0  0  0  0  0  0  0  0
   -0.9425   18.5226  -31.6659 H   0  0  0  0  0  0  0  0  0  0  0  0
   -0.8179   18.6397  -33.4771 H   0  0  0  0  0  0  0  0  0  0  0  0
   -0.9864   22.1804  -33.5099 H   0  0  0  0  0  0  0  0  0  0  0  0
   -1.2291   20.6704  -34.4650 H   0  0  0  0  0  0  0  0  0  0  0  0
   -3.1835   22.2650  -32.8652 H   0  0  0  0  0  0  0  0  0  0  0  0
   -3.4405   21.1669  -34.2812 H   0  0  0  0  0  0  0  0  0  0  0  0
   -4.1681   22.6480  -31.6940 H   0  0  0  0  0  0  0  0  0  0  0  0
  1  2  2  0
  2  3  1  0
  3  4  1  0
  4  5  2  0
  5  6  1  0
  6  7  2  0
  7  8  1  0
  8  9  2  0
  8 10  2  0
  8 11  1  0
 11 12  2  3
 12 13  1  0
 13 14  1  0
 14 15  1  0
 15 16  1  0
 16 17  1  0
 17 18  1  0
  7 19  1  0
 19 20  2  0
  2 21  1  0
 21 22  2  0
 22 23  1  0
 23 24  2  0
 24 25  1  0
 25 26  1  0
 26 27  2  0
 26 28  2  0
 26 29  1  0
 29 30  1  0
 30 31  1  0
 31 32  1  0
 32 33  1  0
 33 34  1  0
 25 35  2  0
 20  4  1  0
 35 21  1  0
 18 12  1  0
 34 29  1  0
  5 36  1  0
  6 37  1  0
 11 38  1  0
 13 39  1  0
 13 40  1  0
 14 41  1  0
 14 42  1  0
 15 43  1  0
 15 44  1  0
 16 45  1  0
 16 46  1  0
 17 47  1  0
 17 48  1  0
 18 49  1  0
 19 50  1  0
 20 51  1  0
 22 52  1  0
 23 53  1  0
 24 54  1  0
 29 55  1  0
 30 56  1  0
 30 57  1  0
 31 58  1  0
 31 59  1  0
 33 60  1  0
 33 61  1  0
 34 62  1  0
 34 63  1  0
 35 64  1  0
M  CHG  3   3  -1  11   1  29   1
M  END
>  <UniqueID>  (31) 
30

>  <SMILES>  (31) 
O=C([N-]c1ccc(S(=O)(=O)[NH+]=C2CCCCCN2)cc1)c1cccc(S(=O)(=O)[NH+]2CCOCC2)c1

>  <Energy>  (31) 
90.08087465756229

>  <Genealogy>  (31) 
O=C([N-]c1ccc(S(=O)(=O)[NH+]=C2CCCCCN2)cc1)c1cccc(S(=O)(=O)[NH+]2CCOCC2)c1 (protonated)
O=C([N-]c1ccc(S(=O)(=O)[NH+]=C2CCCCCN2)cc1)c1cccc(S(=O)(=O)[NH+]2CCOCC2)c1 (3D coordinates assigned)
O=C([N-]c1ccc(S(=O)(=O)[NH+]=C2CCCCCN2)cc1)c1cccc(S(=O)(=O)[NH+]2CCOCC2)c1 (nonaromatic ring conformer: 90.08087465756229 kcal/mol)

>  <smiles>  (31) 
O=C(Nc1ccc(S(=O)(=O)N=C2CCCCCN2)cc1)c1cccc(S(=O)(=O)N2CCOCC2)c1

>  <score_type>  (31) 
oracle

>  <origin>  (31) 
adgpu

>  <m_score__min__energy>  (31) 
-10.98

>  <m_primary>  (31) 
energy

$$$$
31:0
     RDKit          3D

 56 59  0  0  1  0  0  0  0  0999 V2000
   -8.8810   18.1940  -31.8660 C   0  0  0  0  0  0  0  0  0  0  0  0
   -7.5400   18.3190  -32.4860 C   0  0  0  0  0  0  0  0  0  0  0  0
   -7.2410   19.2250  -33.4630 C   0  0  0  0  0  0  0  0  0  0  0  0
   -5.9610   19.3090  -34.0220 C   0  0  0  0  0  0  0  0  0  0  0  0
   -4.9860   18.4380  -33.5560 C   0  0  0  0  0  0  0  0  0  0  0  0
   -3.6670   18.4760  -34.0850 N   0  0  0  0  0  0  0  0  0  0  0  0
   -2.8930   19.4340  -33.7500 C   0  0  0  0  0  0  0  0  0  0  0  0
   -1.6050   19.4980  -34.2490 C   0  0  0  0  0  0  0  0  0  0  0  0
   -0.7280   20.5260  -33.9080 C   0  0  0  0  0  0  0  0  0  0  0  0
    0.5860   20.5320  -34.4580 N   0  0  0  0  0  0  0  0  0  0  0  0
    1.4570   19.4410  -34.0730 C   0  0  0  0  0  0  0  0  0  0  0  0
    2.8600   19.6420  -34.5470 C   0  0  0  0  0  0  0  0  0  0  0  0
    2.7950   20.0330  -35.9330 N   0  0  0  0  0  0  0  0  0  0  0  0
    2.0310   19.0290  -36.6480 C   0  0  0  0  0  0  0  0  0  0  0  0
    2.2480   21.3490  -36.0810 C   0  0  0  0  0  0  0  0  0  0  0  0
    0.9730   21.6000  -35.3490 C   0  0  0  0  0  0  0  0  0  0  0  0
   -1.1950   21.4540  -33.0720 N   0  0  0  0  0  0  0  0  0  0  0  0
   -2.4530   21.4140  -32.5700 C   0  0  0  0  0  0  0  0  0  0  0  0
   -3.0140   22.6820  -31.4590 S   0  0  0  0  0  0  0  0  0  0  0  0
   -4.2720   22.0830  -30.3150 C   0  0  0  0  0  0  0  0  0  0  0  0
   -5.6590   22.3500  -30.7860 C   0  0  0  0  0  0  0  0  0  0  0  0
   -6.5200   21.3920  -31.2180 C   0  0  0  0  0  0  0  0  0  0  0  0
   -6.0900   20.1060  -31.2220 F   0  0  0  0  0  0  0  0  0  0  0  0
   -7.7940   21.6960  -31.6440 C   0  0  0  0  0  0  0  0  0  0  0  0
   -8.2500   23.0050  -31.6470 C   0  0  0  0  0  0  0  0  0  0  0  0
   -7.3650   23.9720  -31.2050 C   0  0  0  0  0  0  0  0  0  0  0  0
   -6.0870   23.6730  -30.7770 C   0  0  0  0  0  0  0  0  0  0  0  0
   -4.9880   24.9410  -30.2200 Cl  0  0  0  0  0  0  0  0  0  0  0  0
   -3.2940   20.4060  -32.9110 N   0  0  0  0  0  0  0  0  0  0  0  0
   -5.2870   17.5200  -32.5660 C   0  0  0  0  0  0  0  0  0  0  0  0
   -6.5470   17.4780  -32.0550 C   0  0  0  0  0  0  0  0  0  0  0  0
   -8.7808   18.2033  -30.7706 H   0  0  0  0  0  0  0  0  0  0  0  0
   -9.5119   19.0372  -32.1837 H   0  0  0  0  0  0  0  0  0  0  0  0
   -9.3452   17.2487  -32.1837 H   0  0  0  0  0  0  0  0  0  0  0  0
   -8.0271   19.9067  -33.8199 H   0  0  0  0  0  0  0  0  0  0  0  0
   -5.7340   20.0442  -34.8081 H   0  0  0  0  0  0  0  0  0  0  0  0
   -1.2614   18.7119  -34.9375 H   0  0  0  0  0  0  0  0  0  0  0  0
    1.4620   19.3624  -32.9758 H   0  0  0  0  0  0  0  0  0  0  0  0
    1.0722   18.5221  -34.5394 H   0  0  0  0  0  0  0  0  0  0  0  0
    3.3470   20.4317  -33.9560 H   0  0  0  0  0  0  0  0  0  0  0  0
    3.4452   18.7178  -34.4312 H   0  0  0  0  0  0  0  0  0  0  0  0
    1.5282   18.3682  -35.9265 H   0  0  0  0  0  0  0  0  0  0  0  0
    1.2779   19.5225  -37.2799 H   0  0  0  0  0  0  0  0  0  0  0  0
    2.7074   18.4347  -37.2799 H   0  0  0  0  0  0  0  0  0  0  0  0
    2.9953   22.0696  -35.7172 H   0  0  0  0  0  0  0  0  0  0  0  0
    2.0098   21.4589  -37.1493 H   0  0  0  0  0  0  0  0  0  0  0  0
    1.0899   22.5193  -34.7564 H   0  0  0  0  0  0  0  0  0  0  0  0
    0.1816   21.6826  -36.1085 H   0  0  0  0  0  0  0  0  0  0  0  0
   -0.5820   22.2460  -32.7830 H   0  0  0  0  0  0  0  0  0  0  0  0
   -4.1461   20.9971  -30.1923 H   0  0  0  0  0  0  0  0  0  0  0  0
   -4.1370   22.6212  -29.3652 H   0  0  0  0  0  0  0  0  0  0  0  0
   -8.4586   20.8891  -31.9865 H   0  0  0  0  0  0  0  0  0  0  0  0
   -9.2650   23.2620  -31.9841 H   0  0  0  0  0  0  0  0  0  0  0  0
   -7.6929   25.0219  -31.1941 H   0  0  0  0  0  0  0  0  0  0  0  0
   -4.5145   16.8302  -32.1953 H   0  0  0  0  0  0  0  0  0  0  0  0
   -6.7770   16.7438  -31.2688 H   0  0  0  0  0  0  0  0  0  0  0  0
  1  2  1  0
  2  3  2  0
  3  4  1  0
  4  5  2  0
  5  6  1  0
  6  7  2  0
  7  8  1  0
  8  9  2  0
  9 10  1  0
 10 11  1  0
 11 12  1  0
 12 13  1  0
 13 14  1  0
 13 15  1  0
 15 16  1  0
  9 17  1  0
 17 18  1  0
 18 19  1  0
 19 20  1  0
 20 21  1  0
 21 22  2  0
 22 23  1  0
 22 24  1  0
 24 25  2  0
 25 26  1  0
 26 27  2  0
 27 28  1  0
 18 29  2  0
  5 30  1  0
 30 31  2  0
 31  2  1  0
 29  7  1  0
 16 10  1  0
 27 21  1  0
  1 32  1  0
  1 33  1  0
  1 34  1  0
  3 35  1  0
  4 36  1  0
  8 37  1  0
 11 38  1  0
 11 39  1  0
 12 40  1  0
 12 41  1  0
 14 42  1  0
 14 43  1  0
 14 44  1  0
 15 45  1  0
 15 46  1  0
 16 47  1  0
 16 48  1  0
 17 49  1  0
 20 50  1  0
 20 51  1  0
 24 52  1  0
 25 53  1  0
 26 54  1  0
 30 55  1  0
 31 56  1  0
M  END
>  <smiles>  (32) 
Cc1ccc(N=c2cc(N3CCN(C)CC3)[nH]c(SCc3c(F)cccc3Cl)n2)cc1

>  <score_type>  (32) 
oracle

>  <origin>  (32) 
adgpu

>  <m_score__min__energy>  (32) 
-9.3399999999999999

>  <m_primary>  (32) 
energy

$$$$
32:0
     RDKit          3D

 36 38  0  0  0  0  0  0  0  0999 V2000
   -1.5930   24.8540  -28.3640 N   0  0  0  0  0  0  0  0  0  0  0  0
   -2.4490   24.5420  -29.0770 C   0  0  0  0  0  0  0  0  0  0  0  0
   -3.5130   24.1540  -29.9650 C   0  0  0  0  0  0  0  0  0  0  0  0
   -4.6940   24.9040  -30.0160 C   0  0  0  0  0  0  0  0  0  0  0  0
   -5.7290   24.5270  -30.8770 C   0  0  0  0  0  0  0  0  0  0  0  0
   -5.5880   23.4000  -31.7070 C   0  0  0  0  0  0  0  0  0  0  0  0
   -6.6470   22.9760  -32.5830 N   0  0  0  0  0  0  0  0  0  0  0  0
   -7.4920   21.8400  -32.3370 C   0  0  0  0  0  0  0  0  0  0  0  0
   -6.9520   20.5500  -32.4390 C   0  0  0  0  0  0  0  0  0  0  0  0
   -7.7540   19.4170  -32.2090 C   0  0  0  0  0  0  0  0  0  0  0  0
   -7.2160   18.0880  -32.3180 N   0  0  0  0  0  0  0  0  0  0  0  0
   -6.1340   17.7180  -33.1910 C   0  0  0  0  0  0  0  0  0  0  0  0
   -5.1240   16.8330  -32.7770 C   0  0  0  0  0  0  0  0  0  0  0  0
   -4.1050   16.4760  -33.6620 C   0  0  0  0  0  0  0  0  0  0  0  0
   -4.1120   16.9930  -34.9590 C   0  0  0  0  0  0  0  0  0  0  0  0
   -5.1090   17.8280  -35.3520 N   0  0  0  0  0  0  0  0  0  0  0  0
   -6.1120   18.1930  -34.5090 C   0  0  0  0  0  0  0  0  0  0  0  0
   -9.1180   19.5890  -31.9350 C   0  0  0  0  0  0  0  0  0  0  0  0
   -9.6670   20.8710  -31.8590 C   0  0  0  0  0  0  0  0  0  0  0  0
   -8.8630   21.9940  -32.0620 C   0  0  0  0  0  0  0  0  0  0  0  0
   -9.4310   23.2260  -32.0350 F   0  0  0  0  0  0  0  0  0  0  0  0
   -4.4090   22.6420  -31.6350 C   0  0  0  0  0  0  0  0  0  0  0  0
   -3.3750   23.0200  -30.7740 C   0  0  0  0  0  0  0  0  0  0  0  0
   -4.8079   25.7921  -29.3771 H   0  0  0  0  0  0  0  0  0  0  0  0
   -6.6584   25.1147  -30.9056 H   0  0  0  0  0  0  0  0  0  0  0  0
   -6.7740   23.4900  -33.4840 H   0  0  0  0  0  0  0  0  0  0  0  0
   -5.8914   20.4226  -32.7013 H   0  0  0  0  0  0  0  0  0  0  0  0
   -7.6350   17.3420  -31.7170 H   0  0  0  0  0  0  0  0  0  0  0  0
   -5.1363   16.4220  -31.7567 H   0  0  0  0  0  0  0  0  0  0  0  0
   -3.3042   15.7939  -33.3405 H   0  0  0  0  0  0  0  0  0  0  0  0
   -3.3103   16.7242  -35.6626 H   0  0  0  0  0  0  0  0  0  0  0  0
   -6.9088   18.8635  -34.8632 H   0  0  0  0  0  0  0  0  0  0  0  0
   -9.7596   18.7092  -31.7790 H   0  0  0  0  0  0  0  0  0  0  0  0
  -10.7373   20.9963  -31.6383 H   0  0  0  0  0  0  0  0  0  0  0  0
   -4.2980   21.7441  -32.2606 H   0  0  0  0  0  0  0  0  0  0  0  0
   -2.4507   22.4251  -30.7320 H   0  0  0  0  0  0  0  0  0  0  0  0
  1  2  3  0
  2  3  1  0
  3  4  2  0
  4  5  1  0
  5  6  2  0
  6  7  1  0
  7  8  1  0
  8  9  2  0
  9 10  1  0
 10 11  1  0
 11 12  1  0
 12 13  2  0
 13 14  1  0
 14 15  2  0
 15 16  1  0
 16 17  2  0
 10 18  2  0
 18 19  1  0
 19 20  2  0
 20 21  1  0
  6 22  1  0
 22 23  2  0
 23  3  1  0
 20  8  1  0
 17 12  1  0
  4 24  1  0
  5 25  1  0
  7 26  1  0
  9 27  1  0
 11 28  1  0
 13 29  1  0
 14 30  1  0
 15 31  1  0
 17 32  1  0
 18 33  1  0
 19 34  1  0
 22 35  1  0
 23 36  1  0
M  END
>  <UniqueID>  (33) 
31

>  <SMILES>  (33) 
N#Cc1ccc(Nc2cc(Nc3cccnc3)ccc2F)cc1

>  <Energy>  (33) 
50.51764772055537

>  <Genealogy>  (33) 
N#Cc1ccc(Nc2cc(Nc3cccnc3)ccc2F)cc1 (3D coordinates assigned)
N#Cc1ccc(Nc2cc(Nc3cccnc3)ccc2F)cc1 (optimized conformer: 50.51764772055537 kcal/mol)

>  <smiles>  (33) 
N#Cc1ccc(Nc2cc(Nc3cccnc3)ccc2F)cc1

>  <score_type>  (33) 
oracle

>  <origin>  (33) 
adgpu

>  <m_score__min__energy>  (33) 
-8.3599999999999994

>  <m_primary>  (33) 
energy

$$$$
33:0
     RDKit          3D

 19 20  0  0  0  0  0  0  0  0999 V2000
   -8.9130   19.8520  -32.3750 C   0  0  0  0  0  0  0  0  0  0  0  0
   -7.7680   20.7930  -32.1750 C   0  0  0  0  0  0  0  0  0  0  0  0
   -6.5510   20.5780  -32.8390 C   0  0  0  0  0  0  0  0  0  0  0  0
   -5.4910   21.4670  -32.6410 C   0  0  0  0  0  0  0  0  0  0  0  0
   -5.6560   22.5570  -31.7850 C   0  0  0  0  0  0  0  0  0  0  0  0
   -4.6450   23.4390  -31.5720 N   0  0  0  0  0  0  0  0  0  0  0  0
   -4.8070   24.5010  -30.7380 C   0  0  0  0  0  0  0  0  0  0  0  0
   -3.8540   25.3040  -30.5570 O   0  0  0  0  0  0  0  0  0  0  0  0
   -6.0370   24.6890  -30.0870 C   0  0  0  0  0  0  0  0  0  0  0  0
   -6.2050   25.6670  -29.3100 O   0  0  0  0  0  0  0  0  0  0  0  0
   -7.0530   23.8050  -30.3000 N   0  0  0  0  0  0  0  0  0  0  0  0
   -6.8900   22.7430  -31.1350 C   0  0  0  0  0  0  0  0  0  0  0  0
   -7.9070   21.8640  -31.3430 N   0  0  0  0  0  0  0  0  0  0  0  0
   -9.3009   19.5332  -31.3963 H   0  0  0  0  0  0  0  0  0  0  0  0
   -9.7104   20.3592  -32.9379 H   0  0  0  0  0  0  0  0  0  0  0  0
   -8.5699   18.9714  -32.9379 H   0  0  0  0  0  0  0  0  0  0  0  0
   -6.4319   19.7154  -33.5111 H   0  0  0  0  0  0  0  0  0  0  0  0
   -4.5324   21.3086  -33.1567 H   0  0  0  0  0  0  0  0  0  0  0  0
   -7.9680   23.9450  -29.8150 H   0  0  0  0  0  0  0  0  0  0  0  0
  1  2  1  0
  2  3  2  0
  3  4  1  0
  4  5  2  0
  5  6  1  0
  6  7  1  0
  7  8  2  0
  7  9  1  0
  9 10  2  0
  9 11  1  0
 11 12  1  0
 12 13  2  0
 13  2  1  0
 12  5  1  0
  1 14  1  0
  1 15  1  0
  1 16  1  0
  3 17  1  0
  4 18  1  0
 11 19  1  0
M  CHG  1   6  -1
M  END
>  <UniqueID>  (34) 
32

>  <SMILES>  (34) 
Cc1ccc2[n-]c(=O)c(=O)[nH]c2n1

>  <Energy>  (34) 
23.407978676041314

>  <Genealogy>  (34) 
Cc1ccc2[n-]c(=O)c(=O)[nH]c2n1 (protonated)
Cc1ccc2[n-]c(=O)c(=O)[nH]c2n1 (3D coordinates assigned)
Cc1ccc2[n-]c(=O)c(=O)[nH]c2n1 (optimized conformer: 23.407978676041314 kcal/mol)

>  <smiles>  (34) 
Cc1ccc2[nH]c(=O)c(=O)[nH]c2n1

>  <score_type>  (34) 
oracle

>  <origin>  (34) 
adgpu

>  <m_score__min__energy>  (34) 
-6.7999999999999998

>  <m_primary>  (34) 
energy

$$$$
34:0
     RDKit          3D

 45 47  0  0  0  0  0  0  0  0999 V2000
    0.6350   22.7490  -27.4700 C   0  0  0  0  0  0  0  0  0  0  0  0
    0.6080   24.5300  -27.8420 S   0  0  0  0  0  0  0  0  0  0  0  0
   -1.1000   24.7320  -27.3330 C   0  0  0  0  0  0  0  0  0  0  0  0
   -1.4080   25.5070  -26.2100 C   0  0  0  0  0  0  0  0  0  0  0  0
   -2.7360   25.6540  -25.8060 C   0  0  0  0  0  0  0  0  0  0  0  0
   -3.7620   25.0350  -26.5270 C   0  0  0  0  0  0  0  0  0  0  0  0
   -3.4680   24.2750  -27.6710 C   0  0  0  0  0  0  0  0  0  0  0  0
   -4.5380   23.6310  -28.3840 N   0  0  0  0  0  0  0  0  0  0  0  0
   -4.6050   23.5490  -29.8180 C   0  0  0  0  0  0  0  0  0  0  0  0
   -3.9700   24.3820  -30.5220 O   0  0  0  0  0  0  0  0  0  0  0  0
   -5.4530   22.5290  -30.4820 C   0  0  0  0  0  0  0  0  0  0  0  0
   -6.8460   22.7090  -30.5610 C   0  0  0  0  0  0  0  0  0  0  0  0
   -7.6520   21.7540  -31.1890 C   0  0  0  0  0  0  0  0  0  0  0  0
   -7.0770   20.6130  -31.7590 C   0  0  0  0  0  0  0  0  0  0  0  0
   -8.1000   19.4020  -32.5280 S   0  0  0  0  0  0  0  0  0  0  0  0
   -8.8490   18.6440  -31.4660 O   0  0  0  0  0  0  0  0  0  0  0  0
   -9.1000   20.0790  -33.4260 O   0  0  0  0  0  0  0  0  0  0  0  0
   -7.1020   18.2970  -33.4380 N   0  0  0  0  0  0  0  0  0  0  0  0
   -6.2970   17.4570  -32.5540 C   0  0  0  0  0  0  0  0  0  0  0  0
   -5.0540   17.0690  -33.3410 C   0  0  0  0  0  0  0  0  0  0  0  0
   -4.9530   18.0880  -34.4650 C   0  0  0  0  0  0  0  0  0  0  0  0
   -6.1430   19.0160  -34.2760 C   0  0  0  0  0  0  0  0  0  0  0  0
   -5.6920   20.4270  -31.6890 C   0  0  0  0  0  0  0  0  0  0  0  0
   -4.8840   21.3790  -31.0590 C   0  0  0  0  0  0  0  0  0  0  0  0
   -2.1260   24.1160  -28.0610 C   0  0  0  0  0  0  0  0  0  0  0  0
    0.6372   22.6021  -26.3799 H   0  0  0  0  0  0  0  0  0  0  0  0
   -0.2560   22.2705  -27.9026 H   0  0  0  0  0  0  0  0  0  0  0  0
    1.5401   22.2977  -27.9026 H   0  0  0  0  0  0  0  0  0  0  0  0
   -0.6035   26.0007  -25.6451 H   0  0  0  0  0  0  0  0  0  0  0  0
   -2.9760   26.2580  -24.9186 H   0  0  0  0  0  0  0  0  0  0  0  0
   -4.8054   25.1440  -26.1962 H   0  0  0  0  0  0  0  0  0  0  0  0
   -5.3640   23.3040  -27.8340 H   0  0  0  0  0  0  0  0  0  0  0  0
   -7.3052   23.6085  -30.1251 H   0  0  0  0  0  0  0  0  0  0  0  0
   -8.7412   21.9004  -31.2349 H   0  0  0  0  0  0  0  0  0  0  0  0
   -6.0151   18.0171  -31.6502 H   0  0  0  0  0  0  0  0  0  0  0  0
   -6.8575   16.5672  -32.2314 H   0  0  0  0  0  0  0  0  0  0  0  0
   -4.1621   17.1148  -32.6988 H   0  0  0  0  0  0  0  0  0  0  0  0
   -5.1181   16.0405  -33.7259 H   0  0  0  0  0  0  0  0  0  0  0  0
   -4.0106   18.6505  -34.3911 H   0  0  0  0  0  0  0  0  0  0  0  0
   -4.9614   17.6080  -35.4547 H   0  0  0  0  0  0  0  0  0  0  0  0
   -5.8255   19.9445  -33.7790 H   0  0  0  0  0  0  0  0  0  0  0  0
   -6.5889   19.2926  -35.2428 H   0  0  0  0  0  0  0  0  0  0  0  0
   -5.2369   19.5285  -32.1312 H   0  0  0  0  0  0  0  0  0  0  0  0
   -3.7954   21.2274  -31.0143 H   0  0  0  0  0  0  0  0  0  0  0  0
   -1.8809   23.5048  -28.9421 H   0  0  0  0  0  0  0  0  0  0  0  0
  1  2  1  0
  2  3  1  0
  3  4  2  0
  4  5  1  0
  5  6  2  0
  6  7  1  0
  7  8  1  0
  8  9  1  0
  9 10  2  0
  9 11  1  0
 11 12  2  0
 12 13  1  0
 13 14  2  0
 14 15  1  0
 15 16  2  0
 15 17  2  0
 15 18  1  0
 18 19  1  0
 19 20  1  0
 20 21  1  0
 21 22  1  0
 14 23  1  0
 23 24  2  0
  7 25  2  0
 25  3  1  0
 24 11  1  0
 22 18  1  0
  1 26  1  0
  1 27  1  0
  1 28  1  0
  4 29  1  0
  5 30  1  0
  6 31  1  0
  8 32  1  0
 12 33  1  0
 13 34  1  0
 19 35  1  0
 19 36  1  0
 20 37  1  0
 20 38  1  0
 21 39  1  0
 21 40  1  0
 22 41  1  0
 22 42  1  0
 23 43  1  0
 24 44  1  0
 25 45  1  0
M  END
>  <UniqueID>  (35) 
33

>  <SMILES>  (35) 
CSc1cccc(NC(=O)c2ccc(S(=O)(=O)N3CCCC3)cc2)c1

>  <Energy>  (35) 
47.842357305282555

>  <Genealogy>  (35) 
CSc1cccc(NC(=O)c2ccc(S(=O)(=O)N3CCCC3)cc2)c1 (3D coordinates assigned)
CSc1cccc(NC(=O)c2ccc(S(=O)(=O)N3CCCC3)cc2)c1 (nonaromatic ring conformer: 47.842357305282555 kcal/mol)

>  <smiles>  (35) 
CSc1cccc(NC(=O)c2ccc(S(=O)(=O)N3CCCC3)cc2)c1

>  <score_type>  (35) 
oracle

>  <origin>  (35) 
adgpu

>  <m_score__min__energy>  (35) 
-9.4700000000000006

>  <m_primary>  (35) 
energy

$$$$
35:0
     RDKit          3D

 49 52  0  0  0  0  0  0  0  0999 V2000
   -0.6077   20.2797  -32.9298 H   0  0  0  0  0  0  0  0  0  0  0  0
   -0.4540   20.2510  -31.8410 C   0  0  0  0  0  0  0  0  0  0  0  0
    0.8340   19.5200  -31.0440 S   0  0  0  0  0  0  0  0  0  0  0  0
    0.2730   19.9600  -29.5150 C   0  0  0  0  0  0  0  0  0  0  0  0
    0.8170   19.6500  -28.3760 N   0  0  0  0  0  0  0  0  0  0  0  0
    2.0650   18.9670  -28.1840 C   0  0  0  0  0  0  0  0  0  0  0  0
    2.0590   17.6930  -27.6010 C   0  0  0  0  0  0  0  0  0  0  0  0
    1.1032   17.2206  -27.3303 H   0  0  0  0  0  0  0  0  0  0  0  0
    3.2600   17.0180  -27.3610 C   0  0  0  0  0  0  0  0  0  0  0  0
    3.2455   16.0103  -26.9201 H   0  0  0  0  0  0  0  0  0  0  0  0
    4.4790   17.6230  -27.6810 C   0  0  0  0  0  0  0  0  0  0  0  0
    5.4232   17.0884  -27.4999 H   0  0  0  0  0  0  0  0  0  0  0  0
    4.4970   18.9070  -28.2310 C   0  0  0  0  0  0  0  0  0  0  0  0
    5.4566   19.3861  -28.4751 H   0  0  0  0  0  0  0  0  0  0  0  0
    3.2970   19.5850  -28.4720 C   0  0  0  0  0  0  0  0  0  0  0  0
    3.3161   20.6033  -28.8875 H   0  0  0  0  0  0  0  0  0  0  0  0
   -0.8880   20.6430  -29.5910 N   0  0  0  0  0  0  0  0  0  0  0  0
   -1.2940   20.8150  -30.8790 C   0  0  0  0  0  0  0  0  0  0  0  0
   -2.5380   21.5310  -31.2130 C   0  0  0  0  0  0  0  0  0  0  0  0
   -3.0790   21.3480  -32.3380 O   0  0  0  0  0  0  0  0  0  0  0  0
   -3.1160   22.4550  -30.2770 N   0  0  0  0  0  0  0  0  0  0  0  0
   -2.5110   22.8300  -29.5120 H   0  0  0  0  0  0  0  0  0  0  0  0
   -4.4090   23.0540  -30.4620 C   0  0  0  0  0  0  0  0  0  0  0  0
   -5.5260   22.2250  -30.6400 C   0  0  0  0  0  0  0  0  0  0  0  0
   -5.4023   21.1321  -30.6218 H   0  0  0  0  0  0  0  0  0  0  0  0
   -6.7990   22.7770  -30.8410 C   0  0  0  0  0  0  0  0  0  0  0  0
   -8.2000   21.7240  -31.0640 S   0  0  0  0  0  0  0  0  0  0  0  0
   -9.1500   21.9150  -29.9140 O   0  0  0  0  0  0  0  0  0  0  0  0
   -8.9150   22.1130  -32.3270 O   0  0  0  0  0  0  0  0  0  0  0  0
   -7.7330   20.0410  -31.1600 N   0  0  0  0  0  0  0  0  0  0  0  0
   -8.9110   19.1530  -31.2770 C   0  0  0  0  0  0  0  0  0  0  0  0
   -8.7897   18.3087  -30.5824 H   0  0  0  0  0  0  0  0  0  0  0  0
   -9.8069   19.7429  -31.0334 H   0  0  0  0  0  0  0  0  0  0  0  0
   -9.0780   18.6020  -32.7050 C   0  0  0  0  0  0  0  0  0  0  0  0
   -9.9537   17.9365  -32.7221 H   0  0  0  0  0  0  0  0  0  0  0  0
   -9.2003   19.4658  -33.3750 H   0  0  0  0  0  0  0  0  0  0  0  0
   -7.9480   17.8720  -33.1620 O   0  0  0  0  0  0  0  0  0  0  0  0
   -6.7080   18.3650  -32.6650 C   0  0  0  0  0  0  0  0  0  0  0  0
   -6.4199   17.7594  -31.7931 H   0  0  0  0  0  0  0  0  0  0  0  0
   -5.9842   18.2927  -33.4901 H   0  0  0  0  0  0  0  0  0  0  0  0
   -6.7460   19.8390  -32.2370 C   0  0  0  0  0  0  0  0  0  0  0  0
   -5.7505   20.1364  -31.8756 H   0  0  0  0  0  0  0  0  0  0  0  0
   -7.0352   20.4526  -33.1030 H   0  0  0  0  0  0  0  0  0  0  0  0
   -6.9520   24.1690  -30.8640 C   0  0  0  0  0  0  0  0  0  0  0  0
   -7.9510   24.6083  -31.0022 H   0  0  0  0  0  0  0  0  0  0  0  0
   -5.8400   25.0020  -30.7120 C   0  0  0  0  0  0  0  0  0  0  0  0
   -5.9657   26.0944  -30.7397 H   0  0  0  0  0  0  0  0  0  0  0  0
   -4.5690   24.4520  -30.5250 C   0  0  0  0  0  0  0  0  0  0  0  0
   -3.4700   25.2990  -30.4310 O   0  0  0  0  0  0  0  0  0  0  0  0
  1  2  1  0
  2  3  1  0
  3  4  1  0
  4  5  2  0
  5  6  1  0
  6  7  2  0
  7  8  1  0
  7  9  1  0
  9 10  1  0
  9 11  2  0
 11 12  1  0
 11 13  1  0
 13 14  1  0
 13 15  2  0
 15 16  1  0
  4 17  1  0
 17 18  1  0
 18 19  1  0
 19 20  2  0
 19 21  1  0
 21 22  1  0
 21 23  1  0
 23 24  2  0
 24 25  1  0
 24 26  1  0
 26 27  1  0
 27 28  2  0
 27 29  2  0
 27 30  1  0
 30 31  1  0
 31 32  1  0
 31 33  1  0
 31 34  1  0
 34 35  1  0
 34 36  1  0
 34 37  1  0
 37 38  1  0
 38 39  1  0
 38 40  1  0
 38 41  1  0
 41 42  1  0
 41 43  1  0
 26 44  2  0
 44 45  1  0
 44 46  1  0
 46 47  1  0
 46 48  2  0
 48 49  1  0
 18  2  2  0
 48 23  1  0
 15  6  1  0
 41 30  1  0
M  CHG  2  17  -1  49  -1
M  END
>  <UniqueID>  (36) 
34

>  <SMILES>  (36) 
O=C(Nc1cc(S(=O)(=O)N2CCOCC2)ccc1[O-])c1cs/c(=N\c2ccccc2)[n-]1

>  <Energy>  (36) 
106.14934752185152

>  <Genealogy>  (36) 
O=C(Nc1cc(S(=O)(=O)N2CCOCC2)ccc1[O-])c1csc(=Nc2ccccc2)[n-]1 (protonated)
O=C(Nc1cc(S(=O)(=O)N2CCOCC2)ccc1[O-])c1cs/c(=N\c2ccccc2)[n-]1 (cis-trans isomerization)
O=C(Nc1cc(S(=O)(=O)N2CCOCC2)ccc1[O-])c1cs/c(=N\c2ccccc2)[n-]1 (3D coordinates assigned)
O=C(Nc1cc(S(=O)(=O)N2CCOCC2)ccc1[O-])c1cs/c(=N\c2ccccc2)[n-]1 (nonaromatic ring conformer: 106.14934752185152 kcal/mol)

>  <smiles>  (36) 
O=C(Nc1cc(S(=O)(=O)N2CCOCC2)ccc1O)c1csc(=Nc2ccccc2)[nH]1

>  <score_type>  (36) 
oracle

>  <origin>  (36) 
adgpu

>  <m_score__min__energy>  (36) 
-12

>  <m_primary>  (36) 
energy

$$$$
36:0
     RDKit          3D

 42 45  0  0  0  0  0  0  0  0999 V2000
   -1.9680   21.8890  -28.4960 O   0  0  0  0  0  0  0  0  0  0  0  0
   -1.8080   22.6550  -29.7800 S   0  0  0  0  0  0  0  0  0  0  0  0
   -0.3550   22.6430  -30.1620 O   0  0  0  0  0  0  0  0  0  0  0  0
   -2.3250   24.2910  -29.5540 N   0  0  0  0  0  0  0  0  0  0  0  0
   -3.6800   24.6990  -29.7470 C   0  0  0  0  0  0  0  0  0  0  0  0
   -4.6790   24.3940  -28.8350 C   0  0  0  0  0  0  0  0  0  0  0  0
   -6.1130   25.0400  -29.4280 S   0  0  0  0  0  0  0  0  0  0  0  0
   -5.4010   25.6740  -30.8130 C   0  0  0  0  0  0  0  0  0  0  0  0
   -4.0780   25.4070  -30.8390 N   0  0  0  0  0  0  0  0  0  0  0  0
   -2.7580   21.9190  -31.0640 C   0  0  0  0  0  0  0  0  0  0  0  0
   -2.3630   20.7000  -31.6330 C   0  0  0  0  0  0  0  0  0  0  0  0
   -3.1530   20.0930  -32.6120 C   0  0  0  0  0  0  0  0  0  0  0  0
   -4.3580   20.6930  -33.0210 C   0  0  0  0  0  0  0  0  0  0  0  0
   -5.2020   20.0940  -33.9680 O   0  0  0  0  0  0  0  0  0  0  0  0
   -5.7960   18.8320  -33.8300 C   0  0  0  0  0  0  0  0  0  0  0  0
   -5.1970   17.7450  -34.4740 C   0  0  0  0  0  0  0  0  0  0  0  0
   -5.7180   16.4610  -34.3220 C   0  0  0  0  0  0  0  0  0  0  0  0
   -6.8500   16.2750  -33.5300 C   0  0  0  0  0  0  0  0  0  0  0  0
   -7.4490   17.3400  -32.9390 N   0  0  0  0  0  0  0  0  0  0  0  0
   -6.9760   18.6110  -33.0750 C   0  0  0  0  0  0  0  0  0  0  0  0
   -7.7390   19.7130  -32.4450 C   0  0  0  0  0  0  0  0  0  0  0  0
   -9.0690   19.9830  -32.8160 C   0  0  0  0  0  0  0  0  0  0  0  0
   -9.7650   21.0430  -32.2270 C   0  0  0  0  0  0  0  0  0  0  0  0
   -9.1510   21.8230  -31.2430 C   0  0  0  0  0  0  0  0  0  0  0  0
   -7.8440   21.5380  -30.8410 C   0  0  0  0  0  0  0  0  0  0  0  0
   -7.1400   20.4880  -31.4370 C   0  0  0  0  0  0  0  0  0  0  0  0
   -4.7310   21.9250  -32.4740 C   0  0  0  0  0  0  0  0  0  0  0  0
   -3.9440   22.5300  -31.4930 C   0  0  0  0  0  0  0  0  0  0  0  0
   -4.5558   23.8330  -27.8969 H   0  0  0  0  0  0  0  0  0  0  0  0
   -5.9406   26.2313  -31.5929 H   0  0  0  0  0  0  0  0  0  0  0  0
   -1.4282   20.2202  -31.3075 H   0  0  0  0  0  0  0  0  0  0  0  0
   -2.8321   19.1431  -33.0645 H   0  0  0  0  0  0  0  0  0  0  0  0
   -4.3095   17.9040  -35.1042 H   0  0  0  0  0  0  0  0  0  0  0  0
   -5.2414   15.6045  -34.8212 H   0  0  0  0  0  0  0  0  0  0  0  0
   -7.2582   15.2641  -33.3838 H   0  0  0  0  0  0  0  0  0  0  0  0
   -9.5638   19.3570  -33.5732 H   0  0  0  0  0  0  0  0  0  0  0  0
  -10.7968   21.2633  -32.5383 H   0  0  0  0  0  0  0  0  0  0  0  0
   -9.6969   22.6611  -30.7853 H   0  0  0  0  0  0  0  0  0  0  0  0
   -7.3679   22.1411  -30.0538 H   0  0  0  0  0  0  0  0  0  0  0  0
   -6.1115   20.2669  -31.1155 H   0  0  0  0  0  0  0  0  0  0  0  0
   -5.6505   22.4203  -32.8192 H   0  0  0  0  0  0  0  0  0  0  0  0
   -4.2557   23.4897  -31.0550 H   0  0  0  0  0  0  0  0  0  0  0  0
  1  2  2  0
  2  3  2  0
  2  4  1  0
  4  5  1  0
  5  6  2  0
  6  7  1  0
  7  8  1  0
  8  9  2  0
  2 10  1  0
 10 11  2  0
 11 12  1  0
 12 13  2  0
 13 14  1  0
 14 15  1  0
 15 16  2  0
 16 17  1  0
 17 18  2  0
 18 19  1  0
 19 20  2  0
 20 21  1  0
 21 22  2  0
 22 23  1  0
 23 24  2  0
 24 25  1  0
 25 26  2  0
 13 27  1  0
 27 28  2  0
  9  5  1  0
 28 10  1  0
 20 15  1  0
 26 21  1  0
  6 29  1  0
  8 30  1  0
 11 31  1  0
 12 32  1  0
 16 33  1  0
 17 34  1  0
 18 35  1  0
 22 36  1  0
 23 37  1  0
 24 38  1  0
 25 39  1  0
 26 40  1  0
 27 41  1  0
 28 42  1  0
M  CHG  1   4  -1
M  END
>  <UniqueID>  (37) 
35

>  <SMILES>  (37) 
O=S(=O)([N-]c1cscn1)c1ccc(Oc2cccnc2-c2ccccc2)cc1

>  <Energy>  (37) 
87.98286882268772

>  <Genealogy>  (37) 
O=S(=O)([N-]c1cscn1)c1ccc(Oc2cccnc2-c2ccccc2)cc1 (protonated)
O=S(=O)([N-]c1cscn1)c1ccc(Oc2cccnc2-c2ccccc2)cc1 (3D coordinates assigned)
O=S(=O)([N-]c1cscn1)c1ccc(Oc2cccnc2-c2ccccc2)cc1 (optimized conformer: 87.98286882268772 kcal/mol)

>  <smiles>  (37) 
O=S(=O)(Nc1cscn1)c1ccc(Oc2cccnc2-c2ccccc2)cc1

>  <score_type>  (37) 
oracle

>  <origin>  (37) 
adgpu

>  <m_score__min__energy>  (37) 
-10.73

>  <m_primary>  (37) 
energy

$$$$
37:0
     RDKit          3D

 60 64  0  0  0  0  0  0  0  0999 V2000
   -0.9290   25.7170  -25.9090 C   0  0  0  0  0  0  0  0  0  0  0  0
   -1.9690   25.2070  -26.8620 C   0  0  0  0  0  0  0  0  0  0  0  0
   -3.2650   24.9380  -26.3990 C   0  0  0  0  0  0  0  0  0  0  0  0
   -4.2420   24.4520  -27.2730 C   0  0  0  0  0  0  0  0  0  0  0  0
   -3.9380   24.2270  -28.6290 C   0  0  0  0  0  0  0  0  0  0  0  0
   -4.9610   23.7130  -29.5720 C   0  0  0  0  0  0  0  0  0  0  0  0
   -6.0970   24.3740  -30.0150 C   0  0  0  0  0  0  0  0  0  0  0  0
   -6.7120   23.4760  -30.8620 C   0  0  0  0  0  0  0  0  0  0  0  0
   -7.9910   23.7230  -31.5980 C   0  0  0  0  0  0  0  0  0  0  0  0
   -5.9710   22.3460  -30.9110 N   0  0  0  0  0  0  0  0  0  0  0  0
   -6.2280   21.1500  -31.6620 C   0  0  0  0  0  0  0  0  0  0  0  0
   -7.2370   20.2920  -31.3950 N   0  0  0  0  0  0  0  0  0  0  0  0
   -7.2530   19.2380  -32.2560 C   0  0  0  0  0  0  0  0  0  0  0  0
   -8.2940   18.1700  -32.1460 C   0  0  0  0  0  0  0  0  0  0  0  0
   -6.2400   19.2550  -33.2240 C   0  0  0  0  0  0  0  0  0  0  0  0
   -6.0360   18.2890  -34.3240 C   0  0  0  0  0  0  0  0  0  0  0  0
   -6.0960   18.6820  -35.5190 O   0  0  0  0  0  0  0  0  0  0  0  0
   -5.7000   16.8790  -34.0570 C   0  0  0  0  0  0  0  0  0  0  0  0
   -6.5660   15.8150  -34.2200 C   0  0  0  0  0  0  0  0  0  0  0  0
   -5.8650   14.6820  -33.8510 C   0  0  0  0  0  0  0  0  0  0  0  0
   -6.4230   13.2920  -33.8810 C   0  0  0  0  0  0  0  0  0  0  0  0
   -4.6200   15.0130  -33.4380 N   0  0  0  0  0  0  0  0  0  0  0  0
   -3.6090   14.1120  -32.9550 C   0  0  0  0  0  0  0  0  0  0  0  0
   -2.4650   13.8530  -33.7290 C   0  0  0  0  0  0  0  0  0  0  0  0
   -1.4770   12.9850  -33.2540 C   0  0  0  0  0  0  0  0  0  0  0  0
   -1.6240   12.3700  -32.0080 C   0  0  0  0  0  0  0  0  0  0  0  0
   -2.7580   12.6240  -31.2330 C   0  0  0  0  0  0  0  0  0  0  0  0
   -3.7480   13.4930  -31.7020 C   0  0  0  0  0  0  0  0  0  0  0  0
   -4.5130   16.3590  -33.5500 C   0  0  0  0  0  0  0  0  0  0  0  0
   -3.3200   17.1520  -33.0950 C   0  0  0  0  0  0  0  0  0  0  0  0
   -5.3170   20.6450  -32.9810 S   0  0  0  0  0  0  0  0  0  0  0  0
   -4.9110   22.4860  -30.1310 N   0  0  0  0  0  0  0  0  0  0  0  0
   -2.6360   24.5020  -29.0880 C   0  0  0  0  0  0  0  0  0  0  0  0
   -1.6600   24.9840  -28.2110 C   0  0  0  0  0  0  0  0  0  0  0  0
   -1.2664   25.5516  -24.8752 H   0  0  0  0  0  0  0  0  0  0  0  0
    0.0165   25.1803  -26.0765 H   0  0  0  0  0  0  0  0  0  0  0  0
   -0.7744   26.7931  -26.0765 H   0  0  0  0  0  0  0  0  0  0  0  0
   -3.5145   25.1104  -25.3416 H   0  0  0  0  0  0  0  0  0  0  0  0
   -5.2552   24.2440  -26.8985 H   0  0  0  0  0  0  0  0  0  0  0  0
   -6.4324   25.3876  -29.7501 H   0  0  0  0  0  0  0  0  0  0  0  0
   -8.8054   23.8803  -30.8754 H   0  0  0  0  0  0  0  0  0  0  0  0
   -7.8837   24.6170  -32.2298 H   0  0  0  0  0  0  0  0  0  0  0  0
   -8.2243   22.8533  -32.2298 H   0  0  0  0  0  0  0  0  0  0  0  0
   -8.4960   17.9628  -31.0847 H   0  0  0  0  0  0  0  0  0  0  0  0
   -9.2190   18.5077  -32.6362 H   0  0  0  0  0  0  0  0  0  0  0  0
   -7.9327   17.2539  -32.6362 H   0  0  0  0  0  0  0  0  0  0  0  0
   -7.6067   15.8603  -34.5733 H   0  0  0  0  0  0  0  0  0  0  0  0
   -6.5673   12.9325  -32.8515 H   0  0  0  0  0  0  0  0  0  0  0  0
   -7.3892   13.2960  -34.4068 H   0  0  0  0  0  0  0  0  0  0  0  0
   -5.7222   12.6268  -34.4068 H   0  0  0  0  0  0  0  0  0  0  0  0
   -2.3465   14.3343  -34.7110 H   0  0  0  0  0  0  0  0  0  0  0  0
   -0.5824   12.7860  -33.8624 H   0  0  0  0  0  0  0  0  0  0  0  0
   -0.8466   11.6857  -31.6373 H   0  0  0  0  0  0  0  0  0  0  0  0
   -2.8724   12.1396  -30.2521 H   0  0  0  0  0  0  0  0  0  0  0  0
   -4.6384   13.6924  -31.0877 H   0  0  0  0  0  0  0  0  0  0  0  0
   -3.2904   17.1717  -31.9956 H   0  0  0  0  0  0  0  0  0  0  0  0
   -2.4010   16.6844  -33.4782 H   0  0  0  0  0  0  0  0  0  0  0  0
   -3.3954   18.1803  -33.4782 H   0  0  0  0  0  0  0  0  0  0  0  0
   -2.3844   24.3362  -30.1459 H   0  0  0  0  0  0  0  0  0  0  0  0
   -0.6447   25.1893  -28.5812 H   0  0  0  0  0  0  0  0  0  0  0  0
  1  2  1  0
  2  3  2  0
  3  4  1  0
  4  5  2  0
  5  6  1  0
  6  7  1  0
  7  8  2  0
  8  9  1  0
  8 10  1  0
 10 11  1  0
 11 12  2  0
 12 13  1  0
 13 14  1  0
 13 15  2  0
 15 16  1  0
 16 17  2  0
 16 18  1  0
 18 19  1  0
 19 20  2  0
 20 21  1  0
 20 22  1  0
 22 23  1  0
 23 24  2  0
 24 25  1  0
 25 26  2  0
 26 27  1  0
 27 28  2  0
 22 29  1  0
 29 30  1  0
 15 31  1  0
 10 32  1  0
  5 33  1  0
 33 34  2  0
 34  2  1  0
 32  6  2  0
 31 11  1  0
 29 18  2  0
 28 23  1  0
  1 35  1  0
  1 36  1  0
  1 37  1  0
  3 38  1  0
  4 39  1  0
  7 40  1  0
  9 41  1  0
  9 42  1  0
  9 43  1  0
 14 44  1  0
 14 45  1  0
 14 46  1  0
 19 47  1  0
 21 48  1  0
 21 49  1  0
 21 50  1  0
 24 51  1  0
 25 52  1  0
 26 53  1  0
 27 54  1  0
 28 55  1  0
 30 56  1  0
 30 57  1  0
 30 58  1  0
 33 59  1  0
 34 60  1  0
M  END
>  <UniqueID>  (38) 
36

>  <SMILES>  (38) 
Cc1ccc(-c2cc(C)n(-c3nc(C)c(C(=O)c4cc(C)n(-c5ccccc5)c4C)s3)n2)cc1

>  <Energy>  (38) 
161.4525926744463

>  <Genealogy>  (38) 
Cc1ccc(-c2cc(C)n(-c3nc(C)c(C(=O)c4cc(C)n(-c5ccccc5)c4C)s3)n2)cc1 (3D coordinates assigned)
Cc1ccc(-c2cc(C)n(-c3nc(C)c(C(=O)c4cc(C)n(-c5ccccc5)c4C)s3)n2)cc1 (optimized conformer: 161.4525926744463 kcal/mol)

>  <smiles>  (38) 
Cc1ccc(-c2cc(C)n(-c3nc(C)c(C(=O)c4cc(C)n(-c5ccccc5)c4C)s3)n2)cc1

>  <score_type>  (38) 
oracle

>  <origin>  (38) 
adgpu

>  <m_score__min__energy>  (38) 
-10.699999999999999

>  <m_primary>  (38) 
energy

$$$$
38:0
     RDKit          3D

 40 42  0  0  0  0  0  0  0  0999 V2000
   -1.0540   19.1390  -28.1180 N   0  0  0  0  0  0  0  0  0  0  0  0
   -1.5430   20.1020  -28.5340 C   0  0  0  0  0  0  0  0  0  0  0  0
   -2.1510   21.3040  -29.0550 C   0  0  0  0  0  0  0  0  0  0  0  0
   -2.8180   22.1640  -28.1750 C   0  0  0  0  0  0  0  0  0  0  0  0
   -3.4000   23.3490  -28.6440 C   0  0  0  0  0  0  0  0  0  0  0  0
   -4.0730   24.2220  -27.7150 C   0  0  0  0  0  0  0  0  0  0  0  0
   -4.6160   24.9220  -26.9720 N   0  0  0  0  0  0  0  0  0  0  0  0
   -3.3190   23.6880  -30.0050 C   0  0  0  0  0  0  0  0  0  0  0  0
   -3.8710   24.9090  -30.4360 O   0  0  0  0  0  0  0  0  0  0  0  0
   -5.2650   25.2200  -30.4570 C   0  0  0  0  0  0  0  0  0  0  0  0
   -6.0700   24.0190  -30.8820 C   0  0  0  0  0  0  0  0  0  0  0  0
   -7.1080   23.5340  -30.0700 C   0  0  0  0  0  0  0  0  0  0  0  0
   -7.7600   22.3420  -30.4000 C   0  0  0  0  0  0  0  0  0  0  0  0
   -7.3870   21.6290  -31.5470 C   0  0  0  0  0  0  0  0  0  0  0  0
   -8.0610   20.0350  -31.8680 S   0  0  0  0  0  0  0  0  0  0  0  0
   -9.1000   19.6790  -30.8420 O   0  0  0  0  0  0  0  0  0  0  0  0
   -8.6960   20.0390  -33.2290 O   0  0  0  0  0  0  0  0  0  0  0  0
   -6.7950   18.8490  -31.8280 N   0  0  0  0  0  0  0  0  0  0  0  0
   -6.2050   18.3570  -32.8760 C   0  0  0  0  0  0  0  0  0  0  0  0
   -6.4750   18.7050  -34.1550 N   0  0  0  0  0  0  0  0  0  0  0  0
   -5.7250   18.0030  -35.0440 C   0  0  0  0  0  0  0  0  0  0  0  0
   -4.8550   17.0810  -34.4730 C   0  0  0  0  0  0  0  0  0  0  0  0
   -5.0280   17.1640  -32.8000 S   0  0  0  0  0  0  0  0  0  0  0  0
   -6.3970   22.1450  -32.3910 C   0  0  0  0  0  0  0  0  0  0  0  0
   -5.7450   23.3380  -32.0650 C   0  0  0  0  0  0  0  0  0  0  0  0
   -2.6750   22.8040  -30.8920 C   0  0  0  0  0  0  0  0  0  0  0  0
   -2.0890   21.6210  -30.4250 C   0  0  0  0  0  0  0  0  0  0  0  0
   -1.4280   20.7480  -31.3670 C   0  0  0  0  0  0  0  0  0  0  0  0
   -0.9000   20.0490  -32.1240 N   0  0  0  0  0  0  0  0  0  0  0  0
   -2.8858   21.9077  -27.1074 H   0  0  0  0  0  0  0  0  0  0  0  0
   -5.5816   25.5295  -29.4500 H   0  0  0  0  0  0  0  0  0  0  0  0
   -5.4359   26.0342  -31.1766 H   0  0  0  0  0  0  0  0  0  0  0  0
   -7.4089   24.0934  -29.1719 H   0  0  0  0  0  0  0  0  0  0  0  0
   -8.5682   21.9629  -29.7572 H   0  0  0  0  0  0  0  0  0  0  0  0
   -7.1520   19.4410  -34.4550 H   0  0  0  0  0  0  0  0  0  0  0  0
   -5.8002   18.1525  -36.1312 H   0  0  0  0  0  0  0  0  0  0  0  0
   -4.1723   16.4134  -35.0191 H   0  0  0  0  0  0  0  0  0  0  0  0
   -6.1308   21.6098  -33.3144 H   0  0  0  0  0  0  0  0  0  0  0  0
   -4.9751   23.7439  -32.7377 H   0  0  0  0  0  0  0  0  0  0  0  0
   -2.6317   23.0456  -31.9643 H   0  0  0  0  0  0  0  0  0  0  0  0
  1  2  3  0
  2  3  1  0
  3  4  2  0
  4  5  1  0
  5  6  1  0
  6  7  3  0
  5  8  2  0
  8  9  1  0
  9 10  1  0
 10 11  1  0
 11 12  2  0
 12 13  1  0
 13 14  2  0
 14 15  1  0
 15 16  2  0
 15 17  2  0
 15 18  1  0
 18 19  2  3
 19 20  1  0
 20 21  1  0
 21 22  2  0
 22 23  1  0
 14 24  1  0
 24 25  2  0
  8 26  1  0
 26 27  2  0
 27 28  1  0
 28 29  3  0
 27  3  1  0
 25 11  1  0
 23 19  1  0
  4 30  1  0
 10 31  1  0
 10 32  1  0
 12 33  1  0
 13 34  1  0
 20 35  1  0
 21 36  1  0
 22 37  1  0
 24 38  1  0
 25 39  1  0
 26 40  1  0
M  END
>  <UniqueID>  (39) 
37

>  <SMILES>  (39) 
N#Cc1cc(C#N)c(OCc2ccc(S(=O)(=O)N=c3[nH]ccs3)cc2)cc1C#N

>  <Energy>  (39) 
73.88485363046642

>  <Genealogy>  (39) 
N#Cc1cc(C#N)c(OCc2ccc(S(=O)(=O)N=c3[nH]ccs3)cc2)cc1C#N (3D coordinates assigned)
N#Cc1cc(C#N)c(OCc2ccc(S(=O)(=O)N=c3[nH]ccs3)cc2)cc1C#N (optimized conformer: 73.88485363046642 kcal/mol)

>  <smiles>  (39) 
N#Cc1cc(C#N)c(OCc2ccc(S(=O)(=O)N=c3[nH]ccs3)cc2)cc1C#N

>  <score_type>  (39) 
oracle

>  <origin>  (39) 
adgpu

>  <m_score__min__energy>  (39) 
-10.17

>  <m_primary>  (39) 
energy

$$$$
39:0
     RDKit          3D

 53 56  0  0  0  0  0  0  0  0999 V2000
   -6.0630   19.6960  -33.7480 C   0  0  0  0  0  0  0  0  0  0  0  0
   -6.5480   20.0290  -32.4520 O   0  0  0  0  0  0  0  0  0  0  0  0
   -6.3930   21.2850  -31.8460 C   0  0  0  0  0  0  0  0  0  0  0  0
   -7.4610   22.1860  -31.9060 C   0  0  0  0  0  0  0  0  0  0  0  0
   -7.3560   23.4500  -31.3190 C   0  0  0  0  0  0  0  0  0  0  0  0
   -6.1810   23.8230  -30.6640 C   0  0  0  0  0  0  0  0  0  0  0  0
   -5.0970   22.9340  -30.5920 C   0  0  0  0  0  0  0  0  0  0  0  0
   -3.8840   23.3200  -29.9210 N   0  0  0  0  0  0  0  0  0  0  0  0
   -3.3250   24.5500  -29.9030 C   0  0  0  0  0  0  0  0  0  0  0  0
   -3.8630   25.6630  -30.5380 O   0  0  0  0  0  0  0  0  0  0  0  0
   -2.1610   24.5610  -29.1630 C   0  0  0  0  0  0  0  0  0  0  0  0
   -1.9980   23.2640  -28.7050 C   0  0  0  0  0  0  0  0  0  0  0  0
   -0.8500   22.7680  -27.9870 N   0  0  0  0  0  0  0  0  0  0  0  0
    0.4570   23.4260  -28.1690 C   0  0  0  0  0  0  0  0  0  0  0  0
    1.2620   23.4500  -26.8600 C   0  0  0  0  0  0  0  0  0  0  0  0
    0.3550   23.6360  -25.7230 N   0  0  0  0  0  0  0  0  0  0  0  0
    0.4590   24.8170  -24.9190 C   0  0  0  0  0  0  0  0  0  0  0  0
    1.7160   25.2450  -24.4740 C   0  0  0  0  0  0  0  0  0  0  0  0
    1.8300   26.4010  -23.6990 C   0  0  0  0  0  0  0  0  0  0  0  0
    0.6890   27.1350  -23.3680 C   0  0  0  0  0  0  0  0  0  0  0  0
   -0.5690   26.7190  -23.8130 C   0  0  0  0  0  0  0  0  0  0  0  0
   -0.6940   25.5560  -24.5990 C   0  0  0  0  0  0  0  0  0  0  0  0
   -1.9340   25.1100  -25.0820 O   0  0  0  0  0  0  0  0  0  0  0  0
   -2.6220   25.6770  -26.1900 C   0  0  0  0  0  0  0  0  0  0  0  0
   -0.7960   22.7400  -25.5410 C   0  0  0  0  0  0  0  0  0  0  0  0
   -1.0440   21.9140  -26.8080 C   0  0  0  0  0  0  0  0  0  0  0  0
   -3.0750   22.5300  -29.1840 C   0  0  0  0  0  0  0  0  0  0  0  0
   -3.3240   21.1770  -28.9560 O   0  0  0  0  0  0  0  0  0  0  0  0
   -5.2090   21.6640  -31.1830 C   0  0  0  0  0  0  0  0  0  0  0  0
   -5.1595   19.0757  -33.6532 H   0  0  0  0  0  0  0  0  0  0  0  0
   -6.8357   19.1371  -34.2962 H   0  0  0  0  0  0  0  0  0  0  0  0
   -5.8189   20.6179  -34.2962 H   0  0  0  0  0  0  0  0  0  0  0  0
   -8.3904   21.8977  -32.4189 H   0  0  0  0  0  0  0  0  0  0  0  0
   -8.2009   24.1523  -31.3732 H   0  0  0  0  0  0  0  0  0  0  0  0
   -6.1042   24.8183  -30.2021 H   0  0  0  0  0  0  0  0  0  0  0  0
   -1.5002   25.4203  -28.9757 H   0  0  0  0  0  0  0  0  0  0  0  0
    1.0302   22.8779  -28.9312 H   0  0  0  0  0  0  0  0  0  0  0  0
    0.2798   24.4648  -28.4846 H   0  0  0  0  0  0  0  0  0  0  0  0
    1.8011   22.4981  -26.7452 H   0  0  0  0  0  0  0  0  0  0  0  0
    1.9813   24.2817  -26.8909 H   0  0  0  0  0  0  0  0  0  0  0  0
    2.6159   24.6690  -24.7357 H   0  0  0  0  0  0  0  0  0  0  0  0
    2.8185   26.7334  -23.3492 H   0  0  0  0  0  0  0  0  0  0  0  0
    0.7806   28.0437  -22.7549 H   0  0  0  0  0  0  0  0  0  0  0  0
   -1.4642   27.3012  -23.5489 H   0  0  0  0  0  0  0  0  0  0  0  0
   -3.4229   26.3371  -25.8255 H   0  0  0  0  0  0  0  0  0  0  0  0
   -1.9164   26.2594  -26.8007 H   0  0  0  0  0  0  0  0  0  0  0  0
   -3.0588   24.8731  -26.8007 H   0  0  0  0  0  0  0  0  0  0  0  0
   -0.5951   22.0600  -24.7000 H   0  0  0  0  0  0  0  0  0  0  0  0
   -1.6890   23.3482  -25.3344 H   0  0  0  0  0  0  0  0  0  0  0  0
   -0.3365   21.0724  -26.8429 H   0  0  0  0  0  0  0  0  0  0  0  0
   -2.0725   21.5240  -26.7994 H   0  0  0  0  0  0  0  0  0  0  0  0
   -2.5950   20.5380  -28.6720 H   0  0  0  0  0  0  0  0  0  0  0  0
   -4.3655   20.9601  -31.1275 H   0  0  0  0  0  0  0  0  0  0  0  0
  1  2  1  0
  2  3  1  0
  3  4  2  0
  4  5  1  0
  5  6  2  0
  6  7  1  0
  7  8  1  0
  8  9  1  0
  9 10  1  0
  9 11  2  0
 11 12  1  0
 12 13  1  0
 13 14  1  0
 14 15  1  0
 15 16  1  0
 16 17  1  0
 17 18  2  0
 18 19  1  0
 19 20  2  0
 20 21  1  0
 21 22  2  0
 22 23  1  0
 23 24  1  0
 16 25  1  0
 25 26  1  0
 12 27  2  0
 27 28  1  0
  7 29  2  0
 29  3  1  0
 27  8  1  0
 26 13  1  0
 22 17  1  0
  1 30  1  0
  1 31  1  0
  1 32  1  0
  4 33  1  0
  5 34  1  0
  6 35  1  0
 11 36  1  0
 14 37  1  0
 14 38  1  0
 15 39  1  0
 15 40  1  0
 18 41  1  0
 19 42  1  0
 20 43  1  0
 21 44  1  0
 24 45  1  0
 24 46  1  0
 24 47  1  0
 25 48  1  0
 25 49  1  0
 26 50  1  0
 26 51  1  0
 28 52  1  0
 29 53  1  0
M  CHG  1  10  -1
M  END
>  <UniqueID>  (40) 
38

>  <SMILES>  (40) 
COc1cccc(-n2c([O-])cc(N3CCN(c4ccccc4OC)CC3)c2O)c1

>  <Energy>  (40) 
99.42024590936285

>  <Genealogy>  (40) 
COc1cccc(-n2c([O-])cc(N3CCN(c4ccccc4OC)CC3)c2O)c1 (protonated)
COc1cccc(-n2c([O-])cc(N3CCN(c4ccccc4OC)CC3)c2O)c1 (3D coordinates assigned)
COc1cccc(-n2c([O-])cc(N3CCN(c4ccccc4OC)CC3)c2O)c1 (nonaromatic ring conformer: 99.42024590936285 kcal/mol)

>  <smiles>  (40) 
COc1cccc(-n2c(O)cc(N3CCN(c4ccccc4OC)CC3)c2O)c1

>  <score_type>  (40) 
oracle

>  <origin>  (40) 
adgpu

>  <m_score__min__energy>  (40) 
-9.5099999999999998

>  <m_primary>  (40) 
energy

$$$$
40:0
     RDKit          3D

 29 30  0  0  0  0  0  0  0  0999 V2000
   -3.8520   24.5100  -30.8730 O   0  0  0  0  0  0  0  0  0  0  0  0
   -4.9110   23.6100  -30.9980 C   0  0  0  0  0  0  0  0  0  0  0  0
   -6.1760   23.9750  -30.5110 C   0  0  0  0  0  0  0  0  0  0  0  0
   -6.4440   25.6740  -29.6720 Br  0  0  0  0  0  0  0  0  0  0  0  0
   -7.2550   23.0950  -30.6250 C   0  0  0  0  0  0  0  0  0  0  0  0
   -7.0860   21.8390  -31.2260 C   0  0  0  0  0  0  0  0  0  0  0  0
   -8.2370   20.8660  -31.2900 C   0  0  0  0  0  0  0  0  0  0  0  0
   -8.4470   20.3280  -32.7130 C   0  0  0  0  0  0  0  0  0  0  0  0
   -7.4550   19.2450  -33.0530 C   0  0  0  0  0  0  0  0  0  0  0  0
   -6.4890   19.4550  -34.0530 C   0  0  0  0  0  0  0  0  0  0  0  0
   -5.5370   18.4700  -34.3310 C   0  0  0  0  0  0  0  0  0  0  0  0
   -5.5400   17.2710  -33.6120 C   0  0  0  0  0  0  0  0  0  0  0  0
   -6.4930   17.0580  -32.6120 C   0  0  0  0  0  0  0  0  0  0  0  0
   -7.4450   18.0410  -32.3300 C   0  0  0  0  0  0  0  0  0  0  0  0
   -5.8230   21.4690  -31.7040 C   0  0  0  0  0  0  0  0  0  0  0  0
   -4.7370   22.3460  -31.6000 C   0  0  0  0  0  0  0  0  0  0  0  0
   -3.0390   21.7710  -32.2770 Br  0  0  0  0  0  0  0  0  0  0  0  0
   -3.1430   24.6280  -31.5850 H   0  0  0  0  0  0  0  0  0  0  0  0
   -8.2431   23.3889  -30.2411 H   0  0  0  0  0  0  0  0  0  0  0  0
   -8.0279   20.0216  -30.6168 H   0  0  0  0  0  0  0  0  0  0  0  0
   -9.1515   21.3958  -30.9851 H   0  0  0  0  0  0  0  0  0  0  0  0
   -9.4642   19.9169  -32.7919 H   0  0  0  0  0  0  0  0  0  0  0  0
   -8.3013   21.1594  -33.4183 H   0  0  0  0  0  0  0  0  0  0  0  0
   -6.4825   20.3983  -34.6188 H   0  0  0  0  0  0  0  0  0  0  0  0
   -4.7850   18.6383  -35.1160 H   0  0  0  0  0  0  0  0  0  0  0  0
   -4.7923   16.4952  -33.8333 H   0  0  0  0  0  0  0  0  0  0  0  0
   -6.4935   16.1148  -32.0460 H   0  0  0  0  0  0  0  0  0  0  0  0
   -8.1897   17.8712  -31.5385 H   0  0  0  0  0  0  0  0  0  0  0  0
   -5.6830   20.4803  -32.1654 H   0  0  0  0  0  0  0  0  0  0  0  0
  1  2  1  0
  2  3  2  0
  3  4  1  0
  3  5  1  0
  5  6  2  0
  6  7  1  0
  7  8  1  0
  8  9  1  0
  9 10  2  0
 10 11  1  0
 11 12  2  0
 12 13  1  0
 13 14  2  0
  6 15  1  0
 15 16  2  0
 16 17  1  0
 16  2  1  0
 14  9  1  0
  1 18  1  0
  5 19  1  0
  7 20  1  0
  7 21  1  0
  8 22  1  0
  8 23  1  0
 10 24  1  0
 11 25  1  0
 12 26  1  0
 13 27  1  0
 14 28  1  0
 15 29  1  0
M  END
>  <UniqueID>  (41) 
39

>  <SMILES>  (41) 
Oc1c(Br)cc(CCc2ccccc2)cc1Br

>  <Energy>  (41) 
26.541269215925674

>  <Genealogy>  (41) 
Oc1c(Br)cc(CCc2ccccc2)cc1Br (3D coordinates assigned)
Oc1c(Br)cc(CCc2ccccc2)cc1Br (optimized conformer: 26.541269215925674 kcal/mol)

>  <smiles>  (41) 
Oc1c(Br)cc(CCc2ccccc2)cc1Br

>  <score_type>  (41) 
oracle

>  <origin>  (41) 
adgpu

>  <m_score__min__energy>  (41) 
-8.5399999999999991

>  <m_primary>  (41) 
energy

$$$$
41:0
     RDKit          3D

 52 55  0  0  0  0  0  0  0  0999 V2000
   -0.4722   23.7423  -28.2487 H   0  0  0  0  0  0  0  0  0  0  0  0
   -1.5090   23.7340  -28.6160 C   0  0  0  0  0  0  0  0  0  0  0  0
   -1.9970   24.6810  -29.4620 N   0  0  0  0  0  0  0  0  0  0  0  0
   -3.2920   24.4570  -29.7730 C   0  0  0  0  0  0  0  0  0  0  0  0
   -3.9880   25.2960  -30.4810 N   0  0  0  0  0  0  0  0  0  0  0  0
   -5.3750   25.1450  -30.8000 C   0  0  0  0  0  0  0  0  0  0  0  0
   -6.2650   25.6810  -30.0860 O   0  0  0  0  0  0  0  0  0  0  0  0
   -5.7490   24.3900  -31.9550 N   0  0  0  0  0  0  0  0  0  0  0  0
   -5.5470   22.9720  -32.0710 C   0  0  0  0  0  0  0  0  0  0  0  0
   -4.3730   22.4630  -32.6520 C   0  0  0  0  0  0  0  0  0  0  0  0
   -3.6342   23.1587  -33.0764 H   0  0  0  0  0  0  0  0  0  0  0  0
   -4.1270   21.0810  -32.7000 C   0  0  0  0  0  0  0  0  0  0  0  0
   -2.8740   20.5710  -33.3030 C   0  0  0  0  0  0  0  0  0  0  0  0
   -1.7650   21.0810  -32.9840 O   0  0  0  0  0  0  0  0  0  0  0  0
   -2.9220   19.4600  -34.2140 N   0  0  0  0  0  0  0  0  0  0  0  0
   -3.8250   18.3450  -34.1600 C   0  0  0  0  0  0  0  0  0  0  0  0
   -5.0840   18.4760  -34.7510 C   0  0  0  0  0  0  0  0  0  0  0  0
   -5.3690   19.4272  -35.2243 H   0  0  0  0  0  0  0  0  0  0  0  0
   -5.9810   17.4100  -34.7450 C   0  0  0  0  0  0  0  0  0  0  0  0
   -6.9745   17.5292  -35.2020 H   0  0  0  0  0  0  0  0  0  0  0  0
   -5.6260   16.1880  -34.1610 C   0  0  0  0  0  0  0  0  0  0  0  0
   -6.8030   14.8780  -34.2140 Cl  0  0  0  0  0  0  0  0  0  0  0  0
   -4.3500   16.0260  -33.5740 C   0  0  0  0  0  0  0  0  0  0  0  0
   -3.9350   14.6940  -32.9840 C   0  0  0  0  0  0  0  0  0  0  0  0
   -2.6340   14.7850  -32.5200 F   0  0  0  0  0  0  0  0  0  0  0  0
   -4.0040   13.7110  -33.9540 F   0  0  0  0  0  0  0  0  0  0  0  0
   -4.7510   14.3150  -31.9310 F   0  0  0  0  0  0  0  0  0  0  0  0
   -3.4520   17.1120  -33.5930 C   0  0  0  0  0  0  0  0  0  0  0  0
   -2.4478   16.9946  -33.1596 H   0  0  0  0  0  0  0  0  0  0  0  0
   -5.0720   20.2030  -32.1470 C   0  0  0  0  0  0  0  0  0  0  0  0
   -4.8928   19.1180  -32.1744 H   0  0  0  0  0  0  0  0  0  0  0  0
   -6.2390   20.7000  -31.5620 C   0  0  0  0  0  0  0  0  0  0  0  0
   -6.9718   20.0015  -31.1318 H   0  0  0  0  0  0  0  0  0  0  0  0
   -6.4870   22.0800  -31.5170 C   0  0  0  0  0  0  0  0  0  0  0  0
   -7.7350   22.6000  -30.8540 C   0  0  0  0  0  0  0  0  0  0  0  0
   -7.6174   22.5510  -29.7614 H   0  0  0  0  0  0  0  0  0  0  0  0
   -7.9042   23.6435  -31.1581 H   0  0  0  0  0  0  0  0  0  0  0  0
   -8.5951   21.9854  -31.1581 H   0  0  0  0  0  0  0  0  0  0  0  0
   -3.8910   23.0720  -29.0070 S   0  0  0  0  0  0  0  0  0  0  0  0
   -2.4250   22.7570  -28.2540 C   0  0  0  0  0  0  0  0  0  0  0  0
   -2.1340   21.4250  -27.0950 S   0  0  0  0  0  0  0  0  0  0  0  0
   -1.2410   20.4570  -28.3110 C   0  0  0  0  0  0  0  0  0  0  0  0
   -0.2460   19.5590  -27.9020 C   0  0  0  0  0  0  0  0  0  0  0  0
    0.0014   19.4618  -26.8346 H   0  0  0  0  0  0  0  0  0  0  0  0
    0.4330   18.7860  -28.8500 C   0  0  0  0  0  0  0  0  0  0  0  0
    1.2115   18.0792  -28.5269 H   0  0  0  0  0  0  0  0  0  0  0  0
    0.1230   18.9110  -30.2080 C   0  0  0  0  0  0  0  0  0  0  0  0
    0.6551   18.3002  -30.9521 H   0  0  0  0  0  0  0  0  0  0  0  0
   -0.8640   19.8130  -30.6200 C   0  0  0  0  0  0  0  0  0  0  0  0
   -1.1046   19.9153  -31.6885 H   0  0  0  0  0  0  0  0  0  0  0  0
   -1.5450   20.5850  -29.6720 C   0  0  0  0  0  0  0  0  0  0  0  0
   -2.3209   21.2940  -29.9966 H   0  0  0  0  0  0  0  0  0  0  0  0
  1  2  1  0
  2  3  1  0
  3  4  1  0
  4  5  2  0
  5  6  1  0
  6  7  2  0
  6  8  1  0
  8  9  1  0
  9 10  2  0
 10 11  1  0
 10 12  1  0
 12 13  1  0
 13 14  2  0
 13 15  1  0
 15 16  1  0
 16 17  2  0
 17 18  1  0
 17 19  1  0
 19 20  1  0
 19 21  2  0
 21 22  1  0
 21 23  1  0
 23 24  1  0
 24 25  1  0
 24 26  1  0
 24 27  1  0
 23 28  2  0
 28 29  1  0
 12 30  2  0
 30 31  1  0
 30 32  1  0
 32 33  1  0
 32 34  2  0
 34 35  1  0
 35 36  1  0
 35 37  1  0
 35 38  1  0
  4 39  1  0
 39 40  1  0
 40 41  1  0
 41 42  1  0
 42 43  2  0
 43 44  1  0
 43 45  1  0
 45 46  1  0
 45 47  2  0
 47 48  1  0
 47 49  1  0
 49 50  1  0
 49 51  2  0
 51 52  1  0
 40  2  2  0
 51 42  1  0
 34  9  1  0
 28 16  1  0
M  CHG  3   3  -1   8  -1  15  -1
M  END
>  <UniqueID>  (42) 
40

>  <SMILES>  (42) 
Cc1ccc(C(=O)[N-]c2ccc(Cl)c(C(F)(F)F)c2)cc1[N-]C(=O)/N=c1/[n-]cc(Sc2ccccc2)s1

>  <Energy>  (42) 
97.54754188489466

>  <Genealogy>  (42) 
Cc1ccc(C(=O)[N-]c2ccc(Cl)c(C(F)(F)F)c2)cc1[N-]C(=O)N=c1[n-]cc(Sc2ccccc2)s1 (protonated)
Cc1ccc(C(=O)[N-]c2ccc(Cl)c(C(F)(F)F)c2)cc1[N-]C(=O)/N=c1/[n-]cc(Sc2ccccc2)s1 (cis-trans isomerization)
Cc1ccc(C(=O)[N-]c2ccc(Cl)c(C(F)(F)F)c2)cc1[N-]C(=O)/N=c1/[n-]cc(Sc2ccccc2)s1 (3D coordinates assigned)
Cc1ccc(C(=O)[N-]c2ccc(Cl)c(C(F)(F)F)c2)cc1[N-]C(=O)/N=c1/[n-]cc(Sc2ccccc2)s1 (optimized conformer: 97.54754188489466 kcal/mol)

>  <smiles>  (42) 
Cc1ccc(C(=O)Nc2ccc(Cl)c(C(F)(F)F)c2)cc1NC(=O)N=c1[nH]cc(Sc2ccccc2)s1

>  <score_type>  (42) 
oracle

>  <origin>  (42) 
adgpu

>  <m_score__min__energy>  (42) 
-11.93

>  <m_primary>  (42) 
energy

$$$$
42:0
     RDKit          3D

 70 74  0  0  0  0  0  0  0  0999 V2000
   -2.7630   12.6040  -33.4200 C   0  0  0  0  0  0  0  0  0  0  0  0
   -3.8450   12.2130  -32.4990 N   0  0  0  0  0  0  0  0  0  0  0  0
   -5.0050   11.6250  -33.2150 C   0  0  0  0  0  0  0  0  0  0  0  0
   -6.1350   12.6360  -33.4830 C   0  0  0  0  0  0  0  0  0  0  0  0
   -5.5730   13.9880  -33.6120 N   0  0  0  0  0  0  0  0  0  0  0  0
   -6.4980   14.9660  -34.2240 C   0  0  0  0  0  0  0  0  0  0  0  0
   -6.1920   16.4100  -33.8810 C   0  0  0  0  0  0  0  0  0  0  0  0
   -6.8910   17.0630  -32.8540 C   0  0  0  0  0  0  0  0  0  0  0  0
   -6.5830   18.3830  -32.5110 C   0  0  0  0  0  0  0  0  0  0  0  0
   -5.5700   19.0810  -33.1950 C   0  0  0  0  0  0  0  0  0  0  0  0
   -5.2220   20.4800  -32.8360 C   0  0  0  0  0  0  0  0  0  0  0  0
   -4.2980   21.0660  -33.4670 O   0  0  0  0  0  0  0  0  0  0  0  0
   -5.9500   21.1950  -31.8240 N   0  0  0  0  0  0  0  0  0  0  0  0
   -5.4650   22.3990  -31.2020 C   0  0  0  0  0  0  0  0  0  0  0  0
   -5.9780   23.6400  -31.6090 C   0  0  0  0  0  0  0  0  0  0  0  0
   -5.5230   24.8210  -31.0180 C   0  0  0  0  0  0  0  0  0  0  0  0
   -4.5560   24.7750  -30.0110 C   0  0  0  0  0  0  0  0  0  0  0  0
   -4.0430   23.5430  -29.5780 C   0  0  0  0  0  0  0  0  0  0  0  0
   -3.0460   23.4930  -28.5380 N   0  0  0  0  0  0  0  0  0  0  0  0
   -2.8950   22.3340  -27.8260 C   0  0  0  0  0  0  0  0  0  0  0  0
   -1.9260   22.2340  -26.8280 C   0  0  0  0  0  0  0  0  0  0  0  0
   -1.1070   23.3250  -26.5530 C   0  0  0  0  0  0  0  0  0  0  0  0
   -1.2650   24.5150  -27.2720 C   0  0  0  0  0  0  0  0  0  0  0  0
   -0.3950   25.6720  -26.9740 C   0  0  0  0  0  0  0  0  0  0  0  0
   -0.9390   26.7950  -26.3300 C   0  0  0  0  0  0  0  0  0  0  0  0
   -0.1340   27.8980  -26.0330 C   0  0  0  0  0  0  0  0  0  0  0  0
   -0.8200   29.2900  -25.2110 Cl  0  0  0  0  0  0  0  0  0  0  0  0
    1.2160   27.8920  -26.3900 C   0  0  0  0  0  0  0  0  0  0  0  0
    1.7640   26.7860  -27.0450 C   0  0  0  0  0  0  0  0  0  0  0  0
    0.9650   25.6640  -27.3430 C   0  0  0  0  0  0  0  0  0  0  0  0
    1.4780   24.5390  -28.0150 O   0  0  0  0  0  0  0  0  0  0  0  0
    2.2950   23.5370  -27.4200 C   0  0  0  0  0  0  0  0  0  0  0  0
    1.6020   22.3420  -27.4000 F   0  0  0  0  0  0  0  0  0  0  0  0
    2.6150   23.8930  -26.1230 F   0  0  0  0  0  0  0  0  0  0  0  0
   -2.2450   24.5800  -28.2830 C   0  0  0  0  0  0  0  0  0  0  0  0
   -2.3640   25.6340  -28.9700 O   0  0  0  0  0  0  0  0  0  0  0  0
   -4.5120   22.3560  -30.1670 C   0  0  0  0  0  0  0  0  0  0  0  0
   -4.8630   18.4180  -34.2160 C   0  0  0  0  0  0  0  0  0  0  0  0
   -5.1670   17.0960  -34.5490 C   0  0  0  0  0  0  0  0  0  0  0  0
   -4.9760   14.4570  -32.3440 C   0  0  0  0  0  0  0  0  0  0  0  0
   -4.2350   13.3200  -31.6030 C   0  0  0  0  0  0  0  0  0  0  0  0
   -1.8842   12.9216  -32.8395 H   0  0  0  0  0  0  0  0  0  0  0  0
   -2.4933   11.7465  -34.0540 H   0  0  0  0  0  0  0  0  0  0  0  0
   -3.1038   13.4358  -34.0540 H   0  0  0  0  0  0  0  0  0  0  0  0
   -4.6551   11.2294  -34.1799 H   0  0  0  0  0  0  0  0  0  0  0  0
   -5.4203   10.8377  -32.5687 H   0  0  0  0  0  0  0  0  0  0  0  0
   -6.6536   12.3656  -34.4147 H   0  0  0  0  0  0  0  0  0  0  0  0
   -6.8462   12.6168  -32.6440 H   0  0  0  0  0  0  0  0  0  0  0  0
   -6.4461   14.8527  -35.3169 H   0  0  0  0  0  0  0  0  0  0  0  0
   -7.4982   14.7505  -33.8200 H   0  0  0  0  0  0  0  0  0  0  0  0
   -7.6884   16.5315  -32.3140 H   0  0  0  0  0  0  0  0  0  0  0  0
   -7.1365   18.8797  -31.7005 H   0  0  0  0  0  0  0  0  0  0  0  0
   -6.9350   20.9080  -31.6260 H   0  0  0  0  0  0  0  0  0  0  0  0
   -6.7431   23.6831  -32.3982 H   0  0  0  0  0  0  0  0  0  0  0  0
   -5.9273   25.7899  -31.3464 H   0  0  0  0  0  0  0  0  0  0  0  0
   -4.1951   25.7089  -29.5554 H   0  0  0  0  0  0  0  0  0  0  0  0
   -3.5442   21.4730  -28.0430 H   0  0  0  0  0  0  0  0  0  0  0  0
   -1.8098   21.2983  -26.2615 H   0  0  0  0  0  0  0  0  0  0  0  0
   -0.3364   23.2520  -25.7714 H   0  0  0  0  0  0  0  0  0  0  0  0
   -2.0047   26.8065  -26.0578 H   0  0  0  0  0  0  0  0  0  0  0  0
    1.8496   28.7600  -26.1550 H   0  0  0  0  0  0  0  0  0  0  0  0
    2.8264   26.7911  -27.3300 H   0  0  0  0  0  0  0  0  0  0  0  0
    3.2200   23.4312  -28.0057 H   0  0  0  0  0  0  0  0  0  0  0  0
   -4.1311   21.3855  -29.8162 H   0  0  0  0  0  0  0  0  0  0  0  0
   -4.0637   18.9460  -34.7566 H   0  0  0  0  0  0  0  0  0  0  0  0
   -4.5978   16.5886  -35.3418 H   0  0  0  0  0  0  0  0  0  0  0  0
   -4.2612   15.2637  -32.5639 H   0  0  0  0  0  0  0  0  0  0  0  0
   -5.7889   14.8150  -31.6952 H   0  0  0  0  0  0  0  0  0  0  0  0
   -3.3271   13.7348  -31.1408 H   0  0  0  0  0  0  0  0  0  0  0  0
   -4.9247   12.9101  -30.8505 H   0  0  0  0  0  0  0  0  0  0  0  0
  1  2  1  0
  2  3  1  0
  3  4  1  0
  4  5  1  0
  5  6  1  0
  6  7  1  0
  7  8  2  0
  8  9  1  0
  9 10  2  0
 10 11  1  0
 11 12  2  0
 11 13  1  0
 13 14  1  0
 14 15  2  0
 15 16  1  0
 16 17  2  0
 17 18  1  0
 18 19  1  0
 19 20  1  0
 20 21  2  0
 21 22  1  0
 22 23  2  0
 23 24  1  0
 24 25  2  0
 25 26  1  0
 26 27  1  0
 26 28  2  0
 28 29  1  0
 29 30  2  0
 30 31  1  0
 31 32  1  0
 32 33  1  0
 32 34  1  0
 23 35  1  0
 35 36  2  0
 18 37  2  0
 10 38  1  0
 38 39  2  0
  5 40  1  0
 40 41  1  0
 41  2  1  0
 39  7  1  0
 37 14  1  0
 35 19  1  0
 30 24  1  0
  1 42  1  0
  1 43  1  0
  1 44  1  0
  3 45  1  0
  3 46  1  0
  4 47  1  0
  4 48  1  0
  6 49  1  0
  6 50  1  0
  8 51  1  0
  9 52  1  0
 13 53  1  0
 15 54  1  0
 16 55  1  0
 17 56  1  0
 20 57  1  0
 21 58  1  0
 22 59  1  0
 25 60  1  0
 28 61  1  0
 29 62  1  0
 32 63  1  0
 37 64  1  0
 38 65  1  0
 39 66  1  0
 40 67  1  0
 40 68  1  0
 41 69  1  0
 41 70  1  0
M  END
>  <UniqueID>  (43) 
41

>  <SMILES>  (43) 
CN1CCN(Cc2ccc(C(=O)Nc3cccc(-n4cccc(-c5cc(Cl)ccc5OC(F)F)c4=O)c3)cc2)CC1

>  <Energy>  (43) 
110.80679363283893

>  <Genealogy>  (43) 
CN1CCN(Cc2ccc(C(=O)Nc3cccc(-n4cccc(-c5cc(Cl)ccc5OC(F)F)c4=O)c3)cc2)CC1 (3D coordinates assigned)
CN1CCN(Cc2ccc(C(=O)Nc3cccc(-n4cccc(-c5cc(Cl)ccc5OC(F)F)c4=O)c3)cc2)CC1 (nonaromatic ring conformer: 110.80679363283893 kcal/mol)

>  <smiles>  (43) 
CN1CCN(Cc2ccc(C(=O)Nc3cccc(-n4cccc(-c5cc(Cl)ccc5OC(F)F)c4=O)c3)cc2)CC1

>  <score_type>  (43) 
oracle

>  <origin>  (43) 
adgpu

>  <m_score__min__energy>  (43) 
-10.06

>  <m_primary>  (43) 
energy

$$$$
43:0
     RDKit          3D

 46 48  0  0  0  0  0  0  0  0999 V2000
   -5.7740   13.0710  -33.9440 C   0  0  0  0  0  0  0  0  0  0  0  0
   -5.8160   14.5400  -33.6430 C   0  0  0  0  0  0  0  0  0  0  0  0
   -6.8090   15.3500  -34.2140 C   0  0  0  0  0  0  0  0  0  0  0  0
   -6.8690   16.7120  -33.9080 C   0  0  0  0  0  0  0  0  0  0  0  0
   -5.9410   17.2780  -33.0230 C   0  0  0  0  0  0  0  0  0  0  0  0
   -6.0350   18.9940  -32.6450 S   0  0  0  0  0  0  0  0  0  0  0  0
   -6.3970   19.2110  -31.2030 O   0  0  0  0  0  0  0  0  0  0  0  0
   -7.1430   19.5630  -33.4860 O   0  0  0  0  0  0  0  0  0  0  0  0
   -4.5110   19.8350  -33.0030 C   0  0  0  0  0  0  0  0  0  0  0  0
   -3.5080   19.0970  -33.6590 C   0  0  0  0  0  0  0  0  0  0  0  0
   -2.2670   19.6670  -33.9590 C   0  0  0  0  0  0  0  0  0  0  0  0
   -1.2630   18.8960  -34.6250 N   0  0  0  0  0  0  0  0  0  0  0  0
   -2.0130   20.9900  -33.6000 C   0  0  0  0  0  0  0  0  0  0  0  0
   -2.9920   21.7430  -32.9570 C   0  0  0  0  0  0  0  0  0  0  0  0
   -4.2540   21.1960  -32.6660 C   0  0  0  0  0  0  0  0  0  0  0  0
   -5.4240   22.2600  -31.8570 S   0  0  0  0  0  0  0  0  0  0  0  0
   -6.0270   21.5810  -30.6590 O   0  0  0  0  0  0  0  0  0  0  0  0
   -6.5460   22.5360  -32.8180 O   0  0  0  0  0  0  0  0  0  0  0  0
   -4.7570   23.7770  -31.3430 N   0  0  0  0  0  0  0  0  0  0  0  0
   -3.8200   24.0300  -30.4730 C   0  0  0  0  0  0  0  0  0  0  0  0
   -3.4850   25.2630  -30.1730 O   0  0  0  0  0  0  0  0  0  0  0  0
   -2.5200   25.2960  -29.3020 N   0  0  0  0  0  0  0  0  0  0  0  0
   -2.2040   24.0200  -29.0160 C   0  0  0  0  0  0  0  0  0  0  0  0
   -1.0970   23.6380  -28.0850 C   0  0  0  0  0  0  0  0  0  0  0  0
   -3.0170   23.1580  -29.7370 C   0  0  0  0  0  0  0  0  0  0  0  0
   -2.8660   21.6670  -29.7980 C   0  0  0  0  0  0  0  0  0  0  0  0
   -4.9690   16.4640  -32.4250 C   0  0  0  0  0  0  0  0  0  0  0  0
   -4.9080   15.1010  -32.7330 C   0  0  0  0  0  0  0  0  0  0  0  0
   -5.7578   12.5039  -33.0016 H   0  0  0  0  0  0  0  0  0  0  0  0
   -6.6645   12.7903  -34.5256 H   0  0  0  0  0  0  0  0  0  0  0  0
   -4.8689   12.8416  -34.5256 H   0  0  0  0  0  0  0  0  0  0  0  0
   -7.5433   14.9111  -34.9054 H   0  0  0  0  0  0  0  0  0  0  0  0
   -7.6472   17.3423  -34.3632 H   0  0  0  0  0  0  0  0  0  0  0  0
   -3.7041   18.0520  -33.9410 H   0  0  0  0  0  0  0  0  0  0  0  0
   -0.3790   19.3420  -34.9570 H   0  0  0  0  0  0  0  0  0  0  0  0
   -1.3960   17.8730  -34.7920 H   0  0  0  0  0  0  0  0  0  0  0  0
   -1.0353   21.4408  -33.8256 H   0  0  0  0  0  0  0  0  0  0  0  0
   -2.7744   22.7829  -32.6720 H   0  0  0  0  0  0  0  0  0  0  0  0
   -1.4358   23.7549  -27.0450 H   0  0  0  0  0  0  0  0  0  0  0  0
   -0.8136   22.5901  -28.2627 H   0  0  0  0  0  0  0  0  0  0  0  0
   -0.2277   24.2881  -28.2627 H   0  0  0  0  0  0  0  0  0  0  0  0
   -2.8248   21.2605  -28.7767 H   0  0  0  0  0  0  0  0  0  0  0  0
   -3.7248   21.2330  -30.3310 H   0  0  0  0  0  0  0  0  0  0  0  0
   -1.9376   21.4140  -30.3310 H   0  0  0  0  0  0  0  0  0  0  0  0
   -4.2527   16.8981  -31.7120 H   0  0  0  0  0  0  0  0  0  0  0  0
   -4.1446   14.4662  -32.2595 H   0  0  0  0  0  0  0  0  0  0  0  0
  1  2  1  0
  2  3  2  0
  3  4  1  0
  4  5  2  0
  5  6  1  0
  6  7  2  0
  6  8  2  0
  6  9  1  0
  9 10  2  0
 10 11  1  0
 11 12  1  0
 11 13  2  0
 13 14  1  0
 14 15  2  0
 15 16  1  0
 16 17  2  0
 16 18  2  0
 16 19  1  0
 19 20  2  3
 20 21  1  0
 21 22  1  0
 22 23  1  0
 23 24  1  0
 23 25  2  0
 25 26  1  0
  5 27  1  0
 27 28  2  0
 28  2  1  0
 15  9  1  0
 25 20  1  0
  1 29  1  0
  1 30  1  0
  1 31  1  0
  3 32  1  0
  4 33  1  0
 10 34  1  0
 12 35  1  0
 12 36  1  0
 13 37  1  0
 14 38  1  0
 24 39  1  0
 24 40  1  0
 24 41  1  0
 26 42  1  0
 26 43  1  0
 26 44  1  0
 27 45  1  0
 28 46  1  0
M  CHG  1  22  -1
M  END
>  <UniqueID>  (44) 
42

>  <SMILES>  (44) 
Cc1ccc(S(=O)(=O)c2cc(N)ccc2S(=O)(=O)N=c2o[n-]c(C)c2C)cc1

>  <Energy>  (44) 
91.62925447751631

>  <Genealogy>  (44) 
Cc1ccc(S(=O)(=O)c2cc(N)ccc2S(=O)(=O)N=c2o[n-]c(C)c2C)cc1 (protonated)
Cc1ccc(S(=O)(=O)c2cc(N)ccc2S(=O)(=O)N=c2o[n-]c(C)c2C)cc1 (3D coordinates assigned)
Cc1ccc(S(=O)(=O)c2cc(N)ccc2S(=O)(=O)N=c2o[n-]c(C)c2C)cc1 (optimized conformer: 91.62925447751631 kcal/mol)

>  <smiles>  (44) 
Cc1ccc(S(=O)(=O)c2cc(N)ccc2S(=O)(=O)N=c2o[nH]c(C)c2C)cc1

>  <score_type>  (44) 
oracle

>  <origin>  (44) 
adgpu

>  <m_score__min__energy>  (44) 
-10.92

>  <m_primary>  (44) 
energy

$$$$
44:0
     RDKit          3D

 59 62  0  0  0  0  0  0  0  0999 V2000
   -0.2820   21.0910  -31.3690 C   0  0  0  0  0  0  0  0  0  0  0  0
   -0.2780   21.5210  -30.0120 O   0  0  0  0  0  0  0  0  0  0  0  0
   -1.0270   20.9250  -28.9840 C   0  0  0  0  0  0  0  0  0  0  0  0
   -0.4800   19.9340  -28.1440 C   0  0  0  0  0  0  0  0  0  0  0  0
   -1.2410   19.3850  -27.1100 C   0  0  0  0  0  0  0  0  0  0  0  0
   -2.5510   19.8130  -26.9010 C   0  0  0  0  0  0  0  0  0  0  0  0
   -3.1100   20.7870  -27.7300 C   0  0  0  0  0  0  0  0  0  0  0  0
   -2.3580   21.3430  -28.7780 C   0  0  0  0  0  0  0  0  0  0  0  0
   -2.9750   22.3740  -29.6440 C   0  0  0  0  0  0  0  0  0  0  0  0
   -3.7160   22.1230  -30.7990 C   0  0  0  0  0  0  0  0  0  0  0  0
   -4.0180   20.7960  -31.3730 C   0  0  0  0  0  0  0  0  0  0  0  0
   -3.1030   20.1810  -31.9820 O   0  0  0  0  0  0  0  0  0  0  0  0
   -5.4350   20.2700  -31.4070 C   0  0  0  0  0  0  0  0  0  0  0  0
   -6.2630   20.6650  -32.6560 C   0  0  0  0  0  0  0  0  0  0  0  0
   -7.7480   20.8790  -32.3380 C   0  0  0  0  0  0  0  0  0  0  0  0
   -6.0840   19.6800  -33.8230 C   0  0  0  0  0  0  0  0  0  0  0  0
   -4.1590   23.3620  -31.2380 C   0  0  0  0  0  0  0  0  0  0  0  0
   -4.9950   23.6390  -32.3160 O   0  0  0  0  0  0  0  0  0  0  0  0
   -3.6620   24.3000  -30.3650 C   0  0  0  0  0  0  0  0  0  0  0  0
   -3.8630   25.6710  -30.4670 O   0  0  0  0  0  0  0  0  0  0  0  0
   -2.9450   23.7060  -29.3890 N   0  0  0  0  0  0  0  0  0  0  0  0
   -2.2570   24.3780  -28.3180 C   0  0  0  0  0  0  0  0  0  0  0  0
   -0.9420   24.8310  -28.4980 C   0  0  0  0  0  0  0  0  0  0  0  0
   -0.2750   25.4950  -27.4650 C   0  0  0  0  0  0  0  0  0  0  0  0
   -0.9110   25.7170  -26.2300 C   0  0  0  0  0  0  0  0  0  0  0  0
   -0.2060   26.4280  -25.1340 C   0  0  0  0  0  0  0  0  0  0  0  0
    1.0250   27.0680  -25.3710 C   0  0  0  0  0  0  0  0  0  0  0  0
    1.6880   27.7360  -24.3370 C   0  0  0  0  0  0  0  0  0  0  0  0
    1.1290   27.7750  -23.0570 C   0  0  0  0  0  0  0  0  0  0  0  0
   -0.0920   27.1450  -22.8090 C   0  0  0  0  0  0  0  0  0  0  0  0
   -0.7580   26.4740  -23.8390 C   0  0  0  0  0  0  0  0  0  0  0  0
   -2.2270   25.2540  -26.0520 C   0  0  0  0  0  0  0  0  0  0  0  0
   -2.8920   24.5880  -27.0860 C   0  0  0  0  0  0  0  0  0  0  0  0
   -0.2922   19.9916  -31.4052 H   0  0  0  0  0  0  0  0  0  0  0  0
   -1.1765   21.4829  -31.8752 H   0  0  0  0  0  0  0  0  0  0  0  0
    0.6197   21.4662  -31.8752 H   0  0  0  0  0  0  0  0  0  0  0  0
    0.5528   19.5910  -28.3041 H   0  0  0  0  0  0  0  0  0  0  0  0
   -0.8056   18.6128  -26.4587 H   0  0  0  0  0  0  0  0  0  0  0  0
   -3.1452   19.3825  -26.0815 H   0  0  0  0  0  0  0  0  0  0  0  0
   -4.1445   21.1208  -27.5617 H   0  0  0  0  0  0  0  0  0  0  0  0
   -5.3900   19.1718  -31.3635 H   0  0  0  0  0  0  0  0  0  0  0  0
   -5.9477   20.7269  -30.5477 H   0  0  0  0  0  0  0  0  0  0  0  0
   -5.8561   21.6336  -32.9819 H   0  0  0  0  0  0  0  0  0  0  0  0
   -7.8902   20.8995  -31.2474 H   0  0  0  0  0  0  0  0  0  0  0  0
   -8.0813   21.8345  -32.7693 H   0  0  0  0  0  0  0  0  0  0  0  0
   -8.3376   20.0565  -32.7693 H   0  0  0  0  0  0  0  0  0  0  0  0
   -5.9006   18.6707  -33.4260 H   0  0  0  0  0  0  0  0  0  0  0  0
   -6.9954   19.6717  -34.4389 H   0  0  0  0  0  0  0  0  0  0  0  0
   -5.2280   19.9929  -34.4389 H   0  0  0  0  0  0  0  0  0  0  0  0
   -4.9600   23.1020  -33.1700 H   0  0  0  0  0  0  0  0  0  0  0  0
   -0.4325   24.6626  -29.4582 H   0  0  0  0  0  0  0  0  0  0  0  0
    0.7558   25.8470  -27.6188 H   0  0  0  0  0  0  0  0  0  0  0  0
    1.4687   27.0424  -26.3772 H   0  0  0  0  0  0  0  0  0  0  0  0
    2.6507   28.2314  -24.5314 H   0  0  0  0  0  0  0  0  0  0  0  0
    1.6509   28.3021  -22.2447 H   0  0  0  0  0  0  0  0  0  0  0  0
   -0.5310   27.1766  -21.8009 H   0  0  0  0  0  0  0  0  0  0  0  0
   -1.7192   25.9789  -23.6367 H   0  0  0  0  0  0  0  0  0  0  0  0
   -2.7374   25.4172  -25.0913 H   0  0  0  0  0  0  0  0  0  0  0  0
   -3.9195   24.2267  -26.9318 H   0  0  0  0  0  0  0  0  0  0  0  0
  1  2  1  0
  2  3  1  0
  3  4  2  0
  4  5  1  0
  5  6  2  0
  6  7  1  0
  7  8  2  0
  8  9  1  0
  9 10  2  0
 10 11  1  0
 11 12  2  0
 11 13  1  0
 13 14  1  0
 14 15  1  0
 14 16  1  0
 10 17  1  0
 17 18  1  0
 17 19  2  0
 19 20  1  0
 19 21  1  0
 21 22  1  0
 22 23  2  0
 23 24  1  0
 24 25  2  0
 25 26  1  0
 26 27  2  0
 27 28  1  0
 28 29  2  0
 29 30  1  0
 30 31  2  0
 25 32  1  0
 32 33  2  0
  8  3  1  0
 21  9  1  0
 33 22  1  0
 31 26  1  0
  1 34  1  0
  1 35  1  0
  1 36  1  0
  4 37  1  0
  5 38  1  0
  6 39  1  0
  7 40  1  0
 13 41  1  0
 13 42  1  0
 14 43  1  0
 15 44  1  0
 15 45  1  0
 15 46  1  0
 16 47  1  0
 16 48  1  0
 16 49  1  0
 18 50  1  0
 23 51  1  0
 24 52  1  0
 27 53  1  0
 28 54  1  0
 29 55  1  0
 30 56  1  0
 31 57  1  0
 32 58  1  0
 33 59  1  0
M  CHG  1  20  -1
M  END
>  <UniqueID>  (45) 
43

>  <SMILES>  (45) 
COc1ccccc1-c1c(C(=O)CC(C)C)c(O)c([O-])n1-c1ccc(-c2ccccc2)cc1

>  <Energy>  (45) 
108.42952472761253

>  <Genealogy>  (45) 
COc1ccccc1-c1c(C(=O)CC(C)C)c(O)c([O-])n1-c1ccc(-c2ccccc2)cc1 (protonated)
COc1ccccc1-c1c(C(=O)CC(C)C)c(O)c([O-])n1-c1ccc(-c2ccccc2)cc1 (3D coordinates assigned)
COc1ccccc1-c1c(C(=O)CC(C)C)c(O)c([O-])n1-c1ccc(-c2ccccc2)cc1 (optimized conformer: 108.42952472761253 kcal/mol)

>  <smiles>  (45) 
COc1ccccc1-c1c(C(=O)CC(C)C)c(O)c(O)n1-c1ccc(-c2ccccc2)cc1

>  <score_type>  (45) 
oracle

>  <origin>  (45) 
adgpu

>  <m_score__min__energy>  (45) 
-13.140000000000001

>  <m_primary>  (45) 
energy

$$$$
45:0
     RDKit          3D

 51 53  0  0  0  0  0  0  0  0999 V2000
   -9.0700   19.0490  -31.9570 C   0  0  0  0  0  0  0  0  0  0  0  0
   -7.7380   19.3410  -32.3620 O   0  0  0  0  0  0  0  0  0  0  0  0
   -7.1730   20.6140  -32.2370 C   0  0  0  0  0  0  0  0  0  0  0  0
   -5.7920   20.7700  -32.3840 C   0  0  0  0  0  0  0  0  0  0  0  0
   -5.2320   22.0440  -32.2840 C   0  0  0  0  0  0  0  0  0  0  0  0
   -6.0560   23.1560  -32.0550 C   0  0  0  0  0  0  0  0  0  0  0  0
   -5.5300   24.4890  -32.0170 N   0  0  0  0  0  0  0  0  0  0  0  0
   -5.1310   25.1970  -30.8330 C   0  0  0  0  0  0  0  0  0  0  0  0
   -6.0120   25.7600  -30.1350 O   0  0  0  0  0  0  0  0  0  0  0  0
   -3.7560   25.2960  -30.4280 N   0  0  0  0  0  0  0  0  0  0  0  0
   -3.1320   24.5520  -29.3710 C   0  0  0  0  0  0  0  0  0  0  0  0
   -3.8050   23.4550  -28.8490 C   0  0  0  0  0  0  0  0  0  0  0  0
   -3.1840   22.6220  -27.9260 C   0  0  0  0  0  0  0  0  0  0  0  0
   -1.8770   22.8840  -27.4640 C   0  0  0  0  0  0  0  0  0  0  0  0
   -1.2070   21.8260  -26.6010 C   0  0  0  0  0  0  0  0  0  0  0  0
   -0.0290   21.3960  -27.1730 F   0  0  0  0  0  0  0  0  0  0  0  0
   -2.0680   20.7570  -26.4360 F   0  0  0  0  0  0  0  0  0  0  0  0
   -0.8920   22.3080  -25.3420 F   0  0  0  0  0  0  0  0  0  0  0  0
   -1.2170   24.0750  -27.9120 C   0  0  0  0  0  0  0  0  0  0  0  0
    0.4250   24.5650  -27.3810 S   0  0  0  0  0  0  0  0  0  0  0  0
    1.3300   24.5140  -28.5810 O   0  0  0  0  0  0  0  0  0  0  0  0
    0.9910   23.5910  -26.3890 O   0  0  0  0  0  0  0  0  0  0  0  0
    0.5680   26.2270  -26.6720 C   0  0  0  0  0  0  0  0  0  0  0  0
   -0.7660   27.0060  -26.6100 C   0  0  0  0  0  0  0  0  0  0  0  0
   -1.6040   26.7090  -25.3560 C   0  0  0  0  0  0  0  0  0  0  0  0
   -0.7760   26.8470  -24.0790 C   0  0  0  0  0  0  0  0  0  0  0  0
    0.4410   25.9260  -24.1310 C   0  0  0  0  0  0  0  0  0  0  0  0
    1.3290   26.2700  -25.3320 C   0  0  0  0  0  0  0  0  0  0  0  0
   -1.8620   24.8890  -28.8740 C   0  0  0  0  0  0  0  0  0  0  0  0
   -1.2490   26.0500  -29.3350 O   0  0  0  0  0  0  0  0  0  0  0  0
   -7.4270   22.9520  -31.8690 C   0  0  0  0  0  0  0  0  0  0  0  0
   -7.9520   21.7020  -31.9750 N   0  0  0  0  0  0  0  0  0  0  0  0
   -9.1249   19.0370  -30.8584 H   0  0  0  0  0  0  0  0  0  0  0  0
   -9.7499   19.8194  -32.3497 H   0  0  0  0  0  0  0  0  0  0  0  0
   -9.3652   18.0648  -32.3497 H   0  0  0  0  0  0  0  0  0  0  0  0
   -5.1522   19.8962  -32.5768 H   0  0  0  0  0  0  0  0  0  0  0  0
   -4.1447   22.1764  -32.3847 H   0  0  0  0  0  0  0  0  0  0  0  0
   -4.8363   23.2441  -29.1682 H   0  0  0  0  0  0  0  0  0  0  0  0
   -3.7225   21.7405  -27.5480 H   0  0  0  0  0  0  0  0  0  0  0  0
    1.1952   26.7661  -27.3973 H   0  0  0  0  0  0  0  0  0  0  0  0
   -0.5395   28.0823  -26.6281 H   0  0  0  0  0  0  0  0  0  0  0  0
   -1.3633   26.6850  -27.4761 H   0  0  0  0  0  0  0  0  0  0  0  0
   -2.4456   27.4160  -25.3136 H   0  0  0  0  0  0  0  0  0  0  0  0
   -1.9644   25.6718  -25.4214 H   0  0  0  0  0  0  0  0  0  0  0  0
   -0.4379   27.8888  -23.9771 H   0  0  0  0  0  0  0  0  0  0  0  0
   -1.3995   26.5658  -23.2175 H   0  0  0  0  0  0  0  0  0  0  0  0
    1.0235   26.0445  -23.2054 H   0  0  0  0  0  0  0  0  0  0  0  0
    0.0945   24.8870  -24.2331 H   0  0  0  0  0  0  0  0  0  0  0  0
    1.7339   27.2829  -25.1905 H   0  0  0  0  0  0  0  0  0  0  0  0
    2.1264   25.5138  -25.3806 H   0  0  0  0  0  0  0  0  0  0  0  0
   -8.0821   23.8045  -31.6365 H   0  0  0  0  0  0  0  0  0  0  0  0
  1  2  1  0
  2  3  1  0
  3  4  2  0
  4  5  1  0
  5  6  2  0
  6  7  1  0
  7  8  1  0
  8  9  2  0
  8 10  1  0
 10 11  1  0
 11 12  2  0
 12 13  1  0
 13 14  2  0
 14 15  1  0
 15 16  1  0
 15 17  1  0
 15 18  1  0
 14 19  1  0
 19 20  1  0
 20 21  2  0
 20 22  2  0
 20 23  1  0
 23 24  1  0
 24 25  1  0
 25 26  1  0
 26 27  1  0
 27 28  1  0
 19 29  2  0
 29 30  1  0
  6 31  1  0
 31 32  2  0
 32  3  1  0
 29 11  1  0
 28 23  1  0
  1 33  1  0
  1 34  1  0
  1 35  1  0
  4 36  1  0
  5 37  1  0
 12 38  1  0
 13 39  1  0
 23 40  1  0
 24 41  1  0
 24 42  1  0
 25 43  1  0
 25 44  1  0
 26 45  1  0
 26 46  1  0
 27 47  1  0
 27 48  1  0
 28 49  1  0
 28 50  1  0
 31 51  1  0
M  CHG  3   7  -1  10  -1  30  -1
M  END
>  <UniqueID>  (46) 
44

>  <SMILES>  (46) 
COc1ccc([N-]C(=O)[N-]c2ccc(C(F)(F)F)c(S(=O)(=O)C3CCCCC3)c2[O-])cn1

>  <Energy>  (46) 
62.94925633700533

>  <Genealogy>  (46) 
COc1ccc([N-]C(=O)[N-]c2ccc(C(F)(F)F)c(S(=O)(=O)C3CCCCC3)c2[O-])cn1 (protonated)
COc1ccc([N-]C(=O)[N-]c2ccc(C(F)(F)F)c(S(=O)(=O)C3CCCCC3)c2[O-])cn1 (3D coordinates assigned)
COc1ccc([N-]C(=O)[N-]c2ccc(C(F)(F)F)c(S(=O)(=O)C3CCCCC3)c2[O-])cn1 (nonaromatic ring conformer: 62.94925633700533 kcal/mol)

>  <smiles>  (46) 
COc1ccc(NC(=O)Nc2ccc(C(F)(F)F)c(S(=O)(=O)C3CCCCC3)c2O)cn1

>  <score_type>  (46) 
oracle

>  <origin>  (46) 
adgpu

>  <m_score__min__energy>  (46) 
-14.83

>  <m_primary>  (46) 
energy

$$$$
46:0
     RDKit          3D

 44 46  0  0  0  0  0  0  0  0999 V2000
   -6.2860   19.9610  -33.0900 C   0  0  0  0  0  0  0  0  0  0  0  0
   -5.7050   21.3030  -32.6550 C   0  0  0  0  0  0  0  0  0  0  0  0
   -4.3910   21.1150  -32.0300 N   0  0  0  0  0  0  0  0  0  0  0  0
   -3.5700   19.9420  -32.3480 C   0  0  0  0  0  0  0  0  0  0  0  0
   -2.2090   20.3630  -32.8390 C   0  0  0  0  0  0  0  0  0  0  0  0
   -1.2110   20.7450  -31.9250 C   0  0  0  0  0  0  0  0  0  0  0  0
    0.0400   21.1740  -32.3830 C   0  0  0  0  0  0  0  0  0  0  0  0
    0.3060   21.2250  -33.7600 C   0  0  0  0  0  0  0  0  0  0  0  0
    1.5500   21.6510  -34.2250 O   0  0  0  0  0  0  0  0  0  0  0  0
   -0.6850   20.8430  -34.6760 C   0  0  0  0  0  0  0  0  0  0  0  0
   -0.4310   20.8910  -36.0430 O   0  0  0  0  0  0  0  0  0  0  0  0
   -1.9360   20.4130  -34.2180 C   0  0  0  0  0  0  0  0  0  0  0  0
   -3.9650   22.0230  -31.0020 C   0  0  0  0  0  0  0  0  0  0  0  0
   -3.3660   21.5300  -29.8360 C   0  0  0  0  0  0  0  0  0  0  0  0
   -2.9370   22.4090  -28.8400 C   0  0  0  0  0  0  0  0  0  0  0  0
   -3.1110   23.7940  -28.9900 C   0  0  0  0  0  0  0  0  0  0  0  0
   -2.6440   24.7080  -27.9240 C   0  0  0  0  0  0  0  0  0  0  0  0
   -3.1930   24.6090  -26.6330 C   0  0  0  0  0  0  0  0  0  0  0  0
   -2.7610   25.4600  -25.6130 C   0  0  0  0  0  0  0  0  0  0  0  0
   -1.7810   26.4220  -25.8710 C   0  0  0  0  0  0  0  0  0  0  0  0
   -1.2380   26.5390  -27.1540 C   0  0  0  0  0  0  0  0  0  0  0  0
   -1.6670   25.6920  -28.1830 C   0  0  0  0  0  0  0  0  0  0  0  0
   -1.1320   25.8480  -29.4600 O   0  0  0  0  0  0  0  0  0  0  0  0
   -3.7100   24.2910  -30.1670 C   0  0  0  0  0  0  0  0  0  0  0  0
   -3.8680   25.6590  -30.3640 O   0  0  0  0  0  0  0  0  0  0  0  0
   -4.1400   23.4040  -31.1610 C   0  0  0  0  0  0  0  0  0  0  0  0
   -6.5431   19.3671  -32.2005 H   0  0  0  0  0  0  0  0  0  0  0  0
   -7.1911   20.1310  -33.6916 H   0  0  0  0  0  0  0  0  0  0  0  0
   -5.5427   19.4173  -33.6916 H   0  0  0  0  0  0  0  0  0  0  0  0
   -5.5974   21.9535  -33.5355 H   0  0  0  0  0  0  0  0  0  0  0  0
   -6.3844   21.7648  -31.9235 H   0  0  0  0  0  0  0  0  0  0  0  0
   -3.4534   19.3267  -31.4437 H   0  0  0  0  0  0  0  0  0  0  0  0
   -4.0692   19.3646  -33.1401 H   0  0  0  0  0  0  0  0  0  0  0  0
   -1.4145   20.7065  -30.8447 H   0  0  0  0  0  0  0  0  0  0  0  0
    0.8160   21.4717  -31.6625 H   0  0  0  0  0  0  0  0  0  0  0  0
    1.7720   21.6550  -35.2130 H   0  0  0  0  0  0  0  0  0  0  0  0
   -2.7095   20.1127  -34.9402 H   0  0  0  0  0  0  0  0  0  0  0  0
   -3.2331   20.4460  -29.7045 H   0  0  0  0  0  0  0  0  0  0  0  0
   -2.4593   22.0137  -27.9314 H   0  0  0  0  0  0  0  0  0  0  0  0
   -3.9678   23.8564  -26.4251 H   0  0  0  0  0  0  0  0  0  0  0  0
   -3.1930   25.3727  -24.6051 H   0  0  0  0  0  0  0  0  0  0  0  0
   -1.4369   27.0869  -25.0651 H   0  0  0  0  0  0  0  0  0  0  0  0
   -0.4700   27.3002  -27.3560 H   0  0  0  0  0  0  0  0  0  0  0  0
   -4.6180   23.7934  -32.0720 H   0  0  0  0  0  0  0  0  0  0  0  0
  1  2  1  0
  2  3  1  0
  3  4  1  0
  4  5  1  0
  5  6  2  0
  6  7  1  0
  7  8  2  0
  8  9  1  0
  8 10  1  0
 10 11  1  0
 10 12  2  0
  3 13  1  0
 13 14  2  0
 14 15  1  0
 15 16  2  0
 16 17  1  0
 17 18  2  0
 18 19  1  0
 19 20  2  0
 20 21  1  0
 21 22  2  0
 22 23  1  0
 16 24  1  0
 24 25  1  0
 24 26  2  0
 12  5  1  0
 26 13  1  0
 22 17  1  0
  1 27  1  0
  1 28  1  0
  1 29  1  0
  2 30  1  0
  2 31  1  0
  4 32  1  0
  4 33  1  0
  6 34  1  0
  7 35  1  0
  9 36  1  0
 12 37  1  0
 14 38  1  0
 15 39  1  0
 18 40  1  0
 19 41  1  0
 20 42  1  0
 21 43  1  0
 26 44  1  0
M  CHG  3  11  -1  23  -1  25  -1
M  END
>  <UniqueID>  (47) 
45

>  <SMILES>  (47) 
CCN(Cc1ccc(O)c([O-])c1)c1ccc(-c2ccccc2[O-])c([O-])c1

>  <Energy>  (47) 
54.42270630994173

>  <Genealogy>  (47) 
CCN(Cc1ccc(O)c([O-])c1)c1ccc(-c2ccccc2[O-])c([O-])c1 (protonated)
CCN(Cc1ccc(O)c([O-])c1)c1ccc(-c2ccccc2[O-])c([O-])c1 (3D coordinates assigned)
CCN(Cc1ccc(O)c([O-])c1)c1ccc(-c2ccccc2[O-])c([O-])c1 (optimized conformer: 54.42270630994173 kcal/mol)

>  <smiles>  (47) 
CCN(Cc1ccc(O)c(O)c1)c1ccc(-c2ccccc2O)c(O)c1

>  <score_type>  (47) 
oracle

>  <origin>  (47) 
adgpu

>  <m_score__min__energy>  (47) 
-13.279999999999999

>  <m_primary>  (47) 
energy

$$$$
47:0
     RDKit          3D

 48 50  0  0  0  0  0  0  0  0999 V2000
   -3.6150   24.5670  -29.5230 C   0  0  0  0  0  0  0  0  0  0  0  0
   -2.4100   25.2990  -29.3290 O   0  0  0  0  0  0  0  0  0  0  0  0
   -1.5320   25.1190  -28.2470 C   0  0  0  0  0  0  0  0  0  0  0  0
   -1.5850   25.9380  -27.1010 C   0  0  0  0  0  0  0  0  0  0  0  0
   -0.6990   25.7300  -26.0410 C   0  0  0  0  0  0  0  0  0  0  0  0
    0.2400   24.7010  -26.1060 C   0  0  0  0  0  0  0  0  0  0  0  0
    0.3020   23.8800  -27.2340 C   0  0  0  0  0  0  0  0  0  0  0  0
   -0.5700   24.0930  -28.3190 C   0  0  0  0  0  0  0  0  0  0  0  0
   -0.5250   23.2340  -29.4750 N   0  0  0  0  0  0  0  0  0  0  0  0
   -1.4970   22.2170  -29.7670 C   0  0  0  0  0  0  0  0  0  0  0  0
   -2.2460   21.4200  -28.5370 S   0  0  0  0  0  0  0  0  0  0  0  0
   -1.5580   21.6820  -31.1000 N   0  0  0  0  0  0  0  0  0  0  0  0
   -2.6980   20.9960  -31.6420 C   0  0  0  0  0  0  0  0  0  0  0  0
   -2.8140   20.8390  -33.0310 C   0  0  0  0  0  0  0  0  0  0  0  0
   -3.9200   20.1820  -33.5780 C   0  0  0  0  0  0  0  0  0  0  0  0
   -4.9340   19.6940  -32.7450 C   0  0  0  0  0  0  0  0  0  0  0  0
   -6.3070   18.8390  -33.4460 S   0  0  0  0  0  0  0  0  0  0  0  0
   -6.5670   17.6010  -32.6330 O   0  0  0  0  0  0  0  0  0  0  0  0
   -5.9850   18.4260  -34.8570 O   0  0  0  0  0  0  0  0  0  0  0  0
   -7.7210   19.8710  -33.4240 N   0  0  0  0  0  0  0  0  0  0  0  0
   -7.4460   21.1280  -32.7180 C   0  0  0  0  0  0  0  0  0  0  0  0
   -7.8390   20.9320  -31.2610 C   0  0  0  0  0  0  0  0  0  0  0  0
   -8.7660   19.7270  -31.2490 C   0  0  0  0  0  0  0  0  0  0  0  0
   -8.8260   19.2400  -32.6910 C   0  0  0  0  0  0  0  0  0  0  0  0
   -4.8350   19.8710  -31.3590 C   0  0  0  0  0  0  0  0  0  0  0  0
   -3.7280   20.5220  -30.8100 C   0  0  0  0  0  0  0  0  0  0  0  0
   -4.0463   24.3050  -28.5456 H   0  0  0  0  0  0  0  0  0  0  0  0
   -4.3313   25.1827  -30.0867 H   0  0  0  0  0  0  0  0  0  0  0  0
   -3.3987   23.6475  -30.0867 H   0  0  0  0  0  0  0  0  0  0  0  0
   -2.3288   26.7462  -27.0409 H   0  0  0  0  0  0  0  0  0  0  0  0
   -0.7421   26.3789  -25.1538 H   0  0  0  0  0  0  0  0  0  0  0  0
    0.9328   24.5358  -25.2677 H   0  0  0  0  0  0  0  0  0  0  0  0
    1.0364   23.0621  -27.2752 H   0  0  0  0  0  0  0  0  0  0  0  0
    0.2630   23.3580  -30.1490 H   0  0  0  0  0  0  0  0  0  0  0  0
   -0.7140   21.7870  -31.7080 H   0  0  0  0  0  0  0  0  0  0  0  0
   -2.0303   21.2351  -33.6935 H   0  0  0  0  0  0  0  0  0  0  0  0
   -3.9939   20.0479  -34.6673 H   0  0  0  0  0  0  0  0  0  0  0  0
   -8.0040   20.0650  -34.4130 H   0  0  0  0  0  0  0  0  0  0  0  0
   -6.3756   21.3715  -32.7884 H   0  0  0  0  0  0  0  0  0  0  0  0
   -8.0172   21.9552  -33.1646 H   0  0  0  0  0  0  0  0  0  0  0  0
   -6.9483   20.7380  -30.6453 H   0  0  0  0  0  0  0  0  0  0  0  0
   -8.3268   21.8263  -30.8460 H   0  0  0  0  0  0  0  0  0  0  0  0
   -8.3635   18.9398  -30.5946 H   0  0  0  0  0  0  0  0  0  0  0  0
   -9.7640   19.9858  -30.8656 H   0  0  0  0  0  0  0  0  0  0  0  0
   -8.7185   18.1457  -32.7212 H   0  0  0  0  0  0  0  0  0  0  0  0
   -9.7911   19.5062  -33.1467 H   0  0  0  0  0  0  0  0  0  0  0  0
   -5.6322   19.4958  -30.7004 H   0  0  0  0  0  0  0  0  0  0  0  0
   -3.6614   20.6647  -29.7213 H   0  0  0  0  0  0  0  0  0  0  0  0
  1  2  1  0
  2  3  1  0
  3  4  2  0
  4  5  1  0
  5  6  2  0
  6  7  1  0
  7  8  2  0
  8  9  1  0
  9 10  1  0
 10 11  2  0
 10 12  1  0
 12 13  1  0
 13 14  2  0
 14 15  1  0
 15 16  2  0
 16 17  1  0
 17 18  2  0
 17 19  2  0
 17 20  1  0
 20 21  1  0
 21 22  1  0
 22 23  1  0
 23 24  1  0
 16 25  1  0
 25 26  2  0
  8  3  1  0
 26 13  1  0
 24 20  1  0
  1 27  1  0
  1 28  1  0
  1 29  1  0
  4 30  1  0
  5 31  1  0
  6 32  1  0
  7 33  1  0
  9 34  1  0
 12 35  1  0
 14 36  1  0
 15 37  1  0
 20 38  1  0
 21 39  1  0
 21 40  1  0
 22 41  1  0
 22 42  1  0
 23 43  1  0
 23 44  1  0
 24 45  1  0
 24 46  1  0
 25 47  1  0
 26 48  1  0
M  CHG  1  20   1
M  END
>  <UniqueID>  (48) 
46

>  <SMILES>  (48) 
COc1ccccc1NC(=S)Nc1ccc(S(=O)(=O)[NH+]2CCCC2)cc1

>  <Energy>  (48) 
59.97044030487862

>  <Genealogy>  (48) 
COc1ccccc1NC(=S)Nc1ccc(S(=O)(=O)[NH+]2CCCC2)cc1 (protonated)
COc1ccccc1NC(=S)Nc1ccc(S(=O)(=O)[NH+]2CCCC2)cc1 (3D coordinates assigned)
COc1ccccc1NC(=S)Nc1ccc(S(=O)(=O)[NH+]2CCCC2)cc1 (nonaromatic ring conformer: 59.97044030487862 kcal/mol)

>  <smiles>  (48) 
COc1ccccc1NC(=S)Nc1ccc(S(=O)(=O)N2CCCC2)cc1

>  <score_type>  (48) 
oracle

>  <origin>  (48) 
adgpu

>  <m_score__min__energy>  (48) 
-9.3699999999999992

>  <m_primary>  (48) 
energy

$$$$
48:0
     RDKit          3D

 57 60  0  0  0  0  0  0  0  0999 V2000
   -9.8310   21.5780  -31.1720 C   0  0  0  0  0  0  0  0  0  0  0  0
   -8.6900   20.8460  -31.8140 C   0  0  0  0  0  0  0  0  0  0  0  0
   -7.5030   21.5240  -32.1230 C   0  0  0  0  0  0  0  0  0  0  0  0
   -6.4240   20.8380  -32.6870 C   0  0  0  0  0  0  0  0  0  0  0  0
   -6.5110   19.4580  -32.9430 C   0  0  0  0  0  0  0  0  0  0  0  0
   -5.3650   18.7280  -33.5430 C   0  0  0  0  0  0  0  0  0  0  0  0
   -5.5260   17.4170  -34.0270 C   0  0  0  0  0  0  0  0  0  0  0  0
   -4.4440   16.7300  -34.5840 C   0  0  0  0  0  0  0  0  0  0  0  0
   -3.1920   17.3410  -34.6670 C   0  0  0  0  0  0  0  0  0  0  0  0
   -3.0140   18.6530  -34.2040 C   0  0  0  0  0  0  0  0  0  0  0  0
   -1.6530   19.2910  -34.2530 C   0  0  0  0  0  0  0  0  0  0  0  0
   -1.7330   20.6910  -33.8360 N   0  0  0  0  0  0  0  0  0  0  0  0
   -1.5770   21.1070  -32.4660 C   0  0  0  0  0  0  0  0  0  0  0  0
   -2.5390   21.9430  -31.8670 C   0  0  0  0  0  0  0  0  0  0  0  0
   -2.4330   22.3220  -30.5170 C   0  0  0  0  0  0  0  0  0  0  0  0
   -3.4270   23.1840  -29.9160 N   0  0  0  0  0  0  0  0  0  0  0  0
   -3.0810   24.0340  -28.7700 C   0  0  0  0  0  0  0  0  0  0  0  0
   -4.3280   24.3020  -27.9170 C   0  0  0  0  0  0  0  0  0  0  0  0
   -5.4300   24.9120  -28.6940 N   0  0  0  0  0  0  0  0  0  0  0  0
   -5.4410   24.5800  -30.1350 C   0  0  0  0  0  0  0  0  0  0  0  0
   -4.8000   23.2200  -30.4360 C   0  0  0  0  0  0  0  0  0  0  0  0
   -1.3510   21.8450  -29.7620 C   0  0  0  0  0  0  0  0  0  0  0  0
   -0.3900   21.0190  -30.3440 C   0  0  0  0  0  0  0  0  0  0  0  0
   -0.4840   20.6500  -31.6930 C   0  0  0  0  0  0  0  0  0  0  0  0
    0.5610   19.8520  -32.2660 N   0  0  0  0  0  0  0  0  0  0  0  0
   -4.0980   19.3370  -33.6310 C   0  0  0  0  0  0  0  0  0  0  0  0
   -7.6980   18.7790  -32.6160 C   0  0  0  0  0  0  0  0  0  0  0  0
   -8.7760   19.4660  -32.0500 C   0  0  0  0  0  0  0  0  0  0  0  0
   -9.7363   21.5172  -30.0778 H   0  0  0  0  0  0  0  0  0  0  0  0
   -9.8118   22.6327  -31.4837 H   0  0  0  0  0  0  0  0  0  0  0  0
  -10.7817   21.1208  -31.4837 H   0  0  0  0  0  0  0  0  0  0  0  0
   -7.4202   22.6020  -31.9205 H   0  0  0  0  0  0  0  0  0  0  0  0
   -5.4997   21.3816  -32.9325 H   0  0  0  0  0  0  0  0  0  0  0  0
   -6.5102   16.9294  -33.9666 H   0  0  0  0  0  0  0  0  0  0  0  0
   -4.5795   15.7045  -34.9582 H   0  0  0  0  0  0  0  0  0  0  0  0
   -2.3416   16.7916  -35.0971 H   0  0  0  0  0  0  0  0  0  0  0  0
   -0.9739   18.7496  -33.5779 H   0  0  0  0  0  0  0  0  0  0  0  0
   -1.2738   19.2461  -35.2846 H   0  0  0  0  0  0  0  0  0  0  0  0
   -1.8230   21.4220  -34.5780 H   0  0  0  0  0  0  0  0  0  0  0  0
   -3.3878   22.3057  -32.4653 H   0  0  0  0  0  0  0  0  0  0  0  0
   -2.3225   23.5261  -28.1562 H   0  0  0  0  0  0  0  0  0  0  0  0
   -2.6843   24.9915  -29.1386 H   0  0  0  0  0  0  0  0  0  0  0  0
   -4.6792   23.3478  -27.4973 H   0  0  0  0  0  0  0  0  0  0  0  0
   -4.0443   25.0133  -27.1273 H   0  0  0  0  0  0  0  0  0  0  0  0
   -5.3760   25.9540  -28.5960 H   0  0  0  0  0  0  0  0  0  0  0  0
   -6.3390   24.6100  -28.2710 H   0  0  0  0  0  0  0  0  0  0  0  0
   -6.4842   24.5618  -30.4836 H   0  0  0  0  0  0  0  0  0  0  0  0
   -4.8501   25.3475  -30.6563 H   0  0  0  0  0  0  0  0  0  0  0  0
   -5.3913   22.4251  -29.9579 H   0  0  0  0  0  0  0  0  0  0  0  0
   -4.7772   23.0654  -31.5248 H   0  0  0  0  0  0  0  0  0  0  0  0
   -1.2600   22.1249  -28.7021 H   0  0  0  0  0  0  0  0  0  0  0  0
    0.4515   20.6528  -29.7375 H   0  0  0  0  0  0  0  0  0  0  0  0
    1.4520   20.2670  -32.6130 H   0  0  0  0  0  0  0  0  0  0  0  0
    0.4860   18.8100  -32.2740 H   0  0  0  0  0  0  0  0  0  0  0  0
   -3.9565   20.3581  -33.2472 H   0  0  0  0  0  0  0  0  0  0  0  0
   -7.7791   17.6988  -32.8070 H   0  0  0  0  0  0  0  0  0  0  0  0
   -9.6956   18.9220  -31.7886 H   0  0  0  0  0  0  0  0  0  0  0  0
  1  2  1  0
  2  3  2  0
  3  4  1  0
  4  5  2  0
  5  6  1  0
  6  7  2  0
  7  8  1  0
  8  9  2  0
  9 10  1  0
 10 11  1  0
 11 12  1  0
 12 13  1  0
 13 14  2  0
 14 15  1  0
 15 16  1  0
 16 17  1  0
 17 18  1  0
 18 19  1  0
 19 20  1  0
 20 21  1  0
 15 22  2  0
 22 23  1  0
 23 24  2  0
 24 25  1  0
 10 26  2  0
  5 27  1  0
 27 28  2  0
 28  2  1  0
 26  6  1  0
 24 13  1  0
 21 16  1  0
  1 29  1  0
  1 30  1  0
  1 31  1  0
  3 32  1  0
  4 33  1  0
  7 34  1  0
  8 35  1  0
  9 36  1  0
 11 37  1  0
 11 38  1  0
 12 39  1  0
 14 40  1  0
 17 41  1  0
 17 42  1  0
 18 43  1  0
 18 44  1  0
 19 45  1  0
 19 46  1  0
 20 47  1  0
 20 48  1  0
 21 49  1  0
 21 50  1  0
 22 51  1  0
 23 52  1  0
 25 53  1  0
 25 54  1  0
 26 55  1  0
 27 56  1  0
 28 57  1  0
M  CHG  1  19   1
M  END
>  <UniqueID>  (49) 
47

>  <SMILES>  (49) 
Cc1ccc(-c2cccc(CNc3cc(N4CC[NH2+]CC4)ccc3N)c2)cc1

>  <Energy>  (49) 
74.26266244957489

>  <Genealogy>  (49) 
Cc1ccc(-c2cccc(CNc3cc(N4CC[NH2+]CC4)ccc3N)c2)cc1 (protonated)
Cc1ccc(-c2cccc(CNc3cc(N4CC[NH2+]CC4)ccc3N)c2)cc1 (3D coordinates assigned)
Cc1ccc(-c2cccc(CNc3cc(N4CC[NH2+]CC4)ccc3N)c2)cc1 (nonaromatic ring conformer: 74.26266244957489 kcal/mol)

>  <smiles>  (49) 
Cc1ccc(-c2cccc(CNc3cc(N4CCNCC4)ccc3N)c2)cc1

>  <score_type>  (49) 
oracle

>  <origin>  (49) 
adgpu

>  <m_score__min__energy>  (49) 
-9.8800000000000008

>  <m_primary>  (49) 
energy

$$$$
49:0
     RDKit          3D

 43 44  0  0  0  0  0  0  0  0999 V2000
   -8.0890   18.4170  -31.9860 C   0  0  0  0  0  0  0  0  0  0  0  0
   -9.0720   19.5600  -32.1830 C   0  0  0  0  0  0  0  0  0  0  0  0
   -8.3660   20.7250  -32.7120 N   0  0  0  0  0  0  0  0  0  0  0  0
   -8.6490   22.1000  -31.6900 S   0  0  0  0  0  0  0  0  0  0  0  0
   -9.5370   23.0740  -32.4090 O   0  0  0  0  0  0  0  0  0  0  0  0
   -9.3430   21.6630  -30.4300 O   0  0  0  0  0  0  0  0  0  0  0  0
   -7.1240   22.8940  -31.3000 C   0  0  0  0  0  0  0  0  0  0  0  0
   -5.9200   22.4310  -31.8470 C   0  0  0  0  0  0  0  0  0  0  0  0
   -4.7160   23.0780  -31.5460 C   0  0  0  0  0  0  0  0  0  0  0  0
   -4.7040   24.1890  -30.6850 C   0  0  0  0  0  0  0  0  0  0  0  0
   -3.4960   24.8970  -30.3690 N   0  0  0  0  0  0  0  0  0  0  0  0
   -2.7350   24.7890  -29.1600 C   0  0  0  0  0  0  0  0  0  0  0  0
   -3.0830   23.9850  -28.2540 O   0  0  0  0  0  0  0  0  0  0  0  0
   -1.5800   25.6210  -28.9870 N   0  0  0  0  0  0  0  0  0  0  0  0
   -0.8410   25.7130  -27.7550 C   0  0  0  0  0  0  0  0  0  0  0  0
   -0.9890   26.8410  -26.9260 C   0  0  0  0  0  0  0  0  0  0  0  0
   -0.2570   26.9570  -25.7360 C   0  0  0  0  0  0  0  0  0  0  0  0
   -0.3970   28.1820  -24.8810 C   0  0  0  0  0  0  0  0  0  0  0  0
    0.6640   25.9600  -25.3940 C   0  0  0  0  0  0  0  0  0  0  0  0
    0.8320   24.8440  -26.2140 C   0  0  0  0  0  0  0  0  0  0  0  0
    0.0810   24.7040  -27.3930 C   0  0  0  0  0  0  0  0  0  0  0  0
    0.2840   23.4910  -28.2600 C   0  0  0  0  0  0  0  0  0  0  0  0
   -5.9150   24.6650  -30.1670 C   0  0  0  0  0  0  0  0  0  0  0  0
   -7.1180   24.0180  -30.4660 C   0  0  0  0  0  0  0  0  0  0  0  0
   -7.9396   18.2432  -30.9101 H   0  0  0  0  0  0  0  0  0  0  0  0
   -8.4891   17.5048  -32.4527 H   0  0  0  0  0  0  0  0  0  0  0  0
   -7.1272   18.6760  -32.4527 H   0  0  0  0  0  0  0  0  0  0  0  0
   -9.8545   19.2523  -32.8923 H   0  0  0  0  0  0  0  0  0  0  0  0
   -9.5323   19.8177  -31.2178 H   0  0  0  0  0  0  0  0  0  0  0  0
   -5.9211   21.5568  -32.5147 H   0  0  0  0  0  0  0  0  0  0  0  0
   -3.7749   22.7155  -31.9852 H   0  0  0  0  0  0  0  0  0  0  0  0
   -1.2270   26.1340  -29.8250 H   0  0  0  0  0  0  0  0  0  0  0  0
   -1.6869   27.6405  -27.2152 H   0  0  0  0  0  0  0  0  0  0  0  0
   -0.3641   27.8942  -23.8198 H   0  0  0  0  0  0  0  0  0  0  0  0
    0.4276   28.8769  -25.0982 H   0  0  0  0  0  0  0  0  0  0  0  0
   -1.3571   28.6730  -25.0982 H   0  0  0  0  0  0  0  0  0  0  0  0
    1.2586   26.0570  -24.4736 H   0  0  0  0  0  0  0  0  0  0  0  0
    1.5588   24.0669  -25.9350 H   0  0  0  0  0  0  0  0  0  0  0  0
    0.4321   22.6061  -27.6236 H   0  0  0  0  0  0  0  0  0  0  0  0
   -0.6017   23.3419  -28.8951 H   0  0  0  0  0  0  0  0  0  0  0  0
    1.1700   23.6383  -28.8951 H   0  0  0  0  0  0  0  0  0  0  0  0
   -5.9198   25.5546  -29.5200 H   0  0  0  0  0  0  0  0  0  0  0  0
   -8.0622   24.3934  -30.0446 H   0  0  0  0  0  0  0  0  0  0  0  0
  1  2  1  0
  2  3  1  0
  3  4  1  0
  4  5  2  0
  4  6  2  0
  4  7  1  0
  7  8  2  0
  8  9  1  0
  9 10  2  0
 10 11  1  0
 11 12  1  0
 12 13  2  0
 12 14  1  0
 14 15  1  0
 15 16  2  0
 16 17  1  0
 17 18  1  0
 17 19  2  0
 19 20  1  0
 20 21  2  0
 21 22  1  0
 10 23  1  0
 23 24  2  0
 24  7  1  0
 21 15  1  0
  1 25  1  0
  1 26  1  0
  1 27  1  0
  2 28  1  0
  2 29  1  0
  8 30  1  0
  9 31  1  0
 14 32  1  0
 16 33  1  0
 18 34  1  0
 18 35  1  0
 18 36  1  0
 19 37  1  0
 20 38  1  0
 22 39  1  0
 22 40  1  0
 22 41  1  0
 23 42  1  0
 24 43  1  0
M  CHG  2   3  -1  11  -1
M  END
>  <UniqueID>  (50) 
48

>  <SMILES>  (50) 
CC[N-]S(=O)(=O)c1ccc([N-]C(=O)Nc2cc(C)ccc2C)cc1

>  <Energy>  (50) 
44.66561278235877

>  <Genealogy>  (50) 
CC[N-]S(=O)(=O)c1ccc([N-]C(=O)Nc2cc(C)ccc2C)cc1 (protonated)
CC[N-]S(=O)(=O)c1ccc([N-]C(=O)Nc2cc(C)ccc2C)cc1 (3D coordinates assigned)
CC[N-]S(=O)(=O)c1ccc([N-]C(=O)Nc2cc(C)ccc2C)cc1 (optimized conformer: 44.66561278235877 kcal/mol)

>  <smiles>  (50) 
CCNS(=O)(=O)c1ccc(NC(=O)Nc2cc(C)ccc2C)cc1

>  <score_type>  (50) 
oracle

>  <origin>  (50) 
adgpu

>  <m_score__min__energy>  (50) 
-9.9299999999999997

>  <m_primary>  (50) 
energy

$$$$
