0:0
     RDKit          3D

 59 62  0  0  0  0  0  0  0  0999 V2000
   -9.0640   18.2090  -31.7170 C   0  0  0  0  0  0  0  0  0  0  0  0
   -8.5280   19.2830  -32.6090 C   0  0  0  0  0  0  0  0  0  0  0  0
   -9.3110   19.8530  -33.4150 O   0  0  0  0  0  0  0  0  0  0  0  0
   -7.1580   19.7140  -32.5280 N   0  0  0  0  0  0  0  0  0  0  0  0
   -6.6570   20.8780  -31.8840 C   0  0  0  0  0  0  0  0  0  0  0  0
   -7.3800   21.8490  -31.1780 C   0  0  0  0  0  0  0  0  0  0  0  0
   -6.6770   22.8990  -30.5690 C   0  0  0  0  0  0  0  0  0  0  0  0
   -5.2710   22.9600  -30.6490 C   0  0  0  0  0  0  0  0  0  0  0  0
   -4.4040   24.2630  -29.8410 S   0  0  0  0  0  0  0  0  0  0  0  0
   -5.3070   24.8760  -28.8080 O   0  0  0  0  0  0  0  0  0  0  0  0
   -4.0300   25.3230  -30.8410 O   0  0  0  0  0  0  0  0  0  0  0  0
   -2.9690   23.6320  -29.0700 N   0  0  0  0  0  0  0  0  0  0  0  0
   -1.8340   24.5560  -29.2740 C   0  0  0  0  0  0  0  0  0  0  0  0
   -0.7620   24.3530  -28.2000 C   0  0  0  0  0  0  0  0  0  0  0  0
   -1.2820   24.7000  -26.8600 N   0  0  0  0  0  0  0  0  0  0  0  0
   -0.4480   24.1020  -25.7950 C   0  0  0  0  0  0  0  0  0  0  0  0
    0.4750   23.0160  -26.3640 C   0  0  0  0  0  0  0  0  0  0  0  0
   -0.3030   21.7840  -26.7480 C   0  0  0  0  0  0  0  0  0  0  0  0
   -1.2370   21.2300  -25.8570 C   0  0  0  0  0  0  0  0  0  0  0  0
   -1.9860   20.1100  -26.2290 C   0  0  0  0  0  0  0  0  0  0  0  0
   -1.8150   19.5410  -27.4950 C   0  0  0  0  0  0  0  0  0  0  0  0
   -0.8970   20.0940  -28.3910 C   0  0  0  0  0  0  0  0  0  0  0  0
   -0.1440   21.2140  -28.0230 C   0  0  0  0  0  0  0  0  0  0  0  0
   -2.7290   24.4020  -26.6870 C   0  0  0  0  0  0  0  0  0  0  0  0
   -3.2270   23.3060  -27.6460 C   0  0  0  0  0  0  0  0  0  0  0  0
   -4.5670   21.9500  -31.3280 C   0  0  0  0  0  0  0  0  0  0  0  0
   -5.2890   20.9200  -31.9320 C   0  0  0  0  0  0  0  0  0  0  0  0
   -4.7460   19.7250  -32.6340 C   0  0  0  0  0  0  0  0  0  0  0  0
   -6.0210   18.9080  -32.9910 C   0  0  2  0  0  0  0  0  0  0  0  0
   -6.1170   18.6480  -34.4970 C   0  0  0  0  0  0  0  0  0  0  0  0
   -8.9192   18.4992  -30.6659 H   0  0  0  0  0  0  0  0  0  0  0  0
  -10.1372   18.0700  -31.9145 H   0  0  0  0  0  0  0  0  0  0  0  0
   -8.5299   17.2679  -31.9145 H   0  0  0  0  0  0  0  0  0  0  0  0
   -8.4758   21.7890  -31.1030 H   0  0  0  0  0  0  0  0  0  0  0  0
   -7.2271   23.6808  -30.0248 H   0  0  0  0  0  0  0  0  0  0  0  0
   -1.3916   24.3695  -30.2637 H   0  0  0  0  0  0  0  0  0  0  0  0
   -2.2063   25.5889  -29.2070 H   0  0  0  0  0  0  0  0  0  0  0  0
   -0.4463   23.2993  -28.2015 H   0  0  0  0  0  0  0  0  0  0  0  0
    0.0900   25.0109  -28.4265 H   0  0  0  0  0  0  0  0  0  0  0  0
    0.1654   24.8898  -25.3334 H   0  0  0  0  0  0  0  0  0  0  0  0
   -1.1109   23.6421  -25.0473 H   0  0  0  0  0  0  0  0  0  0  0  0
    0.9853   23.4100  -27.2552 H   0  0  0  0  0  0  0  0  0  0  0  0
    1.2048   22.7389  -25.5890 H   0  0  0  0  0  0  0  0  0  0  0  0
   -1.3795   21.6791  -24.8630 H   0  0  0  0  0  0  0  0  0  0  0  0
   -2.7110   19.6755  -25.5250 H   0  0  0  0  0  0  0  0  0  0  0  0
   -2.4033   18.6580  -27.7852 H   0  0  0  0  0  0  0  0  0  0  0  0
   -0.7660   19.6479  -29.3879 H   0  0  0  0  0  0  0  0  0  0  0  0
    0.5743   21.6497  -28.7331 H   0  0  0  0  0  0  0  0  0  0  0  0
   -2.8987   24.0686  -25.6526 H   0  0  0  0  0  0  0  0  0  0  0  0
   -3.2878   25.3219  -26.9139 H   0  0  0  0  0  0  0  0  0  0  0  0
   -2.7134   22.3645  -27.4017 H   0  0  0  0  0  0  0  0  0  0  0  0
   -4.3160   23.2203  -27.5164 H   0  0  0  0  0  0  0  0  0  0  0  0
   -3.4685   21.9714  -31.3820 H   0  0  0  0  0  0  0  0  0  0  0  0
   -4.1981   20.0168  -33.5421 H   0  0  0  0  0  0  0  0  0  0  0  0
   -4.0283   19.1571  -32.0238 H   0  0  0  0  0  0  0  0  0  0  0  0
   -6.0020   17.9185  -32.5108 H   0  0  0  0  0  0  0  0  0  0  0  0
   -6.4933   17.6289  -34.6699 H   0  0  0  0  0  0  0  0  0  0  0  0
   -6.8059   19.3752  -34.9515 H   0  0  0  0  0  0  0  0  0  0  0  0
   -5.1208   18.7531  -34.9515 H   0  0  0  0  0  0  0  0  0  0  0  0
  1  2  1  0
  2  3  2  0
  2  4  1  0
  4  5  1  0
  5  6  2  0
  6  7  1  0
  7  8  2  0
  8  9  1  0
  9 10  2  0
  9 11  2  0
  9 12  1  0
 12 13  1  0
 13 14  1  0
 14 15  1  0
 15 16  1  0
 16 17  1  0
 17 18  1  0
 18 19  2  0
 19 20  1  0
 20 21  2  0
 21 22  1  0
 22 23  2  0
 15 24  1  0
 24 25  1  0
  8 26  1  0
 26 27  2  0
 27 28  1  0
 28 29  1  0
 29 30  1  0
 29  4  1  0
 27  5  1  0
 25 12  1  0
 23 18  1  0
  1 31  1  0
  1 32  1  0
  1 33  1  0
  6 34  1  0
  7 35  1  0
 13 36  1  0
 13 37  1  0
 14 38  1  0
 14 39  1  0
 16 40  1  0
 16 41  1  0
 17 42  1  0
 17 43  1  0
 19 44  1  0
 20 45  1  0
 21 46  1  0
 22 47  1  0
 23 48  1  0
 24 49  1  0
 24 50  1  0
 25 51  1  0
 25 52  1  0
 26 53  1  0
 28 54  1  0
 28 55  1  0
 29 56  1  1
 30 57  1  0
 30 58  1  0
 30 59  1  0
M  END
>  <UniqueID>  (1) 
1

>  <SMILES>  (1) 
CC(=O)N1c2ccc(S(=O)(=O)N3CCN(CCc4ccccc4)CC3)cc2C[C@@H]1C

>  <Energy>  (1) 
85.38425209363947

>  <Genealogy>  (1) 
CC(=O)N1c2ccc(S(=O)(=O)N3CCN(CCc4ccccc4)CC3)cc2C[C@@H]1C (chirality)
CC(=O)N1c2ccc(S(=O)(=O)N3CCN(CCc4ccccc4)CC3)cc2C[C@@H]1C (3D coordinates assigned)
CC(=O)N1c2ccc(S(=O)(=O)N3CCN(CCc4ccccc4)CC3)cc2C[C@@H]1C (nonaromatic ring conformer: 85.38425209363947 kcal/mol)

>  <smiles>  (1) 
CC(=O)N1c2ccc(S(=O)(=O)N3CCN(CCc4ccccc4)CC3)cc2CC1C

>  <score_type>  (1) 
oracle

>  <origin>  (1) 
adgpu

>  <m_score__min__energy>  (1) 
-10.619999999999999

>  <m_primary>  (1) 
energy

$$$$
1:0
     RDKit          3D

 39 42  0  0  0  0  0  0  0  0999 V2000
   -1.6060   26.0750  -29.5130 H   0  0  0  0  0  0  0  0  0  0  0  0
   -1.8070   25.0610  -29.3570 N   0  0  0  0  0  0  0  0  0  0  0  0
   -2.9380   24.5310  -29.7000 C   0  0  0  0  0  0  0  0  0  0  0  0
   -3.8870   25.3030  -30.2950 N   0  0  0  0  0  0  0  0  0  0  0  0
   -5.0750   24.7970  -30.7140 C   0  0  0  0  0  0  0  0  0  0  0  0
   -5.8193   25.4612  -31.1776 H   0  0  0  0  0  0  0  0  0  0  0  0
   -5.3590   23.4310  -30.5590 C   0  0  0  0  0  0  0  0  0  0  0  0
   -6.6500   22.8650  -31.0250 C   0  0  0  0  0  0  0  0  0  0  0  0
   -7.6620   23.7080  -31.5220 C   0  0  0  0  0  0  0  0  0  0  0  0
   -7.4953   24.7944  -31.5654 H   0  0  0  0  0  0  0  0  0  0  0  0
   -8.8780   23.1740  -31.9610 C   0  0  0  0  0  0  0  0  0  0  0  0
   -9.6634   23.8405  -32.3468 H   0  0  0  0  0  0  0  0  0  0  0  0
   -9.0960   21.7950  -31.9100 C   0  0  0  0  0  0  0  0  0  0  0  0
  -10.3050   21.2650  -32.3470 O   0  0  0  0  0  0  0  0  0  0  0  0
   -8.0990   20.9470  -31.4190 C   0  0  0  0  0  0  0  0  0  0  0  0
   -8.2714   19.8613  -31.3788 H   0  0  0  0  0  0  0  0  0  0  0  0
   -6.8830   21.4780  -30.9790 C   0  0  0  0  0  0  0  0  0  0  0  0
   -6.1019   20.8061  -30.5937 H   0  0  0  0  0  0  0  0  0  0  0  0
   -4.3920   22.6160  -29.9490 C   0  0  0  0  0  0  0  0  0  0  0  0
   -4.5856   21.5400  -29.8273 H   0  0  0  0  0  0  0  0  0  0  0  0
   -3.1840   23.1580  -29.4940 C   0  0  0  0  0  0  0  0  0  0  0  0
   -2.2010   22.2700  -28.8330 C   0  0  0  0  0  0  0  0  0  0  0  0
   -1.9530   22.3110  -27.5080 N   0  0  0  0  0  0  0  0  0  0  0  0
   -1.0270   21.3990  -27.2550 N   0  0  0  0  0  0  0  0  0  0  0  0
   -0.7250   20.8140  -28.4280 C   0  0  0  0  0  0  0  0  0  0  0  0
    0.4640   19.6970  -28.5860 S   0  0  0  0  0  0  0  0  0  0  0  0
   -1.4380   21.3380  -29.4480 N   0  0  0  0  0  0  0  0  0  0  0  0
   -1.2990   21.0820  -30.8580 C   0  0  0  0  0  0  0  0  0  0  0  0
   -2.4120   20.6940  -31.6220 C   0  0  0  0  0  0  0  0  0  0  0  0
   -3.3983   20.6000  -31.1441 H   0  0  0  0  0  0  0  0  0  0  0  0
   -2.2720   20.4270  -32.9860 C   0  0  0  0  0  0  0  0  0  0  0  0
   -3.1478   20.1243  -33.5787 H   0  0  0  0  0  0  0  0  0  0  0  0
   -1.0180   20.5440  -33.6010 C   0  0  0  0  0  0  0  0  0  0  0  0
   -0.8660   20.2790  -34.9600 O   0  0  0  0  0  0  0  0  0  0  0  0
   -1.3370   20.8360  -35.6640 H   0  0  0  0  0  0  0  0  0  0  0  0
    0.0930   20.9300  -32.8450 C   0  0  0  0  0  0  0  0  0  0  0  0
    1.0780   21.0239  -33.3257 H   0  0  0  0  0  0  0  0  0  0  0  0
   -0.0450   21.1970  -31.4790 C   0  0  0  0  0  0  0  0  0  0  0  0
    0.8328   21.4984  -30.8886 H   0  0  0  0  0  0  0  0  0  0  0  0
  1  2  1  0
  2  3  2  0
  3  4  1  0
  4  5  1  0
  5  6  1  0
  5  7  2  0
  7  8  1  0
  8  9  2  0
  9 10  1  0
  9 11  1  0
 11 12  1  0
 11 13  2  0
 13 14  1  0
 13 15  1  0
 15 16  1  0
 15 17  2  0
 17 18  1  0
  7 19  1  0
 19 20  1  0
 19 21  2  0
 21 22  1  0
 22 23  2  0
 23 24  1  0
 24 25  1  0
 25 26  2  0
 25 27  1  0
 27 28  1  0
 28 29  2  0
 29 30  1  0
 29 31  1  0
 31 32  1  0
 31 33  2  0
 33 34  1  0
 34 35  1  0
 33 36  1  0
 36 37  1  0
 36 38  2  0
 38 39  1  0
 21  3  1  0
 27 22  1  0
 38 28  1  0
 17  8  1  0
M  CHG  3   4  -1  14  -1  24  -1
M  END
>  <UniqueID>  (2) 
2

>  <SMILES>  (2) 
[H]/N=c1\[n-]cc(-c2ccc([O-])cc2)cc1-c1n[n-]c(=S)n1-c1ccc(O)cc1

>  <Energy>  (2) 
97.22660268391499

>  <Genealogy>  (2) 
N=c1[n-]cc(-c2ccc([O-])cc2)cc1-c1n[n-]c(=S)n1-c1ccc(O)cc1 (protonated)
[H]/N=c1\[n-]cc(-c2ccc([O-])cc2)cc1-c1n[n-]c(=S)n1-c1ccc(O)cc1 (cis-trans isomerization)
[H]/N=c1\[n-]cc(-c2ccc([O-])cc2)cc1-c1n[n-]c(=S)n1-c1ccc(O)cc1 (3D coordinates assigned)
[H]/N=c1\[n-]cc(-c2ccc([O-])cc2)cc1-c1n[n-]c(=S)n1-c1ccc(O)cc1 (optimized conformer: 97.22660268391499 kcal/mol)

>  <smiles>  (2) 
N=c1[nH]cc(-c2ccc(O)cc2)cc1-c1n[nH]c(=S)n1-c1ccc(O)cc1

>  <score_type>  (2) 
oracle

>  <origin>  (2) 
adgpu

>  <m_score__min__energy>  (2) 
-10.800000000000001

>  <m_primary>  (2) 
energy

$$$$
2:0
     RDKit          3D

 53 55  0  0  0  0  0  0  0  0999 V2000
   -6.6560   25.6750  -29.3690 C   0  0  0  0  0  0  0  0  0  0  0  0
   -6.3240   24.4250  -30.1390 C   0  0  0  0  0  0  0  0  0  0  0  0
   -7.3690   23.5790  -30.5430 C   0  0  0  0  0  0  0  0  0  0  0  0
   -7.1000   22.3800  -31.2170 C   0  0  0  0  0  0  0  0  0  0  0  0
   -8.4230   21.3060  -31.6810 S   0  0  0  0  0  0  0  0  0  0  0  0
   -9.4350   22.0810  -32.4780 O   0  0  0  0  0  0  0  0  0  0  0  0
   -9.1020   20.7920  -30.4430 O   0  0  0  0  0  0  0  0  0  0  0  0
   -7.8480   19.9530  -32.6280 N   0  0  0  0  0  0  0  0  0  0  0  0
   -7.4030   18.8290  -31.7650 C   0  0  0  0  0  0  0  0  0  0  0  0
   -5.8740   18.7280  -31.6560 C   0  0  0  0  0  0  0  0  0  0  0  0
   -5.2280   18.5490  -33.0400 C   0  0  0  0  0  0  0  0  0  0  0  0
   -6.0280   19.2330  -34.1640 C   0  0  0  0  0  0  0  0  0  0  0  0
   -6.8480   20.4060  -33.6200 C   0  0  0  0  0  0  0  0  0  0  0  0
   -5.7770   22.0330  -31.5050 C   0  0  0  0  0  0  0  0  0  0  0  0
   -4.7290   22.8750  -31.1280 C   0  0  0  0  0  0  0  0  0  0  0  0
   -4.9900   24.0840  -30.4690 C   0  0  0  0  0  0  0  0  0  0  0  0
   -3.8860   24.9250  -30.1100 N   0  0  0  0  0  0  0  0  0  0  0  0
   -2.6580   24.4070  -29.5840 C   0  0  0  0  0  0  0  0  0  0  0  0
   -2.5330   23.1730  -29.3570 O   0  0  0  0  0  0  0  0  0  0  0  0
   -1.5810   25.3050  -29.3010 N   0  0  0  0  0  0  0  0  0  0  0  0
   -1.1360   25.6340  -27.9520 C   0  0  0  0  0  0  0  0  0  0  0  0
   -0.2470   24.5190  -27.3930 C   0  0  0  0  0  0  0  0  0  0  0  0
   -1.0740   23.5040  -26.6000 C   0  0  0  0  0  0  0  0  0  0  0  0
   -0.6860   22.1060  -26.9720 C   0  0  0  0  0  0  0  0  0  0  0  0
   -1.3960   20.9650  -26.6870 C   0  0  0  0  0  0  0  0  0  0  0  0
   -0.7650   19.9130  -27.2350 N   0  0  0  0  0  0  0  0  0  0  0  0
    0.3090   20.4550  -27.8480 C   0  0  0  0  0  0  0  0  0  0  0  0
    0.3890   21.7960  -27.7170 N   0  0  0  0  0  0  0  0  0  0  0  0
   -6.6007   25.4667  -28.2903 H   0  0  0  0  0  0  0  0  0  0  0  0
   -5.9369   26.4664  -29.6270 H   0  0  0  0  0  0  0  0  0  0  0  0
   -7.6730   26.0053  -29.6270 H   0  0  0  0  0  0  0  0  0  0  0  0
   -8.4105   23.8603  -30.3282 H   0  0  0  0  0  0  0  0  0  0  0  0
   -7.8179   18.9751  -30.7568 H   0  0  0  0  0  0  0  0  0  0  0  0
   -7.7634   17.8970  -32.2249 H   0  0  0  0  0  0  0  0  0  0  0  0
   -5.4857   19.6482  -31.1952 H   0  0  0  0  0  0  0  0  0  0  0  0
   -5.6261   17.8510  -31.0400 H   0  0  0  0  0  0  0  0  0  0  0  0
   -4.2169   18.9816  -33.0147 H   0  0  0  0  0  0  0  0  0  0  0  0
   -5.2049   17.4711  -33.2582 H   0  0  0  0  0  0  0  0  0  0  0  0
   -5.3290   19.6063  -34.9269 H   0  0  0  0  0  0  0  0  0  0  0  0
   -6.7183   18.4961  -34.6005 H   0  0  0  0  0  0  0  0  0  0  0  0
   -6.1683   21.1253  -33.1398 H   0  0  0  0  0  0  0  0  0  0  0  0
   -7.3820   20.8737  -34.4603 H   0  0  0  0  0  0  0  0  0  0  0  0
   -5.5604   21.0917  -32.0314 H   0  0  0  0  0  0  0  0  0  0  0  0
   -3.6907   22.5873  -31.3499 H   0  0  0  0  0  0  0  0  0  0  0  0
   -4.0450   25.9570  -30.0580 H   0  0  0  0  0  0  0  0  0  0  0  0
   -0.5645   26.5735  -27.9785 H   0  0  0  0  0  0  0  0  0  0  0  0
   -2.0178   25.7444  -27.3037 H   0  0  0  0  0  0  0  0  0  0  0  0
    0.2512   24.0037  -28.2274 H   0  0  0  0  0  0  0  0  0  0  0  0
    0.4968   24.9685  -26.7186 H   0  0  0  0  0  0  0  0  0  0  0  0
   -0.8977   23.6546  -25.5247 H   0  0  0  0  0  0  0  0  0  0  0  0
   -2.1385   23.6520  -26.8342 H   0  0  0  0  0  0  0  0  0  0  0  0
   -2.3285   20.9200  -26.1053 H   0  0  0  0  0  0  0  0  0  0  0  0
    1.0494   19.8595  -28.4022 H   0  0  0  0  0  0  0  0  0  0  0  0
  1  2  1  0
  2  3  2  0
  3  4  1  0
  4  5  1  0
  5  6  2  0
  5  7  2  0
  5  8  1  0
  8  9  1  0
  9 10  1  0
 10 11  1  0
 11 12  1  0
 12 13  1  0
  4 14  2  0
 14 15  1  0
 15 16  2  0
 16 17  1  0
 17 18  1  0
 18 19  2  0
 18 20  1  0
 20 21  1  0
 21 22  1  0
 22 23  1  0
 23 24  1  0
 24 25  2  0
 25 26  1  0
 26 27  1  0
 27 28  2  0
 16  2  1  0
 28 24  1  0
 13  8  1  0
  1 29  1  0
  1 30  1  0
  1 31  1  0
  3 32  1  0
  9 33  1  0
  9 34  1  0
 10 35  1  0
 10 36  1  0
 11 37  1  0
 11 38  1  0
 12 39  1  0
 12 40  1  0
 13 41  1  0
 13 42  1  0
 14 43  1  0
 15 44  1  0
 17 45  1  0
 21 46  1  0
 21 47  1  0
 22 48  1  0
 22 49  1  0
 23 50  1  0
 23 51  1  0
 25 52  1  0
 27 53  1  0
M  CHG  2  20  -1  26  -1
M  END
>  <UniqueID>  (3) 
3

>  <SMILES>  (3) 
Cc1cc(S(=O)(=O)N2CCCCC2)ccc1NC(=O)[N-]CCCc1c[n-]cn1

>  <Energy>  (3) 
83.57282651403654

>  <Genealogy>  (3) 
Cc1cc(S(=O)(=O)N2CCCCC2)ccc1NC(=O)[N-]CCCc1c[n-]cn1 (protonated)
Cc1cc(S(=O)(=O)N2CCCCC2)ccc1NC(=O)[N-]CCCc1c[n-]cn1 (3D coordinates assigned)
Cc1cc(S(=O)(=O)N2CCCCC2)ccc1NC(=O)[N-]CCCc1c[n-]cn1 (nonaromatic ring conformer: 83.57282651403654 kcal/mol)

>  <smiles>  (3) 
Cc1cc(S(=O)(=O)N2CCCCC2)ccc1NC(=O)NCCCc1c[nH]cn1

>  <score_type>  (3) 
oracle

>  <origin>  (3) 
adgpu

>  <m_score__min__energy>  (3) 
-11.33

>  <m_primary>  (3) 
energy

$$$$
3:0
     RDKit          3D

 36 39  0  0  0  0  0  0  0  0999 V2000
   -3.6140   25.3000  -30.3710 N   0  0  0  0  0  0  0  0  0  0  0  0
   -5.2290   24.6900  -30.4370 S   0  0  0  0  0  0  0  0  0  0  0  0
   -5.7980   24.6210  -29.0470 O   0  0  0  0  0  0  0  0  0  0  0  0
   -6.0790   25.6160  -31.2610 O   0  0  0  0  0  0  0  0  0  0  0  0
   -5.2230   23.0840  -31.1590 C   0  0  0  0  0  0  0  0  0  0  0  0
   -4.1260   22.2330  -30.9750 C   0  0  0  0  0  0  0  0  0  0  0  0
   -4.1260   20.9520  -31.5370 C   0  0  0  0  0  0  0  0  0  0  0  0
   -5.2230   20.5040  -32.2950 C   0  0  0  0  0  0  0  0  0  0  0  0
   -5.2000   19.1360  -32.8730 C   0  0  0  0  0  0  0  0  0  0  0  0
   -6.3360   18.3070  -32.8600 C   0  0  0  0  0  0  0  0  0  0  0  0
   -6.2580   17.0310  -33.4180 C   0  0  0  0  0  0  0  0  0  0  0  0
   -7.2750   16.2850  -33.4090 O   0  0  0  0  0  0  0  0  0  0  0  0
   -5.0490   16.5980  -33.9850 C   0  0  0  0  0  0  0  0  0  0  0  0
   -4.9060   15.3230  -34.5630 C   0  0  0  0  0  0  0  0  0  0  0  0
   -3.6770   14.9410  -35.1220 C   0  0  0  0  0  0  0  0  0  0  0  0
   -3.4990   13.6820  -35.7040 C   0  0  0  0  0  0  0  0  0  0  0  0
   -2.2590   13.3480  -36.2480 C   0  0  0  0  0  0  0  0  0  0  0  0
   -1.2210   14.2850  -36.1950 C   0  0  0  0  0  0  0  0  0  0  0  0
   -0.0950   14.0030  -36.6800 O   0  0  0  0  0  0  0  0  0  0  0  0
   -1.4170   15.4760  -35.6350 O   0  0  0  0  0  0  0  0  0  0  0  0
   -2.5840   15.8360  -35.1050 C   0  0  0  0  0  0  0  0  0  0  0  0
   -2.7290   17.1020  -34.5310 C   0  0  0  0  0  0  0  0  0  0  0  0
   -3.9510   17.4880  -33.9720 C   0  0  0  0  0  0  0  0  0  0  0  0
   -4.0720   18.6940  -33.4280 O   0  0  0  0  0  0  0  0  0  0  0  0
   -6.3310   21.3580  -32.4570 C   0  0  0  0  0  0  0  0  0  0  0  0
   -6.3280   22.6370  -31.8920 C   0  0  0  0  0  0  0  0  0  0  0  0
   -3.4730   25.8830  -31.2270 H   0  0  0  0  0  0  0  0  0  0  0  0
   -3.2612   22.5732  -30.3864 H   0  0  0  0  0  0  0  0  0  0  0  0
   -3.2611   20.2896  -31.3849 H   0  0  0  0  0  0  0  0  0  0  0  0
   -7.2770   18.6615  -32.4141 H   0  0  0  0  0  0  0  0  0  0  0  0
   -5.7571   14.6263  -34.5766 H   0  0  0  0  0  0  0  0  0  0  0  0
   -4.3297   12.9614  -35.7325 H   0  0  0  0  0  0  0  0  0  0  0  0
   -2.0994   12.3633  -36.7115 H   0  0  0  0  0  0  0  0  0  0  0  0
   -1.8774   17.7982  -34.5190 H   0  0  0  0  0  0  0  0  0  0  0  0
   -7.2045   21.0166  -33.0318 H   0  0  0  0  0  0  0  0  0  0  0  0
   -7.1991   23.2955  -32.0245 H   0  0  0  0  0  0  0  0  0  0  0  0
  1  2  1  0
  2  3  2  0
  2  4  2  0
  2  5  1  0
  5  6  2  0
  6  7  1  0
  7  8  2  0
  8  9  1  0
  9 10  2  0
 10 11  1  0
 11 12  2  0
 11 13  1  0
 13 14  2  0
 14 15  1  0
 15 16  1  0
 16 17  2  0
 17 18  1  0
 18 19  2  0
 18 20  1  0
 20 21  1  0
 21 22  1  0
 22 23  2  0
 23 24  1  0
  8 25  1  0
 25 26  2  0
 26  5  1  0
 24  9  1  0
 23 13  1  0
 21 15  2  0
  1 27  1  0
  6 28  1  0
  7 29  1  0
 10 30  1  0
 14 31  1  0
 16 32  1  0
 17 33  1  0
 22 34  1  0
 25 35  1  0
 26 36  1  0
M  CHG  1   1  -1
M  END
>  <UniqueID>  (4) 
4

>  <SMILES>  (4) 
[NH-]S(=O)(=O)c1ccc(-c2cc(=O)c3cc4ccc(=O)oc4cc3o2)cc1

>  <Energy>  (4) 
53.549752533724536

>  <Genealogy>  (4) 
[NH-]S(=O)(=O)c1ccc(-c2cc(=O)c3cc4ccc(=O)oc4cc3o2)cc1 (protonated)
[NH-]S(=O)(=O)c1ccc(-c2cc(=O)c3cc4ccc(=O)oc4cc3o2)cc1 (3D coordinates assigned)
[NH-]S(=O)(=O)c1ccc(-c2cc(=O)c3cc4ccc(=O)oc4cc3o2)cc1 (optimized conformer: 53.549752533724536 kcal/mol)

>  <smiles>  (4) 
NS(=O)(=O)c1ccc(-c2cc(=O)c3cc4ccc(=O)oc4cc3o2)cc1

>  <score_type>  (4) 
oracle

>  <origin>  (4) 
adgpu

>  <m_score__min__energy>  (4) 
-9.6500000000000004

>  <m_primary>  (4) 
energy

$$$$
4:0
     RDKit          3D

 47 50  0  0  0  0  0  0  0  0999 V2000
   -4.2460   17.1960  -36.1650 O   0  0  0  0  0  0  0  0  0  0  0  0
   -4.1880   16.3170  -34.9470 S   0  0  0  0  0  0  0  0  0  0  0  0
   -3.8910   14.9070  -35.3750 O   0  0  0  0  0  0  0  0  0  0  0  0
   -5.7250   16.3610  -34.1420 N   0  0  0  0  0  0  0  0  0  0  0  0
   -6.3270   17.5610  -33.6260 C   0  0  0  0  0  0  0  0  0  0  0  0
   -7.2190   17.4690  -32.5450 C   0  0  0  0  0  0  0  0  0  0  0  0
   -7.8150   18.6170  -32.0150 C   0  0  0  0  0  0  0  0  0  0  0  0
   -7.5300   19.8720  -32.5630 C   0  0  0  0  0  0  0  0  0  0  0  0
   -8.2780   21.3120  -31.8970 Cl  0  0  0  0  0  0  0  0  0  0  0  0
   -6.6490   19.9750  -33.6430 C   0  0  0  0  0  0  0  0  0  0  0  0
   -6.0520   18.8290  -34.1770 C   0  0  0  0  0  0  0  0  0  0  0  0
   -2.9210   16.8540  -33.8470 C   0  0  0  0  0  0  0  0  0  0  0  0
   -1.8590   15.9960  -33.5410 C   0  0  0  0  0  0  0  0  0  0  0  0
   -0.8620   16.4060  -32.6570 C   0  0  0  0  0  0  0  0  0  0  0  0
   -0.9180   17.6780  -32.0740 C   0  0  0  0  0  0  0  0  0  0  0  0
   -1.9750   18.5560  -32.3730 C   0  0  0  0  0  0  0  0  0  0  0  0
   -2.9720   18.1290  -33.2690 C   0  0  0  0  0  0  0  0  0  0  0  0
   -2.0740   19.8820  -31.8010 N   0  0  0  0  0  0  0  0  0  0  0  0
   -1.2760   20.4200  -30.9080 C   0  0  0  0  0  0  0  0  0  0  0  0
   -1.5460   21.7920  -30.4110 C   0  0  0  0  0  0  0  0  0  0  0  0
   -0.5480   22.5010  -29.7260 C   0  0  0  0  0  0  0  0  0  0  0  0
   -0.7970   23.7890  -29.2510 C   0  0  0  0  0  0  0  0  0  0  0  0
   -2.0430   24.3870  -29.4480 C   0  0  0  0  0  0  0  0  0  0  0  0
   -2.2650   25.6710  -28.9600 O   0  0  0  0  0  0  0  0  0  0  0  0
   -3.0620   23.6940  -30.1310 C   0  0  0  0  0  0  0  0  0  0  0  0
   -4.4130   24.3440  -30.3320 C   0  0  0  0  0  0  0  0  0  0  0  0
   -5.0860   23.7030  -31.3570 F   0  0  0  0  0  0  0  0  0  0  0  0
   -4.2380   25.6740  -30.6700 F   0  0  0  0  0  0  0  0  0  0  0  0
   -5.1920   24.2790  -29.1910 F   0  0  0  0  0  0  0  0  0  0  0  0
   -2.8040   22.3920  -30.6040 C   0  0  0  0  0  0  0  0  0  0  0  0
   -0.1320   19.7230  -30.3890 N   0  0  0  0  0  0  0  0  0  0  0  0
    0.3300   18.1770  -30.9760 S   0  0  0  0  0  0  0  0  0  0  0  0
    1.6460   18.2780  -31.6950 O   0  0  0  0  0  0  0  0  0  0  0  0
    0.4260   17.2090  -29.8310 O   0  0  0  0  0  0  0  0  0  0  0  0
   -6.1880   15.4420  -33.9590 H   0  0  0  0  0  0  0  0  0  0  0  0
   -7.4506   16.4849  -32.1116 H   0  0  0  0  0  0  0  0  0  0  0  0
   -8.5091   18.5333  -31.1658 H   0  0  0  0  0  0  0  0  0  0  0  0
   -6.4244   20.9615  -34.0746 H   0  0  0  0  0  0  0  0  0  0  0  0
   -5.3645   18.9173  -35.0311 H   0  0  0  0  0  0  0  0  0  0  0  0
   -1.8107   14.9968  -33.9985 H   0  0  0  0  0  0  0  0  0  0  0  0
   -0.0292   15.7286  -32.4168 H   0  0  0  0  0  0  0  0  0  0  0  0
   -3.8027   18.8053  -33.5190 H   0  0  0  0  0  0  0  0  0  0  0  0
   -2.8670   20.4660  -32.1540 H   0  0  0  0  0  0  0  0  0  0  0  0
    0.4367   22.0388  -29.5624 H   0  0  0  0  0  0  0  0  0  0  0  0
   -0.0062   24.3370  -28.7177 H   0  0  0  0  0  0  0  0  0  0  0  0
   -3.5954   21.8381  -31.1303 H   0  0  0  0  0  0  0  0  0  0  0  0
    0.4310   20.1400  -29.6150 H   0  0  0  0  0  0  0  0  0  0  0  0
  1  2  2  0
  2  3  2  0
  2  4  1  0
  4  5  1  0
  5  6  2  0
  6  7  1  0
  7  8  2  0
  8  9  1  0
  8 10  1  0
 10 11  2  0
  2 12  1  0
 12 13  2  0
 13 14  1  0
 14 15  2  0
 15 16  1  0
 16 17  2  0
 16 18  1  0
 18 19  2  0
 19 20  1  0
 20 21  2  0
 21 22  1  0
 22 23  2  0
 23 24  1  0
 23 25  1  0
 25 26  1  0
 26 27  1  0
 26 28  1  0
 26 29  1  0
 25 30  2  0
 19 31  1  0
 31 32  1  0
 32 33  2  0
 32 34  2  0
 11  5  1  0
 17 12  1  0
 30 20  1  0
 32 15  1  0
  4 35  1  0
  6 36  1  0
  7 37  1  0
 10 38  1  0
 11 39  1  0
 13 40  1  0
 14 41  1  0
 17 42  1  0
 18 43  1  0
 21 44  1  0
 22 45  1  0
 30 46  1  0
 31 47  1  0
M  CHG  2  18   1  24  -1
M  END
>  <UniqueID>  (5) 
5

>  <SMILES>  (5) 
O=S(=O)(Nc1ccc(Cl)cc1)c1ccc2c(c1)[NH+]=C(c1ccc([O-])c(C(F)(F)F)c1)NS2(=O)=O

>  <Energy>  (5) 
66.88303983747613

>  <Genealogy>  (5) 
O=S(=O)(Nc1ccc(Cl)cc1)c1ccc2c(c1)[NH+]=C(c1ccc([O-])c(C(F)(F)F)c1)NS2(=O)=O (protonated)
O=S(=O)(Nc1ccc(Cl)cc1)c1ccc2c(c1)[NH+]=C(c1ccc([O-])c(C(F)(F)F)c1)NS2(=O)=O (3D coordinates assigned)
O=S(=O)(Nc1ccc(Cl)cc1)c1ccc2c(c1)[NH+]=C(c1ccc([O-])c(C(F)(F)F)c1)NS2(=O)=O (nonaromatic ring conformer: 66.88303983747613 kcal/mol)

>  <smiles>  (5) 
O=S(=O)(Nc1ccc(Cl)cc1)c1ccc2c(c1)N=C(c1ccc(O)c(C(F)(F)F)c1)NS2(=O)=O

>  <score_type>  (5) 
oracle

>  <origin>  (5) 
adgpu

>  <m_score__min__energy>  (5) 
-10.970000000000001

>  <m_primary>  (5) 
energy

$$$$
5:0
     RDKit          3D

 47 49  0  0  0  0  0  0  0  0999 V2000
   -3.7110   19.0390  -34.2030 C   0  0  0  0  0  0  0  0  0  0  0  0
   -4.7170   18.3900  -33.2860 C   0  0  0  0  0  0  0  0  0  0  0  0
   -4.4380   17.1100  -32.7800 C   0  0  0  0  0  0  0  0  0  0  0  0
   -5.3270   16.4720  -31.9190 C   0  0  0  0  0  0  0  0  0  0  0  0
   -5.0190   15.2040  -31.4300 O   0  0  0  0  0  0  0  0  0  0  0  0
   -6.5150   17.1050  -31.5510 C   0  0  0  0  0  0  0  0  0  0  0  0
   -6.8320   18.3820  -32.0420 C   0  0  0  0  0  0  0  0  0  0  0  0
   -8.1290   19.0140  -31.6020 C   0  0  0  0  0  0  0  0  0  0  0  0
   -5.9210   19.0500  -32.9090 C   0  0  0  0  0  0  0  0  0  0  0  0
   -6.2390   20.4350  -33.4580 C   0  0  0  0  0  0  0  0  0  0  0  0
   -5.6030   21.5460  -32.6530 C   0  0  0  0  0  0  0  0  0  0  0  0
   -6.4060   22.5900  -32.1650 C   0  0  0  0  0  0  0  0  0  0  0  0
   -5.8390   23.6440  -31.4430 C   0  0  0  0  0  0  0  0  0  0  0  0
   -4.4550   23.6780  -31.2050 C   0  0  0  0  0  0  0  0  0  0  0  0
   -3.8350   24.7280  -30.4490 N   0  0  0  0  0  0  0  0  0  0  0  0
   -2.9810   24.5100  -28.9570 S   0  0  0  0  0  0  0  0  0  0  0  0
   -1.8990   25.5470  -28.8470 O   0  0  0  0  0  0  0  0  0  0  0  0
   -3.9360   24.6820  -27.8100 O   0  0  0  0  0  0  0  0  0  0  0  0
   -2.2400   22.9110  -28.9270 C   0  0  0  0  0  0  0  0  0  0  0  0
   -1.0640   22.6550  -29.6440 C   0  0  0  0  0  0  0  0  0  0  0  0
   -0.4640   21.3940  -29.5850 C   0  0  0  0  0  0  0  0  0  0  0  0
   -1.0390   20.3800  -28.8090 C   0  0  0  0  0  0  0  0  0  0  0  0
   -0.4170   19.0850  -28.7430 C   0  0  0  0  0  0  0  0  0  0  0  0
    0.0870   18.0430  -28.6950 N   0  0  0  0  0  0  0  0  0  0  0  0
   -2.2200   20.6310  -28.0970 C   0  0  0  0  0  0  0  0  0  0  0  0
   -2.8170   21.8940  -28.1570 C   0  0  0  0  0  0  0  0  0  0  0  0
   -3.6490   22.6570  -31.7200 C   0  0  0  0  0  0  0  0  0  0  0  0
   -4.2130   21.6060  -32.4480 C   0  0  0  0  0  0  0  0  0  0  0  0
   -2.9365   19.5387  -33.6026 H   0  0  0  0  0  0  0  0  0  0  0  0
   -3.2445   18.2711  -34.8376 H   0  0  0  0  0  0  0  0  0  0  0  0
   -4.2183   19.7806  -34.8376 H   0  0  0  0  0  0  0  0  0  0  0  0
   -3.5044   16.6045  -33.0678 H   0  0  0  0  0  0  0  0  0  0  0  0
   -5.3550   14.8910  -30.5260 H   0  0  0  0  0  0  0  0  0  0  0  0
   -7.2118   16.5974  -30.8678 H   0  0  0  0  0  0  0  0  0  0  0  0
   -8.1723   19.0351  -30.5031 H   0  0  0  0  0  0  0  0  0  0  0  0
   -8.1868   20.0413  -31.9910 H   0  0  0  0  0  0  0  0  0  0  0  0
   -8.9737   18.4265  -31.9910 H   0  0  0  0  0  0  0  0  0  0  0  0
   -5.8706   20.4958  -34.4927 H   0  0  0  0  0  0  0  0  0  0  0  0
   -7.3294   20.5698  -33.4038 H   0  0  0  0  0  0  0  0  0  0  0  0
   -7.4898   22.5780  -32.3525 H   0  0  0  0  0  0  0  0  0  0  0  0
   -6.4800   24.4513  -31.0591 H   0  0  0  0  0  0  0  0  0  0  0  0
   -0.6112   23.4493  -30.2556 H   0  0  0  0  0  0  0  0  0  0  0  0
    0.4602   21.1980  -30.1484 H   0  0  0  0  0  0  0  0  0  0  0  0
   -2.6770   19.8346  -27.4912 H   0  0  0  0  0  0  0  0  0  0  0  0
   -3.7435   22.0893  -27.5971 H   0  0  0  0  0  0  0  0  0  0  0  0
   -2.5624   22.6818  -31.5505 H   0  0  0  0  0  0  0  0  0  0  0  0
   -3.5652   20.8201  -32.8636 H   0  0  0  0  0  0  0  0  0  0  0  0
  1  2  1  0
  2  3  2  0
  3  4  1  0
  4  5  1  0
  4  6  2  0
  6  7  1  0
  7  8  1  0
  7  9  2  0
  9 10  1  0
 10 11  1  0
 11 12  2  0
 12 13  1  0
 13 14  2  0
 14 15  1  0
 15 16  1  0
 16 17  2  0
 16 18  2  0
 16 19  1  0
 19 20  2  0
 20 21  1  0
 21 22  2  0
 22 23  1  0
 23 24  3  0
 22 25  1  0
 25 26  2  0
 14 27  1  0
 27 28  2  0
  9  2  1  0
 28 11  1  0
 26 19  1  0
  1 29  1  0
  1 30  1  0
  1 31  1  0
  3 32  1  0
  5 33  1  0
  6 34  1  0
  8 35  1  0
  8 36  1  0
  8 37  1  0
 10 38  1  0
 10 39  1  0
 12 40  1  0
 13 41  1  0
 20 42  1  0
 21 43  1  0
 25 44  1  0
 26 45  1  0
 27 46  1  0
 28 47  1  0
M  CHG  1  15  -1
M  END
>  <UniqueID>  (6) 
6

>  <SMILES>  (6) 
Cc1cc(O)cc(C)c1Cc1ccc([N-]S(=O)(=O)c2ccc(C#N)cc2)cc1

>  <Energy>  (6) 
54.447411716589066

>  <Genealogy>  (6) 
Cc1cc(O)cc(C)c1Cc1ccc([N-]S(=O)(=O)c2ccc(C#N)cc2)cc1 (protonated)
Cc1cc(O)cc(C)c1Cc1ccc([N-]S(=O)(=O)c2ccc(C#N)cc2)cc1 (3D coordinates assigned)
Cc1cc(O)cc(C)c1Cc1ccc([N-]S(=O)(=O)c2ccc(C#N)cc2)cc1 (optimized conformer: 54.447411716589066 kcal/mol)

>  <smiles>  (6) 
Cc1cc(O)cc(C)c1Cc1ccc(NS(=O)(=O)c2ccc(C#N)cc2)cc1

>  <score_type>  (6) 
oracle

>  <origin>  (6) 
adgpu

>  <m_score__min__energy>  (6) 
-10.66

>  <m_primary>  (6) 
energy

$$$$
6:0
     RDKit          3D

 53 55  0  0  0  0  0  0  0  0999 V2000
    0.1040   20.4870  -33.0910 C   0  0  0  0  0  0  0  0  0  0  0  0
   -0.4650   20.3380  -31.7120 C   0  0  0  0  0  0  0  0  0  0  0  0
    0.3490   19.9090  -30.6520 C   0  0  0  0  0  0  0  0  0  0  0  0
   -0.1690   19.8210  -29.3580 C   0  0  0  0  0  0  0  0  0  0  0  0
   -1.5010   20.1750  -29.1060 C   0  0  0  0  0  0  0  0  0  0  0  0
   -2.1310   20.0800  -27.4660 S   0  0  0  0  0  0  0  0  0  0  0  0
   -3.0090   18.8720  -27.2970 O   0  0  0  0  0  0  0  0  0  0  0  0
   -0.9770   19.9890  -26.5120 O   0  0  0  0  0  0  0  0  0  0  0  0
   -3.0450   21.5100  -27.1130 N   0  0  0  0  0  0  0  0  0  0  0  0
   -3.2900   22.5800  -28.0360 C   0  0  0  0  0  0  0  0  0  0  0  0
   -4.4850   22.6520  -28.7740 C   0  0  0  0  0  0  0  0  0  0  0  0
   -4.7010   23.6910  -29.6960 C   0  0  0  0  0  0  0  0  0  0  0  0
   -6.0130   23.7560  -30.4590 C   0  0  0  0  0  0  0  0  0  0  0  0
   -5.9290   23.2440  -31.8470 N   0  0  0  0  0  0  0  0  0  0  0  0
   -7.1730   22.5890  -32.2880 C   0  0  0  0  0  0  0  0  0  0  0  0
   -4.7680   22.3670  -32.0610 C   0  0  0  0  0  0  0  0  0  0  0  0
   -3.6890   24.6470  -29.9020 C   0  0  0  0  0  0  0  0  0  0  0  0
   -3.8510   25.6680  -30.8370 O   0  0  0  0  0  0  0  0  0  0  0  0
   -2.5000   24.5790  -29.1700 C   0  0  0  0  0  0  0  0  0  0  0  0
   -2.3010   23.5620  -28.2270 C   0  0  0  0  0  0  0  0  0  0  0  0
   -1.0520   23.4740  -27.5230 N   0  0  0  0  0  0  0  0  0  0  0  0
   -0.9470   23.8480  -26.1140 C   0  0  0  0  0  0  0  0  0  0  0  0
   -0.0430   22.8340  -25.4040 C   0  0  0  0  0  0  0  0  0  0  0  0
    1.2030   22.7240  -26.0720 O   0  0  0  0  0  0  0  0  0  0  0  0
    1.0160   22.1930  -27.3710 C   0  0  0  0  0  0  0  0  0  0  0  0
    0.1860   23.1480  -28.2350 C   0  0  0  0  0  0  0  0  0  0  0  0
   -2.3130   20.6150  -30.1600 C   0  0  0  0  0  0  0  0  0  0  0  0
   -1.7950   20.7030  -31.4540 C   0  0  0  0  0  0  0  0  0  0  0  0
    1.1660   20.7651  -33.0214 H   0  0  0  0  0  0  0  0  0  0  0  0
    0.0093   19.5338  -33.6317 H   0  0  0  0  0  0  0  0  0  0  0  0
   -0.4458   21.2715  -33.6317 H   0  0  0  0  0  0  0  0  0  0  0  0
    1.3990   19.6411  -30.8412 H   0  0  0  0  0  0  0  0  0  0  0  0
    0.4709   19.4726  -28.5339 H   0  0  0  0  0  0  0  0  0  0  0  0
   -5.2605   21.8856  -28.6279 H   0  0  0  0  0  0  0  0  0  0  0  0
   -6.7596   23.1591  -29.9147 H   0  0  0  0  0  0  0  0  0  0  0  0
   -6.2888   24.8186  -30.5279 H   0  0  0  0  0  0  0  0  0  0  0  0
   -7.7572   22.2814  -31.4082 H   0  0  0  0  0  0  0  0  0  0  0  0
   -7.7637   23.2930  -32.8925 H   0  0  0  0  0  0  0  0  0  0  0  0
   -6.9268   21.7036  -32.8925 H   0  0  0  0  0  0  0  0  0  0  0  0
   -4.3581   22.0574  -31.0883 H   0  0  0  0  0  0  0  0  0  0  0  0
   -5.0801   21.4772  -32.6274 H   0  0  0  0  0  0  0  0  0  0  0  0
   -3.9974   22.9105  -32.6274 H   0  0  0  0  0  0  0  0  0  0  0  0
   -1.7139   25.3304  -29.3358 H   0  0  0  0  0  0  0  0  0  0  0  0
   -0.5121   24.8548  -26.0294 H   0  0  0  0  0  0  0  0  0  0  0  0
   -1.9447   23.8503  -25.6508 H   0  0  0  0  0  0  0  0  0  0  0  0
    0.1293   23.1654  -24.3693 H   0  0  0  0  0  0  0  0  0  0  0  0
   -0.5376   21.8515  -25.4110 H   0  0  0  0  0  0  0  0  0  0  0  0
    1.9978   22.0407  -27.8431 H   0  0  0  0  0  0  0  0  0  0  0  0
    0.4790   21.2367  -27.2870 H   0  0  0  0  0  0  0  0  0  0  0  0
    0.7581   24.0687  -28.4224 H   0  0  0  0  0  0  0  0  0  0  0  0
   -0.0510   22.6708  -29.1973 H   0  0  0  0  0  0  0  0  0  0  0  0
   -3.3602   20.8915  -29.9678 H   0  0  0  0  0  0  0  0  0  0  0  0
   -2.4333   21.0605  -32.2755 H   0  0  0  0  0  0  0  0  0  0  0  0
  1  2  1  0
  2  3  2  0
  3  4  1  0
  4  5  2  0
  5  6  1  0
  6  7  2  0
  6  8  2  0
  6  9  1  0
  9 10  1  0
 10 11  2  0
 11 12  1  0
 12 13  1  0
 13 14  1  0
 14 15  1  0
 14 16  1  0
 12 17  2  0
 17 18  1  0
 17 19  1  0
 19 20  2  0
 20 21  1  0
 21 22  1  0
 22 23  1  0
 23 24  1  0
 24 25  1  0
 25 26  1  0
  5 27  1  0
 27 28  2  0
 28  2  1  0
 20 10  1  0
 26 21  1  0
  1 29  1  0
  1 30  1  0
  1 31  1  0
  3 32  1  0
  4 33  1  0
 11 34  1  0
 13 35  1  0
 13 36  1  0
 15 37  1  0
 15 38  1  0
 15 39  1  0
 16 40  1  0
 16 41  1  0
 16 42  1  0
 19 43  1  0
 22 44  1  0
 22 45  1  0
 23 46  1  0
 23 47  1  0
 25 48  1  0
 25 49  1  0
 26 50  1  0
 26 51  1  0
 27 52  1  0
 28 53  1  0
M  CHG  2   9  -1  18  -1
M  END
>  <UniqueID>  (7) 
7

>  <SMILES>  (7) 
Cc1ccc(S(=O)(=O)[N-]c2cc(CN(C)C)c([O-])cc2N2CCOCC2)cc1

>  <Energy>  (7) 
64.82006970114512

>  <Genealogy>  (7) 
Cc1ccc(S(=O)(=O)[N-]c2cc(CN(C)C)c([O-])cc2N2CCOCC2)cc1 (protonated)
Cc1ccc(S(=O)(=O)[N-]c2cc(CN(C)C)c([O-])cc2N2CCOCC2)cc1 (3D coordinates assigned)
Cc1ccc(S(=O)(=O)[N-]c2cc(CN(C)C)c([O-])cc2N2CCOCC2)cc1 (nonaromatic ring conformer: 64.82006970114512 kcal/mol)

>  <smiles>  (7) 
Cc1ccc(S(=O)(=O)Nc2cc(CN(C)C)c(O)cc2N2CCOCC2)cc1

>  <score_type>  (7) 
oracle

>  <origin>  (7) 
adgpu

>  <m_score__min__energy>  (7) 
-10.779999999999999

>  <m_primary>  (7) 
energy

$$$$
7:0
     RDKit          3D

 59 62  0  0  0  0  0  0  0  0999 V2000
   -2.7390   21.6270  -31.6750 O   0  0  0  0  0  0  0  0  0  0  0  0
   -2.9510   22.4800  -30.7700 C   0  0  0  0  0  0  0  0  0  0  0  0
   -1.9300   22.7590  -29.8000 N   0  0  0  0  0  0  0  0  0  0  0  0
   -0.8590   21.8530  -29.4820 C   0  0  0  0  0  0  0  0  0  0  0  0
   -0.3720   20.9330  -30.4270 C   0  0  0  0  0  0  0  0  0  0  0  0
    0.6560   20.0490  -30.0880 C   0  0  0  0  0  0  0  0  0  0  0  0
    1.2080   20.0680  -28.8000 C   0  0  0  0  0  0  0  0  0  0  0  0
    2.5270   18.9720  -28.3830 S   0  0  0  0  0  0  0  0  0  0  0  0
    2.9990   18.2730  -29.6280 O   0  0  0  0  0  0  0  0  0  0  0  0
    3.6780   19.7680  -27.8370 O   0  0  0  0  0  0  0  0  0  0  0  0
    2.0380   17.7750  -27.2000 N   0  0  0  0  0  0  0  0  0  0  0  0
    0.7730   17.1380  -27.5840 C   0  0  0  0  0  0  0  0  0  0  0  0
    1.0890   15.8070  -28.2510 C   0  0  0  0  0  0  0  0  0  0  0  0
    2.5460   15.5250  -27.9420 C   0  0  0  0  0  0  0  0  0  0  0  0
    3.0260   16.6960  -27.0990 C   0  0  0  0  0  0  0  0  0  0  0  0
    0.7050   20.9630  -27.8470 C   0  0  0  0  0  0  0  0  0  0  0  0
   -0.3250   21.8450  -28.1840 C   0  0  0  0  0  0  0  0  0  0  0  0
   -4.2270   23.2340  -30.7680 C   0  0  0  0  0  0  0  0  0  0  0  0
   -5.4260   22.5640  -31.0700 C   0  0  0  0  0  0  0  0  0  0  0  0
   -6.6490   23.2480  -31.0720 C   0  0  0  0  0  0  0  0  0  0  0  0
   -8.1490   22.3890  -31.4320 S   0  0  0  0  0  0  0  0  0  0  0  0
   -9.1290   23.3450  -32.0550 O   0  0  0  0  0  0  0  0  0  0  0  0
   -8.7490   21.8790  -30.1520 O   0  0  0  0  0  0  0  0  0  0  0  0
   -7.8740   21.0450  -32.5150 N   0  0  0  0  0  0  0  0  0  0  0  0
   -9.1050   20.2390  -32.7090 C   0  0  0  0  0  0  0  0  0  0  0  0
   -9.0930   18.9240  -31.9150 C   0  0  0  0  0  0  0  0  0  0  0  0
   -7.8890   18.0500  -32.3030 C   0  0  0  0  0  0  0  0  0  0  0  0
   -6.6640   18.8810  -32.7290 C   0  0  0  0  0  0  0  0  0  0  0  0
   -6.6900   20.2690  -32.0830 C   0  0  0  0  0  0  0  0  0  0  0  0
   -6.6740   24.6160  -30.7760 C   0  0  0  0  0  0  0  0  0  0  0  0
   -5.4940   25.2890  -30.4620 C   0  0  0  0  0  0  0  0  0  0  0  0
   -4.2730   24.6070  -30.4450 C   0  0  0  0  0  0  0  0  0  0  0  0
   -3.1230   25.2990  -30.0800 O   0  0  0  0  0  0  0  0  0  0  0  0
   -1.9020   23.7180  -29.3830 H   0  0  0  0  0  0  0  0  0  0  0  0
   -0.8025   20.9088  -31.4390 H   0  0  0  0  0  0  0  0  0  0  0  0
    1.0334   19.3354  -30.8352 H   0  0  0  0  0  0  0  0  0  0  0  0
    0.1559   16.9681  -26.6894 H   0  0  0  0  0  0  0  0  0  0  0  0
    0.2184   17.7866  -28.2781 H   0  0  0  0  0  0  0  0  0  0  0  0
    0.4496   15.0116  -27.8405 H   0  0  0  0  0  0  0  0  0  0  0  0
    0.9051   15.8439  -29.3349 H   0  0  0  0  0  0  0  0  0  0  0  0
    2.6432   14.5840  -27.3807 H   0  0  0  0  0  0  0  0  0  0  0  0
    3.1409   15.4176  -28.8610 H   0  0  0  0  0  0  0  0  0  0  0  0
    3.1268   16.3817  -26.0497 H   0  0  0  0  0  0  0  0  0  0  0  0
    4.0049   17.0450  -27.4596 H   0  0  0  0  0  0  0  0  0  0  0  0
    1.1225   20.9715  -26.8293 H   0  0  0  0  0  0  0  0  0  0  0  0
   -0.7202   22.5380  -27.4267 H   0  0  0  0  0  0  0  0  0  0  0  0
   -5.4035   21.4902  -31.3075 H   0  0  0  0  0  0  0  0  0  0  0  0
   -9.9698   20.8364  -32.3847 H   0  0  0  0  0  0  0  0  0  0  0  0
   -9.1628   19.9784  -33.7761 H   0  0  0  0  0  0  0  0  0  0  0  0
   -9.0377   19.1542  -30.8408 H   0  0  0  0  0  0  0  0  0  0  0  0
  -10.0144   18.3695  -32.1464 H   0  0  0  0  0  0  0  0  0  0  0  0
   -7.6104   17.4306  -31.4377 H   0  0  0  0  0  0  0  0  0  0  0  0
   -8.1888   17.4347  -33.1641 H   0  0  0  0  0  0  0  0  0  0  0  0
   -5.7482   18.3568  -32.4182 H   0  0  0  0  0  0  0  0  0  0  0  0
   -6.6866   19.0030  -33.8220 H   0  0  0  0  0  0  0  0  0  0  0  0
   -6.7173   20.1540  -30.9894 H   0  0  0  0  0  0  0  0  0  0  0  0
   -5.7869   20.8131  -32.3965 H   0  0  0  0  0  0  0  0  0  0  0  0
   -7.6286   25.1623  -30.7912 H   0  0  0  0  0  0  0  0  0  0  0  0
   -5.5235   26.3630  -30.2262 H   0  0  0  0  0  0  0  0  0  0  0  0
  1  2  2  0
  2  3  1  0
  3  4  1  0
  4  5  2  0
  5  6  1  0
  6  7  2  0
  7  8  1  0
  8  9  2  0
  8 10  2  0
  8 11  1  0
 11 12  1  0
 12 13  1  0
 13 14  1  0
 14 15  1  0
  7 16  1  0
 16 17  2  0
  2 18  1  0
 18 19  2  0
 19 20  1  0
 20 21  1  0
 21 22  2  0
 21 23  2  0
 21 24  1  0
 24 25  1  0
 25 26  1  0
 26 27  1  0
 27 28  1  0
 28 29  1  0
 20 30  2  0
 30 31  1  0
 31 32  2  0
 32 33  1  0
 17  4  1  0
 32 18  1  0
 15 11  1  0
 29 24  1  0
  3 34  1  0
  5 35  1  0
  6 36  1  0
 12 37  1  0
 12 38  1  0
 13 39  1  0
 13 40  1  0
 14 41  1  0
 14 42  1  0
 15 43  1  0
 15 44  1  0
 16 45  1  0
 17 46  1  0
 19 47  1  0
 25 48  1  0
 25 49  1  0
 26 50  1  0
 26 51  1  0
 27 52  1  0
 27 53  1  0
 28 54  1  0
 28 55  1  0
 29 56  1  0
 29 57  1  0
 30 58  1  0
 31 59  1  0
M  CHG  1  33  -1
M  END
>  <UniqueID>  (8) 
8

>  <SMILES>  (8) 
O=C(Nc1ccc(S(=O)(=O)N2CCCC2)cc1)c1cc(S(=O)(=O)N2CCCCC2)ccc1[O-]

>  <Energy>  (8) 
72.75516731712631

>  <Genealogy>  (8) 
O=C(Nc1ccc(S(=O)(=O)N2CCCC2)cc1)c1cc(S(=O)(=O)N2CCCCC2)ccc1[O-] (protonated)
O=C(Nc1ccc(S(=O)(=O)N2CCCC2)cc1)c1cc(S(=O)(=O)N2CCCCC2)ccc1[O-] (3D coordinates assigned)
O=C(Nc1ccc(S(=O)(=O)N2CCCC2)cc1)c1cc(S(=O)(=O)N2CCCCC2)ccc1[O-] (nonaromatic ring conformer: 72.75516731712631 kcal/mol)

>  <smiles>  (8) 
O=C(Nc1ccc(S(=O)(=O)N2CCCC2)cc1)c1cc(S(=O)(=O)N2CCCCC2)ccc1O

>  <score_type>  (8) 
oracle

>  <origin>  (8) 
adgpu

>  <m_score__min__energy>  (8) 
-13.08

>  <m_primary>  (8) 
energy

$$$$
8:0
     RDKit          3D

 45 47  0  0  0  0  0  0  0  0999 V2000
   -1.3280   21.6510  -26.7670 C   0  0  0  0  0  0  0  0  0  0  0  0
   -1.9100   22.6390  -27.7450 C   0  0  0  0  0  0  0  0  0  0  0  0
   -3.0400   22.2390  -28.4750 C   0  0  0  0  0  0  0  0  0  0  0  0
   -3.6610   23.1090  -29.3610 C   0  0  0  0  0  0  0  0  0  0  0  0
   -3.1640   24.3950  -29.5600 C   0  0  0  0  0  0  0  0  0  0  0  0
   -3.8650   25.2560  -30.4690 N   0  0  0  0  0  0  0  0  0  0  0  0
   -5.1620   25.0350  -31.0370 C   0  0  0  0  0  0  0  0  0  0  0  0
   -6.1270   25.7380  -30.6380 O   0  0  0  0  0  0  0  0  0  0  0  0
   -5.4020   24.0400  -32.0410 N   0  0  0  0  0  0  0  0  0  0  0  0
   -6.3700   22.9800  -32.0050 C   0  0  0  0  0  0  0  0  0  0  0  0
   -7.7180   23.2130  -31.6740 C   0  0  0  0  0  0  0  0  0  0  0  0
   -8.6270   22.1520  -31.6330 C   0  0  0  0  0  0  0  0  0  0  0  0
   -8.2080   20.8580  -31.9540 C   0  0  0  0  0  0  0  0  0  0  0  0
   -6.8850   20.6290  -32.3390 C   0  0  0  0  0  0  0  0  0  0  0  0
   -5.9720   21.6880  -32.3790 C   0  0  0  0  0  0  0  0  0  0  0  0
   -4.6630   21.4510  -32.7850 O   0  0  0  0  0  0  0  0  0  0  0  0
   -2.0510   24.8340  -28.8140 C   0  0  0  0  0  0  0  0  0  0  0  0
   -1.6100   26.1450  -28.9590 O   0  0  0  0  0  0  0  0  0  0  0  0
   -1.4120   23.9640  -27.8970 C   0  0  0  0  0  0  0  0  0  0  0  0
   -0.0410   24.5860  -26.9300 S   0  0  0  0  0  0  0  0  0  0  0  0
    1.0090   25.1900  -27.8180 O   0  0  0  0  0  0  0  0  0  0  0  0
    0.6100   23.4350  -26.2120 O   0  0  0  0  0  0  0  0  0  0  0  0
   -0.5320   25.7850  -25.7550 N   0  0  0  0  0  0  0  0  0  0  0  0
   -0.0500   25.4370  -24.4080 C   0  0  0  0  0  0  0  0  0  0  0  0
   -0.2670   26.6080  -23.4280 C   0  0  0  0  0  0  0  0  0  0  0  0
   -1.1540   27.5640  -23.9740 O   0  0  0  0  0  0  0  0  0  0  0  0
   -0.5700   28.1640  -25.1180 C   0  0  0  0  0  0  0  0  0  0  0  0
   -0.0550   27.1200  -26.1330 C   0  0  0  0  0  0  0  0  0  0  0  0
   -1.5280   21.9905  -25.7400 H   0  0  0  0  0  0  0  0  0  0  0  0
   -1.7895   20.6648  -26.9236 H   0  0  0  0  0  0  0  0  0  0  0  0
   -0.2418   21.5765  -26.9236 H   0  0  0  0  0  0  0  0  0  0  0  0
   -3.4390   21.2224  -28.3434 H   0  0  0  0  0  0  0  0  0  0  0  0
   -4.5545   22.7794  -29.9114 H   0  0  0  0  0  0  0  0  0  0  0  0
   -8.0576   24.2343  -31.4466 H   0  0  0  0  0  0  0  0  0  0  0  0
   -9.6734   22.3357  -31.3477 H   0  0  0  0  0  0  0  0  0  0  0  0
   -8.9195   20.0206  -31.9035 H   0  0  0  0  0  0  0  0  0  0  0  0
   -6.5604   19.6139  -32.6113 H   0  0  0  0  0  0  0  0  0  0  0  0
   -0.6000   24.5563  -24.0447 H   0  0  0  0  0  0  0  0  0  0  0  0
    1.0269   25.2201  -24.4645 H   0  0  0  0  0  0  0  0  0  0  0  0
   -0.6894   26.2191  -22.4898 H   0  0  0  0  0  0  0  0  0  0  0  0
    0.7019   27.0939  -23.2403 H   0  0  0  0  0  0  0  0  0  0  0  0
   -1.3255   28.7933  -25.6112 H   0  0  0  0  0  0  0  0  0  0  0  0
    0.2925   28.7580  -24.7815 H   0  0  0  0  0  0  0  0  0  0  0  0
   -0.4284   27.3709  -27.1368 H   0  0  0  0  0  0  0  0  0  0  0  0
    1.0450   27.1264  -26.1355 H   0  0  0  0  0  0  0  0  0  0  0  0
  1  2  1  0
  2  3  2  0
  3  4  1  0
  4  5  2  0
  5  6  1  0
  6  7  1  0
  7  8  2  0
  7  9  1  0
  9 10  1  0
 10 11  2  0
 11 12  1  0
 12 13  2  0
 13 14  1  0
 14 15  2  0
 15 16  1  0
  5 17  1  0
 17 18  1  0
 17 19  2  0
 19 20  1  0
 20 21  2  0
 20 22  2  0
 20 23  1  0
 23 24  1  0
 24 25  1  0
 25 26  1  0
 26 27  1  0
 27 28  1  0
 19  2  1  0
 28 23  1  0
 15 10  1  0
  1 29  1  0
  1 30  1  0
  1 31  1  0
  3 32  1  0
  4 33  1  0
 11 34  1  0
 12 35  1  0
 13 36  1  0
 14 37  1  0
 24 38  1  0
 24 39  1  0
 25 40  1  0
 25 41  1  0
 27 42  1  0
 27 43  1  0
 28 44  1  0
 28 45  1  0
M  CHG  4   6  -1   9  -1  16  -1  18  -1
M  END
>  <UniqueID>  (9) 
9

>  <SMILES>  (9) 
Cc1ccc([N-]C(=O)[N-]c2ccccc2[O-])c([O-])c1S(=O)(=O)N1CCOCC1

>  <Energy>  (9) 
65.48465059581373

>  <Genealogy>  (9) 
Cc1ccc([N-]C(=O)[N-]c2ccccc2[O-])c([O-])c1S(=O)(=O)N1CCOCC1 (protonated)
Cc1ccc([N-]C(=O)[N-]c2ccccc2[O-])c([O-])c1S(=O)(=O)N1CCOCC1 (3D coordinates assigned)
Cc1ccc([N-]C(=O)[N-]c2ccccc2[O-])c([O-])c1S(=O)(=O)N1CCOCC1 (nonaromatic ring conformer: 65.48465059581373 kcal/mol)

>  <smiles>  (9) 
Cc1ccc(NC(=O)Nc2ccccc2O)c(O)c1S(=O)(=O)N1CCOCC1

>  <score_type>  (9) 
oracle

>  <origin>  (9) 
adgpu

>  <m_score__min__energy>  (9) 
-14.57

>  <m_primary>  (9) 
energy

$$$$
9:0
     RDKit          3D

 51 54  0  0  0  0  0  0  0  0999 V2000
    1.5640   23.7770  -24.2930 C   0  0  0  0  0  0  0  0  0  0  0  0
    0.6050   23.9940  -25.4210 C   0  0  0  0  0  0  0  0  0  0  0  0
   -0.4580   22.8130  -25.9930 S   0  0  0  0  0  0  0  0  0  0  0  0
   -1.1380   23.7830  -27.1800 C   0  0  0  0  0  0  0  0  0  0  0  0
   -2.1410   23.4410  -28.0810 C   0  0  0  0  0  0  0  0  0  0  0  0
   -2.5650   24.4250  -28.9960 C   0  0  0  0  0  0  0  0  0  0  0  0
   -3.6330   24.1510  -29.9910 C   0  0  0  0  0  0  0  0  0  0  0  0
   -4.6420   25.0950  -30.2650 C   0  0  0  0  0  0  0  0  0  0  0  0
   -5.6460   24.8090  -31.1930 C   0  0  0  0  0  0  0  0  0  0  0  0
   -5.6650   23.5790  -31.8500 C   0  0  0  0  0  0  0  0  0  0  0  0
   -4.6810   22.6190  -31.5790 C   0  0  0  0  0  0  0  0  0  0  0  0
   -4.7270   21.0460  -32.3800 S   0  0  0  0  0  0  0  0  0  0  0  0
   -4.4720   19.9680  -31.3640 O   0  0  0  0  0  0  0  0  0  0  0  0
   -3.6340   20.9830  -33.4100 O   0  0  0  0  0  0  0  0  0  0  0  0
   -6.2720   20.7600  -33.1520 N   0  0  0  0  0  0  0  0  0  0  0  0
   -7.3740   21.0160  -32.1950 C   0  0  0  0  0  0  0  0  0  0  0  0
   -8.6720   20.3310  -32.6460 C   0  0  0  0  0  0  0  0  0  0  0  0
   -8.5250   18.8570  -32.7480 N   0  0  0  0  0  0  0  0  0  0  0  0
   -9.1290   18.1780  -31.5900 C   0  0  0  0  0  0  0  0  0  0  0  0
   -7.1250   18.4090  -32.9310 C   0  0  0  0  0  0  0  0  0  0  0  0
   -6.3260   19.4130  -33.7770 C   0  0  0  0  0  0  0  0  0  0  0  0
   -3.6660   22.9120  -30.6570 C   0  0  0  0  0  0  0  0  0  0  0  0
   -1.9910   25.6680  -28.9580 N   0  0  0  0  0  0  0  0  0  0  0  0
   -1.0080   26.0040  -28.0750 C   0  0  0  0  0  0  0  0  0  0  0  0
   -0.5260   27.1660  -28.0990 O   0  0  0  0  0  0  0  0  0  0  0  0
   -0.5580   25.0430  -27.1560 C   0  0  0  0  0  0  0  0  0  0  0  0
    0.4370   25.1770  -26.1600 C   0  0  0  0  0  0  0  0  0  0  0  0
    1.2200   26.4360  -25.9150 C   0  0  0  0  0  0  0  0  0  0  0  0
    1.0365   23.8964  -23.3351 H   0  0  0  0  0  0  0  0  0  0  0  0
    1.9820   22.7616  -24.3573 H   0  0  0  0  0  0  0  0  0  0  0  0
    2.3785   24.5136  -24.3573 H   0  0  0  0  0  0  0  0  0  0  0  0
   -2.5882   22.4360  -28.0792 H   0  0  0  0  0  0  0  0  0  0  0  0
   -4.6392   26.0641  -29.7445 H   0  0  0  0  0  0  0  0  0  0  0  0
   -6.4243   25.5565  -31.4063 H   0  0  0  0  0  0  0  0  0  0  0  0
   -6.4553   23.3617  -32.5836 H   0  0  0  0  0  0  0  0  0  0  0  0
   -6.3480   21.4690  -33.9200 H   0  0  0  0  0  0  0  0  0  0  0  0
   -7.0881   20.6275  -31.2064 H   0  0  0  0  0  0  0  0  0  0  0  0
   -7.5505   22.1008  -32.1494 H   0  0  0  0  0  0  0  0  0  0  0  0
   -9.4636   20.5580  -31.9168 H   0  0  0  0  0  0  0  0  0  0  0  0
   -8.9250   20.7140  -33.6456 H   0  0  0  0  0  0  0  0  0  0  0  0
   -8.7372   18.6184  -30.6613 H   0  0  0  0  0  0  0  0  0  0  0  0
  -10.2216   18.3010  -31.6217 H   0  0  0  0  0  0  0  0  0  0  0  0
   -8.8795   17.1071  -31.6217 H   0  0  0  0  0  0  0  0  0  0  0  0
   -6.6478   18.3111  -31.9447 H   0  0  0  0  0  0  0  0  0  0  0  0
   -7.1345   17.4419  -33.4551 H   0  0  0  0  0  0  0  0  0  0  0  0
   -5.2992   19.0369  -33.8962 H   0  0  0  0  0  0  0  0  0  0  0  0
   -6.8326   19.5128  -34.7483 H   0  0  0  0  0  0  0  0  0  0  0  0
   -2.8860   22.1640  -30.4519 H   0  0  0  0  0  0  0  0  0  0  0  0
    1.3218   26.5996  -24.8320 H   0  0  0  0  0  0  0  0  0  0  0  0
    2.2184   26.3407  -26.3668 H   0  0  0  0  0  0  0  0  0  0  0  0
    0.6930   27.2893  -26.3668 H   0  0  0  0  0  0  0  0  0  0  0  0
  1  2  1  0
  2  3  1  0
  3  4  1  0
  4  5  1  0
  5  6  2  0
  6  7  1  0
  7  8  2  0
  8  9  1  0
  9 10  2  0
 10 11  1  0
 11 12  1  0
 12 13  2  0
 12 14  2  0
 12 15  1  0
 15 16  1  0
 16 17  1  0
 17 18  1  0
 18 19  1  0
 18 20  1  0
 20 21  1  0
 11 22  2  0
  6 23  1  0
 23 24  1  0
 24 25  2  0
 24 26  1  0
 26 27  1  0
 27 28  1  0
 27  2  2  0
 26  4  2  0
 22  7  1  0
 21 15  1  0
  1 29  1  0
  1 30  1  0
  1 31  1  0
  5 32  1  0
  8 33  1  0
  9 34  1  0
 10 35  1  0
 15 36  1  0
 16 37  1  0
 16 38  1  0
 17 39  1  0
 17 40  1  0
 19 41  1  0
 19 42  1  0
 19 43  1  0
 20 44  1  0
 20 45  1  0
 21 46  1  0
 21 47  1  0
 22 48  1  0
 28 49  1  0
 28 50  1  0
 28 51  1  0
M  CHG  2  15   1  23  -1
M  END
>  <UniqueID>  (10) 
10

>  <SMILES>  (10) 
Cc1sc2cc(-c3cccc(S(=O)(=O)[NH+]4CCN(C)CC4)c3)[n-]c(=O)c2c1C

>  <Energy>  (10) 
99.02140710801679

>  <Genealogy>  (10) 
Cc1sc2cc(-c3cccc(S(=O)(=O)[NH+]4CCN(C)CC4)c3)[n-]c(=O)c2c1C (protonated)
Cc1sc2cc(-c3cccc(S(=O)(=O)[NH+]4CCN(C)CC4)c3)[n-]c(=O)c2c1C (3D coordinates assigned)
Cc1sc2cc(-c3cccc(S(=O)(=O)[NH+]4CCN(C)CC4)c3)[n-]c(=O)c2c1C (nonaromatic ring conformer: 99.02140710801679 kcal/mol)

>  <smiles>  (10) 
Cc1sc2cc(-c3cccc(S(=O)(=O)N4CCN(C)CC4)c3)[nH]c(=O)c2c1C

>  <score_type>  (10) 
oracle

>  <origin>  (10) 
adgpu

>  <m_score__min__energy>  (10) 
-10.52

>  <m_primary>  (10) 
energy

$$$$
10:0
     RDKit          3D

 67 71  0  0  0  0  0  0  0  0999 V2000
   -9.1190   18.2310  -31.9150 C   0  0  0  0  0  0  0  0  0  0  0  0
   -7.6830   18.7290  -32.1230 C   0  0  0  0  0  0  0  0  0  0  0  0
   -6.6840   17.8760  -31.3340 C   0  0  0  0  0  0  0  0  0  0  0  0
   -7.5420   20.1970  -31.7580 C   0  0  0  0  0  0  0  0  0  0  0  0
   -8.6400   20.8960  -31.2260 C   0  0  0  0  0  0  0  0  0  0  0  0
   -8.5390   22.2580  -30.9250 C   0  0  0  0  0  0  0  0  0  0  0  0
   -7.3320   22.9470  -31.1500 C   0  0  0  0  0  0  0  0  0  0  0  0
   -7.1740   24.3200  -30.8900 O   0  0  0  0  0  0  0  0  0  0  0  0
   -6.0290   25.1070  -31.2160 C   0  0  0  0  0  0  0  0  0  0  0  0
   -4.9720   24.9640  -30.1520 C   0  0  0  0  0  0  0  0  0  0  0  0
   -5.3220   24.9200  -28.9450 O   0  0  0  0  0  0  0  0  0  0  0  0
   -3.5910   24.7480  -30.4770 N   0  0  0  0  0  0  0  0  0  0  0  0
   -2.9180   23.4830  -30.5160 C   0  0  0  0  0  0  0  0  0  0  0  0
   -2.0320   23.1500  -29.4830 C   0  0  0  0  0  0  0  0  0  0  0  0
   -1.3820   21.9110  -29.4820 C   0  0  0  0  0  0  0  0  0  0  0  0
   -1.6070   21.0000  -30.5220 C   0  0  0  0  0  0  0  0  0  0  0  0
   -0.8800   19.3590  -30.4730 S   0  0  0  0  0  0  0  0  0  0  0  0
   -0.4530   19.4180  -32.2220 C   0  0  0  0  0  0  0  0  0  0  0  0
    0.4160   20.3840  -32.6200 N   0  0  0  0  0  0  0  0  0  0  0  0
    0.7420   20.5560  -33.9220 C   0  0  0  0  0  0  0  0  0  0  0  0
    1.6240   21.5790  -34.2930 C   0  0  0  0  0  0  0  0  0  0  0  0
    1.9350   21.7800  -35.6410 C   0  0  0  0  0  0  0  0  0  0  0  0
    1.3680   20.9600  -36.6200 C   0  0  0  0  0  0  0  0  0  0  0  0
    0.4940   19.9290  -36.2550 C   0  0  0  0  0  0  0  0  0  0  0  0
    0.1710   19.7240  -34.8990 C   0  0  0  0  0  0  0  0  0  0  0  0
   -0.7120   18.7140  -34.4800 C   0  0  0  0  0  0  0  0  0  0  0  0
   -1.2360   17.9550  -35.3410 O   0  0  0  0  0  0  0  0  0  0  0  0
   -1.0110   18.5590  -33.1440 N   0  0  0  0  0  0  0  0  0  0  0  0
   -1.8730   17.4410  -32.7000 C   0  0  0  0  0  0  0  0  0  0  0  0
   -3.2390   17.5300  -33.3390 C   0  0  0  0  0  0  0  0  0  0  0  0
   -3.9500   16.3620  -33.6640 C   0  0  0  0  0  0  0  0  0  0  0  0
   -5.2050   16.4470  -34.2730 C   0  0  0  0  0  0  0  0  0  0  0  0
   -5.7550   17.6950  -34.5730 C   0  0  0  0  0  0  0  0  0  0  0  0
   -5.0550   18.8620  -34.2570 C   0  0  0  0  0  0  0  0  0  0  0  0
   -3.8010   18.7820  -33.6440 C   0  0  0  0  0  0  0  0  0  0  0  0
   -2.4370   21.3560  -31.5910 C   0  0  0  0  0  0  0  0  0  0  0  0
   -3.0790   22.5980  -31.5960 C   0  0  0  0  0  0  0  0  0  0  0  0
   -6.2350   22.2470  -31.6690 C   0  0  0  0  0  0  0  0  0  0  0  0
   -6.3370   20.8900  -31.9830 C   0  0  0  0  0  0  0  0  0  0  0  0
   -9.3294   18.1580  -30.8378 H   0  0  0  0  0  0  0  0  0  0  0  0
   -9.8229   18.9375  -32.3790 H   0  0  0  0  0  0  0  0  0  0  0  0
   -9.2344   17.2404  -32.3790 H   0  0  0  0  0  0  0  0  0  0  0  0
   -7.4530   18.6268  -33.1938 H   0  0  0  0  0  0  0  0  0  0  0  0
   -6.8511   18.0186  -30.2562 H   0  0  0  0  0  0  0  0  0  0  0  0
   -6.8251   16.8155  -31.5897 H   0  0  0  0  0  0  0  0  0  0  0  0
   -5.6587   18.1815  -31.5897 H   0  0  0  0  0  0  0  0  0  0  0  0
   -9.5871   20.3667  -31.0449 H   0  0  0  0  0  0  0  0  0  0  0  0
   -9.4062   22.7932  -30.5107 H   0  0  0  0  0  0  0  0  0  0  0  0
   -5.6204   24.7701  -32.1801 H   0  0  0  0  0  0  0  0  0  0  0  0
   -6.3292   26.1633  -31.2805 H   0  0  0  0  0  0  0  0  0  0  0  0
   -1.8465   23.8661  -28.6689 H   0  0  0  0  0  0  0  0  0  0  0  0
   -0.6938   21.6521  -28.6639 H   0  0  0  0  0  0  0  0  0  0  0  0
    2.0721   22.2245  -33.5233 H   0  0  0  0  0  0  0  0  0  0  0  0
    2.6268   22.5845  -35.9313 H   0  0  0  0  0  0  0  0  0  0  0  0
    1.6090   21.1250  -37.6805 H   0  0  0  0  0  0  0  0  0  0  0  0
    0.0590   19.2782  -37.0278 H   0  0  0  0  0  0  0  0  0  0  0  0
   -1.4030   16.4882  -32.9849 H   0  0  0  0  0  0  0  0  0  0  0  0
   -1.9904   17.4987  -31.6078 H   0  0  0  0  0  0  0  0  0  0  0  0
   -3.5167   15.3765  -33.4380 H   0  0  0  0  0  0  0  0  0  0  0  0
   -5.7605   15.5293  -34.5164 H   0  0  0  0  0  0  0  0  0  0  0  0
   -6.7400   17.7593  -35.0584 H   0  0  0  0  0  0  0  0  0  0  0  0
   -5.4908   19.8446  -34.4907 H   0  0  0  0  0  0  0  0  0  0  0  0
   -3.2516   19.7030  -33.3992 H   0  0  0  0  0  0  0  0  0  0  0  0
   -2.5845   20.6579  -32.4282 H   0  0  0  0  0  0  0  0  0  0  0  0
   -3.7126   22.8837  -32.4486 H   0  0  0  0  0  0  0  0  0  0  0  0
   -5.2822   22.7723  -31.8311 H   0  0  0  0  0  0  0  0  0  0  0  0
   -5.4719   20.3600  -32.4081 H   0  0  0  0  0  0  0  0  0  0  0  0
  1  2  1  0
  2  3  1  0
  2  4  1  0
  4  5  2  0
  5  6  1  0
  6  7  2  0
  7  8  1  0
  8  9  1  0
  9 10  1  0
 10 11  2  0
 10 12  1  0
 12 13  1  0
 13 14  2  0
 14 15  1  0
 15 16  2  0
 16 17  1  0
 17 18  1  0
 18 19  2  0
 19 20  1  0
 20 21  2  0
 21 22  1  0
 22 23  2  0
 23 24  1  0
 24 25  2  0
 25 26  1  0
 26 27  2  0
 26 28  1  0
 28 29  1  0
 29 30  1  0
 30 31  2  0
 31 32  1  0
 32 33  2  0
 33 34  1  0
 34 35  2  0
 16 36  1  0
 36 37  2  0
  7 38  1  0
 38 39  2  0
 39  4  1  0
 37 13  1  0
 28 18  1  0
 35 30  1  0
 25 20  1  0
  1 40  1  0
  1 41  1  0
  1 42  1  0
  2 43  1  0
  3 44  1  0
  3 45  1  0
  3 46  1  0
  5 47  1  0
  6 48  1  0
  9 49  1  0
  9 50  1  0
 14 51  1  0
 15 52  1  0
 21 53  1  0
 22 54  1  0
 23 55  1  0
 24 56  1  0
 29 57  1  0
 29 58  1  0
 31 59  1  0
 32 60  1  0
 33 61  1  0
 34 62  1  0
 35 63  1  0
 36 64  1  0
 37 65  1  0
 38 66  1  0
 39 67  1  0
M  CHG  1  12  -1
M  END
>  <UniqueID>  (11) 
11

>  <SMILES>  (11) 
CC(C)c1ccc(OCC(=O)[N-]c2ccc(Sc3nc4ccccc4c(=O)n3Cc3ccccc3)cc2)cc1

>  <Energy>  (11) 
81.4373252303832

>  <Genealogy>  (11) 
CC(C)c1ccc(OCC(=O)[N-]c2ccc(Sc3nc4ccccc4c(=O)n3Cc3ccccc3)cc2)cc1 (protonated)
CC(C)c1ccc(OCC(=O)[N-]c2ccc(Sc3nc4ccccc4c(=O)n3Cc3ccccc3)cc2)cc1 (3D coordinates assigned)
CC(C)c1ccc(OCC(=O)[N-]c2ccc(Sc3nc4ccccc4c(=O)n3Cc3ccccc3)cc2)cc1 (optimized conformer: 81.4373252303832 kcal/mol)

>  <smiles>  (11) 
CC(C)c1ccc(OCC(=O)Nc2ccc(Sc3nc4ccccc4c(=O)n3Cc3ccccc3)cc2)cc1

>  <score_type>  (11) 
oracle

>  <origin>  (11) 
adgpu

>  <m_score__min__energy>  (11) 
-11.57

>  <m_primary>  (11) 
energy

$$$$
11:0
     RDKit          3D

 38 39  0  0  0  0  0  0  0  0999 V2000
   -5.4960   17.2670  -34.5020 C   0  0  0  0  0  0  0  0  0  0  0  0
   -6.0180   18.4420  -33.7380 C   0  0  0  0  0  0  0  0  0  0  0  0
   -7.2500   18.3770  -33.0950 C   0  0  0  0  0  0  0  0  0  0  0  0
   -7.7220   19.4720  -32.3570 C   0  0  0  0  0  0  0  0  0  0  0  0
   -9.0100   19.2860  -31.5970 C   0  0  0  0  0  0  0  0  0  0  0  0
   -6.9360   20.6620  -32.2810 C   0  0  0  0  0  0  0  0  0  0  0  0
   -7.5430   22.1350  -31.4410 S   0  0  0  0  0  0  0  0  0  0  0  0
   -8.4930   22.8860  -32.3320 O   0  0  0  0  0  0  0  0  0  0  0  0
   -8.3330   21.7470  -30.2230 O   0  0  0  0  0  0  0  0  0  0  0  0
   -6.2570   23.2170  -30.9370 N   0  0  0  0  0  0  0  0  0  0  0  0
   -6.7710   24.5850  -30.7240 C   0  0  0  0  0  0  0  0  0  0  0  0
   -5.7290   25.5150  -30.0630 C   0  0  0  0  0  0  0  0  0  0  0  0
   -4.3220   24.9170  -30.1160 C   0  0  0  0  0  0  0  0  0  0  0  0
   -4.2960   23.5330  -29.4530 C   0  0  0  0  0  0  0  0  0  0  0  0
   -5.5710   22.7140  -29.7370 C   0  0  0  0  0  0  0  0  0  0  0  0
   -5.6530   20.6450  -32.9040 C   0  0  0  0  0  0  0  0  0  0  0  0
   -4.6510   21.7570  -32.7720 C   0  0  0  0  0  0  0  0  0  0  0  0
   -5.2520   19.5490  -33.6010 N   0  0  0  0  0  0  0  0  0  0  0  0
   -5.1529   16.4948  -33.7977 H   0  0  0  0  0  0  0  0  0  0  0  0
   -6.2964   16.8564  -35.1351 H   0  0  0  0  0  0  0  0  0  0  0  0
   -4.6548   17.5856  -35.1351 H   0  0  0  0  0  0  0  0  0  0  0  0
   -7.8568   17.4622  -33.1658 H   0  0  0  0  0  0  0  0  0  0  0  0
   -8.8057   19.3155  -30.5165 H   0  0  0  0  0  0  0  0  0  0  0  0
   -9.7106   20.0923  -31.8599 H   0  0  0  0  0  0  0  0  0  0  0  0
   -9.4538   18.3144  -31.8599 H   0  0  0  0  0  0  0  0  0  0  0  0
   -7.0552   25.0102  -31.6979 H   0  0  0  0  0  0  0  0  0  0  0  0
   -7.6334   24.5149  -30.0448 H   0  0  0  0  0  0  0  0  0  0  0  0
   -5.7264   26.4798  -30.5914 H   0  0  0  0  0  0  0  0  0  0  0  0
   -6.0067   25.6447  -29.0066 H   0  0  0  0  0  0  0  0  0  0  0  0
   -4.0100   24.8202  -31.1664 H   0  0  0  0  0  0  0  0  0  0  0  0
   -3.6341   25.5822  -29.5735 H   0  0  0  0  0  0  0  0  0  0  0  0
   -3.4275   22.9761  -29.8346 H   0  0  0  0  0  0  0  0  0  0  0  0
   -4.2346   23.6863  -28.3655 H   0  0  0  0  0  0  0  0  0  0  0  0
   -5.2958   21.6606  -29.8936 H   0  0  0  0  0  0  0  0  0  0  0  0
   -6.2500   22.8079  -28.8767 H   0  0  0  0  0  0  0  0  0  0  0  0
   -4.4675   21.9607  -31.7067 H   0  0  0  0  0  0  0  0  0  0  0  0
   -3.7088   21.4610  -33.2563 H   0  0  0  0  0  0  0  0  0  0  0  0
   -5.0432   22.6634  -33.2563 H   0  0  0  0  0  0  0  0  0  0  0  0
  1  2  1  0
  2  3  2  0
  3  4  1  0
  4  5  1  0
  4  6  2  0
  6  7  1  0
  7  8  2  0
  7  9  2  0
  7 10  1  0
 10 11  1  0
 11 12  1  0
 12 13  1  0
 13 14  1  0
 14 15  1  0
  6 16  1  0
 16 17  1  0
 16 18  2  0
 18  2  1  0
 15 10  1  0
  1 19  1  0
  1 20  1  0
  1 21  1  0
  3 22  1  0
  5 23  1  0
  5 24  1  0
  5 25  1  0
 11 26  1  0
 11 27  1  0
 12 28  1  0
 12 29  1  0
 13 30  1  0
 13 31  1  0
 14 32  1  0
 14 33  1  0
 15 34  1  0
 15 35  1  0
 17 36  1  0
 17 37  1  0
 17 38  1  0
M  END
>  <UniqueID>  (12) 
12

>  <SMILES>  (12) 
Cc1cc(C)c(S(=O)(=O)N2CCCCC2)c(C)n1

>  <Energy>  (12) 
46.8337031187102

>  <Genealogy>  (12) 
Cc1cc(C)c(S(=O)(=O)N2CCCCC2)c(C)n1 (3D coordinates assigned)
Cc1cc(C)c(S(=O)(=O)N2CCCCC2)c(C)n1 (nonaromatic ring conformer: 46.8337031187102 kcal/mol)

>  <smiles>  (12) 
Cc1cc(C)c(S(=O)(=O)N2CCCCC2)c(C)n1

>  <score_type>  (12) 
oracle

>  <origin>  (12) 
adgpu

>  <m_score__min__energy>  (12) 
-7.5999999999999996

>  <m_primary>  (12) 
energy

$$$$
12:0
     RDKit          3D

 50 53  0  0  0  0  0  0  0  0999 V2000
   -3.8510   25.6620  -30.7770 O   0  0  0  0  0  0  0  0  0  0  0  0
   -4.7590   24.6120  -30.8170 C   0  0  0  0  0  0  0  0  0  0  0  0
   -6.1330   24.8740  -30.7990 C   0  0  0  0  0  0  0  0  0  0  0  0
   -7.0490   23.8170  -30.8380 C   0  0  0  0  0  0  0  0  0  0  0  0
   -6.5950   22.4900  -30.9030 C   0  0  0  0  0  0  0  0  0  0  0  0
   -7.5780   21.3480  -30.9090 C   0  0  0  0  0  0  0  0  0  0  0  0
   -8.0580   21.0320  -32.3300 C   0  0  0  0  0  0  0  0  0  0  0  0
   -7.7960   19.6730  -32.6820 O   0  0  0  0  0  0  0  0  0  0  0  0
   -6.5890   19.2380  -33.2370 C   0  0  0  0  0  0  0  0  0  0  0  0
   -6.5650   18.1980  -34.1160 N   0  0  0  0  0  0  0  0  0  0  0  0
   -4.9670   18.0280  -34.5340 S   0  0  0  0  0  0  0  0  0  0  0  0
   -4.3660   19.2650  -33.5950 C   0  0  0  0  0  0  0  0  0  0  0  0
   -2.9980   19.7030  -33.4960 N   0  0  0  0  0  0  0  0  0  0  0  0
   -2.7340   21.0960  -33.0970 C   0  0  0  0  0  0  0  0  0  0  0  0
   -1.2330   21.3830  -32.9880 C   0  0  0  0  0  0  0  0  0  0  0  0
   -0.5310   20.8200  -34.1420 N   0  0  0  0  0  0  0  0  0  0  0  0
    0.5870   21.5220  -34.6970 C   0  0  0  0  0  0  0  0  0  0  0  0
    0.3740   22.6940  -35.3560 N   0  0  0  0  0  0  0  0  0  0  0  0
    1.3930   23.4120  -35.8970 C   0  0  0  0  0  0  0  0  0  0  0  0
    2.7060   22.9560  -35.7810 C   0  0  0  0  0  0  0  0  0  0  0  0
    2.9580   21.7560  -35.1170 C   0  0  0  0  0  0  0  0  0  0  0  0
    1.8980   21.0110  -34.5780 C   0  0  0  0  0  0  0  0  0  0  0  0
    2.1830   19.7270  -33.8490 C   0  0  0  0  0  0  0  0  0  0  0  0
    2.0350   19.9230  -32.4880 F   0  0  0  0  0  0  0  0  0  0  0  0
   -0.8100   19.4530  -34.5980 C   0  0  0  0  0  0  0  0  0  0  0  0
   -1.8800   18.7790  -33.7340 C   0  0  0  0  0  0  0  0  0  0  0  0
   -5.3940   19.8380  -32.9340 N   0  0  0  0  0  0  0  0  0  0  0  0
   -5.2140   22.2340  -30.9120 C   0  0  0  0  0  0  0  0  0  0  0  0
   -4.3010   23.2920  -30.8740 C   0  0  0  0  0  0  0  0  0  0  0  0
   -6.4937   25.9122  -30.7541 H   0  0  0  0  0  0  0  0  0  0  0  0
   -8.1287   24.0264  -30.8177 H   0  0  0  0  0  0  0  0  0  0  0  0
   -7.0923   20.4552  -30.4883 H   0  0  0  0  0  0  0  0  0  0  0  0
   -8.4503   21.6383  -30.3050 H   0  0  0  0  0  0  0  0  0  0  0  0
   -9.1412   21.2141  -32.3899 H   0  0  0  0  0  0  0  0  0  0  0  0
   -7.5119   21.6809  -33.0305 H   0  0  0  0  0  0  0  0  0  0  0  0
   -3.1716   21.7703  -33.8479 H   0  0  0  0  0  0  0  0  0  0  0  0
   -3.1856   21.2592  -32.1073 H   0  0  0  0  0  0  0  0  0  0  0  0
   -1.0713   22.4706  -32.9582 H   0  0  0  0  0  0  0  0  0  0  0  0
   -0.8431   20.9227  -32.0682 H   0  0  0  0  0  0  0  0  0  0  0  0
    1.1823   24.3529  -36.4265 H   0  0  0  0  0  0  0  0  0  0  0  0
    3.5354   23.5378  -36.2095 H   0  0  0  0  0  0  0  0  0  0  0  0
    3.9911   21.3922  -35.0154 H   0  0  0  0  0  0  0  0  0  0  0  0
    1.4797   18.9511  -34.1856 H   0  0  0  0  0  0  0  0  0  0  0  0
    3.2138   19.4074  -34.0619 H   0  0  0  0  0  0  0  0  0  0  0  0
   -1.1622   19.4888  -35.6395 H   0  0  0  0  0  0  0  0  0  0  0  0
    0.1174   18.8669  -34.5174 H   0  0  0  0  0  0  0  0  0  0  0  0
   -2.2533   17.8830  -34.2515 H   0  0  0  0  0  0  0  0  0  0  0  0
   -1.4357   18.4976  -32.7679 H   0  0  0  0  0  0  0  0  0  0  0  0
   -4.8494   21.1969  -30.9491 H   0  0  0  0  0  0  0  0  0  0  0  0
   -3.2206   23.0858  -30.8890 H   0  0  0  0  0  0  0  0  0  0  0  0
  1  2  1  0
  2  3  2  0
  3  4  1  0
  4  5  2  0
  5  6  1  0
  6  7  1  0
  7  8  1  0
  8  9  1  0
  9 10  2  0
 10 11  1  0
 11 12  1  0
 12 13  1  0
 13 14  1  0
 14 15  1  0
 15 16  1  0
 16 17  1  0
 17 18  2  0
 18 19  1  0
 19 20  2  0
 20 21  1  0
 21 22  2  0
 22 23  1  0
 23 24  1  0
 16 25  1  0
 25 26  1  0
 12 27  2  0
  5 28  1  0
 28 29  2  0
 29  2  1  0
 27  9  1  0
 26 13  1  0
 22 17  1  0
  3 30  1  0
  4 31  1  0
  6 32  1  0
  6 33  1  0
  7 34  1  0
  7 35  1  0
 14 36  1  0
 14 37  1  0
 15 38  1  0
 15 39  1  0
 19 40  1  0
 20 41  1  0
 21 42  1  0
 23 43  1  0
 23 44  1  0
 25 45  1  0
 25 46  1  0
 26 47  1  0
 26 48  1  0
 28 49  1  0
 29 50  1  0
M  CHG  1   1  -1
M  END
>  <UniqueID>  (13) 
13

>  <SMILES>  (13) 
[O-]c1ccc(CCOc2nsc(N3CCN(c4ncccc4CF)CC3)n2)cc1

>  <Energy>  (13) 
91.973515595635

>  <Genealogy>  (13) 
[O-]c1ccc(CCOc2nsc(N3CCN(c4ncccc4CF)CC3)n2)cc1 (protonated)
[O-]c1ccc(CCOc2nsc(N3CCN(c4ncccc4CF)CC3)n2)cc1 (3D coordinates assigned)
[O-]c1ccc(CCOc2nsc(N3CCN(c4ncccc4CF)CC3)n2)cc1 (nonaromatic ring conformer: 91.973515595635 kcal/mol)

>  <smiles>  (13) 
Oc1ccc(CCOc2nsc(N3CCN(c4ncccc4CF)CC3)n2)cc1

>  <score_type>  (13) 
oracle

>  <origin>  (13) 
adgpu

>  <m_score__min__energy>  (13) 
-11.31

>  <m_primary>  (13) 
energy

$$$$
13:0
     RDKit          3D

 45 47  0  0  0  0  0  0  0  0999 V2000
   -8.5990   20.0730  -33.4650 N   0  0  0  0  0  0  0  0  0  0  0  0
   -7.8530   19.8910  -31.9170 S   0  0  0  0  0  0  0  0  0  0  0  0
   -6.8330   18.7890  -31.9790 O   0  0  0  0  0  0  0  0  0  0  0  0
   -8.8960   19.5220  -30.9000 O   0  0  0  0  0  0  0  0  0  0  0  0
   -7.0740   21.3990  -31.4540 C   0  0  0  0  0  0  0  0  0  0  0  0
   -6.1470   22.0060  -32.3120 C   0  0  0  0  0  0  0  0  0  0  0  0
   -5.5310   23.2070  -31.9480 C   0  0  0  0  0  0  0  0  0  0  0  0
   -5.8420   23.8190  -30.7230 C   0  0  0  0  0  0  0  0  0  0  0  0
   -5.1510   25.0870  -30.3030 C   0  0  0  0  0  0  0  0  0  0  0  0
   -3.7130   24.9710  -30.5190 N   0  0  0  0  0  0  0  0  0  0  0  0
   -2.7850   24.6010  -29.4920 C   0  0  0  0  0  0  0  0  0  0  0  0
   -2.0480   25.4820  -28.9700 O   0  0  0  0  0  0  0  0  0  0  0  0
   -2.7170   23.1960  -29.0260 C   0  0  0  0  0  0  0  0  0  0  0  0
   -2.6980   22.9340  -27.6430 C   0  0  0  0  0  0  0  0  0  0  0  0
   -2.5890   21.6260  -27.1660 C   0  0  0  0  0  0  0  0  0  0  0  0
   -2.5080   20.5610  -28.0600 C   0  0  0  0  0  0  0  0  0  0  0  0
   -2.5410   20.7970  -29.4340 C   0  0  0  0  0  0  0  0  0  0  0  0
   -2.6390   22.1080  -29.9330 C   0  0  0  0  0  0  0  0  0  0  0  0
   -2.7670   22.3160  -31.3510 N   0  0  0  0  0  0  0  0  0  0  0  0
   -2.6100   21.2760  -32.3320 C   0  0  0  0  0  0  0  0  0  0  0  0
   -3.5870   20.2770  -32.5070 C   0  0  0  0  0  0  0  0  0  0  0  0
   -3.4000   19.2650  -33.4530 C   0  0  0  0  0  0  0  0  0  0  0  0
   -2.2360   19.2340  -34.2250 C   0  0  0  0  0  0  0  0  0  0  0  0
   -1.2540   20.2110  -34.0470 C   0  0  0  0  0  0  0  0  0  0  0  0
   -1.4360   21.2240  -33.1000 C   0  0  0  0  0  0  0  0  0  0  0  0
   -6.7730   23.2110  -29.8670 C   0  0  0  0  0  0  0  0  0  0  0  0
   -7.3900   22.0110  -30.2340 C   0  0  0  0  0  0  0  0  0  0  0  0
   -9.2060   19.2350  -33.6110 H   0  0  0  0  0  0  0  0  0  0  0  0
   -7.8380   20.0220  -34.1790 H   0  0  0  0  0  0  0  0  0  0  0  0
   -5.9031   21.5355  -33.2759 H   0  0  0  0  0  0  0  0  0  0  0  0
   -4.7998   23.6745  -32.6239 H   0  0  0  0  0  0  0  0  0  0  0  0
   -5.5411   25.9273  -30.8961 H   0  0  0  0  0  0  0  0  0  0  0  0
   -5.3409   25.2626  -29.2338 H   0  0  0  0  0  0  0  0  0  0  0  0
   -2.7698   23.7687  -26.9302 H   0  0  0  0  0  0  0  0  0  0  0  0
   -2.5671   21.4365  -26.0827 H   0  0  0  0  0  0  0  0  0  0  0  0
   -2.4179   19.5321  -27.6816 H   0  0  0  0  0  0  0  0  0  0  0  0
   -2.4899   19.9499  -30.1339 H   0  0  0  0  0  0  0  0  0  0  0  0
   -3.0340   23.2720  -31.6800 H   0  0  0  0  0  0  0  0  0  0  0  0
   -4.5018   20.2931  -31.8963 H   0  0  0  0  0  0  0  0  0  0  0  0
   -4.1705   18.4919  -33.5898 H   0  0  0  0  0  0  0  0  0  0  0  0
   -2.0930   18.4402  -34.9729 H   0  0  0  0  0  0  0  0  0  0  0  0
   -0.3361   20.1837  -34.6525 H   0  0  0  0  0  0  0  0  0  0  0  0
   -0.6545   21.9846  -32.9561 H   0  0  0  0  0  0  0  0  0  0  0  0
   -7.0185   23.6805  -28.9030 H   0  0  0  0  0  0  0  0  0  0  0  0
   -8.1263   21.5457  -29.5622 H   0  0  0  0  0  0  0  0  0  0  0  0
  1  2  1  0
  2  3  2  0
  2  4  2  0
  2  5  1  0
  5  6  2  0
  6  7  1  0
  7  8  2  0
  8  9  1  0
  9 10  1  0
 10 11  1  0
 11 12  2  0
 11 13  1  0
 13 14  2  0
 14 15  1  0
 15 16  2  0
 16 17  1  0
 17 18  2  0
 18 19  1  0
 19 20  1  0
 20 21  2  0
 21 22  1  0
 22 23  2  0
 23 24  1  0
 24 25  2  0
  8 26  1  0
 26 27  2  0
 27  5  1  0
 18 13  1  0
 25 20  1  0
  1 28  1  0
  1 29  1  0
  6 30  1  0
  7 31  1  0
  9 32  1  0
  9 33  1  0
 14 34  1  0
 15 35  1  0
 16 36  1  0
 17 37  1  0
 19 38  1  0
 21 39  1  0
 22 40  1  0
 23 41  1  0
 24 42  1  0
 25 43  1  0
 26 44  1  0
 27 45  1  0
M  CHG  1  10  -1
M  END
>  <UniqueID>  (14) 
14

>  <SMILES>  (14) 
NS(=O)(=O)c1ccc(C[N-]C(=O)c2ccccc2Nc2ccccc2)cc1

>  <Energy>  (14) 
53.03438474467947

>  <Genealogy>  (14) 
NS(=O)(=O)c1ccc(C[N-]C(=O)c2ccccc2Nc2ccccc2)cc1 (protonated)
NS(=O)(=O)c1ccc(C[N-]C(=O)c2ccccc2Nc2ccccc2)cc1 (3D coordinates assigned)
NS(=O)(=O)c1ccc(C[N-]C(=O)c2ccccc2Nc2ccccc2)cc1 (optimized conformer: 53.03438474467947 kcal/mol)

>  <smiles>  (14) 
NS(=O)(=O)c1ccc(CNC(=O)c2ccccc2Nc2ccccc2)cc1

>  <score_type>  (14) 
oracle

>  <origin>  (14) 
adgpu

>  <m_score__min__energy>  (14) 
-11.279999999999999

>  <m_primary>  (14) 
energy

$$$$
14:0
     RDKit          3D

 40 42  0  0  0  0  0  0  0  0999 V2000
   -4.5940   15.4450  -34.2160 C   0  0  0  0  0  0  0  0  0  0  0  0
   -4.8190   16.9010  -34.6040 C   0  0  0  0  0  0  0  0  0  0  0  0
   -5.7020   17.5820  -33.6020 C   0  0  0  0  0  0  0  0  0  0  0  0
   -5.7450   17.1450  -32.4200 O   0  0  0  0  0  0  0  0  0  0  0  0
   -6.4880   18.7180  -33.9930 N   0  0  0  0  0  0  0  0  0  0  0  0
   -7.1710   19.5820  -33.0680 C   0  0  0  0  0  0  0  0  0  0  0  0
   -8.3880   19.1650  -32.5090 C   0  0  0  0  0  0  0  0  0  0  0  0
   -9.0860   19.9980  -31.6310 C   0  0  0  0  0  0  0  0  0  0  0  0
   -8.5810   21.2600  -31.3110 C   0  0  0  0  0  0  0  0  0  0  0  0
   -7.3730   21.6970  -31.8730 C   0  0  0  0  0  0  0  0  0  0  0  0
   -6.7590   23.3050  -31.5130 S   0  0  0  0  0  0  0  0  0  0  0  0
   -7.5930   23.9390  -30.4340 O   0  0  0  0  0  0  0  0  0  0  0  0
   -6.8410   24.1740  -32.7370 O   0  0  0  0  0  0  0  0  0  0  0  0
   -5.0880   23.1740  -30.9790 C   0  0  0  0  0  0  0  0  0  0  0  0
   -4.3880   21.9690  -31.1420 C   0  0  0  0  0  0  0  0  0  0  0  0
   -3.0640   21.8590  -30.7030 C   0  0  0  0  0  0  0  0  0  0  0  0
   -2.4400   22.9460  -30.0850 C   0  0  0  0  0  0  0  0  0  0  0  0
   -3.1370   24.1520  -29.9210 C   0  0  0  0  0  0  0  0  0  0  0  0
   -4.4590   24.2650  -30.3640 C   0  0  0  0  0  0  0  0  0  0  0  0
   -2.4710   25.2720  -29.3390 N   0  0  0  0  0  0  0  0  0  0  0  0
   -1.1400   25.1320  -28.8370 C   0  0  0  0  0  0  0  0  0  0  0  0
   -0.5230   26.1440  -28.4130 O   0  0  0  0  0  0  0  0  0  0  0  0
   -0.5130   23.7700  -28.7410 C   0  0  0  0  0  0  0  0  0  0  0  0
   -1.1120   22.8420  -29.6530 O   0  0  0  0  0  0  0  0  0  0  0  0
   -6.6790   20.8640  -32.7620 C   0  0  0  0  0  0  0  0  0  0  0  0
   -4.5802   15.3556  -33.1197 H   0  0  0  0  0  0  0  0  0  0  0  0
   -5.4073   14.8269  -34.6241 H   0  0  0  0  0  0  0  0  0  0  0  0
   -3.6321   15.1012  -34.6241 H   0  0  0  0  0  0  0  0  0  0  0  0
   -3.8494   17.4190  -34.6430 H   0  0  0  0  0  0  0  0  0  0  0  0
   -5.3074   16.9348  -35.5890 H   0  0  0  0  0  0  0  0  0  0  0  0
   -6.6320   18.8810  -35.0160 H   0  0  0  0  0  0  0  0  0  0  0  0
   -8.7956   18.1755  -32.7636 H   0  0  0  0  0  0  0  0  0  0  0  0
  -10.0354   19.6590  -31.1908 H   0  0  0  0  0  0  0  0  0  0  0  0
   -9.1316   21.9122  -30.6171 H   0  0  0  0  0  0  0  0  0  0  0  0
   -4.8816   21.1080  -31.6164 H   0  0  0  0  0  0  0  0  0  0  0  0
   -2.5142   20.9168  -30.8444 H   0  0  0  0  0  0  0  0  0  0  0  0
   -5.0050   25.2104  -30.2296 H   0  0  0  0  0  0  0  0  0  0  0  0
    0.5591   23.8547  -28.9724 H   0  0  0  0  0  0  0  0  0  0  0  0
   -0.6690   23.3936  -27.7193 H   0  0  0  0  0  0  0  0  0  0  0  0
   -5.7440   21.2150  -33.2231 H   0  0  0  0  0  0  0  0  0  0  0  0
  1  2  1  0
  2  3  1  0
  3  4  2  0
  3  5  1  0
  5  6  1  0
  6  7  2  0
  7  8  1  0
  8  9  2  0
  9 10  1  0
 10 11  1  0
 11 12  2  0
 11 13  2  0
 11 14  1  0
 14 15  2  0
 15 16  1  0
 16 17  2  0
 17 18  1  0
 18 19  2  0
 18 20  1  0
 20 21  1  0
 21 22  2  0
 21 23  1  0
 23 24  1  0
 10 25  2  0
 25  6  1  0
 19 14  1  0
 24 17  1  0
  1 26  1  0
  1 27  1  0
  1 28  1  0
  2 29  1  0
  2 30  1  0
  5 31  1  0
  7 32  1  0
  8 33  1  0
  9 34  1  0
 15 35  1  0
 16 36  1  0
 19 37  1  0
 23 38  1  0
 23 39  1  0
 25 40  1  0
M  CHG  1  20  -1
M  END
>  <UniqueID>  (15) 
15

>  <SMILES>  (15) 
CCC(=O)Nc1cccc(S(=O)(=O)c2ccc3c(c2)[N-]C(=O)CO3)c1

>  <Energy>  (15) 
44.59760296702323

>  <Genealogy>  (15) 
CCC(=O)Nc1cccc(S(=O)(=O)c2ccc3c(c2)[N-]C(=O)CO3)c1 (protonated)
CCC(=O)Nc1cccc(S(=O)(=O)c2ccc3c(c2)[N-]C(=O)CO3)c1 (3D coordinates assigned)
CCC(=O)Nc1cccc(S(=O)(=O)c2ccc3c(c2)[N-]C(=O)CO3)c1 (nonaromatic ring conformer: 44.59760296702323 kcal/mol)

>  <smiles>  (15) 
CCC(=O)Nc1cccc(S(=O)(=O)c2ccc3c(c2)NC(=O)CO3)c1

>  <score_type>  (15) 
oracle

>  <origin>  (15) 
adgpu

>  <m_score__min__energy>  (15) 
-10.609999999999999

>  <m_primary>  (15) 
energy

$$$$
15:0
     RDKit          3D

 61 64  0  0  0  0  0  0  0  0999 V2000
   -5.9660   25.2670  -30.4640 O   0  0  0  0  0  0  0  0  0  0  0  0
   -5.0210   24.4650  -30.6910 C   0  0  0  0  0  0  0  0  0  0  0  0
   -3.6870   24.8680  -30.3630 N   0  0  0  0  0  0  0  0  0  0  0  0
   -2.6610   24.0200  -29.8300 C   0  0  0  0  0  0  0  0  0  0  0  0
   -2.5720   22.6630  -30.1820 C   0  0  0  0  0  0  0  0  0  0  0  0
   -1.5810   21.8540  -29.6190 C   0  0  0  0  0  0  0  0  0  0  0  0
   -0.6860   22.3870  -28.6890 C   0  0  0  0  0  0  0  0  0  0  0  0
   -0.7840   23.7310  -28.3070 C   0  0  0  0  0  0  0  0  0  0  0  0
    0.3270   24.3950  -27.1070 S   0  0  0  0  0  0  0  0  0  0  0  0
    1.0360   23.2640  -26.4130 O   0  0  0  0  0  0  0  0  0  0  0  0
    1.3600   25.2360  -27.8010 O   0  0  0  0  0  0  0  0  0  0  0  0
   -0.5060   25.3670  -25.9180 N   0  0  0  0  0  0  0  0  0  0  0  0
   -0.4420   26.7900  -26.2790 C   0  0  0  0  0  0  0  0  0  0  0  0
   -1.1970   27.6310  -25.2280 C   0  0  0  0  0  0  0  0  0  0  0  0
   -1.6110   26.8560  -24.1170 O   0  0  0  0  0  0  0  0  0  0  0  0
   -0.5040   26.1660  -23.5710 C   0  0  0  0  0  0  0  0  0  0  0  0
    0.0730   25.1550  -24.5820 C   0  0  0  0  0  0  0  0  0  0  0  0
   -1.7770   24.5420  -28.8770 C   0  0  0  0  0  0  0  0  0  0  0  0
   -5.2770   23.1850  -31.2960 N   0  0  0  0  0  0  0  0  0  0  0  0
   -6.5890   22.6900  -31.6100 C   0  0  0  0  0  0  0  0  0  0  0  0
   -7.6610   23.5900  -31.6900 C   0  0  0  0  0  0  0  0  0  0  0  0
   -8.9500   23.1320  -31.9720 C   0  0  0  0  0  0  0  0  0  0  0  0
   -9.1830   21.7680  -32.1550 C   0  0  0  0  0  0  0  0  0  0  0  0
   -8.1300   20.8500  -32.0460 C   0  0  0  0  0  0  0  0  0  0  0  0
   -8.4340   19.1200  -32.2260 S   0  0  0  0  0  0  0  0  0  0  0  0
   -9.8280   18.9140  -32.7480 O   0  0  0  0  0  0  0  0  0  0  0  0
   -8.3400   18.4590  -30.8800 O   0  0  0  0  0  0  0  0  0  0  0  0
   -7.2910   18.3770  -33.3210 N   0  0  0  0  0  0  0  0  0  0  0  0
   -6.5090   17.3350  -32.6170 C   0  0  0  0  0  0  0  0  0  0  0  0
   -5.2420   16.9670  -33.3940 C   0  0  0  0  0  0  0  0  0  0  0  0
   -4.3040   18.1800  -33.5320 C   0  0  0  0  0  0  0  0  0  0  0  0
   -5.0530   19.5220  -33.4650 C   0  0  0  0  0  0  0  0  0  0  0  0
   -6.4740   19.3910  -34.0320 C   0  0  0  0  0  0  0  0  0  0  0  0
   -6.8340   21.3150  -31.7730 C   0  0  0  0  0  0  0  0  0  0  0  0
   -3.2845   22.2357  -30.9030 H   0  0  0  0  0  0  0  0  0  0  0  0
   -1.5059   20.7956  -29.9090 H   0  0  0  0  0  0  0  0  0  0  0  0
    0.0984   21.7494  -28.2551 H   0  0  0  0  0  0  0  0  0  0  0  0
    0.6097   27.1103  -26.3159 H   0  0  0  0  0  0  0  0  0  0  0  0
   -0.9090   26.9359  -27.2642 H   0  0  0  0  0  0  0  0  0  0  0  0
   -0.5328   28.4325  -24.8726 H   0  0  0  0  0  0  0  0  0  0  0  0
   -2.0983   28.0400  -25.7080 H   0  0  0  0  0  0  0  0  0  0  0  0
    0.2770   26.8934  -23.3046 H   0  0  0  0  0  0  0  0  0  0  0  0
   -0.8400   25.6159  -22.6796 H   0  0  0  0  0  0  0  0  0  0  0  0
    1.1642   25.2823  -24.6371 H   0  0  0  0  0  0  0  0  0  0  0  0
   -0.1762   24.1376  -24.2460 H   0  0  0  0  0  0  0  0  0  0  0  0
   -1.8620   25.5958  -28.5732 H   0  0  0  0  0  0  0  0  0  0  0  0
   -4.4730   22.5390  -31.4550 H   0  0  0  0  0  0  0  0  0  0  0  0
   -7.4857   24.6640  -31.5296 H   0  0  0  0  0  0  0  0  0  0  0  0
   -9.7824   23.8469  -32.0500 H   0  0  0  0  0  0  0  0  0  0  0  0
  -10.1979   21.4121  -32.3858 H   0  0  0  0  0  0  0  0  0  0  0  0
   -6.2230   17.7119  -31.6239 H   0  0  0  0  0  0  0  0  0  0  0  0
   -7.1341   16.4343  -32.5275 H   0  0  0  0  0  0  0  0  0  0  0  0
   -4.7138   16.1634  -32.8599 H   0  0  0  0  0  0  0  0  0  0  0  0
   -5.5341   16.6351  -34.4012 H   0  0  0  0  0  0  0  0  0  0  0  0
   -3.5658   18.1482  -32.7171 H   0  0  0  0  0  0  0  0  0  0  0  0
   -3.8237   18.1172  -34.5196 H   0  0  0  0  0  0  0  0  0  0  0  0
   -5.1134   19.8477  -32.4161 H   0  0  0  0  0  0  0  0  0  0  0  0
   -4.5029   20.2595  -34.0679 H   0  0  0  0  0  0  0  0  0  0  0  0
   -6.9758   20.3664  -33.9489 H   0  0  0  0  0  0  0  0  0  0  0  0
   -6.3818   19.0643  -35.0783 H   0  0  0  0  0  0  0  0  0  0  0  0
   -6.0039   20.5985  -31.6859 H   0  0  0  0  0  0  0  0  0  0  0  0
  1  2  2  0
  2  3  1  0
  3  4  1  0
  4  5  2  0
  5  6  1  0
  6  7  2  0
  7  8  1  0
  8  9  1  0
  9 10  2  0
  9 11  2  0
  9 12  1  0
 12 13  1  0
 13 14  1  0
 14 15  1  0
 15 16  1  0
 16 17  1  0
  8 18  2  0
  2 19  1  0
 19 20  1  0
 20 21  2  0
 21 22  1  0
 22 23  2  0
 23 24  1  0
 24 25  1  0
 25 26  2  0
 25 27  2  0
 25 28  1  0
 28 29  1  0
 29 30  1  0
 30 31  1  0
 31 32  1  0
 32 33  1  0
 24 34  2  0
 18  4  1  0
 34 20  1  0
 17 12  1  0
 33 28  1  0
  5 35  1  0
  6 36  1  0
  7 37  1  0
 13 38  1  0
 13 39  1  0
 14 40  1  0
 14 41  1  0
 16 42  1  0
 16 43  1  0
 17 44  1  0
 17 45  1  0
 18 46  1  0
 19 47  1  0
 21 48  1  0
 22 49  1  0
 23 50  1  0
 29 51  1  0
 29 52  1  0
 30 53  1  0
 30 54  1  0
 31 55  1  0
 31 56  1  0
 32 57  1  0
 32 58  1  0
 33 59  1  0
 33 60  1  0
 34 61  1  0
M  CHG  1   3  -1
M  END
>  <UniqueID>  (16) 
16

>  <SMILES>  (16) 
O=C([N-]c1cccc(S(=O)(=O)N2CCOCC2)c1)Nc1cccc(S(=O)(=O)N2CCCCC2)c1

>  <Energy>  (16) 
82.66386884747654

>  <Genealogy>  (16) 
O=C([N-]c1cccc(S(=O)(=O)N2CCOCC2)c1)Nc1cccc(S(=O)(=O)N2CCCCC2)c1 (protonated)
O=C([N-]c1cccc(S(=O)(=O)N2CCOCC2)c1)Nc1cccc(S(=O)(=O)N2CCCCC2)c1 (3D coordinates assigned)
O=C([N-]c1cccc(S(=O)(=O)N2CCOCC2)c1)Nc1cccc(S(=O)(=O)N2CCCCC2)c1 (nonaromatic ring conformer: 82.66386884747654 kcal/mol)

>  <smiles>  (16) 
O=C(Nc1cccc(S(=O)(=O)N2CCCCC2)c1)Nc1cccc(S(=O)(=O)N2CCOCC2)c1

>  <score_type>  (16) 
oracle

>  <origin>  (16) 
adgpu

>  <m_score__min__energy>  (16) 
-12.23

>  <m_primary>  (16) 
energy

$$$$
16:0
     RDKit          3D

 56 59  0  0  0  0  0  0  0  0999 V2000
    0.2230   21.0820  -36.2350 C   0  0  0  0  0  0  0  0  0  0  0  0
    0.0450   20.3380  -34.9420 C   0  0  0  0  0  0  0  0  0  0  0  0
   -0.3080   18.9820  -34.9440 C   0  0  0  0  0  0  0  0  0  0  0  0
   -0.4540   18.2920  -33.7380 C   0  0  0  0  0  0  0  0  0  0  0  0
   -0.2800   18.9540  -32.5180 C   0  0  0  0  0  0  0  0  0  0  0  0
   -0.4230   18.2340  -31.3360 O   0  0  0  0  0  0  0  0  0  0  0  0
    0.0230   20.3300  -32.5040 C   0  0  0  0  0  0  0  0  0  0  0  0
    0.1910   21.0110  -31.2530 N   0  0  0  0  0  0  0  0  0  0  0  0
   -0.9080   20.8820  -29.9140 S   0  0  0  0  0  0  0  0  0  0  0  0
   -0.2090   20.1770  -28.7830 O   0  0  0  0  0  0  0  0  0  0  0  0
   -2.0950   20.0510  -30.3230 O   0  0  0  0  0  0  0  0  0  0  0  0
   -1.4330   22.4660  -29.3460 C   0  0  0  0  0  0  0  0  0  0  0  0
   -1.0450   22.9390  -28.0850 C   0  0  0  0  0  0  0  0  0  0  0  0
   -1.5180   24.1690  -27.6220 C   0  0  0  0  0  0  0  0  0  0  0  0
   -2.3940   24.9250  -28.4100 C   0  0  0  0  0  0  0  0  0  0  0  0
   -2.7930   24.4630  -29.6700 C   0  0  0  0  0  0  0  0  0  0  0  0
   -3.6690   25.2850  -30.4580 N   0  0  0  0  0  0  0  0  0  0  0  0
   -5.0950   25.4000  -30.3410 C   0  0  0  0  0  0  0  0  0  0  0  0
   -5.6520   26.4610  -30.7260 O   0  0  0  0  0  0  0  0  0  0  0  0
   -5.9070   24.3450  -29.8100 N   0  0  0  0  0  0  0  0  0  0  0  0
   -6.2150   23.0980  -30.4460 C   0  0  0  0  0  0  0  0  0  0  0  0
   -7.4680   22.4930  -30.3100 C   0  0  0  0  0  0  0  0  0  0  0  0
   -7.7750   21.3440  -31.0360 C   0  0  0  0  0  0  0  0  0  0  0  0
   -6.8370   20.7710  -31.9290 C   0  0  0  0  0  0  0  0  0  0  0  0
   -5.5370   21.3480  -32.0240 C   0  0  0  0  0  0  0  0  0  0  0  0
   -5.2570   22.5180  -31.2760 C   0  0  0  0  0  0  0  0  0  0  0  0
   -4.5890   20.7710  -32.8450 N   0  0  0  0  0  0  0  0  0  0  0  0
   -3.2330   21.3460  -32.9520 C   0  0  0  0  0  0  0  0  0  0  0  0
   -4.9050   19.6410  -33.5560 C   0  0  0  0  0  0  0  0  0  0  0  0
   -4.0410   19.0670  -34.2750 O   0  0  0  0  0  0  0  0  0  0  0  0
   -6.1970   19.1020  -33.4980 C   0  0  0  0  0  0  0  0  0  0  0  0
   -6.4560   18.0730  -34.1860 O   0  0  0  0  0  0  0  0  0  0  0  0
   -7.1570   19.6770  -32.7070 N   0  0  0  0  0  0  0  0  0  0  0  0
   -8.5340   19.1420  -32.7240 C   0  0  0  0  0  0  0  0  0  0  0  0
   -2.2810   23.2410  -30.1480 C   0  0  0  0  0  0  0  0  0  0  0  0
    0.2030   21.0040  -33.7220 C   0  0  0  0  0  0  0  0  0  0  0  0
    0.4741   22.1317  -36.0225 H   0  0  0  0  0  0  0  0  0  0  0  0
    1.0361   20.6206  -36.8146 H   0  0  0  0  0  0  0  0  0  0  0  0
   -0.7109   21.0385  -36.8146 H   0  0  0  0  0  0  0  0  0  0  0  0
   -0.4707   18.4592  -35.8980 H   0  0  0  0  0  0  0  0  0  0  0  0
   -0.7073   17.2216  -33.7478 H   0  0  0  0  0  0  0  0  0  0  0  0
   -0.4210   18.6790  -30.4260 H   0  0  0  0  0  0  0  0  0  0  0  0
   -0.3669   22.3406  -27.4589 H   0  0  0  0  0  0  0  0  0  0  0  0
   -1.2019   24.5440  -26.6374 H   0  0  0  0  0  0  0  0  0  0  0  0
   -2.7714   25.8885  -28.0367 H   0  0  0  0  0  0  0  0  0  0  0  0
   -8.2142   22.9256  -29.6274 H   0  0  0  0  0  0  0  0  0  0  0  0
   -8.7621   20.8743  -30.9135 H   0  0  0  0  0  0  0  0  0  0  0  0
   -4.2612   22.9792  -31.3519 H   0  0  0  0  0  0  0  0  0  0  0  0
   -2.8271   21.5181  -31.9442 H   0  0  0  0  0  0  0  0  0  0  0  0
   -2.5803   20.6472  -33.4957 H   0  0  0  0  0  0  0  0  0  0  0  0
   -3.2815   22.3010  -33.4957 H   0  0  0  0  0  0  0  0  0  0  0  0
   -8.8869   19.0049  -31.6912 H   0  0  0  0  0  0  0  0  0  0  0  0
   -9.1955   19.8486  -33.2467 H   0  0  0  0  0  0  0  0  0  0  0  0
   -8.5449   18.1742  -33.2467 H   0  0  0  0  0  0  0  0  0  0  0  0
   -2.5485   22.8932  -31.1567 H   0  0  0  0  0  0  0  0  0  0  0  0
    0.4720   22.0706  -33.7171 H   0  0  0  0  0  0  0  0  0  0  0  0
  1  2  1  0
  2  3  2  0
  3  4  1  0
  4  5  2  0
  5  6  1  0
  5  7  1  0
  7  8  1  0
  8  9  1  0
  9 10  2  0
  9 11  2  0
  9 12  1  0
 12 13  2  0
 13 14  1  0
 14 15  2  0
 15 16  1  0
 16 17  1  0
 17 18  1  0
 18 19  2  0
 18 20  1  0
 20 21  1  0
 21 22  2  0
 22 23  1  0
 23 24  2  0
 24 25  1  0
 25 26  2  0
 25 27  1  0
 27 28  1  0
 27 29  1  0
 29 30  2  0
 29 31  1  0
 31 32  2  0
 31 33  1  0
 33 34  1  0
 16 35  2  0
  7 36  2  0
 36  2  1  0
 35 12  1  0
 26 21  1  0
 33 24  1  0
  1 37  1  0
  1 38  1  0
  1 39  1  0
  3 40  1  0
  4 41  1  0
  6 42  1  0
 13 43  1  0
 14 44  1  0
 15 45  1  0
 22 46  1  0
 23 47  1  0
 26 48  1  0
 28 49  1  0
 28 50  1  0
 28 51  1  0
 34 52  1  0
 34 53  1  0
 34 54  1  0
 35 55  1  0
 36 56  1  0
M  CHG  3   8  -1  17  -1  20  -1
M  END
>  <UniqueID>  (17) 
17

>  <SMILES>  (17) 
Cc1ccc(O)c([N-]S(=O)(=O)c2cccc([N-]C(=O)[N-]c3ccc4c(c3)n(C)c(=O)c(=O)n4C)c2)c1

>  <Energy>  (17) 
82.99667569789372

>  <Genealogy>  (17) 
Cc1ccc(O)c([N-]S(=O)(=O)c2cccc([N-]C(=O)[N-]c3ccc4c(c3)n(C)c(=O)c(=O)n4C)c2)c1 (protonated)
Cc1ccc(O)c([N-]S(=O)(=O)c2cccc([N-]C(=O)[N-]c3ccc4c(c3)n(C)c(=O)c(=O)n4C)c2)c1 (3D coordinates assigned)
Cc1ccc(O)c([N-]S(=O)(=O)c2cccc([N-]C(=O)[N-]c3ccc4c(c3)n(C)c(=O)c(=O)n4C)c2)c1 (optimized conformer: 82.99667569789372 kcal/mol)

>  <smiles>  (17) 
Cc1ccc(O)c(NS(=O)(=O)c2cccc(NC(=O)Nc3ccc4c(c3)n(C)c(=O)c(=O)n4C)c2)c1

>  <score_type>  (17) 
oracle

>  <origin>  (17) 
adgpu

>  <m_score__min__energy>  (17) 
-13.119999999999999

>  <m_primary>  (17) 
energy

$$$$
17:0
     RDKit          3D

 52 54  0  0  0  0  0  0  0  0999 V2000
   -9.5670   20.3030  -32.2820 C   0  0  0  0  0  0  0  0  0  0  0  0
   -8.4000   21.2430  -32.1160 C   0  0  0  0  0  0  0  0  0  0  0  0
   -8.6800   22.6090  -31.9590 C   0  0  0  0  0  0  0  0  0  0  0  0
   -7.6550   23.5420  -31.8480 C   0  0  0  0  0  0  0  0  0  0  0  0
   -6.3170   23.1390  -31.9230 C   0  0  0  0  0  0  0  0  0  0  0  0
   -5.2470   24.0900  -31.7960 N   0  0  0  0  0  0  0  0  0  0  0  0
   -4.9900   24.9430  -30.6750 C   0  0  0  0  0  0  0  0  0  0  0  0
   -5.9380   25.3780  -29.9670 O   0  0  0  0  0  0  0  0  0  0  0  0
   -3.6380   25.2970  -30.3690 N   0  0  0  0  0  0  0  0  0  0  0  0
   -2.7310   24.5130  -29.5820 C   0  0  0  0  0  0  0  0  0  0  0  0
   -2.9790   23.1410  -29.4410 C   0  0  0  0  0  0  0  0  0  0  0  0
   -2.1180   22.3350  -28.6830 C   0  0  0  0  0  0  0  0  0  0  0  0
   -2.4430   20.6140  -28.5080 S   0  0  0  0  0  0  0  0  0  0  0  0
   -0.9150   19.7110  -28.6190 C   0  0  0  0  0  0  0  0  0  0  0  0
   -3.3760   20.1570  -29.5940 O   0  0  0  0  0  0  0  0  0  0  0  0
   -3.0870   20.3500  -27.1760 O   0  0  0  0  0  0  0  0  0  0  0  0
   -0.9840   22.9020  -28.0890 C   0  0  0  0  0  0  0  0  0  0  0  0
   -0.7110   24.2610  -28.2530 C   0  0  0  0  0  0  0  0  0  0  0  0
   -1.5690   25.0680  -29.0080 C   0  0  0  0  0  0  0  0  0  0  0  0
   -1.2370   26.4030  -29.2100 O   0  0  0  0  0  0  0  0  0  0  0  0
   -6.0120   21.7720  -32.0660 C   0  0  0  0  0  0  0  0  0  0  0  0
   -4.6780   21.3590  -32.1190 O   0  0  0  0  0  0  0  0  0  0  0  0
   -7.0460   20.8080  -32.1620 C   0  0  0  0  0  0  0  0  0  0  0  0
   -6.5980   19.0840  -32.3320 S   0  0  0  0  0  0  0  0  0  0  0  0
   -6.2740   18.4770  -30.9970 O   0  0  0  0  0  0  0  0  0  0  0  0
   -7.7750   18.3250  -32.8790 O   0  0  0  0  0  0  0  0  0  0  0  0
   -5.2330   18.8550  -33.4020 N   0  0  0  0  0  0  0  0  0  0  0  0
   -5.4650   17.7250  -34.3150 C   0  0  0  0  0  0  0  0  0  0  0  0
   -4.1910   17.4120  -35.1280 C   0  0  0  0  0  0  0  0  0  0  0  0
   -3.2190   18.4270  -34.9660 O   0  0  0  0  0  0  0  0  0  0  0  0
   -2.8050   18.4840  -33.6120 C   0  0  0  0  0  0  0  0  0  0  0  0
   -3.9950   18.6420  -32.6420 C   0  0  0  0  0  0  0  0  0  0  0  0
   -9.9397   20.0028  -31.2916 H   0  0  0  0  0  0  0  0  0  0  0  0
  -10.3698   20.8097  -32.8378 H   0  0  0  0  0  0  0  0  0  0  0  0
   -9.2430   19.4107  -32.8378 H   0  0  0  0  0  0  0  0  0  0  0  0
   -9.7262   22.9469  -31.9232 H   0  0  0  0  0  0  0  0  0  0  0  0
   -7.8977   24.6047  -31.7001 H   0  0  0  0  0  0  0  0  0  0  0  0
   -3.8568   22.6926  -29.9293 H   0  0  0  0  0  0  0  0  0  0  0  0
   -0.5442   19.4919  -27.6068 H   0  0  0  0  0  0  0  0  0  0  0  0
   -1.0848   18.7681  -29.1594 H   0  0  0  0  0  0  0  0  0  0  0  0
   -0.1709   20.3145  -29.1594 H   0  0  0  0  0  0  0  0  0  0  0  0
   -0.3063   22.2747  -27.4914 H   0  0  0  0  0  0  0  0  0  0  0  0
    0.1833   24.6997  -27.7863 H   0  0  0  0  0  0  0  0  0  0  0  0
   -4.0860   21.2990  -31.3000 H   0  0  0  0  0  0  0  0  0  0  0  0
   -5.7462   16.8381  -33.7281 H   0  0  0  0  0  0  0  0  0  0  0  0
   -6.2731   17.9926  -35.0117 H   0  0  0  0  0  0  0  0  0  0  0  0
   -3.7716   16.4552  -34.7837 H   0  0  0  0  0  0  0  0  0  0  0  0
   -4.4620   17.3557  -36.1926 H   0  0  0  0  0  0  0  0  0  0  0  0
   -2.2693   17.5551  -33.3664 H   0  0  0  0  0  0  0  0  0  0  0  0
   -2.1563   19.3646  -33.4952 H   0  0  0  0  0  0  0  0  0  0  0  0
   -4.0928   17.7312  -32.0330 H   0  0  0  0  0  0  0  0  0  0  0  0
   -3.8173   19.5086  -31.9882 H   0  0  0  0  0  0  0  0  0  0  0  0
  1  2  1  0
  2  3  2  0
  3  4  1  0
  4  5  2  0
  5  6  1  0
  6  7  1  0
  7  8  2  0
  7  9  1  0
  9 10  1  0
 10 11  2  0
 11 12  1  0
 12 13  1  0
 13 14  1  0
 13 15  2  0
 13 16  2  0
 12 17  2  0
 17 18  1  0
 18 19  2  0
 19 20  1  0
  5 21  1  0
 21 22  1  0
 21 23  2  0
 23 24  1  0
 24 25  2  0
 24 26  2  0
 24 27  1  0
 27 28  1  0
 28 29  1  0
 29 30  1  0
 30 31  1  0
 31 32  1  0
 23  2  1  0
 32 27  1  0
 19 10  1  0
  1 33  1  0
  1 34  1  0
  1 35  1  0
  3 36  1  0
  4 37  1  0
 11 38  1  0
 14 39  1  0
 14 40  1  0
 14 41  1  0
 17 42  1  0
 18 43  1  0
 22 44  1  0
 28 45  1  0
 28 46  1  0
 29 47  1  0
 29 48  1  0
 31 49  1  0
 31 50  1  0
 32 51  1  0
 32 52  1  0
M  CHG  3   6  -1   9  -1  20  -1
M  END
>  <UniqueID>  (18) 
18

>  <SMILES>  (18) 
Cc1ccc([N-]C(=O)[N-]c2cc(S(C)(=O)=O)ccc2[O-])c(O)c1S(=O)(=O)N1CCOCC1

>  <Energy>  (18) 
72.3358751446438

>  <Genealogy>  (18) 
Cc1ccc([N-]C(=O)[N-]c2cc(S(C)(=O)=O)ccc2[O-])c(O)c1S(=O)(=O)N1CCOCC1 (protonated)
Cc1ccc([N-]C(=O)[N-]c2cc(S(C)(=O)=O)ccc2[O-])c(O)c1S(=O)(=O)N1CCOCC1 (3D coordinates assigned)
Cc1ccc([N-]C(=O)[N-]c2cc(S(C)(=O)=O)ccc2[O-])c(O)c1S(=O)(=O)N1CCOCC1 (nonaromatic ring conformer: 72.3358751446438 kcal/mol)

>  <smiles>  (18) 
Cc1ccc(NC(=O)Nc2cc(S(C)(=O)=O)ccc2O)c(O)c1S(=O)(=O)N1CCOCC1

>  <score_type>  (18) 
oracle

>  <origin>  (18) 
adgpu

>  <m_score__min__energy>  (18) 
-14.84

>  <m_primary>  (18) 
energy

$$$$
18:0
     RDKit          3D

 50 53  0  0  0  0  0  0  0  0999 V2000
   -5.4590   22.4100  -30.3650 O   0  0  0  0  0  0  0  0  0  0  0  0
   -4.2610   22.5760  -30.7200 C   0  0  0  0  0  0  0  0  0  0  0  0
   -3.8560   22.2810  -32.0610 N   0  0  0  0  0  0  0  0  0  0  0  0
   -3.4430   20.9940  -32.5400 C   0  0  0  0  0  0  0  0  0  0  0  0
   -4.3760   20.2080  -33.2290 C   0  0  0  0  0  0  0  0  0  0  0  0
   -4.0210   18.9400  -33.7110 C   0  0  0  0  0  0  0  0  0  0  0  0
   -5.1900   17.9490  -34.5810 S   0  0  0  0  0  0  0  0  0  0  0  0
   -6.1070   18.8270  -35.3850 O   0  0  0  0  0  0  0  0  0  0  0  0
   -4.4430   17.0440  -35.5210 O   0  0  0  0  0  0  0  0  0  0  0  0
   -6.1060   17.0030  -33.4280 N   0  0  0  0  0  0  0  0  0  0  0  0
   -5.3850   16.8440  -32.1390 C   0  0  0  0  0  0  0  0  0  0  0  0
   -6.1110   17.4630  -30.9320 C   0  0  0  0  0  0  0  0  0  0  0  0
   -6.6540   18.8460  -31.2880 C   0  0  0  0  0  0  0  0  0  0  0  0
   -7.6020   18.7980  -32.4990 C   0  0  0  0  0  0  0  0  0  0  0  0
   -7.4950   17.4870  -33.3010 C   0  0  0  0  0  0  0  0  0  0  0  0
   -2.7330   18.4460  -33.4770 C   0  0  0  0  0  0  0  0  0  0  0  0
   -1.8080   19.2090  -32.7620 C   0  0  0  0  0  0  0  0  0  0  0  0
   -2.1580   20.4770  -32.2760 C   0  0  0  0  0  0  0  0  0  0  0  0
   -1.2470   21.2010  -31.5090 O   0  0  0  0  0  0  0  0  0  0  0  0
   -3.2700   23.0770  -29.7420 C   0  0  0  0  0  0  0  0  0  0  0  0
   -2.9190   24.4430  -29.7790 C   0  0  0  0  0  0  0  0  0  0  0  0
   -3.5240   25.3010  -30.6940 O   0  0  0  0  0  0  0  0  0  0  0  0
   -1.9470   24.9500  -28.9140 C   0  0  0  0  0  0  0  0  0  0  0  0
   -1.6070   26.2970  -28.9630 O   0  0  0  0  0  0  0  0  0  0  0  0
   -1.3070   24.1110  -28.0040 C   0  0  0  0  0  0  0  0  0  0  0  0
   -1.6460   22.7540  -27.9330 C   0  0  0  0  0  0  0  0  0  0  0  0
   -1.0070   21.9230  -26.9980 C   0  0  0  0  0  0  0  0  0  0  0  0
   -1.3590   20.5780  -26.8950 C   0  0  0  0  0  0  0  0  0  0  0  0
   -2.3570   20.0520  -27.7150 C   0  0  0  0  0  0  0  0  0  0  0  0
   -3.0010   20.8640  -28.6520 C   0  0  0  0  0  0  0  0  0  0  0  0
   -2.6430   22.2220  -28.7950 C   0  0  0  0  0  0  0  0  0  0  0  0
   -5.3949   20.5886  -33.3931 H   0  0  0  0  0  0  0  0  0  0  0  0
   -5.2522   15.7689  -31.9479 H   0  0  0  0  0  0  0  0  0  0  0  0
   -4.4293   17.3787  -32.2424 H   0  0  0  0  0  0  0  0  0  0  0  0
   -6.9463   16.8105  -30.6380 H   0  0  0  0  0  0  0  0  0  0  0  0
   -5.3982   17.5632  -30.1002 H   0  0  0  0  0  0  0  0  0  0  0  0
   -7.2030   19.2457  -30.4226 H   0  0  0  0  0  0  0  0  0  0  0  0
   -5.8009   19.4894  -31.5492 H   0  0  0  0  0  0  0  0  0  0  0  0
   -8.6358   18.9040  -32.1383 H   0  0  0  0  0  0  0  0  0  0  0  0
   -7.3138   19.6183  -33.1729 H   0  0  0  0  0  0  0  0  0  0  0  0
   -8.0907   16.7147  -32.7923 H   0  0  0  0  0  0  0  0  0  0  0  0
   -7.8682   17.6894  -34.3158 H   0  0  0  0  0  0  0  0  0  0  0  0
   -2.4485   17.4539  -33.8574 H   0  0  0  0  0  0  0  0  0  0  0  0
   -0.7982   18.8130  -32.5787 H   0  0  0  0  0  0  0  0  0  0  0  0
   -1.4640   22.1260  -31.1580 H   0  0  0  0  0  0  0  0  0  0  0  0
   -0.5314   24.5167  -27.3378 H   0  0  0  0  0  0  0  0  0  0  0  0
   -0.2249   22.3356  -26.3437 H   0  0  0  0  0  0  0  0  0  0  0  0
   -0.8490   19.9309  -26.1662 H   0  0  0  0  0  0  0  0  0  0  0  0
   -2.6385   18.9926  -27.6236 H   0  0  0  0  0  0  0  0  0  0  0  0
   -3.7951   20.4408  -29.2847 H   0  0  0  0  0  0  0  0  0  0  0  0
  1  2  2  0
  2  3  1  0
  3  4  1  0
  4  5  2  0
  5  6  1  0
  6  7  1  0
  7  8  2  0
  7  9  2  0
  7 10  1  0
 10 11  1  0
 11 12  1  0
 12 13  1  0
 13 14  1  0
 14 15  1  0
  6 16  2  0
 16 17  1  0
 17 18  2  0
 18 19  1  0
  2 20  1  0
 20 21  2  0
 21 22  1  0
 21 23  1  0
 23 24  1  0
 23 25  2  0
 25 26  1  0
 26 27  2  0
 27 28  1  0
 28 29  2  0
 29 30  1  0
 30 31  2  0
 18  4  1  0
 31 20  1  0
 15 10  1  0
 31 26  1  0
  5 32  1  0
 11 33  1  0
 11 34  1  0
 12 35  1  0
 12 36  1  0
 13 37  1  0
 13 38  1  0
 14 39  1  0
 14 40  1  0
 15 41  1  0
 15 42  1  0
 16 43  1  0
 17 44  1  0
 19 45  1  0
 25 46  1  0
 27 47  1  0
 28 48  1  0
 29 49  1  0
 30 50  1  0
M  CHG  3   3  -1  22  -1  24  -1
M  END
>  <UniqueID>  (19) 
19

>  <SMILES>  (19) 
O=C([N-]c1cc(S(=O)(=O)N2CCCCC2)ccc1O)c1c([O-])c([O-])cc2ccccc12

>  <Energy>  (19) 
77.59914460380514

>  <Genealogy>  (19) 
O=C([N-]c1cc(S(=O)(=O)N2CCCCC2)ccc1O)c1c([O-])c([O-])cc2ccccc12 (protonated)
O=C([N-]c1cc(S(=O)(=O)N2CCCCC2)ccc1O)c1c([O-])c([O-])cc2ccccc12 (3D coordinates assigned)
O=C([N-]c1cc(S(=O)(=O)N2CCCCC2)ccc1O)c1c([O-])c([O-])cc2ccccc12 (nonaromatic ring conformer: 77.59914460380514 kcal/mol)

>  <smiles>  (19) 
O=C(Nc1cc(S(=O)(=O)N2CCCCC2)ccc1O)c1c(O)c(O)cc2ccccc12

>  <score_type>  (19) 
oracle

>  <origin>  (19) 
adgpu

>  <m_score__min__energy>  (19) 
-15.77

>  <m_primary>  (19) 
energy

$$$$
19:0
     RDKit          3D

 67 70  0  0  0  0  0  0  0  0999 V2000
   -0.9270   25.5370  -28.5210 C   0  0  0  0  0  0  0  0  0  0  0  0
   -1.6800   24.2670  -28.2290 C   0  0  0  0  0  0  0  0  0  0  0  0
   -1.1170   23.2940  -27.3860 C   0  0  0  0  0  0  0  0  0  0  0  0
   -1.7940   22.0910  -27.1320 C   0  0  0  0  0  0  0  0  0  0  0  0
   -1.1540   21.0310  -26.2750 C   0  0  0  0  0  0  0  0  0  0  0  0
   -0.8770   19.8160  -27.0710 N   0  0  0  0  0  0  0  0  0  0  0  0
   -0.5990   20.1610  -28.4780 C   0  0  0  0  0  0  0  0  0  0  0  0
   -2.0290   18.9020  -27.0080 C   0  0  0  0  0  0  0  0  0  0  0  0
   -3.0470   21.8680  -27.7200 C   0  0  0  0  0  0  0  0  0  0  0  0
   -3.6090   22.8240  -28.5650 C   0  0  0  0  0  0  0  0  0  0  0  0
   -2.9230   24.0180  -28.8440 C   0  0  0  0  0  0  0  0  0  0  0  0
   -3.4650   24.9680  -29.7680 N   0  0  0  0  0  0  0  0  0  0  0  0
   -5.1270   24.9400  -30.2600 S   0  0  0  0  0  0  0  0  0  0  0  0
   -5.3600   26.0490  -31.2470 O   0  0  0  0  0  0  0  0  0  0  0  0
   -6.0350   25.1530  -29.0820 O   0  0  0  0  0  0  0  0  0  0  0  0
   -5.4660   23.3850  -31.0160 C   0  0  0  0  0  0  0  0  0  0  0  0
   -6.6220   22.6760  -30.6660 C   0  0  0  0  0  0  0  0  0  0  0  0
   -6.8630   21.4080  -31.2000 C   0  0  0  0  0  0  0  0  0  0  0  0
   -5.9570   20.8300  -32.1090 C   0  0  0  0  0  0  0  0  0  0  0  0
   -6.2070   19.4720  -32.6690 C   0  0  0  0  0  0  0  0  0  0  0  0
   -7.3070   18.7110  -32.2310 C   0  0  0  0  0  0  0  0  0  0  0  0
   -7.5380   17.4360  -32.7490 C   0  0  0  0  0  0  0  0  0  0  0  0
   -6.6770   16.9010  -33.7070 C   0  0  0  0  0  0  0  0  0  0  0  0
   -5.5660   17.6340  -34.1540 C   0  0  0  0  0  0  0  0  0  0  0  0
   -4.6440   17.0490  -35.2060 C   0  0  0  0  0  0  0  0  0  0  0  0
   -3.2780   16.7580  -34.7170 N   0  0  0  0  0  0  0  0  0  0  0  0
   -3.2460   15.9090  -33.5050 C   0  0  0  0  0  0  0  0  0  0  0  0
   -1.8350   15.8830  -32.9000 C   0  0  0  0  0  0  0  0  0  0  0  0
   -1.3690   17.2290  -32.5060 N   0  0  0  0  0  0  0  0  0  0  0  0
   -2.0290   18.3320  -33.2290 C   0  0  0  0  0  0  0  0  0  0  0  0
   -2.3750   17.9330  -34.6710 C   0  0  0  0  0  0  0  0  0  0  0  0
   -5.3460   18.9240  -33.6390 C   0  0  0  0  0  0  0  0  0  0  0  0
   -4.8060   21.5570  -32.4700 C   0  0  0  0  0  0  0  0  0  0  0  0
   -4.5590   22.8180  -31.9210 C   0  0  0  0  0  0  0  0  0  0  0  0
   -0.6409   26.0195  -27.5748 H   0  0  0  0  0  0  0  0  0  0  0  0
   -0.0223   25.3018  -29.1008 H   0  0  0  0  0  0  0  0  0  0  0  0
   -1.5674   26.2179  -29.1008 H   0  0  0  0  0  0  0  0  0  0  0  0
   -0.1370   23.4767  -26.9210 H   0  0  0  0  0  0  0  0  0  0  0  0
   -0.2093   21.4185  -25.8659 H   0  0  0  0  0  0  0  0  0  0  0  0
   -1.8436   20.7707  -25.4585 H   0  0  0  0  0  0  0  0  0  0  0  0
    0.0908   21.0170  -28.5162 H   0  0  0  0  0  0  0  0  0  0  0  0
   -0.1409   19.2981  -28.9835 H   0  0  0  0  0  0  0  0  0  0  0  0
   -1.5396   20.4252  -28.9835 H   0  0  0  0  0  0  0  0  0  0  0  0
   -2.2812   18.7019  -25.9562 H   0  0  0  0  0  0  0  0  0  0  0  0
   -2.8916   19.3641  -27.5104 H   0  0  0  0  0  0  0  0  0  0  0  0
   -1.7751   17.9569  -27.5104 H   0  0  0  0  0  0  0  0  0  0  0  0
   -3.5897   20.9337  -27.5135 H   0  0  0  0  0  0  0  0  0  0  0  0
   -4.5957   22.6423  -29.0161 H   0  0  0  0  0  0  0  0  0  0  0  0
   -7.3448   23.1206  -29.9661 H   0  0  0  0  0  0  0  0  0  0  0  0
   -7.7687   20.8564  -30.9076 H   0  0  0  0  0  0  0  0  0  0  0  0
   -7.9900   19.1246  -31.4744 H   0  0  0  0  0  0  0  0  0  0  0  0
   -8.4020   16.8510  -32.4006 H   0  0  0  0  0  0  0  0  0  0  0  0
   -6.8697   15.8979  -34.1152 H   0  0  0  0  0  0  0  0  0  0  0  0
   -5.0875   16.1109  -35.5711 H   0  0  0  0  0  0  0  0  0  0  0  0
   -4.5433   17.8070  -35.9968 H   0  0  0  0  0  0  0  0  0  0  0  0
   -3.9503   16.3123  -32.7625 H   0  0  0  0  0  0  0  0  0  0  0  0
   -3.5315   14.8837  -33.7828 H   0  0  0  0  0  0  0  0  0  0  0  0
   -1.8436   15.2370  -32.0097 H   0  0  0  0  0  0  0  0  0  0  0  0
   -1.1466   15.4998  -33.6677 H   0  0  0  0  0  0  0  0  0  0  0  0
   -1.5480   17.3620  -31.4840 H   0  0  0  0  0  0  0  0  0  0  0  0
   -2.9554   18.6017  -32.7008 H   0  0  0  0  0  0  0  0  0  0  0  0
   -1.3354   19.1851  -33.2642 H   0  0  0  0  0  0  0  0  0  0  0  0
   -2.8698   18.7816  -35.1660 H   0  0  0  0  0  0  0  0  0  0  0  0
   -1.4399   17.6652  -35.1847 H   0  0  0  0  0  0  0  0  0  0  0  0
   -4.4895   19.5130  -33.9989 H   0  0  0  0  0  0  0  0  0  0  0  0
   -4.0947   21.1280  -33.1911 H   0  0  0  0  0  0  0  0  0  0  0  0
   -3.6483   23.3680  -32.2006 H   0  0  0  0  0  0  0  0  0  0  0  0
  1  2  1  0
  2  3  2  0
  3  4  1  0
  4  5  1  0
  5  6  1  0
  6  7  1  0
  6  8  1  0
  4  9  2  0
  9 10  1  0
 10 11  2  0
 11 12  1  0
 12 13  1  0
 13 14  2  0
 13 15  2  0
 13 16  1  0
 16 17  2  0
 17 18  1  0
 18 19  2  0
 19 20  1  0
 20 21  2  0
 21 22  1  0
 22 23  2  0
 23 24  1  0
 24 25  1  0
 25 26  1  0
 26 27  1  0
 27 28  1  0
 28 29  1  0
 29 30  1  0
 30 31  1  0
 24 32  2  0
 19 33  1  0
 33 34  2  0
 11  2  1  0
 34 16  1  0
 32 20  1  0
 31 26  1  0
  1 35  1  0
  1 36  1  0
  1 37  1  0
  3 38  1  0
  5 39  1  0
  5 40  1  0
  7 41  1  0
  7 42  1  0
  7 43  1  0
  8 44  1  0
  8 45  1  0
  8 46  1  0
  9 47  1  0
 10 48  1  0
 17 49  1  0
 18 50  1  0
 21 51  1  0
 22 52  1  0
 23 53  1  0
 25 54  1  0
 25 55  1  0
 27 56  1  0
 27 57  1  0
 28 58  1  0
 28 59  1  0
 29 60  1  0
 30 61  1  0
 30 62  1  0
 31 63  1  0
 31 64  1  0
 32 65  1  0
 33 66  1  0
 34 67  1  0
M  CHG  1  12  -1
M  END
>  <UniqueID>  (20) 
20

>  <SMILES>  (20) 
Cc1cc(CN(C)C)ccc1[N-]S(=O)(=O)c1ccc(-c2cccc(CN3CCNCC3)c2)cc1

>  <Energy>  (20) 
93.41961701200485

>  <Genealogy>  (20) 
Cc1cc(CN(C)C)ccc1[N-]S(=O)(=O)c1ccc(-c2cccc(CN3CCNCC3)c2)cc1 (protonated)
Cc1cc(CN(C)C)ccc1[N-]S(=O)(=O)c1ccc(-c2cccc(CN3CCNCC3)c2)cc1 (3D coordinates assigned)
Cc1cc(CN(C)C)ccc1[N-]S(=O)(=O)c1ccc(-c2cccc(CN3CCNCC3)c2)cc1 (nonaromatic ring conformer: 93.41961701200485 kcal/mol)

>  <smiles>  (20) 
Cc1cc(CN(C)C)ccc1NS(=O)(=O)c1ccc(-c2cccc(CN3CCNCC3)c2)cc1

>  <score_type>  (20) 
oracle

>  <origin>  (20) 
adgpu

>  <m_score__min__energy>  (20) 
-11.24

>  <m_primary>  (20) 
energy

$$$$
20:0
     RDKit          3D

 44 46  0  0  0  0  0  0  0  0999 V2000
   -6.0870   17.7350  -34.5860 C   0  0  0  0  0  0  0  0  0  0  0  0
   -5.6960   18.9070  -33.8120 N   0  0  0  0  0  0  0  0  0  0  0  0
   -6.6680   19.7240  -33.1410 C   0  0  0  0  0  0  0  0  0  0  0  0
   -7.8740   19.3510  -33.1060 O   0  0  0  0  0  0  0  0  0  0  0  0
   -6.2810   20.9890  -32.4730 C   0  0  0  0  0  0  0  0  0  0  0  0
   -7.1800   21.6780  -31.6370 C   0  0  0  0  0  0  0  0  0  0  0  0
   -6.7930   22.8640  -31.0050 C   0  0  0  0  0  0  0  0  0  0  0  0
   -5.5040   23.3770  -31.1930 C   0  0  0  0  0  0  0  0  0  0  0  0
   -5.0060   24.8470  -30.3620 S   0  0  0  0  0  0  0  0  0  0  0  0
   -5.3860   26.0500  -31.1780 O   0  0  0  0  0  0  0  0  0  0  0  0
   -5.7200   24.9250  -29.0410 O   0  0  0  0  0  0  0  0  0  0  0  0
   -3.2970   24.8670  -30.0760 N   0  0  0  0  0  0  0  0  0  0  0  0
   -2.6420   23.9470  -29.1980 C   0  0  0  0  0  0  0  0  0  0  0  0
   -3.0920   22.6230  -29.0890 C   0  0  0  0  0  0  0  0  0  0  0  0
   -2.4560   21.7310  -28.2220 C   0  0  0  0  0  0  0  0  0  0  0  0
   -1.3730   22.1580  -27.4490 C   0  0  0  0  0  0  0  0  0  0  0  0
   -0.9350   23.4820  -27.5330 C   0  0  0  0  0  0  0  0  0  0  0  0
   -1.5720   24.3830  -28.3960 C   0  0  0  0  0  0  0  0  0  0  0  0
   -0.9820   26.0790  -28.4850 S   0  0  0  0  0  0  0  0  0  0  0  0
   -0.7210   26.1870  -26.7150 C   0  0  0  0  0  0  0  0  0  0  0  0
    0.5790   26.1480  -26.1950 C   0  0  0  0  0  0  0  0  0  0  0  0
    0.7830   26.2350  -24.8140 C   0  0  0  0  0  0  0  0  0  0  0  0
   -0.3090   26.3640  -23.9510 C   0  0  0  0  0  0  0  0  0  0  0  0
   -1.6080   26.4070  -24.4690 C   0  0  0  0  0  0  0  0  0  0  0  0
   -1.8140   26.3220  -25.8500 C   0  0  0  0  0  0  0  0  0  0  0  0
   -4.5990   22.6890  -32.0110 C   0  0  0  0  0  0  0  0  0  0  0  0
   -4.9830   21.5040  -32.6430 C   0  0  0  0  0  0  0  0  0  0  0  0
   -6.3596   16.9180  -33.9018 H   0  0  0  0  0  0  0  0  0  0  0  0
   -6.9502   17.9856  -35.2201 H   0  0  0  0  0  0  0  0  0  0  0  0
   -5.2462   17.4171  -35.2201 H   0  0  0  0  0  0  0  0  0  0  0  0
   -4.6780   19.1160  -33.7160 H   0  0  0  0  0  0  0  0  0  0  0  0
   -8.1937   21.2808  -31.4798 H   0  0  0  0  0  0  0  0  0  0  0  0
   -7.5048   23.3964  -30.3570 H   0  0  0  0  0  0  0  0  0  0  0  0
   -3.9498   22.2853  -29.6891 H   0  0  0  0  0  0  0  0  0  0  0  0
   -2.8081   20.6915  -28.1478 H   0  0  0  0  0  0  0  0  0  0  0  0
   -0.8657   21.4522  -26.7749 H   0  0  0  0  0  0  0  0  0  0  0  0
   -0.0865   23.8183  -26.9190 H   0  0  0  0  0  0  0  0  0  0  0  0
    1.4397   26.0489  -26.8728 H   0  0  0  0  0  0  0  0  0  0  0  0
    1.8042   26.2019  -24.4065 H   0  0  0  0  0  0  0  0  0  0  0  0
   -0.1471   26.4317  -22.8651 H   0  0  0  0  0  0  0  0  0  0  0  0
   -2.4676   26.5077  -23.7901 H   0  0  0  0  0  0  0  0  0  0  0  0
   -2.8353   26.3612  -26.2568 H   0  0  0  0  0  0  0  0  0  0  0  0
   -3.5824   23.0832  -32.1563 H   0  0  0  0  0  0  0  0  0  0  0  0
   -4.2635   20.9684  -33.2798 H   0  0  0  0  0  0  0  0  0  0  0  0
  1  2  1  0
  2  3  1  0
  3  4  2  0
  3  5  1  0
  5  6  2  0
  6  7  1  0
  7  8  2  0
  8  9  1  0
  9 10  2  0
  9 11  2  0
  9 12  1  0
 12 13  1  0
 13 14  2  0
 14 15  1  0
 15 16  2  0
 16 17  1  0
 17 18  2  0
 18 19  1  0
 19 20  1  0
 20 21  2  0
 21 22  1  0
 22 23  2  0
 23 24  1  0
 24 25  2  0
  8 26  1  0
 26 27  2  0
 27  5  1  0
 18 13  1  0
 25 20  1  0
  1 28  1  0
  1 29  1  0
  1 30  1  0
  2 31  1  0
  6 32  1  0
  7 33  1  0
 14 34  1  0
 15 35  1  0
 16 36  1  0
 17 37  1  0
 21 38  1  0
 22 39  1  0
 23 40  1  0
 24 41  1  0
 25 42  1  0
 26 43  1  0
 27 44  1  0
M  CHG  1  12  -1
M  END
>  <UniqueID>  (21) 
21

>  <SMILES>  (21) 
CNC(=O)c1ccc(S(=O)(=O)[N-]c2ccccc2Sc2ccccc2)cc1

>  <Energy>  (21) 
50.4415249457431

>  <Genealogy>  (21) 
CNC(=O)c1ccc(S(=O)(=O)[N-]c2ccccc2Sc2ccccc2)cc1 (protonated)
CNC(=O)c1ccc(S(=O)(=O)[N-]c2ccccc2Sc2ccccc2)cc1 (3D coordinates assigned)
CNC(=O)c1ccc(S(=O)(=O)[N-]c2ccccc2Sc2ccccc2)cc1 (optimized conformer: 50.4415249457431 kcal/mol)

>  <smiles>  (21) 
CNC(=O)c1ccc(S(=O)(=O)Nc2ccccc2Sc2ccccc2)cc1

>  <score_type>  (21) 
oracle

>  <origin>  (21) 
adgpu

>  <m_score__min__energy>  (21) 
-10.44

>  <m_primary>  (21) 
energy

$$$$
21:0
     RDKit          3D

 48 51  0  0  0  0  0  0  0  0999 V2000
   -1.2710   21.5230  -26.9210 C   0  0  0  0  0  0  0  0  0  0  0  0
   -1.9210   22.5410  -27.8220 C   0  0  0  0  0  0  0  0  0  0  0  0
   -3.0550   22.1530  -28.5520 C   0  0  0  0  0  0  0  0  0  0  0  0
   -3.6860   23.0430  -29.4170 C   0  0  0  0  0  0  0  0  0  0  0  0
   -3.1830   24.3400  -29.5880 C   0  0  0  0  0  0  0  0  0  0  0  0
   -3.8130   25.2810  -30.4700 N   0  0  0  0  0  0  0  0  0  0  0  0
   -5.1990   25.3190  -30.8380 C   0  0  0  0  0  0  0  0  0  0  0  0
   -6.0290   25.9460  -30.1310 O   0  0  0  0  0  0  0  0  0  0  0  0
   -5.6750   24.5510  -31.9470 N   0  0  0  0  0  0  0  0  0  0  0  0
   -6.3860   23.3070  -31.8690 C   0  0  0  0  0  0  0  0  0  0  0  0
   -7.7420   23.2440  -31.4660 C   0  0  0  0  0  0  0  0  0  0  0  0
   -8.3990   22.0060  -31.3800 C   0  0  0  0  0  0  0  0  0  0  0  0
   -7.6830   20.8480  -31.6820 C   0  0  0  0  0  0  0  0  0  0  0  0
   -6.3730   20.9000  -32.0460 C   0  0  0  0  0  0  0  0  0  0  0  0
   -5.6910   22.1140  -32.1420 C   0  0  0  0  0  0  0  0  0  0  0  0
   -5.8540   19.5410  -32.3020 C   0  0  0  0  0  0  0  0  0  0  0  0
   -6.9700   18.6190  -31.9760 N   0  0  0  0  0  0  0  0  0  0  0  0
   -7.2410   17.6850  -33.0790 C   0  0  0  0  0  0  0  0  0  0  0  0
   -8.1590   19.4500  -31.6600 C   0  0  0  0  0  0  0  0  0  0  0  0
   -2.0760   24.7550  -28.8360 C   0  0  0  0  0  0  0  0  0  0  0  0
   -1.5970   26.0500  -29.0120 O   0  0  0  0  0  0  0  0  0  0  0  0
   -1.4450   23.8740  -27.9280 C   0  0  0  0  0  0  0  0  0  0  0  0
   -0.0480   24.4480  -26.9850 S   0  0  0  0  0  0  0  0  0  0  0  0
    1.1360   24.6830  -27.8830 O   0  0  0  0  0  0  0  0  0  0  0  0
    0.3520   23.4120  -25.9720 O   0  0  0  0  0  0  0  0  0  0  0  0
   -0.5190   25.9440  -26.1170 C   0  0  0  0  0  0  0  0  0  0  0  0
   -1.9750   25.9640  -25.6800 C   0  0  0  0  0  0  0  0  0  0  0  0
   -0.8750   25.7870  -24.6470 C   0  0  0  0  0  0  0  0  0  0  0  0
   -1.4466   21.7979  -25.8705 H   0  0  0  0  0  0  0  0  0  0  0  0
   -1.7030   20.5306  -27.1174 H   0  0  0  0  0  0  0  0  0  0  0  0
   -0.1890   21.4973  -27.1174 H   0  0  0  0  0  0  0  0  0  0  0  0
   -3.4504   21.1327  -28.4394 H   0  0  0  0  0  0  0  0  0  0  0  0
   -4.5835   22.7268  -29.9688 H   0  0  0  0  0  0  0  0  0  0  0  0
   -8.2833   24.1693  -31.2191 H   0  0  0  0  0  0  0  0  0  0  0  0
   -9.4561   21.9507  -31.0808 H   0  0  0  0  0  0  0  0  0  0  0  0
   -4.6286   22.1379  -32.4261 H   0  0  0  0  0  0  0  0  0  0  0  0
   -5.5632   19.4336  -33.3574 H   0  0  0  0  0  0  0  0  0  0  0  0
   -4.9598   19.3267  -31.6983 H   0  0  0  0  0  0  0  0  0  0  0  0
   -7.5253   16.7050  -32.6681 H   0  0  0  0  0  0  0  0  0  0  0  0
   -8.0628   18.0759  -33.6970 H   0  0  0  0  0  0  0  0  0  0  0  0
   -6.3376   17.5754  -33.6970 H   0  0  0  0  0  0  0  0  0  0  0  0
   -8.9444   19.2997  -32.4154 H   0  0  0  0  0  0  0  0  0  0  0  0
   -8.5949   19.1835  -30.6859 H   0  0  0  0  0  0  0  0  0  0  0  0
    0.1533   26.6131  -26.6741 H   0  0  0  0  0  0  0  0  0  0  0  0
   -2.5477   26.9024  -25.7181 H   0  0  0  0  0  0  0  0  0  0  0  0
   -2.8782   25.4012  -25.9583 H   0  0  0  0  0  0  0  0  0  0  0  0
   -0.6514   26.5972  -23.9374 H   0  0  0  0  0  0  0  0  0  0  0  0
   -0.6521   25.0431  -23.8679 H   0  0  0  0  0  0  0  0  0  0  0  0
  1  2  1  0
  2  3  2  0
  3  4  1  0
  4  5  2  0
  5  6  1  0
  6  7  1  0
  7  8  2  0
  7  9  1  0
  9 10  1  0
 10 11  2  0
 11 12  1  0
 12 13  2  0
 13 14  1  0
 14 15  2  0
 14 16  1  0
 16 17  1  0
 17 18  1  0
 17 19  1  0
  5 20  1  0
 20 21  1  0
 20 22  2  0
 22 23  1  0
 23 24  2  0
 23 25  2  0
 23 26  1  0
 26 27  1  0
 27 28  1  0
 22  2  1  0
 28 26  1  0
 15 10  1  0
 19 13  1  0
  1 29  1  0
  1 30  1  0
  1 31  1  0
  3 32  1  0
  4 33  1  0
 11 34  1  0
 12 35  1  0
 15 36  1  0
 16 37  1  0
 16 38  1  0
 18 39  1  0
 18 40  1  0
 18 41  1  0
 19 42  1  0
 19 43  1  0
 26 44  1  0
 27 45  1  0
 27 46  1  0
 28 47  1  0
 28 48  1  0
M  CHG  3   6  -1   9  -1  21  -1
M  END
>  <UniqueID>  (22) 
22

>  <SMILES>  (22) 
Cc1ccc([N-]C(=O)[N-]c2ccc3c(c2)CN(C)C3)c([O-])c1S(=O)(=O)C1CC1

>  <Energy>  (22) 
335.65089900156096

>  <Genealogy>  (22) 
Cc1ccc([N-]C(=O)[N-]c2ccc3c(c2)CN(C)C3)c([O-])c1S(=O)(=O)C1CC1 (protonated)
Cc1ccc([N-]C(=O)[N-]c2ccc3c(c2)CN(C)C3)c([O-])c1S(=O)(=O)C1CC1 (3D coordinates assigned)
Cc1ccc([N-]C(=O)[N-]c2ccc3c(c2)CN(C)C3)c([O-])c1S(=O)(=O)C1CC1 (nonaromatic ring conformer: 335.65089900156096 kcal/mol)

>  <smiles>  (22) 
Cc1ccc(NC(=O)Nc2ccc3c(c2)CN(C)C3)c(O)c1S(=O)(=O)C1CC1

>  <score_type>  (22) 
oracle

>  <origin>  (22) 
adgpu

>  <m_score__min__energy>  (22) 
-15.75

>  <m_primary>  (22) 
energy

$$$$
22:0
     RDKit          3D

 55 58  0  0  0  0  0  0  0  0999 V2000
   -0.2000   21.0100  -34.6220 O   0  0  0  0  0  0  0  0  0  0  0  0
   -0.8220   20.9870  -33.5250 C   0  0  0  0  0  0  0  0  0  0  0  0
   -0.1490   21.3560  -32.3130 N   0  0  0  0  0  0  0  0  0  0  0  0
   -0.3010   20.7670  -31.0120 C   0  0  0  0  0  0  0  0  0  0  0  0
   -0.3540   19.3740  -30.8170 C   0  0  0  0  0  0  0  0  0  0  0  0
   -0.4860   18.8500  -29.5270 C   0  0  0  0  0  0  0  0  0  0  0  0
   -0.5540   19.7050  -28.4240 C   0  0  0  0  0  0  0  0  0  0  0  0
   -0.4680   21.0920  -28.6050 C   0  0  0  0  0  0  0  0  0  0  0  0
   -0.5210   22.1860  -27.2260 S   0  0  0  0  0  0  0  0  0  0  0  0
   -1.2860   21.5130  -26.1210 O   0  0  0  0  0  0  0  0  0  0  0  0
    0.8600   22.5080  -26.7310 O   0  0  0  0  0  0  0  0  0  0  0  0
   -1.3390   23.6520  -27.6670 N   0  0  0  0  0  0  0  0  0  0  0  0
   -1.0770   24.9690  -27.1550 C   0  0  0  0  0  0  0  0  0  0  0  0
   -0.7950   25.0900  -25.7850 C   0  0  0  0  0  0  0  0  0  0  0  0
   -0.5430   26.3440  -25.2180 C   0  0  0  0  0  0  0  0  0  0  0  0
   -0.5580   27.4890  -26.0160 C   0  0  0  0  0  0  0  0  0  0  0  0
   -0.8120   27.3800  -27.3850 C   0  0  0  0  0  0  0  0  0  0  0  0
   -1.0590   26.1290  -27.9640 C   0  0  0  0  0  0  0  0  0  0  0  0
   -1.2450   26.0600  -29.3380 O   0  0  0  0  0  0  0  0  0  0  0  0
   -0.3390   21.6150  -29.8990 C   0  0  0  0  0  0  0  0  0  0  0  0
   -2.2360   20.5270  -33.4930 C   0  0  0  0  0  0  0  0  0  0  0  0
   -3.2090   21.3240  -32.8570 C   0  0  0  0  0  0  0  0  0  0  0  0
   -4.5560   20.9350  -32.8360 C   0  0  0  0  0  0  0  0  0  0  0  0
   -5.7670   21.9680  -32.0710 S   0  0  0  0  0  0  0  0  0  0  0  0
   -6.8570   22.2710  -33.0620 O   0  0  0  0  0  0  0  0  0  0  0  0
   -6.3820   21.2310  -30.9140 O   0  0  0  0  0  0  0  0  0  0  0  0
   -5.0770   23.4710  -31.5080 N   0  0  0  0  0  0  0  0  0  0  0  0
   -6.1280   24.3730  -31.0170 C   0  0  0  0  0  0  0  0  0  0  0  0
   -5.5010   25.7070  -30.5560 C   0  0  0  0  0  0  0  0  0  0  0  0
   -4.0850   25.6590  -30.5380 O   0  0  0  0  0  0  0  0  0  0  0  0
   -3.6500   24.5450  -29.7860 C   0  0  0  0  0  0  0  0  0  0  0  0
   -4.0940   23.2190  -30.4410 C   0  0  0  0  0  0  0  0  0  0  0  0
   -4.9390   19.7350  -33.4440 C   0  0  0  0  0  0  0  0  0  0  0  0
   -3.9880   18.9300  -34.0700 C   0  0  0  0  0  0  0  0  0  0  0  0
   -2.6450   19.3150  -34.1020 C   0  0  0  0  0  0  0  0  0  0  0  0
   -1.7350   18.4890  -34.7540 O   0  0  0  0  0  0  0  0  0  0  0  0
   -0.2915   18.6961  -31.6810 H   0  0  0  0  0  0  0  0  0  0  0  0
   -0.5365   17.7610  -29.3803 H   0  0  0  0  0  0  0  0  0  0  0  0
   -0.6751   19.2891  -27.4129 H   0  0  0  0  0  0  0  0  0  0  0  0
   -0.7720   24.1909  -25.1517 H   0  0  0  0  0  0  0  0  0  0  0  0
   -0.3327   26.4277  -24.1415 H   0  0  0  0  0  0  0  0  0  0  0  0
   -0.3701   28.4756  -25.5674 H   0  0  0  0  0  0  0  0  0  0  0  0
   -0.8181   28.2832  -28.0129 H   0  0  0  0  0  0  0  0  0  0  0  0
   -0.2669   22.7034  -30.0414 H   0  0  0  0  0  0  0  0  0  0  0  0
   -2.9077   22.2635  -32.3707 H   0  0  0  0  0  0  0  0  0  0  0  0
   -6.8482   24.5683  -31.8252 H   0  0  0  0  0  0  0  0  0  0  0  0
   -6.6427   23.9013  -30.1670 H   0  0  0  0  0  0  0  0  0  0  0  0
   -5.8190   26.5037  -31.2446 H   0  0  0  0  0  0  0  0  0  0  0  0
   -5.8437   25.9022  -29.5291 H   0  0  0  0  0  0  0  0  0  0  0  0
   -2.5521   24.5628  -29.7213 H   0  0  0  0  0  0  0  0  0  0  0  0
   -4.0996   24.6052  -28.7839 H   0  0  0  0  0  0  0  0  0  0  0  0
   -3.2151   22.7161  -30.8707 H   0  0  0  0  0  0  0  0  0  0  0  0
   -4.5593   22.5830  -29.6735 H   0  0  0  0  0  0  0  0  0  0  0  0
   -5.9943   19.4252  -33.4283 H   0  0  0  0  0  0  0  0  0  0  0  0
   -4.2970   17.9856  -34.5418 H   0  0  0  0  0  0  0  0  0  0  0  0
  1  2  2  0
  2  3  1  0
  3  4  1  0
  4  5  2  0
  5  6  1  0
  6  7  2  0
  7  8  1  0
  8  9  1  0
  9 10  2  0
  9 11  2  0
  9 12  1  0
 12 13  1  0
 13 14  2  0
 14 15  1  0
 15 16  2  0
 16 17  1  0
 17 18  2  0
 18 19  1  0
  8 20  2  0
  2 21  1  0
 21 22  2  0
 22 23  1  0
 23 24  1  0
 24 25  2  0
 24 26  2  0
 24 27  1  0
 27 28  1  0
 28 29  1  0
 29 30  1  0
 30 31  1  0
 31 32  1  0
 23 33  2  0
 33 34  1  0
 34 35  2  0
 35 36  1  0
 20  4  1  0
 35 21  1  0
 18 13  1  0
 32 27  1  0
  5 37  1  0
  6 38  1  0
  7 39  1  0
 14 40  1  0
 15 41  1  0
 16 42  1  0
 17 43  1  0
 20 44  1  0
 22 45  1  0
 28 46  1  0
 28 47  1  0
 29 48  1  0
 29 49  1  0
 31 50  1  0
 31 51  1  0
 32 52  1  0
 32 53  1  0
 33 54  1  0
 34 55  1  0
M  CHG  4   3  -1  12  -1  19  -1  36  -1
M  END
>  <UniqueID>  (23) 
23

>  <SMILES>  (23) 
O=C([N-]c1cccc(S(=O)(=O)[N-]c2ccccc2[O-])c1)c1cc(S(=O)(=O)N2CCOCC2)ccc1[O-]

>  <Energy>  (23) 
79.40655567649875

>  <Genealogy>  (23) 
O=C([N-]c1cccc(S(=O)(=O)[N-]c2ccccc2[O-])c1)c1cc(S(=O)(=O)N2CCOCC2)ccc1[O-] (protonated)
O=C([N-]c1cccc(S(=O)(=O)[N-]c2ccccc2[O-])c1)c1cc(S(=O)(=O)N2CCOCC2)ccc1[O-] (3D coordinates assigned)
O=C([N-]c1cccc(S(=O)(=O)[N-]c2ccccc2[O-])c1)c1cc(S(=O)(=O)N2CCOCC2)ccc1[O-] (nonaromatic ring conformer: 79.40655567649875 kcal/mol)

>  <smiles>  (23) 
O=C(Nc1cccc(S(=O)(=O)Nc2ccccc2O)c1)c1cc(S(=O)(=O)N2CCOCC2)ccc1O

>  <score_type>  (23) 
oracle

>  <origin>  (23) 
adgpu

>  <m_score__min__energy>  (23) 
-15.65

>  <m_primary>  (23) 
energy

$$$$
23:0
     RDKit          3D

 62 65  0  0  0  0  0  0  0  0999 V2000
   -3.0860   20.8910  -27.4850 C   0  0  0  0  0  0  0  0  0  0  0  0
   -3.1310   21.7590  -28.6570 N   0  0  0  0  0  0  0  0  0  0  0  0
   -2.6540   21.2850  -29.9310 C   0  0  0  0  0  0  0  0  0  0  0  0
   -1.2850   21.3130  -30.2360 C   0  0  0  0  0  0  0  0  0  0  0  0
   -0.8280   20.8680  -31.4780 C   0  0  0  0  0  0  0  0  0  0  0  0
   -1.7310   20.3920  -32.4300 C   0  0  0  0  0  0  0  0  0  0  0  0
   -3.1080   20.3620  -32.1510 C   0  0  0  0  0  0  0  0  0  0  0  0
   -4.0650   19.8350  -33.1550 C   0  0  0  0  0  0  0  0  0  0  0  0
   -4.8460   20.6220  -33.7560 O   0  0  0  0  0  0  0  0  0  0  0  0
   -4.1130   18.4370  -33.4660 N   0  0  0  0  0  0  0  0  0  0  0  0
   -3.5180   17.9900  -34.7310 C   0  0  0  0  0  0  0  0  0  0  0  0
   -3.8520   16.5280  -35.0390 C   0  0  0  0  0  0  0  0  0  0  0  0
   -3.7620   15.7320  -33.8770 O   0  0  0  0  0  0  0  0  0  0  0  0
   -4.7980   16.0960  -32.9900 C   0  0  0  0  0  0  0  0  0  0  0  0
   -4.5620   17.4980  -32.4280 C   0  0  0  0  0  0  0  0  0  0  0  0
   -3.5600   20.8120  -30.8980 C   0  0  0  0  0  0  0  0  0  0  0  0
   -3.7940   23.3610  -28.4960 S   0  0  0  0  0  0  0  0  0  0  0  0
   -2.6890   24.3690  -28.6200 O   0  0  0  0  0  0  0  0  0  0  0  0
   -4.4150   23.4870  -27.1340 O   0  0  0  0  0  0  0  0  0  0  0  0
   -5.0190   23.6720  -29.7320 C   0  0  0  0  0  0  0  0  0  0  0  0
   -6.1160   22.8030  -29.8440 C   0  0  0  0  0  0  0  0  0  0  0  0
   -7.1080   23.0210  -30.8080 C   0  0  0  0  0  0  0  0  0  0  0  0
   -8.4820   21.9180  -30.9310 S   0  0  0  0  0  0  0  0  0  0  0  0
   -9.4690   22.4670  -31.9250 O   0  0  0  0  0  0  0  0  0  0  0  0
   -9.1670   21.8330  -29.5940 O   0  0  0  0  0  0  0  0  0  0  0  0
   -7.9900   20.3200  -31.4320 N   0  0  0  0  0  0  0  0  0  0  0  0
   -9.0830   19.3540  -31.2240 C   0  0  0  0  0  0  0  0  0  0  0  0
   -8.7190   17.9850  -31.8320 C   0  0  0  0  0  0  0  0  0  0  0  0
   -7.3650   17.9510  -32.2470 O   0  0  0  0  0  0  0  0  0  0  0  0
   -7.1530   18.9040  -33.2740 C   0  0  0  0  0  0  0  0  0  0  0  0
   -7.5790   20.3250  -32.8440 C   0  0  0  0  0  0  0  0  0  0  0  0
   -7.0050   24.1190  -31.6690 C   0  0  0  0  0  0  0  0  0  0  0  0
   -5.9170   24.9880  -31.5710 C   0  0  0  0  0  0  0  0  0  0  0  0
   -4.9200   24.7750  -30.6130 C   0  0  0  0  0  0  0  0  0  0  0  0
   -3.8540   25.6760  -30.5670 O   0  0  0  0  0  0  0  0  0  0  0  0
   -3.1178   21.5048  -26.5727 H   0  0  0  0  0  0  0  0  0  0  0  0
   -3.9501   20.2104  -27.4994 H   0  0  0  0  0  0  0  0  0  0  0  0
   -2.1562   20.3034  -27.4994 H   0  0  0  0  0  0  0  0  0  0  0  0
   -0.5669   21.6880  -29.4918 H   0  0  0  0  0  0  0  0  0  0  0  0
    0.2476   20.8926  -31.7071 H   0  0  0  0  0  0  0  0  0  0  0  0
   -1.3626   20.0383  -33.4043 H   0  0  0  0  0  0  0  0  0  0  0  0
   -3.9019   18.6210  -35.5462 H   0  0  0  0  0  0  0  0  0  0  0  0
   -2.4251   18.0763  -34.6407 H   0  0  0  0  0  0  0  0  0  0  0  0
   -4.8759   16.4692  -35.4367 H   0  0  0  0  0  0  0  0  0  0  0  0
   -3.1289   16.1519  -35.7778 H   0  0  0  0  0  0  0  0  0  0  0  0
   -5.7568   16.0799  -33.5289 H   0  0  0  0  0  0  0  0  0  0  0  0
   -4.8165   15.3795  -32.1556 H   0  0  0  0  0  0  0  0  0  0  0  0
   -5.5020   17.8701  -31.9946 H   0  0  0  0  0  0  0  0  0  0  0  0
   -3.7724   17.4306  -31.6651 H   0  0  0  0  0  0  0  0  0  0  0  0
   -4.6361   20.7940  -30.6707 H   0  0  0  0  0  0  0  0  0  0  0  0
   -6.1972   21.9404  -29.1663 H   0  0  0  0  0  0  0  0  0  0  0  0
   -9.2600   19.2349  -30.1449 H   0  0  0  0  0  0  0  0  0  0  0  0
   -9.9899   19.7322  -31.7184 H   0  0  0  0  0  0  0  0  0  0  0  0
   -8.8822   17.2023  -31.0765 H   0  0  0  0  0  0  0  0  0  0  0  0
   -9.3567   17.8147  -32.7119 H   0  0  0  0  0  0  0  0  0  0  0  0
   -6.0835   18.9167  -33.5310 H   0  0  0  0  0  0  0  0  0  0  0  0
   -7.7675   18.6129  -34.1387 H   0  0  0  0  0  0  0  0  0  0  0  0
   -6.7320   21.0146  -32.9746 H   0  0  0  0  0  0  0  0  0  0  0  0
   -8.4253   20.6524  -33.4658 H   0  0  0  0  0  0  0  0  0  0  0  0
   -7.7835   24.2980  -32.4252 H   0  0  0  0  0  0  0  0  0  0  0  0
   -5.8429   25.8478  -32.2530 H   0  0  0  0  0  0  0  0  0  0  0  0
   -3.4970   26.0720  -29.7090 H   0  0  0  0  0  0  0  0  0  0  0  0
  1  2  1  0
  2  3  1  0
  3  4  2  0
  4  5  1  0
  5  6  2  0
  6  7  1  0
  7  8  1  0
  8  9  2  0
  8 10  1  0
 10 11  1  0
 11 12  1  0
 12 13  1  0
 13 14  1  0
 14 15  1  0
  7 16  2  0
  2 17  1  0
 17 18  2  0
 17 19  2  0
 17 20  1  0
 20 21  2  0
 21 22  1  0
 22 23  1  0
 23 24  2  0
 23 25  2  0
 23 26  1  0
 26 27  1  0
 27 28  1  0
 28 29  1  0
 29 30  1  0
 30 31  1  0
 22 32  2  0
 32 33  1  0
 33 34  2  0
 34 35  1  0
 16  3  1  0
 34 20  1  0
 15 10  1  0
 31 26  1  0
  1 36  1  0
  1 37  1  0
  1 38  1  0
  4 39  1  0
  5 40  1  0
  6 41  1  0
 11 42  1  0
 11 43  1  0
 12 44  1  0
 12 45  1  0
 14 46  1  0
 14 47  1  0
 15 48  1  0
 15 49  1  0
 16 50  1  0
 21 51  1  0
 27 52  1  0
 27 53  1  0
 28 54  1  0
 28 55  1  0
 30 56  1  0
 30 57  1  0
 31 58  1  0
 31 59  1  0
 32 60  1  0
 33 61  1  0
 35 62  1  0
M  END
>  <UniqueID>  (24) 
24

>  <SMILES>  (24) 
CN(c1cccc(C(=O)N2CCOCC2)c1)S(=O)(=O)c1cc(S(=O)(=O)N2CCOCC2)ccc1O

>  <Energy>  (24) 
84.56197133961655

>  <Genealogy>  (24) 
CN(c1cccc(C(=O)N2CCOCC2)c1)S(=O)(=O)c1cc(S(=O)(=O)N2CCOCC2)ccc1O (3D coordinates assigned)
CN(c1cccc(C(=O)N2CCOCC2)c1)S(=O)(=O)c1cc(S(=O)(=O)N2CCOCC2)ccc1O (nonaromatic ring conformer: 84.56197133961655 kcal/mol)

>  <smiles>  (24) 
CN(c1cccc(C(=O)N2CCOCC2)c1)S(=O)(=O)c1cc(S(=O)(=O)N2CCOCC2)ccc1O

>  <score_type>  (24) 
oracle

>  <origin>  (24) 
adgpu

>  <m_score__min__energy>  (24) 
-12.06

>  <m_primary>  (24) 
energy

$$$$
24:0
     RDKit          3D

 59 62  0  0  0  0  0  0  0  0999 V2000
   -5.8180   16.5600  -32.4010 O   0  0  0  0  0  0  0  0  0  0  0  0
   -5.3080   17.2080  -33.3550 C   0  0  0  0  0  0  0  0  0  0  0  0
   -4.1990   16.6710  -34.0870 N   0  0  0  0  0  0  0  0  0  0  0  0
   -2.8070   16.9090  -33.8310 C   0  0  0  0  0  0  0  0  0  0  0  0
   -1.9350   15.8810  -33.4300 C   0  0  0  0  0  0  0  0  0  0  0  0
   -0.5800   16.1520  -33.2160 C   0  0  0  0  0  0  0  0  0  0  0  0
   -0.0830   17.4440  -33.4080 C   0  0  0  0  0  0  0  0  0  0  0  0
   -0.9400   18.4700  -33.8280 C   0  0  0  0  0  0  0  0  0  0  0  0
   -0.3340   20.1050  -34.0840 S   0  0  0  0  0  0  0  0  0  0  0  0
    1.0790   20.2180  -33.5790 O   0  0  0  0  0  0  0  0  0  0  0  0
   -0.3500   20.3970  -35.5590 O   0  0  0  0  0  0  0  0  0  0  0  0
   -1.3500   21.2530  -33.2440 N   0  0  0  0  0  0  0  0  0  0  0  0
   -2.7280   21.1870  -33.7700 C   0  0  0  0  0  0  0  0  0  0  0  0
   -3.7270   21.7560  -32.7490 C   0  0  0  0  0  0  0  0  0  0  0  0
   -3.7400   21.0690  -31.5040 O   0  0  0  0  0  0  0  0  0  0  0  0
   -2.5420   20.3580  -31.2280 C   0  0  0  0  0  0  0  0  0  0  0  0
   -1.2820   21.0530  -31.7780 C   0  0  0  0  0  0  0  0  0  0  0  0
   -2.2950   18.1940  -34.0490 C   0  0  0  0  0  0  0  0  0  0  0  0
   -5.8240   18.4960  -33.7170 N   0  0  0  0  0  0  0  0  0  0  0  0
   -6.7390   19.2560  -32.9130 C   0  0  0  0  0  0  0  0  0  0  0  0
   -7.8330   18.6090  -32.3160 C   0  0  0  0  0  0  0  0  0  0  0  0
   -8.7560   19.3320  -31.5560 C   0  0  0  0  0  0  0  0  0  0  0  0
   -8.6050   20.7110  -31.3990 C   0  0  0  0  0  0  0  0  0  0  0  0
   -7.5290   21.3760  -32.0020 C   0  0  0  0  0  0  0  0  0  0  0  0
   -7.3750   23.1230  -31.8290 S   0  0  0  0  0  0  0  0  0  0  0  0
   -8.6640   23.7860  -32.2320 O   0  0  0  0  0  0  0  0  0  0  0  0
   -6.2850   23.5970  -32.7490 O   0  0  0  0  0  0  0  0  0  0  0  0
   -6.9750   23.5040  -30.1670 N   0  0  0  0  0  0  0  0  0  0  0  0
   -7.0530   24.9570  -29.8970 C   0  0  0  0  0  0  0  0  0  0  0  0
   -5.6750   25.6440  -29.9330 C   0  0  0  0  0  0  0  0  0  0  0  0
   -4.8310   25.0010  -30.8620 O   0  0  0  0  0  0  0  0  0  0  0  0
   -4.4870   23.7060  -30.3980 C   0  0  0  0  0  0  0  0  0  0  0  0
   -5.6740   22.9330  -29.7760 C   0  0  0  0  0  0  0  0  0  0  0  0
   -6.6040   20.6490  -32.7650 C   0  0  0  0  0  0  0  0  0  0  0  0
   -2.3200   14.8609  -33.2843 H   0  0  0  0  0  0  0  0  0  0  0  0
    0.0966   15.3460  -32.8956 H   0  0  0  0  0  0  0  0  0  0  0  0
    0.9816   17.6556  -33.2293 H   0  0  0  0  0  0  0  0  0  0  0  0
   -2.7883   21.7726  -34.6992 H   0  0  0  0  0  0  0  0  0  0  0  0
   -2.9822   20.1347  -33.9650 H   0  0  0  0  0  0  0  0  0  0  0  0
   -3.4666   22.8079  -32.5603 H   0  0  0  0  0  0  0  0  0  0  0  0
   -4.7293   21.6382  -33.1866 H   0  0  0  0  0  0  0  0  0  0  0  0
   -2.4382   20.2584  -30.1375 H   0  0  0  0  0  0  0  0  0  0  0  0
   -2.6200   19.3809  -31.7272 H   0  0  0  0  0  0  0  0  0  0  0  0
   -1.1768   22.0337  -31.2909 H   0  0  0  0  0  0  0  0  0  0  0  0
   -0.4183   20.4061  -31.5645 H   0  0  0  0  0  0  0  0  0  0  0  0
   -2.9639   18.9947  -34.3974 H   0  0  0  0  0  0  0  0  0  0  0  0
   -5.5830   18.8570  -34.6680 H   0  0  0  0  0  0  0  0  0  0  0  0
   -7.9643   17.5248  -32.4477 H   0  0  0  0  0  0  0  0  0  0  0  0
   -9.6023   18.8142  -31.0810 H   0  0  0  0  0  0  0  0  0  0  0  0
   -9.3332   21.2774  -30.7999 H   0  0  0  0  0  0  0  0  0  0  0  0
   -7.6978   25.4219  -30.6573 H   0  0  0  0  0  0  0  0  0  0  0  0
   -7.4611   25.0848  -28.8835 H   0  0  0  0  0  0  0  0  0  0  0  0
   -5.8020   26.6966  -30.2262 H   0  0  0  0  0  0  0  0  0  0  0  0
   -5.2190   25.5832  -28.9338 H   0  0  0  0  0  0  0  0  0  0  0  0
   -4.1004   23.1239  -31.2476 H   0  0  0  0  0  0  0  0  0  0  0  0
   -3.7373   23.8375  -29.6038 H   0  0  0  0  0  0  0  0  0  0  0  0
   -5.6307   21.8866  -30.1123 H   0  0  0  0  0  0  0  0  0  0  0  0
   -5.5882   23.0051  -28.6817 H   0  0  0  0  0  0  0  0  0  0  0  0
   -5.7669   21.1712  -33.2513 H   0  0  0  0  0  0  0  0  0  0  0  0
  1  2  2  0
  2  3  1  0
  3  4  1  0
  4  5  2  0
  5  6  1  0
  6  7  2  0
  7  8  1  0
  8  9  1  0
  9 10  2  0
  9 11  2  0
  9 12  1  0
 12 13  1  0
 13 14  1  0
 14 15  1  0
 15 16  1  0
 16 17  1  0
  8 18  2  0
  2 19  1  0
 19 20  1  0
 20 21  2  0
 21 22  1  0
 22 23  2  0
 23 24  1  0
 24 25  1  0
 25 26  2  0
 25 27  2  0
 25 28  1  0
 28 29  1  0
 29 30  1  0
 30 31  1  0
 31 32  1  0
 32 33  1  0
 24 34  2  0
 18  4  1  0
 34 20  1  0
 17 12  1  0
 33 28  1  0
  5 35  1  0
  6 36  1  0
  7 37  1  0
 13 38  1  0
 13 39  1  0
 14 40  1  0
 14 41  1  0
 16 42  1  0
 16 43  1  0
 17 44  1  0
 17 45  1  0
 18 46  1  0
 19 47  1  0
 21 48  1  0
 22 49  1  0
 23 50  1  0
 29 51  1  0
 29 52  1  0
 30 53  1  0
 30 54  1  0
 32 55  1  0
 32 56  1  0
 33 57  1  0
 33 58  1  0
 34 59  1  0
M  CHG  1   3  -1
M  END
>  <UniqueID>  (25) 
25

>  <SMILES>  (25) 
O=C([N-]c1cccc(S(=O)(=O)N2CCOCC2)c1)Nc1cccc(S(=O)(=O)N2CCOCC2)c1

>  <Energy>  (25) 
90.95121533119205

>  <Genealogy>  (25) 
O=C([N-]c1cccc(S(=O)(=O)N2CCOCC2)c1)Nc1cccc(S(=O)(=O)N2CCOCC2)c1 (protonated)
O=C([N-]c1cccc(S(=O)(=O)N2CCOCC2)c1)Nc1cccc(S(=O)(=O)N2CCOCC2)c1 (3D coordinates assigned)
O=C([N-]c1cccc(S(=O)(=O)N2CCOCC2)c1)Nc1cccc(S(=O)(=O)N2CCOCC2)c1 (nonaromatic ring conformer: 90.95121533119205 kcal/mol)

>  <smiles>  (25) 
O=C(Nc1cccc(S(=O)(=O)N2CCOCC2)c1)Nc1cccc(S(=O)(=O)N2CCOCC2)c1

>  <score_type>  (25) 
oracle

>  <origin>  (25) 
adgpu

>  <m_score__min__energy>  (25) 
-11.75

>  <m_primary>  (25) 
energy

$$$$
25:0
     RDKit          3D

 73 78  0  0  0  0  0  0  0  0999 V2000
   -3.1670   19.6810  -27.0220 C   0  0  0  0  0  0  0  0  0  0  0  0
   -1.6990   20.1280  -27.2210 C   0  0  0  0  0  0  0  0  0  0  0  0
   -0.8010   18.8810  -27.3970 C   0  0  0  0  0  0  0  0  0  0  0  0
   -1.2410   20.8530  -25.9290 C   0  0  0  0  0  0  0  0  0  0  0  0
   -1.6030   21.0190  -28.4800 C   0  0  0  0  0  0  0  0  0  0  0  0
   -1.1850   20.4550  -29.7080 C   0  0  0  0  0  0  0  0  0  0  0  0
   -1.1150   21.2280  -30.8690 C   0  0  0  0  0  0  0  0  0  0  0  0
   -1.4890   22.5700  -30.8440 C   0  0  0  0  0  0  0  0  0  0  0  0
   -1.9430   23.1520  -29.6530 C   0  0  0  0  0  0  0  0  0  0  0  0
   -2.4070   24.5600  -29.6450 C   0  0  0  0  0  0  0  0  0  0  0  0
   -1.8520   25.3840  -28.8720 O   0  0  0  0  0  0  0  0  0  0  0  0
   -3.5050   25.0110  -30.4540 N   0  0  0  0  0  0  0  0  0  0  0  0
   -4.7920   24.3900  -30.5740 C   0  0  0  0  0  0  0  0  0  0  0  0
   -5.8640   24.8970  -29.8310 C   0  0  0  0  0  0  0  0  0  0  0  0
   -7.1150   24.2810  -29.8870 C   0  0  0  0  0  0  0  0  0  0  0  0
   -7.3110   23.1610  -30.7000 C   0  0  0  0  0  0  0  0  0  0  0  0
   -6.2610   22.6700  -31.4920 C   0  0  0  0  0  0  0  0  0  0  0  0
   -6.4770   21.4740  -32.3360 C   0  0  0  0  0  0  0  0  0  0  0  0
   -7.7020   21.0360  -32.7080 N   0  0  0  0  0  0  0  0  0  0  0  0
   -7.5530   19.9320  -33.4290 N   0  0  0  0  0  0  0  0  0  0  0  0
   -6.2440   19.6610  -33.5290 C   0  0  0  0  0  0  0  0  0  0  0  0
   -5.6360   18.6110  -34.2070 C   0  0  0  0  0  0  0  0  0  0  0  0
   -4.2320   18.5450  -34.1890 C   0  0  0  0  0  0  0  0  0  0  0  0
   -3.4640   19.5210  -33.4930 C   0  0  0  0  0  0  0  0  0  0  0  0
   -1.9750   19.4250  -33.4470 C   0  0  0  0  0  0  0  0  0  0  0  0
   -1.1840   20.0940  -34.4000 C   0  0  0  0  0  0  0  0  0  0  0  0
    0.2090   19.9660  -34.3830 C   0  0  0  0  0  0  0  0  0  0  0  0
    0.8320   19.1540  -33.4320 C   0  0  0  0  0  0  0  0  0  0  0  0
    2.1830   19.0250  -33.4460 F   0  0  0  0  0  0  0  0  0  0  0  0
    0.0630   18.4820  -32.4710 C   0  0  0  0  0  0  0  0  0  0  0  0
    0.6830   17.5780  -31.5400 N   0  0  0  0  0  0  0  0  0  0  0  0
    0.3630   16.1490  -31.6700 C   0  0  0  0  0  0  0  0  0  0  0  0
    0.8470   15.3340  -30.4670 C   0  0  0  0  0  0  0  0  0  0  0  0
    0.7050   16.0850  -29.2800 O   0  0  0  0  0  0  0  0  0  0  0  0
    1.6770   17.1110  -29.2790 C   0  0  0  0  0  0  0  0  0  0  0  0
    1.4310   18.1400  -30.4010 C   0  0  0  0  0  0  0  0  0  0  0  0
   -1.3340   18.6250  -32.4790 C   0  0  0  0  0  0  0  0  0  0  0  0
   -4.1320   20.5810  -32.8280 C   0  0  0  0  0  0  0  0  0  0  0  0
   -5.5260   20.6040  -32.8540 C   0  0  0  0  0  0  0  0  0  0  0  0
   -5.0040   23.2920  -31.4270 C   0  0  0  0  0  0  0  0  0  0  0  0
   -1.9560   22.3880  -28.4740 C   0  0  0  0  0  0  0  0  0  0  0  0
   -3.3873   19.6139  -25.9464 H   0  0  0  0  0  0  0  0  0  0  0  0
   -3.8403   20.4149  -27.4891 H   0  0  0  0  0  0  0  0  0  0  0  0
   -3.3170   18.6965  -27.4891 H   0  0  0  0  0  0  0  0  0  0  0  0
   -0.5192   18.4896  -26.4084 H   0  0  0  0  0  0  0  0  0  0  0  0
   -1.3514   18.1084  -27.9539 H   0  0  0  0  0  0  0  0  0  0  0  0
    0.1062   19.1581  -27.9539 H   0  0  0  0  0  0  0  0  0  0  0  0
   -1.5942   20.2939  -25.0500 H   0  0  0  0  0  0  0  0  0  0  0  0
   -0.1426   20.9100  -25.9103 H   0  0  0  0  0  0  0  0  0  0  0  0
   -1.6613   21.8694  -25.9103 H   0  0  0  0  0  0  0  0  0  0  0  0
   -0.9107   19.3905  -29.7492 H   0  0  0  0  0  0  0  0  0  0  0  0
   -0.7629   20.7753  -31.8077 H   0  0  0  0  0  0  0  0  0  0  0  0
   -1.4277   23.1739  -31.7613 H   0  0  0  0  0  0  0  0  0  0  0  0
   -5.7198   25.7859  -29.1994 H   0  0  0  0  0  0  0  0  0  0  0  0
   -7.9491   24.6779  -29.2897 H   0  0  0  0  0  0  0  0  0  0  0  0
   -8.2914   22.6626  -30.7193 H   0  0  0  0  0  0  0  0  0  0  0  0
   -8.3410   19.3800  -33.8360 H   0  0  0  0  0  0  0  0  0  0  0  0
   -6.2336   17.8568  -34.7399 H   0  0  0  0  0  0  0  0  0  0  0  0
   -3.7201   17.7287  -34.7196 H   0  0  0  0  0  0  0  0  0  0  0  0
   -1.6650   20.7224  -35.1641 H   0  0  0  0  0  0  0  0  0  0  0  0
    0.8171   20.5077  -35.1225 H   0  0  0  0  0  0  0  0  0  0  0  0
   -0.7278   16.0371  -31.7575 H   0  0  0  0  0  0  0  0  0  0  0  0
    0.8784   15.7684  -32.5641 H   0  0  0  0  0  0  0  0  0  0  0  0
    0.2501   14.4134  -30.3880 H   0  0  0  0  0  0  0  0  0  0  0  0
    1.9086   15.0826  -30.6077 H   0  0  0  0  0  0  0  0  0  0  0  0
    1.6460   17.6288  -28.3090 H   0  0  0  0  0  0  0  0  0  0  0  0
    2.6600   16.6484  -29.4514 H   0  0  0  0  0  0  0  0  0  0  0  0
    0.8578   18.9820  -29.9857 H   0  0  0  0  0  0  0  0  0  0  0  0
    2.4139   18.4602  -30.7770 H   0  0  0  0  0  0  0  0  0  0  0  0
   -1.9366   18.1056  -31.7194 H   0  0  0  0  0  0  0  0  0  0  0  0
   -3.5647   21.3650  -32.3050 H   0  0  0  0  0  0  0  0  0  0  0  0
   -4.1776   22.9172  -32.0488 H   0  0  0  0  0  0  0  0  0  0  0  0
   -2.2469   22.8650  -27.5264 H   0  0  0  0  0  0  0  0  0  0  0  0
  1  2  1  0
  2  3  1  0
  2  4  1  0
  2  5  1  0
  5  6  2  0
  6  7  1  0
  7  8  2  0
  8  9  1  0
  9 10  1  0
 10 11  2  0
 10 12  1  0
 12 13  1  0
 13 14  2  0
 14 15  1  0
 15 16  2  0
 16 17  1  0
 17 18  1  0
 18 19  2  0
 19 20  1  0
 20 21  1  0
 21 22  2  0
 22 23  1  0
 23 24  2  0
 24 25  1  0
 25 26  2  0
 26 27  1  0
 27 28  2  0
 28 29  1  0
 28 30  1  0
 30 31  1  0
 31 32  1  0
 32 33  1  0
 33 34  1  0
 34 35  1  0
 35 36  1  0
 30 37  2  0
 24 38  1  0
 38 39  2  0
 17 40  2  0
  9 41  2  0
 41  5  1  0
 40 13  1  0
 39 18  1  0
 39 21  1  0
 37 25  1  0
 36 31  1  0
  1 42  1  0
  1 43  1  0
  1 44  1  0
  3 45  1  0
  3 46  1  0
  3 47  1  0
  4 48  1  0
  4 49  1  0
  4 50  1  0
  6 51  1  0
  7 52  1  0
  8 53  1  0
 14 54  1  0
 15 55  1  0
 16 56  1  0
 20 57  1  0
 22 58  1  0
 23 59  1  0
 26 60  1  0
 27 61  1  0
 32 62  1  0
 32 63  1  0
 33 64  1  0
 33 65  1  0
 35 66  1  0
 35 67  1  0
 36 68  1  0
 36 69  1  0
 37 70  1  0
 38 71  1  0
 40 72  1  0
 41 73  1  0
M  CHG  1  12  -1
M  END
>  <UniqueID>  (26) 
26

>  <SMILES>  (26) 
CC(C)(C)c1cccc(C(=O)[N-]c2cccc(-c3n[nH]c4ccc(-c5ccc(F)c(N6CCOCC6)c5)cc34)c2)c1

>  <Energy>  (26) 
144.05251069998957

>  <Genealogy>  (26) 
CC(C)(C)c1cccc(C(=O)[N-]c2cccc(-c3n[nH]c4ccc(-c5ccc(F)c(N6CCOCC6)c5)cc34)c2)c1 (protonated)
CC(C)(C)c1cccc(C(=O)[N-]c2cccc(-c3n[nH]c4ccc(-c5ccc(F)c(N6CCOCC6)c5)cc34)c2)c1 (3D coordinates assigned)
CC(C)(C)c1cccc(C(=O)[N-]c2cccc(-c3n[nH]c4ccc(-c5ccc(F)c(N6CCOCC6)c5)cc34)c2)c1 (nonaromatic ring conformer: 144.05251069998957 kcal/mol)

>  <smiles>  (26) 
CC(C)(C)c1cccc(C(=O)Nc2cccc(-c3n[nH]c4ccc(-c5ccc(F)c(N6CCOCC6)c5)cc34)c2)c1

>  <score_type>  (26) 
oracle

>  <origin>  (26) 
adgpu

>  <m_score__min__energy>  (26) 
-14.35

>  <m_primary>  (26) 
energy

$$$$
26:0
     RDKit          3D

 67 70  0  0  1  0  0  0  0  0999 V2000
   -9.3820   22.6950  -31.9710 C   0  0  0  0  0  0  0  0  0  0  0  0
   -7.9210   22.5810  -31.8480 C   0  0  0  0  0  0  0  0  0  0  0  0
   -7.1700   21.5720  -32.4210 C   0  0  0  0  0  0  0  0  0  0  0  0
   -5.8020   21.5130  -32.2780 C   0  0  0  0  0  0  0  0  0  0  0  0
   -4.9630   20.4860  -32.8570 C   0  0  0  0  0  0  0  0  0  0  0  0
   -5.5210   19.2590  -33.1500 C   0  0  0  0  0  0  0  0  0  0  0  0
   -4.7740   18.2190  -33.6950 C   0  0  0  0  0  0  0  0  0  0  0  0
   -3.4240   18.3660  -33.9710 C   0  0  0  0  0  0  0  0  0  0  0  0
   -2.6850   17.2360  -34.5530 C   0  0  2  0  0  0  0  0  0  0  0  0
   -3.4890   16.4580  -35.5510 C   0  0  0  0  0  0  0  0  0  0  0  0
   -1.9870   16.4210  -33.5850 N   0  0  0  0  0  0  0  0  0  0  0  0
   -1.0310   16.7960  -32.8320 C   0  0  0  0  0  0  0  0  0  0  0  0
   -0.6070   18.0580  -32.9190 N   0  0  0  0  0  0  0  0  0  0  0  0
    0.3910   18.4570  -32.1180 C   0  0  0  0  0  0  0  0  0  0  0  0
    0.8530   19.8680  -32.2340 C   0  0  0  0  0  0  0  0  0  0  0  0
    0.9760   17.6330  -31.2320 N   0  0  0  0  0  0  0  0  0  0  0  0
    0.5950   16.3280  -31.0850 C   0  0  0  0  0  0  0  0  0  0  0  0
    1.2390   15.5350  -30.1210 N   0  0  0  0  0  0  0  0  0  0  0  0
    1.9460   14.3160  -30.2960 C   0  0  0  0  0  0  0  0  0  0  0  0
    3.2420   14.4060  -29.4930 C   0  0  0  0  0  0  0  0  0  0  0  0
    2.8370   14.3210  -28.0320 C   0  0  0  0  0  0  0  0  0  0  0  0
    1.4180   14.8300  -27.8410 C   0  0  0  0  0  0  0  0  0  0  0  0
    1.1490   16.0250  -28.7230 C   0  0  0  0  0  0  0  0  0  0  0  0
   -0.4280   15.9250  -31.9100 C   0  0  0  0  0  0  0  0  0  0  0  0
   -0.9370   14.6250  -31.8700 N   0  0  0  0  0  0  0  0  0  0  0  0
   -2.8670   19.5910  -33.6790 C   0  0  0  0  0  0  0  0  0  0  0  0
   -3.6210   20.6360  -33.1310 C   0  0  0  0  0  0  0  0  0  0  0  0
   -5.2000   22.5090  -31.5340 C   0  0  0  0  0  0  0  0  0  0  0  0
   -5.9000   23.5400  -30.9410 C   0  0  0  0  0  0  0  0  0  0  0  0
   -5.0980   24.7910  -30.0230 S   0  0  0  0  0  0  0  0  0  0  0  0
   -4.5830   24.2580  -28.4280 C   0  0  0  0  0  0  0  0  0  0  0  0
   -3.9210   25.3030  -30.8440 O   0  0  0  0  0  0  0  0  0  0  0  0
   -6.0690   25.9620  -29.9230 O   0  0  0  0  0  0  0  0  0  0  0  0
   -7.2740   23.5690  -31.1030 C   0  0  0  0  0  0  0  0  0  0  0  0
   -9.8328   22.7302  -30.9682 H   0  0  0  0  0  0  0  0  0  0  0  0
   -9.6332   23.6155  -32.5184 H   0  0  0  0  0  0  0  0  0  0  0  0
   -9.7729   21.8246  -32.5184 H   0  0  0  0  0  0  0  0  0  0  0  0
   -7.6799   20.7939  -33.0080 H   0  0  0  0  0  0  0  0  0  0  0  0
   -6.5899   19.0975  -32.9465 H   0  0  0  0  0  0  0  0  0  0  0  0
   -5.2659   17.2592  -33.9114 H   0  0  0  0  0  0  0  0  0  0  0  0
   -1.8735   17.6949  -35.1369 H   0  0  0  0  0  0  0  0  0  0  0  0
   -4.1817   15.7877  -35.0212 H   0  0  0  0  0  0  0  0  0  0  0  0
   -4.0621   17.1532  -36.1820 H   0  0  0  0  0  0  0  0  0  0  0  0
   -2.8130   15.8623  -36.1820 H   0  0  0  0  0  0  0  0  0  0  0  0
    0.9919   20.2922  -31.2286 H   0  0  0  0  0  0  0  0  0  0  0  0
    1.8077   19.8975  -32.7795 H   0  0  0  0  0  0  0  0  0  0  0  0
    0.1006   20.4565  -32.7795 H   0  0  0  0  0  0  0  0  0  0  0  0
    1.7470   18.0500  -30.6590 H   0  0  0  0  0  0  0  0  0  0  0  0
    1.3377   13.4753  -29.9310 H   0  0  0  0  0  0  0  0  0  0  0  0
    2.1657   14.1497  -31.3609 H   0  0  0  0  0  0  0  0  0  0  0  0
    3.9112   13.5726  -29.7530 H   0  0  0  0  0  0  0  0  0  0  0  0
    3.7840   15.3390  -29.7068 H   0  0  0  0  0  0  0  0  0  0  0  0
    2.8930   13.2733  -27.7015 H   0  0  0  0  0  0  0  0  0  0  0  0
    3.5209   14.9442  -27.4371 H   0  0  0  0  0  0  0  0  0  0  0  0
    0.7104   14.0275  -28.0968 H   0  0  0  0  0  0  0  0  0  0  0  0
    1.2928   15.1338  -26.7912 H   0  0  0  0  0  0  0  0  0  0  0  0
    0.1450   16.4279  -28.5238 H   0  0  0  0  0  0  0  0  0  0  0  0
    1.8703   16.8337  -28.5340 H   0  0  0  0  0  0  0  0  0  0  0  0
   -0.5330   13.9430  -31.1810 H   0  0  0  0  0  0  0  0  0  0  0  0
   -1.7130   14.3700  -32.5340 H   0  0  0  0  0  0  0  0  0  0  0  0
   -1.7982   19.7535  -33.8822 H   0  0  0  0  0  0  0  0  0  0  0  0
   -3.1315   21.5971  -32.9147 H   0  0  0  0  0  0  0  0  0  0  0  0
   -4.1077   22.4789  -31.4078 H   0  0  0  0  0  0  0  0  0  0  0  0
   -5.1292   24.8232  -27.6585 H   0  0  0  0  0  0  0  0  0  0  0  0
   -4.7948   23.1846  -28.3140 H   0  0  0  0  0  0  0  0  0  0  0  0
   -3.5030   24.4328  -28.3140 H   0  0  0  0  0  0  0  0  0  0  0  0
   -7.8610   24.3766  -30.6413 H   0  0  0  0  0  0  0  0  0  0  0  0
  1  2  1  0
  2  3  2  0
  3  4  1  0
  4  5  1  0
  5  6  2  0
  6  7  1  0
  7  8  2  0
  8  9  1  0
  9 10  1  0
  9 11  1  0
 11 12  2  0
 12 13  1  0
 13 14  2  0
 14 15  1  0
 14 16  1  0
 16 17  1  0
 17 18  1  0
 18 19  1  0
 19 20  1  0
 20 21  1  0
 21 22  1  0
 22 23  1  0
 17 24  2  0
 24 25  1  0
  8 26  1  0
 26 27  2  0
  4 28  2  0
 28 29  1  0
 29 30  1  0
 30 31  1  0
 30 32  2  0
 30 33  2  0
 29 34  2  0
 34  2  1  0
 27  5  1  0
 24 12  1  0
 23 18  1  0
  1 35  1  0
  1 36  1  0
  1 37  1  0
  3 38  1  0
  6 39  1  0
  7 40  1  0
  9 41  1  6
 10 42  1  0
 10 43  1  0
 10 44  1  0
 15 45  1  0
 15 46  1  0
 15 47  1  0
 16 48  1  0
 19 49  1  0
 19 50  1  0
 20 51  1  0
 20 52  1  0
 21 53  1  0
 21 54  1  0
 22 55  1  0
 22 56  1  0
 23 57  1  0
 23 58  1  0
 25 59  1  0
 25 60  1  0
 26 61  1  0
 27 62  1  0
 28 63  1  0
 31 64  1  0
 31 65  1  0
 31 66  1  0
 34 67  1  0
M  END
>  <smiles>  (27) 
Cc1cc(-c2ccc(C(C)N=c3nc(C)[nH]c(N4CCCCC4)c3N)cc2)cc(S(C)(=O)=O)c1

>  <score_type>  (27) 
oracle

>  <origin>  (27) 
adgpu

>  <m_score__min__energy>  (27) 
-9.4199999999999999

>  <m_primary>  (27) 
energy

$$$$
27:0
     RDKit          3D

 66 70  0  0  0  0  0  0  0  0999 V2000
   -6.5220   16.8340  -34.0840 C   0  0  0  0  0  0  0  0  0  0  0  0
   -6.4060   18.1450  -33.3520 C   0  0  0  0  0  0  0  0  0  0  0  0
   -7.5790   18.7580  -32.8860 C   0  0  0  0  0  0  0  0  0  0  0  0
   -7.5290   19.9730  -32.2030 C   0  0  0  0  0  0  0  0  0  0  0  0
   -6.3010   20.6120  -31.9700 C   0  0  0  0  0  0  0  0  0  0  0  0
   -6.2180   21.9150  -31.2510 C   0  0  0  0  0  0  0  0  0  0  0  0
   -7.1790   22.9290  -31.3260 C   0  0  0  0  0  0  0  0  0  0  0  0
   -6.6620   24.2040  -30.3600 S   0  0  0  0  0  0  0  0  0  0  0  0
   -5.2450   23.4330  -29.8820 C   0  0  0  0  0  0  0  0  0  0  0  0
   -4.2130   23.9900  -28.9780 C   0  0  0  0  0  0  0  0  0  0  0  0
   -4.4800   24.1280  -27.6040 C   0  0  0  0  0  0  0  0  0  0  0  0
   -3.5090   24.6430  -26.7410 C   0  0  0  0  0  0  0  0  0  0  0  0
   -2.2590   25.0330  -27.2360 C   0  0  0  0  0  0  0  0  0  0  0  0
   -1.0370   25.6530  -26.1300 S   0  0  0  0  0  0  0  0  0  0  0  0
   -0.2990   26.7940  -26.7730 O   0  0  0  0  0  0  0  0  0  0  0  0
   -1.7280   26.1630  -24.8950 O   0  0  0  0  0  0  0  0  0  0  0  0
    0.0670   24.3580  -25.7140 N   0  0  0  0  0  0  0  0  0  0  0  0
   -0.2330   23.1160  -26.4600 C   0  0  0  0  0  0  0  0  0  0  0  0
    0.6860   22.9160  -27.6800 C   0  0  0  0  0  0  0  0  0  0  0  0
    1.0480   24.1630  -28.2290 O   0  0  0  0  0  0  0  0  0  0  0  0
    1.9100   24.8580  -27.3430 C   0  0  0  0  0  0  0  0  0  0  0  0
    1.4730   24.7730  -25.8610 C   0  0  0  0  0  0  0  0  0  0  0  0
   -1.9860   24.8990  -28.6040 C   0  0  0  0  0  0  0  0  0  0  0  0
   -2.9550   24.3830  -29.4690 C   0  0  0  0  0  0  0  0  0  0  0  0
   -5.1550   22.2100  -30.4490 N   0  0  0  0  0  0  0  0  0  0  0  0
   -5.1230   19.9920  -32.4230 C   0  0  0  0  0  0  0  0  0  0  0  0
   -5.1540   18.7540  -33.0900 C   0  0  0  0  0  0  0  0  0  0  0  0
   -3.6270   18.0020  -33.6140 S   0  0  0  0  0  0  0  0  0  0  0  0
   -3.4300   16.7090  -32.8690 O   0  0  0  0  0  0  0  0  0  0  0  0
   -3.7260   17.7130  -35.0860 O   0  0  0  0  0  0  0  0  0  0  0  0
   -2.2330   19.0230  -33.3240 N   0  0  0  0  0  0  0  0  0  0  0  0
   -2.0660   19.2240  -31.8630 C   0  0  0  0  0  0  0  0  0  0  0  0
   -1.1580   20.4210  -31.5620 C   0  0  0  0  0  0  0  0  0  0  0  0
   -1.7730   21.7290  -32.0930 C   0  0  0  0  0  0  0  0  0  0  0  0
   -2.7530   21.4950  -33.2550 C   0  0  0  0  0  0  0  0  0  0  0  0
   -2.3270   20.2890  -34.1060 C   0  0  0  0  0  0  0  0  0  0  0  0
   -6.5947   16.0127  -33.3559 H   0  0  0  0  0  0  0  0  0  0  0  0
   -7.4227   16.8450  -34.7154 H   0  0  0  0  0  0  0  0  0  0  0  0
   -5.6334   16.6867  -34.7154 H   0  0  0  0  0  0  0  0  0  0  0  0
   -8.5510   18.2738  -33.0617 H   0  0  0  0  0  0  0  0  0  0  0  0
   -8.4604   20.4348  -31.8436 H   0  0  0  0  0  0  0  0  0  0  0  0
   -8.1086   22.8975  -31.9133 H   0  0  0  0  0  0  0  0  0  0  0  0
   -5.4606   23.8283  -27.2057 H   0  0  0  0  0  0  0  0  0  0  0  0
   -3.7280   24.7424  -25.6676 H   0  0  0  0  0  0  0  0  0  0  0  0
   -0.1077   22.2594  -25.7814 H   0  0  0  0  0  0  0  0  0  0  0  0
   -1.2652   23.1941  -26.8320 H   0  0  0  0  0  0  0  0  0  0  0  0
    1.5940   22.3801  -27.3664 H   0  0  0  0  0  0  0  0  0  0  0  0
    0.1481   22.3322  -28.4415 H   0  0  0  0  0  0  0  0  0  0  0  0
    2.9196   24.4306  -27.4331 H   0  0  0  0  0  0  0  0  0  0  0  0
    1.8787   25.9198  -27.6285 H   0  0  0  0  0  0  0  0  0  0  0  0
    2.1130   24.0421  -25.3451 H   0  0  0  0  0  0  0  0  0  0  0  0
    1.5744   25.7769  -25.4229 H   0  0  0  0  0  0  0  0  0  0  0  0
   -1.0048   25.2013  -28.9987 H   0  0  0  0  0  0  0  0  0  0  0  0
   -2.7321   24.2835  -30.5416 H   0  0  0  0  0  0  0  0  0  0  0  0
   -4.1553   20.4863  -32.2519 H   0  0  0  0  0  0  0  0  0  0  0  0
   -1.3910   18.4950  -33.6520 H   0  0  0  0  0  0  0  0  0  0  0  0
   -3.0532   19.4014  -31.4113 H   0  0  0  0  0  0  0  0  0  0  0  0
   -1.5994   18.3216  -31.4412 H   0  0  0  0  0  0  0  0  0  0  0  0
   -1.0214   20.5039  -30.4737 H   0  0  0  0  0  0  0  0  0  0  0  0
   -0.1910   20.2610  -32.0613 H   0  0  0  0  0  0  0  0  0  0  0  0
   -2.3126   22.2231  -31.2716 H   0  0  0  0  0  0  0  0  0  0  0  0
   -0.9504   22.3529  -32.4725 H   0  0  0  0  0  0  0  0  0  0  0  0
   -3.7570   21.3088  -32.8458 H   0  0  0  0  0  0  0  0  0  0  0  0
   -2.7550   22.3898  -33.8948 H   0  0  0  0  0  0  0  0  0  0  0  0
   -3.0652   20.1497  -34.9095 H   0  0  0  0  0  0  0  0  0  0  0  0
   -1.3232   20.5052  -34.5005 H   0  0  0  0  0  0  0  0  0  0  0  0
  1  2  1  0
  2  3  2  0
  3  4  1  0
  4  5  2  0
  5  6  1  0
  6  7  2  0
  7  8  1  0
  8  9  1  0
  9 10  1  0
 10 11  2  0
 11 12  1  0
 12 13  2  0
 13 14  1  0
 14 15  2  0
 14 16  2  0
 14 17  1  0
 17 18  1  0
 18 19  1  0
 19 20  1  0
 20 21  1  0
 21 22  1  0
 13 23  1  0
 23 24  2  0
  9 25  2  0
  5 26  1  0
 26 27  2  0
 27 28  1  0
 28 29  2  0
 28 30  2  0
 28 31  1  0
 31 32  1  0
 32 33  1  0
 33 34  1  0
 34 35  1  0
 35 36  1  0
 27  2  1  0
 36 31  1  0
 25  6  1  0
 24 10  1  0
 22 17  1  0
  1 37  1  0
  1 38  1  0
  1 39  1  0
  3 40  1  0
  4 41  1  0
  7 42  1  0
 11 43  1  0
 12 44  1  0
 18 45  1  0
 18 46  1  0
 19 47  1  0
 19 48  1  0
 21 49  1  0
 21 50  1  0
 22 51  1  0
 22 52  1  0
 23 53  1  0
 24 54  1  0
 26 55  1  0
 31 56  1  0
 32 57  1  0
 32 58  1  0
 33 59  1  0
 33 60  1  0
 34 61  1  0
 34 62  1  0
 35 63  1  0
 35 64  1  0
 36 65  1  0
 36 66  1  0
M  CHG  1  31   1
M  END
>  <UniqueID>  (28) 
27

>  <SMILES>  (28) 
Cc1ccc(-c2csc(-c3ccc(S(=O)(=O)N4CCOCC4)cc3)n2)cc1S(=O)(=O)[NH+]1CCCCC1

>  <Energy>  (28) 
121.18515604653932

>  <Genealogy>  (28) 
Cc1ccc(-c2csc(-c3ccc(S(=O)(=O)N4CCOCC4)cc3)n2)cc1S(=O)(=O)[NH+]1CCCCC1 (protonated)
Cc1ccc(-c2csc(-c3ccc(S(=O)(=O)N4CCOCC4)cc3)n2)cc1S(=O)(=O)[NH+]1CCCCC1 (3D coordinates assigned)
Cc1ccc(-c2csc(-c3ccc(S(=O)(=O)N4CCOCC4)cc3)n2)cc1S(=O)(=O)[NH+]1CCCCC1 (nonaromatic ring conformer: 121.18515604653932 kcal/mol)

>  <smiles>  (28) 
Cc1ccc(-c2csc(-c3ccc(S(=O)(=O)N4CCOCC4)cc3)n2)cc1S(=O)(=O)N1CCCCC1

>  <score_type>  (28) 
oracle

>  <origin>  (28) 
adgpu

>  <m_score__min__energy>  (28) 
-11

>  <m_primary>  (28) 
energy

$$$$
28:0
     RDKit          3D

 39 43  0  0  0  0  0  0  0  0999 V2000
   -3.4830   25.2930  -30.5990 O   0  0  0  0  0  0  0  0  0  0  0  0
   -3.2190   24.3460  -29.6070 C   0  0  0  0  0  0  0  0  0  0  0  0
   -3.9360   23.1220  -29.4990 C   0  0  0  0  0  0  0  0  0  0  0  0
   -4.9600   22.7320  -30.4930 C   0  0  0  0  0  0  0  0  0  0  0  0
   -5.9400   23.6510  -30.8930 C   0  0  0  0  0  0  0  0  0  0  0  0
   -6.9190   23.2780  -31.8150 C   0  0  0  0  0  0  0  0  0  0  0  0
   -6.9360   21.9850  -32.3400 C   0  0  0  0  0  0  0  0  0  0  0  0
   -5.9700   21.0420  -31.9420 C   0  0  0  0  0  0  0  0  0  0  0  0
   -5.9790   19.6650  -32.4870 C   0  0  0  0  0  0  0  0  0  0  0  0
   -4.8520   19.0090  -32.8690 N   0  0  0  0  0  0  0  0  0  0  0  0
   -5.1340   17.7650  -33.3320 C   0  0  0  0  0  0  0  0  0  0  0  0
   -4.1770   16.8600  -33.7960 C   0  0  0  0  0  0  0  0  0  0  0  0
   -4.6040   15.6000  -34.2500 C   0  0  0  0  0  0  0  0  0  0  0  0
   -5.9720   15.2620  -34.2350 C   0  0  0  0  0  0  0  0  0  0  0  0
   -6.9250   16.1800  -33.7670 C   0  0  0  0  0  0  0  0  0  0  0  0
   -6.4750   17.4210  -33.3230 C   0  0  0  0  0  0  0  0  0  0  0  0
   -7.3640   18.7060  -32.7160 S   0  0  0  0  0  0  0  0  0  0  0  0
   -4.9870   21.4260  -31.0110 C   0  0  0  0  0  0  0  0  0  0  0  0
   -3.6520   22.2370  -28.4260 C   0  0  0  0  0  0  0  0  0  0  0  0
   -2.6570   22.5420  -27.4820 C   0  0  0  0  0  0  0  0  0  0  0  0
   -1.9620   23.7380  -27.6320 C   0  0  0  0  0  0  0  0  0  0  0  0
   -0.9840   24.2160  -26.8450 N   0  0  0  0  0  0  0  0  0  0  0  0
   -0.6290   25.4070  -27.3780 C   0  0  0  0  0  0  0  0  0  0  0  0
   -1.3880   25.6860  -28.5090 C   0  0  0  0  0  0  0  0  0  0  0  0
   -2.2320   24.6050  -28.6560 C   0  0  0  0  0  0  0  0  0  0  0  0
   -3.3530   25.1050  -31.5850 H   0  0  0  0  0  0  0  0  0  0  0  0
   -5.9374   24.6700  -30.4786 H   0  0  0  0  0  0  0  0  0  0  0  0
   -7.6808   24.0065  -32.1294 H   0  0  0  0  0  0  0  0  0  0  0  0
   -7.7091   21.7012  -33.0693 H   0  0  0  0  0  0  0  0  0  0  0  0
   -3.1101   17.1278  -33.8060 H   0  0  0  0  0  0  0  0  0  0  0  0
   -3.8655   14.8732  -34.6194 H   0  0  0  0  0  0  0  0  0  0  0  0
   -6.2948   14.2729  -34.5922 H   0  0  0  0  0  0  0  0  0  0  0  0
   -7.9954   15.9269  -33.7514 H   0  0  0  0  0  0  0  0  0  0  0  0
   -4.2315   20.6958  -30.6852 H   0  0  0  0  0  0  0  0  0  0  0  0
   -4.2190   21.2991  -28.3323 H   0  0  0  0  0  0  0  0  0  0  0  0
   -2.4345   21.8569  -26.6507 H   0  0  0  0  0  0  0  0  0  0  0  0
   -0.5810   23.7650  -25.9940 H   0  0  0  0  0  0  0  0  0  0  0  0
    0.1534   26.0652  -26.9722 H   0  0  0  0  0  0  0  0  0  0  0  0
   -1.3282   26.5782  -29.1497 H   0  0  0  0  0  0  0  0  0  0  0  0
  1  2  1  0
  2  3  2  0
  3  4  1  0
  4  5  2  0
  5  6  1  0
  6  7  2  0
  7  8  1  0
  8  9  1  0
  9 10  2  0
 10 11  1  0
 11 12  2  0
 12 13  1  0
 13 14  2  0
 14 15  1  0
 15 16  2  0
 16 17  1  0
  8 18  2  0
  3 19  1  0
 19 20  2  0
 20 21  1  0
 21 22  1  0
 22 23  1  0
 23 24  2  0
 24 25  1  0
 25  2  1  0
 18  4  1  0
 25 21  2  0
 17  9  1  0
 16 11  1  0
  1 26  1  0
  5 27  1  0
  6 28  1  0
  7 29  1  0
 12 30  1  0
 13 31  1  0
 14 32  1  0
 15 33  1  0
 18 34  1  0
 19 35  1  0
 20 36  1  0
 22 37  1  0
 23 38  1  0
 24 39  1  0
M  END
>  <UniqueID>  (29) 
28

>  <SMILES>  (29) 
Oc1c(-c2cccc(-c3nc4ccccc4s3)c2)ccc2[nH]ccc12

>  <Energy>  (29) 
121.11654818897955

>  <Genealogy>  (29) 
Oc1c(-c2cccc(-c3nc4ccccc4s3)c2)ccc2[nH]ccc12 (3D coordinates assigned)
Oc1c(-c2cccc(-c3nc4ccccc4s3)c2)ccc2[nH]ccc12 (optimized conformer: 121.11654818897955 kcal/mol)

>  <smiles>  (29) 
Oc1c(-c2cccc(-c3nc4ccccc4s3)c2)ccc2[nH]ccc12

>  <score_type>  (29) 
oracle

>  <origin>  (29) 
adgpu

>  <m_score__min__energy>  (29) 
-9.8000000000000007

>  <m_primary>  (29) 
energy

$$$$
29:0
     RDKit          3D

 48 52  0  0  0  0  0  0  0  0999 V2000
   -8.6380   19.0910  -32.3430 O   0  0  0  0  0  0  0  0  0  0  0  0
   -7.4610   19.5090  -32.5220 C   0  0  0  0  0  0  0  0  0  0  0  0
   -6.4950   18.6920  -33.2930 C   0  0  0  0  0  0  0  0  0  0  0  0
   -6.8760   17.4470  -33.8280 C   0  0  0  0  0  0  0  0  0  0  0  0
   -5.9630   16.6800  -34.5530 C   0  0  0  0  0  0  0  0  0  0  0  0
   -4.6620   17.1430  -34.7530 C   0  0  0  0  0  0  0  0  0  0  0  0
   -4.2690   18.3770  -34.2280 C   0  0  0  0  0  0  0  0  0  0  0  0
   -5.1790   19.1610  -33.4950 C   0  0  0  0  0  0  0  0  0  0  0  0
   -4.7660   20.4700  -32.9360 C   0  0  0  0  0  0  0  0  0  0  0  0
   -3.5900   20.8890  -33.1180 O   0  0  0  0  0  0  0  0  0  0  0  0
   -5.7320   21.2870  -32.1640 C   0  0  0  0  0  0  0  0  0  0  0  0
   -5.3470   22.5260  -31.6210 C   0  0  0  0  0  0  0  0  0  0  0  0
   -6.2540   23.2880  -30.8740 C   0  0  0  0  0  0  0  0  0  0  0  0
   -5.7560   24.8010  -30.1200 S   0  0  0  0  0  0  0  0  0  0  0  0
   -4.8460   25.5800  -31.0280 O   0  0  0  0  0  0  0  0  0  0  0  0
   -6.9810   25.6240  -29.8350 O   0  0  0  0  0  0  0  0  0  0  0  0
   -4.9280   24.4620  -28.6330 N   0  0  0  0  0  0  0  0  0  0  0  0
   -3.7750   23.6060  -28.5600 C   0  0  0  0  0  0  0  0  0  0  0  0
   -3.8540   22.3310  -27.9720 C   0  0  0  0  0  0  0  0  0  0  0  0
   -2.7200   21.5130  -27.8720 C   0  0  0  0  0  0  0  0  0  0  0  0
   -1.4820   21.9760  -28.3580 C   0  0  0  0  0  0  0  0  0  0  0  0
   -1.4100   23.2280  -28.9850 C   0  0  0  0  0  0  0  0  0  0  0  0
   -2.5430   24.0400  -29.0830 C   0  0  0  0  0  0  0  0  0  0  0  0
   -2.4350   25.2860  -29.6900 O   0  0  0  0  0  0  0  0  0  0  0  0
   -0.2540   21.0960  -28.3050 C   0  0  0  0  0  0  0  0  0  0  0  0
   -0.3590   20.0540  -27.2760 N   0  0  0  0  0  0  0  0  0  0  0  0
   -1.6080   19.2980  -27.4260 C   0  0  0  0  0  0  0  0  0  0  0  0
   -2.8260   20.1910  -27.1570 C   0  0  0  0  0  0  0  0  0  0  0  0
   -7.5550   22.8170  -30.6750 C   0  0  0  0  0  0  0  0  0  0  0  0
   -7.9520   21.5930  -31.2150 C   0  0  0  0  0  0  0  0  0  0  0  0
   -7.0470   20.8160  -31.9600 C   0  0  0  0  0  0  0  0  0  0  0  0
   -7.9001   17.0762  -33.6736 H   0  0  0  0  0  0  0  0  0  0  0  0
   -6.2696   15.7084  -34.9677 H   0  0  0  0  0  0  0  0  0  0  0  0
   -3.9447   16.5358  -35.3247 H   0  0  0  0  0  0  0  0  0  0  0  0
   -3.2423   18.7376  -34.3887 H   0  0  0  0  0  0  0  0  0  0  0  0
   -4.3253   22.8995  -31.7844 H   0  0  0  0  0  0  0  0  0  0  0  0
   -5.3950   24.7740  -27.7520 H   0  0  0  0  0  0  0  0  0  0  0  0
   -4.8187   21.9707  -27.5853 H   0  0  0  0  0  0  0  0  0  0  0  0
   -0.4533   23.5741  -29.4034 H   0  0  0  0  0  0  0  0  0  0  0  0
   -0.1220   20.6136  -29.2847 H   0  0  0  0  0  0  0  0  0  0  0  0
    0.6060   21.7334  -28.0518 H   0  0  0  0  0  0  0  0  0  0  0  0
   -0.3440   20.5070  -26.3310 H   0  0  0  0  0  0  0  0  0  0  0  0
   -1.6696   18.9047  -28.4514 H   0  0  0  0  0  0  0  0  0  0  0  0
   -1.6091   18.4743  -26.6970 H   0  0  0  0  0  0  0  0  0  0  0  0
   -3.7318   19.6711  -27.5024 H   0  0  0  0  0  0  0  0  0  0  0  0
   -2.8719   20.3898  -26.0761 H   0  0  0  0  0  0  0  0  0  0  0  0
   -8.2696   23.4143  -30.0897 H   0  0  0  0  0  0  0  0  0  0  0  0
   -8.9795   21.2336  -31.0569 H   0  0  0  0  0  0  0  0  0  0  0  0
  1  2  2  0
  2  3  1  0
  3  4  2  0
  4  5  1  0
  5  6  2  0
  6  7  1  0
  7  8  2  0
  8  9  1  0
  9 10  2  0
  9 11  1  0
 11 12  2  0
 12 13  1  0
 13 14  1  0
 14 15  2  0
 14 16  2  0
 14 17  1  0
 17 18  1  0
 18 19  2  0
 19 20  1  0
 20 21  2  0
 21 22  1  0
 22 23  2  0
 23 24  1  0
 21 25  1  0
 25 26  1  0
 26 27  1  0
 27 28  1  0
 13 29  2  0
 29 30  1  0
 30 31  2  0
 31  2  1  0
  8  3  1  0
 31 11  1  0
 23 18  1  0
 28 20  1  0
  4 32  1  0
  5 33  1  0
  6 34  1  0
  7 35  1  0
 12 36  1  0
 17 37  1  0
 19 38  1  0
 22 39  1  0
 25 40  1  0
 25 41  1  0
 26 42  1  0
 27 43  1  0
 27 44  1  0
 28 45  1  0
 28 46  1  0
 29 47  1  0
 30 48  1  0
M  CHG  1  24  -1
M  END
>  <UniqueID>  (30) 
29

>  <SMILES>  (30) 
O=C1c2ccccc2C(=O)c2cc(S(=O)(=O)Nc3cc4c(cc3[O-])CNCC4)ccc21

>  <Energy>  (30) 
63.43849855880439

>  <Genealogy>  (30) 
O=C1c2ccccc2C(=O)c2cc(S(=O)(=O)Nc3cc4c(cc3[O-])CNCC4)ccc21 (protonated)
O=C1c2ccccc2C(=O)c2cc(S(=O)(=O)Nc3cc4c(cc3[O-])CNCC4)ccc21 (3D coordinates assigned)
O=C1c2ccccc2C(=O)c2cc(S(=O)(=O)Nc3cc4c(cc3[O-])CNCC4)ccc21 (nonaromatic ring conformer: 63.43849855880439 kcal/mol)

>  <smiles>  (30) 
O=C1c2ccccc2C(=O)c2cc(S(=O)(=O)Nc3cc4c(cc3O)CNCC4)ccc21

>  <score_type>  (30) 
oracle

>  <origin>  (30) 
adgpu

>  <m_score__min__energy>  (30) 
-15.58

>  <m_primary>  (30) 
energy

$$$$
30:0
     RDKit          3D

 51 54  0  0  0  0  0  0  0  0999 V2000
   -0.7110   25.0750  -24.6410 C   0  0  0  0  0  0  0  0  0  0  0  0
   -0.8290   25.4970  -26.0670 C   0  0  0  0  0  0  0  0  0  0  0  0
   -0.5560   26.7760  -26.4530 N   0  0  0  0  0  0  0  0  0  0  0  0
   -0.8600   26.8110  -28.0870 S   0  0  0  0  0  0  0  0  0  0  0  0
   -1.3390   25.2320  -28.2330 C   0  0  0  0  0  0  0  0  0  0  0  0
   -1.6750   24.6540  -29.3480 N   0  0  0  0  0  0  0  0  0  0  0  0
   -2.1230   23.2950  -29.5020 C   0  0  0  0  0  0  0  0  0  0  0  0
   -1.4360   22.2310  -28.8860 C   0  0  0  0  0  0  0  0  0  0  0  0
   -1.9140   20.9230  -28.9910 C   0  0  0  0  0  0  0  0  0  0  0  0
   -3.0870   20.6610  -29.6970 C   0  0  0  0  0  0  0  0  0  0  0  0
   -3.7940   21.7070  -30.2900 C   0  0  0  0  0  0  0  0  0  0  0  0
   -3.3320   23.0320  -30.1880 C   0  0  0  0  0  0  0  0  0  0  0  0
   -4.1040   24.1240  -30.8330 C   0  0  0  0  0  0  0  0  0  0  0  0
   -3.9220   25.3140  -30.4630 O   0  0  0  0  0  0  0  0  0  0  0  0
   -5.0000   23.8730  -31.9230 N   0  0  0  0  0  0  0  0  0  0  0  0
   -6.2080   23.0990  -31.8650 C   0  0  0  0  0  0  0  0  0  0  0  0
   -7.4580   23.6990  -31.6300 C   0  0  0  0  0  0  0  0  0  0  0  0
   -8.6170   22.9180  -31.6020 C   0  0  0  0  0  0  0  0  0  0  0  0
   -8.5400   21.5410  -31.8220 C   0  0  0  0  0  0  0  0  0  0  0  0
   -7.3030   20.9360  -32.0760 C   0  0  0  0  0  0  0  0  0  0  0  0
   -7.2260   19.2020  -32.3800 S   0  0  0  0  0  0  0  0  0  0  0  0
   -6.5580   18.5050  -31.2240 O   0  0  0  0  0  0  0  0  0  0  0  0
   -8.6280   18.6740  -32.5130 O   0  0  0  0  0  0  0  0  0  0  0  0
   -6.3340   18.9000  -33.8520 N   0  0  0  0  0  0  0  0  0  0  0  0
   -6.2130   17.4420  -34.0740 C   0  0  0  0  0  0  0  0  0  0  0  0
   -5.0210   17.1280  -34.9930 C   0  0  0  0  0  0  0  0  0  0  0  0
   -3.7650   17.5620  -34.4840 O   0  0  0  0  0  0  0  0  0  0  0  0
   -3.8630   18.6190  -33.5380 C   0  0  0  0  0  0  0  0  0  0  0  0
   -5.0200   19.5910  -33.8330 C   0  0  0  0  0  0  0  0  0  0  0  0
   -6.1410   21.7220  -32.1070 C   0  0  0  0  0  0  0  0  0  0  0  0
   -1.2660   24.6260  -27.0300 N   0  0  0  0  0  0  0  0  0  0  0  0
   -0.9490   25.9260  -23.9859 H   0  0  0  0  0  0  0  0  0  0  0  0
   -1.4135   24.2521  -24.4428 H   0  0  0  0  0  0  0  0  0  0  0  0
    0.3164   24.7358  -24.4428 H   0  0  0  0  0  0  0  0  0  0  0  0
   -0.5158   22.4318  -28.3178 H   0  0  0  0  0  0  0  0  0  0  0  0
   -1.3637   20.0977  -28.5155 H   0  0  0  0  0  0  0  0  0  0  0  0
   -3.4554   19.6284  -29.7866 H   0  0  0  0  0  0  0  0  0  0  0  0
   -4.7211   21.4940  -30.8424 H   0  0  0  0  0  0  0  0  0  0  0  0
   -7.5238   24.7850  -31.4679 H   0  0  0  0  0  0  0  0  0  0  0  0
   -9.5916   23.3889  -31.4063 H   0  0  0  0  0  0  0  0  0  0  0  0
   -9.4541   20.9297  -31.7957 H   0  0  0  0  0  0  0  0  0  0  0  0
   -6.9020   19.3010  -34.6360 H   0  0  0  0  0  0  0  0  0  0  0  0
   -6.0644   16.9407  -33.1062 H   0  0  0  0  0  0  0  0  0  0  0  0
   -7.1341   17.0803  -34.5544 H   0  0  0  0  0  0  0  0  0  0  0  0
   -4.9762   16.0389  -35.1408 H   0  0  0  0  0  0  0  0  0  0  0  0
   -5.1902   17.6773  -35.9309 H   0  0  0  0  0  0  0  0  0  0  0  0
   -4.0189   18.1822  -32.5405 H   0  0  0  0  0  0  0  0  0  0  0  0
   -2.9284   19.1963  -33.5945 H   0  0  0  0  0  0  0  0  0  0  0  0
   -5.0384   20.3682  -33.0548 H   0  0  0  0  0  0  0  0  0  0  0  0
   -4.8513   20.0290  -34.8279 H   0  0  0  0  0  0  0  0  0  0  0  0
   -5.1700   21.2524  -32.3231 H   0  0  0  0  0  0  0  0  0  0  0  0
  1  2  1  0
  2  3  2  0
  3  4  1  0
  4  5  1  0
  5  6  2  3
  6  7  1  0
  7  8  2  0
  8  9  1  0
  9 10  2  0
 10 11  1  0
 11 12  2  0
 12 13  1  0
 13 14  2  0
 13 15  1  0
 15 16  1  0
 16 17  2  0
 17 18  1  0
 18 19  2  0
 19 20  1  0
 20 21  1  0
 21 22  2  0
 21 23  2  0
 21 24  1  0
 24 25  1  0
 25 26  1  0
 26 27  1  0
 27 28  1  0
 28 29  1  0
 20 30  2  0
  5 31  1  0
 31  2  1  0
 12  7  1  0
 30 16  1  0
 29 24  1  0
  1 32  1  0
  1 33  1  0
  1 34  1  0
  8 35  1  0
  9 36  1  0
 10 37  1  0
 11 38  1  0
 17 39  1  0
 18 40  1  0
 19 41  1  0
 24 42  1  0
 25 43  1  0
 25 44  1  0
 26 45  1  0
 26 46  1  0
 28 47  1  0
 28 48  1  0
 29 49  1  0
 29 50  1  0
 30 51  1  0
M  CHG  3  15  -1  24   1  31  -1
M  END
>  <UniqueID>  (31) 
30

>  <SMILES>  (31) 
Cc1nsc(=Nc2ccccc2C(=O)[N-]c2cccc(S(=O)(=O)[NH+]3CCOCC3)c2)[n-]1

>  <Energy>  (31) 
116.38749716360014

>  <Genealogy>  (31) 
Cc1nsc(=Nc2ccccc2C(=O)[N-]c2cccc(S(=O)(=O)[NH+]3CCOCC3)c2)[n-]1 (protonated)
Cc1nsc(=Nc2ccccc2C(=O)[N-]c2cccc(S(=O)(=O)[NH+]3CCOCC3)c2)[n-]1 (3D coordinates assigned)
Cc1nsc(=Nc2ccccc2C(=O)[N-]c2cccc(S(=O)(=O)[NH+]3CCOCC3)c2)[n-]1 (nonaromatic ring conformer: 116.38749716360014 kcal/mol)

>  <smiles>  (31) 
Cc1nsc(=Nc2ccccc2C(=O)Nc2cccc(S(=O)(=O)N3CCOCC3)c2)[nH]1

>  <score_type>  (31) 
oracle

>  <origin>  (31) 
adgpu

>  <m_score__min__energy>  (31) 
-11.24

>  <m_primary>  (31) 
energy

$$$$
31:0
     RDKit          3D

 51 54  0  0  0  0  0  0  0  0999 V2000
   -9.0510   19.3800  -31.9440 C   0  0  0  0  0  0  0  0  0  0  0  0
   -7.5750   19.4120  -32.2270 C   0  0  0  0  0  0  0  0  0  0  0  0
   -6.9420   18.2350  -32.6590 C   0  0  0  0  0  0  0  0  0  0  0  0
   -5.5850   18.2330  -32.9800 C   0  0  0  0  0  0  0  0  0  0  0  0
   -4.8370   19.4130  -32.8890 C   0  0  0  0  0  0  0  0  0  0  0  0
   -3.1210   19.4090  -33.2920 S   0  0  0  0  0  0  0  0  0  0  0  0
   -2.4110   18.4470  -32.3800 O   0  0  0  0  0  0  0  0  0  0  0  0
   -2.9540   18.9070  -34.7000 O   0  0  0  0  0  0  0  0  0  0  0  0
   -2.3740   20.9870  -33.1550 N   0  0  0  0  0  0  0  0  0  0  0  0
   -1.1180   21.1130  -33.9200 C   0  0  0  0  0  0  0  0  0  0  0  0
    0.1210   20.7520  -33.0890 C   0  0  0  0  0  0  0  0  0  0  0  0
    0.1420   21.4790  -31.8800 O   0  0  0  0  0  0  0  0  0  0  0  0
   -0.9580   21.0870  -31.0890 C   0  0  0  0  0  0  0  0  0  0  0  0
   -2.2810   21.4750  -31.7650 C   0  0  0  0  0  0  0  0  0  0  0  0
   -5.4500   20.5840  -32.4260 C   0  0  0  0  0  0  0  0  0  0  0  0
   -6.8020   20.5890  -32.0650 C   0  0  0  0  0  0  0  0  0  0  0  0
   -7.3650   21.8100  -31.5650 N   0  0  0  0  0  0  0  0  0  0  0  0
   -6.8060   23.1200  -31.7260 C   0  0  0  0  0  0  0  0  0  0  0  0
   -7.3500   23.9130  -32.5360 O   0  0  0  0  0  0  0  0  0  0  0  0
   -5.5960   23.5600  -31.0020 C   0  0  0  0  0  0  0  0  0  0  0  0
   -4.8930   22.8540  -30.0440 C   0  0  0  0  0  0  0  0  0  0  0  0
   -3.8560   23.6970  -29.7010 C   0  0  0  0  0  0  0  0  0  0  0  0
   -2.7690   23.3940  -28.7440 C   0  0  0  0  0  0  0  0  0  0  0  0
   -2.8580   22.2270  -27.9610 C   0  0  0  0  0  0  0  0  0  0  0  0
   -1.8240   21.8710  -27.0930 C   0  0  0  0  0  0  0  0  0  0  0  0
   -0.6870   22.6710  -26.9940 C   0  0  0  0  0  0  0  0  0  0  0  0
   -0.5880   23.8400  -27.7500 C   0  0  0  0  0  0  0  0  0  0  0  0
   -1.6250   24.2220  -28.6120 C   0  0  0  0  0  0  0  0  0  0  0  0
   -1.4970   25.4380  -29.2850 O   0  0  0  0  0  0  0  0  0  0  0  0
   -3.9280   24.8230  -30.4390 N   0  0  0  0  0  0  0  0  0  0  0  0
   -4.9860   24.7400  -31.2290 N   0  0  0  0  0  0  0  0  0  0  0  0
   -9.2158   19.3764  -30.8564 H   0  0  0  0  0  0  0  0  0  0  0  0
   -9.5281   20.2680  -32.3842 H   0  0  0  0  0  0  0  0  0  0  0  0
   -9.4892   18.4721  -32.3842 H   0  0  0  0  0  0  0  0  0  0  0  0
   -7.5229   17.3049  -32.7450 H   0  0  0  0  0  0  0  0  0  0  0  0
   -5.1004   17.3008  -33.3059 H   0  0  0  0  0  0  0  0  0  0  0  0
   -1.1666   20.4408  -34.7894 H   0  0  0  0  0  0  0  0  0  0  0  0
   -1.0187   22.1654  -34.2243 H   0  0  0  0  0  0  0  0  0  0  0  0
    0.1024   19.6757  -32.8625 H   0  0  0  0  0  0  0  0  0  0  0  0
    1.0208   21.0055  -33.6688 H   0  0  0  0  0  0  0  0  0  0  0  0
   -0.9309   19.9963  -30.9487 H   0  0  0  0  0  0  0  0  0  0  0  0
   -0.8945   21.5995  -30.1178 H   0  0  0  0  0  0  0  0  0  0  0  0
   -3.1117   21.0464  -31.1851 H   0  0  0  0  0  0  0  0  0  0  0  0
   -2.3301   22.5735  -31.7941 H   0  0  0  0  0  0  0  0  0  0  0  0
   -4.8621   21.5102  -32.3452 H   0  0  0  0  0  0  0  0  0  0  0  0
   -5.1101   21.8515  -29.6467 H   0  0  0  0  0  0  0  0  0  0  0  0
   -3.7513   21.5893  -28.0340 H   0  0  0  0  0  0  0  0  0  0  0  0
   -1.9069   20.9573  -26.4861 H   0  0  0  0  0  0  0  0  0  0  0  0
    0.1325   22.3810  -26.3199 H   0  0  0  0  0  0  0  0  0  0  0  0
    0.3120   24.4672  -27.6686 H   0  0  0  0  0  0  0  0  0  0  0  0
   -2.0400   25.6820  -30.1010 H   0  0  0  0  0  0  0  0  0  0  0  0
  1  2  1  0
  2  3  2  0
  3  4  1  0
  4  5  2  0
  5  6  1  0
  6  7  2  0
  6  8  2  0
  6  9  1  0
  9 10  1  0
 10 11  1  0
 11 12  1  0
 12 13  1  0
 13 14  1  0
  5 15  1  0
 15 16  2  0
 16 17  1  0
 17 18  1  0
 18 19  2  0
 18 20  1  0
 20 21  1  0
 21 22  2  0
 22 23  1  0
 23 24  2  0
 24 25  1  0
 25 26  2  0
 26 27  1  0
 27 28  2  0
 28 29  1  0
 22 30  1  0
 30 31  1  0
 16  2  1  0
 31 20  2  0
 14  9  1  0
 28 23  1  0
  1 32  1  0
  1 33  1  0
  1 34  1  0
  3 35  1  0
  4 36  1  0
 10 37  1  0
 10 38  1  0
 11 39  1  0
 11 40  1  0
 13 41  1  0
 13 42  1  0
 14 43  1  0
 14 44  1  0
 15 45  1  0
 21 46  1  0
 24 47  1  0
 25 48  1  0
 26 49  1  0
 27 50  1  0
 29 51  1  0
M  CHG  2  17  -1  30  -1
M  END
>  <UniqueID>  (32) 
31

>  <SMILES>  (32) 
Cc1ccc(S(=O)(=O)N2CCOCC2)cc1[N-]C(=O)c1cc(-c2ccccc2O)[n-]n1

>  <Energy>  (32) 
101.97515505095373

>  <Genealogy>  (32) 
Cc1ccc(S(=O)(=O)N2CCOCC2)cc1[N-]C(=O)c1cc(-c2ccccc2O)[n-]n1 (protonated)
Cc1ccc(S(=O)(=O)N2CCOCC2)cc1[N-]C(=O)c1cc(-c2ccccc2O)[n-]n1 (3D coordinates assigned)
Cc1ccc(S(=O)(=O)N2CCOCC2)cc1[N-]C(=O)c1cc(-c2ccccc2O)[n-]n1 (nonaromatic ring conformer: 101.97515505095373 kcal/mol)

>  <smiles>  (32) 
Cc1ccc(S(=O)(=O)N2CCOCC2)cc1NC(=O)c1cc(-c2ccccc2O)[nH]n1

>  <score_type>  (32) 
oracle

>  <origin>  (32) 
adgpu

>  <m_score__min__energy>  (32) 
-13.029999999999999

>  <m_primary>  (32) 
energy

$$$$
32:0
     RDKit          3D

 29 30  0  0  0  0  0  0  0  0999 V2000
   -4.9760   15.1510  -32.3070 C   0  0  0  0  0  0  0  0  0  0  0  0
   -5.2280   16.4480  -32.9970 C   0  0  0  0  0  0  0  0  0  0  0  0
   -5.7130   17.5430  -32.3750 N   0  0  0  0  0  0  0  0  0  0  0  0
   -5.9180   18.5720  -33.2420 C   0  0  0  0  0  0  0  0  0  0  0  0
   -6.4110   19.8900  -32.7780 C   0  0  0  0  0  0  0  0  0  0  0  0
   -7.7430   20.0770  -32.3360 C   0  0  0  0  0  0  0  0  0  0  0  0
   -8.7340   18.9440  -32.2690 C   0  0  0  0  0  0  0  0  0  0  0  0
   -8.1620   21.3580  -31.9490 C   0  0  0  0  0  0  0  0  0  0  0  0
   -7.2580   22.4260  -31.9650 C   0  0  0  0  0  0  0  0  0  0  0  0
   -7.7010   23.7890  -31.5070 C   0  0  0  0  0  0  0  0  0  0  0  0
   -6.8610   24.2470  -29.9520 S   0  0  0  0  0  0  0  0  0  0  0  0
   -5.2730   24.4400  -30.7020 C   0  0  0  0  0  0  0  0  0  0  0  0
   -4.2330   24.5660  -31.1930 N   0  0  0  0  0  0  0  0  0  0  0  0
   -5.9690   22.2160  -32.3510 N   0  0  0  0  0  0  0  0  0  0  0  0
   -5.5310   20.9920  -32.7570 C   0  0  0  0  0  0  0  0  0  0  0  0
   -4.3330   20.8580  -33.1260 O   0  0  0  0  0  0  0  0  0  0  0  0
   -5.5910   18.2960  -34.5700 C   0  0  0  0  0  0  0  0  0  0  0  0
   -5.0510   16.7060  -34.6490 S   0  0  0  0  0  0  0  0  0  0  0  0
   -5.0056   15.3032  -31.2180 H   0  0  0  0  0  0  0  0  0  0  0  0
   -5.7499   14.4250  -32.5969 H   0  0  0  0  0  0  0  0  0  0  0  0
   -3.9866   14.7676  -32.5969 H   0  0  0  0  0  0  0  0  0  0  0  0
   -8.9448   18.7030  -31.2166 H   0  0  0  0  0  0  0  0  0  0  0  0
   -9.6664   19.2422  -32.7707 H   0  0  0  0  0  0  0  0  0  0  0  0
   -8.3143   18.0596  -32.7707 H   0  0  0  0  0  0  0  0  0  0  0  0
   -9.2024   21.5235  -31.6325 H   0  0  0  0  0  0  0  0  0  0  0  0
   -7.4548   24.5290  -32.2827 H   0  0  0  0  0  0  0  0  0  0  0  0
   -8.7868   23.7693  -31.3318 H   0  0  0  0  0  0  0  0  0  0  0  0
   -5.2940   23.0150  -32.3460 H   0  0  0  0  0  0  0  0  0  0  0  0
   -5.6722   18.9950  -35.4155 H   0  0  0  0  0  0  0  0  0  0  0  0
  1  2  1  0
  2  3  2  0
  3  4  1  0
  4  5  1  0
  5  6  2  0
  6  7  1  0
  6  8  1  0
  8  9  2  0
  9 10  1  0
 10 11  1  0
 11 12  1  0
 12 13  3  0
  9 14  1  0
 14 15  1  0
 15 16  2  0
  4 17  2  0
 17 18  1  0
 18  2  1  0
 15  5  1  0
  1 19  1  0
  1 20  1  0
  1 21  1  0
  7 22  1  0
  7 23  1  0
  7 24  1  0
  8 25  1  0
 10 26  1  0
 10 27  1  0
 14 28  1  0
 17 29  1  0
M  END
>  <UniqueID>  (33) 
32

>  <SMILES>  (33) 
Cc1nc(-c2c(C)cc(CSC#N)[nH]c2=O)cs1

>  <Energy>  (33) 
62.042229249076826

>  <Genealogy>  (33) 
Cc1nc(-c2c(C)cc(CSC#N)[nH]c2=O)cs1 (3D coordinates assigned)
Cc1nc(-c2c(C)cc(CSC#N)[nH]c2=O)cs1 (optimized conformer: 62.042229249076826 kcal/mol)

>  <smiles>  (33) 
Cc1nc(-c2c(C)cc(CSC#N)[nH]c2=O)cs1

>  <score_type>  (33) 
oracle

>  <origin>  (33) 
adgpu

>  <m_score__min__energy>  (33) 
-7.1900000000000004

>  <m_primary>  (33) 
energy

$$$$
33:0
     RDKit          3D

 45 47  0  0  0  0  0  0  0  0999 V2000
   -0.8010   19.1200  -32.4860 O   0  0  0  0  0  0  0  0  0  0  0  0
   -1.0200   20.4530  -31.8300 S   0  0  0  0  0  0  0  0  0  0  0  0
   -0.2350   21.4880  -32.5880 O   0  0  0  0  0  0  0  0  0  0  0  0
   -0.4570   20.3720  -30.1830 N   0  0  0  0  0  0  0  0  0  0  0  0
   -1.4590   20.8900  -29.2490 C   0  0  0  0  0  0  0  0  0  0  0  0
   -1.4240   22.3950  -29.1920 C   0  0  0  0  0  0  0  0  0  0  0  0
   -0.3680   23.0610  -28.5480 C   0  0  0  0  0  0  0  0  0  0  0  0
   -0.3570   24.4570  -28.4720 C   0  0  0  0  0  0  0  0  0  0  0  0
   -1.3970   25.1990  -29.0430 C   0  0  0  0  0  0  0  0  0  0  0  0
   -1.3810   26.5870  -28.9610 O   0  0  0  0  0  0  0  0  0  0  0  0
   -2.4470   24.5430  -29.6960 C   0  0  0  0  0  0  0  0  0  0  0  0
   -3.4810   25.2740  -30.2700 O   0  0  0  0  0  0  0  0  0  0  0  0
   -2.4610   23.1460  -29.7700 C   0  0  0  0  0  0  0  0  0  0  0  0
   -2.7400   20.8320  -31.8810 C   0  0  0  0  0  0  0  0  0  0  0  0
   -3.1900   21.9110  -32.6540 C   0  0  0  0  0  0  0  0  0  0  0  0
   -4.5540   22.2130  -32.7190 C   0  0  0  0  0  0  0  0  0  0  0  0
   -5.4810   21.4350  -32.0100 C   0  0  0  0  0  0  0  0  0  0  0  0
   -7.2060   21.7860  -32.1090 S   0  0  0  0  0  0  0  0  0  0  0  0
   -7.7690   21.7800  -30.7140 O   0  0  0  0  0  0  0  0  0  0  0  0
   -7.4110   23.1560  -32.6950 O   0  0  0  0  0  0  0  0  0  0  0  0
   -8.0300   20.5740  -33.0680 N   0  0  0  0  0  0  0  0  0  0  0  0
   -9.1930   20.0060  -32.3600 C   0  0  0  0  0  0  0  0  0  0  0  0
   -8.7750   19.0450  -31.2210 C   0  0  0  0  0  0  0  0  0  0  0  0
   -7.4420   18.5790  -31.3320 O   0  0  0  0  0  0  0  0  0  0  0  0
   -7.1480   18.2500  -32.6730 C   0  0  0  0  0  0  0  0  0  0  0  0
   -7.1010   19.5230  -33.5410 C   0  0  0  0  0  0  0  0  0  0  0  0
   -5.0330   20.3480  -31.2460 C   0  0  0  0  0  0  0  0  0  0  0  0
   -3.6690   20.0490  -31.1800 C   0  0  0  0  0  0  0  0  0  0  0  0
   -2.4575   20.5665  -29.5782 H   0  0  0  0  0  0  0  0  0  0  0  0
   -1.2355   20.4981  -28.2458 H   0  0  0  0  0  0  0  0  0  0  0  0
    0.4537   22.4817  -28.1016 H   0  0  0  0  0  0  0  0  0  0  0  0
    0.4703   24.9728  -27.9626 H   0  0  0  0  0  0  0  0  0  0  0  0
   -3.2879   22.6333  -30.2832 H   0  0  0  0  0  0  0  0  0  0  0  0
   -2.4667   22.5234  -33.2124 H   0  0  0  0  0  0  0  0  0  0  0  0
   -4.9003   23.0618  -33.3270 H   0  0  0  0  0  0  0  0  0  0  0  0
   -9.7821   20.8294  -31.9299 H   0  0  0  0  0  0  0  0  0  0  0  0
   -9.7816   19.4289  -33.0884 H   0  0  0  0  0  0  0  0  0  0  0  0
   -8.8792   19.5753  -30.2629 H   0  0  0  0  0  0  0  0  0  0  0  0
   -9.4308   18.1642  -31.2855 H   0  0  0  0  0  0  0  0  0  0  0  0
   -6.1716   17.7454  -32.7166 H   0  0  0  0  0  0  0  0  0  0  0  0
   -7.9350   17.5847  -33.0578 H   0  0  0  0  0  0  0  0  0  0  0  0
   -6.0770   19.9242  -33.5214 H   0  0  0  0  0  0  0  0  0  0  0  0
   -7.4094   19.2417  -34.5587 H   0  0  0  0  0  0  0  0  0  0  0  0
   -5.7572   19.7285  -30.6967 H   0  0  0  0  0  0  0  0  0  0  0  0
   -3.3231   19.1969  -30.5764 H   0  0  0  0  0  0  0  0  0  0  0  0
  1  2  2  0
  2  3  2  0
  2  4  1  0
  4  5  1  0
  5  6  1  0
  6  7  2  0
  7  8  1  0
  8  9  2  0
  9 10  1  0
  9 11  1  0
 11 12  1  0
 11 13  2  0
  2 14  1  0
 14 15  2  0
 15 16  1  0
 16 17  2  0
 17 18  1  0
 18 19  2  0
 18 20  2  0
 18 21  1  0
 21 22  1  0
 22 23  1  0
 23 24  1  0
 24 25  1  0
 25 26  1  0
 17 27  1  0
 27 28  2  0
 13  6  1  0
 28 14  1  0
 26 21  1  0
  5 29  1  0
  5 30  1  0
  7 31  1  0
  8 32  1  0
 13 33  1  0
 15 34  1  0
 16 35  1  0
 22 36  1  0
 22 37  1  0
 23 38  1  0
 23 39  1  0
 25 40  1  0
 25 41  1  0
 26 42  1  0
 26 43  1  0
 27 44  1  0
 28 45  1  0
M  CHG  3   4  -1  10  -1  12  -1
M  END
>  <UniqueID>  (34) 
33

>  <SMILES>  (34) 
O=S(=O)([N-]Cc1ccc([O-])c([O-])c1)c1ccc(S(=O)(=O)N2CCOCC2)cc1

>  <Energy>  (34) 
55.8653199968637

>  <Genealogy>  (34) 
O=S(=O)([N-]Cc1ccc([O-])c([O-])c1)c1ccc(S(=O)(=O)N2CCOCC2)cc1 (protonated)
O=S(=O)([N-]Cc1ccc([O-])c([O-])c1)c1ccc(S(=O)(=O)N2CCOCC2)cc1 (3D coordinates assigned)
O=S(=O)([N-]Cc1ccc([O-])c([O-])c1)c1ccc(S(=O)(=O)N2CCOCC2)cc1 (nonaromatic ring conformer: 55.8653199968637 kcal/mol)

>  <smiles>  (34) 
O=S(=O)(NCc1ccc(O)c(O)c1)c1ccc(S(=O)(=O)N2CCOCC2)cc1

>  <score_type>  (34) 
oracle

>  <origin>  (34) 
adgpu

>  <m_score__min__energy>  (34) 
-13.83

>  <m_primary>  (34) 
energy

$$$$
34:0
     RDKit          3D

 57 60  0  0  0  0  0  0  0  0999 V2000
   -2.0950   22.5100  -31.2320 O   0  0  0  0  0  0  0  0  0  0  0  0
   -2.2890   22.4480  -29.9860 C   0  0  0  0  0  0  0  0  0  0  0  0
   -3.6210   22.5900  -29.4680 N   0  0  0  0  0  0  0  0  0  0  0  0
   -4.7040   23.1470  -30.2310 C   0  0  0  0  0  0  0  0  0  0  0  0
   -5.8510   22.3720  -30.4570 C   0  0  0  0  0  0  0  0  0  0  0  0
   -6.9270   22.8900  -31.1920 C   0  0  0  0  0  0  0  0  0  0  0  0
   -8.3550   21.9090  -31.5150 S   0  0  0  0  0  0  0  0  0  0  0  0
   -9.4420   22.8090  -32.0320 O   0  0  0  0  0  0  0  0  0  0  0  0
   -8.8330   21.2580  -30.2460 O   0  0  0  0  0  0  0  0  0  0  0  0
   -7.9730   20.6920  -32.7140 N   0  0  0  0  0  0  0  0  0  0  0  0
   -6.7080   20.0250  -32.3860 C   0  0  0  0  0  0  0  0  0  0  0  0
   -7.0270   18.7740  -31.5800 C   0  0  0  0  0  0  0  0  0  0  0  0
   -8.5080   18.5220  -31.7890 C   0  0  0  0  0  0  0  0  0  0  0  0
   -8.9870   19.6330  -32.7110 C   0  0  0  0  0  0  0  0  0  0  0  0
   -6.8570   24.1940  -31.6960 C   0  0  0  0  0  0  0  0  0  0  0  0
   -5.7300   24.9820  -31.4520 C   0  0  0  0  0  0  0  0  0  0  0  0
   -4.6590   24.4700  -30.7120 C   0  0  0  0  0  0  0  0  0  0  0  0
   -3.5710   25.2920  -30.4400 O   0  0  0  0  0  0  0  0  0  0  0  0
   -1.1420   22.1880  -29.0820 C   0  0  0  0  0  0  0  0  0  0  0  0
   -0.6940   20.8750  -28.8430 C   0  0  0  0  0  0  0  0  0  0  0  0
    0.3850   20.6420  -27.9860 C   0  0  0  0  0  0  0  0  0  0  0  0
    1.0250   21.7090  -27.3540 C   0  0  0  0  0  0  0  0  0  0  0  0
    0.5830   23.0200  -27.5700 C   0  0  0  0  0  0  0  0  0  0  0  0
    1.3840   24.3820  -26.7920 S   0  0  0  0  0  0  0  0  0  0  0  0
    2.5890   23.8670  -26.0550 O   0  0  0  0  0  0  0  0  0  0  0  0
    1.8400   25.3710  -27.8300 O   0  0  0  0  0  0  0  0  0  0  0  0
    0.2680   25.1380  -25.6730 N   0  0  0  0  0  0  0  0  0  0  0  0
   -1.0840   24.5420  -25.7580 C   0  0  0  0  0  0  0  0  0  0  0  0
   -2.0550   25.3890  -26.6000 C   0  0  0  0  0  0  0  0  0  0  0  0
   -1.3610   26.0430  -27.6370 O   0  0  0  0  0  0  0  0  0  0  0  0
   -0.5140   27.0460  -27.1040 C   0  0  0  0  0  0  0  0  0  0  0  0
    0.2470   26.6020  -25.8320 C   0  0  0  0  0  0  0  0  0  0  0  0
   -0.4970   23.2570  -28.4320 C   0  0  0  0  0  0  0  0  0  0  0  0
   -3.8570   22.1010  -28.5750 H   0  0  0  0  0  0  0  0  0  0  0  0
   -5.9069   21.3498  -30.0545 H   0  0  0  0  0  0  0  0  0  0  0  0
   -6.1819   19.7480  -33.3114 H   0  0  0  0  0  0  0  0  0  0  0  0
   -6.0623   20.6987  -31.8036 H   0  0  0  0  0  0  0  0  0  0  0  0
   -6.4368   17.9207  -31.9454 H   0  0  0  0  0  0  0  0  0  0  0  0
   -6.7817   18.9017  -30.5153 H   0  0  0  0  0  0  0  0  0  0  0  0
   -8.6678   17.5394  -32.2569 H   0  0  0  0  0  0  0  0  0  0  0  0
   -9.0582   18.5186  -30.8365 H   0  0  0  0  0  0  0  0  0  0  0  0
   -9.1192   19.2406  -33.7301 H   0  0  0  0  0  0  0  0  0  0  0  0
   -9.9511   20.0298  -32.3603 H   0  0  0  0  0  0  0  0  0  0  0  0
   -7.6922   24.5994  -32.2860 H   0  0  0  0  0  0  0  0  0  0  0  0
   -5.6844   26.0091  -31.8432 H   0  0  0  0  0  0  0  0  0  0  0  0
   -1.1959   20.0279  -29.3334 H   0  0  0  0  0  0  0  0  0  0  0  0
    0.7313   19.6131  -27.8088 H   0  0  0  0  0  0  0  0  0  0  0  0
    1.8777   21.5199  -26.6853 H   0  0  0  0  0  0  0  0  0  0  0  0
   -1.0008   23.5445  -26.2142 H   0  0  0  0  0  0  0  0  0  0  0  0
   -1.4888   24.4898  -24.7365 H   0  0  0  0  0  0  0  0  0  0  0  0
   -2.8242   24.7340  -27.0350 H   0  0  0  0  0  0  0  0  0  0  0  0
   -2.5249   26.1440  -25.9525 H   0  0  0  0  0  0  0  0  0  0  0  0
    0.2235   27.3225  -27.8718 H   0  0  0  0  0  0  0  0  0  0  0  0
   -1.1562   27.8918  -26.8172 H   0  0  0  0  0  0  0  0  0  0  0  0
    1.2833   26.9654  -25.8953 H   0  0  0  0  0  0  0  0  0  0  0  0
   -0.2764   27.0265  -24.9626 H   0  0  0  0  0  0  0  0  0  0  0  0
   -0.8433   24.2872  -28.6018 H   0  0  0  0  0  0  0  0  0  0  0  0
  1  2  2  0
  2  3  1  0
  3  4  1  0
  4  5  2  0
  5  6  1  0
  6  7  1  0
  7  8  2  0
  7  9  2  0
  7 10  1  0
 10 11  1  0
 11 12  1  0
 12 13  1  0
 13 14  1  0
  6 15  2  0
 15 16  1  0
 16 17  2  0
 17 18  1  0
  2 19  1  0
 19 20  2  0
 20 21  1  0
 21 22  2  0
 22 23  1  0
 23 24  1  0
 24 25  2  0
 24 26  2  0
 24 27  1  0
 27 28  1  0
 28 29  1  0
 29 30  1  0
 30 31  1  0
 31 32  1  0
 23 33  2  0
 17  4  1  0
 33 19  1  0
 14 10  1  0
 32 27  1  0
  3 34  1  0
  5 35  1  0
 11 36  1  0
 11 37  1  0
 12 38  1  0
 12 39  1  0
 13 40  1  0
 13 41  1  0
 14 42  1  0
 14 43  1  0
 15 44  1  0
 16 45  1  0
 20 46  1  0
 21 47  1  0
 22 48  1  0
 28 49  1  0
 28 50  1  0
 29 51  1  0
 29 52  1  0
 31 53  1  0
 31 54  1  0
 32 55  1  0
 32 56  1  0
 33 57  1  0
M  CHG  1  18  -1
M  END
>  <UniqueID>  (35) 
34

>  <SMILES>  (35) 
O=C(Nc1cc(S(=O)(=O)N2CCCC2)ccc1[O-])c1cccc(S(=O)(=O)N2CCOCC2)c1

>  <Energy>  (35) 
78.17529353394343

>  <Genealogy>  (35) 
O=C(Nc1cc(S(=O)(=O)N2CCCC2)ccc1[O-])c1cccc(S(=O)(=O)N2CCOCC2)c1 (protonated)
O=C(Nc1cc(S(=O)(=O)N2CCCC2)ccc1[O-])c1cccc(S(=O)(=O)N2CCOCC2)c1 (3D coordinates assigned)
O=C(Nc1cc(S(=O)(=O)N2CCCC2)ccc1[O-])c1cccc(S(=O)(=O)N2CCOCC2)c1 (nonaromatic ring conformer: 78.17529353394343 kcal/mol)

>  <smiles>  (35) 
O=C(Nc1cc(S(=O)(=O)N2CCCC2)ccc1O)c1cccc(S(=O)(=O)N2CCOCC2)c1

>  <score_type>  (35) 
oracle

>  <origin>  (35) 
adgpu

>  <m_score__min__energy>  (35) 
-13.59

>  <m_primary>  (35) 
energy

$$$$
35:0
     RDKit          3D

 55 58  0  0  0  0  0  0  0  0999 V2000
   -4.9240   15.7650  -32.4670 C   0  0  0  0  0  0  0  0  0  0  0  0
   -5.2370   16.7860  -33.5220 C   0  0  0  0  0  0  0  0  0  0  0  0
   -4.7690   16.6190  -34.6830 O   0  0  0  0  0  0  0  0  0  0  0  0
   -6.0680   17.9320  -33.2340 N   0  0  0  0  0  0  0  0  0  0  0  0
   -6.9220   17.9410  -32.0330 C   0  0  0  0  0  0  0  0  0  0  0  0
   -7.8880   19.1300  -32.0270 C   0  0  0  0  0  0  0  0  0  0  0  0
   -7.1650   20.3660  -32.3520 N   0  0  0  0  0  0  0  0  0  0  0  0
   -7.5890   21.6080  -31.7650 C   0  0  0  0  0  0  0  0  0  0  0  0
   -8.8220   21.8160  -31.5820 O   0  0  0  0  0  0  0  0  0  0  0  0
   -6.6130   22.6520  -31.3810 C   0  0  0  0  0  0  0  0  0  0  0  0
   -7.0540   23.9240  -30.9970 C   0  0  0  0  0  0  0  0  0  0  0  0
   -6.1290   24.9240  -30.6900 C   0  0  0  0  0  0  0  0  0  0  0  0
   -4.7570   24.6650  -30.7650 C   0  0  0  0  0  0  0  0  0  0  0  0
   -3.8520   25.6770  -30.4680 O   0  0  0  0  0  0  0  0  0  0  0  0
   -4.2980   23.3920  -31.1360 C   0  0  0  0  0  0  0  0  0  0  0  0
   -2.8810   23.1670  -31.1940 N   0  0  0  0  0  0  0  0  0  0  0  0
   -2.0180   21.7960  -30.5660 S   0  0  0  0  0  0  0  0  0  0  0  0
   -2.7430   21.3130  -29.3400 O   0  0  0  0  0  0  0  0  0  0  0  0
   -0.6220   22.1720  -30.1570 O   0  0  0  0  0  0  0  0  0  0  0  0
   -1.9870   20.5050  -31.7700 C   0  0  0  0  0  0  0  0  0  0  0  0
   -2.7360   20.6210  -32.9510 C   0  0  0  0  0  0  0  0  0  0  0  0
   -2.7250   19.5910  -33.8980 C   0  0  0  0  0  0  0  0  0  0  0  0
   -1.9720   18.4300  -33.6700 C   0  0  0  0  0  0  0  0  0  0  0  0
   -1.2040   18.3160  -32.4910 C   0  0  0  0  0  0  0  0  0  0  0  0
   -1.2220   19.3500  -31.5460 C   0  0  0  0  0  0  0  0  0  0  0  0
   -0.4070   17.1450  -32.2630 N   0  0  0  0  0  0  0  0  0  0  0  0
   -0.5320   16.0120  -33.1300 C   0  0  0  0  0  0  0  0  0  0  0  0
    0.2480   15.0310  -33.0040 O   0  0  0  0  0  0  0  0  0  0  0  0
   -1.6370   15.9680  -34.1460 C   0  0  0  0  0  0  0  0  0  0  0  0
   -1.8800   17.3650  -34.7400 C   0  0  0  0  0  0  0  0  0  0  0  0
   -5.2340   22.3930  -31.4560 C   0  0  0  0  0  0  0  0  0  0  0  0
   -6.1900   20.3830  -33.4530 C   0  0  0  0  0  0  0  0  0  0  0  0
   -6.1500   19.0400  -34.1950 C   0  0  0  0  0  0  0  0  0  0  0  0
   -5.0612   16.2125  -31.4715 H   0  0  0  0  0  0  0  0  0  0  0  0
   -5.5994   14.9039  -32.5782 H   0  0  0  0  0  0  0  0  0  0  0  0
   -3.8820   15.4304  -32.5782 H   0  0  0  0  0  0  0  0  0  0  0  0
   -7.5054   17.0089  -32.0046 H   0  0  0  0  0  0  0  0  0  0  0  0
   -6.2695   18.0278  -31.1517 H   0  0  0  0  0  0  0  0  0  0  0  0
   -8.6770   18.9621  -32.7749 H   0  0  0  0  0  0  0  0  0  0  0  0
   -8.3362   19.2261  -31.0271 H   0  0  0  0  0  0  0  0  0  0  0  0
   -8.1317   24.1362  -30.9370 H   0  0  0  0  0  0  0  0  0  0  0  0
   -6.4816   25.9211  -30.3875 H   0  0  0  0  0  0  0  0  0  0  0  0
   -3.3345   21.5258  -33.1331 H   0  0  0  0  0  0  0  0  0  0  0  0
   -3.3090   19.6922  -34.8246 H   0  0  0  0  0  0  0  0  0  0  0  0
   -0.6325   19.2559  -30.6221 H   0  0  0  0  0  0  0  0  0  0  0  0
    0.2760   17.1150  -31.4690 H   0  0  0  0  0  0  0  0  0  0  0  0
   -1.3585   15.2750  -34.9536 H   0  0  0  0  0  0  0  0  0  0  0  0
   -2.5592   15.6262  -33.6533 H   0  0  0  0  0  0  0  0  0  0  0  0
   -1.0484   17.6125  -35.4162 H   0  0  0  0  0  0  0  0  0  0  0  0
   -2.8389   17.3421  -35.2785 H   0  0  0  0  0  0  0  0  0  0  0  0
   -4.8832   21.3983  -31.7683 H   0  0  0  0  0  0  0  0  0  0  0  0
   -6.4683   21.1751  -34.1637 H   0  0  0  0  0  0  0  0  0  0  0  0
   -5.1934   20.5695  -33.0263 H   0  0  0  0  0  0  0  0  0  0  0  0
   -7.0632   18.9309  -34.7984 H   0  0  0  0  0  0  0  0  0  0  0  0
   -5.2643   19.0162  -34.8468 H   0  0  0  0  0  0  0  0  0  0  0  0
  1  2  1  0
  2  3  2  0
  2  4  1  0
  4  5  1  0
  5  6  1  0
  6  7  1  0
  7  8  1  0
  8  9  2  0
  8 10  1  0
 10 11  2  0
 11 12  1  0
 12 13  2  0
 13 14  1  0
 13 15  1  0
 15 16  1  0
 16 17  1  0
 17 18  2  0
 17 19  2  0
 17 20  1  0
 20 21  2  0
 21 22  1  0
 22 23  2  0
 23 24  1  0
 24 25  2  0
 24 26  1  0
 26 27  1  0
 27 28  2  0
 27 29  1  0
 29 30  1  0
 15 31  2  0
  7 32  1  0
 32 33  1  0
 33  4  1  0
 31 10  1  0
 25 20  1  0
 30 23  1  0
  1 34  1  0
  1 35  1  0
  1 36  1  0
  5 37  1  0
  5 38  1  0
  6 39  1  0
  6 40  1  0
 11 41  1  0
 12 42  1  0
 21 43  1  0
 22 44  1  0
 25 45  1  0
 26 46  1  0
 29 47  1  0
 29 48  1  0
 30 49  1  0
 30 50  1  0
 31 51  1  0
 32 52  1  0
 32 53  1  0
 33 54  1  0
 33 55  1  0
M  CHG  2  14  -1  16  -1
M  END
>  <UniqueID>  (36) 
35

>  <SMILES>  (36) 
CC(=O)N1CCN(C(=O)c2ccc([O-])c([N-]S(=O)(=O)c3ccc4c(c3)NC(=O)CC4)c2)CC1

>  <Energy>  (36) 
67.0542295019165

>  <Genealogy>  (36) 
CC(=O)N1CCN(C(=O)c2ccc([O-])c([N-]S(=O)(=O)c3ccc4c(c3)NC(=O)CC4)c2)CC1 (protonated)
CC(=O)N1CCN(C(=O)c2ccc([O-])c([N-]S(=O)(=O)c3ccc4c(c3)NC(=O)CC4)c2)CC1 (3D coordinates assigned)
CC(=O)N1CCN(C(=O)c2ccc([O-])c([N-]S(=O)(=O)c3ccc4c(c3)NC(=O)CC4)c2)CC1 (nonaromatic ring conformer: 67.0542295019165 kcal/mol)

>  <smiles>  (36) 
CC(=O)N1CCN(C(=O)c2ccc(O)c(NS(=O)(=O)c3ccc4c(c3)NC(=O)CC4)c2)CC1

>  <score_type>  (36) 
oracle

>  <origin>  (36) 
adgpu

>  <m_score__min__energy>  (36) 
-14.99

>  <m_primary>  (36) 
energy

$$$$
36:0
     RDKit          3D

 36 38  0  0  0  0  0  0  0  0999 V2000
   -3.3040   24.1470  -28.5010 C   0  0  0  0  0  0  0  0  0  0  0  0
   -4.2990   24.0080  -29.6150 C   0  0  0  0  0  0  0  0  0  0  0  0
   -4.1100   23.0420  -30.6150 C   0  0  0  0  0  0  0  0  0  0  0  0
   -5.0590   22.8800  -31.6270 C   0  0  0  0  0  0  0  0  0  0  0  0
   -6.2190   23.6710  -31.6440 C   0  0  0  0  0  0  0  0  0  0  0  0
   -7.2790   23.4480  -32.6900 C   0  0  0  0  0  0  0  0  0  0  0  0
   -8.7920   22.7260  -31.9570 S   0  0  0  0  0  0  0  0  0  0  0  0
   -8.2950   21.0280  -32.2280 C   0  0  0  0  0  0  0  0  0  0  0  0
   -9.0740   20.0120  -31.7870 N   0  0  0  0  0  0  0  0  0  0  0  0
   -8.7230   18.7220  -32.0240 C   0  0  0  0  0  0  0  0  0  0  0  0
   -9.4720   17.8010  -31.5970 O   0  0  0  0  0  0  0  0  0  0  0  0
   -7.5770   18.4380  -32.7210 N   0  0  0  0  0  0  0  0  0  0  0  0
   -7.2130   17.1440  -32.9910 C   0  0  0  0  0  0  0  0  0  0  0  0
   -6.0500   16.8640  -33.7110 C   0  0  0  0  0  0  0  0  0  0  0  0
   -5.2370   17.9140  -34.1500 C   0  0  0  0  0  0  0  0  0  0  0  0
   -4.0080   17.6340  -34.9640 C   0  0  0  0  0  0  0  0  0  0  0  0
   -5.6210   19.2320  -33.8820 C   0  0  0  0  0  0  0  0  0  0  0  0
   -6.7910   19.4790  -33.1580 C   0  0  0  0  0  0  0  0  0  0  0  0
   -7.1540   20.7600  -32.9050 N   0  0  0  0  0  0  0  0  0  0  0  0
   -6.4150   24.6270  -30.6350 C   0  0  0  0  0  0  0  0  0  0  0  0
   -5.4630   24.7910  -29.6250 C   0  0  0  0  0  0  0  0  0  0  0  0
   -3.8235   24.0744  -27.5341 H   0  0  0  0  0  0  0  0  0  0  0  0
   -2.5552   23.3447  -28.5760 H   0  0  0  0  0  0  0  0  0  0  0  0
   -2.8037   25.1238  -28.5760 H   0  0  0  0  0  0  0  0  0  0  0  0
   -3.2103   22.4093  -30.6019 H   0  0  0  0  0  0  0  0  0  0  0  0
   -4.8968   22.1292  -32.4144 H   0  0  0  0  0  0  0  0  0  0  0  0
   -7.5311   24.4119  -33.1562 H   0  0  0  0  0  0  0  0  0  0  0  0
   -6.8859   22.7452  -33.4393 H   0  0  0  0  0  0  0  0  0  0  0  0
   -7.8448   16.3165  -32.6361 H   0  0  0  0  0  0  0  0  0  0  0  0
   -5.7744   15.8223  -33.9320 H   0  0  0  0  0  0  0  0  0  0  0  0
   -3.1591   17.4406  -34.2917 H   0  0  0  0  0  0  0  0  0  0  0  0
   -4.1815   16.7524  -35.5985 H   0  0  0  0  0  0  0  0  0  0  0  0
   -3.7824   18.5038  -35.5985 H   0  0  0  0  0  0  0  0  0  0  0  0
   -5.0051   20.0704  -34.2394 H   0  0  0  0  0  0  0  0  0  0  0  0
   -7.3217   25.2497  -30.6393 H   0  0  0  0  0  0  0  0  0  0  0  0
   -5.6272   25.5376  -28.8341 H   0  0  0  0  0  0  0  0  0  0  0  0
  1  2  1  0
  2  3  2  0
  3  4  1  0
  4  5  2  0
  5  6  1  0
  6  7  1  0
  7  8  1  0
  8  9  2  0
  9 10  1  0
 10 11  2  0
 10 12  1  0
 12 13  1  0
 13 14  2  0
 14 15  1  0
 15 16  1  0
 15 17  2  0
 17 18  1  0
 18 19  2  0
  5 20  1  0
 20 21  2  0
 21  2  1  0
 19  8  1  0
 18 12  1  0
  1 22  1  0
  1 23  1  0
  1 24  1  0
  3 25  1  0
  4 26  1  0
  6 27  1  0
  6 28  1  0
 13 29  1  0
 14 30  1  0
 16 31  1  0
 16 32  1  0
 16 33  1  0
 17 34  1  0
 20 35  1  0
 21 36  1  0
M  END
>  <UniqueID>  (37) 
36

>  <SMILES>  (37) 
Cc1ccc(CSc2nc(=O)n3ccc(C)cc3n2)cc1

>  <Energy>  (37) 
36.3168995338643

>  <Genealogy>  (37) 
Cc1ccc(CSc2nc(=O)n3ccc(C)cc3n2)cc1 (3D coordinates assigned)
Cc1ccc(CSc2nc(=O)n3ccc(C)cc3n2)cc1 (optimized conformer: 36.3168995338643 kcal/mol)

>  <smiles>  (37) 
Cc1ccc(CSc2nc(=O)n3ccc(C)cc3n2)cc1

>  <score_type>  (37) 
oracle

>  <origin>  (37) 
adgpu

>  <m_score__min__energy>  (37) 
-8.2400000000000002

>  <m_primary>  (37) 
energy

$$$$
37:0
     RDKit          3D

 43 45  0  0  0  0  0  0  0  0999 V2000
   -5.7370   26.0820  -31.2250 O   0  0  0  0  0  0  0  0  0  0  0  0
   -5.2520   24.9040  -30.4280 S   0  0  0  0  0  0  0  0  0  0  0  0
   -5.7070   25.0540  -29.0040 O   0  0  0  0  0  0  0  0  0  0  0  0
   -3.5200   24.8480  -30.4780 N   0  0  0  0  0  0  0  0  0  0  0  0
   -2.6980   24.1660  -29.5170 C   0  0  0  0  0  0  0  0  0  0  0  0
   -2.9960   22.8550  -29.0980 C   0  0  0  0  0  0  0  0  0  0  0  0
   -2.1610   22.1930  -28.1930 C   0  0  0  0  0  0  0  0  0  0  0  0
   -2.5370   20.5540  -27.6920 Cl  0  0  0  0  0  0  0  0  0  0  0  0
   -1.0290   22.8370  -27.6890 C   0  0  0  0  0  0  0  0  0  0  0  0
   -0.7370   24.1450  -28.0790 C   0  0  0  0  0  0  0  0  0  0  0  0
   -1.5660   24.8150  -28.9880 C   0  0  0  0  0  0  0  0  0  0  0  0
   -1.2380   26.1200  -29.3590 O   0  0  0  0  0  0  0  0  0  0  0  0
   -5.8880   23.4270  -31.1450 C   0  0  0  0  0  0  0  0  0  0  0  0
   -7.2170   23.3570  -31.5840 C   0  0  0  0  0  0  0  0  0  0  0  0
   -7.7510   22.1370  -32.0080 C   0  0  0  0  0  0  0  0  0  0  0  0
   -6.9610   20.9780  -31.9970 C   0  0  0  0  0  0  0  0  0  0  0  0
   -7.6730   19.4140  -32.4000 S   0  0  0  0  0  0  0  0  0  0  0  0
   -7.5530   18.4930  -31.2180 O   0  0  0  0  0  0  0  0  0  0  0  0
   -9.1340   19.5970  -32.7040 O   0  0  0  0  0  0  0  0  0  0  0  0
   -6.8770   18.6920  -33.7810 N   0  0  0  0  0  0  0  0  0  0  0  0
   -6.5270   17.2870  -33.4980 C   0  0  0  0  0  0  0  0  0  0  0  0
   -5.4210   16.8000  -34.4510 C   0  0  0  0  0  0  0  0  0  0  0  0
   -4.2120   17.5480  -34.3740 O   0  0  0  0  0  0  0  0  0  0  0  0
   -4.3780   18.8520  -33.8380 C   0  0  0  0  0  0  0  0  0  0  0  0
   -5.7190   19.4980  -34.2300 C   0  0  0  0  0  0  0  0  0  0  0  0
   -5.6180   21.0620  -31.6070 C   0  0  0  0  0  0  0  0  0  0  0  0
   -5.0860   22.2790  -31.1760 C   0  0  0  0  0  0  0  0  0  0  0  0
   -3.8921   22.3482  -29.4855 H   0  0  0  0  0  0  0  0  0  0  0  0
   -0.3669   22.3130  -26.9840 H   0  0  0  0  0  0  0  0  0  0  0  0
    0.1491   24.6526  -27.6702 H   0  0  0  0  0  0  0  0  0  0  0  0
   -1.2310   26.4240  -30.3250 H   0  0  0  0  0  0  0  0  0  0  0  0
   -7.8405   24.2632  -31.5949 H   0  0  0  0  0  0  0  0  0  0  0  0
   -8.7947   22.0855  -32.3516 H   0  0  0  0  0  0  0  0  0  0  0  0
   -6.1714   17.2053  -32.4603 H   0  0  0  0  0  0  0  0  0  0  0  0
   -7.4209   16.6631  -33.6450 H   0  0  0  0  0  0  0  0  0  0  0  0
   -5.1938   15.7515  -34.2083 H   0  0  0  0  0  0  0  0  0  0  0  0
   -5.8065   16.9274  -35.4733 H   0  0  0  0  0  0  0  0  0  0  0  0
   -4.3268   18.7890  -32.7410 H   0  0  0  0  0  0  0  0  0  0  0  0
   -3.5765   19.4818  -34.2514 H   0  0  0  0  0  0  0  0  0  0  0  0
   -5.7807   20.4950  -33.7694 H   0  0  0  0  0  0  0  0  0  0  0  0
   -5.7561   19.5628  -35.3275 H   0  0  0  0  0  0  0  0  0  0  0  0
   -4.9805   20.1662  -31.6404 H   0  0  0  0  0  0  0  0  0  0  0  0
   -4.0340   22.3363  -30.8599 H   0  0  0  0  0  0  0  0  0  0  0  0
  1  2  2  0
  2  3  2  0
  2  4  1  0
  4  5  1  0
  5  6  2  0
  6  7  1  0
  7  8  1  0
  7  9  2  0
  9 10  1  0
 10 11  2  0
 11 12  1  0
  2 13  1  0
 13 14  2  0
 14 15  1  0
 15 16  2  0
 16 17  1  0
 17 18  2  0
 17 19  2  0
 17 20  1  0
 20 21  1  0
 21 22  1  0
 22 23  1  0
 23 24  1  0
 24 25  1  0
 16 26  1  0
 26 27  2  0
 11  5  1  0
 27 13  1  0
 25 20  1  0
  6 28  1  0
  9 29  1  0
 10 30  1  0
 12 31  1  0
 14 32  1  0
 15 33  1  0
 21 34  1  0
 21 35  1  0
 22 36  1  0
 22 37  1  0
 24 38  1  0
 24 39  1  0
 25 40  1  0
 25 41  1  0
 26 42  1  0
 27 43  1  0
M  CHG  1   4  -1
M  END
>  <UniqueID>  (38) 
37

>  <SMILES>  (38) 
O=S(=O)([N-]c1cc(Cl)ccc1O)c1ccc(S(=O)(=O)N2CCOCC2)cc1

>  <Energy>  (38) 
57.527296745368616

>  <Genealogy>  (38) 
O=S(=O)([N-]c1cc(Cl)ccc1O)c1ccc(S(=O)(=O)N2CCOCC2)cc1 (protonated)
O=S(=O)([N-]c1cc(Cl)ccc1O)c1ccc(S(=O)(=O)N2CCOCC2)cc1 (3D coordinates assigned)
O=S(=O)([N-]c1cc(Cl)ccc1O)c1ccc(S(=O)(=O)N2CCOCC2)cc1 (nonaromatic ring conformer: 57.527296745368616 kcal/mol)

>  <smiles>  (38) 
O=S(=O)(Nc1cc(Cl)ccc1O)c1ccc(S(=O)(=O)N2CCOCC2)cc1

>  <score_type>  (38) 
oracle

>  <origin>  (38) 
adgpu

>  <m_score__min__energy>  (38) 
-12.58

>  <m_primary>  (38) 
energy

$$$$
38:0
     RDKit          3D

 76 81  0  0  0  0  0  0  0  0999 V2000
    0.7950   17.1750  -35.2710 C   0  0  0  0  0  0  0  0  0  0  0  0
    0.1440   17.5700  -34.0680 O   0  0  0  0  0  0  0  0  0  0  0  0
    0.5490   17.2160  -32.7680 C   0  0  0  0  0  0  0  0  0  0  0  0
    1.1120   15.9500  -32.5250 C   0  0  0  0  0  0  0  0  0  0  0  0
    1.4230   15.5290  -31.2290 C   0  0  0  0  0  0  0  0  0  0  0  0
    2.0530   14.1970  -31.0110 C   0  0  0  0  0  0  0  0  0  0  0  0
    1.3450   13.0910  -30.2840 C   0  0  0  0  0  0  0  0  0  0  0  0
    3.2240   13.9830  -31.4270 O   0  0  0  0  0  0  0  0  0  0  0  0
    1.1100   16.3710  -30.1570 C   0  0  0  0  0  0  0  0  0  0  0  0
    0.5490   17.6410  -30.3600 C   0  0  0  0  0  0  0  0  0  0  0  0
    0.0860   18.5790  -28.9210 S   0  0  0  0  0  0  0  0  0  0  0  0
    1.3510   19.7220  -28.3980 C   0  0  0  0  0  0  0  0  0  0  0  0
   -1.1640   19.3610  -29.2100 O   0  0  0  0  0  0  0  0  0  0  0  0
   -0.1620   17.6400  -27.7750 O   0  0  0  0  0  0  0  0  0  0  0  0
    0.3440   18.1250  -31.6880 C   0  0  0  0  0  0  0  0  0  0  0  0
   -0.0690   19.6090  -31.8950 C   0  0  1  0  0  0  0  0  0  0  0  0
    0.6250   20.3770  -32.9340 N   0  0  1  0  0  0  0  0  0  0  0  0
    1.9140   19.9430  -33.4340 C   0  0  0  0  0  0  0  0  0  0  0  0
    2.6980   19.3140  -32.6720 O   0  0  0  0  0  0  0  0  0  0  0  0
    2.4300   20.3900  -34.7500 C   0  0  0  0  0  0  0  0  0  0  0  0
    2.2030   21.6970  -35.2130 C   0  0  0  0  0  0  0  0  0  0  0  0
    2.7180   22.0890  -36.4500 C   0  0  0  0  0  0  0  0  0  0  0  0
    3.4480   21.2180  -37.1940 N   0  0  0  0  0  0  0  0  0  0  0  0
    3.7020   19.9540  -36.7620 C   0  0  0  0  0  0  0  0  0  0  0  0
    3.2060   19.5210  -35.5300 C   0  0  0  0  0  0  0  0  0  0  0  0
   -0.5200   20.3150  -33.8570 C   0  0  0  0  0  0  0  0  0  0  0  0
   -0.7350   20.5600  -35.0330 O   0  0  0  0  0  0  0  0  0  0  0  0
   -1.3510   19.8650  -32.6460 C   0  0  2  0  0  0  0  0  0  0  0  0
   -2.1320   21.0920  -32.0910 C   0  0  0  0  0  0  0  0  0  0  0  0
   -3.5020   20.9400  -32.5720 N   0  0  0  0  0  0  0  0  0  0  0  0
   -4.2430   22.0420  -33.1920 C   0  0  0  0  0  0  0  0  0  0  0  0
   -5.3600   22.4960  -32.2870 C   0  0  0  0  0  0  0  0  0  0  0  0
   -6.6100   21.8600  -32.3360 C   0  0  0  0  0  0  0  0  0  0  0  0
   -7.6660   22.3250  -31.5510 C   0  0  0  0  0  0  0  0  0  0  0  0
   -7.4920   23.4350  -30.7220 C   0  0  0  0  0  0  0  0  0  0  0  0
   -6.2560   24.1050  -30.6820 C   0  0  0  0  0  0  0  0  0  0  0  0
   -6.0440   25.2960  -29.7820 C   0  0  0  0  0  0  0  0  0  0  0  0
   -7.2490   25.8040  -29.3270 F   0  0  0  0  0  0  0  0  0  0  0  0
   -5.3830   26.2980  -30.4690 F   0  0  0  0  0  0  0  0  0  0  0  0
   -5.2780   24.9150  -28.6950 F   0  0  0  0  0  0  0  0  0  0  0  0
   -5.1870   23.6100  -31.4490 C   0  0  0  0  0  0  0  0  0  0  0  0
   -3.6620   19.5790  -32.9490 C   0  0  0  0  0  0  0  0  0  0  0  0
   -4.8790   18.9640  -33.2680 C   0  0  0  0  0  0  0  0  0  0  0  0
   -4.8810   17.6070  -33.6030 C   0  0  0  0  0  0  0  0  0  0  0  0
   -3.6800   16.8850  -33.6070 C   0  0  0  0  0  0  0  0  0  0  0  0
   -2.4690   17.5140  -33.2840 C   0  0  0  0  0  0  0  0  0  0  0  0
   -2.4680   18.8790  -32.9500 C   0  0  0  0  0  0  0  0  0  0  0  0
    1.7118   16.6187  -35.0261 H   0  0  0  0  0  0  0  0  0  0  0  0
    0.1222   16.5327  -35.8582 H   0  0  0  0  0  0  0  0  0  0  0  0
    1.0540   18.0684  -35.8582 H   0  0  0  0  0  0  0  0  0  0  0  0
    1.3116   15.2775  -33.3723 H   0  0  0  0  0  0  0  0  0  0  0  0
    1.4429   13.2439  -29.1991 H   0  0  0  0  0  0  0  0  0  0  0  0
    0.2802   13.0935  -30.5601 H   0  0  0  0  0  0  0  0  0  0  0  0
    1.7931   12.1251  -30.5601 H   0  0  0  0  0  0  0  0  0  0  0  0
    1.3083   16.0295  -29.1303 H   0  0  0  0  0  0  0  0  0  0  0  0
    1.3854   19.7531  -27.2990 H   0  0  0  0  0  0  0  0  0  0  0  0
    2.3261   19.3926  -28.7862 H   0  0  0  0  0  0  0  0  0  0  0  0
    1.1218   20.7254  -28.7862 H   0  0  0  0  0  0  0  0  0  0  0  0
    0.0414   19.8679  -30.8316 H   0  0  0  0  0  0  0  0  0  0  0  0
    0.7380   21.3760  -32.6280 H   0  0  0  0  0  0  0  0  0  0  0  0
    1.6232   22.4068  -34.6047 H   0  0  0  0  0  0  0  0  0  0  0  0
    2.5320   23.1068  -36.8235 H   0  0  0  0  0  0  0  0  0  0  0  0
    4.2993   19.2710  -37.3839 H   0  0  0  0  0  0  0  0  0  0  0  0
    3.4232   18.5033  -35.1736 H   0  0  0  0  0  0  0  0  0  0  0  0
   -2.1099   21.0950  -30.9912 H   0  0  0  0  0  0  0  0  0  0  0  0
   -1.6875   22.0409  -32.4257 H   0  0  0  0  0  0  0  0  0  0  0  0
   -3.5579   22.8834  -33.3730 H   0  0  0  0  0  0  0  0  0  0  0  0
   -4.6722   21.6941  -34.1432 H   0  0  0  0  0  0  0  0  0  0  0  0
   -6.7579   20.9920  -32.9954 H   0  0  0  0  0  0  0  0  0  0  0  0
   -8.6399   21.8147  -31.5855 H   0  0  0  0  0  0  0  0  0  0  0  0
   -8.3258   23.7873  -30.0970 H   0  0  0  0  0  0  0  0  0  0  0  0
   -4.2040   24.1005  -31.3923 H   0  0  0  0  0  0  0  0  0  0  0  0
   -5.8168   19.5387  -33.2552 H   0  0  0  0  0  0  0  0  0  0  0  0
   -5.8250   17.1060  -33.8634 H   0  0  0  0  0  0  0  0  0  0  0  0
   -3.6872   15.8159  -33.8657 H   0  0  0  0  0  0  0  0  0  0  0  0
   -1.5282   16.9440  -33.2920 H   0  0  0  0  0  0  0  0  0  0  0  0
  1  2  1  0
  2  3  1  0
  3  4  2  0
  4  5  1  0
  5  6  1  0
  6  7  1  0
  6  8  2  0
  5  9  2  0
  9 10  1  0
 10 11  1  0
 11 12  1  0
 11 13  2  0
 11 14  2  0
 10 15  2  0
 15 16  1  0
 16 17  1  0
 17 18  1  0
 18 19  2  0
 18 20  1  0
 20 21  2  0
 21 22  1  0
 22 23  2  0
 23 24  1  0
 24 25  2  0
 17 26  1  0
 26 27  2  0
 26 28  1  0
 28 29  1  1
 29 30  1  0
 30 31  1  0
 31 32  1  0
 32 33  2  0
 33 34  1  0
 34 35  2  0
 35 36  1  0
 36 37  1  0
 37 38  1  0
 37 39  1  0
 37 40  1  0
 36 41  2  0
 30 42  1  0
 42 43  2  0
 43 44  1  0
 44 45  2  0
 45 46  1  0
 46 47  2  0
 15  3  1  0
 28 16  1  0
 41 32  1  0
 47 42  1  0
 25 20  1  0
 47 28  1  0
  1 48  1  0
  1 49  1  0
  1 50  1  0
  4 51  1  0
  7 52  1  0
  7 53  1  0
  7 54  1  0
  9 55  1  0
 12 56  1  0
 12 57  1  0
 12 58  1  0
 16 59  1  1
 17 60  1  1
 21 61  1  0
 22 62  1  0
 24 63  1  0
 25 64  1  0
 29 65  1  0
 29 66  1  0
 31 67  1  0
 31 68  1  0
 33 69  1  0
 34 70  1  0
 35 71  1  0
 41 72  1  0
 43 73  1  0
 44 74  1  0
 45 75  1  0
 46 76  1  0
M  CHG  1  17   1
M  END
>  <UniqueID>  (39) 
38

>  <SMILES>  (39) 
COc1cc(C(C)=O)cc(S(C)(=O)=O)c1[C@H]1[N@@H+](C(=O)c2ccncc2)C(=O)C12CN(Cc1cccc(C(F)(F)F)c1)c1ccccc12

>  <Energy>  (39) 
190.96302594761286

>  <Genealogy>  (39) 
COc1cc(C(C)=O)cc(S(C)(=O)=O)c1C1[NH+](C(=O)c2ccncc2)C(=O)C12CN(Cc1cccc(C(F)(F)F)c1)c1ccccc12 (protonated)
COc1cc(C(C)=O)cc(S(C)(=O)=O)c1[C@H]1[N@@H+](C(=O)c2ccncc2)C(=O)C12CN(Cc1cccc(C(F)(F)F)c1)c1ccccc12 (chirality)
COc1cc(C(C)=O)cc(S(C)(=O)=O)c1[C@H]1[N@@H+](C(=O)c2ccncc2)C(=O)C12CN(Cc1cccc(C(F)(F)F)c1)c1ccccc12 (3D coordinates assigned)
COc1cc(C(C)=O)cc(S(C)(=O)=O)c1[C@H]1[N@@H+](C(=O)c2ccncc2)C(=O)C12CN(Cc1cccc(C(F)(F)F)c1)c1ccccc12 (nonaromatic ring conformer: 190.96302594761286 kcal/mol)

>  <smiles>  (39) 
COc1cc(C(C)=O)cc(S(C)(=O)=O)c1C1N(C(=O)c2ccncc2)C(=O)C12CN(Cc1cccc(C(F)(F)F)c1)c1ccccc12

>  <score_type>  (39) 
oracle

>  <origin>  (39) 
adgpu

>  <m_score__min__energy>  (39) 
-8.0399999999999991

>  <m_primary>  (39) 
energy

$$$$
39:0
     RDKit          3D

 64 67  0  0  0  0  0  0  0  0999 V2000
   -8.3530   20.8020  -32.3300 C   0  0  0  0  0  0  0  0  0  0  0  0
   -7.4310   21.9180  -31.9070 C   0  0  0  0  0  0  0  0  0  0  0  0
   -7.9180   22.9110  -31.0450 C   0  0  0  0  0  0  0  0  0  0  0  0
   -7.0950   23.9650  -30.6420 C   0  0  0  0  0  0  0  0  0  0  0  0
   -5.7700   24.0540  -31.1010 C   0  0  0  0  0  0  0  0  0  0  0  0
   -4.9010   25.1770  -30.6790 C   0  0  0  0  0  0  0  0  0  0  0  0
   -5.4030   26.3170  -30.4770 O   0  0  0  0  0  0  0  0  0  0  0  0
   -3.5040   24.9550  -30.4420 N   0  0  0  0  0  0  0  0  0  0  0  0
   -2.9220   24.1160  -29.4260 C   0  0  0  0  0  0  0  0  0  0  0  0
   -2.8410   24.5510  -28.0910 C   0  0  0  0  0  0  0  0  0  0  0  0
   -2.2590   23.7440  -27.1170 C   0  0  0  0  0  0  0  0  0  0  0  0
   -1.7130   22.5110  -27.4630 C   0  0  0  0  0  0  0  0  0  0  0  0
   -1.7420   22.0640  -28.7940 C   0  0  0  0  0  0  0  0  0  0  0  0
   -1.1250   20.7310  -29.1270 C   0  0  0  0  0  0  0  0  0  0  0  0
   -2.3680   22.8620  -29.7860 C   0  0  0  0  0  0  0  0  0  0  0  0
   -2.3980   22.4130  -31.2300 C   0  0  0  0  0  0  0  0  0  0  0  0
   -5.2770   23.0510  -31.9540 C   0  0  0  0  0  0  0  0  0  0  0  0
   -6.0850   21.9710  -32.3340 C   0  0  0  0  0  0  0  0  0  0  0  0
   -5.5220   20.9410  -33.1570 N   0  0  0  0  0  0  0  0  0  0  0  0
   -4.8570   19.7980  -32.5910 C   0  0  0  0  0  0  0  0  0  0  0  0
   -4.6120   19.7630  -31.3540 O   0  0  0  0  0  0  0  0  0  0  0  0
   -4.4440   18.6640  -33.4460 C   0  0  0  0  0  0  0  0  0  0  0  0
   -5.4080   17.7920  -33.9740 C   0  0  0  0  0  0  0  0  0  0  0  0
   -5.0070   16.7390  -34.7980 C   0  0  0  0  0  0  0  0  0  0  0  0
   -3.6920   16.5640  -35.0890 N   0  0  0  0  0  0  0  0  0  0  0  0
   -2.7210   17.3870  -34.5990 C   0  0  0  0  0  0  0  0  0  0  0  0
   -1.3430   17.1600  -34.9720 N   0  0  0  0  0  0  0  0  0  0  0  0
   -0.9280   15.9580  -35.7120 C   0  0  0  0  0  0  0  0  0  0  0  0
    0.1360   16.2920  -36.7760 C   0  0  0  0  0  0  0  0  0  0  0  0
    1.0920   17.3630  -36.3890 N   0  0  0  0  0  0  0  0  0  0  0  0
    0.9090   18.5760  -37.2090 C   0  0  0  0  0  0  0  0  0  0  0  0
    1.0810   17.6760  -34.9450 C   0  0  0  0  0  0  0  0  0  0  0  0
   -0.3190   18.0790  -34.4620 C   0  0  0  0  0  0  0  0  0  0  0  0
   -3.0930   18.4660  -33.7730 C   0  0  0  0  0  0  0  0  0  0  0  0
   -8.7624   20.3064  -31.4374 H   0  0  0  0  0  0  0  0  0  0  0  0
   -9.1769   21.2148  -32.9306 H   0  0  0  0  0  0  0  0  0  0  0  0
   -7.7921   20.0708  -32.9306 H   0  0  0  0  0  0  0  0  0  0  0  0
   -8.9557   22.8595  -30.6836 H   0  0  0  0  0  0  0  0  0  0  0  0
   -7.4878   24.7326  -29.9589 H   0  0  0  0  0  0  0  0  0  0  0  0
   -3.2410   25.5375  -27.8139 H   0  0  0  0  0  0  0  0  0  0  0  0
   -2.2305   24.0818  -26.0706 H   0  0  0  0  0  0  0  0  0  0  0  0
   -1.2546   21.8810  -26.6865 H   0  0  0  0  0  0  0  0  0  0  0  0
   -0.8785   20.1984  -28.1966 H   0  0  0  0  0  0  0  0  0  0  0  0
   -1.8380   20.1333  -29.7138 H   0  0  0  0  0  0  0  0  0  0  0  0
   -0.2079   20.8878  -29.7138 H   0  0  0  0  0  0  0  0  0  0  0  0
   -2.4713   21.3162  -31.2715 H   0  0  0  0  0  0  0  0  0  0  0  0
   -3.2684   22.8580  -31.7343 H   0  0  0  0  0  0  0  0  0  0  0  0
   -1.4761   22.7382  -31.7343 H   0  0  0  0  0  0  0  0  0  0  0  0
   -4.2444   23.1148  -32.3277 H   0  0  0  0  0  0  0  0  0  0  0  0
   -5.3620   21.1570  -34.1690 H   0  0  0  0  0  0  0  0  0  0  0  0
   -6.4730   17.9372  -33.7401 H   0  0  0  0  0  0  0  0  0  0  0  0
   -5.7574   16.0497  -35.2124 H   0  0  0  0  0  0  0  0  0  0  0  0
   -0.5089   15.2284  -35.0034 H   0  0  0  0  0  0  0  0  0  0  0  0
   -1.8100   15.5440  -36.2225 H   0  0  0  0  0  0  0  0  0  0  0  0
    0.7119   15.3778  -36.9824 H   0  0  0  0  0  0  0  0  0  0  0  0
   -0.4113   16.6683  -37.6528 H   0  0  0  0  0  0  0  0  0  0  0  0
    0.7775   19.4473  -36.5506 H   0  0  0  0  0  0  0  0  0  0  0  0
    1.7946   18.7265  -37.8439 H   0  0  0  0  0  0  0  0  0  0  0  0
    0.0184   18.4585  -37.8439 H   0  0  0  0  0  0  0  0  0  0  0  0
    1.4092   16.7878  -34.3852 H   0  0  0  0  0  0  0  0  0  0  0  0
    1.7603   18.5239  -34.7728 H   0  0  0  0  0  0  0  0  0  0  0  0
   -0.3376   18.0618  -33.3623 H   0  0  0  0  0  0  0  0  0  0  0  0
   -0.5394   19.0887  -34.8388 H   0  0  0  0  0  0  0  0  0  0  0  0
   -2.3261   19.1524  -33.3848 H   0  0  0  0  0  0  0  0  0  0  0  0
  1  2  1  0
  2  3  2  0
  3  4  1  0
  4  5  2  0
  5  6  1  0
  6  7  2  0
  6  8  1  0
  8  9  1  0
  9 10  2  0
 10 11  1  0
 11 12  2  0
 12 13  1  0
 13 14  1  0
 13 15  2  0
 15 16  1  0
  5 17  1  0
 17 18  2  0
 18 19  1  0
 19 20  1  0
 20 21  2  0
 20 22  1  0
 22 23  2  0
 23 24  1  0
 24 25  2  0
 25 26  1  0
 26 27  1  0
 27 28  1  0
 28 29  1  0
 29 30  1  0
 30 31  1  0
 30 32  1  0
 32 33  1  0
 26 34  2  0
 18  2  1  0
 34 22  1  0
 15  9  1  0
 33 27  1  0
  1 35  1  0
  1 36  1  0
  1 37  1  0
  3 38  1  0
  4 39  1  0
 10 40  1  0
 11 41  1  0
 12 42  1  0
 14 43  1  0
 14 44  1  0
 14 45  1  0
 16 46  1  0
 16 47  1  0
 16 48  1  0
 17 49  1  0
 19 50  1  0
 23 51  1  0
 24 52  1  0
 28 53  1  0
 28 54  1  0
 29 55  1  0
 29 56  1  0
 31 57  1  0
 31 58  1  0
 31 59  1  0
 32 60  1  0
 32 61  1  0
 33 62  1  0
 33 63  1  0
 34 64  1  0
M  CHG  1   8  -1
M  END
>  <UniqueID>  (40) 
39

>  <SMILES>  (40) 
Cc1ccc(C(=O)[N-]c2cccc(C)c2C)cc1NC(=O)c1ccnc(N2CCN(C)CC2)c1

>  <Energy>  (40) 
92.14257730296224

>  <Genealogy>  (40) 
Cc1ccc(C(=O)[N-]c2cccc(C)c2C)cc1NC(=O)c1ccnc(N2CCN(C)CC2)c1 (protonated)
Cc1ccc(C(=O)[N-]c2cccc(C)c2C)cc1NC(=O)c1ccnc(N2CCN(C)CC2)c1 (3D coordinates assigned)
Cc1ccc(C(=O)[N-]c2cccc(C)c2C)cc1NC(=O)c1ccnc(N2CCN(C)CC2)c1 (nonaromatic ring conformer: 92.14257730296224 kcal/mol)

>  <smiles>  (40) 
Cc1ccc(C(=O)Nc2cccc(C)c2C)cc1NC(=O)c1ccnc(N2CCN(C)CC2)c1

>  <score_type>  (40) 
oracle

>  <origin>  (40) 
adgpu

>  <m_score__min__energy>  (40) 
-11.220000000000001

>  <m_primary>  (40) 
energy

$$$$
40:0
     RDKit          3D

 42 44  0  0  0  0  0  0  0  0999 V2000
   -6.4260   25.7020  -29.3980 C   0  0  0  0  0  0  0  0  0  0  0  0
   -6.1680   24.5830  -30.3530 C   0  0  0  0  0  0  0  0  0  0  0  0
   -7.0970   23.6740  -30.7150 N   0  0  0  0  0  0  0  0  0  0  0  0
   -6.4880   22.7400  -31.4340 N   0  0  0  0  0  0  0  0  0  0  0  0
   -7.1670   21.5640  -31.9620 C   0  0  0  0  0  0  0  0  0  0  0  0
   -5.1690   23.0210  -31.5330 C   0  0  0  0  0  0  0  0  0  0  0  0
   -4.1430   22.1390  -32.1760 C   0  0  0  0  0  0  0  0  0  0  0  0
   -4.9380   24.1930  -30.8440 C   0  0  0  0  0  0  0  0  0  0  0  0
   -3.6750   24.7620  -30.5010 N   0  0  0  0  0  0  0  0  0  0  0  0
   -3.0300   24.5940  -28.9050 S   0  0  0  0  0  0  0  0  0  0  0  0
   -1.9780   25.6380  -28.6560 O   0  0  0  0  0  0  0  0  0  0  0  0
   -4.1370   24.7800  -27.9050 O   0  0  0  0  0  0  0  0  0  0  0  0
   -2.3440   22.9830  -28.7260 C   0  0  0  0  0  0  0  0  0  0  0  0
   -3.0560   21.9910  -28.0420 C   0  0  0  0  0  0  0  0  0  0  0  0
   -2.4930   20.7270  -27.8470 C   0  0  0  0  0  0  0  0  0  0  0  0
   -1.2030   20.4370  -28.3270 C   0  0  0  0  0  0  0  0  0  0  0  0
   -0.6320   19.1270  -28.1230 N   0  0  0  0  0  0  0  0  0  0  0  0
    0.4940   18.5730  -28.8750 C   0  0  0  0  0  0  0  0  0  0  0  0
    0.8460   17.2300  -28.1880 C   0  0  0  0  0  0  0  0  0  0  0  0
   -0.1250   17.0630  -27.1190 N   0  0  0  0  0  0  0  0  0  0  0  0
   -0.9740   18.1860  -27.1210 C   0  0  0  0  0  0  0  0  0  0  0  0
   -1.9730   18.2910  -26.3600 O   0  0  0  0  0  0  0  0  0  0  0  0
   -0.4990   21.4350  -29.0250 C   0  0  0  0  0  0  0  0  0  0  0  0
   -1.0630   22.7000  -29.2160 C   0  0  0  0  0  0  0  0  0  0  0  0
   -6.3404   25.3305  -28.3662 H   0  0  0  0  0  0  0  0  0  0  0  0
   -5.6886   26.5016  -29.5622 H   0  0  0  0  0  0  0  0  0  0  0  0
   -7.4390   26.0980  -29.5622 H   0  0  0  0  0  0  0  0  0  0  0  0
   -7.5258   20.9426  -31.1283 H   0  0  0  0  0  0  0  0  0  0  0  0
   -8.0217   21.8799  -32.5782 H   0  0  0  0  0  0  0  0  0  0  0  0
   -6.4661   20.9817  -32.5782 H   0  0  0  0  0  0  0  0  0  0  0  0
   -3.5543   21.6329  -31.3967 H   0  0  0  0  0  0  0  0  0  0  0  0
   -4.6461   21.3871  -32.8017 H   0  0  0  0  0  0  0  0  0  0  0  0
   -3.4752   22.7493  -32.8017 H   0  0  0  0  0  0  0  0  0  0  0  0
   -4.0632   22.2073  -27.6562 H   0  0  0  0  0  0  0  0  0  0  0  0
   -3.0634   19.9523  -27.3137 H   0  0  0  0  0  0  0  0  0  0  0  0
    0.2069   18.4026  -29.9231 H   0  0  0  0  0  0  0  0  0  0  0  0
    1.3527   19.2605  -28.8800 H   0  0  0  0  0  0  0  0  0  0  0  0
    0.7700   16.4009  -28.9069 H   0  0  0  0  0  0  0  0  0  0  0  0
    1.8759   17.2317  -27.8016 H   0  0  0  0  0  0  0  0  0  0  0  0
   -0.1890   16.2450  -26.4720 H   0  0  0  0  0  0  0  0  0  0  0  0
    0.5031   21.2185  -29.4237 H   0  0  0  0  0  0  0  0  0  0  0  0
   -0.4982   23.4761  -29.7533 H   0  0  0  0  0  0  0  0  0  0  0  0
  1  2  1  0
  2  3  2  0
  3  4  1  0
  4  5  1  0
  4  6  1  0
  6  7  1  0
  6  8  2  0
  8  9  1  0
  9 10  1  0
 10 11  2  0
 10 12  2  0
 10 13  1  0
 13 14  2  0
 14 15  1  0
 15 16  2  0
 16 17  1  0
 17 18  1  0
 18 19  1  0
 19 20  1  0
 20 21  1  0
 21 22  2  0
 16 23  1  0
 23 24  2  0
  8  2  1  0
 24 13  1  0
 21 17  1  0
  1 25  1  0
  1 26  1  0
  1 27  1  0
  5 28  1  0
  5 29  1  0
  5 30  1  0
  7 31  1  0
  7 32  1  0
  7 33  1  0
 14 34  1  0
 15 35  1  0
 18 36  1  0
 18 37  1  0
 19 38  1  0
 19 39  1  0
 20 40  1  0
 23 41  1  0
 24 42  1  0
M  CHG  1   9  -1
M  END
>  <UniqueID>  (41) 
40

>  <SMILES>  (41) 
Cc1nn(C)c(C)c1[N-]S(=O)(=O)c1ccc(N2CCNC2=O)cc1

>  <Energy>  (41) 
96.23790052683067

>  <Genealogy>  (41) 
Cc1nn(C)c(C)c1[N-]S(=O)(=O)c1ccc(N2CCNC2=O)cc1 (protonated)
Cc1nn(C)c(C)c1[N-]S(=O)(=O)c1ccc(N2CCNC2=O)cc1 (3D coordinates assigned)
Cc1nn(C)c(C)c1[N-]S(=O)(=O)c1ccc(N2CCNC2=O)cc1 (nonaromatic ring conformer: 96.23790052683067 kcal/mol)

>  <smiles>  (41) 
Cc1nn(C)c(C)c1NS(=O)(=O)c1ccc(N2CCNC2=O)cc1

>  <score_type>  (41) 
oracle

>  <origin>  (41) 
adgpu

>  <m_score__min__energy>  (41) 
-9.3300000000000001

>  <m_primary>  (41) 
energy

$$$$
41:0
     RDKit          3D

 50 52  0  0  0  0  0  0  0  0999 V2000
    0.1630   21.1870  -33.1020 C   0  0  0  0  0  0  0  0  0  0  0  0
   -1.0160   21.4090  -32.2140 C   0  0  0  0  0  0  0  0  0  0  0  0
   -1.0080   22.2670  -31.1760 N   0  0  0  0  0  0  0  0  0  0  0  0
   -2.1870   22.2000  -30.5780 N   0  0  0  0  0  0  0  0  0  0  0  0
   -2.5060   22.9650  -29.3700 C   0  0  0  0  0  0  0  0  0  0  0  0
   -2.7870   24.4080  -29.6980 C   0  0  0  0  0  0  0  0  0  0  0  0
   -1.9640   25.2870  -29.3320 O   0  0  0  0  0  0  0  0  0  0  0  0
   -3.9310   24.8120  -30.4630 N   0  0  0  0  0  0  0  0  0  0  0  0
   -5.0850   24.0110  -30.7500 C   0  0  0  0  0  0  0  0  0  0  0  0
   -5.8860   23.4890  -29.7220 C   0  0  0  0  0  0  0  0  0  0  0  0
   -7.0290   22.7450  -30.0290 C   0  0  0  0  0  0  0  0  0  0  0  0
   -7.3980   22.5370  -31.3650 C   0  0  0  0  0  0  0  0  0  0  0  0
   -8.8740   21.6480  -31.7390 S   0  0  0  0  0  0  0  0  0  0  0  0
   -9.4930   21.1840  -30.4490 O   0  0  0  0  0  0  0  0  0  0  0  0
   -9.8520   22.5550  -32.4340 O   0  0  0  0  0  0  0  0  0  0  0  0
   -8.5100   20.2700  -32.7520 N   0  0  0  0  0  0  0  0  0  0  0  0
   -9.0310   19.0150  -32.1560 C   0  0  0  0  0  0  0  0  0  0  0  0
   -7.9230   18.2110  -31.4530 C   0  0  0  0  0  0  0  0  0  0  0  0
   -6.8570   17.8430  -32.3190 O   0  0  0  0  0  0  0  0  0  0  0  0
   -6.6130   18.7820  -33.3590 C   0  0  0  0  0  0  0  0  0  0  0  0
   -7.0550   20.2150  -33.0180 C   0  0  0  0  0  0  0  0  0  0  0  0
   -6.6050   23.0680  -32.3910 C   0  0  0  0  0  0  0  0  0  0  0  0
   -5.4600   23.8100  -32.0830 C   0  0  0  0  0  0  0  0  0  0  0  0
   -2.9800   21.3110  -31.2240 C   0  0  0  0  0  0  0  0  0  0  0  0
   -4.3790   20.9400  -30.8230 C   0  0  0  0  0  0  0  0  0  0  0  0
   -2.2490   20.7760  -32.2740 C   0  0  0  0  0  0  0  0  0  0  0  0
   -2.6590   19.7550  -33.2000 N   0  0  0  0  0  0  0  0  0  0  0  0
   -2.3660   19.8380  -34.4100 O   0  0  0  0  0  0  0  0  0  0  0  0
   -3.4010   18.6790  -32.7720 O   0  0  0  0  0  0  0  0  0  0  0  0
    1.0590   21.0183  -32.4866 H   0  0  0  0  0  0  0  0  0  0  0  0
   -0.0167   20.3069  -33.7369 H   0  0  0  0  0  0  0  0  0  0  0  0
    0.3157   22.0722  -33.7369 H   0  0  0  0  0  0  0  0  0  0  0  0
   -3.3939   22.5263  -28.8914 H   0  0  0  0  0  0  0  0  0  0  0  0
   -1.6403   22.9238  -28.6926 H   0  0  0  0  0  0  0  0  0  0  0  0
   -5.6132   23.6661  -28.6712 H   0  0  0  0  0  0  0  0  0  0  0  0
   -7.6410   22.3213  -29.2191 H   0  0  0  0  0  0  0  0  0  0  0  0
   -9.0030   20.4270  -33.6630 H   0  0  0  0  0  0  0  0  0  0  0  0
   -9.8091   19.2668  -31.4204 H   0  0  0  0  0  0  0  0  0  0  0  0
   -9.4391   18.3954  -32.9681 H   0  0  0  0  0  0  0  0  0  0  0  0
   -7.5132   18.8227  -30.6358 H   0  0  0  0  0  0  0  0  0  0  0  0
   -8.3799   17.2800  -31.0862 H   0  0  0  0  0  0  0  0  0  0  0  0
   -5.5335   18.7930  -33.5700 H   0  0  0  0  0  0  0  0  0  0  0  0
   -7.2084   18.4611  -34.2265 H   0  0  0  0  0  0  0  0  0  0  0  0
   -6.5123   20.5561  -32.1240 H   0  0  0  0  0  0  0  0  0  0  0  0
   -6.8298   20.8657  -33.8759 H   0  0  0  0  0  0  0  0  0  0  0  0
   -6.8838   22.9008  -33.4419 H   0  0  0  0  0  0  0  0  0  0  0  0
   -4.8511   24.2378  -32.8930 H   0  0  0  0  0  0  0  0  0  0  0  0
   -4.4529   20.9204  -29.7257 H   0  0  0  0  0  0  0  0  0  0  0  0
   -5.0846   21.6821  -31.2248 H   0  0  0  0  0  0  0  0  0  0  0  0
   -4.6242   19.9458  -31.2248 H   0  0  0  0  0  0  0  0  0  0  0  0
  1  2  1  0
  2  3  2  0
  3  4  1  0
  4  5  1  0
  5  6  1  0
  6  7  2  0
  6  8  1  0
  8  9  1  0
  9 10  2  0
 10 11  1  0
 11 12  2  0
 12 13  1  0
 13 14  2  0
 13 15  2  0
 13 16  1  0
 16 17  1  0
 17 18  1  0
 18 19  1  0
 19 20  1  0
 20 21  1  0
 12 22  1  0
 22 23  2  0
  4 24  1  0
 24 25  1  0
 24 26  2  0
 26 27  1  0
 27 28  2  0
 27 29  1  0
 26  2  1  0
 23  9  1  0
 21 16  1  0
  1 30  1  0
  1 31  1  0
  1 32  1  0
  5 33  1  0
  5 34  1  0
 10 35  1  0
 11 36  1  0
 16 37  1  0
 17 38  1  0
 17 39  1  0
 18 40  1  0
 18 41  1  0
 20 42  1  0
 20 43  1  0
 21 44  1  0
 21 45  1  0
 22 46  1  0
 23 47  1  0
 25 48  1  0
 25 49  1  0
 25 50  1  0
M  CHG  4   8  -1  16   1  27   1  29  -1
M  END
>  <UniqueID>  (42) 
41

>  <SMILES>  (42) 
Cc1nn(CC(=O)[N-]c2ccc(S(=O)(=O)[NH+]3CCOCC3)cc2)c(C)c1[N+](=O)[O-]

>  <Energy>  (42) 
95.58794764525157

>  <Genealogy>  (42) 
Cc1nn(CC(=O)[N-]c2ccc(S(=O)(=O)[NH+]3CCOCC3)cc2)c(C)c1[N+](=O)[O-] (protonated)
Cc1nn(CC(=O)[N-]c2ccc(S(=O)(=O)[NH+]3CCOCC3)cc2)c(C)c1[N+](=O)[O-] (3D coordinates assigned)
Cc1nn(CC(=O)[N-]c2ccc(S(=O)(=O)[NH+]3CCOCC3)cc2)c(C)c1[N+](=O)[O-] (nonaromatic ring conformer: 95.58794764525157 kcal/mol)

>  <smiles>  (42) 
Cc1nn(CC(=O)Nc2ccc(S(=O)(=O)N3CCOCC3)cc2)c(C)c1[N+](=O)[O-]

>  <score_type>  (42) 
oracle

>  <origin>  (42) 
adgpu

>  <m_score__min__energy>  (42) 
-10.960000000000001

>  <m_primary>  (42) 
energy

$$$$
42:0
     RDKit          3D

 49 51  0  0  0  0  0  0  0  0999 V2000
   -0.6980   17.4070  -35.0100 C   0  0  0  0  0  0  0  0  0  0  0  0
   -0.3040   18.7750  -34.4740 C   0  0  0  0  0  0  0  0  0  0  0  0
   -1.4980   19.5450  -34.0450 C   0  0  0  0  0  0  0  0  0  0  0  0
   -2.7190   18.9120  -33.8620 C   0  0  0  0  0  0  0  0  0  0  0  0
   -3.8580   19.6090  -33.4610 C   0  0  0  0  0  0  0  0  0  0  0  0
   -5.1220   18.9110  -33.2810 C   0  0  0  0  0  0  0  0  0  0  0  0
   -5.2990   17.6400  -33.8430 C   0  0  0  0  0  0  0  0  0  0  0  0
   -6.4840   16.9390  -33.6990 C   0  0  0  0  0  0  0  0  0  0  0  0
   -6.6440   15.7850  -34.2100 N   0  0  0  0  0  0  0  0  0  0  0  0
   -7.4980   17.4760  -33.0070 N   0  0  0  0  0  0  0  0  0  0  0  0
   -7.3420   18.6910  -32.4650 C   0  0  0  0  0  0  0  0  0  0  0  0
   -8.6980   19.4000  -31.5450 S   0  0  0  0  0  0  0  0  0  0  0  0
   -9.1360   21.0160  -32.2010 C   0  0  0  0  0  0  0  0  0  0  0  0
   -8.1410   22.0350  -31.7680 C   0  0  0  0  0  0  0  0  0  0  0  0
   -7.5590   22.9290  -32.6430 C   0  0  0  0  0  0  0  0  0  0  0  0
   -6.6410   23.8360  -32.1150 C   0  0  0  0  0  0  0  0  0  0  0  0
   -6.3310   23.8340  -30.7700 C   0  0  0  0  0  0  0  0  0  0  0  0
   -5.1800   24.9640  -30.0730 S   0  0  0  0  0  0  0  0  0  0  0  0
   -4.8020   24.5570  -28.4380 N   0  0  0  0  0  0  0  0  0  0  0  0
   -3.8640   24.9030  -30.8380 O   0  0  0  0  0  0  0  0  0  0  0  0
   -5.6420   26.3800  -30.1850 O   0  0  0  0  0  0  0  0  0  0  0  0
   -6.9190   22.9360  -29.9020 C   0  0  0  0  0  0  0  0  0  0  0  0
   -7.8300   22.0280  -30.4040 C   0  0  0  0  0  0  0  0  0  0  0  0
   -6.1710   19.3820  -32.6080 N   0  0  0  0  0  0  0  0  0  0  0  0
   -3.6810   20.9590  -33.2600 C   0  0  0  0  0  0  0  0  0  0  0  0
   -4.7120   21.7930  -32.8590 O   0  0  0  0  0  0  0  0  0  0  0  0
   -2.4550   21.5950  -33.4440 C   0  0  0  0  0  0  0  0  0  0  0  0
   -1.3490   20.8970  -33.8370 C   0  0  0  0  0  0  0  0  0  0  0  0
   -0.1390   21.5290  -34.0170 O   0  0  0  0  0  0  0  0  0  0  0  0
   -0.8941   16.7261  -34.1686 H   0  0  0  0  0  0  0  0  0  0  0  0
   -1.6055   17.5014  -35.6245 H   0  0  0  0  0  0  0  0  0  0  0  0
    0.1207   17.0043  -35.6245 H   0  0  0  0  0  0  0  0  0  0  0  0
    0.3673   18.6436  -33.6126 H   0  0  0  0  0  0  0  0  0  0  0  0
    0.2013   19.3324  -35.2765 H   0  0  0  0  0  0  0  0  0  0  0  0
   -2.7905   17.8286  -34.0384 H   0  0  0  0  0  0  0  0  0  0  0  0
   -4.4748   17.1872  -34.4136 H   0  0  0  0  0  0  0  0  0  0  0  0
   -5.9090   15.2860  -34.7650 H   0  0  0  0  0  0  0  0  0  0  0  0
   -9.1532   20.9693  -33.2999 H   0  0  0  0  0  0  0  0  0  0  0  0
  -10.1284   21.3001  -31.8209 H   0  0  0  0  0  0  0  0  0  0  0  0
   -7.8092   22.9263  -33.7142 H   0  0  0  0  0  0  0  0  0  0  0  0
   -6.1560   24.5648  -32.7810 H   0  0  0  0  0  0  0  0  0  0  0  0
   -5.6680   24.0690  -28.0660 H   0  0  0  0  0  0  0  0  0  0  0  0
   -4.7480   25.4540  -27.9040 H   0  0  0  0  0  0  0  0  0  0  0  0
   -6.6667   22.9437  -28.8314 H   0  0  0  0  0  0  0  0  0  0  0  0
   -8.3102   21.3007  -29.7329 H   0  0  0  0  0  0  0  0  0  0  0  0
   -6.1620   20.3040  -32.1500 H   0  0  0  0  0  0  0  0  0  0  0  0
   -5.1250   22.4960  -33.4580 H   0  0  0  0  0  0  0  0  0  0  0  0
   -2.3766   22.6783  -33.2697 H   0  0  0  0  0  0  0  0  0  0  0  0
   -0.1330   22.5220  -34.2200 H   0  0  0  0  0  0  0  0  0  0  0  0
  1  2  1  0
  2  3  1  0
  3  4  2  0
  4  5  1  0
  5  6  1  0
  6  7  2  0
  7  8  1  0
  8  9  2  3
  8 10  1  0
 10 11  2  0
 11 12  1  0
 12 13  1  0
 13 14  1  0
 14 15  2  0
 15 16  1  0
 16 17  2  0
 17 18  1  0
 18 19  1  0
 18 20  2  0
 18 21  2  0
 17 22  1  0
 22 23  2  0
 11 24  1  0
  5 25  2  0
 25 26  1  0
 25 27  1  0
 27 28  2  0
 28 29  1  0
 28  3  1  0
 24  6  1  0
 23 14  1  0
  1 30  1  0
  1 31  1  0
  1 32  1  0
  2 33  1  0
  2 34  1  0
  4 35  1  0
  7 36  1  0
  9 37  1  0
 13 38  1  0
 13 39  1  0
 15 40  1  0
 16 41  1  0
 19 42  1  0
 19 43  1  0
 22 44  1  0
 23 45  1  0
 24 46  1  0
 26 47  1  0
 27 48  1  0
 29 49  1  0
M  END
>  <smiles>  (43) 
CCc1cc(-c2cc(=N)nc(SCc3ccc(S(N)(=O)=O)cc3)[nH]2)c(O)cc1O

>  <score_type>  (43) 
oracle

>  <origin>  (43) 
adgpu

>  <m_score__min__energy>  (43) 
-10.130000000000001

>  <m_primary>  (43) 
energy

$$$$
43:0
     RDKit          3D

 39 42  0  0  0  0  0  0  0  0999 V2000
   -4.9950   17.7080  -35.3450 C   0  0  0  0  0  0  0  0  0  0  0  0
   -5.3480   17.5670  -33.8930 C   0  0  0  0  0  0  0  0  0  0  0  0
   -5.2990   18.5640  -32.9310 C   0  0  0  0  0  0  0  0  0  0  0  0
   -4.9240   19.9830  -33.1040 C   0  0  0  0  0  0  0  0  0  0  0  0
   -3.8630   20.2670  -33.7230 O   0  0  0  0  0  0  0  0  0  0  0  0
   -5.7620   21.0790  -32.5720 C   0  0  0  0  0  0  0  0  0  0  0  0
   -5.3240   22.3370  -32.1630 C   0  0  0  0  0  0  0  0  0  0  0  0
   -6.3720   23.0970  -31.7720 N   0  0  0  0  0  0  0  0  0  0  0  0
   -6.2840   24.4450  -31.2110 C   0  0  0  0  0  0  0  0  0  0  0  0
   -5.0600   24.5630  -30.3610 C   0  0  0  0  0  0  0  0  0  0  0  0
   -4.8960   24.1040  -29.0760 C   0  0  0  0  0  0  0  0  0  0  0  0
   -3.6220   24.3500  -28.7260 N   0  0  0  0  0  0  0  0  0  0  0  0
   -3.0390   24.9270  -29.7680 N   0  0  0  0  0  0  0  0  0  0  0  0
   -3.8850   25.0630  -30.7790 N   0  0  0  0  0  0  0  0  0  0  0  0
   -7.4740   22.3310  -31.9160 C   0  0  0  0  0  0  0  0  0  0  0  0
   -8.7990   22.6610  -31.6150 C   0  0  0  0  0  0  0  0  0  0  0  0
   -9.7890   21.6880  -31.8390 C   0  0  0  0  0  0  0  0  0  0  0  0
   -9.4440   20.4200  -32.3470 C   0  0  0  0  0  0  0  0  0  0  0  0
   -8.1030   20.1090  -32.6380 C   0  0  0  0  0  0  0  0  0  0  0  0
   -7.1390   21.0940  -32.4140 C   0  0  0  0  0  0  0  0  0  0  0  0
   -5.7680   17.9610  -31.7750 C   0  0  0  0  0  0  0  0  0  0  0  0
   -6.0830   16.6770  -32.0350 N   0  0  0  0  0  0  0  0  0  0  0  0
   -5.8330   16.4470  -33.3140 N   0  0  0  0  0  0  0  0  0  0  0  0
   -6.0620   15.1580  -33.9570 C   0  0  0  0  0  0  0  0  0  0  0  0
   -3.9771   18.1146  -35.4371 H   0  0  0  0  0  0  0  0  0  0  0  0
   -5.0415   16.7223  -35.8310 H   0  0  0  0  0  0  0  0  0  0  0  0
   -5.7078   18.3904  -35.8310 H   0  0  0  0  0  0  0  0  0  0  0  0
   -4.2742   22.6655  -32.1588 H   0  0  0  0  0  0  0  0  0  0  0  0
   -6.2318   25.1781  -32.0295 H   0  0  0  0  0  0  0  0  0  0  0  0
   -7.1737   24.6395  -30.5940 H   0  0  0  0  0  0  0  0  0  0  0  0
   -5.6639   23.6249  -28.4509 H   0  0  0  0  0  0  0  0  0  0  0  0
   -9.0591   23.6521  -31.2149 H   0  0  0  0  0  0  0  0  0  0  0  0
  -10.8411   21.9186  -31.6159 H   0  0  0  0  0  0  0  0  0  0  0  0
  -10.2285   19.6679  -32.5173 H   0  0  0  0  0  0  0  0  0  0  0  0
   -7.8226   19.1202  -33.0300 H   0  0  0  0  0  0  0  0  0  0  0  0
   -5.8677   18.4541  -30.7968 H   0  0  0  0  0  0  0  0  0  0  0  0
   -6.1995   14.3838  -33.1878 H   0  0  0  0  0  0  0  0  0  0  0  0
   -6.9639   15.2161  -34.5841 H   0  0  0  0  0  0  0  0  0  0  0  0
   -5.1953   14.9019  -34.5841 H   0  0  0  0  0  0  0  0  0  0  0  0
  1  2  1  0
  2  3  2  0
  3  4  1  0
  4  5  2  0
  4  6  1  0
  6  7  2  0
  7  8  1  0
  8  9  1  0
  9 10  1  0
 10 11  2  0
 11 12  1  0
 12 13  1  0
 13 14  2  0
  8 15  1  0
 15 16  2  0
 16 17  1  0
 17 18  2  0
 18 19  1  0
 19 20  2  0
  3 21  1  0
 21 22  2  0
 22 23  1  0
 23 24  1  0
 23  2  1  0
 20  6  1  0
 14 10  1  0
 20 15  1  0
  1 25  1  0
  1 26  1  0
  1 27  1  0
  7 28  1  0
  9 29  1  0
  9 30  1  0
 11 31  1  0
 16 32  1  0
 17 33  1  0
 18 34  1  0
 19 35  1  0
 21 36  1  0
 24 37  1  0
 24 38  1  0
 24 39  1  0
M  CHG  1  12  -1
M  END
>  <UniqueID>  (44) 
42

>  <SMILES>  (44) 
Cc1c(C(=O)c2cn(Cc3c[n-]nn3)c3ccccc23)cnn1C

>  <Energy>  (44) 
141.62087887242797

>  <Genealogy>  (44) 
Cc1c(C(=O)c2cn(Cc3c[n-]nn3)c3ccccc23)cnn1C (protonated)
Cc1c(C(=O)c2cn(Cc3c[n-]nn3)c3ccccc23)cnn1C (3D coordinates assigned)
Cc1c(C(=O)c2cn(Cc3c[n-]nn3)c3ccccc23)cnn1C (optimized conformer: 141.62087887242797 kcal/mol)

>  <smiles>  (44) 
Cc1c(C(=O)c2cn(Cc3c[nH]nn3)c3ccccc23)cnn1C

>  <score_type>  (44) 
oracle

>  <origin>  (44) 
adgpu

>  <m_score__min__energy>  (44) 
-10.460000000000001

>  <m_primary>  (44) 
energy

$$$$
44:0
     RDKit          3D

 54 57  0  0  0  0  0  0  0  0999 V2000
   -6.3320   26.0640  -30.0330 O   0  0  0  0  0  0  0  0  0  0  0  0
   -5.3360   24.9540  -30.1890 S   0  0  0  0  0  0  0  0  0  0  0  0
   -4.3110   25.3550  -31.2110 O   0  0  0  0  0  0  0  0  0  0  0  0
   -4.5540   24.6750  -28.6640 N   0  0  0  0  0  0  0  0  0  0  0  0
   -3.3890   23.8370  -28.5130 C   0  0  0  0  0  0  0  0  0  0  0  0
   -3.4980   22.5190  -28.0390 C   0  0  0  0  0  0  0  0  0  0  0  0
   -2.3730   21.6850  -27.9710 C   0  0  0  0  0  0  0  0  0  0  0  0
   -1.1030   22.1970  -28.3030 C   0  0  0  0  0  0  0  0  0  0  0  0
   -0.9890   23.5180  -28.7490 C   0  0  0  0  0  0  0  0  0  0  0  0
   -2.1190   24.3330  -28.8590 C   0  0  0  0  0  0  0  0  0  0  0  0
   -1.9730   25.6310  -29.3310 O   0  0  0  0  0  0  0  0  0  0  0  0
    0.1190   21.3020  -28.3170 C   0  0  0  0  0  0  0  0  0  0  0  0
   -0.0650   20.0710  -27.5350 N   0  0  0  0  0  0  0  0  0  0  0  0
   -1.3260   19.4050  -27.8890 C   0  0  0  0  0  0  0  0  0  0  0  0
   -2.5280   20.2670  -27.4870 C   0  0  0  0  0  0  0  0  0  0  0  0
   -6.1290   23.4780  -30.7290 C   0  0  0  0  0  0  0  0  0  0  0  0
   -7.4200   23.1570  -30.2840 C   0  0  0  0  0  0  0  0  0  0  0  0
   -7.9900   21.9260  -30.6180 C   0  0  0  0  0  0  0  0  0  0  0  0
   -7.2770   21.0110  -31.3950 C   0  0  0  0  0  0  0  0  0  0  0  0
   -5.9980   21.3350  -31.8620 C   0  0  0  0  0  0  0  0  0  0  0  0
   -5.0840   20.1540  -32.7950 S   0  0  0  0  0  0  0  0  0  0  0  0
   -5.7600   19.9090  -34.1160 O   0  0  0  0  0  0  0  0  0  0  0  0
   -5.0430   18.8610  -32.0300 O   0  0  0  0  0  0  0  0  0  0  0  0
   -3.4580   20.7420  -33.0510 N   0  0  0  0  0  0  0  0  0  0  0  0
   -2.6630   19.7910  -33.8680 C   0  0  0  0  0  0  0  0  0  0  0  0
   -1.7250   18.9120  -33.0260 C   0  0  0  0  0  0  0  0  0  0  0  0
   -0.7340   19.7710  -32.2260 C   0  0  0  0  0  0  0  0  0  0  0  0
   -1.3140   21.1420  -31.8370 C   0  0  0  0  0  0  0  0  0  0  0  0
   -2.8440   21.0920  -31.7490 C   0  0  0  0  0  0  0  0  0  0  0  0
   -5.4280   22.5720  -31.5340 C   0  0  0  0  0  0  0  0  0  0  0  0
   -4.8830   25.2510  -27.8560 H   0  0  0  0  0  0  0  0  0  0  0  0
   -4.4780   22.1367  -27.7173 H   0  0  0  0  0  0  0  0  0  0  0  0
   -0.0001   23.9193  -29.0158 H   0  0  0  0  0  0  0  0  0  0  0  0
    0.3404   21.0264  -29.3587 H   0  0  0  0  0  0  0  0  0  0  0  0
    0.9455   21.8644  -27.8581 H   0  0  0  0  0  0  0  0  0  0  0  0
   -0.0830   20.3110  -26.5160 H   0  0  0  0  0  0  0  0  0  0  0  0
   -1.3514   19.2349  -28.9755 H   0  0  0  0  0  0  0  0  0  0  0  0
   -1.3826   18.4476  -27.3502 H   0  0  0  0  0  0  0  0  0  0  0  0
   -3.4401   19.8365  -27.9261 H   0  0  0  0  0  0  0  0  0  0  0  0
   -2.5927   20.2808  -26.3890 H   0  0  0  0  0  0  0  0  0  0  0  0
   -7.9843   23.8754  -29.6713 H   0  0  0  0  0  0  0  0  0  0  0  0
   -9.0027   21.6771  -30.2681 H   0  0  0  0  0  0  0  0  0  0  0  0
   -7.7208   20.0348  -31.6403 H   0  0  0  0  0  0  0  0  0  0  0  0
   -3.3560   19.1372  -34.4177 H   0  0  0  0  0  0  0  0  0  0  0  0
   -2.0341   20.3866  -34.5460 H   0  0  0  0  0  0  0  0  0  0  0  0
   -2.3260   18.3116  -32.3272 H   0  0  0  0  0  0  0  0  0  0  0  0
   -1.1548   18.2596  -33.7037 H   0  0  0  0  0  0  0  0  0  0  0  0
   -0.4621   19.2306  -31.3072 H   0  0  0  0  0  0  0  0  0  0  0  0
    0.1416   19.9510  -32.8670 H   0  0  0  0  0  0  0  0  0  0  0  0
   -0.9078   21.4390  -30.8588 H   0  0  0  0  0  0  0  0  0  0  0  0
   -1.0333   21.8713  -32.6111 H   0  0  0  0  0  0  0  0  0  0  0  0
   -3.1334   20.3362  -31.0040 H   0  0  0  0  0  0  0  0  0  0  0  0
   -3.2029   22.0904  -31.4587 H   0  0  0  0  0  0  0  0  0  0  0  0
   -4.4274   22.8321  -31.9098 H   0  0  0  0  0  0  0  0  0  0  0  0
  1  2  2  0
  2  3  2  0
  2  4  1  0
  4  5  1  0
  5  6  2  0
  6  7  1  0
  7  8  2  0
  8  9  1  0
  9 10  2  0
 10 11  1  0
  8 12  1  0
 12 13  1  0
 13 14  1  0
 14 15  1  0
  2 16  1  0
 16 17  2  0
 17 18  1  0
 18 19  2  0
 19 20  1  0
 20 21  1  0
 21 22  2  0
 21 23  2  0
 21 24  1  0
 24 25  1  0
 25 26  1  0
 26 27  1  0
 27 28  1  0
 28 29  1  0
 20 30  2  0
 10  5  1  0
 30 16  1  0
 15  7  1  0
 29 24  1  0
  4 31  1  0
  6 32  1  0
  9 33  1  0
 12 34  1  0
 12 35  1  0
 13 36  1  0
 14 37  1  0
 14 38  1  0
 15 39  1  0
 15 40  1  0
 17 41  1  0
 18 42  1  0
 19 43  1  0
 25 44  1  0
 25 45  1  0
 26 46  1  0
 26 47  1  0
 27 48  1  0
 27 49  1  0
 28 50  1  0
 28 51  1  0
 29 52  1  0
 29 53  1  0
 30 54  1  0
M  CHG  1  11  -1
M  END
>  <UniqueID>  (45) 
43

>  <SMILES>  (45) 
O=S(=O)(Nc1cc2c(cc1[O-])CNCC2)c1cccc(S(=O)(=O)N2CCCCC2)c1

>  <Energy>  (45) 
61.829136056547505

>  <Genealogy>  (45) 
O=S(=O)(Nc1cc2c(cc1[O-])CNCC2)c1cccc(S(=O)(=O)N2CCCCC2)c1 (protonated)
O=S(=O)(Nc1cc2c(cc1[O-])CNCC2)c1cccc(S(=O)(=O)N2CCCCC2)c1 (3D coordinates assigned)
O=S(=O)(Nc1cc2c(cc1[O-])CNCC2)c1cccc(S(=O)(=O)N2CCCCC2)c1 (nonaromatic ring conformer: 61.829136056547505 kcal/mol)

>  <smiles>  (45) 
O=S(=O)(Nc1cc2c(cc1O)CNCC2)c1cccc(S(=O)(=O)N2CCCCC2)c1

>  <score_type>  (45) 
oracle

>  <origin>  (45) 
adgpu

>  <m_score__min__energy>  (45) 
-14.470000000000001

>  <m_primary>  (45) 
energy

$$$$
45:0
     RDKit          3D

 58 61  0  0  0  0  0  0  0  0999 V2000
   -3.8690   25.2670  -30.7970 O   0  0  0  0  0  0  0  0  0  0  0  0
   -4.3920   24.4070  -30.0370 C   0  0  0  0  0  0  0  0  0  0  0  0
   -4.1710   24.4640  -28.6200 N   0  0  0  0  0  0  0  0  0  0  0  0
   -2.9220   24.6380  -27.9340 C   0  0  0  0  0  0  0  0  0  0  0  0
   -1.7390   24.5730  -28.6800 C   0  0  0  0  0  0  0  0  0  0  0  0
   -0.4970   24.7250  -28.0580 C   0  0  0  0  0  0  0  0  0  0  0  0
   -0.4230   24.9340  -26.6750 C   0  0  0  0  0  0  0  0  0  0  0  0
    1.1360   25.1500  -25.8860 S   0  0  0  0  0  0  0  0  0  0  0  0
    1.8580   23.8300  -25.8810 O   0  0  0  0  0  0  0  0  0  0  0  0
    1.9590   26.1390  -26.6670 O   0  0  0  0  0  0  0  0  0  0  0  0
    0.8850   25.7110  -24.2410 N   0  0  0  0  0  0  0  0  0  0  0  0
   -0.1310   26.7920  -24.1780 C   0  0  0  0  0  0  0  0  0  0  0  0
    0.4990   28.2000  -24.1450 C   0  0  0  0  0  0  0  0  0  0  0  0
    1.7150   28.2160  -24.8640 O   0  0  0  0  0  0  0  0  0  0  0  0
    2.6970   27.4470  -24.1860 C   0  0  0  0  0  0  0  0  0  0  0  0
    2.1560   26.1150  -23.6080 C   0  0  0  0  0  0  0  0  0  0  0  0
   -1.6030   24.9800  -25.9200 C   0  0  0  0  0  0  0  0  0  0  0  0
   -2.8450   24.8210  -26.5420 C   0  0  0  0  0  0  0  0  0  0  0  0
   -5.1790   23.2930  -30.6170 C   0  0  0  0  0  0  0  0  0  0  0  0
   -6.5110   23.0740  -30.2190 C   0  0  0  0  0  0  0  0  0  0  0  0
   -7.2430   22.0110  -30.7490 C   0  0  0  0  0  0  0  0  0  0  0  0
   -6.6590   21.1470  -31.6870 C   0  0  0  0  0  0  0  0  0  0  0  0
   -7.5820   19.7890  -32.3370 S   0  0  0  0  0  0  0  0  0  0  0  0
   -8.5180   20.2890  -33.4040 O   0  0  0  0  0  0  0  0  0  0  0  0
   -8.4110   19.1870  -31.2360 O   0  0  0  0  0  0  0  0  0  0  0  0
   -6.5380   18.5580  -33.0080 N   0  0  0  0  0  0  0  0  0  0  0  0
   -6.0940   18.9370  -34.3570 C   0  0  0  0  0  0  0  0  0  0  0  0
   -5.1950   17.8300  -34.9510 C   0  0  0  0  0  0  0  0  0  0  0  0
   -5.0760   16.7210  -34.0780 O   0  0  0  0  0  0  0  0  0  0  0  0
   -6.3630   16.2080  -33.7800 C   0  0  0  0  0  0  0  0  0  0  0  0
   -7.2310   17.2580  -33.0510 C   0  0  0  0  0  0  0  0  0  0  0  0
   -5.3380   21.3670  -32.0980 C   0  0  0  0  0  0  0  0  0  0  0  0
   -4.6020   22.4300  -31.5670 C   0  0  0  0  0  0  0  0  0  0  0  0
   -1.7877   24.4008  -29.7653 H   0  0  0  0  0  0  0  0  0  0  0  0
    0.4251   24.6804  -28.6561 H   0  0  0  0  0  0  0  0  0  0  0  0
    0.5150   24.8880  -23.7070 H   0  0  0  0  0  0  0  0  0  0  0  0
   -0.7796   26.7173  -25.0633 H   0  0  0  0  0  0  0  0  0  0  0  0
   -0.6990   26.6602  -23.2453 H   0  0  0  0  0  0  0  0  0  0  0  0
   -0.1989   28.9193  -24.5984 H   0  0  0  0  0  0  0  0  0  0  0  0
    0.7010   28.4745  -23.0991 H   0  0  0  0  0  0  0  0  0  0  0  0
    3.5061   27.2150  -24.8941 H   0  0  0  0  0  0  0  0  0  0  0  0
    3.0447   28.0493  -23.3338 H   0  0  0  0  0  0  0  0  0  0  0  0
    2.9031   25.3255  -23.7769 H   0  0  0  0  0  0  0  0  0  0  0  0
    1.9679   26.2630  -22.5344 H   0  0  0  0  0  0  0  0  0  0  0  0
   -1.5517   25.1419  -24.8332 H   0  0  0  0  0  0  0  0  0  0  0  0
   -3.7655   24.8391  -25.9401 H   0  0  0  0  0  0  0  0  0  0  0  0
   -6.9786   23.7461  -29.4844 H   0  0  0  0  0  0  0  0  0  0  0  0
   -8.2832   21.8497  -30.4297 H   0  0  0  0  0  0  0  0  0  0  0  0
   -6.9730   19.0775  -35.0032 H   0  0  0  0  0  0  0  0  0  0  0  0
   -5.5198   19.8733  -34.2971 H   0  0  0  0  0  0  0  0  0  0  0  0
   -5.6316   17.4892  -35.9014 H   0  0  0  0  0  0  0  0  0  0  0  0
   -4.1909   18.2522  -35.1046 H   0  0  0  0  0  0  0  0  0  0  0  0
   -6.8604   15.9210  -34.7182 H   0  0  0  0  0  0  0  0  0  0  0  0
   -6.2449   15.3363  -33.1196 H   0  0  0  0  0  0  0  0  0  0  0  0
   -8.1853   17.3736  -33.5858 H   0  0  0  0  0  0  0  0  0  0  0  0
   -7.4133   16.9169  -32.0212 H   0  0  0  0  0  0  0  0  0  0  0  0
   -4.8778   20.7001  -32.8420 H   0  0  0  0  0  0  0  0  0  0  0  0
   -3.5645   22.5931  -31.8940 H   0  0  0  0  0  0  0  0  0  0  0  0
  1  2  2  0
  2  3  1  0
  3  4  1  0
  4  5  2  0
  5  6  1  0
  6  7  2  0
  7  8  1  0
  8  9  2  0
  8 10  2  0
  8 11  1  0
 11 12  1  0
 12 13  1  0
 13 14  1  0
 14 15  1  0
 15 16  1  0
  7 17  1  0
 17 18  2  0
  2 19  1  0
 19 20  2  0
 20 21  1  0
 21 22  2  0
 22 23  1  0
 23 24  2  0
 23 25  2  0
 23 26  1  0
 26 27  1  0
 27 28  1  0
 28 29  1  0
 29 30  1  0
 30 31  1  0
 22 32  1  0
 32 33  2  0
 18  4  1  0
 33 19  1  0
 16 11  1  0
 31 26  1  0
  5 34  1  0
  6 35  1  0
 11 36  1  0
 12 37  1  0
 12 38  1  0
 13 39  1  0
 13 40  1  0
 15 41  1  0
 15 42  1  0
 16 43  1  0
 16 44  1  0
 17 45  1  0
 18 46  1  0
 20 47  1  0
 21 48  1  0
 27 49  1  0
 27 50  1  0
 28 51  1  0
 28 52  1  0
 30 53  1  0
 30 54  1  0
 31 55  1  0
 31 56  1  0
 32 57  1  0
 33 58  1  0
M  CHG  2   3  -1  11   1
M  END
>  <UniqueID>  (46) 
44

>  <SMILES>  (46) 
O=C([N-]c1ccc(S(=O)(=O)[NH+]2CCOCC2)cc1)c1ccc(S(=O)(=O)N2CCOCC2)cc1

>  <Energy>  (46) 
82.61757189117765

>  <Genealogy>  (46) 
O=C([N-]c1ccc(S(=O)(=O)[NH+]2CCOCC2)cc1)c1ccc(S(=O)(=O)N2CCOCC2)cc1 (protonated)
O=C([N-]c1ccc(S(=O)(=O)[NH+]2CCOCC2)cc1)c1ccc(S(=O)(=O)N2CCOCC2)cc1 (3D coordinates assigned)
O=C([N-]c1ccc(S(=O)(=O)[NH+]2CCOCC2)cc1)c1ccc(S(=O)(=O)N2CCOCC2)cc1 (nonaromatic ring conformer: 82.61757189117765 kcal/mol)

>  <smiles>  (46) 
O=C(Nc1ccc(S(=O)(=O)N2CCOCC2)cc1)c1ccc(S(=O)(=O)N2CCOCC2)cc1

>  <score_type>  (46) 
oracle

>  <origin>  (46) 
adgpu

>  <m_score__min__energy>  (46) 
-12.5

>  <m_primary>  (46) 
energy

$$$$
46:0
     RDKit          3D

 38 41  0  0  0  0  0  0  0  0999 V2000
   -6.0810   18.6850  -34.4230 O   0  0  0  0  0  0  0  0  0  0  0  0
   -6.2570   19.6650  -33.6530 C   0  0  0  0  0  0  0  0  0  0  0  0
   -7.4640   19.9490  -33.1040 N   0  0  0  0  0  0  0  0  0  0  0  0
   -7.1900   21.0430  -32.3760 C   0  0  0  0  0  0  0  0  0  0  0  0
   -8.0670   21.7830  -31.5890 C   0  0  0  0  0  0  0  0  0  0  0  0
   -7.5520   22.9060  -30.9150 C   0  0  0  0  0  0  0  0  0  0  0  0
   -6.1860   23.2590  -31.0460 C   0  0  0  0  0  0  0  0  0  0  0  0
   -5.5790   24.6960  -30.2270 S   0  0  0  0  0  0  0  0  0  0  0  0
   -4.4980   25.3100  -31.0700 O   0  0  0  0  0  0  0  0  0  0  0  0
   -6.6780   25.7030  -30.0300 O   0  0  0  0  0  0  0  0  0  0  0  0
   -4.9240   24.2580  -28.6800 N   0  0  0  0  0  0  0  0  0  0  0  0
   -3.7190   23.4850  -28.5220 C   0  0  0  0  0  0  0  0  0  0  0  0
   -3.7470   22.1970  -27.9570 C   0  0  0  0  0  0  0  0  0  0  0  0
   -2.5720   21.4440  -27.8230 C   0  0  0  0  0  0  0  0  0  0  0  0
   -1.3480   21.9750  -28.2760 C   0  0  0  0  0  0  0  0  0  0  0  0
   -1.3120   23.2720  -28.8050 C   0  0  0  0  0  0  0  0  0  0  0  0
   -2.4850   24.0210  -28.9320 C   0  0  0  0  0  0  0  0  0  0  0  0
   -2.4170   25.2990  -29.4780 O   0  0  0  0  0  0  0  0  0  0  0  0
   -0.0600   21.2060  -28.1000 C   0  0  0  0  0  0  0  0  0  0  0  0
   -0.2880   19.7620  -27.9520 N   0  0  0  0  0  0  0  0  0  0  0  0
   -1.2730   19.4980  -26.8950 C   0  0  0  0  0  0  0  0  0  0  0  0
   -2.6540   20.0390  -27.2840 C   0  0  0  0  0  0  0  0  0  0  0  0
   -5.3290   22.4800  -31.8520 C   0  0  0  0  0  0  0  0  0  0  0  0
   -5.8760   21.3770  -32.5020 C   0  0  0  0  0  0  0  0  0  0  0  0
   -5.2510   20.5120  -33.3150 N   0  0  0  0  0  0  0  0  0  0  0  0
   -9.1260   21.5001  -31.4969 H   0  0  0  0  0  0  0  0  0  0  0  0
   -8.2148   23.5142  -30.2819 H   0  0  0  0  0  0  0  0  0  0  0  0
   -5.3740   24.6880  -27.8430 H   0  0  0  0  0  0  0  0  0  0  0  0
   -4.7038   21.7749  -27.6157 H   0  0  0  0  0  0  0  0  0  0  0  0
   -0.3519   23.7045  -29.1232 H   0  0  0  0  0  0  0  0  0  0  0  0
    0.5761   21.3751  -28.9813 H   0  0  0  0  0  0  0  0  0  0  0  0
    0.4238   21.5662  -27.1801 H   0  0  0  0  0  0  0  0  0  0  0  0
   -0.6470   19.3790  -28.8580 H   0  0  0  0  0  0  0  0  0  0  0  0
   -1.3445   18.4124  -26.7328 H   0  0  0  0  0  0  0  0  0  0  0  0
   -0.9445   20.0040  -25.9752 H   0  0  0  0  0  0  0  0  0  0  0  0
   -3.0879   19.3862  -28.0557 H   0  0  0  0  0  0  0  0  0  0  0  0
   -3.2823   20.0547  -26.3812 H   0  0  0  0  0  0  0  0  0  0  0  0
   -4.2649   22.7355  -31.9630 H   0  0  0  0  0  0  0  0  0  0  0  0
  1  2  2  0
  2  3  1  0
  3  4  1  0
  4  5  2  0
  5  6  1  0
  6  7  2  0
  7  8  1  0
  8  9  2  0
  8 10  2  0
  8 11  1  0
 11 12  1  0
 12 13  2  0
 13 14  1  0
 14 15  2  0
 15 16  1  0
 16 17  2  0
 17 18  1  0
 15 19  1  0
 19 20  1  0
 20 21  1  0
 21 22  1  0
  7 23  1  0
 23 24  2  0
 24 25  1  0
 25  2  1  0
 24  4  1  0
 17 12  1  0
 22 14  1  0
  5 26  1  0
  6 27  1  0
 11 28  1  0
 13 29  1  0
 16 30  1  0
 19 31  1  0
 19 32  1  0
 20 33  1  0
 21 34  1  0
 21 35  1  0
 22 36  1  0
 22 37  1  0
 23 38  1  0
M  CHG  3   3  -1  18  -1  25  -1
M  END
>  <UniqueID>  (47) 
45

>  <SMILES>  (47) 
O=c1[n-]c2ccc(S(=O)(=O)Nc3cc4c(cc3[O-])CNCC4)cc2[n-]1

>  <Energy>  (47) 
82.01745533065993

>  <Genealogy>  (47) 
O=c1[n-]c2ccc(S(=O)(=O)Nc3cc4c(cc3[O-])CNCC4)cc2[n-]1 (protonated)
O=c1[n-]c2ccc(S(=O)(=O)Nc3cc4c(cc3[O-])CNCC4)cc2[n-]1 (3D coordinates assigned)
O=c1[n-]c2ccc(S(=O)(=O)Nc3cc4c(cc3[O-])CNCC4)cc2[n-]1 (nonaromatic ring conformer: 82.01745533065993 kcal/mol)

>  <smiles>  (47) 
O=c1[nH]c2ccc(S(=O)(=O)Nc3cc4c(cc3O)CNCC4)cc2[nH]1

>  <score_type>  (47) 
oracle

>  <origin>  (47) 
adgpu

>  <m_score__min__energy>  (47) 
-12.31

>  <m_primary>  (47) 
energy

$$$$
47:0
     RDKit          3D

 50 54  0  0  0  0  0  0  0  0999 V2000
    0.8800   20.1990  -27.5300 C   0  0  0  0  0  0  0  0  0  0  0  0
    0.1570   19.9390  -28.7870 N   0  0  0  0  0  0  0  0  0  0  0  0
   -1.2140   19.4060  -28.5190 C   0  0  0  0  0  0  0  0  0  0  0  0
   -2.3260   20.0530  -29.3640 C   0  0  0  0  0  0  0  0  0  0  0  0
   -2.1800   21.5440  -29.3150 C   0  0  0  0  0  0  0  0  0  0  0  0
   -3.2800   22.3940  -29.1430 C   0  0  0  0  0  0  0  0  0  0  0  0
   -3.0990   23.7900  -29.1240 C   0  0  0  0  0  0  0  0  0  0  0  0
   -4.1980   24.6880  -28.9210 N   0  0  0  0  0  0  0  0  0  0  0  0
   -5.5060   24.9190  -30.0380 S   0  0  0  0  0  0  0  0  0  0  0  0
   -6.6210   25.6540  -29.3480 O   0  0  0  0  0  0  0  0  0  0  0  0
   -5.0490   25.7410  -31.2120 O   0  0  0  0  0  0  0  0  0  0  0  0
   -6.0980   23.3420  -30.5590 C   0  0  0  0  0  0  0  0  0  0  0  0
   -7.3720   22.8960  -30.1860 C   0  0  0  0  0  0  0  0  0  0  0  0
   -7.8600   21.6790  -30.6660 C   0  0  0  0  0  0  0  0  0  0  0  0
   -7.0760   20.8820  -31.5200 C   0  0  0  0  0  0  0  0  0  0  0  0
   -5.7830   21.3180  -31.8820 C   0  0  0  0  0  0  0  0  0  0  0  0
   -5.3080   22.5530  -31.4030 C   0  0  0  0  0  0  0  0  0  0  0  0
   -4.9390   20.4800  -32.7670 C   0  0  0  0  0  0  0  0  0  0  0  0
   -3.7720   20.8600  -33.0720 O   0  0  0  0  0  0  0  0  0  0  0  0
   -5.4600   19.1940  -33.2880 C   0  0  0  0  0  0  0  0  0  0  0  0
   -4.6680   18.3890  -34.1300 C   0  0  0  0  0  0  0  0  0  0  0  0
   -5.1640   17.1790  -34.6220 C   0  0  0  0  0  0  0  0  0  0  0  0
   -6.4510   16.7580  -34.2820 C   0  0  0  0  0  0  0  0  0  0  0  0
   -7.2480   17.5450  -33.4440 C   0  0  0  0  0  0  0  0  0  0  0  0
   -6.7610   18.7640  -32.9390 C   0  0  0  0  0  0  0  0  0  0  0  0
   -7.6000   19.5970  -32.0440 C   0  0  0  0  0  0  0  0  0  0  0  0
   -8.7640   19.2150  -31.7330 O   0  0  0  0  0  0  0  0  0  0  0  0
   -1.8130   24.3180  -29.3210 C   0  0  0  0  0  0  0  0  0  0  0  0
   -1.6190   25.6960  -29.3370 O   0  0  0  0  0  0  0  0  0  0  0  0
   -0.7170   23.4660  -29.4960 C   0  0  0  0  0  0  0  0  0  0  0  0
   -0.8990   22.0750  -29.4740 C   0  0  0  0  0  0  0  0  0  0  0  0
    0.2370   21.1130  -29.6960 C   0  0  0  0  0  0  0  0  0  0  0  0
    0.2273   19.9643  -26.6763 H   0  0  0  0  0  0  0  0  0  0  0  0
    1.7802   19.5683  -27.4876 H   0  0  0  0  0  0  0  0  0  0  0  0
    1.1724   21.2586  -27.4876 H   0  0  0  0  0  0  0  0  0  0  0  0
   -1.2094   18.3257  -28.7262 H   0  0  0  0  0  0  0  0  0  0  0  0
   -1.4417   19.6412  -27.4688 H   0  0  0  0  0  0  0  0  0  0  0  0
   -2.2431   19.7095  -30.4057 H   0  0  0  0  0  0  0  0  0  0  0  0
   -3.3090   19.7652  -28.9628 H   0  0  0  0  0  0  0  0  0  0  0  0
   -4.2877   21.9697  -29.0225 H   0  0  0  0  0  0  0  0  0  0  0  0
   -7.9907   23.5069  -29.5122 H   0  0  0  0  0  0  0  0  0  0  0  0
   -8.8652   21.3408  -30.3742 H   0  0  0  0  0  0  0  0  0  0  0  0
   -4.3063   22.9016  -31.6947 H   0  0  0  0  0  0  0  0  0  0  0  0
   -3.6531   18.7149  -34.4018 H   0  0  0  0  0  0  0  0  0  0  0  0
   -4.5388   16.5564  -35.2790 H   0  0  0  0  0  0  0  0  0  0  0  0
   -6.8388   15.8061  -34.6737 H   0  0  0  0  0  0  0  0  0  0  0  0
   -8.2611   17.2086  -33.1786 H   0  0  0  0  0  0  0  0  0  0  0  0
    0.2875   23.8868  -29.6508 H   0  0  0  0  0  0  0  0  0  0  0  0
    0.2047   20.7592  -30.7370 H   0  0  0  0  0  0  0  0  0  0  0  0
    1.1777   21.6429  -29.4854 H   0  0  0  0  0  0  0  0  0  0  0  0
  1  2  1  0
  2  3  1  0
  3  4  1  0
  4  5  1  0
  5  6  2  0
  6  7  1  0
  7  8  1  0
  8  9  1  0
  9 10  2  0
  9 11  2  0
  9 12  1  0
 12 13  2  0
 13 14  1  0
 14 15  2  0
 15 16  1  0
 16 17  2  0
 16 18  1  0
 18 19  2  0
 18 20  1  0
 20 21  2  0
 21 22  1  0
 22 23  2  0
 23 24  1  0
 24 25  2  0
 25 26  1  0
 26 27  2  0
  7 28  2  0
 28 29  1  0
 28 30  1  0
 30 31  2  0
 31 32  1  0
 32  2  1  0
 31  5  1  0
 17 12  1  0
 25 20  1  0
 26 15  1  0
  1 33  1  0
  1 34  1  0
  1 35  1  0
  3 36  1  0
  3 37  1  0
  4 38  1  0
  4 39  1  0
  6 40  1  0
 13 41  1  0
 14 42  1  0
 17 43  1  0
 21 44  1  0
 22 45  1  0
 23 46  1  0
 24 47  1  0
 30 48  1  0
 32 49  1  0
 32 50  1  0
M  CHG  2   8  -1  29  -1
M  END
>  <UniqueID>  (48) 
46

>  <SMILES>  (48) 
CN1CCc2cc([N-]S(=O)(=O)c3ccc4c(c3)C(=O)c3ccccc3C4=O)c([O-])cc2C1

>  <Energy>  (48) 
75.41047192989986

>  <Genealogy>  (48) 
CN1CCc2cc([N-]S(=O)(=O)c3ccc4c(c3)C(=O)c3ccccc3C4=O)c([O-])cc2C1 (protonated)
CN1CCc2cc([N-]S(=O)(=O)c3ccc4c(c3)C(=O)c3ccccc3C4=O)c([O-])cc2C1 (3D coordinates assigned)
CN1CCc2cc([N-]S(=O)(=O)c3ccc4c(c3)C(=O)c3ccccc3C4=O)c([O-])cc2C1 (nonaromatic ring conformer: 75.41047192989986 kcal/mol)

>  <smiles>  (48) 
CN1CCc2cc(NS(=O)(=O)c3ccc4c(c3)C(=O)c3ccccc3C4=O)c(O)cc2C1

>  <score_type>  (48) 
oracle

>  <origin>  (48) 
adgpu

>  <m_score__min__energy>  (48) 
-15.779999999999999

>  <m_primary>  (48) 
energy

$$$$
48:0
     RDKit          3D

 59 60  0  0  0  0  0  0  0  0999 V2000
   -3.1050   19.9600  -27.5790 C   0  0  0  0  0  0  0  0  0  0  0  0
   -2.9080   20.9480  -28.7260 C   0  0  0  0  0  0  0  0  0  0  0  0
   -1.6990   20.6120  -29.4910 N   0  0  0  0  0  0  0  0  0  0  0  0
   -1.5460   20.6260  -30.8340 C   0  0  0  0  0  0  0  0  0  0  0  0
   -2.6150   20.7940  -31.8340 C   0  0  0  0  0  0  0  0  0  0  0  0
   -2.3930   21.4860  -32.8640 O   0  0  0  0  0  0  0  0  0  0  0  0
   -3.8770   20.1360  -31.6700 N   0  0  0  0  0  0  0  0  0  0  0  0
   -5.0410   20.4570  -32.4930 C   0  0  0  0  0  0  0  0  0  0  0  0
   -5.7690   21.6560  -31.9440 C   0  0  0  0  0  0  0  0  0  0  0  0
   -7.1450   21.5860  -31.6800 C   0  0  0  0  0  0  0  0  0  0  0  0
   -7.8140   22.6830  -31.1340 C   0  0  0  0  0  0  0  0  0  0  0  0
   -7.1190   23.8530  -30.8360 C   0  0  0  0  0  0  0  0  0  0  0  0
   -5.7350   23.9370  -31.0700 C   0  0  0  0  0  0  0  0  0  0  0  0
   -4.9840   25.1550  -30.6950 C   0  0  0  0  0  0  0  0  0  0  0  0
   -5.5920   26.2530  -30.5700 O   0  0  0  0  0  0  0  0  0  0  0  0
   -3.5630   25.0940  -30.4990 N   0  0  0  0  0  0  0  0  0  0  0  0
   -2.8760   24.6580  -29.2850 C   0  0  0  0  0  0  0  0  0  0  0  0
   -1.6830   23.7540  -29.6150 C   0  0  0  0  0  0  0  0  0  0  0  0
   -3.8510   23.9880  -28.3120 C   0  0  0  0  0  0  0  0  0  0  0  0
   -5.0670   22.8310  -31.6290 C   0  0  0  0  0  0  0  0  0  0  0  0
   -0.2030   20.5220  -31.1250 C   0  0  0  0  0  0  0  0  0  0  0  0
    0.4970   20.4390  -29.9770 N   0  0  0  0  0  0  0  0  0  0  0  0
   -0.4400   20.4970  -29.0000 C   0  0  0  0  0  0  0  0  0  0  0  0
   -0.1060   20.5110  -27.5300 C   0  0  0  0  0  0  0  0  0  0  0  0
    0.2340   21.9220  -27.0120 C   0  0  0  0  0  0  0  0  0  0  0  0
   -0.8290   22.5330  -26.0680 C   0  0  0  0  0  0  0  0  0  0  0  0
   -1.0950   24.0150  -26.3640 C   0  0  0  0  0  0  0  0  0  0  0  0
   -0.4890   22.3240  -24.5840 C   0  0  0  0  0  0  0  0  0  0  0  0
   -2.9999   20.4869  -26.6191 H   0  0  0  0  0  0  0  0  0  0  0  0
   -4.1093   19.5162  -27.6457 H   0  0  0  0  0  0  0  0  0  0  0  0
   -2.3477   19.1650  -27.6457 H   0  0  0  0  0  0  0  0  0  0  0  0
   -3.7817   20.9075  -29.3931 H   0  0  0  0  0  0  0  0  0  0  0  0
   -2.7964   21.9599  -28.3095 H   0  0  0  0  0  0  0  0  0  0  0  0
   -3.9650   19.3700  -30.9640 H   0  0  0  0  0  0  0  0  0  0  0  0
   -4.7086   20.6752  -33.5186 H   0  0  0  0  0  0  0  0  0  0  0  0
   -5.7253   19.5957  -32.4878 H   0  0  0  0  0  0  0  0  0  0  0  0
   -7.6993   20.6627  -31.9042 H   0  0  0  0  0  0  0  0  0  0  0  0
   -8.8948   22.6232  -30.9382 H   0  0  0  0  0  0  0  0  0  0  0  0
   -7.6559   24.7160  -30.4153 H   0  0  0  0  0  0  0  0  0  0  0  0
   -2.4742   25.5501  -28.7823 H   0  0  0  0  0  0  0  0  0  0  0  0
   -1.2197   23.4029  -28.6812 H   0  0  0  0  0  0  0  0  0  0  0  0
   -2.0290   22.8893  -30.2003 H   0  0  0  0  0  0  0  0  0  0  0  0
   -0.9442   24.3210  -30.2003 H   0  0  0  0  0  0  0  0  0  0  0  0
   -3.5414   24.2007  -27.2781 H   0  0  0  0  0  0  0  0  0  0  0  0
   -4.8645   24.3813  -28.4796 H   0  0  0  0  0  0  0  0  0  0  0  0
   -3.8472   22.9008  -28.4796 H   0  0  0  0  0  0  0  0  0  0  0  0
   -3.9853   22.8876  -31.8208 H   0  0  0  0  0  0  0  0  0  0  0  0
    0.2296   20.5088  -32.1363 H   0  0  0  0  0  0  0  0  0  0  0  0
   -0.9713   20.1288  -26.9686 H   0  0  0  0  0  0  0  0  0  0  0  0
    0.7832   19.8800  -27.3848 H   0  0  0  0  0  0  0  0  0  0  0  0
    1.1873   21.8669  -26.4659 H   0  0  0  0  0  0  0  0  0  0  0  0
    0.2810   22.5763  -27.8950 H   0  0  0  0  0  0  0  0  0  0  0  0
   -1.7589   21.9826  -26.2739 H   0  0  0  0  0  0  0  0  0  0  0  0
   -1.1939   24.5660  -25.4171 H   0  0  0  0  0  0  0  0  0  0  0  0
   -0.2569   24.4293  -26.9435 H   0  0  0  0  0  0  0  0  0  0  0  0
   -2.0249   24.1120  -26.9435 H   0  0  0  0  0  0  0  0  0  0  0  0
   -1.2611   22.7986  -23.9606 H   0  0  0  0  0  0  0  0  0  0  0  0
   -0.4516   21.2468  -24.3646 H   0  0  0  0  0  0  0  0  0  0  0  0
    0.4891   22.7770  -24.3646 H   0  0  0  0  0  0  0  0  0  0  0  0
  1  2  1  0
  2  3  1  0
  3  4  1  0
  4  5  1  0
  5  6  2  0
  5  7  1  0
  7  8  1  0
  8  9  1  0
  9 10  2  0
 10 11  1  0
 11 12  2  0
 12 13  1  0
 13 14  1  0
 14 15  2  0
 14 16  1  0
 16 17  1  0
 17 18  1  0
 17 19  1  0
 13 20  2  0
  4 21  2  0
 21 22  1  0
 22 23  2  0
 23 24  1  0
 24 25  1  0
 25 26  1  0
 26 27  1  0
 26 28  1  0
 23  3  1  0
 20  9  1  0
  1 29  1  0
  1 30  1  0
  1 31  1  0
  2 32  1  0
  2 33  1  0
  7 34  1  0
  8 35  1  0
  8 36  1  0
 10 37  1  0
 11 38  1  0
 12 39  1  0
 17 40  1  0
 18 41  1  0
 18 42  1  0
 18 43  1  0
 19 44  1  0
 19 45  1  0
 19 46  1  0
 20 47  1  0
 21 48  1  0
 24 49  1  0
 24 50  1  0
 25 51  1  0
 25 52  1  0
 26 53  1  0
 27 54  1  0
 27 55  1  0
 27 56  1  0
 28 57  1  0
 28 58  1  0
 28 59  1  0
M  CHG  1  16  -1
M  END
>  <UniqueID>  (49) 
47

>  <SMILES>  (49) 
CCn1c(C(=O)NCc2cccc(C(=O)[N-]C(C)C)c2)cnc1CCC(C)C

>  <Energy>  (49) 
77.60628773760402

>  <Genealogy>  (49) 
CCn1c(C(=O)NCc2cccc(C(=O)[N-]C(C)C)c2)cnc1CCC(C)C (protonated)
CCn1c(C(=O)NCc2cccc(C(=O)[N-]C(C)C)c2)cnc1CCC(C)C (3D coordinates assigned)
CCn1c(C(=O)NCc2cccc(C(=O)[N-]C(C)C)c2)cnc1CCC(C)C (optimized conformer: 77.60628773760402 kcal/mol)

>  <smiles>  (49) 
CCn1c(C(=O)NCc2cccc(C(=O)NC(C)C)c2)cnc1CCC(C)C

>  <score_type>  (49) 
oracle

>  <origin>  (49) 
adgpu

>  <m_score__min__energy>  (49) 
-9.6699999999999999

>  <m_primary>  (49) 
energy

$$$$
49:0
     RDKit          3D

 54 57  0  0  0  0  0  0  0  0999 V2000
    1.1380   19.5790  -27.8380 C   0  0  0  0  0  0  0  0  0  0  0  0
   -0.1160   20.3080  -27.5880 N   0  0  0  0  0  0  0  0  0  0  0  0
   -1.1260   19.9070  -28.5810 C   0  0  0  0  0  0  0  0  0  0  0  0
   -2.4290   20.6700  -28.3550 C   0  0  0  0  0  0  0  0  0  0  0  0
   -2.1600   22.1290  -28.5420 C   0  0  0  0  0  0  0  0  0  0  0  0
   -3.1130   22.9570  -29.1530 C   0  0  0  0  0  0  0  0  0  0  0  0
   -2.7920   24.2860  -29.4810 C   0  0  0  0  0  0  0  0  0  0  0  0
   -3.6550   25.0990  -30.2930 N   0  0  0  0  0  0  0  0  0  0  0  0
   -5.3740   24.8900  -30.4610 S   0  0  0  0  0  0  0  0  0  0  0  0
   -5.9350   26.0560  -31.2290 O   0  0  0  0  0  0  0  0  0  0  0  0
   -5.9960   24.8570  -29.0990 O   0  0  0  0  0  0  0  0  0  0  0  0
   -5.7470   23.4110  -31.3500 C   0  0  0  0  0  0  0  0  0  0  0  0
   -7.0560   22.9170  -31.3780 C   0  0  0  0  0  0  0  0  0  0  0  0
   -7.3280   21.6840  -31.9750 C   0  0  0  0  0  0  0  0  0  0  0  0
   -6.2950   20.9350  -32.5540 C   0  0  0  0  0  0  0  0  0  0  0  0
   -6.6540   19.3430  -33.2140 S   0  0  0  0  0  0  0  0  0  0  0  0
   -6.4780   19.3520  -34.7060 O   0  0  0  0  0  0  0  0  0  0  0  0
   -8.0800   19.0010  -32.8930 O   0  0  0  0  0  0  0  0  0  0  0  0
   -5.5550   18.1950  -32.4810 N   0  0  0  0  0  0  0  0  0  0  0  0
   -4.2250   18.2290  -33.1200 C   0  0  0  0  0  0  0  0  0  0  0  0
   -4.0370   17.1150  -34.1760 C   0  0  0  0  0  0  0  0  0  0  0  0
   -5.2760   16.8010  -34.7800 O   0  0  0  0  0  0  0  0  0  0  0  0
   -6.1270   16.1650  -33.8380 C   0  0  0  0  0  0  0  0  0  0  0  0
   -6.1180   16.8350  -32.4430 C   0  0  0  0  0  0  0  0  0  0  0  0
   -4.9900   21.4440  -32.5600 C   0  0  0  0  0  0  0  0  0  0  0  0
   -4.7180   22.6800  -31.9610 C   0  0  0  0  0  0  0  0  0  0  0  0
   -1.5620   24.8150  -29.0600 C   0  0  0  0  0  0  0  0  0  0  0  0
   -1.2410   26.1400  -29.3340 O   0  0  0  0  0  0  0  0  0  0  0  0
   -0.6420   24.0100  -28.3820 C   0  0  0  0  0  0  0  0  0  0  0  0
   -0.9170   22.6540  -28.1520 C   0  0  0  0  0  0  0  0  0  0  0  0
    0.1390   21.7760  -27.5030 C   0  0  0  0  0  0  0  0  0  0  0  0
    1.6027   19.3089  -26.8783 H   0  0  0  0  0  0  0  0  0  0  0  0
    0.9229   18.6652  -28.4113 H   0  0  0  0  0  0  0  0  0  0  0  0
    1.8256   20.2181  -28.4113 H   0  0  0  0  0  0  0  0  0  0  0  0
   -0.7483   20.1263  -29.5906 H   0  0  0  0  0  0  0  0  0  0  0  0
   -1.3212   18.8296  -28.4754 H   0  0  0  0  0  0  0  0  0  0  0  0
   -3.1858   20.3358  -29.0800 H   0  0  0  0  0  0  0  0  0  0  0  0
   -2.8055   20.4823  -27.3386 H   0  0  0  0  0  0  0  0  0  0  0  0
   -4.1161   22.5649  -29.3766 H   0  0  0  0  0  0  0  0  0  0  0  0
   -7.8727   23.5012  -30.9288 H   0  0  0  0  0  0  0  0  0  0  0  0
   -8.3583   21.2990  -31.9907 H   0  0  0  0  0  0  0  0  0  0  0  0
   -4.0966   19.2045  -33.6119 H   0  0  0  0  0  0  0  0  0  0  0  0
   -3.4753   18.0668  -32.3315 H   0  0  0  0  0  0  0  0  0  0  0  0
   -3.3338   17.4609  -34.9479 H   0  0  0  0  0  0  0  0  0  0  0  0
   -3.6401   16.2157  -33.6824 H   0  0  0  0  0  0  0  0  0  0  0  0
   -7.1554   16.1874  -34.2278 H   0  0  0  0  0  0  0  0  0  0  0  0
   -5.7518   15.1395  -33.7055 H   0  0  0  0  0  0  0  0  0  0  0  0
   -7.1514   16.8900  -32.0701 H   0  0  0  0  0  0  0  0  0  0  0  0
   -5.4845   16.2264  -31.7810 H   0  0  0  0  0  0  0  0  0  0  0  0
   -4.1790   20.8727  -33.0353 H   0  0  0  0  0  0  0  0  0  0  0  0
   -3.6930   23.0792  -31.9697 H   0  0  0  0  0  0  0  0  0  0  0  0
    0.3045   24.4432  -28.0263 H   0  0  0  0  0  0  0  0  0  0  0  0
    1.1019   21.9832  -27.9928 H   0  0  0  0  0  0  0  0  0  0  0  0
    0.1283   22.0264  -26.4319 H   0  0  0  0  0  0  0  0  0  0  0  0
  1  2  1  0
  2  3  1  0
  3  4  1  0
  4  5  1  0
  5  6  2  0
  6  7  1  0
  7  8  1  0
  8  9  1  0
  9 10  2  0
  9 11  2  0
  9 12  1  0
 12 13  2  0
 13 14  1  0
 14 15  2  0
 15 16  1  0
 16 17  2  0
 16 18  2  0
 16 19  1  0
 19 20  1  0
 20 21  1  0
 21 22  1  0
 22 23  1  0
 23 24  1  0
 15 25  1  0
 25 26  2  0
  7 27  2  0
 27 28  1  0
 27 29  1  0
 29 30  2  0
 30 31  1  0
 31  2  1  0
 30  5  1  0
 26 12  1  0
 24 19  1  0
  1 32  1  0
  1 33  1  0
  1 34  1  0
  3 35  1  0
  3 36  1  0
  4 37  1  0
  4 38  1  0
  6 39  1  0
 13 40  1  0
 14 41  1  0
 20 42  1  0
 20 43  1  0
 21 44  1  0
 21 45  1  0
 23 46  1  0
 23 47  1  0
 24 48  1  0
 24 49  1  0
 25 50  1  0
 26 51  1  0
 29 52  1  0
 31 53  1  0
 31 54  1  0
M  CHG  2   8  -1  28  -1
M  END
>  <UniqueID>  (50) 
48

>  <SMILES>  (50) 
CN1CCc2cc([N-]S(=O)(=O)c3ccc(S(=O)(=O)N4CCOCC4)cc3)c([O-])cc2C1

>  <Energy>  (50) 
77.94652607642459

>  <Genealogy>  (50) 
CN1CCc2cc([N-]S(=O)(=O)c3ccc(S(=O)(=O)N4CCOCC4)cc3)c([O-])cc2C1 (protonated)
CN1CCc2cc([N-]S(=O)(=O)c3ccc(S(=O)(=O)N4CCOCC4)cc3)c([O-])cc2C1 (3D coordinates assigned)
CN1CCc2cc([N-]S(=O)(=O)c3ccc(S(=O)(=O)N4CCOCC4)cc3)c([O-])cc2C1 (nonaromatic ring conformer: 77.94652607642459 kcal/mol)

>  <smiles>  (50) 
CN1CCc2cc(NS(=O)(=O)c3ccc(S(=O)(=O)N4CCOCC4)cc3)c(O)cc2C1

>  <score_type>  (50) 
oracle

>  <origin>  (50) 
adgpu

>  <m_score__min__energy>  (50) 
-14.9

>  <m_primary>  (50) 
energy

$$$$
