0:0
     RDKit          3D

 41 43  0  0  0  0  0  0  0  0999 V2000
   -4.8180   25.6780  -31.2190 O   0  0  0  0  0  0  0  0  0  0  0  0
   -4.5790   24.9510  -30.2180 C   0  0  0  0  0  0  0  0  0  0  0  0
   -5.7250   24.3410  -29.4570 C   0  0  0  0  0  0  0  0  0  0  0  0
   -6.5170   23.4030  -30.3270 C   0  0  0  0  0  0  0  0  0  0  0  0
   -6.1670   23.2160  -31.6740 C   0  0  0  0  0  0  0  0  0  0  0  0
   -6.8900   22.3240  -32.4720 C   0  0  0  0  0  0  0  0  0  0  0  0
   -7.9630   21.6110  -31.9300 C   0  0  0  0  0  0  0  0  0  0  0  0
   -8.3130   21.7870  -30.5890 C   0  0  0  0  0  0  0  0  0  0  0  0
   -7.5910   22.6770  -29.7870 C   0  0  0  0  0  0  0  0  0  0  0  0
   -3.2130   24.7110  -29.8530 N   0  0  0  0  0  0  0  0  0  0  0  0
   -2.4640   23.5100  -30.0890 C   0  0  0  0  0  0  0  0  0  0  0  0
   -1.2880   23.2920  -29.3630 C   0  0  0  0  0  0  0  0  0  0  0  0
   -0.5520   22.1180  -29.5500 C   0  0  0  0  0  0  0  0  0  0  0  0
   -0.9910   21.1520  -30.4590 C   0  0  0  0  0  0  0  0  0  0  0  0
   -2.1690   21.3530  -31.1880 C   0  0  0  0  0  0  0  0  0  0  0  0
   -2.6080   20.3320  -32.0960 N   0  0  0  0  0  0  0  0  0  0  0  0
   -3.7140   20.4410  -33.0040 C   0  0  0  0  0  0  0  0  0  0  0  0
   -3.7710   21.4400  -33.7700 O   0  0  0  0  0  0  0  0  0  0  0  0
   -4.8080   19.4410  -33.0280 C   0  0  0  0  0  0  0  0  0  0  0  0
   -5.5860   19.1960  -31.8820 C   0  0  0  0  0  0  0  0  0  0  0  0
   -6.6180   18.2540  -31.9150 C   0  0  0  0  0  0  0  0  0  0  0  0
   -6.8860   17.5500  -33.0920 C   0  0  0  0  0  0  0  0  0  0  0  0
   -6.1280   17.7940  -34.2390 C   0  0  0  0  0  0  0  0  0  0  0  0
   -5.0980   18.7400  -34.2120 C   0  0  0  0  0  0  0  0  0  0  0  0
   -2.9220   22.5200  -30.9750 C   0  0  0  0  0  0  0  0  0  0  0  0
   -5.3278   23.7830  -28.5963 H   0  0  0  0  0  0  0  0  0  0  0  0
   -6.3902   25.1500  -29.1208 H   0  0  0  0  0  0  0  0  0  0  0  0
   -5.3211   23.7732  -32.1029 H   0  0  0  0  0  0  0  0  0  0  0  0
   -6.6140   22.1833  -33.5275 H   0  0  0  0  0  0  0  0  0  0  0  0
   -8.5321   20.9111  -32.5595 H   0  0  0  0  0  0  0  0  0  0  0  0
   -9.1574   21.2250  -30.1633 H   0  0  0  0  0  0  0  0  0  0  0  0
   -7.8654   22.8087  -28.7299 H   0  0  0  0  0  0  0  0  0  0  0  0
   -0.9411   24.0472  -28.6423 H   0  0  0  0  0  0  0  0  0  0  0  0
    0.3746   21.9546  -28.9802 H   0  0  0  0  0  0  0  0  0  0  0  0
   -0.4086   20.2299  -30.6024 H   0  0  0  0  0  0  0  0  0  0  0  0
   -5.3808   19.7494  -30.9538 H   0  0  0  0  0  0  0  0  0  0  0  0
   -7.2199   18.0666  -31.0135 H   0  0  0  0  0  0  0  0  0  0  0  0
   -7.6939   16.8038  -33.1149 H   0  0  0  0  0  0  0  0  0  0  0  0
   -6.3413   17.2411  -35.1657 H   0  0  0  0  0  0  0  0  0  0  0  0
   -4.5118   18.9366  -35.1218 H   0  0  0  0  0  0  0  0  0  0  0  0
   -3.8758   22.6595  -31.5050 H   0  0  0  0  0  0  0  0  0  0  0  0
  1  2  2  0
  2  3  1  0
  3  4  1  0
  4  5  2  0
  5  6  1  0
  6  7  2  0
  7  8  1  0
  8  9  2  0
  2 10  1  0
 10 11  1  0
 11 12  2  0
 12 13  1  0
 13 14  2  0
 14 15  1  0
 15 16  1  0
 16 17  1  0
 17 18  2  0
 17 19  1  0
 19 20  2  0
 20 21  1  0
 21 22  2  0
 22 23  1  0
 23 24  2  0
 15 25  2  0
  9  4  1  0
 25 11  1  0
 24 19  1  0
  3 26  1  0
  3 27  1  0
  5 28  1  0
  6 29  1  0
  7 30  1  0
  8 31  1  0
  9 32  1  0
 12 33  1  0
 13 34  1  0
 14 35  1  0
 20 36  1  0
 21 37  1  0
 22 38  1  0
 23 39  1  0
 24 40  1  0
 25 41  1  0
M  CHG  2  10  -1  16  -1
M  END
>  <UniqueID>  (1) 
1

>  <SMILES>  (1) 
O=C(Cc1ccccc1)[N-]c1cccc([N-]C(=O)c2ccccc2)c1

>  <Energy>  (1) 
50.84684133841441

>  <Genealogy>  (1) 
O=C(Cc1ccccc1)[N-]c1cccc([N-]C(=O)c2ccccc2)c1 (protonated)
O=C(Cc1ccccc1)[N-]c1cccc([N-]C(=O)c2ccccc2)c1 (3D coordinates assigned)
O=C(Cc1ccccc1)[N-]c1cccc([N-]C(=O)c2ccccc2)c1 (optimized conformer: 50.84684133841441 kcal/mol)

>  <smiles>  (1) 
O=C(Cc1ccccc1)Nc1cccc(NC(=O)c2ccccc2)c1

>  <score_type>  (1) 
oracle

>  <origin>  (1) 
adgpu

>  <m_score__min__energy>  (1) 
-10.359999999999999

>  <m_primary>  (1) 
energy

$$$$
1:0
     RDKit          3D

 58 62  0  0  0  0  0  0  0  0999 V2000
   -2.7843   22.6856  -26.2512 H   0  0  0  0  0  0  0  0  0  0  0  0
   -2.8690   23.3040  -27.1570 C   0  0  0  0  0  0  0  0  0  0  0  0
   -1.9890   24.3150  -27.3750 N   0  0  0  0  0  0  0  0  0  0  0  0
   -2.0760   25.0940  -28.4880 C   0  0  0  0  0  0  0  0  0  0  0  0
   -1.2380   26.0670  -28.6920 N   0  0  0  0  0  0  0  0  0  0  0  0
   -0.1290   26.4270  -27.8040 C   0  0  0  0  0  0  0  0  0  0  0  0
    0.5542   27.1260  -28.3087 H   0  0  0  0  0  0  0  0  0  0  0  0
    0.6650   25.1460  -27.4540 C   0  0  0  0  0  0  0  0  0  0  0  0
   -0.0341   24.2991  -27.3897 H   0  0  0  0  0  0  0  0  0  0  0  0
    1.4133   24.9788  -28.2428 H   0  0  0  0  0  0  0  0  0  0  0  0
    1.4010   25.2860  -26.1170 C   0  0  0  0  0  0  0  0  0  0  0  0
    1.9798   24.3694  -25.9303 H   0  0  0  0  0  0  0  0  0  0  0  0
    2.0629   26.1625  -26.1783 H   0  0  0  0  0  0  0  0  0  0  0  0
    0.4180   25.5040  -24.9490 C   0  0  0  0  0  0  0  0  0  0  0  0
    0.1613   24.5234  -24.5216 H   0  0  0  0  0  0  0  0  0  0  0  0
    0.9199   26.1569  -24.2197 H   0  0  0  0  0  0  0  0  0  0  0  0
   -0.8860   26.2100  -25.3700 C   0  0  0  0  0  0  0  0  0  0  0  0
   -1.6232   25.4498  -25.6676 H   0  0  0  0  0  0  0  0  0  0  0  0
   -1.2501   26.7976  -24.5144 H   0  0  0  0  0  0  0  0  0  0  0  0
   -0.6570   27.1670  -26.5450 C   0  0  0  0  0  0  0  0  0  0  0  0
   -1.6096   27.6571  -26.7946 H   0  0  0  0  0  0  0  0  0  0  0  0
    0.1016   27.9031  -26.2406 H   0  0  0  0  0  0  0  0  0  0  0  0
   -3.0550   24.8580  -29.3990 N   0  0  0  0  0  0  0  0  0  0  0  0
   -3.9490   23.8460  -29.2340 C   0  0  0  0  0  0  0  0  0  0  0  0
   -4.9850   23.6500  -30.2100 N   0  0  0  0  0  0  0  0  0  0  0  0
   -5.9300   24.5630  -30.5360 C   0  0  0  0  0  0  0  0  0  0  0  0
   -6.0119   25.5647  -30.0890 H   0  0  0  0  0  0  0  0  0  0  0  0
   -6.7820   24.0620  -31.5120 C   0  0  0  0  0  0  0  0  0  0  0  0
   -7.6479   24.5668  -31.9653 H   0  0  0  0  0  0  0  0  0  0  0  0
   -6.3110   22.7980  -31.7910 C   0  0  0  0  0  0  0  0  0  0  0  0
   -6.7600   21.8580  -32.7160 C   0  0  0  0  0  0  0  0  0  0  0  0
   -7.6463   22.0543  -33.3373 H   0  0  0  0  0  0  0  0  0  0  0  0
   -6.0460   20.6480  -32.8330 C   0  0  0  0  0  0  0  0  0  0  0  0
   -6.5100   19.5980  -33.8060 C   0  0  0  0  0  0  0  0  0  0  0  0
   -5.9912   19.7379  -34.7658 H   0  0  0  0  0  0  0  0  0  0  0  0
   -7.5964   19.6959  -33.9477 H   0  0  0  0  0  0  0  0  0  0  0  0
   -6.2160   18.2640  -33.2890 N   0  0  0  0  0  0  0  0  0  0  0  0
   -6.3280   18.1060  -32.2630 H   0  0  0  0  0  0  0  0  0  0  0  0
   -5.6960   17.2160  -34.1240 C   0  0  0  0  0  0  0  0  0  0  0  0
   -5.4070   17.4620  -35.3270 O   0  0  0  0  0  0  0  0  0  0  0  0
   -5.4750   15.8500  -33.5930 C   0  0  0  0  0  0  0  0  0  0  0  0
   -5.9760   14.7180  -34.2640 C   0  0  0  0  0  0  0  0  0  0  0  0
   -6.5480   14.8435  -35.1952 H   0  0  0  0  0  0  0  0  0  0  0  0
   -5.7510   13.4340  -33.7540 C   0  0  0  0  0  0  0  0  0  0  0  0
   -6.1472   12.5553  -34.2840 H   0  0  0  0  0  0  0  0  0  0  0  0
   -5.0240   13.2670  -32.5730 C   0  0  0  0  0  0  0  0  0  0  0  0
   -4.8534   12.2577  -32.1702 H   0  0  0  0  0  0  0  0  0  0  0  0
   -4.5140   14.3810  -31.9040 C   0  0  0  0  0  0  0  0  0  0  0  0
   -3.9389   14.2482  -30.9758 H   0  0  0  0  0  0  0  0  0  0  0  0
   -4.7330   15.6660  -32.4120 C   0  0  0  0  0  0  0  0  0  0  0  0
   -4.3219   16.5391  -31.8840 H   0  0  0  0  0  0  0  0  0  0  0  0
   -4.9030   20.4240  -32.0260 C   0  0  0  0  0  0  0  0  0  0  0  0
   -4.3467   19.4798  -32.1212 H   0  0  0  0  0  0  0  0  0  0  0  0
   -4.4720   21.3950  -31.1050 C   0  0  0  0  0  0  0  0  0  0  0  0
   -3.5742   21.2330  -30.4904 H   0  0  0  0  0  0  0  0  0  0  0  0
   -5.2180   22.5730  -30.9930 C   0  0  0  0  0  0  0  0  0  0  0  0
   -3.8800   23.0510  -28.0830 C   0  0  0  0  0  0  0  0  0  0  0  0
   -4.6081   22.2441  -27.9132 H   0  0  0  0  0  0  0  0  0  0  0  0
  1  2  1  0
  2  3  1  0
  3  4  1  0
  4  5  2  0
  5  6  1  0
  6  7  1  0
  6  8  1  0
  8  9  1  0
  8 10  1  0
  8 11  1  0
 11 12  1  0
 11 13  1  0
 11 14  1  0
 14 15  1  0
 14 16  1  0
 14 17  1  0
 17 18  1  0
 17 19  1  0
 17 20  1  0
 20 21  1  0
 20 22  1  0
  4 23  1  0
 23 24  2  0
 24 25  1  0
 25 26  1  0
 26 27  1  0
 26 28  2  0
 28 29  1  0
 28 30  1  0
 30 31  2  0
 31 32  1  0
 31 33  1  0
 33 34  1  0
 34 35  1  0
 34 36  1  0
 34 37  1  0
 37 38  1  0
 37 39  1  0
 39 40  2  0
 39 41  1  0
 41 42  2  0
 42 43  1  0
 42 44  1  0
 44 45  1  0
 44 46  2  0
 46 47  1  0
 46 48  1  0
 48 49  1  0
 48 50  2  0
 50 51  1  0
 33 52  2  0
 52 53  1  0
 52 54  1  0
 54 55  1  0
 54 56  2  0
 24 57  1  0
 57 58  1  0
 57  2  2  0
 20  6  1  0
 56 25  1  0
 56 30  1  0
 50 41  1  0
M  CHG  1   3  -1
M  END
>  <UniqueID>  (2) 
2

>  <SMILES>  (2) 
O=C(NCc1ccc2c(ccn2-c2cc[n-]/c(=N\C3CCCCC3)n2)c1)c1ccccc1

>  <Energy>  (2) 
104.76835856182346

>  <Genealogy>  (2) 
O=C(NCc1ccc2c(ccn2-c2cc[n-]c(=NC3CCCCC3)n2)c1)c1ccccc1 (protonated)
O=C(NCc1ccc2c(ccn2-c2cc[n-]/c(=N\C3CCCCC3)n2)c1)c1ccccc1 (cis-trans isomerization)
O=C(NCc1ccc2c(ccn2-c2cc[n-]/c(=N\C3CCCCC3)n2)c1)c1ccccc1 (3D coordinates assigned)
O=C(NCc1ccc2c(ccn2-c2cc[n-]/c(=N\C3CCCCC3)n2)c1)c1ccccc1 (nonaromatic ring conformer: 104.76835856182346 kcal/mol)

>  <smiles>  (2) 
O=C(NCc1ccc2c(ccn2-c2cc[nH]c(=NC3CCCCC3)n2)c1)c1ccccc1

>  <score_type>  (2) 
oracle

>  <origin>  (2) 
adgpu

>  <m_score__min__energy>  (2) 
-11.050000000000001

>  <m_primary>  (2) 
energy

$$$$
2:0
     RDKit          3D

 38 40  0  0  0  0  0  0  0  0999 V2000
   -1.6320   25.6760  -29.0010 O   0  0  0  0  0  0  0  0  0  0  0  0
   -2.4770   24.7910  -29.2990 C   0  0  0  0  0  0  0  0  0  0  0  0
   -3.5080   25.1150  -30.2410 N   0  0  0  0  0  0  0  0  0  0  0  0
   -4.6090   24.2710  -30.6060 C   0  0  0  0  0  0  0  0  0  0  0  0
   -5.9140   24.7190  -30.3720 C   0  0  0  0  0  0  0  0  0  0  0  0
   -7.0080   23.9230  -30.7270 C   0  0  0  0  0  0  0  0  0  0  0  0
   -6.8050   22.6640  -31.3040 C   0  0  0  0  0  0  0  0  0  0  0  0
   -8.1910   21.6910  -31.7880 S   0  0  0  0  0  0  0  0  0  0  0  0
   -8.7600   20.9420  -30.6150 O   0  0  0  0  0  0  0  0  0  0  0  0
   -9.2510   22.6010  -32.3420 O   0  0  0  0  0  0  0  0  0  0  0  0
   -7.7170   20.5560  -33.0160 N   0  0  0  0  0  0  0  0  0  0  0  0
   -7.1320   19.4060  -32.8280 C   0  0  0  0  0  0  0  0  0  0  0  0
   -6.8120   18.9220  -31.5410 C   0  0  0  0  0  0  0  0  0  0  0  0
   -6.1760   17.6890  -31.4090 C   0  0  0  0  0  0  0  0  0  0  0  0
   -5.8640   16.9410  -32.5420 C   0  0  0  0  0  0  0  0  0  0  0  0
   -6.1970   17.4400  -33.8010 C   0  0  0  0  0  0  0  0  0  0  0  0
   -6.8170   18.6460  -33.9180 N   0  0  0  0  0  0  0  0  0  0  0  0
   -5.5000   22.1960  -31.5050 C   0  0  0  0  0  0  0  0  0  0  0  0
   -4.4060   22.9920  -31.1540 C   0  0  0  0  0  0  0  0  0  0  0  0
   -2.3470   23.4360  -28.7100 C   0  0  0  0  0  0  0  0  0  0  0  0
   -3.4060   22.8500  -27.9950 C   0  0  0  0  0  0  0  0  0  0  0  0
   -3.2700   21.6050  -27.4660 N   0  0  0  0  0  0  0  0  0  0  0  0
   -2.1250   20.8860  -27.6130 C   0  0  0  0  0  0  0  0  0  0  0  0
   -1.0520   21.4190  -28.3290 C   0  0  0  0  0  0  0  0  0  0  0  0
    0.4260   20.4950  -28.5280 Cl  0  0  0  0  0  0  0  0  0  0  0  0
   -1.1670   22.6960  -28.8840 C   0  0  0  0  0  0  0  0  0  0  0  0
   -6.0802   25.7018  -29.9067 H   0  0  0  0  0  0  0  0  0  0  0  0
   -8.0310   24.2875  -30.5522 H   0  0  0  0  0  0  0  0  0  0  0  0
   -7.0629   19.5140  -30.6485 H   0  0  0  0  0  0  0  0  0  0  0  0
   -5.9203   17.3063  -30.4099 H   0  0  0  0  0  0  0  0  0  0  0  0
   -5.3607   15.9678  -32.4447 H   0  0  0  0  0  0  0  0  0  0  0  0
   -5.9578   16.8569  -34.7025 H   0  0  0  0  0  0  0  0  0  0  0  0
   -7.0500   18.9940  -34.8760 H   0  0  0  0  0  0  0  0  0  0  0  0
   -5.3358   21.1992  -31.9403 H   0  0  0  0  0  0  0  0  0  0  0  0
   -3.3833   22.6169  -31.3069 H   0  0  0  0  0  0  0  0  0  0  0  0
   -4.3488   23.4011  -27.8630 H   0  0  0  0  0  0  0  0  0  0  0  0
   -2.0445   19.8836  -27.1673 H   0  0  0  0  0  0  0  0  0  0  0  0
   -0.3313   23.1223  -29.4584 H   0  0  0  0  0  0  0  0  0  0  0  0
  1  2  2  0
  2  3  1  0
  3  4  1  0
  4  5  2  0
  5  6  1  0
  6  7  2  0
  7  8  1  0
  8  9  2  0
  8 10  2  0
  8 11  1  0
 11 12  2  3
 12 13  1  0
 13 14  2  0
 14 15  1  0
 15 16  2  0
 16 17  1  0
  7 18  1  0
 18 19  2  0
  2 20  1  0
 20 21  2  0
 21 22  1  0
 22 23  2  0
 23 24  1  0
 24 25  1  0
 24 26  2  0
 19  4  1  0
 26 20  1  0
 17 12  1  0
  5 27  1  0
  6 28  1  0
 13 29  1  0
 14 30  1  0
 15 31  1  0
 16 32  1  0
 17 33  1  0
 18 34  1  0
 19 35  1  0
 21 36  1  0
 23 37  1  0
 26 38  1  0
M  CHG  1   3  -1
M  END
>  <UniqueID>  (3) 
3

>  <SMILES>  (3) 
O=C([N-]c1ccc(S(=O)(=O)N=c2cccc[nH]2)cc1)c1cncc(Cl)c1

>  <Energy>  (3) 
54.02742322785823

>  <Genealogy>  (3) 
O=C([N-]c1ccc(S(=O)(=O)N=c2cccc[nH]2)cc1)c1cncc(Cl)c1 (protonated)
O=C([N-]c1ccc(S(=O)(=O)N=c2cccc[nH]2)cc1)c1cncc(Cl)c1 (3D coordinates assigned)
O=C([N-]c1ccc(S(=O)(=O)N=c2cccc[nH]2)cc1)c1cncc(Cl)c1 (optimized conformer: 54.02742322785823 kcal/mol)

>  <smiles>  (3) 
O=C(Nc1ccc(S(=O)(=O)N=c2cccc[nH]2)cc1)c1cncc(Cl)c1

>  <score_type>  (3) 
oracle

>  <origin>  (3) 
adgpu

>  <m_score__min__energy>  (3) 
-11.19

>  <m_primary>  (3) 
energy

$$$$
3:0
     RDKit          3D

 38 41  0  0  0  0  0  0  0  0999 V2000
   -8.6570   17.3050  -31.6870 H   0  0  0  0  0  0  0  0  0  0  0  0
   -9.1460   18.2210  -31.8000 N   0  0  0  0  0  0  0  0  0  0  0  0
   -8.4790   19.3200  -31.9430 C   0  0  0  0  0  0  0  0  0  0  0  0
   -7.1300   19.3710  -31.9510 N   0  0  0  0  0  0  0  0  0  0  0  0
   -6.6790   20.6450  -32.1200 C   0  0  0  0  0  0  0  0  0  0  0  0
   -5.2310   20.9420  -32.1360 C   0  0  0  0  0  0  0  0  0  0  0  0
   -4.5800   21.1740  -33.3600 C   0  0  0  0  0  0  0  0  0  0  0  0
   -5.1497   21.1271  -34.2998 H   0  0  0  0  0  0  0  0  0  0  0  0
   -3.2130   21.4640  -33.3900 C   0  0  0  0  0  0  0  0  0  0  0  0
   -2.7086   21.6335  -34.3528 H   0  0  0  0  0  0  0  0  0  0  0  0
   -2.4860   21.5390  -32.1990 C   0  0  0  0  0  0  0  0  0  0  0  0
   -1.4091   21.7616  -32.2247 H   0  0  0  0  0  0  0  0  0  0  0  0
   -3.1280   21.3310  -30.9750 C   0  0  0  0  0  0  0  0  0  0  0  0
   -2.5565   21.3964  -30.0374 H   0  0  0  0  0  0  0  0  0  0  0  0
   -4.4950   21.0400  -30.9400 C   0  0  0  0  0  0  0  0  0  0  0  0
   -4.9977   20.8869  -29.9736 H   0  0  0  0  0  0  0  0  0  0  0  0
   -7.6940   21.6040  -32.2250 C   0  0  0  0  0  0  0  0  0  0  0  0
   -7.5050   23.3890  -32.3310 S   0  0  0  0  0  0  0  0  0  0  0  0
   -7.1380   23.6170  -30.5580 C   0  0  0  0  0  0  0  0  0  0  0  0
   -7.8246   24.3686  -30.1413 H   0  0  0  0  0  0  0  0  0  0  0  0
   -7.2680   22.6532  -30.0441 H   0  0  0  0  0  0  0  0  0  0  0  0
   -5.7300   24.0780  -30.3630 C   0  0  0  0  0  0  0  0  0  0  0  0
   -5.0740   24.8920  -31.2140 N   0  0  0  0  0  0  0  0  0  0  0  0
   -3.8630   25.0180  -30.6960 N   0  0  0  0  0  0  0  0  0  0  0  0
   -3.7940   24.3070  -29.5820 N   0  0  0  0  0  0  0  0  0  0  0  0
   -2.6230   24.2010  -28.7520 C   0  0  0  0  0  0  0  0  0  0  0  0
   -2.6810   24.5470  -27.3900 C   0  0  0  0  0  0  0  0  0  0  0  0
   -3.6274   24.9002  -26.9547 H   0  0  0  0  0  0  0  0  0  0  0  0
   -1.5400   24.4440  -26.5860 C   0  0  0  0  0  0  0  0  0  0  0  0
   -1.5926   24.7158  -25.5214 H   0  0  0  0  0  0  0  0  0  0  0  0
   -0.3350   23.9970  -27.1320 C   0  0  0  0  0  0  0  0  0  0  0  0
    0.7690   23.8980  -26.3510 F   0  0  0  0  0  0  0  0  0  0  0  0
   -0.2680   23.6510  -28.4850 C   0  0  0  0  0  0  0  0  0  0  0  0
    0.6811   23.2987  -28.9152 H   0  0  0  0  0  0  0  0  0  0  0  0
   -1.4050   23.7520  -29.2920 C   0  0  0  0  0  0  0  0  0  0  0  0
   -1.3464   23.4786  -30.3559 H   0  0  0  0  0  0  0  0  0  0  0  0
   -4.9440   23.7010  -29.3380 N   0  0  0  0  0  0  0  0  0  0  0  0
   -9.1860   20.8300  -32.1240 S   0  0  0  0  0  0  0  0  0  0  0  0
  1  2  1  0
  2  3  2  0
  3  4  1  0
  4  5  1  0
  5  6  1  0
  6  7  2  0
  7  8  1  0
  7  9  1  0
  9 10  1  0
  9 11  2  0
 11 12  1  0
 11 13  1  0
 13 14  1  0
 13 15  2  0
 15 16  1  0
  5 17  2  0
 17 18  1  0
 18 19  1  0
 19 20  1  0
 19 21  1  0
 19 22  1  0
 22 23  1  0
 23 24  2  0
 24 25  1  0
 25 26  1  0
 26 27  2  0
 27 28  1  0
 27 29  1  0
 29 30  1  0
 29 31  2  0
 31 32  1  0
 31 33  1  0
 33 34  1  0
 33 35  2  0
 35 36  1  0
 25 37  1  0
 17 38  1  0
 38  3  1  0
 15  6  1  0
 37 22  2  0
 35 26  1  0
M  CHG  1   4  -1
M  END
>  <UniqueID>  (4) 
4

>  <SMILES>  (4) 
[H]/N=c1\[n-]c(-c2ccccc2)c(SCc2nnn(-c3ccc(F)cc3)n2)s1

>  <Energy>  (4) 
111.96130373988926

>  <Genealogy>  (4) 
N=c1[n-]c(-c2ccccc2)c(SCc2nnn(-c3ccc(F)cc3)n2)s1 (protonated)
[H]/N=c1\[n-]c(-c2ccccc2)c(SCc2nnn(-c3ccc(F)cc3)n2)s1 (cis-trans isomerization)
[H]/N=c1\[n-]c(-c2ccccc2)c(SCc2nnn(-c3ccc(F)cc3)n2)s1 (3D coordinates assigned)
[H]/N=c1\[n-]c(-c2ccccc2)c(SCc2nnn(-c3ccc(F)cc3)n2)s1 (optimized conformer: 111.96130373988926 kcal/mol)

>  <smiles>  (4) 
N=c1[nH]c(-c2ccccc2)c(SCc2nnn(-c3ccc(F)cc3)n2)s1

>  <score_type>  (4) 
oracle

>  <origin>  (4) 
adgpu

>  <m_score__min__energy>  (4) 
-10.52

>  <m_primary>  (4) 
energy

$$$$
4:0
     RDKit          3D

 40 42  0  0  0  0  0  0  0  0999 V2000
   -4.8340   22.4660  -33.0660 N   0  0  0  0  0  0  0  0  0  0  0  0
   -3.7430   21.8760  -32.3320 C   0  0  0  0  0  0  0  0  0  0  0  0
   -3.0930   22.6450  -31.3510 C   0  0  0  0  0  0  0  0  0  0  0  0
   -3.4850   24.0040  -31.1130 N   0  0  0  0  0  0  0  0  0  0  0  0
   -3.6680   24.5890  -29.8170 C   0  0  0  0  0  0  0  0  0  0  0  0
   -2.7470   25.2990  -29.3360 O   0  0  0  0  0  0  0  0  0  0  0  0
   -4.9610   24.4600  -29.0610 C   0  0  0  0  0  0  0  0  0  0  0  0
   -6.0190   23.8760  -29.9450 C   0  0  0  0  0  0  0  0  0  0  0  0
   -6.7020   22.6850  -29.7280 C   0  0  0  0  0  0  0  0  0  0  0  0
   -7.5960   22.3690  -30.7590 C   0  0  0  0  0  0  0  0  0  0  0  0
   -7.6180   23.3060  -31.7850 C   0  0  0  0  0  0  0  0  0  0  0  0
   -6.5200   24.5250  -31.4150 S   0  0  0  0  0  0  0  0  0  0  0  0
   -2.0140   22.0850  -30.6630 C   0  0  0  0  0  0  0  0  0  0  0  0
   -1.3630   22.7690  -29.8260 O   0  0  0  0  0  0  0  0  0  0  0  0
   -1.6500   20.8030  -30.9070 N   0  0  0  0  0  0  0  0  0  0  0  0
   -2.2970   20.0480  -31.8330 C   0  0  0  0  0  0  0  0  0  0  0  0
   -1.9100   18.8630  -32.0240 O   0  0  0  0  0  0  0  0  0  0  0  0
   -3.3480   20.5720  -32.5540 N   0  0  0  0  0  0  0  0  0  0  0  0
   -4.0310   19.7290  -33.5630 C   0  0  0  0  0  0  0  0  0  0  0  0
   -5.4090   19.3200  -33.0980 C   0  0  0  0  0  0  0  0  0  0  0  0
   -6.5420   20.0660  -33.4700 C   0  0  0  0  0  0  0  0  0  0  0  0
   -7.8190   19.6620  -33.0690 C   0  0  0  0  0  0  0  0  0  0  0  0
   -7.9790   18.5040  -32.3040 C   0  0  0  0  0  0  0  0  0  0  0  0
   -6.8610   17.7470  -31.9400 C   0  0  0  0  0  0  0  0  0  0  0  0
   -5.5820   18.1460  -32.3400 C   0  0  0  0  0  0  0  0  0  0  0  0
   -5.1340   23.4510  -32.8880 H   0  0  0  0  0  0  0  0  0  0  0  0
   -5.3600   21.9570  -33.8070 H   0  0  0  0  0  0  0  0  0  0  0  0
   -4.8100   23.8030  -28.1918 H   0  0  0  0  0  0  0  0  0  0  0  0
   -5.2826   25.4571  -28.7258 H   0  0  0  0  0  0  0  0  0  0  0  0
   -6.5555   22.0553  -28.8380 H   0  0  0  0  0  0  0  0  0  0  0  0
   -8.2217   21.4643  -30.7567 H   0  0  0  0  0  0  0  0  0  0  0  0
   -8.2469   23.2585  -32.6862 H   0  0  0  0  0  0  0  0  0  0  0  0
   -0.8460   20.3910  -30.3780 H   0  0  0  0  0  0  0  0  0  0  0  0
   -4.1236   20.2970  -34.5004 H   0  0  0  0  0  0  0  0  0  0  0  0
   -3.4328   18.8186  -33.7156 H   0  0  0  0  0  0  0  0  0  0  0  0
   -6.4225   20.9732  -34.0804 H   0  0  0  0  0  0  0  0  0  0  0  0
   -8.6988   20.2566  -33.3562 H   0  0  0  0  0  0  0  0  0  0  0  0
   -8.9841   18.1878  -31.9881 H   0  0  0  0  0  0  0  0  0  0  0  0
   -6.9881   16.8355  -31.3376 H   0  0  0  0  0  0  0  0  0  0  0  0
   -4.7072   17.5402  -32.0613 H   0  0  0  0  0  0  0  0  0  0  0  0
  1  2  1  0
  2  3  2  0
  3  4  1  0
  4  5  1  0
  5  6  2  0
  5  7  1  0
  7  8  1  0
  8  9  2  0
  9 10  1  0
 10 11  2  0
 11 12  1  0
  3 13  1  0
 13 14  2  0
 13 15  1  0
 15 16  1  0
 16 17  2  0
 16 18  1  0
 18 19  1  0
 19 20  1  0
 20 21  2  0
 21 22  1  0
 22 23  2  0
 23 24  1  0
 24 25  2  0
 18  2  1  0
 25 20  1  0
 12  8  1  0
  1 26  1  0
  1 27  1  0
  7 28  1  0
  7 29  1  0
  9 30  1  0
 10 31  1  0
 11 32  1  0
 15 33  1  0
 19 34  1  0
 19 35  1  0
 21 36  1  0
 22 37  1  0
 23 38  1  0
 24 39  1  0
 25 40  1  0
M  CHG  1   4  -1
M  END
>  <UniqueID>  (5) 
5

>  <SMILES>  (5) 
Nc1c([N-]C(=O)Cc2cccs2)c(=O)[nH]c(=O)n1Cc1ccccc1

>  <Energy>  (5) 
78.14841986100426

>  <Genealogy>  (5) 
Nc1c([N-]C(=O)Cc2cccs2)c(=O)[nH]c(=O)n1Cc1ccccc1 (protonated)
Nc1c([N-]C(=O)Cc2cccs2)c(=O)[nH]c(=O)n1Cc1ccccc1 (3D coordinates assigned)
Nc1c([N-]C(=O)Cc2cccs2)c(=O)[nH]c(=O)n1Cc1ccccc1 (optimized conformer: 78.14841986100426 kcal/mol)

>  <smiles>  (5) 
Nc1c(NC(=O)Cc2cccs2)c(=O)[nH]c(=O)n1Cc1ccccc1

>  <score_type>  (5) 
oracle

>  <origin>  (5) 
adgpu

>  <m_score__min__energy>  (5) 
-8.7300000000000004

>  <m_primary>  (5) 
energy

$$$$
5:0
     RDKit          3D

 46 49  0  0  0  0  0  0  0  0999 V2000
   -5.9840   19.0530  -34.1470 C   0  0  0  0  0  0  0  0  0  0  0  0
   -7.1150   19.3320  -33.3290 O   0  0  0  0  0  0  0  0  0  0  0  0
   -7.2470   20.4690  -32.5190 C   0  0  0  0  0  0  0  0  0  0  0  0
   -8.3780   20.5750  -31.7010 C   0  0  0  0  0  0  0  0  0  0  0  0
   -8.5590   21.6950  -30.8840 C   0  0  0  0  0  0  0  0  0  0  0  0
   -7.6090   22.7170  -30.8730 C   0  0  0  0  0  0  0  0  0  0  0  0
   -6.4600   22.6210  -31.6730 C   0  0  0  0  0  0  0  0  0  0  0  0
   -5.4560   23.7410  -31.6950 C   0  0  0  0  0  0  0  0  0  0  0  0
   -4.2900   23.3940  -30.8270 C   0  0  0  0  0  0  0  0  0  0  0  0
   -3.4670   24.3220  -30.2980 N   0  0  0  0  0  0  0  0  0  0  0  0
   -2.6110   23.6100  -29.5430 C   0  0  0  0  0  0  0  0  0  0  0  0
   -1.4630   24.2260  -28.8470 C   0  0  0  0  0  0  0  0  0  0  0  0
   -1.6150   25.4070  -28.1010 C   0  0  0  0  0  0  0  0  0  0  0  0
   -0.5110   25.9490  -27.4380 C   0  0  0  0  0  0  0  0  0  0  0  0
    0.6960   25.3280  -27.5010 N   0  0  0  0  0  0  0  0  0  0  0  0
    0.8680   24.1740  -28.1980 C   0  0  0  0  0  0  0  0  0  0  0  0
   -0.2100   23.5970  -28.8760 C   0  0  0  0  0  0  0  0  0  0  0  0
   -2.9570   22.2670  -29.6160 C   0  0  0  0  0  0  0  0  0  0  0  0
   -2.3720   21.1260  -28.8880 C   0  0  0  0  0  0  0  0  0  0  0  0
   -1.0820   20.6530  -29.1750 C   0  0  0  0  0  0  0  0  0  0  0  0
   -0.5630   19.5870  -28.4400 C   0  0  0  0  0  0  0  0  0  0  0  0
   -1.3180   19.0130  -27.4160 C   0  0  0  0  0  0  0  0  0  0  0  0
   -2.5900   19.5270  -27.1330 C   0  0  0  0  0  0  0  0  0  0  0  0
   -3.4170   18.9360  -26.0360 C   0  0  0  0  0  0  0  0  0  0  0  0
   -3.0780   20.5630  -27.8680 N   0  0  0  0  0  0  0  0  0  0  0  0
   -4.0190   22.1330  -30.4310 N   0  0  0  0  0  0  0  0  0  0  0  0
   -6.2870   21.5020  -32.5040 C   0  0  0  0  0  0  0  0  0  0  0  0
   -5.1140   18.8384  -33.5090 H   0  0  0  0  0  0  0  0  0  0  0  0
   -6.1971   18.1805  -34.7821 H   0  0  0  0  0  0  0  0  0  0  0  0
   -5.7669   19.9245  -34.7821 H   0  0  0  0  0  0  0  0  0  0  0  0
   -9.1294   19.7717  -31.7010 H   0  0  0  0  0  0  0  0  0  0  0  0
   -9.4532   21.7708  -30.2478 H   0  0  0  0  0  0  0  0  0  0  0  0
   -7.7612   23.6004  -30.2355 H   0  0  0  0  0  0  0  0  0  0  0  0
   -5.1087   23.8996  -32.7266 H   0  0  0  0  0  0  0  0  0  0  0  0
   -5.9288   24.6595  -31.3172 H   0  0  0  0  0  0  0  0  0  0  0  0
   -2.5958   25.9011  -28.0394 H   0  0  0  0  0  0  0  0  0  0  0  0
   -0.6192   26.8808  -26.8635 H   0  0  0  0  0  0  0  0  0  0  0  0
    1.8569   23.6932  -28.2287 H   0  0  0  0  0  0  0  0  0  0  0  0
   -0.0761   22.6554  -29.4288 H   0  0  0  0  0  0  0  0  0  0  0  0
   -0.4852   21.1191  -29.9729 H   0  0  0  0  0  0  0  0  0  0  0  0
    0.4409   19.1990  -28.6674 H   0  0  0  0  0  0  0  0  0  0  0  0
   -0.9187   18.1667  -26.8378 H   0  0  0  0  0  0  0  0  0  0  0  0
   -3.0008   19.2334  -25.0622 H   0  0  0  0  0  0  0  0  0  0  0  0
   -4.4514   19.3007  -26.1195 H   0  0  0  0  0  0  0  0  0  0  0  0
   -3.4070   17.8392  -26.1195 H   0  0  0  0  0  0  0  0  0  0  0  0
   -5.3974   21.4309  -33.1470 H   0  0  0  0  0  0  0  0  0  0  0  0
  1  2  1  0
  2  3  1  0
  3  4  2  0
  4  5  1  0
  5  6  2  0
  6  7  1  0
  7  8  1  0
  8  9  1  0
  9 10  2  0
 10 11  1  0
 11 12  1  0
 12 13  2  0
 13 14  1  0
 14 15  2  0
 15 16  1  0
 16 17  2  0
 11 18  2  0
 18 19  1  0
 19 20  2  0
 20 21  1  0
 21 22  2  0
 22 23  1  0
 23 24  1  0
 23 25  2  0
 18 26  1  0
  7 27  2  0
 27  3  1  0
 26  9  1  0
 17 12  1  0
 25 19  1  0
  1 28  1  0
  1 29  1  0
  1 30  1  0
  4 31  1  0
  5 32  1  0
  6 33  1  0
  8 34  1  0
  8 35  1  0
 13 36  1  0
 14 37  1  0
 16 38  1  0
 17 39  1  0
 20 40  1  0
 21 41  1  0
 22 42  1  0
 24 43  1  0
 24 44  1  0
 24 45  1  0
 27 46  1  0
M  CHG  1  26  -1
M  END
>  <UniqueID>  (6) 
6

>  <SMILES>  (6) 
COc1cccc(Cc2nc(-c3ccncc3)c(-c3cccc(C)n3)[n-]2)c1

>  <Energy>  (6) 
82.89742637334454

>  <Genealogy>  (6) 
COc1cccc(Cc2nc(-c3ccncc3)c(-c3cccc(C)n3)[n-]2)c1 (protonated)
COc1cccc(Cc2nc(-c3ccncc3)c(-c3cccc(C)n3)[n-]2)c1 (3D coordinates assigned)
COc1cccc(Cc2nc(-c3ccncc3)c(-c3cccc(C)n3)[n-]2)c1 (optimized conformer: 82.89742637334454 kcal/mol)

>  <smiles>  (6) 
COc1cccc(Cc2nc(-c3ccncc3)c(-c3cccc(C)n3)[nH]2)c1

>  <score_type>  (6) 
oracle

>  <origin>  (6) 
adgpu

>  <m_score__min__energy>  (6) 
-9.25

>  <m_primary>  (6) 
energy

$$$$
6:0
     RDKit          3D

 29 30  0  0  0  0  0  0  0  0999 V2000
   -2.2340   24.9220  -28.6320 C   0  0  0  0  0  0  0  0  0  0  0  0
   -3.1200   25.2870  -29.6840 O   0  0  0  0  0  0  0  0  0  0  0  0
   -4.1360   24.4430  -30.1430 C   0  0  0  0  0  0  0  0  0  0  0  0
   -5.3690   24.4340  -29.4900 C   0  0  0  0  0  0  0  0  0  0  0  0
   -6.3800   23.5880  -29.9460 C   0  0  0  0  0  0  0  0  0  0  0  0
   -6.1590   22.7500  -31.0510 C   0  0  0  0  0  0  0  0  0  0  0  0
   -7.2370   21.8440  -31.5200 C   0  0  0  0  0  0  0  0  0  0  0  0
   -8.5740   22.2800  -31.5320 C   0  0  0  0  0  0  0  0  0  0  0  0
   -9.5920   21.4250  -31.9660 C   0  0  0  0  0  0  0  0  0  0  0  0
   -9.2850   20.1290  -32.3880 C   0  0  0  0  0  0  0  0  0  0  0  0
   -7.9610   19.6840  -32.3730 C   0  0  0  0  0  0  0  0  0  0  0  0
   -6.9400   20.5350  -31.9390 C   0  0  0  0  0  0  0  0  0  0  0  0
   -4.9050   22.7980  -31.6910 C   0  0  0  0  0  0  0  0  0  0  0  0
   -4.6590   22.0060  -32.8200 O   0  0  0  0  0  0  0  0  0  0  0  0
   -3.5050   21.1870  -32.9510 C   0  0  0  0  0  0  0  0  0  0  0  0
   -3.9370   23.6340  -31.2190 N   0  0  0  0  0  0  0  0  0  0  0  0
   -2.7146   25.1200  -27.6626 H   0  0  0  0  0  0  0  0  0  0  0  0
   -1.9934   23.8515  -28.7101 H   0  0  0  0  0  0  0  0  0  0  0  0
   -1.3091   25.5124  -28.7101 H   0  0  0  0  0  0  0  0  0  0  0  0
   -5.5423   25.0884  -28.6230 H   0  0  0  0  0  0  0  0  0  0  0  0
   -7.3553   23.5772  -29.4375 H   0  0  0  0  0  0  0  0  0  0  0  0
   -8.8203   23.2988  -31.1983 H   0  0  0  0  0  0  0  0  0  0  0  0
  -10.6354   21.7732  -31.9751 H   0  0  0  0  0  0  0  0  0  0  0  0
  -10.0863   19.4587  -32.7323 H   0  0  0  0  0  0  0  0  0  0  0  0
   -7.7212   18.6625  -32.7031 H   0  0  0  0  0  0  0  0  0  0  0  0
   -5.8994   20.1788  -31.9253 H   0  0  0  0  0  0  0  0  0  0  0  0
   -3.1293   20.9204  -31.9521 H   0  0  0  0  0  0  0  0  0  0  0  0
   -3.7660   20.2709  -33.5011 H   0  0  0  0  0  0  0  0  0  0  0  0
   -2.7264   21.7358  -33.5011 H   0  0  0  0  0  0  0  0  0  0  0  0
  1  2  1  0
  2  3  1  0
  3  4  2  0
  4  5  1  0
  5  6  2  0
  6  7  1  0
  7  8  2  0
  8  9  1  0
  9 10  2  0
 10 11  1  0
 11 12  2  0
  6 13  1  0
 13 14  1  0
 14 15  1  0
 13 16  2  0
 16  3  1  0
 12  7  1  0
  1 17  1  0
  1 18  1  0
  1 19  1  0
  4 20  1  0
  5 21  1  0
  8 22  1  0
  9 23  1  0
 10 24  1  0
 11 25  1  0
 12 26  1  0
 15 27  1  0
 15 28  1  0
 15 29  1  0
M  END
>  <UniqueID>  (7) 
7

>  <SMILES>  (7) 
COc1ccc(-c2ccccc2)c(OC)n1

>  <Energy>  (7) 
31.849681038988994

>  <Genealogy>  (7) 
COc1ccc(-c2ccccc2)c(OC)n1 (3D coordinates assigned)
COc1ccc(-c2ccccc2)c(OC)n1 (optimized conformer: 31.849681038988994 kcal/mol)

>  <smiles>  (7) 
COc1ccc(-c2ccccc2)c(OC)n1

>  <score_type>  (7) 
oracle

>  <origin>  (7) 
adgpu

>  <m_score__min__energy>  (7) 
-6.9500000000000002

>  <m_primary>  (7) 
energy

$$$$
7:0
     RDKit          3D

 45 47  0  0  0  0  0  0  0  0999 V2000
   -1.5240   24.9400  -28.3070 C   0  0  0  0  0  0  0  0  0  0  0  0
   -2.4150   25.2670  -29.3690 O   0  0  0  0  0  0  0  0  0  0  0  0
   -3.6720   24.6740  -29.5580 C   0  0  0  0  0  0  0  0  0  0  0  0
   -4.5930   25.3180  -30.3910 C   0  0  0  0  0  0  0  0  0  0  0  0
   -5.8580   24.7660  -30.6120 C   0  0  0  0  0  0  0  0  0  0  0  0
   -6.2290   23.5610  -29.9970 C   0  0  0  0  0  0  0  0  0  0  0  0
   -7.5360   23.0150  -30.2560 N   0  0  0  0  0  0  0  0  0  0  0  0
   -8.0890   22.5140  -31.8250 S   0  0  0  0  0  0  0  0  0  0  0  0
   -7.2240   23.1680  -32.8650 O   0  0  0  0  0  0  0  0  0  0  0  0
   -9.5090   22.9770  -32.0050 O   0  0  0  0  0  0  0  0  0  0  0  0
   -7.9810   20.7520  -32.0130 C   0  0  0  0  0  0  0  0  0  0  0  0
   -9.1120   19.9790  -31.7120 C   0  0  0  0  0  0  0  0  0  0  0  0
   -9.0990   18.5970  -31.8730 C   0  0  0  0  0  0  0  0  0  0  0  0
   -7.9510   17.9530  -32.3260 C   0  0  0  0  0  0  0  0  0  0  0  0
   -6.7850   18.6870  -32.6090 C   0  0  0  0  0  0  0  0  0  0  0  0
   -5.6110   18.0320  -33.0540 C   0  0  0  0  0  0  0  0  0  0  0  0
   -5.5670   16.6040  -33.2000 N   0  0  0  0  0  0  0  0  0  0  0  0
   -6.4290   15.9610  -34.1910 C   0  0  0  0  0  0  0  0  0  0  0  0
   -4.3840   15.8850  -32.7310 C   0  0  0  0  0  0  0  0  0  0  0  0
   -4.4650   18.7830  -33.3430 C   0  0  0  0  0  0  0  0  0  0  0  0
   -4.4670   20.1650  -33.1820 C   0  0  0  0  0  0  0  0  0  0  0  0
   -5.6130   20.8230  -32.7370 C   0  0  0  0  0  0  0  0  0  0  0  0
   -6.7940   20.1030  -32.4530 C   0  0  0  0  0  0  0  0  0  0  0  0
   -5.3010   22.9090  -29.1630 C   0  0  0  0  0  0  0  0  0  0  0  0
   -4.0350   23.4610  -28.9440 C   0  0  0  0  0  0  0  0  0  0  0  0
   -2.0206   25.1222  -27.3425 H   0  0  0  0  0  0  0  0  0  0  0  0
   -1.2411   23.8795  -28.3791 H   0  0  0  0  0  0  0  0  0  0  0  0
   -0.6222   25.5658  -28.3791 H   0  0  0  0  0  0  0  0  0  0  0  0
   -4.3195   26.2666  -30.8761 H   0  0  0  0  0  0  0  0  0  0  0  0
   -6.5692   25.2813  -31.2743 H   0  0  0  0  0  0  0  0  0  0  0  0
   -8.1840   22.8500  -29.4530 H   0  0  0  0  0  0  0  0  0  0  0  0
  -10.0231   20.4728  -31.3431 H   0  0  0  0  0  0  0  0  0  0  0  0
  -10.0002   18.0105  -31.6412 H   0  0  0  0  0  0  0  0  0  0  0  0
   -7.9558   16.8617  -32.4637 H   0  0  0  0  0  0  0  0  0  0  0  0
   -7.2085   15.3796  -33.6768 H   0  0  0  0  0  0  0  0  0  0  0  0
   -6.9005   16.7298  -34.8208 H   0  0  0  0  0  0  0  0  0  0  0  0
   -5.8265   15.2900  -34.8208 H   0  0  0  0  0  0  0  0  0  0  0  0
   -4.3716   15.8775  -31.6311 H   0  0  0  0  0  0  0  0  0  0  0  0
   -4.4115   14.8507  -33.1045 H   0  0  0  0  0  0  0  0  0  0  0  0
   -3.4786   16.3857  -33.1045 H   0  0  0  0  0  0  0  0  0  0  0  0
   -3.5562   18.2764  -33.7000 H   0  0  0  0  0  0  0  0  0  0  0  0
   -3.5583   20.7425  -33.4073 H   0  0  0  0  0  0  0  0  0  0  0  0
   -5.5969   21.9150  -32.6057 H   0  0  0  0  0  0  0  0  0  0  0  0
   -5.5736   21.9589  -28.6803 H   0  0  0  0  0  0  0  0  0  0  0  0
   -3.3189   22.9442  -28.2881 H   0  0  0  0  0  0  0  0  0  0  0  0
  1  2  1  0
  2  3  1  0
  3  4  2  0
  4  5  1  0
  5  6  2  0
  6  7  1  0
  7  8  1  0
  8  9  2  0
  8 10  2  0
  8 11  1  0
 11 12  2  0
 12 13  1  0
 13 14  2  0
 14 15  1  0
 15 16  2  0
 16 17  1  0
 17 18  1  0
 17 19  1  0
 16 20  1  0
 20 21  2  0
 21 22  1  0
 22 23  2  0
  6 24  1  0
 24 25  2  0
 25  3  1  0
 23 11  1  0
 23 15  1  0
  1 26  1  0
  1 27  1  0
  1 28  1  0
  4 29  1  0
  5 30  1  0
  7 31  1  0
 12 32  1  0
 13 33  1  0
 14 34  1  0
 18 35  1  0
 18 36  1  0
 18 37  1  0
 19 38  1  0
 19 39  1  0
 19 40  1  0
 20 41  1  0
 21 42  1  0
 22 43  1  0
 24 44  1  0
 25 45  1  0
M  END
>  <UniqueID>  (8) 
8

>  <SMILES>  (8) 
COc1ccc(NS(=O)(=O)c2cccc3c(N(C)C)cccc23)cc1

>  <Energy>  (8) 
60.92053314891441

>  <Genealogy>  (8) 
COc1ccc(NS(=O)(=O)c2cccc3c(N(C)C)cccc23)cc1 (3D coordinates assigned)
COc1ccc(NS(=O)(=O)c2cccc3c(N(C)C)cccc23)cc1 (optimized conformer: 60.92053314891441 kcal/mol)

>  <smiles>  (8) 
COc1ccc(NS(=O)(=O)c2cccc3c(N(C)C)cccc23)cc1

>  <score_type>  (8) 
oracle

>  <origin>  (8) 
adgpu

>  <m_score__min__energy>  (8) 
-9.5999999999999996

>  <m_primary>  (8) 
energy

$$$$
8:0
     RDKit          3D

 26 27  0  0  0  0  0  0  0  0999 V2000
   -1.4080   20.1160  -28.5420 O   0  0  0  0  0  0  0  0  0  0  0  0
   -2.4050   20.7630  -28.1600 N   0  0  0  0  0  0  0  0  0  0  0  0
   -3.1520   20.2730  -27.1130 O   0  0  0  0  0  0  0  0  0  0  0  0
   -2.7660   22.0010  -28.8010 C   0  0  0  0  0  0  0  0  0  0  0  0
   -2.3580   23.2340  -28.2620 C   0  0  0  0  0  0  0  0  0  0  0  0
   -2.7210   24.4310  -28.8810 C   0  0  0  0  0  0  0  0  0  0  0  0
   -3.4890   24.4200  -30.0510 C   0  0  0  0  0  0  0  0  0  0  0  0
   -3.8880   25.6210  -30.6350 O   0  0  0  0  0  0  0  0  0  0  0  0
   -3.8770   23.1900  -30.6190 C   0  0  0  0  0  0  0  0  0  0  0  0
   -4.6400   23.1270  -31.7930 O   0  0  0  0  0  0  0  0  0  0  0  0
   -5.9510   22.6350  -31.8770 C   0  0  0  0  0  0  0  0  0  0  0  0
   -7.0160   23.5300  -31.7190 C   0  0  0  0  0  0  0  0  0  0  0  0
   -8.3370   23.0760  -31.7850 C   0  0  0  0  0  0  0  0  0  0  0  0
   -8.6030   21.7220  -32.0010 C   0  0  0  0  0  0  0  0  0  0  0  0
   -7.5470   20.8160  -32.1430 C   0  0  0  0  0  0  0  0  0  0  0  0
   -7.8790   19.1120  -32.3990 Cl  0  0  0  0  0  0  0  0  0  0  0  0
   -6.2230   21.2670  -32.0760 C   0  0  0  0  0  0  0  0  0  0  0  0
   -3.5320   21.9940  -29.9790 C   0  0  0  0  0  0  0  0  0  0  0  0
   -1.7487   23.2552  -27.3464 H   0  0  0  0  0  0  0  0  0  0  0  0
   -2.4013   25.3896  -28.4464 H   0  0  0  0  0  0  0  0  0  0  0  0
   -4.1770   25.6710  -31.6050 H   0  0  0  0  0  0  0  0  0  0  0  0
   -6.8125   24.5964  -31.5419 H   0  0  0  0  0  0  0  0  0  0  0  0
   -9.1682   23.7866  -31.6666 H   0  0  0  0  0  0  0  0  0  0  0  0
   -9.6429   21.3682  -32.0594 H   0  0  0  0  0  0  0  0  0  0  0  0
   -5.3936   20.5518  -32.1789 H   0  0  0  0  0  0  0  0  0  0  0  0
   -3.8650   21.0356  -30.4039 H   0  0  0  0  0  0  0  0  0  0  0  0
  1  2  2  0
  2  3  1  0
  2  4  1  0
  4  5  2  0
  5  6  1  0
  6  7  2  0
  7  8  1  0
  7  9  1  0
  9 10  1  0
 10 11  1  0
 11 12  2  0
 12 13  1  0
 13 14  2  0
 14 15  1  0
 15 16  1  0
 15 17  2  0
  9 18  2  0
 18  4  1  0
 17 11  1  0
  5 19  1  0
  6 20  1  0
  8 21  1  0
 12 22  1  0
 13 23  1  0
 14 24  1  0
 17 25  1  0
 18 26  1  0
M  CHG  2   2   1   3  -1
M  END
>  <UniqueID>  (9) 
9

>  <SMILES>  (9) 
O=[N+]([O-])c1ccc(O)c(Oc2cccc(Cl)c2)c1

>  <Energy>  (9) 
35.286514523264906

>  <Genealogy>  (9) 
O=[N+]([O-])c1ccc(O)c(Oc2cccc(Cl)c2)c1 (3D coordinates assigned)
O=[N+]([O-])c1ccc(O)c(Oc2cccc(Cl)c2)c1 (optimized conformer: 35.286514523264906 kcal/mol)

>  <smiles>  (9) 
O=[N+]([O-])c1ccc(O)c(Oc2cccc(Cl)c2)c1

>  <score_type>  (9) 
oracle

>  <origin>  (9) 
adgpu

>  <m_score__min__energy>  (9) 
-7.4100000000000001

>  <m_primary>  (9) 
energy

$$$$
9:0
     RDKit          3D

 43 45  0  0  0  0  0  0  0  0999 V2000
   -0.4670   26.0090  -24.3890 C   0  0  0  0  0  0  0  0  0  0  0  0
   -0.1930   25.4150  -25.7440 C   0  0  0  0  0  0  0  0  0  0  0  0
    1.1310   25.2890  -26.1890 C   0  0  0  0  0  0  0  0  0  0  0  0
    1.3870   24.7700  -27.4550 C   0  0  0  0  0  0  0  0  0  0  0  0
    0.3600   24.3740  -28.2490 N   0  0  0  0  0  0  0  0  0  0  0  0
   -0.9390   24.4600  -27.8540 C   0  0  0  0  0  0  0  0  0  0  0  0
   -1.9770   23.9950  -28.7940 C   0  0  0  0  0  0  0  0  0  0  0  0
   -2.1410   22.6380  -29.0970 C   0  0  0  0  0  0  0  0  0  0  0  0
   -3.1120   22.2560  -30.0200 C   0  0  0  0  0  0  0  0  0  0  0  0
   -3.8850   23.2400  -30.6500 C   0  0  0  0  0  0  0  0  0  0  0  0
   -4.9030   22.8950  -31.6070 N   0  0  0  0  0  0  0  0  0  0  0  0
   -4.6340   21.9500  -32.6990 C   0  0  0  0  0  0  0  0  0  0  0  0
   -5.5190   20.7400  -32.5700 C   0  0  0  0  0  0  0  0  0  0  0  0
   -6.8900   20.8210  -32.8700 C   0  0  0  0  0  0  0  0  0  0  0  0
   -7.6980   19.6830  -32.7780 C   0  0  0  0  0  0  0  0  0  0  0  0
   -7.1460   18.4600  -32.3890 C   0  0  0  0  0  0  0  0  0  0  0  0
   -5.7820   18.3720  -32.0920 C   0  0  0  0  0  0  0  0  0  0  0  0
   -4.9700   19.5070  -32.1820 C   0  0  0  0  0  0  0  0  0  0  0  0
   -6.3910   23.7970  -31.6180 S   0  0  0  0  0  0  0  0  0  0  0  0
   -7.5650   23.0660  -30.4960 C   0  0  0  0  0  0  0  0  0  0  0  0
   -6.9630   23.8010  -33.0070 O   0  0  0  0  0  0  0  0  0  0  0  0
   -6.1280   25.2170  -31.2030 O   0  0  0  0  0  0  0  0  0  0  0  0
   -3.6740   24.5440  -30.3280 N   0  0  0  0  0  0  0  0  0  0  0  0
   -2.7470   24.9100  -29.4390 N   0  0  0  0  0  0  0  0  0  0  0  0
   -1.2480   25.0090  -26.5880 C   0  0  0  0  0  0  0  0  0  0  0  0
   -2.9240   25.2820  -26.0950 Cl  0  0  0  0  0  0  0  0  0  0  0  0
   -0.1426   25.3057  -23.6079 H   0  0  0  0  0  0  0  0  0  0  0  0
    0.0862   26.9540  -24.2842 H   0  0  0  0  0  0  0  0  0  0  0  0
   -1.5449   26.2016  -24.2842 H   0  0  0  0  0  0  0  0  0  0  0  0
    1.9636   25.5990  -25.5404 H   0  0  0  0  0  0  0  0  0  0  0  0
    2.4234   24.6807  -27.8125 H   0  0  0  0  0  0  0  0  0  0  0  0
   -1.5089   21.8804  -28.6107 H   0  0  0  0  0  0  0  0  0  0  0  0
   -3.2702   21.1924  -30.2518 H   0  0  0  0  0  0  0  0  0  0  0  0
   -4.8308   22.4428  -33.6625 H   0  0  0  0  0  0  0  0  0  0  0  0
   -3.5822   21.6321  -32.6472 H   0  0  0  0  0  0  0  0  0  0  0  0
   -7.3284   21.7817  -33.1779 H   0  0  0  0  0  0  0  0  0  0  0  0
   -8.7706   19.7511  -33.0125 H   0  0  0  0  0  0  0  0  0  0  0  0
   -7.7837   17.5667  -32.3163 H   0  0  0  0  0  0  0  0  0  0  0  0
   -5.3474   17.4086  -31.7872 H   0  0  0  0  0  0  0  0  0  0  0  0
   -3.8977   19.4337  -31.9481 H   0  0  0  0  0  0  0  0  0  0  0  0
   -7.2521   23.2609  -29.4596 H   0  0  0  0  0  0  0  0  0  0  0  0
   -8.5588   23.5052  -30.6677 H   0  0  0  0  0  0  0  0  0  0  0  0
   -7.6093   21.9804  -30.6677 H   0  0  0  0  0  0  0  0  0  0  0  0
  1  2  1  0
  2  3  2  0
  3  4  1  0
  4  5  2  0
  5  6  1  0
  6  7  1  0
  7  8  2  0
  8  9  1  0
  9 10  2  0
 10 11  1  0
 11 12  1  0
 12 13  1  0
 13 14  2  0
 14 15  1  0
 15 16  2  0
 16 17  1  0
 17 18  2  0
 11 19  1  0
 19 20  1  0
 19 21  2  0
 19 22  2  0
 10 23  1  0
 23 24  2  0
  6 25  2  0
 25 26  1  0
 25  2  1  0
 24  7  1  0
 18 13  1  0
  1 27  1  0
  1 28  1  0
  1 29  1  0
  3 30  1  0
  4 31  1  0
  8 32  1  0
  9 33  1  0
 12 34  1  0
 12 35  1  0
 14 36  1  0
 15 37  1  0
 16 38  1  0
 17 39  1  0
 18 40  1  0
 20 41  1  0
 20 42  1  0
 20 43  1  0
M  END
>  <UniqueID>  (10) 
10

>  <SMILES>  (10) 
Cc1ccnc(-c2ccc(N(Cc3ccccc3)S(C)(=O)=O)nn2)c1Cl

>  <Energy>  (10) 
53.26944699055216

>  <Genealogy>  (10) 
Cc1ccnc(-c2ccc(N(Cc3ccccc3)S(C)(=O)=O)nn2)c1Cl (3D coordinates assigned)
Cc1ccnc(-c2ccc(N(Cc3ccccc3)S(C)(=O)=O)nn2)c1Cl (optimized conformer: 53.26944699055216 kcal/mol)

>  <smiles>  (10) 
Cc1ccnc(-c2ccc(N(Cc3ccccc3)S(C)(=O)=O)nn2)c1Cl

>  <score_type>  (10) 
oracle

>  <origin>  (10) 
adgpu

>  <m_score__min__energy>  (10) 
-9.2699999999999996

>  <m_primary>  (10) 
energy

$$$$
10:0
     RDKit          3D

 38 40  0  0  0  0  0  0  0  0999 V2000
   -1.5230   25.5660  -27.6220 C   0  0  0  0  0  0  0  0  0  0  0  0
   -1.9950   25.5700  -28.9660 O   0  0  0  0  0  0  0  0  0  0  0  0
   -2.7650   24.5470  -29.5390 C   0  0  0  0  0  0  0  0  0  0  0  0
   -2.1740   23.2880  -29.7080 C   0  0  0  0  0  0  0  0  0  0  0  0
   -2.8960   22.2320  -30.2730 C   0  0  0  0  0  0  0  0  0  0  0  0
   -4.2190   22.4260  -30.6770 C   0  0  0  0  0  0  0  0  0  0  0  0
   -4.9230   21.3990  -31.2200 N   0  0  0  0  0  0  0  0  0  0  0  0
   -6.2150   21.5350  -31.6250 C   0  0  0  0  0  0  0  0  0  0  0  0
   -6.8910   20.3930  -32.1730 N   0  0  0  0  0  0  0  0  0  0  0  0
   -8.2500   20.0470  -31.7380 C   0  0  0  0  0  0  0  0  0  0  0  0
   -8.3890   18.5320  -31.4720 C   0  0  0  0  0  0  0  0  0  0  0  0
   -7.3960   17.7040  -32.1850 N   0  0  0  0  0  0  0  0  0  0  0  0
   -6.9920   18.2980  -33.4610 C   0  0  0  0  0  0  0  0  0  0  0  0
   -6.2080   19.5800  -33.1830 C   0  0  0  0  0  0  0  0  0  0  0  0
   -6.8550   22.7910  -31.5130 C   0  0  0  0  0  0  0  0  0  0  0  0
   -8.2650   23.0070  -31.9890 C   0  0  0  0  0  0  0  0  0  0  0  0
   -6.1500   23.8590  -30.9350 C   0  0  0  0  0  0  0  0  0  0  0  0
   -4.8270   23.6870  -30.5150 C   0  0  0  0  0  0  0  0  0  0  0  0
   -4.1000   24.7440  -29.9460 C   0  0  0  0  0  0  0  0  0  0  0  0
   -2.3800   25.5733  -26.9324 H   0  0  0  0  0  0  0  0  0  0  0  0
   -0.9199   24.6627  -27.4479 H   0  0  0  0  0  0  0  0  0  0  0  0
   -0.9047   26.4589  -27.4479 H   0  0  0  0  0  0  0  0  0  0  0  0
   -1.1321   23.1286  -29.3933 H   0  0  0  0  0  0  0  0  0  0  0  0
   -2.4216   21.2476  -30.3994 H   0  0  0  0  0  0  0  0  0  0  0  0
   -8.4798   20.5953  -30.8125 H   0  0  0  0  0  0  0  0  0  0  0  0
   -8.9505   20.3230  -32.5399 H   0  0  0  0  0  0  0  0  0  0  0  0
   -8.2729   18.3582  -30.3920 H   0  0  0  0  0  0  0  0  0  0  0  0
   -9.3797   18.2328  -31.8448 H   0  0  0  0  0  0  0  0  0  0  0  0
   -7.8250   16.7700  -32.3800 H   0  0  0  0  0  0  0  0  0  0  0  0
   -6.3576   17.5896  -34.0139 H   0  0  0  0  0  0  0  0  0  0  0  0
   -7.8828   18.5287  -34.0638 H   0  0  0  0  0  0  0  0  0  0  0  0
   -5.2041   19.3179  -32.8178 H   0  0  0  0  0  0  0  0  0  0  0  0
   -6.1343   20.1599  -34.1148 H   0  0  0  0  0  0  0  0  0  0  0  0
   -8.9333   23.1094  -31.1213 H   0  0  0  0  0  0  0  0  0  0  0  0
   -8.3106   23.9226  -32.5969 H   0  0  0  0  0  0  0  0  0  0  0  0
   -8.5826   22.1470  -32.5969 H   0  0  0  0  0  0  0  0  0  0  0  0
   -6.6406   24.8358  -30.8119 H   0  0  0  0  0  0  0  0  0  0  0  0
   -4.5732   25.7286  -29.8173 H   0  0  0  0  0  0  0  0  0  0  0  0
  1  2  1  0
  2  3  1  0
  3  4  2  0
  4  5  1  0
  5  6  2  0
  6  7  1  0
  7  8  2  0
  8  9  1  0
  9 10  1  0
 10 11  1  0
 11 12  1  0
 12 13  1  0
 13 14  1  0
  8 15  1  0
 15 16  1  0
 15 17  2  0
 17 18  1  0
 18 19  2  0
 19  3  1  0
 18  6  1  0
 14  9  1  0
  1 20  1  0
  1 21  1  0
  1 22  1  0
  4 23  1  0
  5 24  1  0
 10 25  1  0
 10 26  1  0
 11 27  1  0
 11 28  1  0
 12 29  1  0
 13 30  1  0
 13 31  1  0
 14 32  1  0
 14 33  1  0
 16 34  1  0
 16 35  1  0
 16 36  1  0
 17 37  1  0
 19 38  1  0
M  END
>  <UniqueID>  (11) 
11

>  <SMILES>  (11) 
COc1ccc2nc(N3CCNCC3)c(C)cc2c1

>  <Energy>  (11) 
49.989091337854056

>  <Genealogy>  (11) 
COc1ccc2nc(N3CCNCC3)c(C)cc2c1 (3D coordinates assigned)
COc1ccc2nc(N3CCNCC3)c(C)cc2c1 (nonaromatic ring conformer: 49.989091337854056 kcal/mol)

>  <smiles>  (11) 
COc1ccc2nc(N3CCNCC3)c(C)cc2c1

>  <score_type>  (11) 
oracle

>  <origin>  (11) 
adgpu

>  <m_score__min__energy>  (11) 
-7.4699999999999998

>  <m_primary>  (11) 
energy

$$$$
11:0
     RDKit          3D

 34 35  0  0  0  0  0  0  0  0999 V2000
   -0.1270   25.5490  -25.8490 C   0  0  0  0  0  0  0  0  0  0  0  0
    0.1130   24.3370  -27.1270 S   0  0  0  0  0  0  0  0  0  0  0  0
    0.7730   23.1170  -26.5460 O   0  0  0  0  0  0  0  0  0  0  0  0
    1.0040   24.9030  -28.1970 O   0  0  0  0  0  0  0  0  0  0  0  0
   -1.4460   23.9000  -27.8180 C   0  0  0  0  0  0  0  0  0  0  0  0
   -2.1550   22.7990  -27.3210 C   0  0  0  0  0  0  0  0  0  0  0  0
   -3.4030   22.4710  -27.8540 C   0  0  0  0  0  0  0  0  0  0  0  0
   -3.9500   23.2360  -28.8870 C   0  0  0  0  0  0  0  0  0  0  0  0
   -3.2410   24.3350  -29.4050 C   0  0  0  0  0  0  0  0  0  0  0  0
   -3.7760   25.1650  -30.4460 N   0  0  0  0  0  0  0  0  0  0  0  0
   -5.1520   25.2650  -30.8390 C   0  0  0  0  0  0  0  0  0  0  0  0
   -5.7340   26.3830  -30.8230 O   0  0  0  0  0  0  0  0  0  0  0  0
   -5.9060   24.0460  -31.2140 C   0  0  0  0  0  0  0  0  0  0  0  0
   -5.2980   23.0360  -31.9810 C   0  0  0  0  0  0  0  0  0  0  0  0
   -6.0080   21.8850  -32.3340 C   0  0  0  0  0  0  0  0  0  0  0  0
   -7.3360   21.7080  -31.9100 C   0  0  0  0  0  0  0  0  0  0  0  0
   -8.1160   20.4890  -32.3330 C   0  0  0  0  0  0  0  0  0  0  0  0
   -7.9960   19.4800  -31.3920 F   0  0  0  0  0  0  0  0  0  0  0  0
   -9.4600   20.7930  -32.4700 F   0  0  0  0  0  0  0  0  0  0  0  0
   -7.6310   20.0360  -33.5440 F   0  0  0  0  0  0  0  0  0  0  0  0
   -7.9530   22.7260  -31.1660 C   0  0  0  0  0  0  0  0  0  0  0  0
   -7.2440   23.8780  -30.8130 C   0  0  0  0  0  0  0  0  0  0  0  0
   -1.9990   24.6720  -28.8500 C   0  0  0  0  0  0  0  0  0  0  0  0
   -0.0317   25.0676  -24.8645 H   0  0  0  0  0  0  0  0  0  0  0  0
    0.6321   26.3392  -25.9458 H   0  0  0  0  0  0  0  0  0  0  0  0
   -1.1300   25.9902  -25.9458 H   0  0  0  0  0  0  0  0  0  0  0  0
   -1.7278   22.1917  -26.5094 H   0  0  0  0  0  0  0  0  0  0  0  0
   -3.9576   21.6070  -27.4591 H   0  0  0  0  0  0  0  0  0  0  0  0
   -4.9379   22.9783  -29.2965 H   0  0  0  0  0  0  0  0  0  0  0  0
   -4.2537   23.1530  -32.3062 H   0  0  0  0  0  0  0  0  0  0  0  0
   -5.5236   21.1118  -32.9484 H   0  0  0  0  0  0  0  0  0  0  0  0
   -9.0033   22.6163  -30.8581 H   0  0  0  0  0  0  0  0  0  0  0  0
   -7.7366   24.6600  -30.2165 H   0  0  0  0  0  0  0  0  0  0  0  0
   -1.4533   25.5495  -29.2271 H   0  0  0  0  0  0  0  0  0  0  0  0
  1  2  1  0
  2  3  2  0
  2  4  2  0
  2  5  1  0
  5  6  2  0
  6  7  1  0
  7  8  2  0
  8  9  1  0
  9 10  1  0
 10 11  1  0
 11 12  2  0
 11 13  1  0
 13 14  2  0
 14 15  1  0
 15 16  2  0
 16 17  1  0
 17 18  1  0
 17 19  1  0
 17 20  1  0
 16 21  1  0
 21 22  2  0
  9 23  2  0
 23  5  1  0
 22 13  1  0
  1 24  1  0
  1 25  1  0
  1 26  1  0
  6 27  1  0
  7 28  1  0
  8 29  1  0
 14 30  1  0
 15 31  1  0
 21 32  1  0
 22 33  1  0
 23 34  1  0
M  CHG  1  10  -1
M  END
>  <UniqueID>  (12) 
12

>  <SMILES>  (12) 
CS(=O)(=O)c1cccc([N-]C(=O)c2ccc(C(F)(F)F)cc2)c1

>  <Energy>  (12) 
36.73929829192218

>  <Genealogy>  (12) 
CS(=O)(=O)c1cccc([N-]C(=O)c2ccc(C(F)(F)F)cc2)c1 (protonated)
CS(=O)(=O)c1cccc([N-]C(=O)c2ccc(C(F)(F)F)cc2)c1 (3D coordinates assigned)
CS(=O)(=O)c1cccc([N-]C(=O)c2ccc(C(F)(F)F)cc2)c1 (optimized conformer: 36.73929829192218 kcal/mol)

>  <smiles>  (12) 
CS(=O)(=O)c1cccc(NC(=O)c2ccc(C(F)(F)F)cc2)c1

>  <score_type>  (12) 
oracle

>  <origin>  (12) 
adgpu

>  <m_score__min__energy>  (12) 
-9.5500000000000007

>  <m_primary>  (12) 
energy

$$$$
12:0
     RDKit          3D

 37 39  0  0  1  0  0  0  0  0999 V2000
   -5.8880   25.2440  -30.3040 C   0  0  0  0  0  0  0  0  0  0  0  0
   -4.6050   24.7080  -30.6720 N   0  0  0  0  0  0  0  0  0  0  0  0
   -4.5750   23.5460  -31.2370 C   0  0  0  0  0  0  0  0  0  0  0  0
   -5.7340   22.8210  -31.4920 C   0  0  0  0  0  0  0  0  0  0  0  0
   -5.6820   21.5610  -32.1080 C   0  0  0  0  0  0  0  0  0  0  0  0
   -6.9260   20.8520  -32.2600 C   0  0  0  0  0  0  0  0  0  0  0  0
   -8.1170   21.5160  -31.9400 C   0  0  0  0  0  0  0  0  0  0  0  0
   -9.3520   20.9300  -31.9990 C   0  0  0  0  0  0  0  0  0  0  0  0
   -9.4860   19.6200  -32.3910 C   0  0  0  0  0  0  0  0  0  0  0  0
   -8.3380   18.9440  -32.7110 C   0  0  0  0  0  0  0  0  0  0  0  0
   -7.0670   19.5420  -32.6490 C   0  0  0  0  0  0  0  0  0  0  0  0
   -5.9400   18.6420  -32.9730 C   0  0  0  0  0  0  0  0  0  0  0  0
   -4.4600   21.1380  -32.4160 N   0  0  0  0  0  0  0  0  0  0  0  0
   -3.3250   21.8440  -32.1680 C   0  0  0  0  0  0  0  0  0  0  0  0
   -2.0030   21.3470  -32.5190 C   0  0  0  0  0  0  0  0  0  0  0  0
   -1.6410   20.9500  -33.7870 C   0  0  0  0  0  0  0  0  0  0  0  0
   -0.3610   20.4810  -34.0690 C   0  0  0  0  0  0  0  0  0  0  0  0
    0.5830   20.4030  -33.0670 C   0  0  0  0  0  0  0  0  0  0  0  0
    0.2100   20.7970  -31.8280 N   0  0  0  0  0  0  0  0  0  0  0  0
   -1.0170   21.2490  -31.5460 C   0  0  0  0  0  0  0  0  0  0  0  0
   -3.3840   23.0510  -31.5780 N   0  0  0  0  0  0  0  0  0  0  0  0
   -5.9702   25.2784  -29.2076 H   0  0  0  0  0  0  0  0  0  0  0  0
   -5.9913   26.2605  -30.7115 H   0  0  0  0  0  0  0  0  0  0  0  0
   -6.6837   24.6030  -30.7115 H   0  0  0  0  0  0  0  0  0  0  0  0
   -6.7089   23.2426  -31.2058 H   0  0  0  0  0  0  0  0  0  0  0  0
   -8.0561   22.5677  -31.6235 H   0  0  0  0  0  0  0  0  0  0  0  0
  -10.2454   21.5128  -31.7302 H   0  0  0  0  0  0  0  0  0  0  0  0
  -10.4719   19.1351  -32.4455 H   0  0  0  0  0  0  0  0  0  0  0  0
   -8.4136   17.8935  -33.0285 H   0  0  0  0  0  0  0  0  0  0  0  0
   -5.4828   18.2769  -32.0415 H   0  0  0  0  0  0  0  0  0  0  0  0
   -6.3097   17.7879  -33.5593 H   0  0  0  0  0  0  0  0  0  0  0  0
   -5.1888   19.1915  -33.5593 H   0  0  0  0  0  0  0  0  0  0  0  0
   -4.3250   20.2470  -32.9020 H   0  0  0  0  0  0  0  0  0  0  0  0
   -2.3823   21.0049  -34.5978 H   0  0  0  0  0  0  0  0  0  0  0  0
   -0.1023   20.1722  -35.0926 H   0  0  0  0  0  0  0  0  0  0  0  0
    1.5999   20.0347  -33.2675 H   0  0  0  0  0  0  0  0  0  0  0  0
   -1.2515   21.5515  -30.5147 H   0  0  0  0  0  0  0  0  0  0  0  0
  1  2  1  0
  2  3  2  0
  3  4  1  0
  4  5  2  0
  5  6  1  0
  6  7  2  0
  7  8  1  0
  8  9  2  0
  9 10  1  0
 10 11  2  0
 11 12  1  0
  5 13  1  0
 13 14  1  0
 14 15  1  0
 15 16  2  0
 16 17  1  0
 17 18  2  0
 18 19  1  0
 19 20  2  0
 14 21  2  0
 21  3  1  0
 11  6  1  0
 20 15  1  0
  1 22  1  0
  1 23  1  0
  1 24  1  0
  4 25  1  0
  7 26  1  0
  8 27  1  0
  9 28  1  0
 10 29  1  0
 12 30  1  0
 12 31  1  0
 12 32  1  0
 13 33  1  0
 16 34  1  0
 17 35  1  0
 18 36  1  0
 20 37  1  0
M  END
>  <smiles>  (13) 
CN=c1cc(-c2ccccc2C)[nH]c(-c2cccnc2)n1

>  <score_type>  (13) 
oracle

>  <origin>  (13) 
adgpu

>  <m_score__min__energy>  (13) 
-8.1199999999999992

>  <m_primary>  (13) 
energy

$$$$
13:0
     RDKit          3D

 42 45  0  0  0  0  0  0  0  0999 V2000
   -2.2810   23.4190  -29.7780 C   0  0  0  0  0  0  0  0  0  0  0  0
   -3.1190   24.3310  -30.4820 O   0  0  0  0  0  0  0  0  0  0  0  0
   -4.5190   24.2550  -30.5190 C   0  0  0  0  0  0  0  0  0  0  0  0
   -5.2560   25.3280  -30.0090 C   0  0  0  0  0  0  0  0  0  0  0  0
   -6.6510   25.2990  -30.0210 C   0  0  0  0  0  0  0  0  0  0  0  0
   -7.3260   24.1960  -30.5470 C   0  0  0  0  0  0  0  0  0  0  0  0
   -6.6080   23.1040  -31.0670 C   0  0  0  0  0  0  0  0  0  0  0  0
   -7.3260   21.9300  -31.6290 C   0  0  0  0  0  0  0  0  0  0  0  0
   -8.7300   21.8940  -31.6440 C   0  0  0  0  0  0  0  0  0  0  0  0
   -9.4010   20.7890  -32.1670 C   0  0  0  0  0  0  0  0  0  0  0  0
   -8.6850   19.7090  -32.6850 C   0  0  0  0  0  0  0  0  0  0  0  0
   -7.2780   19.7210  -32.6860 C   0  0  0  0  0  0  0  0  0  0  0  0
   -6.4960   18.5830  -33.2330 C   0  0  0  0  0  0  0  0  0  0  0  0
   -5.4050   18.7590  -34.0290 N   0  0  0  0  0  0  0  0  0  0  0  0
   -5.0140   17.5010  -34.2950 C   0  0  0  0  0  0  0  0  0  0  0  0
   -3.9340   17.0890  -35.0710 C   0  0  0  0  0  0  0  0  0  0  0  0
   -3.7190   15.7010  -35.2200 C   0  0  0  0  0  0  0  0  0  0  0  0
   -2.5460   15.2040  -36.0120 C   0  0  0  0  0  0  0  0  0  0  0  0
   -4.5770   14.7790  -34.5660 C   0  0  0  0  0  0  0  0  0  0  0  0
   -5.6590   15.2340  -33.7900 C   0  0  0  0  0  0  0  0  0  0  0  0
   -5.8410   16.6100  -33.6820 C   0  0  0  0  0  0  0  0  0  0  0  0
   -6.7860   17.2740  -33.0060 N   0  0  0  0  0  0  0  0  0  0  0  0
   -6.6090   20.8390  -32.1520 C   0  0  0  0  0  0  0  0  0  0  0  0
   -5.2010   23.1410  -31.0490 C   0  0  0  0  0  0  0  0  0  0  0  0
   -2.4121   23.5616  -28.6952 H   0  0  0  0  0  0  0  0  0  0  0  0
   -2.5533   22.3879  -30.0476 H   0  0  0  0  0  0  0  0  0  0  0  0
   -1.2306   23.6033  -30.0476 H   0  0  0  0  0  0  0  0  0  0  0  0
   -4.7320   26.2021  -29.5950 H   0  0  0  0  0  0  0  0  0  0  0  0
   -7.2206   26.1478  -29.6148 H   0  0  0  0  0  0  0  0  0  0  0  0
   -8.4259   24.1808  -30.5548 H   0  0  0  0  0  0  0  0  0  0  0  0
   -9.3033   22.7419  -31.2411 H   0  0  0  0  0  0  0  0  0  0  0  0
  -10.5008   20.7686  -32.1712 H   0  0  0  0  0  0  0  0  0  0  0  0
   -9.2242   18.8425  -33.0953 H   0  0  0  0  0  0  0  0  0  0  0  0
   -3.2693   17.8212  -35.5527 H   0  0  0  0  0  0  0  0  0  0  0  0
   -1.7551   14.8689  -35.3248 H   0  0  0  0  0  0  0  0  0  0  0  0
   -2.8618   14.3623  -36.6460 H   0  0  0  0  0  0  0  0  0  0  0  0
   -2.1610   16.0163  -36.6460 H   0  0  0  0  0  0  0  0  0  0  0  0
   -4.3946   13.6989  -34.6666 H   0  0  0  0  0  0  0  0  0  0  0  0
   -6.3364   14.5282  -33.2870 H   0  0  0  0  0  0  0  0  0  0  0  0
   -7.5630   16.8560  -32.4490 H   0  0  0  0  0  0  0  0  0  0  0  0
   -5.5092   20.8594  -32.1438 H   0  0  0  0  0  0  0  0  0  0  0  0
   -4.6284   22.2928  -31.4522 H   0  0  0  0  0  0  0  0  0  0  0  0
  1  2  1  0
  2  3  1  0
  3  4  2  0
  4  5  1  0
  5  6  2  0
  6  7  1  0
  7  8  1  0
  8  9  2  0
  9 10  1  0
 10 11  2  0
 11 12  1  0
 12 13  1  0
 13 14  2  0
 14 15  1  0
 15 16  2  0
 16 17  1  0
 17 18  1  0
 17 19  2  0
 19 20  1  0
 20 21  2  0
 21 22  1  0
 12 23  2  0
  7 24  2  0
 24  3  1  0
 23  8  1  0
 22 13  1  0
 21 15  1  0
  1 25  1  0
  1 26  1  0
  1 27  1  0
  4 28  1  0
  5 29  1  0
  6 30  1  0
  9 31  1  0
 10 32  1  0
 11 33  1  0
 16 34  1  0
 18 35  1  0
 18 36  1  0
 18 37  1  0
 19 38  1  0
 20 39  1  0
 22 40  1  0
 23 41  1  0
 24 42  1  0
M  END
>  <UniqueID>  (14) 
13

>  <SMILES>  (14) 
COc1cccc(-c2cccc(-c3nc4cc(C)ccc4[nH]3)c2)c1

>  <Energy>  (14) 
88.26989836169246

>  <Genealogy>  (14) 
COc1cccc(-c2cccc(-c3nc4cc(C)ccc4[nH]3)c2)c1 (3D coordinates assigned)
COc1cccc(-c2cccc(-c3nc4cc(C)ccc4[nH]3)c2)c1 (optimized conformer: 88.26989836169246 kcal/mol)

>  <smiles>  (14) 
COc1cccc(-c2cccc(-c3nc4cc(C)ccc4[nH]3)c2)c1

>  <score_type>  (14) 
oracle

>  <origin>  (14) 
adgpu

>  <m_score__min__energy>  (14) 
-8.9399999999999995

>  <m_primary>  (14) 
energy

$$$$
14:0
     RDKit          3D

 43 46  0  0  0  0  0  0  0  0999 V2000
   -7.7370   22.5110  -30.4470 C   0  0  0  0  0  0  0  0  0  0  0  0
   -6.9290   21.7880  -31.4930 C   0  0  0  0  0  0  0  0  0  0  0  0
   -7.5870   20.8710  -32.3320 C   0  0  0  0  0  0  0  0  0  0  0  0
   -6.8740   20.1460  -33.2900 C   0  0  0  0  0  0  0  0  0  0  0  0
   -5.4980   20.3270  -33.4220 C   0  0  0  0  0  0  0  0  0  0  0  0
   -4.8310   21.2480  -32.6120 C   0  0  0  0  0  0  0  0  0  0  0  0
   -5.5370   22.0030  -31.6600 C   0  0  0  0  0  0  0  0  0  0  0  0
   -4.7850   22.9860  -30.8510 C   0  0  0  0  0  0  0  0  0  0  0  0
   -4.6900   24.1730  -31.2670 O   0  0  0  0  0  0  0  0  0  0  0  0
   -4.1790   22.5950  -29.6080 N   0  0  0  0  0  0  0  0  0  0  0  0
   -3.4270   23.4830  -28.7640 C   0  0  0  0  0  0  0  0  0  0  0  0
   -3.9400   23.9430  -27.5410 C   0  0  0  0  0  0  0  0  0  0  0  0
   -3.1770   24.7870  -26.7280 C   0  0  0  0  0  0  0  0  0  0  0  0
   -1.8840   25.1720  -27.1160 C   0  0  0  0  0  0  0  0  0  0  0  0
   -1.1000   26.0410  -26.2780 N   0  0  0  0  0  0  0  0  0  0  0  0
   -0.4760   27.2790  -26.6380 C   0  0  0  0  0  0  0  0  0  0  0  0
   -0.4920   27.7770  -27.7960 O   0  0  0  0  0  0  0  0  0  0  0  0
    0.2230   27.8390  -25.4880 C   0  0  0  0  0  0  0  0  0  0  0  0
    0.9660   29.0120  -25.3570 C   0  0  0  0  0  0  0  0  0  0  0  0
    1.5350   29.2960  -24.1030 C   0  0  0  0  0  0  0  0  0  0  0  0
    1.3520   28.4110  -23.0180 C   0  0  0  0  0  0  0  0  0  0  0  0
    0.6000   27.2350  -23.1760 C   0  0  0  0  0  0  0  0  0  0  0  0
    0.0470   26.9740  -24.4290 C   0  0  0  0  0  0  0  0  0  0  0  0
   -0.7680   25.8590  -24.8970 C   0  0  0  0  0  0  0  0  0  0  0  0
   -1.1680   24.9000  -24.1860 O   0  0  0  0  0  0  0  0  0  0  0  0
   -1.3630   24.6900  -28.3270 C   0  0  0  0  0  0  0  0  0  0  0  0
   -2.1260   23.8470  -29.1400 C   0  0  0  0  0  0  0  0  0  0  0  0
   -7.3971   22.2068  -29.4460 H   0  0  0  0  0  0  0  0  0  0  0  0
   -7.6030   23.5964  -30.5656 H   0  0  0  0  0  0  0  0  0  0  0  0
   -8.8009   22.2577  -30.5656 H   0  0  0  0  0  0  0  0  0  0  0  0
   -8.6725   20.7233  -32.2331 H   0  0  0  0  0  0  0  0  0  0  0  0
   -7.3990   19.4314  -33.9410 H   0  0  0  0  0  0  0  0  0  0  0  0
   -4.9365   19.7429  -34.1660 H   0  0  0  0  0  0  0  0  0  0  0  0
   -3.7447   21.3837  -32.7198 H   0  0  0  0  0  0  0  0  0  0  0  0
   -4.2230   21.5890  -29.3300 H   0  0  0  0  0  0  0  0  0  0  0  0
   -4.9471   23.6381  -27.2206 H   0  0  0  0  0  0  0  0  0  0  0  0
   -3.5931   25.1519  -25.7774 H   0  0  0  0  0  0  0  0  0  0  0  0
    1.1027   29.6943  -26.2089 H   0  0  0  0  0  0  0  0  0  0  0  0
    2.1264   30.2134  -23.9663 H   0  0  0  0  0  0  0  0  0  0  0  0
    1.8017   28.6442  -22.0416 H   0  0  0  0  0  0  0  0  0  0  0  0
    0.4518   26.5405  -22.3359 H   0  0  0  0  0  0  0  0  0  0  0  0
   -0.3479   24.9775  -28.6382 H   0  0  0  0  0  0  0  0  0  0  0  0
   -1.7029   23.4664  -30.0814 H   0  0  0  0  0  0  0  0  0  0  0  0
  1  2  1  0
  2  3  2  0
  3  4  1  0
  4  5  2  0
  5  6  1  0
  6  7  2  0
  7  8  1  0
  8  9  2  0
  8 10  1  0
 10 11  1  0
 11 12  2  0
 12 13  1  0
 13 14  2  0
 14 15  1  0
 15 16  1  0
 16 17  2  0
 16 18  1  0
 18 19  2  0
 19 20  1  0
 20 21  2  0
 21 22  1  0
 22 23  2  0
 23 24  1  0
 24 25  2  0
 14 26  1  0
 26 27  2  0
  7  2  1  0
 27 11  1  0
 24 15  1  0
 23 18  1  0
  1 28  1  0
  1 29  1  0
  1 30  1  0
  3 31  1  0
  4 32  1  0
  5 33  1  0
  6 34  1  0
 10 35  1  0
 12 36  1  0
 13 37  1  0
 19 38  1  0
 20 39  1  0
 21 40  1  0
 22 41  1  0
 26 42  1  0
 27 43  1  0
M  END
>  <UniqueID>  (15) 
14

>  <SMILES>  (15) 
Cc1ccccc1C(=O)Nc1ccc(N2C(=O)c3ccccc3C2=O)cc1

>  <Energy>  (15) 
94.72805232731866

>  <Genealogy>  (15) 
Cc1ccccc1C(=O)Nc1ccc(N2C(=O)c3ccccc3C2=O)cc1 (3D coordinates assigned)
Cc1ccccc1C(=O)Nc1ccc(N2C(=O)c3ccccc3C2=O)cc1 (nonaromatic ring conformer: 94.72805232731866 kcal/mol)

>  <smiles>  (15) 
Cc1ccccc1C(=O)Nc1ccc(N2C(=O)c3ccccc3C2=O)cc1

>  <score_type>  (15) 
oracle

>  <origin>  (15) 
adgpu

>  <m_score__min__energy>  (15) 
-8.6899999999999995

>  <m_primary>  (15) 
energy

$$$$
15:0
     RDKit          3D

 36 38  0  0  0  0  0  0  0  0999 V2000
   -5.7190   17.9950  -34.8240 C   0  0  0  0  0  0  0  0  0  0  0  0
   -5.9260   18.2260  -33.4350 O   0  0  0  0  0  0  0  0  0  0  0  0
   -6.8820   19.1110  -32.9140 C   0  0  0  0  0  0  0  0  0  0  0  0
   -8.0580   18.5780  -32.3750 C   0  0  0  0  0  0  0  0  0  0  0  0
   -9.0230   19.4160  -31.8100 C   0  0  0  0  0  0  0  0  0  0  0  0
   -8.8210   20.7970  -31.7780 C   0  0  0  0  0  0  0  0  0  0  0  0
   -7.6580   21.3540  -32.3320 C   0  0  0  0  0  0  0  0  0  0  0  0
   -7.4070   22.8390  -32.2380 C   0  0  0  0  0  0  0  0  0  0  0  0
   -7.2900   23.3030  -30.7800 C   0  0  0  0  0  0  0  0  0  0  0  0
   -5.9430   23.8930  -30.5030 C   0  0  0  0  0  0  0  0  0  0  0  0
   -5.2330   23.6520  -29.3840 N   0  0  0  0  0  0  0  0  0  0  0  0
   -4.0930   24.3260  -29.6440 C   0  0  0  0  0  0  0  0  0  0  0  0
   -2.9290   24.3490  -28.7440 C   0  0  0  0  0  0  0  0  0  0  0  0
   -2.7860   23.3980  -27.7210 C   0  0  0  0  0  0  0  0  0  0  0  0
   -1.6580   23.4410  -26.9000 C   0  0  0  0  0  0  0  0  0  0  0  0
   -0.6880   24.4240  -27.1000 C   0  0  0  0  0  0  0  0  0  0  0  0
   -0.8610   25.3540  -28.1270 C   0  0  0  0  0  0  0  0  0  0  0  0
   -1.9640   25.2960  -28.9200 N   0  0  0  0  0  0  0  0  0  0  0  0
   -4.1180   24.9400  -30.8440 N   0  0  0  0  0  0  0  0  0  0  0  0
   -5.2780   24.6450  -31.3450 O   0  0  0  0  0  0  0  0  0  0  0  0
   -6.6930   20.5070  -32.9050 C   0  0  0  0  0  0  0  0  0  0  0  0
   -4.9902   17.1817  -34.9558 H   0  0  0  0  0  0  0  0  0  0  0  0
   -6.6723   17.7130  -35.2949 H   0  0  0  0  0  0  0  0  0  0  0  0
   -5.3345   18.9118  -35.2949 H   0  0  0  0  0  0  0  0  0  0  0  0
   -8.2242   17.4908  -32.3962 H   0  0  0  0  0  0  0  0  0  0  0  0
   -9.9442   18.9864  -31.3894 H   0  0  0  0  0  0  0  0  0  0  0  0
   -9.5760   21.4508  -31.3170 H   0  0  0  0  0  0  0  0  0  0  0  0
   -6.4705   23.0764  -32.7640 H   0  0  0  0  0  0  0  0  0  0  0  0
   -8.2597   23.3609  -32.6969 H   0  0  0  0  0  0  0  0  0  0  0  0
   -8.0611   24.0623  -30.5828 H   0  0  0  0  0  0  0  0  0  0  0  0
   -7.4273   22.4294  -30.1258 H   0  0  0  0  0  0  0  0  0  0  0  0
   -3.5553   22.6267  -27.5681 H   0  0  0  0  0  0  0  0  0  0  0  0
   -1.5338   22.7006  -26.0960 H   0  0  0  0  0  0  0  0  0  0  0  0
    0.2028   24.4657  -26.4559 H   0  0  0  0  0  0  0  0  0  0  0  0
   -0.1042   26.1344  -28.2947 H   0  0  0  0  0  0  0  0  0  0  0  0
   -5.7837   20.9376  -33.3496 H   0  0  0  0  0  0  0  0  0  0  0  0
  1  2  1  0
  2  3  1  0
  3  4  2  0
  4  5  1  0
  5  6  2  0
  6  7  1  0
  7  8  1  0
  8  9  1  0
  9 10  1  0
 10 11  2  0
 11 12  1  0
 12 13  1  0
 13 14  2  0
 14 15  1  0
 15 16  2  0
 16 17  1  0
 17 18  2  0
 12 19  2  0
 19 20  1  0
  7 21  2  0
 21  3  1  0
 20 10  1  0
 18 13  1  0
  1 22  1  0
  1 23  1  0
  1 24  1  0
  4 25  1  0
  5 26  1  0
  6 27  1  0
  8 28  1  0
  8 29  1  0
  9 30  1  0
  9 31  1  0
 14 32  1  0
 15 33  1  0
 16 34  1  0
 17 35  1  0
 21 36  1  0
M  END
>  <UniqueID>  (16) 
15

>  <SMILES>  (16) 
COc1cccc(CCc2nc(-c3ccccn3)no2)c1

>  <Energy>  (16) 
65.76644749129521

>  <Genealogy>  (16) 
COc1cccc(CCc2nc(-c3ccccn3)no2)c1 (3D coordinates assigned)
COc1cccc(CCc2nc(-c3ccccn3)no2)c1 (optimized conformer: 65.76644749129521 kcal/mol)

>  <smiles>  (16) 
COc1cccc(CCc2nc(-c3ccccn3)no2)c1

>  <score_type>  (16) 
oracle

>  <origin>  (16) 
adgpu

>  <m_score__min__energy>  (16) 
-8.2599999999999998

>  <m_primary>  (16) 
energy

$$$$
16:0
     RDKit          3D

 30 31  0  0  0  0  0  0  0  0999 V2000
   -3.6510   23.3200  -28.6780 C   0  0  0  0  0  0  0  0  0  0  0  0
   -2.9270   23.7880  -29.9310 C   0  0  0  0  0  0  0  0  0  0  0  0
   -3.8640   24.3840  -30.8250 O   0  0  0  0  0  0  0  0  0  0  0  0
   -5.1080   23.8280  -31.1600 C   0  0  0  0  0  0  0  0  0  0  0  0
   -5.2320   22.7630  -32.0730 C   0  0  0  0  0  0  0  0  0  0  0  0
   -6.4890   22.2370  -32.3930 C   0  0  0  0  0  0  0  0  0  0  0  0
   -6.5590   21.1730  -33.3040 O   0  0  0  0  0  0  0  0  0  0  0  0
   -6.5270   19.8180  -32.9490 C   0  0  0  0  0  0  0  0  0  0  0  0
   -5.3330   19.1060  -33.1150 C   0  0  0  0  0  0  0  0  0  0  0  0
   -5.2620   17.7550  -32.7660 C   0  0  0  0  0  0  0  0  0  0  0  0
   -6.3880   17.1030  -32.2620 C   0  0  0  0  0  0  0  0  0  0  0  0
   -7.5920   17.7970  -32.1160 C   0  0  0  0  0  0  0  0  0  0  0  0
   -7.6710   19.1520  -32.4630 C   0  0  0  0  0  0  0  0  0  0  0  0
   -9.2280   19.9640  -32.3470 Cl  0  0  0  0  0  0  0  0  0  0  0  0
   -7.6350   22.7650  -31.7730 C   0  0  0  0  0  0  0  0  0  0  0  0
   -7.5200   23.8210  -30.8660 C   0  0  0  0  0  0  0  0  0  0  0  0
   -6.2640   24.3540  -30.5600 C   0  0  0  0  0  0  0  0  0  0  0  0
   -6.1500   25.6820  -29.4160 Cl  0  0  0  0  0  0  0  0  0  0  0  0
   -3.1080   23.6710  -27.7881 H   0  0  0  0  0  0  0  0  0  0  0  0
   -4.6719   23.7295  -28.6698 H   0  0  0  0  0  0  0  0  0  0  0  0
   -3.6967   22.2210  -28.6698 H   0  0  0  0  0  0  0  0  0  0  0  0
   -2.1599   24.5273  -29.6570 H   0  0  0  0  0  0  0  0  0  0  0  0
   -2.4477   22.9278  -30.4212 H   0  0  0  0  0  0  0  0  0  0  0  0
   -4.3306   22.3396  -32.5401 H   0  0  0  0  0  0  0  0  0  0  0  0
   -4.4459   19.6130  -33.5224 H   0  0  0  0  0  0  0  0  0  0  0  0
   -4.3174   17.2048  -32.8887 H   0  0  0  0  0  0  0  0  0  0  0  0
   -6.3278   16.0416  -31.9793 H   0  0  0  0  0  0  0  0  0  0  0  0
   -8.4805   17.2778  -31.7274 H   0  0  0  0  0  0  0  0  0  0  0  0
   -8.6254   22.3452  -32.0029 H   0  0  0  0  0  0  0  0  0  0  0  0
   -8.4213   24.2351  -30.3904 H   0  0  0  0  0  0  0  0  0  0  0  0
  1  2  1  0
  2  3  1  0
  3  4  1  0
  4  5  2  0
  5  6  1  0
  6  7  1  0
  7  8  1  0
  8  9  2  0
  9 10  1  0
 10 11  2  0
 11 12  1  0
 12 13  2  0
 13 14  1  0
  6 15  2  0
 15 16  1  0
 16 17  2  0
 17 18  1  0
 17  4  1  0
 13  8  1  0
  1 19  1  0
  1 20  1  0
  1 21  1  0
  2 22  1  0
  2 23  1  0
  5 24  1  0
  9 25  1  0
 10 26  1  0
 11 27  1  0
 12 28  1  0
 15 29  1  0
 16 30  1  0
M  END
>  <UniqueID>  (17) 
16

>  <SMILES>  (17) 
CCOc1cc(Oc2ccccc2Cl)ccc1Cl

>  <Energy>  (17) 
35.87627137215357

>  <Genealogy>  (17) 
CCOc1cc(Oc2ccccc2Cl)ccc1Cl (3D coordinates assigned)
CCOc1cc(Oc2ccccc2Cl)ccc1Cl (optimized conformer: 35.87627137215357 kcal/mol)

>  <smiles>  (17) 
CCOc1cc(Oc2ccccc2Cl)ccc1Cl

>  <score_type>  (17) 
oracle

>  <origin>  (17) 
adgpu

>  <m_score__min__energy>  (17) 
-7.6100000000000003

>  <m_primary>  (17) 
energy

$$$$
17:0
     RDKit          3D

 47 50  0  0  0  0  0  0  0  0999 V2000
   -9.8350   20.6000  -32.3510 C   0  0  0  0  0  0  0  0  0  0  0  0
   -9.1210   19.3590  -32.8780 C   0  0  0  0  0  0  0  0  0  0  0  0
   -7.6350   19.4710  -32.6690 C   0  0  0  0  0  0  0  0  0  0  0  0
   -6.9920   18.6730  -31.7080 C   0  0  0  0  0  0  0  0  0  0  0  0
   -5.6180   18.8010  -31.4910 C   0  0  0  0  0  0  0  0  0  0  0  0
   -4.8700   19.7330  -32.2240 C   0  0  0  0  0  0  0  0  0  0  0  0
   -3.4540   19.8640  -32.0010 N   0  0  0  0  0  0  0  0  0  0  0  0
   -2.5200   18.9560  -32.4080 C   0  0  0  0  0  0  0  0  0  0  0  0
   -2.8590   17.5520  -33.1820 S   0  0  0  0  0  0  0  0  0  0  0  0
   -0.9510   19.4020  -31.9550 S   0  0  0  0  0  0  0  0  0  0  0  0
   -1.4990   20.8080  -31.2230 C   0  0  0  0  0  0  0  0  0  0  0  0
   -0.7510   21.7530  -30.6100 N   0  0  0  0  0  0  0  0  0  0  0  0
   -1.3460   22.8550  -30.0700 C   0  0  0  0  0  0  0  0  0  0  0  0
   -0.2720   24.0970  -29.3360 S   0  0  0  0  0  0  0  0  0  0  0  0
   -0.5450   23.4980  -27.6390 C   0  0  0  0  0  0  0  0  0  0  0  0
   -2.7630   23.0160  -30.1510 C   0  0  0  0  0  0  0  0  0  0  0  0
   -3.4740   24.1830  -29.5750 C   0  0  0  0  0  0  0  0  0  0  0  0
   -3.6780   24.2340  -28.3310 O   0  0  0  0  0  0  0  0  0  0  0  0
   -3.8870   25.2710  -30.4080 N   0  0  0  0  0  0  0  0  0  0  0  0
   -5.2700   25.7140  -30.5300 C   0  0  0  0  0  0  0  0  0  0  0  0
   -6.1410   24.5710  -30.9430 C   0  0  0  0  0  0  0  0  0  0  0  0
   -6.8240   23.7250  -30.0930 C   0  0  0  0  0  0  0  0  0  0  0  0
   -7.5060   22.8500  -30.9110 C   0  0  0  0  0  0  0  0  0  0  0  0
   -7.1990   23.2170  -32.2060 C   0  0  0  0  0  0  0  0  0  0  0  0
   -6.3850   24.2480  -32.1920 O   0  0  0  0  0  0  0  0  0  0  0  0
   -3.5200   22.0250  -30.8130 C   0  0  0  0  0  0  0  0  0  0  0  0
   -2.8700   20.9050  -31.3390 C   0  0  0  0  0  0  0  0  0  0  0  0
   -5.5120   20.5400  -33.1730 C   0  0  0  0  0  0  0  0  0  0  0  0
   -6.8860   20.4130  -33.3920 C   0  0  0  0  0  0  0  0  0  0  0  0
   -9.8279   20.5877  -31.2511 H   0  0  0  0  0  0  0  0  0  0  0  0
   -9.3174   21.5014  -32.7110 H   0  0  0  0  0  0  0  0  0  0  0  0
  -10.8744   20.6056  -32.7110 H   0  0  0  0  0  0  0  0  0  0  0  0
   -9.4950   18.4731  -32.3438 H   0  0  0  0  0  0  0  0  0  0  0  0
   -9.3205   19.2673  -33.9559 H   0  0  0  0  0  0  0  0  0  0  0  0
   -7.5731   17.9442  -31.1239 H   0  0  0  0  0  0  0  0  0  0  0  0
   -5.1207   18.1677  -30.7416 H   0  0  0  0  0  0  0  0  0  0  0  0
   -0.1990   24.2572  -26.9221 H   0  0  0  0  0  0  0  0  0  0  0  0
   -1.6178   23.3099  -27.4847 H   0  0  0  0  0  0  0  0  0  0  0  0
    0.0168   22.5649  -27.4847 H   0  0  0  0  0  0  0  0  0  0  0  0
   -5.6146   26.1021  -29.5602 H   0  0  0  0  0  0  0  0  0  0  0  0
   -5.3288   26.5052  -31.2920 H   0  0  0  0  0  0  0  0  0  0  0  0
   -6.8241   23.7448  -28.9932 H   0  0  0  0  0  0  0  0  0  0  0  0
   -8.1624   22.0256  -30.5956 H   0  0  0  0  0  0  0  0  0  0  0  0
   -7.5783   22.7214  -33.1118 H   0  0  0  0  0  0  0  0  0  0  0  0
   -4.6100   22.1332  -30.9138 H   0  0  0  0  0  0  0  0  0  0  0  0
   -4.9316   21.2766  -33.7479 H   0  0  0  0  0  0  0  0  0  0  0  0
   -7.3834   21.0542  -34.1346 H   0  0  0  0  0  0  0  0  0  0  0  0
  1  2  1  0
  2  3  1  0
  3  4  2  0
  4  5  1  0
  5  6  2  0
  6  7  1  0
  7  8  1  0
  8  9  2  0
  8 10  1  0
 10 11  1  0
 11 12  2  0
 12 13  1  0
 13 14  1  0
 14 15  1  0
 13 16  2  0
 16 17  1  0
 17 18  2  0
 17 19  1  0
 19 20  1  0
 20 21  1  0
 21 22  2  0
 22 23  1  0
 23 24  2  0
 24 25  1  0
 16 26  1  0
 26 27  2  0
  6 28  1  0
 28 29  2  0
 29  3  1  0
 27  7  1  0
 27 11  1  0
 25 21  1  0
  1 30  1  0
  1 31  1  0
  1 32  1  0
  2 33  1  0
  2 34  1  0
  4 35  1  0
  5 36  1  0
 15 37  1  0
 15 38  1  0
 15 39  1  0
 20 40  1  0
 20 41  1  0
 22 42  1  0
 23 43  1  0
 24 44  1  0
 26 45  1  0
 28 46  1  0
 29 47  1  0
M  CHG  1  19  -1
M  END
>  <UniqueID>  (18) 
17

>  <SMILES>  (18) 
CCc1ccc(-n2c(=S)sc3nc(SC)c(C(=O)[N-]Cc4ccco4)cc32)cc1

>  <Energy>  (18) 
116.4299355158866

>  <Genealogy>  (18) 
CCc1ccc(-n2c(=S)sc3nc(SC)c(C(=O)[N-]Cc4ccco4)cc32)cc1 (protonated)
CCc1ccc(-n2c(=S)sc3nc(SC)c(C(=O)[N-]Cc4ccco4)cc32)cc1 (3D coordinates assigned)
CCc1ccc(-n2c(=S)sc3nc(SC)c(C(=O)[N-]Cc4ccco4)cc32)cc1 (optimized conformer: 116.4299355158866 kcal/mol)

>  <smiles>  (18) 
CCc1ccc(-n2c(=S)sc3nc(SC)c(C(=O)NCc4ccco4)cc32)cc1

>  <score_type>  (18) 
oracle

>  <origin>  (18) 
adgpu

>  <m_score__min__energy>  (18) 
-11.449999999999999

>  <m_primary>  (18) 
energy

$$$$
18:0
     RDKit          3D

 35 37  0  0  0  0  0  0  0  0999 V2000
   -7.5060   23.2950  -31.7260 C   0  0  0  0  0  0  0  0  0  0  0  0
   -7.2560   22.2420  -32.6510 O   0  0  0  0  0  0  0  0  0  0  0  0
   -7.5630   20.8900  -32.4240 C   0  0  0  0  0  0  0  0  0  0  0  0
   -8.7770   20.5000  -31.8240 C   0  0  0  0  0  0  0  0  0  0  0  0
   -9.0540   19.1490  -31.5970 C   0  0  0  0  0  0  0  0  0  0  0  0
   -8.1260   18.1740  -31.9600 C   0  0  0  0  0  0  0  0  0  0  0  0
   -6.9200   18.5440  -32.5550 C   0  0  0  0  0  0  0  0  0  0  0  0
   -6.6300   19.8970  -32.8040 C   0  0  0  0  0  0  0  0  0  0  0  0
   -5.3140   20.2560  -33.4550 C   0  0  0  0  0  0  0  0  0  0  0  0
   -4.7920   21.5100  -32.9070 N   0  0  0  0  0  0  0  0  0  0  0  0
   -3.6270   21.6030  -32.0580 C   0  0  0  0  0  0  0  0  0  0  0  0
   -2.6520   20.5870  -32.0490 C   0  0  0  0  0  0  0  0  0  0  0  0
   -1.5300   20.6820  -31.2230 C   0  0  0  0  0  0  0  0  0  0  0  0
   -0.6030   19.6910  -31.2280 F   0  0  0  0  0  0  0  0  0  0  0  0
   -1.3550   21.7910  -30.3950 C   0  0  0  0  0  0  0  0  0  0  0  0
   -2.3090   22.8210  -30.3900 C   0  0  0  0  0  0  0  0  0  0  0  0
   -2.1770   23.9580  -29.5730 C   0  0  0  0  0  0  0  0  0  0  0  0
   -1.1840   24.0980  -28.8100 O   0  0  0  0  0  0  0  0  0  0  0  0
   -3.1320   24.9240  -29.6030 N   0  0  0  0  0  0  0  0  0  0  0  0
   -4.2190   24.8150  -30.4090 C   0  0  0  0  0  0  0  0  0  0  0  0
   -4.3690   23.7280  -31.2070 N   0  0  0  0  0  0  0  0  0  0  0  0
   -3.4460   22.7280  -31.2250 C   0  0  0  0  0  0  0  0  0  0  0  0
   -7.4147   22.9106  -30.6994 H   0  0  0  0  0  0  0  0  0  0  0  0
   -6.7744   24.1015  -31.8820 H   0  0  0  0  0  0  0  0  0  0  0  0
   -8.5221   23.6865  -31.8820 H   0  0  0  0  0  0  0  0  0  0  0  0
   -9.5121   21.2645  -31.5321 H   0  0  0  0  0  0  0  0  0  0  0  0
  -10.0059   18.8545  -31.1311 H   0  0  0  0  0  0  0  0  0  0  0  0
   -8.3452   17.1117  -31.7770 H   0  0  0  0  0  0  0  0  0  0  0  0
   -6.1890   17.7701  -32.8320 H   0  0  0  0  0  0  0  0  0  0  0  0
   -4.5878   19.4508  -33.2700 H   0  0  0  0  0  0  0  0  0  0  0  0
   -5.4761   20.3819  -34.5357 H   0  0  0  0  0  0  0  0  0  0  0  0
   -5.3520   22.3720  -33.0990 H   0  0  0  0  0  0  0  0  0  0  0  0
   -2.7755   19.7088  -32.6998 H   0  0  0  0  0  0  0  0  0  0  0  0
   -0.4695   21.8585  -29.7460 H   0  0  0  0  0  0  0  0  0  0  0  0
   -4.9797   25.6096  -30.4151 H   0  0  0  0  0  0  0  0  0  0  0  0
  1  2  1  0
  2  3  1  0
  3  4  2  0
  4  5  1  0
  5  6  2  0
  6  7  1  0
  7  8  2  0
  8  9  1  0
  9 10  1  0
 10 11  1  0
 11 12  2  0
 12 13  1  0
 13 14  1  0
 13 15  2  0
 15 16  1  0
 16 17  1  0
 17 18  2  0
 17 19  1  0
 19 20  1  0
 20 21  2  0
 21 22  1  0
  8  3  1  0
 22 11  1  0
 22 16  2  0
  1 23  1  0
  1 24  1  0
  1 25  1  0
  4 26  1  0
  5 27  1  0
  6 28  1  0
  7 29  1  0
  9 30  1  0
  9 31  1  0
 10 32  1  0
 12 33  1  0
 15 34  1  0
 20 35  1  0
M  CHG  1  19  -1
M  END
>  <UniqueID>  (19) 
18

>  <SMILES>  (19) 
COc1ccccc1CNc1cc(F)cc2c(=O)[n-]cnc12

>  <Energy>  (19) 
43.239195174928696

>  <Genealogy>  (19) 
COc1ccccc1CNc1cc(F)cc2c(=O)[n-]cnc12 (protonated)
COc1ccccc1CNc1cc(F)cc2c(=O)[n-]cnc12 (3D coordinates assigned)
COc1ccccc1CNc1cc(F)cc2c(=O)[n-]cnc12 (optimized conformer: 43.239195174928696 kcal/mol)

>  <smiles>  (19) 
COc1ccccc1CNc1cc(F)cc2c(=O)[nH]cnc12

>  <score_type>  (19) 
oracle

>  <origin>  (19) 
adgpu

>  <m_score__min__energy>  (19) 
-8.3399999999999999

>  <m_primary>  (19) 
energy

$$$$
19:0
     RDKit          3D

 69 70  0  0  0  0  0  0  0  0999 V2000
   -3.1390   19.4420  -26.9250 C   0  0  0  0  0  0  0  0  0  0  0  0
   -1.7190   19.9720  -26.7350 C   0  0  0  0  0  0  0  0  0  0  0  0
   -1.3650   20.9980  -27.8170 C   0  0  0  0  0  0  0  0  0  0  0  0
   -2.2530   20.8220  -29.0560 C   0  0  0  0  0  0  0  0  0  0  0  0
   -1.5330   21.1850  -30.3680 C   0  0  0  0  0  0  0  0  0  0  0  0
   -2.3810   22.0580  -31.3160 C   0  0  0  0  0  0  0  0  0  0  0  0
   -2.9440   21.2530  -32.5010 C   0  0  0  0  0  0  0  0  0  0  0  0
   -4.2390   20.5020  -32.1560 C   0  0  0  0  0  0  0  0  0  0  0  0
   -5.3320   20.6120  -33.2390 C   0  0  0  0  0  0  0  0  0  0  0  0
   -5.9350   19.2450  -33.6130 C   0  0  0  0  0  0  0  0  0  0  0  0
   -6.2860   18.4080  -32.3700 C   0  0  0  0  0  0  0  0  0  0  0  0
   -7.5150   18.9590  -31.6320 C   0  0  0  0  0  0  0  0  0  0  0  0
   -8.5340   19.5550  -32.6110 C   0  0  0  0  0  0  0  0  0  0  0  0
   -9.4970   20.5010  -31.8860 C   0  0  0  0  0  0  0  0  0  0  0  0
   -9.1570   21.9020  -32.1460 N   0  0  0  0  0  0  0  0  0  0  0  0
   -7.9620   22.5220  -31.6350 C   0  0  0  0  0  0  0  0  0  0  0  0
   -7.5430   22.3370  -30.3040 C   0  0  0  0  0  0  0  0  0  0  0  0
   -6.3690   22.9380  -29.8390 C   0  0  0  0  0  0  0  0  0  0  0  0
   -5.5850   23.7330  -30.6930 C   0  0  0  0  0  0  0  0  0  0  0  0
   -4.3290   24.3460  -30.2060 C   0  0  0  0  0  0  0  0  0  0  0  0
   -3.9000   25.4090  -30.7340 O   0  0  0  0  0  0  0  0  0  0  0  0
   -3.6250   23.7570  -29.1020 N   0  0  0  0  0  0  0  0  0  0  0  0
   -2.7710   24.4420  -28.1750 C   0  0  0  0  0  0  0  0  0  0  0  0
   -1.5450   24.9410  -28.6320 C   0  0  0  0  0  0  0  0  0  0  0  0
   -0.6930   25.6300  -27.7630 C   0  0  0  0  0  0  0  0  0  0  0  0
   -1.0700   25.8390  -26.4330 C   0  0  0  0  0  0  0  0  0  0  0  0
   -2.3010   25.3680  -25.9740 C   0  0  0  0  0  0  0  0  0  0  0  0
   -3.1540   24.6740  -26.8390 C   0  0  0  0  0  0  0  0  0  0  0  0
   -6.0080   23.9220  -32.0200 C   0  0  0  0  0  0  0  0  0  0  0  0
   -7.1860   23.3270  -32.4830 C   0  0  0  0  0  0  0  0  0  0  0  0
   -3.6007   19.2697  -25.9416 H   0  0  0  0  0  0  0  0  0  0  0  0
   -3.7335   20.1788  -27.4851 H   0  0  0  0  0  0  0  0  0  0  0  0
   -3.1054   18.4959  -27.4851 H   0  0  0  0  0  0  0  0  0  0  0  0
   -1.6430   20.4503  -25.7474 H   0  0  0  0  0  0  0  0  0  0  0  0
   -1.0175   19.1280  -26.8102 H   0  0  0  0  0  0  0  0  0  0  0  0
   -1.5089   22.0108  -27.4127 H   0  0  0  0  0  0  0  0  0  0  0  0
   -0.3167   20.8458  -28.1136 H   0  0  0  0  0  0  0  0  0  0  0  0
   -2.5737   19.7712  -29.1111 H   0  0  0  0  0  0  0  0  0  0  0  0
   -3.1073   21.5066  -28.9488 H   0  0  0  0  0  0  0  0  0  0  0  0
   -0.6128   21.7340  -30.1194 H   0  0  0  0  0  0  0  0  0  0  0  0
   -1.3275   20.2417  -30.8952 H   0  0  0  0  0  0  0  0  0  0  0  0
   -3.2202   22.4856  -30.7478 H   0  0  0  0  0  0  0  0  0  0  0  0
   -1.7296   22.8457  -31.7224 H   0  0  0  0  0  0  0  0  0  0  0  0
   -3.1513   21.9468  -33.3290 H   0  0  0  0  0  0  0  0  0  0  0  0
   -2.1902   20.5001  -32.7747 H   0  0  0  0  0  0  0  0  0  0  0  0
   -3.9959   19.4384  -32.0159 H   0  0  0  0  0  0  0  0  0  0  0  0
   -4.6443   20.9658  -31.2446 H   0  0  0  0  0  0  0  0  0  0  0  0
   -6.1366   21.2609  -32.8628 H   0  0  0  0  0  0  0  0  0  0  0  0
   -4.8642   21.0284  -34.1433 H   0  0  0  0  0  0  0  0  0  0  0  0
   -6.8506   19.4097  -34.1999 H   0  0  0  0  0  0  0  0  0  0  0  0
   -5.1833   18.6904  -34.1938 H   0  0  0  0  0  0  0  0  0  0  0  0
   -6.4949   17.3750  -32.6851 H   0  0  0  0  0  0  0  0  0  0  0  0
   -5.4298   18.4490  -31.6806 H   0  0  0  0  0  0  0  0  0  0  0  0
   -7.9925   18.1416  -31.0718 H   0  0  0  0  0  0  0  0  0  0  0  0
   -7.1817   19.7559  -30.9509 H   0  0  0  0  0  0  0  0  0  0  0  0
   -7.9987   20.1146  -33.3922 H   0  0  0  0  0  0  0  0  0  0  0  0
   -9.1152   18.7347  -33.0574 H   0  0  0  0  0  0  0  0  0  0  0  0
  -10.5215   20.3090  -32.2373 H   0  0  0  0  0  0  0  0  0  0  0  0
   -9.4180   20.3177  -30.8043 H   0  0  0  0  0  0  0  0  0  0  0  0
   -9.7690   22.4610  -32.7810 H   0  0  0  0  0  0  0  0  0  0  0  0
   -8.1437   21.7148  -29.6243 H   0  0  0  0  0  0  0  0  0  0  0  0
   -6.0562   22.7872  -28.7953 H   0  0  0  0  0  0  0  0  0  0  0  0
   -1.2503   24.7901  -29.6810 H   0  0  0  0  0  0  0  0  0  0  0  0
    0.2742   26.0077  -28.1261 H   0  0  0  0  0  0  0  0  0  0  0  0
   -0.3962   26.3748  -25.7482 H   0  0  0  0  0  0  0  0  0  0  0  0
   -2.6011   25.5427  -24.9303 H   0  0  0  0  0  0  0  0  0  0  0  0
   -4.1257   24.3087  -26.4753 H   0  0  0  0  0  0  0  0  0  0  0  0
   -5.4072   24.5434  -32.7004 H   0  0  0  0  0  0  0  0  0  0  0  0
   -7.5074   23.4916  -33.5220 H   0  0  0  0  0  0  0  0  0  0  0  0
  1  2  1  0
  2  3  1  0
  3  4  1  0
  4  5  1  0
  5  6  1  0
  6  7  1  0
  7  8  1  0
  8  9  1  0
  9 10  1  0
 10 11  1  0
 11 12  1  0
 12 13  1  0
 13 14  1  0
 14 15  1  0
 15 16  1  0
 16 17  2  0
 17 18  1  0
 18 19  2  0
 19 20  1  0
 20 21  2  0
 20 22  1  0
 22 23  1  0
 23 24  2  0
 24 25  1  0
 25 26  2  0
 26 27  1  0
 27 28  2  0
 19 29  1  0
 29 30  2  0
 30 16  1  0
 28 23  1  0
  1 31  1  0
  1 32  1  0
  1 33  1  0
  2 34  1  0
  2 35  1  0
  3 36  1  0
  3 37  1  0
  4 38  1  0
  4 39  1  0
  5 40  1  0
  5 41  1  0
  6 42  1  0
  6 43  1  0
  7 44  1  0
  7 45  1  0
  8 46  1  0
  8 47  1  0
  9 48  1  0
  9 49  1  0
 10 50  1  0
 10 51  1  0
 11 52  1  0
 11 53  1  0
 12 54  1  0
 12 55  1  0
 13 56  1  0
 13 57  1  0
 14 58  1  0
 14 59  1  0
 15 60  1  0
 17 61  1  0
 18 62  1  0
 24 63  1  0
 25 64  1  0
 26 65  1  0
 27 66  1  0
 28 67  1  0
 29 68  1  0
 30 69  1  0
M  CHG  1  22  -1
M  END
>  <UniqueID>  (20) 
19

>  <SMILES>  (20) 
CCCCCCCCCCCCCCNc1ccc(C(=O)[N-]c2ccccc2)cc1

>  <Energy>  (20) 
53.03049610852064

>  <Genealogy>  (20) 
CCCCCCCCCCCCCCNc1ccc(C(=O)[N-]c2ccccc2)cc1 (protonated)
CCCCCCCCCCCCCCNc1ccc(C(=O)[N-]c2ccccc2)cc1 (3D coordinates assigned)
CCCCCCCCCCCCCCNc1ccc(C(=O)[N-]c2ccccc2)cc1 (optimized conformer: 53.03049610852064 kcal/mol)

>  <smiles>  (20) 
CCCCCCCCCCCCCCNc1ccc(C(=O)Nc2ccccc2)cc1

>  <score_type>  (20) 
oracle

>  <origin>  (20) 
adgpu

>  <m_score__min__energy>  (20) 
-10.050000000000001

>  <m_primary>  (20) 
energy

$$$$
20:0
     RDKit          3D

 52 56  0  0  0  0  0  0  0  0999 V2000
   -5.0430   16.6040  -34.8670 N   0  0  0  0  0  0  0  0  0  0  0  0
   -5.6920   17.4140  -34.3560 C   0  0  0  0  0  0  0  0  0  0  0  0
   -6.4930   18.4180  -33.7120 C   0  0  0  0  0  0  0  0  0  0  0  0
   -7.6590   18.0540  -33.0410 C   0  0  0  0  0  0  0  0  0  0  0  0
   -8.4080   19.0190  -32.3640 C   0  0  0  0  0  0  0  0  0  0  0  0
   -8.0160   20.3720  -32.3800 C   0  0  0  0  0  0  0  0  0  0  0  0
   -8.7600   21.4390  -31.5770 C   0  0  0  0  0  0  0  0  0  0  0  0
   -8.2700   21.5490  -30.1040 C   0  0  0  0  0  0  0  0  0  0  0  0
   -7.6070   22.9040  -29.7740 C   0  0  0  0  0  0  0  0  0  0  0  0
   -6.7590   23.3600  -30.8900 N   0  0  0  0  0  0  0  0  0  0  0  0
   -5.4680   23.9770  -30.6540 C   0  0  0  0  0  0  0  0  0  0  0  0
   -4.9840   24.7730  -31.5090 O   0  0  0  0  0  0  0  0  0  0  0  0
   -4.6810   23.7050  -29.4340 C   0  0  0  0  0  0  0  0  0  0  0  0
   -4.7480   24.5920  -28.3620 C   0  0  0  0  0  0  0  0  0  0  0  0
   -3.9740   24.3710  -27.2250 C   0  0  0  0  0  0  0  0  0  0  0  0
   -3.1290   23.2630  -27.1440 C   0  0  0  0  0  0  0  0  0  0  0  0
   -3.0410   22.3590  -28.2190 C   0  0  0  0  0  0  0  0  0  0  0  0
   -2.0940   21.2090  -28.1690 C   0  0  0  0  0  0  0  0  0  0  0  0
   -1.0090   21.1110  -28.9900 N   0  0  0  0  0  0  0  0  0  0  0  0
   -0.4680   19.9380  -28.6310 C   0  0  0  0  0  0  0  0  0  0  0  0
    0.6680   19.3290  -29.1580 C   0  0  0  0  0  0  0  0  0  0  0  0
    1.0460   18.0860  -28.6240 C   0  0  0  0  0  0  0  0  0  0  0  0
    0.2900   17.4890  -27.5880 C   0  0  0  0  0  0  0  0  0  0  0  0
   -0.8580   18.1300  -27.0880 C   0  0  0  0  0  0  0  0  0  0  0  0
   -1.2030   19.3630  -27.6390 C   0  0  0  0  0  0  0  0  0  0  0  0
   -2.2460   20.1480  -27.3230 N   0  0  0  0  0  0  0  0  0  0  0  0
   -3.8340   22.5850  -29.3600 C   0  0  0  0  0  0  0  0  0  0  0  0
   -7.3400   23.4450  -32.2420 C   0  0  0  0  0  0  0  0  0  0  0  0
   -8.7250   22.7960  -32.3120 C   0  0  0  0  0  0  0  0  0  0  0  0
   -6.8470   20.7290  -33.0770 C   0  0  0  0  0  0  0  0  0  0  0  0
   -6.0890   19.7560  -33.7250 C   0  0  0  0  0  0  0  0  0  0  0  0
   -7.9899   17.0050  -33.0446 H   0  0  0  0  0  0  0  0  0  0  0  0
   -9.3121   18.7199  -31.8134 H   0  0  0  0  0  0  0  0  0  0  0  0
   -9.8099   21.1183  -31.5070 H   0  0  0  0  0  0  0  0  0  0  0  0
   -9.1352   21.4137  -29.4384 H   0  0  0  0  0  0  0  0  0  0  0  0
   -7.5057   20.7714  -29.9588 H   0  0  0  0  0  0  0  0  0  0  0  0
   -8.3910   23.6528  -29.5881 H   0  0  0  0  0  0  0  0  0  0  0  0
   -6.9762   22.7786  -28.8816 H   0  0  0  0  0  0  0  0  0  0  0  0
   -5.4123   25.4672  -28.4133 H   0  0  0  0  0  0  0  0  0  0  0  0
   -4.0293   25.0765  -26.3829 H   0  0  0  0  0  0  0  0  0  0  0  0
   -2.5298   23.0958  -26.2368 H   0  0  0  0  0  0  0  0  0  0  0  0
    1.2481   19.8039  -29.9630 H   0  0  0  0  0  0  0  0  0  0  0  0
    1.9371   17.5727  -29.0145 H   0  0  0  0  0  0  0  0  0  0  0  0
    0.6011   16.5195  -27.1717 H   0  0  0  0  0  0  0  0  0  0  0  0
   -1.4624   17.6741  -26.2900 H   0  0  0  0  0  0  0  0  0  0  0  0
   -3.7906   21.8785  -30.2020 H   0  0  0  0  0  0  0  0  0  0  0  0
   -7.4294   24.5044  -32.5244 H   0  0  0  0  0  0  0  0  0  0  0  0
   -6.6757   22.9044  -32.9323 H   0  0  0  0  0  0  0  0  0  0  0  0
   -9.4586   23.4715  -31.8477 H   0  0  0  0  0  0  0  0  0  0  0  0
   -8.9660   22.6179  -33.3704 H   0  0  0  0  0  0  0  0  0  0  0  0
   -6.5299   21.7818  -33.1105 H   0  0  0  0  0  0  0  0  0  0  0  0
   -5.1662   20.0428  -34.2505 H   0  0  0  0  0  0  0  0  0  0  0  0
  1  2  3  0
  2  3  1  0
  3  4  2  0
  4  5  1  0
  5  6  2  0
  6  7  1  0
  7  8  1  0
  8  9  1  0
  9 10  1  0
 10 11  1  0
 11 12  2  0
 11 13  1  0
 13 14  2  0
 14 15  1  0
 15 16  2  0
 16 17  1  0
 17 18  1  0
 18 19  2  0
 19 20  1  0
 20 21  2  0
 21 22  1  0
 22 23  2  0
 23 24  1  0
 24 25  2  0
 25 26  1  0
 17 27  2  0
 10 28  1  0
 28 29  1  0
  6 30  1  0
 30 31  2  0
 31  3  1  0
 29  7  1  0
 27 13  1  0
 26 18  1  0
 25 20  1  0
  4 32  1  0
  5 33  1  0
  7 34  1  0
  8 35  1  0
  8 36  1  0
  9 37  1  0
  9 38  1  0
 14 39  1  0
 15 40  1  0
 16 41  1  0
 21 42  1  0
 22 43  1  0
 23 44  1  0
 24 45  1  0
 27 46  1  0
 28 47  1  0
 28 48  1  0
 29 49  1  0
 29 50  1  0
 30 51  1  0
 31 52  1  0
M  CHG  1  26  -1
M  END
>  <UniqueID>  (21) 
20

>  <SMILES>  (21) 
N#Cc1ccc(C2CCN(C(=O)c3cccc(-c4nc5ccccc5[n-]4)c3)CC2)cc1

>  <Energy>  (21) 
102.95614155922188

>  <Genealogy>  (21) 
N#Cc1ccc(C2CCN(C(=O)c3cccc(-c4nc5ccccc5[n-]4)c3)CC2)cc1 (protonated)
N#Cc1ccc(C2CCN(C(=O)c3cccc(-c4nc5ccccc5[n-]4)c3)CC2)cc1 (3D coordinates assigned)
N#Cc1ccc(C2CCN(C(=O)c3cccc(-c4nc5ccccc5[n-]4)c3)CC2)cc1 (nonaromatic ring conformer: 102.95614155922188 kcal/mol)

>  <smiles>  (21) 
N#Cc1ccc(C2CCN(C(=O)c3cccc(-c4nc5ccccc5[nH]4)c3)CC2)cc1

>  <score_type>  (21) 
oracle

>  <origin>  (21) 
adgpu

>  <m_score__min__energy>  (21) 
-10.26

>  <m_primary>  (21) 
energy

$$$$
21:0
     RDKit          3D

 27 29  0  0  0  0  0  0  0  0999 V2000
   -2.5178   23.1345  -26.4864 H   0  0  0  0  0  0  0  0  0  0  0  0
   -2.7280   23.5640  -27.4770 C   0  0  0  0  0  0  0  0  0  0  0  0
   -3.9890   23.1170  -28.4990 S   0  0  0  0  0  0  0  0  0  0  0  0
   -3.5470   24.2120  -29.7020 C   0  0  0  0  0  0  0  0  0  0  0  0
   -4.1750   24.4240  -30.8230 N   0  0  0  0  0  0  0  0  0  0  0  0
   -5.3080   23.6940  -31.3200 C   0  0  0  0  0  0  0  0  0  0  0  0
   -6.6210   24.1680  -31.1520 C   0  0  0  0  0  0  0  0  0  0  0  0
   -6.7962   25.1362  -30.6601 H   0  0  0  0  0  0  0  0  0  0  0  0
   -7.7050   23.4110  -31.6090 C   0  0  0  0  0  0  0  0  0  0  0  0
   -8.7300   23.7923  -31.4912 H   0  0  0  0  0  0  0  0  0  0  0  0
   -7.4870   22.1710  -32.2150 C   0  0  0  0  0  0  0  0  0  0  0  0
   -8.3399   21.5808  -32.5814 H   0  0  0  0  0  0  0  0  0  0  0  0
   -6.1860   21.6800  -32.3560 C   0  0  0  0  0  0  0  0  0  0  0  0
   -5.8900   19.9750  -33.1640 Br  0  0  0  0  0  0  0  0  0  0  0  0
   -5.1010   22.4350  -31.8970 C   0  0  0  0  0  0  0  0  0  0  0  0
   -4.0796   22.0373  -31.9900 H   0  0  0  0  0  0  0  0  0  0  0  0
   -2.4640   24.9280  -29.3350 N   0  0  0  0  0  0  0  0  0  0  0  0
   -2.0350   25.6720  -29.9300 H   0  0  0  0  0  0  0  0  0  0  0  0
   -1.9920   24.5780  -28.1060 C   0  0  0  0  0  0  0  0  0  0  0  0
   -0.7780   25.2700  -27.5250 C   0  0  0  0  0  0  0  0  0  0  0  0
   -0.0733   24.5113  -27.8962 H   0  0  0  0  0  0  0  0  0  0  0  0
   -0.8070   26.7910  -27.4980 C   0  0  0  0  0  0  0  0  0  0  0  0
    0.1158   27.3621  -27.6778 H   0  0  0  0  0  0  0  0  0  0  0  0
   -1.3884   27.5675  -28.0167 H   0  0  0  0  0  0  0  0  0  0  0  0
   -0.9750   26.0020  -26.2060 C   0  0  0  0  0  0  0  0  0  0  0  0
   -0.1736   26.0032  -25.4525 H   0  0  0  0  0  0  0  0  0  0  0  0
   -1.7281   25.9725  -25.4048 H   0  0  0  0  0  0  0  0  0  0  0  0
  1  2  1  0
  2  3  1  0
  3  4  1  0
  4  5  2  0
  5  6  1  0
  6  7  2  0
  7  8  1  0
  7  9  1  0
  9 10  1  0
  9 11  2  0
 11 12  1  0
 11 13  1  0
 13 14  1  0
 13 15  2  0
 15 16  1  0
  4 17  1  0
 17 18  1  0
 17 19  1  0
 19 20  1  0
 20 21  1  0
 20 22  1  0
 22 23  1  0
 22 24  1  0
 22 25  1  0
 25 26  1  0
 25 27  1  0
 19  2  2  0
 25 20  1  0
 15  6  1  0
M  END
>  <UniqueID>  (22) 
21

>  <SMILES>  (22) 
Brc1cccc(/N=c2/[nH]c(C3CC3)cs2)c1

>  <Energy>  (22) 
331.14371012205186

>  <Genealogy>  (22) 
Brc1cccc(/N=c2/[nH]c(C3CC3)cs2)c1 (cis-trans isomerization)
Brc1cccc(/N=c2/[nH]c(C3CC3)cs2)c1 (3D coordinates assigned)
Brc1cccc(/N=c2/[nH]c(C3CC3)cs2)c1 (nonaromatic ring conformer: 331.14371012205186 kcal/mol)

>  <smiles>  (22) 
Brc1cccc(N=c2[nH]c(C3CC3)cs2)c1

>  <score_type>  (22) 
oracle

>  <origin>  (22) 
adgpu

>  <m_score__min__energy>  (22) 
-7.8700000000000001

>  <m_primary>  (22) 
energy

$$$$
22:0
     RDKit          3D

 35 37  0  0  0  0  0  0  0  0999 V2000
   -3.3249   22.2240  -27.2032 H   0  0  0  0  0  0  0  0  0  0  0  0
   -3.0320   23.0500  -27.8680 C   0  0  0  0  0  0  0  0  0  0  0  0
   -3.8680   23.5590  -28.8120 N   0  0  0  0  0  0  0  0  0  0  0  0
   -3.2870   24.5710  -29.4920 C   0  0  0  0  0  0  0  0  0  0  0  0
   -3.8570   25.2210  -30.4630 N   0  0  0  0  0  0  0  0  0  0  0  0
   -5.2090   25.0360  -30.9060 C   0  0  0  0  0  0  0  0  0  0  0  0
   -6.1290   25.6860  -30.3460 O   0  0  0  0  0  0  0  0  0  0  0  0
   -5.5450   24.1300  -31.9650 N   0  0  0  0  0  0  0  0  0  0  0  0
   -6.5440   23.1010  -31.9030 C   0  0  0  0  0  0  0  0  0  0  0  0
   -7.9090   23.4230  -31.7910 C   0  0  0  0  0  0  0  0  0  0  0  0
   -8.2185   24.4767  -31.7282 H   0  0  0  0  0  0  0  0  0  0  0  0
   -8.8730   22.4140  -31.7590 C   0  0  0  0  0  0  0  0  0  0  0  0
   -9.9376   22.6745  -31.6650 H   0  0  0  0  0  0  0  0  0  0  0  0
   -8.4890   21.0770  -31.8460 C   0  0  0  0  0  0  0  0  0  0  0  0
   -9.2504   20.2837  -31.8147 H   0  0  0  0  0  0  0  0  0  0  0  0
   -7.1380   20.7430  -31.9730 C   0  0  0  0  0  0  0  0  0  0  0  0
   -6.8400   19.6862  -32.0397 H   0  0  0  0  0  0  0  0  0  0  0  0
   -6.1580   21.7490  -32.0160 C   0  0  0  0  0  0  0  0  0  0  0  0
   -4.7680   21.3940  -32.1050 N   0  0  0  0  0  0  0  0  0  0  0  0
   -3.8210   21.9960  -31.4010 N   0  0  0  0  0  0  0  0  0  0  0  0
   -2.6490   21.4070  -31.7110 C   0  0  0  0  0  0  0  0  0  0  0  0
   -1.3300   21.8460  -31.1730 C   0  0  0  0  0  0  0  0  0  0  0  0
   -1.3607   21.8358  -30.0735 H   0  0  0  0  0  0  0  0  0  0  0  0
   -0.5443   21.1609  -31.5243 H   0  0  0  0  0  0  0  0  0  0  0  0
   -1.1116   22.8653  -31.5243 H   0  0  0  0  0  0  0  0  0  0  0  0
   -2.8490   20.4160  -32.6540 C   0  0  0  0  0  0  0  0  0  0  0  0
   -2.0962   19.7603  -33.1159 H   0  0  0  0  0  0  0  0  0  0  0  0
   -4.2100   20.4380  -32.8830 C   0  0  0  0  0  0  0  0  0  0  0  0
   -4.9390   19.5540  -33.8470 C   0  0  0  0  0  0  0  0  0  0  0  0
   -5.5423   18.8224  -33.2895 H   0  0  0  0  0  0  0  0  0  0  0  0
   -5.5980   20.1665  -34.4799 H   0  0  0  0  0  0  0  0  0  0  0  0
   -4.2122   19.0237  -34.4799 H   0  0  0  0  0  0  0  0  0  0  0  0
   -1.7190   24.8620  -28.9730 S   0  0  0  0  0  0  0  0  0  0  0  0
   -1.7790   23.6510  -27.8050 C   0  0  0  0  0  0  0  0  0  0  0  0
   -0.9681   23.3817  -27.1122 H   0  0  0  0  0  0  0  0  0  0  0  0
  1  2  1  0
  2  3  1  0
  3  4  1  0
  4  5  2  0
  5  6  1  0
  6  7  2  0
  6  8  1  0
  8  9  1  0
  9 10  2  0
 10 11  1  0
 10 12  1  0
 12 13  1  0
 12 14  2  0
 14 15  1  0
 14 16  1  0
 16 17  1  0
 16 18  2  0
 18 19  1  0
 19 20  1  0
 20 21  2  0
 21 22  1  0
 22 23  1  0
 22 24  1  0
 22 25  1  0
 21 26  1  0
 26 27  1  0
 26 28  2  0
 28 29  1  0
 29 30  1  0
 29 31  1  0
 29 32  1  0
  4 33  1  0
 33 34  1  0
 34 35  1  0
 34  2  2  0
 18  9  1  0
 28 19  1  0
M  CHG  2   3  -1   8  -1
M  END
>  <UniqueID>  (23) 
22

>  <SMILES>  (23) 
Cc1cc(C)n(-c2ccccc2[N-]C(=O)/N=c2\[n-]ccs2)n1

>  <Energy>  (23) 
108.05048119259315

>  <Genealogy>  (23) 
Cc1cc(C)n(-c2ccccc2[N-]C(=O)N=c2[n-]ccs2)n1 (protonated)
Cc1cc(C)n(-c2ccccc2[N-]C(=O)/N=c2\[n-]ccs2)n1 (cis-trans isomerization)
Cc1cc(C)n(-c2ccccc2[N-]C(=O)/N=c2\[n-]ccs2)n1 (3D coordinates assigned)
Cc1cc(C)n(-c2ccccc2[N-]C(=O)/N=c2\[n-]ccs2)n1 (optimized conformer: 108.05048119259315 kcal/mol)

>  <smiles>  (23) 
Cc1cc(C)n(-c2ccccc2NC(=O)N=c2[nH]ccs2)n1

>  <score_type>  (23) 
oracle

>  <origin>  (23) 
adgpu

>  <m_score__min__energy>  (23) 
-9.9700000000000006

>  <m_primary>  (23) 
energy

$$$$
23:0
     RDKit          3D

 52 55  0  0  0  0  0  0  0  0999 V2000
   -3.5170   25.2950  -30.0790 O   0  0  0  0  0  0  0  0  0  0  0  0
   -3.4710   23.9740  -30.5180 C   0  0  0  0  0  0  0  0  0  0  0  0
   -4.5700   23.4200  -31.2020 C   0  0  0  0  0  0  0  0  0  0  0  0
   -5.7920   24.2480  -31.5110 C   0  0  0  0  0  0  0  0  0  0  0  0
   -7.0370   23.4140  -31.3690 C   0  0  0  0  0  0  0  0  0  0  0  0
   -8.0130   23.4220  -32.3780 C   0  0  0  0  0  0  0  0  0  0  0  0
   -9.1790   22.6700  -32.2140 C   0  0  0  0  0  0  0  0  0  0  0  0
   -9.3670   21.9420  -31.0800 N   0  0  0  0  0  0  0  0  0  0  0  0
   -8.4420   21.9220  -30.0850 C   0  0  0  0  0  0  0  0  0  0  0  0
   -7.2620   22.6590  -30.2080 C   0  0  0  0  0  0  0  0  0  0  0  0
   -4.5020   22.0930  -31.6540 C   0  0  0  0  0  0  0  0  0  0  0  0
   -3.3580   21.3160  -31.4240 C   0  0  0  0  0  0  0  0  0  0  0  0
   -3.3140   19.8820  -31.8760 C   0  0  0  0  0  0  0  0  0  0  0  0
   -4.6860   19.4270  -32.2920 C   0  0  0  0  0  0  0  0  0  0  0  0
   -5.0280   19.3550  -33.6520 C   0  0  0  0  0  0  0  0  0  0  0  0
   -6.2910   18.8940  -34.0380 C   0  0  0  0  0  0  0  0  0  0  0  0
   -7.2170   18.4970  -33.0700 C   0  0  0  0  0  0  0  0  0  0  0  0
   -6.8810   18.5540  -31.7150 C   0  0  0  0  0  0  0  0  0  0  0  0
   -5.6180   19.0120  -31.3250 C   0  0  0  0  0  0  0  0  0  0  0  0
   -2.2790   21.8690  -30.7230 C   0  0  0  0  0  0  0  0  0  0  0  0
   -2.3230   23.1980  -30.2730 C   0  0  0  0  0  0  0  0  0  0  0  0
   -1.1390   23.7880  -29.5450 C   0  0  0  0  0  0  0  0  0  0  0  0
   -1.1690   23.4130  -28.1150 N   0  0  0  0  0  0  0  0  0  0  0  0
   -2.5320   23.0810  -27.6700 C   0  0  0  0  0  0  0  0  0  0  0  0
   -3.1670   24.3450  -27.1040 C   0  0  0  0  0  0  0  0  0  0  0  0
   -2.0190   25.3130  -26.8880 C   0  0  0  0  0  0  0  0  0  0  0  0
   -0.7650   24.5420  -27.2660 C   0  0  0  0  0  0  0  0  0  0  0  0
   -5.8418   25.0963  -30.8125 H   0  0  0  0  0  0  0  0  0  0  0  0
   -5.7233   24.6155  -32.5455 H   0  0  0  0  0  0  0  0  0  0  0  0
   -7.8608   24.0161  -33.2912 H   0  0  0  0  0  0  0  0  0  0  0  0
   -9.9459   22.6665  -33.0026 H   0  0  0  0  0  0  0  0  0  0  0  0
   -8.6230   21.3236  -29.1799 H   0  0  0  0  0  0  0  0  0  0  0  0
   -6.5148   22.6476  -29.4008 H   0  0  0  0  0  0  0  0  0  0  0  0
   -5.3555   21.6579  -32.1945 H   0  0  0  0  0  0  0  0  0  0  0  0
   -2.6264   19.7909  -32.7298 H   0  0  0  0  0  0  0  0  0  0  0  0
   -2.9640   19.2536  -31.0438 H   0  0  0  0  0  0  0  0  0  0  0  0
   -4.2997   19.6624  -34.4170 H   0  0  0  0  0  0  0  0  0  0  0  0
   -6.5554   18.8440  -35.1046 H   0  0  0  0  0  0  0  0  0  0  0  0
   -8.2115   18.1392  -33.3750 H   0  0  0  0  0  0  0  0  0  0  0  0
   -7.6102   18.2385  -30.9543 H   0  0  0  0  0  0  0  0  0  0  0  0
   -5.3533   19.0475  -30.2579 H   0  0  0  0  0  0  0  0  0  0  0  0
   -1.3880   21.2557  -30.5230 H   0  0  0  0  0  0  0  0  0  0  0  0
   -0.2107   23.4104  -29.9985 H   0  0  0  0  0  0  0  0  0  0  0  0
   -1.1828   24.8842  -29.6256 H   0  0  0  0  0  0  0  0  0  0  0  0
   -3.1239   22.7161  -28.5224 H   0  0  0  0  0  0  0  0  0  0  0  0
   -2.5008   22.2939  -26.9022 H   0  0  0  0  0  0  0  0  0  0  0  0
   -3.8933   24.7628  -27.8167 H   0  0  0  0  0  0  0  0  0  0  0  0
   -3.7133   24.1447  -26.1705 H   0  0  0  0  0  0  0  0  0  0  0  0
   -2.1354   26.1978  -27.5311 H   0  0  0  0  0  0  0  0  0  0  0  0
   -1.9792   25.6757  -25.8503 H   0  0  0  0  0  0  0  0  0  0  0  0
   -0.0754   25.1973  -27.8184 H   0  0  0  0  0  0  0  0  0  0  0  0
   -0.2514   24.1788  -26.3636 H   0  0  0  0  0  0  0  0  0  0  0  0
  1  2  1  0
  2  3  2  0
  3  4  1  0
  4  5  1  0
  5  6  2  0
  6  7  1  0
  7  8  2  0
  8  9  1  0
  9 10  2  0
  3 11  1  0
 11 12  2  0
 12 13  1  0
 13 14  1  0
 14 15  2  0
 15 16  1  0
 16 17  2  0
 17 18  1  0
 18 19  2  0
 12 20  1  0
 20 21  2  0
 21 22  1  0
 22 23  1  0
 23 24  1  0
 24 25  1  0
 25 26  1  0
 26 27  1  0
 21  2  1  0
 27 23  1  0
 10  5  1  0
 19 14  1  0
  4 28  1  0
  4 29  1  0
  6 30  1  0
  7 31  1  0
  9 32  1  0
 10 33  1  0
 11 34  1  0
 13 35  1  0
 13 36  1  0
 15 37  1  0
 16 38  1  0
 17 39  1  0
 18 40  1  0
 19 41  1  0
 20 42  1  0
 22 43  1  0
 22 44  1  0
 24 45  1  0
 24 46  1  0
 25 47  1  0
 25 48  1  0
 26 49  1  0
 26 50  1  0
 27 51  1  0
 27 52  1  0
M  CHG  1   1  -1
M  END
>  <UniqueID>  (24) 
23

>  <SMILES>  (24) 
[O-]c1c(Cc2ccncc2)cc(Cc2ccccc2)cc1CN1CCCC1

>  <Energy>  (24) 
56.516989472167765

>  <Genealogy>  (24) 
[O-]c1c(Cc2ccncc2)cc(Cc2ccccc2)cc1CN1CCCC1 (protonated)
[O-]c1c(Cc2ccncc2)cc(Cc2ccccc2)cc1CN1CCCC1 (3D coordinates assigned)
[O-]c1c(Cc2ccncc2)cc(Cc2ccccc2)cc1CN1CCCC1 (nonaromatic ring conformer: 56.516989472167765 kcal/mol)

>  <smiles>  (24) 
Oc1c(Cc2ccncc2)cc(Cc2ccccc2)cc1CN1CCCC1

>  <score_type>  (24) 
oracle

>  <origin>  (24) 
adgpu

>  <m_score__min__energy>  (24) 
-11.07

>  <m_primary>  (24) 
energy

$$$$
24:0
     RDKit          3D

 49 52  0  0  0  0  0  0  0  0999 V2000
   -0.7424   26.1967  -22.8962 H   0  0  0  0  0  0  0  0  0  0  0  0
   -0.6950   26.0630  -23.9870 C   0  0  0  0  0  0  0  0  0  0  0  0
   -0.8420   27.1660  -24.8330 C   0  0  0  0  0  0  0  0  0  0  0  0
   -1.0010   28.1679  -24.4077 H   0  0  0  0  0  0  0  0  0  0  0  0
   -0.7870   26.9960  -26.2200 C   0  0  0  0  0  0  0  0  0  0  0  0
   -0.8858   27.8682  -26.8829 H   0  0  0  0  0  0  0  0  0  0  0  0
   -0.6060   25.7150  -26.7710 C   0  0  0  0  0  0  0  0  0  0  0  0
   -0.4950   25.5360  -28.2630 C   0  0  0  0  0  0  0  0  0  0  0  0
   -0.0299   24.5614  -28.4727 H   0  0  0  0  0  0  0  0  0  0  0  0
    0.1179   26.3563  -28.6649 H   0  0  0  0  0  0  0  0  0  0  0  0
   -1.8080   25.5850  -28.9070 N   0  0  0  0  0  0  0  0  0  0  0  0
   -2.5340   24.5760  -29.2960 C   0  0  0  0  0  0  0  0  0  0  0  0
   -3.7190   24.8300  -29.9040 N   0  0  0  0  0  0  0  0  0  0  0  0
   -4.4990   23.8210  -30.3600 C   0  0  0  0  0  0  0  0  0  0  0  0
   -5.6150   24.1030  -30.9660 N   0  0  0  0  0  0  0  0  0  0  0  0
   -6.5860   23.1720  -31.4720 C   0  0  0  0  0  0  0  0  0  0  0  0
   -7.9420   23.4090  -31.2150 C   0  0  0  0  0  0  0  0  0  0  0  0
   -8.2426   24.3077  -30.6564 H   0  0  0  0  0  0  0  0  0  0  0  0
   -8.9170   22.5120  -31.6630 C   0  0  0  0  0  0  0  0  0  0  0  0
   -9.9806   22.7152  -31.4696 H   0  0  0  0  0  0  0  0  0  0  0  0
   -8.5420   21.3580  -32.3560 C   0  0  0  0  0  0  0  0  0  0  0  0
   -9.3109   20.6591  -32.7170 H   0  0  0  0  0  0  0  0  0  0  0  0
   -7.1880   21.0910  -32.5910 C   0  0  0  0  0  0  0  0  0  0  0  0
   -6.8020   19.8880  -33.2790 C   0  0  0  0  0  0  0  0  0  0  0  0
   -6.4910   18.9190  -33.8330 N   0  0  0  0  0  0  0  0  0  0  0  0
   -6.2100   21.9890  -32.1410 C   0  0  0  0  0  0  0  0  0  0  0  0
   -5.1454   21.7700  -32.3104 H   0  0  0  0  0  0  0  0  0  0  0  0
   -4.0760   22.5380  -30.2180 N   0  0  0  0  0  0  0  0  0  0  0  0
   -2.9070   22.2560  -29.5920 C   0  0  0  0  0  0  0  0  0  0  0  0
   -2.5490   21.0080  -29.4790 N   0  0  0  0  0  0  0  0  0  0  0  0
   -1.4170   20.5040  -28.7570 C   0  0  0  0  0  0  0  0  0  0  0  0
   -0.1850   21.1600  -28.8630 C   0  0  0  0  0  0  0  0  0  0  0  0
   -0.1042   22.0835  -29.4551 H   0  0  0  0  0  0  0  0  0  0  0  0
    0.9430   20.6440  -28.2180 C   0  0  0  0  0  0  0  0  0  0  0  0
    1.9032   21.1769  -28.2811 H   0  0  0  0  0  0  0  0  0  0  0  0
    0.8530   19.4520  -27.4930 C   0  0  0  0  0  0  0  0  0  0  0  0
    1.7414   19.0516  -26.9827 H   0  0  0  0  0  0  0  0  0  0  0  0
   -0.3670   18.7660  -27.4150 C   0  0  0  0  0  0  0  0  0  0  0  0
   -0.4470   17.5170  -26.7210 N   0  0  0  0  0  0  0  0  0  0  0  0
   -1.3560   17.1770  -26.3360 H   0  0  0  0  0  0  0  0  0  0  0  0
    0.4050   16.9280  -26.5850 H   0  0  0  0  0  0  0  0  0  0  0  0
   -1.5020   19.2980  -28.0420 C   0  0  0  0  0  0  0  0  0  0  0  0
   -2.4638   18.7686  -27.9738 H   0  0  0  0  0  0  0  0  0  0  0  0
   -2.1260   23.2800  -29.1310 N   0  0  0  0  0  0  0  0  0  0  0  0
   -1.2040   23.0730  -28.6920 H   0  0  0  0  0  0  0  0  0  0  0  0
   -0.4490   24.6150  -25.9120 C   0  0  0  0  0  0  0  0  0  0  0  0
   -0.2946   23.6101  -26.3320 H   0  0  0  0  0  0  0  0  0  0  0  0
   -0.4880   24.7910  -24.5260 C   0  0  0  0  0  0  0  0  0  0  0  0
   -0.3555   23.9266  -23.8587 H   0  0  0  0  0  0  0  0  0  0  0  0
  1  2  1  0
  2  3  2  0
  3  4  1  0
  3  5  1  0
  5  6  1  0
  5  7  2  0
  7  8  1  0
  8  9  1  0
  8 10  1  0
  8 11  1  0
 11 12  2  3
 12 13  1  0
 13 14  1  0
 14 15  2  0
 15 16  1  0
 16 17  2  0
 17 18  1  0
 17 19  1  0
 19 20  1  0
 19 21  2  0
 21 22  1  0
 21 23  1  0
 23 24  1  0
 24 25  3  0
 23 26  2  0
 26 27  1  0
 14 28  1  0
 28 29  1  0
 29 30  2  0
 30 31  1  0
 31 32  2  0
 32 33  1  0
 32 34  1  0
 34 35  1  0
 34 36  2  0
 36 37  1  0
 36 38  1  0
 38 39  1  0
 39 40  1  0
 39 41  1  0
 38 42  2  0
 42 43  1  0
 29 44  1  0
 44 45  1  0
  7 46  1  0
 46 47  1  0
 46 48  2  0
 48 49  1  0
 48  2  1  0
 44 12  1  0
 26 16  1  0
 42 31  1  0
M  CHG  2  13  -1  28  -1
M  END
>  <UniqueID>  (25) 
24

>  <SMILES>  (25) 
N#Cc1cccc(/N=c2/[n-]c(=NCc3ccccc3)[nH]/c(=N\c3cccc(N)c3)[n-]2)c1

>  <Energy>  (25) 
66.73584948364558

>  <Genealogy>  (25) 
N#Cc1cccc(N=c2[n-]c(=NCc3ccccc3)[nH]c(=Nc3cccc(N)c3)[n-]2)c1 (protonated)
N#Cc1cccc(/N=c2/[n-]c(=NCc3ccccc3)[nH]/c(=N\c3cccc(N)c3)[n-]2)c1 (cis-trans isomerization)
N#Cc1cccc(/N=c2/[n-]c(=NCc3ccccc3)[nH]/c(=N\c3cccc(N)c3)[n-]2)c1 (3D coordinates assigned)
N#Cc1cccc(/N=c2/[n-]c(=NCc3ccccc3)[nH]/c(=N\c3cccc(N)c3)[n-]2)c1 (optimized conformer: 66.73584948364558 kcal/mol)

>  <smiles>  (25) 
N#Cc1cccc(N=c2[nH]c(=NCc3ccccc3)[nH]c(=Nc3cccc(N)c3)[nH]2)c1

>  <score_type>  (25) 
oracle

>  <origin>  (25) 
adgpu

>  <m_score__min__energy>  (25) 
-10.890000000000001

>  <m_primary>  (25) 
energy

$$$$
25:0
     RDKit          3D

 49 52  0  0  0  0  0  0  0  0999 V2000
  -10.5405   22.1820  -31.0994 H   0  0  0  0  0  0  0  0  0  0  0  0
   -9.5650   21.9150  -31.5320 C   0  0  0  0  0  0  0  0  0  0  0  0
   -8.5440   22.8660  -31.5870 C   0  0  0  0  0  0  0  0  0  0  0  0
   -8.7191   23.8792  -31.1962 H   0  0  0  0  0  0  0  0  0  0  0  0
   -7.3000   22.5380  -32.1360 C   0  0  0  0  0  0  0  0  0  0  0  0
   -6.2920   23.5140  -32.1550 O   0  0  0  0  0  0  0  0  0  0  0  0
   -5.0400   23.3990  -31.5330 C   0  0  0  0  0  0  0  0  0  0  0  0
   -4.2050   22.2650  -31.7320 C   0  0  0  0  0  0  0  0  0  0  0  0
   -4.5449   21.4453  -32.3820 H   0  0  0  0  0  0  0  0  0  0  0  0
   -2.9480   22.1820  -31.1050 C   0  0  0  0  0  0  0  0  0  0  0  0
   -2.3000   21.3039  -31.2433 H   0  0  0  0  0  0  0  0  0  0  0  0
   -2.5530   23.2490  -30.3040 C   0  0  0  0  0  0  0  0  0  0  0  0
   -1.4080   23.3830  -29.6180 N   0  0  0  0  0  0  0  0  0  0  0  0
   -1.5600   24.5960  -29.0290 C   0  0  0  0  0  0  0  0  0  0  0  0
   -0.6380   25.0970  -28.2590 N   0  0  0  0  0  0  0  0  0  0  0  0
   -0.6450   26.3520  -27.5550 C   0  0  0  0  0  0  0  0  0  0  0  0
   -0.8100   27.4100  -28.2190 O   0  0  0  0  0  0  0  0  0  0  0  0
   -0.4580   26.4610  -26.0710 C   0  0  0  0  0  0  0  0  0  0  0  0
   -1.2989   25.9709  -25.5585 H   0  0  0  0  0  0  0  0  0  0  0  0
    0.4833   25.9701  -25.7830 H   0  0  0  0  0  0  0  0  0  0  0  0
   -0.4213   27.5220  -25.7830 H   0  0  0  0  0  0  0  0  0  0  0  0
   -2.7330   25.2240  -29.3140 N   0  0  0  0  0  0  0  0  0  0  0  0
   -3.3390   24.3450  -30.1240 C   0  0  0  0  0  0  0  0  0  0  0  0
   -4.5890   24.4650  -30.7280 C   0  0  0  0  0  0  0  0  0  0  0  0
   -5.2053   25.3643  -30.5812 H   0  0  0  0  0  0  0  0  0  0  0  0
   -7.0780   21.2310  -32.6060 C   0  0  0  0  0  0  0  0  0  0  0  0
   -6.0877   20.9532  -32.9961 H   0  0  0  0  0  0  0  0  0  0  0  0
   -8.1070   20.2790  -32.5820 C   0  0  0  0  0  0  0  0  0  0  0  0
   -7.8470   18.9530  -33.0700 N   0  0  0  0  0  0  0  0  0  0  0  0
   -8.6320   18.4550  -33.5430 H   0  0  0  0  0  0  0  0  0  0  0  0
   -6.6430   18.2170  -32.7930 C   0  0  0  0  0  0  0  0  0  0  0  0
   -5.6640   18.7770  -32.2310 O   0  0  0  0  0  0  0  0  0  0  0  0
   -6.5220   16.8420  -33.1720 N   0  0  0  0  0  0  0  0  0  0  0  0
   -5.2900   16.1300  -33.3520 C   0  0  0  0  0  0  0  0  0  0  0  0
   -4.9840   15.0800  -32.4760 C   0  0  0  0  0  0  0  0  0  0  0  0
   -5.6740   14.8390  -31.6539 H   0  0  0  0  0  0  0  0  0  0  0  0
   -3.8050   14.3310  -32.6360 C   0  0  0  0  0  0  0  0  0  0  0  0
   -3.4440   13.2470  -31.6510 C   0  0  0  0  0  0  0  0  0  0  0  0
   -4.2940   13.3200  -30.5620 F   0  0  0  0  0  0  0  0  0  0  0  0
   -3.5610   11.9940  -32.2310 F   0  0  0  0  0  0  0  0  0  0  0  0
   -2.1390   13.4010  -31.2150 F   0  0  0  0  0  0  0  0  0  0  0  0
   -2.9180   14.6670  -33.6720 C   0  0  0  0  0  0  0  0  0  0  0  0
   -1.9702   14.1191  -33.7795 H   0  0  0  0  0  0  0  0  0  0  0  0
   -3.2320   15.6920  -34.5660 C   0  0  0  0  0  0  0  0  0  0  0  0
   -2.5422   15.9319  -35.3886 H   0  0  0  0  0  0  0  0  0  0  0  0
   -4.4200   16.4150  -34.4200 C   0  0  0  0  0  0  0  0  0  0  0  0
   -4.7300   17.3620  -35.3400 F   0  0  0  0  0  0  0  0  0  0  0  0
   -9.3510   20.6250  -32.0250 C   0  0  0  0  0  0  0  0  0  0  0  0
  -10.1575   19.8785  -31.9772 H   0  0  0  0  0  0  0  0  0  0  0  0
  1  2  1  0
  2  3  2  0
  3  4  1  0
  3  5  1  0
  5  6  1  0
  6  7  1  0
  7  8  2  0
  8  9  1  0
  8 10  1  0
 10 11  1  0
 10 12  2  0
 12 13  1  0
 13 14  1  0
 14 15  2  0
 15 16  1  0
 16 17  2  0
 16 18  1  0
 18 19  1  0
 18 20  1  0
 18 21  1  0
 14 22  1  0
 22 23  1  0
 23 24  2  0
 24 25  1  0
  5 26  2  0
 26 27  1  0
 26 28  1  0
 28 29  1  0
 29 30  1  0
 29 31  1  0
 31 32  2  0
 31 33  1  0
 33 34  1  0
 34 35  2  0
 35 36  1  0
 35 37  1  0
 37 38  1  0
 38 39  1  0
 38 40  1  0
 38 41  1  0
 37 42  2  0
 42 43  1  0
 42 44  1  0
 44 45  1  0
 44 46  2  0
 46 47  1  0
 28 48  2  0
 48 49  1  0
 48  2  1  0
 24  7  1  0
 46 34  1  0
 23 12  1  0
M  CHG  3  13  -1  22  -1  33  -1
M  END
>  <UniqueID>  (26) 
25

>  <SMILES>  (26) 
CC(=O)/N=c1/[n-]c2ccc(Oc3cccc(NC(=O)[N-]c4cc(C(F)(F)F)ccc4F)c3)cc2[n-]1

>  <Energy>  (26) 
106.81811744842837

>  <Genealogy>  (26) 
CC(=O)N=c1[n-]c2ccc(Oc3cccc(NC(=O)[N-]c4cc(C(F)(F)F)ccc4F)c3)cc2[n-]1 (protonated)
CC(=O)/N=c1/[n-]c2ccc(Oc3cccc(NC(=O)[N-]c4cc(C(F)(F)F)ccc4F)c3)cc2[n-]1 (cis-trans isomerization)
CC(=O)/N=c1/[n-]c2ccc(Oc3cccc(NC(=O)[N-]c4cc(C(F)(F)F)ccc4F)c3)cc2[n-]1 (3D coordinates assigned)
CC(=O)/N=c1/[n-]c2ccc(Oc3cccc(NC(=O)[N-]c4cc(C(F)(F)F)ccc4F)c3)cc2[n-]1 (optimized conformer: 106.81811744842837 kcal/mol)

>  <smiles>  (26) 
CC(=O)N=c1[nH]c2ccc(Oc3cccc(NC(=O)Nc4cc(C(F)(F)F)ccc4F)c3)cc2[nH]1

>  <score_type>  (26) 
oracle

>  <origin>  (26) 
adgpu

>  <m_score__min__energy>  (26) 
-12.210000000000001

>  <m_primary>  (26) 
energy

$$$$
26:0
     RDKit          3D

 52 56  0  0  0  0  0  0  0  0999 V2000
   -4.1390   23.9690  -28.5970 O   0  0  0  0  0  0  0  0  0  0  0  0
   -3.3490   24.5130  -29.4170 C   0  0  0  0  0  0  0  0  0  0  0  0
   -1.9340   24.3250  -29.2970 N   0  0  0  0  0  0  0  0  0  0  0  0
   -1.2380   23.0690  -29.2840 C   0  0  0  0  0  0  0  0  0  0  0  0
   -1.2700   22.2700  -30.4360 C   0  0  0  0  0  0  0  0  0  0  0  0
   -0.5880   21.0490  -30.4730 C   0  0  0  0  0  0  0  0  0  0  0  0
    0.1470   20.6230  -29.3640 C   0  0  0  0  0  0  0  0  0  0  0  0
    1.1000   18.9690  -29.4210 Br  0  0  0  0  0  0  0  0  0  0  0  0
    0.2040   21.4240  -28.2170 C   0  0  0  0  0  0  0  0  0  0  0  0
   -0.4790   22.6460  -28.1780 C   0  0  0  0  0  0  0  0  0  0  0  0
   -3.8630   25.2900  -30.5070 N   0  0  0  0  0  0  0  0  0  0  0  0
   -5.2930   25.5060  -30.7180 C   0  0  0  0  0  0  0  0  0  0  0  0
   -5.9650   24.2100  -31.0840 C   0  0  0  0  0  0  0  0  0  0  0  0
   -7.3420   24.0480  -30.8680 C   0  0  0  0  0  0  0  0  0  0  0  0
   -7.9750   22.8600  -31.2370 C   0  0  0  0  0  0  0  0  0  0  0  0
   -7.2450   21.8290  -31.8340 C   0  0  0  0  0  0  0  0  0  0  0  0
   -5.8670   21.9780  -32.0720 C   0  0  0  0  0  0  0  0  0  0  0  0
   -5.0940   20.9010  -32.7360 C   0  0  0  0  0  0  0  0  0  0  0  0
   -5.7390   19.7450  -33.2080 C   0  0  0  0  0  0  0  0  0  0  0  0
   -5.0070   18.7290  -33.8270 C   0  0  0  0  0  0  0  0  0  0  0  0
   -3.6250   18.8560  -33.9860 C   0  0  0  0  0  0  0  0  0  0  0  0
   -2.9580   20.0050  -33.5280 C   0  0  0  0  0  0  0  0  0  0  0  0
   -1.4980   20.1530  -33.7190 C   0  0  0  0  0  0  0  0  0  0  0  0
   -0.5940   19.2790  -33.1990 N   0  0  0  0  0  0  0  0  0  0  0  0
    0.5770   19.7940  -33.6010 C   0  0  0  0  0  0  0  0  0  0  0  0
    1.8560   19.3000  -33.3520 C   0  0  0  0  0  0  0  0  0  0  0  0
    2.9480   20.0120  -33.8830 C   0  0  0  0  0  0  0  0  0  0  0  0
    2.7310   21.1840  -34.6440 C   0  0  0  0  0  0  0  0  0  0  0  0
    1.4230   21.6520  -34.8740 C   0  0  0  0  0  0  0  0  0  0  0  0
    0.3680   20.9230  -34.3320 C   0  0  0  0  0  0  0  0  0  0  0  0
   -0.9430   21.1770  -34.4240 N   0  0  0  0  0  0  0  0  0  0  0  0
   -3.7000   21.0230  -32.9030 C   0  0  0  0  0  0  0  0  0  0  0  0
   -5.2350   23.1740  -31.6860 C   0  0  0  0  0  0  0  0  0  0  0  0
   -1.8358   22.6059  -31.3175 H   0  0  0  0  0  0  0  0  0  0  0  0
   -0.6306   20.4234  -31.3768 H   0  0  0  0  0  0  0  0  0  0  0  0
    0.7865   21.0927  -27.3447 H   0  0  0  0  0  0  0  0  0  0  0  0
   -0.4217   23.2773  -27.2790 H   0  0  0  0  0  0  0  0  0  0  0  0
   -3.1860   25.7470  -31.1590 H   0  0  0  0  0  0  0  0  0  0  0  0
   -5.7414   25.8997  -29.7939 H   0  0  0  0  0  0  0  0  0  0  0  0
   -5.4305   26.2262  -31.5380 H   0  0  0  0  0  0  0  0  0  0  0  0
   -7.9241   24.8594  -30.4067 H   0  0  0  0  0  0  0  0  0  0  0  0
   -9.0530   22.7349  -31.0571 H   0  0  0  0  0  0  0  0  0  0  0  0
   -7.7512   20.8951  -32.1196 H   0  0  0  0  0  0  0  0  0  0  0  0
   -6.8275   19.6396  -33.0892 H   0  0  0  0  0  0  0  0  0  0  0  0
   -5.5202   17.8264  -34.1902 H   0  0  0  0  0  0  0  0  0  0  0  0
   -3.0549   18.0511  -34.4730 H   0  0  0  0  0  0  0  0  0  0  0  0
    2.0071   18.3849  -32.7607 H   0  0  0  0  0  0  0  0  0  0  0  0
    3.9734   19.6556  -33.7054 H   0  0  0  0  0  0  0  0  0  0  0  0
    3.5891   21.7333  -35.0587 H   0  0  0  0  0  0  0  0  0  0  0  0
    1.2408   22.5634  -35.4624 H   0  0  0  0  0  0  0  0  0  0  0  0
   -3.1862   21.9254  -32.5401 H   0  0  0  0  0  0  0  0  0  0  0  0
   -4.1557   23.2985  -31.8582 H   0  0  0  0  0  0  0  0  0  0  0  0
  1  2  2  0
  2  3  1  0
  3  4  1  0
  4  5  2  0
  5  6  1  0
  6  7  2  0
  7  8  1  0
  7  9  1  0
  9 10  2  0
  2 11  1  0
 11 12  1  0
 12 13  1  0
 13 14  2  0
 14 15  1  0
 15 16  2  0
 16 17  1  0
 17 18  1  0
 18 19  2  0
 19 20  1  0
 20 21  2  0
 21 22  1  0
 22 23  1  0
 23 24  2  0
 24 25  1  0
 25 26  2  0
 26 27  1  0
 27 28  2  0
 28 29  1  0
 29 30  2  0
 30 31  1  0
 22 32  2  0
 17 33  2  0
 10  4  1  0
 33 13  1  0
 32 18  1  0
 31 23  1  0
 30 25  1  0
  5 34  1  0
  6 35  1  0
  9 36  1  0
 10 37  1  0
 11 38  1  0
 12 39  1  0
 12 40  1  0
 14 41  1  0
 15 42  1  0
 16 43  1  0
 19 44  1  0
 20 45  1  0
 21 46  1  0
 26 47  1  0
 27 48  1  0
 28 49  1  0
 29 50  1  0
 32 51  1  0
 33 52  1  0
M  CHG  2   3  -1  31  -1
M  END
>  <UniqueID>  (27) 
26

>  <SMILES>  (27) 
O=C([N-]c1ccc(Br)cc1)NCc1cccc(-c2cccc(-c3nc4ccccc4[n-]3)c2)c1

>  <Energy>  (27) 
99.49295283522895

>  <Genealogy>  (27) 
O=C([N-]c1ccc(Br)cc1)NCc1cccc(-c2cccc(-c3nc4ccccc4[n-]3)c2)c1 (protonated)
O=C([N-]c1ccc(Br)cc1)NCc1cccc(-c2cccc(-c3nc4ccccc4[n-]3)c2)c1 (3D coordinates assigned)
O=C([N-]c1ccc(Br)cc1)NCc1cccc(-c2cccc(-c3nc4ccccc4[n-]3)c2)c1 (optimized conformer: 99.49295283522895 kcal/mol)

>  <smiles>  (27) 
O=C(NCc1cccc(-c2cccc(-c3nc4ccccc4[nH]3)c2)c1)Nc1ccc(Br)cc1

>  <score_type>  (27) 
oracle

>  <origin>  (27) 
adgpu

>  <m_score__min__energy>  (27) 
-12.67

>  <m_primary>  (27) 
energy

$$$$
27:0
     RDKit          3D

 42 45  0  0  0  0  0  0  0  0999 V2000
   -0.3690   25.6440  -24.9340 Cl  0  0  0  0  0  0  0  0  0  0  0  0
   -1.4300   25.2220  -26.2670 C   0  0  0  0  0  0  0  0  0  0  0  0
   -0.9200   25.1240  -27.5640 C   0  0  0  0  0  0  0  0  0  0  0  0
   -1.7630   24.7880  -28.6270 C   0  0  0  0  0  0  0  0  0  0  0  0
   -3.1320   24.5430  -28.4040 C   0  0  0  0  0  0  0  0  0  0  0  0
   -4.0180   24.1980  -29.4880 N   0  0  0  0  0  0  0  0  0  0  0  0
   -4.9230   23.2010  -29.5340 C   0  0  0  0  0  0  0  0  0  0  0  0
   -5.5290   23.2790  -30.7720 C   0  0  0  0  0  0  0  0  0  0  0  0
   -6.6440   22.4510  -31.2840 C   0  0  0  0  0  0  0  0  0  0  0  0
   -7.9020   22.5740  -30.6680 C   0  0  0  0  0  0  0  0  0  0  0  0
   -8.9700   21.7670  -31.0600 C   0  0  0  0  0  0  0  0  0  0  0  0
   -8.7980   20.8290  -32.0770 C   0  0  0  0  0  0  0  0  0  0  0  0
   -7.5630   20.7070  -32.7160 C   0  0  0  0  0  0  0  0  0  0  0  0
   -6.4760   21.5180  -32.3400 C   0  0  0  0  0  0  0  0  0  0  0  0
   -5.2410   21.4600  -33.0810 N   0  0  0  0  0  0  0  0  0  0  0  0
   -4.3190   20.3250  -33.0390 C   0  0  0  0  0  0  0  0  0  0  0  0
   -5.0710   19.0290  -33.1890 C   0  0  0  0  0  0  0  0  0  0  0  0
   -5.4550   18.2880  -32.0620 C   0  0  0  0  0  0  0  0  0  0  0  0
   -6.1450   17.0850  -32.2290 C   0  0  0  0  0  0  0  0  0  0  0  0
   -6.4330   16.6320  -33.4780 N   0  0  0  0  0  0  0  0  0  0  0  0
   -6.0650   17.3240  -34.5890 C   0  0  0  0  0  0  0  0  0  0  0  0
   -5.3740   18.5320  -34.4660 C   0  0  0  0  0  0  0  0  0  0  0  0
   -4.9980   24.3290  -31.4310 N   0  0  0  0  0  0  0  0  0  0  0  0
   -4.0830   24.8610  -30.6350 N   0  0  0  0  0  0  0  0  0  0  0  0
   -3.6330   24.6510  -27.0930 C   0  0  0  0  0  0  0  0  0  0  0  0
   -2.7870   24.9870  -26.0330 C   0  0  0  0  0  0  0  0  0  0  0  0
    0.1479   25.3118  -27.7491 H   0  0  0  0  0  0  0  0  0  0  0  0
   -1.3542   24.7143  -29.6456 H   0  0  0  0  0  0  0  0  0  0  0  0
   -5.1369   22.4690  -28.7413 H   0  0  0  0  0  0  0  0  0  0  0  0
   -8.0455   23.3151  -29.8679 H   0  0  0  0  0  0  0  0  0  0  0  0
   -9.9478   21.8706  -30.5668 H   0  0  0  0  0  0  0  0  0  0  0  0
   -9.6371   20.1838  -32.3764 H   0  0  0  0  0  0  0  0  0  0  0  0
   -7.4380   19.9690  -33.5221 H   0  0  0  0  0  0  0  0  0  0  0  0
   -4.9980   22.2500  -33.7200 H   0  0  0  0  0  0  0  0  0  0  0  0
   -3.5919   20.4187  -33.8591 H   0  0  0  0  0  0  0  0  0  0  0  0
   -3.7991   20.3246  -32.0696 H   0  0  0  0  0  0  0  0  0  0  0  0
   -5.2142   18.6520  -31.0523 H   0  0  0  0  0  0  0  0  0  0  0  0
   -6.4558   16.5033  -31.3486 H   0  0  0  0  0  0  0  0  0  0  0  0
   -6.3118   16.9320  -35.5867 H   0  0  0  0  0  0  0  0  0  0  0  0
   -5.0695   19.0897  -35.3639 H   0  0  0  0  0  0  0  0  0  0  0  0
   -4.7008   24.4691  -26.9012 H   0  0  0  0  0  0  0  0  0  0  0  0
   -3.1901   25.0666  -25.0126 H   0  0  0  0  0  0  0  0  0  0  0  0
  1  2  1  0
  2  3  2  0
  3  4  1  0
  4  5  2  0
  5  6  1  0
  6  7  1  0
  7  8  2  0
  8  9  1  0
  9 10  2  0
 10 11  1  0
 11 12  2  0
 12 13  1  0
 13 14  2  0
 14 15  1  0
 15 16  1  0
 16 17  1  0
 17 18  2  0
 18 19  1  0
 19 20  2  0
 20 21  1  0
 21 22  2  0
  8 23  1  0
 23 24  2  0
  5 25  1  0
 25 26  2  0
 26  2  1  0
 24  6  1  0
 14  9  1  0
 22 17  1  0
  3 27  1  0
  4 28  1  0
  7 29  1  0
 10 30  1  0
 11 31  1  0
 12 32  1  0
 13 33  1  0
 15 34  1  0
 16 35  1  0
 16 36  1  0
 18 37  1  0
 19 38  1  0
 21 39  1  0
 22 40  1  0
 25 41  1  0
 26 42  1  0
M  END
>  <UniqueID>  (28) 
27

>  <SMILES>  (28) 
Clc1ccc(-n2cc(-c3ccccc3NCc3ccncc3)nn2)cc1

>  <Energy>  (28) 
91.1519237388002

>  <Genealogy>  (28) 
Clc1ccc(-n2cc(-c3ccccc3NCc3ccncc3)nn2)cc1 (3D coordinates assigned)
Clc1ccc(-n2cc(-c3ccccc3NCc3ccncc3)nn2)cc1 (optimized conformer: 91.1519237388002 kcal/mol)

>  <smiles>  (28) 
Clc1ccc(-n2cc(-c3ccccc3NCc3ccncc3)nn2)cc1

>  <score_type>  (28) 
oracle

>  <origin>  (28) 
adgpu

>  <m_score__min__energy>  (28) 
-10.109999999999999

>  <m_primary>  (28) 
energy

$$$$
28:0
     RDKit          3D

 30 32  0  0  0  0  0  0  0  0999 V2000
   -2.7430   24.9940  -30.8160 H   0  0  0  0  0  0  0  0  0  0  0  0
   -3.6840   25.2970  -30.4730 N   0  0  0  0  0  0  0  0  0  0  0  0
   -4.7420   24.5790  -30.6800 C   0  0  0  0  0  0  0  0  0  0  0  0
   -4.6460   23.4030  -31.3570 N   0  0  0  0  0  0  0  0  0  0  0  0
   -5.7380   22.6250  -31.5840 C   0  0  0  0  0  0  0  0  0  0  0  0
   -5.6600   21.4110  -32.2920 C   0  0  0  0  0  0  0  0  0  0  0  0
   -4.3790   20.8690  -32.8070 C   0  0  0  0  0  0  0  0  0  0  0  0
   -3.2680   21.7200  -32.9420 C   0  0  0  0  0  0  0  0  0  0  0  0
   -3.3517   22.7781  -32.6531 H   0  0  0  0  0  0  0  0  0  0  0  0
   -2.0580   21.2300  -33.4410 C   0  0  0  0  0  0  0  0  0  0  0  0
   -1.1912   21.9007  -33.5346 H   0  0  0  0  0  0  0  0  0  0  0  0
   -1.9470   19.8910  -33.8210 C   0  0  0  0  0  0  0  0  0  0  0  0
   -0.7670   19.4260  -34.3060 F   0  0  0  0  0  0  0  0  0  0  0  0
   -3.0520   19.0380  -33.7090 C   0  0  0  0  0  0  0  0  0  0  0  0
   -2.9280   17.3580  -34.2030 Cl  0  0  0  0  0  0  0  0  0  0  0  0
   -4.2640   19.5260  -33.2100 C   0  0  0  0  0  0  0  0  0  0  0  0
   -5.1327   18.8556  -33.1322 H   0  0  0  0  0  0  0  0  0  0  0  0
   -6.8050   20.7140  -32.5280 N   0  0  0  0  0  0  0  0  0  0  0  0
   -8.0110   21.1510  -32.0780 C   0  0  0  0  0  0  0  0  0  0  0  0
   -9.4840   20.1900  -32.4060 S   0  0  0  0  0  0  0  0  0  0  0  0
   -8.6780   18.6080  -32.0150 C   0  0  0  0  0  0  0  0  0  0  0  0
   -8.6167   18.4877  -30.9233 H   0  0  0  0  0  0  0  0  0  0  0  0
   -9.2651   17.7818  -32.4426 H   0  0  0  0  0  0  0  0  0  0  0  0
   -7.6645   18.5973  -32.4426 H   0  0  0  0  0  0  0  0  0  0  0  0
   -8.1010   22.3130  -31.3820 N   0  0  0  0  0  0  0  0  0  0  0  0
   -6.9950   23.0580  -31.1280 C   0  0  0  0  0  0  0  0  0  0  0  0
   -7.0960   24.2330  -30.4470 N   0  0  0  0  0  0  0  0  0  0  0  0
   -8.0310   24.5520  -30.1060 H   0  0  0  0  0  0  0  0  0  0  0  0
   -5.9960   25.0020  -30.2110 C   0  0  0  0  0  0  0  0  0  0  0  0
   -6.1130   26.0870  -29.5790 O   0  0  0  0  0  0  0  0  0  0  0  0
  1  2  1  0
  2  3  2  0
  3  4  1  0
  4  5  1  0
  5  6  2  0
  6  7  1  0
  7  8  2  0
  8  9  1  0
  8 10  1  0
 10 11  1  0
 10 12  2  0
 12 13  1  0
 12 14  1  0
 14 15  1  0
 14 16  2  0
 16 17  1  0
  6 18  1  0
 18 19  2  0
 19 20  1  0
 20 21  1  0
 21 22  1  0
 21 23  1  0
 21 24  1  0
 19 25  1  0
 25 26  2  0
 26 27  1  0
 27 28  1  0
 27 29  1  0
 29 30  2  0
 29  3  1  0
 26  5  1  0
 16  7  1  0
M  CHG  1   4  -1
M  END
>  <UniqueID>  (29) 
28

>  <SMILES>  (29) 
[H]/N=c1\[n-]c2c(-c3ccc(F)c(Cl)c3)nc(SC)nc2[nH]c1=O

>  <Energy>  (29) 
39.678090873920326

>  <Genealogy>  (29) 
CSc1nc(-c2ccc(F)c(Cl)c2)c2[n-]c(=N)c(=O)[nH]c2n1 (protonated)
[H]/N=c1\[n-]c2c(-c3ccc(F)c(Cl)c3)nc(SC)nc2[nH]c1=O (cis-trans isomerization)
[H]/N=c1\[n-]c2c(-c3ccc(F)c(Cl)c3)nc(SC)nc2[nH]c1=O (3D coordinates assigned)
[H]/N=c1\[n-]c2c(-c3ccc(F)c(Cl)c3)nc(SC)nc2[nH]c1=O (optimized conformer: 39.678090873920326 kcal/mol)

>  <smiles>  (29) 
CSc1nc(-c2ccc(F)c(Cl)c2)c2[nH]c(=N)c(=O)[nH]c2n1

>  <score_type>  (29) 
oracle

>  <origin>  (29) 
adgpu

>  <m_score__min__energy>  (29) 
-9.7799999999999994

>  <m_primary>  (29) 
energy

$$$$
29:0
     RDKit          3D

 52 55  0  0  0  0  0  0  0  0999 V2000
   -3.6630   18.5880  -26.2940 C   0  0  0  0  0  0  0  0  0  0  0  0
   -2.3700   19.3860  -26.1440 C   0  0  0  0  0  0  0  0  0  0  0  0
   -1.9150   19.9360  -27.4800 C   0  0  0  0  0  0  0  0  0  0  0  0
   -2.5570   21.0870  -27.9690 C   0  0  0  0  0  0  0  0  0  0  0  0
   -2.1770   21.6690  -29.1840 C   0  0  0  0  0  0  0  0  0  0  0  0
   -2.9010   22.8570  -29.6770 C   0  0  0  0  0  0  0  0  0  0  0  0
   -4.1020   22.7780  -30.2750 N   0  0  0  0  0  0  0  0  0  0  0  0
   -4.4010   24.0560  -30.5850 C   0  0  0  0  0  0  0  0  0  0  0  0
   -5.7010   24.4610  -31.2040 C   0  0  0  0  0  0  0  0  0  0  0  0
   -6.0610   23.5320  -32.2740 N   0  0  0  0  0  0  0  0  0  0  0  0
   -7.0590   22.4980  -32.1520 C   0  0  0  0  0  0  0  0  0  0  0  0
   -8.3640   22.7740  -31.7020 C   0  0  0  0  0  0  0  0  0  0  0  0
   -9.3080   21.7480  -31.6010 C   0  0  0  0  0  0  0  0  0  0  0  0
   -8.9630   20.4390  -31.9420 C   0  0  0  0  0  0  0  0  0  0  0  0
   -7.6690   20.1470  -32.3970 C   0  0  0  0  0  0  0  0  0  0  0  0
   -7.2850   18.7340  -32.7240 C   0  0  0  0  0  0  0  0  0  0  0  0
   -6.7170   21.1760  -32.4820 C   0  0  0  0  0  0  0  0  0  0  0  0
   -3.4640   24.9450  -30.1950 N   0  0  0  0  0  0  0  0  0  0  0  0
   -2.5100   24.1890  -29.6230 C   0  0  0  0  0  0  0  0  0  0  0  0
   -1.3300   24.7660  -28.9500 C   0  0  0  0  0  0  0  0  0  0  0  0
   -1.2720   26.1670  -28.6770 N   0  0  0  0  0  0  0  0  0  0  0  0
   -0.3810   24.0270  -28.5780 O   0  0  0  0  0  0  0  0  0  0  0  0
   -1.1640   21.0800  -29.9450 C   0  0  0  0  0  0  0  0  0  0  0  0
   -0.4900   19.9440  -29.4760 C   0  0  0  0  0  0  0  0  0  0  0  0
    0.5450   19.3830  -30.2410 C   0  0  0  0  0  0  0  0  0  0  0  0
    1.2340   18.2610  -29.7790 C   0  0  0  0  0  0  0  0  0  0  0  0
    0.8980   17.6910  -28.5530 C   0  0  0  0  0  0  0  0  0  0  0  0
   -0.1320   18.2330  -27.7800 C   0  0  0  0  0  0  0  0  0  0  0  0
   -0.8500   19.3640  -28.2290 C   0  0  0  0  0  0  0  0  0  0  0  0
   -4.0602   18.3428  -25.2979 H   0  0  0  0  0  0  0  0  0  0  0  0
   -4.4019   19.1874  -26.8461 H   0  0  0  0  0  0  0  0  0  0  0  0
   -3.4585   17.6588  -26.8461 H   0  0  0  0  0  0  0  0  0  0  0  0
   -2.5415   20.2221  -25.4501 H   0  0  0  0  0  0  0  0  0  0  0  0
   -1.5880   18.7174  -25.7550 H   0  0  0  0  0  0  0  0  0  0  0  0
   -3.3732   21.5387  -27.3860 H   0  0  0  0  0  0  0  0  0  0  0  0
   -6.4878   24.4526  -30.4353 H   0  0  0  0  0  0  0  0  0  0  0  0
   -5.5988   25.4720  -31.6253 H   0  0  0  0  0  0  0  0  0  0  0  0
   -5.6140   23.6840  -33.2070 H   0  0  0  0  0  0  0  0  0  0  0  0
   -8.6423   23.8024  -31.4284 H   0  0  0  0  0  0  0  0  0  0  0  0
  -10.3265   21.9729  -31.2515 H   0  0  0  0  0  0  0  0  0  0  0  0
   -9.7080   19.6345  -31.8536 H   0  0  0  0  0  0  0  0  0  0  0  0
   -7.1319   18.1705  -31.7918 H   0  0  0  0  0  0  0  0  0  0  0  0
   -8.0875   18.2622  -33.3100 H   0  0  0  0  0  0  0  0  0  0  0  0
   -6.3541   18.7333  -33.3100 H   0  0  0  0  0  0  0  0  0  0  0  0
   -5.6930   20.9444  -32.8104 H   0  0  0  0  0  0  0  0  0  0  0  0
   -2.0430   26.8060  -28.9690 H   0  0  0  0  0  0  0  0  0  0  0  0
   -0.4440   26.5710  -28.1830 H   0  0  0  0  0  0  0  0  0  0  0  0
   -0.8932   21.5113  -30.9200 H   0  0  0  0  0  0  0  0  0  0  0  0
    0.8141   19.8302  -31.2093 H   0  0  0  0  0  0  0  0  0  0  0  0
    2.0435   17.8260  -30.3836 H   0  0  0  0  0  0  0  0  0  0  0  0
    1.4469   16.8090  -28.1914 H   0  0  0  0  0  0  0  0  0  0  0  0
   -0.3863   17.7749  -26.8128 H   0  0  0  0  0  0  0  0  0  0  0  0
  1  2  1  0
  2  3  1  0
  3  4  2  0
  4  5  1  0
  5  6  1  0
  6  7  1  0
  7  8  1  0
  8  9  1  0
  9 10  1  0
 10 11  1  0
 11 12  2  0
 12 13  1  0
 13 14  2  0
 14 15  1  0
 15 16  1  0
 15 17  2  0
  8 18  2  0
 18 19  1  0
 19 20  1  0
 20 21  1  0
 20 22  2  0
  5 23  2  0
 23 24  1  0
 24 25  2  0
 25 26  1  0
 26 27  2  0
 27 28  1  0
 28 29  2  0
 29  3  1  0
 19  6  2  0
 29 24  1  0
 17 11  1  0
  1 30  1  0
  1 31  1  0
  1 32  1  0
  2 33  1  0
  2 34  1  0
  4 35  1  0
  9 36  1  0
  9 37  1  0
 10 38  1  0
 12 39  1  0
 13 40  1  0
 14 41  1  0
 16 42  1  0
 16 43  1  0
 16 44  1  0
 17 45  1  0
 21 46  1  0
 21 47  1  0
 23 48  1  0
 25 49  1  0
 26 50  1  0
 27 51  1  0
 28 52  1  0
M  CHG  1   7  -1
M  END
>  <UniqueID>  (30) 
29

>  <SMILES>  (30) 
CCc1cc(-c2[n-]c(CNc3cccc(C)c3)nc2C(N)=O)cc2ccccc12

>  <Energy>  (30) 
88.28160541722313

>  <Genealogy>  (30) 
CCc1cc(-c2[n-]c(CNc3cccc(C)c3)nc2C(N)=O)cc2ccccc12 (protonated)
CCc1cc(-c2[n-]c(CNc3cccc(C)c3)nc2C(N)=O)cc2ccccc12 (3D coordinates assigned)
CCc1cc(-c2[n-]c(CNc3cccc(C)c3)nc2C(N)=O)cc2ccccc12 (optimized conformer: 88.28160541722313 kcal/mol)

>  <smiles>  (30) 
CCc1cc(-c2[nH]c(CNc3cccc(C)c3)nc2C(N)=O)cc2ccccc12

>  <score_type>  (30) 
oracle

>  <origin>  (30) 
adgpu

>  <m_score__min__energy>  (30) 
-11.529999999999999

>  <m_primary>  (30) 
energy

$$$$
30:0
     RDKit          3D

 35 38  0  0  0  0  0  0  0  0999 V2000
   -1.9830   22.7350  -30.4220 O   0  0  0  0  0  0  0  0  0  0  0  0
   -3.1880   23.1020  -30.4850 C   0  0  0  0  0  0  0  0  0  0  0  0
   -4.0060   22.5900  -31.5010 C   0  0  0  0  0  0  0  0  0  0  0  0
   -3.3290   21.4780  -32.6930 Cl  0  0  0  0  0  0  0  0  0  0  0  0
   -5.3380   23.0200  -31.5890 C   0  0  0  0  0  0  0  0  0  0  0  0
   -6.2240   22.5380  -32.6110 N   0  0  0  0  0  0  0  0  0  0  0  0
   -7.0520   21.3690  -32.4660 C   0  0  0  0  0  0  0  0  0  0  0  0
   -6.6290   20.1040  -32.9180 C   0  0  0  0  0  0  0  0  0  0  0  0
   -7.4500   18.9850  -32.7530 C   0  0  0  0  0  0  0  0  0  0  0  0
   -8.6940   19.1130  -32.1270 C   0  0  0  0  0  0  0  0  0  0  0  0
   -9.4870   18.0260  -31.9680 F   0  0  0  0  0  0  0  0  0  0  0  0
   -9.1150   20.3620  -31.6620 C   0  0  0  0  0  0  0  0  0  0  0  0
   -8.2970   21.4840  -31.8270 C   0  0  0  0  0  0  0  0  0  0  0  0
   -5.7890   23.9820  -30.6910 C   0  0  0  0  0  0  0  0  0  0  0  0
   -4.9590   24.4400  -29.7200 N   0  0  0  0  0  0  0  0  0  0  0  0
   -3.6990   24.0150  -29.5920 N   0  0  0  0  0  0  0  0  0  0  0  0
   -2.9260   24.5730  -28.5090 C   0  0  0  0  0  0  0  0  0  0  0  0
   -1.7930   25.2900  -28.7240 N   0  0  0  0  0  0  0  0  0  0  0  0
   -1.2760   25.7580  -27.5590 C   0  0  0  0  0  0  0  0  0  0  0  0
   -0.1110   26.5220  -27.4630 C   0  0  0  0  0  0  0  0  0  0  0  0
    0.3140   26.9480  -26.1930 C   0  0  0  0  0  0  0  0  0  0  0  0
   -0.4250   26.6090  -25.0420 C   0  0  0  0  0  0  0  0  0  0  0  0
   -1.5950   25.8410  -25.1500 C   0  0  0  0  0  0  0  0  0  0  0  0
   -1.9940   25.4300  -26.4190 C   0  0  0  0  0  0  0  0  0  0  0  0
   -3.3340   24.5230  -26.8580 S   0  0  0  0  0  0  0  0  0  0  0  0
   -6.3580   23.1370  -33.4560 H   0  0  0  0  0  0  0  0  0  0  0  0
   -5.6477   19.9961  -33.4032 H   0  0  0  0  0  0  0  0  0  0  0  0
   -7.1170   18.0016  -33.1163 H   0  0  0  0  0  0  0  0  0  0  0  0
  -10.0914   20.4625  -31.1654 H   0  0  0  0  0  0  0  0  0  0  0  0
   -8.6311   22.4633  -31.4537 H   0  0  0  0  0  0  0  0  0  0  0  0
   -6.8153   24.3703  -30.7678 H   0  0  0  0  0  0  0  0  0  0  0  0
    0.4628   26.7852  -28.3638 H   0  0  0  0  0  0  0  0  0  0  0  0
    1.2296   27.5500  -26.0968 H   0  0  0  0  0  0  0  0  0  0  0  0
   -0.0830   26.9482  -24.0531 H   0  0  0  0  0  0  0  0  0  0  0  0
   -2.1796   25.5717  -24.2580 H   0  0  0  0  0  0  0  0  0  0  0  0
  1  2  2  0
  2  3  1  0
  3  4  1  0
  3  5  2  0
  5  6  1  0
  6  7  1  0
  7  8  2  0
  8  9  1  0
  9 10  2  0
 10 11  1  0
 10 12  1  0
 12 13  2  0
  5 14  1  0
 14 15  2  0
 15 16  1  0
 16 17  1  0
 17 18  2  0
 18 19  1  0
 19 20  2  0
 20 21  1  0
 21 22  2  0
 22 23  1  0
 23 24  2  0
 24 25  1  0
 16  2  1  0
 25 17  1  0
 13  7  1  0
 24 19  1  0
  6 26  1  0
  8 27  1  0
  9 28  1  0
 12 29  1  0
 13 30  1  0
 14 31  1  0
 20 32  1  0
 21 33  1  0
 22 34  1  0
 23 35  1  0
M  END
>  <UniqueID>  (31) 
30

>  <SMILES>  (31) 
O=c1c(Cl)c(Nc2ccc(F)cc2)cnn1-c1nc2ccccc2s1

>  <Energy>  (31) 
88.54863468135714

>  <Genealogy>  (31) 
O=c1c(Cl)c(Nc2ccc(F)cc2)cnn1-c1nc2ccccc2s1 (3D coordinates assigned)
O=c1c(Cl)c(Nc2ccc(F)cc2)cnn1-c1nc2ccccc2s1 (optimized conformer: 88.54863468135714 kcal/mol)

>  <smiles>  (31) 
O=c1c(Cl)c(Nc2ccc(F)cc2)cnn1-c1nc2ccccc2s1

>  <score_type>  (31) 
oracle

>  <origin>  (31) 
adgpu

>  <m_score__min__energy>  (31) 
-8.8300000000000001

>  <m_primary>  (31) 
energy

$$$$
31:0
     RDKit          3D

 32 33  0  0  0  0  0  0  0  0999 V2000
   -6.3960   14.6150  -34.2150 C   0  0  0  0  0  0  0  0  0  0  0  0
   -6.8650   15.9150  -34.5580 O   0  0  0  0  0  0  0  0  0  0  0  0
   -6.3090   17.1140  -34.0810 C   0  0  0  0  0  0  0  0  0  0  0  0
   -7.0290   17.9820  -33.2390 C   0  0  0  0  0  0  0  0  0  0  0  0
   -6.4510   19.1680  -32.7830 C   0  0  0  0  0  0  0  0  0  0  0  0
   -5.1460   19.5200  -33.1610 C   0  0  0  0  0  0  0  0  0  0  0  0
   -4.5520   20.7830  -32.6610 C   0  0  0  0  0  0  0  0  0  0  0  0
   -4.0030   21.5660  -33.4840 O   0  0  0  0  0  0  0  0  0  0  0  0
   -4.6010   21.1290  -31.2630 N   0  0  0  0  0  0  0  0  0  0  0  0
   -3.9660   22.2910  -30.7030 C   0  0  0  0  0  0  0  0  0  0  0  0
   -2.6290   22.2100  -30.2840 C   0  0  0  0  0  0  0  0  0  0  0  0
   -1.9820   23.3330  -29.7600 C   0  0  0  0  0  0  0  0  0  0  0  0
   -2.6590   24.5510  -29.6650 C   0  0  0  0  0  0  0  0  0  0  0  0
   -2.0140   25.6660  -29.1430 O   0  0  0  0  0  0  0  0  0  0  0  0
   -3.9830   24.6490  -30.1010 C   0  0  0  0  0  0  0  0  0  0  0  0
   -4.6330   23.5280  -30.6260 C   0  0  0  0  0  0  0  0  0  0  0  0
   -4.4210   18.6470  -33.9900 C   0  0  0  0  0  0  0  0  0  0  0  0
   -4.9940   17.4520  -34.4530 C   0  0  0  0  0  0  0  0  0  0  0  0
   -4.2290   16.5830  -35.2950 N   0  0  0  0  0  0  0  0  0  0  0  0
   -6.3600   14.5152  -33.1201 H   0  0  0  0  0  0  0  0  0  0  0  0
   -7.0777   13.8580  -34.6300 H   0  0  0  0  0  0  0  0  0  0  0  0
   -5.3880   14.4675  -34.6300 H   0  0  0  0  0  0  0  0  0  0  0  0
   -8.0550   17.7239  -32.9379 H   0  0  0  0  0  0  0  0  0  0  0  0
   -7.0242   19.8335  -32.1207 H   0  0  0  0  0  0  0  0  0  0  0  0
   -5.1660   20.5410  -30.6120 H   0  0  0  0  0  0  0  0  0  0  0  0
   -2.0867   21.2567  -30.3685 H   0  0  0  0  0  0  0  0  0  0  0  0
   -0.9380   23.2573  -29.4219 H   0  0  0  0  0  0  0  0  0  0  0  0
   -4.5146   25.6095  -30.0311 H   0  0  0  0  0  0  0  0  0  0  0  0
   -5.6708   23.6132  -30.9806 H   0  0  0  0  0  0  0  0  0  0  0  0
   -3.3913   18.9033  -34.2798 H   0  0  0  0  0  0  0  0  0  0  0  0
   -3.2940   16.8770  -35.6560 H   0  0  0  0  0  0  0  0  0  0  0  0
   -4.5820   15.6400  -35.5700 H   0  0  0  0  0  0  0  0  0  0  0  0
  1  2  1  0
  2  3  1  0
  3  4  2  0
  4  5  1  0
  5  6  2  0
  6  7  1  0
  7  8  2  0
  7  9  1  0
  9 10  1  0
 10 11  2  0
 11 12  1  0
 12 13  2  0
 13 14  1  0
 13 15  1  0
 15 16  2  0
  6 17  1  0
 17 18  2  0
 18 19  1  0
 18  3  1  0
 16 10  1  0
  1 20  1  0
  1 21  1  0
  1 22  1  0
  4 23  1  0
  5 24  1  0
  9 25  1  0
 11 26  1  0
 12 27  1  0
 15 28  1  0
 16 29  1  0
 17 30  1  0
 19 31  1  0
 19 32  1  0
M  CHG  1  14  -1
M  END
>  <UniqueID>  (32) 
31

>  <SMILES>  (32) 
COc1ccc(C(=O)Nc2ccc([O-])cc2)cc1N

>  <Energy>  (32) 
38.8515356046125

>  <Genealogy>  (32) 
COc1ccc(C(=O)Nc2ccc([O-])cc2)cc1N (protonated)
COc1ccc(C(=O)Nc2ccc([O-])cc2)cc1N (3D coordinates assigned)
COc1ccc(C(=O)Nc2ccc([O-])cc2)cc1N (optimized conformer: 38.8515356046125 kcal/mol)

>  <smiles>  (32) 
COc1ccc(C(=O)Nc2ccc(O)cc2)cc1N

>  <score_type>  (32) 
oracle

>  <origin>  (32) 
adgpu

>  <m_score__min__energy>  (32) 
-8.0700000000000003

>  <m_primary>  (32) 
energy

$$$$
32:0
     RDKit          3D

 48 51  0  0  0  0  0  0  0  0999 V2000
   -5.7280   26.2710  -30.4880 O   0  0  0  0  0  0  0  0  0  0  0  0
   -5.0540   25.2190  -30.6470 C   0  0  0  0  0  0  0  0  0  0  0  0
   -3.6340   25.2850  -30.4550 N   0  0  0  0  0  0  0  0  0  0  0  0
   -2.8610   24.4850  -29.5480 C   0  0  0  0  0  0  0  0  0  0  0  0
   -1.6700   24.9630  -28.9740 C   0  0  0  0  0  0  0  0  0  0  0  0
   -0.9470   24.1620  -28.0850 C   0  0  0  0  0  0  0  0  0  0  0  0
   -1.4150   22.8880  -27.7500 C   0  0  0  0  0  0  0  0  0  0  0  0
   -2.6100   22.4170  -28.3000 C   0  0  0  0  0  0  0  0  0  0  0  0
   -3.3350   23.2160  -29.1900 C   0  0  0  0  0  0  0  0  0  0  0  0
   -5.7550   23.9470  -30.9590 C   0  0  0  0  0  0  0  0  0  0  0  0
   -5.4320   23.2330  -32.1260 C   0  0  0  0  0  0  0  0  0  0  0  0
   -6.1170   22.0580  -32.4510 C   0  0  0  0  0  0  0  0  0  0  0  0
   -7.1300   21.5730  -31.6140 C   0  0  0  0  0  0  0  0  0  0  0  0
   -7.9980   20.0890  -32.0250 S   0  0  0  0  0  0  0  0  0  0  0  0
   -8.9580   20.3750  -33.1470 O   0  0  0  0  0  0  0  0  0  0  0  0
   -8.8000   19.6420  -30.8340 O   0  0  0  0  0  0  0  0  0  0  0  0
   -6.8980   18.8000  -32.4760 N   0  0  1  0  0  0  0  0  0  0  0  0
   -6.5350   18.9000  -33.9220 C   0  0  0  0  0  0  0  0  0  0  0  0
   -5.0870   18.4920  -34.2270 C   0  0  0  0  0  0  0  0  0  0  0  0
   -4.1770   19.2990  -33.3550 C   0  0  0  0  0  0  0  0  0  0  0  0
   -3.0030   19.8880  -33.8440 C   0  0  0  0  0  0  0  0  0  0  0  0
   -2.1890   20.6340  -32.9880 C   0  0  0  0  0  0  0  0  0  0  0  0
   -2.5410   20.7850  -31.6420 C   0  0  0  0  0  0  0  0  0  0  0  0
   -3.7110   20.1960  -31.1510 C   0  0  0  0  0  0  0  0  0  0  0  0
   -4.5350   19.4570  -32.0110 C   0  0  0  0  0  0  0  0  0  0  0  0
   -5.7600   18.7310  -31.5160 C   0  0  0  0  0  0  0  0  0  0  0  0
   -7.4550   22.2830  -30.4490 C   0  0  0  0  0  0  0  0  0  0  0  0
   -6.7830   23.4650  -30.1300 C   0  0  0  0  0  0  0  0  0  0  0  0
   -1.3059   25.9702  -29.2251 H   0  0  0  0  0  0  0  0  0  0  0  0
   -0.0086   24.5347  -27.6485 H   0  0  0  0  0  0  0  0  0  0  0  0
   -0.8430   22.2569  -27.0540 H   0  0  0  0  0  0  0  0  0  0  0  0
   -2.9810   21.4166  -28.0327 H   0  0  0  0  0  0  0  0  0  0  0  0
   -4.2817   22.8464  -29.6109 H   0  0  0  0  0  0  0  0  0  0  0  0
   -4.6347   23.6012  -32.7883 H   0  0  0  0  0  0  0  0  0  0  0  0
   -5.8587   21.5111  -33.3698 H   0  0  0  0  0  0  0  0  0  0  0  0
   -7.4440   17.9140  -32.3570 H   0  0  0  0  0  0  0  0  0  0  0  0
   -7.2079   18.2447  -34.4946 H   0  0  0  0  0  0  0  0  0  0  0  0
   -6.6361   19.9581  -34.2052 H   0  0  0  0  0  0  0  0  0  0  0  0
   -4.9503   17.4210  -34.0166 H   0  0  0  0  0  0  0  0  0  0  0  0
   -4.8571   18.6757  -35.2869 H   0  0  0  0  0  0  0  0  0  0  0  0
   -2.7229   19.7631  -34.9004 H   0  0  0  0  0  0  0  0  0  0  0  0
   -1.2711   21.1029  -33.3722 H   0  0  0  0  0  0  0  0  0  0  0  0
   -1.8960   21.3683  -30.9684 H   0  0  0  0  0  0  0  0  0  0  0  0
   -3.9839   20.3126  -30.0918 H   0  0  0  0  0  0  0  0  0  0  0  0
   -5.5008   17.6744  -31.3531 H   0  0  0  0  0  0  0  0  0  0  0  0
   -6.0816   19.2198  -30.5845 H   0  0  0  0  0  0  0  0  0  0  0  0
   -8.2445   21.9064  -29.7820 H   0  0  0  0  0  0  0  0  0  0  0  0
   -7.0601   24.0229  -29.2234 H   0  0  0  0  0  0  0  0  0  0  0  0
  1  2  2  0
  2  3  1  0
  3  4  1  0
  4  5  2  0
  5  6  1  0
  6  7  2  0
  7  8  1  0
  8  9  2  0
  2 10  1  0
 10 11  2  0
 11 12  1  0
 12 13  2  0
 13 14  1  0
 14 15  2  0
 14 16  2  0
 14 17  1  0
 17 18  1  0
 18 19  1  0
 19 20  1  0
 20 21  2  0
 21 22  1  0
 22 23  2  0
 23 24  1  0
 24 25  2  0
 25 26  1  0
 13 27  1  0
 27 28  2  0
  9  4  1  0
 28 10  1  0
 26 17  1  0
 25 20  1  0
  5 29  1  0
  6 30  1  0
  7 31  1  0
  8 32  1  0
  9 33  1  0
 11 34  1  0
 12 35  1  0
 17 36  1  6
 18 37  1  0
 18 38  1  0
 19 39  1  0
 19 40  1  0
 21 41  1  0
 22 42  1  0
 23 43  1  0
 24 44  1  0
 26 45  1  0
 26 46  1  0
 27 47  1  0
 28 48  1  0
M  CHG  2   3  -1  17   1
M  END
>  <UniqueID>  (33) 
32

>  <SMILES>  (33) 
O=C([N-]c1ccccc1)c1ccc(S(=O)(=O)[N@H+]2CCc3ccccc3C2)cc1

>  <Energy>  (33) 
65.49205265015553

>  <Genealogy>  (33) 
O=C([N-]c1ccccc1)c1ccc(S(=O)(=O)[NH+]2CCc3ccccc3C2)cc1 (protonated)
O=C([N-]c1ccccc1)c1ccc(S(=O)(=O)[N@H+]2CCc3ccccc3C2)cc1 (chirality)
O=C([N-]c1ccccc1)c1ccc(S(=O)(=O)[N@H+]2CCc3ccccc3C2)cc1 (3D coordinates assigned)
O=C([N-]c1ccccc1)c1ccc(S(=O)(=O)[N@H+]2CCc3ccccc3C2)cc1 (nonaromatic ring conformer: 65.49205265015553 kcal/mol)

>  <smiles>  (33) 
O=C(Nc1ccccc1)c1ccc(S(=O)(=O)N2CCc3ccccc3C2)cc1

>  <score_type>  (33) 
oracle

>  <origin>  (33) 
adgpu

>  <m_score__min__energy>  (33) 
-11.029999999999999

>  <m_primary>  (33) 
energy

$$$$
33:0
     RDKit          3D

 37 39  0  0  0  0  0  0  0  0999 V2000
   -6.3760   25.7930  -29.0630 N   0  0  0  0  0  0  0  0  0  0  0  0
   -5.7180   24.8390  -29.8990 C   0  0  0  0  0  0  0  0  0  0  0  0
   -6.3300   24.4070  -31.1000 C   0  0  0  0  0  0  0  0  0  0  0  0
   -5.6930   23.4680  -31.9320 C   0  0  0  0  0  0  0  0  0  0  0  0
   -4.4440   22.9820  -31.5360 C   0  0  0  0  0  0  0  0  0  0  0  0
   -3.8540   23.3970  -30.3700 C   0  0  0  0  0  0  0  0  0  0  0  0
   -2.6550   22.7270  -30.2480 C   0  0  0  0  0  0  0  0  0  0  0  0
   -2.5720   21.9140  -31.3740 C   0  0  0  0  0  0  0  0  0  0  0  0
   -3.6610   22.0820  -32.1620 N   0  0  0  0  0  0  0  0  0  0  0  0
   -3.9510   21.3500  -33.3950 C   0  0  0  0  0  0  0  0  0  0  0  0
   -4.2330   19.8770  -33.0800 C   0  0  0  0  0  0  0  0  0  0  0  0
   -5.4610   19.3440  -33.8320 C   0  0  0  0  0  0  0  0  0  0  0  0
   -6.7250   19.5040  -33.0250 C   0  0  0  0  0  0  0  0  0  0  0  0
   -7.2180   20.7860  -32.7310 C   0  0  0  0  0  0  0  0  0  0  0  0
   -8.4070   20.9360  -32.0100 C   0  0  0  0  0  0  0  0  0  0  0  0
   -9.1130   19.8100  -31.5800 C   0  0  0  0  0  0  0  0  0  0  0  0
   -8.6320   18.5300  -31.8730 C   0  0  0  0  0  0  0  0  0  0  0  0
   -7.4440   18.3750  -32.5940 C   0  0  0  0  0  0  0  0  0  0  0  0
   -4.4590   24.3250  -29.5250 C   0  0  0  0  0  0  0  0  0  0  0  0
   -6.4070   26.8040  -29.3270 H   0  0  0  0  0  0  0  0  0  0  0  0
   -6.8390   25.4960  -28.1750 H   0  0  0  0  0  0  0  0  0  0  0  0
   -7.3131   24.8093  -31.3856 H   0  0  0  0  0  0  0  0  0  0  0  0
   -6.1638   23.1268  -32.8658 H   0  0  0  0  0  0  0  0  0  0  0  0
   -1.9206   22.8163  -29.4339 H   0  0  0  0  0  0  0  0  0  0  0  0
   -1.7387   21.2304  -31.5937 H   0  0  0  0  0  0  0  0  0  0  0  0
   -4.8322   21.7929  -33.8822 H   0  0  0  0  0  0  0  0  0  0  0  0
   -3.0807   21.4144  -34.0647 H   0  0  0  0  0  0  0  0  0  0  0  0
   -3.3554   19.2796  -33.3678 H   0  0  0  0  0  0  0  0  0  0  0  0
   -4.4381   19.7971  -32.0022 H   0  0  0  0  0  0  0  0  0  0  0  0
   -5.5687   19.8983  -34.7760 H   0  0  0  0  0  0  0  0  0  0  0  0
   -5.3082   18.2708  -34.0189 H   0  0  0  0  0  0  0  0  0  0  0  0
   -6.6666   21.6757  -33.0692 H   0  0  0  0  0  0  0  0  0  0  0  0
   -8.7869   21.9426  -31.7811 H   0  0  0  0  0  0  0  0  0  0  0  0
  -10.0468   19.9301  -31.0112 H   0  0  0  0  0  0  0  0  0  0  0  0
   -9.1892   17.6436  -31.5357 H   0  0  0  0  0  0  0  0  0  0  0  0
   -7.0706   17.3664  -32.8248 H   0  0  0  0  0  0  0  0  0  0  0  0
   -3.9694   24.6471  -28.5941 H   0  0  0  0  0  0  0  0  0  0  0  0
  1  2  1  0
  2  3  2  0
  3  4  1  0
  4  5  2  0
  5  6  1  0
  6  7  1  0
  7  8  2  0
  8  9  1  0
  9 10  1  0
 10 11  1  0
 11 12  1  0
 12 13  1  0
 13 14  2  0
 14 15  1  0
 15 16  2  0
 16 17  1  0
 17 18  2  0
  6 19  2  0
 19  2  1  0
  9  5  1  0
 18 13  1  0
  1 20  1  0
  1 21  1  0
  3 22  1  0
  4 23  1  0
  7 24  1  0
  8 25  1  0
 10 26  1  0
 10 27  1  0
 11 28  1  0
 11 29  1  0
 12 30  1  0
 12 31  1  0
 14 32  1  0
 15 33  1  0
 16 34  1  0
 17 35  1  0
 18 36  1  0
 19 37  1  0
M  END
>  <UniqueID>  (34) 
33

>  <SMILES>  (34) 
Nc1ccc2c(ccn2CCCc2ccccc2)c1

>  <Energy>  (34) 
65.9023089704161

>  <Genealogy>  (34) 
Nc1ccc2c(ccn2CCCc2ccccc2)c1 (3D coordinates assigned)
Nc1ccc2c(ccn2CCCc2ccccc2)c1 (optimized conformer: 65.9023089704161 kcal/mol)

>  <smiles>  (34) 
Nc1ccc2c(ccn2CCCc2ccccc2)c1

>  <score_type>  (34) 
oracle

>  <origin>  (34) 
adgpu

>  <m_score__min__energy>  (34) 
-8.1899999999999995

>  <m_primary>  (34) 
energy

$$$$
34:0
     RDKit          3D

 43 45  0  0  0  0  0  0  0  0999 V2000
   -3.7860   24.1400  -27.0970 C   0  0  0  0  0  0  0  0  0  0  0  0
   -2.2830   24.2820  -27.4010 C   0  0  1  0  0  0  0  0  0  0  0  0
   -2.0150   24.1820  -28.9260 C   0  0  0  0  0  0  0  0  0  0  0  0
   -3.0780   23.4470  -29.6170 N   0  0  0  0  0  0  0  0  0  0  0  0
   -4.0210   24.0840  -30.4960 C   0  0  0  0  0  0  0  0  0  0  0  0
   -3.8920   25.3090  -30.7690 O   0  0  0  0  0  0  0  0  0  0  0  0
   -5.1320   23.3190  -31.1110 C   0  0  0  0  0  0  0  0  0  0  0  0
   -6.4570   23.7910  -31.0620 C   0  0  0  0  0  0  0  0  0  0  0  0
   -7.4920   23.0590  -31.6510 C   0  0  0  0  0  0  0  0  0  0  0  0
   -7.2170   21.8530  -32.3000 C   0  0  0  0  0  0  0  0  0  0  0  0
   -5.9050   21.3800  -32.3650 C   0  0  0  0  0  0  0  0  0  0  0  0
   -4.8660   22.1080  -31.7780 C   0  0  0  0  0  0  0  0  0  0  0  0
   -1.7400   25.6250  -26.8170 C   0  0  0  0  0  0  0  0  0  0  0  0
   -0.9710   25.2850  -25.5340 C   0  0  0  0  0  0  0  0  0  0  0  0
   -0.7880   23.8260  -25.6350 C   0  0  0  0  0  0  0  0  0  0  0  0
   -0.0590   23.1560  -24.8560 O   0  0  0  0  0  0  0  0  0  0  0  0
   -1.5390   23.2430  -26.6830 N   0  0  0  0  0  0  0  0  0  0  0  0
   -1.4240   21.8660  -27.0730 C   0  0  0  0  0  0  0  0  0  0  0  0
   -2.5640   21.0490  -27.0980 C   0  0  0  0  0  0  0  0  0  0  0  0
   -2.4590   19.7070  -27.4730 C   0  0  0  0  0  0  0  0  0  0  0  0
   -1.2170   19.1750  -27.8330 C   0  0  0  0  0  0  0  0  0  0  0  0
   -0.0800   19.9890  -27.8220 C   0  0  0  0  0  0  0  0  0  0  0  0
   -0.1820   21.3320  -27.4460 C   0  0  0  0  0  0  0  0  0  0  0  0
   -3.9400   24.1254  -26.0079 H   0  0  0  0  0  0  0  0  0  0  0  0
   -4.3302   24.9907  -27.5330 H   0  0  0  0  0  0  0  0  0  0  0  0
   -4.1613   23.2024  -27.5330 H   0  0  0  0  0  0  0  0  0  0  0  0
   -1.9540   25.1975  -29.3444 H   0  0  0  0  0  0  0  0  0  0  0  0
   -1.0707   23.6372  -29.0728 H   0  0  0  0  0  0  0  0  0  0  0  0
   -3.0730   22.4060  -29.5400 H   0  0  0  0  0  0  0  0  0  0  0  0
   -6.6796   24.7424  -30.5568 H   0  0  0  0  0  0  0  0  0  0  0  0
   -8.5252   23.4335  -31.6033 H   0  0  0  0  0  0  0  0  0  0  0  0
   -8.0334   21.2765  -32.7595 H   0  0  0  0  0  0  0  0  0  0  0  0
   -5.6884   20.4321  -32.8794 H   0  0  0  0  0  0  0  0  0  0  0  0
   -3.8339   21.7323  -31.8376 H   0  0  0  0  0  0  0  0  0  0  0  0
   -1.0680   26.1068  -27.5424 H   0  0  0  0  0  0  0  0  0  0  0  0
   -2.5657   26.3199  -26.6042 H   0  0  0  0  0  0  0  0  0  0  0  0
   -0.0016   25.8041  -25.5046 H   0  0  0  0  0  0  0  0  0  0  0  0
   -1.4966   25.5940  -24.6184 H   0  0  0  0  0  0  0  0  0  0  0  0
   -3.5436   21.4660  -26.8216 H   0  0  0  0  0  0  0  0  0  0  0  0
   -3.3545   19.0683  -27.4850 H   0  0  0  0  0  0  0  0  0  0  0  0
   -1.1344   18.1175  -28.1245 H   0  0  0  0  0  0  0  0  0  0  0  0
    0.8964   19.5721  -28.1097 H   0  0  0  0  0  0  0  0  0  0  0  0
    0.7135   21.9708  -27.4428 H   0  0  0  0  0  0  0  0  0  0  0  0
  2  1  1  6
  2  3  1  0
  3  4  1  0
  4  5  1  0
  5  6  2  0
  5  7  1  0
  7  8  2  0
  8  9  1  0
  9 10  2  0
 10 11  1  0
 11 12  2  0
  2 13  1  0
 13 14  1  0
 14 15  1  0
 15 16  2  0
 15 17  1  0
 17 18  1  0
 18 19  2  0
 19 20  1  0
 20 21  2  0
 21 22  1  0
 22 23  2  0
 17  2  1  0
 23 18  1  0
 12  7  1  0
  1 24  1  0
  1 25  1  0
  1 26  1  0
  3 27  1  0
  3 28  1  0
  4 29  1  0
  8 30  1  0
  9 31  1  0
 10 32  1  0
 11 33  1  0
 12 34  1  0
 13 35  1  0
 13 36  1  0
 14 37  1  0
 14 38  1  0
 19 39  1  0
 20 40  1  0
 21 41  1  0
 22 42  1  0
 23 43  1  0
M  END
>  <UniqueID>  (35) 
34

>  <SMILES>  (35) 
C[C@@]1(CNC(=O)c2ccccc2)CCC(=O)N1c1ccccc1

>  <Energy>  (35) 
58.37110854411179

>  <Genealogy>  (35) 
C[C@@]1(CNC(=O)c2ccccc2)CCC(=O)N1c1ccccc1 (chirality)
C[C@@]1(CNC(=O)c2ccccc2)CCC(=O)N1c1ccccc1 (3D coordinates assigned)
C[C@@]1(CNC(=O)c2ccccc2)CCC(=O)N1c1ccccc1 (nonaromatic ring conformer: 58.37110854411179 kcal/mol)

>  <smiles>  (35) 
CC1(CNC(=O)c2ccccc2)CCC(=O)N1c1ccccc1

>  <score_type>  (35) 
oracle

>  <origin>  (35) 
adgpu

>  <m_score__min__energy>  (35) 
-8.5299999999999994

>  <m_primary>  (35) 
energy

$$$$
35:0
     RDKit          3D

 45 48  0  0  0  0  0  0  0  0999 V2000
    1.2490   14.9650  -27.0160 C   0  0  0  0  0  0  0  0  0  0  0  0
    1.5850   16.3850  -27.3650 C   0  0  0  0  0  0  0  0  0  0  0  0
    2.8710   16.8860  -27.1180 C   0  0  0  0  0  0  0  0  0  0  0  0
    3.1930   18.1960  -27.4760 C   0  0  0  0  0  0  0  0  0  0  0  0
    2.2430   19.0120  -28.0940 C   0  0  0  0  0  0  0  0  0  0  0  0
    0.9520   18.5210  -28.3670 C   0  0  0  0  0  0  0  0  0  0  0  0
   -0.0700   19.3690  -29.0320 C   0  0  0  0  0  0  0  0  0  0  0  0
   -1.0870   20.0900  -28.4120 C   0  0  0  0  0  0  0  0  0  0  0  0
   -1.7750   20.7090  -29.3810 N   0  0  0  0  0  0  0  0  0  0  0  0
   -2.8530   21.5280  -29.2960 C   0  0  0  0  0  0  0  0  0  0  0  0
   -3.3860   22.0590  -30.4880 C   0  0  0  0  0  0  0  0  0  0  0  0
   -4.5700   22.9500  -30.4490 C   0  0  0  0  0  0  0  0  0  0  0  0
   -5.8550   22.3830  -30.5130 C   0  0  0  0  0  0  0  0  0  0  0  0
   -6.9890   23.1940  -30.4910 C   0  0  0  0  0  0  0  0  0  0  0  0
   -6.8570   24.5790  -30.4020 C   0  0  0  0  0  0  0  0  0  0  0  0
   -5.5880   25.1590  -30.3280 C   0  0  0  0  0  0  0  0  0  0  0  0
   -4.4330   24.3550  -30.3430 C   0  0  0  0  0  0  0  0  0  0  0  0
   -3.1210   24.9270  -30.2180 N   0  0  0  0  0  0  0  0  0  0  0  0
   -2.1140   24.8850  -28.8070 S   0  0  0  0  0  0  0  0  0  0  0  0
   -3.0670   24.3850  -27.3900 C   0  0  0  0  0  0  0  0  0  0  0  0
   -1.4950   26.2340  -28.5760 O   0  0  0  0  0  0  0  0  0  0  0  0
   -1.0180   23.8830  -29.0280 O   0  0  0  0  0  0  0  0  0  0  0  0
   -2.7830   21.7050  -31.7190 C   0  0  0  0  0  0  0  0  0  0  0  0
   -1.6680   20.8530  -31.7520 C   0  0  0  0  0  0  0  0  0  0  0  0
   -1.1870   20.3700  -30.5380 C   0  0  0  0  0  0  0  0  0  0  0  0
   -0.1330   19.5470  -30.3770 N   0  0  0  0  0  0  0  0  0  0  0  0
    0.6360   17.1990  -28.0030 C   0  0  0  0  0  0  0  0  0  0  0  0
    1.2224   14.8527  -25.9221 H   0  0  0  0  0  0  0  0  0  0  0  0
    0.2651   14.7074  -27.4350 H   0  0  0  0  0  0  0  0  0  0  0  0
    2.0131   14.2938  -27.4350 H   0  0  0  0  0  0  0  0  0  0  0  0
    3.6275   16.2454  -26.6412 H   0  0  0  0  0  0  0  0  0  0  0  0
    4.2001   18.5877  -27.2703 H   0  0  0  0  0  0  0  0  0  0  0  0
    2.5049   20.0444  -28.3691 H   0  0  0  0  0  0  0  0  0  0  0  0
   -1.2876   20.1417  -27.3317 H   0  0  0  0  0  0  0  0  0  0  0  0
   -3.3002   21.7717  -28.3210 H   0  0  0  0  0  0  0  0  0  0  0  0
   -5.9666   21.2908  -30.5810 H   0  0  0  0  0  0  0  0  0  0  0  0
   -7.9896   22.7402  -30.5440 H   0  0  0  0  0  0  0  0  0  0  0  0
   -7.7535   25.2163  -30.3900 H   0  0  0  0  0  0  0  0  0  0  0  0
   -5.4910   26.2524  -30.2575 H   0  0  0  0  0  0  0  0  0  0  0  0
   -2.5320   24.6657  -26.4707 H   0  0  0  0  0  0  0  0  0  0  0  0
   -4.0463   24.8854  -27.4116 H   0  0  0  0  0  0  0  0  0  0  0  0
   -3.2118   23.2948  -27.4116 H   0  0  0  0  0  0  0  0  0  0  0  0
   -3.1926   22.1019  -32.6596 H   0  0  0  0  0  0  0  0  0  0  0  0
   -1.1909   20.5766  -32.7038 H   0  0  0  0  0  0  0  0  0  0  0  0
   -0.3654   16.7992  -28.2207 H   0  0  0  0  0  0  0  0  0  0  0  0
  1  2  1  0
  2  3  2  0
  3  4  1  0
  4  5  2  0
  5  6  1  0
  6  7  1  0
  7  8  2  0
  8  9  1  0
  9 10  1  0
 10 11  2  0
 11 12  1  0
 12 13  2  0
 13 14  1  0
 14 15  2  0
 15 16  1  0
 16 17  2  0
 17 18  1  0
 18 19  1  0
 19 20  1  0
 19 21  2  0
 19 22  2  0
 11 23  1  0
 23 24  2  0
 24 25  1  0
 25 26  2  0
  6 27  2  0
 27  2  1  0
 26  7  1  0
 25  9  1  0
 17 12  1  0
  1 28  1  0
  1 29  1  0
  1 30  1  0
  3 31  1  0
  4 32  1  0
  5 33  1  0
  8 34  1  0
 10 35  1  0
 13 36  1  0
 14 37  1  0
 15 38  1  0
 16 39  1  0
 20 40  1  0
 20 41  1  0
 20 42  1  0
 23 43  1  0
 24 44  1  0
 27 45  1  0
M  CHG  1  18  -1
M  END
>  <UniqueID>  (36) 
35

>  <SMILES>  (36) 
Cc1cccc(-c2cn3cc(-c4ccccc4[N-]S(C)(=O)=O)ccc3n2)c1

>  <Energy>  (36) 
90.39114681011303

>  <Genealogy>  (36) 
Cc1cccc(-c2cn3cc(-c4ccccc4[N-]S(C)(=O)=O)ccc3n2)c1 (protonated)
Cc1cccc(-c2cn3cc(-c4ccccc4[N-]S(C)(=O)=O)ccc3n2)c1 (3D coordinates assigned)
Cc1cccc(-c2cn3cc(-c4ccccc4[N-]S(C)(=O)=O)ccc3n2)c1 (optimized conformer: 90.39114681011303 kcal/mol)

>  <smiles>  (36) 
Cc1cccc(-c2cn3cc(-c4ccccc4NS(C)(=O)=O)ccc3n2)c1

>  <score_type>  (36) 
oracle

>  <origin>  (36) 
adgpu

>  <m_score__min__energy>  (36) 
-9.7699999999999996

>  <m_primary>  (36) 
energy

$$$$
36:0
     RDKit          3D

 42 44  0  0  0  0  0  0  0  0999 V2000
    0.2360   23.0410  -25.1090 C   0  0  0  0  0  0  0  0  0  0  0  0
   -0.0360   22.5800  -26.4290 O   0  0  0  0  0  0  0  0  0  0  0  0
   -0.9510   23.1800  -27.3080 C   0  0  0  0  0  0  0  0  0  0  0  0
   -2.2620   22.6920  -27.4710 C   0  0  0  0  0  0  0  0  0  0  0  0
   -3.1380   23.3090  -28.3650 C   0  0  0  0  0  0  0  0  0  0  0  0
   -2.7230   24.4100  -29.1170 C   0  0  0  0  0  0  0  0  0  0  0  0
   -3.6560   25.0300  -30.0170 N   0  0  0  0  0  0  0  0  0  0  0  0
   -4.6260   24.3540  -30.8260 C   0  0  0  0  0  0  0  0  0  0  0  0
   -5.7630   24.8780  -30.9590 O   0  0  0  0  0  0  0  0  0  0  0  0
   -4.3280   23.0500  -31.4600 C   0  0  0  0  0  0  0  0  0  0  0  0
   -3.1200   22.6590  -31.7830 O   0  0  0  0  0  0  0  0  0  0  0  0
   -3.2310   21.4940  -32.3790 C   0  0  0  0  0  0  0  0  0  0  0  0
   -2.0730   20.7420  -32.9380 C   0  0  0  0  0  0  0  0  0  0  0  0
   -4.5090   21.0720  -32.4730 N   0  0  0  0  0  0  0  0  0  0  0  0
   -5.2060   22.0540  -31.8680 C   0  0  0  0  0  0  0  0  0  0  0  0
   -6.6710   22.0090  -31.7130 C   0  0  0  0  0  0  0  0  0  0  0  0
   -7.3070   20.8510  -31.2380 C   0  0  0  0  0  0  0  0  0  0  0  0
   -8.7010   20.8070  -31.1310 C   0  0  0  0  0  0  0  0  0  0  0  0
   -9.4670   21.9110  -31.5140 C   0  0  0  0  0  0  0  0  0  0  0  0
   -8.8420   23.0580  -32.0120 C   0  0  0  0  0  0  0  0  0  0  0  0
   -7.4480   23.1050  -32.1210 C   0  0  0  0  0  0  0  0  0  0  0  0
   -1.4310   24.9260  -28.9290 C   0  0  0  0  0  0  0  0  0  0  0  0
   -0.5330   24.3020  -28.0420 C   0  0  0  0  0  0  0  0  0  0  0  0
    0.7800   24.7660  -27.8630 O   0  0  0  0  0  0  0  0  0  0  0  0
    1.1990   25.6050  -26.7920 C   0  0  0  0  0  0  0  0  0  0  0  0
   -0.1824   22.3319  -24.3795 H   0  0  0  0  0  0  0  0  0  0  0  0
    1.3237   23.1171  -24.9641 H   0  0  0  0  0  0  0  0  0  0  0  0
   -0.2233   24.0299  -24.9641 H   0  0  0  0  0  0  0  0  0  0  0  0
   -2.5972   21.8198  -26.8905 H   0  0  0  0  0  0  0  0  0  0  0  0
   -4.1627   22.9253  -28.4781 H   0  0  0  0  0  0  0  0  0  0  0  0
   -1.4616   20.3449  -32.1143 H   0  0  0  0  0  0  0  0  0  0  0  0
   -2.4403   19.9096  -33.5562 H   0  0  0  0  0  0  0  0  0  0  0  0
   -1.4620   21.4161  -33.5562 H   0  0  0  0  0  0  0  0  0  0  0  0
   -6.7071   19.9754  -30.9490 H   0  0  0  0  0  0  0  0  0  0  0  0
   -9.1944   19.9028  -30.7451 H   0  0  0  0  0  0  0  0  0  0  0  0
  -10.5628   21.8776  -31.4236 H   0  0  0  0  0  0  0  0  0  0  0  0
   -9.4467   23.9243  -32.3184 H   0  0  0  0  0  0  0  0  0  0  0  0
   -6.9595   24.0029  -32.5274 H   0  0  0  0  0  0  0  0  0  0  0  0
   -1.1176   25.8254  -29.4793 H   0  0  0  0  0  0  0  0  0  0  0  0
    0.9583   25.1231  -25.8329 H   0  0  0  0  0  0  0  0  0  0  0  0
    2.2847   25.7688  -26.8577 H   0  0  0  0  0  0  0  0  0  0  0  0
    0.6777   26.5714  -26.8577 H   0  0  0  0  0  0  0  0  0  0  0  0
  1  2  1  0
  2  3  1  0
  3  4  2  0
  4  5  1  0
  5  6  2  0
  6  7  1  0
  7  8  1  0
  8  9  2  0
  8 10  1  0
 10 11  1  0
 11 12  1  0
 12 13  1  0
 12 14  2  0
 14 15  1  0
 15 16  1  0
 16 17  2  0
 17 18  1  0
 18 19  2  0
 19 20  1  0
 20 21  2  0
  6 22  1  0
 22 23  2  0
 23 24  1  0
 24 25  1  0
 23  3  1  0
 15 10  2  0
 21 16  1  0
  1 26  1  0
  1 27  1  0
  1 28  1  0
  4 29  1  0
  5 30  1  0
 13 31  1  0
 13 32  1  0
 13 33  1  0
 17 34  1  0
 18 35  1  0
 19 36  1  0
 20 37  1  0
 21 38  1  0
 22 39  1  0
 25 40  1  0
 25 41  1  0
 25 42  1  0
M  CHG  1   7  -1
M  END
>  <UniqueID>  (37) 
36

>  <SMILES>  (37) 
COc1ccc([N-]C(=O)c2oc(C)nc2-c2ccccc2)cc1OC

>  <Energy>  (37) 
82.29201759448989

>  <Genealogy>  (37) 
COc1ccc([N-]C(=O)c2oc(C)nc2-c2ccccc2)cc1OC (protonated)
COc1ccc([N-]C(=O)c2oc(C)nc2-c2ccccc2)cc1OC (3D coordinates assigned)
COc1ccc([N-]C(=O)c2oc(C)nc2-c2ccccc2)cc1OC (optimized conformer: 82.29201759448989 kcal/mol)

>  <smiles>  (37) 
COc1ccc(NC(=O)c2oc(C)nc2-c2ccccc2)cc1OC

>  <score_type>  (37) 
oracle

>  <origin>  (37) 
adgpu

>  <m_score__min__energy>  (37) 
-9.1999999999999993

>  <m_primary>  (37) 
energy

$$$$
37:0
     RDKit          3D

 41 43  0  0  0  0  0  0  0  0999 V2000
   -1.2640   26.0130  -26.3420 C   0  0  0  0  0  0  0  0  0  0  0  0
   -2.5940   25.3670  -25.9700 C   0  0  0  0  0  0  0  0  0  0  0  0
   -3.1030   24.4620  -27.0950 C   0  0  0  0  0  0  0  0  0  0  0  0
   -2.1050   24.6490  -28.6150 S   0  0  0  0  0  0  0  0  0  0  0  0
   -3.4660   24.3510  -29.7510 C   0  0  0  0  0  0  0  0  0  0  0  0
   -3.9620   25.2980  -30.5670 N   0  0  0  0  0  0  0  0  0  0  0  0
   -4.9720   24.7490  -31.2250 N   0  0  0  0  0  0  0  0  0  0  0  0
   -5.0680   23.4700  -30.8090 C   0  0  0  0  0  0  0  0  0  0  0  0
   -6.1150   22.5470  -31.2910 C   0  0  0  0  0  0  0  0  0  0  0  0
   -7.4030   22.6020  -30.7340 C   0  0  0  0  0  0  0  0  0  0  0  0
   -8.3970   21.7200  -31.1620 C   0  0  0  0  0  0  0  0  0  0  0  0
   -8.1140   20.7680  -32.1430 C   0  0  0  0  0  0  0  0  0  0  0  0
   -6.8340   20.6970  -32.6980 C   0  0  0  0  0  0  0  0  0  0  0  0
   -5.8300   21.5780  -32.2760 C   0  0  0  0  0  0  0  0  0  0  0  0
   -4.2440   21.4670  -33.0330 Cl  0  0  0  0  0  0  0  0  0  0  0  0
   -4.1220   23.1780  -29.8890 N   0  0  0  0  0  0  0  0  0  0  0  0
   -3.9300   21.9360  -29.1280 C   0  0  0  0  0  0  0  0  0  0  0  0
   -2.5410   21.3820  -29.3230 C   0  0  0  0  0  0  0  0  0  0  0  0
   -1.9040   20.6710  -28.2920 C   0  0  0  0  0  0  0  0  0  0  0  0
   -0.6110   20.1700  -28.4750 C   0  0  0  0  0  0  0  0  0  0  0  0
    0.0590   20.3830  -29.6820 C   0  0  0  0  0  0  0  0  0  0  0  0
   -0.5630   21.0980  -30.7090 C   0  0  0  0  0  0  0  0  0  0  0  0
   -1.8560   21.6000  -30.5310 C   0  0  0  0  0  0  0  0  0  0  0  0
   -0.7165   26.2789  -25.4257 H   0  0  0  0  0  0  0  0  0  0  0  0
   -0.6655   25.3052  -26.9343 H   0  0  0  0  0  0  0  0  0  0  0  0
   -1.4504   26.9210  -26.9343 H   0  0  0  0  0  0  0  0  0  0  0  0
   -2.4585   24.7655  -25.0590 H   0  0  0  0  0  0  0  0  0  0  0  0
   -3.3336   26.1637  -25.8019 H   0  0  0  0  0  0  0  0  0  0  0  0
   -3.0520   23.4151  -26.7613 H   0  0  0  0  0  0  0  0  0  0  0  0
   -4.1387   24.7513  -27.3264 H   0  0  0  0  0  0  0  0  0  0  0  0
   -7.6302   23.3450  -29.9553 H   0  0  0  0  0  0  0  0  0  0  0  0
   -9.4051   21.7753  -30.7254 H   0  0  0  0  0  0  0  0  0  0  0  0
   -8.8986   20.0740  -32.4789 H   0  0  0  0  0  0  0  0  0  0  0  0
   -6.6134   19.9455  -33.4703 H   0  0  0  0  0  0  0  0  0  0  0  0
   -4.0862   22.1432  -28.0590 H   0  0  0  0  0  0  0  0  0  0  0  0
   -4.6543   21.1917  -29.4905 H   0  0  0  0  0  0  0  0  0  0  0  0
   -2.4245   20.5077  -27.3368 H   0  0  0  0  0  0  0  0  0  0  0  0
   -0.1208   19.6072  -27.6669 H   0  0  0  0  0  0  0  0  0  0  0  0
    1.0758   19.9881  -29.8240 H   0  0  0  0  0  0  0  0  0  0  0  0
   -0.0346   21.2662  -31.6590 H   0  0  0  0  0  0  0  0  0  0  0  0
   -2.3391   22.1679  -31.3397 H   0  0  0  0  0  0  0  0  0  0  0  0
  1  2  1  0
  2  3  1  0
  3  4  1  0
  4  5  1  0
  5  6  2  0
  6  7  1  0
  7  8  2  0
  8  9  1  0
  9 10  2  0
 10 11  1  0
 11 12  2  0
 12 13  1  0
 13 14  2  0
 14 15  1  0
  8 16  1  0
 16 17  1  0
 17 18  1  0
 18 19  2  0
 19 20  1  0
 20 21  2  0
 21 22  1  0
 22 23  2  0
 16  5  1  0
 23 18  1  0
 14  9  1  0
  1 24  1  0
  1 25  1  0
  1 26  1  0
  2 27  1  0
  2 28  1  0
  3 29  1  0
  3 30  1  0
 10 31  1  0
 11 32  1  0
 12 33  1  0
 13 34  1  0
 17 35  1  0
 17 36  1  0
 19 37  1  0
 20 38  1  0
 21 39  1  0
 22 40  1  0
 23 41  1  0
M  END
>  <UniqueID>  (38) 
37

>  <SMILES>  (38) 
CCCSc1nnc(-c2ccccc2Cl)n1Cc1ccccc1

>  <Energy>  (38) 
76.09918777629723

>  <Genealogy>  (38) 
CCCSc1nnc(-c2ccccc2Cl)n1Cc1ccccc1 (3D coordinates assigned)
CCCSc1nnc(-c2ccccc2Cl)n1Cc1ccccc1 (optimized conformer: 76.09918777629723 kcal/mol)

>  <smiles>  (38) 
CCCSc1nnc(-c2ccccc2Cl)n1Cc1ccccc1

>  <score_type>  (38) 
oracle

>  <origin>  (38) 
adgpu

>  <m_score__min__energy>  (38) 
-8.0899999999999999

>  <m_primary>  (38) 
energy

$$$$
38:0
     RDKit          3D

 45 48  0  0  0  0  0  0  0  0999 V2000
   -2.2190   16.3820  -34.9680 C   0  0  0  0  0  0  0  0  0  0  0  0
   -2.2720   17.7260  -34.5030 O   0  0  0  0  0  0  0  0  0  0  0  0
   -3.4130   18.3310  -33.9530 C   0  0  0  0  0  0  0  0  0  0  0  0
   -3.4860   19.7120  -33.7050 C   0  0  0  0  0  0  0  0  0  0  0  0
   -4.6400   20.2720  -33.1520 C   0  0  0  0  0  0  0  0  0  0  0  0
   -5.7460   19.4640  -32.8180 C   0  0  0  0  0  0  0  0  0  0  0  0
   -6.9330   20.0000  -32.2450 C   0  0  0  0  0  0  0  0  0  0  0  0
   -7.0520   21.4230  -31.8480 C   0  0  0  0  0  0  0  0  0  0  0  0
   -8.2610   22.1150  -32.0020 C   0  0  0  0  0  0  0  0  0  0  0  0
   -8.3460   23.4470  -31.5950 C   0  0  0  0  0  0  0  0  0  0  0  0
   -7.2330   24.0760  -31.0350 C   0  0  0  0  0  0  0  0  0  0  0  0
   -6.0350   23.3580  -30.8850 C   0  0  0  0  0  0  0  0  0  0  0  0
   -4.8330   23.9870  -30.3000 C   0  0  0  0  0  0  0  0  0  0  0  0
   -4.3030   24.9790  -30.8720 O   0  0  0  0  0  0  0  0  0  0  0  0
   -4.2440   23.4470  -29.1030 N   0  0  0  0  0  0  0  0  0  0  0  0
   -3.2580   24.1330  -28.3130 C   0  0  0  0  0  0  0  0  0  0  0  0
   -3.5830   24.5460  -27.0110 C   0  0  0  0  0  0  0  0  0  0  0  0
   -2.6490   25.2340  -26.2320 C   0  0  0  0  0  0  0  0  0  0  0  0
   -1.3860   25.5290  -26.7510 C   0  0  0  0  0  0  0  0  0  0  0  0
   -1.0590   25.1450  -28.0540 C   0  0  0  0  0  0  0  0  0  0  0  0
   -1.9910   24.4560  -28.8370 C   0  0  0  0  0  0  0  0  0  0  0  0
   -5.9850   22.0580  -31.2880 N   0  0  0  0  0  0  0  0  0  0  0  0
   -8.0230   19.1480  -32.0000 C   0  0  0  0  0  0  0  0  0  0  0  0
   -7.9450   17.7860  -32.2880 C   0  0  0  0  0  0  0  0  0  0  0  0
   -6.7770   17.2480  -32.8250 C   0  0  0  0  0  0  0  0  0  0  0  0
   -5.6770   18.0720  -33.0960 C   0  0  0  0  0  0  0  0  0  0  0  0
   -4.5110   17.5230  -33.6510 C   0  0  0  0  0  0  0  0  0  0  0  0
   -2.1920   15.6971  -34.1076 H   0  0  0  0  0  0  0  0  0  0  0  0
   -3.1095   16.1696  -35.5779 H   0  0  0  0  0  0  0  0  0  0  0  0
   -1.3146   16.2404  -35.5779 H   0  0  0  0  0  0  0  0  0  0  0  0
   -2.6285   20.3567  -33.9480 H   0  0  0  0  0  0  0  0  0  0  0  0
   -4.6864   21.3567  -32.9749 H   0  0  0  0  0  0  0  0  0  0  0  0
   -9.1358   21.6122  -32.4401 H   0  0  0  0  0  0  0  0  0  0  0  0
   -9.2889   24.0006  -31.7153 H   0  0  0  0  0  0  0  0  0  0  0  0
   -7.2935   25.1262  -30.7135 H   0  0  0  0  0  0  0  0  0  0  0  0
   -4.4750   22.4620  -28.8410 H   0  0  0  0  0  0  0  0  0  0  0  0
   -4.5800   24.3264  -26.6013 H   0  0  0  0  0  0  0  0  0  0  0  0
   -2.9085   25.5437  -25.2089 H   0  0  0  0  0  0  0  0  0  0  0  0
   -0.6489   26.0636  -26.1338 H   0  0  0  0  0  0  0  0  0  0  0  0
   -0.0671   25.3849  -28.4647 H   0  0  0  0  0  0  0  0  0  0  0  0
   -1.7335   24.1652  -29.8661 H   0  0  0  0  0  0  0  0  0  0  0  0
   -8.9500   19.5609  -31.5754 H   0  0  0  0  0  0  0  0  0  0  0  0
   -8.8085   17.1338  -32.0906 H   0  0  0  0  0  0  0  0  0  0  0  0
   -6.7185   16.1703  -33.0373 H   0  0  0  0  0  0  0  0  0  0  0  0
   -4.4613   16.4424  -33.8507 H   0  0  0  0  0  0  0  0  0  0  0  0
  1  2  1  0
  2  3  1  0
  3  4  2  0
  4  5  1  0
  5  6  2  0
  6  7  1  0
  7  8  1  0
  8  9  2  0
  9 10  1  0
 10 11  2  0
 11 12  1  0
 12 13  1  0
 13 14  2  0
 13 15  1  0
 15 16  1  0
 16 17  2  0
 17 18  1  0
 18 19  2  0
 19 20  1  0
 20 21  2  0
 12 22  2  0
  7 23  2  0
 23 24  1  0
 24 25  2  0
 25 26  1  0
 26 27  2  0
 27  3  1  0
 26  6  1  0
 22  8  1  0
 21 16  1  0
  1 28  1  0
  1 29  1  0
  1 30  1  0
  4 31  1  0
  5 32  1  0
  9 33  1  0
 10 34  1  0
 11 35  1  0
 15 36  1  0
 17 37  1  0
 18 38  1  0
 19 39  1  0
 20 40  1  0
 21 41  1  0
 23 42  1  0
 24 43  1  0
 25 44  1  0
 27 45  1  0
M  END
>  <UniqueID>  (39) 
38

>  <SMILES>  (39) 
COc1ccc2c(-c3cccc(C(=O)Nc4ccccc4)n3)cccc2c1

>  <Energy>  (39) 
64.33326182686956

>  <Genealogy>  (39) 
COc1ccc2c(-c3cccc(C(=O)Nc4ccccc4)n3)cccc2c1 (3D coordinates assigned)
COc1ccc2c(-c3cccc(C(=O)Nc4ccccc4)n3)cccc2c1 (optimized conformer: 64.33326182686956 kcal/mol)

>  <smiles>  (39) 
COc1ccc2c(-c3cccc(C(=O)Nc4ccccc4)n3)cccc2c1

>  <score_type>  (39) 
oracle

>  <origin>  (39) 
adgpu

>  <m_score__min__energy>  (39) 
-9.5600000000000005

>  <m_primary>  (39) 
energy

$$$$
39:0
     RDKit          3D

 36 38  0  0  0  0  0  0  0  0999 V2000
   -7.1980   18.3040  -32.2630 C   0  0  0  0  0  0  0  0  0  0  0  0
   -8.4170   18.9450  -31.6080 C   0  0  0  0  0  0  0  0  0  0  0  0
   -8.3550   20.4440  -31.7180 C   0  0  0  0  0  0  0  0  0  0  0  0
   -9.5190   21.1830  -31.9780 C   0  0  0  0  0  0  0  0  0  0  0  0
   -9.4670   22.5770  -32.0460 C   0  0  0  0  0  0  0  0  0  0  0  0
   -8.2550   23.2450  -31.8470 C   0  0  0  0  0  0  0  0  0  0  0  0
   -7.0820   22.5220  -31.5770 C   0  0  0  0  0  0  0  0  0  0  0  0
   -5.8320   23.2070  -31.3560 N   0  0  0  0  0  0  0  0  0  0  0  0
   -5.8150   24.6740  -31.2250 C   0  0  0  0  0  0  0  0  0  0  0  0
   -4.7310   25.1050  -30.3470 N   0  0  0  0  0  0  0  0  0  0  0  0
   -3.4910   24.4000  -30.3080 C   0  0  0  0  0  0  0  0  0  0  0  0
   -2.5010   24.9060  -29.7160 O   0  0  0  0  0  0  0  0  0  0  0  0
   -3.4090   23.0720  -30.9330 C   0  0  0  0  0  0  0  0  0  0  0  0
   -2.2130   22.3500  -31.0190 C   0  0  0  0  0  0  0  0  0  0  0  0
   -2.1930   21.1110  -31.5940 N   0  0  0  0  0  0  0  0  0  0  0  0
   -0.9340   20.3600  -31.6700 C   0  0  0  0  0  0  0  0  0  0  0  0
   -3.3540   20.5640  -32.0730 C   0  0  0  0  0  0  0  0  0  0  0  0
   -3.3560   19.4160  -32.5950 O   0  0  0  0  0  0  0  0  0  0  0  0
   -4.5200   21.2530  -31.9900 N   0  0  0  0  0  0  0  0  0  0  0  0
   -4.5790   22.4910  -31.4320 C   0  0  0  0  0  0  0  0  0  0  0  0
   -7.1430   21.1200  -31.5040 C   0  0  0  0  0  0  0  0  0  0  0  0
   -6.5107   17.9426  -31.4839 H   0  0  0  0  0  0  0  0  0  0  0  0
   -7.5200   17.4586  -32.8888 H   0  0  0  0  0  0  0  0  0  0  0  0
   -6.6840   19.0485  -32.8888 H   0  0  0  0  0  0  0  0  0  0  0  0
   -9.3274   18.5838  -32.1087 H   0  0  0  0  0  0  0  0  0  0  0  0
   -8.4313   18.6695  -30.5432 H   0  0  0  0  0  0  0  0  0  0  0  0
  -10.4762   20.6624  -32.1289 H   0  0  0  0  0  0  0  0  0  0  0  0
  -10.3816   23.1507  -32.2566 H   0  0  0  0  0  0  0  0  0  0  0  0
   -8.2202   24.3431  -31.9023 H   0  0  0  0  0  0  0  0  0  0  0  0
   -5.6736   25.1230  -32.2192 H   0  0  0  0  0  0  0  0  0  0  0  0
   -6.7712   24.9996  -30.7895 H   0  0  0  0  0  0  0  0  0  0  0  0
   -1.2834   22.7830  -30.6211 H   0  0  0  0  0  0  0  0  0  0  0  0
   -0.5734   20.1449  -30.6533 H   0  0  0  0  0  0  0  0  0  0  0  0
   -1.1027   19.4148  -32.2068 H   0  0  0  0  0  0  0  0  0  0  0  0
   -0.1825   20.9575  -32.2068 H   0  0  0  0  0  0  0  0  0  0  0  0
   -6.2323   20.5464  -31.2770 H   0  0  0  0  0  0  0  0  0  0  0  0
  1  2  1  0
  2  3  1  0
  3  4  2  0
  4  5  1  0
  5  6  2  0
  6  7  1  0
  7  8  1  0
  8  9  1  0
  9 10  1  0
 10 11  1  0
 11 12  2  0
 11 13  1  0
 13 14  2  0
 14 15  1  0
 15 16  1  0
 15 17  1  0
 17 18  2  0
 17 19  1  0
 19 20  2  0
  7 21  2  0
 21  3  1  0
 20  8  1  0
 20 13  1  0
  1 22  1  0
  1 23  1  0
  1 24  1  0
  2 25  1  0
  2 26  1  0
  4 27  1  0
  5 28  1  0
  6 29  1  0
  9 30  1  0
  9 31  1  0
 14 32  1  0
 16 33  1  0
 16 34  1  0
 16 35  1  0
 21 36  1  0
M  CHG  1  10  -1
M  END
>  <UniqueID>  (40) 
39

>  <SMILES>  (40) 
CCc1cccc(N2C[N-]C(=O)c3cn(C)c(=O)nc32)c1

>  <Energy>  (40) 
44.07063833177113

>  <Genealogy>  (40) 
CCc1cccc(N2C[N-]C(=O)c3cn(C)c(=O)nc32)c1 (protonated)
CCc1cccc(N2C[N-]C(=O)c3cn(C)c(=O)nc32)c1 (3D coordinates assigned)
CCc1cccc(N2C[N-]C(=O)c3cn(C)c(=O)nc32)c1 (nonaromatic ring conformer: 44.07063833177113 kcal/mol)

>  <smiles>  (40) 
CCc1cccc(N2CNC(=O)c3cn(C)c(=O)nc32)c1

>  <score_type>  (40) 
oracle

>  <origin>  (40) 
adgpu

>  <m_score__min__energy>  (40) 
-8.7200000000000006

>  <m_primary>  (40) 
energy

$$$$
40:0
     RDKit          3D

 53 56  0  0  0  0  0  0  0  0999 V2000
   -6.6950   24.9410  -30.9230 O   0  0  0  0  0  0  0  0  0  0  0  0
   -6.0690   23.8940  -31.2370 C   0  0  0  0  0  0  0  0  0  0  0  0
   -4.6360   23.9400  -31.2780 N   0  0  0  0  0  0  0  0  0  0  0  0
   -3.7560   23.9500  -30.1430 C   0  0  0  0  0  0  0  0  0  0  0  0
   -2.4460   23.4500  -30.2210 C   0  0  0  0  0  0  0  0  0  0  0  0
   -1.6100   23.4830  -29.1010 C   0  0  0  0  0  0  0  0  0  0  0  0
   -2.0660   24.0290  -27.8870 C   0  0  0  0  0  0  0  0  0  0  0  0
   -1.1800   24.0610  -26.6950 C   0  0  0  0  0  0  0  0  0  0  0  0
   -0.0970   23.1710  -26.5870 C   0  0  0  0  0  0  0  0  0  0  0  0
    0.7360   23.2040  -25.4670 C   0  0  0  0  0  0  0  0  0  0  0  0
    0.5050   24.1270  -24.4470 C   0  0  0  0  0  0  0  0  0  0  0  0
   -0.5610   25.0370  -24.5410 C   0  0  0  0  0  0  0  0  0  0  0  0
   -0.8180   26.0350  -23.4270 C   0  0  0  0  0  0  0  0  0  0  0  0
   -0.2280   27.3790  -23.6550 N   0  0  0  0  0  0  0  0  0  0  0  0
    1.2450   27.3470  -23.7670 C   0  0  0  0  0  0  0  0  0  0  0  0
    1.8300   28.7780  -23.7540 C   0  0  0  0  0  0  0  0  0  0  0  0
    0.8560   29.8040  -24.1710 N   0  0  0  0  0  0  0  0  0  0  0  0
   -0.0140   29.3180  -25.2470 C   0  0  0  0  0  0  0  0  0  0  0  0
   -0.8340   28.0800  -24.8130 C   0  0  0  0  0  0  0  0  0  0  0  0
   -1.4100   24.9840  -25.6590 C   0  0  0  0  0  0  0  0  0  0  0  0
   -3.3710   24.5490  -27.8230 C   0  0  0  0  0  0  0  0  0  0  0  0
   -4.2040   24.5150  -28.9450 C   0  0  0  0  0  0  0  0  0  0  0  0
   -6.8250   22.6470  -31.5020 C   0  0  0  0  0  0  0  0  0  0  0  0
   -6.1880   21.5520  -32.1120 C   0  0  0  0  0  0  0  0  0  0  0  0
   -6.8940   20.3730  -32.3650 C   0  0  0  0  0  0  0  0  0  0  0  0
   -8.2460   20.2780  -32.0200 C   0  0  0  0  0  0  0  0  0  0  0  0
   -9.1300   18.7960  -32.3370 Cl  0  0  0  0  0  0  0  0  0  0  0  0
   -8.8930   21.3660  -31.4270 C   0  0  0  0  0  0  0  0  0  0  0  0
   -8.1890   22.5470  -31.1730 C   0  0  0  0  0  0  0  0  0  0  0  0
   -2.0759   23.0303  -31.1680 H   0  0  0  0  0  0  0  0  0  0  0  0
   -0.5890   23.0795  -29.1693 H   0  0  0  0  0  0  0  0  0  0  0  0
    0.0953   22.4441  -27.3899 H   0  0  0  0  0  0  0  0  0  0  0  0
    1.5773   22.4997  -25.3887 H   0  0  0  0  0  0  0  0  0  0  0  0
    1.1611   24.1424  -23.5642 H   0  0  0  0  0  0  0  0  0  0  0  0
   -1.9060   26.1520  -23.3150 H   0  0  0  0  0  0  0  0  0  0  0  0
   -0.3337   25.6297  -22.5264 H   0  0  0  0  0  0  0  0  0  0  0  0
   -0.4630   27.9320  -22.7960 H   0  0  0  0  0  0  0  0  0  0  0  0
    1.6585   26.7811  -22.9192 H   0  0  0  0  0  0  0  0  0  0  0  0
    1.5149   26.8654  -24.7184 H   0  0  0  0  0  0  0  0  0  0  0  0
    2.1669   29.0094  -22.7328 H   0  0  0  0  0  0  0  0  0  0  0  0
    2.6597   28.8002  -24.4758 H   0  0  0  0  0  0  0  0  0  0  0  0
    0.2640   30.0760  -23.3520 H   0  0  0  0  0  0  0  0  0  0  0  0
   -0.7084   30.1218  -25.5330 H   0  0  0  0  0  0  0  0  0  0  0  0
    0.6237   29.0240  -26.0937 H   0  0  0  0  0  0  0  0  0  0  0  0
   -1.8477   28.4064  -24.5376 H   0  0  0  0  0  0  0  0  0  0  0  0
   -0.8532   27.3768  -25.6586 H   0  0  0  0  0  0  0  0  0  0  0  0
   -2.2651   25.6728  -25.7250 H   0  0  0  0  0  0  0  0  0  0  0  0
   -3.7391   24.9858  -26.8829 H   0  0  0  0  0  0  0  0  0  0  0  0
   -5.2187   24.9355  -28.8851 H   0  0  0  0  0  0  0  0  0  0  0  0
   -5.1267   21.6240  -32.3920 H   0  0  0  0  0  0  0  0  0  0  0  0
   -6.3858   19.5187  -32.8360 H   0  0  0  0  0  0  0  0  0  0  0  0
   -9.9575   21.2929  -31.1598 H   0  0  0  0  0  0  0  0  0  0  0  0
   -8.7048   23.4029  -30.7132 H   0  0  0  0  0  0  0  0  0  0  0  0
  1  2  2  0
  2  3  1  0
  3  4  1  0
  4  5  2  0
  5  6  1  0
  6  7  2  0
  7  8  1  0
  8  9  2  0
  9 10  1  0
 10 11  2  0
 11 12  1  0
 12 13  1  0
 13 14  1  0
 14 15  1  0
 15 16  1  0
 16 17  1  0
 17 18  1  0
 18 19  1  0
 12 20  2  0
  7 21  1  0
 21 22  2  0
  2 23  1  0
 23 24  2  0
 24 25  1  0
 25 26  2  0
 26 27  1  0
 26 28  1  0
 28 29  2  0
 22  4  1  0
 29 23  1  0
 20  8  1  0
 19 14  1  0
  5 30  1  0
  6 31  1  0
  9 32  1  0
 10 33  1  0
 11 34  1  0
 13 35  1  0
 13 36  1  0
 14 37  1  0
 15 38  1  0
 15 39  1  0
 16 40  1  0
 16 41  1  0
 17 42  1  0
 18 43  1  0
 18 44  1  0
 19 45  1  0
 19 46  1  0
 20 47  1  0
 21 48  1  0
 22 49  1  0
 24 50  1  0
 25 51  1  0
 28 52  1  0
 29 53  1  0
M  CHG  2   3  -1  14   1
M  END
>  <UniqueID>  (41) 
40

>  <SMILES>  (41) 
O=C([N-]c1ccc(-c2cccc(C[NH+]3CCNCC3)c2)cc1)c1ccc(Cl)cc1

>  <Energy>  (41) 
79.33263516345893

>  <Genealogy>  (41) 
O=C([N-]c1ccc(-c2cccc(C[NH+]3CCNCC3)c2)cc1)c1ccc(Cl)cc1 (protonated)
O=C([N-]c1ccc(-c2cccc(C[NH+]3CCNCC3)c2)cc1)c1ccc(Cl)cc1 (3D coordinates assigned)
O=C([N-]c1ccc(-c2cccc(C[NH+]3CCNCC3)c2)cc1)c1ccc(Cl)cc1 (nonaromatic ring conformer: 79.33263516345893 kcal/mol)

>  <smiles>  (41) 
O=C(Nc1ccc(-c2cccc(CN3CCNCC3)c2)cc1)c1ccc(Cl)cc1

>  <score_type>  (41) 
oracle

>  <origin>  (41) 
adgpu

>  <m_score__min__energy>  (41) 
-12.09

>  <m_primary>  (41) 
energy

$$$$
41:0
     RDKit          3D

 29 29  0  0  0  0  0  0  0  0999 V2000
   -9.4050   22.7570  -31.9680 C   0  0  0  0  0  0  0  0  0  0  0  0
   -9.0280   21.5360  -31.1360 C   0  0  0  0  0  0  0  0  0  0  0  0
   -7.6320   21.1320  -31.4330 N   0  0  0  0  0  0  0  0  0  0  0  0
   -7.5190   19.7110  -31.8350 C   0  0  0  0  0  0  0  0  0  0  0  0
   -8.8430   19.0990  -32.3140 C   0  0  0  0  0  0  0  0  0  0  0  0
   -6.9510   22.0400  -32.3820 C   0  0  0  0  0  0  0  0  0  0  0  0
   -5.9160   22.8740  -31.6700 C   0  0  0  0  0  0  0  0  0  0  0  0
   -6.2920   24.1130  -31.1230 C   0  0  0  0  0  0  0  0  0  0  0  0
   -5.3480   24.9170  -30.4800 C   0  0  0  0  0  0  0  0  0  0  0  0
   -4.0200   24.4970  -30.3790 C   0  0  0  0  0  0  0  0  0  0  0  0
   -3.0840   25.2990  -29.7390 O   0  0  0  0  0  0  0  0  0  0  0  0
   -3.6340   23.2680  -30.9210 C   0  0  0  0  0  0  0  0  0  0  0  0
   -4.5730   22.4550  -31.5670 C   0  0  0  0  0  0  0  0  0  0  0  0
   -4.1610   21.2410  -32.1060 O   0  0  0  0  0  0  0  0  0  0  0  0
   -9.6626   23.5913  -31.2989 H   0  0  0  0  0  0  0  0  0  0  0  0
   -8.5540   23.0452  -32.6026 H   0  0  0  0  0  0  0  0  0  0  0  0
  -10.2704   22.5153  -32.6026 H   0  0  0  0  0  0  0  0  0  0  0  0
   -9.1168   21.7816  -30.0675 H   0  0  0  0  0  0  0  0  0  0  0  0
   -9.7053   20.7058  -31.3851 H   0  0  0  0  0  0  0  0  0  0  0  0
   -6.7867   19.6384  -32.6526 H   0  0  0  0  0  0  0  0  0  0  0  0
   -7.2082   19.1478  -30.9427 H   0  0  0  0  0  0  0  0  0  0  0  0
   -9.4529   18.8171  -31.4431 H   0  0  0  0  0  0  0  0  0  0  0  0
   -9.3892   19.8360  -32.9211 H   0  0  0  0  0  0  0  0  0  0  0  0
   -8.6355   18.2055  -32.9211 H   0  0  0  0  0  0  0  0  0  0  0  0
   -6.4585   21.4427  -33.1635 H   0  0  0  0  0  0  0  0  0  0  0  0
   -7.6993   22.7104  -32.8298 H   0  0  0  0  0  0  0  0  0  0  0  0
   -7.3357   24.4514  -31.2018 H   0  0  0  0  0  0  0  0  0  0  0  0
   -5.6515   25.8838  -30.0519 H   0  0  0  0  0  0  0  0  0  0  0  0
   -2.5878   22.9380  -30.8397 H   0  0  0  0  0  0  0  0  0  0  0  0
  1  2  1  0
  2  3  1  0
  3  4  1  0
  4  5  1  0
  3  6  1  0
  6  7  1  0
  7  8  2  0
  8  9  1  0
  9 10  2  0
 10 11  1  0
 10 12  1  0
 12 13  2  0
 13 14  1  0
 13  7  1  0
  1 15  1  0
  1 16  1  0
  1 17  1  0
  2 18  1  0
  2 19  1  0
  4 20  1  0
  4 21  1  0
  5 22  1  0
  5 23  1  0
  5 24  1  0
  6 25  1  0
  6 26  1  0
  8 27  1  0
  9 28  1  0
 12 29  1  0
M  CHG  2  11  -1  14  -1
M  END
>  <UniqueID>  (42) 
41

>  <SMILES>  (42) 
CCN(CC)Cc1ccc([O-])cc1[O-]

>  <Energy>  (42) 
28.24928338086682

>  <Genealogy>  (42) 
CCN(CC)Cc1ccc([O-])cc1[O-] (protonated)
CCN(CC)Cc1ccc([O-])cc1[O-] (3D coordinates assigned)
CCN(CC)Cc1ccc([O-])cc1[O-] (optimized conformer: 28.24928338086682 kcal/mol)

>  <smiles>  (42) 
CCN(CC)Cc1ccc(O)cc1O

>  <score_type>  (42) 
oracle

>  <origin>  (42) 
adgpu

>  <m_score__min__energy>  (42) 
-8.5

>  <m_primary>  (42) 
energy

$$$$
42:0
     RDKit          3D

 25 26  0  0  0  0  0  0  0  0999 V2000
   -3.8180   25.6750  -30.7820 O   0  0  0  0  0  0  0  0  0  0  0  0
   -4.9560   24.8770  -30.8090 C   0  0  0  0  0  0  0  0  0  0  0  0
   -4.9640   23.7130  -31.5850 C   0  0  0  0  0  0  0  0  0  0  0  0
   -6.1020   22.8870  -31.6190 C   0  0  0  0  0  0  0  0  0  0  0  0
   -6.1410   21.7010  -32.4310 N   0  0  0  0  0  0  0  0  0  0  0  0
   -7.0630   20.6150  -32.2400 C   0  0  0  0  0  0  0  0  0  0  0  0
   -8.4410   20.8480  -32.3680 C   0  0  0  0  0  0  0  0  0  0  0  0
   -9.3570   19.8110  -32.1590 C   0  0  0  0  0  0  0  0  0  0  0  0
   -8.9030   18.5370  -31.8030 C   0  0  0  0  0  0  0  0  0  0  0  0
   -9.7920   17.5340  -31.5990 F   0  0  0  0  0  0  0  0  0  0  0  0
   -7.5340   18.3010  -31.6500 C   0  0  0  0  0  0  0  0  0  0  0  0
   -6.6160   19.3350  -31.8590 C   0  0  0  0  0  0  0  0  0  0  0  0
   -7.2420   23.2660  -30.8970 C   0  0  0  0  0  0  0  0  0  0  0  0
   -7.2370   24.4280  -30.1210 C   0  0  0  0  0  0  0  0  0  0  0  0
   -6.0960   25.2370  -30.0700 C   0  0  0  0  0  0  0  0  0  0  0  0
   -6.1140   26.3900  -29.2860 O   0  0  0  0  0  0  0  0  0  0  0  0
   -4.0744   23.4419  -32.1725 H   0  0  0  0  0  0  0  0  0  0  0  0
   -5.4520   21.6240  -33.2140 H   0  0  0  0  0  0  0  0  0  0  0  0
   -8.8032   21.8519  -32.6342 H   0  0  0  0  0  0  0  0  0  0  0  0
  -10.4348   19.9980  -32.2748 H   0  0  0  0  0  0  0  0  0  0  0  0
   -7.1780   17.3001  -31.3647 H   0  0  0  0  0  0  0  0  0  0  0  0
   -5.5403   19.1478  -31.7253 H   0  0  0  0  0  0  0  0  0  0  0  0
   -8.1479   22.6437  -30.9416 H   0  0  0  0  0  0  0  0  0  0  0  0
   -8.1332   24.7080  -29.5480 H   0  0  0  0  0  0  0  0  0  0  0  0
   -5.3900   27.0940  -29.3500 H   0  0  0  0  0  0  0  0  0  0  0  0
  1  2  1  0
  2  3  2  0
  3  4  1  0
  4  5  1  0
  5  6  1  0
  6  7  2  0
  7  8  1  0
  8  9  2  0
  9 10  1  0
  9 11  1  0
 11 12  2  0
  4 13  2  0
 13 14  1  0
 14 15  2  0
 15 16  1  0
 15  2  1  0
 12  6  1  0
  3 17  1  0
  5 18  1  0
  7 19  1  0
  8 20  1  0
 11 21  1  0
 12 22  1  0
 13 23  1  0
 14 24  1  0
 16 25  1  0
M  CHG  1   1  -1
M  END
>  <UniqueID>  (43) 
42

>  <SMILES>  (43) 
[O-]c1cc(Nc2ccc(F)cc2)ccc1O

>  <Energy>  (43) 
31.426755614994963

>  <Genealogy>  (43) 
[O-]c1cc(Nc2ccc(F)cc2)ccc1O (protonated)
[O-]c1cc(Nc2ccc(F)cc2)ccc1O (3D coordinates assigned)
[O-]c1cc(Nc2ccc(F)cc2)ccc1O (optimized conformer: 31.426755614994963 kcal/mol)

>  <smiles>  (43) 
Oc1ccc(Nc2ccc(F)cc2)cc1O

>  <score_type>  (43) 
oracle

>  <origin>  (43) 
adgpu

>  <m_score__min__energy>  (43) 
-9.3800000000000008

>  <m_primary>  (43) 
energy

$$$$
43:0
     RDKit          3D

 34 35  0  0  0  0  0  0  0  0999 V2000
   -2.0460   21.1740  -34.6010 H   0  0  0  0  0  0  0  0  0  0  0  0
   -2.4700   20.5110  -33.9130 N   0  0  0  0  0  0  0  0  0  0  0  0
   -3.3900   20.8710  -33.0740 C   0  0  0  0  0  0  0  0  0  0  0  0
   -3.8630   22.1930  -33.0560 C   0  0  0  0  0  0  0  0  0  0  0  0
   -3.4443   22.9397  -33.7467 H   0  0  0  0  0  0  0  0  0  0  0  0
   -4.8750   22.5570  -32.1500 C   0  0  0  0  0  0  0  0  0  0  0  0
   -5.4050   23.8550  -32.0780 O   0  0  0  0  0  0  0  0  0  0  0  0
   -6.0950   24.4220  -30.9620 C   0  0  0  0  0  0  0  0  0  0  0  0
   -6.8977   25.0780  -31.3299 H   0  0  0  0  0  0  0  0  0  0  0  0
   -6.5147   23.6058  -30.3556 H   0  0  0  0  0  0  0  0  0  0  0  0
   -5.1400   25.2390  -30.0900 C   0  0  0  0  0  0  0  0  0  0  0  0
   -5.3521   26.3100  -30.2238 H   0  0  0  0  0  0  0  0  0  0  0  0
   -5.2848   24.9562  -29.0369 H   0  0  0  0  0  0  0  0  0  0  0  0
   -3.7540   24.9700  -30.4700 N   0  0  0  0  0  0  0  0  0  0  0  0
   -2.7920   24.5560  -29.0850 S   0  0  0  0  0  0  0  0  0  0  0  0
   -3.6310   24.6970  -27.8460 O   0  0  0  0  0  0  0  0  0  0  0  0
   -1.6080   25.4770  -28.9640 O   0  0  0  0  0  0  0  0  0  0  0  0
   -2.2500   22.8880  -29.2370 C   0  0  0  0  0  0  0  0  0  0  0  0
   -1.5080   22.4890  -30.3590 C   0  0  0  0  0  0  0  0  0  0  0  0
   -1.2830   23.2149  -31.1543 H   0  0  0  0  0  0  0  0  0  0  0  0
   -1.0540   21.1720  -30.4690 C   0  0  0  0  0  0  0  0  0  0  0  0
   -0.4816   20.8607  -31.3552 H   0  0  0  0  0  0  0  0  0  0  0  0
   -1.3260   20.2500  -29.4550 C   0  0  0  0  0  0  0  0  0  0  0  0
   -0.9657   19.2144  -29.5426 H   0  0  0  0  0  0  0  0  0  0  0  0
   -2.0560   20.6430  -28.3290 C   0  0  0  0  0  0  0  0  0  0  0  0
   -2.3790   19.4920  -27.0470 Cl  0  0  0  0  0  0  0  0  0  0  0  0
   -2.5210   21.9590  -28.2220 C   0  0  0  0  0  0  0  0  0  0  0  0
   -3.1009   22.2654  -27.3389 H   0  0  0  0  0  0  0  0  0  0  0  0
   -5.3700   21.5940  -31.2670 C   0  0  0  0  0  0  0  0  0  0  0  0
   -6.1517   21.8620  -30.5409 H   0  0  0  0  0  0  0  0  0  0  0  0
   -4.8710   20.2920  -31.3080 C   0  0  0  0  0  0  0  0  0  0  0  0
   -5.2609   19.5335  -30.6133 H   0  0  0  0  0  0  0  0  0  0  0  0
   -3.9040   19.9570  -32.2040 N   0  0  0  0  0  0  0  0  0  0  0  0
   -3.5550   18.9710  -32.2180 H   0  0  0  0  0  0  0  0  0  0  0  0
  1  2  1  0
  2  3  2  0
  3  4  1  0
  4  5  1  0
  4  6  2  0
  6  7  1  0
  7  8  1  0
  8  9  1  0
  8 10  1  0
  8 11  1  0
 11 12  1  0
 11 13  1  0
 11 14  1  0
 14 15  1  0
 15 16  2  0
 15 17  2  0
 15 18  1  0
 18 19  2  0
 19 20  1  0
 19 21  1  0
 21 22  1  0
 21 23  2  0
 23 24  1  0
 23 25  1  0
 25 26  1  0
 25 27  2  0
 27 28  1  0
  6 29  1  0
 29 30  1  0
 29 31  2  0
 31 32  1  0
 31 33  1  0
 33 34  1  0
 33  3  1  0
 27 18  1  0
M  CHG  1  14  -1
M  END
>  <UniqueID>  (44) 
43

>  <SMILES>  (44) 
[H]/N=c1\cc(OCC[N-]S(=O)(=O)c2cccc(Cl)c2)cc[nH]1

>  <Energy>  (44) 
29.91493426062249

>  <Genealogy>  (44) 
N=c1cc(OCC[N-]S(=O)(=O)c2cccc(Cl)c2)cc[nH]1 (protonated)
[H]/N=c1\cc(OCC[N-]S(=O)(=O)c2cccc(Cl)c2)cc[nH]1 (cis-trans isomerization)
[H]/N=c1\cc(OCC[N-]S(=O)(=O)c2cccc(Cl)c2)cc[nH]1 (3D coordinates assigned)
[H]/N=c1\cc(OCC[N-]S(=O)(=O)c2cccc(Cl)c2)cc[nH]1 (optimized conformer: 29.91493426062249 kcal/mol)

>  <smiles>  (44) 
N=c1cc(OCCNS(=O)(=O)c2cccc(Cl)c2)cc[nH]1

>  <score_type>  (44) 
oracle

>  <origin>  (44) 
adgpu

>  <m_score__min__energy>  (44) 
-9.6099999999999994

>  <m_primary>  (44) 
energy

$$$$
44:0
     RDKit          3D

 33 34  0  0  0  0  0  0  0  0999 V2000
   -3.8590   25.2890  -30.8310 N   0  0  0  0  0  0  0  0  0  0  0  0
   -5.3210   24.6730  -30.1450 S   0  0  0  0  0  0  0  0  0  0  0  0
   -5.0950   24.3400  -28.6970 O   0  0  0  0  0  0  0  0  0  0  0  0
   -6.3960   25.7190  -30.2390 O   0  0  0  0  0  0  0  0  0  0  0  0
   -5.8160   23.2260  -31.0190 C   0  0  0  0  0  0  0  0  0  0  0  0
   -7.1480   22.7940  -30.9720 C   0  0  0  0  0  0  0  0  0  0  0  0
   -7.5420   21.6510  -31.6740 C   0  0  0  0  0  0  0  0  0  0  0  0
   -6.6110   20.9360  -32.4490 C   0  0  0  0  0  0  0  0  0  0  0  0
   -6.9830   19.7440  -33.1600 N   0  0  0  0  0  0  0  0  0  0  0  0
   -7.1900   18.4670  -32.5350 C   0  0  0  0  0  0  0  0  0  0  0  0
   -7.3210   18.3770  -31.2840 O   0  0  0  0  0  0  0  0  0  0  0  0
   -7.2630   17.2280  -33.3750 C   0  0  0  0  0  0  0  0  0  0  0  0
   -5.9170   16.8540  -33.8380 N   0  0  0  0  0  0  0  0  0  0  0  0
   -5.3120   15.7490  -33.3010 C   0  0  0  0  0  0  0  0  0  0  0  0
   -4.0480   15.3460  -33.7350 C   0  0  0  0  0  0  0  0  0  0  0  0
   -3.4020   16.0740  -34.7310 C   0  0  0  0  0  0  0  0  0  0  0  0
   -4.0240   17.1910  -35.2830 C   0  0  0  0  0  0  0  0  0  0  0  0
   -5.2930   17.5710  -34.8300 C   0  0  0  0  0  0  0  0  0  0  0  0
   -5.8510   18.5770  -35.3460 O   0  0  0  0  0  0  0  0  0  0  0  0
   -5.2750   21.3650  -32.4790 C   0  0  0  0  0  0  0  0  0  0  0  0
   -4.8830   22.5090  -31.7770 C   0  0  0  0  0  0  0  0  0  0  0  0
   -4.0760   26.2390  -31.2080 H   0  0  0  0  0  0  0  0  0  0  0  0
   -7.8861   23.3560  -30.3809 H   0  0  0  0  0  0  0  0  0  0  0  0
   -8.5860   21.3088  -31.6200 H   0  0  0  0  0  0  0  0  0  0  0  0
   -7.1790   19.8220  -34.1830 H   0  0  0  0  0  0  0  0  0  0  0  0
   -7.6838   16.4065  -32.7767 H   0  0  0  0  0  0  0  0  0  0  0  0
   -7.9046   17.4205  -34.2476 H   0  0  0  0  0  0  0  0  0  0  0  0
   -5.8279   15.1726  -32.5189 H   0  0  0  0  0  0  0  0  0  0  0  0
   -3.5663   14.4609  -33.2940 H   0  0  0  0  0  0  0  0  0  0  0  0
   -2.4048   15.7681  -35.0802 H   0  0  0  0  0  0  0  0  0  0  0  0
   -3.5211   17.7715  -36.0705 H   0  0  0  0  0  0  0  0  0  0  0  0
   -4.5317   20.7977  -33.0584 H   0  0  0  0  0  0  0  0  0  0  0  0
   -3.8371   22.8469  -31.8206 H   0  0  0  0  0  0  0  0  0  0  0  0
  1  2  1  0
  2  3  2  0
  2  4  2  0
  2  5  1  0
  5  6  2  0
  6  7  1  0
  7  8  2  0
  8  9  1  0
  9 10  1  0
 10 11  2  0
 10 12  1  0
 12 13  1  0
 13 14  1  0
 14 15  2  0
 15 16  1  0
 16 17  2  0
 17 18  1  0
 18 19  2  0
  8 20  1  0
 20 21  2  0
 21  5  1  0
 18 13  1  0
  1 22  1  0
  6 23  1  0
  7 24  1  0
  9 25  1  0
 12 26  1  0
 12 27  1  0
 14 28  1  0
 15 29  1  0
 16 30  1  0
 17 31  1  0
 20 32  1  0
 21 33  1  0
M  CHG  1   1  -1
M  END
>  <UniqueID>  (45) 
44

>  <SMILES>  (45) 
[NH-]S(=O)(=O)c1ccc(NC(=O)Cn2ccccc2=O)cc1

>  <Energy>  (45) 
37.35730458613743

>  <Genealogy>  (45) 
[NH-]S(=O)(=O)c1ccc(NC(=O)Cn2ccccc2=O)cc1 (protonated)
[NH-]S(=O)(=O)c1ccc(NC(=O)Cn2ccccc2=O)cc1 (3D coordinates assigned)
[NH-]S(=O)(=O)c1ccc(NC(=O)Cn2ccccc2=O)cc1 (optimized conformer: 37.35730458613743 kcal/mol)

>  <smiles>  (45) 
NS(=O)(=O)c1ccc(NC(=O)Cn2ccccc2=O)cc1

>  <score_type>  (45) 
oracle

>  <origin>  (45) 
adgpu

>  <m_score__min__energy>  (45) 
-9.8300000000000001

>  <m_primary>  (45) 
energy

$$$$
45:0
     RDKit          3D

 29 30  0  0  0  0  0  0  0  0999 V2000
   -3.2710   19.5660  -33.5020 C   0  0  0  0  0  0  0  0  0  0  0  0
   -3.8280   20.7660  -32.9750 O   0  0  0  0  0  0  0  0  0  0  0  0
   -5.1700   20.9230  -32.5910 C   0  0  0  0  0  0  0  0  0  0  0  0
   -6.2130   20.2500  -33.2600 C   0  0  0  0  0  0  0  0  0  0  0  0
   -7.5420   20.4490  -32.8810 C   0  0  0  0  0  0  0  0  0  0  0  0
   -7.8500   21.3190  -31.8340 C   0  0  0  0  0  0  0  0  0  0  0  0
   -9.5220   21.5660  -31.3630 Cl  0  0  0  0  0  0  0  0  0  0  0  0
   -6.8270   21.9880  -31.1580 C   0  0  0  0  0  0  0  0  0  0  0  0
   -5.4830   21.7910  -31.5210 C   0  0  0  0  0  0  0  0  0  0  0  0
   -4.4170   22.5040  -30.7760 C   0  0  0  0  0  0  0  0  0  0  0  0
   -3.5210   21.8060  -29.9530 C   0  0  0  0  0  0  0  0  0  0  0  0
   -2.5290   22.4940  -29.2510 C   0  0  0  0  0  0  0  0  0  0  0  0
   -2.4440   23.8840  -29.3740 C   0  0  0  0  0  0  0  0  0  0  0  0
   -1.2060   24.7750  -28.5050 S   0  0  0  0  0  0  0  0  0  0  0  0
   -1.2410   26.4380  -28.9770 N   0  0  0  0  0  0  0  0  0  0  0  0
   -1.4570   24.6770  -27.0260 O   0  0  0  0  0  0  0  0  0  0  0  0
    0.1450   24.2010  -28.8260 O   0  0  0  0  0  0  0  0  0  0  0  0
   -3.3220   24.5490  -30.1700 N   0  0  0  0  0  0  0  0  0  0  0  0
   -4.2960   23.9010  -30.8620 C   0  0  0  0  0  0  0  0  0  0  0  0
   -2.9660   18.9089  -32.6742 H   0  0  0  0  0  0  0  0  0  0  0  0
   -4.0230   19.0529  -34.1194 H   0  0  0  0  0  0  0  0  0  0  0  0
   -2.3937   19.8092  -34.1194 H   0  0  0  0  0  0  0  0  0  0  0  0
   -5.9779   19.5632  -34.0865 H   0  0  0  0  0  0  0  0  0  0  0  0
   -8.3483   19.9188  -33.4089 H   0  0  0  0  0  0  0  0  0  0  0  0
   -7.0748   22.6745  -30.3350 H   0  0  0  0  0  0  0  0  0  0  0  0
   -3.6000   20.7128  -29.8602 H   0  0  0  0  0  0  0  0  0  0  0  0
   -1.8224   21.9483  -28.6084 H   0  0  0  0  0  0  0  0  0  0  0  0
   -0.8710   26.4870  -29.9520 H   0  0  0  0  0  0  0  0  0  0  0  0
   -4.9927   24.4731  -31.4923 H   0  0  0  0  0  0  0  0  0  0  0  0
  1  2  1  0
  2  3  1  0
  3  4  2  0
  4  5  1  0
  5  6  2  0
  6  7  1  0
  6  8  1  0
  8  9  2  0
  9 10  1  0
 10 11  2  0
 11 12  1  0
 12 13  2  0
 13 14  1  0
 14 15  1  0
 14 16  2  0
 14 17  2  0
 13 18  1  0
 18 19  2  0
  9  3  1  0
 19 10  1  0
  1 20  1  0
  1 21  1  0
  1 22  1  0
  4 23  1  0
  5 24  1  0
  8 25  1  0
 11 26  1  0
 12 27  1  0
 15 28  1  0
 19 29  1  0
M  CHG  1  15  -1
M  END
>  <UniqueID>  (46) 
45

>  <SMILES>  (46) 
COc1ccc(Cl)cc1-c1ccc(S([NH-])(=O)=O)nc1

>  <Energy>  (46) 
35.522391495028955

>  <Genealogy>  (46) 
COc1ccc(Cl)cc1-c1ccc(S([NH-])(=O)=O)nc1 (protonated)
COc1ccc(Cl)cc1-c1ccc(S([NH-])(=O)=O)nc1 (3D coordinates assigned)
COc1ccc(Cl)cc1-c1ccc(S([NH-])(=O)=O)nc1 (optimized conformer: 35.522391495028955 kcal/mol)

>  <smiles>  (46) 
COc1ccc(Cl)cc1-c1ccc(S(N)(=O)=O)nc1

>  <score_type>  (46) 
oracle

>  <origin>  (46) 
adgpu

>  <m_score__min__energy>  (46) 
-9.6099999999999994

>  <m_primary>  (46) 
energy

$$$$
46:0
     RDKit          3D

 39 41  0  0  1  0  0  0  0  0999 V2000
   -5.8560   25.3050  -29.0270 N   0  0  0  0  0  0  0  0  0  0  0  0
   -4.6530   24.3690  -29.8770 S   0  0  0  0  0  0  0  0  0  0  0  0
   -3.7430   23.6740  -28.9390 O   0  0  0  0  0  0  0  0  0  0  0  0
   -3.9100   25.2930  -30.7970 O   0  0  0  0  0  0  0  0  0  0  0  0
   -5.5680   23.2570  -30.8950 C   0  0  0  0  0  0  0  0  0  0  0  0
   -6.8210   23.6470  -31.3840 C   0  0  0  0  0  0  0  0  0  0  0  0
   -7.5160   22.7510  -32.1810 C   0  0  0  0  0  0  0  0  0  0  0  0
   -7.0120   21.5020  -32.5010 C   0  0  0  0  0  0  0  0  0  0  0  0
   -5.7660   21.1130  -32.0160 C   0  0  0  0  0  0  0  0  0  0  0  0
   -5.2000   19.8410  -32.3120 N   0  0  0  0  0  0  0  0  0  0  0  0
   -4.0610   19.7320  -32.8800 C   0  0  0  0  0  0  0  0  0  0  0  0
   -3.3140   20.8170  -33.2410 C   0  0  0  0  0  0  0  0  0  0  0  0
   -2.0890   20.6470  -33.8530 C   0  0  0  0  0  0  0  0  0  0  0  0
   -1.6610   19.3410  -34.0810 C   0  0  0  0  0  0  0  0  0  0  0  0
   -0.5250   19.1950  -34.6480 N   0  0  0  0  0  0  0  0  0  0  0  0
    0.2800   20.3210  -35.0360 C   0  0  0  0  0  0  0  0  0  0  0  0
    1.4590   20.4800  -34.3080 C   0  0  0  0  0  0  0  0  0  0  0  0
    2.2880   21.5520  -34.6320 C   0  0  0  0  0  0  0  0  0  0  0  0
    1.9470   22.4180  -35.6350 C   0  0  0  0  0  0  0  0  0  0  0  0
    3.0370   23.7490  -35.9920 Cl  0  0  0  0  0  0  0  0  0  0  0  0
    0.7620   22.2420  -36.3530 C   0  0  0  0  0  0  0  0  0  0  0  0
   -0.0850   21.1760  -36.0480 C   0  0  0  0  0  0  0  0  0  0  0  0
   -2.4190   18.2860  -33.7150 N   0  0  0  0  0  0  0  0  0  0  0  0
   -3.5980   18.4860  -33.1250 N   0  0  0  0  0  0  0  0  0  0  0  0
   -5.0590   22.0120  -31.2090 C   0  0  0  0  0  0  0  0  0  0  0  0
   -6.4600   24.6810  -28.4790 H   0  0  0  0  0  0  0  0  0  0  0  0
   -5.3890   25.9740  -28.3630 H   0  0  0  0  0  0  0  0  0  0  0  0
   -7.2410   24.6347  -31.1428 H   0  0  0  0  0  0  0  0  0  0  0  0
   -8.5018   23.0423  -32.5727 H   0  0  0  0  0  0  0  0  0  0  0  0
   -7.5942   20.8187  -33.1367 H   0  0  0  0  0  0  0  0  0  0  0  0
   -3.6908   21.8313  -33.0429 H   0  0  0  0  0  0  0  0  0  0  0  0
   -1.4740   21.5095  -34.1494 H   0  0  0  0  0  0  0  0  0  0  0  0
    1.7263   19.7803  -33.5024 H   0  0  0  0  0  0  0  0  0  0  0  0
    3.2252   21.7035  -34.0764 H   0  0  0  0  0  0  0  0  0  0  0  0
    0.4968   22.9431  -37.1581 H   0  0  0  0  0  0  0  0  0  0  0  0
   -1.0219   21.0237  -36.6039 H   0  0  0  0  0  0  0  0  0  0  0  0
   -2.0920   17.3070  -33.8880 H   0  0  0  0  0  0  0  0  0  0  0  0
   -4.1590   17.6250  -32.8550 H   0  0  0  0  0  0  0  0  0  0  0  0
   -4.0742   21.7199  -30.8154 H   0  0  0  0  0  0  0  0  0  0  0  0
  1  2  1  0
  2  3  2  0
  2  4  2  0
  2  5  1  0
  5  6  2  0
  6  7  1  0
  7  8  2  0
  8  9  1  0
  9 10  1  0
 10 11  2  0
 11 12  1  0
 12 13  2  0
 13 14  1  0
 14 15  2  0
 15 16  1  0
 16 17  2  0
 17 18  1  0
 18 19  2  0
 19 20  1  0
 19 21  1  0
 21 22  2  0
 14 23  1  0
 23 24  1  0
  9 25  2  0
 25  5  1  0
 24 11  1  0
 22 16  1  0
  1 26  1  0
  1 27  1  0
  6 28  1  0
  7 29  1  0
  8 30  1  0
 12 31  1  0
 13 32  1  0
 17 33  1  0
 18 34  1  0
 21 35  1  0
 22 36  1  0
 23 37  1  0
 24 38  1  0
 25 39  1  0
M  END
>  <smiles>  (47) 
NS(=O)(=O)c1cccc(N=c2ccc(=Nc3ccc(Cl)cc3)[nH][nH]2)c1

>  <score_type>  (47) 
oracle

>  <origin>  (47) 
adgpu

>  <m_score__min__energy>  (47) 
-9.6300000000000008

>  <m_primary>  (47) 
energy

$$$$
47:0
     RDKit          3D

 35 37  0  0  0  0  0  0  0  0999 V2000
   -6.4620   25.6960  -29.3790 C   0  0  0  0  0  0  0  0  0  0  0  0
   -6.3130   25.2960  -30.7380 O   0  0  0  0  0  0  0  0  0  0  0  0
   -6.3860   23.9690  -31.1920 C   0  0  0  0  0  0  0  0  0  0  0  0
   -7.5260   23.4730  -31.8510 C   0  0  0  0  0  0  0  0  0  0  0  0
   -7.5520   22.1640  -32.3360 C   0  0  0  0  0  0  0  0  0  0  0  0
   -6.4400   21.3220  -32.1790 C   0  0  0  0  0  0  0  0  0  0  0  0
   -6.4660   19.9320  -32.7040 C   0  0  0  0  0  0  0  0  0  0  0  0
   -5.7250   19.5870  -33.8500 C   0  0  0  0  0  0  0  0  0  0  0  0
   -5.7510   18.2790  -34.3430 C   0  0  0  0  0  0  0  0  0  0  0  0
   -6.5140   17.3020  -33.6990 C   0  0  0  0  0  0  0  0  0  0  0  0
   -7.2530   17.6320  -32.5610 C   0  0  0  0  0  0  0  0  0  0  0  0
   -7.2310   18.9390  -32.0640 C   0  0  0  0  0  0  0  0  0  0  0  0
   -5.3040   21.8130  -31.5140 C   0  0  0  0  0  0  0  0  0  0  0  0
   -5.2790   23.1190  -31.0030 C   0  0  0  0  0  0  0  0  0  0  0  0
   -4.0630   23.5930  -30.3120 C   0  0  0  0  0  0  0  0  0  0  0  0
   -3.5650   24.8360  -30.4720 N   0  0  0  0  0  0  0  0  0  0  0  0
   -2.4780   24.9220  -29.7180 N   0  0  0  0  0  0  0  0  0  0  0  0
   -2.3260   23.7260  -29.1200 C   0  0  0  0  0  0  0  0  0  0  0  0
   -1.0960   23.3880  -28.0920 S   0  0  0  0  0  0  0  0  0  0  0  0
   -3.2930   22.8590  -29.4790 N   0  0  0  0  0  0  0  0  0  0  0  0
   -3.4390   21.4590  -29.0800 C   0  0  0  0  0  0  0  0  0  0  0  0
   -6.1550   24.8718  -28.7184 H   0  0  0  0  0  0  0  0  0  0  0  0
   -5.8314   26.5761  -29.1846 H   0  0  0  0  0  0  0  0  0  0  0  0
   -7.5147   25.9490  -29.1846 H   0  0  0  0  0  0  0  0  0  0  0  0
   -8.4040   24.1219  -31.9852 H   0  0  0  0  0  0  0  0  0  0  0  0
   -8.4519   21.7893  -32.8456 H   0  0  0  0  0  0  0  0  0  0  0  0
   -5.1215   20.3516  -34.3610 H   0  0  0  0  0  0  0  0  0  0  0  0
   -5.1695   18.0187  -35.2397 H   0  0  0  0  0  0  0  0  0  0  0  0
   -6.5327   16.2733  -34.0881 H   0  0  0  0  0  0  0  0  0  0  0  0
   -7.8537   16.8622  -32.0544 H   0  0  0  0  0  0  0  0  0  0  0  0
   -7.8153   19.1926  -31.1672 H   0  0  0  0  0  0  0  0  0  0  0  0
   -4.4233   21.1652  -31.3926 H   0  0  0  0  0  0  0  0  0  0  0  0
   -3.4463   21.3894  -27.9822 H   0  0  0  0  0  0  0  0  0  0  0  0
   -4.3836   21.0606  -29.4789 H   0  0  0  0  0  0  0  0  0  0  0  0
   -2.5970   20.8743  -29.4789 H   0  0  0  0  0  0  0  0  0  0  0  0
  1  2  1  0
  2  3  1  0
  3  4  2  0
  4  5  1  0
  5  6  2  0
  6  7  1  0
  7  8  2  0
  8  9  1  0
  9 10  2  0
 10 11  1  0
 11 12  2  0
  6 13  1  0
 13 14  2  0
 14 15  1  0
 15 16  2  0
 16 17  1  0
 17 18  1  0
 18 19  2  0
 18 20  1  0
 20 21  1  0
 14  3  1  0
 20 15  1  0
 12  7  1  0
  1 22  1  0
  1 23  1  0
  1 24  1  0
  4 25  1  0
  5 26  1  0
  8 27  1  0
  9 28  1  0
 10 29  1  0
 11 30  1  0
 12 31  1  0
 13 32  1  0
 21 33  1  0
 21 34  1  0
 21 35  1  0
M  CHG  1  17  -1
M  END
>  <UniqueID>  (48) 
46

>  <SMILES>  (48) 
COc1ccc(-c2ccccc2)cc1-c1n[n-]c(=S)n1C

>  <Energy>  (48) 
83.7333442353401

>  <Genealogy>  (48) 
COc1ccc(-c2ccccc2)cc1-c1n[n-]c(=S)n1C (protonated)
COc1ccc(-c2ccccc2)cc1-c1n[n-]c(=S)n1C (3D coordinates assigned)
COc1ccc(-c2ccccc2)cc1-c1n[n-]c(=S)n1C (optimized conformer: 83.7333442353401 kcal/mol)

>  <smiles>  (48) 
COc1ccc(-c2ccccc2)cc1-c1n[nH]c(=S)n1C

>  <score_type>  (48) 
oracle

>  <origin>  (48) 
adgpu

>  <m_score__min__energy>  (48) 
-9.5199999999999996

>  <m_primary>  (48) 
energy

$$$$
48:0
     RDKit          3D

 35 37  0  0  0  0  0  0  0  0999 V2000
   -2.3620   20.4860  -27.6290 C   0  0  0  0  0  0  0  0  0  0  0  0
   -2.4390   21.8740  -28.1770 C   0  0  0  0  0  0  0  0  0  0  0  0
   -3.3270   22.3080  -29.5410 S   0  0  0  0  0  0  0  0  0  0  0  0
   -2.9250   23.9380  -29.5060 C   0  0  0  0  0  0  0  0  0  0  0  0
   -3.4880   24.9070  -30.3980 N   0  0  0  0  0  0  0  0  0  0  0  0
   -4.8880   25.1040  -30.6440 C   0  0  0  0  0  0  0  0  0  0  0  0
   -5.3610   26.2660  -30.5350 O   0  0  0  0  0  0  0  0  0  0  0  0
   -5.7840   23.9910  -31.0380 C   0  0  0  0  0  0  0  0  0  0  0  0
   -7.0160   23.8180  -30.3830 C   0  0  0  0  0  0  0  0  0  0  0  0
   -7.8580   22.7560  -30.7310 C   0  0  0  0  0  0  0  0  0  0  0  0
   -7.4840   21.8660  -31.7400 C   0  0  0  0  0  0  0  0  0  0  0  0
   -6.2710   22.0420  -32.4110 C   0  0  0  0  0  0  0  0  0  0  0  0
   -5.4260   23.1030  -32.0680 C   0  0  0  0  0  0  0  0  0  0  0  0
   -2.0580   24.1690  -28.4330 C   0  0  0  0  0  0  0  0  0  0  0  0
   -1.8010   23.0180  -27.6810 C   0  0  0  0  0  0  0  0  0  0  0  0
   -0.9010   23.0860  -26.5140 C   0  0  0  0  0  0  0  0  0  0  0  0
   -0.6030   22.0400  -25.8760 O   0  0  0  0  0  0  0  0  0  0  0  0
   -0.3460   24.3600  -26.1190 N   0  0  0  0  0  0  0  0  0  0  0  0
    0.5770   24.4150  -24.9820 C   0  0  0  0  0  0  0  0  0  0  0  0
   -0.8170   25.6230  -26.7180 C   0  0  0  0  0  0  0  0  0  0  0  0
   -1.3730   25.4290  -28.1020 C   0  0  0  0  0  0  0  0  0  0  0  0
   -1.2490   26.3430  -28.9600 O   0  0  0  0  0  0  0  0  0  0  0  0
   -2.3642   20.5252  -26.5297 H   0  0  0  0  0  0  0  0  0  0  0  0
   -3.2293   19.9058  -27.9769 H   0  0  0  0  0  0  0  0  0  0  0  0
   -1.4358   20.0053  -27.9769 H   0  0  0  0  0  0  0  0  0  0  0  0
   -7.3194   24.5209  -29.5932 H   0  0  0  0  0  0  0  0  0  0  0  0
   -8.8167   22.6219  -30.2086 H   0  0  0  0  0  0  0  0  0  0  0  0
   -8.1437   21.0271  -32.0064 H   0  0  0  0  0  0  0  0  0  0  0  0
   -5.9799   21.3449  -33.2106 H   0  0  0  0  0  0  0  0  0  0  0  0
   -4.4771   23.2433  -32.6065 H   0  0  0  0  0  0  0  0  0  0  0  0
    0.0047   24.3809  -24.0432 H   0  0  0  0  0  0  0  0  0  0  0  0
    1.2630   23.5561  -25.0247 H   0  0  0  0  0  0  0  0  0  0  0  0
    1.1561   25.3492  -25.0247 H   0  0  0  0  0  0  0  0  0  0  0  0
   -1.6046   26.0459  -26.0770 H   0  0  0  0  0  0  0  0  0  0  0  0
    0.0465   26.3000  -26.7954 H   0  0  0  0  0  0  0  0  0  0  0  0
  1  2  1  0
  2  3  1  0
  3  4  1  0
  4  5  1  0
  5  6  1  0
  6  7  2  0
  6  8  1  0
  8  9  2  0
  9 10  1  0
 10 11  2  0
 11 12  1  0
 12 13  2  0
  4 14  2  0
 14 15  1  0
 15 16  1  0
 16 17  2  0
 16 18  1  0
 18 19  1  0
 18 20  1  0
 20 21  1  0
 21 22  2  0
 15  2  2  0
 13  8  1  0
 21 14  1  0
  1 23  1  0
  1 24  1  0
  1 25  1  0
  9 26  1  0
 10 27  1  0
 11 28  1  0
 12 29  1  0
 13 30  1  0
 19 31  1  0
 19 32  1  0
 19 33  1  0
 20 34  1  0
 20 35  1  0
M  CHG  1   5  -1
M  END
>  <UniqueID>  (49) 
47

>  <SMILES>  (49) 
Cc1sc([N-]C(=O)c2ccccc2)c2c1C(=O)N(C)CC2=O

>  <Energy>  (49) 
73.41676922683376

>  <Genealogy>  (49) 
Cc1sc([N-]C(=O)c2ccccc2)c2c1C(=O)N(C)CC2=O (protonated)
Cc1sc([N-]C(=O)c2ccccc2)c2c1C(=O)N(C)CC2=O (3D coordinates assigned)
Cc1sc([N-]C(=O)c2ccccc2)c2c1C(=O)N(C)CC2=O (nonaromatic ring conformer: 73.41676922683376 kcal/mol)

>  <smiles>  (49) 
Cc1sc(NC(=O)c2ccccc2)c2c1C(=O)N(C)CC2=O

>  <score_type>  (49) 
oracle

>  <origin>  (49) 
adgpu

>  <m_score__min__energy>  (49) 
-9.9100000000000001

>  <m_primary>  (49) 
energy

$$$$
49:0
     RDKit          3D

 38 40  0  0  0  0  0  0  0  0999 V2000
   -3.7870   24.1440  -28.2480 O   0  0  0  0  0  0  0  0  0  0  0  0
   -3.2170   24.7330  -29.2050 C   0  0  0  0  0  0  0  0  0  0  0  0
   -3.9040   24.9340  -30.4450 N   0  0  0  0  0  0  0  0  0  0  0  0
   -4.9850   24.1500  -30.9730 C   0  0  0  0  0  0  0  0  0  0  0  0
   -6.3250   24.5510  -30.8190 C   0  0  0  0  0  0  0  0  0  0  0  0
   -7.3590   23.7910  -31.3740 C   0  0  0  0  0  0  0  0  0  0  0  0
   -7.0670   22.6250  -32.0840 C   0  0  0  0  0  0  0  0  0  0  0  0
   -5.7430   22.2030  -32.2200 C   0  0  0  0  0  0  0  0  0  0  0  0
   -4.7010   22.9400  -31.6460 C   0  0  0  0  0  0  0  0  0  0  0  0
   -3.3880   22.4700  -31.8020 O   0  0  0  0  0  0  0  0  0  0  0  0
   -2.6060   21.9120  -30.7790 C   0  0  0  0  0  0  0  0  0  0  0  0
   -3.2480   21.4000  -29.6450 C   0  0  0  0  0  0  0  0  0  0  0  0
   -2.5010   20.8370  -28.6040 C   0  0  0  0  0  0  0  0  0  0  0  0
   -1.1070   20.7940  -28.6860 C   0  0  0  0  0  0  0  0  0  0  0  0
   -0.4560   21.3200  -29.8070 C   0  0  0  0  0  0  0  0  0  0  0  0
   -1.2000   21.8830  -30.8480 C   0  0  0  0  0  0  0  0  0  0  0  0
   -1.9100   25.2990  -29.0350 N   0  0  0  0  0  0  0  0  0  0  0  0
   -1.0460   25.0210  -27.9210 C   0  0  0  0  0  0  0  0  0  0  0  0
    0.0820   24.2070  -28.1100 C   0  0  0  0  0  0  0  0  0  0  0  0
    0.9250   23.9040  -27.0370 C   0  0  0  0  0  0  0  0  0  0  0  0
    0.6410   24.3980  -25.7620 C   0  0  0  0  0  0  0  0  0  0  0  0
   -0.4920   25.1900  -25.5570 C   0  0  0  0  0  0  0  0  0  0  0  0
   -1.3380   25.4960  -26.6270 C   0  0  0  0  0  0  0  0  0  0  0  0
   -6.5604   25.4678  -30.2586 H   0  0  0  0  0  0  0  0  0  0  0  0
   -8.4039   24.1122  -31.2511 H   0  0  0  0  0  0  0  0  0  0  0  0
   -7.8802   22.0385  -32.5364 H   0  0  0  0  0  0  0  0  0  0  0  0
   -5.5174   21.2848  -32.7822 H   0  0  0  0  0  0  0  0  0  0  0  0
   -4.3448   21.4404  -29.5719 H   0  0  0  0  0  0  0  0  0  0  0  0
   -3.0121   20.4278  -27.7201 H   0  0  0  0  0  0  0  0  0  0  0  0
   -0.5214   20.3467  -27.8693 H   0  0  0  0  0  0  0  0  0  0  0  0
    0.6418   21.2906  -29.8693 H   0  0  0  0  0  0  0  0  0  0  0  0
   -0.6853   22.3047  -31.7239 H   0  0  0  0  0  0  0  0  0  0  0  0
   -1.6030   26.0140  -29.7330 H   0  0  0  0  0  0  0  0  0  0  0  0
    0.3040   23.8048  -29.1095 H   0  0  0  0  0  0  0  0  0  0  0  0
    1.8135   23.2755  -27.1971 H   0  0  0  0  0  0  0  0  0  0  0  0
    1.3086   24.1639  -24.9197 H   0  0  0  0  0  0  0  0  0  0  0  0
   -0.7187   25.5735  -24.5513 H   0  0  0  0  0  0  0  0  0  0  0  0
   -2.2350   26.1099  -26.4581 H   0  0  0  0  0  0  0  0  0  0  0  0
  1  2  2  0
  2  3  1  0
  3  4  1  0
  4  5  2  0
  5  6  1  0
  6  7  2  0
  7  8  1  0
  8  9  2  0
  9 10  1  0
 10 11  1  0
 11 12  2  0
 12 13  1  0
 13 14  2  0
 14 15  1  0
 15 16  2  0
  2 17  1  0
 17 18  1  0
 18 19  2  0
 19 20  1  0
 20 21  2  0
 21 22  1  0
 22 23  2  0
  9  4  1  0
 16 11  1  0
 23 18  1  0
  5 24  1  0
  6 25  1  0
  7 26  1  0
  8 27  1  0
 12 28  1  0
 13 29  1  0
 14 30  1  0
 15 31  1  0
 16 32  1  0
 17 33  1  0
 19 34  1  0
 20 35  1  0
 21 36  1  0
 22 37  1  0
 23 38  1  0
M  CHG  1   3  -1
M  END
>  <UniqueID>  (50) 
48

>  <SMILES>  (50) 
O=C([N-]c1ccccc1Oc1ccccc1)Nc1ccccc1

>  <Energy>  (50) 
55.05898551892653

>  <Genealogy>  (50) 
O=C([N-]c1ccccc1Oc1ccccc1)Nc1ccccc1 (protonated)
O=C([N-]c1ccccc1Oc1ccccc1)Nc1ccccc1 (3D coordinates assigned)
O=C([N-]c1ccccc1Oc1ccccc1)Nc1ccccc1 (optimized conformer: 55.05898551892653 kcal/mol)

>  <smiles>  (50) 
O=C(Nc1ccccc1)Nc1ccccc1Oc1ccccc1

>  <score_type>  (50) 
oracle

>  <origin>  (50) 
adgpu

>  <m_score__min__energy>  (50) 
-9.2599999999999998

>  <m_primary>  (50) 
energy

$$$$
