0:0
     RDKit          3D

 37 39  0  0  0  0  0  0  0  0999 V2000
   -5.1470   14.9860  -34.1740 C   0  0  0  0  0  0  0  0  0  0  0  0
   -6.0370   16.1930  -34.1320 C   0  0  0  0  0  0  0  0  0  0  0  0
   -7.2270   16.0740  -34.5310 O   0  0  0  0  0  0  0  0  0  0  0  0
   -5.5530   17.5090  -33.6360 C   0  0  0  0  0  0  0  0  0  0  0  0
   -6.1860   18.1260  -32.5410 C   0  0  0  0  0  0  0  0  0  0  0  0
   -5.7410   19.3620  -32.0640 C   0  0  0  0  0  0  0  0  0  0  0  0
   -4.6480   20.0050  -32.6600 C   0  0  0  0  0  0  0  0  0  0  0  0
   -4.2260   21.2870  -32.1640 N   0  0  0  0  0  0  0  0  0  0  0  0
   -5.0240   22.1090  -31.2940 C   0  0  0  0  0  0  0  0  0  0  0  0
   -6.2620   21.9000  -31.1830 O   0  0  0  0  0  0  0  0  0  0  0  0
   -4.4210   23.2300  -30.5520 C   0  0  0  0  0  0  0  0  0  0  0  0
   -3.7370   23.1580  -29.3550 C   0  0  0  0  0  0  0  0  0  0  0  0
   -3.3890   24.4700  -29.0870 C   0  0  0  0  0  0  0  0  0  0  0  0
   -2.6030   24.9740  -27.9340 C   0  0  0  0  0  0  0  0  0  0  0  0
   -2.8980   24.4920  -26.6450 C   0  0  0  0  0  0  0  0  0  0  0  0
   -2.1870   24.9510  -25.5340 C   0  0  0  0  0  0  0  0  0  0  0  0
   -1.1680   25.8900  -25.6930 C   0  0  0  0  0  0  0  0  0  0  0  0
   -0.8520   26.3670  -26.9670 C   0  0  0  0  0  0  0  0  0  0  0  0
   -1.5550   25.9110  -28.0880 C   0  0  0  0  0  0  0  0  0  0  0  0
   -1.1810   26.3760  -29.3430 O   0  0  0  0  0  0  0  0  0  0  0  0
   -3.8380   25.2620  -30.0830 N   0  0  0  0  0  0  0  0  0  0  0  0
   -4.4710   24.5090  -30.9690 N   0  0  0  0  0  0  0  0  0  0  0  0
   -4.0260   19.4060  -33.7680 C   0  0  0  0  0  0  0  0  0  0  0  0
   -4.4680   18.1700  -34.2460 C   0  0  0  0  0  0  0  0  0  0  0  0
   -4.9123   14.6676  -33.1476 H   0  0  0  0  0  0  0  0  0  0  0  0
   -5.6610   14.1697  -34.7026 H   0  0  0  0  0  0  0  0  0  0  0  0
   -4.2152   15.2357  -34.7026 H   0  0  0  0  0  0  0  0  0  0  0  0
   -7.0397   17.6304  -32.0556 H   0  0  0  0  0  0  0  0  0  0  0  0
   -6.2535   19.8343  -31.2129 H   0  0  0  0  0  0  0  0  0  0  0  0
   -3.3360   21.6850  -32.5380 H   0  0  0  0  0  0  0  0  0  0  0  0
   -3.5189   22.2636  -28.7530 H   0  0  0  0  0  0  0  0  0  0  0  0
   -3.6960   23.7468  -26.5114 H   0  0  0  0  0  0  0  0  0  0  0  0
   -2.4313   24.5710  -24.5310 H   0  0  0  0  0  0  0  0  0  0  0  0
   -0.6137   26.2546  -24.8156 H   0  0  0  0  0  0  0  0  0  0  0  0
   -0.0460   27.1053  -27.0901 H   0  0  0  0  0  0  0  0  0  0  0  0
   -3.1849   19.9138  -34.2627 H   0  0  0  0  0  0  0  0  0  0  0  0
   -3.9639   17.7078  -35.1075 H   0  0  0  0  0  0  0  0  0  0  0  0
  1  2  1  0
  2  3  2  0
  2  4  1  0
  4  5  2  0
  5  6  1  0
  6  7  2  0
  7  8  1  0
  8  9  1  0
  9 10  2  0
  9 11  1  0
 11 12  1  0
 12 13  2  0
 13 14  1  0
 14 15  2  0
 15 16  1  0
 16 17  2  0
 17 18  1  0
 18 19  2  0
 19 20  1  0
 13 21  1  0
 21 22  1  0
  7 23  1  0
 23 24  2  0
 24  4  1  0
 22 11  2  0
 19 14  1  0
  1 25  1  0
  1 26  1  0
  1 27  1  0
  5 28  1  0
  6 29  1  0
  8 30  1  0
 12 31  1  0
 15 32  1  0
 16 33  1  0
 17 34  1  0
 18 35  1  0
 23 36  1  0
 24 37  1  0
M  CHG  2  20  -1  21  -1
M  END
>  <UniqueID>  (1) 
1

>  <SMILES>  (1) 
CC(=O)c1ccc(NC(=O)c2cc(-c3ccccc3[O-])[n-]n2)cc1

>  <Energy>  (1) 
76.68268198514168

>  <Genealogy>  (1) 
CC(=O)c1ccc(NC(=O)c2cc(-c3ccccc3[O-])[n-]n2)cc1 (protonated)
CC(=O)c1ccc(NC(=O)c2cc(-c3ccccc3[O-])[n-]n2)cc1 (3D coordinates assigned)
CC(=O)c1ccc(NC(=O)c2cc(-c3ccccc3[O-])[n-]n2)cc1 (optimized conformer: 76.68268198514168 kcal/mol)

>  <smiles>  (1) 
CC(=O)c1ccc(NC(=O)c2cc(-c3ccccc3O)[nH]n2)cc1

>  <score_type>  (1) 
oracle

>  <origin>  (1) 
adgpu

>  <m_score__min__energy>  (1) 
-12.34

>  <m_primary>  (1) 
energy

$$$$
1:0
     RDKit          3D

 49 52  0  0  0  0  0  0  0  0999 V2000
   -6.4910   17.9510  -33.8350 C   0  0  0  0  0  0  0  0  0  0  0  0
   -6.3470   18.0680  -32.3730 N   0  0  0  0  0  0  0  0  0  0  0  0
   -7.6460   18.0890  -31.6740 C   0  0  0  0  0  0  0  0  0  0  0  0
   -8.4760   19.3340  -32.0190 C   0  0  0  0  0  0  0  0  0  0  0  0
   -7.6490   20.5910  -31.9870 C   0  0  0  0  0  0  0  0  0  0  0  0
   -8.2980   21.8340  -31.9690 C   0  0  0  0  0  0  0  0  0  0  0  0
   -7.5560   23.0160  -31.9670 C   0  0  0  0  0  0  0  0  0  0  0  0
   -6.1540   22.9710  -31.9850 C   0  0  0  0  0  0  0  0  0  0  0  0
   -5.3740   24.1690  -31.8740 N   0  0  0  0  0  0  0  0  0  0  0  0
   -4.5970   24.5210  -30.7210 C   0  0  0  0  0  0  0  0  0  0  0  0
   -4.0870   25.6680  -30.6520 O   0  0  0  0  0  0  0  0  0  0  0  0
   -4.3890   23.5950  -29.6450 N   0  0  0  0  0  0  0  0  0  0  0  0
   -3.1060   23.0910  -29.2450 C   0  0  0  0  0  0  0  0  0  0  0  0
   -2.8040   21.7310  -29.3790 C   0  0  0  0  0  0  0  0  0  0  0  0
   -1.6100   21.2260  -28.8740 C   0  0  0  0  0  0  0  0  0  0  0  0
   -0.6750   22.0740  -28.2780 C   0  0  0  0  0  0  0  0  0  0  0  0
    0.7530   21.3150  -27.5790 Cl  0  0  0  0  0  0  0  0  0  0  0  0
   -0.9180   23.4690  -28.2150 C   0  0  0  0  0  0  0  0  0  0  0  0
    0.3180   24.5840  -27.5840 S   0  0  0  0  0  0  0  0  0  0  0  0
   -0.0730   26.0040  -27.8860 O   0  0  0  0  0  0  0  0  0  0  0  0
    1.6460   24.3440  -28.2470 O   0  0  0  0  0  0  0  0  0  0  0  0
    0.4340   24.3640  -25.8090 C   0  0  0  0  0  0  0  0  0  0  0  0
   -0.7610   24.8630  -25.0110 C   0  0  0  0  0  0  0  0  0  0  0  0
   -0.5650   23.3710  -25.2370 C   0  0  0  0  0  0  0  0  0  0  0  0
   -2.1760   23.9620  -28.6560 C   0  0  0  0  0  0  0  0  0  0  0  0
   -2.5600   25.2940  -28.4780 O   0  0  0  0  0  0  0  0  0  0  0  0
   -5.5040   21.7350  -32.0580 C   0  0  0  0  0  0  0  0  0  0  0  0
   -6.2420   20.5400  -32.0570 C   0  0  0  0  0  0  0  0  0  0  0  0
   -5.5070   19.2200  -31.9920 C   0  0  0  0  0  0  0  0  0  0  0  0
   -7.3253   17.2731  -34.0682 H   0  0  0  0  0  0  0  0  0  0  0  0
   -6.6939   18.9433  -34.2640 H   0  0  0  0  0  0  0  0  0  0  0  0
   -5.5612   17.5492  -34.2640 H   0  0  0  0  0  0  0  0  0  0  0  0
   -8.2163   17.1934  -31.9613 H   0  0  0  0  0  0  0  0  0  0  0  0
   -7.4449   18.1089  -30.5927 H   0  0  0  0  0  0  0  0  0  0  0  0
   -8.8968   19.2116  -33.0279 H   0  0  0  0  0  0  0  0  0  0  0  0
   -9.2708   19.4315  -31.2648 H   0  0  0  0  0  0  0  0  0  0  0  0
   -9.3971   21.8776  -31.9564 H   0  0  0  0  0  0  0  0  0  0  0  0
   -8.0727   23.9870  -31.9512 H   0  0  0  0  0  0  0  0  0  0  0  0
   -3.5129   21.0592  -29.8852 H   0  0  0  0  0  0  0  0  0  0  0  0
   -1.4008   20.1484  -28.9451 H   0  0  0  0  0  0  0  0  0  0  0  0
    1.5223   24.5101  -25.7444 H   0  0  0  0  0  0  0  0  0  0  0  0
   -0.6130   25.2917  -24.0089 H   0  0  0  0  0  0  0  0  0  0  0  0
   -1.5767   25.5775  -25.1960 H   0  0  0  0  0  0  0  0  0  0  0  0
   -0.2756   22.7210  -24.3981 H   0  0  0  0  0  0  0  0  0  0  0  0
   -1.1806   22.5599  -25.6531 H   0  0  0  0  0  0  0  0  0  0  0  0
   -3.5120   25.6200  -28.5670 H   0  0  0  0  0  0  0  0  0  0  0  0
   -4.4062   21.6984  -32.1167 H   0  0  0  0  0  0  0  0  0  0  0  0
   -4.6455   19.2655  -32.6744 H   0  0  0  0  0  0  0  0  0  0  0  0
   -5.1985   19.0685  -30.9471 H   0  0  0  0  0  0  0  0  0  0  0  0
  1  2  1  0
  2  3  1  0
  3  4  1  0
  4  5  1  0
  5  6  2  0
  6  7  1  0
  7  8  2  0
  8  9  1  0
  9 10  1  0
 10 11  2  0
 10 12  1  0
 12 13  1  0
 13 14  2  0
 14 15  1  0
 15 16  2  0
 16 17  1  0
 16 18  1  0
 18 19  1  0
 19 20  2  0
 19 21  2  0
 19 22  1  0
 22 23  1  0
 23 24  1  0
 18 25  2  0
 25 26  1  0
  8 27  1  0
 27 28  2  0
 28 29  1  0
 29  2  1  0
 28  5  1  0
 25 13  1  0
 24 22  1  0
  1 30  1  0
  1 31  1  0
  1 32  1  0
  3 33  1  0
  3 34  1  0
  4 35  1  0
  4 36  1  0
  6 37  1  0
  7 38  1  0
 14 39  1  0
 15 40  1  0
 22 41  1  0
 23 42  1  0
 23 43  1  0
 24 44  1  0
 24 45  1  0
 26 46  1  0
 27 47  1  0
 29 48  1  0
 29 49  1  0
M  CHG  2   9  -1  12  -1
M  END
>  <UniqueID>  (2) 
2

>  <SMILES>  (2) 
CN1CCc2ccc([N-]C(=O)[N-]c3ccc(Cl)c(S(=O)(=O)C4CC4)c3O)cc2C1

>  <Energy>  (2) 
331.00139547965716

>  <Genealogy>  (2) 
CN1CCc2ccc([N-]C(=O)[N-]c3ccc(Cl)c(S(=O)(=O)C4CC4)c3O)cc2C1 (protonated)
CN1CCc2ccc([N-]C(=O)[N-]c3ccc(Cl)c(S(=O)(=O)C4CC4)c3O)cc2C1 (3D coordinates assigned)
CN1CCc2ccc([N-]C(=O)[N-]c3ccc(Cl)c(S(=O)(=O)C4CC4)c3O)cc2C1 (nonaromatic ring conformer: 331.00139547965716 kcal/mol)

>  <smiles>  (2) 
CN1CCc2ccc(NC(=O)Nc3ccc(Cl)c(S(=O)(=O)C4CC4)c3O)cc2C1

>  <score_type>  (2) 
oracle

>  <origin>  (2) 
adgpu

>  <m_score__min__energy>  (2) 
-13.279999999999999

>  <m_primary>  (2) 
energy

$$$$
2:0
     RDKit          3D

 66 69  0  0  0  0  0  0  0  0999 V2000
    0.0769   16.5938  -29.0549 H   0  0  0  0  0  0  0  0  0  0  0  0
    0.6770   16.8960  -28.1840 C   0  0  0  0  0  0  0  0  0  0  0  0
    1.4220   15.9070  -27.4520 C   0  0  0  0  0  0  0  0  0  0  0  0
    2.0210   15.1120  -26.8630 N   0  0  0  0  0  0  0  0  0  0  0  0
    0.7090   18.1800  -27.8130 C   0  0  0  0  0  0  0  0  0  0  0  0
    1.3285   18.4533  -26.9461 H   0  0  0  0  0  0  0  0  0  0  0  0
   -0.0430   19.2590  -28.5030 C   0  0  0  0  0  0  0  0  0  0  0  0
   -0.9630   20.0830  -27.8330 C   0  0  0  0  0  0  0  0  0  0  0  0
   -1.1449   19.9311  -26.7588 H   0  0  0  0  0  0  0  0  0  0  0  0
   -1.6530   21.0970  -28.5150 C   0  0  0  0  0  0  0  0  0  0  0  0
   -2.6010   21.9790  -27.7460 C   0  0  0  0  0  0  0  0  0  0  0  0
   -2.4441   21.8330  -26.6671 H   0  0  0  0  0  0  0  0  0  0  0  0
   -2.4139   23.0317  -28.0046 H   0  0  0  0  0  0  0  0  0  0  0  0
   -3.6375   21.7165  -28.0046 H   0  0  0  0  0  0  0  0  0  0  0  0
   -1.4640   21.2560  -29.9080 C   0  0  0  0  0  0  0  0  0  0  0  0
   -2.1700   22.2730  -30.6390 N   0  0  0  0  0  0  0  0  0  0  0  0
   -1.6760   23.1780  -30.8070 H   0  0  0  0  0  0  0  0  0  0  0  0
   -3.5260   22.1360  -31.1040 C   0  0  0  0  0  0  0  0  0  0  0  0
   -3.9900   20.8690  -31.4670 C   0  0  0  0  0  0  0  0  0  0  0  0
   -3.3230   19.9987  -31.3793 H   0  0  0  0  0  0  0  0  0  0  0  0
   -5.2950   20.6970  -31.9410 C   0  0  0  0  0  0  0  0  0  0  0  0
   -5.7800   19.3550  -32.3550 C   0  0  0  0  0  0  0  0  0  0  0  0
   -7.1530   19.0530  -32.3330 C   0  0  0  0  0  0  0  0  0  0  0  0
   -7.8763   19.8197  -32.0184 H   0  0  0  0  0  0  0  0  0  0  0  0
   -7.6040   17.7860  -32.7080 C   0  0  0  0  0  0  0  0  0  0  0  0
   -8.6799   17.5580  -32.6853 H   0  0  0  0  0  0  0  0  0  0  0  0
   -6.6930   16.8070  -33.1120 C   0  0  0  0  0  0  0  0  0  0  0  0
   -7.0549   15.8095  -33.4020 H   0  0  0  0  0  0  0  0  0  0  0  0
   -5.3180   17.0890  -33.1500 C   0  0  0  0  0  0  0  0  0  0  0  0
   -4.3750   16.0750  -33.5450 N   0  0  0  0  0  0  0  0  0  0  0  0
   -4.7970   14.6730  -33.6520 C   0  0  0  0  0  0  0  0  0  0  0  0
   -5.4952   14.4428  -32.8338 H   0  0  0  0  0  0  0  0  0  0  0  0
   -5.2871   14.5249  -34.6256 H   0  0  0  0  0  0  0  0  0  0  0  0
   -3.5860   13.7320  -33.5610 C   0  0  0  0  0  0  0  0  0  0  0  0
   -3.9197   12.7413  -33.2187 H   0  0  0  0  0  0  0  0  0  0  0  0
   -3.1201   13.6469  -34.5538 H   0  0  0  0  0  0  0  0  0  0  0  0
   -2.5950   14.2720  -32.6050 N   0  0  0  0  0  0  0  0  0  0  0  0
   -3.0810   14.4590  -31.6930 H   0  0  0  0  0  0  0  0  0  0  0  0
   -1.5430   13.2770  -32.3420 C   0  0  0  0  0  0  0  0  0  0  0  0
   -1.4155   13.1565  -31.2561 H   0  0  0  0  0  0  0  0  0  0  0  0
   -1.8307   12.3129  -32.7867 H   0  0  0  0  0  0  0  0  0  0  0  0
   -0.5964   13.6179  -32.7867 H   0  0  0  0  0  0  0  0  0  0  0  0
   -1.9970   15.5430  -33.0900 C   0  0  0  0  0  0  0  0  0  0  0  0
   -1.6422   16.1163  -32.2208 H   0  0  0  0  0  0  0  0  0  0  0  0
   -1.1770   15.2780  -33.7736 H   0  0  0  0  0  0  0  0  0  0  0  0
   -2.9890   16.4190  -33.8830 C   0  0  0  0  0  0  0  0  0  0  0  0
   -2.8104   17.4767  -33.6392 H   0  0  0  0  0  0  0  0  0  0  0  0
   -2.8342   16.2418  -34.9575 H   0  0  0  0  0  0  0  0  0  0  0  0
   -4.8690   18.3640  -32.7620 C   0  0  0  0  0  0  0  0  0  0  0  0
   -3.7923   18.5888  -32.7771 H   0  0  0  0  0  0  0  0  0  0  0  0
   -6.1310   21.8200  -32.0280 C   0  0  0  0  0  0  0  0  0  0  0  0
   -7.1599   21.7026  -32.3990 H   0  0  0  0  0  0  0  0  0  0  0  0
   -5.6850   23.0590  -31.6580 N   0  0  0  0  0  0  0  0  0  0  0  0
   -6.5990   24.2060  -31.7380 C   0  0  0  0  0  0  0  0  0  0  0  0
   -6.8624   24.5365  -30.7224 H   0  0  0  0  0  0  0  0  0  0  0  0
   -6.1072   25.0300  -32.2757 H   0  0  0  0  0  0  0  0  0  0  0  0
   -7.5120   23.9105  -32.2757 H   0  0  0  0  0  0  0  0  0  0  0  0
   -4.4090   23.2320  -31.1830 C   0  0  0  0  0  0  0  0  0  0  0  0
   -4.0310   24.3740  -30.7990 O   0  0  0  0  0  0  0  0  0  0  0  0
   -0.5460   20.4260  -30.5860 C   0  0  0  0  0  0  0  0  0  0  0  0
   -0.3190   20.5850  -32.0660 C   0  0  0  0  0  0  0  0  0  0  0  0
    0.5712   21.2085  -32.2355 H   0  0  0  0  0  0  0  0  0  0  0  0
   -0.1659   19.5957  -32.5218 H   0  0  0  0  0  0  0  0  0  0  0  0
   -1.1965   21.0669  -32.5218 H   0  0  0  0  0  0  0  0  0  0  0  0
    0.1520   19.4360  -29.8790 C   0  0  0  0  0  0  0  0  0  0  0  0
    0.8633   18.7887  -30.4130 H   0  0  0  0  0  0  0  0  0  0  0  0
  1  2  1  0
  2  3  1  0
  3  4  3  0
  2  5  2  0
  5  6  1  0
  5  7  1  0
  7  8  2  0
  8  9  1  0
  8 10  1  0
 10 11  1  0
 11 12  1  0
 11 13  1  0
 11 14  1  0
 10 15  2  0
 15 16  1  0
 16 17  1  0
 16 18  1  0
 18 19  2  0
 19 20  1  0
 19 21  1  0
 21 22  1  0
 22 23  2  0
 23 24  1  0
 23 25  1  0
 25 26  1  0
 25 27  2  0
 27 28  1  0
 27 29  1  0
 29 30  1  0
 30 31  1  0
 31 32  1  0
 31 33  1  0
 31 34  1  0
 34 35  1  0
 34 36  1  0
 34 37  1  0
 37 38  1  0
 37 39  1  0
 39 40  1  0
 39 41  1  0
 39 42  1  0
 37 43  1  0
 43 44  1  0
 43 45  1  0
 43 46  1  0
 46 47  1  0
 46 48  1  0
 29 49  2  0
 49 50  1  0
 21 51  2  0
 51 52  1  0
 51 53  1  0
 53 54  1  0
 54 55  1  0
 54 56  1  0
 54 57  1  0
 53 58  1  0
 58 59  2  0
 15 60  1  0
 60 61  1  0
 61 62  1  0
 61 63  1  0
 61 64  1  0
 60 65  2  0
 65 66  1  0
 65  7  1  0
 58 18  1  0
 49 22  1  0
 46 30  1  0
M  CHG  1  37   1
M  END
>  <UniqueID>  (3) 
3

>  <SMILES>  (3) 
Cc1cc(/C=C/C#N)cc(C)c1Nc1cc(-c2cccc(N3CC[NH+](C)CC3)c2)cn(C)c1=O

>  <Energy>  (3) 
94.82939243552018

>  <Genealogy>  (3) 
Cc1cc(C=CC#N)cc(C)c1Nc1cc(-c2cccc(N3CC[NH+](C)CC3)c2)cn(C)c1=O (protonated)
Cc1cc(/C=C/C#N)cc(C)c1Nc1cc(-c2cccc(N3CC[NH+](C)CC3)c2)cn(C)c1=O (cis-trans isomerization)
Cc1cc(/C=C/C#N)cc(C)c1Nc1cc(-c2cccc(N3CC[NH+](C)CC3)c2)cn(C)c1=O (3D coordinates assigned)
Cc1cc(/C=C/C#N)cc(C)c1Nc1cc(-c2cccc(N3CC[NH+](C)CC3)c2)cn(C)c1=O (nonaromatic ring conformer: 94.82939243552018 kcal/mol)

>  <smiles>  (3) 
Cc1cc(C=CC#N)cc(C)c1Nc1cc(-c2cccc(N3CCN(C)CC3)c2)cn(C)c1=O

>  <score_type>  (3) 
oracle

>  <origin>  (3) 
adgpu

>  <m_score__min__energy>  (3) 
-10.26

>  <m_primary>  (3) 
energy

$$$$
3:0
     RDKit          3D

 39 41  0  0  0  0  0  0  0  0999 V2000
   -3.7070   19.5593  -34.2586 H   0  0  0  0  0  0  0  0  0  0  0  0
   -2.9340   20.1400  -33.7340 C   0  0  0  0  0  0  0  0  0  0  0  0
   -3.1920   20.8320  -32.5920 N   0  0  0  0  0  0  0  0  0  0  0  0
   -2.0850   21.4640  -32.1410 C   0  0  0  0  0  0  0  0  0  0  0  0
   -2.0630   22.2370  -31.0960 N   0  0  0  0  0  0  0  0  0  0  0  0
   -3.1750   22.4410  -30.2150 C   0  0  0  0  0  0  0  0  0  0  0  0
   -3.0980   22.0200  -29.0300 O   0  0  0  0  0  0  0  0  0  0  0  0
   -4.4320   23.0640  -30.6880 C   0  0  0  0  0  0  0  0  0  0  0  0
   -5.5320   22.2520  -31.0170 C   0  0  0  0  0  0  0  0  0  0  0  0
   -5.4366   21.1576  -30.9610 H   0  0  0  0  0  0  0  0  0  0  0  0
   -6.7500   22.8230  -31.4160 C   0  0  0  0  0  0  0  0  0  0  0  0
   -8.1590   21.8000  -31.7210 S   0  0  0  0  0  0  0  0  0  0  0  0
   -8.5970   21.1700  -30.4280 O   0  0  0  0  0  0  0  0  0  0  0  0
   -9.2830   22.6770  -32.2020 O   0  0  0  0  0  0  0  0  0  0  0  0
   -7.8780   20.5500  -32.9170 N   0  0  0  0  0  0  0  0  0  0  0  0
   -8.6770   19.3300  -32.6900 C   0  0  0  0  0  0  0  0  0  0  0  0
   -9.6850   19.6282  -32.3661 H   0  0  0  0  0  0  0  0  0  0  0  0
   -8.6941   18.7711  -33.6373 H   0  0  0  0  0  0  0  0  0  0  0  0
   -8.0770   18.3990  -31.6230 C   0  0  0  0  0  0  0  0  0  0  0  0
   -8.4358   18.7250  -30.6356 H   0  0  0  0  0  0  0  0  0  0  0  0
   -8.3997   17.3766  -31.8690 H   0  0  0  0  0  0  0  0  0  0  0  0
   -6.5400   18.3940  -31.6040 C   0  0  0  0  0  0  0  0  0  0  0  0
   -6.1913   19.0443  -30.7882 H   0  0  0  0  0  0  0  0  0  0  0  0
   -6.2018   17.3581  -31.4536 H   0  0  0  0  0  0  0  0  0  0  0  0
   -5.9590   18.8980  -32.9210 C   0  0  0  0  0  0  0  0  0  0  0  0
   -4.8608   18.8918  -32.8580 H   0  0  0  0  0  0  0  0  0  0  0  0
   -6.2962   18.2382  -33.7340 H   0  0  0  0  0  0  0  0  0  0  0  0
   -6.4410   20.3290  -33.2100 C   0  0  0  0  0  0  0  0  0  0  0  0
   -5.8512   21.0241  -32.5944 H   0  0  0  0  0  0  0  0  0  0  0  0
   -6.3051   20.5000  -34.2881 H   0  0  0  0  0  0  0  0  0  0  0  0
   -6.8640   24.2180  -31.4820 C   0  0  0  0  0  0  0  0  0  0  0  0
   -7.8184   24.6745  -31.7834 H   0  0  0  0  0  0  0  0  0  0  0  0
   -5.7750   25.0320  -31.1680 C   0  0  0  0  0  0  0  0  0  0  0  0
   -5.8708   26.1257  -31.2369 H   0  0  0  0  0  0  0  0  0  0  0  0
   -4.5620   24.4630  -30.7660 C   0  0  0  0  0  0  0  0  0  0  0  0
   -3.4910   25.2960  -30.4560 O   0  0  0  0  0  0  0  0  0  0  0  0
   -0.7570   21.2020  -33.1320 S   0  0  0  0  0  0  0  0  0  0  0  0
   -1.6230   20.2190  -34.1910 C   0  0  0  0  0  0  0  0  0  0  0  0
   -1.2213   19.7254  -35.0882 H   0  0  0  0  0  0  0  0  0  0  0  0
  1  2  1  0
  2  3  1  0
  3  4  1  0
  4  5  2  0
  5  6  1  0
  6  7  2  0
  6  8  1  0
  8  9  2  0
  9 10  1  0
  9 11  1  0
 11 12  1  0
 12 13  2  0
 12 14  2  0
 12 15  1  0
 15 16  1  0
 16 17  1  0
 16 18  1  0
 16 19  1  0
 19 20  1  0
 19 21  1  0
 19 22  1  0
 22 23  1  0
 22 24  1  0
 22 25  1  0
 25 26  1  0
 25 27  1  0
 25 28  1  0
 28 29  1  0
 28 30  1  0
 11 31  2  0
 31 32  1  0
 31 33  1  0
 33 34  1  0
 33 35  2  0
 35 36  1  0
  4 37  1  0
 37 38  1  0
 38 39  1  0
 38  2  2  0
 35  8  1  0
 28 15  1  0
M  CHG  2   3  -1  36  -1
M  END
>  <UniqueID>  (4) 
4

>  <SMILES>  (4) 
O=C(/N=c1\[n-]ccs1)c1cc(S(=O)(=O)N2CCCCC2)ccc1[O-]

>  <Energy>  (4) 
84.82191684513923

>  <Genealogy>  (4) 
O=C(N=c1[n-]ccs1)c1cc(S(=O)(=O)N2CCCCC2)ccc1[O-] (protonated)
O=C(/N=c1\[n-]ccs1)c1cc(S(=O)(=O)N2CCCCC2)ccc1[O-] (cis-trans isomerization)
O=C(/N=c1\[n-]ccs1)c1cc(S(=O)(=O)N2CCCCC2)ccc1[O-] (3D coordinates assigned)
O=C(/N=c1\[n-]ccs1)c1cc(S(=O)(=O)N2CCCCC2)ccc1[O-] (nonaromatic ring conformer: 84.82191684513923 kcal/mol)

>  <smiles>  (4) 
O=C(N=c1[nH]ccs1)c1cc(S(=O)(=O)N2CCCCC2)ccc1O

>  <score_type>  (4) 
oracle

>  <origin>  (4) 
adgpu

>  <m_score__min__energy>  (4) 
-12.720000000000001

>  <m_primary>  (4) 
energy

$$$$
4:0
     RDKit          3D

 52 55  0  0  0  0  0  0  0  0999 V2000
   -1.4090   21.6070  -26.5590 C   0  0  0  0  0  0  0  0  0  0  0  0
   -1.9160   22.6120  -27.5600 C   0  0  0  0  0  0  0  0  0  0  0  0
   -3.1540   22.3690  -28.1750 C   0  0  0  0  0  0  0  0  0  0  0  0
   -3.6750   23.2630  -29.1040 C   0  0  0  0  0  0  0  0  0  0  0  0
   -2.9760   24.4200  -29.4430 C   0  0  0  0  0  0  0  0  0  0  0  0
   -3.5450   25.2900  -30.4290 N   0  0  0  0  0  0  0  0  0  0  0  0
   -4.9210   25.2700  -30.8240 C   0  0  0  0  0  0  0  0  0  0  0  0
   -5.7380   26.0800  -30.3110 O   0  0  0  0  0  0  0  0  0  0  0  0
   -5.3710   24.3910  -31.8590 N   0  0  0  0  0  0  0  0  0  0  0  0
   -6.2150   23.2440  -31.6840 C   0  0  0  0  0  0  0  0  0  0  0  0
   -7.3560   23.2810  -30.8670 C   0  0  0  0  0  0  0  0  0  0  0  0
   -8.1720   22.1540  -30.7450 C   0  0  0  0  0  0  0  0  0  0  0  0
   -7.8750   20.9810  -31.4540 C   0  0  0  0  0  0  0  0  0  0  0  0
   -6.7310   20.9370  -32.2750 C   0  0  0  0  0  0  0  0  0  0  0  0
   -5.9260   22.0790  -32.4040 C   0  0  0  0  0  0  0  0  0  0  0  0
   -6.4150   19.7120  -33.1040 C   0  0  0  0  0  0  0  0  0  0  0  0
   -7.0430   18.4830  -32.5790 N   0  0  0  0  0  0  0  0  0  0  0  0
   -6.3190   17.9500  -31.4110 C   0  0  0  0  0  0  0  0  0  0  0  0
   -8.4810   18.6820  -32.3140 C   0  0  0  0  0  0  0  0  0  0  0  0
   -8.7400   19.7640  -31.2550 C   0  0  0  0  0  0  0  0  0  0  0  0
   -1.7530   24.7130  -28.8010 C   0  0  0  0  0  0  0  0  0  0  0  0
   -1.1170   25.9400  -29.0060 O   0  0  0  0  0  0  0  0  0  0  0  0
   -1.1840   23.7810  -27.9010 C   0  0  0  0  0  0  0  0  0  0  0  0
    0.3980   24.1410  -27.1650 S   0  0  0  0  0  0  0  0  0  0  0  0
    1.2570   24.8960  -28.1410 O   0  0  0  0  0  0  0  0  0  0  0  0
    1.1210   22.8710  -26.8140 O   0  0  0  0  0  0  0  0  0  0  0  0
    0.1350   25.1680  -25.7200 C   0  0  0  0  0  0  0  0  0  0  0  0
   -1.3120   25.4100  -25.3220 C   0  0  0  0  0  0  0  0  0  0  0  0
   -0.4630   24.4220  -24.5390 C   0  0  0  0  0  0  0  0  0  0  0  0
   -1.5960   21.9777  -25.5404 H   0  0  0  0  0  0  0  0  0  0  0  0
   -1.9323   20.6502  -26.7028 H   0  0  0  0  0  0  0  0  0  0  0  0
   -0.3285   21.4592  -26.7028 H   0  0  0  0  0  0  0  0  0  0  0  0
   -3.7189   21.4605  -27.9191 H   0  0  0  0  0  0  0  0  0  0  0  0
   -4.6470   23.0552  -29.5752 H   0  0  0  0  0  0  0  0  0  0  0  0
   -7.6085   24.2016  -30.3205 H   0  0  0  0  0  0  0  0  0  0  0  0
   -9.0538   22.1867  -30.0882 H   0  0  0  0  0  0  0  0  0  0  0  0
   -5.0576   22.0585  -33.0789 H   0  0  0  0  0  0  0  0  0  0  0  0
   -6.7762   19.8798  -34.1294 H   0  0  0  0  0  0  0  0  0  0  0  0
   -5.3254   19.5647  -33.0717 H   0  0  0  0  0  0  0  0  0  0  0  0
   -6.8007   18.3046  -30.4879 H   0  0  0  0  0  0  0  0  0  0  0  0
   -6.3405   16.8505  -31.4367 H   0  0  0  0  0  0  0  0  0  0  0  0
   -5.2755   18.2971  -31.4367 H   0  0  0  0  0  0  0  0  0  0  0  0
   -8.9743   18.9801  -33.2509 H   0  0  0  0  0  0  0  0  0  0  0  0
   -8.8840   17.7339  -31.9285 H   0  0  0  0  0  0  0  0  0  0  0  0
   -9.7957   20.0679  -31.3113 H   0  0  0  0  0  0  0  0  0  0  0  0
   -8.4957   19.3360  -30.2716 H   0  0  0  0  0  0  0  0  0  0  0  0
   -0.1110   26.0480  -29.0040 H   0  0  0  0  0  0  0  0  0  0  0  0
    1.0026   25.8229  -25.8885 H   0  0  0  0  0  0  0  0  0  0  0  0
   -1.6042   26.3671  -24.8653 H   0  0  0  0  0  0  0  0  0  0  0  0
   -2.2802   25.3627  -25.8420 H   0  0  0  0  0  0  0  0  0  0  0  0
   -0.1409   24.6640  -23.5154 H   0  0  0  0  0  0  0  0  0  0  0  0
   -0.5624   23.3633  -24.2575 H   0  0  0  0  0  0  0  0  0  0  0  0
  1  2  1  0
  2  3  2  0
  3  4  1  0
  4  5  2  0
  5  6  1  0
  6  7  1  0
  7  8  2  0
  7  9  1  0
  9 10  1  0
 10 11  2  0
 11 12  1  0
 12 13  2  0
 13 14  1  0
 14 15  2  0
 14 16  1  0
 16 17  1  0
 17 18  1  0
 17 19  1  0
 19 20  1  0
  5 21  1  0
 21 22  1  0
 21 23  2  0
 23 24  1  0
 24 25  2  0
 24 26  2  0
 24 27  1  0
 27 28  1  0
 28 29  1  0
 23  2  1  0
 29 27  1  0
 15 10  1  0
 20 13  1  0
  1 30  1  0
  1 31  1  0
  1 32  1  0
  3 33  1  0
  4 34  1  0
 11 35  1  0
 12 36  1  0
 15 37  1  0
 16 38  1  0
 16 39  1  0
 18 40  1  0
 18 41  1  0
 18 42  1  0
 19 43  1  0
 19 44  1  0
 20 45  1  0
 20 46  1  0
 22 47  1  0
 27 48  1  0
 28 49  1  0
 28 50  1  0
 29 51  1  0
 29 52  1  0
M  CHG  2   6  -1   9  -1
M  END
>  <UniqueID>  (5) 
5

>  <SMILES>  (5) 
Cc1ccc([N-]C(=O)[N-]c2ccc3c(c2)CN(C)CC3)c(O)c1S(=O)(=O)C1CC1

>  <Energy>  (5) 
335.9719121391752

>  <Genealogy>  (5) 
Cc1ccc([N-]C(=O)[N-]c2ccc3c(c2)CN(C)CC3)c(O)c1S(=O)(=O)C1CC1 (protonated)
Cc1ccc([N-]C(=O)[N-]c2ccc3c(c2)CN(C)CC3)c(O)c1S(=O)(=O)C1CC1 (3D coordinates assigned)
Cc1ccc([N-]C(=O)[N-]c2ccc3c(c2)CN(C)CC3)c(O)c1S(=O)(=O)C1CC1 (nonaromatic ring conformer: 335.9719121391752 kcal/mol)

>  <smiles>  (5) 
Cc1ccc(NC(=O)Nc2ccc3c(c2)CN(C)CC3)c(O)c1S(=O)(=O)C1CC1

>  <score_type>  (5) 
oracle

>  <origin>  (5) 
adgpu

>  <m_score__min__energy>  (5) 
-13.75

>  <m_primary>  (5) 
energy

$$$$
5:0
     RDKit          3D

 45 47  0  0  0  0  0  0  0  0999 V2000
   -6.7880   24.8040  -30.0780 C   0  0  0  0  0  0  0  0  0  0  0  0
   -6.8780   23.5110  -30.8490 C   0  0  0  0  0  0  0  0  0  0  0  0
   -8.1530   23.0530  -31.2270 C   0  0  0  0  0  0  0  0  0  0  0  0
   -8.3030   21.8780  -31.9630 C   0  0  0  0  0  0  0  0  0  0  0  0
   -7.1830   21.1360  -32.3520 C   0  0  0  0  0  0  0  0  0  0  0  0
   -7.3730   19.9190  -33.0970 N   0  0  0  0  0  0  0  0  0  0  0  0
   -6.6800   18.3970  -32.6270 S   0  0  0  0  0  0  0  0  0  0  0  0
   -6.1260   18.5070  -31.2310 O   0  0  0  0  0  0  0  0  0  0  0  0
   -7.7120   17.3050  -32.6770 O   0  0  0  0  0  0  0  0  0  0  0  0
   -5.3960   17.9880  -33.7550 C   0  0  0  0  0  0  0  0  0  0  0  0
   -5.4250   17.0490  -34.7620 C   0  0  0  0  0  0  0  0  0  0  0  0
   -4.2340   17.0600  -35.3970 N   0  0  0  0  0  0  0  0  0  0  0  0
   -3.4920   17.9640  -34.8210 O   0  0  0  0  0  0  0  0  0  0  0  0
   -4.1380   18.5490  -33.8380 C   0  0  0  0  0  0  0  0  0  0  0  0
   -3.5580   19.6050  -32.9530 C   0  0  0  0  0  0  0  0  0  0  0  0
   -5.9020   21.6080  -32.0200 C   0  0  0  0  0  0  0  0  0  0  0  0
   -5.7310   22.7720  -31.2480 C   0  0  0  0  0  0  0  0  0  0  0  0
   -4.0620   23.2610  -30.8600 S   0  0  0  0  0  0  0  0  0  0  0  0
   -3.1660   22.7610  -31.9620 O   0  0  0  0  0  0  0  0  0  0  0  0
   -3.9340   24.7600  -30.8430 O   0  0  0  0  0  0  0  0  0  0  0  0
   -3.4710   22.6130  -29.3420 N   0  0  0  0  0  0  0  0  0  0  0  0
   -2.0350   22.8580  -29.1000 C   0  0  0  0  0  0  0  0  0  0  0  0
   -1.7920   24.1850  -28.3660 C   0  0  0  0  0  0  0  0  0  0  0  0
   -2.5280   24.2190  -27.1630 O   0  0  0  0  0  0  0  0  0  0  0  0
   -3.9080   24.2300  -27.4660 C   0  0  0  0  0  0  0  0  0  0  0  0
   -4.3300   22.9340  -28.1830 C   0  0  0  0  0  0  0  0  0  0  0  0
   -6.8029   24.5894  -28.9992 H   0  0  0  0  0  0  0  0  0  0  0  0
   -5.8517   25.3205  -30.3362 H   0  0  0  0  0  0  0  0  0  0  0  0
   -7.6437   25.4452  -30.3362 H   0  0  0  0  0  0  0  0  0  0  0  0
   -9.0441   23.6296  -30.9381 H   0  0  0  0  0  0  0  0  0  0  0  0
   -9.3099   21.5321  -32.2397 H   0  0  0  0  0  0  0  0  0  0  0  0
   -8.1080   19.8920  -33.8450 H   0  0  0  0  0  0  0  0  0  0  0  0
   -6.2771   16.3982  -35.0079 H   0  0  0  0  0  0  0  0  0  0  0  0
   -3.7113   19.3259  -31.9001 H   0  0  0  0  0  0  0  0  0  0  0  0
   -2.4807   19.7007  -33.1538 H   0  0  0  0  0  0  0  0  0  0  0  0
   -4.0552   20.5655  -33.1538 H   0  0  0  0  0  0  0  0  0  0  0  0
   -5.0164   21.0574  -32.3700 H   0  0  0  0  0  0  0  0  0  0  0  0
   -1.6327   22.0360  -28.4897 H   0  0  0  0  0  0  0  0  0  0  0  0
   -1.5311   22.9132  -30.0762 H   0  0  0  0  0  0  0  0  0  0  0  0
   -0.7202   24.2835  -28.1390 H   0  0  0  0  0  0  0  0  0  0  0  0
   -2.1179   25.0156  -29.0094 H   0  0  0  0  0  0  0  0  0  0  0  0
   -4.4800   24.3258  -26.5313 H   0  0  0  0  0  0  0  0  0  0  0  0
   -4.1117   25.0802  -28.1336 H   0  0  0  0  0  0  0  0  0  0  0  0
   -4.2765   22.1022  -27.4652 H   0  0  0  0  0  0  0  0  0  0  0  0
   -5.3523   23.0831  -28.5606 H   0  0  0  0  0  0  0  0  0  0  0  0
  1  2  1  0
  2  3  2  0
  3  4  1  0
  4  5  2  0
  5  6  1  0
  6  7  1  0
  7  8  2  0
  7  9  2  0
  7 10  1  0
 10 11  1  0
 11 12  2  0
 12 13  1  0
 13 14  1  0
 14 15  1  0
  5 16  1  0
 16 17  2  0
 17 18  1  0
 18 19  2  0
 18 20  2  0
 18 21  1  0
 21 22  1  0
 22 23  1  0
 23 24  1  0
 24 25  1  0
 25 26  1  0
 17  2  1  0
 26 21  1  0
 14 10  2  0
  1 27  1  0
  1 28  1  0
  1 29  1  0
  3 30  1  0
  4 31  1  0
  6 32  1  0
 11 33  1  0
 15 34  1  0
 15 35  1  0
 15 36  1  0
 16 37  1  0
 22 38  1  0
 22 39  1  0
 23 40  1  0
 23 41  1  0
 25 42  1  0
 25 43  1  0
 26 44  1  0
 26 45  1  0
M  END
>  <UniqueID>  (6) 
6

>  <SMILES>  (6) 
Cc1ccc(NS(=O)(=O)c2cnoc2C)cc1S(=O)(=O)N1CCOCC1

>  <Energy>  (6) 
87.15670499896893

>  <Genealogy>  (6) 
Cc1ccc(NS(=O)(=O)c2cnoc2C)cc1S(=O)(=O)N1CCOCC1 (3D coordinates assigned)
Cc1ccc(NS(=O)(=O)c2cnoc2C)cc1S(=O)(=O)N1CCOCC1 (nonaromatic ring conformer: 87.15670499896893 kcal/mol)

>  <smiles>  (6) 
Cc1ccc(NS(=O)(=O)c2cnoc2C)cc1S(=O)(=O)N1CCOCC1

>  <score_type>  (6) 
oracle

>  <origin>  (6) 
adgpu

>  <m_score__min__energy>  (6) 
-9.4000000000000004

>  <m_primary>  (6) 
energy

$$$$
6:0
     RDKit          3D

 47 50  0  0  1  0  0  0  0  0999 V2000
    1.7530   20.5710  -34.3270 C   0  0  0  0  0  0  0  0  0  0  0  0
    1.0580   19.9570  -33.2690 O   0  0  0  0  0  0  0  0  0  0  0  0
   -0.3270   19.9890  -33.1650 C   0  0  0  0  0  0  0  0  0  0  0  0
   -1.1040   19.1680  -33.9560 C   0  0  0  0  0  0  0  0  0  0  0  0
   -2.4750   19.2270  -33.8250 C   0  0  0  0  0  0  0  0  0  0  0  0
   -3.2490   18.4250  -34.5950 N   0  0  0  0  0  0  0  0  0  0  0  0
   -4.5880   18.4800  -34.4720 C   0  0  0  0  0  0  0  0  0  0  0  0
   -5.1940   19.3230  -33.5880 N   0  0  0  0  0  0  0  0  0  0  0  0
   -4.4090   20.1290  -32.8150 C   0  0  0  0  0  0  0  0  0  0  0  0
   -5.0450   20.9010  -32.0020 N   0  0  0  0  0  0  0  0  0  0  0  0
   -6.4870   20.8890  -31.9390 C   0  0  0  0  0  0  0  0  0  0  0  0
   -7.1250   19.6650  -31.7730 C   0  0  0  0  0  0  0  0  0  0  0  0
   -8.5010   19.6310  -31.7110 C   0  0  0  0  0  0  0  0  0  0  0  0
   -9.1760   18.3120  -31.5320 C   0  0  0  0  0  0  0  0  0  0  0  0
   -9.2340   20.8170  -31.8140 C   0  0  0  0  0  0  0  0  0  0  0  0
   -8.5670   22.0140  -31.9780 C   0  0  0  0  0  0  0  0  0  0  0  0
   -7.1810   22.0790  -32.0450 C   0  0  0  0  0  0  0  0  0  0  0  0
   -6.3360   23.6540  -32.2590 S   0  0  0  0  0  0  0  0  0  0  0  0
   -5.2310   23.8220  -30.8540 C   0  0  0  0  0  0  0  0  0  0  0  0
   -5.7950   24.3910  -29.7080 C   0  0  0  0  0  0  0  0  0  0  0  0
   -4.9880   24.5470  -28.5830 C   0  0  0  0  0  0  0  0  0  0  0  0
   -3.6700   24.1430  -28.6240 C   0  0  0  0  0  0  0  0  0  0  0  0
   -3.1100   23.5740  -29.7720 C   0  0  0  0  0  0  0  0  0  0  0  0
   -3.9170   23.4180  -30.8970 C   0  0  0  0  0  0  0  0  0  0  0  0
   -3.0330   20.1010  -32.9130 C   0  0  0  0  0  0  0  0  0  0  0  0
   -2.2850   20.9360  -32.1080 C   0  0  0  0  0  0  0  0  0  0  0  0
   -0.9000   20.8560  -32.2590 C   0  0  0  0  0  0  0  0  0  0  0  0
   -0.1590   21.7030  -31.4420 O   0  0  0  0  0  0  0  0  0  0  0  0
    2.5186   21.2474  -33.9191 H   0  0  0  0  0  0  0  0  0  0  0  0
    2.2365   19.7997  -34.9445 H   0  0  0  0  0  0  0  0  0  0  0  0
    1.0472   21.1459  -34.9445 H   0  0  0  0  0  0  0  0  0  0  0  0
   -0.6386   18.4799  -34.6770 H   0  0  0  0  0  0  0  0  0  0  0  0
   -2.8550   17.7570  -35.2910 H   0  0  0  0  0  0  0  0  0  0  0  0
   -5.2105   17.8272  -35.1016 H   0  0  0  0  0  0  0  0  0  0  0  0
   -6.5397   18.7371  -31.6923 H   0  0  0  0  0  0  0  0  0  0  0  0
   -9.2852   18.0987  -30.4584 H   0  0  0  0  0  0  0  0  0  0  0  0
  -10.1697   18.3417  -32.0028 H   0  0  0  0  0  0  0  0  0  0  0  0
   -8.5706   17.5234  -32.0028 H   0  0  0  0  0  0  0  0  0  0  0  0
  -10.3327   20.7963  -31.7648 H   0  0  0  0  0  0  0  0  0  0  0  0
   -9.1497   22.9435  -32.0580 H   0  0  0  0  0  0  0  0  0  0  0  0
   -6.8485   24.7073  -29.6950 H   0  0  0  0  0  0  0  0  0  0  0  0
   -5.4008   24.9909  -27.6651 H   0  0  0  0  0  0  0  0  0  0  0  0
   -3.0425   24.2718  -27.7297 H   0  0  0  0  0  0  0  0  0  0  0  0
   -2.0568   23.2569  -29.7866 H   0  0  0  0  0  0  0  0  0  0  0  0
   -3.5052   22.9738  -31.8152 H   0  0  0  0  0  0  0  0  0  0  0  0
   -2.7533   21.6245  -31.3892 H   0  0  0  0  0  0  0  0  0  0  0  0
    0.8630   21.5890  -31.5030 H   0  0  0  0  0  0  0  0  0  0  0  0
  1  2  1  0
  2  3  1  0
  3  4  2  0
  4  5  1  0
  5  6  1  0
  6  7  1  0
  7  8  2  0
  8  9  1  0
  9 10  2  0
 10 11  1  0
 11 12  2  0
 12 13  1  0
 13 14  1  0
 13 15  2  0
 15 16  1  0
 16 17  2  0
 17 18  1  0
 18 19  1  0
 19 20  2  0
 20 21  1  0
 21 22  2  0
 22 23  1  0
 23 24  2  0
  9 25  1  0
 25 26  1  0
 26 27  2  0
 27 28  1  0
 27  3  1  0
 25  5  2  0
 17 11  1  0
 24 19  1  0
  1 29  1  0
  1 30  1  0
  1 31  1  0
  4 32  1  0
  6 33  1  0
  7 34  1  0
 12 35  1  0
 14 36  1  0
 14 37  1  0
 14 38  1  0
 15 39  1  0
 16 40  1  0
 20 41  1  0
 21 42  1  0
 22 43  1  0
 23 44  1  0
 24 45  1  0
 26 46  1  0
 28 47  1  0
M  END
>  <smiles>  (7) 
COc1cc2[nH]cnc(=Nc3cc(C)ccc3Sc3ccccc3)c2cc1O

>  <score_type>  (7) 
oracle

>  <origin>  (7) 
adgpu

>  <m_score__min__energy>  (7) 
-8.9199999999999999

>  <m_primary>  (7) 
energy

$$$$
7:0
     RDKit          3D

 60 63  0  0  0  0  0  0  0  0999 V2000
   -4.6550   25.2610  -31.2190 O   0  0  0  0  0  0  0  0  0  0  0  0
   -4.8760   24.1800  -30.6110 C   0  0  0  0  0  0  0  0  0  0  0  0
   -4.2240   23.9460  -29.3530 N   0  0  0  0  0  0  0  0  0  0  0  0
   -2.9420   23.3200  -29.1950 C   0  0  0  0  0  0  0  0  0  0  0  0
   -2.6870   22.1110  -29.8480 C   0  0  0  0  0  0  0  0  0  0  0  0
   -1.4290   21.5080  -29.7470 C   0  0  0  0  0  0  0  0  0  0  0  0
   -0.4240   22.1020  -28.9790 C   0  0  0  0  0  0  0  0  0  0  0  0
   -0.6780   23.2990  -28.2950 C   0  0  0  0  0  0  0  0  0  0  0  0
    0.6010   24.0570  -27.3480 S   0  0  0  0  0  0  0  0  0  0  0  0
    1.6890   24.5120  -28.2800 O   0  0  0  0  0  0  0  0  0  0  0  0
    1.1790   23.0660  -26.3710 O   0  0  0  0  0  0  0  0  0  0  0  0
   -0.0480   25.4250  -26.4800 N   0  0  0  0  0  0  0  0  0  0  0  0
   -0.4670   26.4720  -27.4290 C   0  0  0  0  0  0  0  0  0  0  0  0
   -0.8370   27.7620  -26.6740 C   0  0  0  0  0  0  0  0  0  0  0  0
   -1.2290   27.4960  -25.2120 C   0  0  0  0  0  0  0  0  0  0  0  0
   -1.9990   26.1790  -25.0850 C   0  0  0  0  0  0  0  0  0  0  0  0
   -1.1890   24.9890  -25.6460 C   0  0  0  0  0  0  0  0  0  0  0  0
   -1.9410   23.8950  -28.3910 C   0  0  0  0  0  0  0  0  0  0  0  0
   -5.8360   23.2060  -31.1780 C   0  0  0  0  0  0  0  0  0  0  0  0
   -7.2150   23.3840  -30.9950 C   0  0  0  0  0  0  0  0  0  0  0  0
   -8.1230   22.4960  -31.5780 C   0  0  0  0  0  0  0  0  0  0  0  0
   -7.6660   21.4090  -32.3370 C   0  0  0  0  0  0  0  0  0  0  0  0
   -8.5850   20.5340  -32.9150 O   0  0  0  0  0  0  0  0  0  0  0  0
   -6.2820   21.2100  -32.5080 C   0  0  0  0  0  0  0  0  0  0  0  0
   -5.6450   19.8410  -33.4230 S   0  0  0  0  0  0  0  0  0  0  0  0
   -6.4630   19.6260  -34.6670 O   0  0  0  0  0  0  0  0  0  0  0  0
   -4.2360   20.1650  -33.8420 O   0  0  0  0  0  0  0  0  0  0  0  0
   -5.6700   18.4180  -32.4000 N   0  0  0  0  0  0  0  0  0  0  0  0
   -7.0000   17.7710  -32.3880 C   0  0  0  0  0  0  0  0  0  0  0  0
   -7.1270   16.6510  -33.4470 C   0  0  0  0  0  0  0  0  0  0  0  0
   -6.2550   16.8880  -34.5310 O   0  0  0  0  0  0  0  0  0  0  0  0
   -4.9070   16.7590  -34.1120 C   0  0  0  0  0  0  0  0  0  0  0  0
   -4.6130   17.4590  -32.7630 C   0  0  0  0  0  0  0  0  0  0  0  0
   -5.3790   22.1050  -31.9200 C   0  0  0  0  0  0  0  0  0  0  0  0
   -3.4783   21.6320  -30.4434 H   0  0  0  0  0  0  0  0  0  0  0  0
   -1.2301   20.5631  -30.2739 H   0  0  0  0  0  0  0  0  0  0  0  0
    0.5672   21.6299  -28.9111 H   0  0  0  0  0  0  0  0  0  0  0  0
    0.3589   26.6829  -28.1243 H   0  0  0  0  0  0  0  0  0  0  0  0
   -1.3476   26.1184  -27.9853 H   0  0  0  0  0  0  0  0  0  0  0  0
    0.0287   28.4404  -26.6893 H   0  0  0  0  0  0  0  0  0  0  0  0
   -1.7078   28.2064  -27.1781 H   0  0  0  0  0  0  0  0  0  0  0  0
   -0.3174   27.4410  -24.5988 H   0  0  0  0  0  0  0  0  0  0  0  0
   -1.8752   28.3162  -24.8661 H   0  0  0  0  0  0  0  0  0  0  0  0
   -2.2161   25.9936  -24.0227 H   0  0  0  0  0  0  0  0  0  0  0  0
   -2.9283   26.2668  -25.6669 H   0  0  0  0  0  0  0  0  0  0  0  0
   -0.8040   24.3956  -24.8036 H   0  0  0  0  0  0  0  0  0  0  0  0
   -1.8622   24.3965  -26.2830 H   0  0  0  0  0  0  0  0  0  0  0  0
   -2.1523   24.8196  -27.8338 H   0  0  0  0  0  0  0  0  0  0  0  0
   -7.5833   24.2258  -30.3903 H   0  0  0  0  0  0  0  0  0  0  0  0
   -9.2034   22.6507  -31.4406 H   0  0  0  0  0  0  0  0  0  0  0  0
   -8.3880   20.0550  -33.7860 H   0  0  0  0  0  0  0  0  0  0  0  0
   -7.1707   17.3354  -31.3925 H   0  0  0  0  0  0  0  0  0  0  0  0
   -7.7473   18.5418  -32.6276 H   0  0  0  0  0  0  0  0  0  0  0  0
   -6.8735   15.6859  -32.9840 H   0  0  0  0  0  0  0  0  0  0  0  0
   -8.1610   16.6346  -33.8220 H   0  0  0  0  0  0  0  0  0  0  0  0
   -4.6753   15.6888  -34.0073 H   0  0  0  0  0  0  0  0  0  0  0  0
   -4.2818   17.2471  -34.8742 H   0  0  0  0  0  0  0  0  0  0  0  0
   -4.5397   16.6954  -31.9747 H   0  0  0  0  0  0  0  0  0  0  0  0
   -3.6693   18.0147  -32.8659 H   0  0  0  0  0  0  0  0  0  0  0  0
   -4.2977   21.9432  -32.0411 H   0  0  0  0  0  0  0  0  0  0  0  0
  1  2  2  0
  2  3  1  0
  3  4  1  0
  4  5  2  0
  5  6  1  0
  6  7  2  0
  7  8  1  0
  8  9  1  0
  9 10  2  0
  9 11  2  0
  9 12  1  0
 12 13  1  0
 13 14  1  0
 14 15  1  0
 15 16  1  0
 16 17  1  0
  8 18  2  0
  2 19  1  0
 19 20  2  0
 20 21  1  0
 21 22  2  0
 22 23  1  0
 22 24  1  0
 24 25  1  0
 25 26  2  0
 25 27  2  0
 25 28  1  0
 28 29  1  0
 29 30  1  0
 30 31  1  0
 31 32  1  0
 32 33  1  0
 24 34  2  0
 18  4  1  0
 34 19  1  0
 17 12  1  0
 33 28  1  0
  5 35  1  0
  6 36  1  0
  7 37  1  0
 13 38  1  0
 13 39  1  0
 14 40  1  0
 14 41  1  0
 15 42  1  0
 15 43  1  0
 16 44  1  0
 16 45  1  0
 17 46  1  0
 17 47  1  0
 18 48  1  0
 20 49  1  0
 21 50  1  0
 23 51  1  0
 29 52  1  0
 29 53  1  0
 30 54  1  0
 30 55  1  0
 32 56  1  0
 32 57  1  0
 33 58  1  0
 33 59  1  0
 34 60  1  0
M  CHG  1   3  -1
M  END
>  <UniqueID>  (8) 
7

>  <SMILES>  (8) 
O=C([N-]c1cccc(S(=O)(=O)N2CCCCC2)c1)c1ccc(O)c(S(=O)(=O)N2CCOCC2)c1

>  <Energy>  (8) 
79.95318950778983

>  <Genealogy>  (8) 
O=C([N-]c1cccc(S(=O)(=O)N2CCCCC2)c1)c1ccc(O)c(S(=O)(=O)N2CCOCC2)c1 (protonated)
O=C([N-]c1cccc(S(=O)(=O)N2CCCCC2)c1)c1ccc(O)c(S(=O)(=O)N2CCOCC2)c1 (3D coordinates assigned)
O=C([N-]c1cccc(S(=O)(=O)N2CCCCC2)c1)c1ccc(O)c(S(=O)(=O)N2CCOCC2)c1 (nonaromatic ring conformer: 79.95318950778983 kcal/mol)

>  <smiles>  (8) 
O=C(Nc1cccc(S(=O)(=O)N2CCCCC2)c1)c1ccc(O)c(S(=O)(=O)N2CCOCC2)c1

>  <score_type>  (8) 
oracle

>  <origin>  (8) 
adgpu

>  <m_score__min__energy>  (8) 
-12.34

>  <m_primary>  (8) 
energy

$$$$
8:0
     RDKit          3D

 54 57  0  0  0  0  0  0  0  0999 V2000
   -4.2530   25.8840  -30.2060 O   0  0  0  0  0  0  0  0  0  0  0  0
   -4.3360   24.7670  -30.7810 C   0  0  0  0  0  0  0  0  0  0  0  0
   -3.3260   23.7710  -30.5780 N   0  0  0  0  0  0  0  0  0  0  0  0
   -2.6510   23.5090  -29.3400 C   0  0  0  0  0  0  0  0  0  0  0  0
   -2.7590   22.2360  -28.7810 C   0  0  0  0  0  0  0  0  0  0  0  0
   -2.1040   21.9280  -27.5910 C   0  0  0  0  0  0  0  0  0  0  0  0
   -1.3230   22.8870  -26.9400 C   0  0  0  0  0  0  0  0  0  0  0  0
   -0.5120   22.3850  -25.4610 Cl  0  0  0  0  0  0  0  0  0  0  0  0
   -1.1880   24.1830  -27.4960 C   0  0  0  0  0  0  0  0  0  0  0  0
   -0.1820   25.4400  -26.7390 S   0  0  0  0  0  0  0  0  0  0  0  0
   -0.7790   25.9220  -25.4470 O   0  0  0  0  0  0  0  0  0  0  0  0
   -0.0900   26.6190  -27.6680 O   0  0  0  0  0  0  0  0  0  0  0  0
    1.4640   24.7880  -26.4490 C   0  0  0  0  0  0  0  0  0  0  0  0
    2.4460   25.2790  -27.5240 C   0  0  0  0  0  0  0  0  0  0  0  0
    3.8650   24.7100  -27.2950 C   0  0  0  0  0  0  0  0  0  0  0  0
    4.0370   24.1360  -25.9490 N   0  0  0  0  0  0  0  0  0  0  0  0
    3.5040   25.0370  -24.9220 C   0  0  0  0  0  0  0  0  0  0  0  0
    1.9720   25.1660  -25.0440 C   0  0  0  0  0  0  0  0  0  0  0  0
   -1.8280   24.4720  -28.7210 C   0  0  0  0  0  0  0  0  0  0  0  0
   -1.6130   25.6980  -29.3430 O   0  0  0  0  0  0  0  0  0  0  0  0
   -5.4480   24.5120  -31.6450 N   0  0  0  0  0  0  0  0  0  0  0  0
   -6.2210   23.3030  -31.6940 C   0  0  0  0  0  0  0  0  0  0  0  0
   -7.5040   23.2320  -31.1320 C   0  0  0  0  0  0  0  0  0  0  0  0
   -8.2510   22.0600  -31.2310 C   0  0  0  0  0  0  0  0  0  0  0  0
   -7.7350   20.9410  -31.8890 C   0  0  0  0  0  0  0  0  0  0  0  0
   -8.7680   19.5210  -32.0030 Cl  0  0  0  0  0  0  0  0  0  0  0  0
   -6.4440   20.9910  -32.4630 C   0  0  0  0  0  0  0  0  0  0  0  0
   -5.7680   19.5870  -33.3170 S   0  0  0  0  0  0  0  0  0  0  0  0
   -4.3180   19.8250  -33.6360 O   0  0  0  0  0  0  0  0  0  0  0  0
   -6.4900   19.3680  -34.6180 O   0  0  0  0  0  0  0  0  0  0  0  0
   -5.9880   18.1320  -32.2940 C   0  0  0  0  0  0  0  0  0  0  0  0
   -6.7730   17.0180  -32.9630 C   0  0  0  0  0  0  0  0  0  0  0  0
   -5.2720   16.8760  -32.7620 C   0  0  0  0  0  0  0  0  0  0  0  0
   -5.7080   22.1940  -32.3840 C   0  0  0  0  0  0  0  0  0  0  0  0
   -4.4600   22.3020  -32.9910 O   0  0  0  0  0  0  0  0  0  0  0  0
   -3.3663   21.4690  -29.2839 H   0  0  0  0  0  0  0  0  0  0  0  0
   -2.2023   20.9209  -27.1596 H   0  0  0  0  0  0  0  0  0  0  0  0
    1.4035   23.6913  -26.5086 H   0  0  0  0  0  0  0  0  0  0  0  0
    2.0860   24.9557  -28.5119 H   0  0  0  0  0  0  0  0  0  0  0  0
    2.5001   26.3762  -27.4678 H   0  0  0  0  0  0  0  0  0  0  0  0
    4.0529   23.9228  -28.0399 H   0  0  0  0  0  0  0  0  0  0  0  0
    4.5769   25.5426  -27.3946 H   0  0  0  0  0  0  0  0  0  0  0  0
    5.0630   24.0180  -25.7770 H   0  0  0  0  0  0  0  0  0  0  0  0
    3.7537   24.6377  -23.9279 H   0  0  0  0  0  0  0  0  0  0  0  0
    3.9525   26.0319  -25.0604 H   0  0  0  0  0  0  0  0  0  0  0  0
    1.5009   24.4998  -24.3063 H   0  0  0  0  0  0  0  0  0  0  0  0
    1.7070   26.2179  -24.8617 H   0  0  0  0  0  0  0  0  0  0  0  0
   -7.9225   24.1056  -30.6107 H   0  0  0  0  0  0  0  0  0  0  0  0
   -9.2564   22.0155  -30.7869 H   0  0  0  0  0  0  0  0  0  0  0  0
   -6.0437   18.6740  -31.3384 H   0  0  0  0  0  0  0  0  0  0  0  0
   -7.4677   16.4030  -32.3720 H   0  0  0  0  0  0  0  0  0  0  0  0
   -7.4516   16.9547  -33.8265 H   0  0  0  0  0  0  0  0  0  0  0  0
   -4.8809   16.1587  -32.0254 H   0  0  0  0  0  0  0  0  0  0  0  0
   -4.4149   16.6678  -33.4193 H   0  0  0  0  0  0  0  0  0  0  0  0
  1  2  2  0
  2  3  1  0
  3  4  1  0
  4  5  2  0
  5  6  1  0
  6  7  2  0
  7  8  1  0
  7  9  1  0
  9 10  1  0
 10 11  2  0
 10 12  2  0
 10 13  1  0
 13 14  1  0
 14 15  1  0
 15 16  1  0
 16 17  1  0
 17 18  1  0
  9 19  2  0
 19 20  1  0
  2 21  1  0
 21 22  1  0
 22 23  2  0
 23 24  1  0
 24 25  2  0
 25 26  1  0
 25 27  1  0
 27 28  1  0
 28 29  2  0
 28 30  2  0
 28 31  1  0
 31 32  1  0
 32 33  1  0
 27 34  2  0
 34 35  1  0
 19  4  1  0
 34 22  1  0
 18 13  1  0
 33 31  1  0
  5 36  1  0
  6 37  1  0
 13 38  1  0
 14 39  1  0
 14 40  1  0
 15 41  1  0
 15 42  1  0
 16 43  1  0
 17 44  1  0
 17 45  1  0
 18 46  1  0
 18 47  1  0
 23 48  1  0
 24 49  1  0
 31 50  1  0
 32 51  1  0
 32 52  1  0
 33 53  1  0
 33 54  1  0
M  CHG  4   3  -1  20  -1  21  -1  35  -1
M  END
>  <UniqueID>  (9) 
8

>  <SMILES>  (9) 
O=C([N-]c1ccc(Cl)c(S(=O)(=O)C2CCNCC2)c1[O-])[N-]c1ccc(Cl)c(S(=O)(=O)C2CC2)c1[O-]

>  <Energy>  (9) 
336.8475642270711

>  <Genealogy>  (9) 
O=C([N-]c1ccc(Cl)c(S(=O)(=O)C2CCNCC2)c1[O-])[N-]c1ccc(Cl)c(S(=O)(=O)C2CC2)c1[O-] (protonated)
O=C([N-]c1ccc(Cl)c(S(=O)(=O)C2CCNCC2)c1[O-])[N-]c1ccc(Cl)c(S(=O)(=O)C2CC2)c1[O-] (3D coordinates assigned)
O=C([N-]c1ccc(Cl)c(S(=O)(=O)C2CCNCC2)c1[O-])[N-]c1ccc(Cl)c(S(=O)(=O)C2CC2)c1[O-] (nonaromatic ring conformer: 336.8475642270711 kcal/mol)

>  <smiles>  (9) 
O=C(Nc1ccc(Cl)c(S(=O)(=O)C2CCNCC2)c1O)Nc1ccc(Cl)c(S(=O)(=O)C2CC2)c1O

>  <score_type>  (9) 
oracle

>  <origin>  (9) 
adgpu

>  <m_score__min__energy>  (9) 
-17.809999999999999

>  <m_primary>  (9) 
energy

$$$$
9:0
     RDKit          3D

 55 58  0  0  0  0  0  0  0  0999 V2000
   -4.2180   22.5080  -27.5810 O   0  0  0  0  0  0  0  0  0  0  0  0
   -4.1030   23.5100  -28.3390 C   0  0  0  0  0  0  0  0  0  0  0  0
   -3.2290   24.5840  -27.9580 N   0  0  0  0  0  0  0  0  0  0  0  0
   -2.2090   24.4430  -26.9550 C   0  0  0  0  0  0  0  0  0  0  0  0
   -2.1190   25.4140  -25.9450 C   0  0  0  0  0  0  0  0  0  0  0  0
   -1.1590   25.3040  -24.9380 C   0  0  0  0  0  0  0  0  0  0  0  0
   -0.2660   24.2320  -24.9360 C   0  0  0  0  0  0  0  0  0  0  0  0
   -0.3250   23.2710  -25.9470 C   0  0  0  0  0  0  0  0  0  0  0  0
   -1.2850   23.3680  -26.9700 C   0  0  0  0  0  0  0  0  0  0  0  0
   -1.2740   22.4060  -28.0420 N   0  0  0  0  0  0  0  0  0  0  0  0
   -0.8870   22.8330  -29.3930 C   0  0  0  0  0  0  0  0  0  0  0  0
   -1.5290   21.9370  -30.4770 C   0  0  0  0  0  0  0  0  0  0  0  0
   -2.3400   20.9100  -29.9370 O   0  0  0  0  0  0  0  0  0  0  0  0
   -1.5930   20.1580  -29.0050 C   0  0  0  0  0  0  0  0  0  0  0  0
   -1.3800   20.9760  -27.7290 C   0  0  0  0  0  0  0  0  0  0  0  0
   -4.9230   23.5830  -29.5760 C   0  0  0  0  0  0  0  0  0  0  0  0
   -5.8350   22.5460  -29.8550 C   0  0  0  0  0  0  0  0  0  0  0  0
   -6.6230   22.5740  -31.0130 C   0  0  0  0  0  0  0  0  0  0  0  0
   -7.7700   21.2710  -31.3100 S   0  0  0  0  0  0  0  0  0  0  0  0
   -8.3790   21.4760  -32.6700 O   0  0  0  0  0  0  0  0  0  0  0  0
   -8.8650   21.3030  -30.2780 O   0  0  0  0  0  0  0  0  0  0  0  0
   -6.9200   19.7400  -31.2500 N   0  0  0  0  0  0  0  0  0  0  0  0
   -7.5980   18.7010  -32.0570 C   0  0  0  0  0  0  0  0  0  0  0  0
   -6.9360   18.4830  -33.4280 C   0  0  0  0  0  0  0  0  0  0  0  0
   -6.4090   19.6980  -33.9120 O   0  0  0  0  0  0  0  0  0  0  0  0
   -5.2950   20.0960  -33.1310 C   0  0  0  0  0  0  0  0  0  0  0  0
   -5.4990   19.8930  -31.6090 C   0  0  0  0  0  0  0  0  0  0  0  0
   -6.5020   23.6430  -31.9070 C   0  0  0  0  0  0  0  0  0  0  0  0
   -5.5940   24.6700  -31.6520 C   0  0  0  0  0  0  0  0  0  0  0  0
   -4.7990   24.6450  -30.5020 C   0  0  0  0  0  0  0  0  0  0  0  0
   -3.8800   25.6690  -30.3090 O   0  0  0  0  0  0  0  0  0  0  0  0
   -3.4940   25.5520  -28.2490 H   0  0  0  0  0  0  0  0  0  0  0  0
   -2.8112   26.2689  -25.9474 H   0  0  0  0  0  0  0  0  0  0  0  0
   -1.1063   26.0639  -24.1444 H   0  0  0  0  0  0  0  0  0  0  0  0
    0.4851   24.1439  -24.1372 H   0  0  0  0  0  0  0  0  0  0  0  0
    0.3853   22.4311  -25.9433 H   0  0  0  0  0  0  0  0  0  0  0  0
   -1.2154   23.8714  -29.5473 H   0  0  0  0  0  0  0  0  0  0  0  0
    0.2064   22.7505  -29.4807 H   0  0  0  0  0  0  0  0  0  0  0  0
   -2.1504   22.5675  -31.1300 H   0  0  0  0  0  0  0  0  0  0  0  0
   -0.7109   21.4532  -31.0307 H   0  0  0  0  0  0  0  0  0  0  0  0
   -2.1385   19.2348  -28.7599 H   0  0  0  0  0  0  0  0  0  0  0  0
   -0.6154   19.9065  -29.4421 H   0  0  0  0  0  0  0  0  0  0  0  0
   -2.2318   20.8167  -27.0514 H   0  0  0  0  0  0  0  0  0  0  0  0
   -0.4455   20.6482  -27.2503 H   0  0  0  0  0  0  0  0  0  0  0  0
   -5.9296   21.7033  -29.1544 H   0  0  0  0  0  0  0  0  0  0  0  0
   -7.5736   17.7525  -31.5004 H   0  0  0  0  0  0  0  0  0  0  0  0
   -8.6279   19.0425  -32.2377 H   0  0  0  0  0  0  0  0  0  0  0  0
   -6.1231   17.7489  -33.3265 H   0  0  0  0  0  0  0  0  0  0  0  0
   -7.6909   18.1112  -34.1365 H   0  0  0  0  0  0  0  0  0  0  0  0
   -4.4213   19.5067  -33.4462 H   0  0  0  0  0  0  0  0  0  0  0  0
   -5.1547   21.1744  -33.2961 H   0  0  0  0  0  0  0  0  0  0  0  0
   -4.9561   18.9886  -31.2970 H   0  0  0  0  0  0  0  0  0  0  0  0
   -5.1172   20.7882  -31.0963 H   0  0  0  0  0  0  0  0  0  0  0  0
   -7.1246   23.6735  -32.8133 H   0  0  0  0  0  0  0  0  0  0  0  0
   -5.5024   25.5061  -32.3609 H   0  0  0  0  0  0  0  0  0  0  0  0
  1  2  2  0
  2  3  1  0
  3  4  1  0
  4  5  2  0
  5  6  1  0
  6  7  2  0
  7  8  1  0
  8  9  2  0
  9 10  1  0
 10 11  1  0
 11 12  1  0
 12 13  1  0
 13 14  1  0
 14 15  1  0
  2 16  1  0
 16 17  2  0
 17 18  1  0
 18 19  1  0
 19 20  2  0
 19 21  2  0
 19 22  1  0
 22 23  1  0
 23 24  1  0
 24 25  1  0
 25 26  1  0
 26 27  1  0
 18 28  2  0
 28 29  1  0
 29 30  2  0
 30 31  1  0
  9  4  1  0
 15 10  1  0
 30 16  1  0
 27 22  1  0
  3 32  1  0
  5 33  1  0
  6 34  1  0
  7 35  1  0
  8 36  1  0
 11 37  1  0
 11 38  1  0
 12 39  1  0
 12 40  1  0
 14 41  1  0
 14 42  1  0
 15 43  1  0
 15 44  1  0
 17 45  1  0
 23 46  1  0
 23 47  1  0
 24 48  1  0
 24 49  1  0
 26 50  1  0
 26 51  1  0
 27 52  1  0
 27 53  1  0
 28 54  1  0
 29 55  1  0
M  CHG  1  31  -1
M  END
>  <UniqueID>  (10) 
9

>  <SMILES>  (10) 
O=C(Nc1ccccc1N1CCOCC1)c1cc(S(=O)(=O)N2CCOCC2)ccc1[O-]

>  <Energy>  (10) 
86.39851255170524

>  <Genealogy>  (10) 
O=C(Nc1ccccc1N1CCOCC1)c1cc(S(=O)(=O)N2CCOCC2)ccc1[O-] (protonated)
O=C(Nc1ccccc1N1CCOCC1)c1cc(S(=O)(=O)N2CCOCC2)ccc1[O-] (3D coordinates assigned)
O=C(Nc1ccccc1N1CCOCC1)c1cc(S(=O)(=O)N2CCOCC2)ccc1[O-] (nonaromatic ring conformer: 86.39851255170524 kcal/mol)

>  <smiles>  (10) 
O=C(Nc1ccccc1N1CCOCC1)c1cc(S(=O)(=O)N2CCOCC2)ccc1O

>  <score_type>  (10) 
oracle

>  <origin>  (10) 
adgpu

>  <m_score__min__energy>  (10) 
-11.779999999999999

>  <m_primary>  (10) 
energy

$$$$
10:0
     RDKit          3D

 51 55  0  0  0  0  0  0  0  0999 V2000
   -9.3000   21.5280  -32.2920 C   0  0  0  0  0  0  0  0  0  0  0  0
   -8.6480   19.8730  -32.2180 S   0  0  0  0  0  0  0  0  0  0  0  0
   -8.7230   19.3380  -30.8170 O   0  0  0  0  0  0  0  0  0  0  0  0
   -9.5090   18.9950  -33.0830 O   0  0  0  0  0  0  0  0  0  0  0  0
   -6.9800   19.8540  -32.8280 C   0  0  0  0  0  0  0  0  0  0  0  0
   -6.5730   18.6920  -33.5070 C   0  0  0  0  0  0  0  0  0  0  0  0
   -5.2810   18.5670  -34.0120 C   0  0  0  0  0  0  0  0  0  0  0  0
   -4.3680   19.6020  -33.8470 C   0  0  0  0  0  0  0  0  0  0  0  0
   -4.7460   20.7730  -33.1910 C   0  0  0  0  0  0  0  0  0  0  0  0
   -3.8140   21.7460  -33.0300 F   0  0  0  0  0  0  0  0  0  0  0  0
   -6.0550   20.9330  -32.6870 C   0  0  0  0  0  0  0  0  0  0  0  0
   -6.4150   22.4700  -31.8630 S   0  0  0  0  0  0  0  0  0  0  0  0
   -7.3490   23.2710  -32.7250 O   0  0  0  0  0  0  0  0  0  0  0  0
   -7.0880   22.2860  -30.5340 O   0  0  0  0  0  0  0  0  0  0  0  0
   -4.9540   23.3760  -31.6520 N   0  0  0  0  0  0  0  0  0  0  0  0
   -4.4850   23.7300  -30.3540 C   0  0  0  0  0  0  0  0  0  0  0  0
   -3.1290   23.5390  -30.0360 C   0  0  0  0  0  0  0  0  0  0  0  0
   -2.6890   23.9230  -28.7720 C   0  0  0  0  0  0  0  0  0  0  0  0
   -3.5380   24.5030  -27.8440 C   0  0  0  0  0  0  0  0  0  0  0  0
   -4.8870   24.6920  -28.1390 C   0  0  0  0  0  0  0  0  0  0  0  0
   -5.3690   24.2910  -29.4000 C   0  0  0  0  0  0  0  0  0  0  0  0
   -6.7170   24.4500  -29.7160 O   0  0  0  0  0  0  0  0  0  0  0  0
   -2.7920   24.9380  -26.6090 C   0  0  0  0  0  0  0  0  0  0  0  0
   -1.4050   24.4940  -26.9780 C   0  0  0  0  0  0  0  0  0  0  0  0
   -0.1720   25.1060  -26.8430 C   0  0  0  0  0  0  0  0  0  0  0  0
    0.2690   26.0090  -25.7550 C   0  0  0  0  0  0  0  0  0  0  0  0
   -0.5220   26.2030  -24.6090 C   0  0  0  0  0  0  0  0  0  0  0  0
   -0.0940   27.0570  -23.5870 C   0  0  0  0  0  0  0  0  0  0  0  0
    1.1330   27.7220  -23.6950 C   0  0  0  0  0  0  0  0  0  0  0  0
    1.5730   28.5990  -22.6420 C   0  0  0  0  0  0  0  0  0  0  0  0
    1.9270   29.3040  -21.7960 N   0  0  0  0  0  0  0  0  0  0  0  0
    1.9320   27.5270  -24.8270 C   0  0  0  0  0  0  0  0  0  0  0  0
    1.5050   26.6740  -25.8490 C   0  0  0  0  0  0  0  0  0  0  0  0
    0.5500   24.8650  -27.9650 N   0  0  0  0  0  0  0  0  0  0  0  0
   -0.1970   24.1760  -28.8200 N   0  0  0  0  0  0  0  0  0  0  0  0
   -1.3640   23.9210  -28.2060 C   0  0  0  0  0  0  0  0  0  0  0  0
   -9.4501   21.9090  -31.2710 H   0  0  0  0  0  0  0  0  0  0  0  0
   -8.5907   22.1780  -32.8253 H   0  0  0  0  0  0  0  0  0  0  0  0
  -10.2620   21.5196  -32.8253 H   0  0  0  0  0  0  0  0  0  0  0  0
   -7.2878   17.8668  -33.6418 H   0  0  0  0  0  0  0  0  0  0  0  0
   -4.9833   17.6497  -34.5411 H   0  0  0  0  0  0  0  0  0  0  0  0
   -3.3441   19.4970  -34.2351 H   0  0  0  0  0  0  0  0  0  0  0  0
   -2.4343   23.0981  -30.7661 H   0  0  0  0  0  0  0  0  0  0  0  0
   -5.5632   25.1464  -27.3999 H   0  0  0  0  0  0  0  0  0  0  0  0
   -7.0920   24.1440  -30.6060 H   0  0  0  0  0  0  0  0  0  0  0  0
   -2.8470   26.0265  -26.4601 H   0  0  0  0  0  0  0  0  0  0  0  0
   -3.1763   24.5261  -25.6642 H   0  0  0  0  0  0  0  0  0  0  0  0
   -1.4848   25.6793  -24.5153 H   0  0  0  0  0  0  0  0  0  0  0  0
   -0.7228   27.2062  -22.6969 H   0  0  0  0  0  0  0  0  0  0  0  0
    2.8981   28.0459  -24.9129 H   0  0  0  0  0  0  0  0  0  0  0  0
    2.1406   26.5216  -26.7337 H   0  0  0  0  0  0  0  0  0  0  0  0
  1  2  1  0
  2  3  2  0
  2  4  2  0
  2  5  1  0
  5  6  2  0
  6  7  1  0
  7  8  2  0
  8  9  1  0
  9 10  1  0
  9 11  2  0
 11 12  1  0
 12 13  2  0
 12 14  2  0
 12 15  1  0
 15 16  1  0
 16 17  2  0
 17 18  1  0
 18 19  2  0
 19 20  1  0
 20 21  2  0
 21 22  1  0
 19 23  1  0
 23 24  1  0
 24 25  1  0
 25 26  1  0
 26 27  2  0
 27 28  1  0
 28 29  2  0
 29 30  1  0
 30 31  3  0
 29 32  1  0
 32 33  2  0
 25 34  2  0
 34 35  1  0
 35 36  1  0
 11  5  1  0
 21 16  1  0
 36 24  2  0
 36 18  1  0
 33 26  1  0
  1 37  1  0
  1 38  1  0
  1 39  1  0
  6 40  1  0
  7 41  1  0
  8 42  1  0
 17 43  1  0
 20 44  1  0
 22 45  1  0
 23 46  1  0
 23 47  1  0
 27 48  1  0
 28 49  1  0
 32 50  1  0
 33 51  1  0
M  CHG  2  15  -1  35  -1
M  END
>  <UniqueID>  (11) 
10

>  <SMILES>  (11) 
CS(=O)(=O)c1cccc(F)c1S(=O)(=O)[N-]c1cc2c(cc1O)Cc1c(-c3ccc(C#N)cc3)n[n-]c1-2

>  <Energy>  (11) 
141.99208128401608

>  <Genealogy>  (11) 
CS(=O)(=O)c1cccc(F)c1S(=O)(=O)[N-]c1cc2c(cc1O)Cc1c(-c3ccc(C#N)cc3)n[n-]c1-2 (protonated)
CS(=O)(=O)c1cccc(F)c1S(=O)(=O)[N-]c1cc2c(cc1O)Cc1c(-c3ccc(C#N)cc3)n[n-]c1-2 (3D coordinates assigned)
CS(=O)(=O)c1cccc(F)c1S(=O)(=O)[N-]c1cc2c(cc1O)Cc1c(-c3ccc(C#N)cc3)n[n-]c1-2 (nonaromatic ring conformer: 141.99208128401608 kcal/mol)

>  <smiles>  (11) 
CS(=O)(=O)c1cccc(F)c1S(=O)(=O)Nc1cc2c(cc1O)Cc1c(-c3ccc(C#N)cc3)n[nH]c1-2

>  <score_type>  (11) 
oracle

>  <origin>  (11) 
adgpu

>  <m_score__min__energy>  (11) 
-12.73

>  <m_primary>  (11) 
energy

$$$$
11:0
     RDKit          3D

 59 62  0  0  0  0  0  0  0  0999 V2000
   -1.6800   20.6360  -27.1690 O   0  0  0  0  0  0  0  0  0  0  0  0
   -1.3160   21.0400  -28.3090 C   0  0  0  0  0  0  0  0  0  0  0  0
   -0.2690   20.3400  -29.0100 N   0  0  0  0  0  0  0  0  0  0  0  0
    0.4120   19.2000  -28.4620 C   0  0  0  0  0  0  0  0  0  0  0  0
   -0.3300   18.0850  -28.0470 C   0  0  0  0  0  0  0  0  0  0  0  0
    0.3160   16.9720  -27.5030 C   0  0  0  0  0  0  0  0  0  0  0  0
    1.7090   16.9590  -27.3800 C   0  0  0  0  0  0  0  0  0  0  0  0
    2.4650   18.0580  -27.8130 C   0  0  0  0  0  0  0  0  0  0  0  0
    4.2270   18.0310  -27.6890 S   0  0  0  0  0  0  0  0  0  0  0  0
    4.6800   19.1990  -26.8590 O   0  0  0  0  0  0  0  0  0  0  0  0
    4.6460   16.7720  -26.9840 O   0  0  0  0  0  0  0  0  0  0  0  0
    5.0190   18.1050  -29.2450 N   0  0  0  0  0  0  0  0  0  0  0  0
    4.9080   19.4280  -29.8580 C   0  0  0  0  0  0  0  0  0  0  0  0
    5.0060   19.2160  -31.3620 C   0  0  0  0  0  0  0  0  0  0  0  0
    4.7510   17.7320  -31.5820 C   0  0  0  0  0  0  0  0  0  0  0  0
    4.4270   17.1770  -30.2070 C   0  0  0  0  0  0  0  0  0  0  0  0
    1.8140   19.1670  -28.3710 C   0  0  0  0  0  0  0  0  0  0  0  0
   -1.9910   22.2270  -28.8950 C   0  0  0  0  0  0  0  0  0  0  0  0
   -1.4000   23.4960  -28.7600 C   0  0  0  0  0  0  0  0  0  0  0  0
   -2.0260   24.6310  -29.2790 C   0  0  0  0  0  0  0  0  0  0  0  0
   -3.2520   24.5220  -29.9380 C   0  0  0  0  0  0  0  0  0  0  0  0
   -3.8550   25.6700  -30.4400 O   0  0  0  0  0  0  0  0  0  0  0  0
   -3.8620   23.2640  -30.0800 C   0  0  0  0  0  0  0  0  0  0  0  0
   -5.4240   23.0870  -30.8970 S   0  0  0  0  0  0  0  0  0  0  0  0
   -5.5590   24.1670  -31.9340 O   0  0  0  0  0  0  0  0  0  0  0  0
   -6.5380   23.2650  -29.9050 O   0  0  0  0  0  0  0  0  0  0  0  0
   -5.5780   21.5270  -31.6670 N   0  0  0  0  0  0  0  0  0  0  0  0
   -6.9240   21.3800  -32.2540 C   0  0  0  0  0  0  0  0  0  0  0  0
   -7.0710   20.0620  -33.0480 C   0  0  0  0  0  0  0  0  0  0  0  0
   -5.8420   19.1590  -32.9030 C   0  0  0  0  0  0  0  0  0  0  0  0
   -4.5530   19.9180  -33.2510 C   0  0  0  0  0  0  0  0  0  0  0  0
   -4.5460   21.3590  -32.7020 C   0  0  0  0  0  0  0  0  0  0  0  0
   -3.2310   22.1260  -29.5520 C   0  0  0  0  0  0  0  0  0  0  0  0
   -0.0330   20.6000  -29.9920 H   0  0  0  0  0  0  0  0  0  0  0  0
   -1.4252   18.0866  -28.1501 H   0  0  0  0  0  0  0  0  0  0  0  0
   -0.2724   16.1040  -27.1707 H   0  0  0  0  0  0  0  0  0  0  0  0
    2.2130   16.0846  -26.9425 H   0  0  0  0  0  0  0  0  0  0  0  0
    3.9416   19.8863  -29.6008 H   0  0  0  0  0  0  0  0  0  0  0  0
    5.7001   20.1012  -29.4983 H   0  0  0  0  0  0  0  0  0  0  0  0
    4.2482   19.8178  -31.8850 H   0  0  0  0  0  0  0  0  0  0  0  0
    5.9867   19.5236  -31.7540 H   0  0  0  0  0  0  0  0  0  0  0  0
    3.9037   17.5835  -32.2676 H   0  0  0  0  0  0  0  0  0  0  0  0
    5.6174   17.2283  -32.0355 H   0  0  0  0  0  0  0  0  0  0  0  0
    3.3376   17.1227  -30.0643 H   0  0  0  0  0  0  0  0  0  0  0  0
    4.8249   16.1593  -30.0806 H   0  0  0  0  0  0  0  0  0  0  0  0
    2.4051   20.0179  -28.7405 H   0  0  0  0  0  0  0  0  0  0  0  0
   -0.4354   23.5953  -28.2406 H   0  0  0  0  0  0  0  0  0  0  0  0
   -1.5505   25.6167  -29.1680 H   0  0  0  0  0  0  0  0  0  0  0  0
   -7.6676   21.3907  -31.4435 H   0  0  0  0  0  0  0  0  0  0  0  0
   -7.0824   22.2154  -32.9518 H   0  0  0  0  0  0  0  0  0  0  0  0
   -7.9538   19.5211  -32.6764 H   0  0  0  0  0  0  0  0  0  0  0  0
   -7.1776   20.3190  -34.1122 H   0  0  0  0  0  0  0  0  0  0  0  0
   -5.7792   18.8020  -31.8644 H   0  0  0  0  0  0  0  0  0  0  0  0
   -5.9469   18.3125  -33.5976 H   0  0  0  0  0  0  0  0  0  0  0  0
   -3.6977   19.3741  -32.8236 H   0  0  0  0  0  0  0  0  0  0  0  0
   -4.4884   19.9792  -34.3474 H   0  0  0  0  0  0  0  0  0  0  0  0
   -3.5593   21.5744  -32.2662 H   0  0  0  0  0  0  0  0  0  0  0  0
   -4.7583   22.0530  -33.5286 H   0  0  0  0  0  0  0  0  0  0  0  0
   -3.7127   21.1423  -29.6534 H   0  0  0  0  0  0  0  0  0  0  0  0
  1  2  2  0
  2  3  1  0
  3  4  1  0
  4  5  2  0
  5  6  1  0
  6  7  2  0
  7  8  1  0
  8  9  1  0
  9 10  2  0
  9 11  2  0
  9 12  1  0
 12 13  1  0
 13 14  1  0
 14 15  1  0
 15 16  1  0
  8 17  2  0
  2 18  1  0
 18 19  2  0
 19 20  1  0
 20 21  2  0
 21 22  1  0
 21 23  1  0
 23 24  1  0
 24 25  2  0
 24 26  2  0
 24 27  1  0
 27 28  1  0
 28 29  1  0
 29 30  1  0
 30 31  1  0
 31 32  1  0
 23 33  2  0
 17  4  1  0
 33 18  1  0
 16 12  1  0
 32 27  1  0
  3 34  1  0
  5 35  1  0
  6 36  1  0
  7 37  1  0
 13 38  1  0
 13 39  1  0
 14 40  1  0
 14 41  1  0
 15 42  1  0
 15 43  1  0
 16 44  1  0
 16 45  1  0
 17 46  1  0
 19 47  1  0
 20 48  1  0
 28 49  1  0
 28 50  1  0
 29 51  1  0
 29 52  1  0
 30 53  1  0
 30 54  1  0
 31 55  1  0
 31 56  1  0
 32 57  1  0
 32 58  1  0
 33 59  1  0
M  CHG  1  22  -1
M  END
>  <UniqueID>  (12) 
11

>  <SMILES>  (12) 
O=C(Nc1cccc(S(=O)(=O)N2CCCC2)c1)c1ccc([O-])c(S(=O)(=O)N2CCCCC2)c1

>  <Energy>  (12) 
72.43101140613942

>  <Genealogy>  (12) 
O=C(Nc1cccc(S(=O)(=O)N2CCCC2)c1)c1ccc([O-])c(S(=O)(=O)N2CCCCC2)c1 (protonated)
O=C(Nc1cccc(S(=O)(=O)N2CCCC2)c1)c1ccc([O-])c(S(=O)(=O)N2CCCCC2)c1 (3D coordinates assigned)
O=C(Nc1cccc(S(=O)(=O)N2CCCC2)c1)c1ccc([O-])c(S(=O)(=O)N2CCCCC2)c1 (nonaromatic ring conformer: 72.43101140613942 kcal/mol)

>  <smiles>  (12) 
O=C(Nc1cccc(S(=O)(=O)N2CCCC2)c1)c1ccc(O)c(S(=O)(=O)N2CCCCC2)c1

>  <score_type>  (12) 
oracle

>  <origin>  (12) 
adgpu

>  <m_score__min__energy>  (12) 
-12.06

>  <m_primary>  (12) 
energy

$$$$
12:0
     RDKit          3D

 53 56  0  0  0  0  0  0  0  0999 V2000
   -5.7140   26.3870  -31.2240 O   0  0  0  0  0  0  0  0  0  0  0  0
   -5.2840   25.2920  -30.2890 S   0  0  0  0  0  0  0  0  0  0  0  0
   -5.7880   25.6200  -28.9100 O   0  0  0  0  0  0  0  0  0  0  0  0
   -3.5510   25.2030  -30.2840 N   0  0  0  0  0  0  0  0  0  0  0  0
   -2.7680   24.3400  -29.4470 C   0  0  0  0  0  0  0  0  0  0  0  0
   -3.1970   23.0420  -29.1110 C   0  0  0  0  0  0  0  0  0  0  0  0
   -2.3990   22.2040  -28.3210 C   0  0  0  0  0  0  0  0  0  0  0  0
   -1.1620   22.6800  -27.8290 C   0  0  0  0  0  0  0  0  0  0  0  0
   -0.7430   23.9820  -28.1550 C   0  0  0  0  0  0  0  0  0  0  0  0
   -1.5440   24.8110  -28.9520 C   0  0  0  0  0  0  0  0  0  0  0  0
   -1.1180   26.1020  -29.2680 O   0  0  0  0  0  0  0  0  0  0  0  0
   -0.2200   21.7820  -27.0610 C   0  0  0  0  0  0  0  0  0  0  0  0
   -0.9400   20.5980  -26.4120 C   0  0  0  0  0  0  0  0  0  0  0  0
   -1.8450   19.8960  -27.4300 C   0  0  0  0  0  0  0  0  0  0  0  0
   -2.9400   20.8470  -27.9220 C   0  0  0  0  0  0  0  0  0  0  0  0
   -5.9450   23.7600  -30.8600 C   0  0  0  0  0  0  0  0  0  0  0  0
   -5.2490   23.0230  -31.8280 C   0  0  0  0  0  0  0  0  0  0  0  0
   -5.7500   21.7950  -32.2720 C   0  0  0  0  0  0  0  0  0  0  0  0
   -6.9440   21.2840  -31.7420 C   0  0  0  0  0  0  0  0  0  0  0  0
   -7.5690   19.7290  -32.2960 S   0  0  0  0  0  0  0  0  0  0  0  0
   -8.5100   19.9620  -33.4430 O   0  0  0  0  0  0  0  0  0  0  0  0
   -8.3460   19.0830  -31.1850 O   0  0  0  0  0  0  0  0  0  0  0  0
   -6.2900   18.6500  -32.7970 N   0  0  0  0  0  0  0  0  0  0  0  0
   -6.5580   17.2790  -32.3420 C   0  0  0  0  0  0  0  0  0  0  0  0
   -5.4120   16.3460  -32.7860 C   0  0  0  0  0  0  0  0  0  0  0  0
   -4.4750   17.0070  -33.6190 O   0  0  0  0  0  0  0  0  0  0  0  0
   -5.1420   17.5900  -34.7220 C   0  0  0  0  0  0  0  0  0  0  0  0
   -6.1360   18.6770  -34.2620 C   0  0  0  0  0  0  0  0  0  0  0  0
   -7.6340   22.0170  -30.7680 C   0  0  0  0  0  0  0  0  0  0  0  0
   -7.1430   23.2540  -30.3350 C   0  0  0  0  0  0  0  0  0  0  0  0
   -4.1709   22.6811  -29.4732 H   0  0  0  0  0  0  0  0  0  0  0  0
    0.2225   24.3534  -27.7810 H   0  0  0  0  0  0  0  0  0  0  0  0
   -1.2590   26.4990  -30.1910 H   0  0  0  0  0  0  0  0  0  0  0  0
    0.5421   21.3952  -27.7535 H   0  0  0  0  0  0  0  0  0  0  0  0
    0.2321   22.3808  -26.2566 H   0  0  0  0  0  0  0  0  0  0  0  0
   -0.1938   19.8821  -26.0370 H   0  0  0  0  0  0  0  0  0  0  0  0
   -1.5595   20.9699  -25.5826 H   0  0  0  0  0  0  0  0  0  0  0  0
   -1.2388   19.5680  -28.2873 H   0  0  0  0  0  0  0  0  0  0  0  0
   -2.3186   19.0293  -26.9458 H   0  0  0  0  0  0  0  0  0  0  0  0
   -3.4334   20.3943  -28.7947 H   0  0  0  0  0  0  0  0  0  0  0  0
   -3.6444   21.0011  -27.0913 H   0  0  0  0  0  0  0  0  0  0  0  0
   -4.3059   23.4116  -32.2397 H   0  0  0  0  0  0  0  0  0  0  0  0
   -5.2051   21.2272  -33.0405 H   0  0  0  0  0  0  0  0  0  0  0  0
   -6.6340   17.2670  -31.2447 H   0  0  0  0  0  0  0  0  0  0  0  0
   -7.5026   16.9286  -32.7835 H   0  0  0  0  0  0  0  0  0  0  0  0
   -4.8906   15.9750  -31.8913 H   0  0  0  0  0  0  0  0  0  0  0  0
   -5.8535   15.5205  -33.3636 H   0  0  0  0  0  0  0  0  0  0  0  0
   -4.3975   18.0449  -35.3920 H   0  0  0  0  0  0  0  0  0  0  0  0
   -5.7044   16.8025  -35.2449 H   0  0  0  0  0  0  0  0  0  0  0  0
   -5.7597   19.6643  -34.5681 H   0  0  0  0  0  0  0  0  0  0  0  0
   -7.1144   18.4831  -34.7258 H   0  0  0  0  0  0  0  0  0  0  0  0
   -8.5663   21.6185  -30.3414 H   0  0  0  0  0  0  0  0  0  0  0  0
   -7.6983   23.8310  -29.5808 H   0  0  0  0  0  0  0  0  0  0  0  0
  1  2  2  0
  2  3  2  0
  2  4  1  0
  4  5  1  0
  5  6  2  0
  6  7  1  0
  7  8  2  0
  8  9  1  0
  9 10  2  0
 10 11  1  0
  8 12  1  0
 12 13  1  0
 13 14  1  0
 14 15  1  0
  2 16  1  0
 16 17  2  0
 17 18  1  0
 18 19  2  0
 19 20  1  0
 20 21  2  0
 20 22  2  0
 20 23  1  0
 23 24  1  0
 24 25  1  0
 25 26  1  0
 26 27  1  0
 27 28  1  0
 19 29  1  0
 29 30  2  0
 10  5  1  0
 30 16  1  0
 15  7  1  0
 28 23  1  0
  6 31  1  0
  9 32  1  0
 11 33  1  0
 12 34  1  0
 12 35  1  0
 13 36  1  0
 13 37  1  0
 14 38  1  0
 14 39  1  0
 15 40  1  0
 15 41  1  0
 17 42  1  0
 18 43  1  0
 24 44  1  0
 24 45  1  0
 25 46  1  0
 25 47  1  0
 27 48  1  0
 27 49  1  0
 28 50  1  0
 28 51  1  0
 29 52  1  0
 30 53  1  0
M  CHG  1   4  -1
M  END
>  <UniqueID>  (13) 
12

>  <SMILES>  (13) 
O=S(=O)([N-]c1cc2c(cc1O)CCCC2)c1ccc(S(=O)(=O)N2CCOCC2)cc1

>  <Energy>  (13) 
65.01336005371726

>  <Genealogy>  (13) 
O=S(=O)([N-]c1cc2c(cc1O)CCCC2)c1ccc(S(=O)(=O)N2CCOCC2)cc1 (protonated)
O=S(=O)([N-]c1cc2c(cc1O)CCCC2)c1ccc(S(=O)(=O)N2CCOCC2)cc1 (3D coordinates assigned)
O=S(=O)([N-]c1cc2c(cc1O)CCCC2)c1ccc(S(=O)(=O)N2CCOCC2)cc1 (nonaromatic ring conformer: 65.01336005371726 kcal/mol)

>  <smiles>  (13) 
O=S(=O)(Nc1cc2c(cc1O)CCCC2)c1ccc(S(=O)(=O)N2CCOCC2)cc1

>  <score_type>  (13) 
oracle

>  <origin>  (13) 
adgpu

>  <m_score__min__energy>  (13) 
-12.960000000000001

>  <m_primary>  (13) 
energy

$$$$
13:0
     RDKit          3D

 53 56  0  0  0  0  0  0  0  0999 V2000
   -7.0680   23.2260  -30.2680 O   0  0  0  0  0  0  0  0  0  0  0  0
   -6.5690   22.6170  -31.5480 S   0  0  0  0  0  0  0  0  0  0  0  0
   -6.9170   23.5350  -32.6870 O   0  0  0  0  0  0  0  0  0  0  0  0
   -7.3670   21.0580  -31.7460 C   0  0  0  0  0  0  0  0  0  0  0  0
   -8.6550   21.0020  -32.2960 C   0  0  0  0  0  0  0  0  0  0  0  0
   -9.3070   19.7720  -32.4340 C   0  0  0  0  0  0  0  0  0  0  0  0
   -8.6720   18.5940  -32.0300 C   0  0  0  0  0  0  0  0  0  0  0  0
   -7.3840   18.6450  -31.4890 C   0  0  0  0  0  0  0  0  0  0  0  0
   -6.7290   19.8720  -31.3500 C   0  0  0  0  0  0  0  0  0  0  0  0
   -4.8090   22.4280  -31.4840 C   0  0  0  0  0  0  0  0  0  0  0  0
   -4.0960   23.0890  -30.4730 C   0  0  0  0  0  0  0  0  0  0  0  0
   -2.7050   22.9560  -30.3720 C   0  0  0  0  0  0  0  0  0  0  0  0
   -1.8220   23.8140  -29.1120 S   0  0  0  0  0  0  0  0  0  0  0  0
   -0.3590   23.4840  -29.2320 O   0  0  0  0  0  0  0  0  0  0  0  0
   -1.9730   25.2940  -29.3340 O   0  0  0  0  0  0  0  0  0  0  0  0
   -2.3710   23.4170  -27.4970 N   0  0  0  0  0  0  0  0  0  0  0  0
   -1.5870   24.0700  -26.4320 C   0  0  0  0  0  0  0  0  0  0  0  0
   -2.1780   25.4200  -26.0030 C   0  0  0  0  0  0  0  0  0  0  0  0
   -3.5420   25.2850  -25.6720 O   0  0  0  0  0  0  0  0  0  0  0  0
   -4.2620   24.9220  -26.8280 C   0  0  0  0  0  0  0  0  0  0  0  0
   -3.8330   23.5350  -27.3270 C   0  0  0  0  0  0  0  0  0  0  0  0
   -2.0250   22.1160  -31.2610 C   0  0  0  0  0  0  0  0  0  0  0  0
   -2.7220   21.4560  -32.2740 C   0  0  0  0  0  0  0  0  0  0  0  0
   -4.1050   21.6260  -32.4120 C   0  0  0  0  0  0  0  0  0  0  0  0
   -4.7730   20.9670  -33.4950 N   0  0  0  0  0  0  0  0  0  0  0  0
   -4.8030   19.5380  -33.6510 C   0  0  0  0  0  0  0  0  0  0  0  0
   -3.8410   18.7100  -33.0420 C   0  0  0  0  0  0  0  0  0  0  0  0
   -3.8910   17.3220  -33.2200 C   0  0  0  0  0  0  0  0  0  0  0  0
   -4.9020   16.7520  -33.9970 C   0  0  0  0  0  0  0  0  0  0  0  0
   -5.8670   17.5660  -34.5950 C   0  0  0  0  0  0  0  0  0  0  0  0
   -5.8220   18.9520  -34.4190 C   0  0  0  0  0  0  0  0  0  0  0  0
   -9.1542   21.9272  -32.6198 H   0  0  0  0  0  0  0  0  0  0  0  0
  -10.3201   19.7318  -32.8607 H   0  0  0  0  0  0  0  0  0  0  0  0
   -9.1856   17.6273  -32.1378 H   0  0  0  0  0  0  0  0  0  0  0  0
   -6.8848   17.7175  -31.1720 H   0  0  0  0  0  0  0  0  0  0  0  0
   -5.7130   19.9082  -30.9300 H   0  0  0  0  0  0  0  0  0  0  0  0
   -4.6355   23.7194  -29.7508 H   0  0  0  0  0  0  0  0  0  0  0  0
   -1.5594   23.4041  -25.5569 H   0  0  0  0  0  0  0  0  0  0  0  0
   -0.5797   24.2605  -26.8308 H   0  0  0  0  0  0  0  0  0  0  0  0
   -1.6287   25.7920  -25.1256 H   0  0  0  0  0  0  0  0  0  0  0  0
   -2.0858   26.1280  -26.8398 H   0  0  0  0  0  0  0  0  0  0  0  0
   -5.3363   24.9037  -26.5923 H   0  0  0  0  0  0  0  0  0  0  0  0
   -4.0546   25.6594  -27.6175 H   0  0  0  0  0  0  0  0  0  0  0  0
   -4.1644   22.7808  -26.5980 H   0  0  0  0  0  0  0  0  0  0  0  0
   -4.2955   23.3791  -28.3128 H   0  0  0  0  0  0  0  0  0  0  0  0
   -0.9386   21.9756  -31.1611 H   0  0  0  0  0  0  0  0  0  0  0  0
   -2.1809   20.7973  -32.9692 H   0  0  0  0  0  0  0  0  0  0  0  0
   -5.3450   21.5580  -34.1400 H   0  0  0  0  0  0  0  0  0  0  0  0
   -3.0472   19.1550  -32.4241 H   0  0  0  0  0  0  0  0  0  0  0  0
   -3.1332   16.6798  -32.7474 H   0  0  0  0  0  0  0  0  0  0  0  0
   -4.9384   15.6617  -34.1381 H   0  0  0  0  0  0  0  0  0  0  0  0
   -6.6636   17.1156  -35.2054 H   0  0  0  0  0  0  0  0  0  0  0  0
   -6.5895   19.5874  -34.8850 H   0  0  0  0  0  0  0  0  0  0  0  0
  1  2  2  0
  2  3  2  0
  2  4  1  0
  4  5  2  0
  5  6  1  0
  6  7  2  0
  7  8  1  0
  8  9  2  0
  2 10  1  0
 10 11  2  0
 11 12  1  0
 12 13  1  0
 13 14  2  0
 13 15  2  0
 13 16  1  0
 16 17  1  0
 17 18  1  0
 18 19  1  0
 19 20  1  0
 20 21  1  0
 12 22  2  0
 22 23  1  0
 23 24  2  0
 24 25  1  0
 25 26  1  0
 26 27  2  0
 27 28  1  0
 28 29  2  0
 29 30  1  0
 30 31  2  0
  9  4  1  0
 24 10  1  0
 31 26  1  0
 21 16  1  0
  5 32  1  0
  6 33  1  0
  7 34  1  0
  8 35  1  0
  9 36  1  0
 11 37  1  0
 17 38  1  0
 17 39  1  0
 18 40  1  0
 18 41  1  0
 20 42  1  0
 20 43  1  0
 21 44  1  0
 21 45  1  0
 22 46  1  0
 23 47  1  0
 25 48  1  0
 27 49  1  0
 28 50  1  0
 29 51  1  0
 30 52  1  0
 31 53  1  0
M  END
>  <UniqueID>  (14) 
13

>  <SMILES>  (14) 
O=S(=O)(c1ccccc1)c1cc(S(=O)(=O)N2CCOCC2)ccc1Nc1ccccc1

>  <Energy>  (14) 
69.40435157796433

>  <Genealogy>  (14) 
O=S(=O)(c1ccccc1)c1cc(S(=O)(=O)N2CCOCC2)ccc1Nc1ccccc1 (3D coordinates assigned)
O=S(=O)(c1ccccc1)c1cc(S(=O)(=O)N2CCOCC2)ccc1Nc1ccccc1 (nonaromatic ring conformer: 69.40435157796433 kcal/mol)

>  <smiles>  (14) 
O=S(=O)(c1ccccc1)c1cc(S(=O)(=O)N2CCOCC2)ccc1Nc1ccccc1

>  <score_type>  (14) 
oracle

>  <origin>  (14) 
adgpu

>  <m_score__min__energy>  (14) 
-10.31

>  <m_primary>  (14) 
energy

$$$$
14:0
     RDKit          3D

 65 68  0  0  0  0  0  0  0  0999 V2000
   -4.3420   15.1490  -34.0430 C   0  0  0  0  0  0  0  0  0  0  0  0
   -5.0620   16.2340  -34.6190 O   0  0  0  0  0  0  0  0  0  0  0  0
   -5.4040   17.4150  -33.9390 C   0  0  0  0  0  0  0  0  0  0  0  0
   -6.6830   17.6250  -33.3980 C   0  0  0  0  0  0  0  0  0  0  0  0
   -6.9920   18.8170  -32.7170 C   0  0  0  0  0  0  0  0  0  0  0  0
   -5.9950   19.8070  -32.5490 C   0  0  0  0  0  0  0  0  0  0  0  0
   -4.7270   19.5940  -33.1160 C   0  0  0  0  0  0  0  0  0  0  0  0
   -4.4300   18.4110  -33.7950 C   0  0  0  0  0  0  0  0  0  0  0  0
   -3.1080   18.1960  -34.2860 N   0  0  0  0  0  0  0  0  0  0  0  0
   -1.8210   17.8880  -33.1730 S   0  0  0  0  0  0  0  0  0  0  0  0
   -1.8340   16.4300  -32.8090 O   0  0  0  0  0  0  0  0  0  0  0  0
   -2.0380   18.6750  -31.9130 O   0  0  0  0  0  0  0  0  0  0  0  0
   -0.2770   18.3170  -33.9330 C   0  0  0  0  0  0  0  0  0  0  0  0
    0.6010   17.2610  -34.2300 C   0  0  0  0  0  0  0  0  0  0  0  0
    1.8270   17.5010  -34.8400 C   0  0  0  0  0  0  0  0  0  0  0  0
    2.2050   18.8000  -35.1600 C   0  0  0  0  0  0  0  0  0  0  0  0
    1.3500   19.8740  -34.8880 C   0  0  0  0  0  0  0  0  0  0  0  0
    1.7700   21.1670  -35.1990 O   0  0  0  0  0  0  0  0  0  0  0  0
    0.0840   19.6480  -34.2990 C   0  0  0  0  0  0  0  0  0  0  0  0
   -0.9970   21.0390  -34.0180 S   0  0  0  0  0  0  0  0  0  0  0  0
   -0.4820   22.2680  -34.7130 O   0  0  0  0  0  0  0  0  0  0  0  0
   -2.3610   20.7430  -34.5760 O   0  0  0  0  0  0  0  0  0  0  0  0
   -1.1070   21.3810  -32.2930 C   0  0  0  0  0  0  0  0  0  0  0  0
   -0.2370   20.7510  -31.3920 C   0  0  0  0  0  0  0  0  0  0  0  0
   -0.3210   21.0270  -30.0250 C   0  0  0  0  0  0  0  0  0  0  0  0
   -1.2740   21.9320  -29.5490 C   0  0  0  0  0  0  0  0  0  0  0  0
   -2.1520   22.5630  -30.4420 C   0  0  0  0  0  0  0  0  0  0  0  0
   -3.3670   23.6870  -29.8430 S   0  0  0  0  0  0  0  0  0  0  0  0
   -4.2880   22.9170  -28.5320 C   0  0  0  0  0  0  0  0  0  0  0  0
   -2.7000   24.9310  -29.3250 O   0  0  0  0  0  0  0  0  0  0  0  0
   -4.3010   24.0700  -30.9550 O   0  0  0  0  0  0  0  0  0  0  0  0
   -2.0740   22.2770  -31.8110 C   0  0  0  0  0  0  0  0  0  0  0  0
   -6.2250   21.1210  -31.8180 C   0  0  0  0  0  0  0  0  0  0  0  0
   -7.3960   22.0260  -32.2880 C   0  0  0  0  0  0  0  0  0  0  0  0
   -8.7500   21.4940  -32.0340 N   0  0  0  0  0  0  0  0  0  0  0  0
   -9.1880   21.5610  -30.6290 C   0  0  0  0  0  0  0  0  0  0  0  0
   -9.0750   20.2190  -32.7140 C   0  0  0  0  0  0  0  0  0  0  0  0
   -8.3660   18.9840  -32.1320 C   0  0  0  0  0  0  0  0  0  0  0  0
   -4.3886   15.2192  -32.9462 H   0  0  0  0  0  0  0  0  0  0  0  0
   -4.7890   14.1982  -34.3689 H   0  0  0  0  0  0  0  0  0  0  0  0
   -3.2922   15.1914  -34.3689 H   0  0  0  0  0  0  0  0  0  0  0  0
   -7.4533   16.8475  -33.5081 H   0  0  0  0  0  0  0  0  0  0  0  0
   -3.9555   20.3726  -33.0232 H   0  0  0  0  0  0  0  0  0  0  0  0
    0.3143   16.2298  -33.9763 H   0  0  0  0  0  0  0  0  0  0  0  0
    2.4994   16.6613  -35.0699 H   0  0  0  0  0  0  0  0  0  0  0  0
    3.1822   18.9848  -35.6299 H   0  0  0  0  0  0  0  0  0  0  0  0
    1.1390   21.9590  -35.1550 H   0  0  0  0  0  0  0  0  0  0  0  0
    0.5138   20.0375  -31.7624 H   0  0  0  0  0  0  0  0  0  0  0  0
    0.3643   20.5311  -29.3218 H   0  0  0  0  0  0  0  0  0  0  0  0
   -1.3353   22.1495  -28.4725 H   0  0  0  0  0  0  0  0  0  0  0  0
   -3.8912   23.2488  -27.5612 H   0  0  0  0  0  0  0  0  0  0  0  0
   -5.3475   23.2019  -28.6118 H   0  0  0  0  0  0  0  0  0  0  0  0
   -4.1953   21.8238  -28.6118 H   0  0  0  0  0  0  0  0  0  0  0  0
   -2.7736   22.7566  -32.5114 H   0  0  0  0  0  0  0  0  0  0  0  0
   -6.4041   20.8788  -30.7600 H   0  0  0  0  0  0  0  0  0  0  0  0
   -5.3216   21.7122  -32.0286 H   0  0  0  0  0  0  0  0  0  0  0  0
   -7.3080   22.9916  -31.7686 H   0  0  0  0  0  0  0  0  0  0  0  0
   -7.3005   22.1013  -33.3813 H   0  0  0  0  0  0  0  0  0  0  0  0
   -8.3193   21.4281  -29.9674 H   0  0  0  0  0  0  0  0  0  0  0  0
   -9.6501   22.5403  -30.4353 H   0  0  0  0  0  0  0  0  0  0  0  0
   -9.9217   20.7646  -30.4353 H   0  0  0  0  0  0  0  0  0  0  0  0
  -10.1606   20.0579  -32.6403 H   0  0  0  0  0  0  0  0  0  0  0  0
   -8.7233   20.3204  -33.7513 H   0  0  0  0  0  0  0  0  0  0  0  0
   -8.2794   19.1012  -31.0417 H   0  0  0  0  0  0  0  0  0  0  0  0
   -8.9603   18.0927  -32.3816 H   0  0  0  0  0  0  0  0  0  0  0  0
  1  2  1  0
  2  3  1  0
  3  4  2  0
  4  5  1  0
  5  6  2  0
  6  7  1  0
  7  8  2  0
  8  9  1  0
  9 10  1  0
 10 11  2  0
 10 12  2  0
 10 13  1  0
 13 14  2  0
 14 15  1  0
 15 16  2  0
 16 17  1  0
 17 18  1  0
 17 19  2  0
 19 20  1  0
 20 21  2  0
 20 22  2  0
 20 23  1  0
 23 24  2  0
 24 25  1  0
 25 26  2  0
 26 27  1  0
 27 28  1  0
 28 29  1  0
 28 30  2  0
 28 31  2  0
 27 32  2  0
  6 33  1  0
 33 34  1  0
 34 35  1  0
 35 36  1  0
 35 37  1  0
 37 38  1  0
  8  3  1  0
 19 13  1  0
 32 23  1  0
 38  5  1  0
  1 39  1  0
  1 40  1  0
  1 41  1  0
  4 42  1  0
  7 43  1  0
 14 44  1  0
 15 45  1  0
 16 46  1  0
 18 47  1  0
 24 48  1  0
 25 49  1  0
 26 50  1  0
 29 51  1  0
 29 52  1  0
 29 53  1  0
 32 54  1  0
 33 55  1  0
 33 56  1  0
 34 57  1  0
 34 58  1  0
 36 59  1  0
 36 60  1  0
 36 61  1  0
 37 62  1  0
 37 63  1  0
 38 64  1  0
 38 65  1  0
M  CHG  1   9  -1
M  END
>  <UniqueID>  (15) 
14

>  <SMILES>  (15) 
COc1cc2c(cc1[N-]S(=O)(=O)c1cccc(O)c1S(=O)(=O)c1cccc(S(C)(=O)=O)c1)CCN(C)CC2

>  <Energy>  (15) 
95.79366480291398

>  <Genealogy>  (15) 
COc1cc2c(cc1[N-]S(=O)(=O)c1cccc(O)c1S(=O)(=O)c1cccc(S(C)(=O)=O)c1)CCN(C)CC2 (protonated)
COc1cc2c(cc1[N-]S(=O)(=O)c1cccc(O)c1S(=O)(=O)c1cccc(S(C)(=O)=O)c1)CCN(C)CC2 (3D coordinates assigned)
COc1cc2c(cc1[N-]S(=O)(=O)c1cccc(O)c1S(=O)(=O)c1cccc(S(C)(=O)=O)c1)CCN(C)CC2 (nonaromatic ring conformer: 95.79366480291398 kcal/mol)

>  <smiles>  (15) 
COc1cc2c(cc1NS(=O)(=O)c1cccc(O)c1S(=O)(=O)c1cccc(S(C)(=O)=O)c1)CCN(C)CC2

>  <score_type>  (15) 
oracle

>  <origin>  (15) 
adgpu

>  <m_score__min__energy>  (15) 
-9.8300000000000001

>  <m_primary>  (15) 
energy

$$$$
15:0
     RDKit          3D

 58 61  0  0  0  0  0  0  0  0999 V2000
   -1.3800   20.7610  -33.1370 C   0  0  0  0  0  0  0  0  0  0  0  0
   -0.4990   21.1650  -32.0940 O   0  0  0  0  0  0  0  0  0  0  0  0
    0.0450   20.3000  -31.1310 C   0  0  0  0  0  0  0  0  0  0  0  0
    0.6440   19.0760  -31.4840 C   0  0  0  0  0  0  0  0  0  0  0  0
    1.1450   18.2230  -30.4990 C   0  0  0  0  0  0  0  0  0  0  0  0
    1.0650   18.5720  -29.1430 C   0  0  0  0  0  0  0  0  0  0  0  0
    1.5400   17.6190  -28.1140 C   0  0  0  0  0  0  0  0  0  0  0  0
    0.8760   16.4970  -27.6440 C   0  0  0  0  0  0  0  0  0  0  0  0
    1.7250   15.9160  -26.7260 C   0  0  0  0  0  0  0  0  0  0  0  0
    2.8490   16.7120  -26.6860 C   0  0  0  0  0  0  0  0  0  0  0  0
    2.7090   17.7150  -27.5200 O   0  0  0  0  0  0  0  0  0  0  0  0
    0.4920   19.8070  -28.7920 C   0  0  0  0  0  0  0  0  0  0  0  0
   -0.0230   20.6650  -29.7750 C   0  0  0  0  0  0  0  0  0  0  0  0
   -0.8370   22.1610  -29.3020 S   0  0  0  0  0  0  0  0  0  0  0  0
   -1.8010   21.9170  -28.1760 O   0  0  0  0  0  0  0  0  0  0  0  0
    0.2000   23.1500  -28.8470 O   0  0  0  0  0  0  0  0  0  0  0  0
   -1.7010   22.8140  -30.6600 N   0  0  0  0  0  0  0  0  0  0  0  0
   -3.1150   23.0840  -30.6320 C   0  0  0  0  0  0  0  0  0  0  0  0
   -4.0440   22.1230  -31.0670 C   0  0  0  0  0  0  0  0  0  0  0  0
   -5.4180   22.4090  -31.1000 C   0  0  0  0  0  0  0  0  0  0  0  0
   -6.3490   21.4430  -31.6260 N   0  0  0  0  0  0  0  0  0  0  0  0
   -7.7790   21.7750  -31.6350 C   0  0  0  0  0  0  0  0  0  0  0  0
   -8.6310   20.6500  -32.2390 C   0  0  2  0  0  0  0  0  0  0  0  0
   -9.0820   19.6100  -31.1960 C   0  0  0  0  0  0  0  0  0  0  0  0
   -7.9230   20.0480  -33.3770 N   0  0  0  0  0  0  0  0  0  0  0  0
   -6.6730   19.3570  -33.0070 C   0  0  1  0  0  0  0  0  0  0  0  0
   -5.8100   19.2070  -34.2630 C   0  0  0  0  0  0  0  0  0  0  0  0
   -5.8810   20.0730  -31.8790 C   0  0  0  0  0  0  0  0  0  0  0  0
   -5.8680   23.6570  -30.6450 C   0  0  0  0  0  0  0  0  0  0  0  0
   -4.9560   24.6050  -30.1740 C   0  0  0  0  0  0  0  0  0  0  0  0
   -3.5850   24.3270  -30.1710 C   0  0  0  0  0  0  0  0  0  0  0  0
   -2.6960   25.2970  -29.7220 O   0  0  0  0  0  0  0  0  0  0  0  0
   -2.2974   20.3403  -32.6996 H   0  0  0  0  0  0  0  0  0  0  0  0
   -1.6360   21.6317  -33.7586 H   0  0  0  0  0  0  0  0  0  0  0  0
   -0.8872   19.9989  -33.7586 H   0  0  0  0  0  0  0  0  0  0  0  0
    0.7178   18.7896  -32.5435 H   0  0  0  0  0  0  0  0  0  0  0  0
    1.6070   17.2678  -30.7892 H   0  0  0  0  0  0  0  0  0  0  0  0
   -0.1220   16.1431  -27.9418 H   0  0  0  0  0  0  0  0  0  0  0  0
    1.5419   15.0013  -26.1430 H   0  0  0  0  0  0  0  0  0  0  0  0
    3.7296   16.5336  -26.0514 H   0  0  0  0  0  0  0  0  0  0  0  0
    0.4470   20.1040  -27.7338 H   0  0  0  0  0  0  0  0  0  0  0  0
   -1.1840   22.8640  -31.5670 H   0  0  0  0  0  0  0  0  0  0  0  0
   -3.6891   21.1320  -31.3863 H   0  0  0  0  0  0  0  0  0  0  0  0
   -8.1081   21.9524  -30.6005 H   0  0  0  0  0  0  0  0  0  0  0  0
   -7.9138   22.6722  -32.2570 H   0  0  0  0  0  0  0  0  0  0  0  0
   -9.5667   21.0926  -32.6112 H   0  0  0  0  0  0  0  0  0  0  0  0
   -8.9100   20.0067  -30.1845 H   0  0  0  0  0  0  0  0  0  0  0  0
  -10.1530   19.3977  -31.3293 H   0  0  0  0  0  0  0  0  0  0  0  0
   -8.5050   18.6830  -31.3293 H   0  0  0  0  0  0  0  0  0  0  0  0
   -8.5610   19.3650  -33.8490 H   0  0  0  0  0  0  0  0  0  0  0  0
   -6.9412   18.3716  -32.5984 H   0  0  0  0  0  0  0  0  0  0  0  0
   -4.7653   19.0254  -33.9705 H   0  0  0  0  0  0  0  0  0  0  0  0
   -6.1762   18.3590  -34.8604 H   0  0  0  0  0  0  0  0  0  0  0  0
   -5.8686   20.1288  -34.8604 H   0  0  0  0  0  0  0  0  0  0  0  0
   -5.9873   19.4900  -30.9523 H   0  0  0  0  0  0  0  0  0  0  0  0
   -4.8328   20.1396  -32.2058 H   0  0  0  0  0  0  0  0  0  0  0  0
   -6.9429   23.8903  -30.6590 H   0  0  0  0  0  0  0  0  0  0  0  0
   -5.3181   25.5754  -29.8035 H   0  0  0  0  0  0  0  0  0  0  0  0
  1  2  1  0
  2  3  1  0
  3  4  2  0
  4  5  1  0
  5  6  2  0
  6  7  1  0
  7  8  2  0
  8  9  1  0
  9 10  2  0
 10 11  1  0
  6 12  1  0
 12 13  2  0
 13 14  1  0
 14 15  2  0
 14 16  2  0
 14 17  1  0
 17 18  1  0
 18 19  2  0
 19 20  1  0
 20 21  1  0
 21 22  1  0
 22 23  1  0
 23 24  1  0
 23 25  1  0
 25 26  1  0
 26 27  1  0
 26 28  1  0
 20 29  2  0
 29 30  1  0
 30 31  2  0
 31 32  1  0
 13  3  1  0
 31 18  1  0
 11  7  1  0
 28 21  1  0
  1 33  1  0
  1 34  1  0
  1 35  1  0
  4 36  1  0
  5 37  1  0
  8 38  1  0
  9 39  1  0
 10 40  1  0
 12 41  1  0
 17 42  1  0
 19 43  1  0
 22 44  1  0
 22 45  1  0
 23 46  1  6
 24 47  1  0
 24 48  1  0
 24 49  1  0
 25 50  1  0
 26 51  1  1
 27 52  1  0
 27 53  1  0
 27 54  1  0
 28 55  1  0
 28 56  1  0
 29 57  1  0
 30 58  1  0
M  CHG  1  32  -1
M  END
>  <UniqueID>  (16) 
15

>  <SMILES>  (16) 
COc1ccc(-c2ccco2)cc1S(=O)(=O)Nc1cc(N2C[C@H](C)N[C@@H](C)C2)ccc1[O-]

>  <Energy>  (16) 
94.1175957610241

>  <Genealogy>  (16) 
COc1ccc(-c2ccco2)cc1S(=O)(=O)Nc1cc(N2CC(C)NC(C)C2)ccc1[O-] (protonated)
COc1ccc(-c2ccco2)cc1S(=O)(=O)Nc1cc(N2C[C@H](C)N[C@@H](C)C2)ccc1[O-] (chirality)
COc1ccc(-c2ccco2)cc1S(=O)(=O)Nc1cc(N2C[C@H](C)N[C@@H](C)C2)ccc1[O-] (3D coordinates assigned)
COc1ccc(-c2ccco2)cc1S(=O)(=O)Nc1cc(N2C[C@H](C)N[C@@H](C)C2)ccc1[O-] (nonaromatic ring conformer: 94.1175957610241 kcal/mol)

>  <smiles>  (16) 
COc1ccc(-c2ccco2)cc1S(=O)(=O)Nc1cc(N2CC(C)NC(C)C2)ccc1O

>  <score_type>  (16) 
oracle

>  <origin>  (16) 
adgpu

>  <m_score__min__energy>  (16) 
-12.880000000000001

>  <m_primary>  (16) 
energy

$$$$
16:0
     RDKit          3D

 41 44  0  0  0  0  0  0  0  0999 V2000
   -4.2430   15.2680  -34.9600 N   0  0  0  0  0  0  0  0  0  0  0  0
   -5.5910   15.2620  -33.8790 S   0  0  0  0  0  0  0  0  0  0  0  0
   -6.7830   14.6560  -34.5650 O   0  0  0  0  0  0  0  0  0  0  0  0
   -5.2590   14.4360  -32.6670 O   0  0  0  0  0  0  0  0  0  0  0  0
   -5.9570   16.9130  -33.3930 C   0  0  0  0  0  0  0  0  0  0  0  0
   -5.8070   17.9650  -34.3050 C   0  0  0  0  0  0  0  0  0  0  0  0
   -6.1100   19.2760  -33.9230 C   0  0  0  0  0  0  0  0  0  0  0  0
   -6.5720   19.5460  -32.6260 C   0  0  0  0  0  0  0  0  0  0  0  0
   -6.9010   20.8920  -32.2380 N   0  0  0  0  0  0  0  0  0  0  0  0
   -6.0760   21.8710  -31.7970 C   0  0  0  0  0  0  0  0  0  0  0  0
   -4.5990   21.8200  -31.7820 C   0  0  0  0  0  0  0  0  0  0  0  0
   -3.8900   21.0600  -32.7250 C   0  0  0  0  0  0  0  0  0  0  0  0
   -2.4940   21.0330  -32.7050 C   0  0  0  0  0  0  0  0  0  0  0  0
   -1.7830   21.7710  -31.7530 C   0  0  0  0  0  0  0  0  0  0  0  0
   -0.3880   21.7510  -31.8030 O   0  0  0  0  0  0  0  0  0  0  0  0
   -2.4830   22.5360  -30.7970 C   0  0  0  0  0  0  0  0  0  0  0  0
   -1.7900   23.2670  -29.7740 N   0  0  0  0  0  0  0  0  0  0  0  0
   -0.6770   22.8820  -29.1190 C   0  0  0  0  0  0  0  0  0  0  0  0
   -0.0550   21.6520  -29.2920 O   0  0  0  0  0  0  0  0  0  0  0  0
   -0.2460   23.8700  -28.2550 C   0  0  0  0  0  0  0  0  0  0  0  0
   -1.1350   24.9220  -28.4010 C   0  0  0  0  0  0  0  0  0  0  0  0
   -2.0560   24.5160  -29.3460 C   0  0  0  0  0  0  0  0  0  0  0  0
   -3.1070   25.2950  -29.8160 O   0  0  0  0  0  0  0  0  0  0  0  0
   -3.8870   22.5690  -30.8330 C   0  0  0  0  0  0  0  0  0  0  0  0
   -6.7770   22.9460  -31.3790 N   0  0  0  0  0  0  0  0  0  0  0  0
   -8.0610   22.6680  -31.5460 N   0  0  0  0  0  0  0  0  0  0  0  0
   -8.1270   21.4300  -32.0670 C   0  0  0  0  0  0  0  0  0  0  0  0
   -9.5440   20.6510  -32.3350 S   0  0  0  0  0  0  0  0  0  0  0  0
   -6.7270   18.4900  -31.7160 C   0  0  0  0  0  0  0  0  0  0  0  0
   -6.4220   17.1800  -32.0980 C   0  0  0  0  0  0  0  0  0  0  0  0
   -4.3820   14.4760  -35.6270 H   0  0  0  0  0  0  0  0  0  0  0  0
   -5.4498   17.7597  -35.3249 H   0  0  0  0  0  0  0  0  0  0  0  0
   -5.9856   20.0988  -34.6424 H   0  0  0  0  0  0  0  0  0  0  0  0
   -4.4372   20.4821  -33.4844 H   0  0  0  0  0  0  0  0  0  0  0  0
   -1.9492   20.4267  -33.4436 H   0  0  0  0  0  0  0  0  0  0  0  0
    0.1880   21.7020  -30.9720 H   0  0  0  0  0  0  0  0  0  0  0  0
    0.6266   23.8294  -27.5864 H   0  0  0  0  0  0  0  0  0  0  0  0
   -1.1119   25.8858  -27.8713 H   0  0  0  0  0  0  0  0  0  0  0  0
   -4.4347   23.1895  -30.1085 H   0  0  0  0  0  0  0  0  0  0  0  0
   -7.0900   18.6932  -30.6977 H   0  0  0  0  0  0  0  0  0  0  0  0
   -6.5474   16.3563  -31.3799 H   0  0  0  0  0  0  0  0  0  0  0  0
  1  2  1  0
  2  3  2  0
  2  4  2  0
  2  5  1  0
  5  6  2  0
  6  7  1  0
  7  8  2  0
  8  9  1  0
  9 10  1  0
 10 11  1  0
 11 12  2  0
 12 13  1  0
 13 14  2  0
 14 15  1  0
 14 16  1  0
 16 17  1  0
 17 18  1  0
 18 19  1  0
 18 20  2  0
 20 21  1  0
 21 22  2  0
 22 23  1  0
 16 24  2  0
 10 25  2  0
 25 26  1  0
 26 27  1  0
 27 28  2  0
  8 29  1  0
 29 30  2  0
 30  5  1  0
 27  9  1  0
 24 11  1  0
 22 17  1  0
  1 31  1  0
  6 32  1  0
  7 33  1  0
 12 34  1  0
 13 35  1  0
 15 36  1  0
 20 37  1  0
 21 38  1  0
 24 39  1  0
 29 40  1  0
 30 41  1  0
M  CHG  4   1  -1  19  -1  23  -1  26  -1
M  END
>  <UniqueID>  (17) 
16

>  <SMILES>  (17) 
[NH-]S(=O)(=O)c1ccc(-n2c(-c3ccc(O)c(-n4c([O-])ccc4[O-])c3)n[n-]c2=S)cc1

>  <Energy>  (17) 
126.30358500525791

>  <Genealogy>  (17) 
[NH-]S(=O)(=O)c1ccc(-n2c(-c3ccc(O)c(-n4c([O-])ccc4[O-])c3)n[n-]c2=S)cc1 (protonated)
[NH-]S(=O)(=O)c1ccc(-n2c(-c3ccc(O)c(-n4c([O-])ccc4[O-])c3)n[n-]c2=S)cc1 (3D coordinates assigned)
[NH-]S(=O)(=O)c1ccc(-n2c(-c3ccc(O)c(-n4c([O-])ccc4[O-])c3)n[n-]c2=S)cc1 (optimized conformer: 126.30358500525791 kcal/mol)

>  <smiles>  (17) 
NS(=O)(=O)c1ccc(-n2c(-c3ccc(O)c(-n4c(O)ccc4O)c3)n[nH]c2=S)cc1

>  <score_type>  (17) 
oracle

>  <origin>  (17) 
adgpu

>  <m_score__min__energy>  (17) 
-12.24

>  <m_primary>  (17) 
energy

$$$$
17:0
     RDKit          3D

 60 63  0  0  0  0  0  0  0  0999 V2000
    0.7590   21.5510  -33.5240 O   0  0  0  0  0  0  0  0  0  0  0  0
   -0.1940   21.0800  -32.8450 C   0  0  0  0  0  0  0  0  0  0  0  0
    0.0660   20.4970  -31.4900 C   0  0  0  0  0  0  0  0  0  0  0  0
   -0.8220   21.1120  -30.4510 C   0  0  0  0  0  0  0  0  0  0  0  0
   -1.3530   20.4600  -29.3440 C   0  0  0  0  0  0  0  0  0  0  0  0
   -2.1760   21.2810  -28.5620 C   0  0  0  0  0  0  0  0  0  0  0  0
   -2.2890   22.5730  -29.0630 C   0  0  0  0  0  0  0  0  0  0  0  0
   -3.2260   23.8880  -28.3700 S   0  0  0  0  0  0  0  0  0  0  0  0
   -2.7210   25.1760  -28.9610 O   0  0  0  0  0  0  0  0  0  0  0  0
   -3.0010   23.9080  -26.8840 O   0  0  0  0  0  0  0  0  0  0  0  0
   -4.9330   23.6920  -28.7350 N   0  0  0  0  0  0  0  0  0  0  0  0
   -5.1440   22.7490  -29.8510 C   0  0  0  0  0  0  0  0  0  0  0  0
   -4.7050   23.3480  -31.2090 C   0  0  0  0  0  0  0  0  0  0  0  0
   -4.6140   24.7630  -31.2020 O   0  0  0  0  0  0  0  0  0  0  0  0
   -5.6990   25.3210  -30.4960 C   0  0  0  0  0  0  0  0  0  0  0  0
   -5.5920   24.9970  -28.9930 C   0  0  0  0  0  0  0  0  0  0  0  0
   -1.3800   22.7000  -30.4690 S   0  0  0  0  0  0  0  0  0  0  0  0
   -1.5070   20.9810  -33.4090 N   0  0  0  0  0  0  0  0  0  0  0  0
   -2.2380   19.7650  -33.6270 C   0  0  0  0  0  0  0  0  0  0  0  0
   -1.5900   18.5660  -33.9680 C   0  0  0  0  0  0  0  0  0  0  0  0
   -2.3370   17.4070  -34.2030 C   0  0  0  0  0  0  0  0  0  0  0  0
   -3.7310   17.4370  -34.1010 C   0  0  0  0  0  0  0  0  0  0  0  0
   -4.3870   18.6300  -33.7710 C   0  0  0  0  0  0  0  0  0  0  0  0
   -6.1450   18.6550  -33.6400 S   0  0  0  0  0  0  0  0  0  0  0  0
   -6.6710   19.7100  -34.5730 O   0  0  0  0  0  0  0  0  0  0  0  0
   -6.7100   17.3270  -34.0620 O   0  0  0  0  0  0  0  0  0  0  0  0
   -6.6350   19.0350  -32.0010 N   0  0  0  0  0  0  0  0  0  0  0  0
   -7.8770   18.3370  -31.6140 C   0  0  0  0  0  0  0  0  0  0  0  0
   -9.1360   18.9410  -32.2650 C   0  0  0  0  0  0  0  0  0  0  0  0
   -9.0960   20.4790  -32.3470 C   0  0  0  0  0  0  0  0  0  0  0  0
   -8.0370   21.0710  -31.4190 C   0  0  0  0  0  0  0  0  0  0  0  0
   -6.6470   20.4990  -31.7510 C   0  0  0  0  0  0  0  0  0  0  0  0
   -3.6380   19.7960  -33.5540 C   0  0  0  0  0  0  0  0  0  0  0  0
   -0.1207   19.4135  -31.5246 H   0  0  0  0  0  0  0  0  0  0  0  0
    1.1117   20.7042  -31.2186 H   0  0  0  0  0  0  0  0  0  0  0  0
   -1.1477   19.4058  -29.1060 H   0  0  0  0  0  0  0  0  0  0  0  0
   -2.6806   20.9388  -27.6464 H   0  0  0  0  0  0  0  0  0  0  0  0
   -5.3700   23.2670  -27.8840 H   0  0  0  0  0  0  0  0  0  0  0  0
   -4.5598   21.8367  -29.6600 H   0  0  0  0  0  0  0  0  0  0  0  0
   -6.2200   22.5282  -29.9097 H   0  0  0  0  0  0  0  0  0  0  0  0
   -3.7179   22.9372  -31.4675 H   0  0  0  0  0  0  0  0  0  0  0  0
   -5.4762   23.0778  -31.9454 H   0  0  0  0  0  0  0  0  0  0  0  0
   -5.6956   26.4126  -30.6317 H   0  0  0  0  0  0  0  0  0  0  0  0
   -6.6340   24.8921  -30.8857 H   0  0  0  0  0  0  0  0  0  0  0  0
   -5.0077   25.7896  -28.5026 H   0  0  0  0  0  0  0  0  0  0  0  0
   -6.6145   24.9386  -28.5915 H   0  0  0  0  0  0  0  0  0  0  0  0
   -0.4934   18.5386  -34.0503 H   0  0  0  0  0  0  0  0  0  0  0  0
   -1.8264   16.4696  -34.4687 H   0  0  0  0  0  0  0  0  0  0  0  0
   -4.3141   16.5217  -34.2803 H   0  0  0  0  0  0  0  0  0  0  0  0
   -7.7962   17.2832  -31.9189 H   0  0  0  0  0  0  0  0  0  0  0  0
   -7.9875   18.4425  -30.5247 H   0  0  0  0  0  0  0  0  0  0  0  0
   -9.2303   18.5385  -33.2844 H   0  0  0  0  0  0  0  0  0  0  0  0
   -9.9944   18.6687  -31.6333 H   0  0  0  0  0  0  0  0  0  0  0  0
   -8.8674   20.7742  -33.3817 H   0  0  0  0  0  0  0  0  0  0  0  0
  -10.0778   20.8630  -32.0330 H   0  0  0  0  0  0  0  0  0  0  0  0
   -8.0175   22.1638  -31.5429 H   0  0  0  0  0  0  0  0  0  0  0  0
   -8.2894   20.8110  -30.3804 H   0  0  0  0  0  0  0  0  0  0  0  0
   -6.2716   21.0059  -32.6522 H   0  0  0  0  0  0  0  0  0  0  0  0
   -6.0141   20.6742  -30.8686 H   0  0  0  0  0  0  0  0  0  0  0  0
   -4.1523   20.7410  -33.3250 H   0  0  0  0  0  0  0  0  0  0  0  0
  1  2  2  0
  2  3  1  0
  3  4  1  0
  4  5  2  0
  5  6  1  0
  6  7  2  0
  7  8  1  0
  8  9  2  0
  8 10  2  0
  8 11  1  0
 11 12  1  0
 12 13  1  0
 13 14  1  0
 14 15  1  0
 15 16  1  0
  7 17  1  0
  2 18  1  0
 18 19  1  0
 19 20  2  0
 20 21  1  0
 21 22  2  0
 22 23  1  0
 23 24  1  0
 24 25  2  0
 24 26  2  0
 24 27  1  0
 27 28  1  0
 28 29  1  0
 29 30  1  0
 30 31  1  0
 31 32  1  0
 23 33  2  0
 17  4  1  0
 33 19  1  0
 16 11  1  0
 32 27  1  0
  3 34  1  0
  3 35  1  0
  5 36  1  0
  6 37  1  0
 11 38  1  0
 12 39  1  0
 12 40  1  0
 13 41  1  0
 13 42  1  0
 15 43  1  0
 15 44  1  0
 16 45  1  0
 16 46  1  0
 20 47  1  0
 21 48  1  0
 22 49  1  0
 28 50  1  0
 28 51  1  0
 29 52  1  0
 29 53  1  0
 30 54  1  0
 30 55  1  0
 31 56  1  0
 31 57  1  0
 32 58  1  0
 32 59  1  0
 33 60  1  0
M  CHG  2  11   1  18  -1
M  END
>  <UniqueID>  (18) 
17

>  <SMILES>  (18) 
O=C(Cc1ccc(S(=O)(=O)[NH+]2CCOCC2)s1)[N-]c1cccc(S(=O)(=O)N2CCCCC2)c1

>  <Energy>  (18) 
107.94227908994115

>  <Genealogy>  (18) 
O=C(Cc1ccc(S(=O)(=O)[NH+]2CCOCC2)s1)[N-]c1cccc(S(=O)(=O)N2CCCCC2)c1 (protonated)
O=C(Cc1ccc(S(=O)(=O)[NH+]2CCOCC2)s1)[N-]c1cccc(S(=O)(=O)N2CCCCC2)c1 (3D coordinates assigned)
O=C(Cc1ccc(S(=O)(=O)[NH+]2CCOCC2)s1)[N-]c1cccc(S(=O)(=O)N2CCCCC2)c1 (nonaromatic ring conformer: 107.94227908994115 kcal/mol)

>  <smiles>  (18) 
O=C(Cc1ccc(S(=O)(=O)N2CCOCC2)s1)Nc1cccc(S(=O)(=O)N2CCCCC2)c1

>  <score_type>  (18) 
oracle

>  <origin>  (18) 
adgpu

>  <m_score__min__energy>  (18) 
-12.789999999999999

>  <m_primary>  (18) 
energy

$$$$
18:0
     RDKit          3D

 49 51  0  0  0  0  0  0  0  0999 V2000
   -4.8760   20.5040  -33.0920 C   0  0  0  0  0  0  0  0  0  0  0  0
   -6.2450   19.8630  -33.3180 C   0  0  0  0  0  0  0  0  0  0  0  0
   -6.9220   19.5190  -31.9860 C   0  0  0  0  0  0  0  0  0  0  0  0
   -8.4350   20.5170  -31.7210 S   0  0  0  0  0  0  0  0  0  0  0  0
   -7.5540   22.0350  -31.3610 C   0  0  0  0  0  0  0  0  0  0  0  0
   -7.2960   22.9530  -32.3810 C   0  0  0  0  0  0  0  0  0  0  0  0
   -6.4940   24.0620  -32.1130 C   0  0  0  0  0  0  0  0  0  0  0  0
   -5.9680   24.2530  -30.8280 C   0  0  0  0  0  0  0  0  0  0  0  0
   -4.9580   25.3020  -30.5800 C   0  0  0  0  0  0  0  0  0  0  0  0
   -5.3230   26.5000  -30.4510 O   0  0  0  0  0  0  0  0  0  0  0  0
   -3.5610   24.9810  -30.4930 N   0  0  0  0  0  0  0  0  0  0  0  0
   -3.0220   23.9080  -29.7040 C   0  0  0  0  0  0  0  0  0  0  0  0
   -2.3860   24.1540  -28.4730 C   0  0  0  0  0  0  0  0  0  0  0  0
   -1.9640   23.0920  -27.6730 C   0  0  0  0  0  0  0  0  0  0  0  0
   -2.1320   21.7720  -28.1090 C   0  0  0  0  0  0  0  0  0  0  0  0
   -1.6690   20.4300  -27.0670 S   0  0  0  0  0  0  0  0  0  0  0  0
   -1.5540   20.9460  -25.6590 O   0  0  0  0  0  0  0  0  0  0  0  0
   -2.7270   19.3630  -27.1200 O   0  0  0  0  0  0  0  0  0  0  0  0
   -0.1300   19.7710  -27.5830 N   0  0  0  0  0  0  0  0  0  0  0  0
   -0.3280   18.5550  -28.3770 C   0  0  0  0  0  0  0  0  0  0  0  0
   -0.3930   18.9550  -29.8400 C   0  0  0  0  0  0  0  0  0  0  0  0
    0.2850   20.3100  -29.9140 C   0  0  0  0  0  0  0  0  0  0  0  0
    0.5620   20.7140  -28.4700 C   0  0  0  0  0  0  0  0  0  0  0  0
   -2.7150   21.5260  -29.3600 C   0  0  0  0  0  0  0  0  0  0  0  0
   -3.1510   22.5900  -30.1570 C   0  0  0  0  0  0  0  0  0  0  0  0
   -6.3270   23.3550  -29.8110 C   0  0  0  0  0  0  0  0  0  0  0  0
   -7.0910   22.2680  -30.1030 N   0  0  0  0  0  0  0  0  0  0  0  0
   -4.6865   20.5927  -32.0121 H   0  0  0  0  0  0  0  0  0  0  0  0
   -4.0973   19.8769  -33.5506 H   0  0  0  0  0  0  0  0  0  0  0  0
   -4.8590   21.5037  -33.5506 H   0  0  0  0  0  0  0  0  0  0  0  0
   -6.8830   20.5657  -33.8740 H   0  0  0  0  0  0  0  0  0  0  0  0
   -6.1046   18.9329  -33.8882 H   0  0  0  0  0  0  0  0  0  0  0  0
   -7.1934   18.4530  -31.9883 H   0  0  0  0  0  0  0  0  0  0  0  0
   -6.2155   19.7428  -31.1731 H   0  0  0  0  0  0  0  0  0  0  0  0
   -7.7206   22.8031  -33.3846 H   0  0  0  0  0  0  0  0  0  0  0  0
   -6.2742   24.7871  -32.9104 H   0  0  0  0  0  0  0  0  0  0  0  0
   -2.2208   25.1892  -28.1398 H   0  0  0  0  0  0  0  0  0  0  0  0
   -1.4979   23.2921  -26.6969 H   0  0  0  0  0  0  0  0  0  0  0  0
    0.5121   17.8633  -28.2162 H   0  0  0  0  0  0  0  0  0  0  0  0
   -1.2583   18.0503  -28.0773 H   0  0  0  0  0  0  0  0  0  0  0  0
    0.1402   18.2226  -30.4639 H   0  0  0  0  0  0  0  0  0  0  0  0
   -1.4284   18.9933  -30.2095 H   0  0  0  0  0  0  0  0  0  0  0  0
    1.2261   20.2373  -30.4789 H   0  0  0  0  0  0  0  0  0  0  0  0
   -0.3447   21.0508  -30.4285 H   0  0  0  0  0  0  0  0  0  0  0  0
    1.6442   20.6802  -28.2761 H   0  0  0  0  0  0  0  0  0  0  0  0
    0.2012   21.7372  -28.2884 H   0  0  0  0  0  0  0  0  0  0  0  0
   -2.8302   20.4918  -29.7165 H   0  0  0  0  0  0  0  0  0  0  0  0
   -3.5965   22.3901  -31.1427 H   0  0  0  0  0  0  0  0  0  0  0  0
   -5.9908   23.5300  -28.7784 H   0  0  0  0  0  0  0  0  0  0  0  0
  1  2  1  0
  2  3  1  0
  3  4  1  0
  4  5  1  0
  5  6  2  0
  6  7  1  0
  7  8  2  0
  8  9  1  0
  9 10  2  0
  9 11  1  0
 11 12  1  0
 12 13  2  0
 13 14  1  0
 14 15  2  0
 15 16  1  0
 16 17  2  0
 16 18  2  0
 16 19  1  0
 19 20  1  0
 20 21  1  0
 21 22  1  0
 22 23  1  0
 15 24  1  0
 24 25  2  0
  8 26  1  0
 26 27  2  0
 27  5  1  0
 25 12  1  0
 23 19  1  0
  1 28  1  0
  1 29  1  0
  1 30  1  0
  2 31  1  0
  2 32  1  0
  3 33  1  0
  3 34  1  0
  6 35  1  0
  7 36  1  0
 13 37  1  0
 14 38  1  0
 20 39  1  0
 20 40  1  0
 21 41  1  0
 21 42  1  0
 22 43  1  0
 22 44  1  0
 23 45  1  0
 23 46  1  0
 24 47  1  0
 25 48  1  0
 26 49  1  0
M  CHG  1  11  -1
M  END
>  <UniqueID>  (19) 
18

>  <SMILES>  (19) 
CCCSc1ccc(C(=O)[N-]c2ccc(S(=O)(=O)N3CCCC3)cc2)cn1

>  <Energy>  (19) 
49.401559689064435

>  <Genealogy>  (19) 
CCCSc1ccc(C(=O)[N-]c2ccc(S(=O)(=O)N3CCCC3)cc2)cn1 (protonated)
CCCSc1ccc(C(=O)[N-]c2ccc(S(=O)(=O)N3CCCC3)cc2)cn1 (3D coordinates assigned)
CCCSc1ccc(C(=O)[N-]c2ccc(S(=O)(=O)N3CCCC3)cc2)cn1 (nonaromatic ring conformer: 49.401559689064435 kcal/mol)

>  <smiles>  (19) 
CCCSc1ccc(C(=O)Nc2ccc(S(=O)(=O)N3CCCC3)cc2)cn1

>  <score_type>  (19) 
oracle

>  <origin>  (19) 
adgpu

>  <m_score__min__energy>  (19) 
-10.970000000000001

>  <m_primary>  (19) 
energy

$$$$
19:0
     RDKit          3D

 51 54  0  0  0  0  0  0  0  0999 V2000
   -1.5800   20.5610  -26.4660 C   0  0  0  0  0  0  0  0  0  0  0  0
   -1.5130   21.7760  -27.2050 O   0  0  0  0  0  0  0  0  0  0  0  0
   -1.8730   21.9050  -28.5540 C   0  0  0  0  0  0  0  0  0  0  0  0
   -2.5760   23.0230  -29.0430 C   0  0  0  0  0  0  0  0  0  0  0  0
   -2.9260   23.1090  -30.3960 C   0  0  0  0  0  0  0  0  0  0  0  0
   -3.6410   24.2510  -30.8680 N   0  0  0  0  0  0  0  0  0  0  0  0
   -5.2510   24.5720  -30.3250 S   0  0  0  0  0  0  0  0  0  0  0  0
   -5.2790   24.6180  -28.8230 O   0  0  0  0  0  0  0  0  0  0  0  0
   -5.6950   25.9070  -30.8530 O   0  0  0  0  0  0  0  0  0  0  0  0
   -6.3340   23.3170  -30.9190 C   0  0  0  0  0  0  0  0  0  0  0  0
   -7.6210   23.6450  -31.3560 C   0  0  0  0  0  0  0  0  0  0  0  0
   -8.4560   22.6570  -31.8790 C   0  0  0  0  0  0  0  0  0  0  0  0
   -8.0110   21.3340  -31.9850 C   0  0  0  0  0  0  0  0  0  0  0  0
   -9.1240   20.1350  -32.6310 Cl  0  0  0  0  0  0  0  0  0  0  0  0
   -6.7060   20.9980  -31.5660 C   0  0  0  0  0  0  0  0  0  0  0  0
   -6.0910   19.3430  -31.7030 S   0  0  0  0  0  0  0  0  0  0  0  0
   -4.6690   19.3190  -31.2160 O   0  0  0  0  0  0  0  0  0  0  0  0
   -6.9240   18.4200  -30.8560 O   0  0  0  0  0  0  0  0  0  0  0  0
   -6.1510   18.7990  -33.3640 N   0  0  0  0  0  0  0  0  0  0  0  0
   -6.8860   17.5180  -33.4790 C   0  0  0  0  0  0  0  0  0  0  0  0
   -5.9560   16.3310  -33.7790 C   0  0  0  0  0  0  0  0  0  0  0  0
   -5.2010   16.5080  -34.9690 O   0  0  0  0  0  0  0  0  0  0  0  0
   -4.7630   17.8460  -35.1770 C   0  0  0  0  0  0  0  0  0  0  0  0
   -4.7870   18.7300  -33.9190 C   0  0  0  0  0  0  0  0  0  0  0  0
   -5.8830   21.9950  -31.0190 C   0  0  0  0  0  0  0  0  0  0  0  0
   -2.5730   22.0740  -31.2750 C   0  0  0  0  0  0  0  0  0  0  0  0
   -2.9210   22.1370  -32.5900 N   0  0  0  0  0  0  0  0  0  0  0  0
   -2.6190   21.1370  -33.4610 C   0  0  0  0  0  0  0  0  0  0  0  0
   -1.9260   20.0080  -33.0190 C   0  0  0  0  0  0  0  0  0  0  0  0
   -1.5440   19.9170  -31.6800 C   0  0  0  0  0  0  0  0  0  0  0  0
   -1.8660   20.9510  -30.7910 C   0  0  0  0  0  0  0  0  0  0  0  0
   -1.5160   20.8780  -29.4360 C   0  0  0  0  0  0  0  0  0  0  0  0
   -1.5676   20.7856  -25.3892 H   0  0  0  0  0  0  0  0  0  0  0  0
   -2.5089   20.0288  -26.7189 H   0  0  0  0  0  0  0  0  0  0  0  0
   -0.7153   19.9299  -26.7189 H   0  0  0  0  0  0  0  0  0  0  0  0
   -2.8527   23.8361  -28.3558 H   0  0  0  0  0  0  0  0  0  0  0  0
   -7.9759   24.6839  -31.2874 H   0  0  0  0  0  0  0  0  0  0  0  0
   -9.4715   22.9197  -32.2105 H   0  0  0  0  0  0  0  0  0  0  0  0
   -7.4095   17.3252  -32.5310 H   0  0  0  0  0  0  0  0  0  0  0  0
   -7.5909   17.6110  -34.3183 H   0  0  0  0  0  0  0  0  0  0  0  0
   -5.2596   16.2089  -32.9363 H   0  0  0  0  0  0  0  0  0  0  0  0
   -6.5891   15.4424  -33.9186 H   0  0  0  0  0  0  0  0  0  0  0  0
   -3.7303   17.8142  -35.5544 H   0  0  0  0  0  0  0  0  0  0  0  0
   -5.4689   18.2980  -35.8893 H   0  0  0  0  0  0  0  0  0  0  0  0
   -4.1098   18.3041  -33.1640 H   0  0  0  0  0  0  0  0  0  0  0  0
   -4.4610   19.7449  -34.1904 H   0  0  0  0  0  0  0  0  0  0  0  0
   -4.8742   21.7354  -30.6655 H   0  0  0  0  0  0  0  0  0  0  0  0
   -2.9212   21.2177  -34.5156 H   0  0  0  0  0  0  0  0  0  0  0  0
   -1.6831   19.1967  -33.7210 H   0  0  0  0  0  0  0  0  0  0  0  0
   -0.9913   19.0354  -31.3232 H   0  0  0  0  0  0  0  0  0  0  0  0
   -0.9567   20.0075  -29.0627 H   0  0  0  0  0  0  0  0  0  0  0  0
  1  2  1  0
  2  3  1  0
  3  4  2  0
  4  5  1  0
  5  6  1  0
  6  7  1  0
  7  8  2  0
  7  9  2  0
  7 10  1  0
 10 11  2  0
 11 12  1  0
 12 13  2  0
 13 14  1  0
 13 15  1  0
 15 16  1  0
 16 17  2  0
 16 18  2  0
 16 19  1  0
 19 20  1  0
 20 21  1  0
 21 22  1  0
 22 23  1  0
 23 24  1  0
 15 25  2  0
  5 26  2  0
 26 27  1  0
 27 28  2  0
 28 29  1  0
 29 30  2  0
 30 31  1  0
 31 32  2  0
 32  3  1  0
 25 10  1  0
 31 26  1  0
 24 19  1  0
  1 33  1  0
  1 34  1  0
  1 35  1  0
  4 36  1  0
 11 37  1  0
 12 38  1  0
 20 39  1  0
 20 40  1  0
 21 41  1  0
 21 42  1  0
 23 43  1  0
 23 44  1  0
 24 45  1  0
 24 46  1  0
 25 47  1  0
 28 48  1  0
 29 49  1  0
 30 50  1  0
 32 51  1  0
M  CHG  1   6  -1
M  END
>  <UniqueID>  (20) 
19

>  <SMILES>  (20) 
COc1cc([N-]S(=O)(=O)c2ccc(Cl)c(S(=O)(=O)N3CCOCC3)c2)c2ncccc2c1

>  <Energy>  (20) 
75.20231594418517

>  <Genealogy>  (20) 
COc1cc([N-]S(=O)(=O)c2ccc(Cl)c(S(=O)(=O)N3CCOCC3)c2)c2ncccc2c1 (protonated)
COc1cc([N-]S(=O)(=O)c2ccc(Cl)c(S(=O)(=O)N3CCOCC3)c2)c2ncccc2c1 (3D coordinates assigned)
COc1cc([N-]S(=O)(=O)c2ccc(Cl)c(S(=O)(=O)N3CCOCC3)c2)c2ncccc2c1 (nonaromatic ring conformer: 75.20231594418517 kcal/mol)

>  <smiles>  (20) 
COc1cc(NS(=O)(=O)c2ccc(Cl)c(S(=O)(=O)N3CCOCC3)c2)c2ncccc2c1

>  <score_type>  (20) 
oracle

>  <origin>  (20) 
adgpu

>  <m_score__min__energy>  (20) 
-11.52

>  <m_primary>  (20) 
energy

$$$$
20:0
     RDKit          3D

 54 57  0  0  0  0  0  0  0  0999 V2000
   -3.4540   16.9170  -34.5260 C   0  0  0  0  0  0  0  0  0  0  0  0
   -4.6390   17.4950  -33.7460 C   0  0  0  0  0  0  0  0  0  0  0  0
   -4.9630   18.9320  -34.2130 C   0  0  0  0  0  0  0  0  0  0  0  0
   -6.3920   19.3640  -33.8340 C   0  0  0  0  0  0  0  0  0  0  0  0
   -6.8860   18.5710  -32.6960 N   0  0  0  0  0  0  0  0  0  0  0  0
   -8.3910   19.2350  -32.1120 S   0  0  0  0  0  0  0  0  0  0  0  0
   -8.7330   18.6290  -30.7790 O   0  0  0  0  0  0  0  0  0  0  0  0
   -9.4910   18.9300  -33.0910 O   0  0  0  0  0  0  0  0  0  0  0  0
   -8.2360   20.9780  -31.9140 C   0  0  0  0  0  0  0  0  0  0  0  0
   -9.3200   21.8220  -32.1840 C   0  0  0  0  0  0  0  0  0  0  0  0
   -9.1870   23.2030  -32.0280 C   0  0  0  0  0  0  0  0  0  0  0  0
   -7.9760   23.7500  -31.5990 C   0  0  0  0  0  0  0  0  0  0  0  0
   -6.8790   22.9150  -31.3160 C   0  0  0  0  0  0  0  0  0  0  0  0
   -5.5840   23.4700  -30.8630 C   0  0  0  0  0  0  0  0  0  0  0  0
   -4.8020   23.0360  -29.8080 C   0  0  0  0  0  0  0  0  0  0  0  0
   -3.7220   23.8950  -29.8220 C   0  0  0  0  0  0  0  0  0  0  0  0
   -2.5630   23.8320  -28.9040 C   0  0  0  0  0  0  0  0  0  0  0  0
   -1.7100   24.7600  -28.9610 O   0  0  0  0  0  0  0  0  0  0  0  0
   -2.3770   22.7530  -27.9590 N   0  0  0  0  0  0  0  0  0  0  0  0
   -3.0050   21.4390  -28.1660 C   0  0  0  0  0  0  0  0  0  0  0  0
   -2.3200   20.3750  -27.3060 C   0  0  0  0  0  0  0  0  0  0  0  0
   -0.9290   20.6140  -27.2870 O   0  0  0  0  0  0  0  0  0  0  0  0
   -0.6380   21.7450  -26.4820 C   0  0  0  0  0  0  0  0  0  0  0  0
   -1.5620   22.9580  -26.7510 C   0  0  0  0  0  0  0  0  0  0  0  0
   -3.8590   24.7710  -30.8360 N   0  0  0  0  0  0  0  0  0  0  0  0
   -4.9810   24.4910  -31.4330 O   0  0  0  0  0  0  0  0  0  0  0  0
   -7.0220   21.5260  -31.4730 C   0  0  0  0  0  0  0  0  0  0  0  0
   -7.0820   17.1600  -33.0880 C   0  0  0  0  0  0  0  0  0  0  0  0
   -5.8780   16.5940  -33.8780 C   0  0  0  0  0  0  0  0  0  0  0  0
   -2.6958   16.5472  -33.8201 H   0  0  0  0  0  0  0  0  0  0  0  0
   -3.8014   16.0872  -35.1590 H   0  0  0  0  0  0  0  0  0  0  0  0
   -3.0139   17.7016  -35.1590 H   0  0  0  0  0  0  0  0  0  0  0  0
   -4.3528   17.5345  -32.6846 H   0  0  0  0  0  0  0  0  0  0  0  0
   -4.2485   19.6252  -33.7450 H   0  0  0  0  0  0  0  0  0  0  0  0
   -4.8857   18.9537  -35.3101 H   0  0  0  0  0  0  0  0  0  0  0  0
   -6.3870   20.4288  -33.5581 H   0  0  0  0  0  0  0  0  0  0  0  0
   -7.0541   19.1987  -34.6967 H   0  0  0  0  0  0  0  0  0  0  0  0
  -10.2774   21.3966  -32.5194 H   0  0  0  0  0  0  0  0  0  0  0  0
  -10.0400   23.8631  -32.2440 H   0  0  0  0  0  0  0  0  0  0  0  0
   -7.8789   24.8394  -31.4816 H   0  0  0  0  0  0  0  0  0  0  0  0
   -4.9957   22.2010  -29.1186 H   0  0  0  0  0  0  0  0  0  0  0  0
   -4.0680   21.4985  -27.8894 H   0  0  0  0  0  0  0  0  0  0  0  0
   -2.9032   21.1595  -29.2250 H   0  0  0  0  0  0  0  0  0  0  0  0
   -2.7148   20.4217  -26.2803 H   0  0  0  0  0  0  0  0  0  0  0  0
   -2.5166   19.3782  -27.7277 H   0  0  0  0  0  0  0  0  0  0  0  0
   -0.7441   21.4557  -25.4261 H   0  0  0  0  0  0  0  0  0  0  0  0
    0.3858   22.0607  -26.7312 H   0  0  0  0  0  0  0  0  0  0  0  0
   -2.2296   23.0980  -25.8880 H   0  0  0  0  0  0  0  0  0  0  0  0
   -0.9320   23.8466  -26.9044 H   0  0  0  0  0  0  0  0  0  0  0  0
   -6.1743   20.8621  -31.2481 H   0  0  0  0  0  0  0  0  0  0  0  0
   -7.2226   16.5571  -32.1787 H   0  0  0  0  0  0  0  0  0  0  0  0
   -7.9644   17.1137  -33.7432 H   0  0  0  0  0  0  0  0  0  0  0  0
   -5.6349   15.5939  -33.4897 H   0  0  0  0  0  0  0  0  0  0  0  0
   -6.1564   16.5463  -34.9411 H   0  0  0  0  0  0  0  0  0  0  0  0
  1  2  1  0
  2  3  1  0
  3  4  1  0
  4  5  1  0
  5  6  1  0
  6  7  2  0
  6  8  2  0
  6  9  1  0
  9 10  2  0
 10 11  1  0
 11 12  2  0
 12 13  1  0
 13 14  1  0
 14 15  2  0
 15 16  1  0
 16 17  1  0
 17 18  2  0
 17 19  1  0
 19 20  1  0
 20 21  1  0
 21 22  1  0
 22 23  1  0
 23 24  1  0
 16 25  2  0
 25 26  1  0
 13 27  2  0
  5 28  1  0
 28 29  1  0
 29  2  1  0
 27  9  1  0
 26 14  1  0
 24 19  1  0
  1 30  1  0
  1 31  1  0
  1 32  1  0
  2 33  1  0
  3 34  1  0
  3 35  1  0
  4 36  1  0
  4 37  1  0
 10 38  1  0
 11 39  1  0
 12 40  1  0
 15 41  1  0
 20 42  1  0
 20 43  1  0
 21 44  1  0
 21 45  1  0
 23 46  1  0
 23 47  1  0
 24 48  1  0
 24 49  1  0
 27 50  1  0
 28 51  1  0
 28 52  1  0
 29 53  1  0
 29 54  1  0
M  END
>  <UniqueID>  (21) 
20

>  <SMILES>  (21) 
CC1CCN(S(=O)(=O)c2cccc(-c3cc(C(=O)N4CCOCC4)no3)c2)CC1

>  <Energy>  (21) 
97.20169016483337

>  <Genealogy>  (21) 
CC1CCN(S(=O)(=O)c2cccc(-c3cc(C(=O)N4CCOCC4)no3)c2)CC1 (3D coordinates assigned)
CC1CCN(S(=O)(=O)c2cccc(-c3cc(C(=O)N4CCOCC4)no3)c2)CC1 (nonaromatic ring conformer: 97.20169016483337 kcal/mol)

>  <smiles>  (21) 
CC1CCN(S(=O)(=O)c2cccc(-c3cc(C(=O)N4CCOCC4)no3)c2)CC1

>  <score_type>  (21) 
oracle

>  <origin>  (21) 
adgpu

>  <m_score__min__energy>  (21) 
-11.029999999999999

>  <m_primary>  (21) 
energy

$$$$
21:0
     RDKit          3D

 65 68  0  0  0  0  0  0  0  0999 V2000
   -1.0760   21.8920  -33.8850 O   0  0  0  0  0  0  0  0  0  0  0  0
   -1.2040   20.8890  -33.1330 C   0  0  0  0  0  0  0  0  0  0  0  0
   -0.9730   19.5740  -33.6530 N   0  0  0  0  0  0  0  0  0  0  0  0
   -1.9830   18.6090  -33.9820 C   0  0  0  0  0  0  0  0  0  0  0  0
   -1.6660   17.3950  -34.6170 C   0  0  0  0  0  0  0  0  0  0  0  0
   -2.6770   16.4890  -34.9430 C   0  0  0  0  0  0  0  0  0  0  0  0
   -4.0100   16.7900  -34.6560 C   0  0  0  0  0  0  0  0  0  0  0  0
   -4.3420   18.0100  -34.0510 C   0  0  0  0  0  0  0  0  0  0  0  0
   -6.0300   18.4010  -33.7070 S   0  0  0  0  0  0  0  0  0  0  0  0
   -6.4490   19.5720  -34.5520 O   0  0  0  0  0  0  0  0  0  0  0  0
   -6.8940   17.2280  -34.0820 O   0  0  0  0  0  0  0  0  0  0  0  0
   -6.2630   18.7990  -32.0200 N   0  0  0  0  0  0  0  0  0  0  0  0
   -7.6700   18.5980  -31.6220 C   0  0  0  0  0  0  0  0  0  0  0  0
   -8.5860   19.1960  -32.6910 C   0  0  0  0  0  0  0  0  0  0  0  0
   -9.0910   20.6000  -32.3390 C   0  0  0  0  0  0  0  0  0  0  0  0
   -7.9950   21.5260  -31.7860 C   0  0  0  0  0  0  0  0  0  0  0  0
   -6.6290   21.2690  -32.4450 C   0  0  0  0  0  0  0  0  0  0  0  0
   -5.7850   20.1710  -31.7620 C   0  0  0  0  0  0  0  0  0  0  0  0
   -3.3240   18.9170  -33.7200 C   0  0  0  0  0  0  0  0  0  0  0  0
   -1.6420   21.0820  -31.7290 C   0  0  0  0  0  0  0  0  0  0  0  0
   -2.4680   22.1850  -31.4400 C   0  0  0  0  0  0  0  0  0  0  0  0
   -3.0150   22.3600  -30.1630 C   0  0  0  0  0  0  0  0  0  0  0  0
   -4.0660   23.7350  -29.8290 S   0  0  0  0  0  0  0  0  0  0  0  0
   -5.4050   23.2200  -29.3720 O   0  0  0  0  0  0  0  0  0  0  0  0
   -4.2540   24.5250  -31.0960 O   0  0  0  0  0  0  0  0  0  0  0  0
   -3.3150   24.7250  -28.5920 N   0  0  0  0  0  0  0  0  0  0  0  0
   -1.8470   24.6340  -28.6770 C   0  0  0  0  0  0  0  0  0  0  0  0
   -1.1990   25.6010  -27.6820 C   0  0  0  0  0  0  0  0  0  0  0  0
   -1.6820   25.3080  -26.2590 C   0  0  0  0  0  0  0  0  0  0  0  0
   -3.2110   25.2960  -26.1960 C   0  0  0  0  0  0  0  0  0  0  0  0
   -3.7870   24.3440  -27.2510 C   0  0  0  0  0  0  0  0  0  0  0  0
   -2.7320   21.4320  -29.1570 C   0  0  0  0  0  0  0  0  0  0  0  0
   -1.8930   20.3480  -29.4190 C   0  0  0  0  0  0  0  0  0  0  0  0
   -1.3200   20.1760  -30.6860 C   0  0  0  0  0  0  0  0  0  0  0  0
   -0.4220   19.1210  -30.8520 O   0  0  0  0  0  0  0  0  0  0  0  0
   -0.6190   17.1586  -34.8574 H   0  0  0  0  0  0  0  0  0  0  0  0
   -2.4226   15.5348  -35.4276 H   0  0  0  0  0  0  0  0  0  0  0  0
   -4.8015   16.0679  -34.9053 H   0  0  0  0  0  0  0  0  0  0  0  0
   -7.8741   17.5216  -31.5230 H   0  0  0  0  0  0  0  0  0  0  0  0
   -7.8554   19.0935  -30.6576 H   0  0  0  0  0  0  0  0  0  0  0  0
   -8.0281   19.2525  -33.6373 H   0  0  0  0  0  0  0  0  0  0  0  0
   -9.4672   18.5422  -32.7684 H   0  0  0  0  0  0  0  0  0  0  0  0
   -9.5077   21.0581  -33.2481 H   0  0  0  0  0  0  0  0  0  0  0  0
   -9.8454   20.4831  -31.5470 H   0  0  0  0  0  0  0  0  0  0  0  0
   -8.2868   22.5702  -31.9716 H   0  0  0  0  0  0  0  0  0  0  0  0
   -7.8937   21.3235  -30.7096 H   0  0  0  0  0  0  0  0  0  0  0  0
   -6.8022   20.9695  -33.4892 H   0  0  0  0  0  0  0  0  0  0  0  0
   -6.0573   22.2044  -32.3550 H   0  0  0  0  0  0  0  0  0  0  0  0
   -4.7509   20.2516  -32.1283 H   0  0  0  0  0  0  0  0  0  0  0  0
   -5.8644   20.3370  -30.6775 H   0  0  0  0  0  0  0  0  0  0  0  0
   -3.5812   19.8781  -33.2508 H   0  0  0  0  0  0  0  0  0  0  0  0
   -2.6867   22.9198  -32.2288 H   0  0  0  0  0  0  0  0  0  0  0  0
   -1.5324   23.6064  -28.4425 H   0  0  0  0  0  0  0  0  0  0  0  0
   -1.5291   24.9006  -29.6958 H   0  0  0  0  0  0  0  0  0  0  0  0
   -0.1059   25.4857  -27.7244 H   0  0  0  0  0  0  0  0  0  0  0  0
   -1.4819   26.6298  -27.9494 H   0  0  0  0  0  0  0  0  0  0  0  0
   -1.3003   24.3257  -25.9436 H   0  0  0  0  0  0  0  0  0  0  0  0
   -1.3076   26.0969  -25.5900 H   0  0  0  0  0  0  0  0  0  0  0  0
   -3.5291   24.9635  -25.1969 H   0  0  0  0  0  0  0  0  0  0  0  0
   -3.5822   26.3122  -26.3948 H   0  0  0  0  0  0  0  0  0  0  0  0
   -3.4617   23.3168  -27.0297 H   0  0  0  0  0  0  0  0  0  0  0  0
   -4.8851   24.4039  -27.2268 H   0  0  0  0  0  0  0  0  0  0  0  0
   -3.1716   21.5563  -28.1564 H   0  0  0  0  0  0  0  0  0  0  0  0
   -1.6792   19.6206  -28.6220 H   0  0  0  0  0  0  0  0  0  0  0  0
   -0.1680   18.7510  -31.7580 H   0  0  0  0  0  0  0  0  0  0  0  0
  1  2  2  0
  2  3  1  0
  3  4  1  0
  4  5  2  0
  5  6  1  0
  6  7  2  0
  7  8  1  0
  8  9  1  0
  9 10  2  0
  9 11  2  0
  9 12  1  0
 12 13  1  0
 13 14  1  0
 14 15  1  0
 15 16  1  0
 16 17  1  0
 17 18  1  0
  8 19  2  0
  2 20  1  0
 20 21  2  0
 21 22  1  0
 22 23  1  0
 23 24  2  0
 23 25  2  0
 23 26  1  0
 26 27  1  0
 27 28  1  0
 28 29  1  0
 29 30  1  0
 30 31  1  0
 22 32  2  0
 32 33  1  0
 33 34  2  0
 34 35  1  0
 19  4  1  0
 34 20  1  0
 18 12  1  0
 31 26  1  0
  5 36  1  0
  6 37  1  0
  7 38  1  0
 13 39  1  0
 13 40  1  0
 14 41  1  0
 14 42  1  0
 15 43  1  0
 15 44  1  0
 16 45  1  0
 16 46  1  0
 17 47  1  0
 17 48  1  0
 18 49  1  0
 18 50  1  0
 19 51  1  0
 21 52  1  0
 27 53  1  0
 27 54  1  0
 28 55  1  0
 28 56  1  0
 29 57  1  0
 29 58  1  0
 30 59  1  0
 30 60  1  0
 31 61  1  0
 31 62  1  0
 32 63  1  0
 33 64  1  0
 35 65  1  0
M  CHG  1   3  -1
M  END
>  <UniqueID>  (22) 
21

>  <SMILES>  (22) 
O=C([N-]c1cccc(S(=O)(=O)N2CCCCCC2)c1)c1cc(S(=O)(=O)N2CCCCC2)ccc1O

>  <Energy>  (22) 
75.31027768352874

>  <Genealogy>  (22) 
O=C([N-]c1cccc(S(=O)(=O)N2CCCCCC2)c1)c1cc(S(=O)(=O)N2CCCCC2)ccc1O (protonated)
O=C([N-]c1cccc(S(=O)(=O)N2CCCCCC2)c1)c1cc(S(=O)(=O)N2CCCCC2)ccc1O (3D coordinates assigned)
O=C([N-]c1cccc(S(=O)(=O)N2CCCCCC2)c1)c1cc(S(=O)(=O)N2CCCCC2)ccc1O (nonaromatic ring conformer: 75.31027768352874 kcal/mol)

>  <smiles>  (22) 
O=C(Nc1cccc(S(=O)(=O)N2CCCCCC2)c1)c1cc(S(=O)(=O)N2CCCCC2)ccc1O

>  <score_type>  (22) 
oracle

>  <origin>  (22) 
adgpu

>  <m_score__min__energy>  (22) 
-10.82

>  <m_primary>  (22) 
energy

$$$$
22:0
     RDKit          3D

 57 60  0  0  0  0  0  0  0  0999 V2000
    2.2610   25.5700  -25.9060 C   0  0  0  0  0  0  0  0  0  0  0  0
    0.9670   25.0890  -26.4800 C   0  0  0  0  0  0  0  0  0  0  0  0
    0.3160   23.9800  -25.9290 C   0  0  0  0  0  0  0  0  0  0  0  0
   -0.8770   23.5350  -26.4960 C   0  0  0  0  0  0  0  0  0  0  0  0
   -1.4130   24.1890  -27.6130 C   0  0  0  0  0  0  0  0  0  0  0  0
   -2.6520   23.7360  -28.1790 N   0  0  0  0  0  0  0  0  0  0  0  0
   -2.6500   22.5460  -29.0370 C   0  0  0  0  0  0  0  0  0  0  0  0
   -4.0270   22.3210  -29.6600 C   0  0  0  0  0  0  0  0  0  0  0  0
   -4.6020   23.6240  -30.0160 N   0  0  0  0  0  0  0  0  0  0  0  0
   -5.9900   23.4140  -31.0540 S   0  0  0  0  0  0  0  0  0  0  0  0
   -6.0260   24.5250  -32.0670 O   0  0  0  0  0  0  0  0  0  0  0  0
   -7.2480   23.4930  -30.2330 O   0  0  0  0  0  0  0  0  0  0  0  0
   -5.9410   21.8650  -31.8990 C   0  0  0  0  0  0  0  0  0  0  0  0
   -4.8220   21.5110  -32.6670 C   0  0  0  0  0  0  0  0  0  0  0  0
   -4.7890   20.2860  -33.3370 C   0  0  0  0  0  0  0  0  0  0  0  0
   -5.8690   19.3990  -33.2440 C   0  0  0  0  0  0  0  0  0  0  0  0
   -5.8160   17.8410  -34.0720 S   0  0  0  0  0  0  0  0  0  0  0  0
   -5.6820   18.0740  -35.5510 O   0  0  0  0  0  0  0  0  0  0  0  0
   -7.1090   17.1120  -33.8340 O   0  0  0  0  0  0  0  0  0  0  0  0
   -4.4830   16.8490  -33.5200 N   0  0  0  0  0  0  0  0  0  0  0  0
   -4.9240   15.8810  -32.5110 C   0  0  0  0  0  0  0  0  0  0  0  0
   -5.1550   14.5430  -33.1960 C   0  0  0  0  0  0  0  0  0  0  0  0
   -4.5050   14.6590  -34.5590 C   0  0  0  0  0  0  0  0  0  0  0  0
   -3.9170   16.0610  -34.6210 C   0  0  0  0  0  0  0  0  0  0  0  0
   -6.9910   19.7550  -32.4830 C   0  0  0  0  0  0  0  0  0  0  0  0
   -7.0250   20.9800  -31.8110 C   0  0  0  0  0  0  0  0  0  0  0  0
   -4.9800   24.3840  -28.8080 C   0  0  0  0  0  0  0  0  0  0  0  0
   -3.9150   24.3030  -27.6900 C   0  0  0  0  0  0  0  0  0  0  0  0
   -0.7170   25.2930  -28.1550 C   0  0  0  0  0  0  0  0  0  0  0  0
   -1.1460   25.9180  -29.2070 N   0  0  0  0  0  0  0  0  0  0  0  0
    0.4430   25.7030  -27.5760 N   0  0  0  0  0  0  0  0  0  0  0  0
    2.2051   25.5492  -24.8076 H   0  0  0  0  0  0  0  0  0  0  0  0
    3.0779   24.9155  -26.2440 H   0  0  0  0  0  0  0  0  0  0  0  0
    2.4520   26.5992  -26.2440 H   0  0  0  0  0  0  0  0  0  0  0  0
    0.7419   23.4638  -25.0560 H   0  0  0  0  0  0  0  0  0  0  0  0
   -1.3991   22.6679  -26.0652 H   0  0  0  0  0  0  0  0  0  0  0  0
   -1.9095   22.6815  -29.8391 H   0  0  0  0  0  0  0  0  0  0  0  0
   -2.3947   21.6700  -28.4226 H   0  0  0  0  0  0  0  0  0  0  0  0
   -3.9276   21.7012  -30.5633 H   0  0  0  0  0  0  0  0  0  0  0  0
   -4.6828   21.8057  -28.9428 H   0  0  0  0  0  0  0  0  0  0  0  0
   -3.9679   22.2002  -32.7418 H   0  0  0  0  0  0  0  0  0  0  0  0
   -3.9101   20.0163  -33.9410 H   0  0  0  0  0  0  0  0  0  0  0  0
   -4.1500   15.7730  -31.7369 H   0  0  0  0  0  0  0  0  0  0  0  0
   -5.8540   16.2276  -32.0366 H   0  0  0  0  0  0  0  0  0  0  0  0
   -4.6896   13.7313  -32.6176 H   0  0  0  0  0  0  0  0  0  0  0  0
   -6.2269   14.3098  -33.2774 H   0  0  0  0  0  0  0  0  0  0  0  0
   -3.7112   13.9056  -34.6700 H   0  0  0  0  0  0  0  0  0  0  0  0
   -5.2298   14.4882  -35.3686 H   0  0  0  0  0  0  0  0  0  0  0  0
   -2.8231   16.0101  -34.5175 H   0  0  0  0  0  0  0  0  0  0  0  0
   -4.1594   16.5305  -35.5858 H   0  0  0  0  0  0  0  0  0  0  0  0
   -7.8474   19.0681  -32.4145 H   0  0  0  0  0  0  0  0  0  0  0  0
   -7.9059   21.2510  -31.2105 H   0  0  0  0  0  0  0  0  0  0  0  0
   -5.1180   25.4393  -29.0859 H   0  0  0  0  0  0  0  0  0  0  0  0
   -5.9066   23.9404  -28.4148 H   0  0  0  0  0  0  0  0  0  0  0  0
   -3.7251   25.3159  -27.3053 H   0  0  0  0  0  0  0  0  0  0  0  0
   -4.3009   23.6446  -26.8978 H   0  0  0  0  0  0  0  0  0  0  0  0
   -2.0180   25.6570  -29.7190 H   0  0  0  0  0  0  0  0  0  0  0  0
  1  2  1  0
  2  3  2  0
  3  4  1  0
  4  5  2  0
  5  6  1  0
  6  7  1  0
  7  8  1  0
  8  9  1  0
  9 10  1  0
 10 11  2  0
 10 12  2  0
 10 13  1  0
 13 14  2  0
 14 15  1  0
 15 16  2  0
 16 17  1  0
 17 18  2  0
 17 19  2  0
 17 20  1  0
 20 21  1  0
 21 22  1  0
 22 23  1  0
 23 24  1  0
 16 25  1  0
 25 26  2  0
  9 27  1  0
 27 28  1  0
  5 29  1  0
 29 30  2  3
 29 31  1  0
 31  2  1  0
 28  6  1  0
 26 13  1  0
 24 20  1  0
  1 32  1  0
  1 33  1  0
  1 34  1  0
  3 35  1  0
  4 36  1  0
  7 37  1  0
  7 38  1  0
  8 39  1  0
  8 40  1  0
 14 41  1  0
 15 42  1  0
 21 43  1  0
 21 44  1  0
 22 45  1  0
 22 46  1  0
 23 47  1  0
 23 48  1  0
 24 49  1  0
 24 50  1  0
 25 51  1  0
 26 52  1  0
 27 53  1  0
 27 54  1  0
 28 55  1  0
 28 56  1  0
 30 57  1  0
M  CHG  1  31  -1
M  END
>  <UniqueID>  (23) 
22

>  <SMILES>  (23) 
Cc1ccc(N2CCN(S(=O)(=O)c3ccc(S(=O)(=O)N4CCCC4)cc3)CC2)c(=N)[n-]1

>  <Energy>  (23) 
67.95580109874638

>  <Genealogy>  (23) 
Cc1ccc(N2CCN(S(=O)(=O)c3ccc(S(=O)(=O)N4CCCC4)cc3)CC2)c(=N)[n-]1 (protonated)
Cc1ccc(N2CCN(S(=O)(=O)c3ccc(S(=O)(=O)N4CCCC4)cc3)CC2)c(=N)[n-]1 (3D coordinates assigned)
Cc1ccc(N2CCN(S(=O)(=O)c3ccc(S(=O)(=O)N4CCCC4)cc3)CC2)c(=N)[n-]1 (nonaromatic ring conformer: 67.95580109874638 kcal/mol)

>  <smiles>  (23) 
Cc1ccc(N2CCN(S(=O)(=O)c3ccc(S(=O)(=O)N4CCCC4)cc3)CC2)c(=N)[nH]1

>  <score_type>  (23) 
oracle

>  <origin>  (23) 
adgpu

>  <m_score__min__energy>  (23) 
-11.19

>  <m_primary>  (23) 
energy

$$$$
23:0
     RDKit          3D

 47 49  0  0  0  0  0  0  0  0999 V2000
   -1.0280   20.9870  -31.0130 C   0  0  0  0  0  0  0  0  0  0  0  0
   -1.6070   19.8740  -31.7700 N   0  0  0  0  0  0  0  0  0  0  0  0
   -0.5530   18.9330  -32.1690 C   0  0  0  0  0  0  0  0  0  0  0  0
   -2.4150   20.4810  -33.1930 S   0  0  0  0  0  0  0  0  0  0  0  0
   -2.6860   19.3470  -34.1420 O   0  0  0  0  0  0  0  0  0  0  0  0
   -1.5420   21.4970  -33.8780 O   0  0  0  0  0  0  0  0  0  0  0  0
   -3.9530   21.2110  -32.7410 C   0  0  0  0  0  0  0  0  0  0  0  0
   -5.1400   20.5060  -32.9610 C   0  0  0  0  0  0  0  0  0  0  0  0
   -6.3580   21.0320  -32.5290 C   0  0  0  0  0  0  0  0  0  0  0  0
   -6.4040   22.2690  -31.8750 C   0  0  0  0  0  0  0  0  0  0  0  0
   -7.9620   22.8250  -31.2710 Cl  0  0  0  0  0  0  0  0  0  0  0  0
   -5.2160   23.0070  -31.6840 C   0  0  0  0  0  0  0  0  0  0  0  0
   -5.2100   24.5280  -30.7800 S   0  0  0  0  0  0  0  0  0  0  0  0
   -5.8320   25.6360  -31.5830 O   0  0  0  0  0  0  0  0  0  0  0  0
   -6.0040   24.3720  -29.5130 O   0  0  0  0  0  0  0  0  0  0  0  0
   -3.5680   24.9220  -30.3930 N   0  0  0  0  0  0  0  0  0  0  0  0
   -2.7930   24.1940  -29.4330 C   0  0  0  0  0  0  0  0  0  0  0  0
   -3.1680   22.9060  -29.0160 C   0  0  0  0  0  0  0  0  0  0  0  0
   -2.4250   22.2180  -28.0470 C   0  0  0  0  0  0  0  0  0  0  0  0
   -1.3150   22.8550  -27.4430 C   0  0  0  0  0  0  0  0  0  0  0  0
   -0.9180   24.1220  -27.8960 C   0  0  0  0  0  0  0  0  0  0  0  0
   -1.6470   24.7840  -28.8880 C   0  0  0  0  0  0  0  0  0  0  0  0
   -1.2350   26.0390  -29.3200 O   0  0  0  0  0  0  0  0  0  0  0  0
   -0.4770   22.1580  -26.3970 C   0  0  0  0  0  0  0  0  0  0  0  0
   -1.2270   21.0000  -25.7290 C   0  0  0  0  0  0  0  0  0  0  0  0
   -1.8490   20.0880  -26.7860 C   0  0  0  0  0  0  0  0  0  0  0  0
   -2.8930   20.8470  -27.6120 C   0  0  0  0  0  0  0  0  0  0  0  0
   -3.9960   22.4680  -32.1250 C   0  0  0  0  0  0  0  0  0  0  0  0
   -1.1304   20.7902  -29.9356 H   0  0  0  0  0  0  0  0  0  0  0  0
    0.0373   21.0887  -31.2676 H   0  0  0  0  0  0  0  0  0  0  0  0
   -1.5563   21.9177  -31.2676 H   0  0  0  0  0  0  0  0  0  0  0  0
   -0.0795   18.5103  -31.2706 H   0  0  0  0  0  0  0  0  0  0  0  0
   -0.9930   18.1219  -32.7677 H   0  0  0  0  0  0  0  0  0  0  0  0
    0.2033   19.4618  -32.7677 H   0  0  0  0  0  0  0  0  0  0  0  0
   -5.1137   19.5343  -33.4759 H   0  0  0  0  0  0  0  0  0  0  0  0
   -7.2881   20.4711  -32.7034 H   0  0  0  0  0  0  0  0  0  0  0  0
   -4.0571   22.4308  -29.4561 H   0  0  0  0  0  0  0  0  0  0  0  0
   -0.0247   24.5989  -27.4665 H   0  0  0  0  0  0  0  0  0  0  0  0
    0.4304   21.7622  -26.8766 H   0  0  0  0  0  0  0  0  0  0  0  0
   -0.2304   22.8940  -25.6175 H   0  0  0  0  0  0  0  0  0  0  0  0
   -0.5230   20.4175  -25.1166 H   0  0  0  0  0  0  0  0  0  0  0  0
   -2.0276   21.4110  -25.0965 H   0  0  0  0  0  0  0  0  0  0  0  0
   -1.0577   19.7195  -27.4554 H   0  0  0  0  0  0  0  0  0  0  0  0
   -2.3438   19.2464  -26.2791 H   0  0  0  0  0  0  0  0  0  0  0  0
   -3.1260   20.2557  -28.5098 H   0  0  0  0  0  0  0  0  0  0  0  0
   -3.7759   20.9903  -26.9718 H   0  0  0  0  0  0  0  0  0  0  0  0
   -3.0659   23.0385  -31.9852 H   0  0  0  0  0  0  0  0  0  0  0  0
  1  2  1  0
  2  3  1  0
  2  4  1  0
  4  5  2  0
  4  6  2  0
  4  7  1  0
  7  8  2  0
  8  9  1  0
  9 10  2  0
 10 11  1  0
 10 12  1  0
 12 13  1  0
 13 14  2  0
 13 15  2  0
 13 16  1  0
 16 17  1  0
 17 18  2  0
 18 19  1  0
 19 20  2  0
 20 21  1  0
 21 22  2  0
 22 23  1  0
 20 24  1  0
 24 25  1  0
 25 26  1  0
 26 27  1  0
 12 28  2  0
 28  7  1  0
 22 17  1  0
 27 19  1  0
  1 29  1  0
  1 30  1  0
  1 31  1  0
  3 32  1  0
  3 33  1  0
  3 34  1  0
  8 35  1  0
  9 36  1  0
 18 37  1  0
 21 38  1  0
 24 39  1  0
 24 40  1  0
 25 41  1  0
 25 42  1  0
 26 43  1  0
 26 44  1  0
 27 45  1  0
 27 46  1  0
 28 47  1  0
M  CHG  2  16  -1  23  -1
M  END
>  <UniqueID>  (24) 
23

>  <SMILES>  (24) 
CN(C)S(=O)(=O)c1ccc(Cl)c(S(=O)(=O)[N-]c2cc3c(cc2[O-])CCCC3)c1

>  <Energy>  (24) 
49.96310051803024

>  <Genealogy>  (24) 
CN(C)S(=O)(=O)c1ccc(Cl)c(S(=O)(=O)[N-]c2cc3c(cc2[O-])CCCC3)c1 (protonated)
CN(C)S(=O)(=O)c1ccc(Cl)c(S(=O)(=O)[N-]c2cc3c(cc2[O-])CCCC3)c1 (3D coordinates assigned)
CN(C)S(=O)(=O)c1ccc(Cl)c(S(=O)(=O)[N-]c2cc3c(cc2[O-])CCCC3)c1 (nonaromatic ring conformer: 49.96310051803024 kcal/mol)

>  <smiles>  (24) 
CN(C)S(=O)(=O)c1ccc(Cl)c(S(=O)(=O)Nc2cc3c(cc2O)CCCC3)c1

>  <score_type>  (24) 
oracle

>  <origin>  (24) 
adgpu

>  <m_score__min__energy>  (24) 
-13.85

>  <m_primary>  (24) 
energy

$$$$
24:0
     RDKit          3D

 37 38  0  0  0  0  0  0  0  0999 V2000
   -5.0555   21.5848  -33.6137 H   0  0  0  0  0  0  0  0  0  0  0  0
   -4.9860   20.6300  -33.0720 C   0  0  0  0  0  0  0  0  0  0  0  0
   -5.5480   19.4170  -33.7010 C   0  0  0  0  0  0  0  0  0  0  0  0
   -6.4320   19.5510  -34.5900 O   0  0  0  0  0  0  0  0  0  0  0  0
   -5.1210   18.0500  -33.3210 C   0  0  0  0  0  0  0  0  0  0  0  0
   -5.7990   17.3110  -32.3200 C   0  0  0  0  0  0  0  0  0  0  0  0
   -6.9770   17.8760  -31.5710 C   0  0  0  0  0  0  0  0  0  0  0  0
   -6.7987   17.7905  -30.4889 H   0  0  0  0  0  0  0  0  0  0  0  0
   -7.1079   18.9349  -31.8385 H   0  0  0  0  0  0  0  0  0  0  0  0
   -7.8848   17.3153  -31.8385 H   0  0  0  0  0  0  0  0  0  0  0  0
   -5.3750   16.0050  -32.0310 C   0  0  0  0  0  0  0  0  0  0  0  0
   -5.9092   15.4068  -31.2782 H   0  0  0  0  0  0  0  0  0  0  0  0
   -4.2740   15.4650  -32.7000 C   0  0  0  0  0  0  0  0  0  0  0  0
   -3.7990   14.0830  -32.3820 C   0  0  0  0  0  0  0  0  0  0  0  0
   -3.7542   13.9527  -31.2907 H   0  0  0  0  0  0  0  0  0  0  0  0
   -4.4961   13.3480  -32.8107 H   0  0  0  0  0  0  0  0  0  0  0  0
   -2.7973   13.9318  -32.8107 H   0  0  0  0  0  0  0  0  0  0  0  0
   -3.6170   16.2070  -33.6290 N   0  0  0  0  0  0  0  0  0  0  0  0
   -4.0060   17.4680  -33.9540 C   0  0  0  0  0  0  0  0  0  0  0  0
   -3.3640   18.1010  -34.8340 O   0  0  0  0  0  0  0  0  0  0  0  0
   -4.3950   20.6160  -31.8690 C   0  0  0  0  0  0  0  0  0  0  0  0
   -4.3198   19.6550  -31.3392 H   0  0  0  0  0  0  0  0  0  0  0  0
   -3.8370   21.8220  -31.2120 C   0  0  0  0  0  0  0  0  0  0  0  0
   -2.6800   21.7750  -30.4100 C   0  0  0  0  0  0  0  0  0  0  0  0
   -2.1528   20.8205  -30.2649 H   0  0  0  0  0  0  0  0  0  0  0  0
   -2.1990   22.9350  -29.7980 C   0  0  0  0  0  0  0  0  0  0  0  0
   -1.2906   22.8911  -29.1793 H   0  0  0  0  0  0  0  0  0  0  0  0
   -2.8660   24.1500  -29.9680 C   0  0  0  0  0  0  0  0  0  0  0  0
   -2.3730   25.2950  -29.3530 O   0  0  0  0  0  0  0  0  0  0  0  0
   -4.0280   24.2170  -30.7470 C   0  0  0  0  0  0  0  0  0  0  0  0
   -4.6700   25.4580  -30.8860 O   0  0  0  0  0  0  0  0  0  0  0  0
   -5.7620   25.8930  -30.0830 C   0  0  0  0  0  0  0  0  0  0  0  0
   -5.4998   25.7885  -29.0198 H   0  0  0  0  0  0  0  0  0  0  0  0
   -5.9826   26.9477  -30.3043 H   0  0  0  0  0  0  0  0  0  0  0  0
   -6.6474   25.2789  -30.3043 H   0  0  0  0  0  0  0  0  0  0  0  0
   -4.5120   23.0450  -31.3630 C   0  0  0  0  0  0  0  0  0  0  0  0
   -5.4290   23.0885  -31.9690 H   0  0  0  0  0  0  0  0  0  0  0  0
  1  2  1  0
  2  3  1  0
  3  4  2  0
  3  5  1  0
  5  6  2  0
  6  7  1  0
  7  8  1  0
  7  9  1  0
  7 10  1  0
  6 11  1  0
 11 12  1  0
 11 13  2  0
 13 14  1  0
 14 15  1  0
 14 16  1  0
 14 17  1  0
 13 18  1  0
 18 19  1  0
 19 20  2  0
  2 21  2  0
 21 22  1  0
 21 23  1  0
 23 24  2  0
 24 25  1  0
 24 26  1  0
 26 27  1  0
 26 28  2  0
 28 29  1  0
 28 30  1  0
 30 31  1  0
 31 32  1  0
 32 33  1  0
 32 34  1  0
 32 35  1  0
 30 36  2  0
 36 37  1  0
 19  5  1  0
 36 23  1  0
M  CHG  2  18  -1  29  -1
M  END
>  <UniqueID>  (25) 
24

>  <SMILES>  (25) 
COc1cc(/C=C/C(=O)c2c(C)cc(C)[n-]c2=O)ccc1[O-]

>  <Energy>  (25) 
46.347788831299034

>  <Genealogy>  (25) 
COc1cc(C=CC(=O)c2c(C)cc(C)[n-]c2=O)ccc1[O-] (protonated)
COc1cc(/C=C/C(=O)c2c(C)cc(C)[n-]c2=O)ccc1[O-] (cis-trans isomerization)
COc1cc(/C=C/C(=O)c2c(C)cc(C)[n-]c2=O)ccc1[O-] (3D coordinates assigned)
COc1cc(/C=C/C(=O)c2c(C)cc(C)[n-]c2=O)ccc1[O-] (optimized conformer: 46.347788831299034 kcal/mol)

>  <smiles>  (25) 
COc1cc(C=CC(=O)c2c(C)cc(C)[nH]c2=O)ccc1O

>  <score_type>  (25) 
oracle

>  <origin>  (25) 
adgpu

>  <m_score__min__energy>  (25) 
-10.369999999999999

>  <m_primary>  (25) 
energy

$$$$
25:0
     RDKit          3D

 47 50  0  0  0  0  0  0  0  0999 V2000
   -6.0210   25.0300  -29.7450 O   0  0  0  0  0  0  0  0  0  0  0  0
   -4.8780   24.3800  -30.4760 S   0  0  0  0  0  0  0  0  0  0  0  0
   -3.8630   25.4290  -30.8290 O   0  0  0  0  0  0  0  0  0  0  0  0
   -5.4730   23.6410  -31.9280 N   0  0  0  0  0  0  0  0  0  0  0  0
   -6.5690   22.7150  -31.9870 C   0  0  0  0  0  0  0  0  0  0  0  0
   -7.8650   23.0760  -31.5720 C   0  0  0  0  0  0  0  0  0  0  0  0
   -8.9080   22.1460  -31.6140 C   0  0  0  0  0  0  0  0  0  0  0  0
   -8.6780   20.8490  -32.0730 C   0  0  0  0  0  0  0  0  0  0  0  0
   -7.3980   20.4750  -32.5020 C   0  0  0  0  0  0  0  0  0  0  0  0
   -7.1410   19.1790  -32.9670 C   0  0  0  0  0  0  0  0  0  0  0  0
   -5.8540   18.8320  -33.3820 C   0  0  0  0  0  0  0  0  0  0  0  0
   -4.8350   19.7860  -33.3290 C   0  0  0  0  0  0  0  0  0  0  0  0
   -5.0960   21.0410  -32.8750 N   0  0  0  0  0  0  0  0  0  0  0  0
   -6.3410   21.4130  -32.4630 C   0  0  0  0  0  0  0  0  0  0  0  0
   -4.1080   23.1510  -29.4800 C   0  0  0  0  0  0  0  0  0  0  0  0
   -3.6890   23.4790  -28.1860 C   0  0  0  0  0  0  0  0  0  0  0  0
   -2.9690   22.5540  -27.4250 C   0  0  0  0  0  0  0  0  0  0  0  0
   -2.6520   21.2970  -27.9580 C   0  0  0  0  0  0  0  0  0  0  0  0
   -1.6220   20.1900  -27.0530 S   0  0  0  0  0  0  0  0  0  0  0  0
   -2.2240   18.8130  -27.0880 O   0  0  0  0  0  0  0  0  0  0  0  0
   -1.5740   20.6340  -25.6180 O   0  0  0  0  0  0  0  0  0  0  0  0
    0.0090   20.1300  -27.6940 N   0  0  0  0  0  0  0  0  0  0  0  0
    0.1980   21.0180  -28.8630 C   0  0  0  0  0  0  0  0  0  0  0  0
    0.1700   20.2640  -30.2030 C   0  0  0  0  0  0  0  0  0  0  0  0
   -0.6330   19.1110  -30.1050 O   0  0  0  0  0  0  0  0  0  0  0  0
    0.0010   18.1600  -29.2720 C   0  0  0  0  0  0  0  0  0  0  0  0
    0.4770   18.7500  -27.9220 C   0  0  0  0  0  0  0  0  0  0  0  0
   -3.1120   20.9530  -29.2380 C   0  0  0  0  0  0  0  0  0  0  0  0
   -3.8360   21.8760  -29.9970 C   0  0  0  0  0  0  0  0  0  0  0  0
   -8.0583   24.0973  -31.2121 H   0  0  0  0  0  0  0  0  0  0  0  0
   -9.9155   22.4386  -31.2833 H   0  0  0  0  0  0  0  0  0  0  0  0
   -9.5015   20.1201  -32.0981 H   0  0  0  0  0  0  0  0  0  0  0  0
   -7.9515   18.4362  -33.0051 H   0  0  0  0  0  0  0  0  0  0  0  0
   -5.6442   17.8160  -33.7476 H   0  0  0  0  0  0  0  0  0  0  0  0
   -3.8185   19.5213  -33.6555 H   0  0  0  0  0  0  0  0  0  0  0  0
   -3.9269   24.4676  -27.7665 H   0  0  0  0  0  0  0  0  0  0  0  0
   -2.6501   22.8132  -26.4046 H   0  0  0  0  0  0  0  0  0  0  0  0
   -0.6063   21.7684  -28.8665 H   0  0  0  0  0  0  0  0  0  0  0  0
    1.1915   21.4802  -28.7670 H   0  0  0  0  0  0  0  0  0  0  0  0
   -0.2393   20.9248  -30.9814 H   0  0  0  0  0  0  0  0  0  0  0  0
    1.1955   19.9617  -30.4619 H   0  0  0  0  0  0  0  0  0  0  0  0
   -0.7104   17.3466  -29.0662 H   0  0  0  0  0  0  0  0  0  0  0  0
    0.8946   17.8037  -29.8053 H   0  0  0  0  0  0  0  0  0  0  0  0
    0.0978   18.1134  -27.1091 H   0  0  0  0  0  0  0  0  0  0  0  0
    1.5764   18.7774  -27.9466 H   0  0  0  0  0  0  0  0  0  0  0  0
   -2.9019   19.9531  -29.6455 H   0  0  0  0  0  0  0  0  0  0  0  0
   -4.1929   21.6024  -31.0009 H   0  0  0  0  0  0  0  0  0  0  0  0
  1  2  2  0
  2  3  2  0
  2  4  1  0
  4  5  1  0
  5  6  2  0
  6  7  1  0
  7  8  2  0
  8  9  1  0
  9 10  2  0
 10 11  1  0
 11 12  2  0
 12 13  1  0
 13 14  2  0
  2 15  1  0
 15 16  2  0
 16 17  1  0
 17 18  2  0
 18 19  1  0
 19 20  2  0
 19 21  2  0
 19 22  1  0
 22 23  1  0
 23 24  1  0
 24 25  1  0
 25 26  1  0
 26 27  1  0
 18 28  1  0
 28 29  2  0
 14  5  1  0
 29 15  1  0
 14  9  1  0
 27 22  1  0
  6 30  1  0
  7 31  1  0
  8 32  1  0
 10 33  1  0
 11 34  1  0
 12 35  1  0
 16 36  1  0
 17 37  1  0
 23 38  1  0
 23 39  1  0
 24 40  1  0
 24 41  1  0
 26 42  1  0
 26 43  1  0
 27 44  1  0
 27 45  1  0
 28 46  1  0
 29 47  1  0
M  CHG  1   4  -1
M  END
>  <UniqueID>  (26) 
25

>  <SMILES>  (26) 
O=S(=O)([N-]c1cccc2cccnc12)c1ccc(S(=O)(=O)N2CCOCC2)cc1

>  <Energy>  (26) 
66.24546873116675

>  <Genealogy>  (26) 
O=S(=O)([N-]c1cccc2cccnc12)c1ccc(S(=O)(=O)N2CCOCC2)cc1 (protonated)
O=S(=O)([N-]c1cccc2cccnc12)c1ccc(S(=O)(=O)N2CCOCC2)cc1 (3D coordinates assigned)
O=S(=O)([N-]c1cccc2cccnc12)c1ccc(S(=O)(=O)N2CCOCC2)cc1 (nonaromatic ring conformer: 66.24546873116675 kcal/mol)

>  <smiles>  (26) 
O=S(=O)(Nc1cccc2cccnc12)c1ccc(S(=O)(=O)N2CCOCC2)cc1

>  <score_type>  (26) 
oracle

>  <origin>  (26) 
adgpu

>  <m_score__min__energy>  (26) 
-11.449999999999999

>  <m_primary>  (26) 
energy

$$$$
26:0
     RDKit          3D

 29 31  0  0  0  0  0  0  0  0999 V2000
   -1.8650   19.7860  -33.4170 C   0  0  0  0  0  0  0  0  0  0  0  0
   -2.7710   20.7820  -32.7560 C   0  0  0  0  0  0  0  0  0  0  0  0
   -2.3310   21.5040  -31.6370 C   0  0  0  0  0  0  0  0  0  0  0  0
   -3.1610   22.4590  -31.0430 C   0  0  0  0  0  0  0  0  0  0  0  0
   -4.4330   22.7200  -31.5750 C   0  0  0  0  0  0  0  0  0  0  0  0
   -5.3140   23.7190  -30.9370 C   0  0  0  0  0  0  0  0  0  0  0  0
   -4.8300   24.9400  -30.4050 C   0  0  0  0  0  0  0  0  0  0  0  0
   -3.4880   25.2980  -30.4640 O   0  0  0  0  0  0  0  0  0  0  0  0
   -5.7420   25.7520  -29.8120 N   0  0  0  0  0  0  0  0  0  0  0  0
   -7.1830   24.9390  -29.9520 S   0  0  0  0  0  0  0  0  0  0  0  0
   -6.6930   23.5620  -30.7520 C   0  0  0  0  0  0  0  0  0  0  0  0
   -7.5840   22.4900  -31.2250 C   0  0  0  0  0  0  0  0  0  0  0  0
   -8.7630   22.6870  -31.8480 N   0  0  0  0  0  0  0  0  0  0  0  0
   -9.2440   21.4730  -32.0620 N   0  0  0  0  0  0  0  0  0  0  0  0
   -8.3850   20.5860  -31.5910 N   0  0  0  0  0  0  0  0  0  0  0  0
   -8.6110   19.1490  -31.5840 C   0  0  0  0  0  0  0  0  0  0  0  0
   -7.3390   21.1780  -31.0420 N   0  0  0  0  0  0  0  0  0  0  0  0
   -4.8710   22.0020  -32.6990 C   0  0  0  0  0  0  0  0  0  0  0  0
   -4.0400   21.0460  -33.2920 C   0  0  0  0  0  0  0  0  0  0  0  0
   -1.3360   19.2044  -32.6476 H   0  0  0  0  0  0  0  0  0  0  0  0
   -2.4617   19.1072  -34.0441 H   0  0  0  0  0  0  0  0  0  0  0  0
   -1.1329   20.3159  -34.0441 H   0  0  0  0  0  0  0  0  0  0  0  0
   -1.3282   21.3179  -31.2250 H   0  0  0  0  0  0  0  0  0  0  0  0
   -2.8156   23.0083  -30.1547 H   0  0  0  0  0  0  0  0  0  0  0  0
   -8.6672   18.7917  -30.5452 H   0  0  0  0  0  0  0  0  0  0  0  0
   -9.5556   18.9239  -32.1008 H   0  0  0  0  0  0  0  0  0  0  0  0
   -7.7811   18.6448  -32.1008 H   0  0  0  0  0  0  0  0  0  0  0  0
   -5.8715   22.1920  -33.1149 H   0  0  0  0  0  0  0  0  0  0  0  0
   -4.3831   20.4989  -34.1825 H   0  0  0  0  0  0  0  0  0  0  0  0
  1  2  1  0
  2  3  2  0
  3  4  1  0
  4  5  2  0
  5  6  1  0
  6  7  1  0
  7  8  1  0
  7  9  2  0
  9 10  1  0
 10 11  1  0
 11 12  1  0
 12 13  1  0
 13 14  2  0
 14 15  1  0
 15 16  1  0
 15 17  1  0
  5 18  1  0
 18 19  2  0
 19  2  1  0
 11  6  2  0
 17 12  2  0
  1 20  1  0
  1 21  1  0
  1 22  1  0
  3 23  1  0
  4 24  1  0
 16 25  1  0
 16 26  1  0
 16 27  1  0
 18 28  1  0
 19 29  1  0
M  CHG  1   8  -1
M  END
>  <UniqueID>  (27) 
26

>  <SMILES>  (27) 
Cc1ccc(-c2c([O-])nsc2-c2nnn(C)n2)cc1

>  <Energy>  (27) 
106.39568351955175

>  <Genealogy>  (27) 
Cc1ccc(-c2c([O-])nsc2-c2nnn(C)n2)cc1 (protonated)
Cc1ccc(-c2c([O-])nsc2-c2nnn(C)n2)cc1 (3D coordinates assigned)
Cc1ccc(-c2c([O-])nsc2-c2nnn(C)n2)cc1 (optimized conformer: 106.39568351955175 kcal/mol)

>  <smiles>  (27) 
Cc1ccc(-c2c(O)nsc2-c2nnn(C)n2)cc1

>  <score_type>  (27) 
oracle

>  <origin>  (27) 
adgpu

>  <m_score__min__energy>  (27) 
-10.93

>  <m_primary>  (27) 
energy

$$$$
27:0
     RDKit          3D

 42 45  0  0  0  0  0  0  0  0999 V2000
   -4.7838   20.8285  -32.7569 H   0  0  0  0  0  0  0  0  0  0  0  0
   -5.7540   20.3470  -32.5650 C   0  0  0  0  0  0  0  0  0  0  0  0
   -6.6330   20.9930  -31.7870 C   0  0  0  0  0  0  0  0  0  0  0  0
   -7.6067   20.5228  -31.5848 H   0  0  0  0  0  0  0  0  0  0  0  0
   -6.3440   22.3100  -31.1920 C   0  0  0  0  0  0  0  0  0  0  0  0
   -5.1250   22.8490  -30.8140 C   0  0  0  0  0  0  0  0  0  0  0  0
   -3.8210   22.3520  -30.7900 C   0  0  0  0  0  0  0  0  0  0  0  0
   -3.5907   21.3421  -31.1602 H   0  0  0  0  0  0  0  0  0  0  0  0
   -2.8120   23.1850  -30.2770 C   0  0  0  0  0  0  0  0  0  0  0  0
   -1.7727   22.8256  -30.2523 H   0  0  0  0  0  0  0  0  0  0  0  0
   -3.1140   24.4790  -29.7920 C   0  0  0  0  0  0  0  0  0  0  0  0
   -2.0710   25.2620  -29.2760 O   0  0  0  0  0  0  0  0  0  0  0  0
   -1.8810   25.5730  -27.9220 C   0  0  0  0  0  0  0  0  0  0  0  0
   -2.7000   25.0350  -26.9130 C   0  0  0  0  0  0  0  0  0  0  0  0
   -3.5088   24.3379  -27.1774 H   0  0  0  0  0  0  0  0  0  0  0  0
   -2.4900   25.3830  -25.5750 C   0  0  0  0  0  0  0  0  0  0  0  0
   -3.1281   24.9509  -24.7900 H   0  0  0  0  0  0  0  0  0  0  0  0
   -1.4700   26.2800  -25.2300 C   0  0  0  0  0  0  0  0  0  0  0  0
   -1.2550   26.6360  -23.8620 N   0  0  0  0  0  0  0  0  0  0  0  0
   -0.3770   26.3610  -23.3700 H   0  0  0  0  0  0  0  0  0  0  0  0
   -1.9740   27.1770  -23.3320 H   0  0  0  0  0  0  0  0  0  0  0  0
   -0.6670   26.8310  -26.2380 C   0  0  0  0  0  0  0  0  0  0  0  0
    0.1324   27.5393  -25.9750 H   0  0  0  0  0  0  0  0  0  0  0  0
   -0.8770   26.4850  -27.5750 C   0  0  0  0  0  0  0  0  0  0  0  0
   -0.2495   26.9319  -28.3602 H   0  0  0  0  0  0  0  0  0  0  0  0
   -4.4560   24.9300  -29.7870 C   0  0  0  0  0  0  0  0  0  0  0  0
   -4.7193   25.9193  -29.3847 H   0  0  0  0  0  0  0  0  0  0  0  0
   -5.4320   24.0850  -30.3060 C   0  0  0  0  0  0  0  0  0  0  0  0
   -6.7580   24.3000  -30.3490 N   0  0  0  0  0  0  0  0  0  0  0  0
   -7.3030   23.2130  -30.8830 N   0  0  0  0  0  0  0  0  0  0  0  0
   -8.3290   23.0940  -31.0400 H   0  0  0  0  0  0  0  0  0  0  0  0
   -6.0080   19.0220  -33.1840 C   0  0  0  0  0  0  0  0  0  0  0  0
   -5.3790   18.6010  -34.3760 C   0  0  0  0  0  0  0  0  0  0  0  0
   -4.6718   19.2703  -34.8877 H   0  0  0  0  0  0  0  0  0  0  0  0
   -5.6510   17.3370  -34.9090 C   0  0  0  0  0  0  0  0  0  0  0  0
   -5.1615   17.0183  -35.8411 H   0  0  0  0  0  0  0  0  0  0  0  0
   -6.5420   16.4780  -34.2620 C   0  0  0  0  0  0  0  0  0  0  0  0
   -6.7582   15.4869  -34.6875 H   0  0  0  0  0  0  0  0  0  0  0  0
   -7.1580   16.8780  -33.0750 C   0  0  0  0  0  0  0  0  0  0  0  0
   -7.8556   16.1991  -32.5627 H   0  0  0  0  0  0  0  0  0  0  0  0
   -6.8900   18.1400  -32.5360 C   0  0  0  0  0  0  0  0  0  0  0  0
   -7.3737   18.4453  -31.5964 H   0  0  0  0  0  0  0  0  0  0  0  0
  1  2  1  0
  2  3  2  0
  3  4  1  0
  3  5  1  0
  5  6  2  0
  6  7  1  0
  7  8  1  0
  7  9  2  0
  9 10  1  0
  9 11  1  0
 11 12  1  0
 12 13  1  0
 13 14  2  0
 14 15  1  0
 14 16  1  0
 16 17  1  0
 16 18  2  0
 18 19  1  0
 19 20  1  0
 19 21  1  0
 18 22  1  0
 22 23  1  0
 22 24  2  0
 24 25  1  0
 11 26  2  0
 26 27  1  0
 26 28  1  0
 28 29  2  0
 29 30  1  0
 30 31  1  0
  2 32  1  0
 32 33  2  0
 33 34  1  0
 33 35  1  0
 35 36  1  0
 35 37  2  0
 37 38  1  0
 37 39  1  0
 39 40  1  0
 39 41  2  0
 41 42  1  0
 30  5  1  0
 41 32  1  0
 28  6  1  0
 24 13  1  0
M  END
>  <UniqueID>  (28) 
27

>  <SMILES>  (28) 
Nc1ccc(Oc2ccc3c(/C=C/c4ccccc4)[nH]nc3c2)cc1

>  <Energy>  (28) 
95.86835086031296

>  <Genealogy>  (28) 
Nc1ccc(Oc2ccc3c(/C=C/c4ccccc4)[nH]nc3c2)cc1 (cis-trans isomerization)
Nc1ccc(Oc2ccc3c(/C=C/c4ccccc4)[nH]nc3c2)cc1 (3D coordinates assigned)
Nc1ccc(Oc2ccc3c(/C=C/c4ccccc4)[nH]nc3c2)cc1 (optimized conformer: 95.86835086031296 kcal/mol)

>  <smiles>  (28) 
Nc1ccc(Oc2ccc3c(C=Cc4ccccc4)[nH]nc3c2)cc1

>  <score_type>  (28) 
oracle

>  <origin>  (28) 
adgpu

>  <m_score__min__energy>  (28) 
-9.0299999999999994

>  <m_primary>  (28) 
energy

$$$$
28:0
     RDKit          3D

 67 70  0  0  0  0  0  0  0  0999 V2000
   -1.5050   21.4170  -26.9000 C   0  0  0  0  0  0  0  0  0  0  0  0
   -0.4320   21.3300  -28.0100 C   0  0  0  0  0  0  0  0  0  0  0  0
    0.5290   22.5270  -27.7910 C   0  0  0  0  0  0  0  0  0  0  0  0
    0.4010   20.0400  -27.8300 C   0  0  0  0  0  0  0  0  0  0  0  0
   -1.0960   21.3290  -29.4160 C   0  0  0  0  0  0  0  0  0  0  0  0
   -1.2230   20.1350  -30.1730 C   0  0  0  0  0  0  0  0  0  0  0  0
   -1.8490   20.1290  -31.4200 C   0  0  0  0  0  0  0  0  0  0  0  0
   -2.3690   21.3070  -31.9530 C   0  0  0  0  0  0  0  0  0  0  0  0
   -2.2760   22.4910  -31.2290 C   0  0  0  0  0  0  0  0  0  0  0  0
   -1.6180   22.5260  -29.9850 C   0  0  0  0  0  0  0  0  0  0  0  0
   -1.4840   23.7540  -29.3280 O   0  0  0  0  0  0  0  0  0  0  0  0
   -2.2560   24.1690  -28.2320 C   0  0  0  0  0  0  0  0  0  0  0  0
   -1.6010   24.6160  -27.1250 N   0  0  0  0  0  0  0  0  0  0  0  0
   -2.2590   25.0770  -26.0290 C   0  0  0  0  0  0  0  0  0  0  0  0
   -3.6540   25.1120  -26.0150 C   0  0  0  0  0  0  0  0  0  0  0  0
   -4.3590   24.6940  -27.1410 C   0  0  0  0  0  0  0  0  0  0  0  0
   -3.6720   24.2150  -28.2650 C   0  0  0  0  0  0  0  0  0  0  0  0
   -4.4140   23.8030  -29.4190 N   0  0  0  0  0  0  0  0  0  0  0  0
   -4.6320   24.6570  -30.5500 C   0  0  0  0  0  0  0  0  0  0  0  0
   -3.8600   25.6310  -30.7650 O   0  0  0  0  0  0  0  0  0  0  0  0
   -5.6690   24.3610  -31.4960 N   0  0  0  0  0  0  0  0  0  0  0  0
   -6.2730   23.0710  -31.6680 C   0  0  0  0  0  0  0  0  0  0  0  0
   -5.4940   21.9080  -31.7920 C   0  0  0  0  0  0  0  0  0  0  0  0
   -6.1060   20.6640  -31.9570 C   0  0  0  0  0  0  0  0  0  0  0  0
   -7.5040   20.5620  -31.9820 C   0  0  0  0  0  0  0  0  0  0  0  0
   -8.2730   18.9860  -32.1760 S   0  0  0  0  0  0  0  0  0  0  0  0
   -9.4640   19.1280  -33.0840 O   0  0  0  0  0  0  0  0  0  0  0  0
   -8.7640   18.5020  -30.8390 O   0  0  0  0  0  0  0  0  0  0  0  0
   -7.1670   17.8100  -32.8480 N   0  0  0  0  0  0  0  0  0  0  0  0
   -6.4510   18.3880  -34.0060 C   0  0  0  0  0  0  0  0  0  0  0  0
   -5.2190   17.5510  -34.4210 C   0  0  0  0  0  0  0  0  0  0  0  0
   -5.2970   16.1240  -33.8710 C   0  0  0  0  0  0  0  0  0  0  0  0
   -5.4360   16.1250  -32.3370 C   0  0  0  0  0  0  0  0  0  0  0  0
   -6.2260   17.3430  -31.8180 C   0  0  0  0  0  0  0  0  0  0  0  0
   -8.2850   21.7170  -31.8310 C   0  0  0  0  0  0  0  0  0  0  0  0
   -7.6710   22.9640  -31.6680 C   0  0  0  0  0  0  0  0  0  0  0  0
   -1.0174   21.3775  -25.9148 H   0  0  0  0  0  0  0  0  0  0  0  0
   -2.0579   22.3629  -26.9978 H   0  0  0  0  0  0  0  0  0  0  0  0
   -2.2030   20.5725  -26.9978 H   0  0  0  0  0  0  0  0  0  0  0  0
    0.6645   22.6958  -26.7125 H   0  0  0  0  0  0  0  0  0  0  0  0
    1.5025   22.3049  -28.2526 H   0  0  0  0  0  0  0  0  0  0  0  0
    0.1017   23.4294  -28.2526 H   0  0  0  0  0  0  0  0  0  0  0  0
    0.5331   19.8355  -26.7573 H   0  0  0  0  0  0  0  0  0  0  0  0
   -0.1232   19.1961  -28.3023 H   0  0  0  0  0  0  0  0  0  0  0  0
    1.3858   20.1706  -28.3023 H   0  0  0  0  0  0  0  0  0  0  0  0
   -0.8196   19.1951  -29.7682 H   0  0  0  0  0  0  0  0  0  0  0  0
   -1.9325   19.1892  -31.9855 H   0  0  0  0  0  0  0  0  0  0  0  0
   -2.8508   21.3005  -32.9418 H   0  0  0  0  0  0  0  0  0  0  0  0
   -2.7222   23.4115  -31.6335 H   0  0  0  0  0  0  0  0  0  0  0  0
   -1.6917   25.4228  -25.1523 H   0  0  0  0  0  0  0  0  0  0  0  0
   -4.1916   25.4663  -25.1231 H   0  0  0  0  0  0  0  0  0  0  0  0
   -5.4580   24.7399  -27.1483 H   0  0  0  0  0  0  0  0  0  0  0  0
   -4.9260   22.8960  -29.3860 H   0  0  0  0  0  0  0  0  0  0  0  0
   -4.3967   21.9781  -31.7589 H   0  0  0  0  0  0  0  0  0  0  0  0
   -5.4888   19.7603  -32.0678 H   0  0  0  0  0  0  0  0  0  0  0  0
   -7.1443   18.4410  -34.8583 H   0  0  0  0  0  0  0  0  0  0  0  0
   -6.0926   19.3856  -33.7122 H   0  0  0  0  0  0  0  0  0  0  0  0
   -5.1696   17.5083  -35.5191 H   0  0  0  0  0  0  0  0  0  0  0  0
   -4.3206   18.0314  -34.0062 H   0  0  0  0  0  0  0  0  0  0  0  0
   -6.1692   15.6175  -34.3100 H   0  0  0  0  0  0  0  0  0  0  0  0
   -4.3684   15.5973  -34.1362 H   0  0  0  0  0  0  0  0  0  0  0  0
   -5.9593   15.2076  -32.0293 H   0  0  0  0  0  0  0  0  0  0  0  0
   -4.4239   16.1753  -31.9091 H   0  0  0  0  0  0  0  0  0  0  0  0
   -6.7865   17.0560  -30.9161 H   0  0  0  0  0  0  0  0  0  0  0  0
   -5.5222   18.1537  -31.5784 H   0  0  0  0  0  0  0  0  0  0  0  0
   -9.3824   21.6426  -31.8407 H   0  0  0  0  0  0  0  0  0  0  0  0
   -8.2886   23.8651  -31.5392 H   0  0  0  0  0  0  0  0  0  0  0  0
  1  2  1  0
  2  3  1  0
  2  4  1  0
  2  5  1  0
  5  6  2  0
  6  7  1  0
  7  8  2  0
  8  9  1  0
  9 10  2  0
 10 11  1  0
 11 12  1  0
 12 13  2  0
 13 14  1  0
 14 15  2  0
 15 16  1  0
 16 17  2  0
 17 18  1  0
 18 19  1  0
 19 20  2  0
 19 21  1  0
 21 22  1  0
 22 23  2  0
 23 24  1  0
 24 25  2  0
 25 26  1  0
 26 27  2  0
 26 28  2  0
 26 29  1  0
 29 30  1  0
 30 31  1  0
 31 32  1  0
 32 33  1  0
 33 34  1  0
 25 35  1  0
 35 36  2  0
 10  5  1  0
 17 12  1  0
 36 22  1  0
 34 29  1  0
  1 37  1  0
  1 38  1  0
  1 39  1  0
  3 40  1  0
  3 41  1  0
  3 42  1  0
  4 43  1  0
  4 44  1  0
  4 45  1  0
  6 46  1  0
  7 47  1  0
  8 48  1  0
  9 49  1  0
 14 50  1  0
 15 51  1  0
 16 52  1  0
 18 53  1  0
 23 54  1  0
 24 55  1  0
 30 56  1  0
 30 57  1  0
 31 58  1  0
 31 59  1  0
 32 60  1  0
 32 61  1  0
 33 62  1  0
 33 63  1  0
 34 64  1  0
 34 65  1  0
 35 66  1  0
 36 67  1  0
M  CHG  1  21  -1
M  END
>  <UniqueID>  (29) 
28

>  <SMILES>  (29) 
CC(C)(C)c1ccccc1Oc1ncccc1NC(=O)[N-]c1ccc(S(=O)(=O)N2CCCCC2)cc1

>  <Energy>  (29) 
94.74975146423138

>  <Genealogy>  (29) 
CC(C)(C)c1ccccc1Oc1ncccc1NC(=O)[N-]c1ccc(S(=O)(=O)N2CCCCC2)cc1 (protonated)
CC(C)(C)c1ccccc1Oc1ncccc1NC(=O)[N-]c1ccc(S(=O)(=O)N2CCCCC2)cc1 (3D coordinates assigned)
CC(C)(C)c1ccccc1Oc1ncccc1NC(=O)[N-]c1ccc(S(=O)(=O)N2CCCCC2)cc1 (nonaromatic ring conformer: 94.74975146423138 kcal/mol)

>  <smiles>  (29) 
CC(C)(C)c1ccccc1Oc1ncccc1NC(=O)Nc1ccc(S(=O)(=O)N2CCCCC2)cc1

>  <score_type>  (29) 
oracle

>  <origin>  (29) 
adgpu

>  <m_score__min__energy>  (29) 
-12.42

>  <m_primary>  (29) 
energy

$$$$
29:0
     RDKit          3D

 55 58  0  0  0  0  0  0  0  0999 V2000
   -9.0530   18.6210  -31.9770 C   0  0  0  0  0  0  0  0  0  0  0  0
   -8.3740   19.9570  -32.0440 C   0  0  0  0  0  0  0  0  0  0  0  0
   -9.1130   21.1390  -31.8860 C   0  0  0  0  0  0  0  0  0  0  0  0
   -8.4740   22.3810  -31.9340 C   0  0  0  0  0  0  0  0  0  0  0  0
   -7.0930   22.4520  -32.1280 C   0  0  0  0  0  0  0  0  0  0  0  0
   -6.3400   21.2770  -32.2610 C   0  0  0  0  0  0  0  0  0  0  0  0
   -4.6010   21.3650  -32.5270 S   0  0  0  0  0  0  0  0  0  0  0  0
   -4.1910   20.2450  -33.4430 O   0  0  0  0  0  0  0  0  0  0  0  0
   -4.2490   22.6680  -33.1880 O   0  0  0  0  0  0  0  0  0  0  0  0
   -3.7210   21.2230  -31.0400 N   0  0  0  0  0  0  0  0  0  0  0  0
   -3.7450   22.2300  -30.0260 C   0  0  0  0  0  0  0  0  0  0  0  0
   -4.7590   23.1970  -29.9930 C   0  0  0  0  0  0  0  0  0  0  0  0
   -4.7610   24.1740  -28.9960 C   0  0  0  0  0  0  0  0  0  0  0  0
   -3.7640   24.1820  -28.0170 C   0  0  0  0  0  0  0  0  0  0  0  0
   -2.7640   23.1960  -28.0140 C   0  0  0  0  0  0  0  0  0  0  0  0
   -1.7050   23.2080  -26.9760 C   0  0  0  0  0  0  0  0  0  0  0  0
   -1.2410   22.1140  -26.5490 O   0  0  0  0  0  0  0  0  0  0  0  0
   -1.2090   24.4430  -26.4300 N   0  0  0  0  0  0  0  0  0  0  0  0
   -0.6380   25.4560  -27.3270 C   0  0  0  0  0  0  0  0  0  0  0  0
   -0.9060   26.8590  -26.7810 C   0  0  0  0  0  0  0  0  0  0  0  0
   -0.5500   26.9200  -25.3590 N   0  0  0  0  0  0  0  0  0  0  0  0
    0.0570   28.1050  -24.8090 C   0  0  0  0  0  0  0  0  0  0  0  0
   -0.3050   29.3790  -25.2790 C   0  0  0  0  0  0  0  0  0  0  0  0
    0.2830   30.5250  -24.7330 C   0  0  0  0  0  0  0  0  0  0  0  0
    1.2370   30.4090  -23.7190 C   0  0  0  0  0  0  0  0  0  0  0  0
    1.6080   29.1450  -23.2500 C   0  0  0  0  0  0  0  0  0  0  0  0
    1.0210   27.9970  -23.7920 C   0  0  0  0  0  0  0  0  0  0  0  0
   -1.1210   25.9070  -24.4630 C   0  0  0  0  0  0  0  0  0  0  0  0
   -0.8460   24.5070  -25.0110 C   0  0  0  0  0  0  0  0  0  0  0  0
   -2.7630   22.2210  -29.0280 C   0  0  0  0  0  0  0  0  0  0  0  0
   -6.9820   20.0310  -32.2130 C   0  0  0  0  0  0  0  0  0  0  0  0
   -9.1980   18.3357  -30.9246 H   0  0  0  0  0  0  0  0  0  0  0  0
  -10.0301   18.6807  -32.4787 H   0  0  0  0  0  0  0  0  0  0  0  0
   -8.4288   17.8669  -32.4787 H   0  0  0  0  0  0  0  0  0  0  0  0
  -10.1998   21.0880  -31.7237 H   0  0  0  0  0  0  0  0  0  0  0  0
   -9.0602   23.3046  -31.8187 H   0  0  0  0  0  0  0  0  0  0  0  0
   -6.5951   23.4316  -32.1765 H   0  0  0  0  0  0  0  0  0  0  0  0
   -5.5538   23.1860  -30.7533 H   0  0  0  0  0  0  0  0  0  0  0  0
   -5.5501   24.9402  -28.9810 H   0  0  0  0  0  0  0  0  0  0  0  0
   -3.7624   24.9650  -27.2444 H   0  0  0  0  0  0  0  0  0  0  0  0
    0.4478   25.2991  -27.4074 H   0  0  0  0  0  0  0  0  0  0  0  0
   -1.1064   25.3618  -28.3178 H   0  0  0  0  0  0  0  0  0  0  0  0
   -0.3017   27.5889  -27.3395 H   0  0  0  0  0  0  0  0  0  0  0  0
   -1.9745   27.0936  -26.8963 H   0  0  0  0  0  0  0  0  0  0  0  0
   -1.0535   29.4755  -26.0792 H   0  0  0  0  0  0  0  0  0  0  0  0
   -0.0065   31.5197  -25.1029 H   0  0  0  0  0  0  0  0  0  0  0  0
    1.6961   31.3117  -23.2897 H   0  0  0  0  0  0  0  0  0  0  0  0
    2.3620   29.0535  -22.4543 H   0  0  0  0  0  0  0  0  0  0  0  0
    1.3154   27.0044  -23.4203 H   0  0  0  0  0  0  0  0  0  0  0  0
   -0.6650   26.0039  -23.4667 H   0  0  0  0  0  0  0  0  0  0  0  0
   -2.2081   26.0594  -24.3932 H   0  0  0  0  0  0  0  0  0  0  0  0
    0.2233   24.2752  -24.8979 H   0  0  0  0  0  0  0  0  0  0  0  0
   -1.4478   23.7758  -24.4513 H   0  0  0  0  0  0  0  0  0  0  0  0
   -1.9838   21.4446  -29.0369 H   0  0  0  0  0  0  0  0  0  0  0  0
   -6.3923   19.1073  -32.3082 H   0  0  0  0  0  0  0  0  0  0  0  0
  1  2  1  0
  2  3  2  0
  3  4  1  0
  4  5  2  0
  5  6  1  0
  6  7  1  0
  7  8  2  0
  7  9  2  0
  7 10  1  0
 10 11  1  0
 11 12  2  0
 12 13  1  0
 13 14  2  0
 14 15  1  0
 15 16  1  0
 16 17  2  0
 16 18  1  0
 18 19  1  0
 19 20  1  0
 20 21  1  0
 21 22  1  0
 22 23  2  0
 23 24  1  0
 24 25  2  0
 25 26  1  0
 26 27  2  0
 21 28  1  0
 28 29  1  0
 15 30  2  0
  6 31  2  0
 31  2  1  0
 30 11  1  0
 29 18  1  0
 27 22  1  0
  1 32  1  0
  1 33  1  0
  1 34  1  0
  3 35  1  0
  4 36  1  0
  5 37  1  0
 12 38  1  0
 13 39  1  0
 14 40  1  0
 19 41  1  0
 19 42  1  0
 20 43  1  0
 20 44  1  0
 23 45  1  0
 24 46  1  0
 25 47  1  0
 26 48  1  0
 27 49  1  0
 28 50  1  0
 28 51  1  0
 29 52  1  0
 29 53  1  0
 30 54  1  0
 31 55  1  0
M  CHG  1  10  -1
M  END
>  <UniqueID>  (30) 
29

>  <SMILES>  (30) 
Cc1cccc(S(=O)(=O)[N-]c2cccc(C(=O)N3CCN(c4ccccc4)CC3)c2)c1

>  <Energy>  (30) 
73.59407257252658

>  <Genealogy>  (30) 
Cc1cccc(S(=O)(=O)[N-]c2cccc(C(=O)N3CCN(c4ccccc4)CC3)c2)c1 (protonated)
Cc1cccc(S(=O)(=O)[N-]c2cccc(C(=O)N3CCN(c4ccccc4)CC3)c2)c1 (3D coordinates assigned)
Cc1cccc(S(=O)(=O)[N-]c2cccc(C(=O)N3CCN(c4ccccc4)CC3)c2)c1 (nonaromatic ring conformer: 73.59407257252658 kcal/mol)

>  <smiles>  (30) 
Cc1cccc(S(=O)(=O)Nc2cccc(C(=O)N3CCN(c4ccccc4)CC3)c2)c1

>  <score_type>  (30) 
oracle

>  <origin>  (30) 
adgpu

>  <m_score__min__energy>  (30) 
-11.130000000000001

>  <m_primary>  (30) 
energy

$$$$
30:0
     RDKit          3D

 43 46  0  0  0  0  0  0  0  0999 V2000
   -5.3080   17.4430  -34.3800 C   0  0  0  0  0  0  0  0  0  0  0  0
   -5.8970   18.6100  -33.6560 C   0  0  0  0  0  0  0  0  0  0  0  0
   -5.0720   19.6300  -33.1700 C   0  0  0  0  0  0  0  0  0  0  0  0
   -5.6330   20.7150  -32.4880 C   0  0  0  0  0  0  0  0  0  0  0  0
   -4.7700   21.7460  -31.9890 N   0  0  0  0  0  0  0  0  0  0  0  0
   -5.1550   23.1540  -32.1380 C   0  0  0  0  0  0  0  0  0  0  0  0
   -4.8780   23.9180  -30.8360 C   0  0  0  0  0  0  0  0  0  0  0  0
   -3.5840   23.5420  -30.2440 N   0  0  0  0  0  0  0  0  0  0  0  0
   -3.1840   24.1570  -29.0040 C   0  0  0  0  0  0  0  0  0  0  0  0
   -3.9880   24.0700  -27.8550 C   0  0  0  0  0  0  0  0  0  0  0  0
   -3.5750   24.6960  -26.6770 C   0  0  0  0  0  0  0  0  0  0  0  0
   -2.3760   25.4090  -26.6520 C   0  0  0  0  0  0  0  0  0  0  0  0
   -1.6080   25.4920  -27.8150 C   0  0  0  0  0  0  0  0  0  0  0  0
   -2.0260   24.8750  -28.9520 N   0  0  0  0  0  0  0  0  0  0  0  0
   -2.6980   22.6130  -30.9600 C   0  0  0  0  0  0  0  0  0  0  0  0
   -3.4890   21.3720  -31.3810 C   0  0  0  0  0  0  0  0  0  0  0  0
   -7.0280   20.7710  -32.2980 C   0  0  0  0  0  0  0  0  0  0  0  0
   -7.6520   21.8410  -31.6290 C   0  0  0  0  0  0  0  0  0  0  0  0
   -9.0410   21.8530  -31.4630 C   0  0  0  0  0  0  0  0  0  0  0  0
   -9.8180   20.8050  -31.9630 C   0  0  0  0  0  0  0  0  0  0  0  0
   -9.2130   19.7390  -32.6320 C   0  0  0  0  0  0  0  0  0  0  0  0
   -7.8240   19.7150  -32.8040 C   0  0  0  0  0  0  0  0  0  0  0  0
   -7.2420   18.6770  -33.4600 N   0  0  0  0  0  0  0  0  0  0  0  0
   -4.9371   16.7081  -33.6504 H   0  0  0  0  0  0  0  0  0  0  0  0
   -6.0785   16.9763  -35.0113 H   0  0  0  0  0  0  0  0  0  0  0  0
   -4.4749   17.7856  -35.0113 H   0  0  0  0  0  0  0  0  0  0  0  0
   -3.9840   19.5789  -33.3239 H   0  0  0  0  0  0  0  0  0  0  0  0
   -4.5735   23.6055  -32.9553 H   0  0  0  0  0  0  0  0  0  0  0  0
   -6.2295   23.2108  -32.3668 H   0  0  0  0  0  0  0  0  0  0  0  0
   -4.8706   24.9967  -31.0513 H   0  0  0  0  0  0  0  0  0  0  0  0
   -5.6694   23.6629  -30.1159 H   0  0  0  0  0  0  0  0  0  0  0  0
   -4.9360   23.5128  -27.8832 H   0  0  0  0  0  0  0  0  0  0  0  0
   -4.1940   24.6271  -25.7703 H   0  0  0  0  0  0  0  0  0  0  0  0
   -2.0397   25.9000  -25.7269 H   0  0  0  0  0  0  0  0  0  0  0  0
   -0.6642   26.0569  -27.8113 H   0  0  0  0  0  0  0  0  0  0  0  0
   -2.2923   23.1094  -31.8539 H   0  0  0  0  0  0  0  0  0  0  0  0
   -1.8716   22.3130  -30.2989 H   0  0  0  0  0  0  0  0  0  0  0  0
   -2.8980   20.7994  -32.1110 H   0  0  0  0  0  0  0  0  0  0  0  0
   -3.6901   20.7646  -30.4862 H   0  0  0  0  0  0  0  0  0  0  0  0
   -7.0456   22.6701  -31.2356 H   0  0  0  0  0  0  0  0  0  0  0  0
   -9.5230   22.6903  -30.9371 H   0  0  0  0  0  0  0  0  0  0  0  0
  -10.9097   20.8197  -31.8292 H   0  0  0  0  0  0  0  0  0  0  0  0
   -9.8291   18.9166  -33.0246 H   0  0  0  0  0  0  0  0  0  0  0  0
  1  2  1  0
  2  3  2  0
  3  4  1  0
  4  5  1  0
  5  6  1  0
  6  7  1  0
  7  8  1  0
  8  9  1  0
  9 10  2  0
 10 11  1  0
 11 12  2  0
 12 13  1  0
 13 14  2  0
  8 15  1  0
 15 16  1  0
  4 17  2  0
 17 18  1  0
 18 19  2  0
 19 20  1  0
 20 21  2  0
 21 22  1  0
 22 23  2  0
 23  2  1  0
 16  5  1  0
 22 17  1  0
 14  9  1  0
  1 24  1  0
  1 25  1  0
  1 26  1  0
  3 27  1  0
  6 28  1  0
  6 29  1  0
  7 30  1  0
  7 31  1  0
 10 32  1  0
 11 33  1  0
 12 34  1  0
 13 35  1  0
 15 36  1  0
 15 37  1  0
 16 38  1  0
 16 39  1  0
 18 40  1  0
 19 41  1  0
 20 42  1  0
 21 43  1  0
M  END
>  <UniqueID>  (31) 
30

>  <SMILES>  (31) 
Cc1cc(N2CCN(c3ccccn3)CC2)c2ccccc2n1

>  <Energy>  (31) 
58.819679646091586

>  <Genealogy>  (31) 
Cc1cc(N2CCN(c3ccccn3)CC2)c2ccccc2n1 (3D coordinates assigned)
Cc1cc(N2CCN(c3ccccn3)CC2)c2ccccc2n1 (nonaromatic ring conformer: 58.819679646091586 kcal/mol)

>  <smiles>  (31) 
Cc1cc(N2CCN(c3ccccn3)CC2)c2ccccc2n1

>  <score_type>  (31) 
oracle

>  <origin>  (31) 
adgpu

>  <m_score__min__energy>  (31) 
-8.5

>  <m_primary>  (31) 
energy

$$$$
31:0
     RDKit          3D

 44 46  0  0  0  0  0  0  0  0999 V2000
   -2.0630   22.7040  -30.6920 O   0  0  0  0  0  0  0  0  0  0  0  0
   -3.0580   22.9160  -29.9460 C   0  0  0  0  0  0  0  0  0  0  0  0
   -2.8980   22.8580  -28.5230 N   0  0  0  0  0  0  0  0  0  0  0  0
   -1.8130   23.4350  -27.7820 C   0  0  0  0  0  0  0  0  0  0  0  0
   -1.3100   22.7340  -26.6790 C   0  0  0  0  0  0  0  0  0  0  0  0
   -0.2490   23.2540  -25.9320 C   0  0  0  0  0  0  0  0  0  0  0  0
    0.3290   24.4730  -26.2940 C   0  0  0  0  0  0  0  0  0  0  0  0
   -0.1410   25.1640  -27.4130 C   0  0  0  0  0  0  0  0  0  0  0  0
   -1.2020   24.6450  -28.1720 C   0  0  0  0  0  0  0  0  0  0  0  0
   -1.6200   25.3120  -29.3230 O   0  0  0  0  0  0  0  0  0  0  0  0
   -4.3680   23.2800  -30.5510 C   0  0  0  0  0  0  0  0  0  0  0  0
   -5.2860   22.2610  -30.8760 C   0  0  0  0  0  0  0  0  0  0  0  0
   -6.5280   22.5660  -31.4460 C   0  0  0  0  0  0  0  0  0  0  0  0
   -7.6390   21.2640  -31.8690 S   0  0  0  0  0  0  0  0  0  0  0  0
   -8.9680   21.8360  -32.2810 O   0  0  0  0  0  0  0  0  0  0  0  0
   -7.8460   20.3970  -30.6570 O   0  0  0  0  0  0  0  0  0  0  0  0
   -6.9710   20.3090  -33.1690 N   0  0  0  0  0  0  0  0  0  0  0  0
   -5.5280   20.6030  -33.3580 C   0  0  0  0  0  0  0  0  0  0  0  0
   -4.6120   19.5310  -32.7500 C   0  0  0  0  0  0  0  0  0  0  0  0
   -4.8940   18.1470  -33.3590 C   0  0  0  0  0  0  0  0  0  0  0  0
   -6.3650   17.9720  -33.7790 C   0  0  0  0  0  0  0  0  0  0  0  0
   -7.2840   18.8780  -32.9560 C   0  0  0  0  0  0  0  0  0  0  0  0
   -6.8630   23.8980  -31.7080 C   0  0  0  0  0  0  0  0  0  0  0  0
   -5.9680   24.9190  -31.3890 C   0  0  0  0  0  0  0  0  0  0  0  0
   -4.7290   24.6240  -30.8110 C   0  0  0  0  0  0  0  0  0  0  0  0
   -3.8750   25.6770  -30.5020 O   0  0  0  0  0  0  0  0  0  0  0  0
   -1.7530   21.7671  -26.3983 H   0  0  0  0  0  0  0  0  0  0  0  0
    0.1308   22.7031  -25.0589 H   0  0  0  0  0  0  0  0  0  0  0  0
    1.1545   24.8888  -25.6976 H   0  0  0  0  0  0  0  0  0  0  0  0
    0.3222   26.1192  -27.7010 H   0  0  0  0  0  0  0  0  0  0  0  0
   -2.0460   24.8170  -30.0980 H   0  0  0  0  0  0  0  0  0  0  0  0
   -5.0229   21.2112  -30.6790 H   0  0  0  0  0  0  0  0  0  0  0  0
   -5.3222   20.6691  -34.4366 H   0  0  0  0  0  0  0  0  0  0  0  0
   -5.3148   21.5498  -32.8402 H   0  0  0  0  0  0  0  0  0  0  0  0
   -3.5639   19.8020  -32.9453 H   0  0  0  0  0  0  0  0  0  0  0  0
   -4.8050   19.4811  -31.6682 H   0  0  0  0  0  0  0  0  0  0  0  0
   -4.2567   18.0162  -34.2460 H   0  0  0  0  0  0  0  0  0  0  0  0
   -4.6765   17.3936  -32.5876 H   0  0  0  0  0  0  0  0  0  0  0  0
   -6.4676   18.2281  -34.8438 H   0  0  0  0  0  0  0  0  0  0  0  0
   -6.6567   16.9260  -33.6034 H   0  0  0  0  0  0  0  0  0  0  0  0
   -8.3269   18.6927  -33.2526 H   0  0  0  0  0  0  0  0  0  0  0  0
   -7.1315   18.6471  -31.8914 H   0  0  0  0  0  0  0  0  0  0  0  0
   -7.8332   24.1408  -32.1661 H   0  0  0  0  0  0  0  0  0  0  0  0
   -6.2389   25.9653  -31.5938 H   0  0  0  0  0  0  0  0  0  0  0  0
  1  2  2  0
  2  3  1  0
  3  4  1  0
  4  5  2  0
  5  6  1  0
  6  7  2  0
  7  8  1  0
  8  9  2  0
  9 10  1  0
  2 11  1  0
 11 12  2  0
 12 13  1  0
 13 14  1  0
 14 15  2  0
 14 16  2  0
 14 17  1  0
 17 18  1  0
 18 19  1  0
 19 20  1  0
 20 21  1  0
 21 22  1  0
 13 23  2  0
 23 24  1  0
 24 25  2  0
 25 26  1  0
  9  4  1  0
 25 11  1  0
 22 17  1  0
  5 27  1  0
  6 28  1  0
  7 29  1  0
  8 30  1  0
 10 31  1  0
 12 32  1  0
 18 33  1  0
 18 34  1  0
 19 35  1  0
 19 36  1  0
 20 37  1  0
 20 38  1  0
 21 39  1  0
 21 40  1  0
 22 41  1  0
 22 42  1  0
 23 43  1  0
 24 44  1  0
M  CHG  2   3  -1  26  -1
M  END
>  <UniqueID>  (32) 
31

>  <SMILES>  (32) 
O=C([N-]c1ccccc1O)c1cc(S(=O)(=O)N2CCCCC2)ccc1[O-]

>  <Energy>  (32) 
58.62809074662732

>  <Genealogy>  (32) 
O=C([N-]c1ccccc1O)c1cc(S(=O)(=O)N2CCCCC2)ccc1[O-] (protonated)
O=C([N-]c1ccccc1O)c1cc(S(=O)(=O)N2CCCCC2)ccc1[O-] (3D coordinates assigned)
O=C([N-]c1ccccc1O)c1cc(S(=O)(=O)N2CCCCC2)ccc1[O-] (nonaromatic ring conformer: 58.62809074662732 kcal/mol)

>  <smiles>  (32) 
O=C(Nc1ccccc1O)c1cc(S(=O)(=O)N2CCCCC2)ccc1O

>  <score_type>  (32) 
oracle

>  <origin>  (32) 
adgpu

>  <m_score__min__energy>  (32) 
-13.4

>  <m_primary>  (32) 
energy

$$$$
32:0
     RDKit          3D

 53 56  0  0  0  0  0  0  0  0999 V2000
   -5.3450   26.4580  -30.4080 O   0  0  0  0  0  0  0  0  0  0  0  0
   -4.9070   25.2810  -30.5000 C   0  0  0  0  0  0  0  0  0  0  0  0
   -3.4980   25.0580  -30.3460 N   0  0  0  0  0  0  0  0  0  0  0  0
   -2.8750   23.7880  -30.1000 C   0  0  0  0  0  0  0  0  0  0  0  0
   -3.0020   22.7260  -31.0130 C   0  0  0  0  0  0  0  0  0  0  0  0
   -2.3980   21.4960  -30.7500 C   0  0  0  0  0  0  0  0  0  0  0  0
   -1.6730   21.3080  -29.5730 C   0  0  0  0  0  0  0  0  0  0  0  0
   -1.5510   22.3510  -28.6480 C   0  0  0  0  0  0  0  0  0  0  0  0
   -0.6310   22.0760  -27.1760 Cl  0  0  0  0  0  0  0  0  0  0  0  0
   -2.1560   23.5950  -28.9090 C   0  0  0  0  0  0  0  0  0  0  0  0
   -2.0150   24.6850  -27.9880 N   0  0  0  0  0  0  0  0  0  0  0  0
   -1.0400   25.7420  -28.2500 C   0  0  0  0  0  0  0  0  0  0  0  0
   -0.5480   26.3250  -26.9230 C   0  0  0  0  0  0  0  0  0  0  0  0
   -1.6390   26.6940  -26.0980 O   0  0  0  0  0  0  0  0  0  0  0  0
   -2.3750   25.5420  -25.7280 C   0  0  0  0  0  0  0  0  0  0  0  0
   -3.0280   24.8980  -26.9540 C   0  0  0  0  0  0  0  0  0  0  0  0
   -5.8430   24.1780  -30.8170 C   0  0  0  0  0  0  0  0  0  0  0  0
   -6.2290   23.9250  -32.1440 C   0  0  0  0  0  0  0  0  0  0  0  0
   -7.1160   22.8850  -32.4370 C   0  0  0  0  0  0  0  0  0  0  0  0
   -7.6440   22.0960  -31.4070 C   0  0  0  0  0  0  0  0  0  0  0  0
   -8.7660   20.7820  -31.7800 S   0  0  0  0  0  0  0  0  0  0  0  0
  -10.0330   21.3640  -32.3400 O   0  0  0  0  0  0  0  0  0  0  0  0
   -9.1100   20.0580  -30.5080 O   0  0  0  0  0  0  0  0  0  0  0  0
   -8.1110   19.6350  -32.9260 N   0  0  0  0  0  0  0  0  0  0  0  0
   -6.7860   20.0280  -33.4020 C   0  0  0  0  0  0  0  0  0  0  0  0
   -6.0750   18.7460  -33.8120 C   0  0  0  0  0  0  0  0  0  0  0  0
   -6.8530   17.6200  -33.1460 C   0  0  0  0  0  0  0  0  0  0  0  0
   -7.9390   18.3080  -32.3370 C   0  0  0  0  0  0  0  0  0  0  0  0
   -7.2650   22.3480  -30.0820 C   0  0  0  0  0  0  0  0  0  0  0  0
   -6.3780   23.3870  -29.7880 C   0  0  0  0  0  0  0  0  0  0  0  0
   -3.5800   22.8656  -31.9385 H   0  0  0  0  0  0  0  0  0  0  0  0
   -2.4937   20.6723  -31.4727 H   0  0  0  0  0  0  0  0  0  0  0  0
   -1.1960   20.3375  -29.3715 H   0  0  0  0  0  0  0  0  0  0  0  0
   -0.1872   25.3244  -28.8053 H   0  0  0  0  0  0  0  0  0  0  0  0
   -1.5129   26.5366  -28.8459 H   0  0  0  0  0  0  0  0  0  0  0  0
    0.0592   25.5707  -26.4012 H   0  0  0  0  0  0  0  0  0  0  0  0
    0.0524   27.2222  -27.1342 H   0  0  0  0  0  0  0  0  0  0  0  0
   -1.6959   24.8157  -25.2576 H   0  0  0  0  0  0  0  0  0  0  0  0
   -3.1650   25.8394  -25.0227 H   0  0  0  0  0  0  0  0  0  0  0  0
   -3.4707   23.9321  -26.6693 H   0  0  0  0  0  0  0  0  0  0  0  0
   -3.8155   25.5609  -27.3419 H   0  0  0  0  0  0  0  0  0  0  0  0
   -5.8308   24.5492  -32.9575 H   0  0  0  0  0  0  0  0  0  0  0  0
   -7.4005   22.6854  -33.4807 H   0  0  0  0  0  0  0  0  0  0  0  0
   -6.8775   20.7042  -34.2648 H   0  0  0  0  0  0  0  0  0  0  0  0
   -6.2249   20.5610  -32.6203 H   0  0  0  0  0  0  0  0  0  0  0  0
   -6.0912   18.6301  -34.9058 H   0  0  0  0  0  0  0  0  0  0  0  0
   -5.0184   18.7491  -33.5061 H   0  0  0  0  0  0  0  0  0  0  0  0
   -7.2977   16.9581  -33.9037 H   0  0  0  0  0  0  0  0  0  0  0  0
   -6.2068   16.9920  -32.5150 H   0  0  0  0  0  0  0  0  0  0  0  0
   -8.8784   17.7391  -32.3991 H   0  0  0  0  0  0  0  0  0  0  0  0
   -7.6639   18.3750  -31.2741 H   0  0  0  0  0  0  0  0  0  0  0  0
   -7.6674   21.7252  -29.2695 H   0  0  0  0  0  0  0  0  0  0  0  0
   -6.0971   23.5864  -28.7433 H   0  0  0  0  0  0  0  0  0  0  0  0
  1  2  2  0
  2  3  1  0
  3  4  1  0
  4  5  2  0
  5  6  1  0
  6  7  2  0
  7  8  1  0
  8  9  1  0
  8 10  2  0
 10 11  1  0
 11 12  1  0
 12 13  1  0
 13 14  1  0
 14 15  1  0
 15 16  1  0
  2 17  1  0
 17 18  2  0
 18 19  1  0
 19 20  2  0
 20 21  1  0
 21 22  2  0
 21 23  2  0
 21 24  1  0
 24 25  1  0
 25 26  1  0
 26 27  1  0
 27 28  1  0
 20 29  1  0
 29 30  2  0
 10  4  1  0
 16 11  1  0
 30 17  1  0
 28 24  1  0
  5 31  1  0
  6 32  1  0
  7 33  1  0
 12 34  1  0
 12 35  1  0
 13 36  1  0
 13 37  1  0
 15 38  1  0
 15 39  1  0
 16 40  1  0
 16 41  1  0
 18 42  1  0
 19 43  1  0
 25 44  1  0
 25 45  1  0
 26 46  1  0
 26 47  1  0
 27 48  1  0
 27 49  1  0
 28 50  1  0
 28 51  1  0
 29 52  1  0
 30 53  1  0
M  CHG  1   3  -1
M  END
>  <UniqueID>  (33) 
32

>  <SMILES>  (33) 
O=C([N-]c1cccc(Cl)c1N1CCOCC1)c1ccc(S(=O)(=O)N2CCCC2)cc1

>  <Energy>  (33) 
69.75344859073559

>  <Genealogy>  (33) 
O=C([N-]c1cccc(Cl)c1N1CCOCC1)c1ccc(S(=O)(=O)N2CCCC2)cc1 (protonated)
O=C([N-]c1cccc(Cl)c1N1CCOCC1)c1ccc(S(=O)(=O)N2CCCC2)cc1 (3D coordinates assigned)
O=C([N-]c1cccc(Cl)c1N1CCOCC1)c1ccc(S(=O)(=O)N2CCCC2)cc1 (nonaromatic ring conformer: 69.75344859073559 kcal/mol)

>  <smiles>  (33) 
O=C(Nc1cccc(Cl)c1N1CCOCC1)c1ccc(S(=O)(=O)N2CCCC2)cc1

>  <score_type>  (33) 
oracle

>  <origin>  (33) 
adgpu

>  <m_score__min__energy>  (33) 
-12.09

>  <m_primary>  (33) 
energy

$$$$
33:0
     RDKit          3D

 50 53  0  0  0  0  0  0  0  0999 V2000
   -1.0720   25.0080  -25.8580 C   0  0  0  0  0  0  0  0  0  0  0  0
   -1.6710   24.9410  -27.2230 C   0  0  0  0  0  0  0  0  0  0  0  0
   -2.8980   24.4010  -27.5410 C   0  0  0  0  0  0  0  0  0  0  0  0
   -3.0280   24.6430  -28.8980 C   0  0  0  0  0  0  0  0  0  0  0  0
   -4.1680   24.2670  -29.7690 C   0  0  0  0  0  0  0  0  0  0  0  0
   -5.3610   25.0130  -29.7740 C   0  0  0  0  0  0  0  0  0  0  0  0
   -6.4270   24.6410  -30.5990 C   0  0  0  0  0  0  0  0  0  0  0  0
   -6.3260   23.5060  -31.4210 C   0  0  0  0  0  0  0  0  0  0  0  0
   -7.3970   23.1050  -32.2870 N   0  0  0  0  0  0  0  0  0  0  0  0
   -8.3950   22.1180  -31.9900 C   0  0  0  0  0  0  0  0  0  0  0  0
   -9.5350   22.5050  -31.6180 O   0  0  0  0  0  0  0  0  0  0  0  0
   -8.1380   20.6690  -32.1530 C   0  0  0  0  0  0  0  0  0  0  0  0
   -9.0790   19.7180  -31.7180 C   0  0  0  0  0  0  0  0  0  0  0  0
   -8.8360   18.3540  -31.8920 C   0  0  0  0  0  0  0  0  0  0  0  0
   -7.6500   17.9230  -32.4910 C   0  0  0  0  0  0  0  0  0  0  0  0
   -6.6940   18.8570  -32.9080 C   0  0  0  0  0  0  0  0  0  0  0  0
   -5.2200   18.3120  -33.7040 S   0  0  0  0  0  0  0  0  0  0  0  0
   -5.3420   18.5420  -35.1850 O   0  0  0  0  0  0  0  0  0  0  0  0
   -5.0270   16.8410  -33.4610 O   0  0  0  0  0  0  0  0  0  0  0  0
   -3.8640   19.2180  -33.0820 N   0  0  0  0  0  0  0  0  0  0  0  0
   -3.9420   20.6350  -33.4440 C   0  0  0  0  0  0  0  0  0  0  0  0
   -2.5110   21.1540  -33.4830 C   0  0  0  0  0  0  0  0  0  0  0  0
   -1.6310   19.9170  -33.5950 C   0  0  0  0  0  0  0  0  0  0  0  0
   -2.5920   18.7380  -33.6280 C   0  0  0  0  0  0  0  0  0  0  0  0
   -6.9400   20.2270  -32.7370 C   0  0  0  0  0  0  0  0  0  0  0  0
   -5.1330   22.7770  -31.4360 C   0  0  0  0  0  0  0  0  0  0  0  0
   -4.0650   23.1470  -30.6130 C   0  0  0  0  0  0  0  0  0  0  0  0
   -1.9350   25.3010  -29.3380 N   0  0  0  0  0  0  0  0  0  0  0  0
   -1.1130   25.4900  -28.3170 N   0  0  0  0  0  0  0  0  0  0  0  0
   -1.8676   24.9190  -25.1037 H   0  0  0  0  0  0  0  0  0  0  0  0
   -0.3536   24.1846  -25.7320 H   0  0  0  0  0  0  0  0  0  0  0  0
   -0.5532   25.9698  -25.7320 H   0  0  0  0  0  0  0  0  0  0  0  0
   -3.6094   23.8949  -26.8719 H   0  0  0  0  0  0  0  0  0  0  0  0
   -5.4558   25.8954  -29.1241 H   0  0  0  0  0  0  0  0  0  0  0  0
   -7.3495   25.2401  -30.6045 H   0  0  0  0  0  0  0  0  0  0  0  0
  -10.0113   20.0507  -31.2382 H   0  0  0  0  0  0  0  0  0  0  0  0
   -9.5805   17.6170  -31.5565 H   0  0  0  0  0  0  0  0  0  0  0  0
   -7.4668   16.8480  -32.6353 H   0  0  0  0  0  0  0  0  0  0  0  0
   -3.8510   19.1260  -32.0390 H   0  0  0  0  0  0  0  0  0  0  0  0
   -4.4140   20.7491  -34.4310 H   0  0  0  0  0  0  0  0  0  0  0  0
   -4.5479   21.1969  -32.7180 H   0  0  0  0  0  0  0  0  0  0  0  0
   -2.3639   21.8102  -34.3535 H   0  0  0  0  0  0  0  0  0  0  0  0
   -2.2682   21.7472  -32.5890 H   0  0  0  0  0  0  0  0  0  0  0  0
   -1.0335   19.9522  -34.5179 H   0  0  0  0  0  0  0  0  0  0  0  0
   -0.9217   19.8428  -32.7575 H   0  0  0  0  0  0  0  0  0  0  0  0
   -2.7303   18.3902  -34.6624 H   0  0  0  0  0  0  0  0  0  0  0  0
   -2.2027   17.8929  -33.0413 H   0  0  0  0  0  0  0  0  0  0  0  0
   -6.1885   20.9612  -33.0630 H   0  0  0  0  0  0  0  0  0  0  0  0
   -5.0339   21.9058  -32.1003 H   0  0  0  0  0  0  0  0  0  0  0  0
   -3.1366   22.5572  -30.6258 H   0  0  0  0  0  0  0  0  0  0  0  0
  1  2  1  0
  2  3  1  0
  3  4  2  0
  4  5  1  0
  5  6  2  0
  6  7  1  0
  7  8  2  0
  8  9  1  0
  9 10  1  0
 10 11  2  0
 10 12  1  0
 12 13  2  0
 13 14  1  0
 14 15  2  0
 15 16  1  0
 16 17  1  0
 17 18  2  0
 17 19  2  0
 17 20  1  0
 20 21  1  0
 21 22  1  0
 22 23  1  0
 23 24  1  0
 16 25  2  0
  8 26  1  0
 26 27  2  0
  4 28  1  0
 28 29  1  0
 29  2  2  0
 27  5  1  0
 25 12  1  0
 24 20  1  0
  1 30  1  0
  1 31  1  0
  1 32  1  0
  3 33  1  0
  6 34  1  0
  7 35  1  0
 13 36  1  0
 14 37  1  0
 15 38  1  0
 20 39  1  0
 21 40  1  0
 21 41  1  0
 22 42  1  0
 22 43  1  0
 23 44  1  0
 23 45  1  0
 24 46  1  0
 24 47  1  0
 25 48  1  0
 26 49  1  0
 27 50  1  0
M  CHG  3   9  -1  20   1  28  -1
M  END
>  <UniqueID>  (34) 
33

>  <SMILES>  (34) 
Cc1cc(-c2ccc([N-]C(=O)c3cccc(S(=O)(=O)[NH+]4CCCC4)c3)cc2)[n-]n1

>  <Energy>  (34) 
89.50325183026564

>  <Genealogy>  (34) 
Cc1cc(-c2ccc([N-]C(=O)c3cccc(S(=O)(=O)[NH+]4CCCC4)c3)cc2)[n-]n1 (protonated)
Cc1cc(-c2ccc([N-]C(=O)c3cccc(S(=O)(=O)[NH+]4CCCC4)c3)cc2)[n-]n1 (3D coordinates assigned)
Cc1cc(-c2ccc([N-]C(=O)c3cccc(S(=O)(=O)[NH+]4CCCC4)c3)cc2)[n-]n1 (nonaromatic ring conformer: 89.50325183026564 kcal/mol)

>  <smiles>  (34) 
Cc1cc(-c2ccc(NC(=O)c3cccc(S(=O)(=O)N4CCCC4)c3)cc2)[nH]n1

>  <score_type>  (34) 
oracle

>  <origin>  (34) 
adgpu

>  <m_score__min__energy>  (34) 
-11.74

>  <m_primary>  (34) 
energy

$$$$
34:0
     RDKit          3D

 63 67  0  0  0  0  0  0  0  0999 V2000
   -1.1760   27.0080  -25.1330 C   0  0  0  0  0  0  0  0  0  0  0  0
   -1.0210   25.7560  -25.9490 C   0  0  0  0  0  0  0  0  0  0  0  0
   -0.8820   24.5150  -25.3080 C   0  0  0  0  0  0  0  0  0  0  0  0
   -0.7860   23.3410  -26.0610 C   0  0  0  0  0  0  0  0  0  0  0  0
   -0.8330   23.3920  -27.4590 C   0  0  0  0  0  0  0  0  0  0  0  0
   -0.7270   22.1920  -28.1750 O   0  0  0  0  0  0  0  0  0  0  0  0
   -1.2770   21.9270  -29.4400 C   0  0  0  0  0  0  0  0  0  0  0  0
   -0.7530   20.8570  -30.1700 C   0  0  0  0  0  0  0  0  0  0  0  0
   -1.3340   20.4660  -31.3760 C   0  0  0  0  0  0  0  0  0  0  0  0
   -2.4420   21.1570  -31.8890 C   0  0  0  0  0  0  0  0  0  0  0  0
   -3.2030   20.5360  -33.3600 S   0  0  0  0  0  0  0  0  0  0  0  0
   -4.1590   21.6040  -33.8240 O   0  0  0  0  0  0  0  0  0  0  0  0
   -2.1670   20.3880  -34.4360 O   0  0  0  0  0  0  0  0  0  0  0  0
   -4.1290   19.0460  -33.1700 N   0  0  2  0  0  0  0  0  0  0  0  0
   -3.8260   18.1670  -34.3540 C   0  0  0  0  0  0  0  0  0  0  0  0
   -3.7200   16.6770  -34.0830 C   0  0  0  0  0  0  0  0  0  0  0  0
   -2.4600   16.0540  -34.0160 C   0  0  0  0  0  0  0  0  0  0  0  0
   -2.3620   14.6790  -33.7670 C   0  0  0  0  0  0  0  0  0  0  0  0
   -3.5150   13.9140  -33.5950 C   0  0  0  0  0  0  0  0  0  0  0  0
   -4.7720   14.5220  -33.6590 C   0  0  0  0  0  0  0  0  0  0  0  0
   -4.8740   15.8990  -33.8890 C   0  0  0  0  0  0  0  0  0  0  0  0
   -6.4820   16.6710  -33.9780 S   0  0  0  0  0  0  0  0  0  0  0  0
   -6.1990   17.7270  -32.5080 C   0  0  0  0  0  0  0  0  0  0  0  0
   -5.5860   19.1480  -32.7700 C   0  0  1  0  0  0  0  0  0  0  0  0
   -5.9080   20.0040  -31.4940 C   0  0  0  0  0  0  0  0  0  0  0  0
   -6.8200   21.1880  -31.7330 C   0  0  0  0  0  0  0  0  0  0  0  0
   -6.2790   22.4230  -32.1390 C   0  0  0  0  0  0  0  0  0  0  0  0
   -7.1130   23.5140  -32.4030 C   0  0  0  0  0  0  0  0  0  0  0  0
   -8.4990   23.3770  -32.3000 C   0  0  0  0  0  0  0  0  0  0  0  0
   -9.0550   22.1410  -31.9510 C   0  0  0  0  0  0  0  0  0  0  0  0
   -8.2200   21.0480  -31.6810 C   0  0  0  0  0  0  0  0  0  0  0  0
   -2.9440   22.2660  -31.1870 C   0  0  0  0  0  0  0  0  0  0  0  0
   -2.3820   22.6340  -29.9590 C   0  0  0  0  0  0  0  0  0  0  0  0
   -0.9470   24.6330  -28.1040 C   0  0  0  0  0  0  0  0  0  0  0  0
   -1.0580   25.8090  -27.3530 C   0  0  0  0  0  0  0  0  0  0  0  0
   -1.1446   26.7546  -24.0631 H   0  0  0  0  0  0  0  0  0  0  0  0
   -0.3571   27.7034  -25.3693 H   0  0  0  0  0  0  0  0  0  0  0  0
   -2.1398   27.4827  -25.3693 H   0  0  0  0  0  0  0  0  0  0  0  0
   -0.8485   24.4660  -24.2096 H   0  0  0  0  0  0  0  0  0  0  0  0
   -0.6730   22.3723  -25.5523 H   0  0  0  0  0  0  0  0  0  0  0  0
    0.1269   20.3175  -29.7895 H   0  0  0  0  0  0  0  0  0  0  0  0
   -0.9206   19.6097  -31.9290 H   0  0  0  0  0  0  0  0  0  0  0  0
   -3.6540   18.6070  -32.3480 H   0  0  0  0  0  0  0  0  0  0  0  0
   -4.6262   18.3158  -35.0940 H   0  0  0  0  0  0  0  0  0  0  0  0
   -2.8256   18.4725  -34.6944 H   0  0  0  0  0  0  0  0  0  0  0  0
   -1.5468   16.6501  -34.1600 H   0  0  0  0  0  0  0  0  0  0  0  0
   -1.3729   14.2015  -33.7070 H   0  0  0  0  0  0  0  0  0  0  0  0
   -3.4354   12.8327  -33.4091 H   0  0  0  0  0  0  0  0  0  0  0  0
   -5.6819   13.9178  -33.5285 H   0  0  0  0  0  0  0  0  0  0  0  0
   -7.1683   17.8689  -32.0076 H   0  0  0  0  0  0  0  0  0  0  0  0
   -5.4470   17.1932  -31.9083 H   0  0  0  0  0  0  0  0  0  0  0  0
   -6.0287   19.6644  -33.6345 H   0  0  0  0  0  0  0  0  0  0  0  0
   -6.3884   19.3468  -30.7542 H   0  0  0  0  0  0  0  0  0  0  0  0
   -4.9486   20.4186  -31.1511 H   0  0  0  0  0  0  0  0  0  0  0  0
   -5.1899   22.5306  -32.2496 H   0  0  0  0  0  0  0  0  0  0  0  0
   -6.6767   24.4815  -32.6922 H   0  0  0  0  0  0  0  0  0  0  0  0
   -9.1532   24.2400  -32.4930 H   0  0  0  0  0  0  0  0  0  0  0  0
  -10.1473   22.0273  -31.8886 H   0  0  0  0  0  0  0  0  0  0  0  0
   -8.6619   20.0734  -31.4265 H   0  0  0  0  0  0  0  0  0  0  0  0
   -3.7806   22.8463  -31.6035 H   0  0  0  0  0  0  0  0  0  0  0  0
   -2.8043   23.4791  -29.3955 H   0  0  0  0  0  0  0  0  0  0  0  0
   -0.9491   24.6818  -29.2029 H   0  0  0  0  0  0  0  0  0  0  0  0
   -1.1744   26.7768  -27.8628 H   0  0  0  0  0  0  0  0  0  0  0  0
  1  2  1  0
  2  3  2  0
  3  4  1  0
  4  5  2  0
  5  6  1  0
  6  7  1  0
  7  8  2  0
  8  9  1  0
  9 10  2  0
 10 11  1  0
 11 12  2  0
 11 13  2  0
 11 14  1  0
 14 15  1  0
 15 16  1  0
 16 17  2  0
 17 18  1  0
 18 19  2  0
 19 20  1  0
 20 21  2  0
 21 22  1  0
 22 23  1  0
 23 24  1  0
 24 25  1  0
 25 26  1  0
 26 27  2  0
 27 28  1  0
 28 29  2  0
 29 30  1  0
 30 31  2  0
 10 32  1  0
 32 33  2  0
  5 34  1  0
 34 35  2  0
 35  2  1  0
 33  7  1  0
 24 14  1  0
 31 26  1  0
 21 16  1  0
  1 36  1  0
  1 37  1  0
  1 38  1  0
  3 39  1  0
  4 40  1  0
  8 41  1  0
  9 42  1  0
 14 43  1  1
 15 44  1  0
 15 45  1  0
 17 46  1  0
 18 47  1  0
 19 48  1  0
 20 49  1  0
 23 50  1  0
 23 51  1  0
 24 52  1  6
 25 53  1  0
 25 54  1  0
 27 55  1  0
 28 56  1  0
 29 57  1  0
 30 58  1  0
 31 59  1  0
 32 60  1  0
 33 61  1  0
 34 62  1  0
 35 63  1  0
M  CHG  1  14   1
M  END
>  <UniqueID>  (35) 
34

>  <SMILES>  (35) 
Cc1ccc(Oc2ccc(S(=O)(=O)[N@@H+]3Cc4ccccc4SC[C@H]3Cc3ccccc3)cc2)cc1

>  <Energy>  (35) 
104.27905326442728

>  <Genealogy>  (35) 
Cc1ccc(Oc2ccc(S(=O)(=O)[NH+]3Cc4ccccc4SCC3Cc3ccccc3)cc2)cc1 (protonated)
Cc1ccc(Oc2ccc(S(=O)(=O)[N@@H+]3Cc4ccccc4SC[C@H]3Cc3ccccc3)cc2)cc1 (chirality)
Cc1ccc(Oc2ccc(S(=O)(=O)[N@@H+]3Cc4ccccc4SC[C@H]3Cc3ccccc3)cc2)cc1 (3D coordinates assigned)
Cc1ccc(Oc2ccc(S(=O)(=O)[N@@H+]3Cc4ccccc4SC[C@H]3Cc3ccccc3)cc2)cc1 (nonaromatic ring conformer: 104.27905326442728 kcal/mol)

>  <smiles>  (35) 
Cc1ccc(Oc2ccc(S(=O)(=O)N3Cc4ccccc4SCC3Cc3ccccc3)cc2)cc1

>  <score_type>  (35) 
oracle

>  <origin>  (35) 
adgpu

>  <m_score__min__energy>  (35) 
-7.9699999999999998

>  <m_primary>  (35) 
energy

$$$$
35:0
     RDKit          3D

 54 57  0  0  0  0  0  0  0  0999 V2000
   -5.7480   25.3280  -28.9270 O   0  0  0  0  0  0  0  0  0  0  0  0
   -5.4190   24.9990  -30.3540 S   0  0  0  0  0  0  0  0  0  0  0  0
   -5.7530   26.1790  -31.2250 O   0  0  0  0  0  0  0  0  0  0  0  0
   -3.7220   24.6500  -30.4780 N   0  0  0  0  0  0  0  0  0  0  0  0
   -2.9680   23.9220  -29.5000 C   0  0  0  0  0  0  0  0  0  0  0  0
   -3.3310   22.6220  -29.0970 C   0  0  0  0  0  0  0  0  0  0  0  0
   -2.5550   21.9130  -28.1730 C   0  0  0  0  0  0  0  0  0  0  0  0
   -1.4200   22.5280  -27.6020 C   0  0  0  0  0  0  0  0  0  0  0  0
   -1.0640   23.8220  -28.0000 C   0  0  0  0  0  0  0  0  0  0  0  0
   -1.8330   24.5160  -28.9370 C   0  0  0  0  0  0  0  0  0  0  0  0
   -1.4530   25.7970  -29.3220 O   0  0  0  0  0  0  0  0  0  0  0  0
   -0.5170   21.7820  -26.6460 C   0  0  0  0  0  0  0  0  0  0  0  0
   -1.2320   20.6090  -25.9690 C   0  0  0  0  0  0  0  0  0  0  0  0
   -1.9320   19.7390  -27.0140 C   0  0  0  0  0  0  0  0  0  0  0  0
   -3.0210   20.5410  -27.7400 C   0  0  0  0  0  0  0  0  0  0  0  0
   -6.3330   23.5940  -30.8970 C   0  0  0  0  0  0  0  0  0  0  0  0
   -6.0430   23.0210  -32.1410 C   0  0  0  0  0  0  0  0  0  0  0  0
   -6.6820   21.8430  -32.5380 C   0  0  0  0  0  0  0  0  0  0  0  0
   -7.6190   21.2300  -31.6980 C   0  0  0  0  0  0  0  0  0  0  0  0
   -8.3640   19.7030  -32.1770 S   0  0  0  0  0  0  0  0  0  0  0  0
   -9.3940   19.9670  -33.2440 O   0  0  0  0  0  0  0  0  0  0  0  0
   -9.0700   19.1110  -30.9890 O   0  0  0  0  0  0  0  0  0  0  0  0
   -7.1850   18.5540  -32.7580 N   0  0  0  0  0  0  0  0  0  0  0  0
   -6.2970   18.1180  -31.6660 C   0  0  0  0  0  0  0  0  0  0  0  0
   -5.4620   16.9080  -32.1190 C   0  0  0  0  0  0  0  0  0  0  0  0
   -5.2720   16.8650  -33.6450 C   0  0  0  0  0  0  0  0  0  0  0  0
   -5.1690   18.2780  -34.2320 C   0  0  0  0  0  0  0  0  0  0  0  0
   -6.4060   19.1340  -33.8700 C   0  0  0  0  0  0  0  0  0  0  0  0
   -7.9340   21.8220  -30.4660 C   0  0  0  0  0  0  0  0  0  0  0  0
   -7.2930   23.0000  -30.0670 C   0  0  0  0  0  0  0  0  0  0  0  0
   -4.2368   22.1577  -29.5142 H   0  0  0  0  0  0  0  0  0  0  0  0
   -0.1696   24.2971  -27.5705 H   0  0  0  0  0  0  0  0  0  0  0  0
    0.3475   21.3946  -27.2050 H   0  0  0  0  0  0  0  0  0  0  0  0
   -0.2039   22.4850  -25.8600 H   0  0  0  0  0  0  0  0  0  0  0  0
   -0.4950   20.0001  -25.4248 H   0  0  0  0  0  0  0  0  0  0  0  0
   -1.9843   21.0039  -25.2704 H   0  0  0  0  0  0  0  0  0  0  0  0
   -1.1913   19.3881  -27.7476 H   0  0  0  0  0  0  0  0  0  0  0  0
   -2.3999   18.8820  -26.5074 H   0  0  0  0  0  0  0  0  0  0  0  0
   -3.3338   19.9792  -28.6325 H   0  0  0  0  0  0  0  0  0  0  0  0
   -3.8512   20.6836  -27.0326 H   0  0  0  0  0  0  0  0  0  0  0  0
   -5.3103   23.4991  -32.8078 H   0  0  0  0  0  0  0  0  0  0  0  0
   -6.4475   21.3955  -33.5151 H   0  0  0  0  0  0  0  0  0  0  0  0
   -5.6235   18.9436  -31.3924 H   0  0  0  0  0  0  0  0  0  0  0  0
   -6.9071   17.8310  -30.7969 H   0  0  0  0  0  0  0  0  0  0  0  0
   -4.4727   16.9627  -31.6412 H   0  0  0  0  0  0  0  0  0  0  0  0
   -6.0029   15.9972  -31.8225 H   0  0  0  0  0  0  0  0  0  0  0  0
   -4.3493   16.3125  -33.8761 H   0  0  0  0  0  0  0  0  0  0  0  0
   -6.1453   16.3660  -34.0904 H   0  0  0  0  0  0  0  0  0  0  0  0
   -4.2675   18.7660  -33.8330 H   0  0  0  0  0  0  0  0  0  0  0  0
   -5.1163   18.1936  -35.3275 H   0  0  0  0  0  0  0  0  0  0  0  0
   -6.0671   20.1389  -33.5777 H   0  0  0  0  0  0  0  0  0  0  0  0
   -7.0593   19.1707  -34.7542 H   0  0  0  0  0  0  0  0  0  0  0  0
   -8.6872   21.3588  -29.8116 H   0  0  0  0  0  0  0  0  0  0  0  0
   -7.5432   23.4606  -29.0999 H   0  0  0  0  0  0  0  0  0  0  0  0
  1  2  2  0
  2  3  2  0
  2  4  1  0
  4  5  1  0
  5  6  2  0
  6  7  1  0
  7  8  2  0
  8  9  1  0
  9 10  2  0
 10 11  1  0
  8 12  1  0
 12 13  1  0
 13 14  1  0
 14 15  1  0
  2 16  1  0
 16 17  2  0
 17 18  1  0
 18 19  2  0
 19 20  1  0
 20 21  2  0
 20 22  2  0
 20 23  1  0
 23 24  1  0
 24 25  1  0
 25 26  1  0
 26 27  1  0
 27 28  1  0
 19 29  1  0
 29 30  2  0
 10  5  1  0
 30 16  1  0
 15  7  1  0
 28 23  1  0
  6 31  1  0
  9 32  1  0
 12 33  1  0
 12 34  1  0
 13 35  1  0
 13 36  1  0
 14 37  1  0
 14 38  1  0
 15 39  1  0
 15 40  1  0
 17 41  1  0
 18 42  1  0
 24 43  1  0
 24 44  1  0
 25 45  1  0
 25 46  1  0
 26 47  1  0
 26 48  1  0
 27 49  1  0
 27 50  1  0
 28 51  1  0
 28 52  1  0
 29 53  1  0
 30 54  1  0
M  CHG  2   4  -1  11  -1
M  END
>  <UniqueID>  (36) 
35

>  <SMILES>  (36) 
O=S(=O)([N-]c1cc2c(cc1[O-])CCCC2)c1ccc(S(=O)(=O)N2CCCCC2)cc1

>  <Energy>  (36) 
61.553542200030876

>  <Genealogy>  (36) 
O=S(=O)([N-]c1cc2c(cc1[O-])CCCC2)c1ccc(S(=O)(=O)N2CCCCC2)cc1 (protonated)
O=S(=O)([N-]c1cc2c(cc1[O-])CCCC2)c1ccc(S(=O)(=O)N2CCCCC2)cc1 (3D coordinates assigned)
O=S(=O)([N-]c1cc2c(cc1[O-])CCCC2)c1ccc(S(=O)(=O)N2CCCCC2)cc1 (nonaromatic ring conformer: 61.553542200030876 kcal/mol)

>  <smiles>  (36) 
O=S(=O)(Nc1cc2c(cc1O)CCCC2)c1ccc(S(=O)(=O)N2CCCCC2)cc1

>  <score_type>  (36) 
oracle

>  <origin>  (36) 
adgpu

>  <m_score__min__energy>  (36) 
-16.149999999999999

>  <m_primary>  (36) 
energy

$$$$
36:0
     RDKit          3D

 41 42  0  0  0  0  0  0  0  0999 V2000
   -3.6070   21.4150  -33.4050 C   0  0  0  0  0  0  0  0  0  0  0  0
   -4.7690   20.4800  -33.3170 C   0  0  0  0  0  0  0  0  0  0  0  0
   -4.8490   19.3210  -34.0040 N   0  0  0  0  0  0  0  0  0  0  0  0
   -6.0130   18.7600  -33.7110 N   0  0  0  0  0  0  0  0  0  0  0  0
   -6.4550   17.4920  -34.2770 C   0  0  0  0  0  0  0  0  0  0  0  0
   -6.6910   19.5520  -32.8550 C   0  0  0  0  0  0  0  0  0  0  0  0
   -8.0070   19.2750  -32.3490 N   0  0  0  0  0  0  0  0  0  0  0  0
   -8.2460   18.0350  -31.6120 C   0  0  0  0  0  0  0  0  0  0  0  0
   -9.1380   20.1130  -32.7410 C   0  0  0  0  0  0  0  0  0  0  0  0
   -5.9280   20.6720  -32.5800 C   0  0  0  0  0  0  0  0  0  0  0  0
   -6.2620   21.8210  -31.6740 C   0  0  0  0  0  0  0  0  0  0  0  0
   -5.7920   23.0760  -32.2750 N   0  0  0  0  0  0  0  0  0  0  0  0
   -5.9660   24.2050  -31.3510 C   0  0  0  0  0  0  0  0  0  0  0  0
   -4.9380   24.1440  -30.2540 C   0  0  0  0  0  0  0  0  0  0  0  0
   -5.1610   23.3330  -29.1280 C   0  0  0  0  0  0  0  0  0  0  0  0
   -4.2300   23.3030  -28.0860 C   0  0  0  0  0  0  0  0  0  0  0  0
   -3.0720   24.0820  -28.1590 C   0  0  0  0  0  0  0  0  0  0  0  0
   -2.8450   24.8960  -29.2730 C   0  0  0  0  0  0  0  0  0  0  0  0
   -1.6960   25.6740  -29.3420 O   0  0  0  0  0  0  0  0  0  0  0  0
   -3.7740   24.9280  -30.3180 C   0  0  0  0  0  0  0  0  0  0  0  0
   -3.2742   21.6828  -32.3913 H   0  0  0  0  0  0  0  0  0  0  0  0
   -2.7826   20.9256  -33.9442 H   0  0  0  0  0  0  0  0  0  0  0  0
   -3.9087   22.3251  -33.9442 H   0  0  0  0  0  0  0  0  0  0  0  0
   -6.6988   16.7926  -33.4637 H   0  0  0  0  0  0  0  0  0  0  0  0
   -7.3480   17.6588  -34.8973 H   0  0  0  0  0  0  0  0  0  0  0  0
   -5.6518   17.0675  -34.8973 H   0  0  0  0  0  0  0  0  0  0  0  0
   -8.2070   18.2373  -30.5315 H   0  0  0  0  0  0  0  0  0  0  0  0
   -9.2373   17.6374  -31.8750 H   0  0  0  0  0  0  0  0  0  0  0  0
   -7.4735   17.2974  -31.8750 H   0  0  0  0  0  0  0  0  0  0  0  0
   -9.6454   20.4889  -31.8403 H   0  0  0  0  0  0  0  0  0  0  0  0
   -8.7753   20.9621  -33.3389 H   0  0  0  0  0  0  0  0  0  0  0  0
   -9.8447   19.5188  -33.3389 H   0  0  0  0  0  0  0  0  0  0  0  0
   -7.3516   21.8694  -31.5308 H   0  0  0  0  0  0  0  0  0  0  0  0
   -5.7686   21.6746  -30.7018 H   0  0  0  0  0  0  0  0  0  0  0  0
   -6.3830   23.2660  -33.1190 H   0  0  0  0  0  0  0  0  0  0  0  0
   -5.8505   25.1484  -31.9047 H   0  0  0  0  0  0  0  0  0  0  0  0
   -6.9699   24.1511  -30.9046 H   0  0  0  0  0  0  0  0  0  0  0  0
   -6.0719   22.7194  -29.0666 H   0  0  0  0  0  0  0  0  0  0  0  0
   -4.4089   22.6656  -27.2075 H   0  0  0  0  0  0  0  0  0  0  0  0
   -2.3387   24.0548  -27.3396 H   0  0  0  0  0  0  0  0  0  0  0  0
   -3.5926   25.5693  -31.1931 H   0  0  0  0  0  0  0  0  0  0  0  0
  1  2  1  0
  2  3  2  0
  3  4  1  0
  4  5  1  0
  4  6  1  0
  6  7  1  0
  7  8  1  0
  7  9  1  0
  6 10  2  0
 10 11  1  0
 11 12  1  0
 12 13  1  0
 13 14  1  0
 14 15  2  0
 15 16  1  0
 16 17  2  0
 17 18  1  0
 18 19  1  0
 18 20  2  0
 10  2  1  0
 20 14  1  0
  1 21  1  0
  1 22  1  0
  1 23  1  0
  5 24  1  0
  5 25  1  0
  5 26  1  0
  8 27  1  0
  8 28  1  0
  8 29  1  0
  9 30  1  0
  9 31  1  0
  9 32  1  0
 11 33  1  0
 11 34  1  0
 12 35  1  0
 13 36  1  0
 13 37  1  0
 15 38  1  0
 16 39  1  0
 17 40  1  0
 20 41  1  0
M  CHG  1  19  -1
M  END
>  <UniqueID>  (37) 
36

>  <SMILES>  (37) 
Cc1nn(C)c(N(C)C)c1CNCc1cccc([O-])c1

>  <Energy>  (37) 
68.18405330020894

>  <Genealogy>  (37) 
Cc1nn(C)c(N(C)C)c1CNCc1cccc([O-])c1 (protonated)
Cc1nn(C)c(N(C)C)c1CNCc1cccc([O-])c1 (3D coordinates assigned)
Cc1nn(C)c(N(C)C)c1CNCc1cccc([O-])c1 (optimized conformer: 68.18405330020894 kcal/mol)

>  <smiles>  (37) 
Cc1nn(C)c(N(C)C)c1CNCc1cccc(O)c1

>  <score_type>  (37) 
oracle

>  <origin>  (37) 
adgpu

>  <m_score__min__energy>  (37) 
-10.18

>  <m_primary>  (37) 
energy

$$$$
37:0
     RDKit          3D

 29 30  0  0  0  0  0  0  0  0999 V2000
   -4.3760   22.6250  -32.3180 C   0  0  0  0  0  0  0  0  0  0  0  0
   -5.7540   22.2880  -31.8300 C   0  0  0  0  0  0  0  0  0  0  0  0
   -6.3650   21.1810  -32.3390 N   0  0  0  0  0  0  0  0  0  0  0  0
   -7.6170   20.8090  -31.9680 C   0  0  0  0  0  0  0  0  0  0  0  0
   -8.1360   19.7750  -32.4660 O   0  0  0  0  0  0  0  0  0  0  0  0
   -8.3260   21.5700  -31.0390 C   0  0  0  0  0  0  0  0  0  0  0  0
   -7.7350   22.7140  -30.5040 C   0  0  0  0  0  0  0  0  0  0  0  0
   -6.4440   23.0960  -30.8950 C   0  0  0  0  0  0  0  0  0  0  0  0
   -5.7310   24.5660  -30.2120 S   0  0  0  0  0  0  0  0  0  0  0  0
   -6.8270   25.5560  -29.9400 O   0  0  0  0  0  0  0  0  0  0  0  0
   -4.7580   25.1860  -31.1770 O   0  0  0  0  0  0  0  0  0  0  0  0
   -4.9000   24.2040  -28.7320 N   0  0  0  0  0  0  0  0  0  0  0  0
   -3.6780   23.4440  -28.6680 C   0  0  0  0  0  0  0  0  0  0  0  0
   -3.6540   22.1360  -28.1460 C   0  0  0  0  0  0  0  0  0  0  0  0
   -2.4570   21.4180  -28.0880 C   0  0  0  0  0  0  0  0  0  0  0  0
   -1.2720   21.9910  -28.5520 C   0  0  0  0  0  0  0  0  0  0  0  0
   -1.2830   23.2830  -29.0810 C   0  0  0  0  0  0  0  0  0  0  0  0
   -2.4770   24.0090  -29.1410 C   0  0  0  0  0  0  0  0  0  0  0  0
   -2.4600   25.2970  -29.6670 O   0  0  0  0  0  0  0  0  0  0  0  0
   -3.7115   22.7875  -31.4566 H   0  0  0  0  0  0  0  0  0  0  0  0
   -3.9897   21.7949  -32.9276 H   0  0  0  0  0  0  0  0  0  0  0  0
   -4.4164   23.5397  -32.9276 H   0  0  0  0  0  0  0  0  0  0  0  0
   -9.3392   21.2714  -30.7320 H   0  0  0  0  0  0  0  0  0  0  0  0
   -8.2855   23.3209  -29.7701 H   0  0  0  0  0  0  0  0  0  0  0  0
   -5.3860   24.4730  -27.8470 H   0  0  0  0  0  0  0  0  0  0  0  0
   -4.5845   21.6765  -27.7814 H   0  0  0  0  0  0  0  0  0  0  0  0
   -2.4484   20.3983  -27.6755 H   0  0  0  0  0  0  0  0  0  0  0  0
   -0.3301   21.4251  -28.5010 H   0  0  0  0  0  0  0  0  0  0  0  0
   -0.3495   23.7315  -29.4518 H   0  0  0  0  0  0  0  0  0  0  0  0
  1  2  1  0
  2  3  1  0
  3  4  1  0
  4  5  2  0
  4  6  1  0
  6  7  2  0
  7  8  1  0
  8  9  1  0
  9 10  2  0
  9 11  2  0
  9 12  1  0
 12 13  1  0
 13 14  2  0
 14 15  1  0
 15 16  2  0
 16 17  1  0
 17 18  2  0
 18 19  1  0
  8  2  2  0
 18 13  1  0
  1 20  1  0
  1 21  1  0
  1 22  1  0
  6 23  1  0
  7 24  1  0
 12 25  1  0
 14 26  1  0
 15 27  1  0
 16 28  1  0
 17 29  1  0
M  CHG  2   3  -1  19  -1
M  END
>  <UniqueID>  (38) 
37

>  <SMILES>  (38) 
Cc1[n-]c(=O)ccc1S(=O)(=O)Nc1ccccc1[O-]

>  <Energy>  (38) 
34.19897124953718

>  <Genealogy>  (38) 
Cc1[n-]c(=O)ccc1S(=O)(=O)Nc1ccccc1[O-] (protonated)
Cc1[n-]c(=O)ccc1S(=O)(=O)Nc1ccccc1[O-] (3D coordinates assigned)
Cc1[n-]c(=O)ccc1S(=O)(=O)Nc1ccccc1[O-] (optimized conformer: 34.19897124953718 kcal/mol)

>  <smiles>  (38) 
Cc1[nH]c(=O)ccc1S(=O)(=O)Nc1ccccc1O

>  <score_type>  (38) 
oracle

>  <origin>  (38) 
adgpu

>  <m_score__min__energy>  (38) 
-10.67

>  <m_primary>  (38) 
energy

$$$$
38:0
     RDKit          3D

 60 63  0  0  0  0  0  0  0  0999 V2000
   -3.5330   25.2410  -30.4820 O   0  0  0  0  0  0  0  0  0  0  0  0
   -3.3960   24.0180  -30.2220 C   0  0  0  0  0  0  0  0  0  0  0  0
   -3.9920   23.0560  -31.1060 N   0  0  0  0  0  0  0  0  0  0  0  0
   -5.4010   22.8750  -31.2940 C   0  0  0  0  0  0  0  0  0  0  0  0
   -6.2630   23.9580  -31.0810 C   0  0  0  0  0  0  0  0  0  0  0  0
   -7.6380   23.8020  -31.2580 C   0  0  0  0  0  0  0  0  0  0  0  0
   -8.1630   22.5550  -31.6070 C   0  0  0  0  0  0  0  0  0  0  0  0
   -7.3230   21.4480  -31.7730 C   0  0  0  0  0  0  0  0  0  0  0  0
   -7.9700   19.8470  -32.1790 S   0  0  0  0  0  0  0  0  0  0  0  0
   -8.9150   20.0030  -33.3340 O   0  0  0  0  0  0  0  0  0  0  0  0
   -8.7470   19.3250  -31.0040 O   0  0  0  0  0  0  0  0  0  0  0  0
   -6.7550   18.6740  -32.6500 N   0  0  0  0  0  0  0  0  0  0  0  0
   -5.8840   19.1190  -33.7640 C   0  0  0  0  0  0  0  0  0  0  0  0
   -5.7410   18.1370  -34.9460 C   0  0  0  0  0  0  0  0  0  0  0  0
   -5.7610   16.6320  -34.5910 C   0  0  0  0  0  0  0  0  0  0  0  0
   -6.2230   16.3430  -33.1580 C   0  0  0  0  0  0  0  0  0  0  0  0
   -7.3160   17.3190  -32.7610 C   0  0  0  0  0  0  0  0  0  0  0  0
   -5.9360   21.6200  -31.6390 C   0  0  0  0  0  0  0  0  0  0  0  0
   -2.5500   23.6060  -29.0730 C   0  0  0  0  0  0  0  0  0  0  0  0
   -2.6080   22.2800  -28.6100 C   0  0  0  0  0  0  0  0  0  0  0  0
   -1.7680   21.8480  -27.5770 C   0  0  0  0  0  0  0  0  0  0  0  0
   -1.8540   20.1740  -27.0390 S   0  0  0  0  0  0  0  0  0  0  0  0
   -3.0780   19.5030  -27.6000 O   0  0  0  0  0  0  0  0  0  0  0  0
   -1.9360   20.1580  -25.5360 O   0  0  0  0  0  0  0  0  0  0  0  0
   -0.4230   19.3210  -27.5630 N   0  0  0  0  0  0  0  0  0  0  0  0
   -0.2340   19.4860  -29.0090 C   0  0  0  0  0  0  0  0  0  0  0  0
    1.0380   18.7370  -29.4590 C   0  0  0  0  0  0  0  0  0  0  0  0
    1.5720   17.9280  -28.4270 O   0  0  0  0  0  0  0  0  0  0  0  0
    0.5650   17.0740  -27.9320 C   0  0  0  0  0  0  0  0  0  0  0  0
   -0.5420   17.8900  -27.2290 C   0  0  0  0  0  0  0  0  0  0  0  0
   -0.8710   22.7510  -26.9860 C   0  0  0  0  0  0  0  0  0  0  0  0
   -0.8070   24.0710  -27.4380 C   0  0  0  0  0  0  0  0  0  0  0  0
   -1.6370   24.5040  -28.4840 C   0  0  0  0  0  0  0  0  0  0  0  0
   -1.5580   25.8250  -28.9320 O   0  0  0  0  0  0  0  0  0  0  0  0
   -5.8555   24.9325  -30.7739 H   0  0  0  0  0  0  0  0  0  0  0  0
   -8.3101   24.6622  -31.1226 H   0  0  0  0  0  0  0  0  0  0  0  0
   -9.2475   22.4423  -31.7527 H   0  0  0  0  0  0  0  0  0  0  0  0
   -6.2950   20.0607  -34.1569 H   0  0  0  0  0  0  0  0  0  0  0  0
   -4.8763   19.2123  -33.3329 H   0  0  0  0  0  0  0  0  0  0  0  0
   -6.5702   18.3282  -35.6431 H   0  0  0  0  0  0  0  0  0  0  0  0
   -4.7423   18.3265  -35.3664 H   0  0  0  0  0  0  0  0  0  0  0  0
   -6.4433   16.1203  -35.2857 H   0  0  0  0  0  0  0  0  0  0  0  0
   -4.7263   16.2681  -34.6748 H   0  0  0  0  0  0  0  0  0  0  0  0
   -6.6126   15.3159  -33.1005 H   0  0  0  0  0  0  0  0  0  0  0  0
   -5.3700   16.4560  -32.4727 H   0  0  0  0  0  0  0  0  0  0  0  0
   -8.1072   17.3124  -33.5252 H   0  0  0  0  0  0  0  0  0  0  0  0
   -7.7372   17.0187  -31.7902 H   0  0  0  0  0  0  0  0  0  0  0  0
   -5.2620   20.7667  -31.8051 H   0  0  0  0  0  0  0  0  0  0  0  0
   -3.3203   21.5752  -29.0638 H   0  0  0  0  0  0  0  0  0  0  0  0
   -1.1059   19.0767  -29.5403 H   0  0  0  0  0  0  0  0  0  0  0  0
   -0.1268   20.5558  -29.2414 H   0  0  0  0  0  0  0  0  0  0  0  0
    0.7878   18.0971  -30.3180 H   0  0  0  0  0  0  0  0  0  0  0  0
    1.7960   19.4873  -29.7282 H   0  0  0  0  0  0  0  0  0  0  0  0
    0.1240   16.5120  -28.7685 H   0  0  0  0  0  0  0  0  0  0  0  0
    1.0129   16.3823  -27.2034 H   0  0  0  0  0  0  0  0  0  0  0  0
   -1.5256   17.5227  -27.5572 H   0  0  0  0  0  0  0  0  0  0  0  0
   -0.4346   17.7696  -26.1409 H   0  0  0  0  0  0  0  0  0  0  0  0
   -0.2175   22.4189  -26.1658 H   0  0  0  0  0  0  0  0  0  0  0  0
   -0.1023   24.7752  -26.9717 H   0  0  0  0  0  0  0  0  0  0  0  0
   -1.6200   26.0550  -29.9150 H   0  0  0  0  0  0  0  0  0  0  0  0
  1  2  2  0
  2  3  1  0
  3  4  1  0
  4  5  2  0
  5  6  1  0
  6  7  2  0
  7  8  1  0
  8  9  1  0
  9 10  2  0
  9 11  2  0
  9 12  1  0
 12 13  1  0
 13 14  1  0
 14 15  1  0
 15 16  1  0
 16 17  1  0
  8 18  2  0
  2 19  1  0
 19 20  2  0
 20 21  1  0
 21 22  1  0
 22 23  2  0
 22 24  2  0
 22 25  1  0
 25 26  1  0
 26 27  1  0
 27 28  1  0
 28 29  1  0
 29 30  1  0
 21 31  2  0
 31 32  1  0
 32 33  2  0
 33 34  1  0
 18  4  1  0
 33 19  1  0
 17 12  1  0
 30 25  1  0
  5 35  1  0
  6 36  1  0
  7 37  1  0
 13 38  1  0
 13 39  1  0
 14 40  1  0
 14 41  1  0
 15 42  1  0
 15 43  1  0
 16 44  1  0
 16 45  1  0
 17 46  1  0
 17 47  1  0
 18 48  1  0
 20 49  1  0
 26 50  1  0
 26 51  1  0
 27 52  1  0
 27 53  1  0
 29 54  1  0
 29 55  1  0
 30 56  1  0
 30 57  1  0
 31 58  1  0
 32 59  1  0
 34 60  1  0
M  CHG  1   3  -1
M  END
>  <UniqueID>  (39) 
38

>  <SMILES>  (39) 
O=C([N-]c1cccc(S(=O)(=O)N2CCCCC2)c1)c1cc(S(=O)(=O)N2CCOCC2)ccc1O

>  <Energy>  (39) 
85.1038036690846

>  <Genealogy>  (39) 
O=C([N-]c1cccc(S(=O)(=O)N2CCCCC2)c1)c1cc(S(=O)(=O)N2CCOCC2)ccc1O (protonated)
O=C([N-]c1cccc(S(=O)(=O)N2CCCCC2)c1)c1cc(S(=O)(=O)N2CCOCC2)ccc1O (3D coordinates assigned)
O=C([N-]c1cccc(S(=O)(=O)N2CCCCC2)c1)c1cc(S(=O)(=O)N2CCOCC2)ccc1O (nonaromatic ring conformer: 85.1038036690846 kcal/mol)

>  <smiles>  (39) 
O=C(Nc1cccc(S(=O)(=O)N2CCCCC2)c1)c1cc(S(=O)(=O)N2CCOCC2)ccc1O

>  <score_type>  (39) 
oracle

>  <origin>  (39) 
adgpu

>  <m_score__min__energy>  (39) 
-13.119999999999999

>  <m_primary>  (39) 
energy

$$$$
39:0
     RDKit          3D

 41 43  0  0  0  0  0  0  0  0999 V2000
   -1.7090   17.6880  -34.5830 C   0  0  0  0  0  0  0  0  0  0  0  0
   -1.5750   19.0300  -33.9160 C   0  0  0  0  0  0  0  0  0  0  0  0
   -0.3340   19.6890  -33.9100 C   0  0  0  0  0  0  0  0  0  0  0  0
   -0.2000   20.9380  -33.3020 C   0  0  0  0  0  0  0  0  0  0  0  0
   -1.3030   21.5460  -32.7040 C   0  0  0  0  0  0  0  0  0  0  0  0
   -2.5430   20.9030  -32.7020 C   0  0  0  0  0  0  0  0  0  0  0  0
   -2.6870   19.6310  -33.2890 C   0  0  0  0  0  0  0  0  0  0  0  0
   -3.9590   18.9620  -33.3200 N   0  0  0  0  0  0  0  0  0  0  0  0
   -5.1940   19.4910  -33.8130 C   0  0  0  0  0  0  0  0  0  0  0  0
   -5.8950   18.8330  -34.6290 O   0  0  0  0  0  0  0  0  0  0  0  0
   -5.6180   20.7820  -33.3640 N   0  0  0  0  0  0  0  0  0  0  0  0
   -6.6880   21.0730  -32.4510 C   0  0  0  0  0  0  0  0  0  0  0  0
   -7.6560   20.1070  -32.1190 C   0  0  0  0  0  0  0  0  0  0  0  0
   -8.6930   20.4200  -31.2370 C   0  0  0  0  0  0  0  0  0  0  0  0
   -8.7820   21.6990  -30.6850 C   0  0  0  0  0  0  0  0  0  0  0  0
   -7.8420   22.6730  -31.0280 C   0  0  0  0  0  0  0  0  0  0  0  0
   -6.8060   22.3730  -31.9220 C   0  0  0  0  0  0  0  0  0  0  0  0
   -5.6220   23.6600  -32.3470 S   0  0  0  0  0  0  0  0  0  0  0  0
   -4.5980   23.3510  -30.9030 C   0  0  0  0  0  0  0  0  0  0  0  0
   -4.5170   22.0530  -30.3820 C   0  0  0  0  0  0  0  0  0  0  0  0
   -3.7310   21.7950  -29.2560 C   0  0  0  0  0  0  0  0  0  0  0  0
   -3.0150   22.8300  -28.6500 C   0  0  0  0  0  0  0  0  0  0  0  0
   -3.0740   24.1280  -29.1720 C   0  0  0  0  0  0  0  0  0  0  0  0
   -2.3400   25.1400  -28.5550 O   0  0  0  0  0  0  0  0  0  0  0  0
   -3.8630   24.3890  -30.3060 C   0  0  0  0  0  0  0  0  0  0  0  0
   -3.9080   25.6720  -30.8400 O   0  0  0  0  0  0  0  0  0  0  0  0
   -1.7873   16.9035  -33.8159 H   0  0  0  0  0  0  0  0  0  0  0  0
   -2.6125   17.6789  -35.2104 H   0  0  0  0  0  0  0  0  0  0  0  0
   -0.8251   17.5005  -35.2104 H   0  0  0  0  0  0  0  0  0  0  0  0
    0.5375   19.2174  -34.3876 H   0  0  0  0  0  0  0  0  0  0  0  0
    0.7770   21.4434  -33.2946 H   0  0  0  0  0  0  0  0  0  0  0  0
   -1.1965   22.5342  -32.2327 H   0  0  0  0  0  0  0  0  0  0  0  0
   -3.4122   21.3931  -32.2392 H   0  0  0  0  0  0  0  0  0  0  0  0
   -7.5957   19.0996  -32.5566 H   0  0  0  0  0  0  0  0  0  0  0  0
   -9.4412   19.6568  -30.9768 H   0  0  0  0  0  0  0  0  0  0  0  0
   -9.5918   21.9394  -29.9805 H   0  0  0  0  0  0  0  0  0  0  0  0
   -7.9154   23.6811  -30.5940 H   0  0  0  0  0  0  0  0  0  0  0  0
   -5.0740   21.2343  -30.8610 H   0  0  0  0  0  0  0  0  0  0  0  0
   -3.6760   20.7756  -28.8463 H   0  0  0  0  0  0  0  0  0  0  0  0
   -2.4026   22.6247  -27.7596 H   0  0  0  0  0  0  0  0  0  0  0  0
   -2.7770   25.8430  -27.9710 H   0  0  0  0  0  0  0  0  0  0  0  0
  1  2  1  0
  2  3  2  0
  3  4  1  0
  4  5  2  0
  5  6  1  0
  6  7  2  0
  7  8  1  0
  8  9  1  0
  9 10  2  0
  9 11  1  0
 11 12  1  0
 12 13  2  0
 13 14  1  0
 14 15  2  0
 15 16  1  0
 16 17  2  0
 17 18  1  0
 18 19  1  0
 19 20  2  0
 20 21  1  0
 21 22  2  0
 22 23  1  0
 23 24  1  0
 23 25  2  0
 25 26  1  0
  7  2  1  0
 17 12  1  0
 25 19  1  0
  1 27  1  0
  1 28  1  0
  1 29  1  0
  3 30  1  0
  4 31  1  0
  5 32  1  0
  6 33  1  0
 13 34  1  0
 14 35  1  0
 15 36  1  0
 16 37  1  0
 20 38  1  0
 21 39  1  0
 22 40  1  0
 24 41  1  0
M  CHG  3   8  -1  11  -1  26  -1
M  END
>  <UniqueID>  (40) 
39

>  <SMILES>  (40) 
Cc1ccccc1[N-]C(=O)[N-]c1ccccc1Sc1cccc(O)c1[O-]

>  <Energy>  (40) 
47.53703516623581

>  <Genealogy>  (40) 
Cc1ccccc1[N-]C(=O)[N-]c1ccccc1Sc1cccc(O)c1[O-] (protonated)
Cc1ccccc1[N-]C(=O)[N-]c1ccccc1Sc1cccc(O)c1[O-] (3D coordinates assigned)
Cc1ccccc1[N-]C(=O)[N-]c1ccccc1Sc1cccc(O)c1[O-] (optimized conformer: 47.53703516623581 kcal/mol)

>  <smiles>  (40) 
Cc1ccccc1NC(=O)Nc1ccccc1Sc1cccc(O)c1O

>  <score_type>  (40) 
oracle

>  <origin>  (40) 
adgpu

>  <m_score__min__energy>  (40) 
-12.609999999999999

>  <m_primary>  (40) 
energy

$$$$
40:0
     RDKit          3D

 65 68  0  0  0  0  0  0  0  0999 V2000
    0.7370   22.6520  -36.0480 C   0  0  0  0  0  0  0  0  0  0  0  0
    1.0570   22.2550  -34.6840 N   0  0  0  0  0  0  0  0  0  0  0  0
    0.5520   21.0890  -34.0220 C   0  0  0  0  0  0  0  0  0  0  0  0
    1.2230   20.0240  -34.0800 O   0  0  0  0  0  0  0  0  0  0  0  0
   -0.7050   21.0990  -33.2460 C   0  0  0  0  0  0  0  0  0  0  0  0
   -0.7160   21.4730  -31.8930 C   0  0  0  0  0  0  0  0  0  0  0  0
   -1.9100   21.4690  -31.1690 C   0  0  0  0  0  0  0  0  0  0  0  0
   -3.1150   21.1180  -31.7870 C   0  0  0  0  0  0  0  0  0  0  0  0
   -4.2850   21.0900  -31.0120 O   0  0  0  0  0  0  0  0  0  0  0  0
   -5.5310   21.6120  -31.3990 C   0  0  0  0  0  0  0  0  0  0  0  0
   -6.6580   20.7840  -31.5570 C   0  0  0  0  0  0  0  0  0  0  0  0
   -7.8950   21.3210  -31.9510 C   0  0  0  0  0  0  0  0  0  0  0  0
   -9.1140   20.4400  -32.0740 C   0  0  0  0  0  0  0  0  0  0  0  0
   -9.1380   19.8140  -33.3090 F   0  0  0  0  0  0  0  0  0  0  0  0
  -10.2530   21.2150  -31.9390 F   0  0  0  0  0  0  0  0  0  0  0  0
   -9.1180   19.4610  -31.0960 F   0  0  0  0  0  0  0  0  0  0  0  0
   -8.0000   22.7050  -32.1560 C   0  0  0  0  0  0  0  0  0  0  0  0
   -6.8770   23.5270  -32.0360 C   0  0  0  0  0  0  0  0  0  0  0  0
   -5.6350   22.9860  -31.6640 C   0  0  0  0  0  0  0  0  0  0  0  0
   -4.4530   23.7970  -31.5960 N   0  0  0  0  0  0  0  0  0  0  0  0
   -4.0600   24.6310  -30.4980 C   0  0  0  0  0  0  0  0  0  0  0  0
   -4.4160   25.8410  -30.4650 O   0  0  0  0  0  0  0  0  0  0  0  0
   -3.2700   24.0630  -29.3820 C   0  0  0  0  0  0  0  0  0  0  0  0
   -1.9670   24.5270  -29.1240 C   0  0  0  0  0  0  0  0  0  0  0  0
   -1.2320   24.0200  -28.0500 C   0  0  0  0  0  0  0  0  0  0  0  0
   -1.7770   23.0240  -27.2250 C   0  0  0  0  0  0  0  0  0  0  0  0
   -0.9950   22.5100  -26.0400 C   0  0  0  0  0  0  0  0  0  0  0  0
   -0.2690   21.2640  -26.3680 N   0  0  0  0  0  0  0  0  0  0  0  0
    0.6600   21.4590  -27.5120 C   0  0  0  0  0  0  0  0  0  0  0  0
    0.9570   20.1350  -28.2250 C   0  0  0  0  0  0  0  0  0  0  0  0
   -0.2710   19.5610  -28.8180 N   0  0  0  0  0  0  0  0  0  0  0  0
   -0.1100   18.1140  -29.0340 C   0  0  0  0  0  0  0  0  0  0  0  0
   -1.5020   19.8590  -28.0430 C   0  0  0  0  0  0  0  0  0  0  0  0
   -1.2050   20.1260  -26.5580 C   0  0  0  0  0  0  0  0  0  0  0  0
   -3.0780   22.5610  -27.4760 C   0  0  0  0  0  0  0  0  0  0  0  0
   -3.8180   23.0760  -28.5440 C   0  0  0  0  0  0  0  0  0  0  0  0
   -3.1090   20.7600  -33.1480 C   0  0  0  0  0  0  0  0  0  0  0  0
   -1.9130   20.7620  -33.8740 C   0  0  0  0  0  0  0  0  0  0  0  0
    0.0468   23.5083  -36.0283 H   0  0  0  0  0  0  0  0  0  0  0  0
    1.6605   22.9374  -36.5730 H   0  0  0  0  0  0  0  0  0  0  0  0
    0.2620   21.8102  -36.5730 H   0  0  0  0  0  0  0  0  0  0  0  0
    0.2213   21.7709  -31.4003 H   0  0  0  0  0  0  0  0  0  0  0  0
   -1.9031   21.7441  -30.1040 H   0  0  0  0  0  0  0  0  0  0  0  0
   -6.5693   19.7037  -31.3698 H   0  0  0  0  0  0  0  0  0  0  0  0
   -8.9743   23.1462  -32.4132 H   0  0  0  0  0  0  0  0  0  0  0  0
   -6.9658   24.6054  -32.2341 H   0  0  0  0  0  0  0  0  0  0  0  0
   -1.5233   25.2957  -29.7738 H   0  0  0  0  0  0  0  0  0  0  0  0
   -0.2206   24.4034  -27.8497 H   0  0  0  0  0  0  0  0  0  0  0  0
   -0.2685   23.2763  -25.7318 H   0  0  0  0  0  0  0  0  0  0  0  0
   -1.7037   22.2924  -25.2274 H   0  0  0  0  0  0  0  0  0  0  0  0
    0.2028   22.1567  -28.2291 H   0  0  0  0  0  0  0  0  0  0  0  0
    1.6068   21.8623  -27.1235 H   0  0  0  0  0  0  0  0  0  0  0  0
    1.6916   20.3143  -29.0239 H   0  0  0  0  0  0  0  0  0  0  0  0
    1.3539   19.4226  -27.4868 H   0  0  0  0  0  0  0  0  0  0  0  0
   -0.0531   17.6023  -28.0619 H   0  0  0  0  0  0  0  0  0  0  0  0
   -0.9709   17.7298  -29.6007 H   0  0  0  0  0  0  0  0  0  0  0  0
    0.8143   17.9285  -29.6007 H   0  0  0  0  0  0  0  0  0  0  0  0
   -1.9843   20.7492  -28.4731 H   0  0  0  0  0  0  0  0  0  0  0  0
   -2.1590   18.9787  -28.1023 H   0  0  0  0  0  0  0  0  0  0  0  0
   -2.1499   20.3550  -26.0435 H   0  0  0  0  0  0  0  0  0  0  0  0
   -0.7301   19.2254  -26.1417 H   0  0  0  0  0  0  0  0  0  0  0  0
   -3.5178   21.7883  -26.8284 H   0  0  0  0  0  0  0  0  0  0  0  0
   -4.8371   22.7062  -28.7304 H   0  0  0  0  0  0  0  0  0  0  0  0
   -4.0494   20.4772  -33.6435 H   0  0  0  0  0  0  0  0  0  0  0  0
   -1.9201   20.4981  -34.9419 H   0  0  0  0  0  0  0  0  0  0  0  0
  1  2  1  0
  2  3  1  0
  3  4  2  0
  3  5  1  0
  5  6  2  0
  6  7  1  0
  7  8  2  0
  8  9  1  0
  9 10  1  0
 10 11  2  0
 11 12  1  0
 12 13  1  0
 13 14  1  0
 13 15  1  0
 13 16  1  0
 12 17  2  0
 17 18  1  0
 18 19  2  0
 19 20  1  0
 20 21  1  0
 21 22  2  0
 21 23  1  0
 23 24  2  0
 24 25  1  0
 25 26  2  0
 26 27  1  0
 27 28  1  0
 28 29  1  0
 29 30  1  0
 30 31  1  0
 31 32  1  0
 31 33  1  0
 33 34  1  0
 26 35  1  0
 35 36  2  0
  8 37  1  0
 37 38  2  0
 38  5  1  0
 19 10  1  0
 36 23  1  0
 34 28  1  0
  1 39  1  0
  1 40  1  0
  1 41  1  0
  6 42  1  0
  7 43  1  0
 11 44  1  0
 17 45  1  0
 18 46  1  0
 24 47  1  0
 25 48  1  0
 27 49  1  0
 27 50  1  0
 29 51  1  0
 29 52  1  0
 30 53  1  0
 30 54  1  0
 32 55  1  0
 32 56  1  0
 32 57  1  0
 33 58  1  0
 33 59  1  0
 34 60  1  0
 34 61  1  0
 35 62  1  0
 36 63  1  0
 37 64  1  0
 38 65  1  0
M  CHG  2   2  -1  20  -1
M  END
>  <UniqueID>  (41) 
40

>  <SMILES>  (41) 
C[N-]C(=O)c1ccc(Oc2cc(C(F)(F)F)ccc2[N-]C(=O)c2ccc(CN3CCN(C)CC3)cc2)cc1

>  <Energy>  (41) 
96.3495468438951

>  <Genealogy>  (41) 
C[N-]C(=O)c1ccc(Oc2cc(C(F)(F)F)ccc2[N-]C(=O)c2ccc(CN3CCN(C)CC3)cc2)cc1 (protonated)
C[N-]C(=O)c1ccc(Oc2cc(C(F)(F)F)ccc2[N-]C(=O)c2ccc(CN3CCN(C)CC3)cc2)cc1 (3D coordinates assigned)
C[N-]C(=O)c1ccc(Oc2cc(C(F)(F)F)ccc2[N-]C(=O)c2ccc(CN3CCN(C)CC3)cc2)cc1 (nonaromatic ring conformer: 96.3495468438951 kcal/mol)

>  <smiles>  (41) 
CNC(=O)c1ccc(Oc2cc(C(F)(F)F)ccc2NC(=O)c2ccc(CN3CCN(C)CC3)cc2)cc1

>  <score_type>  (41) 
oracle

>  <origin>  (41) 
adgpu

>  <m_score__min__energy>  (41) 
-12.09

>  <m_primary>  (41) 
energy

$$$$
41:0
     RDKit          3D

 46 49  0  0  0  0  0  0  0  0999 V2000
   -1.8260   25.4270  -28.9490 O   0  0  0  0  0  0  0  0  0  0  0  0
   -2.6410   24.5760  -29.4030 C   0  0  0  0  0  0  0  0  0  0  0  0
   -3.5150   24.9360  -30.4800 N   0  0  0  0  0  0  0  0  0  0  0  0
   -4.7210   24.2280  -30.7900 C   0  0  0  0  0  0  0  0  0  0  0  0
   -4.6440   23.0940  -31.6100 C   0  0  0  0  0  0  0  0  0  0  0  0
   -5.8030   22.4060  -31.9800 C   0  0  0  0  0  0  0  0  0  0  0  0
   -7.0480   22.8380  -31.5190 C   0  0  0  0  0  0  0  0  0  0  0  0
   -7.1340   23.9470  -30.6700 C   0  0  0  0  0  0  0  0  0  0  0  0
   -5.9780   24.6370  -30.2850 C   0  0  0  0  0  0  0  0  0  0  0  0
   -6.1040   25.6980  -29.3860 O   0  0  0  0  0  0  0  0  0  0  0  0
   -2.6860   23.2110  -28.8260 C   0  0  0  0  0  0  0  0  0  0  0  0
   -3.7760   22.7990  -28.0390 C   0  0  0  0  0  0  0  0  0  0  0  0
   -3.7950   21.5220  -27.4690 C   0  0  0  0  0  0  0  0  0  0  0  0
   -2.7310   20.6420  -27.6810 C   0  0  0  0  0  0  0  0  0  0  0  0
   -1.6420   21.0340  -28.4690 C   0  0  0  0  0  0  0  0  0  0  0  0
   -0.2840   19.9470  -28.7370 S   0  0  0  0  0  0  0  0  0  0  0  0
   -0.2500   18.8580  -27.7020 O   0  0  0  0  0  0  0  0  0  0  0  0
    0.9930   20.7330  -28.6360 O   0  0  0  0  0  0  0  0  0  0  0  0
   -0.3910   19.2460  -30.3190 N   0  0  0  0  0  0  0  0  0  0  0  0
   -0.2920   19.9630  -31.5590 C   0  0  0  0  0  0  0  0  0  0  0  0
   -1.4030   20.7020  -31.9910 C   0  0  0  0  0  0  0  0  0  0  0  0
   -1.3420   21.4580  -33.1680 C   0  0  0  0  0  0  0  0  0  0  0  0
   -0.1640   21.4800  -33.9170 C   0  0  0  0  0  0  0  0  0  0  0  0
    0.9360   20.7120  -33.5160 C   0  0  0  0  0  0  0  0  0  0  0  0
    0.8760   19.9590  -32.3390 C   0  0  0  0  0  0  0  0  0  0  0  0
    2.0970   20.7250  -34.3010 O   0  0  0  0  0  0  0  0  0  0  0  0
    2.0970   21.2900  -35.6160 C   0  0  0  0  0  0  0  0  0  0  0  0
    1.2180   22.5440  -35.6550 C   0  0  0  0  0  0  0  0  0  0  0  0
   -0.0570   22.2690  -35.0680 O   0  0  0  0  0  0  0  0  0  0  0  0
   -1.6240   22.3130  -29.0420 C   0  0  0  0  0  0  0  0  0  0  0  0
   -3.6639   22.7428  -31.9651 H   0  0  0  0  0  0  0  0  0  0  0  0
   -5.7342   21.5244  -32.6342 H   0  0  0  0  0  0  0  0  0  0  0  0
   -7.9617   22.3064  -31.8233 H   0  0  0  0  0  0  0  0  0  0  0  0
   -8.1163   24.2789  -30.3026 H   0  0  0  0  0  0  0  0  0  0  0  0
   -5.3330   26.0280  -28.8180 H   0  0  0  0  0  0  0  0  0  0  0  0
   -4.6190   23.4853  -27.8706 H   0  0  0  0  0  0  0  0  0  0  0  0
   -4.6503   21.2096  -26.8519 H   0  0  0  0  0  0  0  0  0  0  0  0
   -2.7487   19.6397  -27.2282 H   0  0  0  0  0  0  0  0  0  0  0  0
   -2.3306   20.6876  -31.3999 H   0  0  0  0  0  0  0  0  0  0  0  0
   -2.2189   22.0324  -33.5013 H   0  0  0  0  0  0  0  0  0  0  0  0
    1.7449   19.3627  -32.0237 H   0  0  0  0  0  0  0  0  0  0  0  0
    3.1263   21.5593  -35.8954 H   0  0  0  0  0  0  0  0  0  0  0  0
    1.6963   20.5496  -36.3239 H   0  0  0  0  0  0  0  0  0  0  0  0
    1.7107   23.3513  -35.0932 H   0  0  0  0  0  0  0  0  0  0  0  0
    1.0740   22.8503  -36.7016 H   0  0  0  0  0  0  0  0  0  0  0  0
   -0.7715   22.6179  -29.6667 H   0  0  0  0  0  0  0  0  0  0  0  0
  1  2  2  0
  2  3  1  0
  3  4  1  0
  4  5  2  0
  5  6  1  0
  6  7  2  0
  7  8  1  0
  8  9  2  0
  9 10  1  0
  2 11  1  0
 11 12  2  0
 12 13  1  0
 13 14  2  0
 14 15  1  0
 15 16  1  0
 16 17  2  0
 16 18  2  0
 16 19  1  0
 19 20  1  0
 20 21  2  0
 21 22  1  0
 22 23  2  0
 23 24  1  0
 24 25  2  0
 24 26  1  0
 26 27  1  0
 27 28  1  0
 28 29  1  0
 15 30  2  0
  9  4  1  0
 30 11  1  0
 25 20  1  0
 29 23  1  0
  5 31  1  0
  6 32  1  0
  7 33  1  0
  8 34  1  0
 10 35  1  0
 12 36  1  0
 13 37  1  0
 14 38  1  0
 21 39  1  0
 22 40  1  0
 25 41  1  0
 27 42  1  0
 27 43  1  0
 28 44  1  0
 28 45  1  0
 30 46  1  0
M  CHG  2   3  -1  19  -1
M  END
>  <UniqueID>  (42) 
41

>  <SMILES>  (42) 
O=C([N-]c1ccccc1O)c1cccc(S(=O)(=O)[N-]c2ccc3c(c2)OCCO3)c1

>  <Energy>  (42) 
62.628693488146745

>  <Genealogy>  (42) 
O=C([N-]c1ccccc1O)c1cccc(S(=O)(=O)[N-]c2ccc3c(c2)OCCO3)c1 (protonated)
O=C([N-]c1ccccc1O)c1cccc(S(=O)(=O)[N-]c2ccc3c(c2)OCCO3)c1 (3D coordinates assigned)
O=C([N-]c1ccccc1O)c1cccc(S(=O)(=O)[N-]c2ccc3c(c2)OCCO3)c1 (nonaromatic ring conformer: 62.628693488146745 kcal/mol)

>  <smiles>  (42) 
O=C(Nc1ccccc1O)c1cccc(S(=O)(=O)Nc2ccc3c(c2)OCCO3)c1

>  <score_type>  (42) 
oracle

>  <origin>  (42) 
adgpu

>  <m_score__min__energy>  (42) 
-11.06

>  <m_primary>  (42) 
energy

$$$$
42:0
     RDKit          3D

 48 52  0  0  0  0  0  0  0  0999 V2000
   -5.9810   25.9430  -30.0540 O   0  0  0  0  0  0  0  0  0  0  0  0
   -5.2050   25.2390  -30.7520 C   0  0  0  0  0  0  0  0  0  0  0  0
   -5.6910   24.5650  -31.9210 N   0  0  0  0  0  0  0  0  0  0  0  0
   -6.0870   23.1900  -32.0090 C   0  0  0  0  0  0  0  0  0  0  0  0
   -5.1850   22.1750  -32.4380 C   0  0  0  0  0  0  0  0  0  0  0  0
   -5.6260   20.8440  -32.5480 C   0  0  0  0  0  0  0  0  0  0  0  0
   -6.9370   20.5680  -32.1980 C   0  0  0  0  0  0  0  0  0  0  0  0
   -7.8230   21.5210  -31.8160 C   0  0  0  0  0  0  0  0  0  0  0  0
   -7.4280   22.8550  -31.7190 C   0  0  0  0  0  0  0  0  0  0  0  0
   -9.1660   20.9000  -31.6000 C   0  0  0  0  0  0  0  0  0  0  0  0
   -8.9370   19.4010  -31.9660 C   0  0  0  0  0  0  0  0  0  0  0  0
   -7.5190   19.3000  -32.2990 N   0  0  0  0  0  0  0  0  0  0  0  0
   -6.8270   18.2370  -32.9560 C   0  0  0  0  0  0  0  0  0  0  0  0
   -7.3540   17.0960  -33.0570 O   0  0  0  0  0  0  0  0  0  0  0  0
   -5.4950   18.5270  -33.6140 C   0  0  0  0  0  0  0  0  0  0  0  0
   -4.7250   19.6900  -32.9280 C   0  0  0  0  0  0  0  0  0  0  0  0
   -3.8120   25.2120  -30.4250 N   0  0  0  0  0  0  0  0  0  0  0  0
   -3.1770   24.3070  -29.5090 C   0  0  0  0  0  0  0  0  0  0  0  0
   -3.6940   23.0250  -29.2710 C   0  0  0  0  0  0  0  0  0  0  0  0
   -3.0830   22.1830  -28.3450 C   0  0  0  0  0  0  0  0  0  0  0  0
   -1.9510   22.6010  -27.6390 C   0  0  0  0  0  0  0  0  0  0  0  0
   -1.2750   21.4850  -26.4580 Cl  0  0  0  0  0  0  0  0  0  0  0  0
   -1.4150   23.8900  -27.8630 C   0  0  0  0  0  0  0  0  0  0  0  0
    0.0130   24.4530  -26.9680 S   0  0  0  0  0  0  0  0  0  0  0  0
    0.9410   23.2990  -26.7030 O   0  0  0  0  0  0  0  0  0  0  0  0
    0.7700   25.4720  -27.7730 O   0  0  0  0  0  0  0  0  0  0  0  0
   -0.5320   25.2220  -25.4450 C   0  0  0  0  0  0  0  0  0  0  0  0
   -1.9790   25.6850  -25.4670 C   0  0  0  0  0  0  0  0  0  0  0  0
   -0.8530   26.7060  -25.5270 C   0  0  0  0  0  0  0  0  0  0  0  0
   -2.0590   24.7470  -28.7840 C   0  0  0  0  0  0  0  0  0  0  0  0
   -1.5970   26.0440  -28.9860 O   0  0  0  0  0  0  0  0  0  0  0  0
   -4.1439   22.4318  -32.6832 H   0  0  0  0  0  0  0  0  0  0  0  0
   -8.1477   23.6320  -31.4221 H   0  0  0  0  0  0  0  0  0  0  0  0
   -9.4837   21.0048  -30.5521 H   0  0  0  0  0  0  0  0  0  0  0  0
   -9.9578   21.3716  -32.2006 H   0  0  0  0  0  0  0  0  0  0  0  0
   -9.1792   18.7537  -31.1102 H   0  0  0  0  0  0  0  0  0  0  0  0
   -9.5787   19.0788  -32.7993 H   0  0  0  0  0  0  0  0  0  0  0  0
   -4.8751   17.6195  -33.5677 H   0  0  0  0  0  0  0  0  0  0  0  0
   -5.6973   18.8304  -34.6518 H   0  0  0  0  0  0  0  0  0  0  0  0
   -4.2442   19.3043  -32.0169 H   0  0  0  0  0  0  0  0  0  0  0  0
   -3.9861   20.0695  -33.6491 H   0  0  0  0  0  0  0  0  0  0  0  0
   -4.5853   22.6834  -29.8177 H   0  0  0  0  0  0  0  0  0  0  0  0
   -3.4953   21.1788  -28.1673 H   0  0  0  0  0  0  0  0  0  0  0  0
    0.0902   24.6054  -24.7796 H   0  0  0  0  0  0  0  0  0  0  0  0
   -2.6020   25.5005  -26.3546 H   0  0  0  0  0  0  0  0  0  0  0  0
   -2.8550   25.5304  -24.8199 H   0  0  0  0  0  0  0  0  0  0  0  0
   -0.6614   27.2597  -26.4580 H   0  0  0  0  0  0  0  0  0  0  0  0
   -0.5770   27.5954  -24.9415 H   0  0  0  0  0  0  0  0  0  0  0  0
  1  2  2  0
  2  3  1  0
  3  4  1  0
  4  5  2  0
  5  6  1  0
  6  7  2  0
  7  8  1  0
  8  9  2  0
  8 10  1  0
 10 11  1  0
 11 12  1  0
 12 13  1  0
 13 14  2  0
 13 15  1  0
 15 16  1  0
  2 17  1  0
 17 18  1  0
 18 19  2  0
 19 20  1  0
 20 21  2  0
 21 22  1  0
 21 23  1  0
 23 24  1  0
 24 25  2  0
 24 26  2  0
 24 27  1  0
 27 28  1  0
 28 29  1  0
 23 30  2  0
 30 31  1  0
  9  4  1  0
 30 18  1  0
 16  6  1  0
 29 27  1  0
 12  7  1  0
  5 32  1  0
  9 33  1  0
 10 34  1  0
 10 35  1  0
 11 36  1  0
 11 37  1  0
 15 38  1  0
 15 39  1  0
 16 40  1  0
 16 41  1  0
 19 42  1  0
 20 43  1  0
 27 44  1  0
 28 45  1  0
 28 46  1  0
 29 47  1  0
 29 48  1  0
M  CHG  3   3  -1  17  -1  31  -1
M  END
>  <UniqueID>  (43) 
42

>  <SMILES>  (43) 
O=C([N-]c1cc2c3c(c1)CCN3C(=O)CC2)[N-]c1ccc(Cl)c(S(=O)(=O)C2CC2)c1[O-]

>  <Energy>  (43) 
344.3022944328683

>  <Genealogy>  (43) 
O=C([N-]c1cc2c3c(c1)CCN3C(=O)CC2)[N-]c1ccc(Cl)c(S(=O)(=O)C2CC2)c1[O-] (protonated)
O=C([N-]c1cc2c3c(c1)CCN3C(=O)CC2)[N-]c1ccc(Cl)c(S(=O)(=O)C2CC2)c1[O-] (3D coordinates assigned)
O=C([N-]c1cc2c3c(c1)CCN3C(=O)CC2)[N-]c1ccc(Cl)c(S(=O)(=O)C2CC2)c1[O-] (nonaromatic ring conformer: 344.3022944328683 kcal/mol)

>  <smiles>  (43) 
O=C(Nc1cc2c3c(c1)CCN3C(=O)CC2)Nc1ccc(Cl)c(S(=O)(=O)C2CC2)c1O

>  <score_type>  (43) 
oracle

>  <origin>  (43) 
adgpu

>  <m_score__min__energy>  (43) 
-17.050000000000001

>  <m_primary>  (43) 
energy

$$$$
43:0
     RDKit          3D

 71 73  0  0  0  0  0  0  0  0999 V2000
   -0.1090   21.2790  -36.2340 C   0  0  0  0  0  0  0  0  0  0  0  0
    0.9960   22.2110  -35.8650 C   0  0  0  0  0  0  0  0  0  0  0  0
    0.9100   23.5540  -35.9570 N   0  0  0  0  0  0  0  0  0  0  0  0
    2.1030   24.0540  -35.6690 N   0  0  0  0  0  0  0  0  0  0  0  0
    2.4180   25.4770  -35.7490 C   0  0  0  0  0  0  0  0  0  0  0  0
    2.9750   23.0530  -35.4120 C   0  0  0  0  0  0  0  0  0  0  0  0
    4.4520   23.2220  -35.2330 C   0  0  0  0  0  0  0  0  0  0  0  0
    2.2890   21.8620  -35.5270 C   0  0  0  0  0  0  0  0  0  0  0  0
    2.8560   20.5540  -35.5610 N   0  0  0  0  0  0  0  0  0  0  0  0
    2.5140   19.4130  -34.3070 S   0  0  0  0  0  0  0  0  0  0  0  0
    3.4110   19.6650  -33.1260 O   0  0  0  0  0  0  0  0  0  0  0  0
    2.7720   18.0230  -34.8190 O   0  0  0  0  0  0  0  0  0  0  0  0
    0.8250   19.5590  -33.8310 C   0  0  0  0  0  0  0  0  0  0  0  0
    0.4260   20.6090  -32.9950 C   0  0  0  0  0  0  0  0  0  0  0  0
   -0.9230   20.7860  -32.6800 C   0  0  0  0  0  0  0  0  0  0  0  0
   -1.8980   19.9130  -33.1990 C   0  0  0  0  0  0  0  0  0  0  0  0
   -3.3360   20.1150  -32.8860 C   0  0  0  0  0  0  0  0  0  0  0  0
   -4.3320   19.7030  -33.7910 C   0  0  0  0  0  0  0  0  0  0  0  0
   -5.6850   19.8910  -33.4910 C   0  0  0  0  0  0  0  0  0  0  0  0
   -6.0630   20.4940  -32.2850 C   0  0  0  0  0  0  0  0  0  0  0  0
   -7.7660   20.7410  -31.9000 S   0  0  0  0  0  0  0  0  0  0  0  0
   -8.6070   20.5230  -33.1260 O   0  0  0  0  0  0  0  0  0  0  0  0
   -8.1760   19.7240  -30.8720 O   0  0  0  0  0  0  0  0  0  0  0  0
   -8.0590   22.3330  -31.2560 N   0  0  0  0  0  0  0  0  0  0  0  0
   -6.9900   23.2790  -31.5870 C   0  0  0  0  0  0  0  0  0  0  0  0
   -6.3230   23.8840  -30.3420 C   0  0  0  0  0  0  0  0  0  0  0  0
   -5.6650   25.2510  -30.5900 C   0  0  0  0  0  0  0  0  0  0  0  0
   -4.2030   25.1550  -30.4730 N   0  0  0  0  0  0  0  0  0  0  0  0
   -3.7210   23.7640  -30.5330 C   0  0  0  0  0  0  0  0  0  0  0  0
   -3.2740   23.2160  -29.1560 C   0  0  0  0  0  0  0  0  0  0  0  0
   -1.7470   23.1580  -28.9590 C   0  0  0  0  0  0  0  0  0  0  0  0
   -1.1280   24.5010  -28.5350 C   0  0  0  0  0  0  0  0  0  0  0  0
   -1.9810   25.6210  -28.9200 N   0  0  0  0  0  0  0  0  0  0  0  0
   -5.0760   20.9190  -31.3860 C   0  0  0  0  0  0  0  0  0  0  0  0
   -3.7240   20.7330  -31.6830 C   0  0  0  0  0  0  0  0  0  0  0  0
   -1.4890   18.8550  -34.0320 C   0  0  0  0  0  0  0  0  0  0  0  0
   -0.1370   18.6820  -34.3480 C   0  0  0  0  0  0  0  0  0  0  0  0
   -0.5766   20.8846  -35.3198 H   0  0  0  0  0  0  0  0  0  0  0  0
   -0.8616   21.8192  -36.8271 H   0  0  0  0  0  0  0  0  0  0  0  0
    0.2965   20.4461  -36.8271 H   0  0  0  0  0  0  0  0  0  0  0  0
    2.5094   25.8900  -34.7336 H   0  0  0  0  0  0  0  0  0  0  0  0
    3.3679   25.6126  -36.2869 H   0  0  0  0  0  0  0  0  0  0  0  0
    1.6141   26.0008  -36.2869 H   0  0  0  0  0  0  0  0  0  0  0  0
    4.6905   23.2493  -34.1595 H   0  0  0  0  0  0  0  0  0  0  0  0
    4.9774   22.3781  -35.7040 H   0  0  0  0  0  0  0  0  0  0  0  0
    4.7732   24.1628  -35.7040 H   0  0  0  0  0  0  0  0  0  0  0  0
    1.1788   21.2979  -32.5843 H   0  0  0  0  0  0  0  0  0  0  0  0
   -1.2260   21.6135  -32.0216 H   0  0  0  0  0  0  0  0  0  0  0  0
   -4.0442   19.2296  -34.7413 H   0  0  0  0  0  0  0  0  0  0  0  0
   -6.4551   19.5640  -34.2051 H   0  0  0  0  0  0  0  0  0  0  0  0
   -6.2241   22.7520  -32.1749 H   0  0  0  0  0  0  0  0  0  0  0  0
   -7.4432   24.1054  -32.1542 H   0  0  0  0  0  0  0  0  0  0  0  0
   -7.0897   24.0050  -29.5626 H   0  0  0  0  0  0  0  0  0  0  0  0
   -5.5211   23.1934  -30.0420 H   0  0  0  0  0  0  0  0  0  0  0  0
   -5.9239   25.5978  -31.6013 H   0  0  0  0  0  0  0  0  0  0  0  0
   -6.0333   25.9618  -29.8357 H   0  0  0  0  0  0  0  0  0  0  0  0
   -3.8940   25.5770  -29.5690 H   0  0  0  0  0  0  0  0  0  0  0  0
   -4.5330   23.1284  -30.9158 H   0  0  0  0  0  0  0  0  0  0  0  0
   -2.8410   23.7501  -31.1928 H   0  0  0  0  0  0  0  0  0  0  0  0
   -3.6974   23.8636  -28.3741 H   0  0  0  0  0  0  0  0  0  0  0  0
   -3.6375   22.1794  -29.0977 H   0  0  0  0  0  0  0  0  0  0  0  0
   -1.5250   22.4122  -28.1816 H   0  0  0  0  0  0  0  0  0  0  0  0
   -1.3067   22.8933  -29.9316 H   0  0  0  0  0  0  0  0  0  0  0  0
   -0.9988   24.5075  -27.4426 H   0  0  0  0  0  0  0  0  0  0  0  0
   -0.1578   24.6123  -29.0413 H   0  0  0  0  0  0  0  0  0  0  0  0
   -2.9600   25.4030  -28.6140 H   0  0  0  0  0  0  0  0  0  0  0  0
   -1.9980   25.6610  -29.9660 H   0  0  0  0  0  0  0  0  0  0  0  0
   -5.3674   21.4016  -30.4415 H   0  0  0  0  0  0  0  0  0  0  0  0
   -2.9569   21.0721  -30.9712 H   0  0  0  0  0  0  0  0  0  0  0  0
   -2.2378   18.1588  -34.4377 H   0  0  0  0  0  0  0  0  0  0  0  0
    0.1713   17.8549  -35.0043 H   0  0  0  0  0  0  0  0  0  0  0  0
  1  2  1  0
  2  3  2  0
  3  4  1  0
  4  5  1  0
  4  6  1  0
  6  7  1  0
  6  8  2  0
  8  9  1  0
  9 10  1  0
 10 11  2  0
 10 12  2  0
 10 13  1  0
 13 14  2  0
 14 15  1  0
 15 16  2  0
 16 17  1  0
 17 18  2  0
 18 19  1  0
 19 20  2  0
 20 21  1  0
 21 22  2  0
 21 23  2  0
 21 24  1  0
 24 25  1  0
 25 26  1  0
 26 27  1  0
 27 28  1  0
 28 29  1  0
 29 30  1  0
 30 31  1  0
 31 32  1  0
 32 33  1  0
 20 34  1  0
 34 35  2  0
 16 36  1  0
 36 37  2  0
  8  2  1  0
 37 13  1  0
 35 17  1  0
  1 38  1  0
  1 39  1  0
  1 40  1  0
  5 41  1  0
  5 42  1  0
  5 43  1  0
  7 44  1  0
  7 45  1  0
  7 46  1  0
 14 47  1  0
 15 48  1  0
 18 49  1  0
 19 50  1  0
 25 51  1  0
 25 52  1  0
 26 53  1  0
 26 54  1  0
 27 55  1  0
 27 56  1  0
 28 57  1  0
 29 58  1  0
 29 59  1  0
 30 60  1  0
 30 61  1  0
 31 62  1  0
 31 63  1  0
 32 64  1  0
 32 65  1  0
 33 66  1  0
 33 67  1  0
 34 68  1  0
 35 69  1  0
 36 70  1  0
 37 71  1  0
M  CHG  2   9  -1  24  -1
M  END
>  <UniqueID>  (44) 
43

>  <SMILES>  (44) 
Cc1nn(C)c(C)c1[N-]S(=O)(=O)c1ccc(-c2ccc(S(=O)(=O)[N-]CCCNCCCCN)cc2)cc1

>  <Energy>  (44) 
109.82287187149616

>  <Genealogy>  (44) 
Cc1nn(C)c(C)c1[N-]S(=O)(=O)c1ccc(-c2ccc(S(=O)(=O)[N-]CCCNCCCCN)cc2)cc1 (protonated)
Cc1nn(C)c(C)c1[N-]S(=O)(=O)c1ccc(-c2ccc(S(=O)(=O)[N-]CCCNCCCCN)cc2)cc1 (3D coordinates assigned)
Cc1nn(C)c(C)c1[N-]S(=O)(=O)c1ccc(-c2ccc(S(=O)(=O)[N-]CCCNCCCCN)cc2)cc1 (optimized conformer: 109.82287187149616 kcal/mol)

>  <smiles>  (44) 
Cc1nn(C)c(C)c1NS(=O)(=O)c1ccc(-c2ccc(S(=O)(=O)NCCCNCCCCN)cc2)cc1

>  <score_type>  (44) 
oracle

>  <origin>  (44) 
adgpu

>  <m_score__min__energy>  (44) 
-9.3900000000000006

>  <m_primary>  (44) 
energy

$$$$
44:0
     RDKit          3D

 49 52  0  0  0  0  0  0  0  0999 V2000
   -5.6822   25.8107  -29.4366 H   0  0  0  0  0  0  0  0  0  0  0  0
   -5.8280   25.0150  -30.1820 C   0  0  0  0  0  0  0  0  0  0  0  0
   -4.9850   24.7360  -31.1960 N   0  0  0  0  0  0  0  0  0  0  0  0
   -5.5650   23.7000  -31.8380 C   0  0  0  0  0  0  0  0  0  0  0  0
   -5.1358   23.2160  -32.7277 H   0  0  0  0  0  0  0  0  0  0  0  0
   -6.7290   23.3230  -31.2690 N   0  0  0  0  0  0  0  0  0  0  0  0
   -7.5830   22.2530  -31.7160 C   0  0  0  0  0  0  0  0  0  0  0  0
   -7.0310   21.1640  -32.3130 N   0  0  0  0  0  0  0  0  0  0  0  0
   -7.7870   20.1120  -32.7330 C   0  0  0  0  0  0  0  0  0  0  0  0
   -7.2350   19.0830  -33.3120 N   0  0  0  0  0  0  0  0  0  0  0  0
   -5.8250   18.8890  -33.5080 C   0  0  0  0  0  0  0  0  0  0  0  0
   -4.9420   19.8440  -32.9890 C   0  0  0  0  0  0  0  0  0  0  0  0
   -5.3388   20.7115  -32.4413 H   0  0  0  0  0  0  0  0  0  0  0  0
   -3.5600   19.7060  -33.1600 C   0  0  0  0  0  0  0  0  0  0  0  0
   -2.4600   20.9160  -32.4990 S   0  0  0  0  0  0  0  0  0  0  0  0
   -2.9900   22.2890  -32.8110 O   0  0  0  0  0  0  0  0  0  0  0  0
   -1.1250   20.7770  -33.1770 O   0  0  0  0  0  0  0  0  0  0  0  0
   -2.2450   20.7580  -30.7670 N   0  0  0  0  0  0  0  0  0  0  0  0
   -1.0330   21.4430  -30.2820 C   0  0  0  0  0  0  0  0  0  0  0  0
   -0.7312   20.9871  -29.3275 H   0  0  0  0  0  0  0  0  0  0  0  0
   -0.2591   21.3284  -31.0553 H   0  0  0  0  0  0  0  0  0  0  0  0
   -1.2430   22.9610  -30.0590 C   0  0  0  0  0  0  0  0  0  0  0  0
   -0.8708   23.2212  -29.0571 H   0  0  0  0  0  0  0  0  0  0  0  0
   -0.6942   23.4857  -30.8550 H   0  0  0  0  0  0  0  0  0  0  0  0
   -2.5960   23.3590  -30.1520 O   0  0  0  0  0  0  0  0  0  0  0  0
   -3.3970   22.5020  -29.3710 C   0  0  0  0  0  0  0  0  0  0  0  0
   -2.9659   22.4230  -28.3621 H   0  0  0  0  0  0  0  0  0  0  0  0
   -4.4144   22.9167  -29.3168 H   0  0  0  0  0  0  0  0  0  0  0  0
   -3.4630   21.1030  -30.0040 C   0  0  0  0  0  0  0  0  0  0  0  0
   -3.5969   20.3613  -29.2027 H   0  0  0  0  0  0  0  0  0  0  0  0
   -4.3064   21.1001  -30.7102 H   0  0  0  0  0  0  0  0  0  0  0  0
   -3.0570   18.6030  -33.8580 C   0  0  0  0  0  0  0  0  0  0  0  0
   -1.9704   18.4760  -33.9727 H   0  0  0  0  0  0  0  0  0  0  0  0
   -3.9300   17.6620  -34.4100 C   0  0  0  0  0  0  0  0  0  0  0  0
   -3.5263   16.8030  -34.9660 H   0  0  0  0  0  0  0  0  0  0  0  0
   -5.3220   17.8050  -34.2600 C   0  0  0  0  0  0  0  0  0  0  0  0
   -6.2240   16.9100  -34.8590 O   0  0  0  0  0  0  0  0  0  0  0  0
   -6.8220   15.8010  -34.1980 C   0  0  0  0  0  0  0  0  0  0  0  0
   -6.7474   15.9393  -33.1093 H   0  0  0  0  0  0  0  0  0  0  0  0
   -7.8810   15.7294  -34.4868 H   0  0  0  0  0  0  0  0  0  0  0  0
   -6.2999   14.8769  -34.4868 H   0  0  0  0  0  0  0  0  0  0  0  0
   -9.1380   20.1500  -32.5750 N   0  0  0  0  0  0  0  0  0  0  0  0
   -9.7280   19.3530  -32.9020 H   0  0  0  0  0  0  0  0  0  0  0  0
   -9.7380   21.2180  -31.9850 C   0  0  0  0  0  0  0  0  0  0  0  0
  -10.8308   21.2323  -31.8599 H   0  0  0  0  0  0  0  0  0  0  0  0
   -8.9740   22.2950  -31.5380 C   0  0  0  0  0  0  0  0  0  0  0  0
   -9.4521   23.1602  -31.0555 H   0  0  0  0  0  0  0  0  0  0  0  0
   -6.8990   24.1520  -30.2220 C   0  0  0  0  0  0  0  0  0  0  0  0
   -7.7464   24.1413  -29.5207 H   0  0  0  0  0  0  0  0  0  0  0  0
  1  2  1  0
  2  3  1  0
  3  4  2  0
  4  5  1  0
  4  6  1  0
  6  7  1  0
  7  8  2  0
  8  9  1  0
  9 10  2  0
 10 11  1  0
 11 12  2  0
 12 13  1  0
 12 14  1  0
 14 15  1  0
 15 16  2  0
 15 17  2  0
 15 18  1  0
 18 19  1  0
 19 20  1  0
 19 21  1  0
 19 22  1  0
 22 23  1  0
 22 24  1  0
 22 25  1  0
 25 26  1  0
 26 27  1  0
 26 28  1  0
 26 29  1  0
 29 30  1  0
 29 31  1  0
 14 32  2  0
 32 33  1  0
 32 34  1  0
 34 35  1  0
 34 36  2  0
 36 37  1  0
 37 38  1  0
 38 39  1  0
 38 40  1  0
 38 41  1  0
  9 42  1  0
 42 43  1  0
 42 44  1  0
 44 45  1  0
 44 46  2  0
 46 47  1  0
  6 48  1  0
 48 49  1  0
 48  2  2  0
 46  7  1  0
 36 11  1  0
 29 18  1  0
M  END
>  <UniqueID>  (45) 
44

>  <SMILES>  (45) 
COc1ccc(S(=O)(=O)N2CCOCC2)cc1/N=c1\nc(-n2ccnc2)cc[nH]1

>  <Energy>  (45) 
100.19323884732655

>  <Genealogy>  (45) 
COc1ccc(S(=O)(=O)N2CCOCC2)cc1/N=c1\nc(-n2ccnc2)cc[nH]1 (cis-trans isomerization)
COc1ccc(S(=O)(=O)N2CCOCC2)cc1/N=c1\nc(-n2ccnc2)cc[nH]1 (3D coordinates assigned)
COc1ccc(S(=O)(=O)N2CCOCC2)cc1/N=c1\nc(-n2ccnc2)cc[nH]1 (nonaromatic ring conformer: 100.19323884732655 kcal/mol)

>  <smiles>  (45) 
COc1ccc(S(=O)(=O)N2CCOCC2)cc1N=c1nc(-n2ccnc2)cc[nH]1

>  <score_type>  (45) 
oracle

>  <origin>  (45) 
adgpu

>  <m_score__min__energy>  (45) 
-9.4299999999999997

>  <m_primary>  (45) 
energy

$$$$
45:0
     RDKit          3D

 38 40  0  0  0  0  0  0  0  0999 V2000
   -4.3120   17.3490  -34.5330 C   0  0  0  0  0  0  0  0  0  0  0  0
   -4.4490   18.7390  -33.9990 C   0  0  0  0  0  0  0  0  0  0  0  0
   -3.4480   19.6430  -33.9930 N   0  0  0  0  0  0  0  0  0  0  0  0
   -3.9090   20.7180  -33.4200 O   0  0  0  0  0  0  0  0  0  0  0  0
   -5.1630   20.5710  -33.0490 C   0  0  0  0  0  0  0  0  0  0  0  0
   -5.9340   21.6380  -32.3720 C   0  0  0  0  0  0  0  0  0  0  0  0
   -7.3330   21.5310  -32.3040 C   0  0  0  0  0  0  0  0  0  0  0  0
   -8.0880   22.5150  -31.6600 C   0  0  0  0  0  0  0  0  0  0  0  0
   -7.4550   23.6090  -31.0660 C   0  0  0  0  0  0  0  0  0  0  0  0
   -6.0580   23.7210  -31.1060 C   0  0  0  0  0  0  0  0  0  0  0  0
   -5.2580   25.1010  -30.3580 S   0  0  0  0  0  0  0  0  0  0  0  0
   -5.6750   26.3790  -31.0330 O   0  0  0  0  0  0  0  0  0  0  0  0
   -5.6600   25.1690  -28.9120 O   0  0  0  0  0  0  0  0  0  0  0  0
   -3.5320   24.9570  -30.4580 N   0  0  0  0  0  0  0  0  0  0  0  0
   -2.7160   24.2050  -29.5480 C   0  0  0  0  0  0  0  0  0  0  0  0
   -3.0400   22.8800  -29.1870 C   0  0  0  0  0  0  0  0  0  0  0  0
   -2.2220   22.1740  -28.2990 C   0  0  0  0  0  0  0  0  0  0  0  0
   -1.0780   22.7810  -27.7650 C   0  0  0  0  0  0  0  0  0  0  0  0
   -0.7580   24.1020  -28.1050 C   0  0  0  0  0  0  0  0  0  0  0  0
   -1.5720   24.8130  -28.9940 C   0  0  0  0  0  0  0  0  0  0  0  0
   -1.2340   26.1230  -29.3330 O   0  0  0  0  0  0  0  0  0  0  0  0
   -5.2990   22.7310  -31.7490 C   0  0  0  0  0  0  0  0  0  0  0  0
   -5.5640   19.2810  -33.3830 C   0  0  0  0  0  0  0  0  0  0  0  0
   -6.8630   18.5890  -33.0930 C   0  0  0  0  0  0  0  0  0  0  0  0
   -4.2421   16.6396  -33.6952 H   0  0  0  0  0  0  0  0  0  0  0  0
   -5.1904   17.1044  -35.1483 H   0  0  0  0  0  0  0  0  0  0  0  0
   -3.4028   17.2805  -35.1483 H   0  0  0  0  0  0  0  0  0  0  0  0
   -7.8376   20.6669  -32.7607 H   0  0  0  0  0  0  0  0  0  0  0  0
   -9.1838   22.4276  -31.6209 H   0  0  0  0  0  0  0  0  0  0  0  0
   -8.0537   24.3844  -30.5657 H   0  0  0  0  0  0  0  0  0  0  0  0
   -3.9379   22.4013  -29.6049 H   0  0  0  0  0  0  0  0  0  0  0  0
   -2.4772   21.1411  -28.0197 H   0  0  0  0  0  0  0  0  0  0  0  0
   -0.4293   22.2191  -27.0770 H   0  0  0  0  0  0  0  0  0  0  0  0
    0.1334   24.5804  -27.6730 H   0  0  0  0  0  0  0  0  0  0  0  0
   -4.2019   22.8087  -31.7668 H   0  0  0  0  0  0  0  0  0  0  0  0
   -7.0036   18.5141  -32.0046 H   0  0  0  0  0  0  0  0  0  0  0  0
   -7.6913   19.1654  -33.5309 H   0  0  0  0  0  0  0  0  0  0  0  0
   -6.8467   17.5800  -33.5309 H   0  0  0  0  0  0  0  0  0  0  0  0
  1  2  1  0
  2  3  2  0
  3  4  1  0
  4  5  1  0
  5  6  1  0
  6  7  2  0
  7  8  1  0
  8  9  2  0
  9 10  1  0
 10 11  1  0
 11 12  2  0
 11 13  2  0
 11 14  1  0
 14 15  1  0
 15 16  2  0
 16 17  1  0
 17 18  2  0
 18 19  1  0
 19 20  2  0
 20 21  1  0
 10 22  2  0
  5 23  2  0
 23 24  1  0
 23  2  1  0
 22  6  1  0
 20 15  1  0
  1 25  1  0
  1 26  1  0
  1 27  1  0
  7 28  1  0
  8 29  1  0
  9 30  1  0
 16 31  1  0
 17 32  1  0
 18 33  1  0
 19 34  1  0
 22 35  1  0
 24 36  1  0
 24 37  1  0
 24 38  1  0
M  CHG  2  14  -1  21  -1
M  END
>  <UniqueID>  (46) 
45

>  <SMILES>  (46) 
Cc1noc(-c2cccc(S(=O)(=O)[N-]c3ccccc3[O-])c2)c1C

>  <Energy>  (46) 
77.69000149150318

>  <Genealogy>  (46) 
Cc1noc(-c2cccc(S(=O)(=O)[N-]c3ccccc3[O-])c2)c1C (protonated)
Cc1noc(-c2cccc(S(=O)(=O)[N-]c3ccccc3[O-])c2)c1C (3D coordinates assigned)
Cc1noc(-c2cccc(S(=O)(=O)[N-]c3ccccc3[O-])c2)c1C (optimized conformer: 77.69000149150318 kcal/mol)

>  <smiles>  (46) 
Cc1noc(-c2cccc(S(=O)(=O)Nc3ccccc3O)c2)c1C

>  <score_type>  (46) 
oracle

>  <origin>  (46) 
adgpu

>  <m_score__min__energy>  (46) 
-13.720000000000001

>  <m_primary>  (46) 
energy

$$$$
46:0
     RDKit          3D

 60 63  0  0  0  0  0  0  0  0999 V2000
   -2.5990   16.6160  -34.5360 C   0  0  0  0  0  0  0  0  0  0  0  0
   -3.4460   17.7140  -33.9580 C   0  0  0  0  0  0  0  0  0  0  0  0
   -3.0010   18.9410  -33.4620 C   0  0  0  0  0  0  0  0  0  0  0  0
   -1.6760   19.4960  -33.4380 N   0  0  0  0  0  0  0  0  0  0  0  0
   -1.3510   20.8170  -33.9750 C   0  0  0  0  0  0  0  0  0  0  0  0
   -0.0430   21.3140  -33.4190 C   0  0  0  0  0  0  0  0  0  0  0  0
    0.9150   21.5300  -34.2090 O   0  0  0  0  0  0  0  0  0  0  0  0
    0.1400   21.5760  -32.0210 N   0  0  0  0  0  0  0  0  0  0  0  0
   -0.8650   21.4240  -31.0120 C   0  0  0  0  0  0  0  0  0  0  0  0
   -1.9250   22.3380  -30.9760 C   0  0  0  0  0  0  0  0  0  0  0  0
   -2.9320   22.2230  -30.0090 C   0  0  0  0  0  0  0  0  0  0  0  0
   -4.2650   23.3740  -29.9690 S   0  0  0  0  0  0  0  0  0  0  0  0
   -3.8180   24.6710  -30.5830 O   0  0  0  0  0  0  0  0  0  0  0  0
   -4.6660   23.6360  -28.5410 O   0  0  0  0  0  0  0  0  0  0  0  0
   -5.6110   22.7320  -30.8730 N   0  0  0  0  0  0  0  0  0  0  0  0
   -6.8550   22.7700  -30.1000 C   0  0  0  0  0  0  0  0  0  0  0  0
   -7.9900   22.8370  -31.1100 C   0  0  0  0  0  0  0  0  0  0  0  0
   -7.3590   23.3580  -32.3930 C   0  0  0  0  0  0  0  0  0  0  0  0
   -5.8750   23.5090  -32.0870 C   0  0  0  0  0  0  0  0  0  0  0  0
   -2.8580   21.2070  -29.0500 C   0  0  0  0  0  0  0  0  0  0  0  0
   -1.7870   20.3100  -29.0590 C   0  0  0  0  0  0  0  0  0  0  0  0
   -0.7840   20.4150  -30.0300 C   0  0  0  0  0  0  0  0  0  0  0  0
    0.5910   19.3210  -29.9370 Cl  0  0  0  0  0  0  0  0  0  0  0  0
   -4.1310   19.5470  -32.9600 C   0  0  0  0  0  0  0  0  0  0  0  0
   -4.1710   20.6700  -32.3890 O   0  0  0  0  0  0  0  0  0  0  0  0
   -5.2000   18.7510  -33.1540 N   0  0  0  0  0  0  0  0  0  0  0  0
   -6.5440   19.0340  -32.7240 C   0  0  0  0  0  0  0  0  0  0  0  0
   -7.1320   18.2770  -31.6980 C   0  0  0  0  0  0  0  0  0  0  0  0
   -8.4420   18.5440  -31.2870 C   0  0  0  0  0  0  0  0  0  0  0  0
   -9.1750   19.5610  -31.9050 C   0  0  0  0  0  0  0  0  0  0  0  0
   -8.6010   20.3100  -32.9350 C   0  0  0  0  0  0  0  0  0  0  0  0
   -7.2910   20.0460  -33.3480 C   0  0  0  0  0  0  0  0  0  0  0  0
   -4.7920   17.6460  -33.7760 N   0  0  0  0  0  0  0  0  0  0  0  0
   -5.6630   16.5460  -34.2010 C   0  0  0  0  0  0  0  0  0  0  0  0
   -2.1486   16.0321  -33.7198 H   0  0  0  0  0  0  0  0  0  0  0  0
   -3.2253   15.9574  -35.1557 H   0  0  0  0  0  0  0  0  0  0  0  0
   -1.8030   17.0546  -35.1557 H   0  0  0  0  0  0  0  0  0  0  0  0
   -0.9470   18.9740  -32.9000 H   0  0  0  0  0  0  0  0  0  0  0  0
   -1.2757   20.7523  -35.0705 H   0  0  0  0  0  0  0  0  0  0  0  0
   -2.1463   21.5200  -33.6864 H   0  0  0  0  0  0  0  0  0  0  0  0
   -1.9674   23.1533  -31.7133 H   0  0  0  0  0  0  0  0  0  0  0  0
   -5.3960   21.7410  -31.1350 H   0  0  0  0  0  0  0  0  0  0  0  0
   -6.9475   21.8632  -29.4842 H   0  0  0  0  0  0  0  0  0  0  0  0
   -6.8751   23.6356  -29.4215 H   0  0  0  0  0  0  0  0  0  0  0  0
   -8.4211   21.8379  -31.2713 H   0  0  0  0  0  0  0  0  0  0  0  0
   -8.8080   23.4858  -30.7637 H   0  0  0  0  0  0  0  0  0  0  0  0
   -7.5109   22.6419  -33.2140 H   0  0  0  0  0  0  0  0  0  0  0  0
   -7.8084   24.3106  -32.7101 H   0  0  0  0  0  0  0  0  0  0  0  0
   -5.2747   23.1207  -32.9230 H   0  0  0  0  0  0  0  0  0  0  0  0
   -5.6074   24.5664  -31.9444 H   0  0  0  0  0  0  0  0  0  0  0  0
   -3.6450   21.1142  -28.2871 H   0  0  0  0  0  0  0  0  0  0  0  0
   -1.7315   19.5168  -28.2989 H   0  0  0  0  0  0  0  0  0  0  0  0
   -6.5601   17.4707  -31.2155 H   0  0  0  0  0  0  0  0  0  0  0  0
   -8.8954   17.9535  -30.4773 H   0  0  0  0  0  0  0  0  0  0  0  0
  -10.2046   19.7717  -31.5801 H   0  0  0  0  0  0  0  0  0  0  0  0
   -9.1800   21.1085  -33.4219 H   0  0  0  0  0  0  0  0  0  0  0  0
   -6.8446   20.6330  -34.1642 H   0  0  0  0  0  0  0  0  0  0  0  0
   -6.0675   16.0352  -33.3147 H   0  0  0  0  0  0  0  0  0  0  0  0
   -6.4917   16.9463  -34.8036 H   0  0  0  0  0  0  0  0  0  0  0  0
   -5.0834   15.8312  -34.8036 H   0  0  0  0  0  0  0  0  0  0  0  0
  1  2  1  0
  2  3  2  0
  3  4  1  0
  4  5  1  0
  5  6  1  0
  6  7  2  0
  6  8  1  0
  8  9  1  0
  9 10  2  0
 10 11  1  0
 11 12  1  0
 12 13  2  0
 12 14  2  0
 12 15  1  0
 15 16  1  0
 16 17  1  0
 17 18  1  0
 18 19  1  0
 11 20  2  0
 20 21  1  0
 21 22  2  0
 22 23  1  0
  3 24  1  0
 24 25  2  0
 24 26  1  0
 26 27  1  0
 27 28  2  0
 28 29  1  0
 29 30  2  0
 30 31  1  0
 31 32  2  0
 26 33  1  0
 33 34  1  0
 33  2  1  0
 22  9  1  0
 32 27  1  0
 19 15  1  0
  1 35  1  0
  1 36  1  0
  1 37  1  0
  4 38  1  0
  5 39  1  0
  5 40  1  0
 10 41  1  0
 15 42  1  0
 16 43  1  0
 16 44  1  0
 17 45  1  0
 17 46  1  0
 18 47  1  0
 18 48  1  0
 19 49  1  0
 19 50  1  0
 20 51  1  0
 21 52  1  0
 28 53  1  0
 29 54  1  0
 30 55  1  0
 31 56  1  0
 32 57  1  0
 34 58  1  0
 34 59  1  0
 34 60  1  0
M  CHG  2   8  -1  15   1
M  END
>  <UniqueID>  (47) 
46

>  <SMILES>  (47) 
Cc1c(NCC(=O)[N-]c2cc(S(=O)(=O)[NH+]3CCCC3)ccc2Cl)c(=O)n(-c2ccccc2)n1C

>  <Energy>  (47) 
112.73320122639107

>  <Genealogy>  (47) 
Cc1c(NCC(=O)[N-]c2cc(S(=O)(=O)[NH+]3CCCC3)ccc2Cl)c(=O)n(-c2ccccc2)n1C (protonated)
Cc1c(NCC(=O)[N-]c2cc(S(=O)(=O)[NH+]3CCCC3)ccc2Cl)c(=O)n(-c2ccccc2)n1C (3D coordinates assigned)
Cc1c(NCC(=O)[N-]c2cc(S(=O)(=O)[NH+]3CCCC3)ccc2Cl)c(=O)n(-c2ccccc2)n1C (nonaromatic ring conformer: 112.73320122639107 kcal/mol)

>  <smiles>  (47) 
Cc1c(NCC(=O)Nc2cc(S(=O)(=O)N3CCCC3)ccc2Cl)c(=O)n(-c2ccccc2)n1C

>  <score_type>  (47) 
oracle

>  <origin>  (47) 
adgpu

>  <m_score__min__energy>  (47) 
-11.1

>  <m_primary>  (47) 
energy

$$$$
47:0
     RDKit          3D

 41 43  0  0  0  0  0  0  0  0999 V2000
   -3.8900   25.5400  -30.8390 O   0  0  0  0  0  0  0  0  0  0  0  0
   -4.1110   24.3530  -30.4720 C   0  0  0  0  0  0  0  0  0  0  0  0
   -5.2900   23.6770  -30.9310 N   0  0  0  0  0  0  0  0  0  0  0  0
   -5.3420   22.4370  -31.6510 C   0  0  0  0  0  0  0  0  0  0  0  0
   -6.4940   21.6310  -31.6660 C   0  0  0  0  0  0  0  0  0  0  0  0
   -6.5120   20.4410  -32.4000 C   0  0  0  0  0  0  0  0  0  0  0  0
   -5.3860   20.0480  -33.1340 C   0  0  0  0  0  0  0  0  0  0  0  0
   -5.4280   18.5610  -34.0780 S   0  0  0  0  0  0  0  0  0  0  0  0
   -6.1820   17.5000  -33.3240 O   0  0  0  0  0  0  0  0  0  0  0  0
   -6.1470   18.8290  -35.3710 O   0  0  0  0  0  0  0  0  0  0  0  0
   -3.8010   18.0260  -34.4110 N   0  0  0  0  0  0  0  0  0  0  0  0
   -3.0400   17.9140  -33.1540 C   0  0  0  0  0  0  0  0  0  0  0  0
   -1.7120   17.1620  -33.3780 C   0  0  0  0  0  0  0  0  0  0  0  0
   -1.4180   17.0540  -34.7570 O   0  0  0  0  0  0  0  0  0  0  0  0
   -2.3940   16.2500  -35.3940 C   0  0  0  0  0  0  0  0  0  0  0  0
   -3.8330   16.7310  -35.1050 C   0  0  0  0  0  0  0  0  0  0  0  0
   -4.2490   20.8660  -33.1450 C   0  0  0  0  0  0  0  0  0  0  0  0
   -4.2310   22.0560  -32.4130 C   0  0  0  0  0  0  0  0  0  0  0  0
   -3.1780   23.6910  -29.5210 C   0  0  0  0  0  0  0  0  0  0  0  0
   -3.4300   22.3630  -29.1170 C   0  0  0  0  0  0  0  0  0  0  0  0
   -2.5710   21.7130  -28.2270 C   0  0  0  0  0  0  0  0  0  0  0  0
   -1.4510   22.3730  -27.7240 C   0  0  0  0  0  0  0  0  0  0  0  0
   -1.1870   23.6880  -28.1080 C   0  0  0  0  0  0  0  0  0  0  0  0
   -2.0400   24.3530  -28.9990 C   0  0  0  0  0  0  0  0  0  0  0  0
   -1.7410   25.6650  -29.3440 O   0  0  0  0  0  0  0  0  0  0  0  0
   -7.3847   21.9378  -31.0980 H   0  0  0  0  0  0  0  0  0  0  0  0
   -7.4139   19.8113  -32.4009 H   0  0  0  0  0  0  0  0  0  0  0  0
   -2.8225   18.9230  -32.7739 H   0  0  0  0  0  0  0  0  0  0  0  0
   -3.6439   17.3508  -32.4273 H   0  0  0  0  0  0  0  0  0  0  0  0
   -0.8994   17.7101  -32.8787 H   0  0  0  0  0  0  0  0  0  0  0  0
   -1.8074   16.1493  -32.9593 H   0  0  0  0  0  0  0  0  0  0  0  0
   -2.2228   16.2806  -36.4802 H   0  0  0  0  0  0  0  0  0  0  0  0
   -2.2963   15.2280  -34.9992 H   0  0  0  0  0  0  0  0  0  0  0  0
   -4.3781   16.8399  -36.0542 H   0  0  0  0  0  0  0  0  0  0  0  0
   -4.3390   15.9919  -34.4665 H   0  0  0  0  0  0  0  0  0  0  0  0
   -3.3670   20.5704  -33.7321 H   0  0  0  0  0  0  0  0  0  0  0  0
   -3.3379   22.6978  -32.4356 H   0  0  0  0  0  0  0  0  0  0  0  0
   -4.3120   21.8337  -29.5067 H   0  0  0  0  0  0  0  0  0  0  0  0
   -2.7794   20.6768  -27.9222 H   0  0  0  0  0  0  0  0  0  0  0  0
   -0.7760   21.8575  -27.0250 H   0  0  0  0  0  0  0  0  0  0  0  0
   -0.3030   24.2065  -27.7085 H   0  0  0  0  0  0  0  0  0  0  0  0
  1  2  2  0
  2  3  1  0
  3  4  1  0
  4  5  2  0
  5  6  1  0
  6  7  2  0
  7  8  1  0
  8  9  2  0
  8 10  2  0
  8 11  1  0
 11 12  1  0
 12 13  1  0
 13 14  1  0
 14 15  1  0
 15 16  1  0
  7 17  1  0
 17 18  2  0
  2 19  1  0
 19 20  2  0
 20 21  1  0
 21 22  2  0
 22 23  1  0
 23 24  2  0
 24 25  1  0
 18  4  1  0
 24 19  1  0
 16 11  1  0
  5 26  1  0
  6 27  1  0
 12 28  1  0
 12 29  1  0
 13 30  1  0
 13 31  1  0
 15 32  1  0
 15 33  1  0
 16 34  1  0
 16 35  1  0
 17 36  1  0
 18 37  1  0
 20 38  1  0
 21 39  1  0
 22 40  1  0
 23 41  1  0
M  CHG  2   3  -1  25  -1
M  END
>  <UniqueID>  (48) 
47

>  <SMILES>  (48) 
O=C([N-]c1ccc(S(=O)(=O)N2CCOCC2)cc1)c1ccccc1[O-]

>  <Energy>  (48) 
56.24300875330043

>  <Genealogy>  (48) 
O=C([N-]c1ccc(S(=O)(=O)N2CCOCC2)cc1)c1ccccc1[O-] (protonated)
O=C([N-]c1ccc(S(=O)(=O)N2CCOCC2)cc1)c1ccccc1[O-] (3D coordinates assigned)
O=C([N-]c1ccc(S(=O)(=O)N2CCOCC2)cc1)c1ccccc1[O-] (nonaromatic ring conformer: 56.24300875330043 kcal/mol)

>  <smiles>  (48) 
O=C(Nc1ccc(S(=O)(=O)N2CCOCC2)cc1)c1ccccc1O

>  <score_type>  (48) 
oracle

>  <origin>  (48) 
adgpu

>  <m_score__min__energy>  (48) 
-13.130000000000001

>  <m_primary>  (48) 
energy

$$$$
48:0
     RDKit          3D

 44 46  0  0  0  0  0  0  0  0999 V2000
   -0.7640   21.6680  -25.6720 O   0  0  0  0  0  0  0  0  0  0  0  0
   -0.3270   22.0080  -26.7900 N   0  0  0  0  0  0  0  0  0  0  0  0
    0.9590   21.6610  -27.1290 O   0  0  0  0  0  0  0  0  0  0  0  0
   -1.1570   22.7390  -27.7120 C   0  0  0  0  0  0  0  0  0  0  0  0
   -2.3010   22.1450  -28.2740 C   0  0  0  0  0  0  0  0  0  0  0  0
   -3.1040   22.8540  -29.1720 C   0  0  0  0  0  0  0  0  0  0  0  0
   -2.7770   24.1690  -29.5320 C   0  0  0  0  0  0  0  0  0  0  0  0
   -3.5880   24.9280  -30.4420 N   0  0  0  0  0  0  0  0  0  0  0  0
   -5.3030   25.1400  -30.3030 S   0  0  0  0  0  0  0  0  0  0  0  0
   -5.6640   25.2780  -28.8510 O   0  0  0  0  0  0  0  0  0  0  0  0
   -5.7010   26.4030  -31.0040 O   0  0  0  0  0  0  0  0  0  0  0  0
   -6.1590   23.7860  -31.0370 C   0  0  0  0  0  0  0  0  0  0  0  0
   -7.5500   23.8240  -31.1930 C   0  0  0  0  0  0  0  0  0  0  0  0
   -8.2150   22.7670  -31.8150 C   0  0  0  0  0  0  0  0  0  0  0  0
   -7.4970   21.6670  -32.2940 C   0  0  0  0  0  0  0  0  0  0  0  0
   -8.1710   20.6670  -32.9120 F   0  0  0  0  0  0  0  0  0  0  0  0
   -6.1010   21.6150  -32.1380 C   0  0  0  0  0  0  0  0  0  0  0  0
   -5.1410   20.2680  -32.7600 S   0  0  0  0  0  0  0  0  0  0  0  0
   -4.4500   19.5460  -31.6340 O   0  0  0  0  0  0  0  0  0  0  0  0
   -4.0880   20.8330  -33.6690 O   0  0  0  0  0  0  0  0  0  0  0  0
   -6.1370   19.1470  -33.6690 N   0  0  0  0  0  0  0  0  0  0  0  0
   -6.9230   18.2630  -32.7860 C   0  0  0  0  0  0  0  0  0  0  0  0
   -6.0300   17.2230  -32.0630 C   0  0  0  0  0  0  0  0  0  0  0  0
   -4.7870   16.9960  -32.7090 O   0  0  0  0  0  0  0  0  0  0  0  0
   -4.9530   16.9690  -34.1130 C   0  0  0  0  0  0  0  0  0  0  0  0
   -5.3310   18.3680  -34.6390 C   0  0  0  0  0  0  0  0  0  0  0  0
   -5.4400   22.6770  -31.5010 C   0  0  0  0  0  0  0  0  0  0  0  0
   -1.6270   24.7600  -28.9850 C   0  0  0  0  0  0  0  0  0  0  0  0
   -1.2720   26.0530  -29.3430 O   0  0  0  0  0  0  0  0  0  0  0  0
   -0.8330   24.0550  -28.0720 C   0  0  0  0  0  0  0  0  0  0  0  0
   -2.5666   21.1122  -28.0043 H   0  0  0  0  0  0  0  0  0  0  0  0
   -3.9985   22.3770  -29.5991 H   0  0  0  0  0  0  0  0  0  0  0  0
   -8.1199   24.6895  -30.8242 H   0  0  0  0  0  0  0  0  0  0  0  0
   -9.3086   22.7991  -31.9290 H   0  0  0  0  0  0  0  0  0  0  0  0
   -7.4341   18.8784  -32.0310 H   0  0  0  0  0  0  0  0  0  0  0  0
   -7.6461   17.7159  -33.4088 H   0  0  0  0  0  0  0  0  0  0  0  0
   -5.8313   17.5841  -31.0432 H   0  0  0  0  0  0  0  0  0  0  0  0
   -6.5763   16.2683  -32.0691 H   0  0  0  0  0  0  0  0  0  0  0  0
   -4.0116   16.6478  -34.5827 H   0  0  0  0  0  0  0  0  0  0  0  0
   -5.7606   16.2650  -34.3623 H   0  0  0  0  0  0  0  0  0  0  0  0
   -4.4068   18.9240  -34.8549 H   0  0  0  0  0  0  0  0  0  0  0  0
   -5.9431   18.2284  -35.5422 H   0  0  0  0  0  0  0  0  0  0  0  0
   -4.3491   22.6380  -31.3652 H   0  0  0  0  0  0  0  0  0  0  0  0
    0.0527   24.5378  -27.6333 H   0  0  0  0  0  0  0  0  0  0  0  0
  1  2  2  0
  2  3  1  0
  2  4  1  0
  4  5  2  0
  5  6  1  0
  6  7  2  0
  7  8  1  0
  8  9  1  0
  9 10  2  0
  9 11  2  0
  9 12  1  0
 12 13  2  0
 13 14  1  0
 14 15  2  0
 15 16  1  0
 15 17  1  0
 17 18  1  0
 18 19  2  0
 18 20  2  0
 18 21  1  0
 21 22  1  0
 22 23  1  0
 23 24  1  0
 24 25  1  0
 25 26  1  0
 17 27  2  0
  7 28  1  0
 28 29  1  0
 28 30  2  0
 30  4  1  0
 27 12  1  0
 26 21  1  0
  5 31  1  0
  6 32  1  0
 13 33  1  0
 14 34  1  0
 22 35  1  0
 22 36  1  0
 23 37  1  0
 23 38  1  0
 25 39  1  0
 25 40  1  0
 26 41  1  0
 26 42  1  0
 27 43  1  0
 30 44  1  0
M  CHG  4   2   1   3  -1   8  -1  29  -1
M  END
>  <UniqueID>  (49) 
48

>  <SMILES>  (49) 
O=[N+]([O-])c1ccc([N-]S(=O)(=O)c2ccc(F)c(S(=O)(=O)N3CCOCC3)c2)c([O-])c1

>  <Energy>  (49) 
63.56586100728642

>  <Genealogy>  (49) 
O=[N+]([O-])c1ccc([N-]S(=O)(=O)c2ccc(F)c(S(=O)(=O)N3CCOCC3)c2)c([O-])c1 (protonated)
O=[N+]([O-])c1ccc([N-]S(=O)(=O)c2ccc(F)c(S(=O)(=O)N3CCOCC3)c2)c([O-])c1 (3D coordinates assigned)
O=[N+]([O-])c1ccc([N-]S(=O)(=O)c2ccc(F)c(S(=O)(=O)N3CCOCC3)c2)c([O-])c1 (nonaromatic ring conformer: 63.56586100728642 kcal/mol)

>  <smiles>  (49) 
O=[N+]([O-])c1ccc(NS(=O)(=O)c2ccc(F)c(S(=O)(=O)N3CCOCC3)c2)c(O)c1

>  <score_type>  (49) 
oracle

>  <origin>  (49) 
adgpu

>  <m_score__min__energy>  (49) 
-13.81

>  <m_primary>  (49) 
energy

$$$$
49:0
     RDKit          3D

 62 65  0  0  0  0  0  0  0  0999 V2000
   -0.0570   17.7510  -31.4360 O   0  0  0  0  0  0  0  0  0  0  0  0
   -0.7680   18.3450  -32.2900 C   0  0  0  0  0  0  0  0  0  0  0  0
   -0.6520   19.7710  -32.4080 N   0  0  0  0  0  0  0  0  0  0  0  0
   -1.5730   20.7300  -31.8660 C   0  0  0  0  0  0  0  0  0  0  0  0
   -1.4660   21.1800  -30.5400 C   0  0  0  0  0  0  0  0  0  0  0  0
   -2.3320   22.1660  -30.0600 C   0  0  0  0  0  0  0  0  0  0  0  0
   -3.3200   22.7040  -30.8940 C   0  0  0  0  0  0  0  0  0  0  0  0
   -4.3790   23.9850  -30.3010 S   0  0  0  0  0  0  0  0  0  0  0  0
   -4.3160   24.0310  -28.8000 O   0  0  0  0  0  0  0  0  0  0  0  0
   -3.8920   25.3070  -30.8270 O   0  0  0  0  0  0  0  0  0  0  0  0
   -6.0350   23.7350  -30.7990 N   0  0  0  0  0  0  0  0  0  0  0  0
   -6.6660   22.6850  -29.9720 C   0  0  0  0  0  0  0  0  0  0  0  0
   -8.0280   22.2290  -30.5420 C   0  0  0  0  0  0  0  0  0  0  0  0
   -8.5710   23.2170  -31.5770 C   0  0  0  0  0  0  0  0  0  0  0  0
   -7.5610   23.4440  -32.7160 C   0  0  0  0  0  0  0  0  0  0  0  0
   -6.1010   23.3880  -32.2270 C   0  0  0  0  0  0  0  0  0  0  0  0
   -3.4560   22.2210  -32.2040 C   0  0  0  0  0  0  0  0  0  0  0  0
   -2.5920   21.2310  -32.6830 C   0  0  0  0  0  0  0  0  0  0  0  0
   -1.7400   17.5680  -33.1010 C   0  0  0  0  0  0  0  0  0  0  0  0
   -3.0600   18.0290  -33.2410 C   0  0  0  0  0  0  0  0  0  0  0  0
   -3.9720   17.3540  -34.0630 C   0  0  0  0  0  0  0  0  0  0  0  0
   -5.5970   17.9890  -34.3070 S   0  0  0  0  0  0  0  0  0  0  0  0
   -6.5780   16.8640  -34.1270 O   0  0  0  0  0  0  0  0  0  0  0  0
   -5.7280   18.5220  -35.7070 O   0  0  0  0  0  0  0  0  0  0  0  0
   -5.9070   19.2560  -33.1430 N   0  0  0  0  0  0  0  0  0  0  0  0
   -7.1100   20.0540  -33.4950 C   0  0  0  0  0  0  0  0  0  0  0  0
   -8.2440   19.9730  -32.4570 C   0  0  0  0  0  0  0  0  0  0  0  0
   -8.4450   18.5320  -31.9950 C   0  0  0  0  0  0  0  0  0  0  0  0
   -7.1550   17.9330  -31.4060 C   0  0  0  0  0  0  0  0  0  0  0  0
   -5.8930   18.7410  -31.7590 C   0  0  0  0  0  0  0  0  0  0  0  0
   -3.5830   16.1740  -34.7030 C   0  0  0  0  0  0  0  0  0  0  0  0
   -2.2860   15.6830  -34.5430 C   0  0  0  0  0  0  0  0  0  0  0  0
   -1.3570   16.3770  -33.7520 C   0  0  0  0  0  0  0  0  0  0  0  0
   -0.0530   15.8940  -33.6330 O   0  0  0  0  0  0  0  0  0  0  0  0
   -0.6980   20.7549  -29.8771 H   0  0  0  0  0  0  0  0  0  0  0  0
   -2.2373   22.5209  -29.0231 H   0  0  0  0  0  0  0  0  0  0  0  0
   -5.9922   21.8166  -29.9283 H   0  0  0  0  0  0  0  0  0  0  0  0
   -6.8439   23.1062  -28.9715 H   0  0  0  0  0  0  0  0  0  0  0  0
   -7.9029   21.2460  -31.0196 H   0  0  0  0  0  0  0  0  0  0  0  0
   -8.7461   22.1762  -29.7104 H   0  0  0  0  0  0  0  0  0  0  0  0
   -9.5041   22.8164  -31.9999 H   0  0  0  0  0  0  0  0  0  0  0  0
   -8.7527   24.1796  -31.0766 H   0  0  0  0  0  0  0  0  0  0  0  0
   -7.7081   22.6652  -33.4788 H   0  0  0  0  0  0  0  0  0  0  0  0
   -7.7387   24.4491  -33.1262 H   0  0  0  0  0  0  0  0  0  0  0  0
   -5.7065   22.3717  -32.3735 H   0  0  0  0  0  0  0  0  0  0  0  0
   -5.4999   24.1080  -32.8017 H   0  0  0  0  0  0  0  0  0  0  0  0
   -4.2451   22.6224  -32.8569 H   0  0  0  0  0  0  0  0  0  0  0  0
   -2.7142   20.8450  -33.7058 H   0  0  0  0  0  0  0  0  0  0  0  0
   -3.3811   18.9306  -32.6988 H   0  0  0  0  0  0  0  0  0  0  0  0
   -6.8086   21.1071  -33.5958 H   0  0  0  0  0  0  0  0  0  0  0  0
   -7.5064   19.6340  -34.4312 H   0  0  0  0  0  0  0  0  0  0  0  0
   -7.9860   20.5984  -31.5897 H   0  0  0  0  0  0  0  0  0  0  0  0
   -9.1755   20.3312  -32.9196 H   0  0  0  0  0  0  0  0  0  0  0  0
   -9.2304   18.5116  -31.2251 H   0  0  0  0  0  0  0  0  0  0  0  0
   -8.7318   17.9302  -32.8700 H   0  0  0  0  0  0  0  0  0  0  0  0
   -7.2536   17.8998  -30.3109 H   0  0  0  0  0  0  0  0  0  0  0  0
   -7.0326   16.9302  -31.8413 H   0  0  0  0  0  0  0  0  0  0  0  0
   -5.8179   19.5938  -31.0682 H   0  0  0  0  0  0  0  0  0  0  0  0
   -5.0316   18.0628  -31.6686 H   0  0  0  0  0  0  0  0  0  0  0  0
   -4.3010   15.6305  -35.3347 H   0  0  0  0  0  0  0  0  0  0  0  0
   -1.9904   14.7470  -35.0396 H   0  0  0  0  0  0  0  0  0  0  0  0
    0.5780   16.2360  -32.9190 H   0  0  0  0  0  0  0  0  0  0  0  0
  1  2  2  0
  2  3  1  0
  3  4  1  0
  4  5  2  0
  5  6  1  0
  6  7  2  0
  7  8  1  0
  8  9  2  0
  8 10  2  0
  8 11  1  0
 11 12  1  0
 12 13  1  0
 13 14  1  0
 14 15  1  0
 15 16  1  0
  7 17  1  0
 17 18  2  0
  2 19  1  0
 19 20  2  0
 20 21  1  0
 21 22  1  0
 22 23  2  0
 22 24  2  0
 22 25  1  0
 25 26  1  0
 26 27  1  0
 27 28  1  0
 28 29  1  0
 29 30  1  0
 21 31  2  0
 31 32  1  0
 32 33  2  0
 33 34  1  0
 18  4  1  0
 33 19  1  0
 16 11  1  0
 30 25  1  0
  5 35  1  0
  6 36  1  0
 12 37  1  0
 12 38  1  0
 13 39  1  0
 13 40  1  0
 14 41  1  0
 14 42  1  0
 15 43  1  0
 15 44  1  0
 16 45  1  0
 16 46  1  0
 17 47  1  0
 18 48  1  0
 20 49  1  0
 26 50  1  0
 26 51  1  0
 27 52  1  0
 27 53  1  0
 28 54  1  0
 28 55  1  0
 29 56  1  0
 29 57  1  0
 30 58  1  0
 30 59  1  0
 31 60  1  0
 32 61  1  0
 34 62  1  0
M  CHG  1   3  -1
M  END
>  <UniqueID>  (50) 
49

>  <SMILES>  (50) 
O=C([N-]c1ccc(S(=O)(=O)N2CCCCC2)cc1)c1cc(S(=O)(=O)N2CCCCC2)ccc1O

>  <Energy>  (50) 
77.34898050498448

>  <Genealogy>  (50) 
O=C([N-]c1ccc(S(=O)(=O)N2CCCCC2)cc1)c1cc(S(=O)(=O)N2CCCCC2)ccc1O (protonated)
O=C([N-]c1ccc(S(=O)(=O)N2CCCCC2)cc1)c1cc(S(=O)(=O)N2CCCCC2)ccc1O (3D coordinates assigned)
O=C([N-]c1ccc(S(=O)(=O)N2CCCCC2)cc1)c1cc(S(=O)(=O)N2CCCCC2)ccc1O (nonaromatic ring conformer: 77.34898050498448 kcal/mol)

>  <smiles>  (50) 
O=C(Nc1ccc(S(=O)(=O)N2CCCCC2)cc1)c1cc(S(=O)(=O)N2CCCCC2)ccc1O

>  <score_type>  (50) 
oracle

>  <origin>  (50) 
adgpu

>  <m_score__min__energy>  (50) 
-11.77

>  <m_primary>  (50) 
energy

$$$$
