0:0
     RDKit          3D

 55 58  0  0  0  0  0  0  0  0999 V2000
   -8.7230   18.5830  -31.5880 C   0  0  0  0  0  0  0  0  0  0  0  0
   -8.6220   19.5280  -32.7780 C   0  0  0  0  0  0  0  0  0  0  0  0
   -7.3450   20.2470  -32.7520 N   0  0  0  0  0  0  0  0  0  0  0  0
   -6.1620   19.8840  -33.3200 C   0  0  0  0  0  0  0  0  0  0  0  0
   -5.9460   18.6090  -34.0720 C   0  0  0  0  0  0  0  0  0  0  0  0
   -5.1610   20.7770  -33.1000 N   0  0  0  0  0  0  0  0  0  0  0  0
   -5.7700   21.7440  -32.3910 C   0  0  0  0  0  0  0  0  0  0  0  0
   -5.1970   22.9060  -31.8840 C   0  0  0  0  0  0  0  0  0  0  0  0
   -6.0270   23.7920  -31.1660 C   0  0  0  0  0  0  0  0  0  0  0  0
   -5.3110   25.2150  -30.4040 S   0  0  0  0  0  0  0  0  0  0  0  0
   -5.7010   26.4340  -31.1920 O   0  0  0  0  0  0  0  0  0  0  0  0
   -5.8000   25.3750  -28.9890 O   0  0  0  0  0  0  0  0  0  0  0  0
   -3.5810   25.0600  -30.4230 N   0  0  0  0  0  0  0  0  0  0  0  0
   -2.8460   24.3330  -29.4300 C   0  0  0  0  0  0  0  0  0  0  0  0
   -3.2850   23.0830  -28.9770 C   0  0  0  0  0  0  0  0  0  0  0  0
   -2.4950   22.3180  -28.1090 C   0  0  0  0  0  0  0  0  0  0  0  0
   -1.2630   22.8300  -27.6510 C   0  0  0  0  0  0  0  0  0  0  0  0
   -0.8600   24.1060  -28.0610 C   0  0  0  0  0  0  0  0  0  0  0  0
   -1.6510   24.8620  -28.9360 C   0  0  0  0  0  0  0  0  0  0  0  0
   -1.2420   26.1290  -29.3350 O   0  0  0  0  0  0  0  0  0  0  0  0
   -0.3100   21.9950  -26.8300 C   0  0  0  0  0  0  0  0  0  0  0  0
   -0.9820   20.7820  -26.1670 C   0  0  0  0  0  0  0  0  0  0  0  0
   -1.9420   20.0290  -27.1210 C   0  0  0  0  0  0  0  0  0  0  0  0
   -2.6000   18.8660  -26.3460 C   0  0  0  0  0  0  0  0  0  0  0  0
   -1.1840   19.4410  -28.3350 C   0  0  0  0  0  0  0  0  0  0  0  0
   -3.0430   21.0040  -27.5990 C   0  0  0  0  0  0  0  0  0  0  0  0
   -7.4050   23.4920  -30.9960 C   0  0  0  0  0  0  0  0  0  0  0  0
   -7.9440   22.2950  -31.4990 C   0  0  0  0  0  0  0  0  0  0  0  0
   -7.0850   21.4380  -32.1890 C   0  0  0  0  0  0  0  0  0  0  0  0
   -8.6612   19.1613  -30.6543 H   0  0  0  0  0  0  0  0  0  0  0  0
   -9.6834   18.0480  -31.6251 H   0  0  0  0  0  0  0  0  0  0  0  0
   -7.8973   17.8571  -31.6251 H   0  0  0  0  0  0  0  0  0  0  0  0
   -8.6920   18.9469  -33.7094 H   0  0  0  0  0  0  0  0  0  0  0  0
   -9.4436   20.2575  -32.7253 H   0  0  0  0  0  0  0  0  0  0  0  0
   -5.8060   17.7825  -33.3598 H   0  0  0  0  0  0  0  0  0  0  0  0
   -6.8221   18.4035  -34.7046 H   0  0  0  0  0  0  0  0  0  0  0  0
   -5.0511   18.7035  -34.7046 H   0  0  0  0  0  0  0  0  0  0  0  0
   -4.1305   23.1268  -32.0382 H   0  0  0  0  0  0  0  0  0  0  0  0
   -4.2611   22.6973  -29.3063 H   0  0  0  0  0  0  0  0  0  0  0  0
    0.0896   24.5205  -27.6917 H   0  0  0  0  0  0  0  0  0  0  0  0
   -1.2340   26.3960  -30.3110 H   0  0  0  0  0  0  0  0  0  0  0  0
    0.4932   21.6327  -27.4885 H   0  0  0  0  0  0  0  0  0  0  0  0
    0.0738   22.6366  -26.0232 H   0  0  0  0  0  0  0  0  0  0  0  0
   -0.1987   20.0847  -25.8350 H   0  0  0  0  0  0  0  0  0  0  0  0
   -1.5809   21.1563  -25.3237 H   0  0  0  0  0  0  0  0  0  0  0  0
   -2.5000   19.0428  -25.2649 H   0  0  0  0  0  0  0  0  0  0  0  0
   -3.6660   18.8058  -26.6106 H   0  0  0  0  0  0  0  0  0  0  0  0
   -2.1026   17.9212  -26.6106 H   0  0  0  0  0  0  0  0  0  0  0  0
   -0.3614   18.8029  -27.9797 H   0  0  0  0  0  0  0  0  0  0  0  0
   -1.8763   18.8414  -28.9442 H   0  0  0  0  0  0  0  0  0  0  0  0
   -0.7753   20.2607  -28.9442 H   0  0  0  0  0  0  0  0  0  0  0  0
   -3.6081   20.5224  -28.4106 H   0  0  0  0  0  0  0  0  0  0  0  0
   -3.6788   21.2302  -26.7303 H   0  0  0  0  0  0  0  0  0  0  0  0
   -8.0562   24.2027  -30.4660 H   0  0  0  0  0  0  0  0  0  0  0  0
   -9.0048   22.0428  -31.3540 H   0  0  0  0  0  0  0  0  0  0  0  0
  1  2  1  0
  2  3  1  0
  3  4  1  0
  4  5  1  0
  4  6  2  0
  6  7  1  0
  7  8  2  0
  8  9  1  0
  9 10  1  0
 10 11  2  0
 10 12  2  0
 10 13  1  0
 13 14  1  0
 14 15  2  0
 15 16  1  0
 16 17  2  0
 17 18  1  0
 18 19  2  0
 19 20  1  0
 17 21  1  0
 21 22  1  0
 22 23  1  0
 23 24  1  0
 23 25  1  0
 23 26  1  0
  9 27  2  0
 27 28  1  0
 28 29  2  0
 29  3  1  0
 29  7  1  0
 19 14  1  0
 26 16  1  0
  1 30  1  0
  1 31  1  0
  1 32  1  0
  2 33  1  0
  2 34  1  0
  5 35  1  0
  5 36  1  0
  5 37  1  0
  8 38  1  0
 15 39  1  0
 18 40  1  0
 20 41  1  0
 21 42  1  0
 21 43  1  0
 22 44  1  0
 22 45  1  0
 24 46  1  0
 24 47  1  0
 24 48  1  0
 25 49  1  0
 25 50  1  0
 25 51  1  0
 26 52  1  0
 26 53  1  0
 27 54  1  0
 28 55  1  0
M  CHG  1  13  -1
M  END
>  <UniqueID>  (1) 
1

>  <SMILES>  (1) 
CCn1c(C)nc2cc(S(=O)(=O)[N-]c3cc4c(cc3O)CCC(C)(C)C4)ccc21

>  <Energy>  (1) 
93.6986081263515

>  <Genealogy>  (1) 
CCn1c(C)nc2cc(S(=O)(=O)[N-]c3cc4c(cc3O)CCC(C)(C)C4)ccc21 (protonated)
CCn1c(C)nc2cc(S(=O)(=O)[N-]c3cc4c(cc3O)CCC(C)(C)C4)ccc21 (3D coordinates assigned)
CCn1c(C)nc2cc(S(=O)(=O)[N-]c3cc4c(cc3O)CCC(C)(C)C4)ccc21 (nonaromatic ring conformer: 93.6986081263515 kcal/mol)

>  <smiles>  (1) 
CCn1c(C)nc2cc(S(=O)(=O)Nc3cc4c(cc3O)CCC(C)(C)C4)ccc21

>  <score_type>  (1) 
oracle

>  <origin>  (1) 
adgpu

>  <m_score__min__energy>  (1) 
-13.83

>  <m_primary>  (1) 
energy

$$$$
1:0
     RDKit          3D

 46 48  0  0  0  0  0  0  0  0999 V2000
   -8.3090   18.5420  -31.7720 C   0  0  0  0  0  0  0  0  0  0  0  0
   -8.8480   19.8550  -31.8880 O   0  0  0  0  0  0  0  0  0  0  0  0
   -8.0800   21.0290  -31.9050 C   0  0  0  0  0  0  0  0  0  0  0  0
   -6.7210   20.9300  -32.2240 C   0  0  0  0  0  0  0  0  0  0  0  0
   -5.9140   22.0700  -32.2570 C   0  0  0  0  0  0  0  0  0  0  0  0
   -6.4640   23.3360  -31.9870 C   0  0  0  0  0  0  0  0  0  0  0  0
   -5.6640   24.5270  -31.9860 N   0  0  0  0  0  0  0  0  0  0  0  0
   -5.2170   25.2390  -30.8290 C   0  0  0  0  0  0  0  0  0  0  0  0
   -6.0480   25.9140  -30.1660 O   0  0  0  0  0  0  0  0  0  0  0  0
   -3.8310   25.2530  -30.4700 N   0  0  0  0  0  0  0  0  0  0  0  0
   -3.2490   24.3960  -29.4800 C   0  0  0  0  0  0  0  0  0  0  0  0
   -3.8780   23.1830  -29.2050 C   0  0  0  0  0  0  0  0  0  0  0  0
   -3.3140   22.2830  -28.3070 C   0  0  0  0  0  0  0  0  0  0  0  0
   -2.1100   22.5800  -27.6520 C   0  0  0  0  0  0  0  0  0  0  0  0
   -1.5330   21.5410  -26.7250 C   0  0  0  0  0  0  0  0  0  0  0  0
   -1.4990   23.8480  -27.8560 C   0  0  0  0  0  0  0  0  0  0  0  0
    0.0000   24.3270  -27.0220 S   0  0  0  0  0  0  0  0  0  0  0  0
    0.6480   23.1170  -26.4080 O   0  0  0  0  0  0  0  0  0  0  0  0
    1.0020   24.9360  -27.9620 O   0  0  0  0  0  0  0  0  0  0  0  0
   -0.3890   25.4720  -25.7820 N   0  0  0  0  0  0  0  0  0  0  0  0
   -0.4390   25.1660  -24.3620 C   0  0  0  0  0  0  0  0  0  0  0  0
   -0.6260   26.5300  -23.6550 C   0  0  0  0  0  0  0  0  0  0  0  0
   -0.5440   27.5530  -24.6950 N   0  0  0  0  0  0  0  0  0  0  0  0
   -0.4080   26.8740  -25.9240 C   0  0  0  0  0  0  0  0  0  0  0  0
   -0.3020   27.4690  -27.0280 O   0  0  0  0  0  0  0  0  0  0  0  0
   -2.0760   24.7510  -28.7780 C   0  0  0  0  0  0  0  0  0  0  0  0
   -1.4880   26.0050  -28.9620 O   0  0  0  0  0  0  0  0  0  0  0  0
   -7.8170   23.4330  -31.6420 C   0  0  0  0  0  0  0  0  0  0  0  0
   -8.6260   22.2930  -31.6100 C   0  0  0  0  0  0  0  0  0  0  0  0
   -8.2023   18.2821  -30.7085 H   0  0  0  0  0  0  0  0  0  0  0  0
   -8.9850   17.8238  -32.2590 H   0  0  0  0  0  0  0  0  0  0  0  0
   -7.3233   18.5059  -32.2590 H   0  0  0  0  0  0  0  0  0  0  0  0
   -6.2844   19.9461  -32.4507 H   0  0  0  0  0  0  0  0  0  0  0  0
   -4.8441   21.9770  -32.4951 H   0  0  0  0  0  0  0  0  0  0  0  0
   -4.8277   22.9356  -29.7019 H   0  0  0  0  0  0  0  0  0  0  0  0
   -3.8187   21.3261  -28.1080 H   0  0  0  0  0  0  0  0  0  0  0  0
   -1.7023   21.8459  -25.6817 H   0  0  0  0  0  0  0  0  0  0  0  0
   -2.0230   20.5734  -26.9084 H   0  0  0  0  0  0  0  0  0  0  0  0
   -0.4526   21.4455  -26.9084 H   0  0  0  0  0  0  0  0  0  0  0  0
   -1.2853   24.4988  -24.1415 H   0  0  0  0  0  0  0  0  0  0  0  0
    0.4710   24.6499  -24.0220 H   0  0  0  0  0  0  0  0  0  0  0  0
   -1.6075   26.5697  -23.1599 H   0  0  0  0  0  0  0  0  0  0  0  0
    0.1422   26.6859  -22.8833 H   0  0  0  0  0  0  0  0  0  0  0  0
   -0.6270   26.2840  -28.5080 H   0  0  0  0  0  0  0  0  0  0  0  0
   -8.2475   24.4144  -31.3939 H   0  0  0  0  0  0  0  0  0  0  0  0
   -9.6919   22.3838  -31.3537 H   0  0  0  0  0  0  0  0  0  0  0  0
  1  2  1  0
  2  3  1  0
  3  4  2  0
  4  5  1  0
  5  6  2  0
  6  7  1  0
  7  8  1  0
  8  9  2  0
  8 10  1  0
 10 11  1  0
 11 12  2  0
 12 13  1  0
 13 14  2  0
 14 15  1  0
 14 16  1  0
 16 17  1  0
 17 18  2  0
 17 19  2  0
 17 20  1  0
 20 21  1  0
 21 22  1  0
 22 23  1  0
 23 24  1  0
 24 25  2  0
 16 26  2  0
 26 27  1  0
  6 28  1  0
 28 29  2  0
 29  3  1  0
 26 11  1  0
 24 20  1  0
  1 30  1  0
  1 31  1  0
  1 32  1  0
  4 33  1  0
  5 34  1  0
 12 35  1  0
 13 36  1  0
 15 37  1  0
 15 38  1  0
 15 39  1  0
 21 40  1  0
 21 41  1  0
 22 42  1  0
 22 43  1  0
 27 44  1  0
 28 45  1  0
 29 46  1  0
M  CHG  3   7  -1  10  -1  23  -1
M  END
>  <UniqueID>  (2) 
2

>  <SMILES>  (2) 
COc1ccc([N-]C(=O)[N-]c2ccc(C)c(S(=O)(=O)N3CC[N-]C3=O)c2O)cc1

>  <Energy>  (2) 
76.06929448802597

>  <Genealogy>  (2) 
COc1ccc([N-]C(=O)[N-]c2ccc(C)c(S(=O)(=O)N3CC[N-]C3=O)c2O)cc1 (protonated)
COc1ccc([N-]C(=O)[N-]c2ccc(C)c(S(=O)(=O)N3CC[N-]C3=O)c2O)cc1 (3D coordinates assigned)
COc1ccc([N-]C(=O)[N-]c2ccc(C)c(S(=O)(=O)N3CC[N-]C3=O)c2O)cc1 (nonaromatic ring conformer: 76.06929448802597 kcal/mol)

>  <smiles>  (2) 
COc1ccc(NC(=O)Nc2ccc(C)c(S(=O)(=O)N3CCNC3=O)c2O)cc1

>  <score_type>  (2) 
oracle

>  <origin>  (2) 
adgpu

>  <m_score__min__energy>  (2) 
-11.710000000000001

>  <m_primary>  (2) 
energy

$$$$
2:0
     RDKit          3D

 32 34  0  0  0  0  0  0  0  0999 V2000
   -6.5570   24.0600  -32.5780 O   0  0  0  0  0  0  0  0  0  0  0  0
   -6.8580   23.4700  -31.5070 C   0  0  0  0  0  0  0  0  0  0  0  0
   -6.4920   24.1190  -30.2010 C   0  0  0  0  0  0  0  0  0  0  0  0
   -5.3270   25.4980  -30.4720 S   0  0  0  0  0  0  0  0  0  0  0  0
   -3.8530   24.4940  -30.3020 C   0  0  0  0  0  0  0  0  0  0  0  0
   -2.8270   24.9210  -29.5200 N   0  0  0  0  0  0  0  0  0  0  0  0
   -1.7060   24.1680  -29.3660 C   0  0  0  0  0  0  0  0  0  0  0  0
   -0.7720   24.5760  -28.6280 O   0  0  0  0  0  0  0  0  0  0  0  0
   -1.5940   22.9450  -30.0280 C   0  0  0  0  0  0  0  0  0  0  0  0
   -2.6490   22.5320  -30.8420 C   0  0  0  0  0  0  0  0  0  0  0  0
   -3.7580   23.3090  -30.9610 N   0  0  0  0  0  0  0  0  0  0  0  0
   -7.4040   22.1410  -31.5720 N   0  0  0  0  0  0  0  0  0  0  0  0
   -8.7570   21.8230  -31.1140 C   0  0  0  0  0  0  0  0  0  0  0  0
   -9.0800   20.4150  -31.6650 C   0  0  0  0  0  0  0  0  0  0  0  0
   -7.8240   20.0190  -32.3560 C   0  0  0  0  0  0  0  0  0  0  0  0
   -7.5390   18.8040  -32.9790 C   0  0  0  0  0  0  0  0  0  0  0  0
   -6.2490   18.6010  -33.4940 C   0  0  0  0  0  0  0  0  0  0  0  0
   -5.2640   19.5950  -33.3460 C   0  0  0  0  0  0  0  0  0  0  0  0
   -5.5720   20.8070  -32.7070 C   0  0  0  0  0  0  0  0  0  0  0  0
   -6.8850   21.0140  -32.2640 C   0  0  0  0  0  0  0  0  0  0  0  0
   -7.4035   24.5050  -29.7213 H   0  0  0  0  0  0  0  0  0  0  0  0
   -6.0101   23.3697  -29.5558 H   0  0  0  0  0  0  0  0  0  0  0  0
   -0.6954   22.3214  -29.9109 H   0  0  0  0  0  0  0  0  0  0  0  0
   -2.5835   21.5787  -31.3869 H   0  0  0  0  0  0  0  0  0  0  0  0
   -8.7966   21.8205  -30.0147 H   0  0  0  0  0  0  0  0  0  0  0  0
   -9.4850   22.5681  -31.4674 H   0  0  0  0  0  0  0  0  0  0  0  0
   -9.3167   19.7174  -30.8481 H   0  0  0  0  0  0  0  0  0  0  0  0
   -9.9571   20.4043  -32.3287 H   0  0  0  0  0  0  0  0  0  0  0  0
   -8.3081   18.0222  -33.0649 H   0  0  0  0  0  0  0  0  0  0  0  0
   -6.0075   17.6625  -34.0146 H   0  0  0  0  0  0  0  0  0  0  0  0
   -4.2487   19.4220  -33.7324 H   0  0  0  0  0  0  0  0  0  0  0  0
   -4.8000   21.5763  -32.5577 H   0  0  0  0  0  0  0  0  0  0  0  0
  1  2  2  0
  2  3  1  0
  3  4  1  0
  4  5  1  0
  5  6  2  0
  6  7  1  0
  7  8  2  0
  7  9  1  0
  9 10  2  0
 10 11  1  0
  2 12  1  0
 12 13  1  0
 13 14  1  0
 14 15  1  0
 15 16  2  0
 16 17  1  0
 17 18  2  0
 18 19  1  0
 19 20  2  0
 11  5  1  0
 20 12  1  0
 20 15  1  0
  3 21  1  0
  3 22  1  0
  9 23  1  0
 10 24  1  0
 13 25  1  0
 13 26  1  0
 14 27  1  0
 14 28  1  0
 16 29  1  0
 17 30  1  0
 18 31  1  0
 19 32  1  0
M  CHG  1  11  -1
M  END
>  <UniqueID>  (3) 
3

>  <SMILES>  (3) 
O=C(CSc1nc(=O)cc[n-]1)N1CCc2ccccc21

>  <Energy>  (3) 
47.5356480404642

>  <Genealogy>  (3) 
O=C(CSc1nc(=O)cc[n-]1)N1CCc2ccccc21 (protonated)
O=C(CSc1nc(=O)cc[n-]1)N1CCc2ccccc21 (3D coordinates assigned)
O=C(CSc1nc(=O)cc[n-]1)N1CCc2ccccc21 (nonaromatic ring conformer: 47.5356480404642 kcal/mol)

>  <smiles>  (3) 
O=C(CSc1nc(=O)cc[nH]1)N1CCc2ccccc21

>  <score_type>  (3) 
oracle

>  <origin>  (3) 
adgpu

>  <m_score__min__energy>  (3) 
-9.1300000000000008

>  <m_primary>  (3) 
energy

$$$$
3:0
     RDKit          3D

 60 63  0  0  0  0  0  0  0  0999 V2000
    3.3890   24.9390  -25.3170 C   0  0  0  0  0  0  0  0  0  0  0  0
    1.9250   25.2650  -25.2490 C   0  0  0  0  0  0  0  0  0  0  0  0
    1.4240   26.0260  -24.1830 C   0  0  0  0  0  0  0  0  0  0  0  0
    0.0660   26.3760  -24.1360 C   0  0  0  0  0  0  0  0  0  0  0  0
   -0.4770   27.1500  -22.9720 C   0  0  0  0  0  0  0  0  0  0  0  0
   -0.7960   25.9440  -25.1550 C   0  0  0  0  0  0  0  0  0  0  0  0
   -0.2980   25.2040  -26.2360 C   0  0  0  0  0  0  0  0  0  0  0  0
   -1.3720   24.6850  -27.5330 S   0  0  0  0  0  0  0  0  0  0  0  0
   -2.7380   25.2640  -27.2870 O   0  0  0  0  0  0  0  0  0  0  0  0
   -0.8780   25.1900  -28.8600 O   0  0  0  0  0  0  0  0  0  0  0  0
   -1.4580   22.9160  -27.5850 C   0  0  0  0  0  0  0  0  0  0  0  0
   -1.2200   22.1990  -26.4010 C   0  0  0  0  0  0  0  0  0  0  0  0
   -1.3360   20.8080  -26.3750 C   0  0  0  0  0  0  0  0  0  0  0  0
   -1.6910   20.1140  -27.5310 C   0  0  0  0  0  0  0  0  0  0  0  0
   -1.9200   20.8090  -28.7190 C   0  0  0  0  0  0  0  0  0  0  0  0
   -1.8000   22.2090  -28.7670 C   0  0  0  0  0  0  0  0  0  0  0  0
   -2.0250   22.8890  -30.0640 C   0  0  0  0  0  0  0  0  0  0  0  0
   -1.2590   22.6460  -31.0320 O   0  0  0  0  0  0  0  0  0  0  0  0
   -3.1640   23.7310  -30.2810 N   0  0  0  0  0  0  0  0  0  0  0  0
   -4.4800   23.3000  -30.6570 C   0  0  0  0  0  0  0  0  0  0  0  0
   -4.8160   23.0270  -31.9940 C   0  0  0  0  0  0  0  0  0  0  0  0
   -6.1030   22.5910  -32.3200 C   0  0  0  0  0  0  0  0  0  0  0  0
   -7.0620   22.4060  -31.3170 C   0  0  0  0  0  0  0  0  0  0  0  0
   -8.6710   21.8300  -31.7490 S   0  0  0  0  0  0  0  0  0  0  0  0
   -9.3990   21.3640  -30.5180 O   0  0  0  0  0  0  0  0  0  0  0  0
   -9.4340   22.9780  -32.3500 O   0  0  0  0  0  0  0  0  0  0  0  0
   -8.5560   20.5310  -32.9200 N   0  0  0  0  0  0  0  0  0  0  0  0
   -7.1990   19.9550  -32.9720 C   0  0  0  0  0  0  0  0  0  0  0  0
   -6.8910   19.0620  -31.7450 C   0  0  0  0  0  0  0  0  0  0  0  0
   -8.0490   18.6340  -31.0470 O   0  0  0  0  0  0  0  0  0  0  0  0
   -9.0570   18.2600  -31.9590 C   0  0  0  0  0  0  0  0  0  0  0  0
   -9.5950   19.4990  -32.7000 C   0  0  0  0  0  0  0  0  0  0  0  0
   -6.7190   22.6490  -29.9800 C   0  0  0  0  0  0  0  0  0  0  0  0
   -5.4330   23.0880  -29.6540 C   0  0  0  0  0  0  0  0  0  0  0  0
    1.0620   24.8690  -26.2800 C   0  0  0  0  0  0  0  0  0  0  0  0
    3.7924   24.8492  -24.2976 H   0  0  0  0  0  0  0  0  0  0  0  0
    3.5284   23.9878  -25.8516 H   0  0  0  0  0  0  0  0  0  0  0  0
    3.9188   25.7412  -25.8516 H   0  0  0  0  0  0  0  0  0  0  0  0
    2.1001   26.3507  -23.3783 H   0  0  0  0  0  0  0  0  0  0  0  0
   -0.1474   26.6803  -22.0335 H   0  0  0  0  0  0  0  0  0  0  0  0
   -0.1057   28.1846  -23.0143 H   0  0  0  0  0  0  0  0  0  0  0  0
   -1.5762   27.1529  -23.0143 H   0  0  0  0  0  0  0  0  0  0  0  0
   -1.8676   26.1872  -25.1053 H   0  0  0  0  0  0  0  0  0  0  0  0
   -0.9393   22.7390  -25.4847 H   0  0  0  0  0  0  0  0  0  0  0  0
   -1.1470   20.2586  -25.4409 H   0  0  0  0  0  0  0  0  0  0  0  0
   -1.7905   19.0188  -27.5064 H   0  0  0  0  0  0  0  0  0  0  0  0
   -2.1975   20.2554  -29.6281 H   0  0  0  0  0  0  0  0  0  0  0  0
   -4.0638   23.1569  -32.7861 H   0  0  0  0  0  0  0  0  0  0  0  0
   -6.3639   22.3922  -33.3700 H   0  0  0  0  0  0  0  0  0  0  0  0
   -7.1079   19.3465  -33.8839 H   0  0  0  0  0  0  0  0  0  0  0  0
   -6.4802   20.7877  -32.9705 H   0  0  0  0  0  0  0  0  0  0  0  0
   -6.3454   18.1719  -32.0914 H   0  0  0  0  0  0  0  0  0  0  0  0
   -6.2997   19.6703  -31.0447 H   0  0  0  0  0  0  0  0  0  0  0  0
   -8.6399   17.5524  -32.6907 H   0  0  0  0  0  0  0  0  0  0  0  0
   -9.8823   17.7878  -31.4059 H   0  0  0  0  0  0  0  0  0  0  0  0
   -9.9876   19.1813  -33.6772 H   0  0  0  0  0  0  0  0  0  0  0  0
  -10.3792   19.9466  -32.0717 H   0  0  0  0  0  0  0  0  0  0  0  0
   -7.4638   22.4938  -29.1855 H   0  0  0  0  0  0  0  0  0  0  0  0
   -5.1678   23.2682  -28.6018 H   0  0  0  0  0  0  0  0  0  0  0  0
    1.4550   24.2912  -27.1296 H   0  0  0  0  0  0  0  0  0  0  0  0
  1  2  1  0
  2  3  2  0
  3  4  1  0
  4  5  1  0
  4  6  2  0
  6  7  1  0
  7  8  1  0
  8  9  2  0
  8 10  2  0
  8 11  1  0
 11 12  2  0
 12 13  1  0
 13 14  2  0
 14 15  1  0
 15 16  2  0
 16 17  1  0
 17 18  2  0
 17 19  1  0
 19 20  1  0
 20 21  2  0
 21 22  1  0
 22 23  2  0
 23 24  1  0
 24 25  2  0
 24 26  2  0
 24 27  1  0
 27 28  1  0
 28 29  1  0
 29 30  1  0
 30 31  1  0
 31 32  1  0
 23 33  1  0
 33 34  2  0
  7 35  2  0
 35  2  1  0
 16 11  1  0
 34 20  1  0
 32 27  1  0
  1 36  1  0
  1 37  1  0
  1 38  1  0
  3 39  1  0
  5 40  1  0
  5 41  1  0
  5 42  1  0
  6 43  1  0
 12 44  1  0
 13 45  1  0
 14 46  1  0
 15 47  1  0
 21 48  1  0
 22 49  1  0
 28 50  1  0
 28 51  1  0
 29 52  1  0
 29 53  1  0
 31 54  1  0
 31 55  1  0
 32 56  1  0
 32 57  1  0
 33 58  1  0
 34 59  1  0
 35 60  1  0
M  CHG  1  19  -1
M  END
>  <UniqueID>  (4) 
4

>  <SMILES>  (4) 
Cc1cc(C)cc(S(=O)(=O)c2ccccc2C(=O)[N-]c2ccc(S(=O)(=O)N3CCOCC3)cc2)c1

>  <Energy>  (4) 
84.08717697882747

>  <Genealogy>  (4) 
Cc1cc(C)cc(S(=O)(=O)c2ccccc2C(=O)[N-]c2ccc(S(=O)(=O)N3CCOCC3)cc2)c1 (protonated)
Cc1cc(C)cc(S(=O)(=O)c2ccccc2C(=O)[N-]c2ccc(S(=O)(=O)N3CCOCC3)cc2)c1 (3D coordinates assigned)
Cc1cc(C)cc(S(=O)(=O)c2ccccc2C(=O)[N-]c2ccc(S(=O)(=O)N3CCOCC3)cc2)c1 (nonaromatic ring conformer: 84.08717697882747 kcal/mol)

>  <smiles>  (4) 
Cc1cc(C)cc(S(=O)(=O)c2ccccc2C(=O)Nc2ccc(S(=O)(=O)N3CCOCC3)cc2)c1

>  <score_type>  (4) 
oracle

>  <origin>  (4) 
adgpu

>  <m_score__min__energy>  (4) 
-11.960000000000001

>  <m_primary>  (4) 
energy

$$$$
4:0
     RDKit          3D

 36 38  0  0  0  0  0  0  0  0999 V2000
   -5.5500   23.8080  -29.5390 O   0  0  0  0  0  0  0  0  0  0  0  0
   -4.3650   24.1390  -30.4020 S   0  0  0  0  0  0  0  0  0  0  0  0
   -4.2440   25.6330  -30.5200 O   0  0  0  0  0  0  0  0  0  0  0  0
   -4.6180   23.4730  -31.9840 N   0  0  0  0  0  0  0  0  0  0  0  0
   -5.1980   22.1880  -32.2580 C   0  0  0  0  0  0  0  0  0  0  0  0
   -6.5730   21.9380  -32.0830 C   0  0  0  0  0  0  0  0  0  0  0  0
   -7.1050   20.6750  -32.3760 C   0  0  0  0  0  0  0  0  0  0  0  0
   -6.2690   19.6530  -32.8480 C   0  0  0  0  0  0  0  0  0  0  0  0
   -4.9020   19.9020  -33.0320 C   0  0  0  0  0  0  0  0  0  0  0  0
   -4.3690   21.1600  -32.7340 C   0  0  0  0  0  0  0  0  0  0  0  0
   -3.0110   21.3890  -32.9220 O   0  0  0  0  0  0  0  0  0  0  0  0
   -6.8810   18.3360  -33.2420 C   0  0  0  0  0  0  0  0  0  0  0  0
   -7.9620   17.8780  -32.2410 C   0  0  0  0  0  0  0  0  0  0  0  0
   -8.7910   19.0180  -31.5950 C   0  0  0  0  0  0  0  0  0  0  0  0
   -8.5750   20.3940  -32.2400 C   0  0  0  0  0  0  0  0  0  0  0  0
   -2.9150   23.4480  -29.6680 C   0  0  0  0  0  0  0  0  0  0  0  0
   -2.8100   22.0570  -29.5170 C   0  0  0  0  0  0  0  0  0  0  0  0
   -1.6630   21.4930  -28.9510 C   0  0  0  0  0  0  0  0  0  0  0  0
   -0.6170   22.3150  -28.5230 C   0  0  0  0  0  0  0  0  0  0  0  0
    0.5230   21.7520  -27.9630 O   0  0  0  0  0  0  0  0  0  0  0  0
   -0.7190   23.7030  -28.6580 C   0  0  0  0  0  0  0  0  0  0  0  0
   -1.8670   24.2730  -29.2200 C   0  0  0  0  0  0  0  0  0  0  0  0
   -1.9570   25.6570  -29.3230 O   0  0  0  0  0  0  0  0  0  0  0  0
   -7.2323   22.7378  -31.7147 H   0  0  0  0  0  0  0  0  0  0  0  0
   -4.2461   19.1050  -33.4122 H   0  0  0  0  0  0  0  0  0  0  0  0
   -7.3395   18.4409  -34.2364 H   0  0  0  0  0  0  0  0  0  0  0  0
   -6.0827   17.5793  -33.2495 H   0  0  0  0  0  0  0  0  0  0  0  0
   -8.6570   17.2113  -32.7725 H   0  0  0  0  0  0  0  0  0  0  0  0
   -7.4249   17.3868  -31.4162 H   0  0  0  0  0  0  0  0  0  0  0  0
   -9.8571   18.7604  -31.6797 H   0  0  0  0  0  0  0  0  0  0  0  0
   -8.4553   19.1013  -30.5508 H   0  0  0  0  0  0  0  0  0  0  0  0
   -9.0415   20.4063  -33.2361 H   0  0  0  0  0  0  0  0  0  0  0  0
   -9.0320   21.1660  -31.6034 H   0  0  0  0  0  0  0  0  0  0  0  0
   -3.6344   21.4071  -29.8456 H   0  0  0  0  0  0  0  0  0  0  0  0
   -1.5837   20.4013  -28.8424 H   0  0  0  0  0  0  0  0  0  0  0  0
    0.1055   24.3488  -28.3215 H   0  0  0  0  0  0  0  0  0  0  0  0
  1  2  2  0
  2  3  2  0
  2  4  1  0
  4  5  1  0
  5  6  2  0
  6  7  1  0
  7  8  2  0
  8  9  1  0
  9 10  2  0
 10 11  1  0
  8 12  1  0
 12 13  1  0
 13 14  1  0
 14 15  1  0
  2 16  1  0
 16 17  2  0
 17 18  1  0
 18 19  2  0
 19 20  1  0
 19 21  1  0
 21 22  2  0
 22 23  1  0
 10  5  1  0
 22 16  1  0
 15  7  1  0
  6 24  1  0
  9 25  1  0
 12 26  1  0
 12 27  1  0
 13 28  1  0
 13 29  1  0
 14 30  1  0
 14 31  1  0
 15 32  1  0
 15 33  1  0
 17 34  1  0
 18 35  1  0
 21 36  1  0
M  CHG  4   4  -1  11  -1  20  -1  23  -1
M  END
>  <UniqueID>  (5) 
5

>  <SMILES>  (5) 
O=S(=O)([N-]c1cc2c(cc1[O-])CCCC2)c1ccc([O-])cc1[O-]

>  <Energy>  (5) 
46.44260345939035

>  <Genealogy>  (5) 
O=S(=O)([N-]c1cc2c(cc1[O-])CCCC2)c1ccc([O-])cc1[O-] (protonated)
O=S(=O)([N-]c1cc2c(cc1[O-])CCCC2)c1ccc([O-])cc1[O-] (3D coordinates assigned)
O=S(=O)([N-]c1cc2c(cc1[O-])CCCC2)c1ccc([O-])cc1[O-] (nonaromatic ring conformer: 46.44260345939035 kcal/mol)

>  <smiles>  (5) 
O=S(=O)(Nc1cc2c(cc1O)CCCC2)c1ccc(O)cc1O

>  <score_type>  (5) 
oracle

>  <origin>  (5) 
adgpu

>  <m_score__min__energy>  (5) 
-13.58

>  <m_primary>  (5) 
energy

$$$$
5:0
     RDKit          3D

 35 37  0  0  0  0  0  0  0  0999 V2000
   -4.2250   25.6740  -30.9500 O   0  0  0  0  0  0  0  0  0  0  0  0
   -5.1950   24.9920  -30.0260 S   0  0  0  0  0  0  0  0  0  0  0  0
   -6.2840   25.9660  -29.6770 O   0  0  0  0  0  0  0  0  0  0  0  0
   -4.3770   24.5110  -28.5760 N   0  0  0  0  0  0  0  0  0  0  0  0
   -3.1680   23.7410  -28.5170 C   0  0  0  0  0  0  0  0  0  0  0  0
   -3.1580   22.4000  -28.0920 C   0  0  0  0  0  0  0  0  0  0  0  0
   -1.9590   21.6790  -28.0590 C   0  0  0  0  0  0  0  0  0  0  0  0
   -1.9580   20.0070  -27.5310 Cl  0  0  0  0  0  0  0  0  0  0  0  0
   -0.7630   22.2890  -28.4490 C   0  0  0  0  0  0  0  0  0  0  0  0
   -0.7640   23.6210  -28.8690 C   0  0  0  0  0  0  0  0  0  0  0  0
   -1.9600   24.3460  -28.9050 C   0  0  0  0  0  0  0  0  0  0  0  0
   -1.9450   25.6710  -29.3230 O   0  0  0  0  0  0  0  0  0  0  0  0
   -5.9180   23.5850  -30.8000 C   0  0  0  0  0  0  0  0  0  0  0  0
   -5.1830   22.4110  -30.9970 C   0  0  0  0  0  0  0  0  0  0  0  0
   -5.7830   21.3080  -31.6060 C   0  0  0  0  0  0  0  0  0  0  0  0
   -7.1180   21.3880  -32.0150 C   0  0  0  0  0  0  0  0  0  0  0  0
   -7.7020   20.2870  -32.6560 O   0  0  0  0  0  0  0  0  0  0  0  0
   -7.0100   19.1770  -33.1600 C   0  0  0  0  0  0  0  0  0  0  0  0
   -7.2810   17.9170  -32.6150 C   0  0  0  0  0  0  0  0  0  0  0  0
   -6.6100   16.7940  -33.1030 C   0  0  0  0  0  0  0  0  0  0  0  0
   -5.7110   16.9230  -34.1150 N   0  0  0  0  0  0  0  0  0  0  0  0
   -5.4410   18.1290  -34.6800 C   0  0  0  0  0  0  0  0  0  0  0  0
   -6.0890   19.2790  -34.2180 C   0  0  0  0  0  0  0  0  0  0  0  0
   -7.8120   22.5450  -31.8240 N   0  0  0  0  0  0  0  0  0  0  0  0
   -7.2500   23.6290  -31.2270 C   0  0  0  0  0  0  0  0  0  0  0  0
   -4.0967   21.9160  -27.7843 H   0  0  0  0  0  0  0  0  0  0  0  0
    0.1782   21.7202  -28.4251 H   0  0  0  0  0  0  0  0  0  0  0  0
    0.1780   24.1013  -29.1723 H   0  0  0  0  0  0  0  0  0  0  0  0
   -4.1334   22.3574  -30.6722 H   0  0  0  0  0  0  0  0  0  0  0  0
   -5.2100   20.3823  -31.7632 H   0  0  0  0  0  0  0  0  0  0  0  0
   -8.0190   17.8118  -31.8061 H   0  0  0  0  0  0  0  0  0  0  0  0
   -6.8089   15.8034  -32.6681 H   0  0  0  0  0  0  0  0  0  0  0  0
   -4.7125   18.2007  -35.5010 H   0  0  0  0  0  0  0  0  0  0  0  0
   -5.8799   20.2558  -34.6786 H   0  0  0  0  0  0  0  0  0  0  0  0
   -7.8436   24.5432  -31.0791 H   0  0  0  0  0  0  0  0  0  0  0  0
  1  2  2  0
  2  3  2  0
  2  4  1  0
  4  5  1  0
  5  6  2  0
  6  7  1  0
  7  8  1  0
  7  9  2  0
  9 10  1  0
 10 11  2  0
 11 12  1  0
  2 13  1  0
 13 14  2  0
 14 15  1  0
 15 16  2  0
 16 17  1  0
 17 18  1  0
 18 19  2  0
 19 20  1  0
 20 21  2  0
 21 22  1  0
 22 23  2  0
 16 24  1  0
 24 25  2  0
 11  5  1  0
 25 13  1  0
 23 18  1  0
  6 26  1  0
  9 27  1  0
 10 28  1  0
 14 29  1  0
 15 30  1  0
 19 31  1  0
 20 32  1  0
 22 33  1  0
 23 34  1  0
 25 35  1  0
M  CHG  2   4  -1  12  -1
M  END
>  <UniqueID>  (6) 
6

>  <SMILES>  (6) 
O=S(=O)([N-]c1cc(Cl)ccc1[O-])c1ccc(Oc2ccncc2)nc1

>  <Energy>  (6) 
48.01774280785459

>  <Genealogy>  (6) 
O=S(=O)([N-]c1cc(Cl)ccc1[O-])c1ccc(Oc2ccncc2)nc1 (protonated)
O=S(=O)([N-]c1cc(Cl)ccc1[O-])c1ccc(Oc2ccncc2)nc1 (3D coordinates assigned)
O=S(=O)([N-]c1cc(Cl)ccc1[O-])c1ccc(Oc2ccncc2)nc1 (optimized conformer: 48.01774280785459 kcal/mol)

>  <smiles>  (6) 
O=S(=O)(Nc1cc(Cl)ccc1O)c1ccc(Oc2ccncc2)nc1

>  <score_type>  (6) 
oracle

>  <origin>  (6) 
adgpu

>  <m_score__min__energy>  (6) 
-13.359999999999999

>  <m_primary>  (6) 
energy

$$$$
6:0
     RDKit          3D

 42 44  0  0  0  0  0  0  0  0999 V2000
   -6.1330   17.2990  -32.9980 C   0  0  0  0  0  0  0  0  0  0  0  0
   -6.9080   18.4910  -32.5160 C   0  0  0  0  0  0  0  0  0  0  0  0
   -8.3020   18.5100  -32.6270 C   0  0  0  0  0  0  0  0  0  0  0  0
   -9.0270   19.6250  -32.2030 C   0  0  0  0  0  0  0  0  0  0  0  0
   -8.3710   20.7470  -31.6690 C   0  0  0  0  0  0  0  0  0  0  0  0
   -9.1900   21.9310  -31.2260 C   0  0  0  0  0  0  0  0  0  0  0  0
   -6.9550   20.7530  -31.5970 C   0  0  0  0  0  0  0  0  0  0  0  0
   -6.1890   21.9220  -31.0320 C   0  0  0  0  0  0  0  0  0  0  0  0
   -5.1380   22.6470  -32.3330 S   0  0  0  0  0  0  0  0  0  0  0  0
   -3.6130   22.2710  -31.4670 C   0  0  0  0  0  0  0  0  0  0  0  0
   -2.8110   20.7990  -31.6140 S   0  0  0  0  0  0  0  0  0  0  0  0
   -1.5550   21.1990  -30.5680 C   0  0  0  0  0  0  0  0  0  0  0  0
   -0.5000   20.3280  -30.1500 N   0  0  0  0  0  0  0  0  0  0  0  0
   -0.2780   19.9090  -28.8000 C   0  0  0  0  0  0  0  0  0  0  0  0
    0.9050   19.8090  -28.3800 O   0  0  0  0  0  0  0  0  0  0  0  0
   -1.3930   19.5270  -27.9140 C   0  0  0  0  0  0  0  0  0  0  0  0
   -2.5940   20.2150  -27.7830 C   0  0  0  0  0  0  0  0  0  0  0  0
   -3.4470   19.6620  -26.8200 C   0  0  0  0  0  0  0  0  0  0  0  0
   -2.9200   18.5500  -26.1780 C   0  0  0  0  0  0  0  0  0  0  0  0
   -1.3900   18.2560  -26.8090 S   0  0  0  0  0  0  0  0  0  0  0  0
   -1.7580   22.4750  -30.0650 C   0  0  0  0  0  0  0  0  0  0  0  0
   -2.9120   23.0950  -30.5760 C   0  0  0  0  0  0  0  0  0  0  0  0
   -3.3170   24.4630  -30.1830 C   0  0  0  0  0  0  0  0  0  0  0  0
   -2.4690   25.2450  -29.3450 N   0  0  0  0  0  0  0  0  0  0  0  0
   -4.4070   24.9520  -30.5830 O   0  0  0  0  0  0  0  0  0  0  0  0
   -6.2390   19.6160  -32.0130 C   0  0  0  0  0  0  0  0  0  0  0  0
   -5.7622   16.7287  -32.1335 H   0  0  0  0  0  0  0  0  0  0  0  0
   -6.7875   16.6579  -33.6068 H   0  0  0  0  0  0  0  0  0  0  0  0
   -5.2815   17.6370  -33.6068 H   0  0  0  0  0  0  0  0  0  0  0  0
   -8.8295   17.6425  -33.0503 H   0  0  0  0  0  0  0  0  0  0  0  0
  -10.1237   19.6253  -32.2878 H   0  0  0  0  0  0  0  0  0  0  0  0
   -9.2158   21.9684  -30.1269 H   0  0  0  0  0  0  0  0  0  0  0  0
   -8.7375   22.8556  -31.6138 H   0  0  0  0  0  0  0  0  0  0  0  0
  -10.2148   21.8337  -31.6138 H   0  0  0  0  0  0  0  0  0  0  0  0
   -6.8960   22.6813  -30.6665 H   0  0  0  0  0  0  0  0  0  0  0  0
   -5.5571   21.5781  -30.1999 H   0  0  0  0  0  0  0  0  0  0  0  0
   -2.8488   21.1052  -28.3768 H   0  0  0  0  0  0  0  0  0  0  0  0
   -4.4426   20.0710  -26.5933 H   0  0  0  0  0  0  0  0  0  0  0  0
   -3.4175   17.9627  -25.3922 H   0  0  0  0  0  0  0  0  0  0  0  0
   -1.0842   22.9540  -29.3394 H   0  0  0  0  0  0  0  0  0  0  0  0
   -1.5790   25.6520  -29.7110 H   0  0  0  0  0  0  0  0  0  0  0  0
   -5.1413   19.6093  -31.9429 H   0  0  0  0  0  0  0  0  0  0  0  0
  1  2  1  0
  2  3  2  0
  3  4  1  0
  4  5  2  0
  5  6  1  0
  5  7  1  0
  7  8  1  0
  8  9  1  0
  9 10  1  0
 10 11  1  0
 11 12  1  0
 12 13  1  0
 13 14  1  0
 14 15  2  0
 14 16  1  0
 16 17  2  0
 17 18  1  0
 18 19  2  0
 19 20  1  0
 12 21  2  0
 21 22  1  0
 22 23  1  0
 23 24  1  0
 23 25  2  0
  7 26  2  0
 26  2  1  0
 22 10  2  0
 20 16  1  0
  1 27  1  0
  1 28  1  0
  1 29  1  0
  3 30  1  0
  4 31  1  0
  6 32  1  0
  6 33  1  0
  6 34  1  0
  8 35  1  0
  8 36  1  0
 17 37  1  0
 18 38  1  0
 19 39  1  0
 21 40  1  0
 24 41  1  0
 26 42  1  0
M  CHG  2  13  -1  24  -1
M  END
>  <UniqueID>  (7) 
7

>  <SMILES>  (7) 
Cc1ccc(C)c(CSc2sc([N-]C(=O)c3cccs3)cc2C([NH-])=O)c1

>  <Energy>  (7) 
97.50204412325968

>  <Genealogy>  (7) 
Cc1ccc(C)c(CSc2sc([N-]C(=O)c3cccs3)cc2C([NH-])=O)c1 (protonated)
Cc1ccc(C)c(CSc2sc([N-]C(=O)c3cccs3)cc2C([NH-])=O)c1 (3D coordinates assigned)
Cc1ccc(C)c(CSc2sc([N-]C(=O)c3cccs3)cc2C([NH-])=O)c1 (optimized conformer: 97.50204412325968 kcal/mol)

>  <smiles>  (7) 
Cc1ccc(C)c(CSc2sc(NC(=O)c3cccs3)cc2C(N)=O)c1

>  <score_type>  (7) 
oracle

>  <origin>  (7) 
adgpu

>  <m_score__min__energy>  (7) 
-11.880000000000001

>  <m_primary>  (7) 
energy

$$$$
7:0
     RDKit          3D

 18 19  0  0  0  0  0  0  0  0999 V2000
   -5.4330   24.9520  -31.2960 O   0  0  0  0  0  0  0  0  0  0  0  0
   -4.5400   24.2380  -30.7690 C   0  0  0  0  0  0  0  0  0  0  0  0
   -4.7070   22.8520  -30.6940 C   0  0  0  0  0  0  0  0  0  0  0  0
   -3.7060   22.0790  -30.1060 C   0  0  0  0  0  0  0  0  0  0  0  0
   -3.8630   20.6990  -30.0270 O   0  0  0  0  0  0  0  0  0  0  0  0
   -2.5560   22.7080  -29.6060 C   0  0  0  0  0  0  0  0  0  0  0  0
   -1.5140   21.9850  -29.0040 C   0  0  0  0  0  0  0  0  0  0  0  0
   -0.3870   22.6550  -28.5200 C   0  0  0  0  0  0  0  0  0  0  0  0
   -0.2860   24.0460  -28.6280 C   0  0  0  0  0  0  0  0  0  0  0  0
    0.8520   24.6820  -28.1340 O   0  0  0  0  0  0  0  0  0  0  0  0
   -1.3250   24.7780  -29.2290 C   0  0  0  0  0  0  0  0  0  0  0  0
   -1.2340   26.1610  -29.3420 O   0  0  0  0  0  0  0  0  0  0  0  0
   -2.4580   24.1140  -29.7180 C   0  0  0  0  0  0  0  0  0  0  0  0
   -3.4400   24.8100  -30.2880 O   0  0  0  0  0  0  0  0  0  0  0  0
   -5.6155   22.3776  -31.0933 H   0  0  0  0  0  0  0  0  0  0  0  0
   -1.5846   20.8910  -28.9132 H   0  0  0  0  0  0  0  0  0  0  0  0
    0.4273   22.0838  -28.0503 H   0  0  0  0  0  0  0  0  0  0  0  0
    0.9870   25.6840  -28.2160 H   0  0  0  0  0  0  0  0  0  0  0  0
  1  2  2  0
  2  3  1  0
  3  4  2  0
  4  5  1  0
  4  6  1  0
  6  7  2  0
  7  8  1  0
  8  9  2  0
  9 10  1  0
  9 11  1  0
 11 12  1  0
 11 13  2  0
 13 14  1  0
 14  2  1  0
 13  6  1  0
  3 15  1  0
  7 16  1  0
  8 17  1  0
 10 18  1  0
M  CHG  2   5  -1  12  -1
M  END
>  <UniqueID>  (8) 
8

>  <SMILES>  (8) 
O=c1cc([O-])c2ccc(O)c([O-])c2o1

>  <Energy>  (8) 
24.264470184293693

>  <Genealogy>  (8) 
O=c1cc([O-])c2ccc(O)c([O-])c2o1 (protonated)
O=c1cc([O-])c2ccc(O)c([O-])c2o1 (3D coordinates assigned)
O=c1cc([O-])c2ccc(O)c([O-])c2o1 (optimized conformer: 24.264470184293693 kcal/mol)

>  <smiles>  (8) 
O=c1cc(O)c2ccc(O)c(O)c2o1

>  <score_type>  (8) 
oracle

>  <origin>  (8) 
adgpu

>  <m_score__min__energy>  (8) 
-8.3699999999999992

>  <m_primary>  (8) 
energy

$$$$
8:0
     RDKit          3D

 52 54  0  0  0  0  0  0  0  0999 V2000
   -2.9760   19.6500  -33.7620 C   0  0  0  0  0  0  0  0  0  0  0  0
   -1.4540   19.6280  -33.4870 C   0  0  0  0  0  0  0  0  0  0  0  0
   -0.7710   20.5160  -34.5490 C   0  0  0  0  0  0  0  0  0  0  0  0
   -0.9730   18.1700  -33.6510 C   0  0  0  0  0  0  0  0  0  0  0  0
   -1.0880   20.1430  -32.0810 C   0  0  0  0  0  0  0  0  0  0  0  0
   -1.0370   21.5340  -31.8350 C   0  0  0  0  0  0  0  0  0  0  0  0
   -0.7200   22.0340  -30.5700 C   0  0  0  0  0  0  0  0  0  0  0  0
   -0.4610   21.1600  -29.5090 C   0  0  0  0  0  0  0  0  0  0  0  0
   -0.1060   21.6880  -28.1450 C   0  0  0  0  0  0  0  0  0  0  0  0
   -1.3000   22.1990  -27.4810 N   0  0  0  0  0  0  0  0  0  0  0  0
   -2.6320   21.8810  -27.8920 C   0  0  0  0  0  0  0  0  0  0  0  0
   -3.1850   20.8200  -27.4920 O   0  0  0  0  0  0  0  0  0  0  0  0
   -3.3620   22.8060  -28.7730 C   0  0  0  0  0  0  0  0  0  0  0  0
   -4.6700   22.6640  -29.2090 C   0  0  0  0  0  0  0  0  0  0  0  0
   -5.0030   23.7070  -30.0020 N   0  0  0  0  0  0  0  0  0  0  0  0
   -6.2740   23.8820  -30.7030 C   0  0  0  0  0  0  0  0  0  0  0  0
   -6.6460   22.6110  -31.4180 C   0  0  0  0  0  0  0  0  0  0  0  0
   -7.9310   22.0660  -31.2680 C   0  0  0  0  0  0  0  0  0  0  0  0
   -8.2680   20.8690  -31.9080 C   0  0  0  0  0  0  0  0  0  0  0  0
   -7.3210   20.2040  -32.6940 C   0  0  0  0  0  0  0  0  0  0  0  0
   -6.0350   20.7320  -32.8330 C   0  0  0  0  0  0  0  0  0  0  0  0
   -5.6940   21.9280  -32.1930 C   0  0  0  0  0  0  0  0  0  0  0  0
   -3.9180   24.5000  -30.0860 C   0  0  0  0  0  0  0  0  0  0  0  0
   -3.8570   25.6690  -30.8350 O   0  0  0  0  0  0  0  0  0  0  0  0
   -2.8900   23.9790  -29.3330 C   0  0  0  0  0  0  0  0  0  0  0  0
   -1.6200   24.5250  -29.1710 O   0  0  0  0  0  0  0  0  0  0  0  0
   -0.5020   19.7790  -29.7330 C   0  0  0  0  0  0  0  0  0  0  0  0
   -0.8140   19.2740  -30.9980 C   0  0  0  0  0  0  0  0  0  0  0  0
   -3.5211   19.6579  -32.8066 H   0  0  0  0  0  0  0  0  0  0  0  0
   -3.2316   20.5519  -34.3375 H   0  0  0  0  0  0  0  0  0  0  0  0
   -3.2576   18.7558  -34.3375 H   0  0  0  0  0  0  0  0  0  0  0  0
   -0.1738   21.2925  -34.0486 H   0  0  0  0  0  0  0  0  0  0  0  0
   -0.1143   19.8966  -35.1776 H   0  0  0  0  0  0  0  0  0  0  0  0
   -1.5382   20.9917  -35.1776 H   0  0  0  0  0  0  0  0  0  0  0  0
   -0.8243   17.7192  -32.6587 H   0  0  0  0  0  0  0  0  0  0  0  0
   -1.7290   17.5947  -34.2056 H   0  0  0  0  0  0  0  0  0  0  0  0
   -0.0231   18.1575  -34.2056 H   0  0  0  0  0  0  0  0  0  0  0  0
   -1.2509   22.2355  -32.6548 H   0  0  0  0  0  0  0  0  0  0  0  0
   -0.6738   23.1209  -30.4072 H   0  0  0  0  0  0  0  0  0  0  0  0
    0.3271   20.8765  -27.5417 H   0  0  0  0  0  0  0  0  0  0  0  0
    0.6241   22.5037  -28.2526 H   0  0  0  0  0  0  0  0  0  0  0  0
   -5.3366   21.8285  -28.9490 H   0  0  0  0  0  0  0  0  0  0  0  0
   -7.0596   24.1342  -29.9756 H   0  0  0  0  0  0  0  0  0  0  0  0
   -6.1723   24.6938  -31.4383 H   0  0  0  0  0  0  0  0  0  0  0  0
   -8.6758   22.5825  -30.6446 H   0  0  0  0  0  0  0  0  0  0  0  0
   -9.2786   20.4501  -31.7932 H   0  0  0  0  0  0  0  0  0  0  0  0
   -7.5887   19.2659  -33.2023 H   0  0  0  0  0  0  0  0  0  0  0  0
   -5.2891   20.2060  -33.4470 H   0  0  0  0  0  0  0  0  0  0  0  0
   -4.6774   22.3350  -32.2968 H   0  0  0  0  0  0  0  0  0  0  0  0
   -0.9260   24.0680  -28.5930 H   0  0  0  0  0  0  0  0  0  0  0  0
   -0.2869   19.0856  -28.9066 H   0  0  0  0  0  0  0  0  0  0  0  0
   -0.8471   18.1857  -31.1543 H   0  0  0  0  0  0  0  0  0  0  0  0
  1  2  1  0
  2  3  1  0
  2  4  1  0
  2  5  1  0
  5  6  2  0
  6  7  1  0
  7  8  2  0
  8  9  1  0
  9 10  1  0
 10 11  1  0
 11 12  2  0
 11 13  1  0
 13 14  2  0
 14 15  1  0
 15 16  1  0
 16 17  1  0
 17 18  2  0
 18 19  1  0
 19 20  2  0
 20 21  1  0
 21 22  2  0
 15 23  1  0
 23 24  1  0
 23 25  2  0
 25 26  1  0
  8 27  1  0
 27 28  2  0
 28  5  1  0
 25 13  1  0
 22 17  1  0
  1 29  1  0
  1 30  1  0
  1 31  1  0
  3 32  1  0
  3 33  1  0
  3 34  1  0
  4 35  1  0
  4 36  1  0
  4 37  1  0
  6 38  1  0
  7 39  1  0
  9 40  1  0
  9 41  1  0
 14 42  1  0
 16 43  1  0
 16 44  1  0
 18 45  1  0
 19 46  1  0
 20 47  1  0
 21 48  1  0
 22 49  1  0
 26 50  1  0
 27 51  1  0
 28 52  1  0
M  CHG  2  10  -1  24  -1
M  END
>  <UniqueID>  (9) 
9

>  <SMILES>  (9) 
CC(C)(C)c1ccc(C[N-]C(=O)c2cn(Cc3ccccc3)c([O-])c2O)cc1

>  <Energy>  (9) 
79.08649812980732

>  <Genealogy>  (9) 
CC(C)(C)c1ccc(C[N-]C(=O)c2cn(Cc3ccccc3)c([O-])c2O)cc1 (protonated)
CC(C)(C)c1ccc(C[N-]C(=O)c2cn(Cc3ccccc3)c([O-])c2O)cc1 (3D coordinates assigned)
CC(C)(C)c1ccc(C[N-]C(=O)c2cn(Cc3ccccc3)c([O-])c2O)cc1 (optimized conformer: 79.08649812980732 kcal/mol)

>  <smiles>  (9) 
CC(C)(C)c1ccc(CNC(=O)c2cn(Cc3ccccc3)c(O)c2O)cc1

>  <score_type>  (9) 
oracle

>  <origin>  (9) 
adgpu

>  <m_score__min__energy>  (9) 
-12.32

>  <m_primary>  (9) 
energy

$$$$
9:0
     RDKit          3D

 62 65  0  0  0  0  0  0  0  0999 V2000
   -0.6550   22.7090  -29.8790 C   0  0  0  0  0  0  0  0  0  0  0  0
   -2.0670   23.0390  -30.0950 N   0  0  0  0  0  0  0  0  0  0  0  0
   -2.5930   24.2990  -29.6440 C   0  0  0  0  0  0  0  0  0  0  0  0
   -3.4990   24.8620  -30.3180 O   0  0  0  0  0  0  0  0  0  0  0  0
   -2.1100   24.9320  -28.3940 C   0  0  0  0  0  0  0  0  0  0  0  0
   -1.0820   25.8910  -28.4300 C   0  0  0  0  0  0  0  0  0  0  0  0
   -0.6190   26.4750  -27.2480 C   0  0  0  0  0  0  0  0  0  0  0  0
   -1.1760   26.1140  -26.0160 C   0  0  0  0  0  0  0  0  0  0  0  0
   -0.5650   26.8370  -24.5300 S   0  0  0  0  0  0  0  0  0  0  0  0
   -1.6060   26.7360  -23.4510 O   0  0  0  0  0  0  0  0  0  0  0  0
   -0.2760   28.2900  -24.7790 O   0  0  0  0  0  0  0  0  0  0  0  0
    0.8980   26.0230  -24.0390 N   0  0  0  0  0  0  0  0  0  0  0  0
    1.4330   25.2240  -25.1540 C   0  0  0  0  0  0  0  0  0  0  0  0
    2.7590   24.5400  -24.7540 C   0  0  0  0  0  0  0  0  0  0  0  0
    3.2180   24.9560  -23.4800 O   0  0  0  0  0  0  0  0  0  0  0  0
    3.2960   26.3670  -23.4420 C   0  0  0  0  0  0  0  0  0  0  0  0
    1.8960   27.0030  -23.5670 C   0  0  0  0  0  0  0  0  0  0  0  0
   -2.1900   25.1480  -25.9730 C   0  0  0  0  0  0  0  0  0  0  0  0
   -2.6500   24.5560  -27.1520 C   0  0  0  0  0  0  0  0  0  0  0  0
   -2.9200   22.1340  -30.8230 C   0  0  0  0  0  0  0  0  0  0  0  0
   -2.6800   21.8520  -32.1790 C   0  0  0  0  0  0  0  0  0  0  0  0
   -3.5090   20.9700  -32.8760 C   0  0  0  0  0  0  0  0  0  0  0  0
   -4.5830   20.3480  -32.2220 C   0  0  0  0  0  0  0  0  0  0  0  0
   -5.6600   19.2590  -33.0930 S   0  0  0  0  0  0  0  0  0  0  0  0
   -5.7720   19.6790  -34.5320 O   0  0  0  0  0  0  0  0  0  0  0  0
   -5.0830   17.8730  -33.0400 O   0  0  0  0  0  0  0  0  0  0  0  0
   -7.2450   19.2400  -32.3720 N   0  0  0  0  0  0  0  0  0  0  0  0
   -8.0150   20.4320  -32.7340 C   0  0  0  0  0  0  0  0  0  0  0  0
   -7.5900   21.6140  -31.9140 C   0  0  0  0  0  0  0  0  0  0  0  0
   -6.9060   22.6870  -32.5020 C   0  0  0  0  0  0  0  0  0  0  0  0
   -6.5420   23.7770  -31.7120 C   0  0  0  0  0  0  0  0  0  0  0  0
   -6.8550   23.7870  -30.3550 C   0  0  0  0  0  0  0  0  0  0  0  0
   -7.5370   22.7030  -29.8030 C   0  0  0  0  0  0  0  0  0  0  0  0
   -7.8880   21.6520  -30.5880 N   0  0  0  0  0  0  0  0  0  0  0  0
   -4.8250   20.6250  -30.8710 C   0  0  0  0  0  0  0  0  0  0  0  0
   -4.0050   21.5150  -30.1780 C   0  0  0  0  0  0  0  0  0  0  0  0
   -0.4506   22.6612  -28.7992 H   0  0  0  0  0  0  0  0  0  0  0  0
   -0.4319   21.7345  -30.3379 H   0  0  0  0  0  0  0  0  0  0  0  0
   -0.0231   23.4837  -30.3379 H   0  0  0  0  0  0  0  0  0  0  0  0
   -0.6399   26.1830  -29.3940 H   0  0  0  0  0  0  0  0  0  0  0  0
    0.1873   27.2222  -27.2861 H   0  0  0  0  0  0  0  0  0  0  0  0
    0.6490   25.3820  -23.2500 H   0  0  0  0  0  0  0  0  0  0  0  0
    0.6986   24.4529  -25.4296 H   0  0  0  0  0  0  0  0  0  0  0  0
    1.6250   25.8929  -26.0059 H   0  0  0  0  0  0  0  0  0  0  0  0
    2.6033   23.4512  -24.7353 H   0  0  0  0  0  0  0  0  0  0  0  0
    3.5205   24.8254  -25.4947 H   0  0  0  0  0  0  0  0  0  0  0  0
    3.7475   26.6765  -22.4879 H   0  0  0  0  0  0  0  0  0  0  0  0
    3.9113   26.7063  -24.2883 H   0  0  0  0  0  0  0  0  0  0  0  0
    1.5864   27.3827  -22.5821 H   0  0  0  0  0  0  0  0  0  0  0  0
    1.9519   27.8202  -24.3011 H   0  0  0  0  0  0  0  0  0  0  0  0
   -2.6259   24.8544  -25.0067 H   0  0  0  0  0  0  0  0  0  0  0  0
   -3.4394   23.7912  -27.1080 H   0  0  0  0  0  0  0  0  0  0  0  0
   -1.8336   22.3291  -32.6947 H   0  0  0  0  0  0  0  0  0  0  0  0
   -3.3194   20.7628  -33.9395 H   0  0  0  0  0  0  0  0  0  0  0  0
   -7.8531   20.6556  -33.7988 H   0  0  0  0  0  0  0  0  0  0  0  0
   -9.0796   20.2346  -32.5401 H   0  0  0  0  0  0  0  0  0  0  0  0
   -6.6593   22.6694  -33.5738 H   0  0  0  0  0  0  0  0  0  0  0  0
   -6.0082   24.6280  -32.1602 H   0  0  0  0  0  0  0  0  0  0  0  0
   -6.5672   24.6414  -29.7248 H   0  0  0  0  0  0  0  0  0  0  0  0
   -7.7904   22.6993  -28.7326 H   0  0  0  0  0  0  0  0  0  0  0  0
   -5.6654   20.1386  -30.3541 H   0  0  0  0  0  0  0  0  0  0  0  0
   -4.2085   21.7342  -29.1194 H   0  0  0  0  0  0  0  0  0  0  0  0
  1  2  1  0
  2  3  1  0
  3  4  2  0
  3  5  1  0
  5  6  2  0
  6  7  1  0
  7  8  2  0
  8  9  1  0
  9 10  2  0
  9 11  2  0
  9 12  1  0
 12 13  1  0
 13 14  1  0
 14 15  1  0
 15 16  1  0
 16 17  1  0
  8 18  1  0
 18 19  2  0
  2 20  1  0
 20 21  2  0
 21 22  1  0
 22 23  2  0
 23 24  1  0
 24 25  2  0
 24 26  2  0
 24 27  1  0
 27 28  1  0
 28 29  1  0
 29 30  2  0
 30 31  1  0
 31 32  2  0
 32 33  1  0
 33 34  2  0
 23 35  1  0
 35 36  2  0
 19  5  1  0
 36 20  1  0
 17 12  1  0
 34 29  1  0
  1 37  1  0
  1 38  1  0
  1 39  1  0
  6 40  1  0
  7 41  1  0
 12 42  1  0
 13 43  1  0
 13 44  1  0
 14 45  1  0
 14 46  1  0
 16 47  1  0
 16 48  1  0
 17 49  1  0
 17 50  1  0
 18 51  1  0
 19 52  1  0
 21 53  1  0
 22 54  1  0
 28 55  1  0
 28 56  1  0
 30 57  1  0
 31 58  1  0
 32 59  1  0
 33 60  1  0
 35 61  1  0
 36 62  1  0
M  CHG  2  12   1  27  -1
M  END
>  <UniqueID>  (10) 
10

>  <SMILES>  (10) 
CN(C(=O)c1ccc(S(=O)(=O)[NH+]2CCOCC2)cc1)c1ccc(S(=O)(=O)[N-]Cc2ccccn2)cc1

>  <Energy>  (10) 
81.55375219249318

>  <Genealogy>  (10) 
CN(C(=O)c1ccc(S(=O)(=O)[NH+]2CCOCC2)cc1)c1ccc(S(=O)(=O)[N-]Cc2ccccn2)cc1 (protonated)
CN(C(=O)c1ccc(S(=O)(=O)[NH+]2CCOCC2)cc1)c1ccc(S(=O)(=O)[N-]Cc2ccccn2)cc1 (3D coordinates assigned)
CN(C(=O)c1ccc(S(=O)(=O)[NH+]2CCOCC2)cc1)c1ccc(S(=O)(=O)[N-]Cc2ccccn2)cc1 (nonaromatic ring conformer: 81.55375219249318 kcal/mol)

>  <smiles>  (10) 
CN(C(=O)c1ccc(S(=O)(=O)N2CCOCC2)cc1)c1ccc(S(=O)(=O)NCc2ccccn2)cc1

>  <score_type>  (10) 
oracle

>  <origin>  (10) 
adgpu

>  <m_score__min__energy>  (10) 
-11.27

>  <m_primary>  (10) 
energy

$$$$
10:0
     RDKit          3D

 52 55  0  0  0  0  0  0  0  0999 V2000
   -5.7580   26.3390  -31.2170 O   0  0  0  0  0  0  0  0  0  0  0  0
   -5.2930   25.1430  -30.4360 S   0  0  0  0  0  0  0  0  0  0  0  0
   -5.8320   25.2450  -29.0350 O   0  0  0  0  0  0  0  0  0  0  0  0
   -3.5590   25.1310  -30.3900 N   0  0  0  0  0  0  0  0  0  0  0  0
   -2.7550   24.2860  -29.5530 C   0  0  0  0  0  0  0  0  0  0  0  0
   -3.1160   22.9550  -29.2760 C   0  0  0  0  0  0  0  0  0  0  0  0
   -2.3150   22.1520  -28.4470 C   0  0  0  0  0  0  0  0  0  0  0  0
   -1.1250   22.6820  -27.9020 C   0  0  0  0  0  0  0  0  0  0  0  0
   -0.7700   24.0120  -28.1800 C   0  0  0  0  0  0  0  0  0  0  0  0
   -1.5740   24.8050  -29.0040 C   0  0  0  0  0  0  0  0  0  0  0  0
   -1.1860   26.1110  -29.2860 O   0  0  0  0  0  0  0  0  0  0  0  0
   -0.2650   21.8820  -26.9510 C   0  0  0  0  0  0  0  0  0  0  0  0
   -0.4960   20.3730  -27.0780 C   0  0  0  0  0  0  0  0  0  0  0  0
   -1.9920   20.0600  -27.0560 C   0  0  0  0  0  0  0  0  0  0  0  0
   -2.6890   20.6980  -28.2610 C   0  0  0  0  0  0  0  0  0  0  0  0
   -5.8690   23.6840  -31.2330 C   0  0  0  0  0  0  0  0  0  0  0  0
   -7.1790   23.2260  -31.0380 C   0  0  0  0  0  0  0  0  0  0  0  0
   -7.6050   22.0380  -31.6390 C   0  0  0  0  0  0  0  0  0  0  0  0
   -6.7270   21.3050  -32.4490 C   0  0  0  0  0  0  0  0  0  0  0  0
   -7.2480   19.7720  -33.1460 S   0  0  0  0  0  0  0  0  0  0  0  0
   -6.8310   19.7090  -34.5910 O   0  0  0  0  0  0  0  0  0  0  0  0
   -8.7500   19.7080  -33.0850 O   0  0  0  0  0  0  0  0  0  0  0  0
   -6.5800   18.4180  -32.2510 N   0  0  0  0  0  0  0  0  0  0  0  0
   -5.1110   18.3590  -32.3530 C   0  0  0  0  0  0  0  0  0  0  0  0
   -4.6430   17.8910  -33.7520 C   0  0  0  0  0  0  0  0  0  0  0  0
   -5.6440   17.2070  -34.4870 O   0  0  0  0  0  0  0  0  0  0  0  0
   -6.3620   16.3350  -33.6430 C   0  0  0  0  0  0  0  0  0  0  0  0
   -7.2160   17.1410  -32.6450 C   0  0  0  0  0  0  0  0  0  0  0  0
   -5.4190   21.7690  -32.6530 C   0  0  0  0  0  0  0  0  0  0  0  0
   -4.9910   22.9510  -32.0440 C   0  0  0  0  0  0  0  0  0  0  0  0
   -4.0354   22.5384  -29.7132 H   0  0  0  0  0  0  0  0  0  0  0  0
    0.1486   24.4334  -27.7457 H   0  0  0  0  0  0  0  0  0  0  0  0
    0.7922   22.0962  -27.1665 H   0  0  0  0  0  0  0  0  0  0  0  0
   -0.5371   22.1764  -25.9267 H   0  0  0  0  0  0  0  0  0  0  0  0
   -0.0654   20.0188  -28.0262 H   0  0  0  0  0  0  0  0  0  0  0  0
   -0.0124   19.8651  -26.2306 H   0  0  0  0  0  0  0  0  0  0  0  0
   -2.1347   18.9698  -27.0902 H   0  0  0  0  0  0  0  0  0  0  0  0
   -2.4286   20.4698  -26.1333 H   0  0  0  0  0  0  0  0  0  0  0  0
   -2.4050   20.1425  -29.1670 H   0  0  0  0  0  0  0  0  0  0  0  0
   -3.7732   20.6534  -28.0808 H   0  0  0  0  0  0  0  0  0  0  0  0
   -7.8740   23.8030  -30.4102 H   0  0  0  0  0  0  0  0  0  0  0  0
   -8.6314   21.6777  -31.4759 H   0  0  0  0  0  0  0  0  0  0  0  0
   -4.7014   19.3613  -32.1589 H   0  0  0  0  0  0  0  0  0  0  0  0
   -4.7490   17.6298  -31.6132 H   0  0  0  0  0  0  0  0  0  0  0  0
   -4.3317   18.7749  -34.3281 H   0  0  0  0  0  0  0  0  0  0  0  0
   -3.8173   17.1814  -33.5948 H   0  0  0  0  0  0  0  0  0  0  0  0
   -7.0202   15.6991  -34.2533 H   0  0  0  0  0  0  0  0  0  0  0  0
   -5.6497   15.7112  -33.0830 H   0  0  0  0  0  0  0  0  0  0  0  0
   -8.1880   17.3608  -33.1107 H   0  0  0  0  0  0  0  0  0  0  0  0
   -7.3292   16.5316  -31.7362 H   0  0  0  0  0  0  0  0  0  0  0  0
   -4.7288   21.2008  -33.2940 H   0  0  0  0  0  0  0  0  0  0  0  0
   -3.9624   23.3077  -32.2011 H   0  0  0  0  0  0  0  0  0  0  0  0
  1  2  2  0
  2  3  2  0
  2  4  1  0
  4  5  1  0
  5  6  2  0
  6  7  1  0
  7  8  2  0
  8  9  1  0
  9 10  2  0
 10 11  1  0
  8 12  1  0
 12 13  1  0
 13 14  1  0
 14 15  1  0
  2 16  1  0
 16 17  2  0
 17 18  1  0
 18 19  2  0
 19 20  1  0
 20 21  2  0
 20 22  2  0
 20 23  1  0
 23 24  1  0
 24 25  1  0
 25 26  1  0
 26 27  1  0
 27 28  1  0
 19 29  1  0
 29 30  2  0
 10  5  1  0
 30 16  1  0
 15  7  1  0
 28 23  1  0
  6 31  1  0
  9 32  1  0
 12 33  1  0
 12 34  1  0
 13 35  1  0
 13 36  1  0
 14 37  1  0
 14 38  1  0
 15 39  1  0
 15 40  1  0
 17 41  1  0
 18 42  1  0
 24 43  1  0
 24 44  1  0
 25 45  1  0
 25 46  1  0
 27 47  1  0
 27 48  1  0
 28 49  1  0
 28 50  1  0
 29 51  1  0
 30 52  1  0
M  CHG  2   4  -1  11  -1
M  END
>  <UniqueID>  (11) 
11

>  <SMILES>  (11) 
O=S(=O)([N-]c1cc2c(cc1[O-])CCCC2)c1ccc(S(=O)(=O)N2CCOCC2)cc1

>  <Energy>  (11) 
67.32143737931167

>  <Genealogy>  (11) 
O=S(=O)([N-]c1cc2c(cc1[O-])CCCC2)c1ccc(S(=O)(=O)N2CCOCC2)cc1 (protonated)
O=S(=O)([N-]c1cc2c(cc1[O-])CCCC2)c1ccc(S(=O)(=O)N2CCOCC2)cc1 (3D coordinates assigned)
O=S(=O)([N-]c1cc2c(cc1[O-])CCCC2)c1ccc(S(=O)(=O)N2CCOCC2)cc1 (nonaromatic ring conformer: 67.32143737931167 kcal/mol)

>  <smiles>  (11) 
O=S(=O)(Nc1cc2c(cc1O)CCCC2)c1ccc(S(=O)(=O)N2CCOCC2)cc1

>  <score_type>  (11) 
oracle

>  <origin>  (11) 
adgpu

>  <m_score__min__energy>  (11) 
-15.300000000000001

>  <m_primary>  (11) 
energy

$$$$
11:0
     RDKit          3D

 56 58  0  0  0  0  0  0  0  0999 V2000
   -8.3200   20.0620  -33.8280 H   0  0  0  0  0  0  0  0  0  0  0  0
   -8.5340   20.7070  -33.0770 O   0  0  0  0  0  0  0  0  0  0  0  0
   -7.5390   21.4560  -32.4520 C   0  0  0  0  0  0  0  0  0  0  0  0
   -6.1930   21.1410  -32.6750 C   0  0  0  0  0  0  0  0  0  0  0  0
   -5.9010   20.0830  -33.5540 O   0  0  0  0  0  0  0  0  0  0  0  0
   -5.4950   18.7860  -33.1910 C   0  0  0  0  0  0  0  0  0  0  0  0
   -6.3510   17.8960  -32.4910 C   0  0  0  0  0  0  0  0  0  0  0  0
   -7.7030   18.3210  -31.9830 C   0  0  0  0  0  0  0  0  0  0  0  0
   -7.6984   18.3196  -30.8830 H   0  0  0  0  0  0  0  0  0  0  0  0
   -7.9299   19.3338  -32.3474 H   0  0  0  0  0  0  0  0  0  0  0  0
   -8.4685   17.6202  -32.3474 H   0  0  0  0  0  0  0  0  0  0  0  0
   -5.9260   16.5790  -32.2490 C   0  0  0  0  0  0  0  0  0  0  0  0
   -6.6079   15.8673  -31.7607 H   0  0  0  0  0  0  0  0  0  0  0  0
   -4.6450   16.1650  -32.6230 C   0  0  0  0  0  0  0  0  0  0  0  0
   -4.2250   14.8100  -32.3810 C   0  0  0  0  0  0  0  0  0  0  0  0
   -3.8870   13.7200  -32.1930 N   0  0  0  0  0  0  0  0  0  0  0  0
   -3.7670   17.0700  -33.2260 C   0  0  0  0  0  0  0  0  0  0  0  0
   -2.7434   16.7544  -33.4762 H   0  0  0  0  0  0  0  0  0  0  0  0
   -4.1830   18.3780  -33.5140 C   0  0  0  0  0  0  0  0  0  0  0  0
   -3.2090   19.3410  -34.1380 C   0  0  0  0  0  0  0  0  0  0  0  0
   -2.6660   19.8779  -33.3462 H   0  0  0  0  0  0  0  0  0  0  0  0
   -2.4931   18.7858  -34.7619 H   0  0  0  0  0  0  0  0  0  0  0  0
   -3.7561   20.0631  -34.7619 H   0  0  0  0  0  0  0  0  0  0  0  0
   -5.1990   21.8940  -31.9990 C   0  0  0  0  0  0  0  0  0  0  0  0
   -3.8070   21.5860  -32.1150 N   0  0  0  0  0  0  0  0  0  0  0  0
   -3.4260   21.4070  -33.0750 H   0  0  0  0  0  0  0  0  0  0  0  0
   -2.9030   21.5880  -30.9960 C   0  0  0  0  0  0  0  0  0  0  0  0
   -2.5470   20.3960  -30.3390 C   0  0  0  0  0  0  0  0  0  0  0  0
   -2.9838   19.4398  -30.6630 H   0  0  0  0  0  0  0  0  0  0  0  0
   -1.6410   20.4230  -29.2770 C   0  0  0  0  0  0  0  0  0  0  0  0
   -1.3749   19.4894  -28.7597 H   0  0  0  0  0  0  0  0  0  0  0  0
   -1.0710   21.6320  -28.8690 C   0  0  0  0  0  0  0  0  0  0  0  0
   -0.3494   21.6432  -28.0388 H   0  0  0  0  0  0  0  0  0  0  0  0
   -1.4140   22.8350  -29.5130 C   0  0  0  0  0  0  0  0  0  0  0  0
   -0.7730   24.1100  -29.1170 C   0  0  0  0  0  0  0  0  0  0  0  0
    0.4480   24.1330  -28.8030 O   0  0  0  0  0  0  0  0  0  0  0  0
   -1.5330   25.3250  -29.1030 N   0  0  0  0  0  0  0  0  0  0  0  0
   -1.2340   26.4330  -28.2120 C   0  0  0  0  0  0  0  0  0  0  0  0
   -1.3242   26.0986  -27.1680 H   0  0  0  0  0  0  0  0  0  0  0  0
   -0.2086   26.7856  -28.3967 H   0  0  0  0  0  0  0  0  0  0  0  0
   -1.9428   27.2536  -28.3967 H   0  0  0  0  0  0  0  0  0  0  0  0
   -2.3540   22.8030  -30.5610 C   0  0  0  0  0  0  0  0  0  0  0  0
   -2.6613   23.7422  -31.0442 H   0  0  0  0  0  0  0  0  0  0  0  0
   -5.5700   22.9380  -31.2100 N   0  0  0  0  0  0  0  0  0  0  0  0
   -6.8730   23.2740  -31.0050 C   0  0  0  0  0  0  0  0  0  0  0  0
   -7.1920   24.2730  -30.2340 N   0  0  0  0  0  0  0  0  0  0  0  0
   -6.2340   25.1070  -29.5050 C   0  0  0  0  0  0  0  0  0  0  0  0
   -6.7827   25.7668  -28.8168 H   0  0  0  0  0  0  0  0  0  0  0  0
   -5.5512   24.4493  -28.9472 H   0  0  0  0  0  0  0  0  0  0  0  0
   -5.4060   25.9650  -30.4680 C   0  0  0  0  0  0  0  0  0  0  0  0
   -5.9873   26.1413  -31.3851 H   0  0  0  0  0  0  0  0  0  0  0  0
   -5.1694   26.9199  -29.9759 H   0  0  0  0  0  0  0  0  0  0  0  0
   -4.2050   25.3200  -30.8010 O   0  0  0  0  0  0  0  0  0  0  0  0
   -4.4060   24.3470  -30.8480 H   0  0  0  0  0  0  0  0  0  0  0  0
   -7.8820   22.5290  -31.6200 C   0  0  0  0  0  0  0  0  0  0  0  0
   -8.9389   22.7835  -31.4519 H   0  0  0  0  0  0  0  0  0  0  0  0
  1  2  1  0
  2  3  1  0
  3  4  1  0
  4  5  1  0
  5  6  1  0
  6  7  2  0
  7  8  1  0
  8  9  1  0
  8 10  1  0
  8 11  1  0
  7 12  1  0
 12 13  1  0
 12 14  2  0
 14 15  1  0
 15 16  3  0
 14 17  1  0
 17 18  1  0
 17 19  2  0
 19 20  1  0
 20 21  1  0
 20 22  1  0
 20 23  1  0
  4 24  2  0
 24 25  1  0
 25 26  1  0
 25 27  1  0
 27 28  2  0
 28 29  1  0
 28 30  1  0
 30 31  1  0
 30 32  2  0
 32 33  1  0
 32 34  1  0
 34 35  1  0
 35 36  2  0
 35 37  1  0
 37 38  1  0
 38 39  1  0
 38 40  1  0
 38 41  1  0
 34 42  2  0
 42 43  1  0
 24 44  1  0
 44 45  1  0
 45 46  2  0
 46 47  1  0
 47 48  1  0
 47 49  1  0
 47 50  1  0
 50 51  1  0
 50 52  1  0
 50 53  1  0
 53 54  1  0
 45 55  1  0
 55 56  1  0
 55  3  2  0
 19  6  1  0
 42 27  1  0
M  CHG  2  37  -1  44  -1
M  END
>  <UniqueID>  (12) 
12

>  <SMILES>  (12) 
C[N-]C(=O)c1cccc(Nc2[n-]/c(=N\CCO)cc(O)c2Oc2c(C)cc(C#N)cc2C)c1

>  <Energy>  (12) 
64.88215281506402

>  <Genealogy>  (12) 
C[N-]C(=O)c1cccc(Nc2[n-]c(=NCCO)cc(O)c2Oc2c(C)cc(C#N)cc2C)c1 (protonated)
C[N-]C(=O)c1cccc(Nc2[n-]/c(=N\CCO)cc(O)c2Oc2c(C)cc(C#N)cc2C)c1 (cis-trans isomerization)
C[N-]C(=O)c1cccc(Nc2[n-]/c(=N\CCO)cc(O)c2Oc2c(C)cc(C#N)cc2C)c1 (3D coordinates assigned)
C[N-]C(=O)c1cccc(Nc2[n-]/c(=N\CCO)cc(O)c2Oc2c(C)cc(C#N)cc2C)c1 (optimized conformer: 64.88215281506402 kcal/mol)

>  <smiles>  (12) 
CNC(=O)c1cccc(Nc2[nH]c(=NCCO)cc(O)c2Oc2c(C)cc(C#N)cc2C)c1

>  <score_type>  (12) 
oracle

>  <origin>  (12) 
adgpu

>  <m_score__min__energy>  (12) 
-10.73

>  <m_primary>  (12) 
energy

$$$$
12:0
     RDKit          3D

 55 58  0  0  0  0  0  0  0  0999 V2000
  -10.1420   19.1780  -32.8540 O   0  0  0  0  0  0  0  0  0  0  0  0
   -9.1280   19.9080  -32.6870 C   0  0  0  0  0  0  0  0  0  0  0  0
   -9.3190   21.2760  -32.2950 N   0  0  0  0  0  0  0  0  0  0  0  0
   -8.3080   22.1010  -31.7000 C   0  0  0  0  0  0  0  0  0  0  0  0
   -7.6220   23.0280  -32.4930 C   0  0  0  0  0  0  0  0  0  0  0  0
   -6.5580   23.7630  -31.9600 C   0  0  0  0  0  0  0  0  0  0  0  0
   -6.1880   23.5910  -30.6180 C   0  0  0  0  0  0  0  0  0  0  0  0
   -4.7630   24.3910  -29.9660 S   0  0  0  0  0  0  0  0  0  0  0  0
   -4.3270   25.5190  -30.8580 O   0  0  0  0  0  0  0  0  0  0  0  0
   -5.0850   24.9360  -28.6040 O   0  0  0  0  0  0  0  0  0  0  0  0
   -3.4710   23.2380  -29.8350 N   0  0  0  0  0  0  0  0  0  0  0  0
   -2.3090   23.5100  -29.3230 C   0  0  0  0  0  0  0  0  0  0  0  0
   -2.0370   24.7490  -28.8230 N   0  0  0  0  0  0  0  0  0  0  0  0
   -0.8200   25.0400  -28.2990 C   0  0  0  0  0  0  0  0  0  0  0  0
    0.1770   24.0660  -28.2690 C   0  0  0  0  0  0  0  0  0  0  0  0
   -0.1150   22.8040  -28.7830 C   0  0  0  0  0  0  0  0  0  0  0  0
   -1.3480   22.5490  -29.2960 N   0  0  0  0  0  0  0  0  0  0  0  0
   -6.9170   22.7150  -29.8060 C   0  0  0  0  0  0  0  0  0  0  0  0
   -7.9750   21.9790  -30.3400 C   0  0  0  0  0  0  0  0  0  0  0  0
   -7.7770   19.3480  -32.9260 C   0  0  0  0  0  0  0  0  0  0  0  0
   -7.3940   18.1400  -32.3210 C   0  0  0  0  0  0  0  0  0  0  0  0
   -6.0930   17.6500  -32.4840 C   0  0  0  0  0  0  0  0  0  0  0  0
   -5.1680   18.3530  -33.2660 C   0  0  0  0  0  0  0  0  0  0  0  0
   -3.5080   17.7840  -33.4100 S   0  0  0  0  0  0  0  0  0  0  0  0
   -3.1520   17.6130  -34.8630 O   0  0  0  0  0  0  0  0  0  0  0  0
   -3.3960   16.4570  -32.7120 O   0  0  0  0  0  0  0  0  0  0  0  0
   -2.4190   18.9350  -32.6750 N   0  0  0  0  0  0  0  0  0  0  0  0
   -3.1320   19.7960  -31.6970 C   0  0  0  0  0  0  0  0  0  0  0  0
   -3.4230   21.2040  -32.2380 C   0  0  0  0  0  0  0  0  0  0  0  0
   -2.1260   21.9210  -32.6470 C   0  0  0  0  0  0  0  0  0  0  0  0
   -1.0490   20.9520  -33.1670 C   0  0  0  0  0  0  0  0  0  0  0  0
   -1.6810   19.6710  -33.7250 C   0  0  0  0  0  0  0  0  0  0  0  0
   -5.5580   19.5370  -33.9000 C   0  0  0  0  0  0  0  0  0  0  0  0
   -6.8550   20.0290  -33.7400 C   0  0  0  0  0  0  0  0  0  0  0  0
   -7.9211   23.1793  -33.5407 H   0  0  0  0  0  0  0  0  0  0  0  0
   -6.0110   24.4765  -32.5938 H   0  0  0  0  0  0  0  0  0  0  0  0
   -0.6198   26.0445  -27.8978 H   0  0  0  0  0  0  0  0  0  0  0  0
    1.1695   24.2881  -27.8500 H   0  0  0  0  0  0  0  0  0  0  0  0
    0.6514   22.0149  -28.7737 H   0  0  0  0  0  0  0  0  0  0  0  0
   -6.6550   22.6064  -28.7432 H   0  0  0  0  0  0  0  0  0  0  0  0
   -8.5511   21.3003  -29.6939 H   0  0  0  0  0  0  0  0  0  0  0  0
   -8.1196   17.5763  -31.7163 H   0  0  0  0  0  0  0  0  0  0  0  0
   -5.7962   16.7098  -31.9963 H   0  0  0  0  0  0  0  0  0  0  0  0
   -4.0870   19.3156  -31.4378 H   0  0  0  0  0  0  0  0  0  0  0  0
   -2.4781   19.9090  -30.8197 H   0  0  0  0  0  0  0  0  0  0  0  0
   -4.0802   21.1223  -33.1163 H   0  0  0  0  0  0  0  0  0  0  0  0
   -3.9090   21.7891  -31.4434 H   0  0  0  0  0  0  0  0  0  0  0  0
   -2.3600   22.6456  -33.4408 H   0  0  0  0  0  0  0  0  0  0  0  0
   -1.7230   22.4149  -31.7505 H   0  0  0  0  0  0  0  0  0  0  0  0
   -0.4758   21.4467  -33.9649 H   0  0  0  0  0  0  0  0  0  0  0  0
   -0.3903   20.6800  -32.3291 H   0  0  0  0  0  0  0  0  0  0  0  0
   -2.3781   19.9378  -34.5330 H   0  0  0  0  0  0  0  0  0  0  0  0
   -0.8767   19.0231  -34.1035 H   0  0  0  0  0  0  0  0  0  0  0  0
   -4.8392   20.0836  -34.5281 H   0  0  0  0  0  0  0  0  0  0  0  0
   -7.1568   20.9539  -34.2534 H   0  0  0  0  0  0  0  0  0  0  0  0
  1  2  2  0
  2  3  1  0
  3  4  1  0
  4  5  2  0
  5  6  1  0
  6  7  2  0
  7  8  1  0
  8  9  2  0
  8 10  2  0
  8 11  1  0
 11 12  2  3
 12 13  1  0
 13 14  2  0
 14 15  1  0
 15 16  2  0
 16 17  1  0
  7 18  1  0
 18 19  2  0
  2 20  1  0
 20 21  2  0
 21 22  1  0
 22 23  2  0
 23 24  1  0
 24 25  2  0
 24 26  2  0
 24 27  1  0
 27 28  1  0
 28 29  1  0
 29 30  1  0
 30 31  1  0
 31 32  1  0
 23 33  1  0
 33 34  2  0
 19  4  1  0
 34 20  1  0
 17 12  1  0
 32 27  1  0
  5 35  1  0
  6 36  1  0
 14 37  1  0
 15 38  1  0
 16 39  1  0
 18 40  1  0
 19 41  1  0
 21 42  1  0
 22 43  1  0
 28 44  1  0
 28 45  1  0
 29 46  1  0
 29 47  1  0
 30 48  1  0
 30 49  1  0
 31 50  1  0
 31 51  1  0
 32 52  1  0
 32 53  1  0
 33 54  1  0
 34 55  1  0
M  CHG  2   3  -1  17  -1
M  END
>  <UniqueID>  (13) 
13

>  <SMILES>  (13) 
O=C([N-]c1ccc(S(=O)(=O)N=c2nccc[n-]2)cc1)c1ccc(S(=O)(=O)N2CCCCC2)cc1

>  <Energy>  (13) 
71.33433024614502

>  <Genealogy>  (13) 
O=C([N-]c1ccc(S(=O)(=O)N=c2nccc[n-]2)cc1)c1ccc(S(=O)(=O)N2CCCCC2)cc1 (protonated)
O=C([N-]c1ccc(S(=O)(=O)N=c2nccc[n-]2)cc1)c1ccc(S(=O)(=O)N2CCCCC2)cc1 (3D coordinates assigned)
O=C([N-]c1ccc(S(=O)(=O)N=c2nccc[n-]2)cc1)c1ccc(S(=O)(=O)N2CCCCC2)cc1 (nonaromatic ring conformer: 71.33433024614502 kcal/mol)

>  <smiles>  (13) 
O=C(Nc1ccc(S(=O)(=O)N=c2nccc[nH]2)cc1)c1ccc(S(=O)(=O)N2CCCCC2)cc1

>  <score_type>  (13) 
oracle

>  <origin>  (13) 
adgpu

>  <m_score__min__energy>  (13) 
-13.09

>  <m_primary>  (13) 
energy

$$$$
13:0
     RDKit          3D

 52 55  0  0  0  0  0  0  0  0999 V2000
   -5.8950   26.0270  -30.3780 O   0  0  0  0  0  0  0  0  0  0  0  0
   -5.0130   25.2450  -30.8200 C   0  0  0  0  0  0  0  0  0  0  0  0
   -5.3280   24.4040  -31.9340 N   0  0  0  0  0  0  0  0  0  0  0  0
   -5.0260   23.0060  -32.0500 C   0  0  0  0  0  0  0  0  0  0  0  0
   -3.7120   22.5210  -31.9410 C   0  0  0  0  0  0  0  0  0  0  0  0
   -3.4610   21.1530  -32.0390 C   0  0  0  0  0  0  0  0  0  0  0  0
   -4.5140   20.2540  -32.2300 C   0  0  0  0  0  0  0  0  0  0  0  0
   -4.2320   18.8950  -32.3300 O   0  0  0  0  0  0  0  0  0  0  0  0
   -5.8390   20.7190  -32.3150 C   0  0  0  0  0  0  0  0  0  0  0  0
   -7.1520   19.5410  -32.5480 S   0  0  0  0  0  0  0  0  0  0  0  0
   -7.4780   18.9400  -31.2090 O   0  0  0  0  0  0  0  0  0  0  0  0
   -8.3590   20.2850  -33.0450 O   0  0  0  0  0  0  0  0  0  0  0  0
   -6.8320   18.2300  -33.6620 N   0  0  0  0  0  0  0  0  0  0  0  0
   -6.4790   16.9730  -32.9930 C   0  0  0  0  0  0  0  0  0  0  0  0
   -5.3030   16.3590  -33.7430 C   0  0  0  0  0  0  0  0  0  0  0  0
   -5.0730   17.2490  -34.9510 C   0  0  0  0  0  0  0  0  0  0  0  0
   -5.7830   18.5500  -34.6290 C   0  0  0  0  0  0  0  0  0  0  0  0
   -6.0810   22.1010  -32.2140 C   0  0  0  0  0  0  0  0  0  0  0  0
   -3.6810   25.2760  -30.2870 N   0  0  0  0  0  0  0  0  0  0  0  0
   -3.1210   24.3810  -29.3140 C   0  0  0  0  0  0  0  0  0  0  0  0
   -3.8050   23.2240  -28.9110 C   0  0  0  0  0  0  0  0  0  0  0  0
   -3.2290   22.3470  -27.9960 C   0  0  0  0  0  0  0  0  0  0  0  0
   -1.9600   22.6010  -27.4700 C   0  0  0  0  0  0  0  0  0  0  0  0
   -1.2870   21.4090  -26.3610 Cl  0  0  0  0  0  0  0  0  0  0  0  0
   -1.2510   23.7600  -27.8590 C   0  0  0  0  0  0  0  0  0  0  0  0
    0.3700   24.0840  -27.2070 S   0  0  0  0  0  0  0  0  0  0  0  0
    1.1140   22.8000  -26.9640 O   0  0  0  0  0  0  0  0  0  0  0  0
    1.1620   24.8940  -28.1940 O   0  0  0  0  0  0  0  0  0  0  0  0
    0.1900   25.0150  -25.6870 C   0  0  0  0  0  0  0  0  0  0  0  0
   -0.4600   24.2660  -24.5350 C   0  0  0  0  0  0  0  0  0  0  0  0
   -1.2500   25.3150  -25.3040 C   0  0  0  0  0  0  0  0  0  0  0  0
   -1.8290   24.6340  -28.8100 C   0  0  0  0  0  0  0  0  0  0  0  0
   -1.1110   25.7460  -29.2530 O   0  0  0  0  0  0  0  0  0  0  0  0
   -2.8798   23.2217  -31.7781 H   0  0  0  0  0  0  0  0  0  0  0  0
   -2.4290   20.7794  -31.9656 H   0  0  0  0  0  0  0  0  0  0  0  0
   -6.1941   17.1720  -31.9493 H   0  0  0  0  0  0  0  0  0  0  0  0
   -7.3365   16.2840  -32.9937 H   0  0  0  0  0  0  0  0  0  0  0  0
   -4.4079   16.3418  -33.1038 H   0  0  0  0  0  0  0  0  0  0  0  0
   -5.5096   15.3199  -34.0390 H   0  0  0  0  0  0  0  0  0  0  0  0
   -3.9975   17.4238  -35.1019 H   0  0  0  0  0  0  0  0  0  0  0  0
   -5.4534   16.7917  -35.8763 H   0  0  0  0  0  0  0  0  0  0  0  0
   -5.0745   19.2707  -34.1947 H   0  0  0  0  0  0  0  0  0  0  0  0
   -6.2077   19.0034  -35.5368 H   0  0  0  0  0  0  0  0  0  0  0  0
   -7.1140   22.4757  -32.2646 H   0  0  0  0  0  0  0  0  0  0  0  0
   -4.8028   23.0085  -29.3207 H   0  0  0  0  0  0  0  0  0  0  0  0
   -3.7779   21.4461  -27.6845 H   0  0  0  0  0  0  0  0  0  0  0  0
    1.1115   25.6043  -25.8037 H   0  0  0  0  0  0  0  0  0  0  0  0
   -0.7101   23.2003  -24.6431 H   0  0  0  0  0  0  0  0  0  0  0  0
   -0.2120   24.1002  -23.4762 H   0  0  0  0  0  0  0  0  0  0  0  0
   -2.0713   25.0077  -25.9681 H   0  0  0  0  0  0  0  0  0  0  0  0
   -1.8098   26.2218  -25.0315 H   0  0  0  0  0  0  0  0  0  0  0  0
   -0.1160   25.8560  -29.0970 H   0  0  0  0  0  0  0  0  0  0  0  0
  1  2  2  0
  2  3  1  0
  3  4  1  0
  4  5  2  0
  5  6  1  0
  6  7  2  0
  7  8  1  0
  7  9  1  0
  9 10  1  0
 10 11  2  0
 10 12  2  0
 10 13  1  0
 13 14  1  0
 14 15  1  0
 15 16  1  0
 16 17  1  0
  9 18  2  0
  2 19  1  0
 19 20  1  0
 20 21  2  0
 21 22  1  0
 22 23  2  0
 23 24  1  0
 23 25  1  0
 25 26  1  0
 26 27  2  0
 26 28  2  0
 26 29  1  0
 29 30  1  0
 30 31  1  0
 25 32  2  0
 32 33  1  0
 18  4  1  0
 32 20  1  0
 17 13  1  0
 31 29  1  0
  5 34  1  0
  6 35  1  0
 14 36  1  0
 14 37  1  0
 15 38  1  0
 15 39  1  0
 16 40  1  0
 16 41  1  0
 17 42  1  0
 17 43  1  0
 18 44  1  0
 21 45  1  0
 22 46  1  0
 29 47  1  0
 30 48  1  0
 30 49  1  0
 31 50  1  0
 31 51  1  0
 33 52  1  0
M  CHG  3   3  -1   8  -1  19  -1
M  END
>  <UniqueID>  (14) 
14

>  <SMILES>  (14) 
O=C([N-]c1ccc([O-])c(S(=O)(=O)N2CCCC2)c1)[N-]c1ccc(Cl)c(S(=O)(=O)C2CC2)c1O

>  <Energy>  (14) 
332.7140096384441

>  <Genealogy>  (14) 
O=C([N-]c1ccc([O-])c(S(=O)(=O)N2CCCC2)c1)[N-]c1ccc(Cl)c(S(=O)(=O)C2CC2)c1O (protonated)
O=C([N-]c1ccc([O-])c(S(=O)(=O)N2CCCC2)c1)[N-]c1ccc(Cl)c(S(=O)(=O)C2CC2)c1O (3D coordinates assigned)
O=C([N-]c1ccc([O-])c(S(=O)(=O)N2CCCC2)c1)[N-]c1ccc(Cl)c(S(=O)(=O)C2CC2)c1O (nonaromatic ring conformer: 332.7140096384441 kcal/mol)

>  <smiles>  (14) 
O=C(Nc1ccc(O)c(S(=O)(=O)N2CCCC2)c1)Nc1ccc(Cl)c(S(=O)(=O)C2CC2)c1O

>  <score_type>  (14) 
oracle

>  <origin>  (14) 
adgpu

>  <m_score__min__energy>  (14) 
-13.81

>  <m_primary>  (14) 
energy

$$$$
14:0
     RDKit          3D

 45 47  0  0  0  0  0  0  0  0999 V2000
   -7.8600   21.6070  -30.8370 C   0  0  0  0  0  0  0  0  0  0  0  0
   -6.8020   22.6670  -30.7370 C   0  0  0  0  0  0  0  0  0  0  0  0
   -7.1170   23.9330  -30.2250 C   0  0  0  0  0  0  0  0  0  0  0  0
   -6.1360   24.9230  -30.1440 C   0  0  0  0  0  0  0  0  0  0  0  0
   -4.8380   24.6660  -30.5960 C   0  0  0  0  0  0  0  0  0  0  0  0
   -3.8700   25.6590  -30.5010 O   0  0  0  0  0  0  0  0  0  0  0  0
   -4.5170   23.4180  -31.1520 C   0  0  0  0  0  0  0  0  0  0  0  0
   -3.1720   23.1810  -31.5920 N   0  0  0  0  0  0  0  0  0  0  0  0
   -2.5480   21.9030  -31.7750 C   0  0  0  0  0  0  0  0  0  0  0  0
   -2.8230   21.1990  -32.7830 O   0  0  0  0  0  0  0  0  0  0  0  0
   -1.5840   21.4130  -30.7650 C   0  0  0  0  0  0  0  0  0  0  0  0
   -1.0790   22.3280  -29.8240 C   0  0  0  0  0  0  0  0  0  0  0  0
   -0.2370   21.9040  -28.7890 C   0  0  0  0  0  0  0  0  0  0  0  0
    0.3470   23.0580  -27.5890 S   0  0  0  0  0  0  0  0  0  0  0  0
    1.3450   22.3690  -26.7010 O   0  0  0  0  0  0  0  0  0  0  0  0
    1.0590   24.1810  -28.2920 O   0  0  0  0  0  0  0  0  0  0  0  0
   -0.9430   23.7130  -26.6010 N   0  0  0  0  0  0  0  0  0  0  0  0
   -2.2860   23.3890  -27.1250 C   0  0  0  0  0  0  0  0  0  0  0  0
   -2.9400   24.5650  -27.8690 C   0  0  0  0  0  0  0  0  0  0  0  0
   -1.9570   25.3870  -28.4520 O   0  0  0  0  0  0  0  0  0  0  0  0
   -1.2480   26.0730  -27.4390 C   0  0  0  0  0  0  0  0  0  0  0  0
   -0.7560   25.1460  -26.3020 C   0  0  0  0  0  0  0  0  0  0  0  0
    0.1220   20.5560  -28.7000 C   0  0  0  0  0  0  0  0  0  0  0  0
   -0.3510   19.6410  -29.6400 C   0  0  0  0  0  0  0  0  0  0  0  0
   -1.1860   20.0550  -30.6830 C   0  0  0  0  0  0  0  0  0  0  0  0
   -1.5670   19.1010  -31.6310 O   0  0  0  0  0  0  0  0  0  0  0  0
   -5.5030   22.4150  -31.2070 C   0  0  0  0  0  0  0  0  0  0  0  0
   -8.1673   21.2992  -29.8266 H   0  0  0  0  0  0  0  0  0  0  0  0
   -8.7297   22.0070  -31.3788 H   0  0  0  0  0  0  0  0  0  0  0  0
   -7.4584   20.7380  -31.3788 H   0  0  0  0  0  0  0  0  0  0  0  0
   -8.1411   24.1475  -29.8857 H   0  0  0  0  0  0  0  0  0  0  0  0
   -6.3850   25.9084  -29.7232 H   0  0  0  0  0  0  0  0  0  0  0  0
   -1.3493   23.3914  -29.9023 H   0  0  0  0  0  0  0  0  0  0  0  0
   -2.1960   22.5410  -27.8199 H   0  0  0  0  0  0  0  0  0  0  0  0
   -2.9261   23.1476  -26.2636 H   0  0  0  0  0  0  0  0  0  0  0  0
   -3.5986   24.1730  -28.6580 H   0  0  0  0  0  0  0  0  0  0  0  0
   -3.5222   25.1610  -27.1508 H   0  0  0  0  0  0  0  0  0  0  0  0
   -0.3739   26.5616  -27.8942 H   0  0  0  0  0  0  0  0  0  0  0  0
   -1.9416   26.7994  -26.9903 H   0  0  0  0  0  0  0  0  0  0  0  0
    0.3156   25.3323  -26.1375 H   0  0  0  0  0  0  0  0  0  0  0  0
   -1.3560   25.3756  -25.4091 H   0  0  0  0  0  0  0  0  0  0  0  0
    0.7794   20.2161  -27.8862 H   0  0  0  0  0  0  0  0  0  0  0  0
   -0.0643   18.5820  -29.5604 H   0  0  0  0  0  0  0  0  0  0  0  0
   -2.2210   19.2880  -32.3780 H   0  0  0  0  0  0  0  0  0  0  0  0
   -5.2542   21.4268  -31.6211 H   0  0  0  0  0  0  0  0  0  0  0  0
  1  2  1  0
  2  3  2  0
  3  4  1  0
  4  5  2  0
  5  6  1  0
  5  7  1  0
  7  8  1  0
  8  9  1  0
  9 10  2  0
  9 11  1  0
 11 12  2  0
 12 13  1  0
 13 14  1  0
 14 15  2  0
 14 16  2  0
 14 17  1  0
 17 18  1  0
 18 19  1  0
 19 20  1  0
 20 21  1  0
 21 22  1  0
 13 23  2  0
 23 24  1  0
 24 25  2  0
 25 26  1  0
  7 27  2  0
 27  2  1  0
 25 11  1  0
 22 17  1  0
  1 28  1  0
  1 29  1  0
  1 30  1  0
  3 31  1  0
  4 32  1  0
 12 33  1  0
 18 34  1  0
 18 35  1  0
 19 36  1  0
 19 37  1  0
 21 38  1  0
 21 39  1  0
 22 40  1  0
 22 41  1  0
 23 42  1  0
 24 43  1  0
 26 44  1  0
 27 45  1  0
M  CHG  2   6  -1   8  -1
M  END
>  <UniqueID>  (15) 
15

>  <SMILES>  (15) 
Cc1ccc([O-])c([N-]C(=O)c2cc(S(=O)(=O)N3CCOCC3)ccc2O)c1

>  <Energy>  (15) 
65.49314059769733

>  <Genealogy>  (15) 
Cc1ccc([O-])c([N-]C(=O)c2cc(S(=O)(=O)N3CCOCC3)ccc2O)c1 (protonated)
Cc1ccc([O-])c([N-]C(=O)c2cc(S(=O)(=O)N3CCOCC3)ccc2O)c1 (3D coordinates assigned)
Cc1ccc([O-])c([N-]C(=O)c2cc(S(=O)(=O)N3CCOCC3)ccc2O)c1 (nonaromatic ring conformer: 65.49314059769733 kcal/mol)

>  <smiles>  (15) 
Cc1ccc(O)c(NC(=O)c2cc(S(=O)(=O)N3CCOCC3)ccc2O)c1

>  <score_type>  (15) 
oracle

>  <origin>  (15) 
adgpu

>  <m_score__min__energy>  (15) 
-13.380000000000001

>  <m_primary>  (15) 
energy

$$$$
15:0
     RDKit          3D

 47 50  0  0  0  0  0  0  0  0999 V2000
   -5.9680   25.5800  -30.4430 O   0  0  0  0  0  0  0  0  0  0  0  0
   -4.9890   24.8280  -30.6960 C   0  0  0  0  0  0  0  0  0  0  0  0
   -3.6730   25.2560  -30.3200 N   0  0  0  0  0  0  0  0  0  0  0  0
   -2.6500   24.4440  -29.7210 C   0  0  0  0  0  0  0  0  0  0  0  0
   -2.6630   23.0410  -29.8370 C   0  0  0  0  0  0  0  0  0  0  0  0
   -1.6590   22.2640  -29.2380 C   0  0  0  0  0  0  0  0  0  0  0  0
   -1.6960   20.4900  -29.2540 S   0  0  0  0  0  0  0  0  0  0  0  0
   -2.9510   20.0450  -28.5570 O   0  0  0  0  0  0  0  0  0  0  0  0
   -0.5150   19.9950  -28.4680 O   0  0  0  0  0  0  0  0  0  0  0  0
   -1.6330   19.7320  -30.8310 N   0  0  0  0  0  0  0  0  0  0  0  0
   -2.7840   20.0590  -31.6790 C   0  0  0  0  0  0  0  0  0  0  0  0
   -2.2580   20.3560  -33.0800 C   0  0  0  0  0  0  0  0  0  0  0  0
   -0.7800   20.0220  -33.0400 C   0  0  0  0  0  0  0  0  0  0  0  0
   -0.4150   20.0580  -31.5700 C   0  0  0  0  0  0  0  0  0  0  0  0
   -0.6190   22.9070  -28.5520 C   0  0  0  0  0  0  0  0  0  0  0  0
   -0.5770   24.3000  -28.4710 C   0  0  0  0  0  0  0  0  0  0  0  0
   -1.5870   25.0690  -29.0550 C   0  0  0  0  0  0  0  0  0  0  0  0
   -1.5350   26.4550  -28.9630 O   0  0  0  0  0  0  0  0  0  0  0  0
   -5.2320   23.5190  -31.3290 C   0  0  0  0  0  0  0  0  0  0  0  0
   -6.2180   22.6240  -30.9740 C   0  0  0  0  0  0  0  0  0  0  0  0
   -6.0910   21.6040  -31.8990 C   0  0  0  0  0  0  0  0  0  0  0  0
   -6.9780   20.4290  -32.0560 C   0  0  0  0  0  0  0  0  0  0  0  0
   -8.2610   20.4640  -31.4820 C   0  0  0  0  0  0  0  0  0  0  0  0
   -9.1190   19.3660  -31.5860 C   0  0  0  0  0  0  0  0  0  0  0  0
   -8.7090   18.2220  -32.2710 C   0  0  0  0  0  0  0  0  0  0  0  0
   -7.4440   18.1750  -32.8580 C   0  0  0  0  0  0  0  0  0  0  0  0
   -6.5750   19.2730  -32.7630 C   0  0  0  0  0  0  0  0  0  0  0  0
   -5.3300   19.2190  -33.3890 O   0  0  0  0  0  0  0  0  0  0  0  0
   -5.0730   21.8860  -32.7380 N   0  0  0  0  0  0  0  0  0  0  0  0
   -4.5460   23.0470  -32.3870 N   0  0  0  0  0  0  0  0  0  0  0  0
   -3.4679   22.5488  -30.4026 H   0  0  0  0  0  0  0  0  0  0  0  0
   -3.4789   19.2069  -31.7125 H   0  0  0  0  0  0  0  0  0  0  0  0
   -3.3237   20.9293  -31.2774 H   0  0  0  0  0  0  0  0  0  0  0  0
   -2.7730   19.7305  -33.8240 H   0  0  0  0  0  0  0  0  0  0  0  0
   -2.4308   21.4041  -33.3658 H   0  0  0  0  0  0  0  0  0  0  0  0
   -0.5971   19.0221  -33.4603 H   0  0  0  0  0  0  0  0  0  0  0  0
   -0.1789   20.7257  -33.6345 H   0  0  0  0  0  0  0  0  0  0  0  0
    0.3694   19.3173  -31.3551 H   0  0  0  0  0  0  0  0  0  0  0  0
   -0.0272   21.0459  -31.2809 H   0  0  0  0  0  0  0  0  0  0  0  0
    0.1705   22.3088  -28.0736 H   0  0  0  0  0  0  0  0  0  0  0  0
    0.2538   24.7938  -27.9458 H   0  0  0  0  0  0  0  0  0  0  0  0
   -6.9388   22.7027  -30.1468 H   0  0  0  0  0  0  0  0  0  0  0  0
   -8.5928   21.3651  -30.9455 H   0  0  0  0  0  0  0  0  0  0  0  0
  -10.1182   19.4037  -31.1275 H   0  0  0  0  0  0  0  0  0  0  0  0
   -9.3834   17.3564  -32.3484 H   0  0  0  0  0  0  0  0  0  0  0  0
   -7.1258   17.2715  -33.3987 H   0  0  0  0  0  0  0  0  0  0  0  0
   -4.7470   20.0420  -33.4860 H   0  0  0  0  0  0  0  0  0  0  0  0
  1  2  2  0
  2  3  1  0
  3  4  1  0
  4  5  2  0
  5  6  1  0
  6  7  1  0
  7  8  2  0
  7  9  2  0
  7 10  1  0
 10 11  1  0
 11 12  1  0
 12 13  1  0
 13 14  1  0
  6 15  2  0
 15 16  1  0
 16 17  2  0
 17 18  1  0
  2 19  1  0
 19 20  1  0
 20 21  2  0
 21 22  1  0
 22 23  2  0
 23 24  1  0
 24 25  2  0
 25 26  1  0
 26 27  2  0
 27 28  1  0
 21 29  1  0
 29 30  1  0
 17  4  1  0
 30 19  2  0
 14 10  1  0
 27 22  1  0
  5 31  1  0
 11 32  1  0
 11 33  1  0
 12 34  1  0
 12 35  1  0
 13 36  1  0
 13 37  1  0
 14 38  1  0
 14 39  1  0
 15 40  1  0
 16 41  1  0
 20 42  1  0
 23 43  1  0
 24 44  1  0
 25 45  1  0
 26 46  1  0
 28 47  1  0
M  CHG  3   3  -1  18  -1  29  -1
M  END
>  <UniqueID>  (16) 
16

>  <SMILES>  (16) 
O=C([N-]c1cc(S(=O)(=O)N2CCCC2)ccc1[O-])c1cc(-c2ccccc2O)[n-]n1

>  <Energy>  (16) 
89.61607596341275

>  <Genealogy>  (16) 
O=C([N-]c1cc(S(=O)(=O)N2CCCC2)ccc1[O-])c1cc(-c2ccccc2O)[n-]n1 (protonated)
O=C([N-]c1cc(S(=O)(=O)N2CCCC2)ccc1[O-])c1cc(-c2ccccc2O)[n-]n1 (3D coordinates assigned)
O=C([N-]c1cc(S(=O)(=O)N2CCCC2)ccc1[O-])c1cc(-c2ccccc2O)[n-]n1 (nonaromatic ring conformer: 89.61607596341275 kcal/mol)

>  <smiles>  (16) 
O=C(Nc1cc(S(=O)(=O)N2CCCC2)ccc1O)c1cc(-c2ccccc2O)[nH]n1

>  <score_type>  (16) 
oracle

>  <origin>  (16) 
adgpu

>  <m_score__min__energy>  (16) 
-14.550000000000001

>  <m_primary>  (16) 
energy

$$$$
16:0
     RDKit          3D

 58 62  0  0  0  0  0  0  0  0999 V2000
   -6.0080   17.9270  -31.5910 C   0  0  0  0  0  0  0  0  0  0  0  0
   -5.6100   18.0730  -33.0000 N   0  0  0  0  0  0  0  0  0  0  0  0
   -4.4490   17.2030  -33.2980 C   0  0  0  0  0  0  0  0  0  0  0  0
   -3.7310   17.6540  -34.5780 C   0  0  0  0  0  0  0  0  0  0  0  0
   -3.2300   19.0470  -34.4890 N   0  0  0  0  0  0  0  0  0  0  0  0
   -1.5020   19.0790  -34.2300 S   0  0  0  0  0  0  0  0  0  0  0  0
   -0.9010   17.7550  -34.6120 O   0  0  0  0  0  0  0  0  0  0  0  0
   -0.8770   20.1530  -35.0800 O   0  0  0  0  0  0  0  0  0  0  0  0
   -1.1670   19.3820  -32.5280 C   0  0  0  0  0  0  0  0  0  0  0  0
   -0.6490   18.3530  -31.7300 C   0  0  0  0  0  0  0  0  0  0  0  0
   -0.3900   18.5760  -30.3770 C   0  0  0  0  0  0  0  0  0  0  0  0
   -0.6560   19.8250  -29.8090 C   0  0  0  0  0  0  0  0  0  0  0  0
   -1.1960   20.8580  -30.5910 C   0  0  0  0  0  0  0  0  0  0  0  0
   -1.4620   22.1480  -30.0170 N   0  0  0  0  0  0  0  0  0  0  0  0
   -2.3990   23.0170  -30.4570 C   0  0  0  0  0  0  0  0  0  0  0  0
   -2.3310   24.1750  -29.7130 C   0  0  0  0  0  0  0  0  0  0  0  0
   -3.1300   25.2990  -29.8850 O   0  0  0  0  0  0  0  0  0  0  0  0
   -1.3410   24.0160  -28.7660 C   0  0  0  0  0  0  0  0  0  0  0  0
   -0.9350   25.0070  -27.7570 C   0  0  0  0  0  0  0  0  0  0  0  0
    0.2710   25.6330  -27.8100 N   0  0  0  0  0  0  0  0  0  0  0  0
    0.2400   26.4420  -26.7340 C   0  0  0  0  0  0  0  0  0  0  0  0
    1.2320   27.3200  -26.3050 C   0  0  0  0  0  0  0  0  0  0  0  0
    0.9770   28.0820  -25.1490 C   0  0  0  0  0  0  0  0  0  0  0  0
   -0.2520   27.9500  -24.4620 C   0  0  0  0  0  0  0  0  0  0  0  0
   -1.2350   27.0540  -24.9240 C   0  0  0  0  0  0  0  0  0  0  0  0
   -0.9460   26.3130  -26.0710 C   0  0  0  0  0  0  0  0  0  0  0  0
   -1.7100   25.4160  -26.7140 N   0  0  0  0  0  0  0  0  0  0  0  0
   -3.0850   25.0370  -26.3890 C   0  0  0  0  0  0  0  0  0  0  0  0
   -0.8150   22.7520  -28.9900 C   0  0  0  0  0  0  0  0  0  0  0  0
    0.2670   22.1690  -28.2600 N   0  0  0  0  0  0  0  0  0  0  0  0
   -1.4360   20.6340  -31.9560 C   0  0  0  0  0  0  0  0  0  0  0  0
   -3.9040   19.8580  -33.4550 C   0  0  0  0  0  0  0  0  0  0  0  0
   -5.3930   19.4990  -33.3550 C   0  0  0  0  0  0  0  0  0  0  0  0
   -5.1748   18.2326  -30.9411 H   0  0  0  0  0  0  0  0  0  0  0  0
   -6.8827   18.5628  -31.3893 H   0  0  0  0  0  0  0  0  0  0  0  0
   -6.2640   16.8764  -31.3893 H   0  0  0  0  0  0  0  0  0  0  0  0
   -3.7425   17.2466  -32.4560 H   0  0  0  0  0  0  0  0  0  0  0  0
   -4.8128   16.1756  -33.4464 H   0  0  0  0  0  0  0  0  0  0  0  0
   -2.8779   16.9834  -34.7586 H   0  0  0  0  0  0  0  0  0  0  0  0
   -4.4596   17.6134  -35.4011 H   0  0  0  0  0  0  0  0  0  0  0  0
   -0.4459   17.3662  -32.1716 H   0  0  0  0  0  0  0  0  0  0  0  0
    0.0241   17.7675  -29.7566 H   0  0  0  0  0  0  0  0  0  0  0  0
   -0.4412   19.9993  -28.7443 H   0  0  0  0  0  0  0  0  0  0  0  0
   -3.1048   22.8294  -31.2796 H   0  0  0  0  0  0  0  0  0  0  0  0
    2.1824   27.4150  -26.8507 H   0  0  0  0  0  0  0  0  0  0  0  0
    1.7382   28.7841  -24.7780 H   0  0  0  0  0  0  0  0  0  0  0  0
   -0.4413   28.5514  -23.5606 H   0  0  0  0  0  0  0  0  0  0  0  0
   -2.1957   26.9421  -24.4001 H   0  0  0  0  0  0  0  0  0  0  0  0
   -3.2075   25.0032  -25.2964 H   0  0  0  0  0  0  0  0  0  0  0  0
   -3.7794   25.7772  -26.8131 H   0  0  0  0  0  0  0  0  0  0  0  0
   -3.3021   24.0455  -26.8131 H   0  0  0  0  0  0  0  0  0  0  0  0
    0.5890   22.5890  -27.3600 H   0  0  0  0  0  0  0  0  0  0  0  0
    0.7410   21.3030  -28.5970 H   0  0  0  0  0  0  0  0  0  0  0  0
   -1.8375   21.4455  -32.5807 H   0  0  0  0  0  0  0  0  0  0  0  0
   -3.4236   19.6723  -32.4830 H   0  0  0  0  0  0  0  0  0  0  0  0
   -3.8182   20.9190  -33.7322 H   0  0  0  0  0  0  0  0  0  0  0  0
   -5.8572   20.1297  -32.5825 H   0  0  0  0  0  0  0  0  0  0  0  0
   -5.8461   19.6711  -34.3424 H   0  0  0  0  0  0  0  0  0  0  0  0
  1  2  1  0
  2  3  1  0
  3  4  1  0
  4  5  1  0
  5  6  1  0
  6  7  2  0
  6  8  2  0
  6  9  1  0
  9 10  2  0
 10 11  1  0
 11 12  2  0
 12 13  1  0
 13 14  1  0
 14 15  1  0
 15 16  2  0
 16 17  1  0
 16 18  1  0
 18 19  1  0
 19 20  2  0
 20 21  1  0
 21 22  2  0
 22 23  1  0
 23 24  2  0
 24 25  1  0
 25 26  2  0
 26 27  1  0
 27 28  1  0
 18 29  2  0
 29 30  1  0
 13 31  2  0
  5 32  1  0
 32 33  1  0
 33  2  1  0
 31  9  1  0
 29 14  1  0
 27 19  1  0
 26 21  1  0
  1 34  1  0
  1 35  1  0
  1 36  1  0
  3 37  1  0
  3 38  1  0
  4 39  1  0
  4 40  1  0
 10 41  1  0
 11 42  1  0
 12 43  1  0
 15 44  1  0
 22 45  1  0
 23 46  1  0
 24 47  1  0
 25 48  1  0
 28 49  1  0
 28 50  1  0
 28 51  1  0
 30 52  1  0
 30 53  1  0
 31 54  1  0
 32 55  1  0
 32 56  1  0
 33 57  1  0
 33 58  1  0
M  CHG  1  17  -1
M  END
>  <UniqueID>  (17) 
17

>  <SMILES>  (17) 
CN1CCN(S(=O)(=O)c2cccc(-n3cc([O-])c(-c4nc5ccccc5n4C)c3N)c2)CC1

>  <Energy>  (17) 
149.68868143556597

>  <Genealogy>  (17) 
CN1CCN(S(=O)(=O)c2cccc(-n3cc([O-])c(-c4nc5ccccc5n4C)c3N)c2)CC1 (protonated)
CN1CCN(S(=O)(=O)c2cccc(-n3cc([O-])c(-c4nc5ccccc5n4C)c3N)c2)CC1 (3D coordinates assigned)
CN1CCN(S(=O)(=O)c2cccc(-n3cc([O-])c(-c4nc5ccccc5n4C)c3N)c2)CC1 (nonaromatic ring conformer: 149.68868143556597 kcal/mol)

>  <smiles>  (17) 
CN1CCN(S(=O)(=O)c2cccc(-n3cc(O)c(-c4nc5ccccc5n4C)c3N)c2)CC1

>  <score_type>  (17) 
oracle

>  <origin>  (17) 
adgpu

>  <m_score__min__energy>  (17) 
-12.16

>  <m_primary>  (17) 
energy

$$$$
17:0
     RDKit          3D

 42 44  0  0  0  0  0  0  0  0999 V2000
   -1.6590   21.5600  -33.6440 N   0  0  0  0  0  0  0  0  0  0  0  0
   -2.6210   20.5040  -33.5770 C   0  0  0  0  0  0  0  0  0  0  0  0
   -2.2570   19.1960  -33.9240 C   0  0  0  0  0  0  0  0  0  0  0  0
   -3.1940   18.1620  -33.8430 C   0  0  0  0  0  0  0  0  0  0  0  0
   -4.5010   18.4310  -33.4270 C   0  0  0  0  0  0  0  0  0  0  0  0
   -4.8860   19.7370  -33.1030 C   0  0  0  0  0  0  0  0  0  0  0  0
   -6.2360   19.9750  -32.6770 N   0  0  0  0  0  0  0  0  0  0  0  0
   -6.6480   20.8140  -31.5890 C   0  0  0  0  0  0  0  0  0  0  0  0
   -7.6410   20.4660  -30.8970 O   0  0  0  0  0  0  0  0  0  0  0  0
   -5.9580   22.0840  -31.2700 C   0  0  0  0  0  0  0  0  0  0  0  0
   -4.6810   22.0300  -30.6870 C   0  0  0  0  0  0  0  0  0  0  0  0
   -3.9750   23.2050  -30.3940 C   0  0  0  0  0  0  0  0  0  0  0  0
   -2.3570   23.1000  -29.6910 S   0  0  0  0  0  0  0  0  0  0  0  0
   -2.3580   21.9930  -28.6750 O   0  0  0  0  0  0  0  0  0  0  0  0
   -1.3530   22.7880  -30.7670 O   0  0  0  0  0  0  0  0  0  0  0  0
   -1.9360   24.6130  -28.9150 N   0  0  0  0  0  0  0  0  0  0  0  0
   -0.5070   24.6410  -28.5830 C   0  0  0  0  0  0  0  0  0  0  0  0
   -0.3410   24.1890  -27.1380 C   0  0  0  0  0  0  0  0  0  0  0  0
   -1.7340   24.2070  -26.5410 C   0  0  0  0  0  0  0  0  0  0  0  0
   -2.6390   24.7500  -27.6360 C   0  0  0  0  0  0  0  0  0  0  0  0
   -4.5520   24.4500  -30.6970 C   0  0  0  0  0  0  0  0  0  0  0  0
   -3.8630   25.6320  -30.4500 O   0  0  0  0  0  0  0  0  0  0  0  0
   -5.8320   24.5110  -31.2530 C   0  0  0  0  0  0  0  0  0  0  0  0
   -6.5430   23.3400  -31.5320 C   0  0  0  0  0  0  0  0  0  0  0  0
   -8.1870   23.4950  -32.1470 Cl  0  0  0  0  0  0  0  0  0  0  0  0
   -3.9330   20.7710  -33.1570 C   0  0  0  0  0  0  0  0  0  0  0  0
   -1.2450   21.9630  -32.7730 H   0  0  0  0  0  0  0  0  0  0  0  0
   -1.3540   21.9490  -34.5640 H   0  0  0  0  0  0  0  0  0  0  0  0
   -1.2318   18.9826  -34.2608 H   0  0  0  0  0  0  0  0  0  0  0  0
   -2.9023   17.1348  -34.1071 H   0  0  0  0  0  0  0  0  0  0  0  0
   -5.2312   17.6116  -33.3538 H   0  0  0  0  0  0  0  0  0  0  0  0
   -4.2295   21.0535  -30.4576 H   0  0  0  0  0  0  0  0  0  0  0  0
    0.0430   23.9614  -29.2505 H   0  0  0  0  0  0  0  0  0  0  0  0
   -0.1093   25.6588  -28.7090 H   0  0  0  0  0  0  0  0  0  0  0  0
    0.0798   23.1734  -27.0996 H   0  0  0  0  0  0  0  0  0  0  0  0
    0.3471   24.8442  -26.5838 H   0  0  0  0  0  0  0  0  0  0  0  0
   -2.0431   23.1906  -26.2558 H   0  0  0  0  0  0  0  0  0  0  0  0
   -1.7798   24.8233  -25.6310 H   0  0  0  0  0  0  0  0  0  0  0  0
   -3.5775   24.1769  -27.6628 H   0  0  0  0  0  0  0  0  0  0  0  0
   -2.8797   25.8060  -27.4438 H   0  0  0  0  0  0  0  0  0  0  0  0
   -6.2846   25.4891  -31.4733 H   0  0  0  0  0  0  0  0  0  0  0  0
   -4.2179   21.7936  -32.8686 H   0  0  0  0  0  0  0  0  0  0  0  0
  1  2  1  0
  2  3  2  0
  3  4  1  0
  4  5  2  0
  5  6  1  0
  6  7  1  0
  7  8  1  0
  8  9  2  0
  8 10  1  0
 10 11  2  0
 11 12  1  0
 12 13  1  0
 13 14  2  0
 13 15  2  0
 13 16  1  0
 16 17  1  0
 17 18  1  0
 18 19  1  0
 19 20  1  0
 12 21  2  0
 21 22  1  0
 21 23  1  0
 23 24  2  0
 24 25  1  0
  6 26  2  0
 26  2  1  0
 24 10  1  0
 20 16  1  0
  1 27  1  0
  1 28  1  0
  3 29  1  0
  4 30  1  0
  5 31  1  0
 11 32  1  0
 17 33  1  0
 17 34  1  0
 18 35  1  0
 18 36  1  0
 19 37  1  0
 19 38  1  0
 20 39  1  0
 20 40  1  0
 23 41  1  0
 26 42  1  0
M  CHG  2   7  -1  22  -1
M  END
>  <UniqueID>  (18) 
18

>  <SMILES>  (18) 
Nc1cccc([N-]C(=O)c2cc(S(=O)(=O)N3CCCC3)c([O-])cc2Cl)c1

>  <Energy>  (18) 
53.66995233522728

>  <Genealogy>  (18) 
Nc1cccc([N-]C(=O)c2cc(S(=O)(=O)N3CCCC3)c([O-])cc2Cl)c1 (protonated)
Nc1cccc([N-]C(=O)c2cc(S(=O)(=O)N3CCCC3)c([O-])cc2Cl)c1 (3D coordinates assigned)
Nc1cccc([N-]C(=O)c2cc(S(=O)(=O)N3CCCC3)c([O-])cc2Cl)c1 (nonaromatic ring conformer: 53.66995233522728 kcal/mol)

>  <smiles>  (18) 
Nc1cccc(NC(=O)c2cc(S(=O)(=O)N3CCCC3)c(O)cc2Cl)c1

>  <score_type>  (18) 
oracle

>  <origin>  (18) 
adgpu

>  <m_score__min__energy>  (18) 
-10.76

>  <m_primary>  (18) 
energy

$$$$
18:0
     RDKit          3D

 43 45  0  0  0  0  0  0  0  0999 V2000
   -5.3450   24.0270  -32.0210 O   0  0  0  0  0  0  0  0  0  0  0  0
   -6.1160   23.0560  -31.7980 C   0  0  0  0  0  0  0  0  0  0  0  0
   -7.5460   23.2150  -31.4720 C   0  0  0  0  0  0  0  0  0  0  0  0
   -8.0260   21.7700  -31.2820 C   0  0  0  0  0  0  0  0  0  0  0  0
   -6.8960   20.8520  -31.7800 C   0  0  0  0  0  0  0  0  0  0  0  0
   -5.7210   21.6990  -31.9180 N   0  0  0  0  0  0  0  0  0  0  0  0
   -4.3980   21.2260  -32.2440 C   0  0  0  0  0  0  0  0  0  0  0  0
   -4.1010   20.7500  -33.5340 C   0  0  0  0  0  0  0  0  0  0  0  0
   -2.8260   20.2630  -33.8320 C   0  0  0  0  0  0  0  0  0  0  0  0
   -1.8330   20.2450  -32.8500 C   0  0  0  0  0  0  0  0  0  0  0  0
   -2.1090   20.7320  -31.5650 C   0  0  0  0  0  0  0  0  0  0  0  0
   -0.8920   20.6790  -30.2970 S   0  0  0  0  0  0  0  0  0  0  0  0
   -0.3340   22.0620  -30.1110 O   0  0  0  0  0  0  0  0  0  0  0  0
    0.2330   19.7570  -30.6780 O   0  0  0  0  0  0  0  0  0  0  0  0
   -1.6140   20.1550  -28.8020 N   0  0  0  0  0  0  0  0  0  0  0  0
   -0.8680   20.6410  -27.6360 C   0  0  0  0  0  0  0  0  0  0  0  0
   -1.6290   21.7540  -26.8980 C   0  0  0  0  0  0  0  0  0  0  0  0
   -2.2140   22.7920  -27.8270 C   0  0  0  0  0  0  0  0  0  0  0  0
   -3.4840   22.6060  -28.4010 C   0  0  0  0  0  0  0  0  0  0  0  0
   -4.0170   23.5670  -29.2650 C   0  0  0  0  0  0  0  0  0  0  0  0
   -3.2810   24.7150  -29.5780 C   0  0  0  0  0  0  0  0  0  0  0  0
   -3.8180   25.6680  -30.4350 O   0  0  0  0  0  0  0  0  0  0  0  0
   -2.0050   24.8970  -29.0330 C   0  0  0  0  0  0  0  0  0  0  0  0
   -1.2630   26.0280  -29.3520 O   0  0  0  0  0  0  0  0  0  0  0  0
   -1.4710   23.9350  -28.1690 C   0  0  0  0  0  0  0  0  0  0  0  0
   -3.3820   21.2340  -31.2720 C   0  0  0  0  0  0  0  0  0  0  0  0
   -7.6775   23.7987  -30.5490 H   0  0  0  0  0  0  0  0  0  0  0  0
   -8.1072   23.7572  -32.2474 H   0  0  0  0  0  0  0  0  0  0  0  0
   -8.2293   21.5761  -30.2185 H   0  0  0  0  0  0  0  0  0  0  0  0
   -8.9553   21.5880  -31.8417 H   0  0  0  0  0  0  0  0  0  0  0  0
   -6.7057   20.0505  -31.0510 H   0  0  0  0  0  0  0  0  0  0  0  0
   -7.1593   20.3706  -32.7334 H   0  0  0  0  0  0  0  0  0  0  0  0
   -4.8776   20.7613  -34.3130 H   0  0  0  0  0  0  0  0  0  0  0  0
   -2.6034   19.8925  -34.8435 H   0  0  0  0  0  0  0  0  0  0  0  0
   -0.8342   19.8486  -33.0851 H   0  0  0  0  0  0  0  0  0  0  0  0
   -0.7029   19.8024  -26.9435 H   0  0  0  0  0  0  0  0  0  0  0  0
    0.0881   21.0550  -27.9887 H   0  0  0  0  0  0  0  0  0  0  0  0
   -2.4487   21.2963  -26.3247 H   0  0  0  0  0  0  0  0  0  0  0  0
   -0.9063   22.2680  -26.2472 H   0  0  0  0  0  0  0  0  0  0  0  0
   -4.0615   21.6990  -28.1688 H   0  0  0  0  0  0  0  0  0  0  0  0
   -5.0168   23.4204  -29.6996 H   0  0  0  0  0  0  0  0  0  0  0  0
   -0.4618   24.0742  -27.7541 H   0  0  0  0  0  0  0  0  0  0  0  0
   -3.5900   21.6391  -30.2707 H   0  0  0  0  0  0  0  0  0  0  0  0
  1  2  2  0
  2  3  1  0
  3  4  1  0
  4  5  1  0
  5  6  1  0
  6  7  1  0
  7  8  2  0
  8  9  1  0
  9 10  2  0
 10 11  1  0
 11 12  1  0
 12 13  2  0
 12 14  2  0
 12 15  1  0
 15 16  1  0
 16 17  1  0
 17 18  1  0
 18 19  2  0
 19 20  1  0
 20 21  2  0
 21 22  1  0
 21 23  1  0
 23 24  1  0
 23 25  2  0
 11 26  2  0
  6  2  1  0
 26  7  1  0
 25 18  1  0
  3 27  1  0
  3 28  1  0
  4 29  1  0
  4 30  1  0
  5 31  1  0
  5 32  1  0
  8 33  1  0
  9 34  1  0
 10 35  1  0
 16 36  1  0
 16 37  1  0
 17 38  1  0
 17 39  1  0
 19 40  1  0
 20 41  1  0
 25 42  1  0
 26 43  1  0
M  CHG  3  15  -1  22  -1  24  -1
M  END
>  <UniqueID>  (19) 
19

>  <SMILES>  (19) 
O=C1CCCN1c1cccc(S(=O)(=O)[N-]CCc2ccc([O-])c([O-])c2)c1

>  <Energy>  (19) 
50.52968491003825

>  <Genealogy>  (19) 
O=C1CCCN1c1cccc(S(=O)(=O)[N-]CCc2ccc([O-])c([O-])c2)c1 (protonated)
O=C1CCCN1c1cccc(S(=O)(=O)[N-]CCc2ccc([O-])c([O-])c2)c1 (3D coordinates assigned)
O=C1CCCN1c1cccc(S(=O)(=O)[N-]CCc2ccc([O-])c([O-])c2)c1 (nonaromatic ring conformer: 50.52968491003825 kcal/mol)

>  <smiles>  (19) 
O=C1CCCN1c1cccc(S(=O)(=O)NCCc2ccc(O)c(O)c2)c1

>  <score_type>  (19) 
oracle

>  <origin>  (19) 
adgpu

>  <m_score__min__energy>  (19) 
-14.32

>  <m_primary>  (19) 
energy

$$$$
19:0
     RDKit          3D

 58 61  0  0  0  0  0  0  0  0999 V2000
   -4.9910   24.1770  -28.9990 C   0  0  0  0  0  0  0  0  0  0  0  0
   -3.6570   24.5080  -29.5890 C   0  0  0  0  0  0  0  0  0  0  0  0
   -3.6140   25.2720  -30.5920 O   0  0  0  0  0  0  0  0  0  0  0  0
   -2.3970   23.9450  -29.0430 C   0  0  0  0  0  0  0  0  0  0  0  0
   -1.2230   24.7160  -28.9430 C   0  0  0  0  0  0  0  0  0  0  0  0
   -1.2090   26.0490  -29.3350 O   0  0  0  0  0  0  0  0  0  0  0  0
   -0.1100   24.1880  -28.4480 O   0  0  0  0  0  0  0  0  0  0  0  0
   -0.0270   22.9300  -28.0270 C   0  0  0  0  0  0  0  0  0  0  0  0
    1.0630   22.5210  -27.5490 O   0  0  0  0  0  0  0  0  0  0  0  0
   -1.1470   22.0790  -28.0990 C   0  0  0  0  0  0  0  0  0  0  0  0
   -1.0780   20.6630  -27.6610 C   0  0  0  0  0  0  0  0  0  0  0  0
   -1.1620   20.3980  -26.4340 O   0  0  0  0  0  0  0  0  0  0  0  0
   -0.8740   19.5790  -28.5800 N   0  0  0  0  0  0  0  0  0  0  0  0
    0.2100   19.4160  -29.5070 C   0  0  0  0  0  0  0  0  0  0  0  0
    1.4480   18.8730  -29.1180 C   0  0  0  0  0  0  0  0  0  0  0  0
    2.4750   18.7250  -30.0530 C   0  0  0  0  0  0  0  0  0  0  0  0
    2.2810   19.1270  -31.3760 C   0  0  0  0  0  0  0  0  0  0  0  0
    1.0640   19.6880  -31.7750 C   0  0  0  0  0  0  0  0  0  0  0  0
    0.9220   20.1260  -33.1370 N   0  0  0  0  0  0  0  0  0  0  0  0
   -0.1600   20.8820  -33.7000 C   0  0  0  0  0  0  0  0  0  0  0  0
    0.1140   21.9350  -34.3350 O   0  0  0  0  0  0  0  0  0  0  0  0
   -1.5750   20.4540  -33.5880 C   0  0  0  0  0  0  0  0  0  0  0  0
   -1.9310   19.1270  -33.8890 C   0  0  0  0  0  0  0  0  0  0  0  0
   -3.2660   18.7220  -33.8280 C   0  0  0  0  0  0  0  0  0  0  0  0
   -4.2650   19.6340  -33.4720 C   0  0  0  0  0  0  0  0  0  0  0  0
   -5.9580   19.1390  -33.4750 S   0  0  0  0  0  0  0  0  0  0  0  0
   -6.0570   17.7190  -33.9590 O   0  0  0  0  0  0  0  0  0  0  0  0
   -6.7190   20.0070  -34.4390 O   0  0  0  0  0  0  0  0  0  0  0  0
   -6.6870   19.2530  -31.8860 N   0  0  0  0  0  0  0  0  0  0  0  0
   -7.2720   20.5830  -31.6330 C   0  0  0  0  0  0  0  0  0  0  0  0
   -8.6980   20.7390  -32.2130 C   0  0  0  0  0  0  0  0  0  0  0  0
   -9.2790   19.5200  -32.6290 O   0  0  0  0  0  0  0  0  0  0  0  0
   -9.0840   18.5390  -31.6410 C   0  0  0  0  0  0  0  0  0  0  0  0
   -7.6040   18.1320  -31.5870 C   0  0  0  0  0  0  0  0  0  0  0  0
   -3.9120   20.9460  -33.1310 C   0  0  0  0  0  0  0  0  0  0  0  0
   -2.5760   21.3510  -33.1790 C   0  0  0  0  0  0  0  0  0  0  0  0
    0.0400   19.8610  -30.8240 C   0  0  0  0  0  0  0  0  0  0  0  0
   -2.3470   22.6090  -28.6030 C   0  0  0  0  0  0  0  0  0  0  0  0
   -3.4750   21.7980  -28.7020 O   0  0  0  0  0  0  0  0  0  0  0  0
   -4.9210   24.1944  -27.9014 H   0  0  0  0  0  0  0  0  0  0  0  0
   -5.7328   24.9183  -29.3309 H   0  0  0  0  0  0  0  0  0  0  0  0
   -5.3003   23.1749  -29.3309 H   0  0  0  0  0  0  0  0  0  0  0  0
    1.6077   18.5641  -28.0744 H   0  0  0  0  0  0  0  0  0  0  0  0
    3.4382   18.2910  -29.7466 H   0  0  0  0  0  0  0  0  0  0  0  0
    3.0912   19.0015  -32.1094 H   0  0  0  0  0  0  0  0  0  0  0  0
   -1.1529   18.4037  -34.1742 H   0  0  0  0  0  0  0  0  0  0  0  0
   -3.5333   17.6807  -34.0610 H   0  0  0  0  0  0  0  0  0  0  0  0
   -7.3166   20.7448  -30.5459 H   0  0  0  0  0  0  0  0  0  0  0  0
   -6.6313   21.3238  -32.1337 H   0  0  0  0  0  0  0  0  0  0  0  0
   -9.3409   21.1837  -31.4391 H   0  0  0  0  0  0  0  0  0  0  0  0
   -8.6137   21.3759  -33.1059 H   0  0  0  0  0  0  0  0  0  0  0  0
   -9.3865   18.9421  -30.6632 H   0  0  0  0  0  0  0  0  0  0  0  0
   -9.6919   17.6555  -31.8856 H   0  0  0  0  0  0  0  0  0  0  0  0
   -7.3803   17.7553  -30.5780 H   0  0  0  0  0  0  0  0  0  0  0  0
   -7.4454   17.3620  -32.3563 H   0  0  0  0  0  0  0  0  0  0  0  0
   -4.6902   21.6604  -32.8241 H   0  0  0  0  0  0  0  0  0  0  0  0
   -2.3059   22.3788  -32.8948 H   0  0  0  0  0  0  0  0  0  0  0  0
   -0.9008   20.3495  -31.1178 H   0  0  0  0  0  0  0  0  0  0  0  0
  1  2  1  0
  2  3  2  0
  2  4  1  0
  4  5  2  0
  5  6  1  0
  5  7  1  0
  7  8  1  0
  8  9  2  0
  8 10  1  0
 10 11  1  0
 11 12  2  0
 11 13  1  0
 13 14  1  0
 14 15  2  0
 15 16  1  0
 16 17  2  0
 17 18  1  0
 18 19  1  0
 19 20  1  0
 20 21  2  0
 20 22  1  0
 22 23  2  0
 23 24  1  0
 24 25  2  0
 25 26  1  0
 26 27  2  0
 26 28  2  0
 26 29  1  0
 29 30  1  0
 30 31  1  0
 31 32  1  0
 32 33  1  0
 33 34  1  0
 25 35  1  0
 35 36  2  0
 18 37  2  0
 10 38  2  0
 38 39  1  0
 38  4  1  0
 37 14  1  0
 36 22  1  0
 34 29  1  0
  1 40  1  0
  1 41  1  0
  1 42  1  0
 15 43  1  0
 16 44  1  0
 17 45  1  0
 23 46  1  0
 24 47  1  0
 30 48  1  0
 30 49  1  0
 31 50  1  0
 31 51  1  0
 33 52  1  0
 33 53  1  0
 34 54  1  0
 34 55  1  0
 35 56  1  0
 36 57  1  0
 37 58  1  0
M  CHG  4   6  -1  13  -1  19  -1  39  -1
M  END
>  <UniqueID>  (20) 
20

>  <SMILES>  (20) 
CC(=O)c1c([O-])oc(=O)c(C(=O)[N-]c2cccc([N-]C(=O)c3ccc(S(=O)(=O)N4CCOCC4)cc3)c2)c1[O-]

>  <Energy>  (20) 
92.4909202243155

>  <Genealogy>  (20) 
CC(=O)c1c([O-])oc(=O)c(C(=O)[N-]c2cccc([N-]C(=O)c3ccc(S(=O)(=O)N4CCOCC4)cc3)c2)c1[O-] (protonated)
CC(=O)c1c([O-])oc(=O)c(C(=O)[N-]c2cccc([N-]C(=O)c3ccc(S(=O)(=O)N4CCOCC4)cc3)c2)c1[O-] (3D coordinates assigned)
CC(=O)c1c([O-])oc(=O)c(C(=O)[N-]c2cccc([N-]C(=O)c3ccc(S(=O)(=O)N4CCOCC4)cc3)c2)c1[O-] (nonaromatic ring conformer: 92.4909202243155 kcal/mol)

>  <smiles>  (20) 
CC(=O)c1c(O)oc(=O)c(C(=O)Nc2cccc(NC(=O)c3ccc(S(=O)(=O)N4CCOCC4)cc3)c2)c1O

>  <score_type>  (20) 
oracle

>  <origin>  (20) 
adgpu

>  <m_score__min__energy>  (20) 
-13.869999999999999

>  <m_primary>  (20) 
energy

$$$$
20:0
     RDKit          3D

 66 70  0  0  0  0  0  0  0  0999 V2000
   -2.4770   15.1930  -35.9220 C   0  0  0  0  0  0  0  0  0  0  0  0
   -3.8700   15.3720  -35.6980 O   0  0  0  0  0  0  0  0  0  0  0  0
   -4.3840   16.4350  -34.9480 C   0  0  0  0  0  0  0  0  0  0  0  0
   -4.2760   16.4070  -33.5550 C   0  0  0  0  0  0  0  0  0  0  0  0
   -4.7850   17.4680  -32.8050 C   0  0  0  0  0  0  0  0  0  0  0  0
   -5.3900   18.5520  -33.4530 C   0  0  0  0  0  0  0  0  0  0  0  0
   -5.9320   19.6820  -32.6710 C   0  0  0  0  0  0  0  0  0  0  0  0
   -7.3240   19.7940  -32.6010 C   0  0  0  0  0  0  0  0  0  0  0  0
   -7.8980   20.8110  -31.8560 C   0  0  0  0  0  0  0  0  0  0  0  0
   -7.1120   21.6820  -31.1840 N   0  0  0  0  0  0  0  0  0  0  0  0
   -5.7520   21.6250  -31.2120 C   0  0  0  0  0  0  0  0  0  0  0  0
   -5.0430   22.5910  -30.4280 N   0  0  0  0  0  0  0  0  0  0  0  0
   -5.4540   22.8050  -29.0410 C   0  0  0  0  0  0  0  0  0  0  0  0
   -4.2600   23.3460  -28.2530 C   0  0  0  0  0  0  0  0  0  0  0  0
   -3.6730   24.5690  -28.8560 N   0  0  0  0  0  0  0  0  0  0  0  0
   -1.9260   24.5520  -28.7780 S   0  0  0  0  0  0  0  0  0  0  0  0
   -1.4040   25.9550  -28.9090 O   0  0  0  0  0  0  0  0  0  0  0  0
   -1.3600   23.7250  -29.8990 O   0  0  0  0  0  0  0  0  0  0  0  0
   -1.3960   23.8980  -27.2300 C   0  0  0  0  0  0  0  0  0  0  0  0
   -1.2910   22.5170  -27.0500 C   0  0  0  0  0  0  0  0  0  0  0  0
   -0.8450   22.0040  -25.8310 C   0  0  0  0  0  0  0  0  0  0  0  0
   -0.5010   22.8850  -24.7990 C   0  0  0  0  0  0  0  0  0  0  0  0
   -0.0810   22.4110  -23.6690 N   0  0  0  0  0  0  0  0  0  0  0  0
   -0.6040   24.2330  -24.9930 N   0  0  0  0  0  0  0  0  0  0  0  0
   -1.0390   24.7490  -26.1750 C   0  0  0  0  0  0  0  0  0  0  0  0
   -4.1510   24.9090  -30.2160 C   0  0  0  0  0  0  0  0  0  0  0  0
   -4.3430   23.6810  -31.1250 C   0  0  0  0  0  0  0  0  0  0  0  0
   -5.0960   20.6200  -31.9930 C   0  0  0  0  0  0  0  0  0  0  0  0
   -3.5660   20.4490  -32.0750 C   0  0  0  0  0  0  0  0  0  0  0  0
   -2.8730   20.6900  -30.7280 C   0  0  0  0  0  0  0  0  0  0  0  0
   -1.3650   20.4260  -30.8670 C   0  0  0  0  0  0  0  0  0  0  0  0
   -0.7930   21.2330  -31.8820 O   0  0  0  0  0  0  0  0  0  0  0  0
   -1.3490   20.9020  -33.1420 C   0  0  0  0  0  0  0  0  0  0  0  0
   -2.8440   21.2400  -33.1760 C   0  0  0  0  0  0  0  0  0  0  0  0
   -5.4940   18.5380  -34.8500 C   0  0  0  0  0  0  0  0  0  0  0  0
   -4.9890   17.4930  -35.5590 N   0  0  0  0  0  0  0  0  0  0  0  0
   -1.9559   15.1260  -34.9556 H   0  0  0  0  0  0  0  0  0  0  0  0
   -2.3133   14.2664  -36.4918 H   0  0  0  0  0  0  0  0  0  0  0  0
   -2.0844   16.0481  -36.4918 H   0  0  0  0  0  0  0  0  0  0  0  0
   -3.7935   15.5551  -33.0536 H   0  0  0  0  0  0  0  0  0  0  0  0
   -4.7112   17.4529  -31.7076 H   0  0  0  0  0  0  0  0  0  0  0  0
   -7.9622   19.0758  -33.1366 H   0  0  0  0  0  0  0  0  0  0  0  0
   -8.9926   20.9099  -31.8111 H   0  0  0  0  0  0  0  0  0  0  0  0
   -6.2793   23.5315  -29.0075 H   0  0  0  0  0  0  0  0  0  0  0  0
   -5.7945   21.8562  -28.6006 H   0  0  0  0  0  0  0  0  0  0  0  0
   -4.5927   23.5837  -27.2318 H   0  0  0  0  0  0  0  0  0  0  0  0
   -3.4814   22.5691  -28.2609 H   0  0  0  0  0  0  0  0  0  0  0  0
   -1.5598   21.8336  -27.8690 H   0  0  0  0  0  0  0  0  0  0  0  0
   -0.7645   20.9170  -25.6826 H   0  0  0  0  0  0  0  0  0  0  0  0
    0.1880   23.0320  -22.8710 H   0  0  0  0  0  0  0  0  0  0  0  0
   -0.3440   24.8960  -24.2280 H   0  0  0  0  0  0  0  0  0  0  0  0
   -1.1107   25.8392  -26.3029 H   0  0  0  0  0  0  0  0  0  0  0  0
   -5.1158   25.4296  -30.1258 H   0  0  0  0  0  0  0  0  0  0  0  0
   -3.3788   25.5387  -30.6821 H   0  0  0  0  0  0  0  0  0  0  0  0
   -4.9326   23.9778  -32.0049 H   0  0  0  0  0  0  0  0  0  0  0  0
   -3.3487   23.3153  -31.4211 H   0  0  0  0  0  0  0  0  0  0  0  0
   -3.4708   19.3921  -32.3646 H   0  0  0  0  0  0  0  0  0  0  0  0
   -3.0345   21.7321  -30.4149 H   0  0  0  0  0  0  0  0  0  0  0  0
   -3.2943   20.0085  -29.9743 H   0  0  0  0  0  0  0  0  0  0  0  0
   -0.8720   20.6510  -29.9098 H   0  0  0  0  0  0  0  0  0  0  0  0
   -1.2208   19.3702  -31.1399 H   0  0  0  0  0  0  0  0  0  0  0  0
   -0.8312   21.4725  -33.9271 H   0  0  0  0  0  0  0  0  0  0  0  0
   -1.2249   19.8224  -33.3125 H   0  0  0  0  0  0  0  0  0  0  0  0
   -2.9814   22.3179  -33.0049 H   0  0  0  0  0  0  0  0  0  0  0  0
   -3.2612   20.9717  -34.1578 H   0  0  0  0  0  0  0  0  0  0  0  0
   -5.9841   19.3722  -35.3734 H   0  0  0  0  0  0  0  0  0  0  0  0
  1  2  1  0
  2  3  1  0
  3  4  2  0
  4  5  1  0
  5  6  2  0
  6  7  1  0
  7  8  2  0
  8  9  1  0
  9 10  2  0
 10 11  1  0
 11 12  1  0
 12 13  1  0
 13 14  1  0
 14 15  1  0
 15 16  1  0
 16 17  2  0
 16 18  2  0
 16 19  1  0
 19 20  1  0
 20 21  2  0
 21 22  1  0
 22 23  2  3
 22 24  1  0
 24 25  1  0
 15 26  1  0
 26 27  1  0
 11 28  2  0
 28 29  1  0
 29 30  1  0
 30 31  1  0
 31 32  1  0
 32 33  1  0
 33 34  1  0
  6 35  1  0
 35 36  2  0
 36  3  1  0
 28  7  1  0
 34 29  1  0
 27 12  1  0
 25 19  2  0
  1 37  1  0
  1 38  1  0
  1 39  1  0
  4 40  1  0
  5 41  1  0
  8 42  1  0
  9 43  1  0
 13 44  1  0
 13 45  1  0
 14 46  1  0
 14 47  1  0
 20 48  1  0
 21 49  1  0
 23 50  1  0
 24 51  1  0
 25 52  1  0
 26 53  1  0
 26 54  1  0
 27 55  1  0
 27 56  1  0
 29 57  1  0
 30 58  1  0
 30 59  1  0
 31 60  1  0
 31 61  1  0
 33 62  1  0
 33 63  1  0
 34 64  1  0
 34 65  1  0
 35 66  1  0
M  END
>  <UniqueID>  (21) 
21

>  <SMILES>  (21) 
COc1ccc(-c2ccnc(N3CCN(S(=O)(=O)c4ccc(=N)[nH]c4)CC3)c2C2CCOCC2)cn1

>  <Energy>  (21) 
96.1977231494818

>  <Genealogy>  (21) 
COc1ccc(-c2ccnc(N3CCN(S(=O)(=O)c4ccc(=N)[nH]c4)CC3)c2C2CCOCC2)cn1 (3D coordinates assigned)
COc1ccc(-c2ccnc(N3CCN(S(=O)(=O)c4ccc(=N)[nH]c4)CC3)c2C2CCOCC2)cn1 (nonaromatic ring conformer: 96.1977231494818 kcal/mol)

>  <smiles>  (21) 
COc1ccc(-c2ccnc(N3CCN(S(=O)(=O)c4ccc(=N)[nH]c4)CC3)c2C2CCOCC2)cn1

>  <score_type>  (21) 
oracle

>  <origin>  (21) 
adgpu

>  <m_score__min__energy>  (21) 
-9.5199999999999996

>  <m_primary>  (21) 
energy

$$$$
21:0
     RDKit          3D

 59 63  0  0  0  0  0  0  0  0999 V2000
   -5.7060   26.2130  -31.0020 O   0  0  0  0  0  0  0  0  0  0  0  0
   -5.1350   25.0940  -30.9110 C   0  0  0  0  0  0  0  0  0  0  0  0
   -3.7580   25.0490  -30.5120 N   0  0  0  0  0  0  0  0  0  0  0  0
   -3.2680   24.5870  -29.2440 C   0  0  0  0  0  0  0  0  0  0  0  0
   -4.1730   24.0390  -28.3270 C   0  0  0  0  0  0  0  0  0  0  0  0
   -3.7250   23.5610  -27.0930 C   0  0  0  0  0  0  0  0  0  0  0  0
   -2.3690   23.6370  -26.7610 C   0  0  0  0  0  0  0  0  0  0  0  0
   -1.4580   24.2140  -27.6560 C   0  0  0  0  0  0  0  0  0  0  0  0
    0.2570   24.2990  -27.2610 S   0  0  0  0  0  0  0  0  0  0  0  0
    0.6780   23.0450  -26.5420 O   0  0  0  0  0  0  0  0  0  0  0  0
    1.0320   24.4120  -28.5450 O   0  0  0  0  0  0  0  0  0  0  0  0
    0.5810   25.6980  -26.2570 N   0  0  0  0  0  0  0  0  0  0  0  0
   -0.5020   26.6820  -26.3800 C   0  0  0  0  0  0  0  0  0  0  0  0
   -1.4960   26.4410  -25.2510 C   0  0  0  0  0  0  0  0  0  0  0  0
   -0.7960   25.5120  -24.2780 C   0  0  0  0  0  0  0  0  0  0  0  0
    0.6030   25.3150  -24.8420 C   0  0  0  0  0  0  0  0  0  0  0  0
   -1.9120   24.7020  -28.8870 C   0  0  0  0  0  0  0  0  0  0  0  0
   -5.9040   23.8640  -31.1940 C   0  0  0  0  0  0  0  0  0  0  0  0
   -7.2440   23.7470  -30.7880 C   0  0  0  0  0  0  0  0  0  0  0  0
   -7.9410   22.5550  -30.9990 C   0  0  0  0  0  0  0  0  0  0  0  0
   -7.3040   21.4660  -31.6000 C   0  0  0  0  0  0  0  0  0  0  0  0
   -5.9670   21.5710  -32.0090 C   0  0  0  0  0  0  0  0  0  0  0  0
   -5.1260   20.1730  -32.6730 S   0  0  0  0  0  0  0  0  0  0  0  0
   -5.6500   19.8590  -34.0450 O   0  0  0  0  0  0  0  0  0  0  0  0
   -5.3530   18.9770  -31.7910 O   0  0  0  0  0  0  0  0  0  0  0  0
   -3.4210   20.5010  -32.7180 N   0  0  0  0  0  0  0  0  0  0  0  0
   -2.5860   20.1300  -33.8590 C   0  0  0  0  0  0  0  0  0  0  0  0
   -1.1200   20.2780  -33.3880 C   0  0  0  0  0  0  0  0  0  0  0  0
   -1.2570   20.6620  -31.9570 C   0  0  0  0  0  0  0  0  0  0  0  0
   -0.2380   20.8640  -31.0250 C   0  0  0  0  0  0  0  0  0  0  0  0
   -0.5910   21.1870  -29.7050 C   0  0  0  0  0  0  0  0  0  0  0  0
   -1.9460   21.2960  -29.3420 C   0  0  0  0  0  0  0  0  0  0  0  0
   -2.9550   21.0870  -30.2980 C   0  0  0  0  0  0  0  0  0  0  0  0
   -2.5760   20.7740  -31.6080 C   0  0  0  0  0  0  0  0  0  0  0  0
   -5.2790   22.7790  -31.8260 C   0  0  0  0  0  0  0  0  0  0  0  0
   -5.2423   23.9845  -28.5794 H   0  0  0  0  0  0  0  0  0  0  0  0
   -4.4407   23.1239  -26.3811 H   0  0  0  0  0  0  0  0  0  0  0  0
   -2.0168   23.2434  -25.7961 H   0  0  0  0  0  0  0  0  0  0  0  0
   -0.0910   27.6994  -26.3031 H   0  0  0  0  0  0  0  0  0  0  0  0
   -1.0015   26.5768  -27.3544 H   0  0  0  0  0  0  0  0  0  0  0  0
   -1.7531   27.3899  -24.7575 H   0  0  0  0  0  0  0  0  0  0  0  0
   -2.4350   26.0056  -25.6234 H   0  0  0  0  0  0  0  0  0  0  0  0
   -0.7471   25.9680  -23.2782 H   0  0  0  0  0  0  0  0  0  0  0  0
   -1.3307   24.5570  -24.1680 H   0  0  0  0  0  0  0  0  0  0  0  0
    1.3180   25.9476  -24.2955 H   0  0  0  0  0  0  0  0  0  0  0  0
    0.9126   24.2648  -24.7359 H   0  0  0  0  0  0  0  0  0  0  0  0
   -1.2034   25.1788  -29.5802 H   0  0  0  0  0  0  0  0  0  0  0  0
   -7.7459   24.5969  -30.3024 H   0  0  0  0  0  0  0  0  0  0  0  0
   -8.9939   22.4733  -30.6913 H   0  0  0  0  0  0  0  0  0  0  0  0
   -7.8525   20.5248  -31.7525 H   0  0  0  0  0  0  0  0  0  0  0  0
   -2.7876   19.0905  -34.1569 H   0  0  0  0  0  0  0  0  0  0  0  0
   -2.7929   20.7678  -34.7310 H   0  0  0  0  0  0  0  0  0  0  0  0
   -0.5754   19.3278  -33.4906 H   0  0  0  0  0  0  0  0  0  0  0  0
   -0.5505   21.0114  -33.9777 H   0  0  0  0  0  0  0  0  0  0  0  0
    0.8183   20.7722  -31.3181 H   0  0  0  0  0  0  0  0  0  0  0  0
    0.1937   21.3553  -28.9528 H   0  0  0  0  0  0  0  0  0  0  0  0
   -2.2169   21.5459  -28.3056 H   0  0  0  0  0  0  0  0  0  0  0  0
   -4.0170   21.1676  -30.0229 H   0  0  0  0  0  0  0  0  0  0  0  0
   -4.2422   22.8764  -32.1804 H   0  0  0  0  0  0  0  0  0  0  0  0
  1  2  2  0
  2  3  1  0
  3  4  1  0
  4  5  2  0
  5  6  1  0
  6  7  2  0
  7  8  1  0
  8  9  1  0
  9 10  2  0
  9 11  2  0
  9 12  1  0
 12 13  1  0
 13 14  1  0
 14 15  1  0
 15 16  1  0
  8 17  2  0
  2 18  1  0
 18 19  2  0
 19 20  1  0
 20 21  2  0
 21 22  1  0
 22 23  1  0
 23 24  2  0
 23 25  2  0
 23 26  1  0
 26 27  1  0
 27 28  1  0
 28 29  1  0
 29 30  2  0
 30 31  1  0
 31 32  2  0
 32 33  1  0
 33 34  2  0
 22 35  2  0
 17  4  1  0
 35 18  1  0
 16 12  1  0
 34 26  1  0
 34 29  1  0
  5 36  1  0
  6 37  1  0
  7 38  1  0
 13 39  1  0
 13 40  1  0
 14 41  1  0
 14 42  1  0
 15 43  1  0
 15 44  1  0
 16 45  1  0
 16 46  1  0
 17 47  1  0
 19 48  1  0
 20 49  1  0
 21 50  1  0
 27 51  1  0
 27 52  1  0
 28 53  1  0
 28 54  1  0
 30 55  1  0
 31 56  1  0
 32 57  1  0
 33 58  1  0
 35 59  1  0
M  CHG  1   3  -1
M  END
>  <UniqueID>  (22) 
22

>  <SMILES>  (22) 
O=C([N-]c1cccc(S(=O)(=O)N2CCCC2)c1)c1cccc(S(=O)(=O)N2CCc3ccccc32)c1

>  <Energy>  (22) 
84.9481712365632

>  <Genealogy>  (22) 
O=C([N-]c1cccc(S(=O)(=O)N2CCCC2)c1)c1cccc(S(=O)(=O)N2CCc3ccccc32)c1 (protonated)
O=C([N-]c1cccc(S(=O)(=O)N2CCCC2)c1)c1cccc(S(=O)(=O)N2CCc3ccccc32)c1 (3D coordinates assigned)
O=C([N-]c1cccc(S(=O)(=O)N2CCCC2)c1)c1cccc(S(=O)(=O)N2CCc3ccccc32)c1 (nonaromatic ring conformer: 84.9481712365632 kcal/mol)

>  <smiles>  (22) 
O=C(Nc1cccc(S(=O)(=O)N2CCCC2)c1)c1cccc(S(=O)(=O)N2CCc3ccccc32)c1

>  <score_type>  (22) 
oracle

>  <origin>  (22) 
adgpu

>  <m_score__min__energy>  (22) 
-12.52

>  <m_primary>  (22) 
energy

$$$$
22:0
     RDKit          3D

 37 39  0  0  0  0  0  0  0  0999 V2000
   -2.6210   19.9170  -27.2480 C   0  0  0  0  0  0  0  0  0  0  0  0
   -2.4080   20.6590  -28.5610 C   0  0  0  0  0  0  0  0  0  0  0  0
   -3.1390   21.9230  -28.5520 N   0  0  0  0  0  0  0  0  0  0  0  0
   -3.5740   22.5980  -27.4700 C   0  0  0  0  0  0  0  0  0  0  0  0
   -4.3240   23.6720  -27.7980 N   0  0  0  0  0  0  0  0  0  0  0  0
   -4.3490   23.6470  -29.1470 C   0  0  0  0  0  0  0  0  0  0  0  0
   -5.2650   24.7780  -30.1290 S   0  0  0  0  0  0  0  0  0  0  0  0
   -4.3140   25.6730  -30.8730 O   0  0  0  0  0  0  0  0  0  0  0  0
   -6.1160   25.6310  -29.2320 O   0  0  0  0  0  0  0  0  0  0  0  0
   -6.2810   23.9220  -31.2680 N   0  0  0  0  0  0  0  0  0  0  0  0
   -5.4680   23.2580  -32.3200 C   0  0  0  0  0  0  0  0  0  0  0  0
   -5.4160   21.7290  -32.1930 C   0  0  0  0  0  0  0  0  0  0  0  0
   -6.8220   21.1980  -32.1460 C   0  0  0  0  0  0  0  0  0  0  0  0
   -7.2290   20.0320  -32.8270 C   0  0  0  0  0  0  0  0  0  0  0  0
   -6.1120   19.0710  -33.7890 Cl  0  0  0  0  0  0  0  0  0  0  0  0
   -8.5610   19.6070  -32.7330 C   0  0  0  0  0  0  0  0  0  0  0  0
   -9.4780   20.3200  -31.9590 C   0  0  0  0  0  0  0  0  0  0  0  0
   -9.0700   21.4610  -31.2650 C   0  0  0  0  0  0  0  0  0  0  0  0
   -7.7460   21.9080  -31.3650 C   0  0  0  0  0  0  0  0  0  0  0  0
   -7.2510   23.0680  -30.5390 C   0  0  0  0  0  0  0  0  0  0  0  0
   -3.6310   22.5720  -29.6180 C   0  0  0  0  0  0  0  0  0  0  0  0
   -2.4256   20.5977  -26.4063 H   0  0  0  0  0  0  0  0  0  0  0  0
   -3.6589   19.5565  -27.1947 H   0  0  0  0  0  0  0  0  0  0  0  0
   -1.9323   19.0609  -27.1947 H   0  0  0  0  0  0  0  0  0  0  0  0
   -1.3349   20.8611  -28.6939 H   0  0  0  0  0  0  0  0  0  0  0  0
   -2.7790   20.0365  -29.3886 H   0  0  0  0  0  0  0  0  0  0  0  0
   -3.3438   22.3066  -26.4346 H   0  0  0  0  0  0  0  0  0  0  0  0
   -5.8981   23.5097  -33.3006 H   0  0  0  0  0  0  0  0  0  0  0  0
   -4.4368   23.6233  -32.2050 H   0  0  0  0  0  0  0  0  0  0  0  0
   -4.8891   21.3038  -33.0600 H   0  0  0  0  0  0  0  0  0  0  0  0
   -4.8799   21.4485  -31.2743 H   0  0  0  0  0  0  0  0  0  0  0  0
   -8.8861   18.7054  -33.2728 H   0  0  0  0  0  0  0  0  0  0  0  0
  -10.5231   19.9827  -31.8957 H   0  0  0  0  0  0  0  0  0  0  0  0
   -9.7891   22.0096  -30.6390 H   0  0  0  0  0  0  0  0  0  0  0  0
   -8.1136   23.6856  -30.2484 H   0  0  0  0  0  0  0  0  0  0  0  0
   -6.7322   22.6523  -29.6626 H   0  0  0  0  0  0  0  0  0  0  0  0
   -3.4871   22.2959  -30.6730 H   0  0  0  0  0  0  0  0  0  0  0  0
  1  2  1  0
  2  3  1  0
  3  4  1  0
  4  5  2  0
  5  6  1  0
  6  7  1  0
  7  8  2  0
  7  9  2  0
  7 10  1  0
 10 11  1  0
 11 12  1  0
 12 13  1  0
 13 14  2  0
 14 15  1  0
 14 16  1  0
 16 17  2  0
 17 18  1  0
 18 19  2  0
 19 20  1  0
  6 21  2  0
 21  3  1  0
 20 10  1  0
 19 13  1  0
  1 22  1  0
  1 23  1  0
  1 24  1  0
  2 25  1  0
  2 26  1  0
  4 27  1  0
 11 28  1  0
 11 29  1  0
 12 30  1  0
 12 31  1  0
 16 32  1  0
 17 33  1  0
 18 34  1  0
 20 35  1  0
 20 36  1  0
 21 37  1  0
M  END
>  <UniqueID>  (23) 
23

>  <SMILES>  (23) 
CCn1cnc(S(=O)(=O)N2CCc3c(Cl)cccc3C2)c1

>  <Energy>  (23) 
73.61819721348454

>  <Genealogy>  (23) 
CCn1cnc(S(=O)(=O)N2CCc3c(Cl)cccc3C2)c1 (3D coordinates assigned)
CCn1cnc(S(=O)(=O)N2CCc3c(Cl)cccc3C2)c1 (nonaromatic ring conformer: 73.61819721348454 kcal/mol)

>  <smiles>  (23) 
CCn1cnc(S(=O)(=O)N2CCc3c(Cl)cccc3C2)c1

>  <score_type>  (23) 
oracle

>  <origin>  (23) 
adgpu

>  <m_score__min__energy>  (23) 
-8.8699999999999992

>  <m_primary>  (23) 
energy

$$$$
23:0
     RDKit          3D

 59 62  0  0  0  0  0  0  0  0999 V2000
   -2.3030   23.3320  -30.1970 O   0  0  0  0  0  0  0  0  0  0  0  0
   -3.1710   22.8980  -31.0040 C   0  0  0  0  0  0  0  0  0  0  0  0
   -2.7820   22.0060  -32.0600 N   0  0  0  0  0  0  0  0  0  0  0  0
   -1.5880   21.2030  -32.0300 C   0  0  0  0  0  0  0  0  0  0  0  0
   -0.7830   21.0460  -33.1730 C   0  0  0  0  0  0  0  0  0  0  0  0
    0.3830   20.2770  -33.1150 C   0  0  0  0  0  0  0  0  0  0  0  0
    0.7640   19.6600  -31.9160 C   0  0  0  0  0  0  0  0  0  0  0  0
    2.2420   18.6930  -31.8430 S   0  0  0  0  0  0  0  0  0  0  0  0
    2.9920   18.8450  -33.1370 O   0  0  0  0  0  0  0  0  0  0  0  0
    3.1150   19.2160  -30.7360 O   0  0  0  0  0  0  0  0  0  0  0  0
    1.9290   16.9960  -31.5640 N   0  0  0  0  0  0  0  0  0  0  0  0
    0.6520   16.5730  -32.1330 C   0  0  0  0  0  0  0  0  0  0  0  0
    0.2080   15.3570  -31.3340 C   0  0  0  0  0  0  0  0  0  0  0  0
    0.9840   15.4300  -30.0270 C   0  0  0  0  0  0  0  0  0  0  0  0
    1.8470   16.6780  -30.1400 C   0  0  0  0  0  0  0  0  0  0  0  0
   -0.0190   19.8410  -30.7680 C   0  0  0  0  0  0  0  0  0  0  0  0
   -1.1840   20.6110  -30.8250 C   0  0  0  0  0  0  0  0  0  0  0  0
   -4.5700   23.3780  -30.8930 C   0  0  0  0  0  0  0  0  0  0  0  0
   -5.6270   22.4730  -31.0930 C   0  0  0  0  0  0  0  0  0  0  0  0
   -6.9600   22.8950  -30.9970 C   0  0  0  0  0  0  0  0  0  0  0  0
   -8.2750   21.7470  -31.2560 S   0  0  0  0  0  0  0  0  0  0  0  0
   -9.1940   22.2730  -32.3240 O   0  0  0  0  0  0  0  0  0  0  0  0
   -9.0690   21.6120  -29.9860 O   0  0  0  0  0  0  0  0  0  0  0  0
   -7.6730   20.1770  -31.7300 N   0  0  0  0  0  0  0  0  0  0  0  0
   -8.7490   19.1680  -31.6360 C   0  0  0  0  0  0  0  0  0  0  0  0
   -8.3630   17.8320  -32.3100 C   0  0  0  0  0  0  0  0  0  0  0  0
   -6.8560   17.7400  -32.5670 C   0  0  0  0  0  0  0  0  0  0  0  0
   -6.3660   18.9260  -33.4150 C   0  0  0  0  0  0  0  0  0  0  0  0
   -7.1180   20.2300  -33.0910 C   0  0  0  0  0  0  0  0  0  0  0  0
   -7.2410   24.2350  -30.7000 C   0  0  0  0  0  0  0  0  0  0  0  0
   -6.2000   25.1450  -30.5130 C   0  0  0  0  0  0  0  0  0  0  0  0
   -4.8690   24.7290  -30.6170 C   0  0  0  0  0  0  0  0  0  0  0  0
   -3.8580   25.6730  -30.4700 O   0  0  0  0  0  0  0  0  0  0  0  0
   -3.3410   22.0230  -32.9430 H   0  0  0  0  0  0  0  0  0  0  0  0
   -1.0725   21.5307  -34.1170 H   0  0  0  0  0  0  0  0  0  0  0  0
    1.0042   20.1557  -34.0147 H   0  0  0  0  0  0  0  0  0  0  0  0
   -0.0906   17.3795  -32.0427 H   0  0  0  0  0  0  0  0  0  0  0  0
    0.7514   16.3334  -33.2020 H   0  0  0  0  0  0  0  0  0  0  0  0
   -0.8744   15.3963  -31.1421 H   0  0  0  0  0  0  0  0  0  0  0  0
    0.4017   14.4185  -31.8740 H   0  0  0  0  0  0  0  0  0  0  0  0
    0.2946   15.5145  -29.1741 H   0  0  0  0  0  0  0  0  0  0  0  0
    1.5896   14.5271  -29.8593 H   0  0  0  0  0  0  0  0  0  0  0  0
    1.3848   17.5111  -29.5902 H   0  0  0  0  0  0  0  0  0  0  0  0
    2.8460   16.5120  -29.7105 H   0  0  0  0  0  0  0  0  0  0  0  0
    0.2843   19.3754  -29.8187 H   0  0  0  0  0  0  0  0  0  0  0  0
   -1.7887   20.7537  -29.9173 H   0  0  0  0  0  0  0  0  0  0  0  0
   -5.4053   21.4214  -31.3276 H   0  0  0  0  0  0  0  0  0  0  0  0
   -8.9643   18.9788  -30.5740 H   0  0  0  0  0  0  0  0  0  0  0  0
   -9.6299   19.5666  -32.1606 H   0  0  0  0  0  0  0  0  0  0  0  0
   -8.6637   17.0020  -31.6537 H   0  0  0  0  0  0  0  0  0  0  0  0
   -8.8795   17.7760  -33.2796 H   0  0  0  0  0  0  0  0  0  0  0  0
   -6.3261   17.7443  -31.6030 H   0  0  0  0  0  0  0  0  0  0  0  0
   -6.6512   16.8092  -33.1163 H   0  0  0  0  0  0  0  0  0  0  0  0
   -5.2940   19.0792  -33.2219 H   0  0  0  0  0  0  0  0  0  0  0  0
   -6.5549   18.6836  -34.4712 H   0  0  0  0  0  0  0  0  0  0  0  0
   -6.4216   21.0782  -33.1657 H   0  0  0  0  0  0  0  0  0  0  0  0
   -7.9428   20.3540  -33.8082 H   0  0  0  0  0  0  0  0  0  0  0  0
   -8.2850   24.5706  -30.6140 H   0  0  0  0  0  0  0  0  0  0  0  0
   -6.4277   26.1962  -30.2823 H   0  0  0  0  0  0  0  0  0  0  0  0
  1  2  2  0
  2  3  1  0
  3  4  1  0
  4  5  2  0
  5  6  1  0
  6  7  2  0
  7  8  1  0
  8  9  2  0
  8 10  2  0
  8 11  1  0
 11 12  1  0
 12 13  1  0
 13 14  1  0
 14 15  1  0
  7 16  1  0
 16 17  2  0
  2 18  1  0
 18 19  2  0
 19 20  1  0
 20 21  1  0
 21 22  2  0
 21 23  2  0
 21 24  1  0
 24 25  1  0
 25 26  1  0
 26 27  1  0
 27 28  1  0
 28 29  1  0
 20 30  2  0
 30 31  1  0
 31 32  2  0
 32 33  1  0
 17  4  1  0
 32 18  1  0
 15 11  1  0
 29 24  1  0
  3 34  1  0
  5 35  1  0
  6 36  1  0
 12 37  1  0
 12 38  1  0
 13 39  1  0
 13 40  1  0
 14 41  1  0
 14 42  1  0
 15 43  1  0
 15 44  1  0
 16 45  1  0
 17 46  1  0
 19 47  1  0
 25 48  1  0
 25 49  1  0
 26 50  1  0
 26 51  1  0
 27 52  1  0
 27 53  1  0
 28 54  1  0
 28 55  1  0
 29 56  1  0
 29 57  1  0
 30 58  1  0
 31 59  1  0
M  CHG  1  33  -1
M  END
>  <UniqueID>  (24) 
24

>  <SMILES>  (24) 
O=C(Nc1ccc(S(=O)(=O)N2CCCC2)cc1)c1cc(S(=O)(=O)N2CCCCC2)ccc1[O-]

>  <Energy>  (24) 
71.76893497340849

>  <Genealogy>  (24) 
O=C(Nc1ccc(S(=O)(=O)N2CCCC2)cc1)c1cc(S(=O)(=O)N2CCCCC2)ccc1[O-] (protonated)
O=C(Nc1ccc(S(=O)(=O)N2CCCC2)cc1)c1cc(S(=O)(=O)N2CCCCC2)ccc1[O-] (3D coordinates assigned)
O=C(Nc1ccc(S(=O)(=O)N2CCCC2)cc1)c1cc(S(=O)(=O)N2CCCCC2)ccc1[O-] (nonaromatic ring conformer: 71.76893497340849 kcal/mol)

>  <smiles>  (24) 
O=C(Nc1ccc(S(=O)(=O)N2CCCC2)cc1)c1cc(S(=O)(=O)N2CCCCC2)ccc1O

>  <score_type>  (24) 
oracle

>  <origin>  (24) 
adgpu

>  <m_score__min__energy>  (24) 
-13

>  <m_primary>  (24) 
energy

$$$$
24:0
     RDKit          3D

 43 46  0  0  0  0  0  0  0  0999 V2000
   -6.4615   17.9136  -30.7743 H   0  0  0  0  0  0  0  0  0  0  0  0
   -6.1460   18.0970  -31.8120 C   0  0  0  0  0  0  0  0  0  0  0  0
   -5.1220   17.3810  -32.3480 N   0  0  0  0  0  0  0  0  0  0  0  0
   -4.6940   17.5700  -33.6280 C   0  0  0  0  0  0  0  0  0  0  0  0
   -3.5740   16.7520  -34.1570 C   0  0  0  0  0  0  0  0  0  0  0  0
   -3.6850   15.3490  -34.2000 C   0  0  0  0  0  0  0  0  0  0  0  0
   -4.6128   14.8654  -33.8603 H   0  0  0  0  0  0  0  0  0  0  0  0
   -2.6280   14.5650  -34.6700 C   0  0  0  0  0  0  0  0  0  0  0  0
   -2.7810   12.8180  -34.7100 Cl  0  0  0  0  0  0  0  0  0  0  0  0
   -1.4490   15.1710  -35.1050 C   0  0  0  0  0  0  0  0  0  0  0  0
   -0.6190   14.5528  -35.4778 H   0  0  0  0  0  0  0  0  0  0  0  0
   -1.3210   16.5590  -35.0680 C   0  0  0  0  0  0  0  0  0  0  0  0
   -0.3903   17.0306  -35.4164 H   0  0  0  0  0  0  0  0  0  0  0  0
   -2.3740   17.3620  -34.5880 C   0  0  0  0  0  0  0  0  0  0  0  0
   -2.2660   18.7630  -34.5760 O   0  0  0  0  0  0  0  0  0  0  0  0
   -2.1690   19.5470  -33.4200 C   0  0  0  0  0  0  0  0  0  0  0  0
   -2.9450   20.7080  -33.3320 C   0  0  0  0  0  0  0  0  0  0  0  0
   -3.6223   20.9757  -34.1563 H   0  0  0  0  0  0  0  0  0  0  0  0
   -2.8660   21.5290  -32.2060 C   0  0  0  0  0  0  0  0  0  0  0  0
   -3.4705   22.4465  -32.1538 H   0  0  0  0  0  0  0  0  0  0  0  0
   -2.0210   21.1900  -31.1430 C   0  0  0  0  0  0  0  0  0  0  0  0
   -1.9020   22.2560  -29.7480 S   0  0  0  0  0  0  0  0  0  0  0  0
   -2.6550   21.6440  -28.6010 O   0  0  0  0  0  0  0  0  0  0  0  0
   -0.4670   22.4480  -29.3410 O   0  0  0  0  0  0  0  0  0  0  0  0
   -2.5950   23.8010  -30.1270 N   0  0  0  0  0  0  0  0  0  0  0  0
   -3.8270   23.9780  -30.4960 C   0  0  0  0  0  0  0  0  0  0  0  0
   -4.3240   25.2030  -30.7730 N   0  0  0  0  0  0  0  0  0  0  0  0
   -5.6350   25.1430  -31.1310 C   0  0  0  0  0  0  0  0  0  0  0  0
   -6.2191   26.0373  -31.3938 H   0  0  0  0  0  0  0  0  0  0  0  0
   -6.1790   23.8650  -31.1390 C   0  0  0  0  0  0  0  0  0  0  0  0
   -7.9760   23.4130  -31.5850 Br  0  0  0  0  0  0  0  0  0  0  0  0
   -4.9900   22.7670  -30.6860 S   0  0  0  0  0  0  0  0  0  0  0  0
   -1.2680   20.0090  -31.2070 C   0  0  0  0  0  0  0  0  0  0  0  0
   -0.6161   19.7300  -30.3661 H   0  0  0  0  0  0  0  0  0  0  0  0
   -1.3410   19.1820  -32.3360 C   0  0  0  0  0  0  0  0  0  0  0  0
   -0.6020   17.9440  -32.3460 C   0  0  0  0  0  0  0  0  0  0  0  0
   -0.0080   16.9510  -32.3540 N   0  0  0  0  0  0  0  0  0  0  0  0
   -5.3280   18.5400  -34.4250 C   0  0  0  0  0  0  0  0  0  0  0  0
   -4.9955   18.7103  -35.4596 H   0  0  0  0  0  0  0  0  0  0  0  0
   -6.3820   19.2850  -33.8940 C   0  0  0  0  0  0  0  0  0  0  0  0
   -6.8851   20.0444  -34.5106 H   0  0  0  0  0  0  0  0  0  0  0  0
   -6.7970   19.0650  -32.5790 C   0  0  0  0  0  0  0  0  0  0  0  0
   -8.1190   19.9960  -31.8970 Cl  0  0  0  0  0  0  0  0  0  0  0  0
  1  2  1  0
  2  3  2  0
  3  4  1  0
  4  5  1  0
  5  6  2  0
  6  7  1  0
  6  8  1  0
  8  9  1  0
  8 10  2  0
 10 11  1  0
 10 12  1  0
 12 13  1  0
 12 14  2  0
 14 15  1  0
 15 16  1  0
 16 17  2  0
 17 18  1  0
 17 19  1  0
 19 20  1  0
 19 21  2  0
 21 22  1  0
 22 23  2  0
 22 24  2  0
 22 25  1  0
 25 26  2  0
 26 27  1  0
 27 28  1  0
 28 29  1  0
 28 30  2  0
 30 31  1  0
 30 32  1  0
 21 33  1  0
 33 34  1  0
 33 35  2  0
 35 36  1  0
 36 37  3  0
  4 38  2  0
 38 39  1  0
 38 40  1  0
 40 41  1  0
 40 42  2  0
 42 43  1  0
 42  2  1  0
 14  5  1  0
 35 16  1  0
 32 26  1  0
M  CHG  1  27  -1
M  END
>  <UniqueID>  (25) 
25

>  <SMILES>  (25) 
N#Cc1cc(S(=O)(=O)/N=c2/[n-]cc(Br)s2)ccc1Oc1ccc(Cl)cc1-c1ccc(Cl)cn1

>  <Energy>  (25) 
94.55021147759201

>  <Genealogy>  (25) 
N#Cc1cc(S(=O)(=O)N=c2[n-]cc(Br)s2)ccc1Oc1ccc(Cl)cc1-c1ccc(Cl)cn1 (protonated)
N#Cc1cc(S(=O)(=O)/N=c2/[n-]cc(Br)s2)ccc1Oc1ccc(Cl)cc1-c1ccc(Cl)cn1 (cis-trans isomerization)
N#Cc1cc(S(=O)(=O)/N=c2/[n-]cc(Br)s2)ccc1Oc1ccc(Cl)cc1-c1ccc(Cl)cn1 (3D coordinates assigned)
N#Cc1cc(S(=O)(=O)/N=c2/[n-]cc(Br)s2)ccc1Oc1ccc(Cl)cc1-c1ccc(Cl)cn1 (optimized conformer: 94.55021147759201 kcal/mol)

>  <smiles>  (25) 
N#Cc1cc(S(=O)(=O)N=c2[nH]cc(Br)s2)ccc1Oc1ccc(Cl)cc1-c1ccc(Cl)cn1

>  <score_type>  (25) 
oracle

>  <origin>  (25) 
adgpu

>  <m_score__min__energy>  (25) 
-11.9

>  <m_primary>  (25) 
energy

$$$$
25:0
     RDKit          3D

 57 60  0  0  0  0  0  0  0  0999 V2000
   -2.1740   18.7260  -32.6070 C   0  0  0  0  0  0  0  0  0  0  0  0
   -2.9440   20.1000  -31.7790 S   0  0  0  0  0  0  0  0  0  0  0  0
   -4.2960   19.7040  -31.2550 O   0  0  0  0  0  0  0  0  0  0  0  0
   -3.1340   21.2110  -32.7750 O   0  0  0  0  0  0  0  0  0  0  0  0
   -1.9270   20.6520  -30.4720 N   0  0  0  0  0  0  0  0  0  0  0  0
   -0.9800   19.6690  -29.9240 C   0  0  0  0  0  0  0  0  0  0  0  0
   -0.3720   20.1340  -28.6010 C   0  0  0  0  0  0  0  0  0  0  0  0
    0.2340   21.5270  -28.7630 C   0  0  0  0  0  0  0  0  0  0  0  0
   -0.8090   22.4940  -29.2470 C   0  0  0  0  0  0  0  0  0  0  0  0
   -0.7150   23.8480  -28.8890 C   0  0  0  0  0  0  0  0  0  0  0  0
   -1.6860   24.7570  -29.3080 C   0  0  0  0  0  0  0  0  0  0  0  0
   -1.5950   26.0910  -28.9240 O   0  0  0  0  0  0  0  0  0  0  0  0
   -2.7560   24.3230  -30.0960 C   0  0  0  0  0  0  0  0  0  0  0  0
   -3.7900   25.2340  -30.4640 N   0  0  0  0  0  0  0  0  0  0  0  0
   -5.4050   25.0220  -29.8770 S   0  0  0  0  0  0  0  0  0  0  0  0
   -6.2200   26.2310  -30.2420 O   0  0  0  0  0  0  0  0  0  0  0  0
   -5.3850   24.8860  -28.3810 O   0  0  0  0  0  0  0  0  0  0  0  0
   -6.1280   23.5830  -30.5940 C   0  0  0  0  0  0  0  0  0  0  0  0
   -7.2020   22.9510  -29.9510 C   0  0  0  0  0  0  0  0  0  0  0  0
   -7.7490   21.7790  -30.4790 C   0  0  0  0  0  0  0  0  0  0  0  0
   -7.2380   21.2360  -31.6670 C   0  0  0  0  0  0  0  0  0  0  0  0
   -7.9130   19.7440  -32.3250 S   0  0  0  0  0  0  0  0  0  0  0  0
   -8.8510   20.0800  -33.4520 O   0  0  0  0  0  0  0  0  0  0  0  0
   -8.7060   19.0490  -31.2540 O   0  0  0  0  0  0  0  0  0  0  0  0
   -6.6670   18.6690  -32.9090 N   0  0  0  0  0  0  0  0  0  0  0  0
   -6.1230   19.1560  -34.1850 C   0  0  0  0  0  0  0  0  0  0  0  0
   -5.0100   18.2080  -34.6780 C   0  0  0  0  0  0  0  0  0  0  0  0
   -4.9120   17.0370  -33.8860 O   0  0  0  0  0  0  0  0  0  0  0  0
   -6.1770   16.4080  -33.8010 C   0  0  0  0  0  0  0  0  0  0  0  0
   -7.1960   17.3050  -33.0690 C   0  0  0  0  0  0  0  0  0  0  0  0
   -6.1740   21.8750  -32.3170 C   0  0  0  0  0  0  0  0  0  0  0  0
   -5.6170   23.0390  -31.7800 C   0  0  0  0  0  0  0  0  0  0  0  0
   -2.8330   22.9830  -30.4940 C   0  0  0  0  0  0  0  0  0  0  0  0
   -1.8550   22.0520  -30.0890 C   0  0  0  0  0  0  0  0  0  0  0  0
   -1.7794   18.0219  -31.8596 H   0  0  0  0  0  0  0  0  0  0  0  0
   -2.9168   18.2143  -33.2366 H   0  0  0  0  0  0  0  0  0  0  0  0
   -1.3498   19.0924  -33.2366 H   0  0  0  0  0  0  0  0  0  0  0  0
   -1.5106   18.7200  -29.7567 H   0  0  0  0  0  0  0  0  0  0  0  0
   -0.1617   19.5456  -30.6487 H   0  0  0  0  0  0  0  0  0  0  0  0
   -1.1570   20.1660  -27.8311 H   0  0  0  0  0  0  0  0  0  0  0  0
    0.4182   19.4302  -28.3006 H   0  0  0  0  0  0  0  0  0  0  0  0
    0.6238   21.8687  -27.7928 H   0  0  0  0  0  0  0  0  0  0  0  0
    1.0492   21.4801  -29.5000 H   0  0  0  0  0  0  0  0  0  0  0  0
    0.1293   24.1940  -28.2745 H   0  0  0  0  0  0  0  0  0  0  0  0
   -7.6157   23.3801  -29.0265 H   0  0  0  0  0  0  0  0  0  0  0  0
   -8.5824   21.2809  -29.9619 H   0  0  0  0  0  0  0  0  0  0  0  0
   -6.9279   19.1939  -34.9338 H   0  0  0  0  0  0  0  0  0  0  0  0
   -5.7030   20.1621  -34.0389 H   0  0  0  0  0  0  0  0  0  0  0  0
   -5.2279   17.9160  -35.7159 H   0  0  0  0  0  0  0  0  0  0  0  0
   -4.0530   18.7453  -34.6047 H   0  0  0  0  0  0  0  0  0  0  0  0
   -6.5447   16.2021  -34.8171 H   0  0  0  0  0  0  0  0  0  0  0  0
   -6.0642   15.4726  -33.2332 H   0  0  0  0  0  0  0  0  0  0  0  0
   -8.1272   17.3450  -33.6532 H   0  0  0  0  0  0  0  0  0  0  0  0
   -7.3889   16.8811  -32.0725 H   0  0  0  0  0  0  0  0  0  0  0  0
   -5.7753   21.4588  -33.2539 H   0  0  0  0  0  0  0  0  0  0  0  0
   -4.7748   23.5296  -32.2900 H   0  0  0  0  0  0  0  0  0  0  0  0
   -3.6670   22.6525  -31.1306 H   0  0  0  0  0  0  0  0  0  0  0  0
  1  2  1  0
  2  3  2  0
  2  4  2  0
  2  5  1  0
  5  6  1  0
  6  7  1  0
  7  8  1  0
  8  9  1  0
  9 10  2  0
 10 11  1  0
 11 12  1  0
 11 13  2  0
 13 14  1  0
 14 15  1  0
 15 16  2  0
 15 17  2  0
 15 18  1  0
 18 19  2  0
 19 20  1  0
 20 21  2  0
 21 22  1  0
 22 23  2  0
 22 24  2  0
 22 25  1  0
 25 26  1  0
 26 27  1  0
 27 28  1  0
 28 29  1  0
 29 30  1  0
 21 31  1  0
 31 32  2  0
 13 33  1  0
 33 34  2  0
 34  5  1  0
 34  9  1  0
 32 18  1  0
 30 25  1  0
  1 35  1  0
  1 36  1  0
  1 37  1  0
  6 38  1  0
  6 39  1  0
  7 40  1  0
  7 41  1  0
  8 42  1  0
  8 43  1  0
 10 44  1  0
 19 45  1  0
 20 46  1  0
 26 47  1  0
 26 48  1  0
 27 49  1  0
 27 50  1  0
 29 51  1  0
 29 52  1  0
 30 53  1  0
 30 54  1  0
 31 55  1  0
 32 56  1  0
 33 57  1  0
M  CHG  2  12  -1  14  -1
M  END
>  <UniqueID>  (26) 
26

>  <SMILES>  (26) 
CS(=O)(=O)N1CCCc2cc([O-])c([N-]S(=O)(=O)c3ccc(S(=O)(=O)N4CCOCC4)cc3)cc21

>  <Energy>  (26) 
72.33472719595439

>  <Genealogy>  (26) 
CS(=O)(=O)N1CCCc2cc([O-])c([N-]S(=O)(=O)c3ccc(S(=O)(=O)N4CCOCC4)cc3)cc21 (protonated)
CS(=O)(=O)N1CCCc2cc([O-])c([N-]S(=O)(=O)c3ccc(S(=O)(=O)N4CCOCC4)cc3)cc21 (3D coordinates assigned)
CS(=O)(=O)N1CCCc2cc([O-])c([N-]S(=O)(=O)c3ccc(S(=O)(=O)N4CCOCC4)cc3)cc21 (nonaromatic ring conformer: 72.33472719595439 kcal/mol)

>  <smiles>  (26) 
CS(=O)(=O)N1CCCc2cc(O)c(NS(=O)(=O)c3ccc(S(=O)(=O)N4CCOCC4)cc3)cc21

>  <score_type>  (26) 
oracle

>  <origin>  (26) 
adgpu

>  <m_score__min__energy>  (26) 
-15.359999999999999

>  <m_primary>  (26) 
energy

$$$$
26:0
     RDKit          3D

 60 63  0  0  0  0  0  0  0  0999 V2000
   -6.6010   24.8680  -29.9610 C   0  0  0  0  0  0  0  0  0  0  0  0
   -5.6690   23.8710  -30.4860 N   0  0  0  0  0  0  0  0  0  0  0  0
   -4.5090   23.5130  -29.7250 C   0  0  0  0  0  0  0  0  0  0  0  0
   -4.6410   23.0570  -28.4040 C   0  0  0  0  0  0  0  0  0  0  0  0
   -3.5090   22.7110  -27.6600 C   0  0  0  0  0  0  0  0  0  0  0  0
   -2.2320   22.8280  -28.2260 C   0  0  0  0  0  0  0  0  0  0  0  0
   -0.7980   22.3770  -27.3080 S   0  0  0  0  0  0  0  0  0  0  0  0
   -0.8350   23.0210  -25.9490 O   0  0  0  0  0  0  0  0  0  0  0  0
    0.4190   22.8690  -28.0400 O   0  0  0  0  0  0  0  0  0  0  0  0
   -0.7240   20.6400  -27.1480 N   0  0  0  0  0  0  0  0  0  0  0  0
   -0.2690   20.0350  -28.4120 C   0  0  0  0  0  0  0  0  0  0  0  0
   -0.4730   18.5060  -28.3950 C   0  0  0  0  0  0  0  0  0  0  0  0
   -0.7530   18.0470  -27.0880 O   0  0  0  0  0  0  0  0  0  0  0  0
   -1.9920   18.5780  -26.6510 C   0  0  0  0  0  0  0  0  0  0  0  0
   -2.0460   20.1160  -26.7770 C   0  0  0  0  0  0  0  0  0  0  0  0
   -2.0980   23.2830  -29.5440 C   0  0  0  0  0  0  0  0  0  0  0  0
   -3.2290   23.6290  -30.2880 C   0  0  0  0  0  0  0  0  0  0  0  0
   -5.9790   23.1140  -32.0230 S   0  0  0  0  0  0  0  0  0  0  0  0
   -6.4800   24.1540  -32.9850 O   0  0  0  0  0  0  0  0  0  0  0  0
   -4.7030   22.5300  -32.5600 O   0  0  0  0  0  0  0  0  0  0  0  0
   -7.1760   21.8190  -31.8610 C   0  0  0  0  0  0  0  0  0  0  0  0
   -8.5380   22.1420  -31.7450 C   0  0  0  0  0  0  0  0  0  0  0  0
   -9.4940   21.1390  -31.5740 C   0  0  0  0  0  0  0  0  0  0  0  0
   -9.1020   19.8020  -31.5080 C   0  0  0  0  0  0  0  0  0  0  0  0
   -7.7520   19.4630  -31.6150 C   0  0  0  0  0  0  0  0  0  0  0  0
   -6.7820   20.4620  -31.7960 C   0  0  0  0  0  0  0  0  0  0  0  0
   -5.3680   20.0590  -31.8970 C   0  0  0  0  0  0  0  0  0  0  0  0
   -4.5640   20.4090  -30.9920 O   0  0  0  0  0  0  0  0  0  0  0  0
   -4.9000   19.2800  -33.0090 N   0  0  0  0  0  0  0  0  0  0  0  0
   -3.5100   18.9010  -33.1820 C   0  0  0  0  0  0  0  0  0  0  0  0
   -3.4490   18.1620  -34.5120 C   0  0  0  0  0  0  0  0  0  0  0  0
   -4.8900   17.7880  -34.8520 C   0  0  0  0  0  0  0  0  0  0  0  0
   -5.7710   18.7170  -34.0280 C   0  0  0  0  0  0  0  0  0  0  0  0
   -6.5804   24.8460  -28.8614 H   0  0  0  0  0  0  0  0  0  0  0  0
   -6.3057   25.8673  -30.3133 H   0  0  0  0  0  0  0  0  0  0  0  0
   -7.6179   24.6407  -30.3133 H   0  0  0  0  0  0  0  0  0  0  0  0
   -5.6401   22.9715  -27.9519 H   0  0  0  0  0  0  0  0  0  0  0  0
   -3.6207   22.3462  -26.6283 H   0  0  0  0  0  0  0  0  0  0  0  0
   -0.8439   20.4658  -29.2450 H   0  0  0  0  0  0  0  0  0  0  0  0
    0.8036   20.2452  -28.5363 H   0  0  0  0  0  0  0  0  0  0  0  0
   -1.3144   18.2480  -29.0549 H   0  0  0  0  0  0  0  0  0  0  0  0
    0.4524   18.0250  -28.7447 H   0  0  0  0  0  0  0  0  0  0  0  0
   -2.7979   18.1443  -27.2612 H   0  0  0  0  0  0  0  0  0  0  0  0
   -2.1121   18.3225  -25.5879 H   0  0  0  0  0  0  0  0  0  0  0  0
   -2.7770   20.3920  -27.5513 H   0  0  0  0  0  0  0  0  0  0  0  0
   -2.3446   20.5458  -25.8095 H   0  0  0  0  0  0  0  0  0  0  0  0
   -1.0984   23.3683  -29.9951 H   0  0  0  0  0  0  0  0  0  0  0  0
   -3.1154   23.9939  -31.3195 H   0  0  0  0  0  0  0  0  0  0  0  0
   -8.8543   23.1946  -31.7893 H   0  0  0  0  0  0  0  0  0  0  0  0
  -10.5585   21.4037  -31.4912 H   0  0  0  0  0  0  0  0  0  0  0  0
   -9.8573   19.0140  -31.3715 H   0  0  0  0  0  0  0  0  0  0  0  0
   -7.4466   18.4078  -31.5572 H   0  0  0  0  0  0  0  0  0  0  0  0
   -2.8690   19.7945  -33.2096 H   0  0  0  0  0  0  0  0  0  0  0  0
   -3.1529   18.2742  -32.3516 H   0  0  0  0  0  0  0  0  0  0  0  0
   -3.0289   18.8136  -35.2924 H   0  0  0  0  0  0  0  0  0  0  0  0
   -2.8057   17.2719  -34.4493 H   0  0  0  0  0  0  0  0  0  0  0  0
   -5.0796   17.9343  -35.9256 H   0  0  0  0  0  0  0  0  0  0  0  0
   -5.0960   16.7315  -34.6251 H   0  0  0  0  0  0  0  0  0  0  0  0
   -6.1862   19.5146  -34.6616 H   0  0  0  0  0  0  0  0  0  0  0  0
   -6.6236   18.1820  -33.5844 H   0  0  0  0  0  0  0  0  0  0  0  0
  1  2  1  0
  2  3  1  0
  3  4  2  0
  4  5  1  0
  5  6  2  0
  6  7  1  0
  7  8  2  0
  7  9  2  0
  7 10  1  0
 10 11  1  0
 11 12  1  0
 12 13  1  0
 13 14  1  0
 14 15  1  0
  6 16  1  0
 16 17  2  0
  2 18  1  0
 18 19  2  0
 18 20  2  0
 18 21  1  0
 21 22  2  0
 22 23  1  0
 23 24  2  0
 24 25  1  0
 25 26  2  0
 26 27  1  0
 27 28  2  0
 27 29  1  0
 29 30  1  0
 30 31  1  0
 31 32  1  0
 32 33  1  0
 17  3  1  0
 26 21  1  0
 33 29  1  0
 15 10  1  0
  1 34  1  0
  1 35  1  0
  1 36  1  0
  4 37  1  0
  5 38  1  0
 11 39  1  0
 11 40  1  0
 12 41  1  0
 12 42  1  0
 14 43  1  0
 14 44  1  0
 15 45  1  0
 15 46  1  0
 16 47  1  0
 17 48  1  0
 22 49  1  0
 23 50  1  0
 24 51  1  0
 25 52  1  0
 30 53  1  0
 30 54  1  0
 31 55  1  0
 31 56  1  0
 32 57  1  0
 32 58  1  0
 33 59  1  0
 33 60  1  0
M  END
>  <UniqueID>  (27) 
27

>  <SMILES>  (27) 
CN(c1ccc(S(=O)(=O)N2CCOCC2)cc1)S(=O)(=O)c1ccccc1C(=O)N1CCCC1

>  <Energy>  (27) 
80.8887071107634

>  <Genealogy>  (27) 
CN(c1ccc(S(=O)(=O)N2CCOCC2)cc1)S(=O)(=O)c1ccccc1C(=O)N1CCCC1 (3D coordinates assigned)
CN(c1ccc(S(=O)(=O)N2CCOCC2)cc1)S(=O)(=O)c1ccccc1C(=O)N1CCCC1 (nonaromatic ring conformer: 80.8887071107634 kcal/mol)

>  <smiles>  (27) 
CN(c1ccc(S(=O)(=O)N2CCOCC2)cc1)S(=O)(=O)c1ccccc1C(=O)N1CCCC1

>  <score_type>  (27) 
oracle

>  <origin>  (27) 
adgpu

>  <m_score__min__energy>  (27) 
-10.91

>  <m_primary>  (27) 
energy

$$$$
27:0
     RDKit          3D

 50 53  0  0  0  0  0  0  0  0999 V2000
   -2.3100   25.0100  -26.4870 C   0  0  0  0  0  0  0  0  0  0  0  0
   -1.2380   25.7230  -27.3030 C   0  0  0  0  0  0  0  0  0  0  0  0
   -0.5230   24.6090  -28.5610 S   0  0  0  0  0  0  0  0  0  0  0  0
   -2.1040   24.0660  -29.2030 C   0  0  0  0  0  0  0  0  0  0  0  0
   -3.0940   24.9190  -29.5590 N   0  0  0  0  0  0  0  0  0  0  0  0
   -4.1730   24.2380  -30.0210 C   0  0  0  0  0  0  0  0  0  0  0  0
   -5.3520   24.8350  -30.4610 C   0  0  0  0  0  0  0  0  0  0  0  0
   -6.3970   24.0150  -30.9190 C   0  0  0  0  0  0  0  0  0  0  0  0
   -6.2610   22.6030  -30.9350 C   0  0  0  0  0  0  0  0  0  0  0  0
   -7.3710   21.7470  -31.4240 C   0  0  0  0  0  0  0  0  0  0  0  0
   -8.6680   22.2720  -31.5670 C   0  0  0  0  0  0  0  0  0  0  0  0
   -9.7130   21.4640  -32.0220 C   0  0  0  0  0  0  0  0  0  0  0  0
   -9.4790   20.1250  -32.3390 C   0  0  0  0  0  0  0  0  0  0  0  0
   -8.1910   19.5820  -32.2060 C   0  0  0  0  0  0  0  0  0  0  0  0
   -7.9400   18.1260  -32.5180 C   0  0  0  0  0  0  0  0  0  0  0  0
   -6.5070   17.8440  -32.7130 N   0  0  0  0  0  0  0  0  0  0  0  0
   -5.9920   18.4420  -33.9570 C   0  0  0  0  0  0  0  0  0  0  0  0
   -4.6830   19.1410  -33.7000 C   0  0  0  0  0  0  0  0  0  0  0  0
   -3.4730   18.4300  -33.7680 C   0  0  0  0  0  0  0  0  0  0  0  0
   -2.2570   19.0900  -33.5650 C   0  0  0  0  0  0  0  0  0  0  0  0
   -2.2390   20.4640  -33.3050 C   0  0  0  0  0  0  0  0  0  0  0  0
   -3.4370   21.1800  -33.2520 C   0  0  0  0  0  0  0  0  0  0  0  0
   -4.6560   20.5240  -33.4540 C   0  0  0  0  0  0  0  0  0  0  0  0
   -7.1440   20.3960  -31.7450 C   0  0  0  0  0  0  0  0  0  0  0  0
   -5.0560   22.0220  -30.4830 C   0  0  0  0  0  0  0  0  0  0  0  0
   -4.0390   22.8600  -30.0360 C   0  0  0  0  0  0  0  0  0  0  0  0
   -2.5200   22.4450  -29.4550 S   0  0  0  0  0  0  0  0  0  0  0  0
   -2.1056   25.1460  -25.4147 H   0  0  0  0  0  0  0  0  0  0  0  0
   -3.2964   25.4326  -26.7287 H   0  0  0  0  0  0  0  0  0  0  0  0
   -2.3016   23.9369  -26.7287 H   0  0  0  0  0  0  0  0  0  0  0  0
   -1.6875   26.5919  -27.8059 H   0  0  0  0  0  0  0  0  0  0  0  0
   -0.4354   26.0437  -26.6225 H   0  0  0  0  0  0  0  0  0  0  0  0
   -5.4631   25.9293  -30.4501 H   0  0  0  0  0  0  0  0  0  0  0  0
   -7.3331   24.4740  -31.2698 H   0  0  0  0  0  0  0  0  0  0  0  0
   -8.8609   23.3261  -31.3189 H   0  0  0  0  0  0  0  0  0  0  0  0
  -10.7236   21.8845  -32.1308 H   0  0  0  0  0  0  0  0  0  0  0  0
  -10.3063   19.4931  -32.6942 H   0  0  0  0  0  0  0  0  0  0  0  0
   -8.3122   17.5143  -31.6830 H   0  0  0  0  0  0  0  0  0  0  0  0
   -8.4652   17.8828  -33.4534 H   0  0  0  0  0  0  0  0  0  0  0  0
   -5.9850   18.2500  -31.9020 H   0  0  0  0  0  0  0  0  0  0  0  0
   -6.3460   16.8090  -32.7220 H   0  0  0  0  0  0  0  0  0  0  0  0
   -5.8392   17.6493  -34.7042 H   0  0  0  0  0  0  0  0  0  0  0  0
   -6.7218   19.1761  -34.3292 H   0  0  0  0  0  0  0  0  0  0  0  0
   -3.4823   17.3510  -33.9816 H   0  0  0  0  0  0  0  0  0  0  0  0
   -1.3128   18.5274  -33.6099 H   0  0  0  0  0  0  0  0  0  0  0  0
   -1.2816   20.9807  -33.1423 H   0  0  0  0  0  0  0  0  0  0  0  0
   -3.4220   22.2614  -33.0511 H   0  0  0  0  0  0  0  0  0  0  0  0
   -5.5968   21.0931  -33.4201 H   0  0  0  0  0  0  0  0  0  0  0  0
   -6.1348   19.9727  -31.6335 H   0  0  0  0  0  0  0  0  0  0  0  0
   -4.9240   20.9299  -30.4842 H   0  0  0  0  0  0  0  0  0  0  0  0
  1  2  1  0
  2  3  1  0
  3  4  1  0
  4  5  2  0
  5  6  1  0
  6  7  2  0
  7  8  1  0
  8  9  2  0
  9 10  1  0
 10 11  2  0
 11 12  1  0
 12 13  2  0
 13 14  1  0
 14 15  1  0
 15 16  1  0
 16 17  1  0
 17 18  1  0
 18 19  2  0
 19 20  1  0
 20 21  2  0
 21 22  1  0
 22 23  2  0
 14 24  2  0
  9 25  1  0
 25 26  2  0
 26 27  1  0
 27  4  1  0
 26  6  1  0
 24 10  1  0
 23 18  1  0
  1 28  1  0
  1 29  1  0
  1 30  1  0
  2 31  1  0
  2 32  1  0
  7 33  1  0
  8 34  1  0
 11 35  1  0
 12 36  1  0
 13 37  1  0
 15 38  1  0
 15 39  1  0
 16 40  1  0
 16 41  1  0
 17 42  1  0
 17 43  1  0
 19 44  1  0
 20 45  1  0
 21 46  1  0
 22 47  1  0
 23 48  1  0
 24 49  1  0
 25 50  1  0
M  CHG  1  16   1
M  END
>  <UniqueID>  (28) 
28

>  <SMILES>  (28) 
CCSc1nc2ccc(-c3cccc(C[NH2+]Cc4ccccc4)c3)cc2s1

>  <Energy>  (28) 
86.42857928213581

>  <Genealogy>  (28) 
CCSc1nc2ccc(-c3cccc(C[NH2+]Cc4ccccc4)c3)cc2s1 (protonated)
CCSc1nc2ccc(-c3cccc(C[NH2+]Cc4ccccc4)c3)cc2s1 (3D coordinates assigned)
CCSc1nc2ccc(-c3cccc(C[NH2+]Cc4ccccc4)c3)cc2s1 (optimized conformer: 86.42857928213581 kcal/mol)

>  <smiles>  (28) 
CCSc1nc2ccc(-c3cccc(CNCc4ccccc4)c3)cc2s1

>  <score_type>  (28) 
oracle

>  <origin>  (28) 
adgpu

>  <m_score__min__energy>  (28) 
-8.8599999999999994

>  <m_primary>  (28) 
energy

$$$$
28:0
     RDKit          3D

 36 39  0  0  0  0  0  0  0  0999 V2000
   -3.0399   22.4936  -32.9352 H   0  0  0  0  0  0  0  0  0  0  0  0
   -3.2010   21.4340  -33.1830 C   0  0  0  0  0  0  0  0  0  0  0  0
   -4.4930   20.9000  -33.1590 C   0  0  0  0  0  0  0  0  0  0  0  0
   -5.3477   21.5456  -32.9085 H   0  0  0  0  0  0  0  0  0  0  0  0
   -4.7050   19.5400  -33.4540 C   0  0  0  0  0  0  0  0  0  0  0  0
   -6.0200   18.9600  -33.4750 N   0  0  0  0  0  0  0  0  0  0  0  0
   -7.0880   19.4170  -32.8830 C   0  0  0  0  0  0  0  0  0  0  0  0
   -7.0280   20.5090  -32.0700 N   0  0  0  0  0  0  0  0  0  0  0  0
   -8.1260   20.9780  -31.4240 C   0  0  0  0  0  0  0  0  0  0  0  0
   -8.0010   22.1220  -30.6220 O   0  0  0  0  0  0  0  0  0  0  0  0
   -6.8730   22.9520  -30.5610 C   0  0  0  0  0  0  0  0  0  0  0  0
   -6.9230   24.2100  -31.2100 C   0  0  0  0  0  0  0  0  0  0  0  0
   -7.8413   24.5144  -31.7335 H   0  0  0  0  0  0  0  0  0  0  0  0
   -5.8130   25.0760  -31.1940 C   0  0  0  0  0  0  0  0  0  0  0  0
   -5.8495   26.0577  -31.6888 H   0  0  0  0  0  0  0  0  0  0  0  0
   -4.6680   24.6460  -30.5300 C   0  0  0  0  0  0  0  0  0  0  0  0
   -3.4990   25.2920  -30.3940 N   0  0  0  0  0  0  0  0  0  0  0  0
   -2.6900   24.4980  -29.6980 N   0  0  0  0  0  0  0  0  0  0  0  0
   -3.3410   23.3500  -29.3930 C   0  0  0  0  0  0  0  0  0  0  0  0
   -2.9279   22.5031  -28.8254 H   0  0  0  0  0  0  0  0  0  0  0  0
   -4.6090   23.4300  -29.9180 C   0  0  0  0  0  0  0  0  0  0  0  0
   -5.6810   22.5450  -29.9110 C   0  0  0  0  0  0  0  0  0  0  0  0
   -5.6069   21.5641  -29.4187 H   0  0  0  0  0  0  0  0  0  0  0  0
   -9.3570   20.3350  -31.6130 C   0  0  0  0  0  0  0  0  0  0  0  0
  -10.2674   20.7092  -31.1219 H   0  0  0  0  0  0  0  0  0  0  0  0
   -9.4030   19.2120  -32.4360 C   0  0  0  0  0  0  0  0  0  0  0  0
  -10.3553   18.6836  -32.5908 H   0  0  0  0  0  0  0  0  0  0  0  0
   -8.2740   18.7680  -33.0480 N   0  0  0  0  0  0  0  0  0  0  0  0
   -8.3280   17.9220  -33.6600 H   0  0  0  0  0  0  0  0  0  0  0  0
   -3.6140   18.7430  -33.8230 C   0  0  0  0  0  0  0  0  0  0  0  0
   -3.7749   17.6896  -34.0959 H   0  0  0  0  0  0  0  0  0  0  0  0
   -2.3210   19.2770  -33.8470 C   0  0  0  0  0  0  0  0  0  0  0  0
   -1.4680   18.6390  -34.1216 H   0  0  0  0  0  0  0  0  0  0  0  0
   -2.1120   20.6220  -33.5220 C   0  0  0  0  0  0  0  0  0  0  0  0
   -0.7820   21.1730  -33.5480 C   0  0  0  0  0  0  0  0  0  0  0  0
    0.2870   21.6150  -33.5700 N   0  0  0  0  0  0  0  0  0  0  0  0
  1  2  1  0
  2  3  2  0
  3  4  1  0
  3  5  1  0
  5  6  1  0
  6  7  2  0
  7  8  1  0
  8  9  2  0
  9 10  1  0
 10 11  1  0
 11 12  2  0
 12 13  1  0
 12 14  1  0
 14 15  1  0
 14 16  2  0
 16 17  1  0
 17 18  1  0
 18 19  2  0
 19 20  1  0
 19 21  1  0
 21 22  2  0
 22 23  1  0
  9 24  1  0
 24 25  1  0
 24 26  2  0
 26 27  1  0
 26 28  1  0
 28 29  1  0
  5 30  2  0
 30 31  1  0
 30 32  1  0
 32 33  1  0
 32 34  2  0
 34 35  1  0
 35 36  3  0
 34  2  1  0
 28  7  1  0
 22 11  1  0
 21 16  1  0
M  CHG  1  17  -1
M  END
>  <UniqueID>  (29) 
29

>  <SMILES>  (29) 
N#Cc1ccc(/N=c2\nc(Oc3ccc4[n-]ncc4c3)cc[nH]2)cc1

>  <Energy>  (29) 
91.40599138610831

>  <Genealogy>  (29) 
N#Cc1ccc(N=c2nc(Oc3ccc4[n-]ncc4c3)cc[nH]2)cc1 (protonated)
N#Cc1ccc(/N=c2\nc(Oc3ccc4[n-]ncc4c3)cc[nH]2)cc1 (cis-trans isomerization)
N#Cc1ccc(/N=c2\nc(Oc3ccc4[n-]ncc4c3)cc[nH]2)cc1 (3D coordinates assigned)
N#Cc1ccc(/N=c2\nc(Oc3ccc4[n-]ncc4c3)cc[nH]2)cc1 (optimized conformer: 91.40599138610831 kcal/mol)

>  <smiles>  (29) 
N#Cc1ccc(N=c2nc(Oc3ccc4[nH]ncc4c3)cc[nH]2)cc1

>  <score_type>  (29) 
oracle

>  <origin>  (29) 
adgpu

>  <m_score__min__energy>  (29) 
-10.460000000000001

>  <m_primary>  (29) 
energy

$$$$
29:0
     RDKit          3D

 46 48  0  0  0  0  0  0  0  0999 V2000
   -3.5770   16.1070  -33.1260 C   0  0  0  0  0  0  0  0  0  0  0  0
   -4.6890   17.0880  -33.5220 C   0  0  0  0  0  0  0  0  0  0  0  0
   -4.8190   18.2380  -32.4930 C   0  0  0  0  0  0  0  0  0  0  0  0
   -5.9140   17.9490  -31.4550 C   0  0  0  0  0  0  0  0  0  0  0  0
   -7.2480   17.7230  -32.0670 N   0  0  0  0  0  0  0  0  0  0  0  0
   -8.2790   19.1260  -31.9040 S   0  0  0  0  0  0  0  0  0  0  0  0
   -9.2260   19.1910  -33.0700 O   0  0  0  0  0  0  0  0  0  0  0  0
   -9.0960   18.9980  -30.6480 O   0  0  0  0  0  0  0  0  0  0  0  0
   -7.3390   20.6190  -31.8340 C   0  0  0  0  0  0  0  0  0  0  0  0
   -6.3170   20.8540  -32.7630 C   0  0  0  0  0  0  0  0  0  0  0  0
   -5.5590   22.0270  -32.6950 C   0  0  0  0  0  0  0  0  0  0  0  0
   -5.8240   22.9880  -31.7120 C   0  0  0  0  0  0  0  0  0  0  0  0
   -5.0050   24.1660  -31.6620 N   0  0  0  0  0  0  0  0  0  0  0  0
   -4.2660   24.6470  -30.5310 C   0  0  0  0  0  0  0  0  0  0  0  0
   -4.4490   25.8240  -30.1180 O   0  0  0  0  0  0  0  0  0  0  0  0
   -3.2480   23.7750  -29.8860 C   0  0  0  0  0  0  0  0  0  0  0  0
   -3.4530   22.3800  -29.8410 C   0  0  0  0  0  0  0  0  0  0  0  0
   -2.5120   21.5390  -29.2400 C   0  0  0  0  0  0  0  0  0  0  0  0
   -1.3550   22.0750  -28.6750 C   0  0  0  0  0  0  0  0  0  0  0  0
   -1.1350   23.4510  -28.7080 C   0  0  0  0  0  0  0  0  0  0  0  0
   -2.0700   24.3040  -29.3070 C   0  0  0  0  0  0  0  0  0  0  0  0
   -1.8120   25.6710  -29.3150 O   0  0  0  0  0  0  0  0  0  0  0  0
   -6.8400   22.7450  -30.7700 C   0  0  0  0  0  0  0  0  0  0  0  0
   -7.5970   21.5710  -30.8400 C   0  0  0  0  0  0  0  0  0  0  0  0
   -7.2140   17.2690  -33.4730 C   0  0  0  0  0  0  0  0  0  0  0  0
   -6.0260   16.3380  -33.7280 C   0  0  0  0  0  0  0  0  0  0  0  0
   -3.5120   16.0497  -32.0294 H   0  0  0  0  0  0  0  0  0  0  0  0
   -3.8052   15.1106  -33.5324 H   0  0  0  0  0  0  0  0  0  0  0  0
   -2.6168   16.4576  -33.5324 H   0  0  0  0  0  0  0  0  0  0  0  0
   -4.4169   17.5518  -34.4816 H   0  0  0  0  0  0  0  0  0  0  0  0
   -3.8578   18.3613  -31.9726 H   0  0  0  0  0  0  0  0  0  0  0  0
   -5.0934   19.1548  -33.0354 H   0  0  0  0  0  0  0  0  0  0  0  0
   -5.6313   17.0496  -30.8883 H   0  0  0  0  0  0  0  0  0  0  0  0
   -5.9949   18.8340  -30.8067 H   0  0  0  0  0  0  0  0  0  0  0  0
   -6.1101   20.1128  -33.5490 H   0  0  0  0  0  0  0  0  0  0  0  0
   -4.7485   22.1960  -33.4192 H   0  0  0  0  0  0  0  0  0  0  0  0
   -4.3633   21.9494  -30.2837 H   0  0  0  0  0  0  0  0  0  0  0  0
   -2.6843   20.4529  -29.2126 H   0  0  0  0  0  0  0  0  0  0  0  0
   -0.6155   21.4114  -28.2030 H   0  0  0  0  0  0  0  0  0  0  0  0
   -0.2213   23.8694  -28.2607 H   0  0  0  0  0  0  0  0  0  0  0  0
   -7.0396   23.4801  -29.9764 H   0  0  0  0  0  0  0  0  0  0  0  0
   -8.4002   21.3944  -30.1095 H   0  0  0  0  0  0  0  0  0  0  0  0
   -8.1462   16.7303  -33.6983 H   0  0  0  0  0  0  0  0  0  0  0  0
   -7.1086   18.1519  -34.1206 H   0  0  0  0  0  0  0  0  0  0  0  0
   -6.0755   15.4899  -33.0293 H   0  0  0  0  0  0  0  0  0  0  0  0
   -6.0741   15.9801  -34.7670 H   0  0  0  0  0  0  0  0  0  0  0  0
  1  2  1  0
  2  3  1  0
  3  4  1  0
  4  5  1  0
  5  6  1  0
  6  7  2  0
  6  8  2  0
  6  9  1  0
  9 10  2  0
 10 11  1  0
 11 12  2  0
 12 13  1  0
 13 14  1  0
 14 15  2  0
 14 16  1  0
 16 17  2  0
 17 18  1  0
 18 19  2  0
 19 20  1  0
 20 21  2  0
 21 22  1  0
 12 23  1  0
 23 24  2  0
  5 25  1  0
 25 26  1  0
 26  2  1  0
 24  9  1  0
 21 16  1  0
  1 27  1  0
  1 28  1  0
  1 29  1  0
  2 30  1  0
  3 31  1  0
  3 32  1  0
  4 33  1  0
  4 34  1  0
 10 35  1  0
 11 36  1  0
 17 37  1  0
 18 38  1  0
 19 39  1  0
 20 40  1  0
 23 41  1  0
 24 42  1  0
 25 43  1  0
 25 44  1  0
 26 45  1  0
 26 46  1  0
M  CHG  2  13  -1  22  -1
M  END
>  <UniqueID>  (30) 
30

>  <SMILES>  (30) 
CC1CCN(S(=O)(=O)c2ccc([N-]C(=O)c3ccccc3[O-])cc2)CC1

>  <Energy>  (30) 
57.102420114193265

>  <Genealogy>  (30) 
CC1CCN(S(=O)(=O)c2ccc([N-]C(=O)c3ccccc3[O-])cc2)CC1 (protonated)
CC1CCN(S(=O)(=O)c2ccc([N-]C(=O)c3ccccc3[O-])cc2)CC1 (3D coordinates assigned)
CC1CCN(S(=O)(=O)c2ccc([N-]C(=O)c3ccccc3[O-])cc2)CC1 (nonaromatic ring conformer: 57.102420114193265 kcal/mol)

>  <smiles>  (30) 
CC1CCN(S(=O)(=O)c2ccc(NC(=O)c3ccccc3O)cc2)CC1

>  <score_type>  (30) 
oracle

>  <origin>  (30) 
adgpu

>  <m_score__min__energy>  (30) 
-13.73

>  <m_primary>  (30) 
energy

$$$$
30:0
     RDKit          3D

 53 55  0  0  0  0  0  0  0  0999 V2000
    0.5570   26.2760  -26.6130 C   0  0  0  0  0  0  0  0  0  0  0  0
    0.7740   25.3330  -27.6580 O   0  0  0  0  0  0  0  0  0  0  0  0
   -0.2400   24.5870  -28.2810 C   0  0  0  0  0  0  0  0  0  0  0  0
   -0.2600   23.1830  -28.2560 C   0  0  0  0  0  0  0  0  0  0  0  0
   -1.2890   22.4790  -28.8860 C   0  0  0  0  0  0  0  0  0  0  0  0
   -2.3200   23.1610  -29.5630 C   0  0  0  0  0  0  0  0  0  0  0  0
   -3.3940   22.3850  -30.2350 C   0  0  0  0  0  0  0  0  0  0  0  0
   -3.6110   21.1840  -29.9170 O   0  0  0  0  0  0  0  0  0  0  0  0
   -4.2210   23.0110  -31.2240 N   0  0  0  0  0  0  0  0  0  0  0  0
   -5.6390   22.8290  -31.3300 C   0  0  0  0  0  0  0  0  0  0  0  0
   -6.1230   21.5320  -31.5490 C   0  0  0  0  0  0  0  0  0  0  0  0
   -7.4960   21.2980  -31.6910 C   0  0  0  0  0  0  0  0  0  0  0  0
   -8.0910   19.6590  -31.9690 S   0  0  0  0  0  0  0  0  0  0  0  0
   -8.8280   19.6150  -33.2790 O   0  0  0  0  0  0  0  0  0  0  0  0
   -9.0620   19.2930  -30.8790 O   0  0  0  0  0  0  0  0  0  0  0  0
   -6.7750   18.5080  -32.0020 N   0  0  0  0  0  0  0  0  0  0  0  0
   -7.2630   17.1890  -32.4640 C   0  0  0  0  0  0  0  0  0  0  0  0
   -6.1230   16.3190  -33.0520 C   0  0  0  0  0  0  0  0  0  0  0  0
   -5.9870   16.4220  -34.5840 C   0  0  0  0  0  0  0  0  0  0  0  0
   -5.4530   17.7850  -35.0880 C   0  0  0  0  0  0  0  0  0  0  0  0
   -5.9810   19.0260  -34.3440 C   0  0  0  0  0  0  0  0  0  0  0  0
   -5.6760   19.0390  -32.8340 C   0  0  0  0  0  0  0  0  0  0  0  0
   -8.3930   22.3680  -31.5960 C   0  0  0  0  0  0  0  0  0  0  0  0
   -7.9250   23.6580  -31.3350 C   0  0  0  0  0  0  0  0  0  0  0  0
   -6.5520   23.9010  -31.1740 C   0  0  0  0  0  0  0  0  0  0  0  0
   -6.1000   25.2940  -30.8260 C   0  0  0  0  0  0  0  0  0  0  0  0
   -2.2980   24.5730  -29.5830 C   0  0  0  0  0  0  0  0  0  0  0  0
   -3.3030   25.2950  -30.2250 O   0  0  0  0  0  0  0  0  0  0  0  0
   -1.2630   25.2740  -28.9480 C   0  0  0  0  0  0  0  0  0  0  0  0
   -1.2520   26.6650  -28.9790 O   0  0  0  0  0  0  0  0  0  0  0  0
    0.6718   25.7772  -25.6393 H   0  0  0  0  0  0  0  0  0  0  0  0
    1.2911   27.0910  -26.6963 H   0  0  0  0  0  0  0  0  0  0  0  0
   -0.4595   26.6882  -26.6963 H   0  0  0  0  0  0  0  0  0  0  0  0
    0.5397   22.6342  -27.7370 H   0  0  0  0  0  0  0  0  0  0  0  0
   -1.2947   21.3795  -28.8533 H   0  0  0  0  0  0  0  0  0  0  0  0
   -5.4176   20.6902  -31.6099 H   0  0  0  0  0  0  0  0  0  0  0  0
   -7.7107   16.6578  -31.6111 H   0  0  0  0  0  0  0  0  0  0  0  0
   -8.0027   17.3612  -33.2598 H   0  0  0  0  0  0  0  0  0  0  0  0
   -5.1736   16.6385  -32.5975 H   0  0  0  0  0  0  0  0  0  0  0  0
   -6.3690   15.2717  -32.8225 H   0  0  0  0  0  0  0  0  0  0  0  0
   -5.2961   15.6355  -34.9218 H   0  0  0  0  0  0  0  0  0  0  0  0
   -7.0000   16.3091  -34.9976 H   0  0  0  0  0  0  0  0  0  0  0  0
   -4.3572   17.7747  -34.9927 H   0  0  0  0  0  0  0  0  0  0  0  0
   -5.8100   17.8822  -36.1239 H   0  0  0  0  0  0  0  0  0  0  0  0
   -5.5232   19.9186  -34.7954 H   0  0  0  0  0  0  0  0  0  0  0  0
   -7.0764   19.0098  -34.4434 H   0  0  0  0  0  0  0  0  0  0  0  0
   -4.7789   18.4280  -32.6556 H   0  0  0  0  0  0  0  0  0  0  0  0
   -5.5321   20.0903  -32.5440 H   0  0  0  0  0  0  0  0  0  0  0  0
   -9.4709   22.1925  -31.7274 H   0  0  0  0  0  0  0  0  0  0  0  0
   -8.6390   24.4910  -31.2549 H   0  0  0  0  0  0  0  0  0  0  0  0
   -6.0639   25.4053  -29.7322 H   0  0  0  0  0  0  0  0  0  0  0  0
   -5.0986   25.4701  -31.2457 H   0  0  0  0  0  0  0  0  0  0  0  0
   -6.8072   26.0245  -31.2457 H   0  0  0  0  0  0  0  0  0  0  0  0
  1  2  1  0
  2  3  1  0
  3  4  2  0
  4  5  1  0
  5  6  2  0
  6  7  1  0
  7  8  2  0
  7  9  1  0
  9 10  1  0
 10 11  2  0
 11 12  1  0
 12 13  1  0
 13 14  2  0
 13 15  2  0
 13 16  1  0
 16 17  1  0
 17 18  1  0
 18 19  1  0
 19 20  1  0
 20 21  1  0
 21 22  1  0
 12 23  2  0
 23 24  1  0
 24 25  2  0
 25 26  1  0
  6 27  1  0
 27 28  1  0
 27 29  2  0
 29 30  1  0
 29  3  1  0
 25 10  1  0
 22 16  1  0
  1 31  1  0
  1 32  1  0
  1 33  1  0
  4 34  1  0
  5 35  1  0
 11 36  1  0
 17 37  1  0
 17 38  1  0
 18 39  1  0
 18 40  1  0
 19 41  1  0
 19 42  1  0
 20 43  1  0
 20 44  1  0
 21 45  1  0
 21 46  1  0
 22 47  1  0
 22 48  1  0
 23 49  1  0
 24 50  1  0
 26 51  1  0
 26 52  1  0
 26 53  1  0
M  CHG  3   9  -1  28  -1  30  -1
M  END
>  <UniqueID>  (31) 
31

>  <SMILES>  (31) 
COc1ccc(C(=O)[N-]c2cc(S(=O)(=O)N3CCCCCC3)ccc2C)c([O-])c1[O-]

>  <Energy>  (31) 
70.25061858202976

>  <Genealogy>  (31) 
COc1ccc(C(=O)[N-]c2cc(S(=O)(=O)N3CCCCCC3)ccc2C)c([O-])c1[O-] (protonated)
COc1ccc(C(=O)[N-]c2cc(S(=O)(=O)N3CCCCCC3)ccc2C)c([O-])c1[O-] (3D coordinates assigned)
COc1ccc(C(=O)[N-]c2cc(S(=O)(=O)N3CCCCCC3)ccc2C)c([O-])c1[O-] (nonaromatic ring conformer: 70.25061858202976 kcal/mol)

>  <smiles>  (31) 
COc1ccc(C(=O)Nc2cc(S(=O)(=O)N3CCCCCC3)ccc2C)c(O)c1O

>  <score_type>  (31) 
oracle

>  <origin>  (31) 
adgpu

>  <m_score__min__energy>  (31) 
-13.98

>  <m_primary>  (31) 
energy

$$$$
31:0
     RDKit          3D

 42 42  0  0  0  0  0  0  0  0999 V2000
   -2.0067   21.6431  -31.9069 H   0  0  0  0  0  0  0  0  0  0  0  0
   -2.4060   21.5340  -32.9260 C   0  0  0  0  0  0  0  0  0  0  0  0
   -1.8389   20.7579  -33.4608 H   0  0  0  0  0  0  0  0  0  0  0  0
   -2.3124   22.4907  -33.4608 H   0  0  0  0  0  0  0  0  0  0  0  0
   -3.8110   21.1500  -32.8590 N   0  0  0  0  0  0  0  0  0  0  0  0
   -4.7360   21.8750  -32.3040 C   0  0  0  0  0  0  0  0  0  0  0  0
   -6.0180   21.4310  -32.2990 N   0  0  0  0  0  0  0  0  0  0  0  0
   -7.0070   22.1750  -31.7350 C   0  0  0  0  0  0  0  0  0  0  0  0
   -8.3730   21.7120  -31.7710 N   0  0  0  0  0  0  0  0  0  0  0  0
   -9.4530   22.6830  -31.9720 C   0  0  0  0  0  0  0  0  0  0  0  0
   -9.8288   23.0209  -30.9950 H   0  0  0  0  0  0  0  0  0  0  0  0
   -9.0697   23.5462  -32.5359 H   0  0  0  0  0  0  0  0  0  0  0  0
  -10.2707   22.2104  -32.5359 H   0  0  0  0  0  0  0  0  0  0  0  0
   -8.7130   20.3030  -31.5200 C   0  0  0  0  0  0  0  0  0  0  0  0
   -8.2022   19.9679  -30.6052 H   0  0  0  0  0  0  0  0  0  0  0  0
   -9.8041   20.2225  -31.4061 H   0  0  0  0  0  0  0  0  0  0  0  0
   -8.2780   19.4090  -32.6940 C   0  0  0  0  0  0  0  0  0  0  0  0
   -9.1293   18.7768  -32.9866 H   0  0  0  0  0  0  0  0  0  0  0  0
   -7.9579   20.0730  -33.5104 H   0  0  0  0  0  0  0  0  0  0  0  0
   -7.0780   18.4910  -32.3480 C   0  0  0  0  0  0  0  0  0  0  0  0
   -6.8769   18.5668  -31.2692 H   0  0  0  0  0  0  0  0  0  0  0  0
   -7.3494   17.4661  -32.6411 H   0  0  0  0  0  0  0  0  0  0  0  0
   -5.8460   18.8550  -33.0860 N   0  0  0  0  0  0  0  0  0  0  0  0
   -5.4990   19.7860  -32.7530 H   0  0  0  0  0  0  0  0  0  0  0  0
   -4.7890   17.8620  -32.8230 C   0  0  0  0  0  0  0  0  0  0  0  0
   -4.6609   17.7417  -31.7371 H   0  0  0  0  0  0  0  0  0  0  0  0
   -5.0736   16.8970  -33.2678 H   0  0  0  0  0  0  0  0  0  0  0  0
   -3.8437   18.2062  -33.2678 H   0  0  0  0  0  0  0  0  0  0  0  0
   -6.0970   18.9300  -34.5390 C   0  0  0  0  0  0  0  0  0  0  0  0
   -7.1372   19.2408  -34.7158 H   0  0  0  0  0  0  0  0  0  0  0  0
   -5.4132   19.6631  -34.9919 H   0  0  0  0  0  0  0  0  0  0  0  0
   -5.9275   17.9420  -34.9919 H   0  0  0  0  0  0  0  0  0  0  0  0
   -6.6960   23.3690  -31.1640 N   0  0  0  0  0  0  0  0  0  0  0  0
   -5.4160   23.8190  -31.1610 C   0  0  0  0  0  0  0  0  0  0  0  0
   -5.1000   25.1690  -30.5970 C   0  0  0  0  0  0  0  0  0  0  0  0
   -4.9817   25.8875  -31.4215 H   0  0  0  0  0  0  0  0  0  0  0  0
   -4.1684   25.1034  -30.0157 H   0  0  0  0  0  0  0  0  0  0  0  0
   -6.2220   25.6380  -29.6800 C   0  0  0  0  0  0  0  0  0  0  0  0
   -5.9160   25.5101  -28.6312 H   0  0  0  0  0  0  0  0  0  0  0  0
   -6.4338   26.7000  -29.8733 H   0  0  0  0  0  0  0  0  0  0  0  0
   -7.1265   25.0427  -29.8733 H   0  0  0  0  0  0  0  0  0  0  0  0
   -4.4390   23.0770  -31.7400 N   0  0  0  0  0  0  0  0  0  0  0  0
  1  2  1  0
  2  3  1  0
  2  4  1  0
  2  5  1  0
  5  6  2  0
  6  7  1  0
  7  8  2  0
  8  9  1  0
  9 10  1  0
 10 11  1  0
 10 12  1  0
 10 13  1  0
  9 14  1  0
 14 15  1  0
 14 16  1  0
 14 17  1  0
 17 18  1  0
 17 19  1  0
 17 20  1  0
 20 21  1  0
 20 22  1  0
 20 23  1  0
 23 24  1  0
 23 25  1  0
 25 26  1  0
 25 27  1  0
 25 28  1  0
 23 29  1  0
 29 30  1  0
 29 31  1  0
 29 32  1  0
  8 33  1  0
 33 34  1  0
 34 35  1  0
 35 36  1  0
 35 37  1  0
 35 38  1  0
 38 39  1  0
 38 40  1  0
 38 41  1  0
 34 42  2  0
 42  6  1  0
M  CHG  2  23   1  33  -1
M  END
>  <UniqueID>  (32) 
32

>  <SMILES>  (32) 
CCc1n/c(=N\C)nc(N(C)CCC[NH+](C)C)[n-]1

>  <Energy>  (32) 
31.905059034500912

>  <Genealogy>  (32) 
CCc1nc(=NC)nc(N(C)CCC[NH+](C)C)[n-]1 (protonated)
CCc1n/c(=N\C)nc(N(C)CCC[NH+](C)C)[n-]1 (cis-trans isomerization)
CCc1n/c(=N\C)nc(N(C)CCC[NH+](C)C)[n-]1 (3D coordinates assigned)
CCc1n/c(=N\C)nc(N(C)CCC[NH+](C)C)[n-]1 (optimized conformer: 31.905059034500912 kcal/mol)

>  <smiles>  (32) 
CCc1nc(=NC)nc(N(C)CCCN(C)C)[nH]1

>  <score_type>  (32) 
oracle

>  <origin>  (32) 
adgpu

>  <m_score__min__energy>  (32) 
-6.4900000000000002

>  <m_primary>  (32) 
energy

$$$$
32:0
     RDKit          3D

 52 55  0  0  0  0  0  0  0  0999 V2000
   -6.0430   17.9550  -34.8140 O   0  0  0  0  0  0  0  0  0  0  0  0
   -5.7330   18.9400  -34.0930 C   0  0  0  0  0  0  0  0  0  0  0  0
   -4.3310   19.0880  -33.5830 C   0  0  0  0  0  0  0  0  0  0  0  0
   -3.9500   20.5720  -33.4690 C   0  0  0  0  0  0  0  0  0  0  0  0
   -5.0140   21.3740  -32.7590 C   0  0  0  0  0  0  0  0  0  0  0  0
   -4.6660   22.5050  -32.0020 C   0  0  0  0  0  0  0  0  0  0  0  0
   -5.6590   23.2770  -31.3830 C   0  0  0  0  0  0  0  0  0  0  0  0
   -5.2120   24.6180  -30.3300 S   0  0  0  0  0  0  0  0  0  0  0  0
   -5.9690   25.8460  -30.7540 O   0  0  0  0  0  0  0  0  0  0  0  0
   -5.5520   24.2890  -28.9000 O   0  0  0  0  0  0  0  0  0  0  0  0
   -3.5070   24.9330  -30.4390 N   0  0  0  0  0  0  0  0  0  0  0  0
   -2.4880   24.2270  -29.7150 C   0  0  0  0  0  0  0  0  0  0  0  0
   -2.4030   22.8210  -29.7280 C   0  0  0  0  0  0  0  0  0  0  0  0
   -1.3580   22.1630  -29.0640 C   0  0  0  0  0  0  0  0  0  0  0  0
   -1.1880   20.4120  -29.1980 S   0  0  0  0  0  0  0  0  0  0  0  0
    0.1530   20.0150  -28.6430 O   0  0  0  0  0  0  0  0  0  0  0  0
   -2.2400   19.7620  -28.3440 O   0  0  0  0  0  0  0  0  0  0  0  0
   -1.3310   19.8090  -30.8370 N   0  0  0  0  0  0  0  0  0  0  0  0
   -0.5280   18.6010  -31.1140 C   0  0  0  0  0  0  0  0  0  0  0  0
    0.9020   18.9120  -31.5810 C   0  0  0  0  0  0  0  0  0  0  0  0
    0.8860   19.8900  -32.7520 C   0  0  0  0  0  0  0  0  0  0  0  0
    0.1540   21.1680  -32.3530 C   0  0  0  0  0  0  0  0  0  0  0  0
   -1.2720   20.8560  -31.8780 C   0  0  0  0  0  0  0  0  0  0  0  0
   -0.4000   22.9150  -28.3720 C   0  0  0  0  0  0  0  0  0  0  0  0
   -0.4990   24.3070  -28.3230 C   0  0  0  0  0  0  0  0  0  0  0  0
   -1.5340   24.9620  -28.9970 C   0  0  0  0  0  0  0  0  0  0  0  0
   -1.6030   26.3500  -28.9590 O   0  0  0  0  0  0  0  0  0  0  0  0
   -7.0080   22.9440  -31.5640 C   0  0  0  0  0  0  0  0  0  0  0  0
   -7.3640   21.8350  -32.3370 C   0  0  0  0  0  0  0  0  0  0  0  0
   -6.3730   21.0420  -32.9310 C   0  0  0  0  0  0  0  0  0  0  0  0
   -6.7340   19.8840  -33.6960 N   0  0  0  0  0  0  0  0  0  0  0  0
   -4.2558   18.6184  -32.5911 H   0  0  0  0  0  0  0  0  0  0  0  0
   -3.6437   18.5990  -34.2891 H   0  0  0  0  0  0  0  0  0  0  0  0
   -3.0080   20.6551  -32.9071 H   0  0  0  0  0  0  0  0  0  0  0  0
   -3.8419   20.9751  -34.4867 H   0  0  0  0  0  0  0  0  0  0  0  0
   -3.6081   22.7865  -31.8943 H   0  0  0  0  0  0  0  0  0  0  0  0
   -3.1634   22.2340  -30.2639 H   0  0  0  0  0  0  0  0  0  0  0  0
   -0.4714   18.0015  -30.1935 H   0  0  0  0  0  0  0  0  0  0  0  0
   -1.0263   18.0608  -31.9325 H   0  0  0  0  0  0  0  0  0  0  0  0
    1.4656   19.3561  -30.7473 H   0  0  0  0  0  0  0  0  0  0  0  0
    1.3787   17.9762  -31.9082 H   0  0  0  0  0  0  0  0  0  0  0  0
    1.9200   20.1357  -33.0359 H   0  0  0  0  0  0  0  0  0  0  0  0
    0.3662   19.4263  -33.6033 H   0  0  0  0  0  0  0  0  0  0  0  0
    0.7057   21.6598  -31.5382 H   0  0  0  0  0  0  0  0  0  0  0  0
    0.0958   21.8287  -33.2306 H   0  0  0  0  0  0  0  0  0  0  0  0
   -1.7125   21.7777  -31.4701 H   0  0  0  0  0  0  0  0  0  0  0  0
   -1.8275   20.4778  -32.7489 H   0  0  0  0  0  0  0  0  0  0  0  0
    0.4336   22.4069  -27.8651 H   0  0  0  0  0  0  0  0  0  0  0  0
    0.2393   24.8897  -27.7526 H   0  0  0  0  0  0  0  0  0  0  0  0
   -7.7909   23.5584  -31.0954 H   0  0  0  0  0  0  0  0  0  0  0  0
   -8.4255   21.5840  -32.4795 H   0  0  0  0  0  0  0  0  0  0  0  0
   -7.7330   19.7070  -33.9450 H   0  0  0  0  0  0  0  0  0  0  0  0
  1  2  2  0
  2  3  1  0
  3  4  1  0
  4  5  1  0
  5  6  2  0
  6  7  1  0
  7  8  1  0
  8  9  2  0
  8 10  2  0
  8 11  1  0
 11 12  1  0
 12 13  2  0
 13 14  1  0
 14 15  1  0
 15 16  2  0
 15 17  2  0
 15 18  1  0
 18 19  1  0
 19 20  1  0
 20 21  1  0
 21 22  1  0
 22 23  1  0
 14 24  2  0
 24 25  1  0
 25 26  2  0
 26 27  1  0
  7 28  2  0
 28 29  1  0
 29 30  2  0
 30 31  1  0
 31  2  1  0
 30  5  1  0
 26 12  1  0
 23 18  1  0
  3 32  1  0
  3 33  1  0
  4 34  1  0
  4 35  1  0
  6 36  1  0
 13 37  1  0
 19 38  1  0
 19 39  1  0
 20 40  1  0
 20 41  1  0
 21 42  1  0
 21 43  1  0
 22 44  1  0
 22 45  1  0
 23 46  1  0
 23 47  1  0
 24 48  1  0
 25 49  1  0
 28 50  1  0
 29 51  1  0
 31 52  1  0
M  CHG  2  11  -1  27  -1
M  END
>  <UniqueID>  (33) 
33

>  <SMILES>  (33) 
O=C1CCc2cc(S(=O)(=O)[N-]c3cc(S(=O)(=O)N4CCCCC4)ccc3[O-])ccc2N1

>  <Energy>  (33) 
57.50140200073337

>  <Genealogy>  (33) 
O=C1CCc2cc(S(=O)(=O)[N-]c3cc(S(=O)(=O)N4CCCCC4)ccc3[O-])ccc2N1 (protonated)
O=C1CCc2cc(S(=O)(=O)[N-]c3cc(S(=O)(=O)N4CCCCC4)ccc3[O-])ccc2N1 (3D coordinates assigned)
O=C1CCc2cc(S(=O)(=O)[N-]c3cc(S(=O)(=O)N4CCCCC4)ccc3[O-])ccc2N1 (nonaromatic ring conformer: 57.50140200073337 kcal/mol)

>  <smiles>  (33) 
O=C1CCc2cc(S(=O)(=O)Nc3cc(S(=O)(=O)N4CCCCC4)ccc3O)ccc2N1

>  <score_type>  (33) 
oracle

>  <origin>  (33) 
adgpu

>  <m_score__min__energy>  (33) 
-14.93

>  <m_primary>  (33) 
energy

$$$$
33:0
     RDKit          3D

 54 56  0  0  0  0  0  0  0  0999 V2000
   -2.7844   21.6146  -31.8806 H   0  0  0  0  0  0  0  0  0  0  0  0
   -3.6480   21.2160  -31.3280 C   0  0  0  0  0  0  0  0  0  0  0  0
   -3.5950   21.1110  -30.0330 N   0  0  0  0  0  0  0  0  0  0  0  0
   -2.4760   21.4190  -29.1830 C   0  0  0  0  0  0  0  0  0  0  0  0
   -1.7200   20.4330  -28.5170 C   0  0  0  0  0  0  0  0  0  0  0  0
   -1.9543   19.3684  -28.6648 H   0  0  0  0  0  0  0  0  0  0  0  0
   -0.6730   20.8060  -27.6690 C   0  0  0  0  0  0  0  0  0  0  0  0
   -0.0823   20.0331  -27.1556 H   0  0  0  0  0  0  0  0  0  0  0  0
   -0.3740   22.1550  -27.4710 C   0  0  0  0  0  0  0  0  0  0  0  0
    0.4412   22.4423  -26.7906 H   0  0  0  0  0  0  0  0  0  0  0  0
   -1.1100   23.1440  -28.1370 C   0  0  0  0  0  0  0  0  0  0  0  0
   -0.7850   24.8540  -27.8350 S   0  0  0  0  0  0  0  0  0  0  0  0
   -1.4140   25.6710  -28.9270 O   0  0  0  0  0  0  0  0  0  0  0  0
    0.6990   25.0920  -27.8730 O   0  0  0  0  0  0  0  0  0  0  0  0
   -1.4010   25.3710  -26.2800 N   0  0  0  0  0  0  0  0  0  0  0  0
   -0.6390   24.7710  -25.1620 C   0  0  0  0  0  0  0  0  0  0  0  0
   -1.1383   23.8395  -24.8571 H   0  0  0  0  0  0  0  0  0  0  0  0
    0.3847   24.5885  -25.5209 H   0  0  0  0  0  0  0  0  0  0  0  0
   -0.5410   25.6940  -23.9440 C   0  0  0  0  0  0  0  0  0  0  0  0
   -1.5524   25.9225  -23.5768 H   0  0  0  0  0  0  0  0  0  0  0  0
    0.0360   25.1918  -23.1535 H   0  0  0  0  0  0  0  0  0  0  0  0
    0.1630   26.9940  -24.3340 C   0  0  0  0  0  0  0  0  0  0  0  0
    0.0176   27.7283  -23.5280 H   0  0  0  0  0  0  0  0  0  0  0  0
    1.2274   26.7623  -24.4865 H   0  0  0  0  0  0  0  0  0  0  0  0
   -0.3760   27.5920  -25.6490 C   0  0  0  0  0  0  0  0  0  0  0  0
   -0.6701   28.6354  -25.4622 H   0  0  0  0  0  0  0  0  0  0  0  0
    0.4290   27.5124  -26.3944 H   0  0  0  0  0  0  0  0  0  0  0  0
   -1.5920   26.8370  -26.2140 C   0  0  0  0  0  0  0  0  0  0  0  0
   -2.4602   27.0460  -25.5717 H   0  0  0  0  0  0  0  0  0  0  0  0
   -1.7399   27.1897  -27.2454 H   0  0  0  0  0  0  0  0  0  0  0  0
   -2.1410   22.7670  -29.0090 C   0  0  0  0  0  0  0  0  0  0  0  0
   -2.6935   23.5400  -29.5633 H   0  0  0  0  0  0  0  0  0  0  0  0
   -4.8730   20.7990  -32.0670 C   0  0  0  0  0  0  0  0  0  0  0  0
   -6.1130   21.3390  -31.7010 C   0  0  0  0  0  0  0  0  0  0  0  0
   -6.1717   22.0885  -30.8980 H   0  0  0  0  0  0  0  0  0  0  0  0
   -7.2680   20.9270  -32.3530 C   0  0  0  0  0  0  0  0  0  0  0  0
   -8.5960   21.5020  -31.9830 C   0  0  0  0  0  0  0  0  0  0  0  0
   -8.6862   21.5411  -30.8874 H   0  0  0  0  0  0  0  0  0  0  0  0
   -8.6830   22.5184  -32.3946 H   0  0  0  0  0  0  0  0  0  0  0  0
   -9.3967   20.8700  -32.3946 H   0  0  0  0  0  0  0  0  0  0  0  0
   -7.1790   20.0090  -33.3420 N   0  0  0  0  0  0  0  0  0  0  0  0
   -6.0200   19.4770  -33.7330 N   0  0  0  0  0  0  0  0  0  0  0  0
   -6.0830   18.4760  -34.8110 C   0  0  0  0  0  0  0  0  0  0  0  0
   -5.1548   18.5259  -35.3992 H   0  0  0  0  0  0  0  0  0  0  0  0
   -6.9582   18.7006  -35.4384 H   0  0  0  0  0  0  0  0  0  0  0  0
   -6.2440   17.0530  -34.2530 C   0  0  0  0  0  0  0  0  0  0  0  0
   -5.3114   16.4965  -34.4279 H   0  0  0  0  0  0  0  0  0  0  0  0
   -7.0942   16.5827  -34.7688 H   0  0  0  0  0  0  0  0  0  0  0  0
   -6.5450   17.0500  -32.7550 C   0  0  0  0  0  0  0  0  0  0  0  0
   -5.6005   17.0594  -32.1912 H   0  0  0  0  0  0  0  0  0  0  0  0
   -7.1345   17.9423  -32.4977 H   0  0  0  0  0  0  0  0  0  0  0  0
   -7.1166   16.1461  -32.4977 H   0  0  0  0  0  0  0  0  0  0  0  0
   -4.8400   19.8460  -33.1200 C   0  0  0  0  0  0  0  0  0  0  0  0
   -3.4000   19.2070  -33.6180 S   0  0  0  0  0  0  0  0  0  0  0  0
  1  2  1  0
  2  3  2  0
  3  4  1  0
  4  5  2  0
  5  6  1  0
  5  7  1  0
  7  8  1  0
  7  9  2  0
  9 10  1  0
  9 11  1  0
 11 12  1  0
 12 13  2  0
 12 14  2  0
 12 15  1  0
 15 16  1  0
 16 17  1  0
 16 18  1  0
 16 19  1  0
 19 20  1  0
 19 21  1  0
 19 22  1  0
 22 23  1  0
 22 24  1  0
 22 25  1  0
 25 26  1  0
 25 27  1  0
 25 28  1  0
 28 29  1  0
 28 30  1  0
 11 31  2  0
 31 32  1  0
  2 33  1  0
 33 34  2  0
 34 35  1  0
 34 36  1  0
 36 37  1  0
 37 38  1  0
 37 39  1  0
 37 40  1  0
 36 41  2  0
 41 42  1  0
 42 43  1  0
 43 44  1  0
 43 45  1  0
 43 46  1  0
 46 47  1  0
 46 48  1  0
 46 49  1  0
 49 50  1  0
 49 51  1  0
 49 52  1  0
 42 53  1  0
 53 54  2  0
 31  4  1  0
 53 33  1  0
 28 15  1  0
M  END
>  <UniqueID>  (34) 
34

>  <SMILES>  (34) 
CCCn1nc(C)cc(/C=N/c2cccc(S(=O)(=O)N3CCCCC3)c2)c1=S

>  <Energy>  (34) 
65.55516936140947

>  <Genealogy>  (34) 
CCCn1nc(C)cc(/C=N/c2cccc(S(=O)(=O)N3CCCCC3)c2)c1=S (cis-trans isomerization)
CCCn1nc(C)cc(/C=N/c2cccc(S(=O)(=O)N3CCCCC3)c2)c1=S (3D coordinates assigned)
CCCn1nc(C)cc(/C=N/c2cccc(S(=O)(=O)N3CCCCC3)c2)c1=S (nonaromatic ring conformer: 65.55516936140947 kcal/mol)

>  <smiles>  (34) 
CCCn1nc(C)cc(C=Nc2cccc(S(=O)(=O)N3CCCCC3)c2)c1=S

>  <score_type>  (34) 
oracle

>  <origin>  (34) 
adgpu

>  <m_score__min__energy>  (34) 
-9.1799999999999997

>  <m_primary>  (34) 
energy

$$$$
34:0
     RDKit          3D

 62 66  0  0  0  0  0  0  0  0999 V2000
   -2.5640   21.5190  -33.1770 C   0  0  0  0  0  0  0  0  0  0  0  0
   -3.1830   21.8320  -31.8890 N   0  0  0  0  0  0  0  0  0  0  0  0
   -2.3740   21.8450  -30.6700 C   0  0  0  0  0  0  0  0  0  0  0  0
   -4.6090   21.9840  -31.7740 C   0  0  0  0  0  0  0  0  0  0  0  0
   -5.4140   20.9700  -32.1870 N   0  0  0  0  0  0  0  0  0  0  0  0
   -6.7620   21.0200  -32.0240 C   0  0  0  0  0  0  0  0  0  0  0  0
   -7.7690   19.6480  -32.5760 S   0  0  0  0  0  0  0  0  0  0  0  0
   -6.3600   18.7120  -33.1740 C   0  0  0  0  0  0  0  0  0  0  0  0
   -5.6200   17.8940  -32.3090 C   0  0  0  0  0  0  0  0  0  0  0  0
   -4.5290   17.1640  -32.7970 C   0  0  0  0  0  0  0  0  0  0  0  0
   -4.1720   17.2430  -34.1510 C   0  0  0  0  0  0  0  0  0  0  0  0
   -3.0980   16.4200  -34.6360 N   0  0  0  0  0  0  0  0  0  0  0  0
   -1.8050   16.8680  -35.0590 C   0  0  0  0  0  0  0  0  0  0  0  0
   -1.0860   16.1310  -35.7860 O   0  0  0  0  0  0  0  0  0  0  0  0
   -1.3370   18.1560  -34.6360 N   0  0  0  0  0  0  0  0  0  0  0  0
   -0.0910   18.7330  -35.0610 C   0  0  0  0  0  0  0  0  0  0  0  0
    0.4860   18.3120  -36.2680 C   0  0  0  0  0  0  0  0  0  0  0  0
    1.6790   18.8850  -36.7190 C   0  0  0  0  0  0  0  0  0  0  0  0
    2.3220   19.8700  -35.9570 C   0  0  0  0  0  0  0  0  0  0  0  0
    3.7710   20.6590  -36.5780 S   0  0  0  0  0  0  0  0  0  0  0  0
    4.9960   19.8680  -36.2300 O   0  0  0  0  0  0  0  0  0  0  0  0
    3.6900   20.7670  -38.0760 O   0  0  0  0  0  0  0  0  0  0  0  0
    3.8970   22.2520  -35.9010 N   0  0  0  0  0  0  0  0  0  0  0  0
    2.9290   23.1170  -35.9090 C   0  0  0  0  0  0  0  0  0  0  0  0
    1.7240   22.8100  -36.4630 N   0  0  0  0  0  0  0  0  0  0  0  0
    0.7070   23.7120  -36.4780 C   0  0  0  0  0  0  0  0  0  0  0  0
    0.8930   24.9750  -35.9190 C   0  0  0  0  0  0  0  0  0  0  0  0
    2.1310   25.2750  -35.3510 C   0  0  0  0  0  0  0  0  0  0  0  0
    3.1220   24.3450  -35.3560 N   0  0  0  0  0  0  0  0  0  0  0  0
    1.7720   20.2620  -34.7290 C   0  0  0  0  0  0  0  0  0  0  0  0
    0.5790   19.6930  -34.2790 C   0  0  0  0  0  0  0  0  0  0  0  0
   -4.9290   18.0550  -35.0170 C   0  0  0  0  0  0  0  0  0  0  0  0
   -6.0090   18.7940  -34.5260 C   0  0  0  0  0  0  0  0  0  0  0  0
   -7.3400   22.1010  -31.4390 N   0  0  0  0  0  0  0  0  0  0  0  0
   -6.5920   23.1580  -31.0310 C   0  0  0  0  0  0  0  0  0  0  0  0
   -7.2160   24.2720  -30.4550 C   0  0  0  0  0  0  0  0  0  0  0  0
   -6.4480   25.3530  -30.0130 C   0  0  0  0  0  0  0  0  0  0  0  0
   -5.0520   25.3110  -30.1200 C   0  0  0  0  0  0  0  0  0  0  0  0
   -4.4160   24.2010  -30.6890 C   0  0  0  0  0  0  0  0  0  0  0  0
   -5.1850   23.1260  -31.1780 C   0  0  0  0  0  0  0  0  0  0  0  0
   -1.5940   21.0285  -33.0081 H   0  0  0  0  0  0  0  0  0  0  0  0
   -3.2216   20.8451  -33.7457 H   0  0  0  0  0  0  0  0  0  0  0  0
   -2.4110   22.4481  -33.7457 H   0  0  0  0  0  0  0  0  0  0  0  0
   -3.0352   21.8344  -29.7910 H   0  0  0  0  0  0  0  0  0  0  0  0
   -1.7248   20.9572  -30.6513 H   0  0  0  0  0  0  0  0  0  0  0  0
   -1.7537   22.7532  -30.6513 H   0  0  0  0  0  0  0  0  0  0  0  0
   -5.8963   17.8254  -31.2465 H   0  0  0  0  0  0  0  0  0  0  0  0
   -3.9490   16.5252  -32.1147 H   0  0  0  0  0  0  0  0  0  0  0  0
   -1.8710   18.6350  -33.8760 H   0  0  0  0  0  0  0  0  0  0  0  0
   -0.0028   17.5266  -36.8632 H   0  0  0  0  0  0  0  0  0  0  0  0
    2.1147   18.5614  -37.6758 H   0  0  0  0  0  0  0  0  0  0  0  0
   -0.2598   23.4458  -36.9300 H   0  0  0  0  0  0  0  0  0  0  0  0
    0.0821   25.7182  -35.9256 H   0  0  0  0  0  0  0  0  0  0  0  0
    2.3050   26.2629  -34.8996 H   0  0  0  0  0  0  0  0  0  0  0  0
    2.2821   21.0208  -34.1174 H   0  0  0  0  0  0  0  0  0  0  0  0
    0.1603   19.9965  -33.3081 H   0  0  0  0  0  0  0  0  0  0  0  0
   -4.6693   18.1080  -36.0846 H   0  0  0  0  0  0  0  0  0  0  0  0
   -6.5843   19.4415  -35.2040 H   0  0  0  0  0  0  0  0  0  0  0  0
   -8.3108   24.2961  -30.3505 H   0  0  0  0  0  0  0  0  0  0  0  0
   -6.9400   26.2369  -29.5810 H   0  0  0  0  0  0  0  0  0  0  0  0
   -4.4508   26.1565  -29.7542 H   0  0  0  0  0  0  0  0  0  0  0  0
   -3.3184   24.1681  -30.7542 H   0  0  0  0  0  0  0  0  0  0  0  0
  1  2  1  0
  2  3  1  0
  2  4  1  0
  4  5  2  0
  5  6  1  0
  6  7  1  0
  7  8  1  0
  8  9  2  0
  9 10  1  0
 10 11  2  0
 11 12  1  0
 12 13  1  0
 13 14  2  0
 13 15  1  0
 15 16  1  0
 16 17  2  0
 17 18  1  0
 18 19  2  0
 19 20  1  0
 20 21  2  0
 20 22  2  0
 20 23  1  0
 23 24  2  3
 24 25  1  0
 25 26  2  0
 26 27  1  0
 27 28  2  0
 28 29  1  0
 19 30  1  0
 30 31  2  0
 11 32  1  0
 32 33  2  0
  6 34  2  0
 34 35  1  0
 35 36  2  0
 36 37  1  0
 37 38  2  0
 38 39  1  0
 39 40  2  0
 40  4  1  0
 33  8  1  0
 40 35  1  0
 31 16  1  0
 29 24  1  0
  1 41  1  0
  1 42  1  0
  1 43  1  0
  3 44  1  0
  3 45  1  0
  3 46  1  0
  9 47  1  0
 10 48  1  0
 15 49  1  0
 17 50  1  0
 18 51  1  0
 26 52  1  0
 27 53  1  0
 28 54  1  0
 30 55  1  0
 31 56  1  0
 32 57  1  0
 33 58  1  0
 36 59  1  0
 37 60  1  0
 38 61  1  0
 39 62  1  0
M  CHG  2  12  -1  29  -1
M  END
>  <UniqueID>  (35) 
35

>  <SMILES>  (35) 
CN(C)c1nc(Sc2ccc([N-]C(=O)Nc3ccc(S(=O)(=O)N=c4nccc[n-]4)cc3)cc2)nc2ccccc12

>  <Energy>  (35) 
85.32218183093934

>  <Genealogy>  (35) 
CN(C)c1nc(Sc2ccc([N-]C(=O)Nc3ccc(S(=O)(=O)N=c4nccc[n-]4)cc3)cc2)nc2ccccc12 (protonated)
CN(C)c1nc(Sc2ccc([N-]C(=O)Nc3ccc(S(=O)(=O)N=c4nccc[n-]4)cc3)cc2)nc2ccccc12 (3D coordinates assigned)
CN(C)c1nc(Sc2ccc([N-]C(=O)Nc3ccc(S(=O)(=O)N=c4nccc[n-]4)cc3)cc2)nc2ccccc12 (optimized conformer: 85.32218183093934 kcal/mol)

>  <smiles>  (35) 
CN(C)c1nc(Sc2ccc(NC(=O)Nc3ccc(S(=O)(=O)N=c4nccc[nH]4)cc3)cc2)nc2ccccc12

>  <score_type>  (35) 
oracle

>  <origin>  (35) 
adgpu

>  <m_score__min__energy>  (35) 
-11.58

>  <m_primary>  (35) 
energy

$$$$
35:0
     RDKit          3D

 51 54  0  0  0  0  0  0  0  0999 V2000
   -3.9910   25.6730  -30.8570 O   0  0  0  0  0  0  0  0  0  0  0  0
   -4.0060   24.5710  -30.2480 C   0  0  0  0  0  0  0  0  0  0  0  0
   -5.2770   23.9940  -29.9040 N   0  0  0  0  0  0  0  0  0  0  0  0
   -5.9950   23.2190  -30.6620 C   0  0  0  0  0  0  0  0  0  0  0  0
   -5.6830   22.8920  -31.9360 N   0  0  0  0  0  0  0  0  0  0  0  0
   -6.5750   22.0780  -32.4960 N   0  0  0  0  0  0  0  0  0  0  0  0
   -7.6100   21.7680  -31.6830 C   0  0  0  0  0  0  0  0  0  0  0  0
   -8.7140   20.8450  -32.0170 C   0  0  0  0  0  0  0  0  0  0  0  0
   -8.5870   19.5730  -32.4330 C   0  0  0  0  0  0  0  0  0  0  0  0
   -7.3120   18.8920  -32.7270 C   0  0  0  0  0  0  0  0  0  0  0  0
   -6.5240   19.2700  -33.8280 C   0  0  0  0  0  0  0  0  0  0  0  0
   -5.3290   18.5970  -34.1010 C   0  0  0  0  0  0  0  0  0  0  0  0
   -4.9270   17.5290  -33.2940 C   0  0  0  0  0  0  0  0  0  0  0  0
   -5.7270   17.1220  -32.2230 C   0  0  0  0  0  0  0  0  0  0  0  0
   -6.9240   17.7910  -31.9480 C   0  0  0  0  0  0  0  0  0  0  0  0
   -7.4410   22.5140  -30.1790 S   0  0  0  0  0  0  0  0  0  0  0  0
   -2.7190   23.9420  -29.8580 C   0  0  0  0  0  0  0  0  0  0  0  0
   -2.5040   22.5750  -30.1070 C   0  0  0  0  0  0  0  0  0  0  0  0
   -1.2750   21.9780  -29.7940 C   0  0  0  0  0  0  0  0  0  0  0  0
   -0.9710   20.2910  -30.2050 S   0  0  0  0  0  0  0  0  0  0  0  0
   -1.2630   19.4130  -29.0170 O   0  0  0  0  0  0  0  0  0  0  0  0
    0.4800   20.1340  -30.5680 O   0  0  0  0  0  0  0  0  0  0  0  0
   -1.9780   19.8270  -31.5570 N   0  0  0  0  0  0  0  0  0  0  0  0
   -2.0870   20.9500  -32.5080 C   0  0  0  0  0  0  0  0  0  0  0  0
   -2.6150   20.4560  -33.8670 C   0  0  0  0  0  0  0  0  0  0  0  0
   -1.8470   19.4220  -34.4720 O   0  0  0  0  0  0  0  0  0  0  0  0
   -0.9060   18.8220  -33.5960 C   0  0  0  0  0  0  0  0  0  0  0  0
   -1.4830   18.5780  -32.1920 C   0  0  0  0  0  0  0  0  0  0  0  0
   -0.2680   22.7430  -29.1960 C   0  0  0  0  0  0  0  0  0  0  0  0
   -0.4870   24.0910  -28.9080 C   0  0  0  0  0  0  0  0  0  0  0  0
   -1.7030   24.6950  -29.2380 C   0  0  0  0  0  0  0  0  0  0  0  0
   -1.8850   26.0470  -28.9650 O   0  0  0  0  0  0  0  0  0  0  0  0
   -9.7373   21.2357  -31.9157 H   0  0  0  0  0  0  0  0  0  0  0  0
   -9.5112   18.9913  -32.5652 H   0  0  0  0  0  0  0  0  0  0  0  0
   -6.8482   20.0973  -34.4764 H   0  0  0  0  0  0  0  0  0  0  0  0
   -4.7049   18.9084  -34.9516 H   0  0  0  0  0  0  0  0  0  0  0  0
   -3.9805   17.0086  -33.5020 H   0  0  0  0  0  0  0  0  0  0  0  0
   -5.4149   16.2743  -31.5954 H   0  0  0  0  0  0  0  0  0  0  0  0
   -7.5631   17.4533  -31.1188 H   0  0  0  0  0  0  0  0  0  0  0  0
   -3.3072   21.9688  -30.5513 H   0  0  0  0  0  0  0  0  0  0  0  0
   -2.9340   19.6410  -31.1680 H   0  0  0  0  0  0  0  0  0  0  0  0
   -2.7796   21.7021  -32.1022 H   0  0  0  0  0  0  0  0  0  0  0  0
   -1.0901   21.3917  -32.6528 H   0  0  0  0  0  0  0  0  0  0  0  0
   -3.6377   20.0790  -33.7189 H   0  0  0  0  0  0  0  0  0  0  0  0
   -2.5608   21.3175  -34.5488 H   0  0  0  0  0  0  0  0  0  0  0  0
   -0.5928   17.8572  -34.0215 H   0  0  0  0  0  0  0  0  0  0  0  0
   -0.0562   19.5129  -33.4933 H   0  0  0  0  0  0  0  0  0  0  0  0
   -2.3189   17.8675  -32.2724 H   0  0  0  0  0  0  0  0  0  0  0  0
   -0.6740   18.1798  -31.5620 H   0  0  0  0  0  0  0  0  0  0  0  0
    0.6998   22.2806  -28.9519 H   0  0  0  0  0  0  0  0  0  0  0  0
    0.3019   24.6810  -28.4186 H   0  0  0  0  0  0  0  0  0  0  0  0
  1  2  2  0
  2  3  1  0
  3  4  2  3
  4  5  1  0
  5  6  1  0
  6  7  2  0
  7  8  1  0
  8  9  2  3
  9 10  1  0
 10 11  2  0
 11 12  1  0
 12 13  2  0
 13 14  1  0
 14 15  2  0
  7 16  1  0
  2 17  1  0
 17 18  2  0
 18 19  1  0
 19 20  1  0
 20 21  2  0
 20 22  2  0
 20 23  1  0
 23 24  1  0
 24 25  1  0
 25 26  1  0
 26 27  1  0
 27 28  1  0
 19 29  2  0
 29 30  1  0
 30 31  2  0
 31 32  1  0
 16  4  1  0
 31 17  1  0
 15 10  1  0
 28 23  1  0
  8 33  1  0
  9 34  1  0
 11 35  1  0
 12 36  1  0
 13 37  1  0
 14 38  1  0
 15 39  1  0
 18 40  1  0
 23 41  1  0
 24 42  1  0
 24 43  1  0
 25 44  1  0
 25 45  1  0
 27 46  1  0
 27 47  1  0
 28 48  1  0
 28 49  1  0
 29 50  1  0
 30 51  1  0
M  CHG  3   5  -1  23   1  32  -1
M  END
>  <UniqueID>  (36) 
36

>  <SMILES>  (36) 
O=C(N=c1[n-]nc(C=Cc2ccccc2)s1)c1cc(S(=O)(=O)[NH+]2CCOCC2)ccc1[O-]

>  <Energy>  (36) 
112.09605934193291

>  <Genealogy>  (36) 
O=C(N=c1[n-]nc(C=Cc2ccccc2)s1)c1cc(S(=O)(=O)[NH+]2CCOCC2)ccc1[O-] (protonated)
O=C(N=c1[n-]nc(C=Cc2ccccc2)s1)c1cc(S(=O)(=O)[NH+]2CCOCC2)ccc1[O-] (3D coordinates assigned)
O=C(N=c1[n-]nc(C=Cc2ccccc2)s1)c1cc(S(=O)(=O)[NH+]2CCOCC2)ccc1[O-] (nonaromatic ring conformer: 112.09605934193291 kcal/mol)

>  <smiles>  (36) 
O=C(N=c1[nH]nc(C=Cc2ccccc2)s1)c1cc(S(=O)(=O)N2CCOCC2)ccc1O

>  <score_type>  (36) 
oracle

>  <origin>  (36) 
adgpu

>  <m_score__min__energy>  (36) 
-13.91

>  <m_primary>  (36) 
energy

$$$$
36:0
     RDKit          3D

 58 62  0  0  0  0  0  0  0  0999 V2000
   -8.5950   21.8310  -31.5110 C   0  0  0  0  0  0  0  0  0  0  0  0
   -7.4990   22.5560  -32.0560 O   0  0  0  0  0  0  0  0  0  0  0  0
   -6.5580   23.2640  -31.2920 C   0  0  0  0  0  0  0  0  0  0  0  0
   -6.8880   24.5510  -30.8560 C   0  0  0  0  0  0  0  0  0  0  0  0
   -5.9810   25.2970  -30.0980 C   0  0  0  0  0  0  0  0  0  0  0  0
   -4.7360   24.7570  -29.7620 C   0  0  0  0  0  0  0  0  0  0  0  0
   -4.3960   23.4590  -30.1740 C   0  0  0  0  0  0  0  0  0  0  0  0
   -3.0790   22.8770  -29.8390 C   0  0  0  0  0  0  0  0  0  0  0  0
   -2.4060   22.2050  -30.8110 N   0  0  0  0  0  0  0  0  0  0  0  0
   -1.2090   21.6040  -30.5750 C   0  0  0  0  0  0  0  0  0  0  0  0
   -0.5750   20.8080  -31.6020 N   0  0  0  0  0  0  0  0  0  0  0  0
   -0.6450   19.3420  -31.5410 C   0  0  0  0  0  0  0  0  0  0  0  0
   -1.8570   18.8730  -32.3620 C   0  0  0  0  0  0  0  0  0  0  0  0
   -2.1370   19.8260  -33.4550 N   0  0  0  0  0  0  0  0  0  0  0  0
   -3.4660   20.3640  -33.6190 C   0  0  0  0  0  0  0  0  0  0  0  0
   -3.6190   21.5950  -33.8410 O   0  0  0  0  0  0  0  0  0  0  0  0
   -4.6670   19.5170  -33.5050 C   0  0  0  0  0  0  0  0  0  0  0  0
   -5.6340   19.5810  -32.5190 C   0  0  0  0  0  0  0  0  0  0  0  0
   -6.5510   18.6010  -32.8340 C   0  0  0  0  0  0  0  0  0  0  0  0
   -6.0850   17.9930  -33.9820 C   0  0  0  0  0  0  0  0  0  0  0  0
   -4.9590   18.5580  -34.3550 O   0  0  0  0  0  0  0  0  0  0  0  0
   -0.9910   20.5470  -34.0300 C   0  0  0  0  0  0  0  0  0  0  0  0
   -0.3050   21.3850  -32.9330 C   0  0  0  0  0  0  0  0  0  0  0  0
   -0.6520   21.6980  -29.3370 N   0  0  0  0  0  0  0  0  0  0  0  0
   -1.2800   22.3540  -28.3300 C   0  0  0  0  0  0  0  0  0  0  0  0
   -2.5340   22.9320  -28.5410 C   0  0  0  0  0  0  0  0  0  0  0  0
   -3.4440   23.5700  -27.1250 S   0  0  0  0  0  0  0  0  0  0  0  0
   -2.3110   24.9470  -26.9230 C   0  0  0  0  0  0  0  0  0  0  0  0
   -2.0870   25.4920  -25.6520 C   0  0  0  0  0  0  0  0  0  0  0  0
   -1.1550   26.5200  -25.4870 C   0  0  0  0  0  0  0  0  0  0  0  0
   -0.4500   27.0110  -26.5900 C   0  0  0  0  0  0  0  0  0  0  0  0
   -0.6830   26.4780  -27.8620 C   0  0  0  0  0  0  0  0  0  0  0  0
   -1.6140   25.4510  -28.0300 C   0  0  0  0  0  0  0  0  0  0  0  0
   -5.3020   22.7220  -30.9540 C   0  0  0  0  0  0  0  0  0  0  0  0
   -8.5461   21.8633  -30.4126 H   0  0  0  0  0  0  0  0  0  0  0  0
   -9.5387   22.2836  -31.8495 H   0  0  0  0  0  0  0  0  0  0  0  0
   -8.5476   20.7855  -31.8495 H   0  0  0  0  0  0  0  0  0  0  0  0
   -7.8684   24.9794  -31.1114 H   0  0  0  0  0  0  0  0  0  0  0  0
   -6.2473   26.3110  -29.7652 H   0  0  0  0  0  0  0  0  0  0  0  0
   -4.0212   25.3507  -29.1734 H   0  0  0  0  0  0  0  0  0  0  0  0
    0.2757   18.9095  -31.9597 H   0  0  0  0  0  0  0  0  0  0  0  0
   -0.7501   19.0145  -30.4962 H   0  0  0  0  0  0  0  0  0  0  0  0
   -1.6436   17.8825  -32.7903 H   0  0  0  0  0  0  0  0  0  0  0  0
   -2.7356   18.8177  -31.7024 H   0  0  0  0  0  0  0  0  0  0  0  0
   -5.6652   20.2700  -31.6621 H   0  0  0  0  0  0  0  0  0  0  0  0
   -7.4694   18.3534  -32.2815 H   0  0  0  0  0  0  0  0  0  0  0  0
   -6.5808   17.1620  -34.5050 H   0  0  0  0  0  0  0  0  0  0  0  0
   -0.2720   19.8233  -34.4414 H   0  0  0  0  0  0  0  0  0  0  0  0
   -1.3428   21.2125  -34.8321 H   0  0  0  0  0  0  0  0  0  0  0  0
    0.7806   21.3955  -33.1103 H   0  0  0  0  0  0  0  0  0  0  0  0
   -0.7027   22.4101  -32.9654 H   0  0  0  0  0  0  0  0  0  0  0  0
   -0.8001   22.4313  -27.3432 H   0  0  0  0  0  0  0  0  0  0  0  0
   -2.6448   25.1107  -24.7839 H   0  0  0  0  0  0  0  0  0  0  0  0
   -0.9757   26.9436  -24.4878 H   0  0  0  0  0  0  0  0  0  0  0  0
    0.2876   27.8162  -26.4575 H   0  0  0  0  0  0  0  0  0  0  0  0
   -0.1324   26.8682  -28.7307 H   0  0  0  0  0  0  0  0  0  0  0  0
   -1.8007   25.0370  -29.0319 H   0  0  0  0  0  0  0  0  0  0  0  0
   -5.0294   21.7152  -31.3033 H   0  0  0  0  0  0  0  0  0  0  0  0
  1  2  1  0
  2  3  1  0
  3  4  2  0
  4  5  1  0
  5  6  2  0
  6  7  1  0
  7  8  1  0
  8  9  2  0
  9 10  1  0
 10 11  1  0
 11 12  1  0
 12 13  1  0
 13 14  1  0
 14 15  1  0
 15 16  2  0
 15 17  1  0
 17 18  2  0
 18 19  1  0
 19 20  2  0
 20 21  1  0
 14 22  1  0
 22 23  1  0
 10 24  2  0
 24 25  1  0
 25 26  2  0
 26 27  1  0
 27 28  1  0
 28 29  2  0
 29 30  1  0
 30 31  2  0
 31 32  1  0
 32 33  2  0
  7 34  2  0
 34  3  1  0
 26  8  1  0
 33 28  1  0
 23 11  1  0
 21 17  1  0
  1 35  1  0
  1 36  1  0
  1 37  1  0
  4 38  1  0
  5 39  1  0
  6 40  1  0
 12 41  1  0
 12 42  1  0
 13 43  1  0
 13 44  1  0
 18 45  1  0
 19 46  1  0
 20 47  1  0
 22 48  1  0
 22 49  1  0
 23 50  1  0
 23 51  1  0
 25 52  1  0
 29 53  1  0
 30 54  1  0
 31 55  1  0
 32 56  1  0
 33 57  1  0
 34 58  1  0
M  END
>  <UniqueID>  (37) 
37

>  <SMILES>  (37) 
COc1cccc(-c2nc(N3CCN(C(=O)c4ccco4)CC3)ncc2Sc2ccccc2)c1

>  <Energy>  (37) 
100.19502657471409

>  <Genealogy>  (37) 
COc1cccc(-c2nc(N3CCN(C(=O)c4ccco4)CC3)ncc2Sc2ccccc2)c1 (3D coordinates assigned)
COc1cccc(-c2nc(N3CCN(C(=O)c4ccco4)CC3)ncc2Sc2ccccc2)c1 (nonaromatic ring conformer: 100.19502657471409 kcal/mol)

>  <smiles>  (37) 
COc1cccc(-c2nc(N3CCN(C(=O)c4ccco4)CC3)ncc2Sc2ccccc2)c1

>  <score_type>  (37) 
oracle

>  <origin>  (37) 
adgpu

>  <m_score__min__energy>  (37) 
-9.5199999999999996

>  <m_primary>  (37) 
energy

$$$$
37:0
     RDKit          3D

 42 44  0  0  0  0  0  0  0  0999 V2000
   -7.0400   24.5140  -29.7160 O   0  0  0  0  0  0  0  0  0  0  0  0
   -6.0840   23.7790  -30.0850 C   0  0  0  0  0  0  0  0  0  0  0  0
   -4.8100   23.8140  -29.3310 C   0  0  0  0  0  0  0  0  0  0  0  0
   -4.6030   22.9610  -28.2330 C   0  0  0  0  0  0  0  0  0  0  0  0
   -3.4040   23.0060  -27.5180 C   0  0  0  0  0  0  0  0  0  0  0  0
   -2.3990   23.9090  -27.8790 C   0  0  0  0  0  0  0  0  0  0  0  0
   -1.2110   23.9320  -27.1490 O   0  0  0  0  0  0  0  0  0  0  0  0
   -2.6030   24.7760  -28.9640 C   0  0  0  0  0  0  0  0  0  0  0  0
   -1.6170   25.6840  -29.3370 O   0  0  0  0  0  0  0  0  0  0  0  0
   -3.8040   24.7310  -29.6810 C   0  0  0  0  0  0  0  0  0  0  0  0
   -6.2610   22.9070  -31.2160 N   0  0  0  0  0  0  0  0  0  0  0  0
   -7.5450   22.2090  -31.3810 C   0  0  0  0  0  0  0  0  0  0  0  0
   -7.5910   21.4220  -32.6940 C   0  0  0  0  0  0  0  0  0  0  0  0
   -6.3220   20.7060  -32.8860 N   0  0  0  0  0  0  0  0  0  0  0  0
   -6.3080   19.2810  -33.0940 C   0  0  0  0  0  0  0  0  0  0  0  0
   -7.3190   18.4730  -32.5500 C   0  0  0  0  0  0  0  0  0  0  0  0
   -7.2880   17.0880  -32.7240 C   0  0  0  0  0  0  0  0  0  0  0  0
   -6.2510   16.4950  -33.4480 C   0  0  0  0  0  0  0  0  0  0  0  0
   -5.2400   17.2860  -34.0200 C   0  0  0  0  0  0  0  0  0  0  0  0
   -4.0930   16.6430  -34.7580 C   0  0  0  0  0  0  0  0  0  0  0  0
   -4.0890   17.0260  -36.0890 F   0  0  0  0  0  0  0  0  0  0  0  0
   -4.2190   15.2680  -34.6860 F   0  0  0  0  0  0  0  0  0  0  0  0
   -2.8840   17.0150  -34.1980 F   0  0  0  0  0  0  0  0  0  0  0  0
   -5.2630   18.6770  -33.8150 C   0  0  0  0  0  0  0  0  0  0  0  0
   -5.0510   21.4400  -32.7860 C   0  0  0  0  0  0  0  0  0  0  0  0
   -5.2640   22.8790  -32.2970 C   0  0  0  0  0  0  0  0  0  0  0  0
   -5.3906   22.2533  -27.9349 H   0  0  0  0  0  0  0  0  0  0  0  0
   -3.2494   22.3274  -26.6662 H   0  0  0  0  0  0  0  0  0  0  0  0
   -0.4550   24.5670  -27.3740 H   0  0  0  0  0  0  0  0  0  0  0  0
   -3.9619   25.4186  -30.5250 H   0  0  0  0  0  0  0  0  0  0  0  0
   -7.6835   21.5120  -30.5414 H   0  0  0  0  0  0  0  0  0  0  0  0
   -8.3470   22.9616  -31.4013 H   0  0  0  0  0  0  0  0  0  0  0  0
   -8.4179   20.6975  -32.6575 H   0  0  0  0  0  0  0  0  0  0  0  0
   -7.7472   22.1182  -33.5312 H   0  0  0  0  0  0  0  0  0  0  0  0
   -8.1410   18.9341  -31.9829 H   0  0  0  0  0  0  0  0  0  0  0  0
   -8.0819   16.4625  -32.2900 H   0  0  0  0  0  0  0  0  0  0  0  0
   -6.2256   15.4022  -33.5712 H   0  0  0  0  0  0  0  0  0  0  0  0
   -4.4537   19.3000  -34.2236 H   0  0  0  0  0  0  0  0  0  0  0  0
   -4.3918   20.9167  -32.0778 H   0  0  0  0  0  0  0  0  0  0  0  0
   -4.5990   21.4815  -33.7880 H   0  0  0  0  0  0  0  0  0  0  0  0
   -4.3107   23.2800  -31.9223 H   0  0  0  0  0  0  0  0  0  0  0  0
   -5.6266   23.4924  -33.1350 H   0  0  0  0  0  0  0  0  0  0  0  0
  1  2  2  0
  2  3  1  0
  3  4  2  0
  4  5  1  0
  5  6  2  0
  6  7  1  0
  6  8  1  0
  8  9  1  0
  8 10  2  0
  2 11  1  0
 11 12  1  0
 12 13  1  0
 13 14  1  0
 14 15  1  0
 15 16  2  0
 16 17  1  0
 17 18  2  0
 18 19  1  0
 19 20  1  0
 20 21  1  0
 20 22  1  0
 20 23  1  0
 19 24  2  0
 14 25  1  0
 25 26  1  0
 10  3  1  0
 26 11  1  0
 24 15  1  0
  4 27  1  0
  5 28  1  0
  7 29  1  0
 10 30  1  0
 12 31  1  0
 12 32  1  0
 13 33  1  0
 13 34  1  0
 16 35  1  0
 17 36  1  0
 18 37  1  0
 24 38  1  0
 25 39  1  0
 25 40  1  0
 26 41  1  0
 26 42  1  0
M  CHG  1   9  -1
M  END
>  <UniqueID>  (38) 
38

>  <SMILES>  (38) 
O=C(c1ccc(O)c([O-])c1)N1CCN(c2cccc(C(F)(F)F)c2)CC1

>  <Energy>  (38) 
53.779611809704114

>  <Genealogy>  (38) 
O=C(c1ccc(O)c([O-])c1)N1CCN(c2cccc(C(F)(F)F)c2)CC1 (protonated)
O=C(c1ccc(O)c([O-])c1)N1CCN(c2cccc(C(F)(F)F)c2)CC1 (3D coordinates assigned)
O=C(c1ccc(O)c([O-])c1)N1CCN(c2cccc(C(F)(F)F)c2)CC1 (nonaromatic ring conformer: 53.779611809704114 kcal/mol)

>  <smiles>  (38) 
O=C(c1ccc(O)c(O)c1)N1CCN(c2cccc(C(F)(F)F)c2)CC1

>  <score_type>  (38) 
oracle

>  <origin>  (38) 
adgpu

>  <m_score__min__energy>  (38) 
-9.9800000000000004

>  <m_primary>  (38) 
energy

$$$$
38:0
     RDKit          3D

 40 43  0  0  0  0  0  0  0  0999 V2000
    0.2030   24.8620  -28.1850 O   0  0  0  0  0  0  0  0  0  0  0  0
   -0.8670   25.1100  -28.8020 C   0  0  0  0  0  0  0  0  0  0  0  0
   -1.2640   26.4330  -28.9590 O   0  0  0  0  0  0  0  0  0  0  0  0
   -1.6920   24.0110  -29.3510 C   0  0  0  0  0  0  0  0  0  0  0  0
   -1.0990   22.7860  -29.7030 C   0  0  0  0  0  0  0  0  0  0  0  0
   -1.8760   21.7450  -30.2230 C   0  0  0  0  0  0  0  0  0  0  0  0
   -3.2570   21.9170  -30.4140 C   0  0  0  0  0  0  0  0  0  0  0  0
   -4.0820   20.8560  -30.9230 N   0  0  0  0  0  0  0  0  0  0  0  0
   -3.7610   20.0710  -32.0850 C   0  0  0  0  0  0  0  0  0  0  0  0
   -2.7220   20.3190  -32.7570 O   0  0  0  0  0  0  0  0  0  0  0  0
   -4.6520   18.9700  -32.5190 C   0  0  0  0  0  0  0  0  0  0  0  0
   -6.0440   19.0830  -32.3830 C   0  0  0  0  0  0  0  0  0  0  0  0
   -6.8800   18.0530  -32.7380 N   0  0  0  0  0  0  0  0  0  0  0  0
   -6.3750   16.9220  -33.3530 C   0  0  0  0  0  0  0  0  0  0  0  0
   -7.2150   15.8960  -33.8540 C   0  0  0  0  0  0  0  0  0  0  0  0
   -6.6750   14.7570  -34.4540 C   0  0  0  0  0  0  0  0  0  0  0  0
   -5.2980   14.6160  -34.5850 C   0  0  0  0  0  0  0  0  0  0  0  0
   -4.4480   15.6220  -34.1320 C   0  0  0  0  0  0  0  0  0  0  0  0
   -4.9710   16.7830  -33.5270 C   0  0  0  0  0  0  0  0  0  0  0  0
   -4.1160   17.8100  -33.0940 C   0  0  0  0  0  0  0  0  0  0  0  0
   -2.8650   17.6920  -33.2200 O   0  0  0  0  0  0  0  0  0  0  0  0
   -8.2810   18.1780  -32.3780 C   0  0  0  0  0  0  0  0  0  0  0  0
   -8.7990   19.3490  -32.0010 C   0  0  0  0  0  0  0  0  0  0  0  0
   -7.9680   20.5890  -32.0460 C   0  0  0  0  0  0  0  0  0  0  0  0
   -6.5900   20.2710  -31.8800 O   0  0  0  0  0  0  0  0  0  0  0  0
   -3.8530   23.1280  -30.0390 C   0  0  0  0  0  0  0  0  0  0  0  0
   -3.0790   24.1700  -29.5200 C   0  0  0  0  0  0  0  0  0  0  0  0
   -0.0164   22.6448  -29.5687 H   0  0  0  0  0  0  0  0  0  0  0  0
   -1.4029   20.7868  -30.4836 H   0  0  0  0  0  0  0  0  0  0  0  0
   -4.9980   20.6910  -30.4500 H   0  0  0  0  0  0  0  0  0  0  0  0
   -8.3069   15.9986  -33.7689 H   0  0  0  0  0  0  0  0  0  0  0  0
   -7.3432   13.9661  -34.8255 H   0  0  0  0  0  0  0  0  0  0  0  0
   -4.8797   13.7094  -35.0467 H   0  0  0  0  0  0  0  0  0  0  0  0
   -3.3598   15.5098  -34.2472 H   0  0  0  0  0  0  0  0  0  0  0  0
   -8.9287   17.2897  -32.4167 H   0  0  0  0  0  0  0  0  0  0  0  0
   -9.8421   19.4009  -31.6558 H   0  0  0  0  0  0  0  0  0  0  0  0
   -8.1107   21.0856  -33.0171 H   0  0  0  0  0  0  0  0  0  0  0  0
   -8.2803   21.2569  -31.2297 H   0  0  0  0  0  0  0  0  0  0  0  0
   -4.9390   23.2601  -30.1539 H   0  0  0  0  0  0  0  0  0  0  0  0
   -3.5580   25.1204  -29.2420 H   0  0  0  0  0  0  0  0  0  0  0  0
  1  2  2  0
  2  3  1  0
  2  4  1  0
  4  5  2  0
  5  6  1  0
  6  7  2  0
  7  8  1  0
  8  9  1  0
  9 10  2  0
  9 11  1  0
 11 12  2  0
 12 13  1  0
 13 14  1  0
 14 15  2  0
 15 16  1  0
 16 17  2  0
 17 18  1  0
 18 19  2  0
 19 20  1  0
 20 21  2  0
 13 22  1  0
 22 23  2  0
 23 24  1  0
 24 25  1  0
  7 26  1  0
 26 27  2  0
 27  4  1  0
 20 11  1  0
 25 12  1  0
 19 14  1  0
  5 28  1  0
  6 29  1  0
  8 30  1  0
 15 31  1  0
 16 32  1  0
 17 33  1  0
 18 34  1  0
 22 35  1  0
 23 36  1  0
 24 37  1  0
 24 38  1  0
 26 39  1  0
 27 40  1  0
M  CHG  1   3  -1
M  END
>  <UniqueID>  (39) 
39

>  <SMILES>  (39) 
O=C([O-])c1ccc(NC(=O)c2c3n(c4ccccc4c2=O)C=CCO3)cc1

>  <Energy>  (39) 
68.18749469902028

>  <Genealogy>  (39) 
O=C([O-])c1ccc(NC(=O)c2c3n(c4ccccc4c2=O)C=CCO3)cc1 (protonated)
O=C([O-])c1ccc(NC(=O)c2c3n(c4ccccc4c2=O)C=CCO3)cc1 (3D coordinates assigned)
O=C([O-])c1ccc(NC(=O)c2c3n(c4ccccc4c2=O)C=CCO3)cc1 (nonaromatic ring conformer: 68.18749469902028 kcal/mol)

>  <smiles>  (39) 
O=C(O)c1ccc(NC(=O)c2c3n(c4ccccc4c2=O)C=CCO3)cc1

>  <score_type>  (39) 
oracle

>  <origin>  (39) 
adgpu

>  <m_score__min__energy>  (39) 
-9.2799999999999994

>  <m_primary>  (39) 
energy

$$$$
39:0
     RDKit          3D

 48 51  0  0  0  0  0  0  0  0999 V2000
   -9.1404   19.0650  -31.0940 H   0  0  0  0  0  0  0  0  0  0  0  0
   -8.3230   19.5830  -31.6170 C   0  0  0  0  0  0  0  0  0  0  0  0
   -7.3590   18.8630  -32.2470 N   0  0  0  0  0  0  0  0  0  0  0  0
   -6.3400   19.4810  -32.8940 C   0  0  0  0  0  0  0  0  0  0  0  0
   -5.1180   18.5390  -33.7210 S   0  0  0  0  0  0  0  0  0  0  0  0
   -5.1050   17.1410  -33.1690 O   0  0  0  0  0  0  0  0  0  0  0  0
   -5.4430   18.4690  -35.1860 O   0  0  0  0  0  0  0  0  0  0  0  0
   -3.5470   19.2990  -33.4980 C   0  0  0  0  0  0  0  0  0  0  0  0
   -3.4070   20.3560  -32.5900 C   0  0  0  0  0  0  0  0  0  0  0  0
   -4.2816   20.7146  -32.0274 H   0  0  0  0  0  0  0  0  0  0  0  0
   -2.1600   20.9570  -32.3960 C   0  0  0  0  0  0  0  0  0  0  0  0
   -2.0556   21.7821  -31.6760 H   0  0  0  0  0  0  0  0  0  0  0  0
   -1.0410   20.5120  -33.1160 C   0  0  0  0  0  0  0  0  0  0  0  0
    0.3040   21.1320  -32.8780 C   0  0  0  0  0  0  0  0  0  0  0  0
    0.4833   21.2147  -31.7959 H   0  0  0  0  0  0  0  0  0  0  0  0
    1.0835   20.5023  -33.3318 H   0  0  0  0  0  0  0  0  0  0  0  0
    0.3315   22.1337  -33.3318 H   0  0  0  0  0  0  0  0  0  0  0  0
   -1.1780   19.4370  -34.0070 C   0  0  0  0  0  0  0  0  0  0  0  0
   -0.3002   19.0660  -34.5563 H   0  0  0  0  0  0  0  0  0  0  0  0
   -2.4250   18.8350  -34.2000 C   0  0  0  0  0  0  0  0  0  0  0  0
   -2.5263   17.9958  -34.9038 H   0  0  0  0  0  0  0  0  0  0  0  0
   -6.2700   20.8360  -32.9090 N   0  0  0  0  0  0  0  0  0  0  0  0
   -7.2130   21.6090  -32.3050 C   0  0  0  0  0  0  0  0  0  0  0  0
   -7.0740   23.0830  -32.3960 C   0  0  0  0  0  0  0  0  0  0  0  0
   -8.0920   23.8020  -32.5730 O   0  0  0  0  0  0  0  0  0  0  0  0
   -5.8130   23.7280  -32.1570 N   0  0  0  0  0  0  0  0  0  0  0  0
   -5.0420   23.5480  -31.1250 C   0  0  0  0  0  0  0  0  0  0  0  0
   -3.9240   24.2780  -30.9300 N   0  0  0  0  0  0  0  0  0  0  0  0
   -3.2870   23.9290  -29.7790 C   0  0  0  0  0  0  0  0  0  0  0  0
   -2.3664   24.4249  -29.4375 H   0  0  0  0  0  0  0  0  0  0  0  0
   -3.8900   22.8970  -29.0680 C   0  0  0  0  0  0  0  0  0  0  0  0
   -3.4830   22.4020  -27.7170 C   0  0  0  0  0  0  0  0  0  0  0  0
   -2.9620   23.2052  -27.1753 H   0  0  0  0  0  0  0  0  0  0  0  0
   -4.3790   22.0979  -27.1560 H   0  0  0  0  0  0  0  0  0  0  0  0
   -2.5640   21.2210  -27.8640 C   0  0  0  0  0  0  0  0  0  0  0  0
   -2.7400   20.0810  -27.0620 C   0  0  0  0  0  0  0  0  0  0  0  0
   -3.5830   20.0329  -26.3570 H   0  0  0  0  0  0  0  0  0  0  0  0
   -1.8500   19.0080  -27.1550 C   0  0  0  0  0  0  0  0  0  0  0  0
   -1.9991   18.1149  -26.5303 H   0  0  0  0  0  0  0  0  0  0  0  0
   -0.7690   19.0680  -28.0420 C   0  0  0  0  0  0  0  0  0  0  0  0
    0.3590   17.7300  -28.1430 Cl  0  0  0  0  0  0  0  0  0  0  0  0
   -0.5820   20.2050  -28.8370 C   0  0  0  0  0  0  0  0  0  0  0  0
    0.2670   20.2533  -29.5347 H   0  0  0  0  0  0  0  0  0  0  0  0
   -1.4720   21.2790  -28.7460 C   0  0  0  0  0  0  0  0  0  0  0  0
   -1.3167   22.1732  -29.3675 H   0  0  0  0  0  0  0  0  0  0  0  0
   -5.2710   22.4120  -29.8950 S   0  0  0  0  0  0  0  0  0  0  0  0
   -8.2800   20.9800  -31.6310 C   0  0  0  0  0  0  0  0  0  0  0  0
   -9.5910   21.8690  -30.8620 Cl  0  0  0  0  0  0  0  0  0  0  0  0
  1  2  1  0
  2  3  2  0
  3  4  1  0
  4  5  1  0
  5  6  2  0
  5  7  2  0
  5  8  1  0
  8  9  2  0
  9 10  1  0
  9 11  1  0
 11 12  1  0
 11 13  2  0
 13 14  1  0
 14 15  1  0
 14 16  1  0
 14 17  1  0
 13 18  1  0
 18 19  1  0
 18 20  2  0
 20 21  1  0
  4 22  2  0
 22 23  1  0
 23 24  1  0
 24 25  2  0
 24 26  1  0
 26 27  2  0
 27 28  1  0
 28 29  1  0
 29 30  1  0
 29 31  2  0
 31 32  1  0
 32 33  1  0
 32 34  1  0
 32 35  1  0
 35 36  2  0
 36 37  1  0
 36 38  1  0
 38 39  1  0
 38 40  2  0
 40 41  1  0
 40 42  1  0
 42 43  1  0
 42 44  2  0
 44 45  1  0
 31 46  1  0
 23 47  2  0
 47 48  1  0
 47  2  1  0
 20  8  1  0
 46 27  1  0
 44 35  1  0
M  CHG  1  28  -1
M  END
>  <UniqueID>  (40) 
40

>  <SMILES>  (40) 
Cc1ccc(S(=O)(=O)c2ncc(Cl)c(C(=O)/N=c3/[n-]cc(Cc4ccc(Cl)cc4)s3)n2)cc1

>  <Energy>  (40) 
89.44771094494921

>  <Genealogy>  (40) 
Cc1ccc(S(=O)(=O)c2ncc(Cl)c(C(=O)N=c3[n-]cc(Cc4ccc(Cl)cc4)s3)n2)cc1 (protonated)
Cc1ccc(S(=O)(=O)c2ncc(Cl)c(C(=O)/N=c3/[n-]cc(Cc4ccc(Cl)cc4)s3)n2)cc1 (cis-trans isomerization)
Cc1ccc(S(=O)(=O)c2ncc(Cl)c(C(=O)/N=c3/[n-]cc(Cc4ccc(Cl)cc4)s3)n2)cc1 (3D coordinates assigned)
Cc1ccc(S(=O)(=O)c2ncc(Cl)c(C(=O)/N=c3/[n-]cc(Cc4ccc(Cl)cc4)s3)n2)cc1 (optimized conformer: 89.44771094494921 kcal/mol)

>  <smiles>  (40) 
Cc1ccc(S(=O)(=O)c2ncc(Cl)c(C(=O)N=c3[nH]cc(Cc4ccc(Cl)cc4)s3)n2)cc1

>  <score_type>  (40) 
oracle

>  <origin>  (40) 
adgpu

>  <m_score__min__energy>  (40) 
-11.84

>  <m_primary>  (40) 
energy

$$$$
40:0
     RDKit          3D

 49 52  0  0  0  0  0  0  0  0999 V2000
   -6.8750   17.1160  -33.1000 C   0  0  0  0  0  0  0  0  0  0  0  0
   -7.2950   18.5230  -33.0130 N   0  0  0  0  0  0  0  0  0  0  0  0
   -8.7060   18.5980  -32.5920 C   0  0  0  0  0  0  0  0  0  0  0  0
   -9.2040   20.0420  -32.7110 C   0  0  0  0  0  0  0  0  0  0  0  0
   -8.2560   21.0090  -32.0540 C   0  0  0  0  0  0  0  0  0  0  0  0
   -8.6920   22.3080  -31.7530 C   0  0  0  0  0  0  0  0  0  0  0  0
   -7.8260   23.2240  -31.1530 C   0  0  0  0  0  0  0  0  0  0  0  0
   -6.5070   22.8560  -30.8460 C   0  0  0  0  0  0  0  0  0  0  0  0
   -5.6100   23.7710  -30.1940 N   0  0  0  0  0  0  0  0  0  0  0  0
   -4.2440   23.9640  -30.6020 C   0  0  0  0  0  0  0  0  0  0  0  0
   -3.8110   23.4190  -31.6510 O   0  0  0  0  0  0  0  0  0  0  0  0
   -3.3810   24.8570  -29.8880 N   0  0  0  0  0  0  0  0  0  0  0  0
   -2.5360   24.5060  -28.7830 C   0  0  0  0  0  0  0  0  0  0  0  0
   -2.8110   23.3270  -28.0890 C   0  0  0  0  0  0  0  0  0  0  0  0
   -2.0320   22.9580  -26.9930 C   0  0  0  0  0  0  0  0  0  0  0  0
   -0.9750   23.7670  -26.5650 C   0  0  0  0  0  0  0  0  0  0  0  0
   -0.0660   23.2340  -25.1510 Cl  0  0  0  0  0  0  0  0  0  0  0  0
   -0.6870   24.9720  -27.2460 C   0  0  0  0  0  0  0  0  0  0  0  0
    0.6440   26.0210  -26.7070 S   0  0  0  0  0  0  0  0  0  0  0  0
    0.5920   27.3440  -27.4160 O   0  0  0  0  0  0  0  0  0  0  0  0
    1.9640   25.3780  -27.0350 O   0  0  0  0  0  0  0  0  0  0  0  0
    0.4690   26.3130  -24.9470 C   0  0  0  0  0  0  0  0  0  0  0  0
   -0.9650   26.5250  -24.4910 C   0  0  0  0  0  0  0  0  0  0  0  0
   -0.0050   27.7020  -24.5480 C   0  0  0  0  0  0  0  0  0  0  0  0
   -1.4990   25.3520  -28.3410 C   0  0  0  0  0  0  0  0  0  0  0  0
   -1.3040   26.5790  -28.9670 O   0  0  0  0  0  0  0  0  0  0  0  0
   -6.0510   21.5770  -31.2000 C   0  0  0  0  0  0  0  0  0  0  0  0
   -6.9150   20.6520  -31.8040 C   0  0  0  0  0  0  0  0  0  0  0  0
   -6.4380   19.2390  -32.0440 C   0  0  0  0  0  0  0  0  0  0  0  0
   -6.7528   16.7065  -32.0864 H   0  0  0  0  0  0  0  0  0  0  0  0
   -7.6397   16.5378  -33.6393 H   0  0  0  0  0  0  0  0  0  0  0  0
   -5.9185   17.0516  -33.6393 H   0  0  0  0  0  0  0  0  0  0  0  0
   -9.3150   17.9469  -33.2363 H   0  0  0  0  0  0  0  0  0  0  0  0
   -8.7923   18.2678  -31.5463 H   0  0  0  0  0  0  0  0  0  0  0  0
   -9.2976   20.3011  -33.7759 H   0  0  0  0  0  0  0  0  0  0  0  0
  -10.1771   20.1142  -32.2032 H   0  0  0  0  0  0  0  0  0  0  0  0
   -9.7234   22.6069  -31.9914 H   0  0  0  0  0  0  0  0  0  0  0  0
   -8.1793   24.2393  -30.9197 H   0  0  0  0  0  0  0  0  0  0  0  0
   -6.0160   24.4420  -29.5030 H   0  0  0  0  0  0  0  0  0  0  0  0
   -3.6460   22.6859  -28.4080 H   0  0  0  0  0  0  0  0  0  0  0  0
   -2.2512   22.0212  -26.4598 H   0  0  0  0  0  0  0  0  0  0  0  0
    1.3072   25.6687  -24.6433 H   0  0  0  0  0  0  0  0  0  0  0  0
   -1.7890   26.4519  -25.2160 H   0  0  0  0  0  0  0  0  0  0  0  0
   -1.6078   26.0827  -23.7156 H   0  0  0  0  0  0  0  0  0  0  0  0
   -0.1340   28.4805  -25.3144 H   0  0  0  0  0  0  0  0  0  0  0  0
    0.3350   28.4641  -23.8313 H   0  0  0  0  0  0  0  0  0  0  0  0
   -5.0058   21.2972  -31.0019 H   0  0  0  0  0  0  0  0  0  0  0  0
   -5.4105   19.2725  -32.4354 H   0  0  0  0  0  0  0  0  0  0  0  0
   -6.4814   18.6982  -31.0871 H   0  0  0  0  0  0  0  0  0  0  0  0
  1  2  1  0
  2  3  1  0
  3  4  1  0
  4  5  1  0
  5  6  2  0
  6  7  1  0
  7  8  2  0
  8  9  1  0
  9 10  1  0
 10 11  2  0
 10 12  1  0
 12 13  1  0
 13 14  2  0
 14 15  1  0
 15 16  2  0
 16 17  1  0
 16 18  1  0
 18 19  1  0
 19 20  2  0
 19 21  2  0
 19 22  1  0
 22 23  1  0
 23 24  1  0
 18 25  2  0
 25 26  1  0
  8 27  1  0
 27 28  2  0
 28 29  1  0
 29  2  1  0
 28  5  1  0
 25 13  1  0
 24 22  1  0
  1 30  1  0
  1 31  1  0
  1 32  1  0
  3 33  1  0
  3 34  1  0
  4 35  1  0
  4 36  1  0
  6 37  1  0
  7 38  1  0
  9 39  1  0
 14 40  1  0
 15 41  1  0
 22 42  1  0
 23 43  1  0
 23 44  1  0
 24 45  1  0
 24 46  1  0
 27 47  1  0
 29 48  1  0
 29 49  1  0
M  CHG  2  12  -1  26  -1
M  END
>  <UniqueID>  (41) 
41

>  <SMILES>  (41) 
CN1CCc2ccc(NC(=O)[N-]c3ccc(Cl)c(S(=O)(=O)C4CC4)c3[O-])cc2C1

>  <Energy>  (41) 
328.98257145827813

>  <Genealogy>  (41) 
CN1CCc2ccc(NC(=O)[N-]c3ccc(Cl)c(S(=O)(=O)C4CC4)c3[O-])cc2C1 (protonated)
CN1CCc2ccc(NC(=O)[N-]c3ccc(Cl)c(S(=O)(=O)C4CC4)c3[O-])cc2C1 (3D coordinates assigned)
CN1CCc2ccc(NC(=O)[N-]c3ccc(Cl)c(S(=O)(=O)C4CC4)c3[O-])cc2C1 (nonaromatic ring conformer: 328.98257145827813 kcal/mol)

>  <smiles>  (41) 
CN1CCc2ccc(NC(=O)Nc3ccc(Cl)c(S(=O)(=O)C4CC4)c3O)cc2C1

>  <score_type>  (41) 
oracle

>  <origin>  (41) 
adgpu

>  <m_score__min__energy>  (41) 
-13.6

>  <m_primary>  (41) 
energy

$$$$
41:0
     RDKit          3D

 61 65  0  0  0  0  0  0  0  0999 V2000
   -0.7660   18.7000  -27.9200 C   0  0  0  0  0  0  0  0  0  0  0  0
   -0.9320   20.1790  -28.1630 C   0  0  0  0  0  0  0  0  0  0  0  0
   -0.9340   21.0560  -27.0650 C   0  0  0  0  0  0  0  0  0  0  0  0
   -1.1030   22.4320  -27.2660 C   0  0  0  0  0  0  0  0  0  0  0  0
   -1.0560   23.3500  -26.1620 N   0  0  0  0  0  0  0  0  0  0  0  0
   -0.3630   22.9750  -24.9230 C   0  0  0  0  0  0  0  0  0  0  0  0
    0.5190   24.1430  -24.4880 C   0  0  0  0  0  0  0  0  0  0  0  0
   -0.2690   25.3760  -24.2290 N   0  0  0  0  0  0  0  0  0  0  0  0
    0.5560   26.5730  -24.4520 C   0  0  0  0  0  0  0  0  0  0  0  0
   -1.5630   25.4610  -24.9590 C   0  0  0  0  0  0  0  0  0  0  0  0
   -1.5550   24.7250  -26.3110 C   0  0  0  0  0  0  0  0  0  0  0  0
   -1.2870   22.9100  -28.5270 N   0  0  0  0  0  0  0  0  0  0  0  0
   -1.3060   22.0980  -29.6140 C   0  0  0  0  0  0  0  0  0  0  0  0
   -1.5330   22.6490  -30.8780 C   0  0  0  0  0  0  0  0  0  0  0  0
   -1.5590   21.8310  -32.0070 C   0  0  0  0  0  0  0  0  0  0  0  0
   -1.3220   20.4540  -31.8890 C   0  0  0  0  0  0  0  0  0  0  0  0
   -1.3350   19.5980  -33.0350 N   0  0  0  0  0  0  0  0  0  0  0  0
   -2.6320   18.5030  -33.3880 S   0  0  0  0  0  0  0  0  0  0  0  0
   -2.6190   17.3730  -32.3990 O   0  0  0  0  0  0  0  0  0  0  0  0
   -2.4650   17.9520  -34.7760 O   0  0  0  0  0  0  0  0  0  0  0  0
   -4.1610   19.3650  -33.2270 C   0  0  0  0  0  0  0  0  0  0  0  0
   -5.2910   18.8960  -33.9060 C   0  0  0  0  0  0  0  0  0  0  0  0
   -6.5150   19.5530  -33.7710 C   0  0  0  0  0  0  0  0  0  0  0  0
   -6.6140   20.6920  -32.9710 C   0  0  0  0  0  0  0  0  0  0  0  0
   -5.4870   21.1840  -32.2970 C   0  0  0  0  0  0  0  0  0  0  0  0
   -5.5890   22.4120  -31.4830 C   0  0  0  0  0  0  0  0  0  0  0  0
   -6.8000   22.7310  -30.8390 C   0  0  0  0  0  0  0  0  0  0  0  0
   -6.9110   23.9050  -30.0870 C   0  0  0  0  0  0  0  0  0  0  0  0
   -5.8200   24.7690  -29.9710 C   0  0  0  0  0  0  0  0  0  0  0  0
   -4.6060   24.4530  -30.5920 C   0  0  0  0  0  0  0  0  0  0  0  0
   -3.5120   25.3010  -30.4520 O   0  0  0  0  0  0  0  0  0  0  0  0
   -4.4910   23.2820  -31.3540 C   0  0  0  0  0  0  0  0  0  0  0  0
   -4.2590   20.5080  -32.4200 C   0  0  0  0  0  0  0  0  0  0  0  0
   -1.0910   19.8950  -30.6250 C   0  0  0  0  0  0  0  0  0  0  0  0
   -1.1070   20.7040  -29.4680 C   0  0  0  0  0  0  0  0  0  0  0  0
   -0.7443   18.5065  -26.8374 H   0  0  0  0  0  0  0  0  0  0  0  0
   -1.6089   18.1572  -28.3727 H   0  0  0  0  0  0  0  0  0  0  0  0
    0.1762   18.3575  -28.3727 H   0  0  0  0  0  0  0  0  0  0  0  0
   -0.8027   20.6616  -26.0466 H   0  0  0  0  0  0  0  0  0  0  0  0
   -1.1008   22.7546  -24.1374 H   0  0  0  0  0  0  0  0  0  0  0  0
    0.2537   22.0800  -25.0924 H   0  0  0  0  0  0  0  0  0  0  0  0
    1.0499   23.8619  -23.5665 H   0  0  0  0  0  0  0  0  0  0  0  0
    1.2224   24.3576  -25.3060 H   0  0  0  0  0  0  0  0  0  0  0  0
    0.8509   27.0009  -23.4825 H   0  0  0  0  0  0  0  0  0  0  0  0
    1.4566   26.2970  -25.0201 H   0  0  0  0  0  0  0  0  0  0  0  0
   -0.0225   27.3164  -25.0201 H   0  0  0  0  0  0  0  0  0  0  0  0
   -2.3486   25.0205  -24.3275 H   0  0  0  0  0  0  0  0  0  0  0  0
   -1.7456   26.5248  -25.1709 H   0  0  0  0  0  0  0  0  0  0  0  0
   -2.5799   24.6941  -26.7093 H   0  0  0  0  0  0  0  0  0  0  0  0
   -0.8889   25.2658  -26.9994 H   0  0  0  0  0  0  0  0  0  0  0  0
   -1.6918   23.7324  -30.9828 H   0  0  0  0  0  0  0  0  0  0  0  0
   -1.7664   22.2680  -32.9949 H   0  0  0  0  0  0  0  0  0  0  0  0
   -5.2144   18.0064  -34.5484 H   0  0  0  0  0  0  0  0  0  0  0  0
   -7.4033   19.1722  -34.2963 H   0  0  0  0  0  0  0  0  0  0  0  0
   -7.5809   21.2065  -32.8685 H   0  0  0  0  0  0  0  0  0  0  0  0
   -7.6624   22.0539  -30.9278 H   0  0  0  0  0  0  0  0  0  0  0  0
   -7.8595   24.1483  -29.5859 H   0  0  0  0  0  0  0  0  0  0  0  0
   -5.9148   25.6989  -29.3910 H   0  0  0  0  0  0  0  0  0  0  0  0
   -3.5399   23.0428  -31.8523 H   0  0  0  0  0  0  0  0  0  0  0  0
   -3.3735   20.8770  -31.8818 H   0  0  0  0  0  0  0  0  0  0  0  0
   -0.8955   18.8164  -30.5334 H   0  0  0  0  0  0  0  0  0  0  0  0
  1  2  1  0
  2  3  2  0
  3  4  1  0
  4  5  1  0
  5  6  1  0
  6  7  1  0
  7  8  1  0
  8  9  1  0
  8 10  1  0
 10 11  1  0
  4 12  2  0
 12 13  1  0
 13 14  2  0
 14 15  1  0
 15 16  2  0
 16 17  1  0
 17 18  1  0
 18 19  2  0
 18 20  2  0
 18 21  1  0
 21 22  2  0
 22 23  1  0
 23 24  2  0
 24 25  1  0
 25 26  1  0
 26 27  2  0
 27 28  1  0
 28 29  2  0
 29 30  1  0
 30 31  1  0
 30 32  2  0
 25 33  2  0
 16 34  1  0
 34 35  2  0
 35  2  1  0
 11  5  1  0
 35 13  1  0
 33 21  1  0
 32 26  1  0
  1 36  1  0
  1 37  1  0
  1 38  1  0
  3 39  1  0
  6 40  1  0
  6 41  1  0
  7 42  1  0
  7 43  1  0
  9 44  1  0
  9 45  1  0
  9 46  1  0
 10 47  1  0
 10 48  1  0
 11 49  1  0
 11 50  1  0
 14 51  1  0
 15 52  1  0
 22 53  1  0
 23 54  1  0
 24 55  1  0
 27 56  1  0
 28 57  1  0
 29 58  1  0
 32 59  1  0
 33 60  1  0
 34 61  1  0
M  CHG  2  17  -1  31  -1
M  END
>  <UniqueID>  (42) 
42

>  <SMILES>  (42) 
Cc1cc(N2CCN(C)CC2)nc2ccc([N-]S(=O)(=O)c3cccc(-c4cccc([O-])c4)c3)cc12

>  <Energy>  (42) 
92.9637755318856

>  <Genealogy>  (42) 
Cc1cc(N2CCN(C)CC2)nc2ccc([N-]S(=O)(=O)c3cccc(-c4cccc([O-])c4)c3)cc12 (protonated)
Cc1cc(N2CCN(C)CC2)nc2ccc([N-]S(=O)(=O)c3cccc(-c4cccc([O-])c4)c3)cc12 (3D coordinates assigned)
Cc1cc(N2CCN(C)CC2)nc2ccc([N-]S(=O)(=O)c3cccc(-c4cccc([O-])c4)c3)cc12 (nonaromatic ring conformer: 92.9637755318856 kcal/mol)

>  <smiles>  (42) 
Cc1cc(N2CCN(C)CC2)nc2ccc(NS(=O)(=O)c3cccc(-c4cccc(O)c4)c3)cc12

>  <score_type>  (42) 
oracle

>  <origin>  (42) 
adgpu

>  <m_score__min__energy>  (42) 
-13.220000000000001

>  <m_primary>  (42) 
energy

$$$$
42:0
     RDKit          3D

 37 39  0  0  0  0  0  0  0  0999 V2000
   -6.5490   25.6750  -30.0940 O   0  0  0  0  0  0  0  0  0  0  0  0
   -5.4380   24.6710  -30.2290 S   0  0  0  0  0  0  0  0  0  0  0  0
   -4.3100   25.2910  -31.0070 O   0  0  0  0  0  0  0  0  0  0  0  0
   -4.8650   24.2340  -28.6490 N   0  0  0  0  0  0  0  0  0  0  0  0
   -3.6590   23.4820  -28.4180 C   0  0  0  0  0  0  0  0  0  0  0  0
   -3.6950   22.1980  -27.8410 C   0  0  0  0  0  0  0  0  0  0  0  0
   -2.5090   21.4850  -27.6170 C   0  0  0  0  0  0  0  0  0  0  0  0
   -1.2750   22.0470  -27.9680 C   0  0  0  0  0  0  0  0  0  0  0  0
   -1.2300   23.3240  -28.5410 C   0  0  0  0  0  0  0  0  0  0  0  0
   -2.4120   24.0350  -28.7730 C   0  0  0  0  0  0  0  0  0  0  0  0
   -2.3380   25.3010  -29.3440 O   0  0  0  0  0  0  0  0  0  0  0  0
   -0.0180   21.2830  -27.6550 C   0  0  0  0  0  0  0  0  0  0  0  0
   -0.1660   19.7900  -28.0110 C   0  0  0  0  0  0  0  0  0  0  0  0
   -1.5580   19.1780  -27.6950 C   0  0  0  0  0  0  0  0  0  0  0  0
   -2.5200   20.1290  -26.9650 C   0  0  0  0  0  0  0  0  0  0  0  0
   -6.0610   23.2480  -31.0570 C   0  0  0  0  0  0  0  0  0  0  0  0
   -7.4370   22.9800  -31.0450 C   0  0  0  0  0  0  0  0  0  0  0  0
   -7.9380   21.8410  -31.6830 C   0  0  0  0  0  0  0  0  0  0  0  0
   -7.0660   20.9670  -32.3400 C   0  0  0  0  0  0  0  0  0  0  0  0
   -5.6940   21.2320  -32.3590 C   0  0  0  0  0  0  0  0  0  0  0  0
   -5.1910   22.3710  -31.7210 C   0  0  0  0  0  0  0  0  0  0  0  0
   -5.4940   24.4570  -27.8470 H   0  0  0  0  0  0  0  0  0  0  0  0
   -4.6612   21.7510  -27.5639 H   0  0  0  0  0  0  0  0  0  0  0  0
   -0.2610   23.7698  -28.8098 H   0  0  0  0  0  0  0  0  0  0  0  0
    0.8139   21.7089  -28.2351 H   0  0  0  0  0  0  0  0  0  0  0  0
    0.1780   21.3646  -26.5757 H   0  0  0  0  0  0  0  0  0  0  0  0
    0.0211   19.6754  -29.0889 H   0  0  0  0  0  0  0  0  0  0  0  0
    0.5584   19.2497  -27.3839 H   0  0  0  0  0  0  0  0  0  0  0  0
   -2.0254   18.8783  -28.6446 H   0  0  0  0  0  0  0  0  0  0  0  0
   -1.3810   18.3300  -27.0171 H   0  0  0  0  0  0  0  0  0  0  0  0
   -3.5386   19.7156  -27.0047 H   0  0  0  0  0  0  0  0  0  0  0  0
   -2.1956   20.2324  -25.9190 H   0  0  0  0  0  0  0  0  0  0  0  0
   -8.1250   23.6681  -30.5319 H   0  0  0  0  0  0  0  0  0  0  0  0
   -9.0179   21.6324  -31.6681 H   0  0  0  0  0  0  0  0  0  0  0  0
   -7.4601   20.0710  -32.8418 H   0  0  0  0  0  0  0  0  0  0  0  0
   -5.0088   20.5443  -32.8762 H   0  0  0  0  0  0  0  0  0  0  0  0
   -4.1110   22.5791  -31.7402 H   0  0  0  0  0  0  0  0  0  0  0  0
  1  2  2  0
  2  3  2  0
  2  4  1  0
  4  5  1  0
  5  6  2  0
  6  7  1  0
  7  8  2  0
  8  9  1  0
  9 10  2  0
 10 11  1  0
  8 12  1  0
 12 13  1  0
 13 14  1  0
 14 15  1  0
  2 16  1  0
 16 17  2  0
 17 18  1  0
 18 19  2  0
 19 20  1  0
 20 21  2  0
 10  5  1  0
 21 16  1  0
 15  7  1  0
  4 22  1  0
  6 23  1  0
  9 24  1  0
 12 25  1  0
 12 26  1  0
 13 27  1  0
 13 28  1  0
 14 29  1  0
 14 30  1  0
 15 31  1  0
 15 32  1  0
 17 33  1  0
 18 34  1  0
 19 35  1  0
 20 36  1  0
 21 37  1  0
M  CHG  1  11  -1
M  END
>  <UniqueID>  (43) 
43

>  <SMILES>  (43) 
O=S(=O)(Nc1cc2c(cc1[O-])CCCC2)c1ccccc1

>  <Energy>  (43) 
46.130531788701795

>  <Genealogy>  (43) 
O=S(=O)(Nc1cc2c(cc1[O-])CCCC2)c1ccccc1 (protonated)
O=S(=O)(Nc1cc2c(cc1[O-])CCCC2)c1ccccc1 (3D coordinates assigned)
O=S(=O)(Nc1cc2c(cc1[O-])CCCC2)c1ccccc1 (nonaromatic ring conformer: 46.130531788701795 kcal/mol)

>  <smiles>  (43) 
O=S(=O)(Nc1cc2c(cc1O)CCCC2)c1ccccc1

>  <score_type>  (43) 
oracle

>  <origin>  (43) 
adgpu

>  <m_score__min__energy>  (43) 
-12.08

>  <m_primary>  (43) 
energy

$$$$
43:0
     RDKit          3D

 55 58  0  0  0  0  0  0  0  0999 V2000
    0.2930   22.8680  -35.7840 N   0  0  0  0  0  0  0  0  0  0  0  0
    0.4320   21.1970  -35.3850 S   0  0  0  0  0  0  0  0  0  0  0  0
    1.7600   20.9460  -34.7380 O   0  0  0  0  0  0  0  0  0  0  0  0
    0.3510   20.3900  -36.6520 O   0  0  0  0  0  0  0  0  0  0  0  0
   -0.8460   20.7230  -34.2750 C   0  0  0  0  0  0  0  0  0  0  0  0
   -1.5210   19.5080  -34.4510 C   0  0  0  0  0  0  0  0  0  0  0  0
   -2.5810   19.1530  -33.6160 C   0  0  0  0  0  0  0  0  0  0  0  0
   -2.9860   20.0150  -32.5850 C   0  0  0  0  0  0  0  0  0  0  0  0
   -4.1120   19.7380  -31.7380 N   0  0  0  0  0  0  0  0  0  0  0  0
   -5.7860   19.6450  -32.1860 S   0  0  0  0  0  0  0  0  0  0  0  0
   -6.4930   18.5390  -31.4470 O   0  0  0  0  0  0  0  0  0  0  0  0
   -5.8510   19.3270  -33.6570 O   0  0  0  0  0  0  0  0  0  0  0  0
   -6.5740   21.1940  -31.8800 C   0  0  0  0  0  0  0  0  0  0  0  0
   -7.9190   21.3930  -32.2230 C   0  0  0  0  0  0  0  0  0  0  0  0
   -8.5330   22.6380  -32.0170 C   0  0  0  0  0  0  0  0  0  0  0  0
   -7.7960   23.6940  -31.4690 C   0  0  0  0  0  0  0  0  0  0  0  0
   -6.4510   23.4990  -31.1110 C   0  0  0  0  0  0  0  0  0  0  0  0
   -5.4890   24.8140  -30.4500 S   0  0  0  0  0  0  0  0  0  0  0  0
   -5.8650   25.0120  -29.0110 O   0  0  0  0  0  0  0  0  0  0  0  0
   -5.7240   26.0920  -31.2030 O   0  0  0  0  0  0  0  0  0  0  0  0
   -3.8090   24.3990  -30.5450 N   0  0  0  0  0  0  0  0  0  0  0  0
   -3.0660   23.7250  -29.5170 C   0  0  0  0  0  0  0  0  0  0  0  0
   -3.4060   22.4320  -29.0780 C   0  0  0  0  0  0  0  0  0  0  0  0
   -2.6360   21.7810  -28.1030 C   0  0  0  0  0  0  0  0  0  0  0  0
   -1.5350   22.4510  -27.5170 C   0  0  0  0  0  0  0  0  0  0  0  0
   -1.2080   23.7450  -27.9480 C   0  0  0  0  0  0  0  0  0  0  0  0
   -1.9670   24.3740  -28.9390 C   0  0  0  0  0  0  0  0  0  0  0  0
   -1.6140   25.6530  -29.3550 O   0  0  0  0  0  0  0  0  0  0  0  0
   -0.6180   21.7610  -26.5320 C   0  0  0  0  0  0  0  0  0  0  0  0
   -1.2330   20.5000  -25.9160 C   0  0  0  0  0  0  0  0  0  0  0  0
   -1.8980   19.6410  -26.9930 C   0  0  0  0  0  0  0  0  0  0  0  0
   -3.0620   20.4110  -27.6260 C   0  0  0  0  0  0  0  0  0  0  0  0
   -5.8540   22.2460  -31.3090 C   0  0  0  0  0  0  0  0  0  0  0  0
   -2.3030   21.2240  -32.4050 C   0  0  0  0  0  0  0  0  0  0  0  0
   -1.2280   21.5740  -33.2300 C   0  0  0  0  0  0  0  0  0  0  0  0
    0.7610   23.4150  -35.0230 H   0  0  0  0  0  0  0  0  0  0  0  0
   -0.7160   23.1110  -35.7630 H   0  0  0  0  0  0  0  0  0  0  0  0
   -1.2117   18.8260  -35.2568 H   0  0  0  0  0  0  0  0  0  0  0  0
   -3.1006   18.1951  -33.7661 H   0  0  0  0  0  0  0  0  0  0  0  0
   -8.4984   20.5652  -32.6578 H   0  0  0  0  0  0  0  0  0  0  0  0
   -9.5898   22.7833  -32.2853 H   0  0  0  0  0  0  0  0  0  0  0  0
   -8.2690   24.6757  -31.3186 H   0  0  0  0  0  0  0  0  0  0  0  0
   -4.2851   21.9264  -29.5041 H   0  0  0  0  0  0  0  0  0  0  0  0
   -0.3487   24.2683  -27.5033 H   0  0  0  0  0  0  0  0  0  0  0  0
    0.3078   21.4789  -27.0547 H   0  0  0  0  0  0  0  0  0  0  0  0
   -0.4297   22.4677  -25.7104 H   0  0  0  0  0  0  0  0  0  0  0  0
   -0.4413   19.9148  -25.4253 H   0  0  0  0  0  0  0  0  0  0  0  0
   -1.9957   20.8006  -25.1826 H   0  0  0  0  0  0  0  0  0  0  0  0
   -1.1595   19.3924  -27.7694 H   0  0  0  0  0  0  0  0  0  0  0  0
   -2.2803   18.7166  -26.5354 H   0  0  0  0  0  0  0  0  0  0  0  0
   -3.4432   19.8379  -28.4841 H   0  0  0  0  0  0  0  0  0  0  0  0
   -3.8411   20.5426  -26.8607 H   0  0  0  0  0  0  0  0  0  0  0  0
   -4.8067   22.0896  -31.0113 H   0  0  0  0  0  0  0  0  0  0  0  0
   -2.6160   21.9089  -31.6032 H   0  0  0  0  0  0  0  0  0  0  0  0
   -0.6845   22.5148  -33.0583 H   0  0  0  0  0  0  0  0  0  0  0  0
  1  2  1  0
  2  3  2  0
  2  4  2  0
  2  5  1  0
  5  6  2  0
  6  7  1  0
  7  8  2  0
  8  9  1  0
  9 10  1  0
 10 11  2  0
 10 12  2  0
 10 13  1  0
 13 14  2  0
 14 15  1  0
 15 16  2  0
 16 17  1  0
 17 18  1  0
 18 19  2  0
 18 20  2  0
 18 21  1  0
 21 22  1  0
 22 23  2  0
 23 24  1  0
 24 25  2  0
 25 26  1  0
 26 27  2  0
 27 28  1  0
 25 29  1  0
 29 30  1  0
 30 31  1  0
 31 32  1  0
 17 33  2  0
  8 34  1  0
 34 35  2  0
 35  5  1  0
 33 13  1  0
 27 22  1  0
 32 24  1  0
  1 36  1  0
  1 37  1  0
  6 38  1  0
  7 39  1  0
 14 40  1  0
 15 41  1  0
 16 42  1  0
 23 43  1  0
 26 44  1  0
 29 45  1  0
 29 46  1  0
 30 47  1  0
 30 48  1  0
 31 49  1  0
 31 50  1  0
 32 51  1  0
 32 52  1  0
 33 53  1  0
 34 54  1  0
 35 55  1  0
M  CHG  3   9  -1  21  -1  28  -1
M  END
>  <UniqueID>  (44) 
44

>  <SMILES>  (44) 
NS(=O)(=O)c1ccc([N-]S(=O)(=O)c2cccc(S(=O)(=O)[N-]c3cc4c(cc3[O-])CCCC4)c2)cc1

>  <Energy>  (44) 
61.57607407564819

>  <Genealogy>  (44) 
NS(=O)(=O)c1ccc([N-]S(=O)(=O)c2cccc(S(=O)(=O)[N-]c3cc4c(cc3[O-])CCCC4)c2)cc1 (protonated)
NS(=O)(=O)c1ccc([N-]S(=O)(=O)c2cccc(S(=O)(=O)[N-]c3cc4c(cc3[O-])CCCC4)c2)cc1 (3D coordinates assigned)
NS(=O)(=O)c1ccc([N-]S(=O)(=O)c2cccc(S(=O)(=O)[N-]c3cc4c(cc3[O-])CCCC4)c2)cc1 (nonaromatic ring conformer: 61.57607407564819 kcal/mol)

>  <smiles>  (44) 
NS(=O)(=O)c1ccc(NS(=O)(=O)c2cccc(S(=O)(=O)Nc3cc4c(cc3O)CCCC4)c2)cc1

>  <score_type>  (44) 
oracle

>  <origin>  (44) 
adgpu

>  <m_score__min__energy>  (44) 
-15.52

>  <m_primary>  (44) 
energy

$$$$
44:0
     RDKit          3D

 55 58  0  0  0  0  0  0  0  0999 V2000
   -9.1970   20.3640  -32.3970 C   0  0  0  0  0  0  0  0  0  0  0  0
   -8.1650   21.3460  -31.9070 C   0  0  0  0  0  0  0  0  0  0  0  0
   -8.4970   22.7090  -31.8210 C   0  0  0  0  0  0  0  0  0  0  0  0
   -7.5640   23.6400  -31.3640 C   0  0  0  0  0  0  0  0  0  0  0  0
   -6.2820   23.2260  -30.9890 C   0  0  0  0  0  0  0  0  0  0  0  0
   -5.0860   24.3890  -30.4300 S   0  0  0  0  0  0  0  0  0  0  0  0
   -5.3030   24.6440  -28.9650 O   0  0  0  0  0  0  0  0  0  0  0  0
   -5.2030   25.6930  -31.1690 O   0  0  0  0  0  0  0  0  0  0  0  0
   -3.5000   23.7320  -30.6610 N   0  0  0  0  0  0  0  0  0  0  0  0
   -2.8190   22.8560  -29.7500 C   0  0  0  0  0  0  0  0  0  0  0  0
   -2.7720   23.1130  -28.3670 C   0  0  0  0  0  0  0  0  0  0  0  0
   -2.0870   22.2440  -27.5130 C   0  0  0  0  0  0  0  0  0  0  0  0
   -1.4450   21.1150  -28.0250 C   0  0  0  0  0  0  0  0  0  0  0  0
   -1.4860   20.8510  -29.3970 C   0  0  0  0  0  0  0  0  0  0  0  0
   -2.1730   21.7150  -30.2580 C   0  0  0  0  0  0  0  0  0  0  0  0
   -2.1720   21.4570  -31.6680 N   0  0  0  0  0  0  0  0  0  0  0  0
   -1.0970   20.6460  -32.2550 C   0  0  0  0  0  0  0  0  0  0  0  0
   -1.4470   20.2270  -33.6860 C   0  0  0  0  0  0  0  0  0  0  0  0
   -2.8530   19.8000  -33.7430 N   0  0  0  0  0  0  0  0  0  0  0  0
   -3.2050   18.4700  -34.1750 C   0  0  0  0  0  0  0  0  0  0  0  0
   -4.5500   18.1050  -34.3470 C   0  0  0  0  0  0  0  0  0  0  0  0
   -4.8640   16.8170  -34.7850 C   0  0  0  0  0  0  0  0  0  0  0  0
   -3.8740   15.9260  -35.0520 N   0  0  0  0  0  0  0  0  0  0  0  0
   -2.5630   16.2530  -34.9040 C   0  0  0  0  0  0  0  0  0  0  0  0
   -2.2040   17.5300  -34.4670 C   0  0  0  0  0  0  0  0  0  0  0  0
   -3.9060   20.6890  -33.2230 C   0  0  0  0  0  0  0  0  0  0  0  0
   -3.3080   21.8960  -32.4860 C   0  0  0  0  0  0  0  0  0  0  0  0
   -5.9370   21.8720  -31.0770 C   0  0  0  0  0  0  0  0  0  0  0  0
   -6.8650   20.9240  -31.5370 C   0  0  0  0  0  0  0  0  0  0  0  0
   -6.4630   19.4730  -31.6090 C   0  0  0  0  0  0  0  0  0  0  0  0
   -9.6926   19.8925  -31.5356 H   0  0  0  0  0  0  0  0  0  0  0  0
   -9.9451   20.8919  -33.0066 H   0  0  0  0  0  0  0  0  0  0  0  0
   -8.7069   19.5906  -33.0066 H   0  0  0  0  0  0  0  0  0  0  0  0
   -9.5019   23.0448  -32.1168 H   0  0  0  0  0  0  0  0  0  0  0  0
   -7.8377   24.7034  -31.2984 H   0  0  0  0  0  0  0  0  0  0  0  0
   -3.2760   24.0006  -27.9569 H   0  0  0  0  0  0  0  0  0  0  0  0
   -2.0536   22.4505  -26.4331 H   0  0  0  0  0  0  0  0  0  0  0  0
   -0.9073   20.4337  -27.3492 H   0  0  0  0  0  0  0  0  0  0  0  0
   -0.9777   19.9630  -29.8008 H   0  0  0  0  0  0  0  0  0  0  0  0
   -0.1683   21.2353  -32.2693 H   0  0  0  0  0  0  0  0  0  0  0  0
   -0.9679   19.7396  -31.6453 H   0  0  0  0  0  0  0  0  0  0  0  0
   -1.2950   21.0791  -34.3649 H   0  0  0  0  0  0  0  0  0  0  0  0
   -0.7984   19.3931  -33.9924 H   0  0  0  0  0  0  0  0  0  0  0  0
   -5.3511   18.8292  -34.1380 H   0  0  0  0  0  0  0  0  0  0  0  0
   -5.9161   16.5229  -34.9142 H   0  0  0  0  0  0  0  0  0  0  0  0
   -1.7833   15.5104  -35.1289 H   0  0  0  0  0  0  0  0  0  0  0  0
   -1.1432   17.7977  -34.3523 H   0  0  0  0  0  0  0  0  0  0  0  0
   -4.5168   21.0499  -34.0636 H   0  0  0  0  0  0  0  0  0  0  0  0
   -4.5198   20.1182  -32.5106 H   0  0  0  0  0  0  0  0  0  0  0  0
   -2.9653   22.6404  -33.2197 H   0  0  0  0  0  0  0  0  0  0  0  0
   -4.0743   22.3456  -31.8374 H   0  0  0  0  0  0  0  0  0  0  0  0
   -4.9281   21.5474  -30.7826 H   0  0  0  0  0  0  0  0  0  0  0  0
   -6.3520   19.0723  -30.5906 H   0  0  0  0  0  0  0  0  0  0  0  0
   -7.2374   18.9041  -32.1445 H   0  0  0  0  0  0  0  0  0  0  0  0
   -5.5063   19.3837  -32.1445 H   0  0  0  0  0  0  0  0  0  0  0  0
  1  2  1  0
  2  3  2  0
  3  4  1  0
  4  5  2  0
  5  6  1  0
  6  7  2  0
  6  8  2  0
  6  9  1  0
  9 10  1  0
 10 11  2  0
 11 12  1  0
 12 13  2  0
 13 14  1  0
 14 15  2  0
 15 16  1  0
 16 17  1  0
 17 18  1  0
 18 19  1  0
 19 20  1  0
 20 21  2  0
 21 22  1  0
 22 23  2  0
 23 24  1  0
 24 25  2  0
 19 26  1  0
 26 27  1  0
  5 28  1  0
 28 29  2  0
 29 30  1  0
 29  2  1  0
 15 10  1  0
 27 16  1  0
 25 20  1  0
  1 31  1  0
  1 32  1  0
  1 33  1  0
  3 34  1  0
  4 35  1  0
 11 36  1  0
 12 37  1  0
 13 38  1  0
 14 39  1  0
 17 40  1  0
 17 41  1  0
 18 42  1  0
 18 43  1  0
 21 44  1  0
 22 45  1  0
 24 46  1  0
 25 47  1  0
 26 48  1  0
 26 49  1  0
 27 50  1  0
 27 51  1  0
 28 52  1  0
 30 53  1  0
 30 54  1  0
 30 55  1  0
M  CHG  1   9  -1
M  END
>  <UniqueID>  (45) 
45

>  <SMILES>  (45) 
Cc1ccc(S(=O)(=O)[N-]c2ccccc2N2CCN(c3ccncc3)CC2)cc1C

>  <Energy>  (45) 
71.4851220728376

>  <Genealogy>  (45) 
Cc1ccc(S(=O)(=O)[N-]c2ccccc2N2CCN(c3ccncc3)CC2)cc1C (protonated)
Cc1ccc(S(=O)(=O)[N-]c2ccccc2N2CCN(c3ccncc3)CC2)cc1C (3D coordinates assigned)
Cc1ccc(S(=O)(=O)[N-]c2ccccc2N2CCN(c3ccncc3)CC2)cc1C (nonaromatic ring conformer: 71.4851220728376 kcal/mol)

>  <smiles>  (45) 
Cc1ccc(S(=O)(=O)Nc2ccccc2N2CCN(c3ccncc3)CC2)cc1C

>  <score_type>  (45) 
oracle

>  <origin>  (45) 
adgpu

>  <m_score__min__energy>  (45) 
-9.9800000000000004

>  <m_primary>  (45) 
energy

$$$$
45:0
     RDKit          3D

 51 55  0  0  0  0  0  0  0  0999 V2000
    1.9810   18.5780  -37.4580 C   0  0  0  0  0  0  0  0  0  0  0  0
    1.0920   18.7280  -36.3020 N   0  0  0  0  0  0  0  0  0  0  0  0
    0.7210   20.0430  -35.8450 C   0  0  0  0  0  0  0  0  0  0  0  0
    1.2090   21.1520  -36.4640 N   0  0  0  0  0  0  0  0  0  0  0  0
    0.8790   22.4020  -36.0470 C   0  0  0  0  0  0  0  0  0  0  0  0
    1.3540   23.4300  -36.6890 N   0  0  0  0  0  0  0  0  0  0  0  0
    1.1580   24.8160  -36.3640 C   0  0  0  0  0  0  0  0  0  0  0  0
   -0.0980   25.4400  -36.4780 C   0  0  0  0  0  0  0  0  0  0  0  0
   -0.2550   26.7820  -36.1190 C   0  0  0  0  0  0  0  0  0  0  0  0
    0.8330   27.5100  -35.6180 C   0  0  0  0  0  0  0  0  0  0  0  0
    0.6400   29.2050  -35.1820 S   0  0  0  0  0  0  0  0  0  0  0  0
    2.1410   29.7980  -34.4360 C   0  0  0  0  0  0  0  0  0  0  0  0
   -0.4980   29.3560  -34.2110 O   0  0  0  0  0  0  0  0  0  0  0  0
    0.3350   30.0150  -36.4110 O   0  0  0  0  0  0  0  0  0  0  0  0
    2.0790   26.8840  -35.4820 C   0  0  0  0  0  0  0  0  0  0  0  0
    2.2350   25.5430  -35.8410 C   0  0  0  0  0  0  0  0  0  0  0  0
    0.0280   22.5550  -34.9950 N   0  0  0  0  0  0  0  0  0  0  0  0
   -0.4870   21.4810  -34.3460 C   0  0  0  0  0  0  0  0  0  0  0  0
   -0.1630   20.1880  -34.7670 C   0  0  0  0  0  0  0  0  0  0  0  0
   -0.6980   18.9790  -34.0470 C   0  0  0  0  0  0  0  0  0  0  0  0
   -0.6580   17.7820  -34.9160 N   0  0  2  0  0  0  0  0  0  0  0  0
   -1.1340   16.5970  -34.2300 C   0  0  0  0  0  0  0  0  0  0  0  0
   -2.4180   16.0840  -34.4990 C   0  0  0  0  0  0  0  0  0  0  0  0
   -2.8250   14.8660  -33.9490 C   0  0  0  0  0  0  0  0  0  0  0  0
   -1.9550   14.1420  -33.1310 C   0  0  0  0  0  0  0  0  0  0  0  0
   -0.6850   14.6460  -32.8430 C   0  0  0  0  0  0  0  0  0  0  0  0
   -0.2830   15.8790  -33.3700 C   0  0  0  0  0  0  0  0  0  0  0  0
    1.2890   16.5720  -32.8810 S   0  0  0  0  0  0  0  0  0  0  0  0
    1.8050   17.1310  -34.5460 C   0  0  0  0  0  0  0  0  0  0  0  0
    0.6710   17.5420  -35.5350 C   0  0  2  0  0  0  0  0  0  0  0  0
    3.0097   18.4044  -37.1093 H   0  0  0  0  0  0  0  0  0  0  0  0
    1.6507   17.7229  -38.0660 H   0  0  0  0  0  0  0  0  0  0  0  0
    1.9496   19.4941  -38.0660 H   0  0  0  0  0  0  0  0  0  0  0  0
   -0.9608   24.8690  -36.8515 H   0  0  0  0  0  0  0  0  0  0  0  0
   -1.2355   27.2681  -36.2301 H   0  0  0  0  0  0  0  0  0  0  0  0
    2.0458   29.7604  -33.3408 H   0  0  0  0  0  0  0  0  0  0  0  0
    2.9829   29.1649  -34.7528 H   0  0  0  0  0  0  0  0  0  0  0  0
    2.3229   30.8356  -34.7528 H   0  0  0  0  0  0  0  0  0  0  0  0
    2.9373   27.4503  -35.0912 H   0  0  0  0  0  0  0  0  0  0  0  0
    3.2118   25.0539  -35.7119 H   0  0  0  0  0  0  0  0  0  0  0  0
   -1.1598   21.6275  -33.4882 H   0  0  0  0  0  0  0  0  0  0  0  0
   -0.0863   18.7939  -33.1517 H   0  0  0  0  0  0  0  0  0  0  0  0
   -1.7438   19.1731  -33.7666 H   0  0  0  0  0  0  0  0  0  0  0  0
   -1.3120   17.9760  -35.7120 H   0  0  0  0  0  0  0  0  0  0  0  0
   -3.1057   16.6469  -35.1473 H   0  0  0  0  0  0  0  0  0  0  0  0
   -3.8319   14.4768  -34.1605 H   0  0  0  0  0  0  0  0  0  0  0  0
   -2.2703   13.1744  -32.7134 H   0  0  0  0  0  0  0  0  0  0  0  0
    0.0006   14.0733  -32.2011 H   0  0  0  0  0  0  0  0  0  0  0  0
    2.4635   18.0023  -34.4148 H   0  0  0  0  0  0  0  0  0  0  0  0
    2.2842   16.2548  -35.0071 H   0  0  0  0  0  0  0  0  0  0  0  0
    0.5248   16.6717  -36.1917 H   0  0  0  0  0  0  0  0  0  0  0  0
  1  2  1  0
  2  3  1  0
  3  4  2  0
  4  5  1  0
  5  6  2  3
  6  7  1  0
  7  8  2  0
  8  9  1  0
  9 10  2  0
 10 11  1  0
 11 12  1  0
 11 13  2  0
 11 14  2  0
 10 15  1  0
 15 16  2  0
  5 17  1  0
 17 18  1  0
 18 19  2  0
 19 20  1  0
 20 21  1  0
 21 22  1  0
 22 23  2  0
 23 24  1  0
 24 25  2  0
 25 26  1  0
 26 27  2  0
 27 28  1  0
 28 29  1  0
 29 30  1  0
 30  2  1  0
 19  3  1  0
 30 21  1  0
 16  7  1  0
 27 22  1  0
  1 31  1  0
  1 32  1  0
  1 33  1  0
  8 34  1  0
  9 35  1  0
 12 36  1  0
 12 37  1  0
 12 38  1  0
 15 39  1  0
 16 40  1  0
 18 41  1  0
 20 42  1  0
 20 43  1  0
 21 44  1  6
 23 45  1  0
 24 46  1  0
 25 47  1  0
 26 48  1  0
 29 49  1  0
 29 50  1  0
 30 51  1  6
M  CHG  2  17  -1  21   1
M  END
>  <UniqueID>  (46) 
46

>  <SMILES>  (46) 
CN1c2nc(=Nc3ccc(S(C)(=O)=O)cc3)[n-]cc2C[N@@H+]2c3ccccc3SC[C@H]12

>  <Energy>  (46) 
78.78804158647175

>  <Genealogy>  (46) 
CN1c2nc(=Nc3ccc(S(C)(=O)=O)cc3)[n-]cc2C[NH+]2c3ccccc3SCC12 (protonated)
CN1c2nc(=Nc3ccc(S(C)(=O)=O)cc3)[n-]cc2C[N@@H+]2c3ccccc3SC[C@H]12 (chirality)
CN1c2nc(=Nc3ccc(S(C)(=O)=O)cc3)[n-]cc2C[N@@H+]2c3ccccc3SC[C@H]12 (3D coordinates assigned)
CN1c2nc(=Nc3ccc(S(C)(=O)=O)cc3)[n-]cc2C[N@@H+]2c3ccccc3SC[C@H]12 (nonaromatic ring conformer: 78.78804158647175 kcal/mol)

>  <smiles>  (46) 
CN1c2nc(=Nc3ccc(S(C)(=O)=O)cc3)[nH]cc2CN2c3ccccc3SCC12

>  <score_type>  (46) 
oracle

>  <origin>  (46) 
adgpu

>  <m_score__min__energy>  (46) 
-7.7599999999999998

>  <m_primary>  (46) 
energy

$$$$
46:0
     RDKit          3D

 46 48  0  0  0  0  0  0  0  0999 V2000
   -6.2120   17.6440  -31.5760 C   0  0  0  0  0  0  0  0  0  0  0  0
   -6.8880   18.0450  -32.8230 N   0  0  0  0  0  0  0  0  0  0  0  0
   -6.2590   19.2460  -33.4340 C   0  0  0  0  0  0  0  0  0  0  0  0
   -7.0670   20.5460  -33.2490 C   0  0  0  0  0  0  0  0  0  0  0  0
   -7.8180   20.5140  -31.9890 N   0  0  0  0  0  0  0  0  0  0  0  0
   -7.8710   21.6620  -31.1180 C   0  0  0  0  0  0  0  0  0  0  0  0
   -8.9500   21.9380  -30.5260 O   0  0  0  0  0  0  0  0  0  0  0  0
   -6.6740   22.5030  -30.8680 C   0  0  0  0  0  0  0  0  0  0  0  0
   -6.8270   23.8810  -30.6380 C   0  0  0  0  0  0  0  0  0  0  0  0
   -5.7160   24.6900  -30.3840 C   0  0  0  0  0  0  0  0  0  0  0  0
   -4.4260   24.1360  -30.3690 C   0  0  0  0  0  0  0  0  0  0  0  0
   -3.2590   24.9240  -30.0990 N   0  0  0  0  0  0  0  0  0  0  0  0
   -2.1100   24.6060  -28.8390 S   0  0  0  0  0  0  0  0  0  0  0  0
   -0.8610   25.4060  -29.0910 O   0  0  0  0  0  0  0  0  0  0  0  0
   -2.6940   25.0250  -27.5190 O   0  0  0  0  0  0  0  0  0  0  0  0
   -1.7560   22.8830  -28.7860 C   0  0  0  0  0  0  0  0  0  0  0  0
   -2.3310   22.0620  -27.8050 C   0  0  0  0  0  0  0  0  0  0  0  0
   -2.0320   20.6960  -27.7700 C   0  0  0  0  0  0  0  0  0  0  0  0
   -1.1610   20.1450  -28.7140 C   0  0  0  0  0  0  0  0  0  0  0  0
   -0.5870   20.9590  -29.6960 C   0  0  0  0  0  0  0  0  0  0  0  0
   -0.8830   22.3250  -29.7320 C   0  0  0  0  0  0  0  0  0  0  0  0
   -4.2660   22.7680  -30.6210 C   0  0  0  0  0  0  0  0  0  0  0  0
   -5.3770   21.9500  -30.8740 C   0  0  0  0  0  0  0  0  0  0  0  0
   -5.1920   20.5870  -31.1160 O   0  0  0  0  0  0  0  0  0  0  0  0
   -8.7000   19.3710  -31.7260 C   0  0  0  0  0  0  0  0  0  0  0  0
   -8.3480   18.1810  -32.6370 C   0  0  0  0  0  0  0  0  0  0  0  0
   -6.7984   17.9919  -30.7128 H   0  0  0  0  0  0  0  0  0  0  0  0
   -6.1248   16.5480  -31.5423 H   0  0  0  0  0  0  0  0  0  0  0  0
   -5.2083   18.0929  -31.5423 H   0  0  0  0  0  0  0  0  0  0  0  0
   -5.2687   19.3873  -32.9764 H   0  0  0  0  0  0  0  0  0  0  0  0
   -6.2055   19.0585  -34.5166 H   0  0  0  0  0  0  0  0  0  0  0  0
   -6.3762   21.4020  -33.2362 H   0  0  0  0  0  0  0  0  0  0  0  0
   -7.7782   20.6425  -34.0826 H   0  0  0  0  0  0  0  0  0  0  0  0
   -7.8320   24.3276  -30.6581 H   0  0  0  0  0  0  0  0  0  0  0  0
   -5.8528   25.7650  -30.1951 H   0  0  0  0  0  0  0  0  0  0  0  0
   -3.0182   22.4930  -27.0620 H   0  0  0  0  0  0  0  0  0  0  0  0
   -2.4830   20.0546  -26.9985 H   0  0  0  0  0  0  0  0  0  0  0  0
   -0.9268   19.0706  -28.6847 H   0  0  0  0  0  0  0  0  0  0  0  0
    0.0971   20.5246  -30.4398 H   0  0  0  0  0  0  0  0  0  0  0  0
   -0.4301   22.9641  -30.5043 H   0  0  0  0  0  0  0  0  0  0  0  0
   -3.2571   22.3296  -30.6206 H   0  0  0  0  0  0  0  0  0  0  0  0
   -5.9750   19.9460  -31.1680 H   0  0  0  0  0  0  0  0  0  0  0  0
   -8.5885   19.0649  -30.6753 H   0  0  0  0  0  0  0  0  0  0  0  0
   -9.7372   19.6744  -31.9312 H   0  0  0  0  0  0  0  0  0  0  0  0
   -8.7366   17.2576  -32.1826 H   0  0  0  0  0  0  0  0  0  0  0  0
   -8.8031   18.3586  -33.6226 H   0  0  0  0  0  0  0  0  0  0  0  0
  1  2  1  0
  2  3  1  0
  3  4  1  0
  4  5  1  0
  5  6  1  0
  6  7  2  0
  6  8  1  0
  8  9  2  0
  9 10  1  0
 10 11  2  0
 11 12  1  0
 12 13  1  0
 13 14  2  0
 13 15  2  0
 13 16  1  0
 16 17  2  0
 17 18  1  0
 18 19  2  0
 19 20  1  0
 20 21  2  0
 11 22  1  0
 22 23  2  0
 23 24  1  0
  5 25  1  0
 25 26  1  0
 26  2  1  0
 23  8  1  0
 21 16  1  0
  1 27  1  0
  1 28  1  0
  1 29  1  0
  3 30  1  0
  3 31  1  0
  4 32  1  0
  4 33  1  0
  9 34  1  0
 10 35  1  0
 17 36  1  0
 18 37  1  0
 19 38  1  0
 20 39  1  0
 21 40  1  0
 22 41  1  0
 24 42  1  0
 25 43  1  0
 25 44  1  0
 26 45  1  0
 26 46  1  0
M  CHG  1  12  -1
M  END
>  <UniqueID>  (47) 
47

>  <SMILES>  (47) 
CN1CCN(C(=O)c2ccc([N-]S(=O)(=O)c3ccccc3)cc2O)CC1

>  <Energy>  (47) 
62.851148710226205

>  <Genealogy>  (47) 
CN1CCN(C(=O)c2ccc([N-]S(=O)(=O)c3ccccc3)cc2O)CC1 (protonated)
CN1CCN(C(=O)c2ccc([N-]S(=O)(=O)c3ccccc3)cc2O)CC1 (3D coordinates assigned)
CN1CCN(C(=O)c2ccc([N-]S(=O)(=O)c3ccccc3)cc2O)CC1 (nonaromatic ring conformer: 62.851148710226205 kcal/mol)

>  <smiles>  (47) 
CN1CCN(C(=O)c2ccc(NS(=O)(=O)c3ccccc3)cc2O)CC1

>  <score_type>  (47) 
oracle

>  <origin>  (47) 
adgpu

>  <m_score__min__energy>  (47) 
-9.9600000000000009

>  <m_primary>  (47) 
energy

$$$$
47:0
     RDKit          3D

 55 58  0  0  0  0  0  0  0  0999 V2000
   -7.1990   24.1740  -30.5740 C   0  0  0  0  0  0  0  0  0  0  0  0
   -6.8920   23.6610  -31.9760 C   0  0  0  0  0  0  0  0  0  0  0  0
   -6.4360   22.2680  -31.9280 N   0  0  0  0  0  0  0  0  0  0  0  0
   -5.1580   21.7990  -31.8850 C   0  0  0  0  0  0  0  0  0  0  0  0
   -3.9430   22.6710  -31.8500 C   0  0  0  0  0  0  0  0  0  0  0  0
   -3.2890   22.5470  -30.5500 N   0  0  0  0  0  0  0  0  0  0  0  0
   -3.6380   23.9440  -29.5780 S   0  0  0  0  0  0  0  0  0  0  0  0
   -3.7860   25.1440  -30.4690 O   0  0  0  0  0  0  0  0  0  0  0  0
   -4.9300   23.7380  -28.8340 O   0  0  0  0  0  0  0  0  0  0  0  0
   -2.3180   24.2220  -28.4440 C   0  0  0  0  0  0  0  0  0  0  0  0
   -1.4130   25.2730  -28.6500 C   0  0  0  0  0  0  0  0  0  0  0  0
   -0.4060   25.5270  -27.7130 C   0  0  0  0  0  0  0  0  0  0  0  0
   -0.2930   24.7330  -26.5640 C   0  0  0  0  0  0  0  0  0  0  0  0
    0.9480   25.0960  -25.3700 S   0  0  0  0  0  0  0  0  0  0  0  0
    1.9690   26.0050  -25.9990 O   0  0  0  0  0  0  0  0  0  0  0  0
    1.6350   23.8220  -24.9600 O   0  0  0  0  0  0  0  0  0  0  0  0
    0.1970   25.8750  -23.9900 N   0  0  0  0  0  0  0  0  0  0  0  0
    1.0320   26.9820  -23.4650 C   0  0  0  0  0  0  0  0  0  0  0  0
    0.6360   28.3530  -24.0510 C   0  0  0  0  0  0  0  0  0  0  0  0
    0.0600   28.2010  -25.3300 O   0  0  0  0  0  0  0  0  0  0  0  0
   -1.1980   27.5590  -25.2220 C   0  0  0  0  0  0  0  0  0  0  0  0
   -1.1770   26.3210  -24.2940 C   0  0  0  0  0  0  0  0  0  0  0  0
   -1.1990   23.6830  -26.3560 C   0  0  0  0  0  0  0  0  0  0  0  0
   -2.2070   23.4300  -27.2920 C   0  0  0  0  0  0  0  0  0  0  0  0
   -5.0800   20.4420  -31.8980 N   0  0  0  0  0  0  0  0  0  0  0  0
   -6.3690   20.0640  -31.9630 C   0  0  0  0  0  0  0  0  0  0  0  0
   -6.8720   18.7670  -32.0270 C   0  0  0  0  0  0  0  0  0  0  0  0
   -8.2670   18.6080  -32.1240 C   0  0  0  0  0  0  0  0  0  0  0  0
   -9.1160   19.7380  -32.1590 C   0  0  0  0  0  0  0  0  0  0  0  0
   -8.5760   21.0360  -32.0950 C   0  0  0  0  0  0  0  0  0  0  0  0
   -7.1890   21.1550  -31.9920 C   0  0  0  0  0  0  0  0  0  0  0  0
   -6.7830   23.4788  -29.8299 H   0  0  0  0  0  0  0  0  0  0  0  0
   -6.7471   25.1679  -30.4401 H   0  0  0  0  0  0  0  0  0  0  0  0
   -8.2885   24.2455  -30.4401 H   0  0  0  0  0  0  0  0  0  0  0  0
   -7.8022   23.7224  -32.5907 H   0  0  0  0  0  0  0  0  0  0  0  0
   -6.0948   24.2801  -32.4133 H   0  0  0  0  0  0  0  0  0  0  0  0
   -3.2458   22.3596  -32.6418 H   0  0  0  0  0  0  0  0  0  0  0  0
   -4.2396   23.7179  -32.0117 H   0  0  0  0  0  0  0  0  0  0  0  0
   -1.4951   25.8992  -29.5506 H   0  0  0  0  0  0  0  0  0  0  0  0
    0.3004   26.3538  -27.8789 H   0  0  0  0  0  0  0  0  0  0  0  0
    0.1290   25.1420  -23.2450 H   0  0  0  0  0  0  0  0  0  0  0  0
    0.9192   27.0204  -22.3715 H   0  0  0  0  0  0  0  0  0  0  0  0
    2.0731   26.7823  -23.7586 H   0  0  0  0  0  0  0  0  0  0  0  0
   -0.0921   28.8350  -23.3820 H   0  0  0  0  0  0  0  0  0  0  0  0
    1.5399   28.9733  -24.1416 H   0  0  0  0  0  0  0  0  0  0  0  0
   -1.9254   28.2815  -24.8234 H   0  0  0  0  0  0  0  0  0  0  0  0
   -1.4710   27.2070  -26.2278 H   0  0  0  0  0  0  0  0  0  0  0  0
   -1.6833   26.5763  -23.3514 H   0  0  0  0  0  0  0  0  0  0  0  0
   -1.6910   25.4998  -24.8150 H   0  0  0  0  0  0  0  0  0  0  0  0
   -1.1167   23.0572  -25.4551 H   0  0  0  0  0  0  0  0  0  0  0  0
   -2.9160   22.6060  -27.1238 H   0  0  0  0  0  0  0  0  0  0  0  0
   -6.2012   17.8956  -32.0025 H   0  0  0  0  0  0  0  0  0  0  0  0
   -8.6997   17.5978  -32.1729 H   0  0  0  0  0  0  0  0  0  0  0  0
  -10.2048   19.6018  -32.2367 H   0  0  0  0  0  0  0  0  0  0  0  0
   -9.2235   21.9247  -32.1251 H   0  0  0  0  0  0  0  0  0  0  0  0
  1  2  1  0
  2  3  1  0
  3  4  1  0
  4  5  1  0
  5  6  1  0
  6  7  1  0
  7  8  2  0
  7  9  2  0
  7 10  1  0
 10 11  2  0
 11 12  1  0
 12 13  2  0
 13 14  1  0
 14 15  2  0
 14 16  2  0
 14 17  1  0
 17 18  1  0
 18 19  1  0
 19 20  1  0
 20 21  1  0
 21 22  1  0
 13 23  1  0
 23 24  2  0
  4 25  2  0
 25 26  1  0
 26 27  2  0
 27 28  1  0
 28 29  2  0
 29 30  1  0
 30 31  2  0
 31  3  1  0
 24 10  1  0
 31 26  1  0
 22 17  1  0
  1 32  1  0
  1 33  1  0
  1 34  1  0
  2 35  1  0
  2 36  1  0
  5 37  1  0
  5 38  1  0
 11 39  1  0
 12 40  1  0
 17 41  1  0
 18 42  1  0
 18 43  1  0
 19 44  1  0
 19 45  1  0
 21 46  1  0
 21 47  1  0
 22 48  1  0
 22 49  1  0
 23 50  1  0
 24 51  1  0
 27 52  1  0
 28 53  1  0
 29 54  1  0
 30 55  1  0
M  CHG  2   6  -1  17   1
M  END
>  <UniqueID>  (48) 
48

>  <SMILES>  (48) 
CCn1c(C[N-]S(=O)(=O)c2ccc(S(=O)(=O)[NH+]3CCOCC3)cc2)nc2ccccc21

>  <Energy>  (48) 
97.50428937477855

>  <Genealogy>  (48) 
CCn1c(C[N-]S(=O)(=O)c2ccc(S(=O)(=O)[NH+]3CCOCC3)cc2)nc2ccccc21 (protonated)
CCn1c(C[N-]S(=O)(=O)c2ccc(S(=O)(=O)[NH+]3CCOCC3)cc2)nc2ccccc21 (3D coordinates assigned)
CCn1c(C[N-]S(=O)(=O)c2ccc(S(=O)(=O)[NH+]3CCOCC3)cc2)nc2ccccc21 (nonaromatic ring conformer: 97.50428937477855 kcal/mol)

>  <smiles>  (48) 
CCn1c(CNS(=O)(=O)c2ccc(S(=O)(=O)N3CCOCC3)cc2)nc2ccccc21

>  <score_type>  (48) 
oracle

>  <origin>  (48) 
adgpu

>  <m_score__min__energy>  (48) 
-11.390000000000001

>  <m_primary>  (48) 
energy

$$$$
