0:0
     RDKit          3D

 59 61  0  0  0  0  0  0  0  0999 V2000
    0.6440   20.4240  -32.3110 C   0  0  0  0  0  0  0  0  0  0  0  0
   -0.5000   19.8970  -31.5530 N   0  0  0  0  0  0  0  0  0  0  0  0
   -1.0870   18.7070  -32.2260 C   0  0  0  0  0  0  0  0  0  0  0  0
   -2.3410   19.0520  -33.0410 C   0  0  0  0  0  0  0  0  0  0  0  0
   -3.4450   19.6350  -32.1310 C   0  0  0  0  0  0  0  0  0  0  0  0
   -4.6450   20.5910  -33.0860 S   0  0  0  0  0  0  0  0  0  0  0  0
   -3.8750   21.5730  -33.9230 O   0  0  0  0  0  0  0  0  0  0  0  0
   -5.3630   19.6930  -34.0550 O   0  0  0  0  0  0  0  0  0  0  0  0
   -5.8330   21.4780  -32.0810 C   0  0  0  0  0  0  0  0  0  0  0  0
   -7.1230   20.9300  -31.8510 C   0  0  0  0  0  0  0  0  0  0  0  0
   -7.7300   19.5040  -32.6890 Cl  0  0  0  0  0  0  0  0  0  0  0  0
   -7.9890   21.5270  -30.9320 C   0  0  0  0  0  0  0  0  0  0  0  0
   -7.6110   22.6700  -30.2400 C   0  0  0  0  0  0  0  0  0  0  0  0
   -6.3820   23.2850  -30.5100 C   0  0  0  0  0  0  0  0  0  0  0  0
   -5.9680   24.4740  -29.8180 N   0  0  0  0  0  0  0  0  0  0  0  0
   -5.0120   25.4520  -30.2460 C   0  0  0  0  0  0  0  0  0  0  0  0
   -5.4240   26.4820  -30.8390 O   0  0  0  0  0  0  0  0  0  0  0  0
   -3.6030   25.2990  -30.0280 N   0  0  0  0  0  0  0  0  0  0  0  0
   -2.9570   24.2740  -29.2610 C   0  0  0  0  0  0  0  0  0  0  0  0
   -3.7480   23.4220  -28.4820 C   0  0  0  0  0  0  0  0  0  0  0  0
   -3.1650   22.3830  -27.7530 C   0  0  0  0  0  0  0  0  0  0  0  0
   -1.7810   22.1750  -27.8060 C   0  0  0  0  0  0  0  0  0  0  0  0
   -1.0540   20.8350  -26.9140 S   0  0  0  0  0  0  0  0  0  0  0  0
    0.4180   20.7810  -27.2080 O   0  0  0  0  0  0  0  0  0  0  0  0
   -1.2220   21.0750  -25.4400 O   0  0  0  0  0  0  0  0  0  0  0  0
   -1.7890   19.3080  -27.3360 N   0  0  0  0  0  0  0  0  0  0  0  0
   -0.7570   18.2680  -27.4310 C   0  0  0  0  0  0  0  0  0  0  0  0
   -2.7910   18.9400  -26.3280 C   0  0  0  0  0  0  0  0  0  0  0  0
   -0.9860   23.0180  -28.5950 C   0  0  0  0  0  0  0  0  0  0  0  0
   -1.5690   24.0600  -29.3220 C   0  0  0  0  0  0  0  0  0  0  0  0
   -5.4930   22.6950  -31.4250 C   0  0  0  0  0  0  0  0  0  0  0  0
   -4.2870   23.3620  -31.6500 O   0  0  0  0  0  0  0  0  0  0  0  0
   -2.8560   20.4210  -30.9360 C   0  0  0  0  0  0  0  0  0  0  0  0
   -1.4720   20.9820  -31.2740 C   0  0  0  0  0  0  0  0  0  0  0  0
    1.4150   20.7792  -31.6115 H   0  0  0  0  0  0  0  0  0  0  0  0
    1.0623   19.6278  -32.9444 H   0  0  0  0  0  0  0  0  0  0  0  0
    0.3107   21.2593  -32.9444 H   0  0  0  0  0  0  0  0  0  0  0  0
   -0.3338   18.2770  -32.9026 H   0  0  0  0  0  0  0  0  0  0  0  0
   -1.3828   17.9924  -31.4437 H   0  0  0  0  0  0  0  0  0  0  0  0
   -2.0785   19.7938  -33.8096 H   0  0  0  0  0  0  0  0  0  0  0  0
   -2.7204   18.1320  -33.5096 H   0  0  0  0  0  0  0  0  0  0  0  0
   -3.9965   18.7915  -31.6900 H   0  0  0  0  0  0  0  0  0  0  0  0
   -8.9814   21.0869  -30.7545 H   0  0  0  0  0  0  0  0  0  0  0  0
   -8.2797   23.0942  -29.4765 H   0  0  0  0  0  0  0  0  0  0  0  0
   -4.8371   23.5717  -28.4435 H   0  0  0  0  0  0  0  0  0  0  0  0
   -3.7949   21.7260  -27.1353 H   0  0  0  0  0  0  0  0  0  0  0  0
   -0.4520   17.9606  -26.4198 H   0  0  0  0  0  0  0  0  0  0  0  0
   -1.1604   17.3995  -27.9722 H   0  0  0  0  0  0  0  0  0  0  0  0
    0.1146   18.6647  -27.9722 H   0  0  0  0  0  0  0  0  0  0  0  0
   -2.3729   19.0936  -25.3222 H   0  0  0  0  0  0  0  0  0  0  0  0
   -3.6851   19.5684  -26.4533 H   0  0  0  0  0  0  0  0  0  0  0  0
   -3.0658   17.8823  -26.4533 H   0  0  0  0  0  0  0  0  0  0  0  0
    0.1014   22.8588  -28.6423 H   0  0  0  0  0  0  0  0  0  0  0  0
   -0.9399   24.7142  -29.9435 H   0  0  0  0  0  0  0  0  0  0  0  0
   -4.1680   24.3590  -31.5780 H   0  0  0  0  0  0  0  0  0  0  0  0
   -3.5301   21.2537  -30.6863 H   0  0  0  0  0  0  0  0  0  0  0  0
   -2.7561   19.7352  -30.0818 H   0  0  0  0  0  0  0  0  0  0  0  0
   -1.5542   21.6256  -32.1622 H   0  0  0  0  0  0  0  0  0  0  0  0
   -1.1106   21.5554  -30.4076 H   0  0  0  0  0  0  0  0  0  0  0  0
  1  2  1  0
  2  3  1  0
  3  4  1  0
  4  5  1  0
  5  6  1  0
  6  7  2  0
  6  8  2  0
  6  9  1  0
  9 10  2  0
 10 11  1  0
 10 12  1  0
 12 13  2  0
 13 14  1  0
 14 15  1  0
 15 16  1  0
 16 17  2  0
 16 18  1  0
 18 19  1  0
 19 20  2  0
 20 21  1  0
 21 22  2  0
 22 23  1  0
 23 24  2  0
 23 25  2  0
 23 26  1  0
 26 27  1  0
 26 28  1  0
 22 29  1  0
 29 30  2  0
 14 31  2  0
 31 32  1  0
  5 33  1  0
 33 34  1  0
 34  2  1  0
 31  9  1  0
 30 19  1  0
  1 35  1  0
  1 36  1  0
  1 37  1  0
  3 38  1  0
  3 39  1  0
  4 40  1  0
  4 41  1  0
  5 42  1  0
 12 43  1  0
 13 44  1  0
 20 45  1  0
 21 46  1  0
 27 47  1  0
 27 48  1  0
 27 49  1  0
 28 50  1  0
 28 51  1  0
 28 52  1  0
 29 53  1  0
 30 54  1  0
 32 55  1  0
 33 56  1  0
 33 57  1  0
 34 58  1  0
 34 59  1  0
M  CHG  2  15  -1  18  -1
M  END
>  <UniqueID>  (1) 
1

>  <SMILES>  (1) 
CN1CCC(S(=O)(=O)c2c(Cl)ccc([N-]C(=O)[N-]c3ccc(S(=O)(=O)N(C)C)cc3)c2O)CC1

>  <Energy>  (1) 
76.54196079885345

>  <Genealogy>  (1) 
CN1CCC(S(=O)(=O)c2c(Cl)ccc([N-]C(=O)[N-]c3ccc(S(=O)(=O)N(C)C)cc3)c2O)CC1 (protonated)
CN1CCC(S(=O)(=O)c2c(Cl)ccc([N-]C(=O)[N-]c3ccc(S(=O)(=O)N(C)C)cc3)c2O)CC1 (3D coordinates assigned)
CN1CCC(S(=O)(=O)c2c(Cl)ccc([N-]C(=O)[N-]c3ccc(S(=O)(=O)N(C)C)cc3)c2O)CC1 (nonaromatic ring conformer: 76.54196079885345 kcal/mol)

>  <smiles>  (1) 
CN1CCC(S(=O)(=O)c2c(Cl)ccc(NC(=O)Nc3ccc(S(=O)(=O)N(C)C)cc3)c2O)CC1

>  <score_type>  (1) 
oracle

>  <origin>  (1) 
adgpu

>  <m_score__min__energy>  (1) 
-13.710000000000001

>  <m_primary>  (1) 
energy

$$$$
1:0
     RDKit          3D

 31 33  0  0  0  0  0  0  0  0999 V2000
   -1.3640   18.2440  -34.6400 O   0  0  0  0  0  0  0  0  0  0  0  0
   -2.0140   17.1700  -34.5340 C   0  0  0  0  0  0  0  0  0  0  0  0
   -3.4730   17.1660  -34.2810 C   0  0  0  0  0  0  0  0  0  0  0  0
   -4.0660   18.3270  -33.7610 C   0  0  0  0  0  0  0  0  0  0  0  0
   -5.4490   18.3880  -33.5110 C   0  0  0  0  0  0  0  0  0  0  0  0
   -6.0250   19.6450  -32.9720 C   0  0  0  0  0  0  0  0  0  0  0  0
   -5.3380   20.7040  -32.4070 C   0  0  0  0  0  0  0  0  0  0  0  0
   -6.3300   21.5930  -32.0320 C   0  0  0  0  0  0  0  0  0  0  0  0
   -6.1510   22.9050  -31.3650 C   0  0  0  0  0  0  0  0  0  0  0  0
   -7.2710   23.5930  -30.8580 C   0  0  0  0  0  0  0  0  0  0  0  0
   -7.1170   24.8310  -30.2270 C   0  0  0  0  0  0  0  0  0  0  0  0
   -5.8480   25.3980  -30.0940 C   0  0  0  0  0  0  0  0  0  0  0  0
   -4.7290   24.7290  -30.5930 C   0  0  0  0  0  0  0  0  0  0  0  0
   -3.4660   25.2960  -30.4610 O   0  0  0  0  0  0  0  0  0  0  0  0
   -4.8760   23.4890  -31.2250 C   0  0  0  0  0  0  0  0  0  0  0  0
   -7.5330   21.0760  -32.3540 N   0  0  0  0  0  0  0  0  0  0  0  0
   -7.3480   19.8930  -32.9190 N   0  0  0  0  0  0  0  0  0  0  0  0
   -6.2420   17.2480  -33.7600 C   0  0  0  0  0  0  0  0  0  0  0  0
   -7.6050   17.2480  -33.4680 O   0  0  0  0  0  0  0  0  0  0  0  0
   -5.6510   16.0910  -34.2860 C   0  0  0  0  0  0  0  0  0  0  0  0
   -4.2800   16.0430  -34.5470 C   0  0  0  0  0  0  0  0  0  0  0  0
   -3.7380   14.8720  -35.0670 O   0  0  0  0  0  0  0  0  0  0  0  0
   -1.4843   16.2109  -34.6319 H   0  0  0  0  0  0  0  0  0  0  0  0
   -3.4385   19.2043  -33.5452 H   0  0  0  0  0  0  0  0  0  0  0  0
   -4.2505   20.8145  -32.2837 H   0  0  0  0  0  0  0  0  0  0  0  0
   -8.2740   23.1529  -30.9594 H   0  0  0  0  0  0  0  0  0  0  0  0
   -7.9980   25.3598  -29.8342 H   0  0  0  0  0  0  0  0  0  0  0  0
   -5.7300   26.3717  -29.5961 H   0  0  0  0  0  0  0  0  0  0  0  0
   -3.9902   22.9665  -31.6152 H   0  0  0  0  0  0  0  0  0  0  0  0
   -8.1550   18.0990  -33.4890 H   0  0  0  0  0  0  0  0  0  0  0  0
   -6.2750   15.2097  -34.4958 H   0  0  0  0  0  0  0  0  0  0  0  0
  1  2  2  0
  2  3  1  0
  3  4  2  0
  4  5  1  0
  5  6  1  0
  6  7  1  0
  7  8  2  0
  8  9  1  0
  9 10  2  0
 10 11  1  0
 11 12  2  0
 12 13  1  0
 13 14  1  0
 13 15  2  0
  8 16  1  0
 16 17  1  0
  5 18  2  0
 18 19  1  0
 18 20  1  0
 20 21  2  0
 21 22  1  0
 21  3  1  0
 17  6  2  0
 15  9  1  0
  2 23  1  0
  4 24  1  0
  7 25  1  0
 10 26  1  0
 11 27  1  0
 12 28  1  0
 15 29  1  0
 19 30  1  0
 20 31  1  0
M  CHG  3  14  -1  16  -1  22  -1
M  END
>  <UniqueID>  (2) 
2

>  <SMILES>  (2) 
O=Cc1cc(-c2cc(-c3cccc([O-])c3)[n-]n2)c(O)cc1[O-]

>  <Energy>  (2) 
70.16901996879729

>  <Genealogy>  (2) 
O=Cc1cc(-c2cc(-c3cccc([O-])c3)[n-]n2)c(O)cc1[O-] (protonated)
O=Cc1cc(-c2cc(-c3cccc([O-])c3)[n-]n2)c(O)cc1[O-] (3D coordinates assigned)
O=Cc1cc(-c2cc(-c3cccc([O-])c3)[n-]n2)c(O)cc1[O-] (optimized conformer: 70.16901996879729 kcal/mol)

>  <smiles>  (2) 
O=Cc1cc(-c2cc(-c3cccc(O)c3)[nH]n2)c(O)cc1O

>  <score_type>  (2) 
oracle

>  <origin>  (2) 
adgpu

>  <m_score__min__energy>  (2) 
-10

>  <m_primary>  (2) 
energy

$$$$
2:0
     RDKit          3D

 60 63  0  0  0  0  0  0  0  0999 V2000
   -7.0750   16.0940  -34.0350 O   0  0  0  0  0  0  0  0  0  0  0  0
   -6.2570   17.0520  -33.9590 C   0  0  0  0  0  0  0  0  0  0  0  0
   -4.9370   16.9180  -34.5090 N   0  0  0  0  0  0  0  0  0  0  0  0
   -3.7260   17.5000  -34.0030 C   0  0  0  0  0  0  0  0  0  0  0  0
   -3.5690   18.8910  -33.8620 C   0  0  0  0  0  0  0  0  0  0  0  0
   -2.3690   19.4230  -33.3710 C   0  0  0  0  0  0  0  0  0  0  0  0
   -2.1850   21.1620  -33.1590 S   0  0  0  0  0  0  0  0  0  0  0  0
   -3.3560   21.8800  -33.7710 O   0  0  0  0  0  0  0  0  0  0  0  0
   -0.9330   21.6050  -33.8650 O   0  0  0  0  0  0  0  0  0  0  0  0
   -2.0700   21.5370  -31.4580 N   0  0  0  0  0  0  0  0  0  0  0  0
   -0.6570   21.5160  -31.0380 C   0  0  0  0  0  0  0  0  0  0  0  0
   -0.4990   21.8760  -29.5440 C   0  0  0  0  0  0  0  0  0  0  0  0
   -1.8500   22.0020  -28.8270 C   0  0  0  0  0  0  0  0  0  0  0  0
   -2.7560   20.8120  -29.1620 C   0  0  0  0  0  0  0  0  0  0  0  0
   -2.8520   20.5550  -30.6820 C   0  0  0  0  0  0  0  0  0  0  0  0
   -1.3200   18.5650  -33.0210 C   0  0  0  0  0  0  0  0  0  0  0  0
   -1.4590   17.1860  -33.1850 C   0  0  0  0  0  0  0  0  0  0  0  0
   -2.6550   16.6520  -33.6850 C   0  0  0  0  0  0  0  0  0  0  0  0
   -2.7880   15.2740  -33.8570 O   0  0  0  0  0  0  0  0  0  0  0  0
   -6.6770   18.3320  -33.3450 C   0  0  0  0  0  0  0  0  0  0  0  0
   -6.4130   19.5560  -33.9890 C   0  0  0  0  0  0  0  0  0  0  0  0
   -6.8210   20.7630  -33.4140 C   0  0  0  0  0  0  0  0  0  0  0  0
   -7.4990   20.7650  -32.1880 C   0  0  0  0  0  0  0  0  0  0  0  0
   -8.0210   22.2790  -31.4530 S   0  0  0  0  0  0  0  0  0  0  0  0
   -9.1250   22.8920  -32.2700 O   0  0  0  0  0  0  0  0  0  0  0  0
   -8.5500   21.9860  -30.0760 O   0  0  0  0  0  0  0  0  0  0  0  0
   -6.6710   23.3800  -31.3430 N   0  0  0  0  0  0  0  0  0  0  0  0
   -6.9170   24.3750  -30.2860 C   0  0  0  0  0  0  0  0  0  0  0  0
   -5.6900   25.2960  -30.1170 C   0  0  0  0  0  0  0  0  0  0  0  0
   -4.6340   24.9340  -30.9880 O   0  0  0  0  0  0  0  0  0  0  0  0
   -4.2700   23.5870  -30.7570 C   0  0  0  0  0  0  0  0  0  0  0  0
   -5.4390   22.6270  -31.0560 C   0  0  0  0  0  0  0  0  0  0  0  0
   -7.7490   19.5540  -31.5330 C   0  0  0  0  0  0  0  0  0  0  0  0
   -7.3450   18.3450  -32.1070 C   0  0  0  0  0  0  0  0  0  0  0  0
   -4.3931   19.5650  -34.1388 H   0  0  0  0  0  0  0  0  0  0  0  0
   -0.2500   20.5081  -31.2067 H   0  0  0  0  0  0  0  0  0  0  0  0
   -0.1122   22.2657  -31.6306 H   0  0  0  0  0  0  0  0  0  0  0  0
    0.0904   21.0887  -29.0513 H   0  0  0  0  0  0  0  0  0  0  0  0
    0.0043   22.8523  -29.4855 H   0  0  0  0  0  0  0  0  0  0  0  0
   -1.6805   22.0318  -27.7406 H   0  0  0  0  0  0  0  0  0  0  0  0
   -2.3429   22.9264  -29.1626 H   0  0  0  0  0  0  0  0  0  0  0  0
   -2.3510   19.9119  -28.6764 H   0  0  0  0  0  0  0  0  0  0  0  0
   -3.7668   21.0466  -28.7969 H   0  0  0  0  0  0  0  0  0  0  0  0
   -2.4692   19.5464  -30.8967 H   0  0  0  0  0  0  0  0  0  0  0  0
   -3.9073   20.6506  -30.9773 H   0  0  0  0  0  0  0  0  0  0  0  0
   -0.3845   18.9783  -32.6160 H   0  0  0  0  0  0  0  0  0  0  0  0
   -0.6275   16.5160  -32.9211 H   0  0  0  0  0  0  0  0  0  0  0  0
   -3.6480   14.8630  -34.2050 H   0  0  0  0  0  0  0  0  0  0  0  0
   -5.8816   19.5624  -34.9521 H   0  0  0  0  0  0  0  0  0  0  0  0
   -6.6092   21.7136  -33.9254 H   0  0  0  0  0  0  0  0  0  0  0  0
   -7.7921   24.9835  -30.5578 H   0  0  0  0  0  0  0  0  0  0  0  0
   -7.1016   23.8494  -29.3375 H   0  0  0  0  0  0  0  0  0  0  0  0
   -5.9903   26.3318  -30.3336 H   0  0  0  0  0  0  0  0  0  0  0  0
   -5.3285   25.1958  -29.0830 H   0  0  0  0  0  0  0  0  0  0  0  0
   -3.4208   23.3296  -31.4071 H   0  0  0  0  0  0  0  0  0  0  0  0
   -3.9977   23.4798  -29.6966 H   0  0  0  0  0  0  0  0  0  0  0  0
   -5.1832   22.0073  -31.9281 H   0  0  0  0  0  0  0  0  0  0  0  0
   -5.6099   21.9927  -30.1737 H   0  0  0  0  0  0  0  0  0  0  0  0
   -8.2658   19.5533  -30.5620 H   0  0  0  0  0  0  0  0  0  0  0  0
   -7.5508   17.3977  -31.5872 H   0  0  0  0  0  0  0  0  0  0  0  0
  1  2  2  0
  2  3  1  0
  3  4  1  0
  4  5  2  0
  5  6  1  0
  6  7  1  0
  7  8  2  0
  7  9  2  0
  7 10  1  0
 10 11  1  0
 11 12  1  0
 12 13  1  0
 13 14  1  0
 14 15  1  0
  6 16  2  0
 16 17  1  0
 17 18  2  0
 18 19  1  0
  2 20  1  0
 20 21  2  0
 21 22  1  0
 22 23  2  0
 23 24  1  0
 24 25  2  0
 24 26  2  0
 24 27  1  0
 27 28  1  0
 28 29  1  0
 29 30  1  0
 30 31  1  0
 31 32  1  0
 23 33  1  0
 33 34  2  0
 18  4  1  0
 34 20  1  0
 15 10  1  0
 32 27  1  0
  5 35  1  0
 11 36  1  0
 11 37  1  0
 12 38  1  0
 12 39  1  0
 13 40  1  0
 13 41  1  0
 14 42  1  0
 14 43  1  0
 15 44  1  0
 15 45  1  0
 16 46  1  0
 17 47  1  0
 19 48  1  0
 21 49  1  0
 22 50  1  0
 28 51  1  0
 28 52  1  0
 29 53  1  0
 29 54  1  0
 31 55  1  0
 31 56  1  0
 32 57  1  0
 32 58  1  0
 33 59  1  0
 34 60  1  0
M  CHG  1   3  -1
M  END
>  <UniqueID>  (3) 
3

>  <SMILES>  (3) 
O=C([N-]c1cc(S(=O)(=O)N2CCCCC2)ccc1O)c1ccc(S(=O)(=O)N2CCOCC2)cc1

>  <Energy>  (3) 
76.40820383607922

>  <Genealogy>  (3) 
O=C([N-]c1cc(S(=O)(=O)N2CCCCC2)ccc1O)c1ccc(S(=O)(=O)N2CCOCC2)cc1 (protonated)
O=C([N-]c1cc(S(=O)(=O)N2CCCCC2)ccc1O)c1ccc(S(=O)(=O)N2CCOCC2)cc1 (3D coordinates assigned)
O=C([N-]c1cc(S(=O)(=O)N2CCCCC2)ccc1O)c1ccc(S(=O)(=O)N2CCOCC2)cc1 (nonaromatic ring conformer: 76.40820383607922 kcal/mol)

>  <smiles>  (3) 
O=C(Nc1cc(S(=O)(=O)N2CCCCC2)ccc1O)c1ccc(S(=O)(=O)N2CCOCC2)cc1

>  <score_type>  (3) 
oracle

>  <origin>  (3) 
adgpu

>  <m_score__min__energy>  (3) 
-12.17

>  <m_primary>  (3) 
energy

$$$$
3:0
     RDKit          3D

 46 49  0  0  0  0  0  0  0  0999 V2000
    1.2500   20.1530  -33.6890 C   0  0  0  0  0  0  0  0  0  0  0  0
    0.0350   20.8980  -34.1540 C   0  0  0  0  0  0  0  0  0  0  0  0
    0.1960   22.0220  -34.7030 O   0  0  0  0  0  0  0  0  0  0  0  0
   -1.3370   20.3510  -33.9810 C   0  0  0  0  0  0  0  0  0  0  0  0
   -2.4000   21.1620  -33.5370 C   0  0  0  0  0  0  0  0  0  0  0  0
   -3.6860   20.6330  -33.3920 C   0  0  0  0  0  0  0  0  0  0  0  0
   -3.9320   19.2870  -33.6830 C   0  0  0  0  0  0  0  0  0  0  0  0
   -5.5740   18.6580  -33.5640 S   0  0  0  0  0  0  0  0  0  0  0  0
   -5.7280   17.9610  -32.2410 O   0  0  0  0  0  0  0  0  0  0  0  0
   -5.8520   17.6780  -34.6700 O   0  0  0  0  0  0  0  0  0  0  0  0
   -6.7120   19.9640  -33.6640 N   0  0  0  0  0  0  0  0  0  0  0  0
   -7.0600   20.7800  -32.5290 C   0  0  0  0  0  0  0  0  0  0  0  0
   -6.0670   21.5210  -31.8610 C   0  0  0  0  0  0  0  0  0  0  0  0
   -6.3750   22.2900  -30.7280 C   0  0  0  0  0  0  0  0  0  0  0  0
   -5.3080   23.0210  -30.0070 C   0  0  0  0  0  0  0  0  0  0  0  0
   -5.2340   23.0680  -28.6480 N   0  0  0  0  0  0  0  0  0  0  0  0
   -4.1330   23.8030  -28.4410 C   0  0  0  0  0  0  0  0  0  0  0  0
   -3.5580   24.1830  -27.2350 C   0  0  0  0  0  0  0  0  0  0  0  0
   -2.3870   24.9630  -27.2970 C   0  0  0  0  0  0  0  0  0  0  0  0
   -1.5270   25.5310  -25.6910 Br  0  0  0  0  0  0  0  0  0  0  0  0
   -1.8520   25.3230  -28.5570 C   0  0  0  0  0  0  0  0  0  0  0  0
   -2.4630   24.9170  -29.7130 N   0  0  0  0  0  0  0  0  0  0  0  0
   -3.5890   24.1680  -29.6270 C   0  0  0  0  0  0  0  0  0  0  0  0
   -4.3080   23.6880  -30.6490 N   0  0  0  0  0  0  0  0  0  0  0  0
   -7.7040   22.3450  -30.2830 C   0  0  0  0  0  0  0  0  0  0  0  0
   -8.7030   21.6380  -30.9510 C   0  0  0  0  0  0  0  0  0  0  0  0
   -8.3960   20.8460  -32.0690 C   0  0  0  0  0  0  0  0  0  0  0  0
   -9.4940   20.0710  -32.7460 C   0  0  0  0  0  0  0  0  0  0  0  0
   -2.8820   18.4700  -34.1170 C   0  0  0  0  0  0  0  0  0  0  0  0
   -1.5960   18.9960  -34.2660 C   0  0  0  0  0  0  0  0  0  0  0  0
    1.2729   20.1389  -32.5893 H   0  0  0  0  0  0  0  0  0  0  0  0
    1.2148   19.1210  -34.0682 H   0  0  0  0  0  0  0  0  0  0  0  0
    2.1538   20.6524  -34.0682 H   0  0  0  0  0  0  0  0  0  0  0  0
   -2.2165   22.2209  -33.3023 H   0  0  0  0  0  0  0  0  0  0  0  0
   -4.5079   21.2779  -33.0476 H   0  0  0  0  0  0  0  0  0  0  0  0
   -7.2390   20.0590  -34.5590 H   0  0  0  0  0  0  0  0  0  0  0  0
   -5.0322   21.4970  -32.2332 H   0  0  0  0  0  0  0  0  0  0  0  0
   -3.9989   23.8870  -26.2717 H   0  0  0  0  0  0  0  0  0  0  0  0
   -0.9384   25.9336  -28.6078 H   0  0  0  0  0  0  0  0  0  0  0  0
   -7.9599   22.9502  -29.4008 H   0  0  0  0  0  0  0  0  0  0  0  0
   -9.7430   21.7014  -30.5983 H   0  0  0  0  0  0  0  0  0  0  0  0
  -10.1427   19.6131  -31.9847 H   0  0  0  0  0  0  0  0  0  0  0  0
  -10.0889   20.7505  -33.3741 H   0  0  0  0  0  0  0  0  0  0  0  0
   -9.0530   19.2829  -33.3741 H   0  0  0  0  0  0  0  0  0  0  0  0
   -3.0697   17.4097  -34.3417 H   0  0  0  0  0  0  0  0  0  0  0  0
   -0.7779   18.3456  -34.6092 H   0  0  0  0  0  0  0  0  0  0  0  0
  1  2  1  0
  2  3  2  0
  2  4  1  0
  4  5  2  0
  5  6  1  0
  6  7  2  0
  7  8  1  0
  8  9  2  0
  8 10  2  0
  8 11  1  0
 11 12  1  0
 12 13  2  0
 13 14  1  0
 14 15  1  0
 15 16  2  0
 16 17  1  0
 17 18  2  0
 18 19  1  0
 19 20  1  0
 19 21  2  0
 21 22  1  0
 22 23  2  0
 23 24  1  0
 14 25  2  0
 25 26  1  0
 26 27  2  0
 27 28  1  0
  7 29  1  0
 29 30  2  0
 30  4  1  0
 27 12  1  0
 24 15  1  0
 23 17  1  0
  1 31  1  0
  1 32  1  0
  1 33  1  0
  5 34  1  0
  6 35  1  0
 11 36  1  0
 13 37  1  0
 18 38  1  0
 21 39  1  0
 25 40  1  0
 26 41  1  0
 28 42  1  0
 28 43  1  0
 28 44  1  0
 29 45  1  0
 30 46  1  0
M  CHG  1  24  -1
M  END
>  <UniqueID>  (4) 
4

>  <SMILES>  (4) 
CC(=O)c1ccc(S(=O)(=O)Nc2cc(-c3nc4cc(Br)cnc4[n-]3)ccc2C)cc1

>  <Energy>  (4) 
91.51341096197591

>  <Genealogy>  (4) 
CC(=O)c1ccc(S(=O)(=O)Nc2cc(-c3nc4cc(Br)cnc4[n-]3)ccc2C)cc1 (protonated)
CC(=O)c1ccc(S(=O)(=O)Nc2cc(-c3nc4cc(Br)cnc4[n-]3)ccc2C)cc1 (3D coordinates assigned)
CC(=O)c1ccc(S(=O)(=O)Nc2cc(-c3nc4cc(Br)cnc4[n-]3)ccc2C)cc1 (optimized conformer: 91.51341096197591 kcal/mol)

>  <smiles>  (4) 
CC(=O)c1ccc(S(=O)(=O)Nc2cc(-c3nc4cc(Br)cnc4[nH]3)ccc2C)cc1

>  <score_type>  (4) 
oracle

>  <origin>  (4) 
adgpu

>  <m_score__min__energy>  (4) 
-11.66

>  <m_primary>  (4) 
energy

$$$$
4:0
     RDKit          3D

 41 42  0  0  0  0  0  0  0  0999 V2000
   -5.9180   25.7710  -30.0640 C   0  0  0  0  0  0  0  0  0  0  0  0
   -5.2330   24.5580  -30.6240 C   0  0  0  0  0  0  0  0  0  0  0  0
   -5.9670   23.5980  -31.3390 C   0  0  0  0  0  0  0  0  0  0  0  0
   -5.3360   22.4500  -31.8420 C   0  0  0  0  0  0  0  0  0  0  0  0
   -6.1150   21.4520  -32.6550 C   0  0  0  0  0  0  0  0  0  0  0  0
   -6.3510   20.1720  -31.8440 C   0  0  0  0  0  0  0  0  0  0  0  0
   -5.2850   19.1040  -32.1200 C   0  0  0  0  0  0  0  0  0  0  0  0
   -4.8210   19.1410  -33.5450 C   0  0  0  0  0  0  0  0  0  0  0  0
   -5.6410   19.3880  -34.4670 O   0  0  0  0  0  0  0  0  0  0  0  0
   -3.4400   18.9120  -33.8440 N   0  0  0  0  0  0  0  0  0  0  0  0
   -2.3380   19.5580  -33.1390 C   0  0  0  0  0  0  0  0  0  0  0  0
   -1.2400   19.9280  -34.0990 C   0  0  0  0  0  0  0  0  0  0  0  0
   -0.5970   18.9290  -34.8470 C   0  0  0  0  0  0  0  0  0  0  0  0
    0.4190   19.2670  -35.7450 C   0  0  0  0  0  0  0  0  0  0  0  0
    0.8050   20.6030  -35.9020 C   0  0  0  0  0  0  0  0  0  0  0  0
    1.8210   20.9260  -36.7950 O   0  0  0  0  0  0  0  0  0  0  0  0
    0.1700   21.6080  -35.1620 C   0  0  0  0  0  0  0  0  0  0  0  0
    0.5560   22.9370  -35.3260 O   0  0  0  0  0  0  0  0  0  0  0  0
   -0.8520   21.2690  -34.2630 C   0  0  0  0  0  0  0  0  0  0  0  0
   -3.9590   22.2730  -31.6380 C   0  0  0  0  0  0  0  0  0  0  0  0
   -3.2250   23.2230  -30.9270 C   0  0  0  0  0  0  0  0  0  0  0  0
   -3.8550   24.3620  -30.4190 C   0  0  0  0  0  0  0  0  0  0  0  0
   -3.1070   25.2950  -29.7130 O   0  0  0  0  0  0  0  0  0  0  0  0
   -5.8951   25.7304  -28.9650 H   0  0  0  0  0  0  0  0  0  0  0  0
   -5.3983   26.6773  -30.4084 H   0  0  0  0  0  0  0  0  0  0  0  0
   -6.9625   25.7940  -30.4084 H   0  0  0  0  0  0  0  0  0  0  0  0
   -7.0440   23.7469  -31.5060 H   0  0  0  0  0  0  0  0  0  0  0  0
   -7.0853   21.8892  -32.9333 H   0  0  0  0  0  0  0  0  0  0  0  0
   -5.5409   21.2015  -33.5592 H   0  0  0  0  0  0  0  0  0  0  0  0
   -6.3316   20.4229  -30.7732 H   0  0  0  0  0  0  0  0  0  0  0  0
   -7.3262   19.7594  -32.1420 H   0  0  0  0  0  0  0  0  0  0  0  0
   -4.4233   19.2810  -31.4595 H   0  0  0  0  0  0  0  0  0  0  0  0
   -5.7306   18.1165  -31.9294 H   0  0  0  0  0  0  0  0  0  0  0  0
   -2.7088   20.4685  -32.6454 H   0  0  0  0  0  0  0  0  0  0  0  0
   -1.9354   18.8577  -32.3924 H   0  0  0  0  0  0  0  0  0  0  0  0
   -0.8939   17.8768  -34.7258 H   0  0  0  0  0  0  0  0  0  0  0  0
    0.9171   18.4802  -36.3305 H   0  0  0  0  0  0  0  0  0  0  0  0
    1.3110   23.2000  -35.9510 H   0  0  0  0  0  0  0  0  0  0  0  0
   -1.3531   22.0577  -33.6826 H   0  0  0  0  0  0  0  0  0  0  0  0
   -3.4560   21.3813  -32.0404 H   0  0  0  0  0  0  0  0  0  0  0  0
   -2.1470   23.0748  -30.7659 H   0  0  0  0  0  0  0  0  0  0  0  0
  1  2  1  0
  2  3  2  0
  3  4  1  0
  4  5  1  0
  5  6  1  0
  6  7  1  0
  7  8  1  0
  8  9  2  0
  8 10  1  0
 10 11  1  0
 11 12  1  0
 12 13  2  0
 13 14  1  0
 14 15  2  0
 15 16  1  0
 15 17  1  0
 17 18  1  0
 17 19  2  0
  4 20  2  0
 20 21  1  0
 21 22  2  0
 22 23  1  0
 22  2  1  0
 19 12  1  0
  1 24  1  0
  1 25  1  0
  1 26  1  0
  3 27  1  0
  5 28  1  0
  5 29  1  0
  6 30  1  0
  6 31  1  0
  7 32  1  0
  7 33  1  0
 11 34  1  0
 11 35  1  0
 13 36  1  0
 14 37  1  0
 18 38  1  0
 19 39  1  0
 20 40  1  0
 21 41  1  0
M  CHG  3  10  -1  16  -1  23  -1
M  END
>  <UniqueID>  (5) 
5

>  <SMILES>  (5) 
Cc1cc(CCCC(=O)[N-]Cc2ccc([O-])c(O)c2)ccc1[O-]

>  <Energy>  (5) 
33.118071251841144

>  <Genealogy>  (5) 
Cc1cc(CCCC(=O)[N-]Cc2ccc([O-])c(O)c2)ccc1[O-] (protonated)
Cc1cc(CCCC(=O)[N-]Cc2ccc([O-])c(O)c2)ccc1[O-] (3D coordinates assigned)
Cc1cc(CCCC(=O)[N-]Cc2ccc([O-])c(O)c2)ccc1[O-] (optimized conformer: 33.118071251841144 kcal/mol)

>  <smiles>  (5) 
Cc1cc(CCCC(=O)NCc2ccc(O)c(O)c2)ccc1O

>  <score_type>  (5) 
oracle

>  <origin>  (5) 
adgpu

>  <m_score__min__energy>  (5) 
-10.460000000000001

>  <m_primary>  (5) 
energy

$$$$
5:0
     RDKit          3D

 53 55  0  0  0  0  0  0  0  0999 V2000
   -7.1990   17.2310  -33.0510 C   0  0  0  0  0  0  0  0  0  0  0  0
   -6.9710   18.5680  -32.4880 N   0  0  0  0  0  0  0  0  0  0  0  0
   -6.3440   19.4360  -33.4910 C   0  0  0  0  0  0  0  0  0  0  0  0
   -8.4970   19.2610  -31.9990 S   0  0  0  0  0  0  0  0  0  0  0  0
   -9.0090   18.5720  -30.7630 O   0  0  0  0  0  0  0  0  0  0  0  0
   -9.5100   19.0860  -33.0960 O   0  0  0  0  0  0  0  0  0  0  0  0
   -8.3000   20.9850  -31.6840 C   0  0  0  0  0  0  0  0  0  0  0  0
   -9.1410   21.9070  -32.3180 C   0  0  0  0  0  0  0  0  0  0  0  0
   -8.9760   23.2750  -32.0950 C   0  0  0  0  0  0  0  0  0  0  0  0
   -7.9710   23.7310  -31.2370 C   0  0  0  0  0  0  0  0  0  0  0  0
   -7.1270   22.8150  -30.5830 C   0  0  0  0  0  0  0  0  0  0  0  0
   -6.0660   23.2580  -29.7200 N   0  0  0  0  0  0  0  0  0  0  0  0
   -4.9450   24.0380  -30.1690 C   0  0  0  0  0  0  0  0  0  0  0  0
   -5.0390   24.7150  -31.2290 O   0  0  0  0  0  0  0  0  0  0  0  0
   -3.6940   24.0970  -29.3750 C   0  0  0  0  0  0  0  0  0  0  0  0
   -3.7310   24.4810  -28.0210 C   0  0  0  0  0  0  0  0  0  0  0  0
   -2.5550   24.5450  -27.2680 C   0  0  0  0  0  0  0  0  0  0  0  0
   -1.3230   24.2370  -27.8560 C   0  0  0  0  0  0  0  0  0  0  0  0
    0.1620   24.3280  -26.9040 S   0  0  0  0  0  0  0  0  0  0  0  0
    1.3290   24.5500  -27.8270 O   0  0  0  0  0  0  0  0  0  0  0  0
    0.3730   23.0190  -26.1960 O   0  0  0  0  0  0  0  0  0  0  0  0
    0.1030   25.6160  -25.7270 N   0  0  0  0  0  0  0  0  0  0  0  0
   -0.6090   26.7850  -26.2750 C   0  0  0  0  0  0  0  0  0  0  0  0
   -0.8660   27.8320  -25.1720 C   0  0  0  0  0  0  0  0  0  0  0  0
   -0.1300   27.5310  -24.0020 O   0  0  0  0  0  0  0  0  0  0  0  0
   -0.5750   26.3020  -23.4560 C   0  0  0  0  0  0  0  0  0  0  0  0
   -0.5500   25.1580  -24.4930 C   0  0  0  0  0  0  0  0  0  0  0  0
   -1.2760   23.8610  -29.2040 C   0  0  0  0  0  0  0  0  0  0  0  0
   -2.4510   23.7950  -29.9600 C   0  0  0  0  0  0  0  0  0  0  0  0
   -7.2880   21.4420  -30.8280 C   0  0  0  0  0  0  0  0  0  0  0  0
   -7.3228   16.5052  -32.2337 H   0  0  0  0  0  0  0  0  0  0  0  0
   -8.1079   17.2441  -33.6705 H   0  0  0  0  0  0  0  0  0  0  0  0
   -6.3371   16.9422  -33.6705 H   0  0  0  0  0  0  0  0  0  0  0  0
   -5.7721   20.2277  -32.9848 H   0  0  0  0  0  0  0  0  0  0  0  0
   -5.6668   18.8396  -34.1201 H   0  0  0  0  0  0  0  0  0  0  0  0
   -7.1229   19.8915  -34.1201 H   0  0  0  0  0  0  0  0  0  0  0  0
   -9.9336   21.5527  -32.9934 H   0  0  0  0  0  0  0  0  0  0  0  0
   -9.6386   23.9962  -32.5958 H   0  0  0  0  0  0  0  0  0  0  0  0
   -7.8395   24.8107  -31.0725 H   0  0  0  0  0  0  0  0  0  0  0  0
   -6.1740   23.1030  -28.6920 H   0  0  0  0  0  0  0  0  0  0  0  0
   -4.6935   24.7328  -27.5517 H   0  0  0  0  0  0  0  0  0  0  0  0
   -2.5982   24.8387  -26.2088 H   0  0  0  0  0  0  0  0  0  0  0  0
    0.0009   27.2396  -27.0696 H   0  0  0  0  0  0  0  0  0  0  0  0
   -1.5763   26.4526  -26.6799 H   0  0  0  0  0  0  0  0  0  0  0  0
   -0.5646   28.8236  -25.5408 H   0  0  0  0  0  0  0  0  0  0  0  0
   -1.9374   27.8211  -24.9230 H   0  0  0  0  0  0  0  0  0  0  0  0
    0.0793   26.0311  -22.6143 H   0  0  0  0  0  0  0  0  0  0  0  0
   -1.6162   26.4365  -23.1276 H   0  0  0  0  0  0  0  0  0  0  0  0
    0.0074   24.3040  -24.0807 H   0  0  0  0  0  0  0  0  0  0  0  0
   -1.5820   24.8532  -24.7210 H   0  0  0  0  0  0  0  0  0  0  0  0
   -0.3104   23.6164  -29.6707 H   0  0  0  0  0  0  0  0  0  0  0  0
   -2.4026   23.5048  -31.0199 H   0  0  0  0  0  0  0  0  0  0  0  0
   -6.6147   20.7189  -30.3444 H   0  0  0  0  0  0  0  0  0  0  0  0
  1  2  1  0
  2  3  1  0
  2  4  1  0
  4  5  2  0
  4  6  2  0
  4  7  1  0
  7  8  2  0
  8  9  1  0
  9 10  2  0
 10 11  1  0
 11 12  1  0
 12 13  1  0
 13 14  2  0
 13 15  1  0
 15 16  2  0
 16 17  1  0
 17 18  2  0
 18 19  1  0
 19 20  2  0
 19 21  2  0
 19 22  1  0
 22 23  1  0
 23 24  1  0
 24 25  1  0
 25 26  1  0
 26 27  1  0
 18 28  1  0
 28 29  2  0
 11 30  2  0
 30  7  1  0
 29 15  1  0
 27 22  1  0
  1 31  1  0
  1 32  1  0
  1 33  1  0
  3 34  1  0
  3 35  1  0
  3 36  1  0
  8 37  1  0
  9 38  1  0
 10 39  1  0
 12 40  1  0
 16 41  1  0
 17 42  1  0
 23 43  1  0
 23 44  1  0
 24 45  1  0
 24 46  1  0
 26 47  1  0
 26 48  1  0
 27 49  1  0
 27 50  1  0
 28 51  1  0
 29 52  1  0
 30 53  1  0
M  END
>  <UniqueID>  (6) 
6

>  <SMILES>  (6) 
CN(C)S(=O)(=O)c1cccc(NC(=O)c2ccc(S(=O)(=O)N3CCOCC3)cc2)c1

>  <Energy>  (6) 
64.38554110421491

>  <Genealogy>  (6) 
CN(C)S(=O)(=O)c1cccc(NC(=O)c2ccc(S(=O)(=O)N3CCOCC3)cc2)c1 (3D coordinates assigned)
CN(C)S(=O)(=O)c1cccc(NC(=O)c2ccc(S(=O)(=O)N3CCOCC3)cc2)c1 (nonaromatic ring conformer: 64.38554110421491 kcal/mol)

>  <smiles>  (6) 
CN(C)S(=O)(=O)c1cccc(NC(=O)c2ccc(S(=O)(=O)N3CCOCC3)cc2)c1

>  <score_type>  (6) 
oracle

>  <origin>  (6) 
adgpu

>  <m_score__min__energy>  (6) 
-9.7300000000000004

>  <m_primary>  (6) 
energy

$$$$
6:0
     RDKit          3D

 74 78  0  0  0  0  0  0  0  0999 V2000
   -0.9310   19.1210  -27.8790 C   0  0  0  0  0  0  0  0  0  0  0  0
   -0.5120   18.1100  -28.7930 O   0  0  0  0  0  0  0  0  0  0  0  0
    0.1540   18.3540  -30.0050 C   0  0  0  0  0  0  0  0  0  0  0  0
   -0.2430   19.3830  -30.8810 C   0  0  0  0  0  0  0  0  0  0  0  0
    0.4710   19.6280  -32.0670 C   0  0  0  0  0  0  0  0  0  0  0  0
    0.0970   20.6550  -32.9600 C   0  0  0  0  0  0  0  0  0  0  0  0
   -1.0110   21.4660  -32.6520 O   0  0  0  0  0  0  0  0  0  0  0  0
   -2.3510   21.0600  -32.7260 C   0  0  0  0  0  0  0  0  0  0  0  0
   -2.7120   20.1390  -33.7230 C   0  0  0  0  0  0  0  0  0  0  0  0
   -4.0280   19.6850  -33.8270 C   0  0  0  0  0  0  0  0  0  0  0  0
   -5.0050   20.1740  -32.9550 C   0  0  0  0  0  0  0  0  0  0  0  0
   -4.6670   21.1220  -31.9850 C   0  0  0  0  0  0  0  0  0  0  0  0
   -3.3450   21.5780  -31.8630 C   0  0  0  0  0  0  0  0  0  0  0  0
   -3.0360   22.5940  -30.9010 N   0  0  0  0  0  0  0  0  0  0  0  0
   -3.8030   23.7980  -30.7930 C   0  0  0  0  0  0  0  0  0  0  0  0
   -4.7840   23.9980  -31.5640 O   0  0  0  0  0  0  0  0  0  0  0  0
   -3.4420   24.7730  -29.8080 N   0  0  0  0  0  0  0  0  0  0  0  0
   -2.5750   24.5090  -28.6960 C   0  0  0  0  0  0  0  0  0  0  0  0
   -2.8380   23.4580  -27.7810 C   0  0  0  0  0  0  0  0  0  0  0  0
   -4.0460   22.5680  -27.9150 C   0  0  0  0  0  0  0  0  0  0  0  0
   -1.9460   23.2340  -26.7190 C   0  0  0  0  0  0  0  0  0  0  0  0
   -0.8430   24.0710  -26.5270 C   0  0  0  0  0  0  0  0  0  0  0  0
   -0.6180   25.1390  -27.3970 C   0  0  0  0  0  0  0  0  0  0  0  0
   -1.4770   25.3580  -28.4780 C   0  0  0  0  0  0  0  0  0  0  0  0
   -1.2360   26.4220  -29.3430 O   0  0  0  0  0  0  0  0  0  0  0  0
    0.8690   20.8590  -34.1290 C   0  0  0  0  0  0  0  0  0  0  0  0
    0.6000   21.9460  -35.0410 C   0  0  0  0  0  0  0  0  0  0  0  0
    0.3880   22.8190  -35.7710 N   0  0  0  0  0  0  0  0  0  0  0  0
    1.9610   20.0240  -34.3890 C   0  0  0  0  0  0  0  0  0  0  0  0
    2.2950   19.0380  -33.5160 N   0  0  0  0  0  0  0  0  0  0  0  0
    1.5900   18.8220  -32.3750 C   0  0  0  0  0  0  0  0  0  0  0  0
    1.9820   17.8020  -31.5080 C   0  0  0  0  0  0  0  0  0  0  0  0
    1.2560   17.5460  -30.3290 C   0  0  0  0  0  0  0  0  0  0  0  0
    1.6020   16.5080  -29.4430 O   0  0  0  0  0  0  0  0  0  0  0  0
    1.4430   15.1100  -29.6950 C   0  0  0  0  0  0  0  0  0  0  0  0
    0.3030   14.8650  -30.6910 C   0  0  0  0  0  0  0  0  0  0  0  0
    0.8280   14.8520  -32.1380 C   0  0  0  0  0  0  0  0  0  0  0  0
   -0.2430   14.8620  -33.1580 N   0  0  0  0  0  0  0  0  0  0  0  0
   -1.5980   15.1610  -32.6390 C   0  0  0  0  0  0  0  0  0  0  0  0
   -2.1270   16.5270  -33.1050 C   0  0  0  0  0  0  0  0  0  0  0  0
   -1.0580   17.4180  -33.3280 O   0  0  0  0  0  0  0  0  0  0  0  0
   -0.3470   17.0180  -34.4810 C   0  0  0  0  0  0  0  0  0  0  0  0
    0.1080   15.5380  -34.4270 C   0  0  0  0  0  0  0  0  0  0  0  0
   -0.7842   18.7668  -26.8480 H   0  0  0  0  0  0  0  0  0  0  0  0
   -0.3363   20.0319  -28.0420 H   0  0  0  0  0  0  0  0  0  0  0  0
   -1.9957   19.3442  -28.0420 H   0  0  0  0  0  0  0  0  0  0  0  0
   -1.1195   20.0004  -30.6350 H   0  0  0  0  0  0  0  0  0  0  0  0
   -1.9513   19.7723  -34.4279 H   0  0  0  0  0  0  0  0  0  0  0  0
   -4.2958   18.9435  -34.5941 H   0  0  0  0  0  0  0  0  0  0  0  0
   -6.0410   19.8124  -33.0322 H   0  0  0  0  0  0  0  0  0  0  0  0
   -5.4435   21.5140  -31.3116 H   0  0  0  0  0  0  0  0  0  0  0  0
   -2.2110   22.4730  -30.2690 H   0  0  0  0  0  0  0  0  0  0  0  0
   -4.4143   22.2967  -26.9146 H   0  0  0  0  0  0  0  0  0  0  0  0
   -4.8356   23.1018  -28.4641 H   0  0  0  0  0  0  0  0  0  0  0  0
   -3.7702   21.6556  -28.4641 H   0  0  0  0  0  0  0  0  0  0  0  0
   -2.1171   22.3921  -26.0321 H   0  0  0  0  0  0  0  0  0  0  0  0
   -0.1525   23.8880  -25.6905 H   0  0  0  0  0  0  0  0  0  0  0  0
    0.2376   25.8103  -27.2316 H   0  0  0  0  0  0  0  0  0  0  0  0
    2.5525   20.1666  -35.3054 H   0  0  0  0  0  0  0  0  0  0  0  0
    2.8658   17.1924  -31.7474 H   0  0  0  0  0  0  0  0  0  0  0  0
    2.3789   14.7095  -30.1117 H   0  0  0  0  0  0  0  0  0  0  0  0
    1.2000   14.6054  -28.7483 H   0  0  0  0  0  0  0  0  0  0  0  0
   -0.1658   13.8948  -30.4697 H   0  0  0  0  0  0  0  0  0  0  0  0
   -0.4303   15.6789  -30.5915 H   0  0  0  0  0  0  0  0  0  0  0  0
    1.4581   15.7412  -32.2870 H   0  0  0  0  0  0  0  0  0  0  0  0
    1.3884   13.9145  -32.2688 H   0  0  0  0  0  0  0  0  0  0  0  0
   -2.2884   14.3791  -32.9882 H   0  0  0  0  0  0  0  0  0  0  0  0
   -1.5334   15.1881  -31.5412 H   0  0  0  0  0  0  0  0  0  0  0  0
   -2.6917   16.3972  -34.0400 H   0  0  0  0  0  0  0  0  0  0  0  0
   -2.7802   16.9421  -32.3234 H   0  0  0  0  0  0  0  0  0  0  0  0
   -0.9966   17.1535  -35.3583 H   0  0  0  0  0  0  0  0  0  0  0  0
    0.5587   17.6392  -34.5417 H   0  0  0  0  0  0  0  0  0  0  0  0
   -0.3709   14.9954  -35.2554 H   0  0  0  0  0  0  0  0  0  0  0  0
    1.2052   15.5321  -34.5059 H   0  0  0  0  0  0  0  0  0  0  0  0
  1  2  1  0
  2  3  1  0
  3  4  2  0
  4  5  1  0
  5  6  2  0
  6  7  1  0
  7  8  1  0
  8  9  2  0
  9 10  1  0
 10 11  2  0
 11 12  1  0
 12 13  2  0
 13 14  1  0
 14 15  1  0
 15 16  2  0
 15 17  1  0
 17 18  1  0
 18 19  2  0
 19 20  1  0
 19 21  1  0
 21 22  2  0
 22 23  1  0
 23 24  2  0
 24 25  1  0
  6 26  1  0
 26 27  1  0
 27 28  3  0
 26 29  2  0
 29 30  1  0
 30 31  2  0
 31 32  1  0
 32 33  2  0
 33 34  1  0
 34 35  1  0
 35 36  1  0
 36 37  1  0
 37 38  1  0
 38 39  1  0
 39 40  1  0
 40 41  1  0
 41 42  1  0
 42 43  1  0
 33  3  1  0
 43 38  1  0
 31  5  1  0
 13  8  1  0
 24 18  1  0
  1 44  1  0
  1 45  1  0
  1 46  1  0
  4 47  1  0
  9 48  1  0
 10 49  1  0
 11 50  1  0
 12 51  1  0
 14 52  1  0
 20 53  1  0
 20 54  1  0
 20 55  1  0
 21 56  1  0
 22 57  1  0
 23 58  1  0
 29 59  1  0
 32 60  1  0
 35 61  1  0
 35 62  1  0
 36 63  1  0
 36 64  1  0
 37 65  1  0
 37 66  1  0
 39 67  1  0
 39 68  1  0
 40 69  1  0
 40 70  1  0
 42 71  1  0
 42 72  1  0
 43 73  1  0
 43 74  1  0
M  CHG  2  17  -1  25  -1
M  END
>  <UniqueID>  (7) 
7

>  <SMILES>  (7) 
COc1cc2c(Oc3ccccc3NC(=O)[N-]c3c(C)cccc3[O-])c(C#N)cnc2cc1OCCCN1CCOCC1

>  <Energy>  (7) 
115.08187009039717

>  <Genealogy>  (7) 
COc1cc2c(Oc3ccccc3NC(=O)[N-]c3c(C)cccc3[O-])c(C#N)cnc2cc1OCCCN1CCOCC1 (protonated)
COc1cc2c(Oc3ccccc3NC(=O)[N-]c3c(C)cccc3[O-])c(C#N)cnc2cc1OCCCN1CCOCC1 (3D coordinates assigned)
COc1cc2c(Oc3ccccc3NC(=O)[N-]c3c(C)cccc3[O-])c(C#N)cnc2cc1OCCCN1CCOCC1 (nonaromatic ring conformer: 115.08187009039717 kcal/mol)

>  <smiles>  (7) 
COc1cc2c(Oc3ccccc3NC(=O)Nc3c(C)cccc3O)c(C#N)cnc2cc1OCCCN1CCOCC1

>  <score_type>  (7) 
oracle

>  <origin>  (7) 
adgpu

>  <m_score__min__energy>  (7) 
-15.279999999999999

>  <m_primary>  (7) 
energy

$$$$
7:0
     RDKit          3D

 52 55  0  0  0  0  0  0  0  0999 V2000
   -0.5020   17.3040  -32.3080 C   0  0  0  0  0  0  0  0  0  0  0  0
    0.2920   17.6840  -31.1880 O   0  0  0  0  0  0  0  0  0  0  0  0
   -0.1130   18.5900  -30.1970 C   0  0  0  0  0  0  0  0  0  0  0  0
   -0.3560   18.1010  -28.9150 C   0  0  0  0  0  0  0  0  0  0  0  0
   -0.7600   18.9550  -27.8890 C   0  0  0  0  0  0  0  0  0  0  0  0
   -0.9330   20.3380  -28.1200 C   0  0  0  0  0  0  0  0  0  0  0  0
   -0.6870   20.8410  -29.4250 C   0  0  0  0  0  0  0  0  0  0  0  0
   -0.2800   19.9620  -30.4500 C   0  0  0  0  0  0  0  0  0  0  0  0
   -0.8530   22.2150  -29.6780 C   0  0  0  0  0  0  0  0  0  0  0  0
   -0.6380   22.6700  -30.8360 O   0  0  0  0  0  0  0  0  0  0  0  0
   -1.2570   23.0780  -28.6420 C   0  0  0  0  0  0  0  0  0  0  0  0
   -1.4440   24.5430  -28.8590 C   0  0  0  0  0  0  0  0  0  0  0  0
   -0.4900   25.3430  -28.6600 O   0  0  0  0  0  0  0  0  0  0  0  0
   -2.6980   25.0410  -29.3460 N   0  0  0  0  0  0  0  0  0  0  0  0
   -3.7640   24.2650  -29.9120 C   0  0  0  0  0  0  0  0  0  0  0  0
   -5.0800   24.5490  -29.5270 C   0  0  0  0  0  0  0  0  0  0  0  0
   -6.1490   23.8300  -30.0690 C   0  0  0  0  0  0  0  0  0  0  0  0
   -5.9130   22.8310  -31.0220 C   0  0  0  0  0  0  0  0  0  0  0  0
   -7.2630   21.9330  -31.7100 S   0  0  0  0  0  0  0  0  0  0  0  0
   -7.9840   21.1620  -30.6410 O   0  0  0  0  0  0  0  0  0  0  0  0
   -8.2190   22.9030  -32.3440 O   0  0  0  0  0  0  0  0  0  0  0  0
   -6.6950   20.8270  -32.9200 N   0  0  0  0  0  0  0  0  0  0  0  0
   -6.8670   19.5400  -32.8710 C   0  0  0  0  0  0  0  0  0  0  0  0
   -6.4150   18.6540  -33.8220 C   0  0  0  0  0  0  0  0  0  0  0  0
   -6.8290   17.4290  -33.3280 C   0  0  0  0  0  0  0  0  0  0  0  0
   -6.6230   16.1040  -33.9790 C   0  0  0  0  0  0  0  0  0  0  0  0
   -7.4700   17.6110  -32.1940 O   0  0  0  0  0  0  0  0  0  0  0  0
   -7.5070   18.8740  -31.8890 N   0  0  0  0  0  0  0  0  0  0  0  0
   -4.6010   22.5560  -31.4260 C   0  0  0  0  0  0  0  0  0  0  0  0
   -3.5310   23.2730  -30.8820 C   0  0  0  0  0  0  0  0  0  0  0  0
   -1.4870   22.5340  -27.3690 C   0  0  0  0  0  0  0  0  0  0  0  0
   -1.3280   21.1980  -27.1180 N   0  0  0  0  0  0  0  0  0  0  0  0
   -1.5920   20.7140  -25.7520 C   0  0  0  0  0  0  0  0  0  0  0  0
   -1.4419   16.8542  -31.9554 H   0  0  0  0  0  0  0  0  0  0  0  0
   -0.7263   18.1923  -32.9167 H   0  0  0  0  0  0  0  0  0  0  0  0
    0.0491   16.5720  -32.9167 H   0  0  0  0  0  0  0  0  0  0  0  0
   -0.2276   17.0280  -28.7096 H   0  0  0  0  0  0  0  0  0  0  0  0
   -0.9467   18.5457  -26.8852 H   0  0  0  0  0  0  0  0  0  0  0  0
   -0.0910   20.3552  -31.4598 H   0  0  0  0  0  0  0  0  0  0  0  0
   -5.2740   25.3442  -28.7922 H   0  0  0  0  0  0  0  0  0  0  0  0
   -7.1776   24.0491  -29.7465 H   0  0  0  0  0  0  0  0  0  0  0  0
   -5.8606   18.8670  -34.7479 H   0  0  0  0  0  0  0  0  0  0  0  0
   -6.5027   15.3305  -33.2062 H   0  0  0  0  0  0  0  0  0  0  0  0
   -7.4946   15.8639  -34.6056 H   0  0  0  0  0  0  0  0  0  0  0  0
   -5.7196   16.1398  -34.6056 H   0  0  0  0  0  0  0  0  0  0  0  0
   -7.9620   19.2620  -31.0340 H   0  0  0  0  0  0  0  0  0  0  0  0
   -4.4112   21.7726  -32.1745 H   0  0  0  0  0  0  0  0  0  0  0  0
   -2.5038   23.0608  -31.2135 H   0  0  0  0  0  0  0  0  0  0  0  0
   -1.8033   23.1987  -26.5516 H   0  0  0  0  0  0  0  0  0  0  0  0
   -1.1972   21.4378  -25.0238 H   0  0  0  0  0  0  0  0  0  0  0  0
   -2.6765   20.6015  -25.6061 H   0  0  0  0  0  0  0  0  0  0  0  0
   -1.0995   19.7413  -25.6061 H   0  0  0  0  0  0  0  0  0  0  0  0
  1  2  1  0
  2  3  1  0
  3  4  2  0
  4  5  1  0
  5  6  2  0
  6  7  1  0
  7  8  2  0
  7  9  1  0
  9 10  2  0
  9 11  1  0
 11 12  1  0
 12 13  2  0
 12 14  1  0
 14 15  1  0
 15 16  2  0
 16 17  1  0
 17 18  2  0
 18 19  1  0
 19 20  2  0
 19 21  2  0
 19 22  1  0
 22 23  2  3
 23 24  1  0
 24 25  2  0
 25 26  1  0
 25 27  1  0
 27 28  1  0
 18 29  1  0
 29 30  2  0
 11 31  2  0
 31 32  1  0
 32 33  1  0
  8  3  1  0
 30 15  1  0
 32  6  1  0
 28 23  1  0
  1 34  1  0
  1 35  1  0
  1 36  1  0
  4 37  1  0
  5 38  1  0
  8 39  1  0
 16 40  1  0
 17 41  1  0
 24 42  1  0
 26 43  1  0
 26 44  1  0
 26 45  1  0
 28 46  1  0
 29 47  1  0
 30 48  1  0
 31 49  1  0
 33 50  1  0
 33 51  1  0
 33 52  1  0
M  CHG  1  14  -1
M  END
>  <UniqueID>  (8) 
8

>  <SMILES>  (8) 
COc1ccc2c(c1)c(=O)c(C(=O)[N-]c1ccc(S(=O)(=O)N=c3cc(C)o[nH]3)cc1)cn2C

>  <Energy>  (8) 
104.95737741362962

>  <Genealogy>  (8) 
COc1ccc2c(c1)c(=O)c(C(=O)[N-]c1ccc(S(=O)(=O)N=c3cc(C)o[nH]3)cc1)cn2C (protonated)
COc1ccc2c(c1)c(=O)c(C(=O)[N-]c1ccc(S(=O)(=O)N=c3cc(C)o[nH]3)cc1)cn2C (3D coordinates assigned)
COc1ccc2c(c1)c(=O)c(C(=O)[N-]c1ccc(S(=O)(=O)N=c3cc(C)o[nH]3)cc1)cn2C (optimized conformer: 104.95737741362962 kcal/mol)

>  <smiles>  (8) 
COc1ccc2c(c1)c(=O)c(C(=O)Nc1ccc(S(=O)(=O)N=c3cc(C)o[nH]3)cc1)cn2C

>  <score_type>  (8) 
oracle

>  <origin>  (8) 
adgpu

>  <m_score__min__energy>  (8) 
-11.369999999999999

>  <m_primary>  (8) 
energy

$$$$
8:0
     RDKit          3D

 34 36  0  0  0  0  0  0  0  0999 V2000
   -3.2730   21.0630  -33.4660 C   0  0  0  0  0  0  0  0  0  0  0  0
   -2.9020   19.6430  -33.8160 C   0  0  0  0  0  0  0  0  0  0  0  0
   -1.5430   19.2490  -33.8350 C   0  0  0  0  0  0  0  0  0  0  0  0
   -0.2400   20.3910  -33.5180 Cl  0  0  0  0  0  0  0  0  0  0  0  0
   -1.2010   17.9210  -34.1130 C   0  0  0  0  0  0  0  0  0  0  0  0
   -2.1940   16.9790  -34.3830 C   0  0  0  0  0  0  0  0  0  0  0  0
   -3.5340   17.3620  -34.3970 C   0  0  0  0  0  0  0  0  0  0  0  0
   -3.8960   18.6890  -34.1450 C   0  0  0  0  0  0  0  0  0  0  0  0
   -5.2810   19.0390  -34.2170 N   0  0  0  0  0  0  0  0  0  0  0  0
   -6.3320   18.9460  -32.8410 S   0  0  0  0  0  0  0  0  0  0  0  0
   -5.5910   18.3260  -31.6880 O   0  0  0  0  0  0  0  0  0  0  0  0
   -7.5150   18.0910  -33.1960 O   0  0  0  0  0  0  0  0  0  0  0  0
   -6.8740   20.5610  -32.3700 C   0  0  0  0  0  0  0  0  0  0  0  0
   -5.9190   21.5240  -32.0000 C   0  0  0  0  0  0  0  0  0  0  0  0
   -6.3090   22.8180  -31.6180 C   0  0  0  0  0  0  0  0  0  0  0  0
   -5.2960   23.8220  -31.2300 C   0  0  0  0  0  0  0  0  0  0  0  0
   -5.5080   25.1520  -31.2140 N   0  0  0  0  0  0  0  0  0  0  0  0
   -4.3580   25.6710  -30.8140 N   0  0  0  0  0  0  0  0  0  0  0  0
   -3.4830   24.7030  -30.5940 N   0  0  0  0  0  0  0  0  0  0  0  0
   -4.0400   23.5300  -30.8460 N   0  0  0  0  0  0  0  0  0  0  0  0
   -7.6730   23.1440  -31.6080 C   0  0  0  0  0  0  0  0  0  0  0  0
   -8.6290   22.1950  -31.9700 C   0  0  0  0  0  0  0  0  0  0  0  0
   -8.2450   20.9040  -32.3490 C   0  0  0  0  0  0  0  0  0  0  0  0
   -9.2480   19.9960  -32.6930 O   0  0  0  0  0  0  0  0  0  0  0  0
   -3.3023   21.1753  -32.3721 H   0  0  0  0  0  0  0  0  0  0  0  0
   -2.5246   21.7515  -33.8853 H   0  0  0  0  0  0  0  0  0  0  0  0
   -4.2625   21.2974  -33.8853 H   0  0  0  0  0  0  0  0  0  0  0  0
   -0.1435   17.6181  -34.1187 H   0  0  0  0  0  0  0  0  0  0  0  0
   -1.9192   15.9332  -34.5850 H   0  0  0  0  0  0  0  0  0  0  0  0
   -4.3130   16.6145  -34.6079 H   0  0  0  0  0  0  0  0  0  0  0  0
   -4.8511   21.2603  -32.0098 H   0  0  0  0  0  0  0  0  0  0  0  0
   -7.9910   24.1548  -31.3127 H   0  0  0  0  0  0  0  0  0  0  0  0
   -9.6955   22.4642  -31.9574 H   0  0  0  0  0  0  0  0  0  0  0  0
   -9.1700   19.3430  -33.4600 H   0  0  0  0  0  0  0  0  0  0  0  0
  1  2  1  0
  2  3  2  0
  3  4  1  0
  3  5  1  0
  5  6  2  0
  6  7  1  0
  7  8  2  0
  8  9  1  0
  9 10  1  0
 10 11  2  0
 10 12  2  0
 10 13  1  0
 13 14  2  0
 14 15  1  0
 15 16  1  0
 16 17  1  0
 17 18  2  0
 18 19  1  0
 19 20  1  0
 15 21  2  0
 21 22  1  0
 22 23  2  0
 23 24  1  0
  8  2  1  0
 23 13  1  0
 20 16  2  0
  1 25  1  0
  1 26  1  0
  1 27  1  0
  5 28  1  0
  6 29  1  0
  7 30  1  0
 14 31  1  0
 21 32  1  0
 22 33  1  0
 24 34  1  0
M  CHG  2   9  -1  19  -1
M  END
>  <UniqueID>  (9) 
9

>  <SMILES>  (9) 
Cc1c(Cl)cccc1[N-]S(=O)(=O)c1cc(-c2nn[n-]n2)ccc1O

>  <Energy>  (9) 
88.65562081472905

>  <Genealogy>  (9) 
Cc1c(Cl)cccc1[N-]S(=O)(=O)c1cc(-c2nn[n-]n2)ccc1O (protonated)
Cc1c(Cl)cccc1[N-]S(=O)(=O)c1cc(-c2nn[n-]n2)ccc1O (3D coordinates assigned)
Cc1c(Cl)cccc1[N-]S(=O)(=O)c1cc(-c2nn[n-]n2)ccc1O (optimized conformer: 88.65562081472905 kcal/mol)

>  <smiles>  (9) 
Cc1c(Cl)cccc1NS(=O)(=O)c1cc(-c2nn[nH]n2)ccc1O

>  <score_type>  (9) 
oracle

>  <origin>  (9) 
adgpu

>  <m_score__min__energy>  (9) 
-10.109999999999999

>  <m_primary>  (9) 
energy

$$$$
9:0
     RDKit          3D

 51 54  0  0  1  0  0  0  0  0999 V2000
   -5.4250   16.1340  -33.8590 C   0  0  0  0  0  0  0  0  0  0  0  0
   -5.6230   17.7040  -34.7400 S   0  0  0  0  0  0  0  0  0  0  0  0
   -5.0460   19.0180  -33.7000 C   0  0  0  0  0  0  0  0  0  0  0  0
   -3.7190   19.4480  -33.7110 C   0  0  0  0  0  0  0  0  0  0  0  0
   -3.3100   20.4560  -32.9010 N   0  0  0  0  0  0  0  0  0  0  0  0
   -4.1800   21.0620  -32.0710 C   0  0  0  0  0  0  0  0  0  0  0  0
   -3.7230   22.1540  -31.1980 C   0  0  0  0  0  0  0  0  0  0  0  0
   -2.5210   21.9990  -30.5320 C   0  0  0  0  0  0  0  0  0  0  0  0
   -2.0210   22.9760  -29.6920 C   0  0  0  0  0  0  0  0  0  0  0  0
   -2.7620   24.1240  -29.5370 C   0  0  0  0  0  0  0  0  0  0  0  0
   -2.2840   25.1560  -28.6810 N   0  0  0  0  0  0  0  0  0  0  0  0
   -0.8970   25.3190  -28.3790 C   0  0  0  0  0  0  0  0  0  0  0  0
   -0.0060   24.5630  -28.8480 O   0  0  0  0  0  0  0  0  0  0  0  0
   -0.5800   26.4140  -27.4980 N   0  0  0  0  0  0  0  0  0  0  0  0
   -0.5610   26.1500  -26.2300 C   0  0  0  0  0  0  0  0  0  0  0  0
   -0.2590   27.1860  -25.3650 C   0  0  0  0  0  0  0  0  0  0  0  0
   -0.2470   26.8670  -24.0070 C   0  0  0  0  0  0  0  0  0  0  0  0
   -0.5200   25.6120  -23.6070 N   0  0  0  0  0  0  0  0  0  0  0  0
   -0.8110   24.6190  -24.4660 C   0  0  0  0  0  0  0  0  0  0  0  0
   -0.8310   24.8950  -25.7820 N   0  0  0  0  0  0  0  0  0  0  0  0
   -3.9730   24.2750  -30.2100 C   0  0  0  0  0  0  0  0  0  0  0  0
   -4.4530   23.2910  -31.0400 C   0  0  0  0  0  0  0  0  0  0  0  0
   -5.4410   20.6490  -32.0650 N   0  0  0  0  0  0  0  0  0  0  0  0
   -5.9180   19.6550  -32.8400 C   0  0  0  0  0  0  0  0  0  0  0  0
   -7.2950   19.3030  -32.7410 N   0  0  0  0  0  0  0  0  0  0  0  0
   -7.7170   17.9720  -32.2820 C   0  0  0  0  0  0  0  0  0  0  0  0
   -9.0350   18.1500  -31.5780 C   0  0  0  0  0  0  0  0  0  0  0  0
   -9.1550   19.3670  -30.9540 O   0  0  0  0  0  0  0  0  0  0  0  0
   -9.2000   20.4360  -31.8460 C   0  0  0  0  0  0  0  0  0  0  0  0
   -8.3710   20.2180  -33.0800 C   0  0  0  0  0  0  0  0  0  0  0  0
   -5.4480   16.3167  -32.7745 H   0  0  0  0  0  0  0  0  0  0  0  0
   -6.2444   15.4535  -34.1337 H   0  0  0  0  0  0  0  0  0  0  0  0
   -4.4623   15.6783  -34.1337 H   0  0  0  0  0  0  0  0  0  0  0  0
   -2.9961   18.9641  -34.3842 H   0  0  0  0  0  0  0  0  0  0  0  0
   -1.9466   21.0718  -30.6748 H   0  0  0  0  0  0  0  0  0  0  0  0
   -1.0644   22.8401  -29.1662 H   0  0  0  0  0  0  0  0  0  0  0  0
   -3.0220   25.7970  -28.2830 H   0  0  0  0  0  0  0  0  0  0  0  0
   -0.0411   28.2018  -25.7265 H   0  0  0  0  0  0  0  0  0  0  0  0
   -0.0141   27.6425  -23.2625 H   0  0  0  0  0  0  0  0  0  0  0  0
   -0.5060   25.3900  -22.5770 H   0  0  0  0  0  0  0  0  0  0  0  0
   -1.0277   23.6044  -24.1006 H   0  0  0  0  0  0  0  0  0  0  0  0
   -4.5549   25.1985  -30.0742 H   0  0  0  0  0  0  0  0  0  0  0  0
   -5.4099   23.4201  -31.5670 H   0  0  0  0  0  0  0  0  0  0  0  0
   -7.8354   17.2955  -33.1413 H   0  0  0  0  0  0  0  0  0  0  0  0
   -6.9671   17.5317  -31.6084 H   0  0  0  0  0  0  0  0  0  0  0  0
   -9.8426   18.0559  -32.3189 H   0  0  0  0  0  0  0  0  0  0  0  0
   -9.0966   17.3758  -30.7990 H   0  0  0  0  0  0  0  0  0  0  0  0
  -10.2453   20.5919  -32.1511 H   0  0  0  0  0  0  0  0  0  0  0  0
   -8.7841   21.3113  -31.3255 H   0  0  0  0  0  0  0  0  0  0  0  0
   -8.9935   19.7838  -33.8762 H   0  0  0  0  0  0  0  0  0  0  0  0
   -7.9615   21.1736  -33.4394 H   0  0  0  0  0  0  0  0  0  0  0  0
  1  2  1  0
  2  3  1  0
  3  4  2  0
  4  5  1  0
  5  6  2  0
  6  7  1  0
  7  8  2  0
  8  9  1  0
  9 10  2  0
 10 11  1  0
 11 12  1  0
 12 13  2  0
 12 14  1  0
 14 15  2  0
 15 16  1  0
 16 17  2  0
 17 18  1  0
 18 19  1  0
 19 20  2  0
 10 21  1  0
 21 22  2  0
  6 23  1  0
 23 24  2  0
 24 25  1  0
 25 26  1  0
 26 27  1  0
 27 28  1  0
 28 29  1  0
 29 30  1  0
 24  3  1  0
 30 25  1  0
 22  7  1  0
 20 15  1  0
  1 31  1  0
  1 32  1  0
  1 33  1  0
  4 34  1  0
  8 35  1  0
  9 36  1  0
 11 37  1  0
 16 38  1  0
 17 39  1  0
 18 40  1  0
 19 41  1  0
 21 42  1  0
 22 43  1  0
 26 44  1  0
 26 45  1  0
 27 46  1  0
 27 47  1  0
 29 48  1  0
 29 49  1  0
 30 50  1  0
 30 51  1  0
M  END
>  <smiles>  (10) 
CSc1cnc(-c2ccc(NC(=O)N=c3cc[nH]cn3)cc2)nc1N1CCOCC1

>  <score_type>  (10) 
oracle

>  <origin>  (10) 
adgpu

>  <m_score__min__energy>  (10) 
-9.1400000000000006

>  <m_primary>  (10) 
energy

$$$$
10:0
     RDKit          3D

 64 67  0  0  0  0  0  0  0  0999 V2000
   -2.3720   25.2410  -28.0890 N   0  0  0  0  0  0  0  0  0  0  0  0
   -1.9930   24.0680  -28.8230 C   0  0  0  0  0  0  0  0  0  0  0  0
   -1.0170   23.2100  -28.2920 C   0  0  0  0  0  0  0  0  0  0  0  0
   -0.5870   22.0910  -29.0100 C   0  0  0  0  0  0  0  0  0  0  0  0
   -1.1160   21.8210  -30.2790 C   0  0  0  0  0  0  0  0  0  0  0  0
   -0.5990   20.3990  -31.1860 S   0  0  0  0  0  0  0  0  0  0  0  0
    0.8770   20.5040  -31.4680 O   0  0  0  0  0  0  0  0  0  0  0  0
   -0.8260   19.1830  -30.3320 O   0  0  0  0  0  0  0  0  0  0  0  0
   -1.5140   20.2780  -32.6780 N   0  0  0  0  0  0  0  0  0  0  0  0
   -1.4350   18.9150  -33.2480 C   0  0  0  0  0  0  0  0  0  0  0  0
   -0.0310   18.5810  -33.7880 C   0  0  0  0  0  0  0  0  0  0  0  0
    0.6200   19.7610  -34.5370 C   0  0  0  0  0  0  0  0  0  0  0  0
   -0.3950   20.8460  -34.8970 C   0  0  0  0  0  0  0  0  0  0  0  0
   -1.1410   21.3520  -33.6450 C   0  0  0  0  0  0  0  0  0  0  0  0
   -2.0780   22.6820  -30.8230 C   0  0  0  0  0  0  0  0  0  0  0  0
   -2.5470   23.7820  -30.0930 C   0  0  0  0  0  0  0  0  0  0  0  0
   -3.6040   24.5660  -30.6580 N   0  0  0  0  0  0  0  0  0  0  0  0
   -4.9820   24.4360  -30.2820 C   0  0  0  0  0  0  0  0  0  0  0  0
   -5.4220   25.0720  -29.2840 O   0  0  0  0  0  0  0  0  0  0  0  0
   -5.8700   23.5060  -31.0180 C   0  0  0  0  0  0  0  0  0  0  0  0
   -7.2680   23.6240  -30.9120 C   0  0  0  0  0  0  0  0  0  0  0  0
   -8.1050   22.7090  -31.5550 C   0  0  0  0  0  0  0  0  0  0  0  0
   -7.5600   21.6620  -32.3010 C   0  0  0  0  0  0  0  0  0  0  0  0
   -6.1700   21.5200  -32.4010 C   0  0  0  0  0  0  0  0  0  0  0  0
   -5.4840   20.1640  -33.2980 S   0  0  0  0  0  0  0  0  0  0  0  0
   -4.1190   20.5430  -33.7950 O   0  0  0  0  0  0  0  0  0  0  0  0
   -6.3450   19.9030  -34.5070 O   0  0  0  0  0  0  0  0  0  0  0  0
   -5.3890   18.6850  -32.3560 N   0  0  0  0  0  0  0  0  0  0  0  0
   -6.6950   18.0840  -32.0130 C   0  0  0  0  0  0  0  0  0  0  0  0
   -7.2170   17.1050  -33.0730 C   0  0  0  0  0  0  0  0  0  0  0  0
   -6.1590   16.0620  -33.4130 C   0  0  0  0  0  0  0  0  0  0  0  0
   -4.8860   16.7510  -33.8920 C   0  0  0  0  0  0  0  0  0  0  0  0
   -4.3630   17.7340  -32.8320 C   0  0  0  0  0  0  0  0  0  0  0  0
   -5.3310   22.4630  -31.7920 C   0  0  0  0  0  0  0  0  0  0  0  0
   -1.7480   25.6520  -27.3620 H   0  0  0  0  0  0  0  0  0  0  0  0
   -3.3340   25.6360  -28.1800 H   0  0  0  0  0  0  0  0  0  0  0  0
   -0.5868   23.4205  -27.3017 H   0  0  0  0  0  0  0  0  0  0  0  0
    0.1695   21.4197  -28.5774 H   0  0  0  0  0  0  0  0  0  0  0  0
   -2.5160   20.4280  -32.4100 H   0  0  0  0  0  0  0  0  0  0  0  0
   -1.6928   18.1889  -32.4629 H   0  0  0  0  0  0  0  0  0  0  0  0
   -2.1382   18.8649  -34.0924 H   0  0  0  0  0  0  0  0  0  0  0  0
    0.6141   18.3040  -32.9411 H   0  0  0  0  0  0  0  0  0  0  0  0
   -0.1413   17.7548  -34.5058 H   0  0  0  0  0  0  0  0  0  0  0  0
    1.3977   20.2019  -33.8960 H   0  0  0  0  0  0  0  0  0  0  0  0
    1.0464   19.3728  -35.4737 H   0  0  0  0  0  0  0  0  0  0  0  0
    0.1331   21.6898  -35.3651 H   0  0  0  0  0  0  0  0  0  0  0  0
   -1.1323   20.4158  -35.5908 H   0  0  0  0  0  0  0  0  0  0  0  0
   -0.4931   22.0736  -33.1258 H   0  0  0  0  0  0  0  0  0  0  0  0
   -2.0818   21.7998  -33.9977 H   0  0  0  0  0  0  0  0  0  0  0  0
   -2.4691   22.4925  -31.8335 H   0  0  0  0  0  0  0  0  0  0  0  0
   -7.7044   24.4415  -30.3194 H   0  0  0  0  0  0  0  0  0  0  0  0
   -9.1970   22.8136  -31.4734 H   0  0  0  0  0  0  0  0  0  0  0  0
   -8.2231   20.9477  -32.8109 H   0  0  0  0  0  0  0  0  0  0  0  0
   -6.5897   17.5427  -31.0612 H   0  0  0  0  0  0  0  0  0  0  0  0
   -7.4220   18.9069  -31.9475 H   0  0  0  0  0  0  0  0  0  0  0  0
   -8.1126   16.5974  -32.6854 H   0  0  0  0  0  0  0  0  0  0  0  0
   -7.4618   17.6696  -33.9848 H   0  0  0  0  0  0  0  0  0  0  0  0
   -5.9352   15.4641  -32.5172 H   0  0  0  0  0  0  0  0  0  0  0  0
   -6.5390   15.4077  -34.2114 H   0  0  0  0  0  0  0  0  0  0  0  0
   -4.1165   15.9899  -34.0884 H   0  0  0  0  0  0  0  0  0  0  0  0
   -5.1140   17.3123  -34.8102 H   0  0  0  0  0  0  0  0  0  0  0  0
   -3.9972   17.1558  -31.9707 H   0  0  0  0  0  0  0  0  0  0  0  0
   -3.5655   18.3264  -33.3042 H   0  0  0  0  0  0  0  0  0  0  0  0
   -4.2412   22.3866  -31.9206 H   0  0  0  0  0  0  0  0  0  0  0  0
  1  2  1  0
  2  3  2  0
  3  4  1  0
  4  5  2  0
  5  6  1  0
  6  7  2  0
  6  8  2  0
  6  9  1  0
  9 10  1  0
 10 11  1  0
 11 12  1  0
 12 13  1  0
 13 14  1  0
  5 15  1  0
 15 16  2  0
 16 17  1  0
 17 18  1  0
 18 19  2  0
 18 20  1  0
 20 21  2  0
 21 22  1  0
 22 23  2  0
 23 24  1  0
 24 25  1  0
 25 26  2  0
 25 27  2  0
 25 28  1  0
 28 29  1  0
 29 30  1  0
 30 31  1  0
 31 32  1  0
 32 33  1  0
 24 34  2  0
 16  2  1  0
 34 20  1  0
 14  9  1  0
 33 28  1  0
  1 35  1  0
  1 36  1  0
  3 37  1  0
  4 38  1  0
  9 39  1  0
 10 40  1  0
 10 41  1  0
 11 42  1  0
 11 43  1  0
 12 44  1  0
 12 45  1  0
 13 46  1  0
 13 47  1  0
 14 48  1  0
 14 49  1  0
 15 50  1  0
 21 51  1  0
 22 52  1  0
 23 53  1  0
 29 54  1  0
 29 55  1  0
 30 56  1  0
 30 57  1  0
 31 58  1  0
 31 59  1  0
 32 60  1  0
 32 61  1  0
 33 62  1  0
 33 63  1  0
 34 64  1  0
M  CHG  2   9   1  17  -1
M  END
>  <UniqueID>  (11) 
10

>  <SMILES>  (11) 
Nc1ccc(S(=O)(=O)[NH+]2CCCCC2)cc1[N-]C(=O)c1cccc(S(=O)(=O)N2CCCCC2)c1

>  <Energy>  (11) 
82.37175178247705

>  <Genealogy>  (11) 
Nc1ccc(S(=O)(=O)[NH+]2CCCCC2)cc1[N-]C(=O)c1cccc(S(=O)(=O)N2CCCCC2)c1 (protonated)
Nc1ccc(S(=O)(=O)[NH+]2CCCCC2)cc1[N-]C(=O)c1cccc(S(=O)(=O)N2CCCCC2)c1 (3D coordinates assigned)
Nc1ccc(S(=O)(=O)[NH+]2CCCCC2)cc1[N-]C(=O)c1cccc(S(=O)(=O)N2CCCCC2)c1 (nonaromatic ring conformer: 82.37175178247705 kcal/mol)

>  <smiles>  (11) 
Nc1ccc(S(=O)(=O)N2CCCCC2)cc1NC(=O)c1cccc(S(=O)(=O)N2CCCCC2)c1

>  <score_type>  (11) 
oracle

>  <origin>  (11) 
adgpu

>  <m_score__min__energy>  (11) 
-12.800000000000001

>  <m_primary>  (11) 
energy

$$$$
11:0
     RDKit          3D

 37 38  0  0  0  0  0  0  0  0999 V2000
   -4.3020   16.3390  -34.4600 C   0  0  0  0  0  0  0  0  0  0  0  0
   -5.6370   16.4330  -33.9770 O   0  0  0  0  0  0  0  0  0  0  0  0
   -6.2370   17.6210  -33.5320 C   0  0  0  0  0  0  0  0  0  0  0  0
   -7.1420   17.6520  -32.4550 C   0  0  0  0  0  0  0  0  0  0  0  0
   -7.7120   18.8620  -32.0470 C   0  0  0  0  0  0  0  0  0  0  0  0
   -7.3810   20.0610  -32.6980 C   0  0  0  0  0  0  0  0  0  0  0  0
   -7.9650   21.3150  -32.3020 N   0  0  0  0  0  0  0  0  0  0  0  0
   -9.2670   21.5430  -32.2540 N   0  0  0  0  0  0  0  0  0  0  0  0
   -9.4710   22.8170  -31.9550 N   0  0  0  0  0  0  0  0  0  0  0  0
   -8.3100   23.4430  -31.8190 N   0  0  0  0  0  0  0  0  0  0  0  0
   -7.3760   22.4990  -32.0340 C   0  0  0  0  0  0  0  0  0  0  0  0
   -5.6170   22.8500  -32.0930 S   0  0  0  0  0  0  0  0  0  0  0  0
   -5.6050   23.6810  -30.4700 C   0  0  0  0  0  0  0  0  0  0  0  0
   -4.9020   25.0000  -30.5900 C   0  0  0  0  0  0  0  0  0  0  0  0
   -5.5910   26.0120  -30.8820 O   0  0  0  0  0  0  0  0  0  0  0  0
   -3.5030   25.1870  -30.3140 N   0  0  0  0  0  0  0  0  0  0  0  0
   -2.6270   24.5370  -29.3350 C   0  0  0  0  0  0  0  0  0  0  0  0
   -2.0990   23.1960  -29.8560 C   0  0  0  0  0  0  0  0  0  0  0  0
   -3.2720   24.4220  -27.9510 C   0  0  0  0  0  0  0  0  0  0  0  0
   -6.4930   20.0210  -33.7850 C   0  0  0  0  0  0  0  0  0  0  0  0
   -5.9230   18.8130  -34.1920 C   0  0  0  0  0  0  0  0  0  0  0  0
   -3.6068   16.2900  -33.6090 H   0  0  0  0  0  0  0  0  0  0  0  0
   -4.1966   15.4312  -35.0722 H   0  0  0  0  0  0  0  0  0  0  0  0
   -4.0705   17.2231  -35.0722 H   0  0  0  0  0  0  0  0  0  0  0  0
   -7.4023   16.7202  -31.9316 H   0  0  0  0  0  0  0  0  0  0  0  0
   -8.4252   18.8745  -31.2096 H   0  0  0  0  0  0  0  0  0  0  0  0
   -6.6396   23.8459  -30.1347 H   0  0  0  0  0  0  0  0  0  0  0  0
   -5.0791   23.0500  -29.7384 H   0  0  0  0  0  0  0  0  0  0  0  0
   -1.7542   25.1928  -29.2003 H   0  0  0  0  0  0  0  0  0  0  0  0
   -1.8435   22.5471  -29.0053 H   0  0  0  0  0  0  0  0  0  0  0  0
   -2.8730   22.7101  -30.4683 H   0  0  0  0  0  0  0  0  0  0  0  0
   -1.2016   23.3682  -30.4683 H   0  0  0  0  0  0  0  0  0  0  0  0
   -2.5036   24.5590  -27.1759 H   0  0  0  0  0  0  0  0  0  0  0  0
   -4.0455   25.1964  -27.8415 H   0  0  0  0  0  0  0  0  0  0  0  0
   -3.7302   23.4280  -27.8415 H   0  0  0  0  0  0  0  0  0  0  0  0
   -6.2443   20.9491  -34.3204 H   0  0  0  0  0  0  0  0  0  0  0  0
   -5.2211   18.7990  -35.0389 H   0  0  0  0  0  0  0  0  0  0  0  0
  1  2  1  0
  2  3  1  0
  3  4  2  0
  4  5  1  0
  5  6  2  0
  6  7  1  0
  7  8  1  0
  8  9  2  0
  9 10  1  0
 10 11  2  0
 11 12  1  0
 12 13  1  0
 13 14  1  0
 14 15  2  0
 14 16  1  0
 16 17  1  0
 17 18  1  0
 17 19  1  0
  6 20  1  0
 20 21  2  0
 21  3  1  0
 11  7  1  0
  1 22  1  0
  1 23  1  0
  1 24  1  0
  4 25  1  0
  5 26  1  0
 13 27  1  0
 13 28  1  0
 17 29  1  0
 18 30  1  0
 18 31  1  0
 18 32  1  0
 19 33  1  0
 19 34  1  0
 19 35  1  0
 20 36  1  0
 21 37  1  0
M  CHG  1  16  -1
M  END
>  <UniqueID>  (12) 
11

>  <SMILES>  (12) 
COc1ccc(-n2nnnc2SCC(=O)[N-]C(C)C)cc1

>  <Energy>  (12) 
75.87070287887113

>  <Genealogy>  (12) 
COc1ccc(-n2nnnc2SCC(=O)[N-]C(C)C)cc1 (protonated)
COc1ccc(-n2nnnc2SCC(=O)[N-]C(C)C)cc1 (3D coordinates assigned)
COc1ccc(-n2nnnc2SCC(=O)[N-]C(C)C)cc1 (optimized conformer: 75.87070287887113 kcal/mol)

>  <smiles>  (12) 
COc1ccc(-n2nnnc2SCC(=O)NC(C)C)cc1

>  <score_type>  (12) 
oracle

>  <origin>  (12) 
adgpu

>  <m_score__min__energy>  (12) 
-9.7200000000000006

>  <m_primary>  (12) 
energy

$$$$
12:0
     RDKit          3D

 46 49  0  0  0  0  0  0  0  0999 V2000
   -2.9930   24.8580  -27.8820 O   0  0  0  0  0  0  0  0  0  0  0  0
   -2.3490   24.5580  -29.2070 S   0  0  0  0  0  0  0  0  0  0  0  0
   -1.1230   25.4200  -29.3220 O   0  0  0  0  0  0  0  0  0  0  0  0
   -3.4910   24.9190  -30.4640 N   0  0  0  0  0  0  0  0  0  0  0  0
   -4.7330   24.2440  -30.7060 C   0  0  0  0  0  0  0  0  0  0  0  0
   -5.9210   24.8860  -30.3370 C   0  0  0  0  0  0  0  0  0  0  0  0
   -7.1570   24.2720  -30.5490 C   0  0  0  0  0  0  0  0  0  0  0  0
   -7.2240   23.0190  -31.1650 C   0  0  0  0  0  0  0  0  0  0  0  0
   -8.4320   22.4290  -31.3680 N   0  0  0  0  0  0  0  0  0  0  0  0
   -8.5450   21.2200  -31.9770 C   0  0  0  0  0  0  0  0  0  0  0  0
   -7.4060   20.5540  -32.4310 C   0  0  0  0  0  0  0  0  0  0  0  0
   -6.1430   21.1310  -32.2510 C   0  0  0  0  0  0  0  0  0  0  0  0
   -4.9860   20.4690  -32.7850 N   0  0  0  0  0  0  0  0  0  0  0  0
   -3.9690   21.2920  -33.4540 C   0  0  0  0  0  0  0  0  0  0  0  0
   -2.7440   20.4660  -33.8460 C   0  0  0  0  0  0  0  0  0  0  0  0
   -2.5280   19.4130  -32.8520 N   0  0  0  0  0  0  0  0  0  0  0  0
   -3.5780   18.3950  -32.9810 C   0  0  0  0  0  0  0  0  0  0  0  0
   -5.0000   19.0030  -32.9020 C   0  0  0  0  0  0  0  0  0  0  0  0
   -6.0380   22.3740  -31.5880 C   0  0  0  0  0  0  0  0  0  0  0  0
   -4.7950   22.9870  -31.3360 C   0  0  0  0  0  0  0  0  0  0  0  0
   -1.9410   22.8390  -29.2630 C   0  0  0  0  0  0  0  0  0  0  0  0
   -1.1490   22.3670  -30.3220 C   0  0  0  0  0  0  0  0  0  0  0  0
   -0.7860   21.0200  -30.3900 C   0  0  0  0  0  0  0  0  0  0  0  0
    0.1970   20.4440  -31.7250 Cl  0  0  0  0  0  0  0  0  0  0  0  0
   -1.2070   20.1330  -29.3960 C   0  0  0  0  0  0  0  0  0  0  0  0
   -1.9860   20.5870  -28.3270 C   0  0  0  0  0  0  0  0  0  0  0  0
   -2.4840   19.4270  -27.1010 Cl  0  0  0  0  0  0  0  0  0  0  0  0
   -2.3570   21.9460  -28.2520 C   0  0  0  0  0  0  0  0  0  0  0  0
   -3.1280   22.4190  -27.1880 O   0  0  0  0  0  0  0  0  0  0  0  0
   -5.8804   25.8837  -29.8756 H   0  0  0  0  0  0  0  0  0  0  0  0
   -8.0812   24.7761  -30.2301 H   0  0  0  0  0  0  0  0  0  0  0  0
   -9.5372   20.7648  -32.1126 H   0  0  0  0  0  0  0  0  0  0  0  0
   -7.5001   19.5778  -32.9292 H   0  0  0  0  0  0  0  0  0  0  0  0
   -4.4073   21.7330  -34.3615 H   0  0  0  0  0  0  0  0  0  0  0  0
   -3.6452   22.0754  -32.7529 H   0  0  0  0  0  0  0  0  0  0  0  0
   -2.9096   20.0101  -34.8333 H   0  0  0  0  0  0  0  0  0  0  0  0
   -1.8594   21.1185  -33.8876 H   0  0  0  0  0  0  0  0  0  0  0  0
   -1.6120   18.9530  -33.0630 H   0  0  0  0  0  0  0  0  0  0  0  0
   -3.4630   17.8894  -33.9511 H   0  0  0  0  0  0  0  0  0  0  0  0
   -3.4670   17.6896  -32.1442 H   0  0  0  0  0  0  0  0  0  0  0  0
   -5.5511   18.7282  -33.8134 H   0  0  0  0  0  0  0  0  0  0  0  0
   -5.4822   18.6026  -31.9980 H   0  0  0  0  0  0  0  0  0  0  0  0
   -3.8657   22.4794  -31.6339 H   0  0  0  0  0  0  0  0  0  0  0  0
   -0.8119   23.0633  -31.1040 H   0  0  0  0  0  0  0  0  0  0  0  0
   -0.9241   19.0716  -29.4546 H   0  0  0  0  0  0  0  0  0  0  0  0
   -3.4460   23.3770  -27.1260 H   0  0  0  0  0  0  0  0  0  0  0  0
  1  2  2  0
  2  3  2  0
  2  4  1  0
  4  5  1  0
  5  6  2  0
  6  7  1  0
  7  8  2  0
  8  9  1  0
  9 10  2  0
 10 11  1  0
 11 12  2  0
 12 13  1  0
 13 14  1  0
 14 15  1  0
 15 16  1  0
 16 17  1  0
 17 18  1  0
 12 19  1  0
 19 20  2  0
  2 21  1  0
 21 22  2  0
 22 23  1  0
 23 24  1  0
 23 25  2  0
 25 26  1  0
 26 27  1  0
 26 28  2  0
 28 29  1  0
 20  5  1  0
 28 21  1  0
 19  8  1  0
 18 13  1  0
  6 30  1  0
  7 31  1  0
 10 32  1  0
 11 33  1  0
 14 34  1  0
 14 35  1  0
 15 36  1  0
 15 37  1  0
 16 38  1  0
 17 39  1  0
 17 40  1  0
 18 41  1  0
 18 42  1  0
 20 43  1  0
 22 44  1  0
 25 45  1  0
 29 46  1  0
M  CHG  1   4  -1
M  END
>  <UniqueID>  (13) 
12

>  <SMILES>  (13) 
O=S(=O)([N-]c1ccc2nccc(N3CCNCC3)c2c1)c1cc(Cl)cc(Cl)c1O

>  <Energy>  (13) 
68.36792592505215

>  <Genealogy>  (13) 
O=S(=O)([N-]c1ccc2nccc(N3CCNCC3)c2c1)c1cc(Cl)cc(Cl)c1O (protonated)
O=S(=O)([N-]c1ccc2nccc(N3CCNCC3)c2c1)c1cc(Cl)cc(Cl)c1O (3D coordinates assigned)
O=S(=O)([N-]c1ccc2nccc(N3CCNCC3)c2c1)c1cc(Cl)cc(Cl)c1O (nonaromatic ring conformer: 68.36792592505215 kcal/mol)

>  <smiles>  (13) 
O=S(=O)(Nc1ccc2nccc(N3CCNCC3)c2c1)c1cc(Cl)cc(Cl)c1O

>  <score_type>  (13) 
oracle

>  <origin>  (13) 
adgpu

>  <m_score__min__energy>  (13) 
-11.43

>  <m_primary>  (13) 
energy

$$$$
13:0
     RDKit          3D

 27 28  0  0  0  0  0  0  0  0999 V2000
   -7.8970   23.4970  -32.3220 N   0  0  0  0  0  0  0  0  0  0  0  0
   -6.9200   23.6330  -31.7170 C   0  0  0  0  0  0  0  0  0  0  0  0
   -5.7050   23.8030  -30.9640 C   0  0  0  0  0  0  0  0  0  0  0  0
   -5.1300   22.7180  -30.2950 C   0  0  0  0  0  0  0  0  0  0  0  0
   -3.9510   22.8950  -29.5690 C   0  0  0  0  0  0  0  0  0  0  0  0
   -3.3590   24.1670  -29.5110 C   0  0  0  0  0  0  0  0  0  0  0  0
   -2.0640   24.3830  -28.7580 C   0  0  2  0  0  0  0  0  0  0  0  0
   -2.2200   24.0080  -27.2720 C   0  0  0  0  0  0  0  0  0  0  0  0
   -0.8720   24.1050  -26.5340 C   0  0  0  0  0  0  0  0  0  0  0  0
    0.0840   25.1220  -27.1810 C   0  0  0  0  0  0  0  0  0  0  0  0
   -0.6930   26.2580  -27.8570 C   0  0  0  0  0  0  0  0  0  0  0  0
   -1.5910   25.7770  -28.9290 N   0  0  0  0  0  0  0  0  0  0  0  0
   -3.9350   25.2030  -30.1830 N   0  0  0  0  0  0  0  0  0  0  0  0
   -5.0830   25.0530  -30.8960 C   0  0  0  0  0  0  0  0  0  0  0  0
   -5.6057   21.7272  -30.3408 H   0  0  0  0  0  0  0  0  0  0  0  0
   -3.4891   22.0445  -29.0463 H   0  0  0  0  0  0  0  0  0  0  0  0
   -1.2976   23.7166  -29.1807 H   0  0  0  0  0  0  0  0  0  0  0  0
   -2.9382   24.6953  -26.8010 H   0  0  0  0  0  0  0  0  0  0  0  0
   -2.5806   22.9707  -27.2083 H   0  0  0  0  0  0  0  0  0  0  0  0
   -1.0606   24.4106  -25.4943 H   0  0  0  0  0  0  0  0  0  0  0  0
   -0.3919   23.1166  -26.5852 H   0  0  0  0  0  0  0  0  0  0  0  0
    0.7368   25.5461  -26.4038 H   0  0  0  0  0  0  0  0  0  0  0  0
    0.6802   24.6031  -27.9461 H   0  0  0  0  0  0  0  0  0  0  0  0
   -1.2980   26.7721  -27.0956 H   0  0  0  0  0  0  0  0  0  0  0  0
    0.0418   26.9344  -28.3181 H   0  0  0  0  0  0  0  0  0  0  0  0
   -2.4080   26.4320  -28.9680 H   0  0  0  0  0  0  0  0  0  0  0  0
   -5.5222   25.9152  -31.4192 H   0  0  0  0  0  0  0  0  0  0  0  0
  1  2  3  0
  2  3  1  0
  3  4  2  0
  4  5  1  0
  5  6  2  0
  6  7  1  0
  7  8  1  0
  8  9  1  0
  9 10  1  0
 10 11  1  0
 11 12  1  0
  6 13  1  0
 13 14  2  0
 14  3  1  0
 12  7  1  0
  4 15  1  0
  5 16  1  0
  7 17  1  6
  8 18  1  0
  8 19  1  0
  9 20  1  0
  9 21  1  0
 10 22  1  0
 10 23  1  0
 11 24  1  0
 11 25  1  0
 12 26  1  0
 14 27  1  0
M  END
>  <UniqueID>  (14) 
13

>  <SMILES>  (14) 
N#Cc1ccc([C@@H]2CCCCN2)nc1

>  <Energy>  (14) 
32.40933577783964

>  <Genealogy>  (14) 
N#Cc1ccc([C@@H]2CCCCN2)nc1 (chirality)
N#Cc1ccc([C@@H]2CCCCN2)nc1 (3D coordinates assigned)
N#Cc1ccc([C@@H]2CCCCN2)nc1 (nonaromatic ring conformer: 32.40933577783964 kcal/mol)

>  <smiles>  (14) 
N#Cc1ccc(C2CCCCN2)nc1

>  <score_type>  (14) 
oracle

>  <origin>  (14) 
adgpu

>  <m_score__min__energy>  (14) 
-6.2800000000000002

>  <m_primary>  (14) 
energy

$$$$
14:0
     RDKit          3D

 50 53  0  0  0  0  0  0  0  0999 V2000
   -7.1410   26.5510  -29.2480 H   0  0  0  0  0  0  0  0  0  0  0  0
   -7.0220   25.6270  -29.7210 N   0  0  0  0  0  0  0  0  0  0  0  0
   -5.8830   25.2800  -30.2260 C   0  0  0  0  0  0  0  0  0  0  0  0
   -4.7730   26.0340  -30.1960 N   0  0  0  0  0  0  0  0  0  0  0  0
   -3.8650   25.3140  -30.7990 O   0  0  0  0  0  0  0  0  0  0  0  0
   -4.2960   24.1540  -31.2180 N   0  0  0  0  0  0  0  0  0  0  0  0
   -5.5930   24.1050  -30.8670 C   0  0  0  0  0  0  0  0  0  0  0  0
   -6.4730   22.9950  -31.1040 N   0  0  0  0  0  0  0  0  0  0  0  0
   -7.7820   23.0310  -30.9020 N   0  0  0  0  0  0  0  0  0  0  0  0
   -8.3340   21.8580  -31.1850 N   0  0  0  0  0  0  0  0  0  0  0  0
   -7.3340   21.0430  -31.5720 C   0  0  0  0  0  0  0  0  0  0  0  0
   -7.5600   19.4050  -32.1640 S   0  0  0  0  0  0  0  0  0  0  0  0
   -9.0300   19.0990  -32.2310 O   0  0  0  0  0  0  0  0  0  0  0  0
   -6.9040   18.4370  -31.2190 O   0  0  0  0  0  0  0  0  0  0  0  0
   -6.8580   19.2750  -33.8030 C   0  0  0  0  0  0  0  0  0  0  0  0
   -7.6723   19.2177  -34.5404 H   0  0  0  0  0  0  0  0  0  0  0  0
   -6.2332   20.1609  -33.9898 H   0  0  0  0  0  0  0  0  0  0  0  0
   -6.0000   18.0480  -33.9210 C   0  0  0  0  0  0  0  0  0  0  0  0
   -6.5610   16.7740  -33.7470 C   0  0  0  0  0  0  0  0  0  0  0  0
   -7.6356   16.6723  -33.5351 H   0  0  0  0  0  0  0  0  0  0  0  0
   -5.7590   15.6340  -33.8420 C   0  0  0  0  0  0  0  0  0  0  0  0
   -6.2043   14.6369  -33.7095 H   0  0  0  0  0  0  0  0  0  0  0  0
   -4.3920   15.7580  -34.1050 C   0  0  0  0  0  0  0  0  0  0  0  0
   -3.7672   14.8562  -34.1850 H   0  0  0  0  0  0  0  0  0  0  0  0
   -3.8100   17.0270  -34.2680 C   0  0  0  0  0  0  0  0  0  0  0  0
   -2.3570   17.1670  -34.5350 C   0  0  0  0  0  0  0  0  0  0  0  0
   -1.7860   16.5550  -35.6970 N   0  0  0  0  0  0  0  0  0  0  0  0
   -2.3950   16.1210  -36.4250 H   0  0  0  0  0  0  0  0  0  0  0  0
   -0.7560   16.5800  -35.8650 H   0  0  0  0  0  0  0  0  0  0  0  0
   -1.5950   17.8330  -33.7210 N   0  0  0  0  0  0  0  0  0  0  0  0
   -1.9700   18.2650  -32.8470 H   0  0  0  0  0  0  0  0  0  0  0  0
   -0.5720   17.9350  -33.9090 H   0  0  0  0  0  0  0  0  0  0  0  0
   -4.6220   18.1690  -34.1650 C   0  0  0  0  0  0  0  0  0  0  0  0
   -4.1742   19.1675  -34.2765 H   0  0  0  0  0  0  0  0  0  0  0  0
   -6.1550   21.7550  -31.5260 C   0  0  0  0  0  0  0  0  0  0  0  0
   -4.8210   21.2820  -31.9310 C   0  0  0  0  0  0  0  0  0  0  0  0
   -4.0380   20.5340  -31.0410 C   0  0  0  0  0  0  0  0  0  0  0  0
   -4.4403   20.2578  -30.0552 H   0  0  0  0  0  0  0  0  0  0  0  0
   -2.7470   20.1380  -31.4030 C   0  0  0  0  0  0  0  0  0  0  0  0
   -2.1343   19.5565  -30.6984 H   0  0  0  0  0  0  0  0  0  0  0  0
   -2.2280   20.4810  -32.6670 C   0  0  0  0  0  0  0  0  0  0  0  0
   -0.9330   20.1260  -33.0690 O   0  0  0  0  0  0  0  0  0  0  0  0
   -0.1290   20.8940  -33.9580 C   0  0  0  0  0  0  0  0  0  0  0  0
    0.5464   21.5392  -33.3770 H   0  0  0  0  0  0  0  0  0  0  0  0
    0.4643   20.2187  -34.5920 H   0  0  0  0  0  0  0  0  0  0  0  0
   -0.7765   21.5176  -34.5920 H   0  0  0  0  0  0  0  0  0  0  0  0
   -3.0240   21.2090  -33.5570 C   0  0  0  0  0  0  0  0  0  0  0  0
   -2.6346   21.4635  -34.5538 H   0  0  0  0  0  0  0  0  0  0  0  0
   -4.3100   21.6160  -33.1910 C   0  0  0  0  0  0  0  0  0  0  0  0
   -4.9219   22.1999  -33.8943 H   0  0  0  0  0  0  0  0  0  0  0  0
  1  2  1  0
  2  3  2  0
  3  4  1  0
  4  5  1  0
  5  6  1  0
  6  7  2  0
  7  8  1  0
  8  9  1  0
  9 10  2  0
 10 11  1  0
 11 12  1  0
 12 13  2  0
 12 14  2  0
 12 15  1  0
 15 16  1  0
 15 17  1  0
 15 18  1  0
 18 19  2  0
 19 20  1  0
 19 21  1  0
 21 22  1  0
 21 23  2  0
 23 24  1  0
 23 25  1  0
 25 26  1  0
 26 27  1  0
 27 28  1  0
 27 29  1  0
 26 30  2  0
 30 31  1  0
 30 32  1  0
 25 33  2  0
 33 34  1  0
 11 35  2  0
 35 36  1  0
 36 37  2  0
 37 38  1  0
 37 39  1  0
 39 40  1  0
 39 41  2  0
 41 42  1  0
 42 43  1  0
 43 44  1  0
 43 45  1  0
 43 46  1  0
 41 47  1  0
 47 48  1  0
 47 49  2  0
 49 50  1  0
  7  3  1  0
 35  8  1  0
 49 36  1  0
 33 18  1  0
M  CHG  2   4  -1  30   1
M  END
>  <UniqueID>  (15) 
14

>  <SMILES>  (15) 
[H]/N=c1\[n-]onc1-n1nnc(S(=O)(=O)Cc2cccc(C(N)=[NH2+])c2)c1-c1ccc(OC)cc1

>  <Energy>  (15) 
130.31616788380492

>  <Genealogy>  (15) 
COc1ccc(-c2c(S(=O)(=O)Cc3cccc(C(N)=[NH2+])c3)nnn2-c2no[n-]c2=N)cc1 (protonated)
[H]/N=c1\[n-]onc1-n1nnc(S(=O)(=O)Cc2cccc(C(N)=[NH2+])c2)c1-c1ccc(OC)cc1 (cis-trans isomerization)
[H]/N=c1\[n-]onc1-n1nnc(S(=O)(=O)Cc2cccc(C(N)=[NH2+])c2)c1-c1ccc(OC)cc1 (3D coordinates assigned)
[H]/N=c1\[n-]onc1-n1nnc(S(=O)(=O)Cc2cccc(C(N)=[NH2+])c2)c1-c1ccc(OC)cc1 (optimized conformer: 130.31616788380492 kcal/mol)

>  <smiles>  (15) 
COc1ccc(-c2c(S(=O)(=O)Cc3cccc(C(=N)N)c3)nnn2-c2no[nH]c2=N)cc1

>  <score_type>  (15) 
oracle

>  <origin>  (15) 
adgpu

>  <m_score__min__energy>  (15) 
-10.73

>  <m_primary>  (15) 
energy

$$$$
15:0
     RDKit          3D

 37 39  0  0  0  0  0  0  0  0999 V2000
   -9.5150   21.5690  -31.1020 C   0  0  0  0  0  0  0  0  0  0  0  0
   -8.5750   20.6190  -31.7840 C   0  0  0  0  0  0  0  0  0  0  0  0
   -8.6560   19.2420  -31.5310 C   0  0  0  0  0  0  0  0  0  0  0  0
   -7.8090   18.3520  -32.1970 C   0  0  0  0  0  0  0  0  0  0  0  0
   -6.8800   18.8270  -33.1390 C   0  0  0  0  0  0  0  0  0  0  0  0
   -6.0070   17.8660  -33.8990 C   0  0  0  0  0  0  0  0  0  0  0  0
   -4.5960   17.3100  -32.8770 S   0  0  0  0  0  0  0  0  0  0  0  0
   -3.7380   18.8800  -32.9420 C   0  0  0  0  0  0  0  0  0  0  0  0
   -2.6430   19.0190  -33.7320 N   0  0  0  0  0  0  0  0  0  0  0  0
   -1.9590   20.1910  -33.7750 C   0  0  0  0  0  0  0  0  0  0  0  0
   -0.6410   20.3200  -34.7310 S   0  0  0  0  0  0  0  0  0  0  0  0
   -2.3830   21.2740  -33.0000 C   0  0  0  0  0  0  0  0  0  0  0  0
   -3.5160   21.1180  -32.1840 C   0  0  0  0  0  0  0  0  0  0  0  0
   -4.0290   22.2230  -31.3340 C   0  0  0  0  0  0  0  0  0  0  0  0
   -5.3850   22.2920  -30.9570 C   0  0  0  0  0  0  0  0  0  0  0  0
   -5.8470   23.3460  -30.1630 C   0  0  0  0  0  0  0  0  0  0  0  0
   -4.9670   24.3460  -29.7420 C   0  0  0  0  0  0  0  0  0  0  0  0
   -3.6230   24.2960  -30.1170 C   0  0  0  0  0  0  0  0  0  0  0  0
   -2.7490   25.2930  -29.7010 O   0  0  0  0  0  0  0  0  0  0  0  0
   -3.1550   23.2440  -30.9120 C   0  0  0  0  0  0  0  0  0  0  0  0
   -4.1670   19.9210  -32.1830 N   0  0  0  0  0  0  0  0  0  0  0  0
   -6.8130   20.2030  -33.4040 C   0  0  0  0  0  0  0  0  0  0  0  0
   -7.6580   21.0930  -32.7350 C   0  0  0  0  0  0  0  0  0  0  0  0
   -9.4131   21.4661  -30.0116 H   0  0  0  0  0  0  0  0  0  0  0  0
   -9.2721   22.6004  -31.3972 H   0  0  0  0  0  0  0  0  0  0  0  0
  -10.5489   21.3370  -31.3972 H   0  0  0  0  0  0  0  0  0  0  0  0
   -9.3894   18.8608  -30.8052 H   0  0  0  0  0  0  0  0  0  0  0  0
   -7.8696   17.2747  -31.9831 H   0  0  0  0  0  0  0  0  0  0  0  0
   -6.6058   16.9908  -34.1915 H   0  0  0  0  0  0  0  0  0  0  0  0
   -5.6135   18.3797  -34.7885 H   0  0  0  0  0  0  0  0  0  0  0  0
   -1.8400   22.2302  -33.0284 H   0  0  0  0  0  0  0  0  0  0  0  0
   -6.0848   21.5113  -31.2897 H   0  0  0  0  0  0  0  0  0  0  0  0
   -6.9062   23.3880  -29.8690 H   0  0  0  0  0  0  0  0  0  0  0  0
   -5.3329   25.1726  -29.1152 H   0  0  0  0  0  0  0  0  0  0  0  0
   -2.0965   23.2140  -31.2098 H   0  0  0  0  0  0  0  0  0  0  0  0
   -6.0917   20.5835  -34.1422 H   0  0  0  0  0  0  0  0  0  0  0  0
   -7.6041   22.1695  -32.9548 H   0  0  0  0  0  0  0  0  0  0  0  0
  1  2  1  0
  2  3  2  0
  3  4  1  0
  4  5  2  0
  5  6  1  0
  6  7  1  0
  7  8  1  0
  8  9  2  0
  9 10  1  0
 10 11  2  0
 10 12  1  0
 12 13  2  0
 13 14  1  0
 14 15  2  0
 15 16  1  0
 16 17  2  0
 17 18  1  0
 18 19  1  0
 18 20  2  0
 13 21  1  0
  5 22  1  0
 22 23  2  0
 23  2  1  0
 21  8  1  0
 20 14  1  0
  1 24  1  0
  1 25  1  0
  1 26  1  0
  3 27  1  0
  4 28  1  0
  6 29  1  0
  6 30  1  0
 12 31  1  0
 15 32  1  0
 16 33  1  0
 17 34  1  0
 20 35  1  0
 22 36  1  0
 23 37  1  0
M  CHG  2  19  -1  21  -1
M  END
>  <UniqueID>  (16) 
15

>  <SMILES>  (16) 
Cc1ccc(CSc2nc(=S)cc(-c3cccc([O-])c3)[n-]2)cc1

>  <Energy>  (16) 
38.2616671864293

>  <Genealogy>  (16) 
Cc1ccc(CSc2nc(=S)cc(-c3cccc([O-])c3)[n-]2)cc1 (protonated)
Cc1ccc(CSc2nc(=S)cc(-c3cccc([O-])c3)[n-]2)cc1 (3D coordinates assigned)
Cc1ccc(CSc2nc(=S)cc(-c3cccc([O-])c3)[n-]2)cc1 (optimized conformer: 38.2616671864293 kcal/mol)

>  <smiles>  (16) 
Cc1ccc(CSc2nc(=S)cc(-c3cccc(O)c3)[nH]2)cc1

>  <score_type>  (16) 
oracle

>  <origin>  (16) 
adgpu

>  <m_score__min__energy>  (16) 
-11.57

>  <m_primary>  (16) 
energy

$$$$
16:0
     RDKit          3D

 49 51  0  0  0  0  0  0  0  0999 V2000
   -1.3220   21.6160  -26.2480 C   0  0  0  0  0  0  0  0  0  0  0  0
   -1.2870   22.8860  -27.0590 C   0  0  0  0  0  0  0  0  0  0  0  0
   -2.1300   23.0250  -28.1760 C   0  0  0  0  0  0  0  0  0  0  0  0
   -2.0870   24.1770  -28.9670 C   0  0  0  0  0  0  0  0  0  0  0  0
   -2.9650   24.2690  -30.0960 N   0  0  0  0  0  0  0  0  0  0  0  0
   -3.3770   23.1640  -30.9060 C   0  0  0  0  0  0  0  0  0  0  0  0
   -2.8470   22.0360  -30.7200 O   0  0  0  0  0  0  0  0  0  0  0  0
   -4.3730   23.3370  -31.9210 N   0  0  0  0  0  0  0  0  0  0  0  0
   -5.7240   22.8660  -31.8340 C   0  0  0  0  0  0  0  0  0  0  0  0
   -6.7470   23.8060  -31.7420 C   0  0  0  0  0  0  0  0  0  0  0  0
   -8.0690   23.3980  -31.6190 C   0  0  0  0  0  0  0  0  0  0  0  0
   -8.4040   22.0370  -31.6460 C   0  0  0  0  0  0  0  0  0  0  0  0
   -9.8580   21.6710  -31.4770 C   0  0  0  0  0  0  0  0  0  0  0  0
   -7.3890   21.0660  -31.8750 C   0  0  0  0  0  0  0  0  0  0  0  0
   -7.8440   19.3720  -32.2180 S   0  0  0  0  0  0  0  0  0  0  0  0
   -9.0240   19.2930  -33.1450 O   0  0  0  0  0  0  0  0  0  0  0  0
   -8.2600   18.7170  -30.9310 O   0  0  0  0  0  0  0  0  0  0  0  0
   -6.4780   18.5160  -32.8880 N   0  0  0  0  0  0  0  0  0  0  0  0
   -6.1650   19.0240  -34.2330 C   0  0  0  0  0  0  0  0  0  0  0  0
   -5.0660   18.1660  -34.8960 C   0  0  0  0  0  0  0  0  0  0  0  0
   -4.5540   17.2010  -34.0010 O   0  0  0  0  0  0  0  0  0  0  0  0
   -5.5910   16.3200  -33.6070 C   0  0  0  0  0  0  0  0  0  0  0  0
   -6.7660   17.0750  -32.9470 C   0  0  0  0  0  0  0  0  0  0  0  0
   -6.0320   21.4920  -31.9000 C   0  0  0  0  0  0  0  0  0  0  0  0
   -4.9680   20.5890  -31.9940 O   0  0  0  0  0  0  0  0  0  0  0  0
   -1.2280   25.2330  -28.6060 C   0  0  0  0  0  0  0  0  0  0  0  0
   -1.2330   26.4310  -29.3110 O   0  0  0  0  0  0  0  0  0  0  0  0
   -0.3770   25.0940  -27.5040 C   0  0  0  0  0  0  0  0  0  0  0  0
   -0.3940   23.9260  -26.7350 C   0  0  0  0  0  0  0  0  0  0  0  0
    0.7100   23.8020  -25.3710 Cl  0  0  0  0  0  0  0  0  0  0  0  0
   -1.3151   21.8649  -25.1765 H   0  0  0  0  0  0  0  0  0  0  0  0
   -2.2360   21.0529  -26.4878 H   0  0  0  0  0  0  0  0  0  0  0  0
   -0.4404   21.0034  -26.4878 H   0  0  0  0  0  0  0  0  0  0  0  0
   -2.8320   22.2173  -28.4305 H   0  0  0  0  0  0  0  0  0  0  0  0
   -6.5066   24.8791  -31.7669 H   0  0  0  0  0  0  0  0  0  0  0  0
   -8.8618   24.1511  -31.4991 H   0  0  0  0  0  0  0  0  0  0  0  0
  -10.0987   21.6104  -30.4054 H   0  0  0  0  0  0  0  0  0  0  0  0
  -10.4869   22.4389  -31.9512 H   0  0  0  0  0  0  0  0  0  0  0  0
  -10.0484   20.6969  -31.9512 H   0  0  0  0  0  0  0  0  0  0  0  0
   -7.0732   18.9899  -34.8527 H   0  0  0  0  0  0  0  0  0  0  0  0
   -5.8024   20.0588  -34.1456 H   0  0  0  0  0  0  0  0  0  0  0  0
   -5.4921   17.6524  -35.7704 H   0  0  0  0  0  0  0  0  0  0  0  0
   -4.2424   18.8307  -35.1959 H   0  0  0  0  0  0  0  0  0  0  0  0
   -5.9634   15.7887  -34.4953 H   0  0  0  0  0  0  0  0  0  0  0  0
   -5.1793   15.6162  -32.8687 H   0  0  0  0  0  0  0  0  0  0  0  0
   -7.6797   16.9114  -33.5372 H   0  0  0  0  0  0  0  0  0  0  0  0
   -6.9054   16.6958  -31.9239 H   0  0  0  0  0  0  0  0  0  0  0  0
   -3.9980   20.8630  -32.0010 H   0  0  0  0  0  0  0  0  0  0  0  0
    0.3113   25.9105  -27.2403 H   0  0  0  0  0  0  0  0  0  0  0  0
  1  2  1  0
  2  3  2  0
  3  4  1  0
  4  5  1  0
  5  6  1  0
  6  7  2  0
  6  8  1  0
  8  9  1  0
  9 10  2  0
 10 11  1  0
 11 12  2  0
 12 13  1  0
 12 14  1  0
 14 15  1  0
 15 16  2  0
 15 17  2  0
 15 18  1  0
 18 19  1  0
 19 20  1  0
 20 21  1  0
 21 22  1  0
 22 23  1  0
 14 24  2  0
 24 25  1  0
  4 26  2  0
 26 27  1  0
 26 28  1  0
 28 29  2  0
 29 30  1  0
 29  2  1  0
 24  9  1  0
 23 18  1  0
  1 31  1  0
  1 32  1  0
  1 33  1  0
  3 34  1  0
 10 35  1  0
 11 36  1  0
 13 37  1  0
 13 38  1  0
 13 39  1  0
 19 40  1  0
 19 41  1  0
 20 42  1  0
 20 43  1  0
 22 44  1  0
 22 45  1  0
 23 46  1  0
 23 47  1  0
 25 48  1  0
 28 49  1  0
M  CHG  3   5  -1   8  -1  27  -1
M  END
>  <UniqueID>  (17) 
16

>  <SMILES>  (17) 
Cc1cc([N-]C(=O)[N-]c2ccc(C)c(S(=O)(=O)N3CCOCC3)c2O)c([O-])cc1Cl

>  <Energy>  (17) 
76.99637052528972

>  <Genealogy>  (17) 
Cc1cc([N-]C(=O)[N-]c2ccc(C)c(S(=O)(=O)N3CCOCC3)c2O)c([O-])cc1Cl (protonated)
Cc1cc([N-]C(=O)[N-]c2ccc(C)c(S(=O)(=O)N3CCOCC3)c2O)c([O-])cc1Cl (3D coordinates assigned)
Cc1cc([N-]C(=O)[N-]c2ccc(C)c(S(=O)(=O)N3CCOCC3)c2O)c([O-])cc1Cl (nonaromatic ring conformer: 76.99637052528972 kcal/mol)

>  <smiles>  (17) 
Cc1cc(NC(=O)Nc2ccc(C)c(S(=O)(=O)N3CCOCC3)c2O)c(O)cc1Cl

>  <score_type>  (17) 
oracle

>  <origin>  (17) 
adgpu

>  <m_score__min__energy>  (17) 
-14.970000000000001

>  <m_primary>  (17) 
energy

$$$$
17:0
     RDKit          3D

 33 35  0  0  0  0  0  0  0  0999 V2000
   -8.3730   18.2810  -31.2070 N   0  0  0  0  0  0  0  0  0  0  0  0
   -8.3120   19.2370  -31.8560 C   0  0  0  0  0  0  0  0  0  0  0  0
   -8.2330   20.4480  -32.6790 C   0  0  0  0  0  0  0  0  0  0  0  0
   -7.0330   21.2590  -32.2930 C   0  0  0  0  0  0  0  0  0  0  0  0
   -7.0720   22.3910  -31.4880 C   0  0  0  0  0  0  0  0  0  0  0  0
   -5.8240   22.8610  -31.2830 N   0  0  0  0  0  0  0  0  0  0  0  0
   -5.4010   24.2300  -30.3060 S   0  0  0  0  0  0  0  0  0  0  0  0
   -6.5910   24.6700  -29.5000 O   0  0  0  0  0  0  0  0  0  0  0  0
   -4.9750   25.3560  -31.2060 O   0  0  0  0  0  0  0  0  0  0  0  0
   -4.0970   23.7900  -29.2090 C   0  0  0  0  0  0  0  0  0  0  0  0
   -4.2480   22.6950  -28.3470 C   0  0  0  0  0  0  0  0  0  0  0  0
   -3.2110   22.3370  -27.4790 C   0  0  0  0  0  0  0  0  0  0  0  0
   -2.0230   23.0730  -27.4680 C   0  0  0  0  0  0  0  0  0  0  0  0
   -1.8710   24.1690  -28.3210 C   0  0  0  0  0  0  0  0  0  0  0  0
   -2.9060   24.5290  -29.1910 C   0  0  0  0  0  0  0  0  0  0  0  0
   -4.9870   22.0350  -31.9370 C   0  0  0  0  0  0  0  0  0  0  0  0
   -3.5930   22.1100  -31.9910 C   0  0  0  0  0  0  0  0  0  0  0  0
   -2.9040   21.1280  -32.7160 C   0  0  0  0  0  0  0  0  0  0  0  0
   -3.6090   20.0950  -33.3650 C   0  0  0  0  0  0  0  0  0  0  0  0
   -5.0140   20.0290  -33.2990 C   0  0  0  0  0  0  0  0  0  0  0  0
   -5.8950   18.5880  -34.2010 Br  0  0  0  0  0  0  0  0  0  0  0  0
   -5.6860   21.0280  -32.5710 C   0  0  0  0  0  0  0  0  0  0  0  0
   -8.1533   20.1628  -33.7384 H   0  0  0  0  0  0  0  0  0  0  0  0
   -9.1396   21.0502  -32.5193 H   0  0  0  0  0  0  0  0  0  0  0  0
   -7.9885   22.8394  -31.0770 H   0  0  0  0  0  0  0  0  0  0  0  0
   -5.1834   22.1163  -28.3531 H   0  0  0  0  0  0  0  0  0  0  0  0
   -3.3307   21.4760  -26.8050 H   0  0  0  0  0  0  0  0  0  0  0  0
   -1.2070   22.7891  -26.7872 H   0  0  0  0  0  0  0  0  0  0  0  0
   -0.9367   24.7495  -28.3086 H   0  0  0  0  0  0  0  0  0  0  0  0
   -2.7850   25.3927  -29.8614 H   0  0  0  0  0  0  0  0  0  0  0  0
   -3.0506   22.9181  -31.4783 H   0  0  0  0  0  0  0  0  0  0  0  0
   -1.8064   21.1640  -32.7787 H   0  0  0  0  0  0  0  0  0  0  0  0
   -3.0551   19.3309  -33.9301 H   0  0  0  0  0  0  0  0  0  0  0  0
  1  2  3  0
  2  3  1  0
  3  4  1  0
  4  5  2  0
  5  6  1  0
  6  7  1  0
  7  8  2  0
  7  9  2  0
  7 10  1  0
 10 11  2  0
 11 12  1  0
 12 13  2  0
 13 14  1  0
 14 15  2  0
  6 16  1  0
 16 17  2  0
 17 18  1  0
 18 19  2  0
 19 20  1  0
 20 21  1  0
 20 22  2  0
 22  4  1  0
 15 10  1  0
 22 16  1  0
  3 23  1  0
  3 24  1  0
  5 25  1  0
 11 26  1  0
 12 27  1  0
 13 28  1  0
 14 29  1  0
 15 30  1  0
 17 31  1  0
 18 32  1  0
 19 33  1  0
M  END
>  <UniqueID>  (18) 
17

>  <SMILES>  (18) 
N#CCc1cn(S(=O)(=O)c2ccccc2)c2cccc(Br)c12

>  <Energy>  (18) 
70.70493832635083

>  <Genealogy>  (18) 
N#CCc1cn(S(=O)(=O)c2ccccc2)c2cccc(Br)c12 (3D coordinates assigned)
N#CCc1cn(S(=O)(=O)c2ccccc2)c2cccc(Br)c12 (optimized conformer: 70.70493832635083 kcal/mol)

>  <smiles>  (18) 
N#CCc1cn(S(=O)(=O)c2ccccc2)c2cccc(Br)c12

>  <score_type>  (18) 
oracle

>  <origin>  (18) 
adgpu

>  <m_score__min__energy>  (18) 
-8.9199999999999999

>  <m_primary>  (18) 
energy

$$$$
18:0
     RDKit          3D

 41 43  0  0  0  0  0  0  0  0999 V2000
   -0.5110   17.6900  -27.3260 N   0  0  0  0  0  0  0  0  0  0  0  0
   -0.7480   18.8150  -27.4630 C   0  0  0  0  0  0  0  0  0  0  0  0
   -1.0430   20.2140  -27.6340 C   0  0  0  0  0  0  0  0  0  0  0  0
   -0.0100   21.1230  -27.8920 C   0  0  0  0  0  0  0  0  0  0  0  0
   -0.2960   22.4820  -28.0560 C   0  0  0  0  0  0  0  0  0  0  0  0
   -1.6170   22.9400  -27.9610 C   0  0  0  0  0  0  0  0  0  0  0  0
   -1.9810   24.6520  -28.1560 S   0  0  0  0  0  0  0  0  0  0  0  0
   -0.6990   25.4320  -28.0880 O   0  0  0  0  0  0  0  0  0  0  0  0
   -2.9020   25.1250  -27.0670 O   0  0  0  0  0  0  0  0  0  0  0  0
   -2.7330   24.9300  -29.6940 N   0  0  0  0  0  0  0  0  0  0  0  0
   -3.9170   24.2730  -30.1670 C   0  0  0  0  0  0  0  0  0  0  0  0
   -5.2070   24.7410  -29.8580 C   0  0  0  0  0  0  0  0  0  0  0  0
   -6.3340   24.0630  -30.3330 C   0  0  0  0  0  0  0  0  0  0  0  0
   -6.1880   22.9090  -31.1140 C   0  0  0  0  0  0  0  0  0  0  0  0
   -7.6060   22.0610  -31.7180 S   0  0  0  0  0  0  0  0  0  0  0  0
   -8.2470   21.3110  -30.5840 O   0  0  0  0  0  0  0  0  0  0  0  0
   -8.5750   23.0590  -32.2900 O   0  0  0  0  0  0  0  0  0  0  0  0
   -7.1240   20.9530  -32.9660 N   0  0  0  0  0  0  0  0  0  0  0  0
   -6.8130   19.6990  -32.8050 C   0  0  0  0  0  0  0  0  0  0  0  0
   -6.4430   18.9520  -33.9320 C   0  0  0  0  0  0  0  0  0  0  0  0
   -6.1030   17.6070  -33.7890 C   0  0  0  0  0  0  0  0  0  0  0  0
   -6.1340   17.0150  -32.5290 C   0  0  0  0  0  0  0  0  0  0  0  0
   -6.5060   17.7810  -31.4230 C   0  0  0  0  0  0  0  0  0  0  0  0
   -6.8350   19.0930  -31.5750 N   0  0  0  0  0  0  0  0  0  0  0  0
   -4.9030   22.4480  -31.4310 C   0  0  0  0  0  0  0  0  0  0  0  0
   -3.7760   23.1270  -30.9580 C   0  0  0  0  0  0  0  0  0  0  0  0
   -2.6510   22.0270  -27.7100 C   0  0  0  0  0  0  0  0  0  0  0  0
   -2.3640   20.6680  -27.5450 C   0  0  0  0  0  0  0  0  0  0  0  0
    1.0284   20.7676  -27.9658 H   0  0  0  0  0  0  0  0  0  0  0  0
    0.5179   23.1932  -28.2601 H   0  0  0  0  0  0  0  0  0  0  0  0
   -5.3297   25.6432  -29.2407 H   0  0  0  0  0  0  0  0  0  0  0  0
   -7.3399   24.4375  -30.0923 H   0  0  0  0  0  0  0  0  0  0  0  0
   -6.4209   19.4247  -34.9250 H   0  0  0  0  0  0  0  0  0  0  0  0
   -5.8111   17.0154  -34.6692 H   0  0  0  0  0  0  0  0  0  0  0  0
   -5.8681   15.9547  -32.4065 H   0  0  0  0  0  0  0  0  0  0  0  0
   -6.5334   17.3221  -30.4237 H   0  0  0  0  0  0  0  0  0  0  0  0
   -7.1050   19.6170  -30.7140 H   0  0  0  0  0  0  0  0  0  0  0  0
   -4.7808   21.5495  -32.0537 H   0  0  0  0  0  0  0  0  0  0  0  0
   -2.7708   22.7577  -31.2095 H   0  0  0  0  0  0  0  0  0  0  0  0
   -3.6905   22.3803  -27.6427 H   0  0  0  0  0  0  0  0  0  0  0  0
   -3.1775   19.9551  -27.3450 H   0  0  0  0  0  0  0  0  0  0  0  0
  1  2  3  0
  2  3  1  0
  3  4  2  0
  4  5  1  0
  5  6  2  0
  6  7  1  0
  7  8  2  0
  7  9  2  0
  7 10  1  0
 10 11  1  0
 11 12  2  0
 12 13  1  0
 13 14  2  0
 14 15  1  0
 15 16  2  0
 15 17  2  0
 15 18  1  0
 18 19  2  3
 19 20  1  0
 20 21  2  0
 21 22  1  0
 22 23  2  0
 23 24  1  0
 14 25  1  0
 25 26  2  0
  6 27  1  0
 27 28  2  0
 28  3  1  0
 26 11  1  0
 24 19  1  0
  4 29  1  0
  5 30  1  0
 12 31  1  0
 13 32  1  0
 20 33  1  0
 21 34  1  0
 22 35  1  0
 23 36  1  0
 24 37  1  0
 25 38  1  0
 26 39  1  0
 27 40  1  0
 28 41  1  0
M  CHG  1  10  -1
M  END
>  <UniqueID>  (19) 
18

>  <SMILES>  (19) 
N#Cc1ccc(S(=O)(=O)[N-]c2ccc(S(=O)(=O)N=c3cccc[nH]3)cc2)cc1

>  <Energy>  (19) 
52.05750190621004

>  <Genealogy>  (19) 
N#Cc1ccc(S(=O)(=O)[N-]c2ccc(S(=O)(=O)N=c3cccc[nH]3)cc2)cc1 (protonated)
N#Cc1ccc(S(=O)(=O)[N-]c2ccc(S(=O)(=O)N=c3cccc[nH]3)cc2)cc1 (3D coordinates assigned)
N#Cc1ccc(S(=O)(=O)[N-]c2ccc(S(=O)(=O)N=c3cccc[nH]3)cc2)cc1 (optimized conformer: 52.05750190621004 kcal/mol)

>  <smiles>  (19) 
N#Cc1ccc(S(=O)(=O)Nc2ccc(S(=O)(=O)N=c3cccc[nH]3)cc2)cc1

>  <score_type>  (19) 
oracle

>  <origin>  (19) 
adgpu

>  <m_score__min__energy>  (19) 
-10.9

>  <m_primary>  (19) 
energy

$$$$
19:0
     RDKit          3D

 40 42  0  0  0  0  0  0  0  0999 V2000
   -0.9050   26.7980  -28.1490 C   0  0  0  0  0  0  0  0  0  0  0  0
   -1.4070   25.7000  -28.9610 N   0  0  0  0  0  0  0  0  0  0  0  0
   -0.9920   24.3320  -28.8590 C   0  0  0  0  0  0  0  0  0  0  0  0
    0.1850   24.0360  -29.1940 O   0  0  0  0  0  0  0  0  0  0  0  0
   -1.8910   23.2620  -28.3750 C   0  0  0  0  0  0  0  0  0  0  0  0
   -1.4220   21.6870  -28.0120 S   0  0  0  0  0  0  0  0  0  0  0  0
   -2.9550   21.0780  -27.7100 C   0  0  0  0  0  0  0  0  0  0  0  0
   -3.8720   22.1010  -27.9020 C   0  0  0  0  0  0  0  0  0  0  0  0
   -3.2860   23.3220  -28.2820 C   0  0  0  0  0  0  0  0  0  0  0  0
   -4.0400   24.5250  -28.5100 N   0  0  0  0  0  0  0  0  0  0  0  0
   -4.9980   24.7750  -29.9330 S   0  0  0  0  0  0  0  0  0  0  0  0
   -4.2560   25.6740  -30.8800 O   0  0  0  0  0  0  0  0  0  0  0  0
   -6.2930   25.4320  -29.5430 O   0  0  0  0  0  0  0  0  0  0  0  0
   -5.2960   23.2350  -30.7300 C   0  0  0  0  0  0  0  0  0  0  0  0
   -6.5740   22.6640  -30.6900 C   0  0  0  0  0  0  0  0  0  0  0  0
   -6.8230   21.4490  -31.3340 C   0  0  0  0  0  0  0  0  0  0  0  0
   -5.7960   20.7840  -32.0270 C   0  0  0  0  0  0  0  0  0  0  0  0
   -6.0600   19.4950  -32.7160 C   0  0  0  0  0  0  0  0  0  0  0  0
   -5.4590   19.2080  -33.9560 C   0  0  0  0  0  0  0  0  0  0  0  0
   -5.7110   17.9940  -34.6010 C   0  0  0  0  0  0  0  0  0  0  0  0
   -6.5620   17.0530  -34.0180 C   0  0  0  0  0  0  0  0  0  0  0  0
   -7.1650   17.3250  -32.7880 C   0  0  0  0  0  0  0  0  0  0  0  0
   -6.9190   18.5380  -32.1390 C   0  0  0  0  0  0  0  0  0  0  0  0
   -4.5130   21.3610  -32.0580 C   0  0  0  0  0  0  0  0  0  0  0  0
   -4.2660   22.5760  -31.4140 C   0  0  0  0  0  0  0  0  0  0  0  0
   -1.0192   26.5483  -27.0838 H   0  0  0  0  0  0  0  0  0  0  0  0
    0.1587   26.9644  -28.3746 H   0  0  0  0  0  0  0  0  0  0  0  0
   -1.4750   27.7113  -28.3746 H   0  0  0  0  0  0  0  0  0  0  0  0
   -3.1923   20.0462  -27.4114 H   0  0  0  0  0  0  0  0  0  0  0  0
   -4.9561   21.9697  -27.7695 H   0  0  0  0  0  0  0  0  0  0  0  0
   -3.9950   25.3050  -27.8190 H   0  0  0  0  0  0  0  0  0  0  0  0
   -7.3851   23.1738  -30.1495 H   0  0  0  0  0  0  0  0  0  0  0  0
   -7.8307   21.0093  -31.2985 H   0  0  0  0  0  0  0  0  0  0  0  0
   -4.7865   19.9441  -34.4205 H   0  0  0  0  0  0  0  0  0  0  0  0
   -5.2377   17.7793  -35.5705 H   0  0  0  0  0  0  0  0  0  0  0  0
   -6.7574   16.0978  -34.5273 H   0  0  0  0  0  0  0  0  0  0  0  0
   -7.8349   16.5830  -32.3291 H   0  0  0  0  0  0  0  0  0  0  0  0
   -7.3989   18.7473  -31.1716 H   0  0  0  0  0  0  0  0  0  0  0  0
   -3.6982   20.8515  -32.5934 H   0  0  0  0  0  0  0  0  0  0  0  0
   -3.2587   23.0170  -31.4441 H   0  0  0  0  0  0  0  0  0  0  0  0
  1  2  1  0
  2  3  1  0
  3  4  2  0
  3  5  1  0
  5  6  1  0
  6  7  1  0
  7  8  2  0
  8  9  1  0
  9 10  1  0
 10 11  1  0
 11 12  2  0
 11 13  2  0
 11 14  1  0
 14 15  2  0
 15 16  1  0
 16 17  2  0
 17 18  1  0
 18 19  2  0
 19 20  1  0
 20 21  2  0
 21 22  1  0
 22 23  2  0
 17 24  1  0
 24 25  2  0
  9  5  2  0
 25 14  1  0
 23 18  1  0
  1 26  1  0
  1 27  1  0
  1 28  1  0
  7 29  1  0
  8 30  1  0
 10 31  1  0
 15 32  1  0
 16 33  1  0
 19 34  1  0
 20 35  1  0
 21 36  1  0
 22 37  1  0
 23 38  1  0
 24 39  1  0
 25 40  1  0
M  CHG  1   2  -1
M  END
>  <UniqueID>  (20) 
19

>  <SMILES>  (20) 
C[N-]C(=O)c1sccc1NS(=O)(=O)c1ccc(-c2ccccc2)cc1

>  <Energy>  (20) 
78.12609349362435

>  <Genealogy>  (20) 
C[N-]C(=O)c1sccc1NS(=O)(=O)c1ccc(-c2ccccc2)cc1 (protonated)
C[N-]C(=O)c1sccc1NS(=O)(=O)c1ccc(-c2ccccc2)cc1 (3D coordinates assigned)
C[N-]C(=O)c1sccc1NS(=O)(=O)c1ccc(-c2ccccc2)cc1 (optimized conformer: 78.12609349362435 kcal/mol)

>  <smiles>  (20) 
CNC(=O)c1sccc1NS(=O)(=O)c1ccc(-c2ccccc2)cc1

>  <score_type>  (20) 
oracle

>  <origin>  (20) 
adgpu

>  <m_score__min__energy>  (20) 
-11.460000000000001

>  <m_primary>  (20) 
energy

$$$$
20:0
     RDKit          3D

 32 34  0  0  0  0  0  0  0  0999 V2000
    4.8440   18.7480  -29.9470 C   0  0  0  0  0  0  0  0  0  0  0  0
    3.7040   17.9090  -30.1110 O   0  0  0  0  0  0  0  0  0  0  0  0
    2.4810   18.0930  -29.4490 C   0  0  0  0  0  0  0  0  0  0  0  0
    1.9850   17.1720  -28.5120 C   0  0  0  0  0  0  0  0  0  0  0  0
    0.7540   17.3760  -27.8770 C   0  0  0  0  0  0  0  0  0  0  0  0
    0.3100   16.3540  -27.0330 O   0  0  0  0  0  0  0  0  0  0  0  0
    0.0180   18.5710  -28.1330 C   0  0  0  0  0  0  0  0  0  0  0  0
   -1.1700   18.9430  -27.4610 C   0  0  0  0  0  0  0  0  0  0  0  0
   -1.6380   18.2600  -26.5120 O   0  0  0  0  0  0  0  0  0  0  0  0
   -1.8330   20.1210  -27.8200 C   0  0  0  0  0  0  0  0  0  0  0  0
   -2.9890   20.4970  -27.1410 O   0  0  0  0  0  0  0  0  0  0  0  0
   -1.2980   20.9290  -28.8370 C   0  0  0  0  0  0  0  0  0  0  0  0
   -1.9570   22.1770  -29.2850 C   0  0  0  0  0  0  0  0  0  0  0  0
   -3.1470   22.1030  -30.0290 C   0  0  0  0  0  0  0  0  0  0  0  0
   -3.7960   23.2690  -30.4430 C   0  0  0  0  0  0  0  0  0  0  0  0
   -3.2750   24.5210  -30.1060 C   0  0  0  0  0  0  0  0  0  0  0  0
   -3.9260   25.6760  -30.5210 O   0  0  0  0  0  0  0  0  0  0  0  0
   -2.1030   24.6070  -29.3450 C   0  0  0  0  0  0  0  0  0  0  0  0
   -1.5890   25.8500  -28.9940 O   0  0  0  0  0  0  0  0  0  0  0  0
   -1.4500   23.4410  -28.9310 C   0  0  0  0  0  0  0  0  0  0  0  0
   -0.1470   20.5870  -29.4060 O   0  0  0  0  0  0  0  0  0  0  0  0
    0.5210   19.4800  -29.0990 C   0  0  0  0  0  0  0  0  0  0  0  0
    1.7350   19.2330  -29.7430 C   0  0  0  0  0  0  0  0  0  0  0  0
    5.0412   18.8931  -28.8746 H   0  0  0  0  0  0  0  0  0  0  0  0
    5.7178   18.2759  -30.4199 H   0  0  0  0  0  0  0  0  0  0  0  0
    4.6530   19.7226  -30.4199 H   0  0  0  0  0  0  0  0  0  0  0  0
    2.5741   16.2744  -28.2727 H   0  0  0  0  0  0  0  0  0  0  0  0
   -0.4980   16.4140  -26.4320 H   0  0  0  0  0  0  0  0  0  0  0  0
   -3.5701   21.1210  -30.2870 H   0  0  0  0  0  0  0  0  0  0  0  0
   -4.7199   23.2012  -31.0361 H   0  0  0  0  0  0  0  0  0  0  0  0
   -0.5347   23.5128  -28.3251 H   0  0  0  0  0  0  0  0  0  0  0  0
    2.1074   19.9473  -30.4920 H   0  0  0  0  0  0  0  0  0  0  0  0
  1  2  1  0
  2  3  1  0
  3  4  2  0
  4  5  1  0
  5  6  1  0
  5  7  2  0
  7  8  1  0
  8  9  2  0
  8 10  1  0
 10 11  1  0
 10 12  2  0
 12 13  1  0
 13 14  2  0
 14 15  1  0
 15 16  2  0
 16 17  1  0
 16 18  1  0
 18 19  1  0
 18 20  2  0
 12 21  1  0
 21 22  1  0
 22 23  2  0
 23  3  1  0
 22  7  1  0
 20 13  1  0
  1 24  1  0
  1 25  1  0
  1 26  1  0
  4 27  1  0
  6 28  1  0
 14 29  1  0
 15 30  1  0
 20 31  1  0
 23 32  1  0
M  CHG  3  11  -1  17  -1  19  -1
M  END
>  <UniqueID>  (21) 
20

>  <SMILES>  (21) 
COc1cc(O)c2c(=O)c([O-])c(-c3ccc([O-])c([O-])c3)oc2c1

>  <Energy>  (21) 
52.11416654122571

>  <Genealogy>  (21) 
COc1cc(O)c2c(=O)c([O-])c(-c3ccc([O-])c([O-])c3)oc2c1 (protonated)
COc1cc(O)c2c(=O)c([O-])c(-c3ccc([O-])c([O-])c3)oc2c1 (3D coordinates assigned)
COc1cc(O)c2c(=O)c([O-])c(-c3ccc([O-])c([O-])c3)oc2c1 (optimized conformer: 52.11416654122571 kcal/mol)

>  <smiles>  (21) 
COc1cc(O)c2c(=O)c(O)c(-c3ccc(O)c(O)c3)oc2c1

>  <score_type>  (21) 
oracle

>  <origin>  (21) 
adgpu

>  <m_score__min__energy>  (21) 
-11.460000000000001

>  <m_primary>  (21) 
energy

$$$$
21:0
     RDKit          3D

 46 48  0  0  0  0  0  0  0  0999 V2000
   -0.2620   27.2080  -23.3720 C   0  0  0  0  0  0  0  0  0  0  0  0
   -0.6480   26.8240  -24.7690 C   0  0  0  0  0  0  0  0  0  0  0  0
   -1.4720   25.7110  -24.9920 C   0  0  0  0  0  0  0  0  0  0  0  0
   -1.8030   25.3290  -26.2970 C   0  0  0  0  0  0  0  0  0  0  0  0
   -1.3150   26.0590  -27.3940 C   0  0  0  0  0  0  0  0  0  0  0  0
   -1.6180   25.6810  -28.7440 N   0  0  0  0  0  0  0  0  0  0  0  0
   -1.3820   24.3950  -29.3310 C   0  0  0  0  0  0  0  0  0  0  0  0
   -0.2290   23.8970  -29.2500 O   0  0  0  0  0  0  0  0  0  0  0  0
   -2.4310   23.6890  -30.0960 C   0  0  0  0  0  0  0  0  0  0  0  0
   -3.9640   24.3190  -30.4050 S   0  0  0  0  0  0  0  0  0  0  0  0
   -4.5050   23.0350  -31.3360 C   0  0  0  0  0  0  0  0  0  0  0  0
   -5.7770   23.0070  -31.9940 N   0  0  0  0  0  0  0  0  0  0  0  0
   -7.0220   22.9700  -31.2840 C   0  0  0  0  0  0  0  0  0  0  0  0
   -7.0760   23.3110  -30.0710 O   0  0  0  0  0  0  0  0  0  0  0  0
   -8.2620   22.4880  -31.9710 C   0  0  0  0  0  0  0  0  0  0  0  0
   -8.1600   21.0070  -32.2070 C   0  0  0  0  0  0  0  0  0  0  0  0
   -7.0860   20.4790  -32.9450 C   0  0  0  0  0  0  0  0  0  0  0  0
   -6.9590   19.0970  -33.1130 C   0  0  0  0  0  0  0  0  0  0  0  0
   -7.8960   18.2330  -32.5400 C   0  0  0  0  0  0  0  0  0  0  0  0
   -8.9600   18.7490  -31.7940 C   0  0  0  0  0  0  0  0  0  0  0  0
   -9.0910   20.1310  -31.6230 C   0  0  0  0  0  0  0  0  0  0  0  0
   -3.4780   22.0990  -31.4670 C   0  0  0  0  0  0  0  0  0  0  0  0
   -3.5600   20.9520  -32.3390 C   0  0  0  0  0  0  0  0  0  0  0  0
   -3.6250   20.0320  -33.0390 N   0  0  0  0  0  0  0  0  0  0  0  0
   -2.3130   22.4550  -30.7530 C   0  0  0  0  0  0  0  0  0  0  0  0
   -1.0570   21.6280  -30.7450 C   0  0  0  0  0  0  0  0  0  0  0  0
   -0.4580   27.1440  -27.1700 C   0  0  0  0  0  0  0  0  0  0  0  0
   -0.1270   27.5260  -25.8670 C   0  0  0  0  0  0  0  0  0  0  0  0
   -0.8526   26.6204  -22.6538 H   0  0  0  0  0  0  0  0  0  0  0  0
    0.8084   27.0059  -23.2187 H   0  0  0  0  0  0  0  0  0  0  0  0
   -0.4585   28.2794  -23.2187 H   0  0  0  0  0  0  0  0  0  0  0  0
   -1.8595   25.1362  -24.1379 H   0  0  0  0  0  0  0  0  0  0  0  0
   -2.4478   24.4537  -26.4647 H   0  0  0  0  0  0  0  0  0  0  0  0
   -5.7960   23.1040  -33.0330 H   0  0  0  0  0  0  0  0  0  0  0  0
   -9.1371   22.6993  -31.3389 H   0  0  0  0  0  0  0  0  0  0  0  0
   -8.3725   23.0064  -32.9349 H   0  0  0  0  0  0  0  0  0  0  0  0
   -6.3429   21.1559  -33.3918 H   0  0  0  0  0  0  0  0  0  0  0  0
   -6.1206   18.6892  -33.6968 H   0  0  0  0  0  0  0  0  0  0  0  0
   -7.7964   17.1460  -32.6760 H   0  0  0  0  0  0  0  0  0  0  0  0
   -9.6949   18.0673  -31.3410 H   0  0  0  0  0  0  0  0  0  0  0  0
   -9.9252   20.5335  -31.0296 H   0  0  0  0  0  0  0  0  0  0  0  0
   -0.7554   21.4294  -29.7060 H   0  0  0  0  0  0  0  0  0  0  0  0
   -1.2424   20.6747  -31.2616 H   0  0  0  0  0  0  0  0  0  0  0  0
   -0.2545   22.1750  -31.2616 H   0  0  0  0  0  0  0  0  0  0  0  0
   -0.0431   27.6986  -28.0245 H   0  0  0  0  0  0  0  0  0  0  0  0
    0.5450   28.3809  -25.7012 H   0  0  0  0  0  0  0  0  0  0  0  0
  1  2  1  0
  2  3  2  0
  3  4  1  0
  4  5  2  0
  5  6  1  0
  6  7  1  0
  7  8  2  0
  7  9  1  0
  9 10  1  0
 10 11  1  0
 11 12  1  0
 12 13  1  0
 13 14  2  0
 13 15  1  0
 15 16  1  0
 16 17  2  0
 17 18  1  0
 18 19  2  0
 19 20  1  0
 20 21  2  0
 11 22  2  0
 22 23  1  0
 23 24  3  0
 22 25  1  0
 25 26  1  0
  5 27  1  0
 27 28  2  0
 28  2  1  0
 25  9  2  0
 21 16  1  0
  1 29  1  0
  1 30  1  0
  1 31  1  0
  3 32  1  0
  4 33  1  0
 12 34  1  0
 15 35  1  0
 15 36  1  0
 17 37  1  0
 18 38  1  0
 19 39  1  0
 20 40  1  0
 21 41  1  0
 26 42  1  0
 26 43  1  0
 26 44  1  0
 27 45  1  0
 28 46  1  0
M  CHG  1   6  -1
M  END
>  <UniqueID>  (22) 
21

>  <SMILES>  (22) 
Cc1ccc([N-]C(=O)c2sc(NC(=O)Cc3ccccc3)c(C#N)c2C)cc1

>  <Energy>  (22) 
81.25786566590257

>  <Genealogy>  (22) 
Cc1ccc([N-]C(=O)c2sc(NC(=O)Cc3ccccc3)c(C#N)c2C)cc1 (protonated)
Cc1ccc([N-]C(=O)c2sc(NC(=O)Cc3ccccc3)c(C#N)c2C)cc1 (3D coordinates assigned)
Cc1ccc([N-]C(=O)c2sc(NC(=O)Cc3ccccc3)c(C#N)c2C)cc1 (optimized conformer: 81.25786566590257 kcal/mol)

>  <smiles>  (22) 
Cc1ccc(NC(=O)c2sc(NC(=O)Cc3ccccc3)c(C#N)c2C)cc1

>  <score_type>  (22) 
oracle

>  <origin>  (22) 
adgpu

>  <m_score__min__energy>  (22) 
-11.029999999999999

>  <m_primary>  (22) 
energy

$$$$
22:0
     RDKit          3D

 61 64  0  0  0  0  0  0  0  0999 V2000
   -8.2010   19.9190  -31.8260 C   0  0  0  0  0  0  0  0  0  0  0  0
   -7.4240   21.1420  -31.4150 C   0  0  0  0  0  0  0  0  0  0  0  0
   -7.9680   21.9930  -30.4380 C   0  0  0  0  0  0  0  0  0  0  0  0
   -7.2820   23.1350  -30.0270 C   0  0  0  0  0  0  0  0  0  0  0  0
   -6.0400   23.4470  -30.5850 C   0  0  0  0  0  0  0  0  0  0  0  0
   -5.1740   24.8900  -30.0560 S   0  0  0  0  0  0  0  0  0  0  0  0
   -6.1620   25.8980  -29.5400 O   0  0  0  0  0  0  0  0  0  0  0  0
   -4.4370   25.5010  -31.2170 O   0  0  0  0  0  0  0  0  0  0  0  0
   -4.0520   24.4950  -28.7910 N   0  0  0  0  0  0  0  0  0  0  0  0
   -4.1670   23.0820  -28.4470 C   0  0  0  0  0  0  0  0  0  0  0  0
   -3.0880   22.3160  -29.1520 C   0  0  0  0  0  0  0  0  0  0  0  0
   -1.7490   22.7220  -29.0350 C   0  0  0  0  0  0  0  0  0  0  0  0
   -0.7340   21.9880  -29.6530 C   0  0  0  0  0  0  0  0  0  0  0  0
   -1.0430   20.8310  -30.3820 C   0  0  0  0  0  0  0  0  0  0  0  0
    0.0280   20.0550  -31.0360 C   0  0  0  0  0  0  0  0  0  0  0  0
    0.8810   19.2830  -30.2310 C   0  0  0  0  0  0  0  0  0  0  0  0
    1.8920   18.5120  -30.8060 C   0  0  0  0  0  0  0  0  0  0  0  0
    2.0670   18.5080  -32.1910 C   0  0  0  0  0  0  0  0  0  0  0  0
    1.2360   19.2790  -33.0020 C   0  0  0  0  0  0  0  0  0  0  0  0
    0.2150   20.0640  -32.4400 C   0  0  0  0  0  0  0  0  0  0  0  0
   -0.7860   21.0580  -33.5120 S   0  0  0  0  0  0  0  0  0  0  0  0
   -1.6910   20.0390  -34.5740 N   0  0  0  0  0  0  0  0  0  0  0  0
    0.0860   21.9680  -34.3290 O   0  0  0  0  0  0  0  0  0  0  0  0
   -1.7260   21.9050  -32.7020 O   0  0  0  0  0  0  0  0  0  0  0  0
   -2.3800   20.4250  -30.5040 C   0  0  0  0  0  0  0  0  0  0  0  0
   -3.3950   21.1560  -29.8810 C   0  0  0  0  0  0  0  0  0  0  0  0
   -5.4740   22.5950  -31.5400 C   0  0  0  0  0  0  0  0  0  0  0  0
   -6.1470   21.4350  -31.9550 C   0  0  0  0  0  0  0  0  0  0  0  0
   -5.3830   20.3960  -33.1690 S   0  0  0  0  0  0  0  0  0  0  0  0
   -6.3940   19.9970  -34.2070 O   0  0  0  0  0  0  0  0  0  0  0  0
   -4.2490   21.1500  -33.8080 O   0  0  0  0  0  0  0  0  0  0  0  0
   -4.7710   18.9580  -32.4130 N   0  0  0  0  0  0  0  0  0  0  0  0
   -4.7690   17.6470  -32.9990 C   0  0  0  0  0  0  0  0  0  0  0  0
   -5.3560   16.5440  -32.3530 C   0  0  0  0  0  0  0  0  0  0  0  0
   -5.3400   15.2830  -32.9590 C   0  0  0  0  0  0  0  0  0  0  0  0
   -4.7380   15.1120  -34.2050 C   0  0  0  0  0  0  0  0  0  0  0  0
   -4.1450   16.2000  -34.8500 C   0  0  0  0  0  0  0  0  0  0  0  0
   -4.1590   17.4680  -34.2510 C   0  0  0  0  0  0  0  0  0  0  0  0
   -3.5660   18.5520  -34.8960 O   0  0  0  0  0  0  0  0  0  0  0  0
   -8.5419   19.3824  -30.9283 H   0  0  0  0  0  0  0  0  0  0  0  0
   -9.0724   20.2223  -32.4249 H   0  0  0  0  0  0  0  0  0  0  0  0
   -7.5562   19.2591  -32.4249 H   0  0  0  0  0  0  0  0  0  0  0  0
   -8.9455   21.7556  -29.9928 H   0  0  0  0  0  0  0  0  0  0  0  0
   -7.7200   23.7921  -29.2612 H   0  0  0  0  0  0  0  0  0  0  0  0
   -4.0568   22.9575  -27.3596 H   0  0  0  0  0  0  0  0  0  0  0  0
   -5.1525   22.7042  -28.7568 H   0  0  0  0  0  0  0  0  0  0  0  0
   -1.4983   23.6219  -28.4542 H   0  0  0  0  0  0  0  0  0  0  0  0
    0.3115   22.3189  -29.5674 H   0  0  0  0  0  0  0  0  0  0  0  0
    0.7513   19.2860  -29.1387 H   0  0  0  0  0  0  0  0  0  0  0  0
    2.5519   17.9066  -30.1672 H   0  0  0  0  0  0  0  0  0  0  0  0
    2.8615   17.8958  -32.6427 H   0  0  0  0  0  0  0  0  0  0  0  0
    1.3808   19.2729  -34.0924 H   0  0  0  0  0  0  0  0  0  0  0  0
   -2.5560   20.5620  -34.8330 H   0  0  0  0  0  0  0  0  0  0  0  0
   -2.6301   19.5292  -31.0914 H   0  0  0  0  0  0  0  0  0  0  0  0
   -4.4396   20.8210  -29.9621 H   0  0  0  0  0  0  0  0  0  0  0  0
   -4.4909   22.8369  -31.9702 H   0  0  0  0  0  0  0  0  0  0  0  0
   -5.8291   16.6732  -31.3684 H   0  0  0  0  0  0  0  0  0  0  0  0
   -5.8035   14.4244  -32.4512 H   0  0  0  0  0  0  0  0  0  0  0  0
   -4.7300   14.1200  -34.6803 H   0  0  0  0  0  0  0  0  0  0  0  0
   -3.6657   16.0618  -35.8304 H   0  0  0  0  0  0  0  0  0  0  0  0
   -3.3670   19.4150  -34.4050 H   0  0  0  0  0  0  0  0  0  0  0  0
  1  2  1  0
  2  3  2  0
  3  4  1  0
  4  5  2  0
  5  6  1  0
  6  7  2  0
  6  8  2  0
  6  9  1  0
  9 10  1  0
 10 11  1  0
 11 12  2  0
 12 13  1  0
 13 14  2  0
 14 15  1  0
 15 16  2  0
 16 17  1  0
 17 18  2  0
 18 19  1  0
 19 20  2  0
 20 21  1  0
 21 22  1  0
 21 23  2  0
 21 24  2  0
 14 25  1  0
 25 26  2  0
  5 27  1  0
 27 28  2  0
 28 29  1  0
 29 30  2  0
 29 31  2  0
 29 32  1  0
 32 33  1  0
 33 34  2  0
 34 35  1  0
 35 36  2  0
 36 37  1  0
 37 38  2  0
 38 39  1  0
 28  2  1  0
 38 33  1  0
 26 11  1  0
 20 15  1  0
  1 40  1  0
  1 41  1  0
  1 42  1  0
  3 43  1  0
  4 44  1  0
 10 45  1  0
 10 46  1  0
 12 47  1  0
 13 48  1  0
 16 49  1  0
 17 50  1  0
 18 51  1  0
 19 52  1  0
 22 53  1  0
 25 54  1  0
 26 55  1  0
 27 56  1  0
 34 57  1  0
 35 58  1  0
 36 59  1  0
 37 60  1  0
 39 61  1  0
M  CHG  3   9  -1  22  -1  32  -1
M  END
>  <UniqueID>  (23) 
22

>  <SMILES>  (23) 
Cc1ccc(S(=O)(=O)[N-]Cc2ccc(-c3ccccc3S([NH-])(=O)=O)cc2)cc1S(=O)(=O)[N-]c1ccccc1O

>  <Energy>  (23) 
76.88484773139702

>  <Genealogy>  (23) 
Cc1ccc(S(=O)(=O)[N-]Cc2ccc(-c3ccccc3S([NH-])(=O)=O)cc2)cc1S(=O)(=O)[N-]c1ccccc1O (protonated)
Cc1ccc(S(=O)(=O)[N-]Cc2ccc(-c3ccccc3S([NH-])(=O)=O)cc2)cc1S(=O)(=O)[N-]c1ccccc1O (3D coordinates assigned)
Cc1ccc(S(=O)(=O)[N-]Cc2ccc(-c3ccccc3S([NH-])(=O)=O)cc2)cc1S(=O)(=O)[N-]c1ccccc1O (optimized conformer: 76.88484773139702 kcal/mol)

>  <smiles>  (23) 
Cc1ccc(S(=O)(=O)NCc2ccc(-c3ccccc3S(N)(=O)=O)cc2)cc1S(=O)(=O)Nc1ccccc1O

>  <score_type>  (23) 
oracle

>  <origin>  (23) 
adgpu

>  <m_score__min__energy>  (23) 
-12.93

>  <m_primary>  (23) 
energy

$$$$
23:0
     RDKit          3D

 49 51  0  0  0  0  0  0  0  0999 V2000
   -6.6870   19.8760  -32.0380 C   0  0  0  0  0  0  0  0  0  0  0  0
   -5.2520   19.5850  -31.9030 N   0  0  0  0  0  0  0  0  0  0  0  0
   -4.7950   18.7150  -33.0140 C   0  0  0  0  0  0  0  0  0  0  0  0
   -3.2790   18.8060  -33.2170 C   0  0  0  0  0  0  0  0  0  0  0  0
   -2.8770   20.2330  -33.6420 C   0  0  0  0  0  0  0  0  0  0  0  0
   -1.1570   20.5480  -33.2260 S   0  0  0  0  0  0  0  0  0  0  0  0
   -0.2730   19.5790  -33.9620 O   0  0  0  0  0  0  0  0  0  0  0  0
   -0.7820   21.9360  -33.6660 O   0  0  0  0  0  0  0  0  0  0  0  0
   -0.9230   20.3490  -31.4740 C   0  0  0  0  0  0  0  0  0  0  0  0
   -0.4020   19.1430  -30.9540 C   0  0  0  0  0  0  0  0  0  0  0  0
    0.0180   17.7740  -31.9800 Cl  0  0  0  0  0  0  0  0  0  0  0  0
   -0.2260   18.9930  -29.5770 C   0  0  0  0  0  0  0  0  0  0  0  0
   -0.5580   20.0250  -28.7050 C   0  0  0  0  0  0  0  0  0  0  0  0
   -1.0710   21.2320  -29.1980 C   0  0  0  0  0  0  0  0  0  0  0  0
   -1.3940   22.3050  -28.3020 N   0  0  0  0  0  0  0  0  0  0  0  0
   -1.5070   23.6870  -28.6700 C   0  0  0  0  0  0  0  0  0  0  0  0
   -0.4830   24.3000  -29.0650 O   0  0  0  0  0  0  0  0  0  0  0  0
   -2.7550   24.3920  -28.5940 N   0  0  0  0  0  0  0  0  0  0  0  0
   -3.9520   24.0450  -29.3050 C   0  0  0  0  0  0  0  0  0  0  0  0
   -4.7720   23.0340  -28.7890 C   0  0  0  0  0  0  0  0  0  0  0  0
   -5.9750   22.7070  -29.4190 C   0  0  0  0  0  0  0  0  0  0  0  0
   -6.3610   23.3780  -30.5860 C   0  0  0  0  0  0  0  0  0  0  0  0
   -7.6070   23.0510  -31.2280 C   0  0  0  0  0  0  0  0  0  0  0  0
   -8.6080   22.7890  -31.7450 N   0  0  0  0  0  0  0  0  0  0  0  0
   -5.5270   24.3630  -31.1320 C   0  0  0  0  0  0  0  0  0  0  0  0
   -4.3190   24.6880  -30.5040 C   0  0  0  0  0  0  0  0  0  0  0  0
   -3.4880   25.6380  -31.0890 O   0  0  0  0  0  0  0  0  0  0  0  0
   -1.2850   21.3850  -30.5820 C   0  0  0  0  0  0  0  0  0  0  0  0
   -1.8470   22.5650  -31.0760 O   0  0  0  0  0  0  0  0  0  0  0  0
   -3.8090   21.3090  -33.0370 C   0  0  0  0  0  0  0  0  0  0  0  0
   -4.4590   20.8290  -31.7300 C   0  0  0  0  0  0  0  0  0  0  0  0
   -7.1381   19.9675  -31.0390 H   0  0  0  0  0  0  0  0  0  0  0  0
   -6.8197   20.8193  -32.5880 H   0  0  0  0  0  0  0  0  0  0  0  0
   -7.1767   19.0589  -32.5880 H   0  0  0  0  0  0  0  0  0  0  0  0
   -5.0621   17.6730  -32.7841 H   0  0  0  0  0  0  0  0  0  0  0  0
   -5.2861   19.0525  -33.9386 H   0  0  0  0  0  0  0  0  0  0  0  0
   -2.7715   18.5522  -32.2747 H   0  0  0  0  0  0  0  0  0  0  0  0
   -2.9825   18.1017  -34.0083 H   0  0  0  0  0  0  0  0  0  0  0  0
   -2.9910   20.2991  -34.7341 H   0  0  0  0  0  0  0  0  0  0  0  0
    0.1785   18.0510  -29.1783 H   0  0  0  0  0  0  0  0  0  0  0  0
   -0.4169   19.8926  -27.6222 H   0  0  0  0  0  0  0  0  0  0  0  0
   -4.4666   22.4934  -27.8810 H   0  0  0  0  0  0  0  0  0  0  0  0
   -6.6199   21.9216  -28.9980 H   0  0  0  0  0  0  0  0  0  0  0  0
   -5.8223   24.8818  -32.0559 H   0  0  0  0  0  0  0  0  0  0  0  0
   -1.9860   23.3870  -30.5020 H   0  0  0  0  0  0  0  0  0  0  0  0
   -3.2204   22.2150  -32.8305 H   0  0  0  0  0  0  0  0  0  0  0  0
   -4.6099   21.5156  -33.7622 H   0  0  0  0  0  0  0  0  0  0  0  0
   -3.6656   20.6399  -30.9919 H   0  0  0  0  0  0  0  0  0  0  0  0
   -5.1493   21.6172  -31.3952 H   0  0  0  0  0  0  0  0  0  0  0  0
  1  2  1  0
  2  3  1  0
  3  4  1  0
  4  5  1  0
  5  6  1  0
  6  7  2  0
  6  8  2  0
  6  9  1  0
  9 10  2  0
 10 11  1  0
 10 12  1  0
 12 13  2  0
 13 14  1  0
 14 15  1  0
 15 16  1  0
 16 17  2  0
 16 18  1  0
 18 19  1  0
 19 20  2  0
 20 21  1  0
 21 22  2  0
 22 23  1  0
 23 24  3  0
 22 25  1  0
 25 26  2  0
 26 27  1  0
 14 28  2  0
 28 29  1  0
  5 30  1  0
 30 31  1  0
 31  2  1  0
 28  9  1  0
 26 19  1  0
  1 32  1  0
  1 33  1  0
  1 34  1  0
  3 35  1  0
  3 36  1  0
  4 37  1  0
  4 38  1  0
  5 39  1  0
 12 40  1  0
 13 41  1  0
 20 42  1  0
 21 43  1  0
 25 44  1  0
 29 45  1  0
 30 46  1  0
 30 47  1  0
 31 48  1  0
 31 49  1  0
M  CHG  3  15  -1  18  -1  27  -1
M  END
>  <UniqueID>  (24) 
23

>  <SMILES>  (24) 
CN1CCC(S(=O)(=O)c2c(Cl)ccc([N-]C(=O)[N-]c3ccc(C#N)cc3[O-])c2O)CC1

>  <Energy>  (24) 
66.24389374014586

>  <Genealogy>  (24) 
CN1CCC(S(=O)(=O)c2c(Cl)ccc([N-]C(=O)[N-]c3ccc(C#N)cc3[O-])c2O)CC1 (protonated)
CN1CCC(S(=O)(=O)c2c(Cl)ccc([N-]C(=O)[N-]c3ccc(C#N)cc3[O-])c2O)CC1 (3D coordinates assigned)
CN1CCC(S(=O)(=O)c2c(Cl)ccc([N-]C(=O)[N-]c3ccc(C#N)cc3[O-])c2O)CC1 (nonaromatic ring conformer: 66.24389374014586 kcal/mol)

>  <smiles>  (24) 
CN1CCC(S(=O)(=O)c2c(Cl)ccc(NC(=O)Nc3ccc(C#N)cc3O)c2O)CC1

>  <score_type>  (24) 
oracle

>  <origin>  (24) 
adgpu

>  <m_score__min__energy>  (24) 
-15.06

>  <m_primary>  (24) 
energy

$$$$
24:0
     RDKit          3D

 39 41  0  0  0  0  0  0  0  0999 V2000
   -5.7089   13.0972  -32.1708 H   0  0  0  0  0  0  0  0  0  0  0  0
   -4.9850   13.8420  -32.5330 C   0  0  0  0  0  0  0  0  0  0  0  0
   -3.7420   13.8080  -32.0310 C   0  0  0  0  0  0  0  0  0  0  0  0
   -3.5651   13.1437  -31.1723 H   0  0  0  0  0  0  0  0  0  0  0  0
   -2.5900   14.5850  -32.5310 C   0  0  0  0  0  0  0  0  0  0  0  0
   -2.6610   15.8690  -32.7960 O   0  0  0  0  0  0  0  0  0  0  0  0
   -1.4770   16.2880  -33.1820 C   0  0  0  0  0  0  0  0  0  0  0  0
   -1.2352   17.3196  -33.4777 H   0  0  0  0  0  0  0  0  0  0  0  0
   -0.5830   15.2370  -33.1600 C   0  0  0  0  0  0  0  0  0  0  0  0
    0.4833   15.2706  -33.4280 H   0  0  0  0  0  0  0  0  0  0  0  0
   -1.2950   14.1380  -32.7350 C   0  0  0  0  0  0  0  0  0  0  0  0
   -0.9143   13.1165  -32.5879 H   0  0  0  0  0  0  0  0  0  0  0  0
   -5.4410   14.8180  -33.5420 C   0  0  0  0  0  0  0  0  0  0  0  0
   -5.5479   14.4732  -34.5811 H   0  0  0  0  0  0  0  0  0  0  0  0
   -5.7330   16.0980  -33.2720 C   0  0  0  0  0  0  0  0  0  0  0  0
   -6.1790   17.2590  -34.5610 S   0  0  0  0  0  0  0  0  0  0  0  0
   -6.2780   18.5280  -33.2830 C   0  0  0  0  0  0  0  0  0  0  0  0
   -6.6750   19.8690  -33.6040 N   0  0  0  0  0  0  0  0  0  0  0  0
   -7.2460   20.0060  -34.4680 H   0  0  0  0  0  0  0  0  0  0  0  0
   -6.3390   21.0250  -32.8200 C   0  0  0  0  0  0  0  0  0  0  0  0
   -5.0580   21.5860  -32.9360 C   0  0  0  0  0  0  0  0  0  0  0  0
   -4.3323   21.1514  -33.6392 H   0  0  0  0  0  0  0  0  0  0  0  0
   -4.6990   22.6940  -32.1630 C   0  0  0  0  0  0  0  0  0  0  0  0
   -3.6974   23.1357  -32.2709 H   0  0  0  0  0  0  0  0  0  0  0  0
   -5.6090   23.2440  -31.2520 C   0  0  0  0  0  0  0  0  0  0  0  0
   -5.1640   24.6490  -30.2880 S   0  0  0  0  0  0  0  0  0  0  0  0
   -3.8990   25.2560  -30.8270 O   0  0  0  0  0  0  0  0  0  0  0  0
   -6.2580   25.6780  -30.3530 O   0  0  0  0  0  0  0  0  0  0  0  0
   -4.9250   24.1660  -28.6460 N   0  0  0  0  0  0  0  0  0  0  0  0
   -5.8650   23.9300  -28.2570 H   0  0  0  0  0  0  0  0  0  0  0  0
   -4.5890   25.0090  -28.1270 H   0  0  0  0  0  0  0  0  0  0  0  0
   -6.8830   22.6770  -31.1210 C   0  0  0  0  0  0  0  0  0  0  0  0
   -7.6024   23.1056  -30.4077 H   0  0  0  0  0  0  0  0  0  0  0  0
   -7.2440   21.5700  -31.8920 C   0  0  0  0  0  0  0  0  0  0  0  0
   -8.2415   21.1220  -31.7727 H   0  0  0  0  0  0  0  0  0  0  0  0
   -6.0850   18.1350  -32.0610 N   0  0  0  0  0  0  0  0  0  0  0  0
   -6.1930   18.7500  -31.2230 H   0  0  0  0  0  0  0  0  0  0  0  0
   -5.7740   16.7590  -31.9710 C   0  0  0  0  0  0  0  0  0  0  0  0
   -5.6000   16.1850  -30.8630 O   0  0  0  0  0  0  0  0  0  0  0  0
  1  2  1  0
  2  3  2  0
  3  4  1  0
  3  5  1  0
  5  6  1  0
  6  7  1  0
  7  8  1  0
  7  9  2  0
  9 10  1  0
  9 11  1  0
 11 12  1  0
  2 13  1  0
 13 14  1  0
 13 15  2  0
 15 16  1  0
 16 17  1  0
 17 18  1  0
 18 19  1  0
 18 20  1  0
 20 21  2  0
 21 22  1  0
 21 23  1  0
 23 24  1  0
 23 25  2  0
 25 26  1  0
 26 27  2  0
 26 28  2  0
 26 29  1  0
 29 30  1  0
 29 31  1  0
 25 32  1  0
 32 33  1  0
 32 34  2  0
 34 35  1  0
 17 36  2  0
 36 37  1  0
 36 38  1  0
 38 39  2  0
 11  5  2  0
 38 15  1  0
 34 20  1  0
M  CHG  1  36   1
M  END
>  <UniqueID>  (25) 
24

>  <SMILES>  (25) 
NS(=O)(=O)c1ccc(NC2=[NH+]C(=O)/C(=C\C=Cc3ccco3)S2)cc1

>  <Energy>  (25) 
95.86293542407728

>  <Genealogy>  (25) 
NS(=O)(=O)c1ccc(NC2=[NH+]C(=O)C(=CC=Cc3ccco3)S2)cc1 (protonated)
NS(=O)(=O)c1ccc(NC2=[NH+]C(=O)/C(=C\C=Cc3ccco3)S2)cc1 (cis-trans isomerization)
NS(=O)(=O)c1ccc(NC2=[NH+]C(=O)/C(=C\C=Cc3ccco3)S2)cc1 (3D coordinates assigned)
NS(=O)(=O)c1ccc(NC2=[NH+]C(=O)/C(=C\C=Cc3ccco3)S2)cc1 (nonaromatic ring conformer: 95.86293542407728 kcal/mol)

>  <smiles>  (25) 
NS(=O)(=O)c1ccc(NC2=NC(=O)C(=CC=Cc3ccco3)S2)cc1

>  <score_type>  (25) 
oracle

>  <origin>  (25) 
adgpu

>  <m_score__min__energy>  (25) 
-8.6199999999999992

>  <m_primary>  (25) 
energy

$$$$
25:0
     RDKit          3D

 58 61  0  0  0  0  0  0  0  0999 V2000
   -9.1130   18.4820  -31.6190 C   0  0  0  0  0  0  0  0  0  0  0  0
   -7.7310   18.7540  -31.4140 O   0  0  0  0  0  0  0  0  0  0  0  0
   -6.7040   18.3740  -32.2930 C   0  0  0  0  0  0  0  0  0  0  0  0
   -6.1180   17.0930  -32.2410 C   0  0  0  0  0  0  0  0  0  0  0  0
   -5.0970   16.7460  -33.1300 C   0  0  0  0  0  0  0  0  0  0  0  0
   -4.6470   17.6690  -34.0730 C   0  0  0  0  0  0  0  0  0  0  0  0
   -5.2170   18.9410  -34.1360 C   0  0  0  0  0  0  0  0  0  0  0  0
   -6.2500   19.3020  -33.2550 C   0  0  0  0  0  0  0  0  0  0  0  0
   -6.8680   20.6740  -33.3490 C   0  0  0  0  0  0  0  0  0  0  0  0
   -6.5640   21.4770  -32.1560 N   0  0  0  0  0  0  0  0  0  0  0  0
   -5.2520   21.6720  -31.6280 C   0  0  0  0  0  0  0  0  0  0  0  0
   -4.2400   21.0350  -32.0280 O   0  0  0  0  0  0  0  0  0  0  0  0
   -5.2130   22.6250  -30.5790 N   0  0  0  0  0  0  0  0  0  0  0  0
   -4.0930   22.9600  -29.7420 C   0  0  0  0  0  0  0  0  0  0  0  0
   -3.6740   22.0810  -28.7330 C   0  0  0  0  0  0  0  0  0  0  0  0
   -2.5900   22.4080  -27.9130 C   0  0  0  0  0  0  0  0  0  0  0  0
   -1.9160   23.6270  -28.0820 C   0  0  0  0  0  0  0  0  0  0  0  0
   -0.7770   23.9560  -27.2050 C   0  0  0  0  0  0  0  0  0  0  0  0
    0.2530   23.2300  -27.2440 O   0  0  0  0  0  0  0  0  0  0  0  0
   -0.8270   25.0760  -26.3030 N   0  0  0  0  0  0  0  0  0  0  0  0
    0.3610   25.6490  -25.6930 C   0  0  0  0  0  0  0  0  0  0  0  0
   -0.1440   26.5610  -24.5820 C   0  0  0  0  0  0  0  0  0  0  0  0
   -1.6360   26.7570  -24.8410 C   0  0  0  0  0  0  0  0  0  0  0  0
   -2.0590   25.6030  -25.7390 C   0  0  0  0  0  0  0  0  0  0  0  0
   -2.3160   24.4990  -29.1100 C   0  0  0  0  0  0  0  0  0  0  0  0
   -1.6260   25.6840  -29.3440 O   0  0  0  0  0  0  0  0  0  0  0  0
   -3.4030   24.1700  -29.9260 C   0  0  0  0  0  0  0  0  0  0  0  0
   -6.5650   23.0530  -30.4450 C   0  0  0  0  0  0  0  0  0  0  0  0
   -6.9320   23.9410  -29.6290 O   0  0  0  0  0  0  0  0  0  0  0  0
   -7.4890   22.3560  -31.4140 C   0  0  0  0  0  0  0  0  0  0  0  0
   -8.1500   23.3780  -32.3490 C   0  0  0  0  0  0  0  0  0  0  0  0
   -8.5350   21.5430  -30.6380 C   0  0  0  0  0  0  0  0  0  0  0  0
   -9.6156   18.3831  -30.6455 H   0  0  0  0  0  0  0  0  0  0  0  0
   -9.5692   19.3076  -32.1849 H   0  0  0  0  0  0  0  0  0  0  0  0
   -9.2223   17.5451  -32.1849 H   0  0  0  0  0  0  0  0  0  0  0  0
   -6.4664   16.3622  -31.4963 H   0  0  0  0  0  0  0  0  0  0  0  0
   -4.6477   15.7429  -33.0856 H   0  0  0  0  0  0  0  0  0  0  0  0
   -3.8408   17.3938  -34.7689 H   0  0  0  0  0  0  0  0  0  0  0  0
   -4.8552   19.6657  -34.8802 H   0  0  0  0  0  0  0  0  0  0  0  0
   -6.4703   21.1865  -34.2373 H   0  0  0  0  0  0  0  0  0  0  0  0
   -7.9596   20.5599  -33.4231 H   0  0  0  0  0  0  0  0  0  0  0  0
   -4.2020   21.1273  -28.5856 H   0  0  0  0  0  0  0  0  0  0  0  0
   -2.2638   21.7061  -27.1314 H   0  0  0  0  0  0  0  0  0  0  0  0
    0.9992   24.8554  -25.2772 H   0  0  0  0  0  0  0  0  0  0  0  0
    0.9677   26.2006  -26.4263 H   0  0  0  0  0  0  0  0  0  0  0  0
    0.0146   26.0908  -23.6003 H   0  0  0  0  0  0  0  0  0  0  0  0
    0.3924   27.5213  -24.5752 H   0  0  0  0  0  0  0  0  0  0  0  0
   -2.1954   26.7300  -23.8943 H   0  0  0  0  0  0  0  0  0  0  0  0
   -1.8397   27.7303  -25.3114 H   0  0  0  0  0  0  0  0  0  0  0  0
   -2.5749   24.8287  -25.1522 H   0  0  0  0  0  0  0  0  0  0  0  0
   -2.7580   25.9313  -26.5223 H   0  0  0  0  0  0  0  0  0  0  0  0
   -3.7203   24.8641  -30.7182 H   0  0  0  0  0  0  0  0  0  0  0  0
   -8.6510   24.1527  -31.7499 H   0  0  0  0  0  0  0  0  0  0  0  0
   -7.3822   23.8447  -32.9836 H   0  0  0  0  0  0  0  0  0  0  0  0
   -8.8905   22.8691  -32.9836 H   0  0  0  0  0  0  0  0  0  0  0  0
   -8.3709   21.6705  -29.5578 H   0  0  0  0  0  0  0  0  0  0  0  0
   -9.5429   21.8971  -30.9001 H   0  0  0  0  0  0  0  0  0  0  0  0
   -8.4406   20.4789  -30.9001 H   0  0  0  0  0  0  0  0  0  0  0  0
  1  2  1  0
  2  3  1  0
  3  4  2  0
  4  5  1  0
  5  6  2  0
  6  7  1  0
  7  8  2  0
  8  9  1  0
  9 10  1  0
 10 11  1  0
 11 12  2  0
 11 13  1  0
 13 14  1  0
 14 15  2  0
 15 16  1  0
 16 17  2  0
 17 18  1  0
 18 19  2  0
 18 20  1  0
 20 21  1  0
 21 22  1  0
 22 23  1  0
 23 24  1  0
 17 25  1  0
 25 26  1  0
 25 27  2  0
 13 28  1  0
 28 29  2  0
 28 30  1  0
 30 31  1  0
 30 32  1  0
  8  3  1  0
 30 10  1  0
 27 14  1  0
 24 20  1  0
  1 33  1  0
  1 34  1  0
  1 35  1  0
  4 36  1  0
  5 37  1  0
  6 38  1  0
  7 39  1  0
  9 40  1  0
  9 41  1  0
 15 42  1  0
 16 43  1  0
 21 44  1  0
 21 45  1  0
 22 46  1  0
 22 47  1  0
 23 48  1  0
 23 49  1  0
 24 50  1  0
 24 51  1  0
 27 52  1  0
 31 53  1  0
 31 54  1  0
 31 55  1  0
 32 56  1  0
 32 57  1  0
 32 58  1  0
M  CHG  1  26  -1
M  END
>  <UniqueID>  (26) 
25

>  <SMILES>  (26) 
COc1ccccc1CN1C(=O)N(c2ccc(C(=O)N3CCCC3)c([O-])c2)C(=O)C1(C)C

>  <Energy>  (26) 
85.21696857589484

>  <Genealogy>  (26) 
COc1ccccc1CN1C(=O)N(c2ccc(C(=O)N3CCCC3)c([O-])c2)C(=O)C1(C)C (protonated)
COc1ccccc1CN1C(=O)N(c2ccc(C(=O)N3CCCC3)c([O-])c2)C(=O)C1(C)C (3D coordinates assigned)
COc1ccccc1CN1C(=O)N(c2ccc(C(=O)N3CCCC3)c([O-])c2)C(=O)C1(C)C (nonaromatic ring conformer: 85.21696857589484 kcal/mol)

>  <smiles>  (26) 
COc1ccccc1CN1C(=O)N(c2ccc(C(=O)N3CCCC3)c(O)c2)C(=O)C1(C)C

>  <score_type>  (26) 
oracle

>  <origin>  (26) 
adgpu

>  <m_score__min__energy>  (26) 
-12.550000000000001

>  <m_primary>  (26) 
energy

$$$$
26:0
     RDKit          3D

 47 49  0  0  0  0  0  0  0  0999 V2000
   -1.3530   20.3810  -34.0990 C   0  0  0  0  0  0  0  0  0  0  0  0
   -1.6440   18.9200  -33.0540 S   0  0  0  0  0  0  0  0  0  0  0  0
   -3.2640   18.5800  -33.7560 C   0  0  0  0  0  0  0  0  0  0  0  0
   -3.3860   17.5160  -34.6600 C   0  0  0  0  0  0  0  0  0  0  0  0
   -4.6200   17.2210  -35.2430 C   0  0  0  0  0  0  0  0  0  0  0  0
   -5.7400   17.9930  -34.9360 C   0  0  0  0  0  0  0  0  0  0  0  0
   -5.6320   19.0560  -34.0370 C   0  0  0  0  0  0  0  0  0  0  0  0
   -4.3990   19.3550  -33.4230 C   0  0  0  0  0  0  0  0  0  0  0  0
   -4.2940   20.4620  -32.5070 N   0  0  0  0  0  0  0  0  0  0  0  0
   -5.3940   20.8920  -31.6870 C   0  0  0  0  0  0  0  0  0  0  0  0
   -6.2240   20.0320  -31.2800 O   0  0  0  0  0  0  0  0  0  0  0  0
   -5.5820   22.3210  -31.3210 C   0  0  0  0  0  0  0  0  0  0  0  0
   -6.8640   22.9020  -31.2420 C   0  0  0  0  0  0  0  0  0  0  0  0
   -7.0160   24.2360  -30.8520 C   0  0  0  0  0  0  0  0  0  0  0  0
   -5.9000   24.9970  -30.5030 C   0  0  0  0  0  0  0  0  0  0  0  0
   -4.6180   24.4350  -30.5440 C   0  0  0  0  0  0  0  0  0  0  0  0
   -3.5020   25.2270  -30.1120 N   0  0  0  0  0  0  0  0  0  0  0  0
   -2.3310   24.7260  -28.9350 S   0  0  0  0  0  0  0  0  0  0  0  0
   -1.0930   25.5670  -29.0850 O   0  0  0  0  0  0  0  0  0  0  0  0
   -2.8940   24.9220  -27.5570 O   0  0  0  0  0  0  0  0  0  0  0  0
   -1.9590   23.0170  -29.1660 C   0  0  0  0  0  0  0  0  0  0  0  0
   -1.3120   22.6040  -30.3370 C   0  0  0  0  0  0  0  0  0  0  0  0
   -0.9170   21.2730  -30.4910 C   0  0  0  0  0  0  0  0  0  0  0  0
   -1.1710   20.3450  -29.4780 C   0  0  0  0  0  0  0  0  0  0  0  0
   -1.8490   20.7360  -28.3090 C   0  0  0  0  0  0  0  0  0  0  0  0
   -2.0630   19.7500  -27.1890 C   0  0  0  0  0  0  0  0  0  0  0  0
   -1.3310   18.6030  -27.4440 F   0  0  0  0  0  0  0  0  0  0  0  0
   -3.4030   19.4160  -27.0830 F   0  0  0  0  0  0  0  0  0  0  0  0
   -1.6560   20.2890  -25.9800 F   0  0  0  0  0  0  0  0  0  0  0  0
   -2.2260   22.0830  -28.1560 C   0  0  0  0  0  0  0  0  0  0  0  0
   -4.4630   23.1080  -30.9820 C   0  0  0  0  0  0  0  0  0  0  0  0
   -1.1780   21.2595  -33.4605 H   0  0  0  0  0  0  0  0  0  0  0  0
   -0.4717   20.2079  -34.7341 H   0  0  0  0  0  0  0  0  0  0  0  0
   -2.2334   20.5588  -34.7341 H   0  0  0  0  0  0  0  0  0  0  0  0
   -2.5037   16.9092  -34.9119 H   0  0  0  0  0  0  0  0  0  0  0  0
   -4.7087   16.3789  -35.9451 H   0  0  0  0  0  0  0  0  0  0  0  0
   -6.7096   17.7643  -35.4025 H   0  0  0  0  0  0  0  0  0  0  0  0
   -6.5177   19.6659  -33.8057 H   0  0  0  0  0  0  0  0  0  0  0  0
   -3.3700   20.9300  -32.3820 H   0  0  0  0  0  0  0  0  0  0  0  0
   -7.7516   22.3011  -31.4891 H   0  0  0  0  0  0  0  0  0  0  0  0
   -8.0188   24.6870  -30.8202 H   0  0  0  0  0  0  0  0  0  0  0  0
   -6.0279   26.0449  -30.1937 H   0  0  0  0  0  0  0  0  0  0  0  0
   -1.1140   23.3305  -31.1389 H   0  0  0  0  0  0  0  0  0  0  0  0
   -0.4052   20.9551  -31.4113 H   0  0  0  0  0  0  0  0  0  0  0  0
   -0.8390   19.3029  -29.5951 H   0  0  0  0  0  0  0  0  0  0  0  0
   -2.7347   22.4056  -27.2356 H   0  0  0  0  0  0  0  0  0  0  0  0
   -3.4537   22.6778  -31.0613 H   0  0  0  0  0  0  0  0  0  0  0  0
  1  2  1  0
  2  3  1  0
  3  4  2  0
  4  5  1  0
  5  6  2  0
  6  7  1  0
  7  8  2  0
  8  9  1  0
  9 10  1  0
 10 11  2  0
 10 12  1  0
 12 13  2  0
 13 14  1  0
 14 15  2  0
 15 16  1  0
 16 17  1  0
 17 18  1  0
 18 19  2  0
 18 20  2  0
 18 21  1  0
 21 22  2  0
 22 23  1  0
 23 24  2  0
 24 25  1  0
 25 26  1  0
 26 27  1  0
 26 28  1  0
 26 29  1  0
 25 30  2  0
 16 31  2  0
  8  3  1  0
 31 12  1  0
 30 21  1  0
  1 32  1  0
  1 33  1  0
  1 34  1  0
  4 35  1  0
  5 36  1  0
  6 37  1  0
  7 38  1  0
  9 39  1  0
 13 40  1  0
 14 41  1  0
 15 42  1  0
 22 43  1  0
 23 44  1  0
 24 45  1  0
 30 46  1  0
 31 47  1  0
M  CHG  1  17  -1
M  END
>  <UniqueID>  (27) 
26

>  <SMILES>  (27) 
CSc1ccccc1NC(=O)c1cccc([N-]S(=O)(=O)c2cccc(C(F)(F)F)c2)c1

>  <Energy>  (27) 
55.77136715102465

>  <Genealogy>  (27) 
CSc1ccccc1NC(=O)c1cccc([N-]S(=O)(=O)c2cccc(C(F)(F)F)c2)c1 (protonated)
CSc1ccccc1NC(=O)c1cccc([N-]S(=O)(=O)c2cccc(C(F)(F)F)c2)c1 (3D coordinates assigned)
CSc1ccccc1NC(=O)c1cccc([N-]S(=O)(=O)c2cccc(C(F)(F)F)c2)c1 (optimized conformer: 55.77136715102465 kcal/mol)

>  <smiles>  (27) 
CSc1ccccc1NC(=O)c1cccc(NS(=O)(=O)c2cccc(C(F)(F)F)c2)c1

>  <score_type>  (27) 
oracle

>  <origin>  (27) 
adgpu

>  <m_score__min__energy>  (27) 
-11.550000000000001

>  <m_primary>  (27) 
energy

$$$$
27:0
     RDKit          3D

 38 40  0  0  0  0  0  0  0  0999 V2000
    3.6688   22.6992  -35.9150 H   0  0  0  0  0  0  0  0  0  0  0  0
    2.6220   22.4460  -35.6910 C   0  0  0  0  0  0  0  0  0  0  0  0
    2.3380   21.4510  -34.8100 N   0  0  0  0  0  0  0  0  0  0  0  0
    1.0600   21.0970  -34.4980 C   0  0  0  0  0  0  0  0  0  0  0  0
    0.8770   20.1490  -33.6250 N   0  0  0  0  0  0  0  0  0  0  0  0
   -0.6520   19.5660  -33.0350 S   0  0  0  0  0  0  0  0  0  0  0  0
   -1.6210   19.4810  -34.1820 O   0  0  0  0  0  0  0  0  0  0  0  0
   -0.4640   18.1970  -32.4480 O   0  0  0  0  0  0  0  0  0  0  0  0
   -1.2610   20.6430  -31.7830 C   0  0  0  0  0  0  0  0  0  0  0  0
   -0.9030   20.4290  -30.4460 C   0  0  0  0  0  0  0  0  0  0  0  0
   -0.3144   19.5413  -30.1712 H   0  0  0  0  0  0  0  0  0  0  0  0
   -1.2910   21.3390  -29.4610 C   0  0  0  0  0  0  0  0  0  0  0  0
   -1.0137   21.1620  -28.4114 H   0  0  0  0  0  0  0  0  0  0  0  0
   -2.0350   22.4810  -29.8060 C   0  0  0  0  0  0  0  0  0  0  0  0
   -2.3850   23.4680  -28.8260 N   0  0  0  0  0  0  0  0  0  0  0  0
   -3.7160   23.9210  -28.5420 C   0  0  0  0  0  0  0  0  0  0  0  0
   -3.9680   24.3690  -27.3920 O   0  0  0  0  0  0  0  0  0  0  0  0
   -4.8070   23.8200  -29.5440 C   0  0  0  0  0  0  0  0  0  0  0  0
   -5.8130   22.8470  -29.3950 C   0  0  0  0  0  0  0  0  0  0  0  0
   -5.7950   22.1724  -28.5264 H   0  0  0  0  0  0  0  0  0  0  0  0
   -6.8340   22.7310  -30.3410 C   0  0  0  0  0  0  0  0  0  0  0  0
   -7.6087   21.9592  -30.2217 H   0  0  0  0  0  0  0  0  0  0  0  0
   -6.8720   23.5940  -31.4380 C   0  0  0  0  0  0  0  0  0  0  0  0
   -7.6755   23.5006  -32.1835 H   0  0  0  0  0  0  0  0  0  0  0  0
   -5.8910   24.5750  -31.5890 C   0  0  0  0  0  0  0  0  0  0  0  0
   -5.9283   25.2586  -32.4500 H   0  0  0  0  0  0  0  0  0  0  0  0
   -4.8600   24.6930  -30.6500 C   0  0  0  0  0  0  0  0  0  0  0  0
   -3.8840   25.6680  -30.8360 O   0  0  0  0  0  0  0  0  0  0  0  0
   -2.4450   22.6580  -31.1320 C   0  0  0  0  0  0  0  0  0  0  0  0
   -3.0789   23.5165  -31.3988 H   0  0  0  0  0  0  0  0  0  0  0  0
   -2.0530   21.7490  -32.1200 C   0  0  0  0  0  0  0  0  0  0  0  0
   -2.3668   21.9024  -33.1631 H   0  0  0  0  0  0  0  0  0  0  0  0
   -0.0080   21.7780  -35.1200 C   0  0  0  0  0  0  0  0  0  0  0  0
   -1.0484   21.5010  -34.8943 H   0  0  0  0  0  0  0  0  0  0  0  0
    0.2660   22.8060  -36.0240 C   0  0  0  0  0  0  0  0  0  0  0  0
   -0.5600   23.3468  -36.5090 H   0  0  0  0  0  0  0  0  0  0  0  0
    1.5870   23.1470  -36.3120 C   0  0  0  0  0  0  0  0  0  0  0  0
    1.8690   24.1710  -37.2070 O   0  0  0  0  0  0  0  0  0  0  0  0
  1  2  1  0
  2  3  1  0
  3  4  1  0
  4  5  2  0
  5  6  1  0
  6  7  2  0
  6  8  2  0
  6  9  1  0
  9 10  2  0
 10 11  1  0
 10 12  1  0
 12 13  1  0
 12 14  2  0
 14 15  1  0
 15 16  1  0
 16 17  2  0
 16 18  1  0
 18 19  2  0
 19 20  1  0
 19 21  1  0
 21 22  1  0
 21 23  2  0
 23 24  1  0
 23 25  1  0
 25 26  1  0
 25 27  2  0
 27 28  1  0
 14 29  1  0
 29 30  1  0
 29 31  2  0
 31 32  1  0
  4 33  1  0
 33 34  1  0
 33 35  2  0
 35 36  1  0
 35 37  1  0
 37 38  1  0
 37  2  2  0
 31  9  1  0
 27 18  1  0
M  CHG  4   3  -1  15  -1  28  -1  38  -1
M  END
>  <UniqueID>  (28) 
27

>  <SMILES>  (28) 
O=C([N-]c1ccc(S(=O)(=O)/N=c2\ccc([O-])c[n-]2)cc1)c1ccccc1[O-]

>  <Energy>  (28) 
54.26940054705631

>  <Genealogy>  (28) 
O=C([N-]c1ccc(S(=O)(=O)N=c2ccc([O-])c[n-]2)cc1)c1ccccc1[O-] (protonated)
O=C([N-]c1ccc(S(=O)(=O)/N=c2\ccc([O-])c[n-]2)cc1)c1ccccc1[O-] (cis-trans isomerization)
O=C([N-]c1ccc(S(=O)(=O)/N=c2\ccc([O-])c[n-]2)cc1)c1ccccc1[O-] (3D coordinates assigned)
O=C([N-]c1ccc(S(=O)(=O)/N=c2\ccc([O-])c[n-]2)cc1)c1ccccc1[O-] (optimized conformer: 54.26940054705631 kcal/mol)

>  <smiles>  (28) 
O=C(Nc1ccc(S(=O)(=O)N=c2ccc(O)c[nH]2)cc1)c1ccccc1O

>  <score_type>  (28) 
oracle

>  <origin>  (28) 
adgpu

>  <m_score__min__energy>  (28) 
-13.279999999999999

>  <m_primary>  (28) 
energy

$$$$
28:0
     RDKit          3D

 53 56  0  0  0  0  0  0  0  0999 V2000
   -4.9060   22.6020  -32.3880 C   0  0  0  0  0  0  0  0  0  0  0  0
   -5.9040   22.9920  -31.3320 C   0  0  0  0  0  0  0  0  0  0  0  0
   -5.8970   24.1240  -30.5270 C   0  0  0  0  0  0  0  0  0  0  0  0
   -4.9210   25.2180  -30.4900 C   0  0  0  0  0  0  0  0  0  0  0  0
   -5.2970   26.3980  -30.7120 O   0  0  0  0  0  0  0  0  0  0  0  0
   -3.5540   24.9220  -30.1690 N   0  0  0  0  0  0  0  0  0  0  0  0
   -2.9980   23.7560  -29.5350 C   0  0  0  0  0  0  0  0  0  0  0  0
   -1.8990   23.0500  -30.0570 C   0  0  0  0  0  0  0  0  0  0  0  0
   -1.3620   21.9690  -29.3590 C   0  0  0  0  0  0  0  0  0  0  0  0
   -1.9200   21.5580  -28.1370 C   0  0  0  0  0  0  0  0  0  0  0  0
   -1.3870   20.4800  -27.4150 O   0  0  0  0  0  0  0  0  0  0  0  0
   -0.1620   19.8700  -27.7250 C   0  0  0  0  0  0  0  0  0  0  0  0
    1.0090   20.6340  -27.8830 C   0  0  0  0  0  0  0  0  0  0  0  0
    2.2130   20.0080  -28.1850 C   0  0  0  0  0  0  0  0  0  0  0  0
    2.2670   18.6250  -28.3570 C   0  0  0  0  0  0  0  0  0  0  0  0
    1.1040   17.8360  -28.2100 C   0  0  0  0  0  0  0  0  0  0  0  0
    1.1510   16.4030  -28.4180 N   0  0  0  0  0  0  0  0  0  0  0  0
    1.3270   15.4960  -27.2740 C   0  0  0  0  0  0  0  0  0  0  0  0
    1.0090   15.8390  -29.7650 C   0  0  0  0  0  0  0  0  0  0  0  0
   -0.1060   18.4770  -27.8670 C   0  0  0  0  0  0  0  0  0  0  0  0
   -3.0510   22.2090  -27.6540 C   0  0  0  0  0  0  0  0  0  0  0  0
   -3.5850   23.3050  -28.3440 C   0  0  0  0  0  0  0  0  0  0  0  0
   -6.9900   24.0780  -29.7390 N   0  0  0  0  0  0  0  0  0  0  0  0
   -7.6400   22.9630  -30.0420 N   0  0  0  0  0  0  0  0  0  0  0  0
   -6.9960   22.2850  -30.9800 N   0  0  0  0  0  0  0  0  0  0  0  0
   -7.4550   21.0340  -31.5140 C   0  0  0  0  0  0  0  0  0  0  0  0
   -8.7790   20.8800  -31.9690 C   0  0  0  0  0  0  0  0  0  0  0  0
   -9.2160   19.6510  -32.4740 C   0  0  0  0  0  0  0  0  0  0  0  0
   -8.3320   18.5700  -32.5420 C   0  0  0  0  0  0  0  0  0  0  0  0
   -7.0070   18.7210  -32.1140 C   0  0  0  0  0  0  0  0  0  0  0  0
   -6.5670   19.9520  -31.6110 C   0  0  0  0  0  0  0  0  0  0  0  0
   -3.9847   22.2420  -31.9067 H   0  0  0  0  0  0  0  0  0  0  0  0
   -5.3287   21.8029  -33.0147 H   0  0  0  0  0  0  0  0  0  0  0  0
   -4.6749   23.4760  -33.0147 H   0  0  0  0  0  0  0  0  0  0  0  0
   -1.4614   23.3520  -31.0200 H   0  0  0  0  0  0  0  0  0  0  0  0
   -0.4933   21.4330  -29.7690 H   0  0  0  0  0  0  0  0  0  0  0  0
    0.9718   21.7273  -27.7675 H   0  0  0  0  0  0  0  0  0  0  0  0
    3.1294   20.6076  -28.2890 H   0  0  0  0  0  0  0  0  0  0  0  0
    3.2236   18.1441  -28.6094 H   0  0  0  0  0  0  0  0  0  0  0  0
    1.2172   16.0619  -26.3371 H   0  0  0  0  0  0  0  0  0  0  0  0
    0.5660   14.7027  -27.3145 H   0  0  0  0  0  0  0  0  0  0  0  0
    2.3294   15.0449  -27.3145 H   0  0  0  0  0  0  0  0  0  0  0  0
    0.7410   14.7747  -29.6905 H   0  0  0  0  0  0  0  0  0  0  0  0
    0.2188   16.3790  -30.3072 H   0  0  0  0  0  0  0  0  0  0  0  0
    1.9607   15.9404  -30.3072 H   0  0  0  0  0  0  0  0  0  0  0  0
   -1.0143   17.8769  -27.7096 H   0  0  0  0  0  0  0  0  0  0  0  0
   -3.5281   21.8613  -26.7258 H   0  0  0  0  0  0  0  0  0  0  0  0
   -4.4740   23.8172  -27.9474 H   0  0  0  0  0  0  0  0  0  0  0  0
   -9.4738   21.7317  -31.9269 H   0  0  0  0  0  0  0  0  0  0  0  0
  -10.2546   19.5351  -32.8174 H   0  0  0  0  0  0  0  0  0  0  0  0
   -8.6771   17.6009  -32.9316 H   0  0  0  0  0  0  0  0  0  0  0  0
   -6.3107   17.8714  -32.1730 H   0  0  0  0  0  0  0  0  0  0  0  0
   -5.5214   20.0709  -31.2908 H   0  0  0  0  0  0  0  0  0  0  0  0
  1  2  1  0
  2  3  2  0
  3  4  1  0
  4  5  2  0
  4  6  1  0
  6  7  1  0
  7  8  2  0
  8  9  1  0
  9 10  2  0
 10 11  1  0
 11 12  1  0
 12 13  2  0
 13 14  1  0
 14 15  2  0
 15 16  1  0
 16 17  1  0
 17 18  1  0
 17 19  1  0
 16 20  2  0
 10 21  1  0
 21 22  2  0
  3 23  1  0
 23 24  2  0
 24 25  1  0
 25 26  1  0
 26 27  2  0
 27 28  1  0
 28 29  2  0
 29 30  1  0
 30 31  2  0
 25  2  1  0
 31 26  1  0
 22  7  1  0
 20 12  1  0
  1 32  1  0
  1 33  1  0
  1 34  1  0
  8 35  1  0
  9 36  1  0
 13 37  1  0
 14 38  1  0
 15 39  1  0
 18 40  1  0
 18 41  1  0
 18 42  1  0
 19 43  1  0
 19 44  1  0
 19 45  1  0
 20 46  1  0
 21 47  1  0
 22 48  1  0
 27 49  1  0
 28 50  1  0
 29 51  1  0
 30 52  1  0
 31 53  1  0
M  CHG  1   6  -1
M  END
>  <UniqueID>  (29) 
28

>  <SMILES>  (29) 
Cc1c(C(=O)[N-]c2ccc(Oc3cccc(N(C)C)c3)cc2)nnn1-c1ccccc1

>  <Energy>  (29) 
111.53891871572635

>  <Genealogy>  (29) 
Cc1c(C(=O)[N-]c2ccc(Oc3cccc(N(C)C)c3)cc2)nnn1-c1ccccc1 (protonated)
Cc1c(C(=O)[N-]c2ccc(Oc3cccc(N(C)C)c3)cc2)nnn1-c1ccccc1 (3D coordinates assigned)
Cc1c(C(=O)[N-]c2ccc(Oc3cccc(N(C)C)c3)cc2)nnn1-c1ccccc1 (optimized conformer: 111.53891871572635 kcal/mol)

>  <smiles>  (29) 
Cc1c(C(=O)Nc2ccc(Oc3cccc(N(C)C)c3)cc2)nnn1-c1ccccc1

>  <score_type>  (29) 
oracle

>  <origin>  (29) 
adgpu

>  <m_score__min__energy>  (29) 
-11.449999999999999

>  <m_primary>  (29) 
energy

$$$$
29:0
     RDKit          3D

 38 39  0  0  0  0  0  0  0  0999 V2000
   -6.0430   19.3570  -34.0310 C   0  0  0  0  0  0  0  0  0  0  0  0
   -6.9310   18.5650  -33.1720 N   0  0  0  0  0  0  0  0  0  0  0  0
   -6.1470   17.8410  -32.1630 C   0  0  0  0  0  0  0  0  0  0  0  0
   -8.0840   19.6150  -32.3840 S   0  0  0  0  0  0  0  0  0  0  0  0
   -8.7660   18.8650  -31.2730 O   0  0  0  0  0  0  0  0  0  0  0  0
   -9.1360   20.0340  -33.3740 O   0  0  0  0  0  0  0  0  0  0  0  0
   -7.3040   21.0520  -31.7220 C   0  0  0  0  0  0  0  0  0  0  0  0
   -5.9400   21.0300  -31.3970 C   0  0  0  0  0  0  0  0  0  0  0  0
   -5.3290   22.1600  -30.8490 C   0  0  0  0  0  0  0  0  0  0  0  0
   -6.0760   23.3240  -30.6190 C   0  0  0  0  0  0  0  0  0  0  0  0
   -5.3240   24.7380  -29.8890 S   0  0  0  0  0  0  0  0  0  0  0  0
   -4.3620   25.3840  -30.8460 O   0  0  0  0  0  0  0  0  0  0  0  0
   -6.3970   25.7270  -29.5300 O   0  0  0  0  0  0  0  0  0  0  0  0
   -4.4710   24.2770  -28.4510 N   0  0  0  0  0  0  0  0  0  0  0  0
   -3.2360   23.5450  -28.4180 C   0  0  0  0  0  0  0  0  0  0  0  0
   -3.1870   22.1960  -28.0150 C   0  0  0  0  0  0  0  0  0  0  0  0
   -1.9690   21.5130  -27.9780 C   0  0  0  0  0  0  0  0  0  0  0  0
   -0.7900   22.1630  -28.3470 C   0  0  0  0  0  0  0  0  0  0  0  0
   -0.8270   23.4970  -28.7560 C   0  0  0  0  0  0  0  0  0  0  0  0
   -2.0410   24.1920  -28.7950 C   0  0  0  0  0  0  0  0  0  0  0  0
   -2.0370   25.5250  -29.2070 O   0  0  0  0  0  0  0  0  0  0  0  0
   -7.4360   23.3510  -30.9550 C   0  0  0  0  0  0  0  0  0  0  0  0
   -8.0470   22.2210  -31.5040 C   0  0  0  0  0  0  0  0  0  0  0  0
   -5.3681   19.9589  -33.4047 H   0  0  0  0  0  0  0  0  0  0  0  0
   -5.4498   18.6826  -34.6661 H   0  0  0  0  0  0  0  0  0  0  0  0
   -6.6455   20.0231  -34.6661 H   0  0  0  0  0  0  0  0  0  0  0  0
   -6.4747   18.1436  -31.1575 H   0  0  0  0  0  0  0  0  0  0  0  0
   -6.2989   16.7587  -32.2879 H   0  0  0  0  0  0  0  0  0  0  0  0
   -5.0802   18.0784  -32.2879 H   0  0  0  0  0  0  0  0  0  0  0  0
   -5.3491   20.1193  -31.5744 H   0  0  0  0  0  0  0  0  0  0  0  0
   -4.2585   22.1367  -30.5971 H   0  0  0  0  0  0  0  0  0  0  0  0
   -4.1135   21.6773  -27.7277 H   0  0  0  0  0  0  0  0  0  0  0  0
   -1.9389   20.4611  -27.6575 H   0  0  0  0  0  0  0  0  0  0  0  0
    0.1683   21.6238  -28.3154 H   0  0  0  0  0  0  0  0  0  0  0  0
    0.1035   24.0050  -29.0494 H   0  0  0  0  0  0  0  0  0  0  0  0
   -2.8910   26.0510  -29.3530 H   0  0  0  0  0  0  0  0  0  0  0  0
   -8.0245   24.2649  -30.7860 H   0  0  0  0  0  0  0  0  0  0  0  0
   -9.1149   22.2484  -31.7662 H   0  0  0  0  0  0  0  0  0  0  0  0
  1  2  1  0
  2  3  1  0
  2  4  1  0
  4  5  2  0
  4  6  2  0
  4  7  1  0
  7  8  2  0
  8  9  1  0
  9 10  2  0
 10 11  1  0
 11 12  2  0
 11 13  2  0
 11 14  1  0
 14 15  1  0
 15 16  2  0
 16 17  1  0
 17 18  2  0
 18 19  1  0
 19 20  2  0
 20 21  1  0
 10 22  1  0
 22 23  2  0
 23  7  1  0
 20 15  1  0
  1 24  1  0
  1 25  1  0
  1 26  1  0
  3 27  1  0
  3 28  1  0
  3 29  1  0
  8 30  1  0
  9 31  1  0
 16 32  1  0
 17 33  1  0
 18 34  1  0
 19 35  1  0
 21 36  1  0
 22 37  1  0
 23 38  1  0
M  CHG  1  14  -1
M  END
>  <UniqueID>  (30) 
29

>  <SMILES>  (30) 
CN(C)S(=O)(=O)c1ccc(S(=O)(=O)[N-]c2ccccc2O)cc1

>  <Energy>  (30) 
38.9459966536854

>  <Genealogy>  (30) 
CN(C)S(=O)(=O)c1ccc(S(=O)(=O)[N-]c2ccccc2O)cc1 (protonated)
CN(C)S(=O)(=O)c1ccc(S(=O)(=O)[N-]c2ccccc2O)cc1 (3D coordinates assigned)
CN(C)S(=O)(=O)c1ccc(S(=O)(=O)[N-]c2ccccc2O)cc1 (optimized conformer: 38.9459966536854 kcal/mol)

>  <smiles>  (30) 
CN(C)S(=O)(=O)c1ccc(S(=O)(=O)Nc2ccccc2O)cc1

>  <score_type>  (30) 
oracle

>  <origin>  (30) 
adgpu

>  <m_score__min__energy>  (30) 
-11.02

>  <m_primary>  (30) 
energy

$$$$
30:0
     RDKit          3D

 47 49  0  0  0  0  0  0  0  0999 V2000
  -10.7404   20.2265  -32.2134 H   0  0  0  0  0  0  0  0  0  0  0  0
   -9.6580   20.4220  -32.2280 C   0  0  0  0  0  0  0  0  0  0  0  0
   -9.1790   21.6110  -31.7810 N   0  0  0  0  0  0  0  0  0  0  0  0
   -7.8520   21.9060  -31.7810 C   0  0  0  0  0  0  0  0  0  0  0  0
   -7.4800   23.0740  -31.3370 N   0  0  0  0  0  0  0  0  0  0  0  0
   -6.1140   23.5970  -31.2240 C   0  0  2  0  0  0  0  0  0  0  0  0
   -5.6452   23.6423  -32.2181 H   0  0  0  0  0  0  0  0  0  0  0  0
   -5.2380   22.6540  -30.3520 C   0  0  0  0  0  0  0  0  0  0  0  0
   -4.6625   21.9977  -31.0214 H   0  0  0  0  0  0  0  0  0  0  0  0
   -5.9229   22.0929  -29.6993 H   0  0  0  0  0  0  0  0  0  0  0  0
   -4.2490   23.3980  -29.4320 C   0  0  0  0  0  0  0  0  0  0  0  0
   -3.4204   22.7223  -29.1734 H   0  0  0  0  0  0  0  0  0  0  0  0
   -4.7849   23.7154  -28.5253 H   0  0  0  0  0  0  0  0  0  0  0  0
   -3.6810   24.6470  -30.1280 C   0  0  2  0  0  0  0  0  0  0  0  0
   -3.2132   24.2833  -31.0547 H   0  0  0  0  0  0  0  0  0  0  0  0
   -2.6320   25.2950  -29.3350 N   0  0  0  0  0  0  0  0  0  0  0  0
   -1.3550   24.7850  -28.9150 C   0  0  0  0  0  0  0  0  0  0  0  0
   -0.5240   25.5900  -28.4180 O   0  0  0  0  0  0  0  0  0  0  0  0
   -0.9370   23.3570  -29.1070 C   0  0  0  0  0  0  0  0  0  0  0  0
   -0.7976   22.8806  -28.1254 H   0  0  0  0  0  0  0  0  0  0  0  0
   -1.7155   22.8194  -29.6682 H   0  0  0  0  0  0  0  0  0  0  0  0
    0.0085   23.3240  -29.6682 H   0  0  0  0  0  0  0  0  0  0  0  0
   -4.7760   25.6540  -30.5610 C   0  0  0  0  0  0  0  0  0  0  0  0
   -4.5156   26.0512  -31.5532 H   0  0  0  0  0  0  0  0  0  0  0  0
   -4.8149   26.4481  -29.8008 H   0  0  0  0  0  0  0  0  0  0  0  0
   -6.1760   25.0170  -30.6380 C   0  0  0  0  0  0  0  0  0  0  0  0
   -6.8183   25.6404  -31.2774 H   0  0  0  0  0  0  0  0  0  0  0  0
   -6.5844   24.9536  -29.6186 H   0  0  0  0  0  0  0  0  0  0  0  0
   -6.9370   20.9470  -32.2650 C   0  0  0  0  0  0  0  0  0  0  0  0
   -5.8609   21.1741  -32.2865 H   0  0  0  0  0  0  0  0  0  0  0  0
   -7.4030   19.7000  -32.7200 C   0  0  0  0  0  0  0  0  0  0  0  0
   -6.4690   18.6650  -33.2340 C   0  0  0  0  0  0  0  0  0  0  0  0
   -5.1690   18.9980  -33.4720 N   0  0  0  0  0  0  0  0  0  0  0  0
   -4.2530   18.1110  -33.9470 C   0  0  0  0  0  0  0  0  0  0  0  0
   -3.0320   18.5220  -34.1400 N   0  0  0  0  0  0  0  0  0  0  0  0
   -1.9220   17.7160  -34.6410 C   0  0  0  0  0  0  0  0  0  0  0  0
   -1.3554   17.3046  -33.7926 H   0  0  0  0  0  0  0  0  0  0  0  0
   -2.3150   16.8914  -35.2539 H   0  0  0  0  0  0  0  0  0  0  0  0
   -1.2595   18.3449  -35.2539 H   0  0  0  0  0  0  0  0  0  0  0  0
   -4.6560   16.7880  -34.2120 C   0  0  0  0  0  0  0  0  0  0  0  0
   -3.9312   16.0523  -34.5907 H   0  0  0  0  0  0  0  0  0  0  0  0
   -5.9820   16.4190  -33.9900 C   0  0  0  0  0  0  0  0  0  0  0  0
   -6.3078   15.3894  -34.1993 H   0  0  0  0  0  0  0  0  0  0  0  0
   -6.8960   17.3530  -33.5030 C   0  0  0  0  0  0  0  0  0  0  0  0
   -7.9436   17.0651  -33.3306 H   0  0  0  0  0  0  0  0  0  0  0  0
   -8.7830   19.4490  -32.7050 C   0  0  0  0  0  0  0  0  0  0  0  0
   -9.1728   18.4869  -33.0688 H   0  0  0  0  0  0  0  0  0  0  0  0
  1  2  1  0
  2  3  1  0
  3  4  1  0
  4  5  2  0
  5  6  1  0
  6  7  1  6
  6  8  1  0
  8  9  1  0
  8 10  1  0
  8 11  1  0
 11 12  1  0
 11 13  1  0
 11 14  1  0
 14 15  1  6
 14 16  1  0
 16 17  1  0
 17 18  2  0
 17 19  1  0
 19 20  1  0
 19 21  1  0
 19 22  1  0
 14 23  1  0
 23 24  1  0
 23 25  1  0
 23 26  1  0
 26 27  1  0
 26 28  1  0
  4 29  1  0
 29 30  1  0
 29 31  2  0
 31 32  1  0
 32 33  1  0
 33 34  1  0
 34 35  2  0
 35 36  1  0
 36 37  1  0
 36 38  1  0
 36 39  1  0
 34 40  1  0
 40 41  1  0
 40 42  2  0
 42 43  1  0
 42 44  1  0
 44 45  1  0
 31 46  1  0
 46 47  1  0
 46  2  2  0
 26  6  1  0
 44 32  2  0
M  CHG  3   3  -1  16  -1  33  -1
M  END
>  <UniqueID>  (31) 
30

>  <SMILES>  (31) 
C/N=c1\cccc(-c2cc[n-]/c(=N/C3CCC([N-]C(C)=O)CC3)c2)[n-]1

>  <Energy>  (31) 
59.78029765562303

>  <Genealogy>  (31) 
CN=c1cccc(-c2cc[n-]c(=NC3CCC([N-]C(C)=O)CC3)c2)[n-]1 (protonated)
C/N=c1\cccc(-c2cc[n-]/c(=N/C3CCC([N-]C(C)=O)CC3)c2)[n-]1 (cis-trans isomerization)
C/N=c1\cccc(-c2cc[n-]/c(=N/C3CCC([N-]C(C)=O)CC3)c2)[n-]1 (3D coordinates assigned)
C/N=c1\cccc(-c2cc[n-]/c(=N/C3CCC([N-]C(C)=O)CC3)c2)[n-]1 (nonaromatic ring conformer: 59.78029765562303 kcal/mol)

>  <smiles>  (31) 
CN=c1cccc(-c2cc[nH]c(=NC3CCC(NC(C)=O)CC3)c2)[nH]1

>  <score_type>  (31) 
oracle

>  <origin>  (31) 
adgpu

>  <m_score__min__energy>  (31) 
-11.390000000000001

>  <m_primary>  (31) 
energy

$$$$
31:0
     RDKit          3D

 32 33  0  0  0  0  0  0  0  0999 V2000
   -6.0610   16.6790  -29.7640 H   0  0  0  0  0  0  0  0  0  0  0  0
   -6.1310   16.7970  -30.7680 O   0  0  0  0  0  0  0  0  0  0  0  0
   -6.1780   18.0560  -31.3190 N   0  0  0  0  0  0  0  0  0  0  0  0
   -5.4400   18.7500  -31.0610 H   0  0  0  0  0  0  0  0  0  0  0  0
   -7.1110   18.3540  -32.1710 C   0  0  0  0  0  0  0  0  0  0  0  0
   -7.8720   17.5992  -32.4183 H   0  0  0  0  0  0  0  0  0  0  0  0
   -7.1750   19.6440  -32.7990 N   0  0  0  0  0  0  0  0  0  0  0  0
   -7.5880   19.6860  -33.7580 H   0  0  0  0  0  0  0  0  0  0  0  0
   -6.7420   20.8720  -32.1910 C   0  0  0  0  0  0  0  0  0  0  0  0
   -5.4130   21.2900  -32.3530 C   0  0  0  0  0  0  0  0  0  0  0  0
   -4.7101   20.6657  -32.9242 H   0  0  0  0  0  0  0  0  0  0  0  0
   -4.9750   22.4940  -31.7940 C   0  0  0  0  0  0  0  0  0  0  0  0
   -3.9263   22.8041  -31.9128 H   0  0  0  0  0  0  0  0  0  0  0  0
   -5.8670   23.3070  -31.0830 C   0  0  0  0  0  0  0  0  0  0  0  0
   -5.3120   24.8160  -30.3660 S   0  0  0  0  0  0  0  0  0  0  0  0
   -5.7650   25.9690  -31.2170 O   0  0  0  0  0  0  0  0  0  0  0  0
   -5.8940   24.9560  -28.9880 O   0  0  0  0  0  0  0  0  0  0  0  0
   -3.5770   24.7860  -30.2790 N   0  0  0  0  0  0  0  0  0  0  0  0
   -2.8590   24.5600  -29.2170 C   0  0  0  0  0  0  0  0  0  0  0  0
   -1.5030   24.5760  -29.3380 N   0  0  0  0  0  0  0  0  0  0  0  0
   -0.6760   24.3520  -28.2820 C   0  0  0  0  0  0  0  0  0  0  0  0
    0.4146   24.3751  -28.4233 H   0  0  0  0  0  0  0  0  0  0  0  0
   -1.2100   24.0930  -27.0200 C   0  0  0  0  0  0  0  0  0  0  0  0
   -0.5464   23.9097  -26.1621 H   0  0  0  0  0  0  0  0  0  0  0  0
   -2.5950   24.0690  -26.8580 C   0  0  0  0  0  0  0  0  0  0  0  0
   -3.0299   23.8668  -25.8680 H   0  0  0  0  0  0  0  0  0  0  0  0
   -3.4300   24.3020  -27.9540 C   0  0  0  0  0  0  0  0  0  0  0  0
   -4.5231   24.2843  -27.8324 H   0  0  0  0  0  0  0  0  0  0  0  0
   -7.1990   22.9020  -30.9300 C   0  0  0  0  0  0  0  0  0  0  0  0
   -7.9026   23.5341  -30.3684 H   0  0  0  0  0  0  0  0  0  0  0  0
   -7.6380   21.6980  -31.4880 C   0  0  0  0  0  0  0  0  0  0  0  0
   -8.6895   21.3947  -31.3769 H   0  0  0  0  0  0  0  0  0  0  0  0
  1  2  1  0
  2  3  1  0
  3  4  1  0
  3  5  2  3
  5  6  1  0
  5  7  1  0
  7  8  1  0
  7  9  1  0
  9 10  2  0
 10 11  1  0
 10 12  1  0
 12 13  1  0
 12 14  2  0
 14 15  1  0
 15 16  2  0
 15 17  2  0
 15 18  1  0
 18 19  2  0
 19 20  1  0
 20 21  1  0
 21 22  1  0
 21 23  2  0
 23 24  1  0
 23 25  1  0
 25 26  1  0
 25 27  2  0
 27 28  1  0
 14 29  1  0
 29 30  1  0
 29 31  2  0
 31 32  1  0
 31  9  1  0
 27 19  1  0
M  CHG  2   3   1  20  -1
M  END
>  <UniqueID>  (32) 
31

>  <SMILES>  (32) 
O=S(=O)(/N=c1\cccc[n-]1)c1ccc(NC=[NH+]O)cc1

>  <Energy>  (32) 
42.22268791846733

>  <Genealogy>  (32) 
O=S(=O)(N=c1cccc[n-]1)c1ccc(NC=[NH+]O)cc1 (protonated)
O=S(=O)(/N=c1\cccc[n-]1)c1ccc(NC=[NH+]O)cc1 (cis-trans isomerization)
O=S(=O)(/N=c1\cccc[n-]1)c1ccc(NC=[NH+]O)cc1 (3D coordinates assigned)
O=S(=O)(/N=c1\cccc[n-]1)c1ccc(NC=[NH+]O)cc1 (optimized conformer: 42.22268791846733 kcal/mol)

>  <smiles>  (32) 
O=S(=O)(N=c1cccc[nH]1)c1ccc(NC=NO)cc1

>  <score_type>  (32) 
oracle

>  <origin>  (32) 
adgpu

>  <m_score__min__energy>  (32) 
-9.2300000000000004

>  <m_primary>  (32) 
energy

$$$$
32:0
     RDKit          3D

 59 62  0  0  0  0  0  0  0  0999 V2000
   -7.3296   15.7020  -34.5673 H   0  0  0  0  0  0  0  0  0  0  0  0
   -6.2800   15.7450  -34.2410 C   0  0  0  0  0  0  0  0  0  0  0  0
   -5.7420   14.7010  -33.4850 C   0  0  0  0  0  0  0  0  0  0  0  0
   -6.3665   13.8354  -33.2192 H   0  0  0  0  0  0  0  0  0  0  0  0
   -4.4080   14.7570  -33.0660 C   0  0  0  0  0  0  0  0  0  0  0  0
   -3.7330   13.4470  -32.1110 Cl  0  0  0  0  0  0  0  0  0  0  0  0
   -3.6120   15.8550  -33.4080 C   0  0  0  0  0  0  0  0  0  0  0  0
   -2.5649   15.8967  -33.0737 H   0  0  0  0  0  0  0  0  0  0  0  0
   -4.1430   16.9060  -34.1770 C   0  0  0  0  0  0  0  0  0  0  0  0
   -3.2770   18.0880  -34.5630 C   0  0  0  0  0  0  0  0  0  0  0  0
   -3.5114   18.3648  -35.6015 H   0  0  0  0  0  0  0  0  0  0  0  0
   -2.2308   17.7727  -34.4363 H   0  0  0  0  0  0  0  0  0  0  0  0
   -3.4740   19.2810  -33.7060 N   0  0  0  0  0  0  0  0  0  0  0  0
   -2.2010   19.8320  -33.2080 C   0  0  0  0  0  0  0  0  0  0  0  0
   -1.4877   19.8999  -34.0427 H   0  0  0  0  0  0  0  0  0  0  0  0
   -1.8145   19.1653  -32.4231 H   0  0  0  0  0  0  0  0  0  0  0  0
   -2.4030   21.2310  -32.6050 C   0  0  0  0  0  0  0  0  0  0  0  0
   -2.1118   21.9778  -33.3584 H   0  0  0  0  0  0  0  0  0  0  0  0
   -1.7819   21.2797  -31.6984 H   0  0  0  0  0  0  0  0  0  0  0  0
   -3.8620   21.5240  -32.1660 C   0  0  0  0  0  0  0  0  0  0  0  0
   -4.2865   21.9336  -33.0944 H   0  0  0  0  0  0  0  0  0  0  0  0
   -3.9250   22.5320  -31.1030 N   0  0  0  0  0  0  0  0  0  0  0  0
   -3.4630   22.7230  -29.8870 C   0  0  0  0  0  0  0  0  0  0  0  0
   -3.8800   23.9290  -29.2660 C   0  0  0  0  0  0  0  0  0  0  0  0
   -4.7180   24.9270  -29.9910 C   0  0  0  0  0  0  0  0  0  0  0  0
   -4.1850   25.6780  -30.8520 O   0  0  0  0  0  0  0  0  0  0  0  0
   -6.1950   25.0600  -29.7330 C   0  0  0  0  0  0  0  0  0  0  0  0
   -6.5311   26.0506  -30.0733 H   0  0  0  0  0  0  0  0  0  0  0  0
   -6.3729   24.9403  -28.6541 H   0  0  0  0  0  0  0  0  0  0  0  0
   -6.9830   23.9840  -30.4760 C   0  0  0  0  0  0  0  0  0  0  0  0
   -7.4705   23.3184  -29.7485 H   0  0  0  0  0  0  0  0  0  0  0  0
   -7.7478   24.4598  -31.1074 H   0  0  0  0  0  0  0  0  0  0  0  0
   -6.2985   23.3985  -31.1074 H   0  0  0  0  0  0  0  0  0  0  0  0
   -3.5080   24.2000  -27.9500 C   0  0  0  0  0  0  0  0  0  0  0  0
   -3.8412   25.1341  -27.4742 H   0  0  0  0  0  0  0  0  0  0  0  0
   -2.7440   23.3320  -27.2500 N   0  0  0  0  0  0  0  0  0  0  0  0
   -2.5030   23.6000  -26.2690 H   0  0  0  0  0  0  0  0  0  0  0  0
   -2.2910   22.1660  -27.7880 C   0  0  0  0  0  0  0  0  0  0  0  0
   -1.4860   21.3110  -26.9970 C   0  0  0  0  0  0  0  0  0  0  0  0
   -1.1840   21.6840  -25.6750 O   0  0  0  0  0  0  0  0  0  0  0  0
   -0.2930   22.7320  -25.3090 C   0  0  0  0  0  0  0  0  0  0  0  0
   -0.2362   22.7988  -24.2125 H   0  0  0  0  0  0  0  0  0  0  0  0
    0.7071   22.5218  -25.7158 H   0  0  0  0  0  0  0  0  0  0  0  0
   -0.6614   23.6853  -25.7158 H   0  0  0  0  0  0  0  0  0  0  0  0
   -1.0060   20.1140  -27.5420 C   0  0  0  0  0  0  0  0  0  0  0  0
   -0.3856   19.4429  -26.9299 H   0  0  0  0  0  0  0  0  0  0  0  0
   -1.3100   19.7720  -28.8500 C   0  0  0  0  0  0  0  0  0  0  0  0
   -0.9241   18.8322  -29.2718 H   0  0  0  0  0  0  0  0  0  0  0  0
   -2.0990   20.6070  -29.6340 C   0  0  0  0  0  0  0  0  0  0  0  0
   -2.3182   20.3153  -30.6717 H   0  0  0  0  0  0  0  0  0  0  0  0
   -2.6270   21.8190  -29.1360 C   0  0  0  0  0  0  0  0  0  0  0  0
   -4.8220   20.3330  -31.9060 C   0  0  0  0  0  0  0  0  0  0  0  0
   -5.8187   20.6030  -32.2852 H   0  0  0  0  0  0  0  0  0  0  0  0
   -4.8164   20.1508  -30.8212 H   0  0  0  0  0  0  0  0  0  0  0  0
   -4.3880   19.0220  -32.5790 C   0  0  0  0  0  0  0  0  0  0  0  0
   -5.2798   18.4978  -32.9530 H   0  0  0  0  0  0  0  0  0  0  0  0
   -3.8604   18.4059  -31.8359 H   0  0  0  0  0  0  0  0  0  0  0  0
   -5.4870   16.8450  -34.5840 C   0  0  0  0  0  0  0  0  0  0  0  0
   -5.9174   17.6666  -35.1753 H   0  0  0  0  0  0  0  0  0  0  0  0
  1  2  1  0
  2  3  2  0
  3  4  1  0
  3  5  1  0
  5  6  1  0
  5  7  2  0
  7  8  1  0
  7  9  1  0
  9 10  1  0
 10 11  1  0
 10 12  1  0
 10 13  1  0
 13 14  1  0
 14 15  1  0
 14 16  1  0
 14 17  1  0
 17 18  1  0
 17 19  1  0
 17 20  1  0
 20 21  1  0
 20 22  1  0
 22 23  2  0
 23 24  1  0
 24 25  1  0
 25 26  2  0
 25 27  1  0
 27 28  1  0
 27 29  1  0
 27 30  1  0
 30 31  1  0
 30 32  1  0
 30 33  1  0
 24 34  2  0
 34 35  1  0
 34 36  1  0
 36 37  1  0
 36 38  1  0
 38 39  2  0
 39 40  1  0
 40 41  1  0
 41 42  1  0
 41 43  1  0
 41 44  1  0
 39 45  1  0
 45 46  1  0
 45 47  2  0
 47 48  1  0
 47 49  1  0
 49 50  1  0
 49 51  2  0
 20 52  1  0
 52 53  1  0
 52 54  1  0
 52 55  1  0
 55 56  1  0
 55 57  1  0
  9 58  2  0
 58 59  1  0
 58  2  1  0
 55 13  1  0
 51 23  1  0
 51 38  1  0
M  END
>  <UniqueID>  (33) 
32

>  <SMILES>  (33) 
CCC(=O)c1c[nH]c2c(OC)cccc2/c1=N\C1CCN(Cc2cccc(Cl)c2)CC1

>  <Energy>  (33) 
101.80424025277144

>  <Genealogy>  (33) 
CCC(=O)c1c[nH]c2c(OC)cccc2/c1=N\C1CCN(Cc2cccc(Cl)c2)CC1 (cis-trans isomerization)
CCC(=O)c1c[nH]c2c(OC)cccc2/c1=N\C1CCN(Cc2cccc(Cl)c2)CC1 (3D coordinates assigned)
CCC(=O)c1c[nH]c2c(OC)cccc2/c1=N\C1CCN(Cc2cccc(Cl)c2)CC1 (nonaromatic ring conformer: 101.80424025277144 kcal/mol)

>  <smiles>  (33) 
CCC(=O)c1c[nH]c2c(OC)cccc2c1=NC1CCN(Cc2cccc(Cl)c2)CC1

>  <score_type>  (33) 
oracle

>  <origin>  (33) 
adgpu

>  <m_score__min__energy>  (33) 
-10

>  <m_primary>  (33) 
energy

$$$$
33:0
     RDKit          3D

 37 38  0  0  0  0  0  0  0  0999 V2000
    0.5320   25.8320  -27.0940 C   0  0  0  0  0  0  0  0  0  0  0  0
    0.3480   24.9220  -28.1720 O   0  0  0  0  0  0  0  0  0  0  0  0
    0.0250   23.5750  -27.9780 C   0  0  0  0  0  0  0  0  0  0  0  0
    0.9470   22.7270  -27.8190 O   0  0  0  0  0  0  0  0  0  0  0  0
   -1.3960   23.1350  -27.9710 C   0  0  0  0  0  0  0  0  0  0  0  0
   -1.7050   21.7830  -27.7540 C   0  0  0  0  0  0  0  0  0  0  0  0
   -3.0300   21.3550  -27.7540 C   0  0  0  0  0  0  0  0  0  0  0  0
   -4.0470   22.2740  -27.9900 C   0  0  0  0  0  0  0  0  0  0  0  0
   -3.7550   23.5850  -28.2220 N   0  0  0  0  0  0  0  0  0  0  0  0
   -4.8110   24.4680  -28.5140 N   0  0  0  0  0  0  0  0  0  0  0  0
   -5.1450   24.9080  -30.1570 S   0  0  0  0  0  0  0  0  0  0  0  0
   -3.8800   25.3430  -30.8420 O   0  0  0  0  0  0  0  0  0  0  0  0
   -6.1090   26.0610  -30.1710 O   0  0  0  0  0  0  0  0  0  0  0  0
   -5.8850   23.5310  -30.9860 C   0  0  0  0  0  0  0  0  0  0  0  0
   -7.2660   23.3320  -30.8460 C   0  0  0  0  0  0  0  0  0  0  0  0
   -7.8870   22.2360  -31.4410 C   0  0  0  0  0  0  0  0  0  0  0  0
   -7.1350   21.3220  -32.1770 C   0  0  0  0  0  0  0  0  0  0  0  0
   -5.7560   21.4960  -32.3190 C   0  0  0  0  0  0  0  0  0  0  0  0
   -5.0720   20.5760  -33.0430 F   0  0  0  0  0  0  0  0  0  0  0  0
   -5.1110   22.6050  -31.7200 C   0  0  0  0  0  0  0  0  0  0  0  0
   -3.7260   22.8230  -31.8200 O   0  0  0  0  0  0  0  0  0  0  0  0
   -2.7110   21.8350  -31.6730 C   0  0  0  0  0  0  0  0  0  0  0  0
   -2.4630   24.0390  -28.1860 C   0  0  0  0  0  0  0  0  0  0  0  0
   -2.2330   25.2710  -28.3300 O   0  0  0  0  0  0  0  0  0  0  0  0
    0.4237   25.2963  -26.1394 H   0  0  0  0  0  0  0  0  0  0  0  0
    1.5376   26.2737  -27.1546 H   0  0  0  0  0  0  0  0  0  0  0  0
   -0.2230   26.6297  -27.1546 H   0  0  0  0  0  0  0  0  0  0  0  0
   -0.8959   21.0576  -27.5830 H   0  0  0  0  0  0  0  0  0  0  0  0
   -3.2707   20.2978  -27.5687 H   0  0  0  0  0  0  0  0  0  0  0  0
   -5.0951   21.9402  -27.9894 H   0  0  0  0  0  0  0  0  0  0  0  0
   -5.5980   24.5570  -27.8330 H   0  0  0  0  0  0  0  0  0  0  0  0
   -7.8638   24.0470  -30.2617 H   0  0  0  0  0  0  0  0  0  0  0  0
   -8.9718   22.0918  -31.3298 H   0  0  0  0  0  0  0  0  0  0  0  0
   -7.6294   20.4597  -32.6482 H   0  0  0  0  0  0  0  0  0  0  0  0
   -2.5264   21.6553  -30.6036 H   0  0  0  0  0  0  0  0  0  0  0  0
   -3.0378   20.8997  -32.1509 H   0  0  0  0  0  0  0  0  0  0  0  0
   -1.7848   22.1869  -32.1509 H   0  0  0  0  0  0  0  0  0  0  0  0
  1  2  1  0
  2  3  1  0
  3  4  2  0
  3  5  1  0
  5  6  2  0
  6  7  1  0
  7  8  2  0
  8  9  1  0
  9 10  1  0
 10 11  1  0
 11 12  2  0
 11 13  2  0
 11 14  1  0
 14 15  2  0
 15 16  1  0
 16 17  2  0
 17 18  1  0
 18 19  1  0
 18 20  2  0
 20 21  1  0
 21 22  1  0
  9 23  1  0
 23 24  2  0
 23  5  1  0
 20 14  1  0
  1 25  1  0
  1 26  1  0
  1 27  1  0
  6 28  1  0
  7 29  1  0
  8 30  1  0
 10 31  1  0
 15 32  1  0
 16 33  1  0
 17 34  1  0
 22 35  1  0
 22 36  1  0
 22 37  1  0
M  END
>  <UniqueID>  (34) 
33

>  <SMILES>  (34) 
COC(=O)c1cccn(NS(=O)(=O)c2cccc(F)c2OC)c1=O

>  <Energy>  (34) 
46.166682443800234

>  <Genealogy>  (34) 
COC(=O)c1cccn(NS(=O)(=O)c2cccc(F)c2OC)c1=O (3D coordinates assigned)
COC(=O)c1cccn(NS(=O)(=O)c2cccc(F)c2OC)c1=O (optimized conformer: 46.166682443800234 kcal/mol)

>  <smiles>  (34) 
COC(=O)c1cccn(NS(=O)(=O)c2cccc(F)c2OC)c1=O

>  <score_type>  (34) 
oracle

>  <origin>  (34) 
adgpu

>  <m_score__min__energy>  (34) 
-7.9299999999999997

>  <m_primary>  (34) 
energy

$$$$
34:0
     RDKit          3D

 43 45  0  0  0  0  0  0  0  0999 V2000
   -3.1780   14.1500  -33.1120 N   0  0  0  0  0  0  0  0  0  0  0  0
   -4.8240   14.4580  -32.6880 S   0  0  0  0  0  0  0  0  0  0  0  0
   -4.9630   14.4830  -31.1900 O   0  0  0  0  0  0  0  0  0  0  0  0
   -5.6940   13.3610  -33.2340 O   0  0  0  0  0  0  0  0  0  0  0  0
   -5.3240   16.0080  -33.3570 C   0  0  0  0  0  0  0  0  0  0  0  0
   -4.7990   16.4550  -34.5770 C   0  0  0  0  0  0  0  0  0  0  0  0
   -5.1970   17.6880  -35.1020 C   0  0  0  0  0  0  0  0  0  0  0  0
   -6.1140   18.4830  -34.4090 C   0  0  0  0  0  0  0  0  0  0  0  0
   -6.6290   18.0520  -33.1790 C   0  0  0  0  0  0  0  0  0  0  0  0
   -7.7990   19.0390  -32.3110 S   0  0  0  0  0  0  0  0  0  0  0  0
   -9.0990   19.0700  -33.0680 O   0  0  0  0  0  0  0  0  0  0  0  0
   -8.0650   18.4520  -30.9530 O   0  0  0  0  0  0  0  0  0  0  0  0
   -7.1610   20.6690  -32.1440 C   0  0  0  0  0  0  0  0  0  0  0  0
   -7.9140   21.6580  -31.4990 C   0  0  0  0  0  0  0  0  0  0  0  0
   -7.3980   22.9480  -31.3460 C   0  0  0  0  0  0  0  0  0  0  0  0
   -6.1220   23.2650  -31.8470 C   0  0  0  0  0  0  0  0  0  0  0  0
   -5.5480   24.5700  -31.6890 N   0  0  0  0  0  0  0  0  0  0  0  0
   -5.0640   25.1340  -30.4650 C   0  0  0  0  0  0  0  0  0  0  0  0
   -5.8880   25.3960  -29.5490 O   0  0  0  0  0  0  0  0  0  0  0  0
   -3.6570   25.2950  -30.2440 N   0  0  0  0  0  0  0  0  0  0  0  0
   -2.8340   24.5220  -29.3580 C   0  0  0  0  0  0  0  0  0  0  0  0
   -3.2300   23.2520  -28.8950 C   0  0  0  0  0  0  0  0  0  0  0  0
   -2.4140   22.5380  -28.0120 C   0  0  0  0  0  0  0  0  0  0  0  0
   -1.2070   23.0880  -27.5720 C   0  0  0  0  0  0  0  0  0  0  0  0
   -0.8190   24.3580  -28.0070 C   0  0  0  0  0  0  0  0  0  0  0  0
   -1.6310   25.0760  -28.8910 C   0  0  0  0  0  0  0  0  0  0  0  0
   -1.2370   26.3420  -29.3100 O   0  0  0  0  0  0  0  0  0  0  0  0
   -5.3590   22.2630  -32.4590 C   0  0  0  0  0  0  0  0  0  0  0  0
   -5.8760   20.9730  -32.6120 C   0  0  0  0  0  0  0  0  0  0  0  0
   -6.2360   16.8110  -32.6580 C   0  0  0  0  0  0  0  0  0  0  0  0
   -3.1900   13.5980  -33.9990 H   0  0  0  0  0  0  0  0  0  0  0  0
   -4.0726   15.8347  -35.1224 H   0  0  0  0  0  0  0  0  0  0  0  0
   -4.7875   18.0333  -36.0628 H   0  0  0  0  0  0  0  0  0  0  0  0
   -6.4320   19.4484  -34.8296 H   0  0  0  0  0  0  0  0  0  0  0  0
   -8.9152   21.4188  -31.1113 H   0  0  0  0  0  0  0  0  0  0  0  0
   -7.9917   23.7182  -30.8320 H   0  0  0  0  0  0  0  0  0  0  0  0
   -4.1849   22.8202  -29.2293 H   0  0  0  0  0  0  0  0  0  0  0  0
   -2.7227   21.5415  -27.6631 H   0  0  0  0  0  0  0  0  0  0  0  0
   -0.5627   22.5215  -26.8836 H   0  0  0  0  0  0  0  0  0  0  0  0
    0.1270   24.7940  -27.6535 H   0  0  0  0  0  0  0  0  0  0  0  0
   -4.3462   22.4923  -32.8218 H   0  0  0  0  0  0  0  0  0  0  0  0
   -5.2721   20.1946  -33.1012 H   0  0  0  0  0  0  0  0  0  0  0  0
   -6.6450   16.4661  -31.6969 H   0  0  0  0  0  0  0  0  0  0  0  0
  1  2  1  0
  2  3  2  0
  2  4  2  0
  2  5  1  0
  5  6  2  0
  6  7  1  0
  7  8  2  0
  8  9  1  0
  9 10  1  0
 10 11  2  0
 10 12  2  0
 10 13  1  0
 13 14  2  0
 14 15  1  0
 15 16  2  0
 16 17  1  0
 17 18  1  0
 18 19  2  0
 18 20  1  0
 20 21  1  0
 21 22  2  0
 22 23  1  0
 23 24  2  0
 24 25  1  0
 25 26  2  0
 26 27  1  0
 16 28  1  0
 28 29  2  0
  9 30  2  0
 30  5  1  0
 29 13  1  0
 26 21  1  0
  1 31  1  0
  6 32  1  0
  7 33  1  0
  8 34  1  0
 14 35  1  0
 15 36  1  0
 22 37  1  0
 23 38  1  0
 24 39  1  0
 25 40  1  0
 28 41  1  0
 29 42  1  0
 30 43  1  0
M  CHG  4   1  -1  17  -1  20  -1  27  -1
M  END
>  <UniqueID>  (35) 
34

>  <SMILES>  (35) 
[NH-]S(=O)(=O)c1cccc(S(=O)(=O)c2ccc([N-]C(=O)[N-]c3ccccc3[O-])cc2)c1

>  <Energy>  (35) 
54.336134008654994

>  <Genealogy>  (35) 
[NH-]S(=O)(=O)c1cccc(S(=O)(=O)c2ccc([N-]C(=O)[N-]c3ccccc3[O-])cc2)c1 (protonated)
[NH-]S(=O)(=O)c1cccc(S(=O)(=O)c2ccc([N-]C(=O)[N-]c3ccccc3[O-])cc2)c1 (3D coordinates assigned)
[NH-]S(=O)(=O)c1cccc(S(=O)(=O)c2ccc([N-]C(=O)[N-]c3ccccc3[O-])cc2)c1 (optimized conformer: 54.336134008654994 kcal/mol)

>  <smiles>  (35) 
NS(=O)(=O)c1cccc(S(=O)(=O)c2ccc(NC(=O)Nc3ccccc3O)cc2)c1

>  <score_type>  (35) 
oracle

>  <origin>  (35) 
adgpu

>  <m_score__min__energy>  (35) 
-15.24

>  <m_primary>  (35) 
energy

$$$$
35:0
     RDKit          3D

 39 41  0  0  0  0  0  0  0  0999 V2000
    0.6090   17.9070  -35.0050 C   0  0  0  0  0  0  0  0  0  0  0  0
    0.7080   19.3670  -35.3750 C   0  0  0  0  0  0  0  0  0  0  0  0
   -0.2090   20.3090  -34.8630 C   0  0  0  0  0  0  0  0  0  0  0  0
   -1.2820   19.8900  -34.0000 N   0  0  0  0  0  0  0  0  0  0  0  0
   -2.0280   20.7900  -33.1610 C   0  0  0  0  0  0  0  0  0  0  0  0
   -3.3340   21.1910  -33.4980 C   0  0  0  0  0  0  0  0  0  0  0  0
   -4.0330   22.0810  -32.6780 C   0  0  0  0  0  0  0  0  0  0  0  0
   -3.4350   22.5880  -31.5170 C   0  0  0  0  0  0  0  0  0  0  0  0
   -4.3160   23.6970  -30.4710 S   0  0  0  0  0  0  0  0  0  0  0  0
   -5.4360   24.3170  -31.2580 O   0  0  0  0  0  0  0  0  0  0  0  0
   -4.8950   22.9690  -29.2900 O   0  0  0  0  0  0  0  0  0  0  0  0
   -3.2590   24.9540  -29.9030 N   0  0  0  0  0  0  0  0  0  0  0  0
   -2.3520   24.8450  -28.9750 C   0  0  0  0  0  0  0  0  0  0  0  0
   -2.1120   23.6380  -28.2850 C   0  0  0  0  0  0  0  0  0  0  0  0
   -1.1160   23.5940  -27.3070 C   0  0  0  0  0  0  0  0  0  0  0  0
   -0.3710   24.7370  -27.0190 C   0  0  0  0  0  0  0  0  0  0  0  0
   -0.6340   25.9150  -27.7170 C   0  0  0  0  0  0  0  0  0  0  0  0
   -1.6060   25.9410  -28.6670 N   0  0  0  0  0  0  0  0  0  0  0  0
   -2.1260   22.2110  -31.1920 C   0  0  0  0  0  0  0  0  0  0  0  0
   -1.4260   21.3210  -32.0120 C   0  0  0  0  0  0  0  0  0  0  0  0
   -0.1040   21.6190  -35.2310 N   0  0  0  0  0  0  0  0  0  0  0  0
    0.8760   22.0350  -36.0760 C   0  0  0  0  0  0  0  0  0  0  0  0
    0.9600   23.2500  -36.3990 O   0  0  0  0  0  0  0  0  0  0  0  0
    1.7620   21.1420  -36.5830 N   0  0  0  0  0  0  0  0  0  0  0  0
    1.6980   19.8260  -36.2620 C   0  0  0  0  0  0  0  0  0  0  0  0
    2.5340   19.0310  -36.7670 O   0  0  0  0  0  0  0  0  0  0  0  0
    0.6021   17.8060  -33.9097 H   0  0  0  0  0  0  0  0  0  0  0  0
   -0.3197   17.4863  -35.4178 H   0  0  0  0  0  0  0  0  0  0  0  0
    1.4724   17.3648  -35.4178 H   0  0  0  0  0  0  0  0  0  0  0  0
   -1.5570   18.8830  -34.0060 H   0  0  0  0  0  0  0  0  0  0  0  0
   -3.8072   20.8019  -34.4116 H   0  0  0  0  0  0  0  0  0  0  0  0
   -5.0560   22.3844  -32.9451 H   0  0  0  0  0  0  0  0  0  0  0  0
   -2.7039   22.7399  -28.5152 H   0  0  0  0  0  0  0  0  0  0  0  0
   -0.9192   22.6578  -26.7640 H   0  0  0  0  0  0  0  0  0  0  0  0
    0.4151   24.7096  -26.2500 H   0  0  0  0  0  0  0  0  0  0  0  0
   -0.0545   26.8241  -27.4988 H   0  0  0  0  0  0  0  0  0  0  0  0
   -1.6470   22.6165  -30.2886 H   0  0  0  0  0  0  0  0  0  0  0  0
   -0.3956   21.0355  -31.7537 H   0  0  0  0  0  0  0  0  0  0  0  0
   -0.7990   22.3160  -34.8810 H   0  0  0  0  0  0  0  0  0  0  0  0
  1  2  1  0
  2  3  2  0
  3  4  1  0
  4  5  1  0
  5  6  2  0
  6  7  1  0
  7  8  2  0
  8  9  1  0
  9 10  2  0
  9 11  2  0
  9 12  1  0
 12 13  2  3
 13 14  1  0
 14 15  2  0
 15 16  1  0
 16 17  2  0
 17 18  1  0
  8 19  1  0
 19 20  2  0
  3 21  1  0
 21 22  1  0
 22 23  2  0
 22 24  1  0
 24 25  1  0
 25 26  2  0
 25  2  1  0
 20  5  1  0
 18 13  1  0
  1 27  1  0
  1 28  1  0
  1 29  1  0
  4 30  1  0
  6 31  1  0
  7 32  1  0
 14 33  1  0
 15 34  1  0
 16 35  1  0
 17 36  1  0
 19 37  1  0
 20 38  1  0
 21 39  1  0
M  CHG  2  18  -1  24  -1
M  END
>  <UniqueID>  (36) 
35

>  <SMILES>  (36) 
Cc1c(Nc2ccc(S(=O)(=O)N=c3cccc[n-]3)cc2)[nH]c(=O)[n-]c1=O

>  <Energy>  (36) 
54.96491215502345

>  <Genealogy>  (36) 
Cc1c(Nc2ccc(S(=O)(=O)N=c3cccc[n-]3)cc2)[nH]c(=O)[n-]c1=O (protonated)
Cc1c(Nc2ccc(S(=O)(=O)N=c3cccc[n-]3)cc2)[nH]c(=O)[n-]c1=O (3D coordinates assigned)
Cc1c(Nc2ccc(S(=O)(=O)N=c3cccc[n-]3)cc2)[nH]c(=O)[n-]c1=O (optimized conformer: 54.96491215502345 kcal/mol)

>  <smiles>  (36) 
Cc1c(Nc2ccc(S(=O)(=O)N=c3cccc[nH]3)cc2)[nH]c(=O)[nH]c1=O

>  <score_type>  (36) 
oracle

>  <origin>  (36) 
adgpu

>  <m_score__min__energy>  (36) 
-10.619999999999999

>  <m_primary>  (36) 
energy

$$$$
36:0
     RDKit          3D

 30 30  0  0  0  0  0  0  0  0999 V2000
   -0.8100   26.6660  -27.7580 C   0  0  0  0  0  0  0  0  0  0  0  0
   -1.3010   26.0060  -28.9200 O   0  0  0  0  0  0  0  0  0  0  0  0
   -1.7180   24.6670  -28.9560 C   0  0  0  0  0  0  0  0  0  0  0  0
   -1.0620   23.6540  -28.2290 C   0  0  0  0  0  0  0  0  0  0  0  0
   -1.5080   22.3240  -28.2950 C   0  0  0  0  0  0  0  0  0  0  0  0
   -0.8230   21.2520  -27.4860 C   0  0  0  0  0  0  0  0  0  0  0  0
   -0.8510   21.5800  -25.9880 C   0  0  0  0  0  0  0  0  0  0  0  0
   -0.0300   22.7570  -25.6810 N   0  0  0  0  0  0  0  0  0  0  0  0
    0.1950   23.2290  -24.4810 C   0  0  0  0  0  0  0  0  0  0  0  0
   -0.3310   22.5970  -23.3060 N   0  0  0  0  0  0  0  0  0  0  0  0
    0.9930   24.4060  -24.3280 N   0  0  0  0  0  0  0  0  0  0  0  0
   -2.6300   22.0120  -29.0780 C   0  0  0  0  0  0  0  0  0  0  0  0
   -3.2830   23.0110  -29.8010 C   0  0  0  0  0  0  0  0  0  0  0  0
   -2.8310   24.3330  -29.7420 C   0  0  0  0  0  0  0  0  0  0  0  0
   -3.4920   25.3180  -30.4660 O   0  0  0  0  0  0  0  0  0  0  0  0
   -1.1888   26.1568  -26.8595 H   0  0  0  0  0  0  0  0  0  0  0  0
    0.2897   26.6395  -27.7583 H   0  0  0  0  0  0  0  0  0  0  0  0
   -1.1515   27.7116  -27.7583 H   0  0  0  0  0  0  0  0  0  0  0  0
   -0.1928   23.9071  -27.6042 H   0  0  0  0  0  0  0  0  0  0  0  0
   -1.3372   20.2940  -27.6526 H   0  0  0  0  0  0  0  0  0  0  0  0
    0.2270   21.1917  -27.8084 H   0  0  0  0  0  0  0  0  0  0  0  0
   -1.8894   21.7793  -25.6848 H   0  0  0  0  0  0  0  0  0  0  0  0
   -0.4414   20.7199  -25.4381 H   0  0  0  0  0  0  0  0  0  0  0  0
    0.4050   23.2440  -26.4970 H   0  0  0  0  0  0  0  0  0  0  0  0
   -0.1520   23.0180  -22.3690 H   0  0  0  0  0  0  0  0  0  0  0  0
   -0.8730   21.7060  -23.3300 H   0  0  0  0  0  0  0  0  0  0  0  0
    1.3920   24.8990  -25.1570 H   0  0  0  0  0  0  0  0  0  0  0  0
    1.1870   24.7940  -23.3780 H   0  0  0  0  0  0  0  0  0  0  0  0
   -2.9962   20.9757  -29.1220 H   0  0  0  0  0  0  0  0  0  0  0  0
   -4.1566   22.7577  -30.4196 H   0  0  0  0  0  0  0  0  0  0  0  0
  1  2  1  0
  2  3  1  0
  3  4  2  0
  4  5  1  0
  5  6  1  0
  6  7  1  0
  7  8  1  0
  8  9  2  3
  9 10  1  0
  9 11  1  0
  5 12  2  0
 12 13  1  0
 13 14  2  0
 14 15  1  0
 14  3  1  0
  1 16  1  0
  1 17  1  0
  1 18  1  0
  4 19  1  0
  6 20  1  0
  6 21  1  0
  7 22  1  0
  7 23  1  0
  8 24  1  0
 10 25  1  0
 10 26  1  0
 11 27  1  0
 11 28  1  0
 12 29  1  0
 13 30  1  0
M  CHG  2   8   1  15  -1
M  END
>  <UniqueID>  (37) 
36

>  <SMILES>  (37) 
COc1cc(CC[NH+]=C(N)N)ccc1[O-]

>  <Energy>  (37) 
23.134662268572626

>  <Genealogy>  (37) 
COc1cc(CC[NH+]=C(N)N)ccc1[O-] (protonated)
COc1cc(CC[NH+]=C(N)N)ccc1[O-] (3D coordinates assigned)
COc1cc(CC[NH+]=C(N)N)ccc1[O-] (optimized conformer: 23.134662268572626 kcal/mol)

>  <smiles>  (37) 
COc1cc(CCN=C(N)N)ccc1O

>  <score_type>  (37) 
oracle

>  <origin>  (37) 
adgpu

>  <m_score__min__energy>  (37) 
-9.0899999999999999

>  <m_primary>  (37) 
energy

$$$$
37:0
     RDKit          3D

 49 52  0  0  0  0  0  0  0  0999 V2000
   -0.4410   29.4130  -25.2150 C   0  0  0  0  0  0  0  0  0  0  0  0
   -0.6260   27.9250  -25.2620 C   0  0  0  0  0  0  0  0  0  0  0  0
   -0.6260   27.1780  -24.0760 C   0  0  0  0  0  0  0  0  0  0  0  0
   -0.8320   25.7970  -24.1170 C   0  0  0  0  0  0  0  0  0  0  0  0
   -1.0570   25.1550  -25.3370 C   0  0  0  0  0  0  0  0  0  0  0  0
   -1.0880   25.8920  -26.5350 C   0  0  0  0  0  0  0  0  0  0  0  0
   -1.3280   25.2200  -27.8360 C   0  0  0  0  0  0  0  0  0  0  0  0
   -0.3550   24.9830  -28.6030 O   0  0  0  0  0  0  0  0  0  0  0  0
   -2.6590   24.8760  -28.2520 N   0  0  0  0  0  0  0  0  0  0  0  0
   -2.9340   23.9050  -29.2700 C   0  0  0  0  0  0  0  0  0  0  0  0
   -1.9930   22.5310  -29.5280 S   0  0  0  0  0  0  0  0  0  0  0  0
   -2.8710   21.9910  -30.8560 C   0  0  0  0  0  0  0  0  0  0  0  0
   -3.8700   22.9040  -31.1570 C   0  0  0  0  0  0  0  0  0  0  0  0
   -3.9220   23.9820  -30.2580 C   0  0  0  0  0  0  0  0  0  0  0  0
   -4.8320   25.0910  -30.4090 C   0  0  0  0  0  0  0  0  0  0  0  0
   -5.5630   25.9800  -30.5320 N   0  0  0  0  0  0  0  0  0  0  0  0
   -4.8090   22.6850  -32.3090 C   0  0  0  0  0  0  0  0  0  0  0  0
   -4.2870   21.5830  -33.2590 C   0  0  0  0  0  0  0  0  0  0  0  0
   -3.7150   20.4130  -32.5440 N   0  0  0  0  0  0  0  0  0  0  0  0
   -4.7170   19.6540  -31.7610 C   0  0  0  0  0  0  0  0  0  0  0  0
   -5.3750   18.5950  -32.6050 C   0  0  0  0  0  0  0  0  0  0  0  0
   -4.7630   18.1630  -33.7940 C   0  0  0  0  0  0  0  0  0  0  0  0
   -5.3790   17.1940  -34.5910 C   0  0  0  0  0  0  0  0  0  0  0  0
   -6.6110   16.6530  -34.2090 C   0  0  0  0  0  0  0  0  0  0  0  0
   -7.2280   17.0810  -33.0310 C   0  0  0  0  0  0  0  0  0  0  0  0
   -6.6140   18.0490  -32.2310 C   0  0  0  0  0  0  0  0  0  0  0  0
   -2.5530   20.8060  -31.7140 C   0  0  0  0  0  0  0  0  0  0  0  0
   -0.8700   27.2810  -26.4850 C   0  0  0  0  0  0  0  0  0  0  0  0
   -0.3998   29.7444  -24.1669 H   0  0  0  0  0  0  0  0  0  0  0  0
    0.4975   29.6820  -25.7218 H   0  0  0  0  0  0  0  0  0  0  0  0
   -1.2851   29.9036  -25.7218 H   0  0  0  0  0  0  0  0  0  0  0  0
   -0.4634   27.6803  -23.1110 H   0  0  0  0  0  0  0  0  0  0  0  0
   -0.8170   25.2129  -23.1850 H   0  0  0  0  0  0  0  0  0  0  0  0
   -1.2110   24.0661  -25.3612 H   0  0  0  0  0  0  0  0  0  0  0  0
   -3.4510   25.4760  -27.9310 H   0  0  0  0  0  0  0  0  0  0  0  0
   -5.7920   22.3842  -31.9175 H   0  0  0  0  0  0  0  0  0  0  0  0
   -4.8862   23.6240  -32.8766 H   0  0  0  0  0  0  0  0  0  0  0  0
   -5.1232   21.2358  -33.8837 H   0  0  0  0  0  0  0  0  0  0  0  0
   -3.4779   22.0260  -33.8582 H   0  0  0  0  0  0  0  0  0  0  0  0
   -4.2169   19.1736  -30.9071 H   0  0  0  0  0  0  0  0  0  0  0  0
   -5.4908   20.3536  -31.4120 H   0  0  0  0  0  0  0  0  0  0  0  0
   -3.7956   18.5890  -34.0986 H   0  0  0  0  0  0  0  0  0  0  0  0
   -4.8946   16.8567  -35.5192 H   0  0  0  0  0  0  0  0  0  0  0  0
   -7.0944   15.8899  -34.8367 H   0  0  0  0  0  0  0  0  0  0  0  0
   -8.1977   16.6560  -32.7327 H   0  0  0  0  0  0  0  0  0  0  0  0
   -7.1032   18.3846  -31.3047 H   0  0  0  0  0  0  0  0  0  0  0  0
   -2.2725   19.9611  -31.0678 H   0  0  0  0  0  0  0  0  0  0  0  0
   -1.7239   21.0763  -32.3845 H   0  0  0  0  0  0  0  0  0  0  0  0
   -0.8910   27.8687  -27.4146 H   0  0  0  0  0  0  0  0  0  0  0  0
  1  2  1  0
  2  3  2  0
  3  4  1  0
  4  5  2  0
  5  6  1  0
  6  7  1  0
  7  8  2  0
  7  9  1  0
  9 10  1  0
 10 11  1  0
 11 12  1  0
 12 13  2  0
 13 14  1  0
 14 15  1  0
 15 16  3  0
 13 17  1  0
 17 18  1  0
 18 19  1  0
 19 20  1  0
 20 21  1  0
 21 22  2  0
 22 23  1  0
 23 24  2  0
 24 25  1  0
 25 26  2  0
 19 27  1  0
  6 28  2  0
 28  2  1  0
 14 10  2  0
 26 21  1  0
 27 12  1  0
  1 29  1  0
  1 30  1  0
  1 31  1  0
  3 32  1  0
  4 33  1  0
  5 34  1  0
  9 35  1  0
 17 36  1  0
 17 37  1  0
 18 38  1  0
 18 39  1  0
 20 40  1  0
 20 41  1  0
 22 42  1  0
 23 43  1  0
 24 44  1  0
 25 45  1  0
 26 46  1  0
 27 47  1  0
 27 48  1  0
 28 49  1  0
M  END
>  <UniqueID>  (38) 
37

>  <SMILES>  (38) 
Cc1cccc(C(=O)Nc2sc3c(c2C#N)CCN(Cc2ccccc2)C3)c1

>  <Energy>  (38) 
90.08785465855746

>  <Genealogy>  (38) 
Cc1cccc(C(=O)Nc2sc3c(c2C#N)CCN(Cc2ccccc2)C3)c1 (3D coordinates assigned)
Cc1cccc(C(=O)Nc2sc3c(c2C#N)CCN(Cc2ccccc2)C3)c1 (nonaromatic ring conformer: 90.08785465855746 kcal/mol)

>  <smiles>  (38) 
Cc1cccc(C(=O)Nc2sc3c(c2C#N)CCN(Cc2ccccc2)C3)c1

>  <score_type>  (38) 
oracle

>  <origin>  (38) 
adgpu

>  <m_score__min__energy>  (38) 
-9.6500000000000004

>  <m_primary>  (38) 
energy

$$$$
38:0
     RDKit          3D

 36 39  0  0  0  0  0  0  0  0999 V2000
   -3.8730   25.6590  -30.4130 O   0  0  0  0  0  0  0  0  0  0  0  0
   -4.7160   24.6350  -30.8280 C   0  0  0  0  0  0  0  0  0  0  0  0
   -6.1150   24.8380  -30.8460 C   0  0  0  0  0  0  0  0  0  0  0  0
   -6.9790   23.8080  -31.2650 C   0  0  0  0  0  0  0  0  0  0  0  0
   -6.4040   22.6000  -31.6550 C   0  0  0  0  0  0  0  0  0  0  0  0
   -7.0270   21.4950  -32.0860 N   0  0  0  0  0  0  0  0  0  0  0  0
   -5.9940   20.6410  -32.3200 C   0  0  0  0  0  0  0  0  0  0  0  0
   -6.1890   19.2620  -32.8200 C   0  0  0  0  0  0  0  0  0  0  0  0
   -6.6560   18.2510  -31.9630 C   0  0  0  0  0  0  0  0  0  0  0  0
   -6.8430   16.9500  -32.4370 C   0  0  0  0  0  0  0  0  0  0  0  0
   -6.5610   16.6350  -33.7740 C   0  0  0  0  0  0  0  0  0  0  0  0
   -6.8050   15.2420  -34.2980 C   0  0  0  0  0  0  0  0  0  0  0  0
   -5.6500   14.2950  -33.9520 C   0  0  0  0  0  0  0  0  0  0  0  0
   -4.3340   15.0130  -33.9260 C   0  0  0  0  0  0  0  0  0  0  0  0
   -3.5920   15.3050  -32.8060 C   0  0  0  0  0  0  0  0  0  0  0  0
   -2.5150   16.0190  -33.1730 N   0  0  0  0  0  0  0  0  0  0  0  0
   -2.6410   16.1410  -34.5120 C   0  0  0  0  0  0  0  0  0  0  0  0
   -3.7460   15.5480  -35.0100 N   0  0  0  0  0  0  0  0  0  0  0  0
   -6.1010   17.6420  -34.6350 C   0  0  0  0  0  0  0  0  0  0  0  0
   -5.9140   18.9440  -34.1620 C   0  0  0  0  0  0  0  0  0  0  0  0
   -4.7660   21.1660  -32.0570 N   0  0  0  0  0  0  0  0  0  0  0  0
   -5.0580   22.4050  -31.6380 C   0  0  0  0  0  0  0  0  0  0  0  0
   -4.1720   23.3990  -31.2300 C   0  0  0  0  0  0  0  0  0  0  0  0
   -6.5311   25.8063  -30.5308 H   0  0  0  0  0  0  0  0  0  0  0  0
   -8.0694   23.9519  -31.2838 H   0  0  0  0  0  0  0  0  0  0  0  0
   -6.8760   18.4856  -30.9111 H   0  0  0  0  0  0  0  0  0  0  0  0
   -7.2136   16.1684  -31.7575 H   0  0  0  0  0  0  0  0  0  0  0  0
   -7.7319   14.8511  -33.8529 H   0  0  0  0  0  0  0  0  0  0  0  0
   -6.8863   15.2974  -35.3936 H   0  0  0  0  0  0  0  0  0  0  0  0
   -5.8351   13.8537  -32.9615 H   0  0  0  0  0  0  0  0  0  0  0  0
   -5.6008   13.5161  -34.7272 H   0  0  0  0  0  0  0  0  0  0  0  0
   -3.8398   15.0033  -31.7776 H   0  0  0  0  0  0  0  0  0  0  0  0
   -1.9107   16.6742  -35.1384 H   0  0  0  0  0  0  0  0  0  0  0  0
   -5.8863   17.4060  -35.6877 H   0  0  0  0  0  0  0  0  0  0  0  0
   -5.5490   19.7256  -34.8445 H   0  0  0  0  0  0  0  0  0  0  0  0
   -3.0858   23.2253  -31.2219 H   0  0  0  0  0  0  0  0  0  0  0  0
  1  2  1  0
  2  3  2  0
  3  4  1  0
  4  5  2  0
  5  6  1  0
  6  7  1  0
  7  8  1  0
  8  9  2  0
  9 10  1  0
 10 11  2  0
 11 12  1  0
 12 13  1  0
 13 14  1  0
 14 15  2  0
 15 16  1  0
 16 17  1  0
 17 18  2  0
 11 19  1  0
 19 20  2  0
  7 21  2  0
 21 22  1  0
 22 23  2  0
 23  2  1  0
 22  5  1  0
 20  8  1  0
 18 14  1  0
  3 24  1  0
  4 25  1  0
  9 26  1  0
 10 27  1  0
 12 28  1  0
 12 29  1  0
 13 30  1  0
 13 31  1  0
 15 32  1  0
 17 33  1  0
 19 34  1  0
 20 35  1  0
 23 36  1  0
M  CHG  3   1  -1   6  -1  16  -1
M  END
>  <UniqueID>  (39) 
38

>  <SMILES>  (39) 
[O-]c1ccc2[n-]c(-c3ccc(CCc4c[n-]cn4)cc3)nc2c1

>  <Energy>  (39) 
99.37726037038547

>  <Genealogy>  (39) 
[O-]c1ccc2[n-]c(-c3ccc(CCc4c[n-]cn4)cc3)nc2c1 (protonated)
[O-]c1ccc2[n-]c(-c3ccc(CCc4c[n-]cn4)cc3)nc2c1 (3D coordinates assigned)
[O-]c1ccc2[n-]c(-c3ccc(CCc4c[n-]cn4)cc3)nc2c1 (optimized conformer: 99.37726037038547 kcal/mol)

>  <smiles>  (39) 
Oc1ccc2[nH]c(-c3ccc(CCc4c[nH]cn4)cc3)nc2c1

>  <score_type>  (39) 
oracle

>  <origin>  (39) 
adgpu

>  <m_score__min__energy>  (39) 
-10.35

>  <m_primary>  (39) 
energy

$$$$
39:0
     RDKit          3D

 45 47  0  0  0  0  0  0  0  0999 V2000
   -4.2870   19.6840  -33.5050 C   0  0  0  0  0  0  0  0  0  0  0  0
   -4.5880   21.0840  -32.4450 S   0  0  0  0  0  0  0  0  0  0  0  0
   -4.0870   22.3020  -33.1730 O   0  0  0  0  0  0  0  0  0  0  0  0
   -3.8010   20.9510  -31.1710 O   0  0  0  0  0  0  0  0  0  0  0  0
   -6.3150   21.2840  -32.0740 C   0  0  0  0  0  0  0  0  0  0  0  0
   -7.2110   20.3520  -32.6310 C   0  0  0  0  0  0  0  0  0  0  0  0
   -8.5800   20.4340  -32.3830 C   0  0  0  0  0  0  0  0  0  0  0  0
   -9.0810   21.4480  -31.5730 C   0  0  0  0  0  0  0  0  0  0  0  0
   -8.2170   22.3860  -31.0120 C   0  0  0  0  0  0  0  0  0  0  0  0
   -6.8330   22.3340  -31.2600 C   0  0  0  0  0  0  0  0  0  0  0  0
   -5.8250   23.5770  -30.4950 S   0  0  0  0  0  0  0  0  0  0  0  0
   -4.9810   24.2410  -31.5470 O   0  0  0  0  0  0  0  0  0  0  0  0
   -6.6760   24.5920  -29.7890 O   0  0  0  0  0  0  0  0  0  0  0  0
   -4.7830   22.8370  -29.3210 N   0  0  0  0  0  0  0  0  0  0  0  0
   -3.4540   23.2670  -29.0050 C   0  0  0  0  0  0  0  0  0  0  0  0
   -2.9740   24.5400  -29.3630 C   0  0  0  0  0  0  0  0  0  0  0  0
   -1.6700   24.9230  -29.0290 C   0  0  0  0  0  0  0  0  0  0  0  0
   -1.2370   26.2050  -29.3500 O   0  0  0  0  0  0  0  0  0  0  0  0
   -0.8200   24.0260  -28.3540 C   0  0  0  0  0  0  0  0  0  0  0  0
    0.4920   24.3810  -28.0060 O   0  0  0  0  0  0  0  0  0  0  0  0
    0.8870   24.8750  -26.7550 C   0  0  0  0  0  0  0  0  0  0  0  0
    2.1110   24.5240  -26.1630 C   0  0  0  0  0  0  0  0  0  0  0  0
    2.4360   25.0050  -24.9350 N   0  0  0  0  0  0  0  0  0  0  0  0
    1.6080   25.8320  -24.2440 C   0  0  0  0  0  0  0  0  0  0  0  0
    0.3760   26.2200  -24.7950 C   0  0  0  0  0  0  0  0  0  0  0  0
   -0.5830   27.1010  -24.0350 C   0  0  0  0  0  0  0  0  0  0  0  0
   -0.5270   28.3950  -24.5230 F   0  0  0  0  0  0  0  0  0  0  0  0
   -0.2760   27.1320  -22.6850 F   0  0  0  0  0  0  0  0  0  0  0  0
   -1.8690   26.6160  -24.1900 F   0  0  0  0  0  0  0  0  0  0  0  0
    0.0160   25.7110  -26.0520 C   0  0  0  0  0  0  0  0  0  0  0  0
   -1.3080   22.7670  -27.9780 C   0  0  0  0  0  0  0  0  0  0  0  0
   -0.2810   21.6380  -27.1070 Cl  0  0  0  0  0  0  0  0  0  0  0  0
   -2.6140   22.3900  -28.3090 C   0  0  0  0  0  0  0  0  0  0  0  0
   -4.0954   18.7926  -32.8896 H   0  0  0  0  0  0  0  0  0  0  0  0
   -5.1680   19.5087  -34.1399 H   0  0  0  0  0  0  0  0  0  0  0  0
   -3.4118   19.8863  -34.1399 H   0  0  0  0  0  0  0  0  0  0  0  0
   -6.8245   19.5461  -33.2722 H   0  0  0  0  0  0  0  0  0  0  0  0
   -9.2645   19.6968  -32.8278 H   0  0  0  0  0  0  0  0  0  0  0  0
  -10.1613   21.5093  -31.3751 H   0  0  0  0  0  0  0  0  0  0  0  0
   -8.6226   23.1785  -30.3660 H   0  0  0  0  0  0  0  0  0  0  0  0
   -3.6268   25.2377  -29.9081 H   0  0  0  0  0  0  0  0  0  0  0  0
    2.8075   23.8587  -26.6944 H   0  0  0  0  0  0  0  0  0  0  0  0
    1.9038   26.1986  -23.2500 H   0  0  0  0  0  0  0  0  0  0  0  0
   -0.9598   25.9723  -26.4874 H   0  0  0  0  0  0  0  0  0  0  0  0
   -2.9841   21.3953  -28.0197 H   0  0  0  0  0  0  0  0  0  0  0  0
  1  2  1  0
  2  3  2  0
  2  4  2  0
  2  5  1  0
  5  6  2  0
  6  7  1  0
  7  8  2  0
  8  9  1  0
  9 10  2  0
 10 11  1  0
 11 12  2  0
 11 13  2  0
 11 14  1  0
 14 15  1  0
 15 16  2  0
 16 17  1  0
 17 18  1  0
 17 19  2  0
 19 20  1  0
 20 21  1  0
 21 22  2  0
 22 23  1  0
 23 24  2  0
 24 25  1  0
 25 26  1  0
 26 27  1  0
 26 28  1  0
 26 29  1  0
 25 30  2  0
 19 31  1  0
 31 32  1  0
 31 33  2  0
 10  5  1  0
 33 15  1  0
 30 21  1  0
  1 34  1  0
  1 35  1  0
  1 36  1  0
  6 37  1  0
  7 38  1  0
  8 39  1  0
  9 40  1  0
 16 41  1  0
 22 42  1  0
 24 43  1  0
 30 44  1  0
 33 45  1  0
M  CHG  2  14  -1  18  -1
M  END
>  <UniqueID>  (40) 
39

>  <SMILES>  (40) 
CS(=O)(=O)c1ccccc1S(=O)(=O)[N-]c1cc([O-])c(Oc2cncc(C(F)(F)F)c2)c(Cl)c1

>  <Energy>  (40) 
64.58120028380573

>  <Genealogy>  (40) 
CS(=O)(=O)c1ccccc1S(=O)(=O)[N-]c1cc([O-])c(Oc2cncc(C(F)(F)F)c2)c(Cl)c1 (protonated)
CS(=O)(=O)c1ccccc1S(=O)(=O)[N-]c1cc([O-])c(Oc2cncc(C(F)(F)F)c2)c(Cl)c1 (3D coordinates assigned)
CS(=O)(=O)c1ccccc1S(=O)(=O)[N-]c1cc([O-])c(Oc2cncc(C(F)(F)F)c2)c(Cl)c1 (optimized conformer: 64.58120028380573 kcal/mol)

>  <smiles>  (40) 
CS(=O)(=O)c1ccccc1S(=O)(=O)Nc1cc(O)c(Oc2cncc(C(F)(F)F)c2)c(Cl)c1

>  <score_type>  (40) 
oracle

>  <origin>  (40) 
adgpu

>  <m_score__min__energy>  (40) 
-12.91

>  <m_primary>  (40) 
energy

$$$$
40:0
     RDKit          3D

 58 61  0  0  0  0  0  0  0  0999 V2000
   -5.0040   15.8130  -32.0720 C   0  0  0  0  0  0  0  0  0  0  0  0
   -5.1810   16.5060  -33.3590 N   0  0  0  0  0  0  0  0  0  0  0  0
   -4.0510   17.4100  -33.6610 C   0  0  0  0  0  0  0  0  0  0  0  0
   -4.0390   18.6760  -32.7800 C   0  0  0  0  0  0  0  0  0  0  0  0
   -5.4630   19.1950  -32.4520 C   0  0  0  0  0  0  0  0  0  0  0  0
   -5.5190   20.6700  -32.3400 N   0  0  0  0  0  0  0  0  0  0  0  0
   -4.3580   21.4630  -32.6530 C   0  0  0  0  0  0  0  0  0  0  0  0
   -3.9530   21.5140  -33.8450 O   0  0  0  0  0  0  0  0  0  0  0  0
   -3.6360   22.2090  -31.5920 C   0  0  0  0  0  0  0  0  0  0  0  0
   -4.2640   23.2700  -30.9140 C   0  0  0  0  0  0  0  0  0  0  0  0
   -3.5810   23.9820  -29.9240 C   0  0  0  0  0  0  0  0  0  0  0  0
   -2.2630   23.6460  -29.5940 C   0  0  0  0  0  0  0  0  0  0  0  0
   -1.4050   24.5710  -28.3640 S   0  0  0  0  0  0  0  0  0  0  0  0
    0.0640   24.2720  -28.4810 O   0  0  0  0  0  0  0  0  0  0  0  0
   -1.6140   26.0440  -28.5920 O   0  0  0  0  0  0  0  0  0  0  0  0
   -1.9780   24.1120  -26.7740 N   0  0  0  0  0  0  0  0  0  0  0  0
   -2.8410   25.1580  -26.2150 C   0  0  0  0  0  0  0  0  0  0  0  0
   -1.9770   26.0840  -25.3700 C   0  0  0  0  0  0  0  0  0  0  0  0
   -0.6850   25.3270  -25.1300 C   0  0  0  0  0  0  0  0  0  0  0  0
   -0.8540   23.9920  -25.8390 C   0  0  0  0  0  0  0  0  0  0  0  0
   -1.6300   22.5930  -30.2670 C   0  0  0  0  0  0  0  0  0  0  0  0
   -2.3080   21.8820  -31.2600 C   0  0  0  0  0  0  0  0  0  0  0  0
   -6.7570   21.3700  -32.0670 C   0  0  0  0  0  0  0  0  0  0  0  0
   -7.8940   20.7070  -31.5610 C   0  0  0  0  0  0  0  0  0  0  0  0
   -9.0660   21.4270  -31.3260 C   0  0  0  0  0  0  0  0  0  0  0  0
   -9.1120   22.7930  -31.6020 C   0  0  0  0  0  0  0  0  0  0  0  0
   -7.9800   23.4210  -32.1180 C   0  0  0  0  0  0  0  0  0  0  0  0
   -6.8460   22.7040  -32.3390 N   0  0  0  0  0  0  0  0  0  0  0  0
   -6.4830   18.6860  -33.4800 C   0  0  0  0  0  0  0  0  0  0  0  0
   -6.5190   17.1460  -33.4820 C   0  0  0  0  0  0  0  0  0  0  0  0
   -5.1843   16.5187  -31.2477 H   0  0  0  0  0  0  0  0  0  0  0  0
   -5.7180   14.9790  -32.0034 H   0  0  0  0  0  0  0  0  0  0  0  0
   -3.9775   15.4235  -32.0034 H   0  0  0  0  0  0  0  0  0  0  0  0
   -3.1110   16.8619  -33.4997 H   0  0  0  0  0  0  0  0  0  0  0  0
   -4.1619   17.7373  -34.7053 H   0  0  0  0  0  0  0  0  0  0  0  0
   -3.5243   18.4423  -31.8363 H   0  0  0  0  0  0  0  0  0  0  0  0
   -3.5208   19.4660  -33.3434 H   0  0  0  0  0  0  0  0  0  0  0  0
   -5.7278   18.7901  -31.4641 H   0  0  0  0  0  0  0  0  0  0  0  0
   -5.3001   23.5411  -31.1649 H   0  0  0  0  0  0  0  0  0  0  0  0
   -4.0818   24.8105  -29.4017 H   0  0  0  0  0  0  0  0  0  0  0  0
   -3.3115   25.7278  -27.0298 H   0  0  0  0  0  0  0  0  0  0  0  0
   -3.6332   24.7085  -25.5983 H   0  0  0  0  0  0  0  0  0  0  0  0
   -1.7783   27.0222  -25.9089 H   0  0  0  0  0  0  0  0  0  0  0  0
   -2.4722   26.3550  -24.4259 H   0  0  0  0  0  0  0  0  0  0  0  0
    0.1676   25.8799  -25.5510 H   0  0  0  0  0  0  0  0  0  0  0  0
   -0.4847   25.1947  -24.0565 H   0  0  0  0  0  0  0  0  0  0  0  0
    0.0649   23.7436  -26.3904 H   0  0  0  0  0  0  0  0  0  0  0  0
   -1.0500   23.1941  -25.1077 H   0  0  0  0  0  0  0  0  0  0  0  0
   -0.5941   22.3248  -30.0123 H   0  0  0  0  0  0  0  0  0  0  0  0
   -1.8002   21.0604  -31.7864 H   0  0  0  0  0  0  0  0  0  0  0  0
   -7.8573   19.6276  -31.3526 H   0  0  0  0  0  0  0  0  0  0  0  0
   -9.9535   20.9170  -30.9231 H   0  0  0  0  0  0  0  0  0  0  0  0
  -10.0308   23.3680  -31.4147 H   0  0  0  0  0  0  0  0  0  0  0  0
   -8.0039   24.4967  -32.3465 H   0  0  0  0  0  0  0  0  0  0  0  0
   -7.4805   19.0717  -33.2227 H   0  0  0  0  0  0  0  0  0  0  0  0
   -6.1886   19.0378  -34.4798 H   0  0  0  0  0  0  0  0  0  0  0  0
   -7.1396   16.8140  -32.6366 H   0  0  0  0  0  0  0  0  0  0  0  0
   -6.9283   16.8399  -34.4560 H   0  0  0  0  0  0  0  0  0  0  0  0
  1  2  1  0
  2  3  1  0
  3  4  1  0
  4  5  1  0
  5  6  1  0
  6  7  1  0
  7  8  2  0
  7  9  1  0
  9 10  2  0
 10 11  1  0
 11 12  2  0
 12 13  1  0
 13 14  2  0
 13 15  2  0
 13 16  1  0
 16 17  1  0
 17 18  1  0
 18 19  1  0
 19 20  1  0
 12 21  1  0
 21 22  2  0
  6 23  1  0
 23 24  2  0
 24 25  1  0
 25 26  2  0
 26 27  1  0
 27 28  2  0
  5 29  1  0
 29 30  1  0
 30  2  1  0
 22  9  1  0
 28 23  1  0
 20 16  1  0
  1 31  1  0
  1 32  1  0
  1 33  1  0
  3 34  1  0
  3 35  1  0
  4 36  1  0
  4 37  1  0
  5 38  1  0
 10 39  1  0
 11 40  1  0
 17 41  1  0
 17 42  1  0
 18 43  1  0
 18 44  1  0
 19 45  1  0
 19 46  1  0
 20 47  1  0
 20 48  1  0
 21 49  1  0
 22 50  1  0
 24 51  1  0
 25 52  1  0
 26 53  1  0
 27 54  1  0
 29 55  1  0
 29 56  1  0
 30 57  1  0
 30 58  1  0
M  END
>  <UniqueID>  (41) 
40

>  <SMILES>  (41) 
CN1CCC(N(C(=O)c2ccc(S(=O)(=O)N3CCCC3)cc2)c2ccccn2)CC1

>  <Energy>  (41) 
82.00969461112578

>  <Genealogy>  (41) 
CN1CCC(N(C(=O)c2ccc(S(=O)(=O)N3CCCC3)cc2)c2ccccn2)CC1 (3D coordinates assigned)
CN1CCC(N(C(=O)c2ccc(S(=O)(=O)N3CCCC3)cc2)c2ccccn2)CC1 (nonaromatic ring conformer: 82.00969461112578 kcal/mol)

>  <smiles>  (41) 
CN1CCC(N(C(=O)c2ccc(S(=O)(=O)N3CCCC3)cc2)c2ccccn2)CC1

>  <score_type>  (41) 
oracle

>  <origin>  (41) 
adgpu

>  <m_score__min__energy>  (41) 
-10.220000000000001

>  <m_primary>  (41) 
energy

$$$$
41:0
     RDKit          3D

 55 57  0  0  1  0  0  0  0  0999 V2000
   -0.8400   25.6590  -27.9660 C   0  0  0  0  0  0  0  0  0  0  0  0
   -1.2210   25.2280  -29.3170 N   0  0  0  0  0  0  0  0  0  0  0  0
   -1.2830   23.7550  -29.3530 C   0  0  0  0  0  0  0  0  0  0  0  0
   -2.7040   23.2650  -29.3620 C   0  0  0  0  0  0  0  0  0  0  0  0
   -3.7020   24.1610  -28.9080 N   0  0  0  0  0  0  0  0  0  0  0  0
   -4.8130   24.3940  -29.4370 C   0  0  0  0  0  0  0  0  0  0  0  0
   -5.6630   25.2740  -28.8970 N   0  0  0  0  0  0  0  0  0  0  0  0
   -6.8640   25.5800  -29.4010 C   0  0  0  0  0  0  0  0  0  0  0  0
   -7.2300   24.9380  -30.5470 N   0  0  0  0  0  0  0  0  0  0  0  0
   -6.4080   24.0460  -31.1230 C   0  0  0  0  0  0  0  0  0  0  0  0
   -6.8670   23.4220  -32.3170 N   0  0  0  0  0  0  0  0  0  0  0  0
   -5.1700   23.7480  -30.5820 C   0  0  0  0  0  0  0  0  0  0  0  0
   -4.3870   22.7750  -31.2730 C   0  0  0  0  0  0  0  0  0  0  0  0
   -3.7260   21.9270  -31.8860 C   0  0  0  0  0  0  0  0  0  0  0  0
   -2.9400   20.9520  -32.5830 C   0  0  0  0  0  0  0  0  0  0  0  0
   -1.5900   21.1610  -32.7090 C   0  0  0  0  0  0  0  0  0  0  0  0
   -0.8640   20.2290  -33.3530 N   0  0  0  0  0  0  0  0  0  0  0  0
   -1.3940   19.1090  -33.8770 C   0  0  0  0  0  0  0  0  0  0  0  0
   -0.5540   18.1950  -34.5310 O   0  0  0  0  0  0  0  0  0  0  0  0
   -0.2280   16.9450  -33.9610 C   0  0  0  0  0  0  0  0  0  0  0  0
   -2.7740   18.8450  -33.7790 C   0  0  0  0  0  0  0  0  0  0  0  0
   -3.2970   17.6730  -34.3340 N   0  0  0  0  0  0  0  0  0  0  0  0
   -4.9360   17.3620  -34.7020 S   0  0  0  0  0  0  0  0  0  0  0  0
   -5.1830   15.8680  -34.5710 O   0  0  0  0  0  0  0  0  0  0  0  0
   -5.2900   17.8200  -36.0930 O   0  0  0  0  0  0  0  0  0  0  0  0
   -6.0450   18.1770  -33.6210 C   0  0  0  0  0  0  0  0  0  0  0  0
   -6.4580   19.4780  -33.8900 C   0  0  0  0  0  0  0  0  0  0  0  0
   -7.3190   20.1680  -33.0580 C   0  0  0  0  0  0  0  0  0  0  0  0
   -7.7980   19.5450  -31.9040 C   0  0  0  0  0  0  0  0  0  0  0  0
   -7.4030   18.2420  -31.6050 C   0  0  0  0  0  0  0  0  0  0  0  0
   -6.5410   17.5990  -32.4710 C   0  0  0  0  0  0  0  0  0  0  0  0
   -3.4930   19.8110  -33.1170 C   0  0  0  0  0  0  0  0  0  0  0  0
   -1.3768   25.0517  -27.2223 H   0  0  0  0  0  0  0  0  0  0  0  0
    0.2440   25.5292  -27.8318 H   0  0  0  0  0  0  0  0  0  0  0  0
   -1.1018   26.7189  -27.8318 H   0  0  0  0  0  0  0  0  0  0  0  0
   -0.5190   25.5900  -29.9690 H   0  0  0  0  0  0  0  0  0  0  0  0
   -0.7757   23.3977  -30.2613 H   0  0  0  0  0  0  0  0  0  0  0  0
   -0.7888   23.3659  -28.4506 H   0  0  0  0  0  0  0  0  0  0  0  0
   -2.9525   22.9906  -30.3978 H   0  0  0  0  0  0  0  0  0  0  0  0
   -2.7211   22.4340  -28.6415 H   0  0  0  0  0  0  0  0  0  0  0  0
   -5.3680   25.7620  -28.0130 H   0  0  0  0  0  0  0  0  0  0  0  0
   -7.5239   26.3136  -28.9147 H   0  0  0  0  0  0  0  0  0  0  0  0
   -7.8090   22.9830  -32.2860 H   0  0  0  0  0  0  0  0  0  0  0  0
   -6.2710   23.4090  -33.2040 H   0  0  0  0  0  0  0  0  0  0  0  0
   -1.1154   22.0633  -32.2960 H   0  0  0  0  0  0  0  0  0  0  0  0
   -0.2490   17.0255  -32.8641 H   0  0  0  0  0  0  0  0  0  0  0  0
   -0.9596   16.1912  -34.2874 H   0  0  0  0  0  0  0  0  0  0  0  0
    0.7786   16.6445  -34.2874 H   0  0  0  0  0  0  0  0  0  0  0  0
   -2.5990   16.9000  -34.5530 H   0  0  0  0  0  0  0  0  0  0  0  0
   -6.0857   19.9754  -34.7978 H   0  0  0  0  0  0  0  0  0  0  0  0
   -7.6235   21.1964  -33.3022 H   0  0  0  0  0  0  0  0  0  0  0  0
   -8.4851   20.0808  -31.2326 H   0  0  0  0  0  0  0  0  0  0  0  0
   -7.7699   17.7372  -30.6992 H   0  0  0  0  0  0  0  0  0  0  0  0
   -6.2333   16.5706  -32.2309 H   0  0  0  0  0  0  0  0  0  0  0  0
   -4.5774   19.6629  -33.0073 H   0  0  0  0  0  0  0  0  0  0  0  0
  1  2  1  0
  2  3  1  0
  3  4  1  0
  4  5  1  0
  5  6  2  0
  6  7  1  0
  7  8  1  0
  8  9  2  0
  9 10  1  0
 10 11  1  0
 10 12  2  0
 12 13  1  0
 13 14  3  0
 14 15  1  0
 15 16  2  0
 16 17  1  0
 17 18  2  0
 18 19  1  0
 19 20  1  0
 18 21  1  0
 21 22  1  0
 22 23  1  0
 23 24  2  0
 23 25  2  0
 23 26  1  0
 26 27  2  0
 27 28  1  0
 28 29  2  0
 29 30  1  0
 30 31  2  0
 21 32  2  0
 12  6  1  0
 32 15  1  0
 31 26  1  0
  1 33  1  0
  1 34  1  0
  1 35  1  0
  2 36  1  0
  3 37  1  0
  3 38  1  0
  4 39  1  0
  4 40  1  0
  7 41  1  0
  8 42  1  0
 11 43  1  0
 11 44  1  0
 16 45  1  0
 20 46  1  0
 20 47  1  0
 20 48  1  0
 22 49  1  0
 27 50  1  0
 28 51  1  0
 29 52  1  0
 30 53  1  0
 31 54  1  0
 32 55  1  0
M  END
>  <smiles>  (42) 
CNCCN=c1[nH]cnc(N)c1C#Cc1cnc(OC)c(NS(=O)(=O)c2ccccc2)c1

>  <score_type>  (42) 
oracle

>  <origin>  (42) 
adgpu

>  <m_score__min__energy>  (42) 
-8.9399999999999995

>  <m_primary>  (42) 
energy

$$$$
42:0
     RDKit          3D

 46 48  0  0  0  0  0  0  0  0999 V2000
   -3.8860   25.3270  -30.8440 O   0  0  0  0  0  0  0  0  0  0  0  0
   -4.3730   24.2050  -29.9710 S   0  0  0  0  0  0  0  0  0  0  0  0
   -5.4520   24.7180  -29.0580 O   0  0  0  0  0  0  0  0  0  0  0  0
   -5.0200   22.9430  -30.9770 N   0  0  0  0  0  0  0  0  0  0  0  0
   -6.4120   23.2410  -31.3200 C   0  0  0  0  0  0  0  0  0  0  0  0
   -7.0910   21.9830  -31.7820 C   0  0  0  0  0  0  0  0  0  0  0  0
   -8.4370   21.7420  -31.4580 C   0  0  0  0  0  0  0  0  0  0  0  0
   -9.0770   20.5890  -31.9240 C   0  0  0  0  0  0  0  0  0  0  0  0
   -8.3830   19.6760  -32.7220 C   0  0  0  0  0  0  0  0  0  0  0  0
   -7.0480   19.9170  -33.0610 C   0  0  0  0  0  0  0  0  0  0  0  0
   -6.4050   21.0680  -32.5990 C   0  0  0  0  0  0  0  0  0  0  0  0
   -3.0160   23.5930  -29.0210 C   0  0  0  0  0  0  0  0  0  0  0  0
   -3.0590   22.2880  -28.5100 C   0  0  0  0  0  0  0  0  0  0  0  0
   -1.9850   21.7770  -27.7700 C   0  0  0  0  0  0  0  0  0  0  0  0
   -2.0400   20.1270  -27.1480 S   0  0  0  0  0  0  0  0  0  0  0  0
   -3.4740   19.7210  -26.9520 O   0  0  0  0  0  0  0  0  0  0  0  0
   -1.3670   20.0930  -25.8040 O   0  0  0  0  0  0  0  0  0  0  0  0
   -1.2510   18.9820  -28.2140 N   0  0  0  0  0  0  0  0  0  0  0  0
   -0.1940   18.2020  -27.5340 C   0  0  0  0  0  0  0  0  0  0  0  0
    1.2220   18.7070  -27.8530 C   0  0  0  0  0  0  0  0  0  0  0  0
    1.2030   20.0890  -28.1280 O   0  0  0  0  0  0  0  0  0  0  0  0
    0.5530   20.3190  -29.3620 C   0  0  0  0  0  0  0  0  0  0  0  0
   -0.8090   19.5960  -29.4800 C   0  0  0  0  0  0  0  0  0  0  0  0
   -0.8630   22.5820  -27.5330 C   0  0  0  0  0  0  0  0  0  0  0  0
   -0.8100   23.8800  -28.0480 C   0  0  0  0  0  0  0  0  0  0  0  0
   -1.8780   24.3860  -28.7940 C   0  0  0  0  0  0  0  0  0  0  0  0
   -1.7950   25.6750  -29.3110 O   0  0  0  0  0  0  0  0  0  0  0  0
   -4.4610   22.9370  -31.8610 H   0  0  0  0  0  0  0  0  0  0  0  0
   -6.9321   23.6351  -30.4345 H   0  0  0  0  0  0  0  0  0  0  0  0
   -6.4404   23.9911  -32.1241 H   0  0  0  0  0  0  0  0  0  0  0  0
   -8.9888   22.4622  -30.8361 H   0  0  0  0  0  0  0  0  0  0  0  0
  -10.1286   20.4007  -31.6618 H   0  0  0  0  0  0  0  0  0  0  0  0
   -8.8869   18.7675  -33.0836 H   0  0  0  0  0  0  0  0  0  0  0  0
   -6.5034   19.1994  -33.6922 H   0  0  0  0  0  0  0  0  0  0  0  0
   -5.3576   21.2589  -32.8758 H   0  0  0  0  0  0  0  0  0  0  0  0
   -3.9437   21.6601  -28.6918 H   0  0  0  0  0  0  0  0  0  0  0  0
   -0.3535   18.2677  -26.4476 H   0  0  0  0  0  0  0  0  0  0  0  0
   -0.2640   17.1658  -27.8965 H   0  0  0  0  0  0  0  0  0  0  0  0
    1.8766   18.5188  -26.9892 H   0  0  0  0  0  0  0  0  0  0  0  0
    1.5990   18.1734  -28.7380 H   0  0  0  0  0  0  0  0  0  0  0  0
    0.3849   21.4005  -29.4718 H   0  0  0  0  0  0  0  0  0  0  0  0
    1.2041   19.9184  -30.1529 H   0  0  0  0  0  0  0  0  0  0  0  0
   -1.5669   20.3273  -29.7975 H   0  0  0  0  0  0  0  0  0  0  0  0
   -0.6866   18.7844  -30.2123 H   0  0  0  0  0  0  0  0  0  0  0  0
   -0.0224   22.1916  -26.9405 H   0  0  0  0  0  0  0  0  0  0  0  0
    0.0759   24.5060  -27.8655 H   0  0  0  0  0  0  0  0  0  0  0  0
  1  2  2  0
  2  3  2  0
  2  4  1  0
  4  5  1  0
  5  6  1  0
  6  7  2  0
  7  8  1  0
  8  9  2  0
  9 10  1  0
 10 11  2  0
  2 12  1  0
 12 13  2  0
 13 14  1  0
 14 15  1  0
 15 16  2  0
 15 17  2  0
 15 18  1  0
 18 19  1  0
 19 20  1  0
 20 21  1  0
 21 22  1  0
 22 23  1  0
 14 24  2  0
 24 25  1  0
 25 26  2  0
 26 27  1  0
 11  6  1  0
 26 12  1  0
 23 18  1  0
  4 28  1  0
  5 29  1  0
  5 30  1  0
  7 31  1  0
  8 32  1  0
  9 33  1  0
 10 34  1  0
 11 35  1  0
 13 36  1  0
 19 37  1  0
 19 38  1  0
 20 39  1  0
 20 40  1  0
 22 41  1  0
 22 42  1  0
 23 43  1  0
 23 44  1  0
 24 45  1  0
 25 46  1  0
M  CHG  1  27  -1
M  END
>  <UniqueID>  (43) 
41

>  <SMILES>  (43) 
O=S(=O)(NCc1ccccc1)c1cc(S(=O)(=O)N2CCOCC2)ccc1[O-]

>  <Energy>  (43) 
54.87274965772147

>  <Genealogy>  (43) 
O=S(=O)(NCc1ccccc1)c1cc(S(=O)(=O)N2CCOCC2)ccc1[O-] (protonated)
O=S(=O)(NCc1ccccc1)c1cc(S(=O)(=O)N2CCOCC2)ccc1[O-] (3D coordinates assigned)
O=S(=O)(NCc1ccccc1)c1cc(S(=O)(=O)N2CCOCC2)ccc1[O-] (nonaromatic ring conformer: 54.87274965772147 kcal/mol)

>  <smiles>  (43) 
O=S(=O)(NCc1ccccc1)c1cc(S(=O)(=O)N2CCOCC2)ccc1O

>  <score_type>  (43) 
oracle

>  <origin>  (43) 
adgpu

>  <m_score__min__energy>  (43) 
-12.390000000000001

>  <m_primary>  (43) 
energy

$$$$
43:0
     RDKit          3D

 52 55  0  0  1  0  0  0  0  0999 V2000
   -1.7460   19.6530  -26.6850 C   0  0  0  0  0  0  0  0  0  0  0  0
   -3.0930   20.0230  -27.3100 C   0  0  0  0  0  0  0  0  0  0  0  0
   -2.8250   21.2600  -28.1150 C   0  0  0  0  0  0  0  0  0  0  0  0
   -2.3990   22.4150  -27.4590 C   0  0  0  0  0  0  0  0  0  0  0  0
   -2.1440   23.5700  -28.1670 C   0  0  0  0  0  0  0  0  0  0  0  0
   -1.6840   24.8330  -27.5260 C   0  0  0  0  0  0  0  0  0  0  0  0
   -0.5400   24.6730  -26.6280 C   0  0  0  0  0  0  0  0  0  0  0  0
   -0.7970   24.6620  -25.2570 C   0  0  0  0  0  0  0  0  0  0  0  0
    0.2170   24.5170  -24.3920 N   0  0  0  0  0  0  0  0  0  0  0  0
    1.4820   24.3800  -24.8100 C   0  0  0  0  0  0  0  0  0  0  0  0
    2.4490   24.2400  -23.9640 N   0  0  0  0  0  0  0  0  0  0  0  0
    1.7610   24.3860  -26.1270 N   0  0  0  0  0  0  0  0  0  0  0  0
    0.7780   24.5310  -27.0700 C   0  0  0  0  0  0  0  0  0  0  0  0
    1.0470   24.5320  -28.2440 N   0  0  0  0  0  0  0  0  0  0  0  0
   -2.3190   23.5600  -29.5360 C   0  0  0  0  0  0  0  0  0  0  0  0
   -2.7470   22.4070  -30.2120 C   0  0  0  0  0  0  0  0  0  0  0  0
   -2.8840   22.5260  -31.6100 N   0  0  0  0  0  0  0  0  0  0  0  0
   -3.8980   22.7260  -32.2790 N   0  0  0  0  0  0  0  0  0  0  0  0
   -5.1730   22.8760  -31.6890 C   0  0  0  0  0  0  0  0  0  0  0  0
   -5.3790   24.0590  -30.9650 C   0  0  0  0  0  0  0  0  0  0  0  0
   -4.3690   25.0050  -30.8540 O   0  0  0  0  0  0  0  0  0  0  0  0
   -6.5880   24.3090  -30.3440 C   0  0  0  0  0  0  0  0  0  0  0  0
   -7.6120   23.3890  -30.4340 C   0  0  0  0  0  0  0  0  0  0  0  0
   -7.3830   22.2330  -31.1540 C   0  0  0  0  0  0  0  0  0  0  0  0
   -8.4450   21.3300  -31.2230 C   0  0  0  0  0  0  0  0  0  0  0  0
   -8.2530   20.1830  -31.9270 C   0  0  0  0  0  0  0  0  0  0  0  0
   -7.0460   19.9070  -32.5620 C   0  0  0  0  0  0  0  0  0  0  0  0
   -5.9760   20.7980  -32.5030 C   0  0  0  0  0  0  0  0  0  0  0  0
   -6.1910   21.9540  -31.7840 C   0  0  0  0  0  0  0  0  0  0  0  0
   -2.9970   21.2630  -29.4910 C   0  0  0  0  0  0  0  0  0  0  0  0
   -1.8317   19.6765  -25.5886 H   0  0  0  0  0  0  0  0  0  0  0  0
   -1.4569   18.6422  -27.0086 H   0  0  0  0  0  0  0  0  0  0  0  0
   -0.9812   20.3743  -27.0086 H   0  0  0  0  0  0  0  0  0  0  0  0
   -3.4536   19.2110  -27.9586 H   0  0  0  0  0  0  0  0  0  0  0  0
   -3.8690   20.1878  -26.5480 H   0  0  0  0  0  0  0  0  0  0  0  0
   -2.2654   22.4041  -26.3672 H   0  0  0  0  0  0  0  0  0  0  0  0
   -1.4015   25.5391  -28.3207 H   0  0  0  0  0  0  0  0  0  0  0  0
   -2.5197   25.1943  -26.9087 H   0  0  0  0  0  0  0  0  0  0  0  0
   -1.8271   24.7718  -24.8872 H   0  0  0  0  0  0  0  0  0  0  0  0
    0.0160   24.5090  -23.3570 H   0  0  0  0  0  0  0  0  0  0  0  0
    2.1680   24.2420  -22.9470 H   0  0  0  0  0  0  0  0  0  0  0  0
    2.7530   24.2800  -26.4570 H   0  0  0  0  0  0  0  0  0  0  0  0
    1.2960   24.5300  -29.1360 H   0  0  0  0  0  0  0  0  0  0  0  0
   -2.1185   24.4765  -30.1103 H   0  0  0  0  0  0  0  0  0  0  0  0
   -3.4920   24.9310  -31.3650 H   0  0  0  0  0  0  0  0  0  0  0  0
   -6.7337   25.2410  -29.7783 H   0  0  0  0  0  0  0  0  0  0  0  0
   -8.5815   23.5707  -29.9471 H   0  0  0  0  0  0  0  0  0  0  0  0
   -9.4035   21.5390  -30.7253 H   0  0  0  0  0  0  0  0  0  0  0  0
   -9.0736   19.4537  -31.9965 H   0  0  0  0  0  0  0  0  0  0  0  0
   -6.9341   18.9667  -33.1218 H   0  0  0  0  0  0  0  0  0  0  0  0
   -5.0171   20.5910  -33.0006 H   0  0  0  0  0  0  0  0  0  0  0  0
   -3.3332   20.3507  -30.0055 H   0  0  0  0  0  0  0  0  0  0  0  0
  1  2  1  0
  2  3  1  0
  3  4  2  0
  4  5  1  0
  5  6  1  0
  6  7  1  0
  7  8  2  0
  8  9  1  0
  9 10  1  0
 10 11  2  3
 10 12  1  0
 12 13  1  0
 13 14  2  3
  5 15  2  0
 15 16  1  0
 16 17  1  0
 17 18  2  0
 18 19  1  0
 19 20  2  0
 20 21  1  0
 20 22  1  0
 22 23  2  0
 23 24  1  0
 24 25  2  0
 25 26  1  0
 26 27  2  0
 27 28  1  0
 28 29  2  0
 16 30  2  0
 30  3  1  0
 13  7  1  0
 29 19  1  0
 29 24  1  0
  1 31  1  0
  1 32  1  0
  1 33  1  0
  2 34  1  0
  2 35  1  0
  4 36  1  0
  6 37  1  0
  6 38  1  0
  8 39  1  0
  9 40  1  0
 11 41  1  0
 12 42  1  0
 14 43  1  0
 15 44  1  0
 21 45  1  0
 22 46  1  0
 23 47  1  0
 25 48  1  0
 26 49  1  0
 27 50  1  0
 28 51  1  0
 30 52  1  0
M  END
>  <smiles>  (44) 
CCc1cc(Cc2c[nH]c(=N)[nH]c2=N)cc(N=Nc2c(O)ccc3ccccc23)c1

>  <score_type>  (44) 
oracle

>  <origin>  (44) 
adgpu

>  <m_score__min__energy>  (44) 
-11.390000000000001

>  <m_primary>  (44) 
energy

$$$$
44:0
     RDKit          3D

 46 48  0  0  0  0  0  0  0  0999 V2000
   -2.7830   19.0980  -34.1670 N   0  0  0  0  0  0  0  0  0  0  0  0
   -3.0630   17.9930  -33.9660 C   0  0  0  0  0  0  0  0  0  0  0  0
   -3.4140   16.5830  -33.7070 C   0  0  2  0  0  0  0  0  0  0  0  0
   -3.3320   15.7220  -34.9950 C   0  0  0  0  0  0  0  0  0  0  0  0
   -4.2250   14.6180  -34.9920 O   0  0  0  0  0  0  0  0  0  0  0  0
   -4.2990   14.0350  -33.7110 C   0  0  0  0  0  0  0  0  0  0  0  0
   -4.9700   14.9980  -32.7060 C   0  0  0  0  0  0  0  0  0  0  0  0
   -4.7250   16.4270  -33.0290 N   0  0  2  0  0  0  0  0  0  0  0  0
   -6.0790   17.1100  -33.9240 S   0  0  0  0  0  0  0  0  0  0  0  0
   -5.6860   17.4150  -35.3420 O   0  0  0  0  0  0  0  0  0  0  0  0
   -7.2430   16.1560  -33.9470 O   0  0  0  0  0  0  0  0  0  0  0  0
   -6.5770   18.6240  -33.1690 C   0  0  0  0  0  0  0  0  0  0  0  0
   -5.8440   19.7920  -33.4130 C   0  0  0  0  0  0  0  0  0  0  0  0
   -6.2230   20.9980  -32.8150 C   0  0  0  0  0  0  0  0  0  0  0  0
   -7.3380   21.0460  -31.9690 C   0  0  0  0  0  0  0  0  0  0  0  0
   -7.8190   22.5710  -31.2200 S   0  0  0  0  0  0  0  0  0  0  0  0
   -8.3470   22.2940  -29.8390 O   0  0  0  0  0  0  0  0  0  0  0  0
   -8.9280   23.1900  -32.0250 O   0  0  0  0  0  0  0  0  0  0  0  0
   -6.4860   23.6930  -31.1120 N   0  0  0  0  0  0  0  0  0  0  0  0
   -5.2950   23.0290  -30.5590 C   0  0  0  0  0  0  0  0  0  0  0  0
   -4.1730   24.0570  -30.3030 C   0  0  0  0  0  0  0  0  0  0  0  0
   -4.5050   25.3260  -30.8330 O   0  0  0  0  0  0  0  0  0  0  0  0
   -5.6610   25.8280  -30.1870 C   0  0  0  0  0  0  0  0  0  0  0  0
   -6.8510   24.8500  -30.2820 C   0  0  0  0  0  0  0  0  0  0  0  0
   -8.0680   19.8750  -31.7200 C   0  0  0  0  0  0  0  0  0  0  0  0
   -7.6900   18.6690  -32.3180 C   0  0  0  0  0  0  0  0  0  0  0  0
   -2.6560   16.2054  -33.0050 H   0  0  0  0  0  0  0  0  0  0  0  0
   -3.5705   16.3613  -35.8578 H   0  0  0  0  0  0  0  0  0  0  0  0
   -2.3116   15.3147  -35.0495 H   0  0  0  0  0  0  0  0  0  0  0  0
   -4.8884   13.1081  -33.7704 H   0  0  0  0  0  0  0  0  0  0  0  0
   -3.2781   13.8188  -33.3632 H   0  0  0  0  0  0  0  0  0  0  0  0
   -6.0548   14.8163  -32.7154 H   0  0  0  0  0  0  0  0  0  0  0  0
   -4.5327   14.8019  -31.7159 H   0  0  0  0  0  0  0  0  0  0  0  0
   -4.6810   16.9520  -32.1210 H   0  0  0  0  0  0  0  0  0  0  0  0
   -4.9676   19.7608  -34.0770 H   0  0  0  0  0  0  0  0  0  0  0  0
   -5.6432   21.9123  -33.0098 H   0  0  0  0  0  0  0  0  0  0  0  0
   -5.5610   22.5397  -29.6104 H   0  0  0  0  0  0  0  0  0  0  0  0
   -4.9354   22.2828  -31.2828 H   0  0  0  0  0  0  0  0  0  0  0  0
   -4.0154   24.1522  -29.2185 H   0  0  0  0  0  0  0  0  0  0  0  0
   -3.2584   23.7024  -30.8007 H   0  0  0  0  0  0  0  0  0  0  0  0
   -5.4276   26.0003  -29.1260 H   0  0  0  0  0  0  0  0  0  0  0  0
   -5.9503   26.7628  -30.6894 H   0  0  0  0  0  0  0  0  0  0  0  0
   -7.1197   24.5041  -29.2729 H   0  0  0  0  0  0  0  0  0  0  0  0
   -7.7074   25.3668  -30.7397 H   0  0  0  0  0  0  0  0  0  0  0  0
   -8.9412   19.9053  -31.0518 H   0  0  0  0  0  0  0  0  0  0  0  0
   -8.2672   17.7537  -32.1203 H   0  0  0  0  0  0  0  0  0  0  0  0
  1  2  3  0
  2  3  1  0
  3  4  1  0
  4  5  1  0
  5  6  1  0
  6  7  1  0
  7  8  1  0
  8  9  1  0
  9 10  2  0
  9 11  2  0
  9 12  1  0
 12 13  2  0
 13 14  1  0
 14 15  2  0
 15 16  1  0
 16 17  2  0
 16 18  2  0
 16 19  1  0
 19 20  1  0
 20 21  1  0
 21 22  1  0
 22 23  1  0
 23 24  1  0
 15 25  1  0
 25 26  2  0
  8  3  1  0
 26 12  1  0
 24 19  1  0
  3 27  1  1
  4 28  1  0
  4 29  1  0
  6 30  1  0
  6 31  1  0
  7 32  1  0
  7 33  1  0
  8 34  1  1
 13 35  1  0
 14 36  1  0
 20 37  1  0
 20 38  1  0
 21 39  1  0
 21 40  1  0
 23 41  1  0
 23 42  1  0
 24 43  1  0
 24 44  1  0
 25 45  1  0
 26 46  1  0
M  CHG  1   8   1
M  END
>  <UniqueID>  (45) 
42

>  <SMILES>  (45) 
N#C[C@@H]1COCC[N@@H+]1S(=O)(=O)c1ccc(S(=O)(=O)N2CCOCC2)cc1

>  <Energy>  (45) 
67.47584810529385

>  <Genealogy>  (45) 
N#CC1COCC[NH+]1S(=O)(=O)c1ccc(S(=O)(=O)N2CCOCC2)cc1 (protonated)
N#C[C@@H]1COCC[N@@H+]1S(=O)(=O)c1ccc(S(=O)(=O)N2CCOCC2)cc1 (chirality)
N#C[C@@H]1COCC[N@@H+]1S(=O)(=O)c1ccc(S(=O)(=O)N2CCOCC2)cc1 (3D coordinates assigned)
N#C[C@@H]1COCC[N@@H+]1S(=O)(=O)c1ccc(S(=O)(=O)N2CCOCC2)cc1 (nonaromatic ring conformer: 67.47584810529385 kcal/mol)

>  <smiles>  (45) 
N#CC1COCCN1S(=O)(=O)c1ccc(S(=O)(=O)N2CCOCC2)cc1

>  <score_type>  (45) 
oracle

>  <origin>  (45) 
adgpu

>  <m_score__min__energy>  (45) 
-8.9499999999999993

>  <m_primary>  (45) 
energy

$$$$
45:0
     RDKit          3D

 71 74  0  0  0  0  0  0  0  0999 V2000
   -8.3040   19.2310  -31.7640 C   0  0  0  0  0  0  0  0  0  0  0  0
   -7.5200   20.5160  -31.8230 C   0  0  0  0  0  0  0  0  0  0  0  0
   -8.0900   21.6600  -31.2410 C   0  0  0  0  0  0  0  0  0  0  0  0
   -7.4290   22.8860  -31.2700 C   0  0  0  0  0  0  0  0  0  0  0  0
   -6.1760   22.9970  -31.8860 C   0  0  0  0  0  0  0  0  0  0  0  0
   -5.4610   24.2400  -31.9350 N   0  0  0  0  0  0  0  0  0  0  0  0
   -5.1270   25.1010  -30.8370 C   0  0  0  0  0  0  0  0  0  0  0  0
   -6.0260   25.7010  -30.1920 O   0  0  0  0  0  0  0  0  0  0  0  0
   -3.7600   25.2940  -30.4620 N   0  0  0  0  0  0  0  0  0  0  0  0
   -2.9660   24.4030  -29.6650 C   0  0  0  0  0  0  0  0  0  0  0  0
   -2.8090   24.6790  -28.3000 C   0  0  0  0  0  0  0  0  0  0  0  0
   -2.0750   23.8150  -27.4830 C   0  0  0  0  0  0  0  0  0  0  0  0
   -1.5000   22.6540  -28.0170 C   0  0  0  0  0  0  0  0  0  0  0  0
   -0.6140   21.5370  -26.9770 S   0  0  0  0  0  0  0  0  0  0  0  0
    0.1570   20.5690  -27.8320 O   0  0  0  0  0  0  0  0  0  0  0  0
   -1.5920   20.7480  -26.1510 O   0  0  0  0  0  0  0  0  0  0  0  0
    0.4900   22.3840  -25.9180 N   0  0  0  0  0  0  0  0  0  0  0  0
    1.0770   23.5510  -26.6160 C   0  0  0  0  0  0  0  0  0  0  0  0
    1.6890   24.5460  -25.6260 C   0  0  0  0  0  0  0  0  0  0  0  0
    0.6140   25.1230  -24.6710 C   0  0  0  0  0  0  0  0  0  0  0  0
    0.1280   26.4980  -25.1460 C   0  0  0  0  0  0  0  0  0  0  0  0
   -0.5830   24.1610  -24.4960 C   0  0  0  0  0  0  0  0  0  0  0  0
   -0.1370   22.6960  -24.6090 C   0  0  0  0  0  0  0  0  0  0  0  0
   -1.6620   22.3710  -29.3800 C   0  0  0  0  0  0  0  0  0  0  0  0
   -2.4030   23.2280  -30.1960 C   0  0  0  0  0  0  0  0  0  0  0  0
   -5.6160   21.8780  -32.5170 C   0  0  0  0  0  0  0  0  0  0  0  0
   -4.3970   22.0250  -33.1710 O   0  0  0  0  0  0  0  0  0  0  0  0
   -6.2660   20.6240  -32.4870 C   0  0  0  0  0  0  0  0  0  0  0  0
   -5.4670   19.2320  -33.2690 S   0  0  0  0  0  0  0  0  0  0  0  0
   -6.0610   19.0310  -34.6360 O   0  0  0  0  0  0  0  0  0  0  0  0
   -5.7020   17.9640  -32.4960 O   0  0  0  0  0  0  0  0  0  0  0  0
   -3.6940   19.4830  -33.4390 C   0  0  0  0  0  0  0  0  0  0  0  0
   -3.0080   18.2740  -34.1040 C   0  0  0  0  0  0  0  0  0  0  0  0
   -1.4730   18.3110  -33.9410 C   0  0  0  0  0  0  0  0  0  0  0  0
   -1.0130   19.6690  -33.5890 N   0  0  0  0  0  0  0  0  0  0  0  0
    0.4550   19.7360  -33.6180 C   0  0  0  0  0  0  0  0  0  0  0  0
   -1.5190   20.0670  -32.2550 C   0  0  0  0  0  0  0  0  0  0  0  0
   -3.0290   19.7830  -32.0890 C   0  0  0  0  0  0  0  0  0  0  0  0
   -8.4737   18.9529  -30.7133 H   0  0  0  0  0  0  0  0  0  0  0  0
   -9.2721   19.3687  -32.2678 H   0  0  0  0  0  0  0  0  0  0  0  0
   -7.7387   18.4331  -32.2678 H   0  0  0  0  0  0  0  0  0  0  0  0
   -9.0739   21.5869  -30.7546 H   0  0  0  0  0  0  0  0  0  0  0  0
   -7.8927   23.7698  -30.8076 H   0  0  0  0  0  0  0  0  0  0  0  0
   -3.2666   25.5817  -27.8689 H   0  0  0  0  0  0  0  0  0  0  0  0
   -1.9479   24.0474  -26.4154 H   0  0  0  0  0  0  0  0  0  0  0  0
    1.8622   23.1999  -27.3017 H   0  0  0  0  0  0  0  0  0  0  0  0
    0.2752   24.0623  -27.1688 H   0  0  0  0  0  0  0  0  0  0  0  0
    2.4584   24.0322  -25.0309 H   0  0  0  0  0  0  0  0  0  0  0  0
    2.1290   25.3773  -26.1964 H   0  0  0  0  0  0  0  0  0  0  0  0
    1.0944   25.2418  -23.6886 H   0  0  0  0  0  0  0  0  0  0  0  0
   -0.0952   27.1295  -24.2734 H   0  0  0  0  0  0  0  0  0  0  0  0
    0.9121   26.9746  -25.7526 H   0  0  0  0  0  0  0  0  0  0  0  0
   -0.7815   26.3760  -25.7526 H   0  0  0  0  0  0  0  0  0  0  0  0
   -1.0329   24.3240  -23.5055 H   0  0  0  0  0  0  0  0  0  0  0  0
   -1.3144   24.3655  -25.2917 H   0  0  0  0  0  0  0  0  0  0  0  0
    0.5920   22.4882  -23.8119 H   0  0  0  0  0  0  0  0  0  0  0  0
   -1.0355   22.0684  -24.5146 H   0  0  0  0  0  0  0  0  0  0  0  0
   -1.2027   21.4684  -29.8094 H   0  0  0  0  0  0  0  0  0  0  0  0
   -2.5473   22.9835  -31.2587 H   0  0  0  0  0  0  0  0  0  0  0  0
   -3.5652   20.3591  -34.0916 H   0  0  0  0  0  0  0  0  0  0  0  0
   -3.3909   17.3517  -33.6428 H   0  0  0  0  0  0  0  0  0  0  0  0
   -3.2339   18.3077  -35.1800 H   0  0  0  0  0  0  0  0  0  0  0  0
   -1.1786   17.6130  -33.1434 H   0  0  0  0  0  0  0  0  0  0  0  0
   -1.0111   18.0201  -34.8960 H   0  0  0  0  0  0  0  0  0  0  0  0
    0.8417   19.7536  -32.5883 H   0  0  0  0  0  0  0  0  0  0  0  0
    0.8519   18.8550  -34.1437 H   0  0  0  0  0  0  0  0  0  0  0  0
    0.7700   20.6495  -34.1437 H   0  0  0  0  0  0  0  0  0  0  0  0
   -0.9674   19.5061  -31.4862 H   0  0  0  0  0  0  0  0  0  0  0  0
   -1.3680   21.1514  -32.1488 H   0  0  0  0  0  0  0  0  0  0  0  0
   -3.1592   18.9155  -31.4253 H   0  0  0  0  0  0  0  0  0  0  0  0
   -3.5044   20.6774  -31.6601 H   0  0  0  0  0  0  0  0  0  0  0  0
  1  2  1  0
  2  3  2  0
  3  4  1  0
  4  5  2  0
  5  6  1  0
  6  7  1  0
  7  8  2  0
  7  9  1  0
  9 10  1  0
 10 11  2  0
 11 12  1  0
 12 13  2  0
 13 14  1  0
 14 15  2  0
 14 16  2  0
 14 17  1  0
 17 18  1  0
 18 19  1  0
 19 20  1  0
 20 21  1  0
 20 22  1  0
 22 23  1  0
 13 24  1  0
 24 25  2  0
  5 26  1  0
 26 27  1  0
 26 28  2  0
 28 29  1  0
 29 30  2  0
 29 31  2  0
 29 32  1  0
 32 33  1  0
 33 34  1  0
 34 35  1  0
 35 36  1  0
 35 37  1  0
 37 38  1  0
 28  2  1  0
 38 32  1  0
 25 10  1  0
 23 17  1  0
  1 39  1  0
  1 40  1  0
  1 41  1  0
  3 42  1  0
  4 43  1  0
 11 44  1  0
 12 45  1  0
 18 46  1  0
 18 47  1  0
 19 48  1  0
 19 49  1  0
 20 50  1  0
 21 51  1  0
 21 52  1  0
 21 53  1  0
 22 54  1  0
 22 55  1  0
 23 56  1  0
 23 57  1  0
 24 58  1  0
 25 59  1  0
 32 60  1  0
 33 61  1  0
 33 62  1  0
 34 63  1  0
 34 64  1  0
 36 65  1  0
 36 66  1  0
 36 67  1  0
 37 68  1  0
 37 69  1  0
 38 70  1  0
 38 71  1  0
M  CHG  3   6  -1   9  -1  27  -1
M  END
>  <UniqueID>  (46) 
43

>  <SMILES>  (46) 
Cc1ccc([N-]C(=O)[N-]c2ccc(S(=O)(=O)N3CCC(C)CC3)cc2)c([O-])c1S(=O)(=O)C1CCN(C)CC1

>  <Energy>  (46) 
89.31220267013276

>  <Genealogy>  (46) 
Cc1ccc([N-]C(=O)[N-]c2ccc(S(=O)(=O)N3CCC(C)CC3)cc2)c([O-])c1S(=O)(=O)C1CCN(C)CC1 (protonated)
Cc1ccc([N-]C(=O)[N-]c2ccc(S(=O)(=O)N3CCC(C)CC3)cc2)c([O-])c1S(=O)(=O)C1CCN(C)CC1 (3D coordinates assigned)
Cc1ccc([N-]C(=O)[N-]c2ccc(S(=O)(=O)N3CCC(C)CC3)cc2)c([O-])c1S(=O)(=O)C1CCN(C)CC1 (nonaromatic ring conformer: 89.31220267013276 kcal/mol)

>  <smiles>  (46) 
Cc1ccc(NC(=O)Nc2ccc(S(=O)(=O)N3CCC(C)CC3)cc2)c(O)c1S(=O)(=O)C1CCN(C)CC1

>  <score_type>  (46) 
oracle

>  <origin>  (46) 
adgpu

>  <m_score__min__energy>  (46) 
-17.870000000000001

>  <m_primary>  (46) 
energy

$$$$
46:0
     RDKit          3D

 63 67  0  0  0  0  0  0  0  0999 V2000
    0.5540   24.2060  -36.1450 C   0  0  0  0  0  0  0  0  0  0  0  0
    1.5710   23.6180  -35.3450 O   0  0  0  0  0  0  0  0  0  0  0  0
    1.8360   22.2450  -35.3370 C   0  0  0  0  0  0  0  0  0  0  0  0
    2.9310   21.7440  -35.9760 N   0  0  0  0  0  0  0  0  0  0  0  0
    3.2090   20.4130  -35.9910 C   0  0  0  0  0  0  0  0  0  0  0  0
    2.3700   19.5170  -35.3230 C   0  0  0  0  0  0  0  0  0  0  0  0
    2.7140   17.7580  -35.3420 S   0  0  0  0  0  0  0  0  0  0  0  0
    1.0300   17.3170  -34.9130 C   0  0  0  0  0  0  0  0  0  0  0  0
    0.6430   17.2730  -33.5690 C   0  0  0  0  0  0  0  0  0  0  0  0
   -0.6610   16.9060  -33.2240 C   0  0  0  0  0  0  0  0  0  0  0  0
   -1.6010   16.5840  -34.2220 C   0  0  0  0  0  0  0  0  0  0  0  0
   -2.9900   16.1850  -33.8620 C   0  0  0  0  0  0  0  0  0  0  0  0
   -3.3160   14.8370  -33.6270 C   0  0  0  0  0  0  0  0  0  0  0  0
   -4.6270   14.4880  -33.2980 C   0  0  0  0  0  0  0  0  0  0  0  0
   -5.5810   15.4470  -33.1880 N   0  0  0  0  0  0  0  0  0  0  0  0
   -5.3060   16.7650  -33.3900 C   0  0  0  0  0  0  0  0  0  0  0  0
   -6.3450   17.7470  -33.2480 N   0  0  0  0  0  0  0  0  0  0  0  0
   -6.3040   18.9710  -34.0510 C   0  0  0  0  0  0  0  0  0  0  0  0
   -6.9720   20.1220  -33.2850 C   0  0  0  0  0  0  0  0  0  0  0  0
   -8.3080   19.7460  -32.8080 N   0  0  0  0  0  0  0  0  0  0  0  0
   -8.2390   18.5740  -31.9250 C   0  0  0  0  0  0  0  0  0  0  0  0
   -7.6310   17.3700  -32.6500 C   0  0  0  0  0  0  0  0  0  0  0  0
   -4.0050   17.1510  -33.7480 C   0  0  0  0  0  0  0  0  0  0  0  0
   -1.2010   16.6420  -35.5720 C   0  0  0  0  0  0  0  0  0  0  0  0
    0.1070   16.9960  -35.9120 C   0  0  0  0  0  0  0  0  0  0  0  0
    1.2470   20.0050  -34.6520 C   0  0  0  0  0  0  0  0  0  0  0  0
    0.9620   21.3730  -34.6710 C   0  0  0  0  0  0  0  0  0  0  0  0
   -0.2070   21.8650  -34.0130 N   0  0  0  0  0  0  0  0  0  0  0  0
   -1.4000   20.7940  -33.3620 S   0  0  0  0  0  0  0  0  0  0  0  0
   -2.0510   20.0250  -34.4750 O   0  0  0  0  0  0  0  0  0  0  0  0
   -0.7240   19.8210  -32.4380 O   0  0  0  0  0  0  0  0  0  0  0  0
   -2.6180   21.7010  -32.4710 C   0  0  0  0  0  0  0  0  0  0  0  0
   -3.8950   21.8820  -33.0220 C   0  0  0  0  0  0  0  0  0  0  0  0
   -4.8350   22.6840  -32.3690 C   0  0  0  0  0  0  0  0  0  0  0  0
   -4.5090   23.3030  -31.1580 C   0  0  0  0  0  0  0  0  0  0  0  0
   -5.7850   24.4240  -30.2840 Br  0  0  0  0  0  0  0  0  0  0  0  0
   -3.2430   23.1130  -30.5970 C   0  0  0  0  0  0  0  0  0  0  0  0
   -2.2980   22.3140  -31.2500 C   0  0  0  0  0  0  0  0  0  0  0  0
   -0.2137   24.6499  -35.4942 H   0  0  0  0  0  0  0  0  0  0  0  0
    0.9939   24.9891  -36.7800 H   0  0  0  0  0  0  0  0  0  0  0  0
    0.0948   23.4341  -36.7800 H   0  0  0  0  0  0  0  0  0  0  0  0
    4.0939   20.0417  -36.5287 H   0  0  0  0  0  0  0  0  0  0  0  0
    1.3673   17.5280  -32.7814 H   0  0  0  0  0  0  0  0  0  0  0  0
   -0.9552   16.8684  -32.1647 H   0  0  0  0  0  0  0  0  0  0  0  0
   -2.5405   14.0605  -33.7022 H   0  0  0  0  0  0  0  0  0  0  0  0
   -4.8875   13.4330  -33.1275 H   0  0  0  0  0  0  0  0  0  0  0  0
   -5.2569   19.2332  -34.2628 H   0  0  0  0  0  0  0  0  0  0  0  0
   -6.8438   18.8030  -34.9946 H   0  0  0  0  0  0  0  0  0  0  0  0
   -6.3454   20.3875  -32.4208 H   0  0  0  0  0  0  0  0  0  0  0  0
   -7.0775   20.9768  -33.9692 H   0  0  0  0  0  0  0  0  0  0  0  0
   -8.9110   19.5150  -33.6330 H   0  0  0  0  0  0  0  0  0  0  0  0
   -7.6167   18.8188  -31.0516 H   0  0  0  0  0  0  0  0  0  0  0  0
   -9.2607   18.3128  -31.6120 H   0  0  0  0  0  0  0  0  0  0  0  0
   -7.4737   16.5522  -31.9313 H   0  0  0  0  0  0  0  0  0  0  0  0
   -8.3174   17.0394  -33.4435 H   0  0  0  0  0  0  0  0  0  0  0  0
   -3.7793   18.2104  -33.9396 H   0  0  0  0  0  0  0  0  0  0  0  0
   -1.9254   16.4063  -36.3655 H   0  0  0  0  0  0  0  0  0  0  0  0
    0.4111   17.0221  -36.9688 H   0  0  0  0  0  0  0  0  0  0  0  0
    0.5869   19.3129  -34.1086 H   0  0  0  0  0  0  0  0  0  0  0  0
   -4.1575   21.3913  -33.9709 H   0  0  0  0  0  0  0  0  0  0  0  0
   -5.8330   22.8286  -32.8083 H   0  0  0  0  0  0  0  0  0  0  0  0
   -2.9890   23.5926  -29.6402 H   0  0  0  0  0  0  0  0  0  0  0  0
   -1.3027   22.1662  -30.8055 H   0  0  0  0  0  0  0  0  0  0  0  0
  1  2  1  0
  2  3  1  0
  3  4  2  0
  4  5  1  0
  5  6  2  0
  6  7  1  0
  7  8  1  0
  8  9  2  0
  9 10  1  0
 10 11  2  0
 11 12  1  0
 12 13  2  0
 13 14  1  0
 14 15  2  0
 15 16  1  0
 16 17  1  0
 17 18  1  0
 18 19  1  0
 19 20  1  0
 20 21  1  0
 21 22  1  0
 16 23  2  0
 11 24  1  0
 24 25  2  0
  6 26  1  0
 26 27  2  0
 27 28  1  0
 28 29  1  0
 29 30  2  0
 29 31  2  0
 29 32  1  0
 32 33  2  0
 33 34  1  0
 34 35  2  0
 35 36  1  0
 35 37  1  0
 37 38  2  0
 27  3  1  0
 38 32  1  0
 25  8  1  0
 23 12  1  0
 22 17  1  0
  1 39  1  0
  1 40  1  0
  1 41  1  0
  5 42  1  0
  9 43  1  0
 10 44  1  0
 13 45  1  0
 14 46  1  0
 18 47  1  0
 18 48  1  0
 19 49  1  0
 19 50  1  0
 20 51  1  0
 21 52  1  0
 21 53  1  0
 22 54  1  0
 22 55  1  0
 23 56  1  0
 24 57  1  0
 25 58  1  0
 26 59  1  0
 33 60  1  0
 34 61  1  0
 37 62  1  0
 38 63  1  0
M  CHG  1  28  -1
M  END
>  <UniqueID>  (47) 
44

>  <SMILES>  (47) 
COc1ncc(Sc2ccc(-c3ccnc(N4CCNCC4)c3)cc2)cc1[N-]S(=O)(=O)c1ccc(Br)cc1

>  <Energy>  (47) 
78.84855846187624

>  <Genealogy>  (47) 
COc1ncc(Sc2ccc(-c3ccnc(N4CCNCC4)c3)cc2)cc1[N-]S(=O)(=O)c1ccc(Br)cc1 (protonated)
COc1ncc(Sc2ccc(-c3ccnc(N4CCNCC4)c3)cc2)cc1[N-]S(=O)(=O)c1ccc(Br)cc1 (3D coordinates assigned)
COc1ncc(Sc2ccc(-c3ccnc(N4CCNCC4)c3)cc2)cc1[N-]S(=O)(=O)c1ccc(Br)cc1 (nonaromatic ring conformer: 78.84855846187624 kcal/mol)

>  <smiles>  (47) 
COc1ncc(Sc2ccc(-c3ccnc(N4CCNCC4)c3)cc2)cc1NS(=O)(=O)c1ccc(Br)cc1

>  <score_type>  (47) 
oracle

>  <origin>  (47) 
adgpu

>  <m_score__min__energy>  (47) 
-11.07

>  <m_primary>  (47) 
energy

$$$$
47:0
     RDKit          3D

 48 50  0  0  0  0  0  0  0  0999 V2000
   -4.2480   25.5260  -30.8140 O   0  0  0  0  0  0  0  0  0  0  0  0
   -4.9640   24.4880  -30.7660 C   0  0  0  0  0  0  0  0  0  0  0  0
   -5.1890   23.8100  -29.4550 C   0  0  0  0  0  0  0  0  0  0  0  0
   -4.5070   24.5540  -28.3950 N   0  0  0  0  0  0  0  0  0  0  0  0
   -2.8140   24.1650  -28.4000 S   0  0  0  0  0  0  0  0  0  0  0  0
   -2.0230   25.3050  -28.9790 O   0  0  0  0  0  0  0  0  0  0  0  0
   -2.3520   23.9250  -26.9900 O   0  0  0  0  0  0  0  0  0  0  0  0
   -2.5360   22.7160  -29.3470 C   0  0  0  0  0  0  0  0  0  0  0  0
   -1.8410   22.6580  -30.5450 C   0  0  0  0  0  0  0  0  0  0  0  0
   -1.7810   21.3650  -31.0780 C   0  0  0  0  0  0  0  0  0  0  0  0
   -2.4350   20.4130  -30.3040 C   0  0  0  0  0  0  0  0  0  0  0  0
   -3.0840   21.1790  -28.9540 S   0  0  0  0  0  0  0  0  0  0  0  0
   -5.4790   23.8960  -31.9640 N   0  0  0  0  0  0  0  0  0  0  0  0
   -6.5400   22.9350  -32.0310 C   0  0  0  0  0  0  0  0  0  0  0  0
   -7.8620   23.3740  -31.8860 C   0  0  0  0  0  0  0  0  0  0  0  0
   -8.9170   22.4600  -31.9170 C   0  0  0  0  0  0  0  0  0  0  0  0
   -8.6600   21.0990  -32.1080 C   0  0  0  0  0  0  0  0  0  0  0  0
   -7.3450   20.6480  -32.2860 C   0  0  0  0  0  0  0  0  0  0  0  0
   -7.0140   18.9260  -32.4940 S   0  0  0  0  0  0  0  0  0  0  0  0
   -8.3070   18.2000  -32.7460 O   0  0  0  0  0  0  0  0  0  0  0  0
   -6.4140   18.3800  -31.2280 O   0  0  0  0  0  0  0  0  0  0  0  0
   -5.9060   18.6450  -33.8180 N   0  0  0  0  0  0  0  0  0  0  0  0
   -4.5140   18.9130  -33.3920 C   0  0  0  0  0  0  0  0  0  0  0  0
   -3.4990   18.2670  -34.3420 C   0  0  0  0  0  0  0  0  0  0  0  0
   -3.6520   16.7350  -34.3580 C   0  0  0  0  0  0  0  0  0  0  0  0
   -5.0750   16.2770  -33.9910 C   0  0  0  0  0  0  0  0  0  0  0  0
   -6.1200   17.3110  -34.4310 C   0  0  0  0  0  0  0  0  0  0  0  0
   -6.2890   21.5710  -32.2660 C   0  0  0  0  0  0  0  0  0  0  0  0
   -6.2675   23.7741  -29.2416 H   0  0  0  0  0  0  0  0  0  0  0  0
   -4.7885   22.7864  -29.4992 H   0  0  0  0  0  0  0  0  0  0  0  0
   -4.5840   25.5730  -28.6150 H   0  0  0  0  0  0  0  0  0  0  0  0
   -1.3847   23.5356  -31.0262 H   0  0  0  0  0  0  0  0  0  0  0  0
   -1.2655   21.1250  -32.0196 H   0  0  0  0  0  0  0  0  0  0  0  0
   -2.5146   19.3405  -30.5352 H   0  0  0  0  0  0  0  0  0  0  0  0
   -8.0704   24.4451  -31.7469 H   0  0  0  0  0  0  0  0  0  0  0  0
   -9.9518   22.8111  -31.7910 H   0  0  0  0  0  0  0  0  0  0  0  0
   -9.4924   20.3800  -32.1186 H   0  0  0  0  0  0  0  0  0  0  0  0
   -4.3480   20.0003  -33.3779 H   0  0  0  0  0  0  0  0  0  0  0  0
   -4.3714   18.4809  -32.3905 H   0  0  0  0  0  0  0  0  0  0  0  0
   -3.6609   18.6549  -35.3585 H   0  0  0  0  0  0  0  0  0  0  0  0
   -2.4860   18.5133  -33.9911 H   0  0  0  0  0  0  0  0  0  0  0  0
   -3.4133   16.3679  -35.3671 H   0  0  0  0  0  0  0  0  0  0  0  0
   -2.9654   16.3243  -33.6031 H   0  0  0  0  0  0  0  0  0  0  0  0
   -5.2843   15.3198  -34.4910 H   0  0  0  0  0  0  0  0  0  0  0  0
   -5.1343   16.1641  -32.8984 H   0  0  0  0  0  0  0  0  0  0  0  0
   -6.0713   17.4155  -35.5249 H   0  0  0  0  0  0  0  0  0  0  0  0
   -7.1037   16.9486  -34.0977 H   0  0  0  0  0  0  0  0  0  0  0  0
   -5.2583   21.2261  -32.4351 H   0  0  0  0  0  0  0  0  0  0  0  0
  1  2  2  0
  2  3  1  0
  3  4  1  0
  4  5  1  0
  5  6  2  0
  5  7  2  0
  5  8  1  0
  8  9  2  0
  9 10  1  0
 10 11  2  0
 11 12  1  0
  2 13  1  0
 13 14  1  0
 14 15  2  0
 15 16  1  0
 16 17  2  0
 17 18  1  0
 18 19  1  0
 19 20  2  0
 19 21  2  0
 19 22  1  0
 22 23  1  0
 23 24  1  0
 24 25  1  0
 25 26  1  0
 26 27  1  0
 18 28  2  0
 12  8  1  0
 28 14  1  0
 27 22  1  0
  3 29  1  0
  3 30  1  0
  4 31  1  0
  9 32  1  0
 10 33  1  0
 11 34  1  0
 15 35  1  0
 16 36  1  0
 17 37  1  0
 23 38  1  0
 23 39  1  0
 24 40  1  0
 24 41  1  0
 25 42  1  0
 25 43  1  0
 26 44  1  0
 26 45  1  0
 27 46  1  0
 27 47  1  0
 28 48  1  0
M  CHG  1  13  -1
M  END
>  <UniqueID>  (48) 
45

>  <SMILES>  (48) 
O=C(CNS(=O)(=O)c1cccs1)[N-]c1cccc(S(=O)(=O)N2CCCCC2)c1

>  <Energy>  (48) 
79.04691372630285

>  <Genealogy>  (48) 
O=C(CNS(=O)(=O)c1cccs1)[N-]c1cccc(S(=O)(=O)N2CCCCC2)c1 (protonated)
O=C(CNS(=O)(=O)c1cccs1)[N-]c1cccc(S(=O)(=O)N2CCCCC2)c1 (3D coordinates assigned)
O=C(CNS(=O)(=O)c1cccs1)[N-]c1cccc(S(=O)(=O)N2CCCCC2)c1 (nonaromatic ring conformer: 79.04691372630285 kcal/mol)

>  <smiles>  (48) 
O=C(CNS(=O)(=O)c1cccs1)Nc1cccc(S(=O)(=O)N2CCCCC2)c1

>  <score_type>  (48) 
oracle

>  <origin>  (48) 
adgpu

>  <m_score__min__energy>  (48) 
-11.609999999999999

>  <m_primary>  (48) 
energy

$$$$
48:0
     RDKit          3D

 37 39  0  0  0  0  0  0  0  0999 V2000
   -0.5310   26.7770  -22.9860 C   0  0  0  0  0  0  0  0  0  0  0  0
   -0.6580   26.3180  -24.4080 C   0  0  0  0  0  0  0  0  0  0  0  0
   -0.5940   27.2450  -25.4590 C   0  0  0  0  0  0  0  0  0  0  0  0
   -0.6760   26.8140  -26.7860 C   0  0  0  0  0  0  0  0  0  0  0  0
   -0.8230   25.4480  -27.0830 C   0  0  0  0  0  0  0  0  0  0  0  0
   -0.9000   24.9820  -28.4860 C   0  0  0  0  0  0  0  0  0  0  0  0
    0.0570   24.3230  -28.9700 O   0  0  0  0  0  0  0  0  0  0  0  0
   -2.0140   25.2960  -29.3300 N   0  0  0  0  0  0  0  0  0  0  0  0
   -3.1900   24.4910  -29.4540 C   0  0  0  0  0  0  0  0  0  0  0  0
   -3.6730   23.3880  -28.7790 C   0  0  0  0  0  0  0  0  0  0  0  0
   -3.1930   22.5930  -27.6910 N   0  0  0  0  0  0  0  0  0  0  0  0
   -2.3570   21.4490  -27.9020 C   0  0  0  0  0  0  0  0  0  0  0  0
   -2.3340   20.4370  -26.9310 C   0  0  0  0  0  0  0  0  0  0  0  0
   -1.5560   19.2920  -27.1230 C   0  0  0  0  0  0  0  0  0  0  0  0
   -0.7870   19.1540  -28.2800 C   0  0  0  0  0  0  0  0  0  0  0  0
   -0.7830   20.1680  -29.2420 C   0  0  0  0  0  0  0  0  0  0  0  0
   -1.5480   21.3260  -29.0540 C   0  0  0  0  0  0  0  0  0  0  0  0
   -1.4630   22.3420  -30.0060 O   0  0  0  0  0  0  0  0  0  0  0  0
   -4.7990   23.3910  -29.5820 C   0  0  0  0  0  0  0  0  0  0  0  0
   -5.8390   22.6850  -29.6630 O   0  0  0  0  0  0  0  0  0  0  0  0
   -4.3230   24.4990  -30.2490 C   0  0  0  0  0  0  0  0  0  0  0  0
   -4.7530   25.2210  -31.1880 O   0  0  0  0  0  0  0  0  0  0  0  0
   -0.8500   24.5190  -26.0300 C   0  0  0  0  0  0  0  0  0  0  0  0
   -0.7670   24.9510  -24.7020 C   0  0  0  0  0  0  0  0  0  0  0  0
   -0.7622   25.9414  -22.3090 H   0  0  0  0  0  0  0  0  0  0  0  0
    0.4968   27.1236  -22.8030 H   0  0  0  0  0  0  0  0  0  0  0  0
   -1.2344   27.6026  -22.8030 H   0  0  0  0  0  0  0  0  0  0  0  0
   -0.4787   28.3163  -25.2376 H   0  0  0  0  0  0  0  0  0  0  0  0
   -0.6252   27.5485  -27.6032 H   0  0  0  0  0  0  0  0  0  0  0  0
   -3.6430   22.7230  -26.7570 H   0  0  0  0  0  0  0  0  0  0  0  0
   -2.9314   20.5451  -26.0137 H   0  0  0  0  0  0  0  0  0  0  0  0
   -1.5495   18.4983  -26.3614 H   0  0  0  0  0  0  0  0  0  0  0  0
   -0.1841   18.2470  -28.4346 H   0  0  0  0  0  0  0  0  0  0  0  0
   -0.1754   20.0558  -30.1521 H   0  0  0  0  0  0  0  0  0  0  0  0
   -1.2680   23.3040  -29.7630 H   0  0  0  0  0  0  0  0  0  0  0  0
   -0.9370   23.4449  -26.2509 H   0  0  0  0  0  0  0  0  0  0  0  0
   -0.7873   24.2151  -23.8846 H   0  0  0  0  0  0  0  0  0  0  0  0
  1  2  1  0
  2  3  2  0
  3  4  1  0
  4  5  2  0
  5  6  1  0
  6  7  2  0
  6  8  1  0
  8  9  1  0
  9 10  2  0
 10 11  1  0
 11 12  1  0
 12 13  2  0
 13 14  1  0
 14 15  2  0
 15 16  1  0
 16 17  2  0
 17 18  1  0
 10 19  1  0
 19 20  2  0
 19 21  1  0
 21 22  2  0
  5 23  1  0
 23 24  2  0
 24  2  1  0
 21  9  1  0
 17 12  1  0
  1 25  1  0
  1 26  1  0
  1 27  1  0
  3 28  1  0
  4 29  1  0
 11 30  1  0
 13 31  1  0
 14 32  1  0
 15 33  1  0
 16 34  1  0
 18 35  1  0
 23 36  1  0
 24 37  1  0
M  CHG  1   8  -1
M  END
>  <UniqueID>  (49) 
46

>  <SMILES>  (49) 
Cc1ccc(C(=O)[N-]c2c(Nc3ccccc3O)c(=O)c2=O)cc1

>  <Energy>  (49) 
40.25494184046562

>  <Genealogy>  (49) 
Cc1ccc(C(=O)[N-]c2c(Nc3ccccc3O)c(=O)c2=O)cc1 (protonated)
Cc1ccc(C(=O)[N-]c2c(Nc3ccccc3O)c(=O)c2=O)cc1 (3D coordinates assigned)
Cc1ccc(C(=O)[N-]c2c(Nc3ccccc3O)c(=O)c2=O)cc1 (optimized conformer: 40.25494184046562 kcal/mol)

>  <smiles>  (49) 
Cc1ccc(C(=O)Nc2c(Nc3ccccc3O)c(=O)c2=O)cc1

>  <score_type>  (49) 
oracle

>  <origin>  (49) 
adgpu

>  <m_score__min__energy>  (49) 
-10.32

>  <m_primary>  (49) 
energy

$$$$
49:0
     RDKit          3D

 53 55  0  0  0  0  0  0  0  0999 V2000
   -6.4920   26.0060  -29.3270 C   0  0  0  0  0  0  0  0  0  0  0  0
   -6.2410   24.7920  -30.1550 C   0  0  0  0  0  0  0  0  0  0  0  0
   -7.2160   24.0400  -30.7060 N   0  0  0  0  0  0  0  0  0  0  0  0
   -6.6380   23.1550  -31.5060 N   0  0  0  0  0  0  0  0  0  0  0  0
   -7.3800   22.1850  -32.3030 C   0  0  0  0  0  0  0  0  0  0  0  0
   -5.2980   23.3280  -31.4930 C   0  0  0  0  0  0  0  0  0  0  0  0
   -4.3240   22.5990  -32.3630 C   0  0  0  0  0  0  0  0  0  0  0  0
   -5.0190   24.3760  -30.6410 C   0  0  0  0  0  0  0  0  0  0  0  0
   -3.7690   25.0410  -30.4650 N   0  0  0  0  0  0  0  0  0  0  0  0
   -2.6350   24.5120  -29.2710 S   0  0  0  0  0  0  0  0  0  0  0  0
   -3.2640   24.5380  -27.9070 O   0  0  0  0  0  0  0  0  0  0  0  0
   -1.4560   25.4460  -29.2740 O   0  0  0  0  0  0  0  0  0  0  0  0
   -2.0980   22.8780  -29.6550 C   0  0  0  0  0  0  0  0  0  0  0  0
   -2.8200   21.7780  -29.1750 C   0  0  0  0  0  0  0  0  0  0  0  0
   -2.4260   20.4780  -29.5010 C   0  0  0  0  0  0  0  0  0  0  0  0
   -1.2940   20.2590  -30.3090 C   0  0  0  0  0  0  0  0  0  0  0  0
   -0.8530   18.9330  -30.6560 N   0  0  0  0  0  0  0  0  0  0  0  0
   -0.4960   18.5050  -32.0100 C   0  0  0  0  0  0  0  0  0  0  0  0
   -1.7380   18.1460  -32.8440 C   0  0  0  0  0  0  0  0  0  0  0  0
   -2.5940   19.3670  -33.2230 C   0  0  0  0  0  0  0  0  0  0  0  0
   -4.0730   19.0810  -33.1600 C   0  0  0  0  0  0  0  0  0  0  0  0
   -4.7410   18.5270  -34.2650 C   0  0  0  0  0  0  0  0  0  0  0  0
   -6.1170   18.2850  -34.2080 C   0  0  0  0  0  0  0  0  0  0  0  0
   -6.8340   18.5890  -33.0480 C   0  0  0  0  0  0  0  0  0  0  0  0
   -6.1760   19.1320  -31.9420 C   0  0  0  0  0  0  0  0  0  0  0  0
   -4.8010   19.3770  -31.9950 C   0  0  0  0  0  0  0  0  0  0  0  0
   -0.5680   21.3660  -30.7760 C   0  0  0  0  0  0  0  0  0  0  0  0
   -0.9730   22.6660  -30.4620 C   0  0  0  0  0  0  0  0  0  0  0  0
   -6.4371   25.7405  -28.2609 H   0  0  0  0  0  0  0  0  0  0  0  0
   -5.7325   26.7685  -29.5546 H   0  0  0  0  0  0  0  0  0  0  0  0
   -7.4916   26.4048  -29.5546 H   0  0  0  0  0  0  0  0  0  0  0  0
   -7.9109   21.4909  -31.6349 H   0  0  0  0  0  0  0  0  0  0  0  0
   -8.1077   22.7119  -32.9376 H   0  0  0  0  0  0  0  0  0  0  0  0
   -6.6810   21.6205  -32.9376 H   0  0  0  0  0  0  0  0  0  0  0  0
   -3.6023   22.0588  -31.7327 H   0  0  0  0  0  0  0  0  0  0  0  0
   -4.8649   21.8820  -32.9981 H   0  0  0  0  0  0  0  0  0  0  0  0
   -3.7885   23.3201  -32.9981 H   0  0  0  0  0  0  0  0  0  0  0  0
   -3.7021   21.9386  -28.5378 H   0  0  0  0  0  0  0  0  0  0  0  0
   -3.0033   19.6208  -29.1244 H   0  0  0  0  0  0  0  0  0  0  0  0
   -0.7460   18.2310  -29.8900 H   0  0  0  0  0  0  0  0  0  0  0  0
    0.0445   19.3220  -32.5104 H   0  0  0  0  0  0  0  0  0  0  0  0
    0.1320   17.6055  -31.9289 H   0  0  0  0  0  0  0  0  0  0  0  0
   -1.4058   17.6524  -33.7692 H   0  0  0  0  0  0  0  0  0  0  0  0
   -2.3661   17.4891  -32.2244 H   0  0  0  0  0  0  0  0  0  0  0  0
   -2.3641   20.1878  -32.5277 H   0  0  0  0  0  0  0  0  0  0  0  0
   -2.3506   19.6347  -34.2618 H   0  0  0  0  0  0  0  0  0  0  0  0
   -4.1792   18.2827  -35.1786 H   0  0  0  0  0  0  0  0  0  0  0  0
   -6.6356   17.8548  -35.0775 H   0  0  0  0  0  0  0  0  0  0  0  0
   -7.9169   18.4007  -33.0057 H   0  0  0  0  0  0  0  0  0  0  0  0
   -6.7409   19.3672  -31.0279 H   0  0  0  0  0  0  0  0  0  0  0  0
   -4.2865   19.8033  -31.1212 H   0  0  0  0  0  0  0  0  0  0  0  0
    0.3278   21.2087  -31.3947 H   0  0  0  0  0  0  0  0  0  0  0  0
   -0.4066   23.5255  -30.8498 H   0  0  0  0  0  0  0  0  0  0  0  0
  1  2  1  0
  2  3  2  0
  3  4  1  0
  4  5  1  0
  4  6  1  0
  6  7  1  0
  6  8  2  0
  8  9  1  0
  9 10  1  0
 10 11  2  0
 10 12  2  0
 10 13  1  0
 13 14  2  0
 14 15  1  0
 15 16  2  0
 16 17  1  0
 17 18  1  0
 18 19  1  0
 19 20  1  0
 20 21  1  0
 21 22  2  0
 22 23  1  0
 23 24  2  0
 24 25  1  0
 25 26  2  0
 16 27  1  0
 27 28  2  0
  8  2  1  0
 28 13  1  0
 26 21  1  0
  1 29  1  0
  1 30  1  0
  1 31  1  0
  5 32  1  0
  5 33  1  0
  5 34  1  0
  7 35  1  0
  7 36  1  0
  7 37  1  0
 14 38  1  0
 15 39  1  0
 17 40  1  0
 18 41  1  0
 18 42  1  0
 19 43  1  0
 19 44  1  0
 20 45  1  0
 20 46  1  0
 22 47  1  0
 23 48  1  0
 24 49  1  0
 25 50  1  0
 26 51  1  0
 27 52  1  0
 28 53  1  0
M  CHG  1   9  -1
M  END
>  <UniqueID>  (50) 
47

>  <SMILES>  (50) 
Cc1nn(C)c(C)c1[N-]S(=O)(=O)c1ccc(NCCCc2ccccc2)cc1

>  <Energy>  (50) 
83.68314717512258

>  <Genealogy>  (50) 
Cc1nn(C)c(C)c1[N-]S(=O)(=O)c1ccc(NCCCc2ccccc2)cc1 (protonated)
Cc1nn(C)c(C)c1[N-]S(=O)(=O)c1ccc(NCCCc2ccccc2)cc1 (3D coordinates assigned)
Cc1nn(C)c(C)c1[N-]S(=O)(=O)c1ccc(NCCCc2ccccc2)cc1 (optimized conformer: 83.68314717512258 kcal/mol)

>  <smiles>  (50) 
Cc1nn(C)c(C)c1NS(=O)(=O)c1ccc(NCCCc2ccccc2)cc1

>  <score_type>  (50) 
oracle

>  <origin>  (50) 
adgpu

>  <m_score__min__energy>  (50) 
-10.779999999999999

>  <m_primary>  (50) 
energy

$$$$
