0:0
     RDKit          3D

 39 41  0  0  0  0  0  0  0  0999 V2000
    0.8640   19.6800  -31.1640 C   0  0  0  0  0  0  0  0  0  0  0  0
   -0.4220   20.4270  -31.3300 C   0  0  0  0  0  0  0  0  0  0  0  0
   -0.9560   20.6550  -32.6050 C   0  0  0  0  0  0  0  0  0  0  0  0
   -2.1380   21.3910  -32.7070 C   0  0  0  0  0  0  0  0  0  0  0  0
   -2.6530   21.6020  -33.8340 O   0  0  0  0  0  0  0  0  0  0  0  0
   -2.7340   21.8830  -31.5870 N   0  0  0  0  0  0  0  0  0  0  0  0
   -2.1940   21.6710  -30.3600 C   0  0  0  0  0  0  0  0  0  0  0  0
   -2.9830   22.3560  -28.9100 S   0  0  0  0  0  0  0  0  0  0  0  0
   -4.1750   23.2890  -29.8720 C   0  0  0  0  0  0  0  0  0  0  0  0
   -5.3450   22.6580  -30.3150 C   0  0  0  0  0  0  0  0  0  0  0  0
   -6.3240   23.3900  -31.0050 C   0  0  0  0  0  0  0  0  0  0  0  0
   -7.8620   22.6520  -31.4500 S   0  0  0  0  0  0  0  0  0  0  0  0
   -8.4160   21.9330  -30.2510 O   0  0  0  0  0  0  0  0  0  0  0  0
   -8.8450   23.7070  -31.8780 O   0  0  0  0  0  0  0  0  0  0  0  0
   -7.6520   21.4890  -32.7230 N   0  0  0  0  0  0  0  0  0  0  0  0
   -7.2130   20.1290  -32.5620 C   0  0  0  0  0  0  0  0  0  0  0  0
   -8.0710   19.1150  -32.0870 C   0  0  0  0  0  0  0  0  0  0  0  0
   -7.5930   17.8090  -31.9120 C   0  0  0  0  0  0  0  0  0  0  0  0
   -6.2650   17.4980  -32.2310 C   0  0  0  0  0  0  0  0  0  0  0  0
   -5.4140   18.4900  -32.7320 C   0  0  0  0  0  0  0  0  0  0  0  0
   -5.8820   19.8060  -32.8940 C   0  0  0  0  0  0  0  0  0  0  0  0
   -5.0290   20.7990  -33.3840 O   0  0  0  0  0  0  0  0  0  0  0  0
   -6.1140   24.7510  -31.2670 C   0  0  0  0  0  0  0  0  0  0  0  0
   -4.9410   25.3800  -30.8350 C   0  0  0  0  0  0  0  0  0  0  0  0
   -3.9710   24.6530  -30.1360 C   0  0  0  0  0  0  0  0  0  0  0  0
   -2.8210   25.2960  -29.6940 O   0  0  0  0  0  0  0  0  0  0  0  0
   -1.0460   20.9510  -30.2380 N   0  0  0  0  0  0  0  0  0  0  0  0
    1.0796   19.5548  -30.0926 H   0  0  0  0  0  0  0  0  0  0  0  0
    0.7777   18.6914  -31.6387 H   0  0  0  0  0  0  0  0  0  0  0  0
    1.6800   20.2447  -31.6387 H   0  0  0  0  0  0  0  0  0  0  0  0
   -0.4563   20.2638  -33.5035 H   0  0  0  0  0  0  0  0  0  0  0  0
   -5.4968   21.5858  -30.1215 H   0  0  0  0  0  0  0  0  0  0  0  0
   -9.1197   19.3502  -31.8529 H   0  0  0  0  0  0  0  0  0  0  0  0
   -8.2619   17.0270  -31.5235 H   0  0  0  0  0  0  0  0  0  0  0  0
   -5.8907   16.4736  -32.0877 H   0  0  0  0  0  0  0  0  0  0  0  0
   -4.3769   18.2395  -32.9996 H   0  0  0  0  0  0  0  0  0  0  0  0
   -4.4760   21.3790  -32.7610 H   0  0  0  0  0  0  0  0  0  0  0  0
   -6.8745   25.3270  -31.8145 H   0  0  0  0  0  0  0  0  0  0  0  0
   -4.7812   26.4478  -31.0453 H   0  0  0  0  0  0  0  0  0  0  0  0
  1  2  1  0
  2  3  2  0
  3  4  1  0
  4  5  2  0
  4  6  1  0
  6  7  1  0
  7  8  1  0
  8  9  1  0
  9 10  2  0
 10 11  1  0
 11 12  1  0
 12 13  2  0
 12 14  2  0
 12 15  1  0
 15 16  1  0
 16 17  2  0
 17 18  1  0
 18 19  2  0
 19 20  1  0
 20 21  2  0
 21 22  1  0
 11 23  2  0
 23 24  1  0
 24 25  2  0
 25 26  1  0
  7 27  2  0
 27  2  1  0
 25  9  1  0
 21 16  1  0
  1 28  1  0
  1 29  1  0
  1 30  1  0
  3 31  1  0
 10 32  1  0
 17 33  1  0
 18 34  1  0
 19 35  1  0
 20 36  1  0
 22 37  1  0
 23 38  1  0
 24 39  1  0
M  CHG  3   6  -1  15  -1  26  -1
M  END
>  <UniqueID>  (1) 
1

>  <SMILES>  (1) 
Cc1cc(=O)[n-]c(Sc2cc(S(=O)(=O)[N-]c3ccccc3O)ccc2[O-])n1

>  <Energy>  (1) 
40.63869596961046

>  <Genealogy>  (1) 
Cc1cc(=O)[n-]c(Sc2cc(S(=O)(=O)[N-]c3ccccc3O)ccc2[O-])n1 (protonated)
Cc1cc(=O)[n-]c(Sc2cc(S(=O)(=O)[N-]c3ccccc3O)ccc2[O-])n1 (3D coordinates assigned)
Cc1cc(=O)[n-]c(Sc2cc(S(=O)(=O)[N-]c3ccccc3O)ccc2[O-])n1 (optimized conformer: 40.63869596961046 kcal/mol)

>  <smiles>  (1) 
Cc1cc(=O)[nH]c(Sc2cc(S(=O)(=O)Nc3ccccc3O)ccc2O)n1

>  <score_type>  (1) 
oracle

>  <origin>  (1) 
adgpu

>  <m_score__min__energy>  (1) 
-12.35

>  <m_primary>  (1) 
energy

$$$$
1:0
     RDKit          3D

 49 52  0  0  0  0  0  0  0  0999 V2000
   -8.9200   20.1110  -32.0770 C   0  0  0  0  0  0  0  0  0  0  0  0
   -8.9890   21.4690  -31.6540 O   0  0  0  0  0  0  0  0  0  0  0  0
   -7.8710   22.2750  -31.3950 C   0  0  0  0  0  0  0  0  0  0  0  0
   -7.3800   22.3300  -30.0860 C   0  0  0  0  0  0  0  0  0  0  0  0
   -6.2570   23.1020  -29.7810 C   0  0  0  0  0  0  0  0  0  0  0  0
   -5.5970   23.8240  -30.7890 C   0  0  0  0  0  0  0  0  0  0  0  0
   -4.3720   24.5900  -30.4860 C   0  0  0  0  0  0  0  0  0  0  0  0
   -4.4130   25.8500  -30.5270 O   0  0  0  0  0  0  0  0  0  0  0  0
   -3.0960   23.9210  -30.1490 C   0  0  0  0  0  0  0  0  0  0  0  0
   -2.0320   24.4930  -29.4800 C   0  0  0  0  0  0  0  0  0  0  0  0
   -1.9740   25.7810  -28.9630 O   0  0  0  0  0  0  0  0  0  0  0  0
   -1.0320   23.5530  -29.4220 C   0  0  0  0  0  0  0  0  0  0  0  0
    0.2140   23.7460  -28.8370 O   0  0  0  0  0  0  0  0  0  0  0  0
   -1.4190   22.4140  -30.0330 N   0  0  0  0  0  0  0  0  0  0  0  0
   -0.5850   21.2260  -30.2470 C   0  0  0  0  0  0  0  0  0  0  0  0
   -0.7880   20.2160  -29.1480 C   0  0  0  0  0  0  0  0  0  0  0  0
   -1.8120   20.3890  -28.2000 C   0  0  0  0  0  0  0  0  0  0  0  0
   -1.9920   19.4520  -27.1780 C   0  0  0  0  0  0  0  0  0  0  0  0
   -1.1460   18.3450  -27.0860 C   0  0  0  0  0  0  0  0  0  0  0  0
   -0.1130   18.1750  -28.0120 C   0  0  0  0  0  0  0  0  0  0  0  0
    0.0710   19.1090  -29.0340 C   0  0  0  0  0  0  0  0  0  0  0  0
   -2.6830   22.6280  -30.4810 C   0  0  0  0  0  0  0  0  0  0  0  0
   -3.4440   21.6700  -31.3060 C   0  0  0  0  0  0  0  0  0  0  0  0
   -4.1620   20.6280  -30.7000 C   0  0  0  0  0  0  0  0  0  0  0  0
   -4.9410   19.7670  -31.4760 C   0  0  0  0  0  0  0  0  0  0  0  0
   -5.0130   19.9440  -32.8610 C   0  0  0  0  0  0  0  0  0  0  0  0
   -6.0130   18.8780  -33.8320 Cl  0  0  0  0  0  0  0  0  0  0  0  0
   -4.2990   20.9810  -33.4710 C   0  0  0  0  0  0  0  0  0  0  0  0
   -3.5160   21.8420  -32.6960 C   0  0  0  0  0  0  0  0  0  0  0  0
   -6.1070   23.7990  -32.0950 C   0  0  0  0  0  0  0  0  0  0  0  0
   -7.2310   23.0240  -32.4010 C   0  0  0  0  0  0  0  0  0  0  0  0
   -8.8866   19.4537  -31.1956 H   0  0  0  0  0  0  0  0  0  0  0  0
   -9.8070   19.8696  -32.6811 H   0  0  0  0  0  0  0  0  0  0  0  0
   -8.0131   19.9607  -32.6811 H   0  0  0  0  0  0  0  0  0  0  0  0
   -7.8827   21.7604  -29.2905 H   0  0  0  0  0  0  0  0  0  0  0  0
   -5.8873   23.1449  -28.7459 H   0  0  0  0  0  0  0  0  0  0  0  0
   -0.8531   20.7676  -31.2103 H   0  0  0  0  0  0  0  0  0  0  0  0
    0.4706   21.5354  -30.2467 H   0  0  0  0  0  0  0  0  0  0  0  0
   -2.4742   21.2651  -28.2627 H   0  0  0  0  0  0  0  0  0  0  0  0
   -2.8013   19.5871  -26.4453 H   0  0  0  0  0  0  0  0  0  0  0  0
   -1.2926   17.6063  -26.2843 H   0  0  0  0  0  0  0  0  0  0  0  0
    0.5556   17.3049  -27.9358 H   0  0  0  0  0  0  0  0  0  0  0  0
    0.8925   18.9777  -29.7536 H   0  0  0  0  0  0  0  0  0  0  0  0
   -4.1112   20.4888  -29.6100 H   0  0  0  0  0  0  0  0  0  0  0  0
   -5.4986   18.9487  -30.9970 H   0  0  0  0  0  0  0  0  0  0  0  0
   -4.3536   21.1191  -34.5609 H   0  0  0  0  0  0  0  0  0  0  0  0
   -2.9550   22.6564  -33.1778 H   0  0  0  0  0  0  0  0  0  0  0  0
   -5.6206   24.3921  -32.8834 H   0  0  0  0  0  0  0  0  0  0  0  0
   -7.6161   22.9997  -33.4311 H   0  0  0  0  0  0  0  0  0  0  0  0
  1  2  1  0
  2  3  1  0
  3  4  2  0
  4  5  1  0
  5  6  2  0
  6  7  1  0
  7  8  2  0
  7  9  1  0
  9 10  1  0
 10 11  1  0
 10 12  2  0
 12 13  1  0
 12 14  1  0
 14 15  1  0
 15 16  1  0
 16 17  2  0
 17 18  1  0
 18 19  2  0
 19 20  1  0
 20 21  2  0
 14 22  1  0
 22 23  1  0
 23 24  2  0
 24 25  1  0
 25 26  2  0
 26 27  1  0
 26 28  1  0
 28 29  2  0
  6 30  1  0
 30 31  2  0
 31  3  1  0
 22  9  2  0
 29 23  1  0
 21 16  1  0
  1 32  1  0
  1 33  1  0
  1 34  1  0
  4 35  1  0
  5 36  1  0
 15 37  1  0
 15 38  1  0
 17 39  1  0
 18 40  1  0
 19 41  1  0
 20 42  1  0
 21 43  1  0
 24 44  1  0
 25 45  1  0
 28 46  1  0
 29 47  1  0
 30 48  1  0
 31 49  1  0
M  CHG  2  11  -1  13  -1
M  END
>  <UniqueID>  (2) 
2

>  <SMILES>  (2) 
COc1ccc(C(=O)c2c([O-])c([O-])n(Cc3ccccc3)c2-c2ccc(Cl)cc2)cc1

>  <Energy>  (2) 
90.40917840678095

>  <Genealogy>  (2) 
COc1ccc(C(=O)c2c([O-])c([O-])n(Cc3ccccc3)c2-c2ccc(Cl)cc2)cc1 (protonated)
COc1ccc(C(=O)c2c([O-])c([O-])n(Cc3ccccc3)c2-c2ccc(Cl)cc2)cc1 (3D coordinates assigned)
COc1ccc(C(=O)c2c([O-])c([O-])n(Cc3ccccc3)c2-c2ccc(Cl)cc2)cc1 (optimized conformer: 90.40917840678095 kcal/mol)

>  <smiles>  (2) 
COc1ccc(C(=O)c2c(O)c(O)n(Cc3ccccc3)c2-c2ccc(Cl)cc2)cc1

>  <score_type>  (2) 
oracle

>  <origin>  (2) 
adgpu

>  <m_score__min__energy>  (2) 
-13.789999999999999

>  <m_primary>  (2) 
energy

$$$$
2:0
     RDKit          3D

 57 60  0  0  0  0  0  0  0  0999 V2000
   -5.4560   18.8420  -32.2570 O   0  0  0  0  0  0  0  0  0  0  0  0
   -5.7720   19.9860  -32.6830 C   0  0  0  0  0  0  0  0  0  0  0  0
   -4.8370   20.7460  -33.4650 N   0  0  0  0  0  0  0  0  0  0  0  0
   -3.4330   20.4480  -33.5470 C   0  0  0  0  0  0  0  0  0  0  0  0
   -2.5010   21.3780  -33.0630 C   0  0  0  0  0  0  0  0  0  0  0  0
   -1.1320   21.1020  -33.1140 C   0  0  0  0  0  0  0  0  0  0  0  0
   -0.6760   19.8840  -33.6340 C   0  0  0  0  0  0  0  0  0  0  0  0
    1.0530   19.5590  -33.7090 S   0  0  0  0  0  0  0  0  0  0  0  0
    1.3150   18.1120  -33.3940 O   0  0  0  0  0  0  0  0  0  0  0  0
    1.7420   20.4070  -32.6760 O   0  0  0  0  0  0  0  0  0  0  0  0
    1.6420   19.9580  -35.3090 N   0  0  0  0  0  0  0  0  0  0  0  0
    2.8700   20.7830  -35.2560 C   0  0  0  0  0  0  0  0  0  0  0  0
    2.5900   22.2810  -35.4670 C   0  0  0  0  0  0  0  0  0  0  0  0
    1.3260   22.6210  -34.9460 O   0  0  0  0  0  0  0  0  0  0  0  0
    0.3010   22.0370  -35.7320 C   0  0  0  0  0  0  0  0  0  0  0  0
    0.5900   20.5710  -36.1380 C   0  0  0  0  0  0  0  0  0  0  0  0
   -1.6030   18.9420  -34.1020 C   0  0  0  0  0  0  0  0  0  0  0  0
   -2.9730   19.2180  -34.0530 C   0  0  0  0  0  0  0  0  0  0  0  0
   -7.1130   20.5400  -32.3780 C   0  0  0  0  0  0  0  0  0  0  0  0
   -8.2140   19.6650  -32.3520 C   0  0  0  0  0  0  0  0  0  0  0  0
   -9.5040   20.1520  -32.1410 C   0  0  0  0  0  0  0  0  0  0  0  0
   -9.7140   21.5170  -31.9510 C   0  0  0  0  0  0  0  0  0  0  0  0
   -8.6330   22.3990  -31.9630 C   0  0  0  0  0  0  0  0  0  0  0  0
   -7.3240   21.9280  -32.1730 C   0  0  0  0  0  0  0  0  0  0  0  0
   -6.2120   22.8420  -32.1130 N   0  0  0  0  0  0  0  0  0  0  0  0
   -5.9200   23.6750  -30.9460 C   0  0  0  0  0  0  0  0  0  0  0  0
   -4.5540   23.3490  -30.4010 C   0  0  0  0  0  0  0  0  0  0  0  0
   -4.2380   22.0290  -30.0350 C   0  0  0  0  0  0  0  0  0  0  0  0
   -2.9870   21.7290  -29.4890 C   0  0  0  0  0  0  0  0  0  0  0  0
   -2.0450   22.7410  -29.2980 C   0  0  0  0  0  0  0  0  0  0  0  0
   -2.3500   24.0570  -29.6510 C   0  0  0  0  0  0  0  0  0  0  0  0
   -3.6000   24.3670  -30.1980 C   0  0  0  0  0  0  0  0  0  0  0  0
   -3.8880   25.6840  -30.5370 O   0  0  0  0  0  0  0  0  0  0  0  0
   -5.2160   21.4960  -34.0870 H   0  0  0  0  0  0  0  0  0  0  0  0
   -2.8503   22.3315  -32.6402 H   0  0  0  0  0  0  0  0  0  0  0  0
   -0.4095   21.8444  -32.7442 H   0  0  0  0  0  0  0  0  0  0  0  0
    3.3417   20.6487  -34.2714 H   0  0  0  0  0  0  0  0  0  0  0  0
    3.5285   20.4505  -36.0720 H   0  0  0  0  0  0  0  0  0  0  0  0
    3.3643   22.8705  -34.9541 H   0  0  0  0  0  0  0  0  0  0  0  0
    2.6026   22.4986  -36.5452 H   0  0  0  0  0  0  0  0  0  0  0  0
   -0.6353   22.0599  -35.1551 H   0  0  0  0  0  0  0  0  0  0  0  0
    0.2344   22.6218  -36.6613 H   0  0  0  0  0  0  0  0  0  0  0  0
   -0.3341   19.9846  -36.0273 H   0  0  0  0  0  0  0  0  0  0  0  0
    0.9419   20.5737  -37.1802 H   0  0  0  0  0  0  0  0  0  0  0  0
   -1.2514   17.9825  -34.5091 H   0  0  0  0  0  0  0  0  0  0  0  0
   -3.6950   18.4697  -34.4119 H   0  0  0  0  0  0  0  0  0  0  0  0
   -8.0562   18.5864  -32.4995 H   0  0  0  0  0  0  0  0  0  0  0  0
  -10.3571   19.4577  -32.1245 H   0  0  0  0  0  0  0  0  0  0  0  0
  -10.7331   21.8991  -31.7914 H   0  0  0  0  0  0  0  0  0  0  0  0
   -8.8060   23.4740  -31.8066 H   0  0  0  0  0  0  0  0  0  0  0  0
   -5.6200   22.9760  -32.9630 H   0  0  0  0  0  0  0  0  0  0  0  0
   -5.9504   24.7347  -31.2395 H   0  0  0  0  0  0  0  0  0  0  0  0
   -6.6724   23.4783  -30.1681 H   0  0  0  0  0  0  0  0  0  0  0  0
   -4.9787   21.2286  -30.1790 H   0  0  0  0  0  0  0  0  0  0  0  0
   -2.7443   20.6932  -29.2092 H   0  0  0  0  0  0  0  0  0  0  0  0
   -1.0609   22.5015  -28.8688 H   0  0  0  0  0  0  0  0  0  0  0  0
   -1.6055   24.8523  -29.4986 H   0  0  0  0  0  0  0  0  0  0  0  0
  1  2  2  0
  2  3  1  0
  3  4  1  0
  4  5  2  0
  5  6  1  0
  6  7  2  0
  7  8  1  0
  8  9  2  0
  8 10  2  0
  8 11  1  0
 11 12  1  0
 12 13  1  0
 13 14  1  0
 14 15  1  0
 15 16  1  0
  7 17  1  0
 17 18  2  0
  2 19  1  0
 19 20  2  0
 20 21  1  0
 21 22  2  0
 22 23  1  0
 23 24  2  0
 24 25  1  0
 25 26  1  0
 26 27  1  0
 27 28  2  0
 28 29  1  0
 29 30  2  0
 30 31  1  0
 31 32  2  0
 32 33  1  0
 18  4  1  0
 24 19  1  0
 32 27  1  0
 16 11  1  0
  3 34  1  0
  5 35  1  0
  6 36  1  0
 12 37  1  0
 12 38  1  0
 13 39  1  0
 13 40  1  0
 15 41  1  0
 15 42  1  0
 16 43  1  0
 16 44  1  0
 17 45  1  0
 18 46  1  0
 20 47  1  0
 21 48  1  0
 22 49  1  0
 23 50  1  0
 25 51  1  0
 26 52  1  0
 26 53  1  0
 28 54  1  0
 29 55  1  0
 30 56  1  0
 31 57  1  0
M  CHG  1  33  -1
M  END
>  <UniqueID>  (3) 
3

>  <SMILES>  (3) 
O=C(Nc1ccc(S(=O)(=O)N2CCOCC2)cc1)c1ccccc1NCc1ccccc1[O-]

>  <Energy>  (3) 
80.38233337882713

>  <Genealogy>  (3) 
O=C(Nc1ccc(S(=O)(=O)N2CCOCC2)cc1)c1ccccc1NCc1ccccc1[O-] (protonated)
O=C(Nc1ccc(S(=O)(=O)N2CCOCC2)cc1)c1ccccc1NCc1ccccc1[O-] (3D coordinates assigned)
O=C(Nc1ccc(S(=O)(=O)N2CCOCC2)cc1)c1ccccc1NCc1ccccc1[O-] (nonaromatic ring conformer: 80.38233337882713 kcal/mol)

>  <smiles>  (3) 
O=C(Nc1ccc(S(=O)(=O)N2CCOCC2)cc1)c1ccccc1NCc1ccccc1O

>  <score_type>  (3) 
oracle

>  <origin>  (3) 
adgpu

>  <m_score__min__energy>  (3) 
-13.109999999999999

>  <m_primary>  (3) 
energy

$$$$
3:0
     RDKit          3D

 39 42  0  0  0  0  0  0  0  0999 V2000
   -2.7220   23.4820  -31.3230 H   0  0  0  0  0  0  0  0  0  0  0  0
   -3.1790   22.6690  -31.7170 O   0  0  0  0  0  0  0  0  0  0  0  0
   -4.5540   22.5040  -31.5900 C   0  0  0  0  0  0  0  0  0  0  0  0
   -5.1850   21.3920  -31.8810 O   0  0  0  0  0  0  0  0  0  0  0  0
   -6.4730   21.5750  -31.6800 C   0  0  0  0  0  0  0  0  0  0  0  0
   -7.5030   20.5260  -31.9050 C   0  0  0  0  0  0  0  0  0  0  0  0
   -8.8320   20.8910  -32.1990 C   0  0  0  0  0  0  0  0  0  0  0  0
   -9.1039   21.9554  -32.2557 H   0  0  0  0  0  0  0  0  0  0  0  0
   -9.8070   19.9170  -32.4190 C   0  0  0  0  0  0  0  0  0  0  0  0
  -10.8405   20.2165  -32.6473 H   0  0  0  0  0  0  0  0  0  0  0  0
   -9.4740   18.5670  -32.3500 C   0  0  0  0  0  0  0  0  0  0  0  0
  -10.2452   17.8018  -32.5221 H   0  0  0  0  0  0  0  0  0  0  0  0
   -8.1640   18.1830  -32.0630 C   0  0  0  0  0  0  0  0  0  0  0  0
   -7.9073   17.1145  -32.0133 H   0  0  0  0  0  0  0  0  0  0  0  0
   -7.1660   19.1530  -31.8360 C   0  0  0  0  0  0  0  0  0  0  0  0
   -5.8440   18.7820  -31.5350 O   0  0  0  0  0  0  0  0  0  0  0  0
   -4.8580   18.4340  -32.5010 C   0  0  0  0  0  0  0  0  0  0  0  0
   -3.9404   18.1101  -31.9881 H   0  0  0  0  0  0  0  0  0  0  0  0
   -5.2348   17.6145  -33.1307 H   0  0  0  0  0  0  0  0  0  0  0  0
   -4.6369   19.3084  -33.1307 H   0  0  0  0  0  0  0  0  0  0  0  0
   -6.6930   22.8730  -31.2360 C   0  0  0  0  0  0  0  0  0  0  0  0
   -7.6611   23.3336  -30.9897 H   0  0  0  0  0  0  0  0  0  0  0  0
   -5.4480   23.4670  -31.1670 C   0  0  0  0  0  0  0  0  0  0  0  0
   -5.1640   24.8590  -30.7640 C   0  0  0  0  0  0  0  0  0  0  0  0
   -6.1000   25.7000  -30.7630 O   0  0  0  0  0  0  0  0  0  0  0  0
   -3.8410   25.2950  -30.4310 N   0  0  0  0  0  0  0  0  0  0  0  0
   -3.0740   24.7500  -29.5330 C   0  0  0  0  0  0  0  0  0  0  0  0
   -1.8150   25.1940  -29.3030 N   0  0  0  0  0  0  0  0  0  0  0  0
   -1.2290   24.4880  -28.3030 C   0  0  0  0  0  0  0  0  0  0  0  0
    0.0700   24.7060  -27.8420 C   0  0  0  0  0  0  0  0  0  0  0  0
    0.6994   25.4902  -28.2879 H   0  0  0  0  0  0  0  0  0  0  0  0
    0.5580   23.9030  -26.7960 C   0  0  0  0  0  0  0  0  0  0  0  0
    1.5791   24.0598  -26.4183 H   0  0  0  0  0  0  0  0  0  0  0  0
   -0.2510   22.8990  -26.2280 C   0  0  0  0  0  0  0  0  0  0  0  0
    0.1417   22.2769  -25.4102 H   0  0  0  0  0  0  0  0  0  0  0  0
   -1.5560   22.6890  -26.7010 C   0  0  0  0  0  0  0  0  0  0  0  0
   -2.1964   21.9079  -26.2653 H   0  0  0  0  0  0  0  0  0  0  0  0
   -2.0170   23.4970  -27.7370 C   0  0  0  0  0  0  0  0  0  0  0  0
   -3.5150   23.4780  -28.4940 S   0  0  0  0  0  0  0  0  0  0  0  0
  1  2  1  0
  2  3  1  0
  3  4  1  0
  4  5  1  0
  5  6  1  0
  6  7  2  0
  7  8  1  0
  7  9  1  0
  9 10  1  0
  9 11  2  0
 11 12  1  0
 11 13  1  0
 13 14  1  0
 13 15  2  0
 15 16  1  0
 16 17  1  0
 17 18  1  0
 17 19  1  0
 17 20  1  0
  5 21  2  0
 21 22  1  0
 21 23  1  0
 23 24  1  0
 24 25  2  0
 24 26  1  0
 26 27  2  0
 27 28  1  0
 28 29  1  0
 29 30  2  0
 30 31  1  0
 30 32  1  0
 32 33  1  0
 32 34  2  0
 34 35  1  0
 34 36  1  0
 36 37  1  0
 36 38  2  0
 38 39  1  0
 23  3  2  0
 39 27  1  0
 15  6  1  0
 38 29  1  0
M  CHG  1  28  -1
M  END
>  <UniqueID>  (4) 
4

>  <SMILES>  (4) 
COc1ccccc1-c1cc(C(=O)/N=c2/[n-]c3ccccc3s2)c(O)o1

>  <Energy>  (4) 
114.87659488149643

>  <Genealogy>  (4) 
COc1ccccc1-c1cc(C(=O)N=c2[n-]c3ccccc3s2)c(O)o1 (protonated)
COc1ccccc1-c1cc(C(=O)/N=c2/[n-]c3ccccc3s2)c(O)o1 (cis-trans isomerization)
COc1ccccc1-c1cc(C(=O)/N=c2/[n-]c3ccccc3s2)c(O)o1 (3D coordinates assigned)
COc1ccccc1-c1cc(C(=O)/N=c2/[n-]c3ccccc3s2)c(O)o1 (optimized conformer: 114.87659488149643 kcal/mol)

>  <smiles>  (4) 
COc1ccccc1-c1cc(C(=O)N=c2[nH]c3ccccc3s2)c(O)o1

>  <score_type>  (4) 
oracle

>  <origin>  (4) 
adgpu

>  <m_score__min__energy>  (4) 
-10.51

>  <m_primary>  (4) 
energy

$$$$
4:0
     RDKit          3D

 37 38  0  0  0  0  0  0  0  0999 V2000
   -3.9470   21.9210  -32.9400 C   0  0  0  0  0  0  0  0  0  0  0  0
   -4.2330   22.3770  -31.6210 O   0  0  0  0  0  0  0  0  0  0  0  0
   -3.2590   22.6590  -30.6500 C   0  0  0  0  0  0  0  0  0  0  0  0
   -2.4860   21.6480  -30.0510 C   0  0  0  0  0  0  0  0  0  0  0  0
   -1.5380   21.9690  -29.0780 C   0  0  0  0  0  0  0  0  0  0  0  0
   -1.3420   23.2970  -28.6990 C   0  0  0  0  0  0  0  0  0  0  0  0
   -2.1000   24.3250  -29.2910 C   0  0  0  0  0  0  0  0  0  0  0  0
   -1.9080   25.6750  -28.9580 O   0  0  0  0  0  0  0  0  0  0  0  0
   -1.1730   26.1320  -27.8280 C   0  0  0  0  0  0  0  0  0  0  0  0
   -3.0720   23.9940  -30.2560 C   0  0  0  0  0  0  0  0  0  0  0  0
   -3.8890   25.0170  -30.8410 N   0  0  0  0  0  0  0  0  0  0  0  0
   -5.3130   25.0890  -30.6940 C   0  0  0  0  0  0  0  0  0  0  0  0
   -5.7970   25.8170  -29.7880 O   0  0  0  0  0  0  0  0  0  0  0  0
   -6.2390   24.3330  -31.6020 C   0  0  0  0  0  0  0  0  0  0  0  0
   -7.0390   23.4430  -30.8290 O   0  0  0  0  0  0  0  0  0  0  0  0
   -7.6950   22.3150  -31.3390 C   0  0  0  0  0  0  0  0  0  0  0  0
   -6.9360   21.1680  -31.5990 C   0  0  0  0  0  0  0  0  0  0  0  0
   -7.5450   20.0130  -32.1000 C   0  0  0  0  0  0  0  0  0  0  0  0
   -8.9200   19.9980  -32.3470 C   0  0  0  0  0  0  0  0  0  0  0  0
   -9.6880   21.1390  -32.0930 C   0  0  0  0  0  0  0  0  0  0  0  0
   -9.0820   22.2950  -31.5900 C   0  0  0  0  0  0  0  0  0  0  0  0
   -3.3632   20.9902  -32.8876 H   0  0  0  0  0  0  0  0  0  0  0  0
   -4.8894   21.7331  -33.4754 H   0  0  0  0  0  0  0  0  0  0  0  0
   -3.3676   22.6876  -33.4754 H   0  0  0  0  0  0  0  0  0  0  0  0
   -2.6292   20.5994  -30.3508 H   0  0  0  0  0  0  0  0  0  0  0  0
   -0.9433   21.1717  -28.6084 H   0  0  0  0  0  0  0  0  0  0  0  0
   -0.5912   23.5423  -27.9335 H   0  0  0  0  0  0  0  0  0  0  0  0
   -1.6829   25.8150  -26.9063 H   0  0  0  0  0  0  0  0  0  0  0  0
   -0.1598   25.7044  -27.8522 H   0  0  0  0  0  0  0  0  0  0  0  0
   -1.1083   27.2298  -27.8522 H   0  0  0  0  0  0  0  0  0  0  0  0
   -6.8896   25.0419  -32.1352 H   0  0  0  0  0  0  0  0  0  0  0  0
   -5.6494   23.7575  -32.3308 H   0  0  0  0  0  0  0  0  0  0  0  0
   -5.8528   21.1751  -31.4079 H   0  0  0  0  0  0  0  0  0  0  0  0
   -6.9409   19.1157  -32.2997 H   0  0  0  0  0  0  0  0  0  0  0  0
   -9.3984   19.0892  -32.7411 H   0  0  0  0  0  0  0  0  0  0  0  0
  -10.7703   21.1273  -32.2891 H   0  0  0  0  0  0  0  0  0  0  0  0
   -9.6890   23.1903  -31.3899 H   0  0  0  0  0  0  0  0  0  0  0  0
  1  2  1  0
  2  3  1  0
  3  4  2  0
  4  5  1  0
  5  6  2  0
  6  7  1  0
  7  8  1  0
  8  9  1  0
  7 10  2  0
 10 11  1  0
 11 12  1  0
 12 13  2  0
 12 14  1  0
 14 15  1  0
 15 16  1  0
 16 17  2  0
 17 18  1  0
 18 19  2  0
 19 20  1  0
 20 21  2  0
 10  3  1  0
 21 16  1  0
  1 22  1  0
  1 23  1  0
  1 24  1  0
  4 25  1  0
  5 26  1  0
  6 27  1  0
  9 28  1  0
  9 29  1  0
  9 30  1  0
 14 31  1  0
 14 32  1  0
 17 33  1  0
 18 34  1  0
 19 35  1  0
 20 36  1  0
 21 37  1  0
M  CHG  1  11  -1
M  END
>  <UniqueID>  (5) 
5

>  <SMILES>  (5) 
COc1cccc(OC)c1[N-]C(=O)COc1ccccc1

>  <Energy>  (5) 
40.247764991017114

>  <Genealogy>  (5) 
COc1cccc(OC)c1[N-]C(=O)COc1ccccc1 (protonated)
COc1cccc(OC)c1[N-]C(=O)COc1ccccc1 (3D coordinates assigned)
COc1cccc(OC)c1[N-]C(=O)COc1ccccc1 (optimized conformer: 40.247764991017114 kcal/mol)

>  <smiles>  (5) 
COc1cccc(OC)c1NC(=O)COc1ccccc1

>  <score_type>  (5) 
oracle

>  <origin>  (5) 
adgpu

>  <m_score__min__energy>  (5) 
-8.7400000000000002

>  <m_primary>  (5) 
energy

$$$$
5:0
     RDKit          3D

 65 69  0  0  0  0  0  0  0  0999 V2000
   -3.4910   25.2520  -30.4580 O   0  0  0  0  0  0  0  0  0  0  0  0
   -2.8640   24.5630  -29.6120 C   0  0  0  0  0  0  0  0  0  0  0  0
   -2.7420   25.0730  -28.2760 N   0  0  0  0  0  0  0  0  0  0  0  0
   -1.5630   25.0700  -27.4600 C   0  0  0  0  0  0  0  0  0  0  0  0
   -0.4770   25.9210  -27.7250 C   0  0  0  0  0  0  0  0  0  0  0  0
    0.6400   25.9210  -26.8840 C   0  0  0  0  0  0  0  0  0  0  0  0
    0.6950   25.0480  -25.7870 C   0  0  0  0  0  0  0  0  0  0  0  0
    2.0690   25.1050  -24.6850 S   0  0  0  0  0  0  0  0  0  0  0  0
    2.2150   23.7840  -23.9830 O   0  0  0  0  0  0  0  0  0  0  0  0
    3.3230   25.3700  -25.4710 O   0  0  0  0  0  0  0  0  0  0  0  0
    1.8260   26.3920  -23.5310 N   0  0  0  0  0  0  0  0  0  0  0  0
    0.7690   27.3160  -23.9550 C   0  0  0  0  0  0  0  0  0  0  0  0
    1.0950   28.6670  -23.3240 C   0  0  0  0  0  0  0  0  0  0  0  0
    2.5420   28.5630  -22.8540 C   0  0  0  0  0  0  0  0  0  0  0  0
    3.0240   27.2180  -23.3700 C   0  0  0  0  0  0  0  0  0  0  0  0
   -0.3730   24.1740  -25.5410 C   0  0  0  0  0  0  0  0  0  0  0  0
   -1.4900   24.1780  -26.3820 C   0  0  0  0  0  0  0  0  0  0  0  0
   -2.1830   23.3210  -30.0530 C   0  0  0  0  0  0  0  0  0  0  0  0
   -0.9550   22.9550  -29.4740 C   0  0  0  0  0  0  0  0  0  0  0  0
   -0.2800   21.8100  -29.9030 C   0  0  0  0  0  0  0  0  0  0  0  0
   -0.8120   21.0270  -30.9300 C   0  0  0  0  0  0  0  0  0  0  0  0
   -2.0200   21.3880  -31.5290 C   0  0  0  0  0  0  0  0  0  0  0  0
   -2.7090   22.5310  -31.0990 C   0  0  0  0  0  0  0  0  0  0  0  0
   -3.9840   22.8360  -31.6810 N   0  0  0  0  0  0  0  0  0  0  0  0
   -5.0430   21.8690  -31.8160 C   0  0  0  0  0  0  0  0  0  0  0  0
   -4.8170   20.5400  -31.4240 C   0  0  0  0  0  0  0  0  0  0  0  0
   -5.8390   19.5890  -31.5150 C   0  0  0  0  0  0  0  0  0  0  0  0
   -7.1020   19.9570  -31.9980 C   0  0  0  0  0  0  0  0  0  0  0  0
   -8.3960   18.7680  -32.1290 S   0  0  0  0  0  0  0  0  0  0  0  0
   -9.1220   18.6320  -30.8210 O   0  0  0  0  0  0  0  0  0  0  0  0
   -9.3780   19.2200  -33.1730 O   0  0  0  0  0  0  0  0  0  0  0  0
   -7.7330   17.2320  -32.5940 N   0  0  0  0  0  0  0  0  0  0  0  0
   -6.7190   17.0930  -33.3900 C   0  0  0  0  0  0  0  0  0  0  0  0
   -6.0880   18.1790  -33.9200 N   0  0  0  0  0  0  0  0  0  0  0  0
   -5.0220   18.0360  -34.7500 C   0  0  0  0  0  0  0  0  0  0  0  0
   -4.5550   16.7610  -35.0660 C   0  0  0  0  0  0  0  0  0  0  0  0
   -5.2120   15.6590  -34.5180 C   0  0  0  0  0  0  0  0  0  0  0  0
   -6.2760   15.8440  -33.6940 N   0  0  0  0  0  0  0  0  0  0  0  0
   -7.3310   21.2780  -32.4000 C   0  0  0  0  0  0  0  0  0  0  0  0
   -6.3120   22.2300  -32.3070 C   0  0  0  0  0  0  0  0  0  0  0  0
   -0.5056   26.5900  -28.5977 H   0  0  0  0  0  0  0  0  0  0  0  0
    1.4770   26.6065  -27.0827 H   0  0  0  0  0  0  0  0  0  0  0  0
    1.5710   25.9720  -22.6060 H   0  0  0  0  0  0  0  0  0  0  0  0
    0.7568   27.4019  -25.0516 H   0  0  0  0  0  0  0  0  0  0  0  0
   -0.2221   26.9584  -23.6390 H   0  0  0  0  0  0  0  0  0  0  0  0
    0.9893   29.4725  -24.0657 H   0  0  0  0  0  0  0  0  0  0  0  0
    0.4137   28.9027  -22.4932 H   0  0  0  0  0  0  0  0  0  0  0  0
    3.1461   29.3791  -23.2771 H   0  0  0  0  0  0  0  0  0  0  0  0
    2.6293   28.6428  -21.7604 H   0  0  0  0  0  0  0  0  0  0  0  0
    3.5357   27.3408  -24.3360 H   0  0  0  0  0  0  0  0  0  0  0  0
    3.7412   26.7550  -22.6763 H   0  0  0  0  0  0  0  0  0  0  0  0
   -0.3322   23.4841  -24.6852 H   0  0  0  0  0  0  0  0  0  0  0  0
   -2.3166   23.4765  -26.1961 H   0  0  0  0  0  0  0  0  0  0  0  0
   -0.5221   23.5761  -28.6760 H   0  0  0  0  0  0  0  0  0  0  0  0
    0.6719   21.5245  -29.4314 H   0  0  0  0  0  0  0  0  0  0  0  0
   -0.2789   20.1257  -31.2668 H   0  0  0  0  0  0  0  0  0  0  0  0
   -2.4333   20.7730  -32.3420 H   0  0  0  0  0  0  0  0  0  0  0  0
   -4.1100   23.7960  -32.0790 H   0  0  0  0  0  0  0  0  0  0  0  0
   -3.8287   20.2442  -31.0423 H   0  0  0  0  0  0  0  0  0  0  0  0
   -5.6508   18.5500  -31.2067 H   0  0  0  0  0  0  0  0  0  0  0  0
   -4.5286   18.9241  -35.1717 H   0  0  0  0  0  0  0  0  0  0  0  0
   -3.6894   16.6271  -35.7314 H   0  0  0  0  0  0  0  0  0  0  0  0
   -4.8686   14.6408  -34.7531 H   0  0  0  0  0  0  0  0  0  0  0  0
   -8.3174   21.5682  -32.7909 H   0  0  0  0  0  0  0  0  0  0  0  0
   -6.5027   23.2674  -32.6193 H   0  0  0  0  0  0  0  0  0  0  0  0
  1  2  2  0
  2  3  1  0
  3  4  1  0
  4  5  2  0
  5  6  1  0
  6  7  2  0
  7  8  1  0
  8  9  2  0
  8 10  2  0
  8 11  1  0
 11 12  1  0
 12 13  1  0
 13 14  1  0
 14 15  1  0
  7 16  1  0
 16 17  2  0
  2 18  1  0
 18 19  2  0
 19 20  1  0
 20 21  2  0
 21 22  1  0
 22 23  2  0
 23 24  1  0
 24 25  1  0
 25 26  2  0
 26 27  1  0
 27 28  2  0
 28 29  1  0
 29 30  2  0
 29 31  2  0
 29 32  1  0
 32 33  2  3
 33 34  1  0
 34 35  2  0
 35 36  1  0
 36 37  2  0
 37 38  1  0
 28 39  1  0
 39 40  2  0
 17  4  1  0
 23 18  1  0
 40 25  1  0
 15 11  1  0
 38 33  1  0
  5 41  1  0
  6 42  1  0
 11 43  1  0
 12 44  1  0
 12 45  1  0
 13 46  1  0
 13 47  1  0
 14 48  1  0
 14 49  1  0
 15 50  1  0
 15 51  1  0
 16 52  1  0
 17 53  1  0
 19 54  1  0
 20 55  1  0
 21 56  1  0
 22 57  1  0
 24 58  1  0
 26 59  1  0
 27 60  1  0
 35 61  1  0
 36 62  1  0
 37 63  1  0
 39 64  1  0
 40 65  1  0
M  CHG  3   3  -1  11   1  38  -1
M  END
>  <UniqueID>  (6) 
6

>  <SMILES>  (6) 
O=C([N-]c1ccc(S(=O)(=O)[NH+]2CCCC2)cc1)c1ccccc1Nc1ccc(S(=O)(=O)N=c2nccc[n-]2)cc1

>  <Energy>  (6) 
90.6581928115534

>  <Genealogy>  (6) 
O=C([N-]c1ccc(S(=O)(=O)[NH+]2CCCC2)cc1)c1ccccc1Nc1ccc(S(=O)(=O)N=c2nccc[n-]2)cc1 (protonated)
O=C([N-]c1ccc(S(=O)(=O)[NH+]2CCCC2)cc1)c1ccccc1Nc1ccc(S(=O)(=O)N=c2nccc[n-]2)cc1 (3D coordinates assigned)
O=C([N-]c1ccc(S(=O)(=O)[NH+]2CCCC2)cc1)c1ccccc1Nc1ccc(S(=O)(=O)N=c2nccc[n-]2)cc1 (nonaromatic ring conformer: 90.6581928115534 kcal/mol)

>  <smiles>  (6) 
O=C(Nc1ccc(S(=O)(=O)N2CCCC2)cc1)c1ccccc1Nc1ccc(S(=O)(=O)N=c2nccc[nH]2)cc1

>  <score_type>  (6) 
oracle

>  <origin>  (6) 
adgpu

>  <m_score__min__energy>  (6) 
-13.77

>  <m_primary>  (6) 
energy

$$$$
6:0
     RDKit          3D

 63 66  0  0  0  0  0  0  0  0999 V2000
   -9.0880   18.9710  -32.0810 C   0  0  0  0  0  0  0  0  0  0  0  0
   -9.2920   20.7740  -31.9530 S   0  0  0  0  0  0  0  0  0  0  0  0
   -7.5560   21.1120  -32.2480 C   0  0  0  0  0  0  0  0  0  0  0  0
   -6.6950   20.0790  -32.6360 C   0  0  0  0  0  0  0  0  0  0  0  0
   -5.3410   20.3420  -32.8640 C   0  0  0  0  0  0  0  0  0  0  0  0
   -4.8350   21.6460  -32.7170 C   0  0  0  0  0  0  0  0  0  0  0  0
   -3.3750   21.9230  -32.9660 C   0  0  0  0  0  0  0  0  0  0  0  0
   -2.5960   21.6970  -31.7480 N   0  0  0  0  0  0  0  0  0  0  0  0
   -3.0780   21.9470  -30.5390 N   0  0  0  0  0  0  0  0  0  0  0  0
   -2.1450   21.5840  -29.6340 C   0  0  0  0  0  0  0  0  0  0  0  0
   -2.3390   21.7200  -28.1320 C   0  0  0  0  0  0  0  0  0  0  0  0
   -1.0250   22.2240  -27.5060 C   0  0  0  0  0  0  0  0  0  0  0  0
   -3.4630   22.7380  -27.8620 C   0  0  0  0  0  0  0  0  0  0  0  0
   -2.7190   20.3720  -27.4810 C   0  0  0  0  0  0  0  0  0  0  0  0
   -1.0300   21.0930  -30.2950 C   0  0  0  0  0  0  0  0  0  0  0  0
   -1.3510   21.1780  -31.6330 C   0  0  0  0  0  0  0  0  0  0  0  0
   -0.4710   20.7300  -32.7310 C   0  0  0  0  0  0  0  0  0  0  0  0
    0.3000   21.5450  -33.3030 O   0  0  0  0  0  0  0  0  0  0  0  0
   -0.5750   19.3890  -33.2280 N   0  0  0  0  0  0  0  0  0  0  0  0
   -0.4030   18.2400  -32.3230 C   0  0  0  0  0  0  0  0  0  0  0  0
   -1.6110   17.2860  -32.4110 C   0  0  0  0  0  0  0  0  0  0  0  0
   -2.2640   17.3780  -33.7240 N   0  0  0  0  0  0  0  0  0  0  0  0
   -3.7010   17.2910  -33.8070 C   0  0  0  0  0  0  0  0  0  0  0  0
   -4.4380   16.5030  -32.9020 C   0  0  0  0  0  0  0  0  0  0  0  0
   -5.8230   16.4040  -33.0460 C   0  0  0  0  0  0  0  0  0  0  0  0
   -6.4640   17.0780  -34.0850 C   0  0  0  0  0  0  0  0  0  0  0  0
   -5.7060   17.8410  -34.9730 C   0  0  0  0  0  0  0  0  0  0  0  0
   -4.3560   17.9270  -34.8200 N   0  0  0  0  0  0  0  0  0  0  0  0
   -1.4350   17.7640  -34.8750 C   0  0  0  0  0  0  0  0  0  0  0  0
   -0.9060   19.1810  -34.6440 C   0  0  0  0  0  0  0  0  0  0  0  0
   -5.7010   22.6740  -32.3100 C   0  0  0  0  0  0  0  0  0  0  0  0
   -7.0540   22.4080  -32.0770 C   0  0  0  0  0  0  0  0  0  0  0  0
   -9.0387   18.5350  -31.0723 H   0  0  0  0  0  0  0  0  0  0  0  0
   -9.9434   18.5428  -32.6241 H   0  0  0  0  0  0  0  0  0  0  0  0
   -8.1585   18.7448  -32.6241 H   0  0  0  0  0  0  0  0  0  0  0  0
   -7.0845   19.0580  -32.7618 H   0  0  0  0  0  0  0  0  0  0  0  0
   -4.6675   19.5243  -33.1601 H   0  0  0  0  0  0  0  0  0  0  0  0
   -3.0096   21.2538  -33.7589 H   0  0  0  0  0  0  0  0  0  0  0  0
   -3.2592   22.9729  -33.2730 H   0  0  0  0  0  0  0  0  0  0  0  0
   -1.1057   22.1930  -26.4094 H   0  0  0  0  0  0  0  0  0  0  0  0
   -0.1938   21.5809  -27.8308 H   0  0  0  0  0  0  0  0  0  0  0  0
   -0.8371   23.2580  -27.8308 H   0  0  0  0  0  0  0  0  0  0  0  0
   -3.5958   22.8583  -26.7767 H   0  0  0  0  0  0  0  0  0  0  0  0
   -3.1950   23.7070  -28.3082 H   0  0  0  0  0  0  0  0  0  0  0  0
   -4.4009   22.3757  -28.3082 H   0  0  0  0  0  0  0  0  0  0  0  0
   -2.6906   20.4727  -26.3860 H   0  0  0  0  0  0  0  0  0  0  0  0
   -3.7330   20.0853  -27.7967 H   0  0  0  0  0  0  0  0  0  0  0  0
   -2.0041   19.5979  -27.7967 H   0  0  0  0  0  0  0  0  0  0  0  0
   -0.0961   20.7185  -29.8505 H   0  0  0  0  0  0  0  0  0  0  0  0
    0.5092   17.6933  -32.6042 H   0  0  0  0  0  0  0  0  0  0  0  0
   -0.3239   18.6134  -31.2913 H   0  0  0  0  0  0  0  0  0  0  0  0
   -1.2656   16.2536  -32.2533 H   0  0  0  0  0  0  0  0  0  0  0  0
   -2.3393   17.5727  -31.6381 H   0  0  0  0  0  0  0  0  0  0  0  0
   -3.9261   15.9694  -32.0876 H   0  0  0  0  0  0  0  0  0  0  0  0
   -6.4079   15.7952  -32.3409 H   0  0  0  0  0  0  0  0  0  0  0  0
   -7.5555   17.0087  -34.2029 H   0  0  0  0  0  0  0  0  0  0  0  0
   -6.2000   18.3743  -35.7986 H   0  0  0  0  0  0  0  0  0  0  0  0
   -0.5912   17.0653  -34.9746 H   0  0  0  0  0  0  0  0  0  0  0  0
   -2.0348   17.7330  -35.7966 H   0  0  0  0  0  0  0  0  0  0  0  0
   -0.0017   19.3321  -35.2518 H   0  0  0  0  0  0  0  0  0  0  0  0
   -1.6861   19.9005  -34.9335 H   0  0  0  0  0  0  0  0  0  0  0  0
   -5.3128   23.6942  -32.1737 H   0  0  0  0  0  0  0  0  0  0  0  0
   -7.7256   23.2189  -31.7586 H   0  0  0  0  0  0  0  0  0  0  0  0
  1  2  1  0
  2  3  1  0
  3  4  2  0
  4  5  1  0
  5  6  2  0
  6  7  1  0
  7  8  1  0
  8  9  1  0
  9 10  2  0
 10 11  1  0
 11 12  1  0
 11 13  1  0
 11 14  1  0
 10 15  1  0
 15 16  2  0
 16 17  1  0
 17 18  2  0
 17 19  1  0
 19 20  1  0
 20 21  1  0
 21 22  1  0
 22 23  1  0
 23 24  2  0
 24 25  1  0
 25 26  2  0
 26 27  1  0
 27 28  2  0
 22 29  1  0
 29 30  1  0
  6 31  1  0
 31 32  2  0
 32  3  1  0
 16  8  1  0
 30 19  1  0
 28 23  1  0
  1 33  1  0
  1 34  1  0
  1 35  1  0
  4 36  1  0
  5 37  1  0
  7 38  1  0
  7 39  1  0
 12 40  1  0
 12 41  1  0
 12 42  1  0
 13 43  1  0
 13 44  1  0
 13 45  1  0
 14 46  1  0
 14 47  1  0
 14 48  1  0
 15 49  1  0
 20 50  1  0
 20 51  1  0
 21 52  1  0
 21 53  1  0
 24 54  1  0
 25 55  1  0
 26 56  1  0
 27 57  1  0
 29 58  1  0
 29 59  1  0
 30 60  1  0
 30 61  1  0
 31 62  1  0
 32 63  1  0
M  END
>  <UniqueID>  (7) 
7

>  <SMILES>  (7) 
CSc1ccc(Cn2nc(C(C)(C)C)cc2C(=O)N2CCN(c3ccccn3)CC2)cc1

>  <Energy>  (7) 
96.94622238289067

>  <Genealogy>  (7) 
CSc1ccc(Cn2nc(C(C)(C)C)cc2C(=O)N2CCN(c3ccccn3)CC2)cc1 (3D coordinates assigned)
CSc1ccc(Cn2nc(C(C)(C)C)cc2C(=O)N2CCN(c3ccccn3)CC2)cc1 (nonaromatic ring conformer: 96.94622238289067 kcal/mol)

>  <smiles>  (7) 
CSc1ccc(Cn2nc(C(C)(C)C)cc2C(=O)N2CCN(c3ccccn3)CC2)cc1

>  <score_type>  (7) 
oracle

>  <origin>  (7) 
adgpu

>  <m_score__min__energy>  (7) 
-9.1400000000000006

>  <m_primary>  (7) 
energy

$$$$
7:0
     RDKit          3D

 45 47  0  0  0  0  0  0  0  0999 V2000
   -4.9070   14.4280  -33.0490 C   0  0  0  0  0  0  0  0  0  0  0  0
   -4.6410   15.6340  -32.3390 O   0  0  0  0  0  0  0  0  0  0  0  0
   -5.3230   16.8430  -32.5500 C   0  0  0  0  0  0  0  0  0  0  0  0
   -6.0780   17.3760  -31.5000 C   0  0  0  0  0  0  0  0  0  0  0  0
   -6.7810   18.5760  -31.6630 C   0  0  0  0  0  0  0  0  0  0  0  0
   -6.7400   19.2630  -32.8920 C   0  0  0  0  0  0  0  0  0  0  0  0
   -7.4500   20.4990  -33.0990 N   0  0  0  0  0  0  0  0  0  0  0  0
   -7.9220   21.5730  -31.8180 S   0  0  0  0  0  0  0  0  0  0  0  0
   -9.1050   22.3790  -32.2730 O   0  0  0  0  0  0  0  0  0  0  0  0
   -8.3190   20.7600  -30.6160 O   0  0  0  0  0  0  0  0  0  0  0  0
   -6.6110   22.6740  -31.3980 C   0  0  0  0  0  0  0  0  0  0  0  0
   -6.8280   24.0540  -31.3220 C   0  0  0  0  0  0  0  0  0  0  0  0
   -5.7760   24.9110  -30.9970 C   0  0  0  0  0  0  0  0  0  0  0  0
   -4.4970   24.4020  -30.7440 C   0  0  0  0  0  0  0  0  0  0  0  0
   -3.4740   25.2990  -30.4640 O   0  0  0  0  0  0  0  0  0  0  0  0
   -4.2690   23.0060  -30.7930 C   0  0  0  0  0  0  0  0  0  0  0  0
   -2.9840   22.4120  -30.5200 N   0  0  0  0  0  0  0  0  0  0  0  0
   -2.6880   20.9830  -30.6460 C   0  0  0  0  0  0  0  0  0  0  0  0
   -2.2410   20.6580  -32.0490 C   0  0  0  0  0  0  0  0  0  0  0  0
   -1.2120   21.4000  -32.6480 C   0  0  0  0  0  0  0  0  0  0  0  0
   -0.7710   21.0590  -33.9310 C   0  0  0  0  0  0  0  0  0  0  0  0
   -1.3360   20.0100  -34.5900 N   0  0  0  0  0  0  0  0  0  0  0  0
   -2.3310   19.2680  -34.0300 C   0  0  0  0  0  0  0  0  0  0  0  0
   -2.7960   19.5720  -32.7460 C   0  0  0  0  0  0  0  0  0  0  0  0
   -5.3380   22.1590  -31.1350 C   0  0  0  0  0  0  0  0  0  0  0  0
   -5.9720   18.7330  -33.9420 C   0  0  0  0  0  0  0  0  0  0  0  0
   -5.2710   17.5330  -33.7770 C   0  0  0  0  0  0  0  0  0  0  0  0
   -5.0868   13.6128  -32.3326 H   0  0  0  0  0  0  0  0  0  0  0  0
   -5.7969   14.5634  -33.6813 H   0  0  0  0  0  0  0  0  0  0  0  0
   -4.0427   14.1765  -33.6813 H   0  0  0  0  0  0  0  0  0  0  0  0
   -6.1199   16.8471  -30.5364 H   0  0  0  0  0  0  0  0  0  0  0  0
   -7.3682   18.9842  -30.8272 H   0  0  0  0  0  0  0  0  0  0  0  0
   -7.7750   20.7410  -34.0590 H   0  0  0  0  0  0  0  0  0  0  0  0
   -7.8296   24.4640  -31.5188 H   0  0  0  0  0  0  0  0  0  0  0  0
   -5.9532   25.9951  -30.9392 H   0  0  0  0  0  0  0  0  0  0  0  0
   -2.1910   23.0600  -30.3050 H   0  0  0  0  0  0  0  0  0  0  0  0
   -1.8880   20.7154  -29.9401 H   0  0  0  0  0  0  0  0  0  0  0  0
   -3.5995   20.4097  -30.4212 H   0  0  0  0  0  0  0  0  0  0  0  0
   -0.7547   22.2448  -32.1120 H   0  0  0  0  0  0  0  0  0  0  0  0
    0.0330   21.6388  -34.4079 H   0  0  0  0  0  0  0  0  0  0  0  0
   -2.7700   18.4280  -34.5882 H   0  0  0  0  0  0  0  0  0  0  0  0
   -3.5899   18.9654  -32.2859 H   0  0  0  0  0  0  0  0  0  0  0  0
   -5.1700   21.0736  -31.1966 H   0  0  0  0  0  0  0  0  0  0  0  0
   -5.9211   19.2661  -34.9028 H   0  0  0  0  0  0  0  0  0  0  0  0
   -4.6769   17.1269  -34.6090 H   0  0  0  0  0  0  0  0  0  0  0  0
  1  2  1  0
  2  3  1  0
  3  4  2  0
  4  5  1  0
  5  6  2  0
  6  7  1  0
  7  8  1  0
  8  9  2  0
  8 10  2  0
  8 11  1  0
 11 12  2  0
 12 13  1  0
 13 14  2  0
 14 15  1  0
 14 16  1  0
 16 17  1  0
 17 18  1  0
 18 19  1  0
 19 20  2  0
 20 21  1  0
 21 22  2  0
 22 23  1  0
 23 24  2  0
 16 25  2  0
  6 26  1  0
 26 27  2  0
 27  3  1  0
 25 11  1  0
 24 19  1  0
  1 28  1  0
  1 29  1  0
  1 30  1  0
  4 31  1  0
  5 32  1  0
  7 33  1  0
 12 34  1  0
 13 35  1  0
 17 36  1  0
 18 37  1  0
 18 38  1  0
 20 39  1  0
 21 40  1  0
 23 41  1  0
 24 42  1  0
 25 43  1  0
 26 44  1  0
 27 45  1  0
M  CHG  1  15  -1
M  END
>  <UniqueID>  (8) 
8

>  <SMILES>  (8) 
COc1ccc(NS(=O)(=O)c2ccc([O-])c(NCc3ccncc3)c2)cc1

>  <Energy>  (8) 
53.574043907398554

>  <Genealogy>  (8) 
COc1ccc(NS(=O)(=O)c2ccc([O-])c(NCc3ccncc3)c2)cc1 (protonated)
COc1ccc(NS(=O)(=O)c2ccc([O-])c(NCc3ccncc3)c2)cc1 (3D coordinates assigned)
COc1ccc(NS(=O)(=O)c2ccc([O-])c(NCc3ccncc3)c2)cc1 (optimized conformer: 53.574043907398554 kcal/mol)

>  <smiles>  (8) 
COc1ccc(NS(=O)(=O)c2ccc(O)c(NCc3ccncc3)c2)cc1

>  <score_type>  (8) 
oracle

>  <origin>  (8) 
adgpu

>  <m_score__min__energy>  (8) 
-11.02

>  <m_primary>  (8) 
energy

$$$$
8:0
     RDKit          3D

 34 35  0  0  0  0  0  0  0  0999 V2000
   -0.9890   20.0370  -28.9060 C   0  0  0  0  0  0  0  0  0  0  0  0
   -0.7550   19.4580  -30.2340 N   0  0  0  0  0  0  0  0  0  0  0  0
    0.5570   18.8000  -30.2750 C   0  0  0  0  0  0  0  0  0  0  0  0
   -0.8290   20.7090  -31.4500 S   0  0  0  0  0  0  0  0  0  0  0  0
   -0.1150   21.9350  -30.9490 O   0  0  0  0  0  0  0  0  0  0  0  0
   -0.1260   20.2400  -32.6940 O   0  0  0  0  0  0  0  0  0  0  0  0
   -2.4950   21.1300  -31.8500 C   0  0  0  0  0  0  0  0  0  0  0  0
   -2.9860   20.9220  -33.1460 C   0  0  0  0  0  0  0  0  0  0  0  0
   -4.3000   21.2730  -33.4620 C   0  0  0  0  0  0  0  0  0  0  0  0
   -5.1370   21.8170  -32.4840 C   0  0  0  0  0  0  0  0  0  0  0  0
   -4.6690   21.9980  -31.1770 C   0  0  0  0  0  0  0  0  0  0  0  0
   -5.5470   22.5800  -30.1980 N   0  0  0  0  0  0  0  0  0  0  0  0
   -5.2100   23.4240  -29.2960 N   0  0  0  0  0  0  0  0  0  0  0  0
   -3.8650   23.8340  -29.0000 C   0  0  0  0  0  0  0  0  0  0  0  0
   -3.2630   24.9250  -29.6500 C   0  0  0  0  0  0  0  0  0  0  0  0
   -3.9570   25.6410  -30.6210 O   0  0  0  0  0  0  0  0  0  0  0  0
   -1.9860   25.2730  -29.3410 N   0  0  0  0  0  0  0  0  0  0  0  0
   -1.2680   24.5700  -28.4270 C   0  0  0  0  0  0  0  0  0  0  0  0
   -0.0900   24.9140  -28.1550 O   0  0  0  0  0  0  0  0  0  0  0  0
   -1.8190   23.4890  -27.8160 N   0  0  0  0  0  0  0  0  0  0  0  0
   -3.0920   23.1040  -28.0890 C   0  0  0  0  0  0  0  0  0  0  0  0
   -3.5750   22.0960  -27.5070 O   0  0  0  0  0  0  0  0  0  0  0  0
   -3.3330   21.6850  -30.8730 C   0  0  0  0  0  0  0  0  0  0  0  0
   -0.6958   19.3115  -28.1329 H   0  0  0  0  0  0  0  0  0  0  0  0
   -0.3906   20.9533  -28.7949 H   0  0  0  0  0  0  0  0  0  0  0  0
   -2.0560   20.2802  -28.7949 H   0  0  0  0  0  0  0  0  0  0  0  0
    0.9105   18.6227  -29.2486 H   0  0  0  0  0  0  0  0  0  0  0  0
    0.4690   17.8393  -30.8036 H   0  0  0  0  0  0  0  0  0  0  0  0
    1.2743   19.4450  -30.8036 H   0  0  0  0  0  0  0  0  0  0  0  0
   -2.3351   20.4815  -33.9156 H   0  0  0  0  0  0  0  0  0  0  0  0
   -4.6775   21.1209  -34.4839 H   0  0  0  0  0  0  0  0  0  0  0  0
   -6.1671   22.1040  -32.7420 H   0  0  0  0  0  0  0  0  0  0  0  0
   -3.6570   25.6310  -31.5890 H   0  0  0  0  0  0  0  0  0  0  0  0
   -2.9427   21.8767  -29.8626 H   0  0  0  0  0  0  0  0  0  0  0  0
  1  2  1  0
  2  3  1  0
  2  4  1  0
  4  5  2  0
  4  6  2  0
  4  7  1  0
  7  8  2  0
  8  9  1  0
  9 10  2  0
 10 11  1  0
 11 12  1  0
 12 13  2  3
 13 14  1  0
 14 15  2  0
 15 16  1  0
 15 17  1  0
 17 18  1  0
 18 19  2  0
 18 20  1  0
 20 21  1  0
 21 22  2  0
 11 23  2  0
 23  7  1  0
 21 14  1  0
  1 24  1  0
  1 25  1  0
  1 26  1  0
  3 27  1  0
  3 28  1  0
  3 29  1  0
  8 30  1  0
  9 31  1  0
 10 32  1  0
 16 33  1  0
 23 34  1  0
M  CHG  2  17  -1  20  -1
M  END
>  <UniqueID>  (9) 
9

>  <SMILES>  (9) 
CN(C)S(=O)(=O)c1cccc(N=Nc2c(O)[n-]c(=O)[n-]c2=O)c1

>  <Energy>  (9) 
46.37312620530126

>  <Genealogy>  (9) 
CN(C)S(=O)(=O)c1cccc(N=Nc2c(O)[n-]c(=O)[n-]c2=O)c1 (protonated)
CN(C)S(=O)(=O)c1cccc(N=Nc2c(O)[n-]c(=O)[n-]c2=O)c1 (3D coordinates assigned)
CN(C)S(=O)(=O)c1cccc(N=Nc2c(O)[n-]c(=O)[n-]c2=O)c1 (optimized conformer: 46.37312620530126 kcal/mol)

>  <smiles>  (9) 
CN(C)S(=O)(=O)c1cccc(N=Nc2c(O)[nH]c(=O)[nH]c2=O)c1

>  <score_type>  (9) 
oracle

>  <origin>  (9) 
adgpu

>  <m_score__min__energy>  (9) 
-9.7200000000000006

>  <m_primary>  (9) 
energy

$$$$
9:0
     RDKit          3D

 60 63  0  0  0  0  0  0  0  0999 V2000
   -9.5479   23.3548  -31.9703 H   0  0  0  0  0  0  0  0  0  0  0  0
   -8.5840   22.8350  -31.8670 C   0  0  0  0  0  0  0  0  0  0  0  0
   -7.4070   23.5730  -31.7120 C   0  0  0  0  0  0  0  0  0  0  0  0
   -7.4467   24.6722  -31.6979 H   0  0  0  0  0  0  0  0  0  0  0  0
   -6.1720   22.9140  -31.5740 C   0  0  0  0  0  0  0  0  0  0  0  0
   -4.9410   23.6360  -31.4500 N   0  0  0  0  0  0  0  0  0  0  0  0
   -4.7710   24.9000  -30.7980 C   0  0  0  0  0  0  0  0  0  0  0  0
   -5.7230   25.7240  -30.8120 O   0  0  0  0  0  0  0  0  0  0  0  0
   -3.4980   25.2650  -30.2470 N   0  0  0  0  0  0  0  0  0  0  0  0
   -2.7580   24.5500  -29.2470 C   0  0  0  0  0  0  0  0  0  0  0  0
   -3.3180   23.4810  -28.5240 C   0  0  0  0  0  0  0  0  0  0  0  0
   -4.3525   23.1651  -28.7243 H   0  0  0  0  0  0  0  0  0  0  0  0
   -2.5620   22.8190  -27.5510 C   0  0  0  0  0  0  0  0  0  0  0  0
   -3.0076   21.9894  -26.9825 H   0  0  0  0  0  0  0  0  0  0  0  0
   -1.2410   23.2070  -27.2970 C   0  0  0  0  0  0  0  0  0  0  0  0
   -0.3230   22.3990  -26.0290 S   0  0  0  0  0  0  0  0  0  0  0  0
    0.8480   21.6750  -26.6360 O   0  0  0  0  0  0  0  0  0  0  0  0
   -1.2150   21.4150  -25.3240 O   0  0  0  0  0  0  0  0  0  0  0  0
    0.2570   23.5900  -24.9060 N   0  0  0  0  0  0  0  0  0  0  0  0
    1.1390   23.3780  -24.3880 H   0  0  0  0  0  0  0  0  0  0  0  0
   -0.3460   24.7220  -24.6860 C   0  0  0  0  0  0  0  0  0  0  0  0
    0.1480   25.6700  -23.7610 N   0  0  0  0  0  0  0  0  0  0  0  0
    1.0050   25.5480  -23.1740 H   0  0  0  0  0  0  0  0  0  0  0  0
   -0.7390   26.8140  -23.6910 C   0  0  0  0  0  0  0  0  0  0  0  0
   -0.1862   27.7392  -23.9110 H   0  0  0  0  0  0  0  0  0  0  0  0
   -1.1746   26.9227  -22.6868 H   0  0  0  0  0  0  0  0  0  0  0  0
   -1.8290   26.5780  -24.7530 C   0  0  0  0  0  0  0  0  0  0  0  0
   -1.7453   27.3296  -25.5518 H   0  0  0  0  0  0  0  0  0  0  0  0
   -2.8313   26.6636  -24.3080 H   0  0  0  0  0  0  0  0  0  0  0  0
   -1.6080   25.1700  -25.3300 C   0  0  0  0  0  0  0  0  0  0  0  0
   -1.4991   25.2066  -26.4240 H   0  0  0  0  0  0  0  0  0  0  0  0
   -2.4514   24.4912  -25.1352 H   0  0  0  0  0  0  0  0  0  0  0  0
   -0.6690   24.2420  -28.0490 C   0  0  0  0  0  0  0  0  0  0  0  0
    0.3768   24.5346  -27.8735 H   0  0  0  0  0  0  0  0  0  0  0  0
   -1.4240   24.9030  -29.0210 C   0  0  0  0  0  0  0  0  0  0  0  0
   -0.9651   25.7081  -29.6137 H   0  0  0  0  0  0  0  0  0  0  0  0
   -6.1310   21.5160  -31.6270 C   0  0  0  0  0  0  0  0  0  0  0  0
   -5.1643   20.9957  -31.5583 H   0  0  0  0  0  0  0  0  0  0  0  0
   -7.3120   20.7730  -31.7670 C   0  0  0  0  0  0  0  0  0  0  0  0
   -7.2330   19.0130  -31.8130 S   0  0  0  0  0  0  0  0  0  0  0  0
   -6.1630   18.5570  -30.8600 O   0  0  0  0  0  0  0  0  0  0  0  0
   -8.5480   18.4260  -31.3770 O   0  0  0  0  0  0  0  0  0  0  0  0
   -6.8480   18.4780  -33.4310 N   0  0  0  0  0  0  0  0  0  0  0  0
   -6.4320   17.0560  -33.4050 C   0  0  0  0  0  0  0  0  0  0  0  0
   -5.7930   16.8869  -32.5258 H   0  0  0  0  0  0  0  0  0  0  0  0
   -7.3374   16.4331  -33.3577 H   0  0  0  0  0  0  0  0  0  0  0  0
   -5.6520   16.6740  -34.6680 C   0  0  0  0  0  0  0  0  0  0  0  0
   -5.3974   15.6048  -34.6232 H   0  0  0  0  0  0  0  0  0  0  0  0
   -6.2820   16.8854  -35.5446 H   0  0  0  0  0  0  0  0  0  0  0  0
   -4.3550   17.4950  -34.7890 C   0  0  0  0  0  0  0  0  0  0  0  0
   -3.5292   16.9142  -34.3523 H   0  0  0  0  0  0  0  0  0  0  0  0
   -4.1898   17.6985  -35.8573 H   0  0  0  0  0  0  0  0  0  0  0  0
   -4.4390   18.8510  -34.0660 C   0  0  0  0  0  0  0  0  0  0  0  0
   -4.1114   18.7237  -33.0237 H   0  0  0  0  0  0  0  0  0  0  0  0
   -3.7894   19.5678  -34.5896 H   0  0  0  0  0  0  0  0  0  0  0  0
   -5.8760   19.3940  -34.0780 C   0  0  0  0  0  0  0  0  0  0  0  0
   -5.8917   20.3556  -33.5440 H   0  0  0  0  0  0  0  0  0  0  0  0
   -6.1774   19.5033  -35.1302 H   0  0  0  0  0  0  0  0  0  0  0  0
   -8.5390   21.4380  -31.8910 C   0  0  0  0  0  0  0  0  0  0  0  0
   -9.4678   20.8603  -32.0074 H   0  0  0  0  0  0  0  0  0  0  0  0
  1  2  1  0
  2  3  2  0
  3  4  1  0
  3  5  1  0
  5  6  1  0
  6  7  1  0
  7  8  2  0
  7  9  1  0
  9 10  1  0
 10 11  2  0
 11 12  1  0
 11 13  1  0
 13 14  1  0
 13 15  2  0
 15 16  1  0
 16 17  2  0
 16 18  2  0
 16 19  1  0
 19 20  1  0
 19 21  2  0
 21 22  1  0
 22 23  1  0
 22 24  1  0
 24 25  1  0
 24 26  1  0
 24 27  1  0
 27 28  1  0
 27 29  1  0
 27 30  1  0
 30 31  1  0
 30 32  1  0
 15 33  1  0
 33 34  1  0
 33 35  2  0
 35 36  1  0
  5 37  2  0
 37 38  1  0
 37 39  1  0
 39 40  1  0
 40 41  2  0
 40 42  2  0
 40 43  1  0
 43 44  1  0
 44 45  1  0
 44 46  1  0
 44 47  1  0
 47 48  1  0
 47 49  1  0
 47 50  1  0
 50 51  1  0
 50 52  1  0
 50 53  1  0
 53 54  1  0
 53 55  1  0
 53 56  1  0
 56 57  1  0
 56 58  1  0
 39 59  2  0
 59 60  1  0
 59  2  1  0
 35 10  1  0
 56 43  1  0
 30 21  1  0
M  CHG  3   6  -1   9  -1  19   1
M  END
>  <UniqueID>  (10) 
10

>  <SMILES>  (10) 
O=C([N-]c1ccc(S(=O)(=O)/[NH+]=C2\CCCN2)cc1)[N-]c1cccc(S(=O)(=O)N2CCCCC2)c1

>  <Energy>  (10) 
82.36867796453802

>  <Genealogy>  (10) 
O=C([N-]c1ccc(S(=O)(=O)[NH+]=C2CCCN2)cc1)[N-]c1cccc(S(=O)(=O)N2CCCCC2)c1 (protonated)
O=C([N-]c1ccc(S(=O)(=O)/[NH+]=C2\CCCN2)cc1)[N-]c1cccc(S(=O)(=O)N2CCCCC2)c1 (cis-trans isomerization)
O=C([N-]c1ccc(S(=O)(=O)/[NH+]=C2\CCCN2)cc1)[N-]c1cccc(S(=O)(=O)N2CCCCC2)c1 (3D coordinates assigned)
O=C([N-]c1ccc(S(=O)(=O)/[NH+]=C2\CCCN2)cc1)[N-]c1cccc(S(=O)(=O)N2CCCCC2)c1 (nonaromatic ring conformer: 82.36867796453802 kcal/mol)

>  <smiles>  (10) 
O=C(Nc1ccc(S(=O)(=O)N=C2CCCN2)cc1)Nc1cccc(S(=O)(=O)N2CCCCC2)c1

>  <score_type>  (10) 
oracle

>  <origin>  (10) 
adgpu

>  <m_score__min__energy>  (10) 
-14.52

>  <m_primary>  (10) 
energy

$$$$
10:0
     RDKit          3D

 64 68  0  0  0  0  0  0  0  0999 V2000
   -6.8990   19.4550  -33.7500 O   0  0  0  0  0  0  0  0  0  0  0  0
   -5.8240   19.5650  -33.0980 C   0  0  0  0  0  0  0  0  0  0  0  0
   -4.8710   18.4870  -33.1240 N   0  0  0  0  0  0  0  0  0  0  0  0
   -5.2030   17.1330  -33.4840 C   0  0  0  0  0  0  0  0  0  0  0  0
   -6.5150   16.8300  -33.8780 C   0  0  0  0  0  0  0  0  0  0  0  0
   -6.8710   15.5210  -34.2160 C   0  0  0  0  0  0  0  0  0  0  0  0
   -5.9170   14.4960  -34.1700 C   0  0  0  0  0  0  0  0  0  0  0  0
   -6.3820   12.8350  -34.5480 S   0  0  0  0  0  0  0  0  0  0  0  0
   -6.4710   12.0470  -33.2710 O   0  0  0  0  0  0  0  0  0  0  0  0
   -5.3150   12.2100  -35.4040 O   0  0  0  0  0  0  0  0  0  0  0  0
   -7.9200   12.7500  -35.3730 N   0  0  0  0  0  0  0  0  0  0  0  0
   -8.7850   11.7320  -34.7600 C   0  0  0  0  0  0  0  0  0  0  0  0
  -10.1130   11.6220  -35.5410 C   0  0  0  0  0  0  0  0  0  0  0  0
  -10.1700   12.5480  -36.6110 O   0  0  0  0  0  0  0  0  0  0  0  0
   -9.0940   12.3190  -37.5060 C   0  0  0  0  0  0  0  0  0  0  0  0
   -7.7280   12.4530  -36.8020 C   0  0  0  0  0  0  0  0  0  0  0  0
   -4.5960   14.7980  -33.8120 C   0  0  0  0  0  0  0  0  0  0  0  0
   -4.2370   16.1090  -33.4820 C   0  0  0  0  0  0  0  0  0  0  0  0
   -5.5490   20.8310  -32.3630 C   0  0  0  0  0  0  0  0  0  0  0  0
   -6.5230   21.3620  -31.4960 C   0  0  0  0  0  0  0  0  0  0  0  0
   -6.2760   22.5310  -30.7740 C   0  0  0  0  0  0  0  0  0  0  0  0
   -5.0490   23.1920  -30.8960 C   0  0  0  0  0  0  0  0  0  0  0  0
   -4.7070   24.6390  -29.9410 S   0  0  0  0  0  0  0  0  0  0  0  0
   -4.1620   25.6930  -30.8630 O   0  0  0  0  0  0  0  0  0  0  0  0
   -5.9920   25.1620  -29.3580 O   0  0  0  0  0  0  0  0  0  0  0  0
   -3.5580   24.3730  -28.6410 N   0  0  0  0  0  0  0  0  0  0  0  0
   -3.9720   23.3440  -27.6720 C   0  0  0  0  0  0  0  0  0  0  0  0
   -3.8710   21.9130  -28.2230 C   0  0  0  0  0  0  0  0  0  0  0  0
   -2.6710   21.6960  -29.1120 C   0  0  0  0  0  0  0  0  0  0  0  0
   -2.4010   20.4000  -29.5810 C   0  0  0  0  0  0  0  0  0  0  0  0
   -1.3640   20.1790  -30.4900 C   0  0  0  0  0  0  0  0  0  0  0  0
   -0.5820   21.2490  -30.9310 C   0  0  0  0  0  0  0  0  0  0  0  0
   -0.8310   22.5400  -30.4630 C   0  0  0  0  0  0  0  0  0  0  0  0
   -1.8950   22.7780  -29.5770 C   0  0  0  0  0  0  0  0  0  0  0  0
   -2.1750   24.1870  -29.1130 C   0  0  0  0  0  0  0  0  0  0  0  0
   -4.0930   22.7010  -31.7940 C   0  0  0  0  0  0  0  0  0  0  0  0
   -4.3250   21.5170  -32.4990 C   0  0  0  0  0  0  0  0  0  0  0  0
   -3.8580   18.7210  -33.0380 H   0  0  0  0  0  0  0  0  0  0  0  0
   -7.2698   17.6290  -33.9213 H   0  0  0  0  0  0  0  0  0  0  0  0
   -7.9040   15.2950  -34.5192 H   0  0  0  0  0  0  0  0  0  0  0  0
   -8.2711   10.7596  -34.7778 H   0  0  0  0  0  0  0  0  0  0  0  0
   -9.0017   12.0225  -33.7214 H   0  0  0  0  0  0  0  0  0  0  0  0
  -10.2050   10.6034  -35.9459 H   0  0  0  0  0  0  0  0  0  0  0  0
  -10.9375   11.8471  -34.8486 H   0  0  0  0  0  0  0  0  0  0  0  0
   -9.1840   11.3036  -37.9192 H   0  0  0  0  0  0  0  0  0  0  0  0
   -9.1444   13.0750  -38.3035 H   0  0  0  0  0  0  0  0  0  0  0  0
   -7.1717   11.5097  -36.9056 H   0  0  0  0  0  0  0  0  0  0  0  0
   -7.1635   13.2747  -37.2669 H   0  0  0  0  0  0  0  0  0  0  0  0
   -3.8384   14.0007  -33.7905 H   0  0  0  0  0  0  0  0  0  0  0  0
   -3.1943   16.3411  -33.2195 H   0  0  0  0  0  0  0  0  0  0  0  0
   -7.4902   20.8496  -31.3862 H   0  0  0  0  0  0  0  0  0  0  0  0
   -7.0505   22.9347  -30.1053 H   0  0  0  0  0  0  0  0  0  0  0  0
   -3.3281   23.4221  -26.7836 H   0  0  0  0  0  0  0  0  0  0  0  0
   -5.0304   23.5274  -27.4349 H   0  0  0  0  0  0  0  0  0  0  0  0
   -3.8065   21.2163  -27.3742 H   0  0  0  0  0  0  0  0  0  0  0  0
   -4.7662   21.7380  -28.8377 H   0  0  0  0  0  0  0  0  0  0  0  0
   -3.0100   19.5538  -29.2302 H   0  0  0  0  0  0  0  0  0  0  0  0
   -1.1631   19.1623  -30.8586 H   0  0  0  0  0  0  0  0  0  0  0  0
    0.2325   21.0736  -31.6493 H   0  0  0  0  0  0  0  0  0  0  0  0
   -0.1921   23.3740  -30.7889 H   0  0  0  0  0  0  0  0  0  0  0  0
   -1.4878   24.4277  -28.2885 H   0  0  0  0  0  0  0  0  0  0  0  0
   -2.0294   24.8530  -29.9763 H   0  0  0  0  0  0  0  0  0  0  0  0
   -3.1527   23.2514  -31.9455 H   0  0  0  0  0  0  0  0  0  0  0  0
   -3.5464   21.1171  -33.1653 H   0  0  0  0  0  0  0  0  0  0  0  0
  1  2  2  0
  2  3  1  0
  3  4  1  0
  4  5  2  0
  5  6  1  0
  6  7  2  0
  7  8  1  0
  8  9  2  0
  8 10  2  0
  8 11  1  0
 11 12  1  0
 12 13  1  0
 13 14  1  0
 14 15  1  0
 15 16  1  0
  7 17  1  0
 17 18  2  0
  2 19  1  0
 19 20  2  0
 20 21  1  0
 21 22  2  0
 22 23  1  0
 23 24  2  0
 23 25  2  0
 23 26  1  0
 26 27  1  0
 27 28  1  0
 28 29  1  0
 29 30  2  0
 30 31  1  0
 31 32  2  0
 32 33  1  0
 33 34  2  0
 34 35  1  0
 22 36  1  0
 36 37  2  0
 18  4  1  0
 37 19  1  0
 16 11  1  0
 35 26  1  0
 34 29  1  0
  3 38  1  0
  5 39  1  0
  6 40  1  0
 12 41  1  0
 12 42  1  0
 13 43  1  0
 13 44  1  0
 15 45  1  0
 15 46  1  0
 16 47  1  0
 16 48  1  0
 17 49  1  0
 18 50  1  0
 20 51  1  0
 21 52  1  0
 27 53  1  0
 27 54  1  0
 28 55  1  0
 28 56  1  0
 30 57  1  0
 31 58  1  0
 32 59  1  0
 33 60  1  0
 35 61  1  0
 35 62  1  0
 36 63  1  0
 37 64  1  0
M  END
>  <UniqueID>  (11) 
11

>  <SMILES>  (11) 
O=C(Nc1ccc(S(=O)(=O)N2CCOCC2)cc1)c1ccc(S(=O)(=O)N2CCc3ccccc3C2)cc1

>  <Energy>  (11) 
86.04232268982696

>  <Genealogy>  (11) 
O=C(Nc1ccc(S(=O)(=O)N2CCOCC2)cc1)c1ccc(S(=O)(=O)N2CCc3ccccc3C2)cc1 (3D coordinates assigned)
O=C(Nc1ccc(S(=O)(=O)N2CCOCC2)cc1)c1ccc(S(=O)(=O)N2CCc3ccccc3C2)cc1 (nonaromatic ring conformer: 86.04232268982696 kcal/mol)

>  <smiles>  (11) 
O=C(Nc1ccc(S(=O)(=O)N2CCOCC2)cc1)c1ccc(S(=O)(=O)N2CCc3ccccc3C2)cc1

>  <score_type>  (11) 
oracle

>  <origin>  (11) 
adgpu

>  <m_score__min__energy>  (11) 
-10.34

>  <m_primary>  (11) 
energy

$$$$
11:0
     RDKit          3D

 65 68  0  0  0  0  0  0  0  0999 V2000
   -6.8430   19.4840  -33.5350 C   0  0  0  0  0  0  0  0  0  0  0  0
   -6.9190   20.6980  -32.6470 C   0  0  0  0  0  0  0  0  0  0  0  0
   -5.9050   21.6640  -32.7220 C   0  0  0  0  0  0  0  0  0  0  0  0
   -5.9340   22.7930  -31.9010 C   0  0  0  0  0  0  0  0  0  0  0  0
   -6.9830   22.9770  -30.9830 C   0  0  0  0  0  0  0  0  0  0  0  0
   -7.0610   24.0960  -30.1390 O   0  0  0  0  0  0  0  0  0  0  0  0
   -6.1890   25.2250  -30.1860 C   0  0  0  0  0  0  0  0  0  0  0  0
   -4.7740   24.8140  -29.8770 C   0  0  0  0  0  0  0  0  0  0  0  0
   -3.8350   25.2970  -30.5640 O   0  0  0  0  0  0  0  0  0  0  0  0
   -4.4590   23.8990  -28.8160 N   0  0  0  0  0  0  0  0  0  0  0  0
   -3.3360   24.0230  -27.9340 C   0  0  0  0  0  0  0  0  0  0  0  0
   -3.4220   24.9280  -26.8670 C   0  0  0  0  0  0  0  0  0  0  0  0
   -2.3270   25.1400  -26.0290 C   0  0  0  0  0  0  0  0  0  0  0  0
   -1.1370   24.4390  -26.2400 C   0  0  0  0  0  0  0  0  0  0  0  0
   -1.0450   23.5130  -27.2810 C   0  0  0  0  0  0  0  0  0  0  0  0
   -2.1460   23.2770  -28.1250 C   0  0  0  0  0  0  0  0  0  0  0  0
   -2.0470   22.2210  -29.1570 C   0  0  0  0  0  0  0  0  0  0  0  0
   -1.5080   21.1190  -28.8650 O   0  0  0  0  0  0  0  0  0  0  0  0
   -2.6380   22.4190  -30.4510 N   0  0  0  0  0  0  0  0  0  0  0  0
   -2.4560   21.5280  -31.5650 C   0  0  0  0  0  0  0  0  0  0  0  0
   -3.3100   20.4310  -31.7780 C   0  0  0  0  0  0  0  0  0  0  0  0
   -3.1030   19.5790  -32.8660 C   0  0  0  0  0  0  0  0  0  0  0  0
   -2.0390   19.8050  -33.7450 C   0  0  0  0  0  0  0  0  0  0  0  0
   -1.1630   20.8760  -33.5250 C   0  0  0  0  0  0  0  0  0  0  0  0
    0.1630   21.1800  -34.6430 S   0  0  0  0  0  0  0  0  0  0  0  0
   -0.1020   22.4780  -35.3540 O   0  0  0  0  0  0  0  0  0  0  0  0
    1.4540   21.2950  -33.8770 O   0  0  0  0  0  0  0  0  0  0  0  0
    0.2850   19.8840  -35.8080 N   0  0  0  0  0  0  0  0  0  0  0  0
    0.4920   18.6000  -35.1190 C   0  0  0  0  0  0  0  0  0  0  0  0
    0.6430   17.4630  -36.1530 C   0  0  0  0  0  0  0  0  0  0  0  0
    0.6640   17.9480  -37.4850 O   0  0  0  0  0  0  0  0  0  0  0  0
    1.6810   18.9240  -37.6230 C   0  0  0  0  0  0  0  0  0  0  0  0
    1.4070   20.1490  -36.7270 C   0  0  0  0  0  0  0  0  0  0  0  0
   -1.3730   21.7320  -32.4350 C   0  0  0  0  0  0  0  0  0  0  0  0
   -7.9870   22.0090  -30.8940 C   0  0  0  0  0  0  0  0  0  0  0  0
   -7.9620   20.8610  -31.7050 C   0  0  0  0  0  0  0  0  0  0  0  0
   -9.0580   19.8380  -31.5680 C   0  0  0  0  0  0  0  0  0  0  0  0
   -6.7863   18.5781  -32.9136 H   0  0  0  0  0  0  0  0  0  0  0  0
   -7.7400   19.4375  -34.1700 H   0  0  0  0  0  0  0  0  0  0  0  0
   -5.9472   19.5497  -34.1700 H   0  0  0  0  0  0  0  0  0  0  0  0
   -5.0781   21.5308  -33.4351 H   0  0  0  0  0  0  0  0  0  0  0  0
   -5.1320   23.5424  -31.9728 H   0  0  0  0  0  0  0  0  0  0  0  0
   -6.2253   25.6684  -31.1920 H   0  0  0  0  0  0  0  0  0  0  0  0
   -6.5175   25.9587  -29.4351 H   0  0  0  0  0  0  0  0  0  0  0  0
   -4.3597   25.4750  -26.6892 H   0  0  0  0  0  0  0  0  0  0  0  0
   -2.4006   25.8602  -25.2008 H   0  0  0  0  0  0  0  0  0  0  0  0
   -0.2713   24.6169  -25.5851 H   0  0  0  0  0  0  0  0  0  0  0  0
   -0.1054   22.9642  -27.4425 H   0  0  0  0  0  0  0  0  0  0  0  0
   -3.3670   23.1610  -30.5370 H   0  0  0  0  0  0  0  0  0  0  0  0
   -4.1438   20.2431  -31.0856 H   0  0  0  0  0  0  0  0  0  0  0  0
   -3.7794   18.7275  -33.0317 H   0  0  0  0  0  0  0  0  0  0  0  0
   -1.8898   19.1415  -34.6096 H   0  0  0  0  0  0  0  0  0  0  0  0
    1.4037   18.6584  -34.5063 H   0  0  0  0  0  0  0  0  0  0  0  0
   -0.3766   18.3909  -34.4772 H   0  0  0  0  0  0  0  0  0  0  0  0
    1.5838   16.9282  -35.9562 H   0  0  0  0  0  0  0  0  0  0  0  0
   -0.2262   16.7966  -36.0506 H   0  0  0  0  0  0  0  0  0  0  0  0
    2.6456   18.4794  -37.3369 H   0  0  0  0  0  0  0  0  0  0  0  0
    1.7020   19.2579  -38.6709 H   0  0  0  0  0  0  0  0  0  0  0  0
    2.3090   20.3752  -36.1394 H   0  0  0  0  0  0  0  0  0  0  0  0
    1.1439   21.0033  -37.3680 H   0  0  0  0  0  0  0  0  0  0  0  0
   -0.6833   22.5708  -32.2597 H   0  0  0  0  0  0  0  0  0  0  0  0
   -8.8102   22.1476  -30.1777 H   0  0  0  0  0  0  0  0  0  0  0  0
   -9.2559   19.6532  -30.5018 H   0  0  0  0  0  0  0  0  0  0  0  0
   -9.9723   20.2132  -32.0510 H   0  0  0  0  0  0  0  0  0  0  0  0
   -8.7466   18.9001  -32.0510 H   0  0  0  0  0  0  0  0  0  0  0  0
  1  2  1  0
  2  3  2  0
  3  4  1  0
  4  5  2  0
  5  6  1  0
  6  7  1  0
  7  8  1  0
  8  9  2  0
  8 10  1  0
 10 11  1  0
 11 12  2  0
 12 13  1  0
 13 14  2  0
 14 15  1  0
 15 16  2  0
 16 17  1  0
 17 18  2  0
 17 19  1  0
 19 20  1  0
 20 21  2  0
 21 22  1  0
 22 23  2  0
 23 24  1  0
 24 25  1  0
 25 26  2  0
 25 27  2  0
 25 28  1  0
 28 29  1  0
 29 30  1  0
 30 31  1  0
 31 32  1  0
 32 33  1  0
 24 34  2  0
  5 35  1  0
 35 36  2  0
 36 37  1  0
 36  2  1  0
 16 11  1  0
 34 20  1  0
 33 28  1  0
  1 38  1  0
  1 39  1  0
  1 40  1  0
  3 41  1  0
  4 42  1  0
  7 43  1  0
  7 44  1  0
 12 45  1  0
 13 46  1  0
 14 47  1  0
 15 48  1  0
 19 49  1  0
 21 50  1  0
 22 51  1  0
 23 52  1  0
 29 53  1  0
 29 54  1  0
 30 55  1  0
 30 56  1  0
 32 57  1  0
 32 58  1  0
 33 59  1  0
 33 60  1  0
 34 61  1  0
 35 62  1  0
 37 63  1  0
 37 64  1  0
 37 65  1  0
M  CHG  1  10  -1
M  END
>  <UniqueID>  (12) 
12

>  <SMILES>  (12) 
Cc1ccc(OCC(=O)[N-]c2ccccc2C(=O)Nc2cccc(S(=O)(=O)N3CCOCC3)c2)cc1C

>  <Energy>  (12) 
87.98265131975639

>  <Genealogy>  (12) 
Cc1ccc(OCC(=O)[N-]c2ccccc2C(=O)Nc2cccc(S(=O)(=O)N3CCOCC3)c2)cc1C (protonated)
Cc1ccc(OCC(=O)[N-]c2ccccc2C(=O)Nc2cccc(S(=O)(=O)N3CCOCC3)c2)cc1C (3D coordinates assigned)
Cc1ccc(OCC(=O)[N-]c2ccccc2C(=O)Nc2cccc(S(=O)(=O)N3CCOCC3)c2)cc1C (nonaromatic ring conformer: 87.98265131975639 kcal/mol)

>  <smiles>  (12) 
Cc1ccc(OCC(=O)Nc2ccccc2C(=O)Nc2cccc(S(=O)(=O)N3CCOCC3)c2)cc1C

>  <score_type>  (12) 
oracle

>  <origin>  (12) 
adgpu

>  <m_score__min__energy>  (12) 
-12.039999999999999

>  <m_primary>  (12) 
energy

$$$$
12:0
     RDKit          3D

 51 54  0  0  0  0  0  0  0  0999 V2000
   -8.0713   21.7139  -32.6511 H   0  0  0  0  0  0  0  0  0  0  0  0
   -7.5820   22.4030  -31.9470 C   0  0  0  0  0  0  0  0  0  0  0  0
   -6.9850   23.5250  -32.2780 O   0  0  0  0  0  0  0  0  0  0  0  0
   -6.5170   24.0870  -31.1870 C   0  0  0  0  0  0  0  0  0  0  0  0
   -5.7500   25.3730  -31.1690 C   0  0  0  0  0  0  0  0  0  0  0  0
   -6.4314   26.1966  -30.9096 H   0  0  0  0  0  0  0  0  0  0  0  0
   -5.3135   25.5392  -32.1649 H   0  0  0  0  0  0  0  0  0  0  0  0
   -4.6700   25.3150  -30.1850 N   0  0  0  0  0  0  0  0  0  0  0  0
   -3.6790   24.4730  -30.2190 C   0  0  0  0  0  0  0  0  0  0  0  0
   -3.5790   23.5510  -31.2140 N   0  0  0  0  0  0  0  0  0  0  0  0
   -2.5460   22.6670  -31.2350 C   0  0  0  0  0  0  0  0  0  0  0  0
   -2.4490   21.6760  -32.2790 N   0  0  0  0  0  0  0  0  0  0  0  0
   -3.6110   21.3030  -33.0960 C   0  0  0  0  0  0  0  0  0  0  0  0
   -4.5331   21.6303  -32.5934 H   0  0  0  0  0  0  0  0  0  0  0  0
   -3.5385   21.7883  -34.0805 H   0  0  0  0  0  0  0  0  0  0  0  0
   -3.6400   19.7790  -33.2770 C   0  0  0  0  0  0  0  0  0  0  0  0
   -3.8772   19.3183  -32.3067 H   0  0  0  0  0  0  0  0  0  0  0  0
   -4.3996   19.5601  -34.0419 H   0  0  0  0  0  0  0  0  0  0  0  0
   -2.3520   19.2100  -33.7660 N   0  0  0  0  0  0  0  0  0  0  0  0
   -1.9830   17.9950  -33.0160 C   0  0  0  0  0  0  0  0  0  0  0  0
   -2.0445   18.1976  -31.9366 H   0  0  0  0  0  0  0  0  0  0  0  0
   -2.6740   17.1796  -33.2760 H   0  0  0  0  0  0  0  0  0  0  0  0
   -0.9552   17.7016  -33.2760 H   0  0  0  0  0  0  0  0  0  0  0  0
   -1.2280   20.1720  -33.8250 C   0  0  0  0  0  0  0  0  0  0  0  0
   -0.2870   19.6103  -33.9197 H   0  0  0  0  0  0  0  0  0  0  0  0
   -1.3945   20.8292  -34.6913 H   0  0  0  0  0  0  0  0  0  0  0  0
   -1.1490   21.0590  -32.5730 C   0  0  0  0  0  0  0  0  0  0  0  0
   -0.8415   20.4429  -31.7151 H   0  0  0  0  0  0  0  0  0  0  0  0
   -0.4165   21.8587  -32.7571 H   0  0  0  0  0  0  0  0  0  0  0  0
   -1.6070   22.7200  -30.2540 N   0  0  0  0  0  0  0  0  0  0  0  0
   -1.6870   23.6480  -29.2660 C   0  0  0  0  0  0  0  0  0  0  0  0
   -0.7760   23.6630  -28.3370 N   0  0  0  0  0  0  0  0  0  0  0  0
   -0.6500   24.5920  -27.2460 C   0  0  0  0  0  0  0  0  0  0  0  0
   -0.5480   25.9570  -27.5420 C   0  0  0  0  0  0  0  0  0  0  0  0
   -0.5259   26.2873  -28.5910 H   0  0  0  0  0  0  0  0  0  0  0  0
   -0.4740   26.9040  -26.5150 C   0  0  0  0  0  0  0  0  0  0  0  0
   -0.3905   27.9731  -26.7599 H   0  0  0  0  0  0  0  0  0  0  0  0
   -0.5060   26.4940  -25.1730 C   0  0  0  0  0  0  0  0  0  0  0  0
   -0.4690   27.5040  -24.0650 C   0  0  0  0  0  0  0  0  0  0  0  0
   -0.4880   26.9852  -23.0952 H   0  0  0  0  0  0  0  0  0  0  0  0
    0.4516   28.1009  -24.1436 H   0  0  0  0  0  0  0  0  0  0  0  0
   -1.3435   28.1667  -24.1436 H   0  0  0  0  0  0  0  0  0  0  0  0
   -0.6440   25.1320  -24.8730 C   0  0  0  0  0  0  0  0  0  0  0  0
   -0.6889   24.8051  -23.8237 H   0  0  0  0  0  0  0  0  0  0  0  0
   -0.7250   24.1860  -25.9000 C   0  0  0  0  0  0  0  0  0  0  0  0
   -0.8478   23.1207  -25.6551 H   0  0  0  0  0  0  0  0  0  0  0  0
   -2.7350   24.5150  -29.2470 N   0  0  0  0  0  0  0  0  0  0  0  0
   -6.8120   23.3070  -30.0870 C   0  0  0  0  0  0  0  0  0  0  0  0
   -6.5514   23.5100  -29.0378 H   0  0  0  0  0  0  0  0  0  0  0  0
   -7.5020   22.2200  -30.5800 C   0  0  0  0  0  0  0  0  0  0  0  0
   -7.9072   21.3768  -30.0014 H   0  0  0  0  0  0  0  0  0  0  0  0
  1  2  1  0
  2  3  1  0
  3  4  1  0
  4  5  1  0
  5  6  1  0
  5  7  1  0
  5  8  1  0
  8  9  2  0
  9 10  1  0
 10 11  1  0
 11 12  1  0
 12 13  1  0
 13 14  1  0
 13 15  1  0
 13 16  1  0
 16 17  1  0
 16 18  1  0
 16 19  1  0
 19 20  1  0
 20 21  1  0
 20 22  1  0
 20 23  1  0
 19 24  1  0
 24 25  1  0
 24 26  1  0
 24 27  1  0
 27 28  1  0
 27 29  1  0
 11 30  2  0
 30 31  1  0
 31 32  2  0
 32 33  1  0
 33 34  2  0
 34 35  1  0
 34 36  1  0
 36 37  1  0
 36 38  2  0
 38 39  1  0
 39 40  1  0
 39 41  1  0
 39 42  1  0
 38 43  1  0
 43 44  1  0
 43 45  2  0
 45 46  1  0
 31 47  1  0
  4 48  2  0
 48 49  1  0
 48 50  1  0
 50 51  1  0
 50  2  2  0
 47  9  1  0
 27 12  1  0
 45 33  1  0
M  CHG  2  10  -1  47  -1
M  END
>  <UniqueID>  (13) 
13

>  <SMILES>  (13) 
Cc1ccc(/N=c2/nc(N3CCN(C)CC3)[n-]/c(=N\Cc3ccco3)[n-]2)cc1

>  <Energy>  (13) 
90.83735428489705

>  <Genealogy>  (13) 
Cc1ccc(N=c2nc(N3CCN(C)CC3)[n-]c(=NCc3ccco3)[n-]2)cc1 (protonated)
Cc1ccc(/N=c2/nc(N3CCN(C)CC3)[n-]/c(=N\Cc3ccco3)[n-]2)cc1 (cis-trans isomerization)
Cc1ccc(/N=c2/nc(N3CCN(C)CC3)[n-]/c(=N\Cc3ccco3)[n-]2)cc1 (3D coordinates assigned)
Cc1ccc(/N=c2/nc(N3CCN(C)CC3)[n-]/c(=N\Cc3ccco3)[n-]2)cc1 (nonaromatic ring conformer: 90.83735428489705 kcal/mol)

>  <smiles>  (13) 
Cc1ccc(N=c2nc(N3CCN(C)CC3)[nH]c(=NCc3ccco3)[nH]2)cc1

>  <score_type>  (13) 
oracle

>  <origin>  (13) 
adgpu

>  <m_score__min__energy>  (13) 
-9.4700000000000006

>  <m_primary>  (13) 
energy

$$$$
13:0
     RDKit          3D

 49 51  0  0  0  0  0  0  0  0999 V2000
   -0.9450   17.6740  -33.7190 C   0  0  0  0  0  0  0  0  0  0  0  0
   -2.2910   18.0310  -34.0070 O   0  0  0  0  0  0  0  0  0  0  0  0
   -3.1100   18.6920  -33.0850 C   0  0  0  0  0  0  0  0  0  0  0  0
   -2.6270   19.8270  -32.4280 C   0  0  0  0  0  0  0  0  0  0  0  0
   -3.4390   20.4950  -31.5020 C   0  0  0  0  0  0  0  0  0  0  0  0
   -2.9330   21.6830  -30.7730 C   0  0  0  0  0  0  0  0  0  0  0  0
   -1.8160   21.5800  -29.9290 C   0  0  0  0  0  0  0  0  0  0  0  0
   -1.3440   22.6990  -29.2390 C   0  0  0  0  0  0  0  0  0  0  0  0
   -1.9890   23.9440  -29.3730 C   0  0  0  0  0  0  0  0  0  0  0  0
   -1.5510   25.0910  -28.6930 O   0  0  0  0  0  0  0  0  0  0  0  0
   -1.4380   25.1950  -27.2770 C   0  0  0  0  0  0  0  0  0  0  0  0
   -3.1070   24.0490  -30.2110 C   0  0  0  0  0  0  0  0  0  0  0  0
   -3.7520   25.2760  -30.3450 O   0  0  0  0  0  0  0  0  0  0  0  0
   -3.5730   22.9270  -30.9100 C   0  0  0  0  0  0  0  0  0  0  0  0
   -4.7380   20.0160  -31.2650 C   0  0  0  0  0  0  0  0  0  0  0  0
   -5.1940   18.8750  -31.9420 C   0  0  0  0  0  0  0  0  0  0  0  0
   -6.5690   18.3220  -31.6930 C   0  0  0  0  0  0  0  0  0  0  0  0
   -7.5760   18.7680  -32.7810 C   0  0  0  0  0  0  0  0  0  0  0  0
   -7.1000   20.0610  -33.4760 C   0  0  0  0  0  0  0  0  0  0  0  0
   -7.1580   21.2920  -32.5480 C   0  0  0  0  0  0  0  0  0  0  0  0
   -8.3550   21.2780  -31.5750 C   0  0  0  0  0  0  0  0  0  0  0  0
   -9.4940   20.3790  -32.0670 C   0  0  0  0  0  0  0  0  0  0  0  0
   -9.0270   18.9190  -32.2320 C   0  0  0  0  0  0  0  0  0  0  0  0
   -4.3700   18.2450  -32.8240 N   0  0  0  0  0  0  0  0  0  0  0  0
   -0.8010   17.6358  -32.6291 H   0  0  0  0  0  0  0  0  0  0  0  0
   -0.7267   16.6869  -34.1525 H   0  0  0  0  0  0  0  0  0  0  0  0
   -0.2662   18.4232  -34.1525 H   0  0  0  0  0  0  0  0  0  0  0  0
   -1.6118   20.1950  -32.6374 H   0  0  0  0  0  0  0  0  0  0  0  0
   -1.3088   20.6112  -29.8102 H   0  0  0  0  0  0  0  0  0  0  0  0
   -0.4630   22.6074  -28.5868 H   0  0  0  0  0  0  0  0  0  0  0  0
   -2.1676   24.5236  -26.8007 H   0  0  0  0  0  0  0  0  0  0  0  0
   -0.4214   24.9100  -26.9684 H   0  0  0  0  0  0  0  0  0  0  0  0
   -1.6378   26.2317  -26.9684 H   0  0  0  0  0  0  0  0  0  0  0  0
   -3.4980   26.0730  -29.7730 H   0  0  0  0  0  0  0  0  0  0  0  0
   -4.4469   23.0208  -31.5714 H   0  0  0  0  0  0  0  0  0  0  0  0
   -5.3954   20.5337  -30.5511 H   0  0  0  0  0  0  0  0  0  0  0  0
   -6.5149   17.2233  -31.6874 H   0  0  0  0  0  0  0  0  0  0  0  0
   -6.9210   18.7065  -30.7244 H   0  0  0  0  0  0  0  0  0  0  0  0
   -7.6108   17.9649  -33.5319 H   0  0  0  0  0  0  0  0  0  0  0  0
   -6.0610   19.9197  -33.8086 H   0  0  0  0  0  0  0  0  0  0  0  0
   -7.7760   20.2512  -34.3227 H   0  0  0  0  0  0  0  0  0  0  0  0
   -6.2306   21.3260  -31.9575 H   0  0  0  0  0  0  0  0  0  0  0  0
   -7.2773   22.1755  -33.1923 H   0  0  0  0  0  0  0  0  0  0  0  0
   -8.0115   20.9103  -30.5969 H   0  0  0  0  0  0  0  0  0  0  0  0
   -8.7433   22.3048  -31.5045 H   0  0  0  0  0  0  0  0  0  0  0  0
  -10.3163   20.4114  -31.3371 H   0  0  0  0  0  0  0  0  0  0  0  0
   -9.8278   20.7487  -33.0478 H   0  0  0  0  0  0  0  0  0  0  0  0
   -9.0761   18.4283  -31.2487 H   0  0  0  0  0  0  0  0  0  0  0  0
   -9.6944   18.4567  -32.9742 H   0  0  0  0  0  0  0  0  0  0  0  0
  1  2  1  0
  2  3  1  0
  3  4  2  0
  4  5  1  0
  5  6  1  0
  6  7  2  0
  7  8  1  0
  8  9  2  0
  9 10  1  0
 10 11  1  0
  9 12  1  0
 12 13  1  0
 12 14  2  0
  5 15  2  0
 15 16  1  0
 16 17  1  0
 17 18  1  0
 18 19  1  0
 19 20  1  0
 20 21  1  0
 21 22  1  0
 22 23  1  0
 16 24  2  0
 24  3  1  0
 14  6  1  0
 23 18  1  0
  1 25  1  0
  1 26  1  0
  1 27  1  0
  4 28  1  0
  7 29  1  0
  8 30  1  0
 11 31  1  0
 11 32  1  0
 11 33  1  0
 13 34  1  0
 14 35  1  0
 15 36  1  0
 17 37  1  0
 17 38  1  0
 18 39  1  0
 19 40  1  0
 19 41  1  0
 20 42  1  0
 20 43  1  0
 21 44  1  0
 21 45  1  0
 22 46  1  0
 22 47  1  0
 23 48  1  0
 23 49  1  0
M  END
>  <UniqueID>  (14) 
14

>  <SMILES>  (14) 
COc1cc(-c2ccc(OC)c(O)c2)cc(CC2CCCCC2)n1

>  <Energy>  (14) 
53.84824338052701

>  <Genealogy>  (14) 
COc1cc(-c2ccc(OC)c(O)c2)cc(CC2CCCCC2)n1 (3D coordinates assigned)
COc1cc(-c2ccc(OC)c(O)c2)cc(CC2CCCCC2)n1 (nonaromatic ring conformer: 53.84824338052701 kcal/mol)

>  <smiles>  (14) 
COc1cc(-c2ccc(OC)c(O)c2)cc(CC2CCCCC2)n1

>  <score_type>  (14) 
oracle

>  <origin>  (14) 
adgpu

>  <m_score__min__energy>  (14) 
-9.1199999999999992

>  <m_primary>  (14) 
energy

$$$$
14:0
     RDKit          3D

 37 39  0  0  0  0  0  0  0  0999 V2000
   -2.3960   21.1290  -27.4450 C   0  0  0  0  0  0  0  0  0  0  0  0
   -2.0770   22.5020  -27.9580 C   0  0  0  0  0  0  0  0  0  0  0  0
   -0.9630   23.1990  -27.4680 C   0  0  0  0  0  0  0  0  0  0  0  0
   -0.6880   24.4900  -27.9220 C   0  0  0  0  0  0  0  0  0  0  0  0
   -1.5270   25.1020  -28.8570 C   0  0  0  0  0  0  0  0  0  0  0  0
   -1.2370   26.3880  -29.3010 O   0  0  0  0  0  0  0  0  0  0  0  0
   -2.6570   24.4270  -29.3410 C   0  0  0  0  0  0  0  0  0  0  0  0
   -3.5080   25.0920  -30.2870 N   0  0  0  0  0  0  0  0  0  0  0  0
   -5.2300   24.9090  -30.3840 S   0  0  0  0  0  0  0  0  0  0  0  0
   -5.7980   26.0200  -31.2220 O   0  0  0  0  0  0  0  0  0  0  0  0
   -5.8170   24.9930  -29.0030 O   0  0  0  0  0  0  0  0  0  0  0  0
   -5.6210   23.3350  -31.0730 C   0  0  0  0  0  0  0  0  0  0  0  0
   -4.6540   22.6460  -31.8140 C   0  0  0  0  0  0  0  0  0  0  0  0
   -4.9600   21.4140  -32.3980 C   0  0  0  0  0  0  0  0  0  0  0  0
   -6.2360   20.8570  -32.2420 C   0  0  0  0  0  0  0  0  0  0  0  0
   -7.2120   21.5420  -31.4880 C   0  0  0  0  0  0  0  0  0  0  0  0
   -6.9010   22.7840  -30.9160 C   0  0  0  0  0  0  0  0  0  0  0  0
   -8.6190   20.9980  -31.4100 C   0  0  0  0  0  0  0  0  0  0  0  0
   -8.6450   19.4630  -31.4140 C   0  0  0  0  0  0  0  0  0  0  0  0
   -7.7670   18.9170  -32.5020 C   0  0  0  0  0  0  0  0  0  0  0  0
   -8.0660   17.8340  -33.0710 O   0  0  0  0  0  0  0  0  0  0  0  0
   -6.5500   19.5910  -32.8380 N   0  0  0  0  0  0  0  0  0  0  0  0
   -2.9290   23.1240  -28.8830 C   0  0  0  0  0  0  0  0  0  0  0  0
   -2.3937   21.1389  -26.3450 H   0  0  0  0  0  0  0  0  0  0  0  0
   -3.3890   20.8239  -27.8069 H   0  0  0  0  0  0  0  0  0  0  0  0
   -1.6393   20.4174  -27.8069 H   0  0  0  0  0  0  0  0  0  0  0  0
   -0.3043   22.7271  -26.7240 H   0  0  0  0  0  0  0  0  0  0  0  0
    0.1930   25.0280  -27.5421 H   0  0  0  0  0  0  0  0  0  0  0  0
   -3.6491   23.0761  -31.9371 H   0  0  0  0  0  0  0  0  0  0  0  0
   -4.1964   20.8796  -32.9822 H   0  0  0  0  0  0  0  0  0  0  0  0
   -7.6647   23.3286  -30.3414 H   0  0  0  0  0  0  0  0  0  0  0  0
   -9.0878   21.3584  -30.4825 H   0  0  0  0  0  0  0  0  0  0  0  0
   -9.1677   21.3487  -32.2965 H   0  0  0  0  0  0  0  0  0  0  0  0
   -8.2861   19.0939  -30.4419 H   0  0  0  0  0  0  0  0  0  0  0  0
   -9.6775   19.1287  -31.5936 H   0  0  0  0  0  0  0  0  0  0  0  0
   -5.8780   19.1400  -33.5000 H   0  0  0  0  0  0  0  0  0  0  0  0
   -3.8163   22.5894  -29.2531 H   0  0  0  0  0  0  0  0  0  0  0  0
  1  2  1  0
  2  3  2  0
  3  4  1  0
  4  5  2  0
  5  6  1  0
  5  7  1  0
  7  8  1  0
  8  9  1  0
  9 10  2  0
  9 11  2  0
  9 12  1  0
 12 13  2  0
 13 14  1  0
 14 15  2  0
 15 16  1  0
 16 17  2  0
 16 18  1  0
 18 19  1  0
 19 20  1  0
 20 21  2  0
 20 22  1  0
  7 23  2  0
 23  2  1  0
 17 12  1  0
 22 15  1  0
  1 24  1  0
  1 25  1  0
  1 26  1  0
  3 27  1  0
  4 28  1  0
 13 29  1  0
 14 30  1  0
 17 31  1  0
 18 32  1  0
 18 33  1  0
 19 34  1  0
 19 35  1  0
 22 36  1  0
 23 37  1  0
M  CHG  2   6  -1   8  -1
M  END
>  <UniqueID>  (15) 
15

>  <SMILES>  (15) 
Cc1ccc([O-])c([N-]S(=O)(=O)c2ccc3c(c2)CCC(=O)N3)c1

>  <Energy>  (15) 
40.97334079583739

>  <Genealogy>  (15) 
Cc1ccc([O-])c([N-]S(=O)(=O)c2ccc3c(c2)CCC(=O)N3)c1 (protonated)
Cc1ccc([O-])c([N-]S(=O)(=O)c2ccc3c(c2)CCC(=O)N3)c1 (3D coordinates assigned)
Cc1ccc([O-])c([N-]S(=O)(=O)c2ccc3c(c2)CCC(=O)N3)c1 (nonaromatic ring conformer: 40.97334079583739 kcal/mol)

>  <smiles>  (15) 
Cc1ccc(O)c(NS(=O)(=O)c2ccc3c(c2)CCC(=O)N3)c1

>  <score_type>  (15) 
oracle

>  <origin>  (15) 
adgpu

>  <m_score__min__energy>  (15) 
-13.66

>  <m_primary>  (15) 
energy

$$$$
15:0
     RDKit          3D

 57 60  0  0  0  0  0  0  0  0999 V2000
   -5.7229   25.4736  -31.6092 H   0  0  0  0  0  0  0  0  0  0  0  0
   -5.1370   24.9390  -30.8470 C   0  0  0  0  0  0  0  0  0  0  0  0
   -3.8600   25.2070  -30.5140 N   0  0  0  0  0  0  0  0  0  0  0  0
   -3.4890   24.3400  -29.5840 N   0  0  0  0  0  0  0  0  0  0  0  0
   -2.1910   24.3720  -28.9740 C   0  0  0  0  0  0  0  0  0  0  0  0
   -1.8540   25.4510  -28.1450 C   0  0  0  0  0  0  0  0  0  0  0  0
   -2.5886   26.2489  -27.9614 H   0  0  0  0  0  0  0  0  0  0  0  0
   -0.5930   25.5200  -27.5510 C   0  0  0  0  0  0  0  0  0  0  0  0
   -0.3395   26.3664  -26.8957 H   0  0  0  0  0  0  0  0  0  0  0  0
    0.3460   24.5160  -27.7880 C   0  0  0  0  0  0  0  0  0  0  0  0
    1.3348   24.5642  -27.3084 H   0  0  0  0  0  0  0  0  0  0  0  0
    0.0320   23.4490  -28.6340 C   0  0  0  0  0  0  0  0  0  0  0  0
    0.7769   22.6612  -28.8198 H   0  0  0  0  0  0  0  0  0  0  0  0
   -1.2340   23.3760  -29.2510 C   0  0  0  0  0  0  0  0  0  0  0  0
   -1.5600   22.3540  -30.1570 O   0  0  0  0  0  0  0  0  0  0  0  0
   -1.7440   20.9860  -29.8000 C   0  0  0  0  0  0  0  0  0  0  0  0
   -1.7567   20.8916  -28.7041 H   0  0  0  0  0  0  0  0  0  0  0  0
   -2.6988   20.6252  -30.2102 H   0  0  0  0  0  0  0  0  0  0  0  0
   -0.9185   20.3858  -30.2102 H   0  0  0  0  0  0  0  0  0  0  0  0
   -4.5150   23.5080  -29.2910 C   0  0  0  0  0  0  0  0  0  0  0  0
   -4.4270   22.3350  -28.3560 C   0  0  0  0  0  0  0  0  0  0  0  0
   -4.4538   22.6923  -27.3160 H   0  0  0  0  0  0  0  0  0  0  0  0
   -5.2770   21.6598  -28.5338 H   0  0  0  0  0  0  0  0  0  0  0  0
   -3.4858   21.7942  -28.5338 H   0  0  0  0  0  0  0  0  0  0  0  0
   -5.5920   23.8900  -30.0820 C   0  0  0  0  0  0  0  0  0  0  0  0
   -6.9250   23.3590  -30.1300 N   0  0  0  0  0  0  0  0  0  0  0  0
   -7.3200   22.3760  -30.8860 C   0  0  0  0  0  0  0  0  0  0  0  0
   -6.4460   21.7290  -31.7060 N   0  0  0  0  0  0  0  0  0  0  0  0
   -6.8230   20.6970  -32.5090 C   0  0  0  0  0  0  0  0  0  0  0  0
   -5.9180   20.1280  -33.4130 O   0  0  0  0  0  0  0  0  0  0  0  0
   -4.5270   20.2390  -33.2880 C   0  0  0  0  0  0  0  0  0  0  0  0
   -3.7450   19.0830  -33.3650 C   0  0  0  0  0  0  0  0  0  0  0  0
   -4.2297   18.1001  -33.4592 H   0  0  0  0  0  0  0  0  0  0  0  0
   -2.3510   19.1690  -33.3230 C   0  0  0  0  0  0  0  0  0  0  0  0
   -1.7433   18.2549  -33.3936 H   0  0  0  0  0  0  0  0  0  0  0  0
   -1.7230   20.4180  -33.1910 C   0  0  0  0  0  0  0  0  0  0  0  0
   -0.2480   20.5270  -33.1840 C   0  0  0  0  0  0  0  0  0  0  0  0
    0.3500   20.5340  -32.0730 O   0  0  0  0  0  0  0  0  0  0  0  0
    0.5140   20.6540  -34.4020 N   0  0  0  0  0  0  0  0  0  0  0  0
    1.9490   20.3490  -34.3810 C   0  0  0  0  0  0  0  0  0  0  0  0
    2.2931   20.2759  -33.3388 H   0  0  0  0  0  0  0  0  0  0  0  0
    2.1282   19.3927  -34.8942 H   0  0  0  0  0  0  0  0  0  0  0  0
    2.5016   21.1498  -34.8942 H   0  0  0  0  0  0  0  0  0  0  0  0
   -0.0950   21.1740  -35.6310 C   0  0  0  0  0  0  0  0  0  0  0  0
   -0.9080   21.8682  -35.3720 H   0  0  0  0  0  0  0  0  0  0  0  0
    0.6664   21.7049  -36.2213 H   0  0  0  0  0  0  0  0  0  0  0  0
   -0.5000   20.3388  -36.2213 H   0  0  0  0  0  0  0  0  0  0  0  0
   -2.5110   21.5680  -33.0370 C   0  0  0  0  0  0  0  0  0  0  0  0
   -2.0291   22.5433  -32.8743 H   0  0  0  0  0  0  0  0  0  0  0  0
   -3.9040   21.4820  -33.0890 C   0  0  0  0  0  0  0  0  0  0  0  0
   -4.5146   22.3897  -32.9739 H   0  0  0  0  0  0  0  0  0  0  0  0
   -8.1450   20.2470  -32.4750 C   0  0  0  0  0  0  0  0  0  0  0  0
   -8.4617   19.4036  -33.1062 H   0  0  0  0  0  0  0  0  0  0  0  0
   -9.0620   20.8810  -31.6290 C   0  0  0  0  0  0  0  0  0  0  0  0
  -10.1052   20.5341  -31.5902 H   0  0  0  0  0  0  0  0  0  0  0  0
   -8.6530   21.9540  -30.8340 C   0  0  0  0  0  0  0  0  0  0  0  0
   -9.3714   22.4620  -30.1738 H   0  0  0  0  0  0  0  0  0  0  0  0
  1  2  1  0
  2  3  2  0
  3  4  1  0
  4  5  1  0
  5  6  2  0
  6  7  1  0
  6  8  1  0
  8  9  1  0
  8 10  2  0
 10 11  1  0
 10 12  1  0
 12 13  1  0
 12 14  2  0
 14 15  1  0
 15 16  1  0
 16 17  1  0
 16 18  1  0
 16 19  1  0
  4 20  1  0
 20 21  1  0
 21 22  1  0
 21 23  1  0
 21 24  1  0
 20 25  2  0
 25 26  1  0
 26 27  2  0
 27 28  1  0
 28 29  1  0
 29 30  1  0
 30 31  1  0
 31 32  2  0
 32 33  1  0
 32 34  1  0
 34 35  1  0
 34 36  2  0
 36 37  1  0
 37 38  2  0
 37 39  1  0
 39 40  1  0
 40 41  1  0
 40 42  1  0
 40 43  1  0
 39 44  1  0
 44 45  1  0
 44 46  1  0
 44 47  1  0
 36 48  1  0
 48 49  1  0
 48 50  2  0
 50 51  1  0
 29 52  2  0
 52 53  1  0
 52 54  1  0
 54 55  1  0
 54 56  2  0
 56 57  1  0
 25  2  1  0
 56 27  1  0
 14  5  1  0
 50 31  1  0
M  CHG  1  28  -1
M  END
>  <UniqueID>  (16) 
16

>  <SMILES>  (16) 
COc1ccccc1-n1ncc(/N=c2/cccc(Oc3ccc(C(=O)N(C)C)cc3)[n-]2)c1C

>  <Energy>  (16) 
107.7621394902965

>  <Genealogy>  (16) 
COc1ccccc1-n1ncc(N=c2cccc(Oc3ccc(C(=O)N(C)C)cc3)[n-]2)c1C (protonated)
COc1ccccc1-n1ncc(/N=c2/cccc(Oc3ccc(C(=O)N(C)C)cc3)[n-]2)c1C (cis-trans isomerization)
COc1ccccc1-n1ncc(/N=c2/cccc(Oc3ccc(C(=O)N(C)C)cc3)[n-]2)c1C (3D coordinates assigned)
COc1ccccc1-n1ncc(/N=c2/cccc(Oc3ccc(C(=O)N(C)C)cc3)[n-]2)c1C (optimized conformer: 107.7621394902965 kcal/mol)

>  <smiles>  (16) 
COc1ccccc1-n1ncc(N=c2cccc(Oc3ccc(C(=O)N(C)C)cc3)[nH]2)c1C

>  <score_type>  (16) 
oracle

>  <origin>  (16) 
adgpu

>  <m_score__min__energy>  (16) 
-9.8499999999999996

>  <m_primary>  (16) 
energy

$$$$
16:0
     RDKit          3D

 51 55  0  0  0  0  0  0  0  0999 V2000
   -4.3780   19.8780  -32.7420 C   0  0  0  0  0  0  0  0  0  0  0  0
   -5.8380   19.5280  -32.6350 C   0  0  0  0  0  0  0  0  0  0  0  0
   -6.2630   18.2880  -33.1480 C   0  0  0  0  0  0  0  0  0  0  0  0
   -7.5990   17.8980  -33.0590 C   0  0  0  0  0  0  0  0  0  0  0  0
   -8.5320   18.7310  -32.4490 C   0  0  0  0  0  0  0  0  0  0  0  0
   -8.1400   19.9650  -31.9270 C   0  0  0  0  0  0  0  0  0  0  0  0
   -6.7960   20.3930  -32.0370 C   0  0  0  0  0  0  0  0  0  0  0  0
   -6.5140   21.7570  -31.5230 C   0  0  0  0  0  0  0  0  0  0  0  0
   -5.1460   22.7290  -31.6980 S   0  0  0  0  0  0  0  0  0  0  0  0
   -5.7600   24.0690  -30.8830 C   0  0  0  0  0  0  0  0  0  0  0  0
   -5.0090   25.3060  -30.6080 C   0  0  0  0  0  0  0  0  0  0  0  0
   -5.5830   26.4150  -30.7650 O   0  0  0  0  0  0  0  0  0  0  0  0
   -3.6390   25.2910  -30.1870 N   0  0  0  0  0  0  0  0  0  0  0  0
   -3.1150   24.5520  -29.0410 C   0  0  0  0  0  0  0  0  0  0  0  0
   -2.7030   23.1700  -29.4660 C   0  0  0  0  0  0  0  0  0  0  0  0
   -2.7110   22.1180  -28.5380 C   0  0  0  0  0  0  0  0  0  0  0  0
   -2.3340   20.8310  -28.9300 C   0  0  0  0  0  0  0  0  0  0  0  0
   -1.9340   20.5860  -30.2460 C   0  0  0  0  0  0  0  0  0  0  0  0
   -1.8970   21.6310  -31.1800 C   0  0  0  0  0  0  0  0  0  0  0  0
   -1.4820   21.3590  -32.5300 N   0  0  0  0  0  0  0  0  0  0  0  0
   -0.1360   21.0090  -32.8880 C   0  0  0  0  0  0  0  0  0  0  0  0
    0.6890   20.6590  -32.0000 O   0  0  0  0  0  0  0  0  0  0  0  0
    0.2800   21.0190  -34.2980 C   0  0  0  0  0  0  0  0  0  0  0  0
    0.3630   19.9170  -35.1260 C   0  0  0  0  0  0  0  0  0  0  0  0
    0.7970   20.3980  -36.3430 C   0  0  0  0  0  0  0  0  0  0  0  0
    0.9510   21.7600  -36.1830 C   0  0  0  0  0  0  0  0  0  0  0  0
    0.6360   22.1000  -34.9530 O   0  0  0  0  0  0  0  0  0  0  0  0
   -2.3110   22.9170  -30.7910 C   0  0  0  0  0  0  0  0  0  0  0  0
   -7.0430   23.7660  -30.4410 C   0  0  0  0  0  0  0  0  0  0  0  0
   -7.4680   22.4900  -30.8320 C   0  0  0  0  0  0  0  0  0  0  0  0
   -8.7900   21.8890  -30.4650 C   0  0  0  0  0  0  0  0  0  0  0  0
   -9.1070   20.7800  -31.3160 O   0  0  0  0  0  0  0  0  0  0  0  0
   -3.9506   19.9804  -31.7336 H   0  0  0  0  0  0  0  0  0  0  0  0
   -3.8488   19.0813  -33.2853 H   0  0  0  0  0  0  0  0  0  0  0  0
   -4.2676   20.8281  -33.2853 H   0  0  0  0  0  0  0  0  0  0  0  0
   -5.5323   17.6183  -33.6250 H   0  0  0  0  0  0  0  0  0  0  0  0
   -7.9162   16.9291  -33.4722 H   0  0  0  0  0  0  0  0  0  0  0  0
   -9.5834   18.4156  -32.3778 H   0  0  0  0  0  0  0  0  0  0  0  0
   -2.2424   25.0831  -28.6330 H   0  0  0  0  0  0  0  0  0  0  0  0
   -3.8977   24.4753  -28.2719 H   0  0  0  0  0  0  0  0  0  0  0  0
   -3.0152   22.3070  -27.4979 H   0  0  0  0  0  0  0  0  0  0  0  0
   -2.3522   20.0081  -28.2002 H   0  0  0  0  0  0  0  0  0  0  0  0
   -1.6468   19.5688  -30.5507 H   0  0  0  0  0  0  0  0  0  0  0  0
   -2.2150   21.3260  -33.2740 H   0  0  0  0  0  0  0  0  0  0  0  0
    0.1312   18.8730  -34.8683 H   0  0  0  0  0  0  0  0  0  0  0  0
    0.9829   19.8143  -37.2566 H   0  0  0  0  0  0  0  0  0  0  0  0
    1.2865   22.4557  -36.9662 H   0  0  0  0  0  0  0  0  0  0  0  0
   -2.3281   23.7316  -31.5301 H   0  0  0  0  0  0  0  0  0  0  0  0
   -7.6597   24.4562  -29.8465 H   0  0  0  0  0  0  0  0  0  0  0  0
   -8.7495   21.5415  -29.4221 H   0  0  0  0  0  0  0  0  0  0  0  0
   -9.5685   22.6565  -30.5869 H   0  0  0  0  0  0  0  0  0  0  0  0
  1  2  1  0
  2  3  2  0
  3  4  1  0
  4  5  2  0
  5  6  1  0
  6  7  2  0
  7  8  1  0
  8  9  1  0
  9 10  1  0
 10 11  1  0
 11 12  2  0
 11 13  1  0
 13 14  1  0
 14 15  1  0
 15 16  2  0
 16 17  1  0
 17 18  2  0
 18 19  1  0
 19 20  1  0
 20 21  1  0
 21 22  2  0
 21 23  1  0
 23 24  2  0
 24 25  1  0
 25 26  2  0
 26 27  1  0
 19 28  2  0
 10 29  2  0
 29 30  1  0
 30 31  1  0
 31 32  1  0
  7  2  1  0
 30  8  2  0
 32  6  1  0
 28 15  1  0
 27 23  1  0
  1 33  1  0
  1 34  1  0
  1 35  1  0
  3 36  1  0
  4 37  1  0
  5 38  1  0
 14 39  1  0
 14 40  1  0
 16 41  1  0
 17 42  1  0
 18 43  1  0
 20 44  1  0
 24 45  1  0
 25 46  1  0
 26 47  1  0
 28 48  1  0
 29 49  1  0
 31 50  1  0
 31 51  1  0
M  CHG  1  13  -1
M  END
>  <UniqueID>  (17) 
17

>  <SMILES>  (17) 
Cc1cccc2c1-c1sc(C(=O)[N-]Cc3cccc(NC(=O)c4ccco4)c3)cc1CO2

>  <Energy>  (17) 
123.80591160983344

>  <Genealogy>  (17) 
Cc1cccc2c1-c1sc(C(=O)[N-]Cc3cccc(NC(=O)c4ccco4)c3)cc1CO2 (protonated)
Cc1cccc2c1-c1sc(C(=O)[N-]Cc3cccc(NC(=O)c4ccco4)c3)cc1CO2 (3D coordinates assigned)
Cc1cccc2c1-c1sc(C(=O)[N-]Cc3cccc(NC(=O)c4ccco4)c3)cc1CO2 (nonaromatic ring conformer: 123.80591160983344 kcal/mol)

>  <smiles>  (17) 
Cc1cccc2c1-c1sc(C(=O)NCc3cccc(NC(=O)c4ccco4)c3)cc1CO2

>  <score_type>  (17) 
oracle

>  <origin>  (17) 
adgpu

>  <m_score__min__energy>  (17) 
-11.77

>  <m_primary>  (17) 
energy

$$$$
17:0
     RDKit          3D

 64 67  0  0  0  0  0  0  0  0999 V2000
   -7.9270   19.0070  -32.2750 C   0  0  0  0  0  0  0  0  0  0  0  0
   -8.1550   20.3570  -32.6670 O   0  0  0  0  0  0  0  0  0  0  0  0
   -7.4720   21.4650  -32.1410 C   0  0  0  0  0  0  0  0  0  0  0  0
   -6.2620   21.9220  -32.6970 C   0  0  0  0  0  0  0  0  0  0  0  0
   -5.5870   23.0070  -32.1350 C   0  0  0  0  0  0  0  0  0  0  0  0
   -6.0980   23.6420  -30.9980 C   0  0  0  0  0  0  0  0  0  0  0  0
   -5.2060   24.9490  -30.2220 S   0  0  0  0  0  0  0  0  0  0  0  0
   -5.4930   24.9280  -28.7460 O   0  0  0  0  0  0  0  0  0  0  0  0
   -5.6270   26.2870  -30.7620 O   0  0  0  0  0  0  0  0  0  0  0  0
   -3.5070   24.7010  -30.4670 N   0  0  0  0  0  0  0  0  0  0  0  0
   -2.7870   23.5240  -30.0760 C   0  0  0  0  0  0  0  0  0  0  0  0
   -3.4630   22.2990  -30.0530 C   0  0  0  0  0  0  0  0  0  0  0  0
   -2.7860   21.1220  -29.7120 C   0  0  0  0  0  0  0  0  0  0  0  0
   -1.4240   21.1630  -29.3830 C   0  0  0  0  0  0  0  0  0  0  0  0
   -0.6890   19.9290  -29.0560 C   0  0  0  0  0  0  0  0  0  0  0  0
   -0.8050   19.4360  -27.9040 O   0  0  0  0  0  0  0  0  0  0  0  0
    0.1960   19.3000  -29.9920 N   0  0  0  0  0  0  0  0  0  0  0  0
    0.7050   19.8970  -31.2260 C   0  0  0  0  0  0  0  0  0  0  0  0
   -0.1050   19.4470  -32.4720 C   0  0  2  0  0  0  0  0  0  0  0  0
    0.5620   19.9150  -33.7510 C   0  0  0  0  0  0  0  0  0  0  0  0
    1.2120   21.1630  -33.7890 C   0  0  0  0  0  0  0  0  0  0  0  0
    1.8590   21.5910  -34.9520 C   0  0  0  0  0  0  0  0  0  0  0  0
    1.8710   20.7790  -36.0890 C   0  0  0  0  0  0  0  0  0  0  0  0
    2.5170   21.2080  -37.2420 O   0  0  0  0  0  0  0  0  0  0  0  0
    1.2350   19.5360  -36.0630 C   0  0  0  0  0  0  0  0  0  0  0  0
    0.5890   19.1030  -34.9030 C   0  0  0  0  0  0  0  0  0  0  0  0
   -1.5380   19.8470  -32.5030 N   0  0  0  0  0  0  0  0  0  0  0  0
   -1.7840   21.2010  -33.0030 C   0  0  0  0  0  0  0  0  0  0  0  0
   -3.2380   21.2460  -33.4680 C   0  0  0  0  0  0  0  0  0  0  0  0
   -3.7430   19.8140  -33.3760 C   0  0  0  0  0  0  0  0  0  0  0  0
   -2.4940   18.9750  -33.1890 C   0  0  0  0  0  0  0  0  0  0  0  0
   -0.7580   22.3950  -29.3580 C   0  0  0  0  0  0  0  0  0  0  0  0
   -1.4310   23.5670  -29.7100 C   0  0  0  0  0  0  0  0  0  0  0  0
   -7.3030   23.1990  -30.4430 C   0  0  0  0  0  0  0  0  0  0  0  0
   -8.0100   22.1340  -31.0220 C   0  0  0  0  0  0  0  0  0  0  0  0
   -9.2920   21.6750  -30.3840 C   0  0  0  0  0  0  0  0  0  0  0  0
   -7.9158   18.9409  -31.1770 H   0  0  0  0  0  0  0  0  0  0  0  0
   -8.7301   18.3691  -32.6726 H   0  0  0  0  0  0  0  0  0  0  0  0
   -6.9589   18.6682  -32.6726 H   0  0  0  0  0  0  0  0  0  0  0  0
   -5.8448   21.4196  -33.5822 H   0  0  0  0  0  0  0  0  0  0  0  0
   -4.6501   23.3639  -32.5877 H   0  0  0  0  0  0  0  0  0  0  0  0
   -4.5332   22.2606  -30.3045 H   0  0  0  0  0  0  0  0  0  0  0  0
   -3.3242   20.1627  -29.7022 H   0  0  0  0  0  0  0  0  0  0  0  0
    0.6450   20.9921  -31.1409 H   0  0  0  0  0  0  0  0  0  0  0  0
    1.7444   19.5625  -31.3596 H   0  0  0  0  0  0  0  0  0  0  0  0
   -0.1031   18.3498  -32.3938 H   0  0  0  0  0  0  0  0  0  0  0  0
    1.2108   21.8064  -32.8968 H   0  0  0  0  0  0  0  0  0  0  0  0
    2.3602   22.5700  -34.9720 H   0  0  0  0  0  0  0  0  0  0  0  0
    1.2429   18.8966  -36.9581 H   0  0  0  0  0  0  0  0  0  0  0  0
    0.0968   18.1194  -34.8881 H   0  0  0  0  0  0  0  0  0  0  0  0
   -1.6207   21.9357  -32.2008 H   0  0  0  0  0  0  0  0  0  0  0  0
   -1.0994   21.4459  -33.8284 H   0  0  0  0  0  0  0  0  0  0  0  0
   -3.8296   21.9042  -32.8147 H   0  0  0  0  0  0  0  0  0  0  0  0
   -3.3257   21.6430  -34.4901 H   0  0  0  0  0  0  0  0  0  0  0  0
   -4.4210   19.6964  -32.5178 H   0  0  0  0  0  0  0  0  0  0  0  0
   -4.3137   19.5165  -34.2681 H   0  0  0  0  0  0  0  0  0  0  0  0
   -2.7143   18.0884  -32.5764 H   0  0  0  0  0  0  0  0  0  0  0  0
   -2.0990   18.6104  -34.1487 H   0  0  0  0  0  0  0  0  0  0  0  0
    0.2999   22.4396  -29.0598 H   0  0  0  0  0  0  0  0  0  0  0  0
   -0.8969   24.5286  -29.7007 H   0  0  0  0  0  0  0  0  0  0  0  0
   -7.7008   23.6907  -29.5430 H   0  0  0  0  0  0  0  0  0  0  0  0
   -9.1903   21.7114  -29.2893 H   0  0  0  0  0  0  0  0  0  0  0  0
  -10.1145   22.3345  -30.6980 H   0  0  0  0  0  0  0  0  0  0  0  0
   -9.5090   20.6433  -30.6980 H   0  0  0  0  0  0  0  0  0  0  0  0
  1  2  1  0
  2  3  1  0
  3  4  2  0
  4  5  1  0
  5  6  2  0
  6  7  1  0
  7  8  2  0
  7  9  2  0
  7 10  1  0
 10 11  1  0
 11 12  2  0
 12 13  1  0
 13 14  2  0
 14 15  1  0
 15 16  2  0
 15 17  1  0
 17 18  1  0
 18 19  1  0
 19 20  1  0
 20 21  2  0
 21 22  1  0
 22 23  2  0
 23 24  1  0
 23 25  1  0
 25 26  2  0
 19 27  1  0
 27 28  1  0
 28 29  1  0
 29 30  1  0
 30 31  1  0
 14 32  1  0
 32 33  2  0
  6 34  1  0
 34 35  2  0
 35 36  1  0
 35  3  1  0
 33 11  1  0
 26 20  1  0
 31 27  1  0
  1 37  1  0
  1 38  1  0
  1 39  1  0
  4 40  1  0
  5 41  1  0
 12 42  1  0
 13 43  1  0
 18 44  1  0
 18 45  1  0
 19 46  1  6
 21 47  1  0
 22 48  1  0
 25 49  1  0
 26 50  1  0
 28 51  1  0
 28 52  1  0
 29 53  1  0
 29 54  1  0
 30 55  1  0
 30 56  1  0
 31 57  1  0
 31 58  1  0
 32 59  1  0
 33 60  1  0
 34 61  1  0
 36 62  1  0
 36 63  1  0
 36 64  1  0
M  CHG  3  10  -1  17  -1  24  -1
M  END
>  <UniqueID>  (18) 
18

>  <SMILES>  (18) 
COc1ccc(S(=O)(=O)[N-]c2ccc(C(=O)[N-]C[C@H](c3ccc([O-])cc3)N3CCCC3)cc2)cc1C

>  <Energy>  (18) 
80.84470689737904

>  <Genealogy>  (18) 
COc1ccc(S(=O)(=O)[N-]c2ccc(C(=O)[N-]CC(c3ccc([O-])cc3)N3CCCC3)cc2)cc1C (protonated)
COc1ccc(S(=O)(=O)[N-]c2ccc(C(=O)[N-]C[C@H](c3ccc([O-])cc3)N3CCCC3)cc2)cc1C (chirality)
COc1ccc(S(=O)(=O)[N-]c2ccc(C(=O)[N-]C[C@H](c3ccc([O-])cc3)N3CCCC3)cc2)cc1C (3D coordinates assigned)
COc1ccc(S(=O)(=O)[N-]c2ccc(C(=O)[N-]C[C@H](c3ccc([O-])cc3)N3CCCC3)cc2)cc1C (nonaromatic ring conformer: 80.84470689737904 kcal/mol)

>  <smiles>  (18) 
COc1ccc(S(=O)(=O)Nc2ccc(C(=O)NCC(c3ccc(O)cc3)N3CCCC3)cc2)cc1C

>  <score_type>  (18) 
oracle

>  <origin>  (18) 
adgpu

>  <m_score__min__energy>  (18) 
-12.369999999999999

>  <m_primary>  (18) 
energy

$$$$
18:0
     RDKit          3D

 53 56  0  0  0  0  0  0  0  0999 V2000
   -6.5060   14.8900  -34.0350 C   0  0  0  0  0  0  0  0  0  0  0  0
   -6.0920   16.3190  -33.8460 C   0  0  0  0  0  0  0  0  0  0  0  0
   -5.7600   16.7960  -32.5700 C   0  0  0  0  0  0  0  0  0  0  0  0
   -5.4080   18.1360  -32.3870 C   0  0  0  0  0  0  0  0  0  0  0  0
   -5.3780   19.0180  -33.4760 C   0  0  0  0  0  0  0  0  0  0  0  0
   -5.0270   20.3930  -33.2590 N   0  0  0  0  0  0  0  0  0  0  0  0
   -3.7470   20.8290  -32.7710 C   0  0  0  0  0  0  0  0  0  0  0  0
   -2.8530   19.9920  -32.4720 O   0  0  0  0  0  0  0  0  0  0  0  0
   -3.4940   22.2850  -32.5260 C   0  0  0  0  0  0  0  0  0  0  0  0
   -3.6600   22.5900  -31.1020 N   0  0  0  0  0  0  0  0  0  0  0  0
   -2.8660   21.9080  -30.1180 C   0  0  0  0  0  0  0  0  0  0  0  0
   -1.4490   21.9710  -30.1760 C   0  0  0  0  0  0  0  0  0  0  0  0
   -0.6630   21.3110  -29.2140 C   0  0  0  0  0  0  0  0  0  0  0  0
   -1.3210   20.6020  -28.2150 C   0  0  0  0  0  0  0  0  0  0  0  0
   -2.6740   20.5350  -28.1530 C   0  0  0  0  0  0  0  0  0  0  0  0
   -3.4880   21.1740  -29.0830 C   0  0  0  0  0  0  0  0  0  0  0  0
   -3.0480   19.7670  -27.0660 O   0  0  0  0  0  0  0  0  0  0  0  0
   -1.8540   19.3280  -26.4030 C   0  0  0  0  0  0  0  0  0  0  0  0
   -0.7750   19.8810  -27.1700 O   0  0  0  0  0  0  0  0  0  0  0  0
   -4.9680   23.6190  -30.5890 S   0  0  0  0  0  0  0  0  0  0  0  0
   -4.9420   23.7430  -29.0910 O   0  0  0  0  0  0  0  0  0  0  0  0
   -4.8100   24.9860  -31.1940 O   0  0  0  0  0  0  0  0  0  0  0  0
   -6.5070   22.9550  -31.1260 C   0  0  0  0  0  0  0  0  0  0  0  0
   -7.5340   23.7980  -31.5740 C   0  0  0  0  0  0  0  0  0  0  0  0
   -8.7520   23.2580  -31.9940 C   0  0  0  0  0  0  0  0  0  0  0  0
   -8.9510   21.8740  -31.9710 C   0  0  0  0  0  0  0  0  0  0  0  0
   -7.9350   21.0210  -31.5130 C   0  0  0  0  0  0  0  0  0  0  0  0
   -8.1340   19.5340  -31.5290 C   0  0  0  0  0  0  0  0  0  0  0  0
   -6.7080   21.5670  -31.1050 C   0  0  0  0  0  0  0  0  0  0  0  0
   -5.7510   18.5500  -34.7480 C   0  0  0  0  0  0  0  0  0  0  0  0
   -6.1060   17.2100  -34.9310 C   0  0  0  0  0  0  0  0  0  0  0  0
   -6.6436   14.4151  -33.0524 H   0  0  0  0  0  0  0  0  0  0  0  0
   -7.4517   14.8533  -34.5956 H   0  0  0  0  0  0  0  0  0  0  0  0
   -5.7264   14.3535  -34.5956 H   0  0  0  0  0  0  0  0  0  0  0  0
   -5.7767   16.1120  -31.7087 H   0  0  0  0  0  0  0  0  0  0  0  0
   -5.1527   18.5011  -31.3813 H   0  0  0  0  0  0  0  0  0  0  0  0
   -5.7880   21.1060  -33.3360 H   0  0  0  0  0  0  0  0  0  0  0  0
   -2.4678   22.5334  -32.8345 H   0  0  0  0  0  0  0  0  0  0  0  0
   -4.2130   22.8795  -33.1088 H   0  0  0  0  0  0  0  0  0  0  0  0
   -0.9612   22.5411  -30.9804 H   0  0  0  0  0  0  0  0  0  0  0  0
    0.4355   21.3543  -29.2508 H   0  0  0  0  0  0  0  0  0  0  0  0
   -4.5840   21.1097  -29.0146 H   0  0  0  0  0  0  0  0  0  0  0  0
   -1.8256   19.7042  -25.3697 H   0  0  0  0  0  0  0  0  0  0  0  0
   -1.7962   18.2312  -26.3421 H   0  0  0  0  0  0  0  0  0  0  0  0
   -7.3803   24.8870  -31.5948 H   0  0  0  0  0  0  0  0  0  0  0  0
   -9.5559   23.9226  -32.3434 H   0  0  0  0  0  0  0  0  0  0  0  0
   -9.9076   21.4523  -32.3132 H   0  0  0  0  0  0  0  0  0  0  0  0
   -8.1841   19.1596  -30.4959 H   0  0  0  0  0  0  0  0  0  0  0  0
   -9.0721   19.2952  -32.0514 H   0  0  0  0  0  0  0  0  0  0  0  0
   -7.2917   19.0569  -32.0514 H   0  0  0  0  0  0  0  0  0  0  0  0
   -5.8993   20.9025  -30.7668 H   0  0  0  0  0  0  0  0  0  0  0  0
   -5.7637   19.2413  -35.6035 H   0  0  0  0  0  0  0  0  0  0  0  0
   -6.3976   16.8523  -35.9295 H   0  0  0  0  0  0  0  0  0  0  0  0
  1  2  1  0
  2  3  2  0
  3  4  1  0
  4  5  2  0
  5  6  1  0
  6  7  1  0
  7  8  2  0
  7  9  1  0
  9 10  1  0
 10 11  1  0
 11 12  2  0
 12 13  1  0
 13 14  2  0
 14 15  1  0
 15 16  2  0
 15 17  1  0
 17 18  1  0
 18 19  1  0
 10 20  1  0
 20 21  2  0
 20 22  2  0
 20 23  1  0
 23 24  2  0
 24 25  1  0
 25 26  2  0
 26 27  1  0
 27 28  1  0
 27 29  2  0
  5 30  1  0
 30 31  2  0
 31  2  1  0
 16 11  1  0
 29 23  1  0
 19 14  1  0
  1 32  1  0
  1 33  1  0
  1 34  1  0
  3 35  1  0
  4 36  1  0
  6 37  1  0
  9 38  1  0
  9 39  1  0
 12 40  1  0
 13 41  1  0
 16 42  1  0
 18 43  1  0
 18 44  1  0
 24 45  1  0
 25 46  1  0
 26 47  1  0
 28 48  1  0
 28 49  1  0
 28 50  1  0
 29 51  1  0
 30 52  1  0
 31 53  1  0
M  END
>  <UniqueID>  (19) 
19

>  <SMILES>  (19) 
Cc1ccc(NC(=O)CN(c2ccc3c(c2)OCO3)S(=O)(=O)c2cccc(C)c2)cc1

>  <Energy>  (19) 
89.17762321193699

>  <Genealogy>  (19) 
Cc1ccc(NC(=O)CN(c2ccc3c(c2)OCO3)S(=O)(=O)c2cccc(C)c2)cc1 (3D coordinates assigned)
Cc1ccc(NC(=O)CN(c2ccc3c(c2)OCO3)S(=O)(=O)c2cccc(C)c2)cc1 (nonaromatic ring conformer: 89.17762321193699 kcal/mol)

>  <smiles>  (19) 
Cc1ccc(NC(=O)CN(c2ccc3c(c2)OCO3)S(=O)(=O)c2cccc(C)c2)cc1

>  <score_type>  (19) 
oracle

>  <origin>  (19) 
adgpu

>  <m_score__min__energy>  (19) 
-10.15

>  <m_primary>  (19) 
energy

$$$$
19:0
     RDKit          3D

 61 64  0  0  0  0  0  0  0  0999 V2000
   -5.0960   25.6760  -31.1910 O   0  0  0  0  0  0  0  0  0  0  0  0
   -4.8480   24.5020  -30.2870 S   0  0  0  0  0  0  0  0  0  0  0  0
   -5.2350   24.8750  -28.8840 O   0  0  0  0  0  0  0  0  0  0  0  0
   -3.1610   24.0950  -30.3320 N   0  0  0  0  0  0  0  0  0  0  0  0
   -2.4020   23.7610  -29.1540 C   0  0  0  0  0  0  0  0  0  0  0  0
   -2.4070   22.4540  -28.6310 C   0  0  0  0  0  0  0  0  0  0  0  0
   -1.7130   22.1520  -27.4540 C   0  0  0  0  0  0  0  0  0  0  0  0
   -1.7970   20.5190  -26.8010 S   0  0  0  0  0  0  0  0  0  0  0  0
   -1.6080   20.5430  -25.3090 O   0  0  0  0  0  0  0  0  0  0  0  0
   -3.1560   19.9520  -27.1090 O   0  0  0  0  0  0  0  0  0  0  0  0
   -0.5600   19.5370  -27.5450 N   0  0  0  0  0  0  0  0  0  0  0  0
   -0.7740   18.1210  -27.2070 C   0  0  0  0  0  0  0  0  0  0  0  0
    0.4220   17.2680  -27.6740 C   0  0  0  0  0  0  0  0  0  0  0  0
    1.2130   17.9370  -28.8100 C   0  0  0  0  0  0  0  0  0  0  0  0
    0.2750   18.6890  -29.7580 C   0  0  0  0  0  0  0  0  0  0  0  0
   -0.5730   19.7410  -29.0080 C   0  0  0  0  0  0  0  0  0  0  0  0
   -0.9710   23.1490  -26.8110 C   0  0  0  0  0  0  0  0  0  0  0  0
   -0.9310   24.4410  -27.3380 C   0  0  0  0  0  0  0  0  0  0  0  0
   -1.6450   24.7530  -28.5010 C   0  0  0  0  0  0  0  0  0  0  0  0
   -1.6070   26.0520  -28.9930 O   0  0  0  0  0  0  0  0  0  0  0  0
   -5.8060   23.1100  -30.7890 C   0  0  0  0  0  0  0  0  0  0  0  0
   -7.1370   23.2670  -31.2000 C   0  0  0  0  0  0  0  0  0  0  0  0
   -7.8590   22.1680  -31.6750 C   0  0  0  0  0  0  0  0  0  0  0  0
   -7.2560   20.9050  -31.7430 C   0  0  0  0  0  0  0  0  0  0  0  0
   -8.1710   19.5310  -32.3630 S   0  0  0  0  0  0  0  0  0  0  0  0
   -8.6110   18.6830  -31.2020 O   0  0  0  0  0  0  0  0  0  0  0  0
   -9.3940   20.0180  -33.0930 O   0  0  0  0  0  0  0  0  0  0  0  0
   -7.1740   18.5820  -33.4400 N   0  0  0  0  0  0  0  0  0  0  0  0
   -6.4470   17.5490  -32.6760 C   0  0  0  0  0  0  0  0  0  0  0  0
   -5.1980   17.0860  -33.4430 C   0  0  0  0  0  0  0  0  0  0  0  0
   -4.2580   18.1230  -33.7000 O   0  0  0  0  0  0  0  0  0  0  0  0
   -4.8290   19.4230  -33.7110 C   0  0  0  0  0  0  0  0  0  0  0  0
   -6.2760   19.4500  -34.2360 C   0  0  0  0  0  0  0  0  0  0  0  0
   -5.9330   20.7440  -31.3100 C   0  0  0  0  0  0  0  0  0  0  0  0
   -5.2110   21.8430  -30.8360 C   0  0  0  0  0  0  0  0  0  0  0  0
   -2.6680   24.2310  -31.2410 H   0  0  0  0  0  0  0  0  0  0  0  0
   -2.9626   21.6613  -29.1534 H   0  0  0  0  0  0  0  0  0  0  0  0
   -0.8858   18.0218  -26.1172 H   0  0  0  0  0  0  0  0  0  0  0  0
   -1.6833   17.7674  -27.7151 H   0  0  0  0  0  0  0  0  0  0  0  0
    1.0969   17.1089  -26.8201 H   0  0  0  0  0  0  0  0  0  0  0  0
    0.0250   16.3166  -28.0577 H   0  0  0  0  0  0  0  0  0  0  0  0
    1.9336   18.6469  -28.3779 H   0  0  0  0  0  0  0  0  0  0  0  0
    1.7382   17.1566  -29.3802 H   0  0  0  0  0  0  0  0  0  0  0  0
    0.8768   19.1977  -30.5256 H   0  0  0  0  0  0  0  0  0  0  0  0
   -0.4096   17.9585  -30.2137 H   0  0  0  0  0  0  0  0  0  0  0  0
   -0.1712   20.7409  -29.2287 H   0  0  0  0  0  0  0  0  0  0  0  0
   -1.6131   19.6393  -29.3512 H   0  0  0  0  0  0  0  0  0  0  0  0
   -0.4186   22.9144  -25.8892 H   0  0  0  0  0  0  0  0  0  0  0  0
   -0.3353   25.2181  -26.8368 H   0  0  0  0  0  0  0  0  0  0  0  0
   -7.6143   24.2567  -31.1487 H   0  0  0  0  0  0  0  0  0  0  0  0
   -8.9033   22.2952  -31.9962 H   0  0  0  0  0  0  0  0  0  0  0  0
   -6.1409   17.9661  -31.7052 H   0  0  0  0  0  0  0  0  0  0  0  0
   -7.1116   16.6852  -32.5271 H   0  0  0  0  0  0  0  0  0  0  0  0
   -4.6982   16.3053  -32.8507 H   0  0  0  0  0  0  0  0  0  0  0  0
   -5.5432   16.7203  -34.4213 H   0  0  0  0  0  0  0  0  0  0  0  0
   -4.8234   19.8151  -32.6833 H   0  0  0  0  0  0  0  0  0  0  0  0
   -4.2241   20.0380  -34.3935 H   0  0  0  0  0  0  0  0  0  0  0  0
   -6.6503   20.4834  -34.1912 H   0  0  0  0  0  0  0  0  0  0  0  0
   -6.2685   19.0725  -35.2692 H   0  0  0  0  0  0  0  0  0  0  0  0
   -5.4617   19.7506  -31.3432 H   0  0  0  0  0  0  0  0  0  0  0  0
   -4.1721   21.7123  -30.4988 H   0  0  0  0  0  0  0  0  0  0  0  0
  1  2  2  0
  2  3  2  0
  2  4  1  0
  4  5  1  0
  5  6  2  0
  6  7  1  0
  7  8  1  0
  8  9  2  0
  8 10  2  0
  8 11  1  0
 11 12  1  0
 12 13  1  0
 13 14  1  0
 14 15  1  0
 15 16  1  0
  7 17  2  0
 17 18  1  0
 18 19  2  0
 19 20  1  0
  2 21  1  0
 21 22  2  0
 22 23  1  0
 23 24  2  0
 24 25  1  0
 25 26  2  0
 25 27  2  0
 25 28  1  0
 28 29  1  0
 29 30  1  0
 30 31  1  0
 31 32  1  0
 32 33  1  0
 24 34  1  0
 34 35  2  0
 19  5  1  0
 35 21  1  0
 16 11  1  0
 33 28  1  0
  4 36  1  0
  6 37  1  0
 12 38  1  0
 12 39  1  0
 13 40  1  0
 13 41  1  0
 14 42  1  0
 14 43  1  0
 15 44  1  0
 15 45  1  0
 16 46  1  0
 16 47  1  0
 17 48  1  0
 18 49  1  0
 22 50  1  0
 23 51  1  0
 29 52  1  0
 29 53  1  0
 30 54  1  0
 30 55  1  0
 32 56  1  0
 32 57  1  0
 33 58  1  0
 33 59  1  0
 34 60  1  0
 35 61  1  0
M  CHG  1  20  -1
M  END
>  <UniqueID>  (20) 
20

>  <SMILES>  (20) 
O=S(=O)(Nc1cc(S(=O)(=O)N2CCCCC2)ccc1[O-])c1ccc(S(=O)(=O)N2CCOCC2)cc1

>  <Energy>  (20) 
80.07948458391277

>  <Genealogy>  (20) 
O=S(=O)(Nc1cc(S(=O)(=O)N2CCCCC2)ccc1[O-])c1ccc(S(=O)(=O)N2CCOCC2)cc1 (protonated)
O=S(=O)(Nc1cc(S(=O)(=O)N2CCCCC2)ccc1[O-])c1ccc(S(=O)(=O)N2CCOCC2)cc1 (3D coordinates assigned)
O=S(=O)(Nc1cc(S(=O)(=O)N2CCCCC2)ccc1[O-])c1ccc(S(=O)(=O)N2CCOCC2)cc1 (nonaromatic ring conformer: 80.07948458391277 kcal/mol)

>  <smiles>  (20) 
O=S(=O)(Nc1cc(S(=O)(=O)N2CCCCC2)ccc1O)c1ccc(S(=O)(=O)N2CCOCC2)cc1

>  <score_type>  (20) 
oracle

>  <origin>  (20) 
adgpu

>  <m_score__min__energy>  (20) 
-15.199999999999999

>  <m_primary>  (20) 
energy

$$$$
20:0
     RDKit          3D

 41 43  0  0  0  0  0  0  0  0999 V2000
   -1.2410   25.8110  -29.2750 N   0  0  0  0  0  0  0  0  0  0  0  0
   -0.5540   24.7240  -28.1180 S   0  0  0  0  0  0  0  0  0  0  0  0
   -0.4270   25.4470  -26.8070 O   0  0  0  0  0  0  0  0  0  0  0  0
    0.8070   24.3010  -28.5940 O   0  0  0  0  0  0  0  0  0  0  0  0
   -1.5780   23.2960  -27.9060 C   0  0  0  0  0  0  0  0  0  0  0  0
   -1.0050   22.1080  -27.4210 C   0  0  0  0  0  0  0  0  0  0  0  0
   -1.7750   20.9540  -27.2790 C   0  0  0  0  0  0  0  0  0  0  0  0
   -3.1270   20.9700  -27.6150 C   0  0  0  0  0  0  0  0  0  0  0  0
   -3.7150   22.1420  -28.0930 C   0  0  0  0  0  0  0  0  0  0  0  0
   -2.9540   23.3150  -28.2490 C   0  0  0  0  0  0  0  0  0  0  0  0
   -3.5770   24.5150  -28.7400 N   0  0  0  0  0  0  0  0  0  0  0  0
   -4.7430   24.4980  -30.0240 S   0  0  0  0  0  0  0  0  0  0  0  0
   -6.1250   24.5550  -29.4360 O   0  0  0  0  0  0  0  0  0  0  0  0
   -4.5340   25.6990  -30.9030 O   0  0  0  0  0  0  0  0  0  0  0  0
   -4.5340   23.0450  -30.9960 C   0  0  0  0  0  0  0  0  0  0  0  0
   -5.6330   22.2450  -31.3340 C   0  0  0  0  0  0  0  0  0  0  0  0
   -5.4500   21.0790  -32.0800 C   0  0  0  0  0  0  0  0  0  0  0  0
   -4.1640   20.6920  -32.5000 C   0  0  0  0  0  0  0  0  0  0  0  0
   -3.9680   19.4480  -33.2860 C   0  0  0  0  0  0  0  0  0  0  0  0
   -2.6770   18.9210  -33.4800 C   0  0  0  0  0  0  0  0  0  0  0  0
   -2.4940   17.7500  -34.2210 C   0  0  0  0  0  0  0  0  0  0  0  0
   -3.5940   17.0910  -34.7760 C   0  0  0  0  0  0  0  0  0  0  0  0
   -3.3610   15.6220  -35.7060 Cl  0  0  0  0  0  0  0  0  0  0  0  0
   -4.8800   17.6050  -34.5900 C   0  0  0  0  0  0  0  0  0  0  0  0
   -5.0680   18.7750  -33.8490 C   0  0  0  0  0  0  0  0  0  0  0  0
   -3.0660   21.5040  -32.1590 C   0  0  0  0  0  0  0  0  0  0  0  0
   -3.2520   22.6710  -31.4140 C   0  0  0  0  0  0  0  0  0  0  0  0
   -2.2010   26.0520  -28.9390 H   0  0  0  0  0  0  0  0  0  0  0  0
    0.0611   22.0882  -27.1508 H   0  0  0  0  0  0  0  0  0  0  0  0
   -1.3141   20.0295  -26.9010 H   0  0  0  0  0  0  0  0  0  0  0  0
   -3.7317   20.0579  -27.5034 H   0  0  0  0  0  0  0  0  0  0  0  0
   -4.7844   22.1487  -28.3504 H   0  0  0  0  0  0  0  0  0  0  0  0
   -3.2570   25.4490  -28.4040 H   0  0  0  0  0  0  0  0  0  0  0  0
   -6.6433   22.5362  -31.0107 H   0  0  0  0  0  0  0  0  0  0  0  0
   -6.3189   20.4574  -32.3417 H   0  0  0  0  0  0  0  0  0  0  0  0
   -1.8065   19.4342  -33.0455 H   0  0  0  0  0  0  0  0  0  0  0  0
   -1.4813   17.3462  -34.3676 H   0  0  0  0  0  0  0  0  0  0  0  0
   -5.7464   17.0876  -35.0278 H   0  0  0  0  0  0  0  0  0  0  0  0
   -6.0834   19.1727  -33.7049 H   0  0  0  0  0  0  0  0  0  0  0  0
   -2.0541   21.2176  -32.4815 H   0  0  0  0  0  0  0  0  0  0  0  0
   -2.3867   23.2988  -31.1548 H   0  0  0  0  0  0  0  0  0  0  0  0
  1  2  1  0
  2  3  2  0
  2  4  2  0
  2  5  1  0
  5  6  2  0
  6  7  1  0
  7  8  2  0
  8  9  1  0
  9 10  2  0
 10 11  1  0
 11 12  1  0
 12 13  2  0
 12 14  2  0
 12 15  1  0
 15 16  2  0
 16 17  1  0
 17 18  2  0
 18 19  1  0
 19 20  2  0
 20 21  1  0
 21 22  2  0
 22 23  1  0
 22 24  1  0
 24 25  2  0
 18 26  1  0
 26 27  2  0
 10  5  1  0
 27 15  1  0
 25 19  1  0
  1 28  1  0
  6 29  1  0
  7 30  1  0
  8 31  1  0
  9 32  1  0
 11 33  1  0
 16 34  1  0
 17 35  1  0
 20 36  1  0
 21 37  1  0
 24 38  1  0
 25 39  1  0
 26 40  1  0
 27 41  1  0
M  CHG  1   1  -1
M  END
>  <UniqueID>  (21) 
21

>  <SMILES>  (21) 
[NH-]S(=O)(=O)c1ccccc1NS(=O)(=O)c1ccc(-c2ccc(Cl)cc2)cc1

>  <Energy>  (21) 
53.73990860255814

>  <Genealogy>  (21) 
[NH-]S(=O)(=O)c1ccccc1NS(=O)(=O)c1ccc(-c2ccc(Cl)cc2)cc1 (protonated)
[NH-]S(=O)(=O)c1ccccc1NS(=O)(=O)c1ccc(-c2ccc(Cl)cc2)cc1 (3D coordinates assigned)
[NH-]S(=O)(=O)c1ccccc1NS(=O)(=O)c1ccc(-c2ccc(Cl)cc2)cc1 (optimized conformer: 53.73990860255814 kcal/mol)

>  <smiles>  (21) 
NS(=O)(=O)c1ccccc1NS(=O)(=O)c1ccc(-c2ccc(Cl)cc2)cc1

>  <score_type>  (21) 
oracle

>  <origin>  (21) 
adgpu

>  <m_score__min__energy>  (21) 
-12.859999999999999

>  <m_primary>  (21) 
energy

$$$$
21:0
     RDKit          3D

 28 29  0  0  0  0  0  0  0  0999 V2000
   -9.4690   21.0030  -31.9980 C   0  0  0  0  0  0  0  0  0  0  0  0
   -8.1460   21.6970  -31.8620 C   0  0  0  0  0  0  0  0  0  0  0  0
   -8.0930   23.0770  -31.6220 C   0  0  0  0  0  0  0  0  0  0  0  0
   -6.8600   23.7310  -31.5320 C   0  0  0  0  0  0  0  0  0  0  0  0
   -5.6660   23.0150  -31.6780 C   0  0  0  0  0  0  0  0  0  0  0  0
   -4.4200   23.7200  -31.5940 N   0  0  0  0  0  0  0  0  0  0  0  0
   -3.9670   24.5120  -30.4870 C   0  0  0  0  0  0  0  0  0  0  0  0
   -4.2490   25.7390  -30.4700 O   0  0  0  0  0  0  0  0  0  0  0  0
   -3.2440   23.9130  -29.3380 C   0  0  0  0  0  0  0  0  0  0  0  0
   -3.7090   22.7170  -28.7600 C   0  0  0  0  0  0  0  0  0  0  0  0
   -3.0390   22.1470  -27.6740 C   0  0  0  0  0  0  0  0  0  0  0  0
   -1.9060   22.7670  -27.1470 C   0  0  0  0  0  0  0  0  0  0  0  0
   -1.4400   23.9600  -27.7040 C   0  0  0  0  0  0  0  0  0  0  0  0
   -2.1010   24.5360  -28.7940 C   0  0  0  0  0  0  0  0  0  0  0  0
   -1.6050   25.7170  -29.3370 O   0  0  0  0  0  0  0  0  0  0  0  0
   -5.7190   21.6380  -31.9610 C   0  0  0  0  0  0  0  0  0  0  0  0
   -6.9510   20.9850  -32.0510 C   0  0  0  0  0  0  0  0  0  0  0  0
   -9.8756   20.7897  -30.9984 H   0  0  0  0  0  0  0  0  0  0  0  0
  -10.1680   21.6506  -32.5477 H   0  0  0  0  0  0  0  0  0  0  0  0
   -9.3335   20.0599  -32.5477 H   0  0  0  0  0  0  0  0  0  0  0  0
   -9.0256   23.6483  -31.5039 H   0  0  0  0  0  0  0  0  0  0  0  0
   -6.8283   24.8146  -31.3454 H   0  0  0  0  0  0  0  0  0  0  0  0
   -4.6064   22.2272  -29.1660 H   0  0  0  0  0  0  0  0  0  0  0  0
   -3.4057   21.2079  -27.2341 H   0  0  0  0  0  0  0  0  0  0  0  0
   -1.3796   22.3163  -26.2927 H   0  0  0  0  0  0  0  0  0  0  0  0
   -0.5489   24.4490  -27.2835 H   0  0  0  0  0  0  0  0  0  0  0  0
   -4.7872   21.0733  -32.1120 H   0  0  0  0  0  0  0  0  0  0  0  0
   -6.9847   19.9078  -32.2710 H   0  0  0  0  0  0  0  0  0  0  0  0
  1  2  1  0
  2  3  2  0
  3  4  1  0
  4  5  2  0
  5  6  1  0
  6  7  1  0
  7  8  2  0
  7  9  1  0
  9 10  2  0
 10 11  1  0
 11 12  2  0
 12 13  1  0
 13 14  2  0
 14 15  1  0
  5 16  1  0
 16 17  2  0
 17  2  1  0
 14  9  1  0
  1 18  1  0
  1 19  1  0
  1 20  1  0
  3 21  1  0
  4 22  1  0
 10 23  1  0
 11 24  1  0
 12 25  1  0
 13 26  1  0
 16 27  1  0
 17 28  1  0
M  CHG  2   6  -1  15  -1
M  END
>  <UniqueID>  (22) 
22

>  <SMILES>  (22) 
Cc1ccc([N-]C(=O)c2ccccc2[O-])cc1

>  <Energy>  (22) 
35.93556094168337

>  <Genealogy>  (22) 
Cc1ccc([N-]C(=O)c2ccccc2[O-])cc1 (protonated)
Cc1ccc([N-]C(=O)c2ccccc2[O-])cc1 (3D coordinates assigned)
Cc1ccc([N-]C(=O)c2ccccc2[O-])cc1 (optimized conformer: 35.93556094168337 kcal/mol)

>  <smiles>  (22) 
Cc1ccc(NC(=O)c2ccccc2O)cc1

>  <score_type>  (22) 
oracle

>  <origin>  (22) 
adgpu

>  <m_score__min__energy>  (22) 
-11.17

>  <m_primary>  (22) 
energy

$$$$
22:0
     RDKit          3D

 53 55  0  0  0  0  0  0  0  0999 V2000
    3.5940   23.0550  -35.4550 C   0  0  0  0  0  0  0  0  0  0  0  0
    2.9790   21.8520  -34.8810 N   0  0  0  0  0  0  0  0  0  0  0  0
    3.7680   20.6660  -35.2370 C   0  0  0  0  0  0  0  0  0  0  0  0
    1.3580   21.6740  -35.5030 S   0  0  0  0  0  0  0  0  0  0  0  0
    0.7100   23.0210  -35.6630 O   0  0  0  0  0  0  0  0  0  0  0  0
    1.4000   21.0020  -36.8480 O   0  0  0  0  0  0  0  0  0  0  0  0
    0.4000   20.6790  -34.4070 C   0  0  0  0  0  0  0  0  0  0  0  0
    0.8490   19.4010  -34.0530 C   0  0  0  0  0  0  0  0  0  0  0  0
    0.1120   18.6210  -33.1580 C   0  0  0  0  0  0  0  0  0  0  0  0
   -1.0770   19.1130  -32.6150 C   0  0  0  0  0  0  0  0  0  0  0  0
   -1.5500   20.3840  -32.9720 C   0  0  0  0  0  0  0  0  0  0  0  0
   -2.7630   20.8780  -32.3790 N   0  0  0  0  0  0  0  0  0  0  0  0
   -4.0540   20.7990  -33.0060 C   0  0  0  0  0  0  0  0  0  0  0  0
   -4.2140   20.0870  -34.0350 O   0  0  0  0  0  0  0  0  0  0  0  0
   -5.1930   21.5530  -32.4400 C   0  0  0  0  0  0  0  0  0  0  0  0
   -4.9250   22.6300  -31.6530 N   0  0  0  0  0  0  0  0  0  0  0  0
   -5.9160   23.4100  -31.1510 C   0  0  0  0  0  0  0  0  0  0  0  0
   -5.5140   24.7770  -30.1320 S   0  0  0  0  0  0  0  0  0  0  0  0
   -4.8100   24.1930  -28.6060 C   0  0  0  0  0  0  0  0  0  0  0  0
   -6.7570   25.5670  -29.8340 O   0  0  0  0  0  0  0  0  0  0  0  0
   -4.5290   25.6610  -30.8450 O   0  0  0  0  0  0  0  0  0  0  0  0
   -7.2120   23.1310  -31.4380 N   0  0  0  0  0  0  0  0  0  0  0  0
   -7.5400   22.0680  -32.2130 C   0  0  0  0  0  0  0  0  0  0  0  0
   -6.5420   21.2270  -32.7160 C   0  0  0  0  0  0  0  0  0  0  0  0
   -6.9190   20.0670  -33.4720 N   0  0  0  0  0  0  0  0  0  0  0  0
   -6.4750   18.7310  -33.1640 C   0  0  0  0  0  0  0  0  0  0  0  0
   -6.0980   17.8740  -34.2090 C   0  0  0  0  0  0  0  0  0  0  0  0
   -5.6580   16.5750  -33.9360 C   0  0  0  0  0  0  0  0  0  0  0  0
   -5.6000   16.1180  -32.6170 C   0  0  0  0  0  0  0  0  0  0  0  0
   -5.9860   16.9570  -31.5690 C   0  0  0  0  0  0  0  0  0  0  0  0
   -6.4260   18.2570  -31.8380 C   0  0  0  0  0  0  0  0  0  0  0  0
   -0.7910   21.1740  -33.8560 C   0  0  0  0  0  0  0  0  0  0  0  0
    3.9322   23.7166  -34.6439 H   0  0  0  0  0  0  0  0  0  0  0  0
    4.4550   22.7661  -36.0756 H   0  0  0  0  0  0  0  0  0  0  0  0
    2.8556   23.5838  -36.0756 H   0  0  0  0  0  0  0  0  0  0  0  0
    4.1043   20.1605  -34.3198 H   0  0  0  0  0  0  0  0  0  0  0  0
    3.1476   19.9770  -35.8290 H   0  0  0  0  0  0  0  0  0  0  0  0
    4.6432   20.9720  -35.8290 H   0  0  0  0  0  0  0  0  0  0  0  0
    1.7841   19.0100  -34.4804 H   0  0  0  0  0  0  0  0  0  0  0  0
    0.4688   17.6181  -32.8807 H   0  0  0  0  0  0  0  0  0  0  0  0
   -1.6467   18.4990  -31.9020 H   0  0  0  0  0  0  0  0  0  0  0  0
   -2.7190   21.2170  -31.3910 H   0  0  0  0  0  0  0  0  0  0  0  0
   -5.3495   24.6406  -27.7583 H   0  0  0  0  0  0  0  0  0  0  0  0
   -4.8960   23.0974  -28.5581 H   0  0  0  0  0  0  0  0  0  0  0  0
   -3.7492   24.4799  -28.5581 H   0  0  0  0  0  0  0  0  0  0  0  0
   -8.5956   21.8661  -32.4472 H   0  0  0  0  0  0  0  0  0  0  0  0
   -7.6570   20.1870  -34.2020 H   0  0  0  0  0  0  0  0  0  0  0  0
   -6.1489   18.2262  -35.2498 H   0  0  0  0  0  0  0  0  0  0  0  0
   -5.3572   15.9122  -34.7607 H   0  0  0  0  0  0  0  0  0  0  0  0
   -5.2502   15.0971  -32.4037 H   0  0  0  0  0  0  0  0  0  0  0  0
   -5.9439   16.5949  -30.5312 H   0  0  0  0  0  0  0  0  0  0  0  0
   -6.7353   18.9125  -31.0105 H   0  0  0  0  0  0  0  0  0  0  0  0
   -1.1342   22.1861  -34.1163 H   0  0  0  0  0  0  0  0  0  0  0  0
  1  2  1  0
  2  3  1  0
  2  4  1  0
  4  5  2  0
  4  6  2  0
  4  7  1  0
  7  8  2  0
  8  9  1  0
  9 10  2  0
 10 11  1  0
 11 12  1  0
 12 13  1  0
 13 14  2  0
 13 15  1  0
 15 16  2  0
 16 17  1  0
 17 18  1  0
 18 19  1  0
 18 20  2  0
 18 21  2  0
 17 22  2  0
 22 23  1  0
 23 24  2  0
 24 25  1  0
 25 26  1  0
 26 27  2  0
 27 28  1  0
 28 29  2  0
 29 30  1  0
 30 31  2  0
 11 32  2  0
 32  7  1  0
 24 15  1  0
 31 26  1  0
  1 33  1  0
  1 34  1  0
  1 35  1  0
  3 36  1  0
  3 37  1  0
  3 38  1  0
  8 39  1  0
  9 40  1  0
 10 41  1  0
 12 42  1  0
 19 43  1  0
 19 44  1  0
 19 45  1  0
 23 46  1  0
 25 47  1  0
 27 48  1  0
 28 49  1  0
 29 50  1  0
 30 51  1  0
 31 52  1  0
 32 53  1  0
M  END
>  <UniqueID>  (23) 
23

>  <SMILES>  (23) 
CN(C)S(=O)(=O)c1cccc(NC(=O)c2nc(S(C)(=O)=O)ncc2Nc2ccccc2)c1

>  <Energy>  (23) 
63.10458451937717

>  <Genealogy>  (23) 
CN(C)S(=O)(=O)c1cccc(NC(=O)c2nc(S(C)(=O)=O)ncc2Nc2ccccc2)c1 (3D coordinates assigned)
CN(C)S(=O)(=O)c1cccc(NC(=O)c2nc(S(C)(=O)=O)ncc2Nc2ccccc2)c1 (optimized conformer: 63.10458451937717 kcal/mol)

>  <smiles>  (23) 
CN(C)S(=O)(=O)c1cccc(NC(=O)c2nc(S(C)(=O)=O)ncc2Nc2ccccc2)c1

>  <score_type>  (23) 
oracle

>  <origin>  (23) 
adgpu

>  <m_score__min__energy>  (23) 
-9.8699999999999992

>  <m_primary>  (23) 
energy

$$$$
23:0
     RDKit          3D

 45 47  0  0  0  0  0  0  0  0999 V2000
   -2.4080   19.6390  -26.8770 C   0  0  0  0  0  0  0  0  0  0  0  0
   -2.0150   20.5510  -28.0020 C   0  0  0  0  0  0  0  0  0  0  0  0
   -1.1150   20.1030  -28.9810 C   0  0  0  0  0  0  0  0  0  0  0  0
   -0.7640   20.9350  -30.0490 C   0  0  0  0  0  0  0  0  0  0  0  0
   -1.3140   22.2160  -30.1500 C   0  0  0  0  0  0  0  0  0  0  0  0
   -2.2200   22.6710  -29.1820 C   0  0  0  0  0  0  0  0  0  0  0  0
   -2.9450   24.2700  -29.3120 S   0  0  0  0  0  0  0  0  0  0  0  0
   -3.8450   24.5520  -28.1400 O   0  0  0  0  0  0  0  0  0  0  0  0
   -1.8510   25.2990  -29.3320 O   0  0  0  0  0  0  0  0  0  0  0  0
   -3.8630   24.3890  -30.7810 N   0  0  0  0  0  0  0  0  0  0  0  0
   -4.9360   23.5170  -31.1600 C   0  0  0  0  0  0  0  0  0  0  0  0
   -4.9400   22.1500  -30.8360 C   0  0  0  0  0  0  0  0  0  0  0  0
   -6.0110   21.3360  -31.2190 C   0  0  0  0  0  0  0  0  0  0  0  0
   -7.1060   21.8740  -31.9210 C   0  0  0  0  0  0  0  0  0  0  0  0
   -8.2380   20.9880  -32.3070 C   0  0  0  0  0  0  0  0  0  0  0  0
   -9.4070   21.3110  -31.9570 O   0  0  0  0  0  0  0  0  0  0  0  0
   -8.0290   19.7580  -33.0500 N   0  0  0  0  0  0  0  0  0  0  0  0
   -6.6750   19.7640  -33.6510 C   0  0  0  0  0  0  0  0  0  0  0  0
   -6.1980   18.3300  -33.9490 C   0  0  0  0  0  0  0  0  0  0  0  0
   -6.1380   17.4820  -32.8070 O   0  0  0  0  0  0  0  0  0  0  0  0
   -6.9590   17.9110  -31.7310 C   0  0  0  0  0  0  0  0  0  0  0  0
   -8.2730   18.5620  -32.1990 C   0  0  0  0  0  0  0  0  0  0  0  0
   -7.0880   23.2430  -32.2530 C   0  0  0  0  0  0  0  0  0  0  0  0
   -6.0120   24.0510  -31.8730 C   0  0  0  0  0  0  0  0  0  0  0  0
   -2.5690   21.8370  -28.1110 C   0  0  0  0  0  0  0  0  0  0  0  0
   -2.1963   20.1302  -25.9158 H   0  0  0  0  0  0  0  0  0  0  0  0
   -3.4827   19.4146  -26.9453 H   0  0  0  0  0  0  0  0  0  0  0  0
   -1.8331   18.7037  -26.9453 H   0  0  0  0  0  0  0  0  0  0  0  0
   -0.6839   19.0936  -28.9082 H   0  0  0  0  0  0  0  0  0  0  0  0
   -0.0539   20.5807  -30.8107 H   0  0  0  0  0  0  0  0  0  0  0  0
   -1.0353   22.8683  -30.9907 H   0  0  0  0  0  0  0  0  0  0  0  0
   -4.0963   21.7175  -30.2781 H   0  0  0  0  0  0  0  0  0  0  0  0
   -5.9974   20.2648  -30.9691 H   0  0  0  0  0  0  0  0  0  0  0  0
   -8.7290   19.7080  -33.8260 H   0  0  0  0  0  0  0  0  0  0  0  0
   -6.7004   20.3372  -34.5895 H   0  0  0  0  0  0  0  0  0  0  0  0
   -5.9764   20.2249  -32.9372 H   0  0  0  0  0  0  0  0  0  0  0  0
   -6.8911   17.8806  -34.6754 H   0  0  0  0  0  0  0  0  0  0  0  0
   -5.1705   18.4138  -34.3327 H   0  0  0  0  0  0  0  0  0  0  0  0
   -7.2029   17.0387  -31.1069 H   0  0  0  0  0  0  0  0  0  0  0  0
   -6.3960   18.6723  -31.1710 H   0  0  0  0  0  0  0  0  0  0  0  0
   -8.8481   17.8248  -32.7785 H   0  0  0  0  0  0  0  0  0  0  0  0
   -8.8285   18.8868  -31.3068 H   0  0  0  0  0  0  0  0  0  0  0  0
   -7.9266   23.6795  -32.8153 H   0  0  0  0  0  0  0  0  0  0  0  0
   -6.0128   25.1185  -32.1383 H   0  0  0  0  0  0  0  0  0  0  0  0
   -3.2810   22.1918  -27.3513 H   0  0  0  0  0  0  0  0  0  0  0  0
  1  2  1  0
  2  3  2  0
  3  4  1  0
  4  5  2  0
  5  6  1  0
  6  7  1  0
  7  8  2  0
  7  9  2  0
  7 10  1  0
 10 11  1  0
 11 12  2  0
 12 13  1  0
 13 14  2  0
 14 15  1  0
 15 16  2  0
 15 17  1  0
 17 18  1  0
 18 19  1  0
 19 20  1  0
 20 21  1  0
 21 22  1  0
 14 23  1  0
 23 24  2  0
  6 25  2  0
 25  2  1  0
 24 11  1  0
 22 17  1  0
  1 26  1  0
  1 27  1  0
  1 28  1  0
  3 29  1  0
  4 30  1  0
  5 31  1  0
 12 32  1  0
 13 33  1  0
 17 34  1  0
 18 35  1  0
 18 36  1  0
 19 37  1  0
 19 38  1  0
 21 39  1  0
 21 40  1  0
 22 41  1  0
 22 42  1  0
 23 43  1  0
 24 44  1  0
 25 45  1  0
M  CHG  2  10  -1  17   1
M  END
>  <UniqueID>  (24) 
24

>  <SMILES>  (24) 
Cc1cccc(S(=O)(=O)[N-]c2ccc(C(=O)[NH+]3CCOCC3)cc2)c1

>  <Energy>  (24) 
67.66181496484916

>  <Genealogy>  (24) 
Cc1cccc(S(=O)(=O)[N-]c2ccc(C(=O)[NH+]3CCOCC3)cc2)c1 (protonated)
Cc1cccc(S(=O)(=O)[N-]c2ccc(C(=O)[NH+]3CCOCC3)cc2)c1 (3D coordinates assigned)
Cc1cccc(S(=O)(=O)[N-]c2ccc(C(=O)[NH+]3CCOCC3)cc2)c1 (nonaromatic ring conformer: 67.66181496484916 kcal/mol)

>  <smiles>  (24) 
Cc1cccc(S(=O)(=O)Nc2ccc(C(=O)N3CCOCC3)cc2)c1

>  <score_type>  (24) 
oracle

>  <origin>  (24) 
adgpu

>  <m_score__min__energy>  (24) 
-10.16

>  <m_primary>  (24) 
energy

$$$$
24:0
     RDKit          3D

 45 47  0  0  0  0  0  0  0  0999 V2000
   -1.2530   26.3960  -26.6600 C   0  0  0  0  0  0  0  0  0  0  0  0
   -0.9800   25.7040  -27.9610 C   0  0  0  0  0  0  0  0  0  0  0  0
    0.1820   25.2780  -28.1910 O   0  0  0  0  0  0  0  0  0  0  0  0
   -1.9880   25.5480  -28.9680 N   0  0  0  0  0  0  0  0  0  0  0  0
   -2.4120   24.3180  -29.5730 C   0  0  0  0  0  0  0  0  0  0  0  0
   -1.5360   23.2290  -29.7240 C   0  0  0  0  0  0  0  0  0  0  0  0
   -1.9720   22.0550  -30.3440 C   0  0  0  0  0  0  0  0  0  0  0  0
   -3.2890   21.9540  -30.8270 C   0  0  0  0  0  0  0  0  0  0  0  0
   -3.7690   20.7760  -31.4900 N   0  0  0  0  0  0  0  0  0  0  0  0
   -4.2010   20.6800  -32.8560 C   0  0  0  0  0  0  0  0  0  0  0  0
   -4.2400   21.7160  -33.5730 O   0  0  0  0  0  0  0  0  0  0  0  0
   -4.5410   19.3510  -33.4340 C   0  0  0  0  0  0  0  0  0  0  0  0
   -3.5380   18.3660  -33.5340 C   0  0  0  0  0  0  0  0  0  0  0  0
   -3.8170   17.1130  -34.0790 C   0  0  0  0  0  0  0  0  0  0  0  0
   -5.1010   16.8190  -34.5320 C   0  0  0  0  0  0  0  0  0  0  0  0
   -6.1120   17.7760  -34.4390 C   0  0  0  0  0  0  0  0  0  0  0  0
   -5.8490   19.0480  -33.8930 C   0  0  0  0  0  0  0  0  0  0  0  0
   -6.8610   20.0200  -33.7820 O   0  0  0  0  0  0  0  0  0  0  0  0
   -7.7930   20.1360  -32.7060 C   0  0  0  0  0  0  0  0  0  0  0  0
   -7.5900   21.4270  -31.9590 C   0  0  0  0  0  0  0  0  0  0  0  0
   -7.1310   22.5680  -32.6370 C   0  0  0  0  0  0  0  0  0  0  0  0
   -6.9330   23.7670  -31.9460 C   0  0  0  0  0  0  0  0  0  0  0  0
   -7.1810   23.8320  -30.5720 C   0  0  0  0  0  0  0  0  0  0  0  0
   -7.6250   22.6980  -29.8870 C   0  0  0  0  0  0  0  0  0  0  0  0
   -7.8260   21.4970  -30.5750 C   0  0  0  0  0  0  0  0  0  0  0  0
   -4.1400   23.0600  -30.7220 C   0  0  0  0  0  0  0  0  0  0  0  0
   -3.7040   24.2340  -30.1020 C   0  0  0  0  0  0  0  0  0  0  0  0
   -0.9894   25.7278  -25.8269 H   0  0  0  0  0  0  0  0  0  0  0  0
   -0.6495   27.3137  -26.5991 H   0  0  0  0  0  0  0  0  0  0  0  0
   -2.3205   26.6544  -26.5991 H   0  0  0  0  0  0  0  0  0  0  0  0
   -0.5031   23.3013  -29.3526 H   0  0  0  0  0  0  0  0  0  0  0  0
   -1.2818   21.2057  -30.4548 H   0  0  0  0  0  0  0  0  0  0  0  0
   -2.5215   18.5885  -33.1774 H   0  0  0  0  0  0  0  0  0  0  0  0
   -3.0222   16.3560  -34.1512 H   0  0  0  0  0  0  0  0  0  0  0  0
   -5.3182   15.8308  -34.9637 H   0  0  0  0  0  0  0  0  0  0  0  0
   -7.1244   17.5351  -34.7954 H   0  0  0  0  0  0  0  0  0  0  0  0
   -8.8156   20.1105  -33.1105 H   0  0  0  0  0  0  0  0  0  0  0  0
   -7.6348   19.2982  -32.0110 H   0  0  0  0  0  0  0  0  0  0  0  0
   -6.9264   22.5180  -33.7166 H   0  0  0  0  0  0  0  0  0  0  0  0
   -6.5818   24.6599  -32.4840 H   0  0  0  0  0  0  0  0  0  0  0  0
   -7.0265   24.7764  -30.0296 H   0  0  0  0  0  0  0  0  0  0  0  0
   -7.8167   22.7499  -28.8051 H   0  0  0  0  0  0  0  0  0  0  0  0
   -8.1698   20.6046  -30.0315 H   0  0  0  0  0  0  0  0  0  0  0  0
   -5.1598   23.0048  -31.1306 H   0  0  0  0  0  0  0  0  0  0  0  0
   -4.3813   25.0977  -30.0295 H   0  0  0  0  0  0  0  0  0  0  0  0
  1  2  1  0
  2  3  2  0
  2  4  1  0
  4  5  1  0
  5  6  2  0
  6  7  1  0
  7  8  2  0
  8  9  1  0
  9 10  1  0
 10 11  2  0
 10 12  1  0
 12 13  2  0
 13 14  1  0
 14 15  2  0
 15 16  1  0
 16 17  2  0
 17 18  1  0
 18 19  1  0
 19 20  1  0
 20 21  2  0
 21 22  1  0
 22 23  2  0
 23 24  1  0
 24 25  2  0
  8 26  1  0
 26 27  2  0
 27  5  1  0
 17 12  1  0
 25 20  1  0
  1 28  1  0
  1 29  1  0
  1 30  1  0
  6 31  1  0
  7 32  1  0
 13 33  1  0
 14 34  1  0
 15 35  1  0
 16 36  1  0
 19 37  1  0
 19 38  1  0
 21 39  1  0
 22 40  1  0
 23 41  1  0
 24 42  1  0
 25 43  1  0
 26 44  1  0
 27 45  1  0
M  CHG  2   4  -1   9  -1
M  END
>  <UniqueID>  (25) 
25

>  <SMILES>  (25) 
CC(=O)[N-]c1ccc([N-]C(=O)c2ccccc2OCc2ccccc2)cc1

>  <Energy>  (25) 
56.84309609169856

>  <Genealogy>  (25) 
CC(=O)[N-]c1ccc([N-]C(=O)c2ccccc2OCc2ccccc2)cc1 (protonated)
CC(=O)[N-]c1ccc([N-]C(=O)c2ccccc2OCc2ccccc2)cc1 (3D coordinates assigned)
CC(=O)[N-]c1ccc([N-]C(=O)c2ccccc2OCc2ccccc2)cc1 (optimized conformer: 56.84309609169856 kcal/mol)

>  <smiles>  (25) 
CC(=O)Nc1ccc(NC(=O)c2ccccc2OCc2ccccc2)cc1

>  <score_type>  (25) 
oracle

>  <origin>  (25) 
adgpu

>  <m_score__min__energy>  (25) 
-10.31

>  <m_primary>  (25) 
energy

$$$$
25:0
     RDKit          3D

 33 35  0  0  0  0  0  0  0  0999 V2000
   -1.7260   16.1420  -33.1200 C   0  0  0  0  0  0  0  0  0  0  0  0
   -3.0660   15.4680  -33.1260 C   0  0  0  0  0  0  0  0  0  0  0  0
   -3.1830   14.1330  -32.7210 C   0  0  0  0  0  0  0  0  0  0  0  0
   -4.4390   13.5280  -32.7720 C   0  0  0  0  0  0  0  0  0  0  0  0
   -4.5810   12.3320  -32.4070 O   0  0  0  0  0  0  0  0  0  0  0  0
   -5.5110   14.2310  -33.2160 N   0  0  0  0  0  0  0  0  0  0  0  0
   -5.3820   15.5220  -33.6200 C   0  0  0  0  0  0  0  0  0  0  0  0
   -6.8220   16.4160  -34.1960 S   0  0  0  0  0  0  0  0  0  0  0  0
   -6.2680   17.9480  -33.4550 C   0  0  0  0  0  0  0  0  0  0  0  0
   -6.6800   18.3040  -32.1710 C   0  0  0  0  0  0  0  0  0  0  0  0
   -6.2370   19.5050  -31.6240 C   0  0  0  0  0  0  0  0  0  0  0  0
   -5.3890   20.3340  -32.3760 C   0  0  0  0  0  0  0  0  0  0  0  0
   -4.8810   21.6270  -31.8480 C   0  0  0  0  0  0  0  0  0  0  0  0
   -5.7460   22.7330  -31.7510 C   0  0  0  0  0  0  0  0  0  0  0  0
   -5.2860   23.9550  -31.2500 C   0  0  0  0  0  0  0  0  0  0  0  0
   -3.9600   24.0860  -30.8320 C   0  0  0  0  0  0  0  0  0  0  0  0
   -3.5040   25.3000  -30.3340 O   0  0  0  0  0  0  0  0  0  0  0  0
   -3.0930   22.9930  -30.9110 C   0  0  0  0  0  0  0  0  0  0  0  0
   -3.5480   21.7700  -31.4120 C   0  0  0  0  0  0  0  0  0  0  0  0
   -5.0120   19.9230  -33.6190 N   0  0  0  0  0  0  0  0  0  0  0  0
   -5.4380   18.7720  -34.1420 N   0  0  0  0  0  0  0  0  0  0  0  0
   -4.1650   16.1320  -33.5820 N   0  0  0  0  0  0  0  0  0  0  0  0
   -1.4021   16.3049  -32.0814 H   0  0  0  0  0  0  0  0  0  0  0  0
   -0.9930   15.5053  -33.6371 H   0  0  0  0  0  0  0  0  0  0  0  0
   -1.8002   17.1101  -33.6371 H   0  0  0  0  0  0  0  0  0  0  0  0
   -2.3035   13.5732  -32.3701 H   0  0  0  0  0  0  0  0  0  0  0  0
   -7.3470   17.6437  -31.5974 H   0  0  0  0  0  0  0  0  0  0  0  0
   -6.5485   19.8020  -30.6117 H   0  0  0  0  0  0  0  0  0  0  0  0
   -6.7935   22.6354  -32.0722 H   0  0  0  0  0  0  0  0  0  0  0  0
   -5.9697   24.8143  -31.1851 H   0  0  0  0  0  0  0  0  0  0  0  0
   -2.0496   23.0953  -30.5780 H   0  0  0  0  0  0  0  0  0  0  0  0
   -2.8609   20.9128  -31.4665 H   0  0  0  0  0  0  0  0  0  0  0  0
   -4.0810   17.1220  -33.9040 H   0  0  0  0  0  0  0  0  0  0  0  0
  1  2  1  0
  2  3  2  0
  3  4  1  0
  4  5  2  0
  4  6  1  0
  6  7  2  0
  7  8  1  0
  8  9  1  0
  9 10  2  0
 10 11  1  0
 11 12  2  0
 12 13  1  0
 13 14  2  0
 14 15  1  0
 15 16  2  0
 16 17  1  0
 16 18  1  0
 18 19  2  0
 12 20  1  0
 20 21  2  0
  7 22  1  0
 22  2  1  0
 21  9  1  0
 19 13  1  0
  1 23  1  0
  1 24  1  0
  1 25  1  0
  3 26  1  0
 10 27  1  0
 11 28  1  0
 14 29  1  0
 15 30  1  0
 18 31  1  0
 19 32  1  0
 22 33  1  0
M  CHG  1  17  -1
M  END
>  <UniqueID>  (26) 
26

>  <SMILES>  (26) 
Cc1cc(=O)nc(Sc2ccc(-c3ccc([O-])cc3)nn2)[nH]1

>  <Energy>  (26) 
36.40055792815402

>  <Genealogy>  (26) 
Cc1cc(=O)nc(Sc2ccc(-c3ccc([O-])cc3)nn2)[nH]1 (protonated)
Cc1cc(=O)nc(Sc2ccc(-c3ccc([O-])cc3)nn2)[nH]1 (3D coordinates assigned)
Cc1cc(=O)nc(Sc2ccc(-c3ccc([O-])cc3)nn2)[nH]1 (optimized conformer: 36.40055792815402 kcal/mol)

>  <smiles>  (26) 
Cc1cc(=O)nc(Sc2ccc(-c3ccc(O)cc3)nn2)[nH]1

>  <score_type>  (26) 
oracle

>  <origin>  (26) 
adgpu

>  <m_score__min__energy>  (26) 
-9.6799999999999997

>  <m_primary>  (26) 
energy

$$$$
26:0
     RDKit          3D

 52 54  0  0  0  0  0  0  0  0999 V2000
   -8.9020   19.9800  -31.5750 C   0  0  0  0  0  0  0  0  0  0  0  0
   -8.4990   18.9350  -32.6110 C   0  0  0  0  0  0  0  0  0  0  0  0
   -7.1550   18.4080  -32.3500 N   0  0  0  0  0  0  0  0  0  0  0  0
   -5.9410   19.1490  -33.3590 S   0  0  0  0  0  0  0  0  0  0  0  0
   -6.4770   19.3340  -34.7510 O   0  0  0  0  0  0  0  0  0  0  0  0
   -4.7560   18.2270  -33.4370 O   0  0  0  0  0  0  0  0  0  0  0  0
   -5.4120   20.7030  -32.7150 C   0  0  0  0  0  0  0  0  0  0  0  0
   -6.3310   21.7490  -32.5640 C   0  0  0  0  0  0  0  0  0  0  0  0
   -5.9330   22.9550  -31.9840 C   0  0  0  0  0  0  0  0  0  0  0  0
   -4.6060   23.1310  -31.5540 C   0  0  0  0  0  0  0  0  0  0  0  0
   -4.1900   24.3460  -30.9170 N   0  0  0  0  0  0  0  0  0  0  0  0
   -3.8320   24.4360  -29.5320 C   0  0  0  0  0  0  0  0  0  0  0  0
   -4.6580   24.9160  -28.7120 O   0  0  0  0  0  0  0  0  0  0  0  0
   -2.5050   24.0010  -29.0590 C   0  0  0  0  0  0  0  0  0  0  0  0
   -1.3400   24.7460  -29.0140 C   0  0  0  0  0  0  0  0  0  0  0  0
   -1.2330   26.0870  -29.3590 O   0  0  0  0  0  0  0  0  0  0  0  0
   -0.2950   24.0180  -28.5710 N   0  0  0  0  0  0  0  0  0  0  0  0
   -0.7970   22.7880  -28.3290 C   0  0  0  0  0  0  0  0  0  0  0  0
    0.0490   21.6280  -27.9000 C   0  0  0  0  0  0  0  0  0  0  0  0
    0.3410   20.7440  -29.0840 C   0  0  0  0  0  0  0  0  0  0  0  0
   -0.3640   20.9310  -30.2830 C   0  0  0  0  0  0  0  0  0  0  0  0
   -0.1530   20.0880  -31.3890 C   0  0  0  0  0  0  0  0  0  0  0  0
   -0.9540   20.3290  -32.6480 C   0  0  0  0  0  0  0  0  0  0  0  0
   -0.1510   21.1370  -33.6630 C   0  0  0  0  0  0  0  0  0  0  0  0
    0.7660   19.0170  -31.2710 C   0  0  0  0  0  0  0  0  0  0  0  0
    1.0070   18.1190  -32.3150 O   0  0  0  0  0  0  0  0  0  0  0  0
    1.4580   18.8280  -30.0710 C   0  0  0  0  0  0  0  0  0  0  0  0
    1.2480   19.6760  -28.9810 C   0  0  0  0  0  0  0  0  0  0  0  0
    1.9390   19.4450  -27.7960 O   0  0  0  0  0  0  0  0  0  0  0  0
   -2.1480   22.7500  -28.6140 C   0  0  0  0  0  0  0  0  0  0  0  0
   -2.9840   21.6440  -28.5100 O   0  0  0  0  0  0  0  0  0  0  0  0
   -3.6770   22.1050  -31.7540 C   0  0  0  0  0  0  0  0  0  0  0  0
   -4.0800   20.8880  -32.3170 C   0  0  0  0  0  0  0  0  0  0  0  0
   -8.7455   19.5741  -30.5647 H   0  0  0  0  0  0  0  0  0  0  0  0
   -8.2876   20.8828  -31.7067 H   0  0  0  0  0  0  0  0  0  0  0  0
   -9.9635   20.2365  -31.7067 H   0  0  0  0  0  0  0  0  0  0  0  0
   -9.2203   18.1050  -32.5805 H   0  0  0  0  0  0  0  0  0  0  0  0
   -8.4948   19.4148  -33.6009 H   0  0  0  0  0  0  0  0  0  0  0  0
   -7.3694   21.6200  -32.9033 H   0  0  0  0  0  0  0  0  0  0  0  0
   -6.6607   23.7709  -31.8629 H   0  0  0  0  0  0  0  0  0  0  0  0
    0.9950   22.0013  -27.4808 H   0  0  0  0  0  0  0  0  0  0  0  0
   -0.4907   21.0472  -27.1375 H   0  0  0  0  0  0  0  0  0  0  0  0
   -1.0938   21.7505  -30.3591 H   0  0  0  0  0  0  0  0  0  0  0  0
   -1.2243   19.3600  -33.0930 H   0  0  0  0  0  0  0  0  0  0  0  0
   -1.8574   20.8983  -32.3840 H   0  0  0  0  0  0  0  0  0  0  0  0
    0.5283   21.8205  -33.1326 H   0  0  0  0  0  0  0  0  0  0  0  0
    0.4359   20.4534  -34.2941 H   0  0  0  0  0  0  0  0  0  0  0  0
   -0.8382   21.7196  -34.2941 H   0  0  0  0  0  0  0  0  0  0  0  0
    1.7250   17.4080  -32.2860 H   0  0  0  0  0  0  0  0  0  0  0  0
    2.1775   18.0005  -29.9840 H   0  0  0  0  0  0  0  0  0  0  0  0
   -2.6255   22.2547  -31.4679 H   0  0  0  0  0  0  0  0  0  0  0  0
   -3.3503   20.0753  -32.4474 H   0  0  0  0  0  0  0  0  0  0  0  0
  1  2  1  0
  2  3  1  0
  3  4  1  0
  4  5  2  0
  4  6  2  0
  4  7  1  0
  7  8  2  0
  8  9  1  0
  9 10  2  0
 10 11  1  0
 11 12  1  0
 12 13  2  0
 12 14  1  0
 14 15  2  0
 15 16  1  0
 15 17  1  0
 17 18  1  0
 18 19  1  0
 19 20  1  0
 20 21  2  0
 21 22  1  0
 22 23  1  0
 23 24  1  0
 22 25  2  0
 25 26  1  0
 25 27  1  0
 27 28  2  0
 28 29  1  0
 18 30  2  0
 30 31  1  0
 10 32  1  0
 32 33  2  0
 33  7  1  0
 30 14  1  0
 28 20  1  0
  1 34  1  0
  1 35  1  0
  1 36  1  0
  2 37  1  0
  2 38  1  0
  8 39  1  0
  9 40  1  0
 19 41  1  0
 19 42  1  0
 21 43  1  0
 23 44  1  0
 23 45  1  0
 24 46  1  0
 24 47  1  0
 24 48  1  0
 26 49  1  0
 27 50  1  0
 32 51  1  0
 33 52  1  0
M  CHG  6   3  -1  11  -1  16  -1  17  -1  29  -1  31  -1
M  END
>  <UniqueID>  (27) 
27

>  <SMILES>  (27) 
CC[N-]S(=O)(=O)c1ccc([N-]C(=O)c2c([O-])[n-]c(Cc3cc(CC)c(O)cc3[O-])c2[O-])cc1

>  <Energy>  (27) 
81.76062922818285

>  <Genealogy>  (27) 
CC[N-]S(=O)(=O)c1ccc([N-]C(=O)c2c([O-])[n-]c(Cc3cc(CC)c(O)cc3[O-])c2[O-])cc1 (protonated)
CC[N-]S(=O)(=O)c1ccc([N-]C(=O)c2c([O-])[n-]c(Cc3cc(CC)c(O)cc3[O-])c2[O-])cc1 (3D coordinates assigned)
CC[N-]S(=O)(=O)c1ccc([N-]C(=O)c2c([O-])[n-]c(Cc3cc(CC)c(O)cc3[O-])c2[O-])cc1 (optimized conformer: 81.76062922818285 kcal/mol)

>  <smiles>  (27) 
CCNS(=O)(=O)c1ccc(NC(=O)c2c(O)[nH]c(Cc3cc(CC)c(O)cc3O)c2O)cc1

>  <score_type>  (27) 
oracle

>  <origin>  (27) 
adgpu

>  <m_score__min__energy>  (27) 
-13.52

>  <m_primary>  (27) 
energy

$$$$
27:0
     RDKit          3D

 46 48  0  0  0  0  0  0  0  0999 V2000
   -1.2680   21.5260  -26.4720 C   0  0  0  0  0  0  0  0  0  0  0  0
   -2.1870   22.2560  -27.4050 C   0  0  0  0  0  0  0  0  0  0  0  0
   -3.0780   21.5410  -28.2150 C   0  0  0  0  0  0  0  0  0  0  0  0
   -3.9290   22.2160  -29.0940 C   0  0  0  0  0  0  0  0  0  0  0  0
   -3.8820   23.6150  -29.1930 C   0  0  0  0  0  0  0  0  0  0  0  0
   -4.9560   24.4600  -30.3150 S   0  0  0  0  0  0  0  0  0  0  0  0
   -4.2460   25.6790  -30.8370 O   0  0  0  0  0  0  0  0  0  0  0  0
   -6.1740   24.9230  -29.5660 O   0  0  0  0  0  0  0  0  0  0  0  0
   -5.4230   23.4650  -31.7530 C   0  0  1  0  0  0  0  0  0  0  0  0
   -4.2160   22.6340  -32.2380 C   0  0  0  0  0  0  0  0  0  0  0  0
   -4.6130   21.6380  -33.2390 N   0  0  0  0  0  0  0  0  0  0  0  0
   -3.5680   20.2490  -33.1760 S   0  0  0  0  0  0  0  0  0  0  0  0
   -2.5030   20.3840  -34.2310 O   0  0  0  0  0  0  0  0  0  0  0  0
   -2.8930   20.1390  -31.8350 O   0  0  0  0  0  0  0  0  0  0  0  0
   -4.5170   18.7990  -33.4840 C   0  0  0  0  0  0  0  0  0  0  0  0
   -3.8960   17.6430  -33.9780 C   0  0  0  0  0  0  0  0  0  0  0  0
   -4.6440   16.4830  -34.2040 C   0  0  0  0  0  0  0  0  0  0  0  0
   -6.0180   16.4740  -33.9430 C   0  0  0  0  0  0  0  0  0  0  0  0
   -6.9550   15.0160  -34.2180 Cl  0  0  0  0  0  0  0  0  0  0  0  0
   -6.6430   17.6260  -33.4560 C   0  0  0  0  0  0  0  0  0  0  0  0
   -5.8940   18.7830  -33.2190 C   0  0  0  0  0  0  0  0  0  0  0  0
   -6.6830   22.6390  -31.5500 C   0  0  0  0  0  0  0  0  0  0  0  0
   -6.7280   21.2760  -31.2510 C   0  0  0  0  0  0  0  0  0  0  0  0
   -8.0130   20.7210  -31.3010 C   0  0  0  0  0  0  0  0  0  0  0  0
   -8.9960   21.6200  -31.6840 C   0  0  0  0  0  0  0  0  0  0  0  0
   -8.2530   23.0970  -31.9660 S   0  0  0  0  0  0  0  0  0  0  0  0
   -2.9570   24.3250  -28.4160 C   0  0  0  0  0  0  0  0  0  0  0  0
   -2.1170   23.6520  -27.5240 C   0  0  0  0  0  0  0  0  0  0  0  0
   -1.5486   21.7489  -25.4320 H   0  0  0  0  0  0  0  0  0  0  0  0
   -1.3492   20.4435  -26.6497 H   0  0  0  0  0  0  0  0  0  0  0  0
   -0.2319   21.8500  -26.6497 H   0  0  0  0  0  0  0  0  0  0  0  0
   -3.1081   20.4428  -28.1590 H   0  0  0  0  0  0  0  0  0  0  0  0
   -4.6397   21.6476  -29.7118 H   0  0  0  0  0  0  0  0  0  0  0  0
   -5.6997   24.1622  -32.5575 H   0  0  0  0  0  0  0  0  0  0  0  0
   -3.4724   23.3111  -32.6836 H   0  0  0  0  0  0  0  0  0  0  0  0
   -3.7944   22.1023  -31.3722 H   0  0  0  0  0  0  0  0  0  0  0  0
   -4.4990   22.0550  -34.1910 H   0  0  0  0  0  0  0  0  0  0  0  0
   -2.8164   17.6484  -34.1886 H   0  0  0  0  0  0  0  0  0  0  0  0
   -4.1513   15.5772  -34.5872 H   0  0  0  0  0  0  0  0  0  0  0  0
   -7.7252   17.6223  -33.2590 H   0  0  0  0  0  0  0  0  0  0  0  0
   -6.3866   19.6835  -32.8234 H   0  0  0  0  0  0  0  0  0  0  0  0
   -5.8325   20.6893  -30.9982 H   0  0  0  0  0  0  0  0  0  0  0  0
   -8.2227   19.6687  -31.0587 H   0  0  0  0  0  0  0  0  0  0  0  0
  -10.0698   21.4038  -31.7848 H   0  0  0  0  0  0  0  0  0  0  0  0
   -2.8914   25.4191  -28.5085 H   0  0  0  0  0  0  0  0  0  0  0  0
   -1.3988   24.2189  -26.9134 H   0  0  0  0  0  0  0  0  0  0  0  0
  1  2  1  0
  2  3  2  0
  3  4  1  0
  4  5  2  0
  5  6  1  0
  6  7  2  0
  6  8  2  0
  6  9  1  0
  9 10  1  0
 10 11  1  0
 11 12  1  0
 12 13  2  0
 12 14  2  0
 12 15  1  0
 15 16  2  0
 16 17  1  0
 17 18  2  0
 18 19  1  0
 18 20  1  0
 20 21  2  0
  9 22  1  0
 22 23  2  0
 23 24  1  0
 24 25  2  0
 25 26  1  0
  5 27  1  0
 27 28  2  0
 28  2  1  0
 21 15  1  0
 26 22  1  0
  1 29  1  0
  1 30  1  0
  1 31  1  0
  3 32  1  0
  4 33  1  0
  9 34  1  6
 10 35  1  0
 10 36  1  0
 11 37  1  0
 16 38  1  0
 17 39  1  0
 20 40  1  0
 21 41  1  0
 23 42  1  0
 24 43  1  0
 25 44  1  0
 27 45  1  0
 28 46  1  0
M  END
>  <UniqueID>  (28) 
28

>  <SMILES>  (28) 
Cc1ccc(S(=O)(=O)[C@@H](CNS(=O)(=O)c2ccc(Cl)cc2)c2cccs2)cc1

>  <Energy>  (28) 
67.24503397258988

>  <Genealogy>  (28) 
Cc1ccc(S(=O)(=O)[C@@H](CNS(=O)(=O)c2ccc(Cl)cc2)c2cccs2)cc1 (chirality)
Cc1ccc(S(=O)(=O)[C@@H](CNS(=O)(=O)c2ccc(Cl)cc2)c2cccs2)cc1 (3D coordinates assigned)
Cc1ccc(S(=O)(=O)[C@@H](CNS(=O)(=O)c2ccc(Cl)cc2)c2cccs2)cc1 (optimized conformer: 67.24503397258988 kcal/mol)

>  <smiles>  (28) 
Cc1ccc(S(=O)(=O)C(CNS(=O)(=O)c2ccc(Cl)cc2)c2cccs2)cc1

>  <score_type>  (28) 
oracle

>  <origin>  (28) 
adgpu

>  <m_score__min__energy>  (28) 
-11.06

>  <m_primary>  (28) 
energy

$$$$
28:0
     RDKit          3D

 55 58  0  0  0  0  0  0  0  0999 V2000
   -2.3760   13.9520  -32.5320 C   0  0  0  0  0  0  0  0  0  0  0  0
   -2.6500   14.9290  -33.5290 O   0  0  0  0  0  0  0  0  0  0  0  0
   -3.7800   15.7610  -33.5350 C   0  0  0  0  0  0  0  0  0  0  0  0
   -4.0930   16.6030  -34.6190 C   0  0  0  0  0  0  0  0  0  0  0  0
   -5.2300   17.4140  -34.5750 C   0  0  0  0  0  0  0  0  0  0  0  0
   -6.0590   17.4180  -33.4470 C   0  0  0  0  0  0  0  0  0  0  0  0
   -7.2350   18.2460  -33.4590 N   0  0  0  0  0  0  0  0  0  0  0  0
   -7.3740   19.4160  -32.9080 C   0  0  0  0  0  0  0  0  0  0  0  0
   -6.3300   20.0450  -32.3030 N   0  0  0  0  0  0  0  0  0  0  0  0
   -6.4860   21.2780  -31.7570 C   0  0  0  0  0  0  0  0  0  0  0  0
   -5.4160   21.9200  -31.1260 C   0  0  0  0  0  0  0  0  0  0  0  0
   -5.5910   23.1980  -30.5570 C   0  0  0  0  0  0  0  0  0  0  0  0
   -4.4520   23.8790  -29.8900 C   0  0  0  0  0  0  0  0  0  0  0  0
   -3.9400   24.8980  -30.4290 O   0  0  0  0  0  0  0  0  0  0  0  0
   -3.8950   23.3630  -28.6700 N   0  0  0  0  0  0  0  0  0  0  0  0
   -3.0930   24.1410  -27.7660 C   0  0  0  0  0  0  0  0  0  0  0  0
   -3.7190   24.8920  -26.7600 C   0  0  0  0  0  0  0  0  0  0  0  0
   -2.9600   25.6700  -25.8820 C   0  0  0  0  0  0  0  0  0  0  0  0
   -1.5700   25.7170  -26.0080 C   0  0  0  0  0  0  0  0  0  0  0  0
   -0.9320   24.9900  -27.0210 C   0  0  0  0  0  0  0  0  0  0  0  0
    0.8200   25.0390  -27.2020 S   0  0  0  0  0  0  0  0  0  0  0  0
    1.2010   24.2060  -28.3940 O   0  0  0  0  0  0  0  0  0  0  0  0
    1.2790   26.4540  -27.4310 O   0  0  0  0  0  0  0  0  0  0  0  0
    1.5760   24.3970  -25.7640 N   0  0  0  0  0  0  0  0  0  0  0  0
    0.6700   23.4380  -25.1200 C   0  0  0  0  0  0  0  0  0  0  0  0
    1.8810   25.4980  -24.8420 C   0  0  0  0  0  0  0  0  0  0  0  0
   -1.6940   24.2110  -27.9030 C   0  0  0  0  0  0  0  0  0  0  0  0
   -6.8520   23.8210  -30.6500 C   0  0  0  0  0  0  0  0  0  0  0  0
   -7.9210   23.1760  -31.2810 C   0  0  0  0  0  0  0  0  0  0  0  0
   -7.7380   21.9050  -31.8320 C   0  0  0  0  0  0  0  0  0  0  0  0
   -8.7560   21.2580  -32.4520 N   0  0  0  0  0  0  0  0  0  0  0  0
   -8.5780   20.0450  -32.9790 N   0  0  0  0  0  0  0  0  0  0  0  0
   -5.7630   16.5540  -32.3760 C   0  0  0  0  0  0  0  0  0  0  0  0
   -4.6260   15.7430  -32.4210 C   0  0  0  0  0  0  0  0  0  0  0  0
   -2.5016   14.4000  -31.5353 H   0  0  0  0  0  0  0  0  0  0  0  0
   -3.0720   13.1077  -32.6449 H   0  0  0  0  0  0  0  0  0  0  0  0
   -1.3425   13.5928  -32.6449 H   0  0  0  0  0  0  0  0  0  0  0  0
   -3.4400   16.6225  -35.5040 H   0  0  0  0  0  0  0  0  0  0  0  0
   -5.4759   18.0550  -35.4344 H   0  0  0  0  0  0  0  0  0  0  0  0
   -4.4344   21.4263  -31.0734 H   0  0  0  0  0  0  0  0  0  0  0  0
   -3.9770   22.3360  -28.4890 H   0  0  0  0  0  0  0  0  0  0  0  0
   -4.8143   24.8682  -26.6618 H   0  0  0  0  0  0  0  0  0  0  0  0
   -3.4587   26.2471  -25.0894 H   0  0  0  0  0  0  0  0  0  0  0  0
   -0.9755   26.3257  -25.3108 H   0  0  0  0  0  0  0  0  0  0  0  0
    0.7561   23.5292  -24.0272 H   0  0  0  0  0  0  0  0  0  0  0  0
   -0.3654   23.6499  -25.4251 H   0  0  0  0  0  0  0  0  0  0  0  0
    0.9404   22.4163  -25.4251 H   0  0  0  0  0  0  0  0  0  0  0  0
    1.7833   25.1453  -23.8047 H   0  0  0  0  0  0  0  0  0  0  0  0
    2.9097   25.8470  -25.0153 H   0  0  0  0  0  0  0  0  0  0  0  0
    1.1786   26.3266  -25.0153 H   0  0  0  0  0  0  0  0  0  0  0  0
   -1.1951   23.6507  -28.7075 H   0  0  0  0  0  0  0  0  0  0  0  0
   -6.9969   24.8240  -30.2223 H   0  0  0  0  0  0  0  0  0  0  0  0
   -8.9029   23.6680  -31.3432 H   0  0  0  0  0  0  0  0  0  0  0  0
   -6.4287   16.5171  -31.5011 H   0  0  0  0  0  0  0  0  0  0  0  0
   -4.3938   15.0836  -31.5717 H   0  0  0  0  0  0  0  0  0  0  0  0
  1  2  1  0
  2  3  1  0
  3  4  2  0
  4  5  1  0
  5  6  2  0
  6  7  1  0
  7  8  2  3
  8  9  1  0
  9 10  2  0
 10 11  1  0
 11 12  2  0
 12 13  1  0
 13 14  2  0
 13 15  1  0
 15 16  1  0
 16 17  2  0
 17 18  1  0
 18 19  2  0
 19 20  1  0
 20 21  1  0
 21 22  2  0
 21 23  2  0
 21 24  1  0
 24 25  1  0
 24 26  1  0
 20 27  2  0
 12 28  1  0
 28 29  2  0
 29 30  1  0
 30 31  2  0
 31 32  1  0
  6 33  1  0
 33 34  2  0
 34  3  1  0
 32  8  1  0
 30 10  1  0
 27 16  1  0
  1 35  1  0
  1 36  1  0
  1 37  1  0
  4 38  1  0
  5 39  1  0
 11 40  1  0
 15 41  1  0
 17 42  1  0
 18 43  1  0
 19 44  1  0
 25 45  1  0
 25 46  1  0
 25 47  1  0
 26 48  1  0
 26 49  1  0
 26 50  1  0
 27 51  1  0
 28 52  1  0
 29 53  1  0
 33 54  1  0
 34 55  1  0
M  CHG  1  32  -1
M  END
>  <UniqueID>  (29) 
29

>  <SMILES>  (29) 
COc1ccc(N=c2nc3cc(C(=O)Nc4cccc(S(=O)(=O)N(C)C)c4)ccc3n[n-]2)cc1

>  <Energy>  (29) 
72.24038344584115

>  <Genealogy>  (29) 
COc1ccc(N=c2nc3cc(C(=O)Nc4cccc(S(=O)(=O)N(C)C)c4)ccc3n[n-]2)cc1 (protonated)
COc1ccc(N=c2nc3cc(C(=O)Nc4cccc(S(=O)(=O)N(C)C)c4)ccc3n[n-]2)cc1 (3D coordinates assigned)
COc1ccc(N=c2nc3cc(C(=O)Nc4cccc(S(=O)(=O)N(C)C)c4)ccc3n[n-]2)cc1 (optimized conformer: 72.24038344584115 kcal/mol)

>  <smiles>  (29) 
COc1ccc(N=c2nc3cc(C(=O)Nc4cccc(S(=O)(=O)N(C)C)c4)ccc3n[nH]2)cc1

>  <score_type>  (29) 
oracle

>  <origin>  (29) 
adgpu

>  <m_score__min__energy>  (29) 
-10.77

>  <m_primary>  (29) 
energy

$$$$
29:0
     RDKit          3D

 54 56  0  0  0  0  0  0  0  0999 V2000
   -6.3930   17.6810  -31.7500 C   0  0  0  0  0  0  0  0  0  0  0  0
   -5.8390   17.0610  -33.3250 S   0  0  0  0  0  0  0  0  0  0  0  0
   -5.5640   18.2200  -34.2400 O   0  0  0  0  0  0  0  0  0  0  0  0
   -6.9130   16.2000  -33.9320 O   0  0  0  0  0  0  0  0  0  0  0  0
   -4.3370   16.1120  -33.1250 C   0  0  0  0  0  0  0  0  0  0  0  0
   -3.1360   16.9180  -33.5360 C   0  0  0  0  0  0  0  0  0  0  0  0
   -2.4850   16.6520  -34.7520 C   0  0  0  0  0  0  0  0  0  0  0  0
   -1.3700   17.4050  -35.1330 C   0  0  0  0  0  0  0  0  0  0  0  0
   -0.9030   18.4340  -34.3100 C   0  0  0  0  0  0  0  0  0  0  0  0
   -1.5690   18.7360  -33.1170 C   0  0  0  0  0  0  0  0  0  0  0  0
   -1.0380   19.7390  -32.2440 N   0  0  0  0  0  0  0  0  0  0  0  0
   -1.6250   20.7900  -31.7410 C   0  0  0  0  0  0  0  0  0  0  0  0
   -0.9600   21.4640  -30.7630 N   0  0  0  0  0  0  0  0  0  0  0  0
   -1.4760   22.5430  -30.1230 C   0  0  0  0  0  0  0  0  0  0  0  0
   -2.7490   23.0200  -30.4560 C   0  0  0  0  0  0  0  0  0  0  0  0
   -3.3350   24.1830  -29.7490 C   0  0  0  0  0  0  0  0  0  0  0  0
   -3.3750   24.2000  -28.4870 O   0  0  0  0  0  0  0  0  0  0  0  0
   -3.8550   25.2920  -30.4930 N   0  0  0  0  0  0  0  0  0  0  0  0
   -5.2800   25.5550  -30.6570 C   0  0  0  0  0  0  0  0  0  0  0  0
   -6.0760   24.2460  -30.5890 C   0  0  0  0  0  0  0  0  0  0  0  0
   -6.4650   23.7420  -31.9830 C   0  0  0  0  0  0  0  0  0  0  0  0
   -7.3600   22.5880  -31.8970 N   0  0  0  0  0  0  0  0  0  0  0  0
   -6.9330   21.2350  -31.5910 C   0  0  0  0  0  0  0  0  0  0  0  0
   -8.1970   20.3600  -31.6950 C   0  0  0  0  0  0  0  0  0  0  0  0
   -9.3990   21.3070  -31.8400 C   0  0  0  0  0  0  0  0  0  0  0  0
   -8.7710   22.6340  -31.9810 C   0  0  0  0  0  0  0  0  0  0  0  0
   -9.4180   23.7050  -32.1280 O   0  0  0  0  0  0  0  0  0  0  0  0
   -3.4470   22.3790  -31.4900 C   0  0  0  0  0  0  0  0  0  0  0  0
   -2.8990   21.2760  -32.1530 C   0  0  0  0  0  0  0  0  0  0  0  0
   -3.7830   20.7010  -33.5680 Cl  0  0  0  0  0  0  0  0  0  0  0  0
   -2.6700   17.9610  -32.7190 C   0  0  0  0  0  0  0  0  0  0  0  0
   -5.8960   17.1247  -30.9416 H   0  0  0  0  0  0  0  0  0  0  0  0
   -6.1429   18.7490  -31.6678 H   0  0  0  0  0  0  0  0  0  0  0  0
   -7.4823   17.5522  -31.6678 H   0  0  0  0  0  0  0  0  0  0  0  0
   -4.2320   15.8216  -32.0692 H   0  0  0  0  0  0  0  0  0  0  0  0
   -4.3971   15.2188  -33.7643 H   0  0  0  0  0  0  0  0  0  0  0  0
   -2.8536   15.8486  -35.4068 H   0  0  0  0  0  0  0  0  0  0  0  0
   -0.8592   17.1871  -36.0825 H   0  0  0  0  0  0  0  0  0  0  0  0
   -0.0104   19.0073  -34.6008 H   0  0  0  0  0  0  0  0  0  0  0  0
   -0.8911   23.0455  -29.3385 H   0  0  0  0  0  0  0  0  0  0  0  0
   -5.6191   26.2276  -29.8554 H   0  0  0  0  0  0  0  0  0  0  0  0
   -5.4460   26.0232  -31.6384 H   0  0  0  0  0  0  0  0  0  0  0  0
   -5.4609   23.4809  -30.0928 H   0  0  0  0  0  0  0  0  0  0  0  0
   -7.0007   24.4377  -30.0249 H   0  0  0  0  0  0  0  0  0  0  0  0
   -6.9736   24.5508  -32.5281 H   0  0  0  0  0  0  0  0  0  0  0  0
   -5.5499   23.4349  -32.5105 H   0  0  0  0  0  0  0  0  0  0  0  0
   -6.1751   20.9000  -32.3145 H   0  0  0  0  0  0  0  0  0  0  0  0
   -6.4785   21.1711  -30.5913 H   0  0  0  0  0  0  0  0  0  0  0  0
   -8.1280   19.7023  -32.5740 H   0  0  0  0  0  0  0  0  0  0  0  0
   -8.3062   19.7266  -30.8023 H   0  0  0  0  0  0  0  0  0  0  0  0
   -9.9933   21.0557  -32.7309 H   0  0  0  0  0  0  0  0  0  0  0  0
  -10.0970   21.2493  -30.9918 H   0  0  0  0  0  0  0  0  0  0  0  0
   -4.4402   22.7492  -31.7839 H   0  0  0  0  0  0  0  0  0  0  0  0
   -3.1702   18.1718  -31.7623 H   0  0  0  0  0  0  0  0  0  0  0  0
  1  2  1  0
  2  3  2  0
  2  4  2  0
  2  5  1  0
  5  6  1  0
  6  7  2  0
  7  8  1  0
  8  9  2  0
  9 10  1  0
 10 11  1  0
 11 12  2  3
 12 13  1  0
 13 14  1  0
 14 15  2  0
 15 16  1  0
 16 17  2  0
 16 18  1  0
 18 19  1  0
 19 20  1  0
 20 21  1  0
 21 22  1  0
 22 23  1  0
 23 24  1  0
 24 25  1  0
 25 26  1  0
 26 27  2  0
 15 28  1  0
 28 29  2  0
 29 30  1  0
 10 31  2  0
 31  6  1  0
 29 12  1  0
 26 22  1  0
  1 32  1  0
  1 33  1  0
  1 34  1  0
  5 35  1  0
  5 36  1  0
  7 37  1  0
  8 38  1  0
  9 39  1  0
 14 40  1  0
 19 41  1  0
 19 42  1  0
 20 43  1  0
 20 44  1  0
 21 45  1  0
 21 46  1  0
 23 47  1  0
 23 48  1  0
 24 49  1  0
 24 50  1  0
 25 51  1  0
 25 52  1  0
 28 53  1  0
 31 54  1  0
M  CHG  2  13  -1  18  -1
M  END
>  <UniqueID>  (30) 
30

>  <SMILES>  (30) 
CS(=O)(=O)Cc1cccc(N=c2[n-]cc(C(=O)[N-]CCCN3CCCC3=O)cc2Cl)c1

>  <Energy>  (30) 
62.21063865762927

>  <Genealogy>  (30) 
CS(=O)(=O)Cc1cccc(N=c2[n-]cc(C(=O)[N-]CCCN3CCCC3=O)cc2Cl)c1 (protonated)
CS(=O)(=O)Cc1cccc(N=c2[n-]cc(C(=O)[N-]CCCN3CCCC3=O)cc2Cl)c1 (3D coordinates assigned)
CS(=O)(=O)Cc1cccc(N=c2[n-]cc(C(=O)[N-]CCCN3CCCC3=O)cc2Cl)c1 (nonaromatic ring conformer: 62.21063865762927 kcal/mol)

>  <smiles>  (30) 
CS(=O)(=O)Cc1cccc(N=c2[nH]cc(C(=O)NCCCN3CCCC3=O)cc2Cl)c1

>  <score_type>  (30) 
oracle

>  <origin>  (30) 
adgpu

>  <m_score__min__energy>  (30) 
-11.01

>  <m_primary>  (30) 
energy

$$$$
30:0
     RDKit          3D

 47 49  0  0  0  0  0  0  0  0999 V2000
   -0.8140   20.6850  -28.7200 C   0  0  0  0  0  0  0  0  0  0  0  0
   -1.6050   21.8820  -29.1810 C   0  0  0  0  0  0  0  0  0  0  0  0
   -1.5530   23.0700  -28.4330 C   0  0  0  0  0  0  0  0  0  0  0  0
   -2.2770   24.1930  -28.8340 C   0  0  0  0  0  0  0  0  0  0  0  0
   -3.0560   24.1550  -30.0000 C   0  0  0  0  0  0  0  0  0  0  0  0
   -3.8210   25.2900  -30.4320 N   0  0  0  0  0  0  0  0  0  0  0  0
   -5.2520   25.3880  -30.4450 C   0  0  0  0  0  0  0  0  0  0  0  0
   -5.7830   26.4850  -30.1260 O   0  0  0  0  0  0  0  0  0  0  0  0
   -6.1180   24.2300  -30.7700 C   0  0  0  0  0  0  0  0  0  0  0  0
   -6.6060   23.3880  -29.7540 C   0  0  0  0  0  0  0  0  0  0  0  0
   -7.4230   22.2990  -30.0690 C   0  0  0  0  0  0  0  0  0  0  0  0
   -7.7700   22.0400  -31.4010 C   0  0  0  0  0  0  0  0  0  0  0  0
   -8.8200   20.6840  -31.8070 S   0  0  0  0  0  0  0  0  0  0  0  0
   -9.1060   19.9140  -30.5480 O   0  0  0  0  0  0  0  0  0  0  0  0
  -10.1250   21.1980  -32.3510 O   0  0  0  0  0  0  0  0  0  0  0  0
   -8.0420   19.6270  -32.9680 N   0  0  0  0  0  0  0  0  0  0  0  0
   -7.9670   18.2370  -32.4840 C   0  0  0  0  0  0  0  0  0  0  0  0
   -6.8990   18.0580  -31.3780 C   0  0  0  0  0  0  0  0  0  0  0  0
   -5.9470   19.1070  -31.3350 O   0  0  0  0  0  0  0  0  0  0  0  0
   -5.5540   19.4650  -32.6410 C   0  0  0  0  0  0  0  0  0  0  0  0
   -6.7200   20.1460  -33.3820 C   0  0  0  0  0  0  0  0  0  0  0  0
   -7.3070   22.8890  -32.4140 C   0  0  0  0  0  0  0  0  0  0  0  0
   -6.4890   23.9770  -32.1010 C   0  0  0  0  0  0  0  0  0  0  0  0
   -3.1360   22.9670  -30.7330 C   0  0  0  0  0  0  0  0  0  0  0  0
   -2.4170   21.8260  -30.3390 C   0  0  0  0  0  0  0  0  0  0  0  0
   -2.5130   20.5700  -31.1650 C   0  0  0  0  0  0  0  0  0  0  0  0
   -0.7965   20.6584  -27.6205 H   0  0  0  0  0  0  0  0  0  0  0  0
   -1.2834   19.7662  -29.1015 H   0  0  0  0  0  0  0  0  0  0  0  0
    0.2152   20.7566  -29.1015 H   0  0  0  0  0  0  0  0  0  0  0  0
   -0.9361   23.1151  -27.5234 H   0  0  0  0  0  0  0  0  0  0  0  0
   -2.2368   25.1132  -28.2327 H   0  0  0  0  0  0  0  0  0  0  0  0
   -6.3427   23.5882  -28.7049 H   0  0  0  0  0  0  0  0  0  0  0  0
   -7.7949   21.6430  -29.2682 H   0  0  0  0  0  0  0  0  0  0  0  0
   -8.9483   17.9501  -32.0782 H   0  0  0  0  0  0  0  0  0  0  0  0
   -7.6822   17.5992  -33.3338 H   0  0  0  0  0  0  0  0  0  0  0  0
   -7.4100   18.0118  -30.4050 H   0  0  0  0  0  0  0  0  0  0  0  0
   -6.3499   17.1325  -31.6059 H   0  0  0  0  0  0  0  0  0  0  0  0
   -4.7033   20.1602  -32.5863 H   0  0  0  0  0  0  0  0  0  0  0  0
   -5.2634   18.5566  -33.1890 H   0  0  0  0  0  0  0  0  0  0  0  0
   -6.6855   21.2258  -33.1749 H   0  0  0  0  0  0  0  0  0  0  0  0
   -6.6010   19.9328  -34.4546 H   0  0  0  0  0  0  0  0  0  0  0  0
   -7.5886   22.6983  -33.4601 H   0  0  0  0  0  0  0  0  0  0  0  0
   -6.1327   24.6406  -32.9027 H   0  0  0  0  0  0  0  0  0  0  0  0
   -3.7706   22.9251  -31.6305 H   0  0  0  0  0  0  0  0  0  0  0  0
   -2.5797   19.6972  -30.4988 H   0  0  0  0  0  0  0  0  0  0  0  0
   -3.4102   20.6162  -31.7997 H   0  0  0  0  0  0  0  0  0  0  0  0
   -1.6192   20.4793  -31.7997 H   0  0  0  0  0  0  0  0  0  0  0  0
  1  2  1  0
  2  3  2  0
  3  4  1  0
  4  5  2  0
  5  6  1  0
  6  7  1  0
  7  8  2  0
  7  9  1  0
  9 10  2  0
 10 11  1  0
 11 12  2  0
 12 13  1  0
 13 14  2  0
 13 15  2  0
 13 16  1  0
 16 17  1  0
 17 18  1  0
 18 19  1  0
 19 20  1  0
 20 21  1  0
 12 22  1  0
 22 23  2  0
  5 24  1  0
 24 25  2  0
 25 26  1  0
 25  2  1  0
 23  9  1  0
 21 16  1  0
  1 27  1  0
  1 28  1  0
  1 29  1  0
  3 30  1  0
  4 31  1  0
 10 32  1  0
 11 33  1  0
 17 34  1  0
 17 35  1  0
 18 36  1  0
 18 37  1  0
 20 38  1  0
 20 39  1  0
 21 40  1  0
 21 41  1  0
 22 42  1  0
 23 43  1  0
 24 44  1  0
 26 45  1  0
 26 46  1  0
 26 47  1  0
M  CHG  1   6  -1
M  END
>  <UniqueID>  (31) 
31

>  <SMILES>  (31) 
Cc1ccc([N-]C(=O)c2ccc(S(=O)(=O)N3CCOCC3)cc2)cc1C

>  <Energy>  (31) 
65.85516790952362

>  <Genealogy>  (31) 
Cc1ccc([N-]C(=O)c2ccc(S(=O)(=O)N3CCOCC3)cc2)cc1C (protonated)
Cc1ccc([N-]C(=O)c2ccc(S(=O)(=O)N3CCOCC3)cc2)cc1C (3D coordinates assigned)
Cc1ccc([N-]C(=O)c2ccc(S(=O)(=O)N3CCOCC3)cc2)cc1C (nonaromatic ring conformer: 65.85516790952362 kcal/mol)

>  <smiles>  (31) 
Cc1ccc(NC(=O)c2ccc(S(=O)(=O)N3CCOCC3)cc2)cc1C

>  <score_type>  (31) 
oracle

>  <origin>  (31) 
adgpu

>  <m_score__min__energy>  (31) 
-11.17

>  <m_primary>  (31) 
energy

$$$$
31:0
     RDKit          3D

 46 48  0  0  0  0  0  0  0  0999 V2000
   -9.1150   18.5340  -31.7550 C   0  0  0  0  0  0  0  0  0  0  0  0
   -8.1050   19.6170  -31.9990 C   0  0  0  0  0  0  0  0  0  0  0  0
   -8.4220   20.9520  -31.7200 C   0  0  0  0  0  0  0  0  0  0  0  0
   -7.4780   21.9690  -31.9230 C   0  0  0  0  0  0  0  0  0  0  0  0
   -7.8480   23.3980  -31.6350 C   0  0  0  0  0  0  0  0  0  0  0  0
   -6.1880   21.6410  -32.3910 C   0  0  0  0  0  0  0  0  0  0  0  0
   -5.2220   22.6830  -32.6010 N   0  0  0  0  0  0  0  0  0  0  0  0
   -4.4670   23.2530  -31.5220 C   0  0  0  0  0  0  0  0  0  0  0  0
   -3.4170   22.5400  -30.9430 C   0  0  0  0  0  0  0  0  0  0  0  0
   -2.6800   23.1050  -29.8980 C   0  0  0  0  0  0  0  0  0  0  0  0
   -1.6940   22.4050  -29.4010 N   0  0  0  0  0  0  0  0  0  0  0  0
   -0.7230   22.8020  -28.4220 C   0  0  0  0  0  0  0  0  0  0  0  0
   -0.8040   22.3390  -27.1000 C   0  0  0  0  0  0  0  0  0  0  0  0
    0.1100   22.7820  -26.1400 C   0  0  0  0  0  0  0  0  0  0  0  0
    1.1060   23.7150  -26.4810 C   0  0  0  0  0  0  0  0  0  0  0  0
    2.0780   24.1870  -25.4670 C   0  0  0  0  0  0  0  0  0  0  0  0
    3.4750   24.1970  -25.7510 N   0  0  0  0  0  0  0  0  0  0  0  0
    1.6780   24.5850  -24.3400 O   0  0  0  0  0  0  0  0  0  0  0  0
    1.1590   24.2020  -27.8010 C   0  0  0  0  0  0  0  0  0  0  0  0
    0.2420   23.7560  -28.7580 C   0  0  0  0  0  0  0  0  0  0  0  0
   -3.0700   24.3820  -29.4250 C   0  0  0  0  0  0  0  0  0  0  0  0
   -2.5060   24.9200  -28.4340 O   0  0  0  0  0  0  0  0  0  0  0  0
   -4.1030   25.0320  -30.0280 N   0  0  0  0  0  0  0  0  0  0  0  0
   -4.7760   24.4850  -31.0390 N   0  0  0  0  0  0  0  0  0  0  0  0
   -5.8460   20.2870  -32.6190 C   0  0  0  0  0  0  0  0  0  0  0  0
   -4.4670   19.8910  -33.0750 C   0  0  0  0  0  0  0  0  0  0  0  0
   -6.8150   19.2900  -32.4360 C   0  0  0  0  0  0  0  0  0  0  0  0
   -9.2468   18.3927  -30.6721 H   0  0  0  0  0  0  0  0  0  0  0  0
  -10.0761   18.8203  -32.2070 H   0  0  0  0  0  0  0  0  0  0  0  0
   -8.7624   17.5952  -32.2070 H   0  0  0  0  0  0  0  0  0  0  0  0
   -9.4217   21.2057  -31.3377 H   0  0  0  0  0  0  0  0  0  0  0  0
   -7.8884   23.5541  -30.5469 H   0  0  0  0  0  0  0  0  0  0  0  0
   -7.0936   24.0676  -32.0737 H   0  0  0  0  0  0  0  0  0  0  0  0
   -8.8326   23.6174  -32.0737 H   0  0  0  0  0  0  0  0  0  0  0  0
   -4.9720   22.9340  -33.5840 H   0  0  0  0  0  0  0  0  0  0  0  0
   -3.1688   21.5327  -31.3089 H   0  0  0  0  0  0  0  0  0  0  0  0
   -1.5907   21.6239  -26.8178 H   0  0  0  0  0  0  0  0  0  0  0  0
    0.0501   22.3985  -25.1108 H   0  0  0  0  0  0  0  0  0  0  0  0
    4.1610   23.7760  -25.0860 H   0  0  0  0  0  0  0  0  0  0  0  0
    1.9268   24.9382  -28.0814 H   0  0  0  0  0  0  0  0  0  0  0  0
    0.2803   24.1582  -29.7811 H   0  0  0  0  0  0  0  0  0  0  0  0
   -4.3890   25.9760  -29.6870 H   0  0  0  0  0  0  0  0  0  0  0  0
   -3.8292   19.7078  -32.1977 H   0  0  0  0  0  0  0  0  0  0  0  0
   -4.5300   18.9746  -33.6803 H   0  0  0  0  0  0  0  0  0  0  0  0
   -4.0342   20.7012  -33.6803 H   0  0  0  0  0  0  0  0  0  0  0  0
   -6.5592   18.2394  -32.6379 H   0  0  0  0  0  0  0  0  0  0  0  0
  1  2  1  0
  2  3  2  0
  3  4  1  0
  4  5  1  0
  4  6  2  0
  6  7  1  0
  7  8  1  0
  8  9  2  0
  9 10  1  0
 10 11  2  3
 11 12  1  0
 12 13  2  0
 13 14  1  0
 14 15  2  0
 15 16  1  0
 16 17  1  0
 16 18  2  0
 15 19  1  0
 19 20  2  0
 10 21  1  0
 21 22  2  0
 21 23  1  0
 23 24  1  0
  6 25  1  0
 25 26  1  0
 25 27  2  0
 27  2  1  0
 24  8  1  0
 20 12  1  0
  1 28  1  0
  1 29  1  0
  1 30  1  0
  3 31  1  0
  5 32  1  0
  5 33  1  0
  5 34  1  0
  7 35  1  0
  9 36  1  0
 13 37  1  0
 14 38  1  0
 17 39  1  0
 19 40  1  0
 20 41  1  0
 23 42  1  0
 26 43  1  0
 26 44  1  0
 26 45  1  0
 27 46  1  0
M  CHG  2  17  -1  24  -1
M  END
>  <UniqueID>  (32) 
32

>  <SMILES>  (32) 
Cc1cc(C)c(Nc2cc(=Nc3ccc(C([NH-])=O)cc3)c(=O)[nH][n-]2)c(C)c1

>  <Energy>  (32) 
67.67406339328964

>  <Genealogy>  (32) 
Cc1cc(C)c(Nc2cc(=Nc3ccc(C([NH-])=O)cc3)c(=O)[nH][n-]2)c(C)c1 (protonated)
Cc1cc(C)c(Nc2cc(=Nc3ccc(C([NH-])=O)cc3)c(=O)[nH][n-]2)c(C)c1 (3D coordinates assigned)
Cc1cc(C)c(Nc2cc(=Nc3ccc(C([NH-])=O)cc3)c(=O)[nH][n-]2)c(C)c1 (optimized conformer: 67.67406339328964 kcal/mol)

>  <smiles>  (32) 
Cc1cc(C)c(Nc2cc(=Nc3ccc(C(N)=O)cc3)c(=O)[nH][nH]2)c(C)c1

>  <score_type>  (32) 
oracle

>  <origin>  (32) 
adgpu

>  <m_score__min__energy>  (32) 
-9.5600000000000005

>  <m_primary>  (32) 
energy

$$$$
32:0
     RDKit          3D

 83 87  0  0  0  0  0  0  0  0999 V2000
   -2.4080   19.6540  -32.6620 C   0  0  0  0  0  0  0  0  0  0  0  0
   -1.8790   18.3340  -33.1380 C   0  0  0  0  0  0  0  0  0  0  0  0
   -2.5090   17.1960  -32.7400 N   0  0  0  0  0  0  0  0  0  0  0  0
   -2.0800   15.9650  -33.1230 C   0  0  0  0  0  0  0  0  0  0  0  0
   -2.7680   14.7340  -32.6100 C   0  0  0  0  0  0  0  0  0  0  0  0
   -4.1850   14.7540  -32.9600 N   0  0  0  0  0  0  0  0  0  0  0  0
   -4.9310   15.9650  -33.1320 C   0  0  0  0  0  0  0  0  0  0  0  0
   -5.7180   16.6000  -32.1890 C   0  0  0  0  0  0  0  0  0  0  0  0
   -6.2050   17.7360  -32.8130 C   0  0  0  0  0  0  0  0  0  0  0  0
   -6.9900   18.7800  -32.1270 C   0  0  0  0  0  0  0  0  0  0  0  0
   -7.6800   18.4680  -31.1210 O   0  0  0  0  0  0  0  0  0  0  0  0
   -6.8600   20.1460  -32.5360 N   0  0  0  0  0  0  0  0  0  0  0  0
   -6.0490   21.1780  -31.9540 C   0  0  0  0  0  0  0  0  0  0  0  0
   -6.5780   21.8840  -30.8680 C   0  0  0  0  0  0  0  0  0  0  0  0
   -5.8970   22.9760  -30.3300 C   0  0  0  0  0  0  0  0  0  0  0  0
   -4.6590   23.3690  -30.8600 C   0  0  0  0  0  0  0  0  0  0  0  0
   -3.9840   24.5810  -30.3470 C   0  0  0  0  0  0  0  0  0  0  0  0
   -4.2720   25.7070  -30.8320 O   0  0  0  0  0  0  0  0  0  0  0  0
   -2.9850   24.4970  -29.3220 N   0  0  0  0  0  0  0  0  0  0  0  0
   -2.4460   23.2600  -28.8410 C   0  0  0  0  0  0  0  0  0  0  0  0
   -1.1120   22.9060  -28.8040 C   0  0  0  0  0  0  0  0  0  0  0  0
   -1.0700   21.6380  -28.2430 C   0  0  0  0  0  0  0  0  0  0  0  0
    0.1520   20.8210  -28.0210 C   0  0  0  0  0  0  0  0  0  0  0  0
    1.1880   21.3860  -27.5820 O   0  0  0  0  0  0  0  0  0  0  0  0
    0.2230   19.4150  -28.3100 N   0  0  0  0  0  0  0  0  0  0  0  0
   -0.0180   18.7800  -29.5990 C   0  0  0  0  0  0  0  0  0  0  0  0
    0.6750   19.5530  -30.7360 C   0  0  0  0  0  0  0  0  0  0  0  0
    1.5940   18.7670  -31.5920 N   0  0  0  0  0  0  0  0  0  0  0  0
    1.3210   17.3200  -31.5700 C   0  0  0  0  0  0  0  0  0  0  0  0
    2.3370   16.5630  -32.4470 C   0  0  0  0  0  0  0  0  0  0  0  0
    3.0390   17.4550  -33.2900 O   0  0  0  0  0  0  0  0  0  0  0  0
    3.8410   18.3220  -32.5090 C   0  0  0  0  0  0  0  0  0  0  0  0
    3.0280   19.0470  -31.4140 C   0  0  0  0  0  0  0  0  0  0  0  0
   -2.3350   21.2210  -27.9780 N   0  0  0  0  0  0  0  0  0  0  0  0
   -2.7460   19.9360  -27.4170 C   0  0  0  0  0  0  0  0  0  0  0  0
   -3.1770   22.2040  -28.3540 C   0  0  0  0  0  0  0  0  0  0  0  0
   -4.0890   22.6210  -31.9000 C   0  0  0  0  0  0  0  0  0  0  0  0
   -4.7820   21.5350  -32.4510 C   0  0  0  0  0  0  0  0  0  0  0  0
   -5.7560   17.7930  -34.0920 N   0  0  0  0  0  0  0  0  0  0  0  0
   -6.0290   18.8230  -35.0930 C   0  0  0  0  0  0  0  0  0  0  0  0
   -4.9720   16.7140  -34.2880 C   0  0  0  0  0  0  0  0  0  0  0  0
   -0.9730   15.8660  -33.9700 C   0  0  0  0  0  0  0  0  0  0  0  0
   -0.3240   16.9940  -34.3550 N   0  0  0  0  0  0  0  0  0  0  0  0
   -0.7260   18.2300  -33.9520 C   0  0  0  0  0  0  0  0  0  0  0  0
    0.0690   19.4280  -34.4090 C   0  0  0  0  0  0  0  0  0  0  0  0
    1.4870   19.1110  -34.5510 N   0  0  0  0  0  0  0  0  0  0  0  0
   -2.4149   19.6712  -31.5622 H   0  0  0  0  0  0  0  0  0  0  0  0
   -1.7649   20.4636  -33.0373 H   0  0  0  0  0  0  0  0  0  0  0  0
   -3.4323   19.7954  -33.0373 H   0  0  0  0  0  0  0  0  0  0  0  0
   -2.2980   13.8449  -33.0557 H   0  0  0  0  0  0  0  0  0  0  0  0
   -2.6736   14.7054  -31.5144 H   0  0  0  0  0  0  0  0  0  0  0  0
   -4.6860   13.8400  -33.0490 H   0  0  0  0  0  0  0  0  0  0  0  0
   -5.9159   16.2712  -31.1581 H   0  0  0  0  0  0  0  0  0  0  0  0
   -7.5404   21.5748  -30.4342 H   0  0  0  0  0  0  0  0  0  0  0  0
   -6.3326   23.5315  -29.4864 H   0  0  0  0  0  0  0  0  0  0  0  0
   -0.2574   23.5066  -29.1488 H   0  0  0  0  0  0  0  0  0  0  0  0
    0.3739   17.7525  -29.5722 H   0  0  0  0  0  0  0  0  0  0  0  0
   -1.1014   18.7757  -29.7892 H   0  0  0  0  0  0  0  0  0  0  0  0
   -0.1088   19.9744  -31.3825 H   0  0  0  0  0  0  0  0  0  0  0  0
    1.3045   20.3068  -30.2404 H   0  0  0  0  0  0  0  0  0  0  0  0
    1.3934   16.9541  -30.5352 H   0  0  0  0  0  0  0  0  0  0  0  0
    0.3100   17.1438  -31.9660 H   0  0  0  0  0  0  0  0  0  0  0  0
    3.0550   16.0410  -31.7974 H   0  0  0  0  0  0  0  0  0  0  0  0
    1.7918   15.8423  -33.0741 H   0  0  0  0  0  0  0  0  0  0  0  0
    4.6345   17.7316  -32.0276 H   0  0  0  0  0  0  0  0  0  0  0  0
    4.2593   19.0875  -33.1792 H   0  0  0  0  0  0  0  0  0  0  0  0
    3.3497   18.6912  -30.4241 H   0  0  0  0  0  0  0  0  0  0  0  0
    3.1994   20.1308  -31.4912 H   0  0  0  0  0  0  0  0  0  0  0  0
   -2.7278   19.9928  -26.3186 H   0  0  0  0  0  0  0  0  0  0  0  0
   -3.7652   19.6975  -27.7550 H   0  0  0  0  0  0  0  0  0  0  0  0
   -2.0543   19.1503  -27.7550 H   0  0  0  0  0  0  0  0  0  0  0  0
   -4.2740   22.1666  -28.2823 H   0  0  0  0  0  0  0  0  0  0  0  0
   -3.0937   22.8879  -32.2849 H   0  0  0  0  0  0  0  0  0  0  0  0
   -4.3341   20.9597  -33.2747 H   0  0  0  0  0  0  0  0  0  0  0  0
   -6.2794   19.7677  -34.5882 H   0  0  0  0  0  0  0  0  0  0  0  0
   -5.1383   18.9682  -35.7220 H   0  0  0  0  0  0  0  0  0  0  0  0
   -6.8747   18.5080  -35.7220 H   0  0  0  0  0  0  0  0  0  0  0  0
   -4.4475   16.4698  -35.2236 H   0  0  0  0  0  0  0  0  0  0  0  0
   -0.6304   14.8817  -34.3219 H   0  0  0  0  0  0  0  0  0  0  0  0
   -0.3204   19.7648  -35.3811 H   0  0  0  0  0  0  0  0  0  0  0  0
   -0.0322   20.2175  -33.6497 H   0  0  0  0  0  0  0  0  0  0  0  0
    1.5860   18.0940  -34.7700 H   0  0  0  0  0  0  0  0  0  0  0  0
    1.9750   19.2960  -33.6440 H   0  0  0  0  0  0  0  0  0  0  0  0
  1  2  1  0
  2  3  2  0
  3  4  1  0
  4  5  1  0
  5  6  1  0
  6  7  1  0
  7  8  1  0
  8  9  2  0
  9 10  1  0
 10 11  2  0
 10 12  1  0
 12 13  1  0
 13 14  2  0
 14 15  1  0
 15 16  2  0
 16 17  1  0
 17 18  2  0
 17 19  1  0
 19 20  1  0
 20 21  1  0
 21 22  2  0
 22 23  1  0
 23 24  2  0
 23 25  1  0
 25 26  1  0
 26 27  1  0
 27 28  1  0
 28 29  1  0
 29 30  1  0
 30 31  1  0
 31 32  1  0
 32 33  1  0
 22 34  1  0
 34 35  1  0
 34 36  1  0
 16 37  1  0
 37 38  2  0
  9 39  1  0
 39 40  1  0
 39 41  1  0
  4 42  2  0
 42 43  1  0
 43 44  2  0
 44 45  1  0
 45 46  1  0
 44  2  1  0
 41  7  2  0
 38 13  1  0
 36 20  2  0
 33 28  1  0
  1 47  1  0
  1 48  1  0
  1 49  1  0
  5 50  1  0
  5 51  1  0
  6 52  1  0
  8 53  1  0
 14 54  1  0
 15 55  1  0
 21 56  1  0
 26 57  1  0
 26 58  1  0
 27 59  1  0
 27 60  1  0
 29 61  1  0
 29 62  1  0
 30 63  1  0
 30 64  1  0
 32 65  1  0
 32 66  1  0
 33 67  1  0
 33 68  1  0
 35 69  1  0
 35 70  1  0
 35 71  1  0
 36 72  1  0
 37 73  1  0
 38 74  1  0
 40 75  1  0
 40 76  1  0
 40 77  1  0
 41 78  1  0
 42 79  1  0
 45 80  1  0
 45 81  1  0
 46 82  1  0
 46 83  1  0
M  CHG  3  12  -1  19  -1  25  -1
M  END
>  <UniqueID>  (33) 
33

>  <SMILES>  (33) 
Cc1nc(CNc2cc(C(=O)[N-]c3ccc(C(=O)[N-]c4cc(C(=O)[N-]CCN5CCOCC5)n(C)c4)cc3)n(C)c2)cnc1CN

>  <Energy>  (33) 
155.24220011737052

>  <Genealogy>  (33) 
Cc1nc(CNc2cc(C(=O)[N-]c3ccc(C(=O)[N-]c4cc(C(=O)[N-]CCN5CCOCC5)n(C)c4)cc3)n(C)c2)cnc1CN (protonated)
Cc1nc(CNc2cc(C(=O)[N-]c3ccc(C(=O)[N-]c4cc(C(=O)[N-]CCN5CCOCC5)n(C)c4)cc3)n(C)c2)cnc1CN (3D coordinates assigned)
Cc1nc(CNc2cc(C(=O)[N-]c3ccc(C(=O)[N-]c4cc(C(=O)[N-]CCN5CCOCC5)n(C)c4)cc3)n(C)c2)cnc1CN (nonaromatic ring conformer: 155.24220011737052 kcal/mol)

>  <smiles>  (33) 
Cc1nc(CNc2cc(C(=O)Nc3ccc(C(=O)Nc4cc(C(=O)NCCN5CCOCC5)n(C)c4)cc3)n(C)c2)cnc1CN

>  <score_type>  (33) 
oracle

>  <origin>  (33) 
adgpu

>  <m_score__min__energy>  (33) 
-11.16

>  <m_primary>  (33) 
energy

$$$$
33:0
     RDKit          3D

 59 62  0  0  0  0  0  0  0  0999 V2000
   -3.2290   24.3310  -28.7480 O   0  0  0  0  0  0  0  0  0  0  0  0
   -4.0620   24.0650  -29.9700 S   0  0  0  0  0  0  0  0  0  0  0  0
   -4.0200   25.2720  -30.8660 O   0  0  0  0  0  0  0  0  0  0  0  0
   -5.7050   23.7570  -29.4990 N   0  0  0  0  0  0  0  0  0  0  0  0
   -6.6710   23.1850  -30.3930 C   0  0  0  0  0  0  0  0  0  0  0  0
   -7.6200   23.9850  -31.0540 C   0  0  0  0  0  0  0  0  0  0  0  0
   -8.5190   23.4120  -31.9570 C   0  0  0  0  0  0  0  0  0  0  0  0
   -8.4920   22.0360  -32.1930 C   0  0  0  0  0  0  0  0  0  0  0  0
   -7.5740   21.2200  -31.5150 C   0  0  0  0  0  0  0  0  0  0  0  0
   -7.5570   19.4780  -31.7870 S   0  0  0  0  0  0  0  0  0  0  0  0
   -6.5070   18.8420  -30.9180 O   0  0  0  0  0  0  0  0  0  0  0  0
   -8.8930   18.8940  -31.4200 O   0  0  0  0  0  0  0  0  0  0  0  0
   -7.1530   19.1510  -33.4470 N   0  0  0  0  0  0  0  0  0  0  0  0
   -6.1000   18.4920  -33.8440 C   0  0  0  0  0  0  0  0  0  0  0  0
   -5.0030   17.9850  -32.9770 C   0  0  0  0  0  0  0  0  0  0  0  0
   -4.1200   17.1850  -33.9440 C   0  0  0  0  0  0  0  0  0  0  0  0
   -4.6370   17.4670  -35.3690 C   0  0  0  0  0  0  0  0  0  0  0  0
   -5.8740   18.2020  -35.2080 N   0  0  0  0  0  0  0  0  0  0  0  0
   -6.6710   21.8000  -30.6150 C   0  0  0  0  0  0  0  0  0  0  0  0
   -3.4240   22.6470  -30.7960 C   0  0  0  0  0  0  0  0  0  0  0  0
   -3.8740   22.3420  -32.0880 C   0  0  0  0  0  0  0  0  0  0  0  0
   -3.2620   21.3250  -32.8230 C   0  0  0  0  0  0  0  0  0  0  0  0
   -2.1890   20.6090  -32.2760 C   0  0  0  0  0  0  0  0  0  0  0  0
   -1.3170   19.4500  -33.2750 S   0  0  0  0  0  0  0  0  0  0  0  0
   -2.0260   19.3340  -34.5920 O   0  0  0  0  0  0  0  0  0  0  0  0
   -1.3210   18.1030  -32.6140 O   0  0  0  0  0  0  0  0  0  0  0  0
    0.3260   19.9880  -33.5510 N   0  0  0  0  0  0  0  0  0  0  0  0
    1.0030   19.2000  -34.5960 C   0  0  0  0  0  0  0  0  0  0  0  0
    0.4840   19.5380  -36.0100 C   0  0  0  0  0  0  0  0  0  0  0  0
   -0.2170   20.7680  -36.0730 O   0  0  0  0  0  0  0  0  0  0  0  0
    0.4580   21.7560  -35.3300 C   0  0  0  0  0  0  0  0  0  0  0  0
    0.3840   21.4400  -33.8270 C   0  0  0  0  0  0  0  0  0  0  0  0
   -1.7620   20.8910  -30.9720 C   0  0  0  0  0  0  0  0  0  0  0  0
   -2.3830   21.9000  -30.2320 C   0  0  0  0  0  0  0  0  0  0  0  0
   -5.9250   23.8090  -28.4820 H   0  0  0  0  0  0  0  0  0  0  0  0
   -7.6547   25.0671  -30.8592 H   0  0  0  0  0  0  0  0  0  0  0  0
   -9.2488   24.0454  -32.4825 H   0  0  0  0  0  0  0  0  0  0  0  0
   -9.1934   21.5900  -32.9135 H   0  0  0  0  0  0  0  0  0  0  0  0
   -7.8450   19.4700  -34.1640 H   0  0  0  0  0  0  0  0  0  0  0  0
   -4.4405   18.8170  -32.5283 H   0  0  0  0  0  0  0  0  0  0  0  0
   -5.3690   17.3815  -32.1333 H   0  0  0  0  0  0  0  0  0  0  0  0
   -3.0722   17.5069  -33.8522 H   0  0  0  0  0  0  0  0  0  0  0  0
   -4.1652   16.1097  -33.7168 H   0  0  0  0  0  0  0  0  0  0  0  0
   -3.9055   18.0683  -35.9287 H   0  0  0  0  0  0  0  0  0  0  0  0
   -4.7931   16.5351  -35.9321 H   0  0  0  0  0  0  0  0  0  0  0  0
   -6.4870   18.5120  -35.9970 H   0  0  0  0  0  0  0  0  0  0  0  0
   -5.9542   21.1626  -30.0766 H   0  0  0  0  0  0  0  0  0  0  0  0
   -4.7119   22.9057  -32.5241 H   0  0  0  0  0  0  0  0  0  0  0  0
   -3.6231   21.0852  -33.8340 H   0  0  0  0  0  0  0  0  0  0  0  0
    2.0819   19.4104  -34.5551 H   0  0  0  0  0  0  0  0  0  0  0  0
    0.7947   18.1369  -34.4052 H   0  0  0  0  0  0  0  0  0  0  0  0
    1.3441   19.5914  -36.6936 H   0  0  0  0  0  0  0  0  0  0  0  0
   -0.2242   18.7457  -36.2940 H   0  0  0  0  0  0  0  0  0  0  0  0
    1.5123   21.7874  -35.6423 H   0  0  0  0  0  0  0  0  0  0  0  0
   -0.0197   22.7296  -35.5140 H   0  0  0  0  0  0  0  0  0  0  0  0
    1.2758   21.8562  -33.3356 H   0  0  0  0  0  0  0  0  0  0  0  0
   -0.5418   21.8893  -33.4383 H   0  0  0  0  0  0  0  0  0  0  0  0
   -0.9352   20.3162  -30.5294 H   0  0  0  0  0  0  0  0  0  0  0  0
   -2.0532   22.1081  -29.2035 H   0  0  0  0  0  0  0  0  0  0  0  0
  1  2  2  0
  2  3  2  0
  2  4  1  0
  4  5  1  0
  5  6  2  0
  6  7  1  0
  7  8  2  0
  8  9  1  0
  9 10  1  0
 10 11  2  0
 10 12  2  0
 10 13  1  0
 13 14  2  3
 14 15  1  0
 15 16  1  0
 16 17  1  0
 17 18  1  0
  9 19  2  0
  2 20  1  0
 20 21  2  0
 21 22  1  0
 22 23  2  0
 23 24  1  0
 24 25  2  0
 24 26  2  0
 24 27  1  0
 27 28  1  0
 28 29  1  0
 29 30  1  0
 30 31  1  0
 31 32  1  0
 23 33  1  0
 33 34  2  0
 19  5  1  0
 34 20  1  0
 18 14  1  0
 32 27  1  0
  4 35  1  0
  6 36  1  0
  7 37  1  0
  8 38  1  0
 13 39  1  0
 15 40  1  0
 15 41  1  0
 16 42  1  0
 16 43  1  0
 17 44  1  0
 17 45  1  0
 18 46  1  0
 19 47  1  0
 21 48  1  0
 22 49  1  0
 28 50  1  0
 28 51  1  0
 29 52  1  0
 29 53  1  0
 31 54  1  0
 31 55  1  0
 32 56  1  0
 32 57  1  0
 33 58  1  0
 34 59  1  0
M  CHG  1  13   1
M  END
>  <UniqueID>  (34) 
34

>  <SMILES>  (34) 
O=S(=O)(Nc1cccc(S(=O)(=O)[NH+]=C2CCCN2)c1)c1ccc(S(=O)(=O)N2CCOCC2)cc1

>  <Energy>  (34) 
83.7067023148495

>  <Genealogy>  (34) 
O=S(=O)(Nc1cccc(S(=O)(=O)[NH+]=C2CCCN2)c1)c1ccc(S(=O)(=O)N2CCOCC2)cc1 (protonated)
O=S(=O)(Nc1cccc(S(=O)(=O)[NH+]=C2CCCN2)c1)c1ccc(S(=O)(=O)N2CCOCC2)cc1 (3D coordinates assigned)
O=S(=O)(Nc1cccc(S(=O)(=O)[NH+]=C2CCCN2)c1)c1ccc(S(=O)(=O)N2CCOCC2)cc1 (nonaromatic ring conformer: 83.7067023148495 kcal/mol)

>  <smiles>  (34) 
O=S(=O)(N=C1CCCN1)c1cccc(NS(=O)(=O)c2ccc(S(=O)(=O)N3CCOCC3)cc2)c1

>  <score_type>  (34) 
oracle

>  <origin>  (34) 
adgpu

>  <m_score__min__energy>  (34) 
-12.65

>  <m_primary>  (34) 
energy

$$$$
34:0
     RDKit          3D

 45 47  0  0  0  0  0  0  0  0999 V2000
   -6.9220   24.8050  -30.5050 N   0  0  0  0  0  0  0  0  0  0  0  0
   -6.8620   23.4910  -31.0760 C   0  0  0  0  0  0  0  0  0  0  0  0
   -8.0310   22.7170  -31.1230 C   0  0  0  0  0  0  0  0  0  0  0  0
   -8.0320   21.4720  -31.7550 C   0  0  0  0  0  0  0  0  0  0  0  0
   -6.8670   20.9900  -32.3620 C   0  0  0  0  0  0  0  0  0  0  0  0
   -6.8630   19.4270  -33.1720 S   0  0  0  0  0  0  0  0  0  0  0  0
   -6.5030   19.6120  -34.6210 O   0  0  0  0  0  0  0  0  0  0  0  0
   -8.2410   18.8340  -33.0770 O   0  0  0  0  0  0  0  0  0  0  0  0
   -5.6960   18.3760  -32.3990 N   0  0  0  0  0  0  0  0  0  0  0  0
   -4.3240   18.5820  -32.9290 C   0  0  0  0  0  0  0  0  0  0  0  0
   -3.7210   17.3410  -33.6090 C   0  0  0  0  0  0  0  0  0  0  0  0
   -4.7500   16.6780  -34.5220 C   0  0  0  0  0  0  0  0  0  0  0  0
   -6.0280   16.2870  -33.7590 C   0  0  0  0  0  0  0  0  0  0  0  0
   -6.1470   16.9700  -32.3840 C   0  0  0  0  0  0  0  0  0  0  0  0
   -5.6920   21.7480  -32.3030 C   0  0  0  0  0  0  0  0  0  0  0  0
   -5.6700   22.9810  -31.6400 C   0  0  0  0  0  0  0  0  0  0  0  0
   -4.4200   23.6820  -31.5540 N   0  0  0  0  0  0  0  0  0  0  0  0
   -3.9680   24.4430  -30.4250 C   0  0  0  0  0  0  0  0  0  0  0  0
   -4.2270   25.6760  -30.3870 O   0  0  0  0  0  0  0  0  0  0  0  0
   -3.1860   23.8280  -29.3270 C   0  0  0  0  0  0  0  0  0  0  0  0
   -3.5760   22.5880  -28.7890 C   0  0  0  0  0  0  0  0  0  0  0  0
   -2.8440   22.0030  -27.7520 C   0  0  0  0  0  0  0  0  0  0  0  0
   -1.7090   22.6430  -27.2480 C   0  0  0  0  0  0  0  0  0  0  0  0
   -1.3040   23.8670  -27.7820 C   0  0  0  0  0  0  0  0  0  0  0  0
   -2.0330   24.4630  -28.8180 C   0  0  0  0  0  0  0  0  0  0  0  0
   -1.6150   25.6900  -29.3200 O   0  0  0  0  0  0  0  0  0  0  0  0
   -6.0640   25.3820  -30.3650 H   0  0  0  0  0  0  0  0  0  0  0  0
   -7.8420   25.2560  -30.3070 H   0  0  0  0  0  0  0  0  0  0  0  0
   -8.9541   23.0939  -30.6583 H   0  0  0  0  0  0  0  0  0  0  0  0
   -8.9513   20.8683  -31.7758 H   0  0  0  0  0  0  0  0  0  0  0  0
   -4.3572   19.3980  -33.6660 H   0  0  0  0  0  0  0  0  0  0  0  0
   -3.6822   18.8147  -32.0665 H   0  0  0  0  0  0  0  0  0  0  0  0
   -2.8486   17.6438  -34.2067 H   0  0  0  0  0  0  0  0  0  0  0  0
   -3.4184   16.6222  -32.8333 H   0  0  0  0  0  0  0  0  0  0  0  0
   -5.0166   17.3800  -35.3258 H   0  0  0  0  0  0  0  0  0  0  0  0
   -4.3022   15.7596  -34.9294 H   0  0  0  0  0  0  0  0  0  0  0  0
   -6.8992   16.5717  -34.3673 H   0  0  0  0  0  0  0  0  0  0  0  0
   -5.9840   15.2022  -33.5822 H   0  0  0  0  0  0  0  0  0  0  0  0
   -7.2005   16.9428  -32.0688 H   0  0  0  0  0  0  0  0  0  0  0  0
   -5.4963   16.4224  -31.6864 H   0  0  0  0  0  0  0  0  0  0  0  0
   -4.7764   21.3712  -32.7824 H   0  0  0  0  0  0  0  0  0  0  0  0
   -4.4637   22.0750  -29.1875 H   0  0  0  0  0  0  0  0  0  0  0  0
   -3.1620   21.0373  -27.3321 H   0  0  0  0  0  0  0  0  0  0  0  0
   -1.1349   22.1823  -26.4306 H   0  0  0  0  0  0  0  0  0  0  0  0
   -0.4071   24.3663  -27.3868 H   0  0  0  0  0  0  0  0  0  0  0  0
  1  2  1  0
  2  3  2  0
  3  4  1  0
  4  5  2  0
  5  6  1  0
  6  7  2  0
  6  8  2  0
  6  9  1  0
  9 10  1  0
 10 11  1  0
 11 12  1  0
 12 13  1  0
 13 14  1  0
  5 15  1  0
 15 16  2  0
 16 17  1  0
 17 18  1  0
 18 19  2  0
 18 20  1  0
 20 21  2  0
 21 22  1  0
 22 23  2  0
 23 24  1  0
 24 25  2  0
 25 26  1  0
 16  2  1  0
 25 20  1  0
 14  9  1  0
  1 27  1  0
  1 28  1  0
  3 29  1  0
  4 30  1  0
 10 31  1  0
 10 32  1  0
 11 33  1  0
 11 34  1  0
 12 35  1  0
 12 36  1  0
 13 37  1  0
 13 38  1  0
 14 39  1  0
 14 40  1  0
 15 41  1  0
 21 42  1  0
 22 43  1  0
 23 44  1  0
 24 45  1  0
M  CHG  2  17  -1  26  -1
M  END
>  <UniqueID>  (35) 
35

>  <SMILES>  (35) 
Nc1ccc(S(=O)(=O)N2CCCCC2)cc1[N-]C(=O)c1ccccc1[O-]

>  <Energy>  (35) 
63.801593010493164

>  <Genealogy>  (35) 
Nc1ccc(S(=O)(=O)N2CCCCC2)cc1[N-]C(=O)c1ccccc1[O-] (protonated)
Nc1ccc(S(=O)(=O)N2CCCCC2)cc1[N-]C(=O)c1ccccc1[O-] (3D coordinates assigned)
Nc1ccc(S(=O)(=O)N2CCCCC2)cc1[N-]C(=O)c1ccccc1[O-] (nonaromatic ring conformer: 63.801593010493164 kcal/mol)

>  <smiles>  (35) 
Nc1ccc(S(=O)(=O)N2CCCCC2)cc1NC(=O)c1ccccc1O

>  <score_type>  (35) 
oracle

>  <origin>  (35) 
adgpu

>  <m_score__min__energy>  (35) 
-13.4

>  <m_primary>  (35) 
energy

$$$$
35:0
     RDKit          3D

 55 58  0  0  0  0  0  0  0  0999 V2000
   -2.4240   20.2690  -30.7180 O   0  0  0  0  0  0  0  0  0  0  0  0
   -2.8310   21.1970  -31.8270 S   0  0  0  0  0  0  0  0  0  0  0  0
   -1.9870   20.8940  -33.0340 O   0  0  0  0  0  0  0  0  0  0  0  0
   -2.5580   22.8360  -31.3260 N   0  0  0  0  0  0  0  0  0  0  0  0
   -2.2700   23.2630  -29.9860 C   0  0  0  0  0  0  0  0  0  0  0  0
   -1.5190   22.4730  -29.0980 C   0  0  0  0  0  0  0  0  0  0  0  0
   -1.2640   22.9110  -27.7880 C   0  0  0  0  0  0  0  0  0  0  0  0
   -1.7330   24.1820  -27.3750 C   0  0  0  0  0  0  0  0  0  0  0  0
   -2.4840   24.9600  -28.2640 C   0  0  0  0  0  0  0  0  0  0  0  0
   -2.7440   24.5060  -29.5590 C   0  0  0  0  0  0  0  0  0  0  0  0
   -3.4880   25.3050  -30.4230 O   0  0  0  0  0  0  0  0  0  0  0  0
   -1.5460   24.6690  -25.9570 C   0  0  0  0  0  0  0  0  0  0  0  0
   -0.3960   23.9560  -25.2390 C   0  0  0  0  0  0  0  0  0  0  0  0
   -0.5210   22.4440  -25.4130 C   0  0  0  0  0  0  0  0  0  0  0  0
   -0.3970   22.0600  -26.8910 C   0  0  0  0  0  0  0  0  0  0  0  0
   -4.5410   20.9570  -32.1680 C   0  0  0  0  0  0  0  0  0  0  0  0
   -5.3770   22.0440  -32.4500 C   0  0  0  0  0  0  0  0  0  0  0  0
   -6.7330   21.8380  -32.6970 C   0  0  0  0  0  0  0  0  0  0  0  0
   -7.2760   20.5480  -32.6750 C   0  0  0  0  0  0  0  0  0  0  0  0
   -8.6490   20.4090  -32.9040 O   0  0  0  0  0  0  0  0  0  0  0  0
   -6.4330   19.4410  -32.4190 C   0  0  0  0  0  0  0  0  0  0  0  0
   -7.0440   17.7810  -32.4460 S   0  0  0  0  0  0  0  0  0  0  0  0
   -6.4670   17.0050  -31.2950 O   0  0  0  0  0  0  0  0  0  0  0  0
   -8.5410   17.8160  -32.3080 O   0  0  0  0  0  0  0  0  0  0  0  0
   -6.5890   17.0150  -33.9520 N   0  0  0  0  0  0  0  0  0  0  0  0
   -5.8180   17.9330  -34.8300 C   0  0  0  0  0  0  0  0  0  0  0  0
   -4.4260   17.4080  -35.2140 C   0  0  0  0  0  0  0  0  0  0  0  0
   -3.7020   16.8810  -33.9760 C   0  0  0  0  0  0  0  0  0  0  0  0
   -4.5070   15.7780  -33.2620 C   0  0  0  0  0  0  0  0  0  0  0  0
   -5.9730   15.6900  -33.7320 C   0  0  0  0  0  0  0  0  0  0  0  0
   -5.0720   19.6620  -32.1570 C   0  0  0  0  0  0  0  0  0  0  0  0
   -1.1269   21.5013  -29.4328 H   0  0  0  0  0  0  0  0  0  0  0  0
   -2.8725   25.9368  -27.9400 H   0  0  0  0  0  0  0  0  0  0  0  0
   -1.3328   25.7479  -25.9797 H   0  0  0  0  0  0  0  0  0  0  0  0
   -2.4716   24.4513  -25.4039 H   0  0  0  0  0  0  0  0  0  0  0  0
    0.5614   24.2925  -25.6635 H   0  0  0  0  0  0  0  0  0  0  0  0
   -0.4378   24.1981  -24.1668 H   0  0  0  0  0  0  0  0  0  0  0  0
    0.2771   21.9470  -24.8420 H   0  0  0  0  0  0  0  0  0  0  0  0
   -1.5071   22.1246  -25.0448 H   0  0  0  0  0  0  0  0  0  0  0  0
    0.6522   22.1795  -27.1990 H   0  0  0  0  0  0  0  0  0  0  0  0
   -0.7344   21.0180  -26.9934 H   0  0  0  0  0  0  0  0  0  0  0  0
   -4.9627   23.0627  -32.4767 H   0  0  0  0  0  0  0  0  0  0  0  0
   -7.3837   22.6985  -32.9116 H   0  0  0  0  0  0  0  0  0  0  0  0
   -9.0530   19.6320  -33.4100 H   0  0  0  0  0  0  0  0  0  0  0  0
   -6.3940   18.0936  -35.7533 H   0  0  0  0  0  0  0  0  0  0  0  0
   -5.6622   18.8615  -34.2611 H   0  0  0  0  0  0  0  0  0  0  0  0
   -4.5336   16.5942  -35.9462 H   0  0  0  0  0  0  0  0  0  0  0  0
   -3.8397   18.2300  -35.6505 H   0  0  0  0  0  0  0  0  0  0  0  0
   -2.7291   16.4689  -34.2821 H   0  0  0  0  0  0  0  0  0  0  0  0
   -3.5764   17.7184  -33.2738 H   0  0  0  0  0  0  0  0  0  0  0  0
   -4.0202   14.8106  -33.4546 H   0  0  0  0  0  0  0  0  0  0  0  0
   -4.5232   16.0286  -32.1911 H   0  0  0  0  0  0  0  0  0  0  0  0
   -6.0051   15.1272  -34.6766 H   0  0  0  0  0  0  0  0  0  0  0  0
   -6.5443   15.1894  -32.9363 H   0  0  0  0  0  0  0  0  0  0  0  0
   -4.4146   18.8071  -31.9404 H   0  0  0  0  0  0  0  0  0  0  0  0
  1  2  2  0
  2  3  2  0
  2  4  1  0
  4  5  1  0
  5  6  2  0
  6  7  1  0
  7  8  2  0
  8  9  1  0
  9 10  2  0
 10 11  1  0
  8 12  1  0
 12 13  1  0
 13 14  1  0
 14 15  1  0
  2 16  1  0
 16 17  2  0
 17 18  1  0
 18 19  2  0
 19 20  1  0
 19 21  1  0
 21 22  1  0
 22 23  2  0
 22 24  2  0
 22 25  1  0
 25 26  1  0
 26 27  1  0
 27 28  1  0
 28 29  1  0
 29 30  1  0
 21 31  2  0
 10  5  1  0
 31 16  1  0
 15  7  1  0
 30 25  1  0
  6 32  1  0
  9 33  1  0
 12 34  1  0
 12 35  1  0
 13 36  1  0
 13 37  1  0
 14 38  1  0
 14 39  1  0
 15 40  1  0
 15 41  1  0
 17 42  1  0
 18 43  1  0
 20 44  1  0
 26 45  1  0
 26 46  1  0
 27 47  1  0
 27 48  1  0
 28 49  1  0
 28 50  1  0
 29 51  1  0
 29 52  1  0
 30 53  1  0
 30 54  1  0
 31 55  1  0
M  CHG  2   4  -1  11  -1
M  END
>  <UniqueID>  (36) 
36

>  <SMILES>  (36) 
O=S(=O)([N-]c1cc2c(cc1[O-])CCCC2)c1ccc(O)c(S(=O)(=O)N2CCCCC2)c1

>  <Energy>  (36) 
68.38861703387673

>  <Genealogy>  (36) 
O=S(=O)([N-]c1cc2c(cc1[O-])CCCC2)c1ccc(O)c(S(=O)(=O)N2CCCCC2)c1 (protonated)
O=S(=O)([N-]c1cc2c(cc1[O-])CCCC2)c1ccc(O)c(S(=O)(=O)N2CCCCC2)c1 (3D coordinates assigned)
O=S(=O)([N-]c1cc2c(cc1[O-])CCCC2)c1ccc(O)c(S(=O)(=O)N2CCCCC2)c1 (nonaromatic ring conformer: 68.38861703387673 kcal/mol)

>  <smiles>  (36) 
O=S(=O)(Nc1cc2c(cc1O)CCCC2)c1ccc(O)c(S(=O)(=O)N2CCCCC2)c1

>  <score_type>  (36) 
oracle

>  <origin>  (36) 
adgpu

>  <m_score__min__energy>  (36) 
-15.210000000000001

>  <m_primary>  (36) 
energy

$$$$
36:0
     RDKit          3D

 36 38  0  0  0  0  0  0  0  0999 V2000
   -9.9090   19.7830  -32.7150 O   0  0  0  0  0  0  0  0  0  0  0  0
   -8.7950   20.3440  -32.5360 C   0  0  0  0  0  0  0  0  0  0  0  0
   -8.7700   21.7630  -32.3240 N   0  0  0  0  0  0  0  0  0  0  0  0
   -7.7460   22.4990  -31.6390 C   0  0  0  0  0  0  0  0  0  0  0  0
   -7.5030   22.3220  -30.2660 C   0  0  0  0  0  0  0  0  0  0  0  0
   -6.5030   23.0610  -29.6280 C   0  0  0  0  0  0  0  0  0  0  0  0
   -5.7530   24.0090  -30.3390 C   0  0  0  0  0  0  0  0  0  0  0  0
   -4.7140   24.7390  -29.6640 N   0  0  0  0  0  0  0  0  0  0  0  0
   -3.3320   24.3450  -29.6610 C   0  0  0  0  0  0  0  0  0  0  0  0
   -2.9030   23.5250  -30.5170 O   0  0  0  0  0  0  0  0  0  0  0  0
   -2.3830   24.9210  -28.6950 C   0  0  0  0  0  0  0  0  0  0  0  0
   -2.1520   24.4870  -27.4030 C   0  0  0  0  0  0  0  0  0  0  0  0
   -1.1820   25.3250  -26.8960 C   0  0  0  0  0  0  0  0  0  0  0  0
   -0.8800   26.2160  -27.9050 C   0  0  0  0  0  0  0  0  0  0  0  0
   -1.6110   25.9500  -28.9620 O   0  0  0  0  0  0  0  0  0  0  0  0
   -6.0010   24.1860  -31.7120 C   0  0  0  0  0  0  0  0  0  0  0  0
   -7.0000   23.4440  -32.3500 C   0  0  0  0  0  0  0  0  0  0  0  0
   -7.5550   19.5360  -32.6040 C   0  0  0  0  0  0  0  0  0  0  0  0
   -7.6130   18.1400  -32.4430 C   0  0  0  0  0  0  0  0  0  0  0  0
   -6.4470   17.3720  -32.5040 C   0  0  0  0  0  0  0  0  0  0  0  0
   -5.2140   17.9860  -32.7330 C   0  0  0  0  0  0  0  0  0  0  0  0
   -5.1450   19.3710  -32.9110 C   0  0  0  0  0  0  0  0  0  0  0  0
   -3.4600   20.2090  -33.2360 Br  0  0  0  0  0  0  0  0  0  0  0  0
   -6.3100   20.1420  -32.8540 C   0  0  0  0  0  0  0  0  0  0  0  0
   -8.1017   21.5996  -29.6919 H   0  0  0  0  0  0  0  0  0  0  0  0
   -6.3024   22.8977  -28.5588 H   0  0  0  0  0  0  0  0  0  0  0  0
   -4.9660   25.6580  -29.2370 H   0  0  0  0  0  0  0  0  0  0  0  0
   -2.6406   23.6475  -26.8868 H   0  0  0  0  0  0  0  0  0  0  0  0
   -0.7384   25.2903  -25.8900 H   0  0  0  0  0  0  0  0  0  0  0  0
   -0.1392   27.0261  -27.8343 H   0  0  0  0  0  0  0  0  0  0  0  0
   -5.4064   24.9114  -32.2867 H   0  0  0  0  0  0  0  0  0  0  0  0
   -7.2005   23.6050  -33.4195 H   0  0  0  0  0  0  0  0  0  0  0  0
   -8.5820   17.6497  -32.2680 H   0  0  0  0  0  0  0  0  0  0  0  0
   -6.5007   16.2814  -32.3713 H   0  0  0  0  0  0  0  0  0  0  0  0
   -4.2969   17.3800  -32.7734 H   0  0  0  0  0  0  0  0  0  0  0  0
   -6.2528   21.2300  -33.0057 H   0  0  0  0  0  0  0  0  0  0  0  0
  1  2  2  0
  2  3  1  0
  3  4  1  0
  4  5  2  0
  5  6  1  0
  6  7  2  0
  7  8  1  0
  8  9  1  0
  9 10  2  0
  9 11  1  0
 11 12  2  0
 12 13  1  0
 13 14  2  0
 14 15  1  0
  7 16  1  0
 16 17  2  0
  2 18  1  0
 18 19  2  0
 19 20  1  0
 20 21  2  0
 21 22  1  0
 22 23  1  0
 22 24  2  0
 17  4  1  0
 24 18  1  0
 15 11  1  0
  5 25  1  0
  6 26  1  0
  8 27  1  0
 12 28  1  0
 13 29  1  0
 14 30  1  0
 16 31  1  0
 17 32  1  0
 19 33  1  0
 20 34  1  0
 21 35  1  0
 24 36  1  0
M  CHG  1   3  -1
M  END
>  <UniqueID>  (37) 
37

>  <SMILES>  (37) 
O=C([N-]c1ccc(NC(=O)c2ccco2)cc1)c1cccc(Br)c1

>  <Energy>  (37) 
74.16728497698494

>  <Genealogy>  (37) 
O=C([N-]c1ccc(NC(=O)c2ccco2)cc1)c1cccc(Br)c1 (protonated)
O=C([N-]c1ccc(NC(=O)c2ccco2)cc1)c1cccc(Br)c1 (3D coordinates assigned)
O=C([N-]c1ccc(NC(=O)c2ccco2)cc1)c1cccc(Br)c1 (optimized conformer: 74.16728497698494 kcal/mol)

>  <smiles>  (37) 
O=C(Nc1ccc(NC(=O)c2ccco2)cc1)c1cccc(Br)c1

>  <score_type>  (37) 
oracle

>  <origin>  (37) 
adgpu

>  <m_score__min__energy>  (37) 
-9.6699999999999999

>  <m_primary>  (37) 
energy

$$$$
37:0
     RDKit          3D

 48 50  0  0  0  0  0  0  0  0999 V2000
   -5.0810   22.6720  -32.2840 C   0  0  0  0  0  0  0  0  0  0  0  0
   -4.2700   21.5080  -32.7570 C   0  0  0  0  0  0  0  0  0  0  0  0
   -2.9640   21.6150  -33.0830 N   0  0  0  0  0  0  0  0  0  0  0  0
   -2.6140   20.3710  -33.4690 C   0  0  0  0  0  0  0  0  0  0  0  0
   -1.2680   20.0350  -33.9580 C   0  0  0  0  0  0  0  0  0  0  0  0
   -0.8440   20.5890  -35.0050 O   0  0  0  0  0  0  0  0  0  0  0  0
   -0.4490   19.0490  -33.3120 N   0  0  0  0  0  0  0  0  0  0  0  0
    0.2520   19.2450  -32.0440 C   0  0  0  0  0  0  0  0  0  0  0  0
   -0.7130   19.1280  -30.8570 C   0  0  0  0  0  0  0  0  0  0  0  0
   -1.2990   20.4730  -30.5240 C   0  0  0  0  0  0  0  0  0  0  0  0
   -2.5570   20.5720  -29.9100 C   0  0  0  0  0  0  0  0  0  0  0  0
   -3.0710   21.8220  -29.5530 C   0  0  0  0  0  0  0  0  0  0  0  0
   -2.3310   22.9860  -29.7990 C   0  0  0  0  0  0  0  0  0  0  0  0
   -2.9760   24.5570  -29.3320 S   0  0  0  0  0  0  0  0  0  0  0  0
   -1.6800   25.6340  -28.9490 N   0  0  0  0  0  0  0  0  0  0  0  0
   -3.7800   25.1240  -30.4670 O   0  0  0  0  0  0  0  0  0  0  0  0
   -3.8550   24.4100  -28.1220 O   0  0  0  0  0  0  0  0  0  0  0  0
   -1.0660   22.8900  -30.3940 C   0  0  0  0  0  0  0  0  0  0  0  0
   -0.5520   21.6410  -30.7540 C   0  0  0  0  0  0  0  0  0  0  0  0
   -3.7020   19.5220  -33.3490 C   0  0  0  0  0  0  0  0  0  0  0  0
   -3.7110   18.0310  -33.5270 C   0  0  0  0  0  0  0  0  0  0  0  0
   -4.7450   20.2490  -32.9040 N   0  0  0  0  0  0  0  0  0  0  0  0
   -6.0840   19.7880  -32.6580 C   0  0  0  0  0  0  0  0  0  0  0  0
   -6.3090   18.6540  -31.8640 C   0  0  0  0  0  0  0  0  0  0  0  0
   -7.6140   18.2130  -31.6200 C   0  0  0  0  0  0  0  0  0  0  0  0
   -8.6990   18.9040  -32.1670 C   0  0  0  0  0  0  0  0  0  0  0  0
   -8.4820   20.0350  -32.9590 C   0  0  0  0  0  0  0  0  0  0  0  0
   -7.1780   20.4770  -33.2050 C   0  0  0  0  0  0  0  0  0  0  0  0
   -5.0923   22.6883  -31.1842 H   0  0  0  0  0  0  0  0  0  0  0  0
   -4.6367   23.6054  -32.6599 H   0  0  0  0  0  0  0  0  0  0  0  0
   -6.1105   22.5785  -32.6599 H   0  0  0  0  0  0  0  0  0  0  0  0
    1.0373   18.4810  -31.9455 H   0  0  0  0  0  0  0  0  0  0  0  0
    0.6917   20.2533  -32.0395 H   0  0  0  0  0  0  0  0  0  0  0  0
   -1.5250   18.4330  -31.1170 H   0  0  0  0  0  0  0  0  0  0  0  0
   -0.1603   18.7529  -29.9830 H   0  0  0  0  0  0  0  0  0  0  0  0
   -3.1412   19.6619  -29.7087 H   0  0  0  0  0  0  0  0  0  0  0  0
   -4.0603   21.8920  -29.0771 H   0  0  0  0  0  0  0  0  0  0  0  0
   -1.2270   25.8990  -29.8530 H   0  0  0  0  0  0  0  0  0  0  0  0
   -0.4759   23.7999  -30.5783 H   0  0  0  0  0  0  0  0  0  0  0  0
    0.4422   21.5719  -31.2197 H   0  0  0  0  0  0  0  0  0  0  0  0
   -3.7139   17.5440  -32.5407 H   0  0  0  0  0  0  0  0  0  0  0  0
   -4.6110   17.7338  -34.0854 H   0  0  0  0  0  0  0  0  0  0  0  0
   -2.8147   17.7230  -34.0854 H   0  0  0  0  0  0  0  0  0  0  0  0
   -5.4565   18.1096  -31.4317 H   0  0  0  0  0  0  0  0  0  0  0  0
   -7.7863   17.3225  -30.9977 H   0  0  0  0  0  0  0  0  0  0  0  0
   -9.7249   18.5572  -31.9739 H   0  0  0  0  0  0  0  0  0  0  0  0
   -9.3369   20.5776  -33.3889 H   0  0  0  0  0  0  0  0  0  0  0  0
   -7.0092   21.3671  -33.8289 H   0  0  0  0  0  0  0  0  0  0  0  0
  1  2  1  0
  2  3  2  0
  3  4  1  0
  4  5  1  0
  5  6  2  0
  5  7  1  0
  7  8  1  0
  8  9  1  0
  9 10  1  0
 10 11  2  0
 11 12  1  0
 12 13  2  0
 13 14  1  0
 14 15  1  0
 14 16  2  0
 14 17  2  0
 13 18  1  0
 18 19  2  0
  4 20  2  0
 20 21  1  0
 20 22  1  0
 22 23  1  0
 23 24  2  0
 24 25  1  0
 25 26  2  0
 26 27  1  0
 27 28  2  0
 22  2  1  0
 28 23  1  0
 19 10  1  0
  1 29  1  0
  1 30  1  0
  1 31  1  0
  8 32  1  0
  8 33  1  0
  9 34  1  0
  9 35  1  0
 11 36  1  0
 12 37  1  0
 15 38  1  0
 18 39  1  0
 19 40  1  0
 21 41  1  0
 21 42  1  0
 21 43  1  0
 24 44  1  0
 25 45  1  0
 26 46  1  0
 27 47  1  0
 28 48  1  0
M  CHG  2   7  -1  15  -1
M  END
>  <UniqueID>  (38) 
38

>  <SMILES>  (38) 
Cc1nc(C(=O)[N-]CCc2ccc(S([NH-])(=O)=O)cc2)c(C)n1-c1ccccc1

>  <Energy>  (38) 
83.92561169188342

>  <Genealogy>  (38) 
Cc1nc(C(=O)[N-]CCc2ccc(S([NH-])(=O)=O)cc2)c(C)n1-c1ccccc1 (protonated)
Cc1nc(C(=O)[N-]CCc2ccc(S([NH-])(=O)=O)cc2)c(C)n1-c1ccccc1 (3D coordinates assigned)
Cc1nc(C(=O)[N-]CCc2ccc(S([NH-])(=O)=O)cc2)c(C)n1-c1ccccc1 (optimized conformer: 83.92561169188342 kcal/mol)

>  <smiles>  (38) 
Cc1nc(C(=O)NCCc2ccc(S(N)(=O)=O)cc2)c(C)n1-c1ccccc1

>  <score_type>  (38) 
oracle

>  <origin>  (38) 
adgpu

>  <m_score__min__energy>  (38) 
-10.970000000000001

>  <m_primary>  (38) 
energy

$$$$
38:0
     RDKit          3D

 29 30  0  0  0  0  0  0  0  0999 V2000
   -0.3320   22.1840  -29.7120 O   0  0  0  0  0  0  0  0  0  0  0  0
   -0.9200   23.2250  -29.3100 C   0  0  0  0  0  0  0  0  0  0  0  0
   -2.2530   23.5050  -29.7460 N   0  0  0  0  0  0  0  0  0  0  0  0
   -3.3660   23.6840  -28.8250 C   0  0  0  0  0  0  0  0  0  0  0  0
   -4.6520   23.7400  -29.6030 C   0  0  0  0  0  0  0  0  0  0  0  0
   -5.6440   22.7680  -29.3850 C   0  0  0  0  0  0  0  0  0  0  0  0
   -6.8290   22.7910  -30.1270 C   0  0  0  0  0  0  0  0  0  0  0  0
   -7.0280   23.7750  -31.0990 C   0  0  0  0  0  0  0  0  0  0  0  0
   -6.0410   24.7340  -31.3360 C   0  0  0  0  0  0  0  0  0  0  0  0
   -4.8510   24.7180  -30.5970 C   0  0  0  0  0  0  0  0  0  0  0  0
   -3.8740   25.6720  -30.8600 O   0  0  0  0  0  0  0  0  0  0  0  0
   -0.2520   24.1130  -28.3340 C   0  0  0  0  0  0  0  0  0  0  0  0
    0.7780   23.5820  -27.5360 C   0  0  0  0  0  0  0  0  0  0  0  0
    1.3850   24.3610  -26.5490 C   0  0  0  0  0  0  0  0  0  0  0  0
    0.9750   25.6780  -26.3460 C   0  0  0  0  0  0  0  0  0  0  0  0
   -0.0300   26.2270  -27.1440 C   0  0  0  0  0  0  0  0  0  0  0  0
   -0.6360   25.4660  -28.1520 C   0  0  0  0  0  0  0  0  0  0  0  0
   -1.5770   26.0960  -28.9690 O   0  0  0  0  0  0  0  0  0  0  0  0
   -3.3993   22.8398  -28.1206 H   0  0  0  0  0  0  0  0  0  0  0  0
   -3.2334   24.6215  -28.2651 H   0  0  0  0  0  0  0  0  0  0  0  0
   -5.4873   21.9860  -28.6274 H   0  0  0  0  0  0  0  0  0  0  0  0
   -7.6056   22.0335  -29.9453 H   0  0  0  0  0  0  0  0  0  0  0  0
   -7.9631   23.7942  -31.6780 H   0  0  0  0  0  0  0  0  0  0  0  0
   -6.1984   25.5043  -32.1053 H   0  0  0  0  0  0  0  0  0  0  0  0
    1.1079   22.5442  -27.6911 H   0  0  0  0  0  0  0  0  0  0  0  0
    2.1884   23.9347  -25.9303 H   0  0  0  0  0  0  0  0  0  0  0  0
    1.4436   26.2845  -25.5569 H   0  0  0  0  0  0  0  0  0  0  0  0
   -0.3491   27.2668  -26.9799 H   0  0  0  0  0  0  0  0  0  0  0  0
   -1.9910   25.6580  -29.7810 H   0  0  0  0  0  0  0  0  0  0  0  0
  1  2  2  0
  2  3  1  0
  3  4  1  0
  4  5  1  0
  5  6  2  0
  6  7  1  0
  7  8  2  0
  8  9  1  0
  9 10  2  0
 10 11  1  0
  2 12  1  0
 12 13  2  0
 13 14  1  0
 14 15  2  0
 15 16  1  0
 16 17  2  0
 17 18  1  0
 10  5  1  0
 17 12  1  0
  4 19  1  0
  4 20  1  0
  6 21  1  0
  7 22  1  0
  8 23  1  0
  9 24  1  0
 13 25  1  0
 14 26  1  0
 15 27  1  0
 16 28  1  0
 18 29  1  0
M  CHG  2   3  -1  11  -1
M  END
>  <UniqueID>  (39) 
39

>  <SMILES>  (39) 
O=C([N-]Cc1ccccc1[O-])c1ccccc1O

>  <Energy>  (39) 
33.360743127567474

>  <Genealogy>  (39) 
O=C([N-]Cc1ccccc1[O-])c1ccccc1O (protonated)
O=C([N-]Cc1ccccc1[O-])c1ccccc1O (3D coordinates assigned)
O=C([N-]Cc1ccccc1[O-])c1ccccc1O (optimized conformer: 33.360743127567474 kcal/mol)

>  <smiles>  (39) 
O=C(NCc1ccccc1O)c1ccccc1O

>  <score_type>  (39) 
oracle

>  <origin>  (39) 
adgpu

>  <m_score__min__energy>  (39) 
-10.619999999999999

>  <m_primary>  (39) 
energy

$$$$
39:0
     RDKit          3D

 42 44  0  0  0  0  0  0  0  0999 V2000
    2.6360   24.1600  -35.2930 O   0  0  0  0  0  0  0  0  0  0  0  0
    1.8730   23.5700  -36.1000 C   0  0  0  0  0  0  0  0  0  0  0  0
    1.3580   24.2890  -37.1780 O   0  0  0  0  0  0  0  0  0  0  0  0
    1.5030   22.1440  -35.9020 C   0  0  0  0  0  0  0  0  0  0  0  0
    0.3940   21.8240  -35.0890 C   0  0  0  0  0  0  0  0  0  0  0  0
    0.0300   20.4830  -34.8560 C   0  0  0  0  0  0  0  0  0  0  0  0
   -1.0820   20.1270  -34.0210 N   0  0  0  0  0  0  0  0  0  0  0  0
   -1.3460   20.7030  -32.4090 S   0  0  0  0  0  0  0  0  0  0  0  0
   -1.2540   19.5560  -31.4450 O   0  0  0  0  0  0  0  0  0  0  0  0
   -0.3070   21.7230  -32.0440 O   0  0  0  0  0  0  0  0  0  0  0  0
   -2.9720   21.3700  -32.3300 C   0  0  0  0  0  0  0  0  0  0  0  0
   -4.0630   20.7250  -32.9390 C   0  0  0  0  0  0  0  0  0  0  0  0
   -5.3570   21.2110  -32.7440 C   0  0  0  0  0  0  0  0  0  0  0  0
   -5.5780   22.3370  -31.9380 C   0  0  0  0  0  0  0  0  0  0  0  0
   -6.8840   22.7800  -31.7170 O   0  0  0  0  0  0  0  0  0  0  0  0
   -4.4880   23.0000  -31.3430 C   0  0  0  0  0  0  0  0  0  0  0  0
   -4.7470   24.3890  -30.2820 S   0  0  0  0  0  0  0  0  0  0  0  0
   -6.2270   24.4690  -29.9790 O   0  0  0  0  0  0  0  0  0  0  0  0
   -4.3220   25.6700  -30.9800 O   0  0  0  0  0  0  0  0  0  0  0  0
   -3.8780   24.2420  -28.7760 N   0  0  0  0  0  0  0  0  0  0  0  0
   -2.5940   23.6250  -28.5890 C   0  0  0  0  0  0  0  0  0  0  0  0
   -2.4500   22.2920  -28.1550 C   0  0  0  0  0  0  0  0  0  0  0  0
   -1.1700   21.7370  -27.9740 C   0  0  0  0  0  0  0  0  0  0  0  0
   -0.0310   22.4920  -28.2470 C   0  0  0  0  0  0  0  0  0  0  0  0
   -0.1690   23.8070  -28.7210 C   0  0  0  0  0  0  0  0  0  0  0  0
   -1.4470   24.3700  -28.8900 C   0  0  0  0  0  0  0  0  0  0  0  0
   -1.5820   25.6910  -29.3310 O   0  0  0  0  0  0  0  0  0  0  0  0
   -3.1900   22.5130  -31.5510 C   0  0  0  0  0  0  0  0  0  0  0  0
    0.7700   19.4610  -35.4610 C   0  0  0  0  0  0  0  0  0  0  0  0
    1.8440   19.7610  -36.3040 C   0  0  0  0  0  0  0  0  0  0  0  0
    2.2070   21.0960  -36.5370 C   0  0  0  0  0  0  0  0  0  0  0  0
    3.2570   21.3540  -37.4120 O   0  0  0  0  0  0  0  0  0  0  0  0
   -0.1941   22.6330  -34.6311 H   0  0  0  0  0  0  0  0  0  0  0  0
   -3.8970   19.8383  -33.5685 H   0  0  0  0  0  0  0  0  0  0  0  0
   -6.2084   20.7077  -33.2255 H   0  0  0  0  0  0  0  0  0  0  0  0
   -3.3436   21.6820  -27.9566 H   0  0  0  0  0  0  0  0  0  0  0  0
   -1.0678   20.7022  -27.6153 H   0  0  0  0  0  0  0  0  0  0  0  0
    0.9692   22.0611  -28.0924 H   0  0  0  0  0  0  0  0  0  0  0  0
    0.7263   24.3992  -28.9611 H   0  0  0  0  0  0  0  0  0  0  0  0
   -2.3339   23.0341  -31.0976 H   0  0  0  0  0  0  0  0  0  0  0  0
    0.5038   18.4107  -35.2713 H   0  0  0  0  0  0  0  0  0  0  0  0
    2.4063   18.9478  -36.7862 H   0  0  0  0  0  0  0  0  0  0  0  0
  1  2  2  0
  2  3  1  0
  2  4  1  0
  4  5  2  0
  5  6  1  0
  6  7  1  0
  7  8  1  0
  8  9  2  0
  8 10  2  0
  8 11  1  0
 11 12  2  0
 12 13  1  0
 13 14  2  0
 14 15  1  0
 14 16  1  0
 16 17  1  0
 17 18  2  0
 17 19  2  0
 17 20  1  0
 20 21  1  0
 21 22  2  0
 22 23  1  0
 23 24  2  0
 24 25  1  0
 25 26  2  0
 26 27  1  0
 16 28  2  0
  6 29  2  0
 29 30  1  0
 30 31  2  0
 31 32  1  0
 31  4  1  0
 28 11  1  0
 26 21  1  0
  5 33  1  0
 12 34  1  0
 13 35  1  0
 22 36  1  0
 23 37  1  0
 24 38  1  0
 25 39  1  0
 28 40  1  0
 29 41  1  0
 30 42  1  0
M  CHG  6   3  -1   7  -1  15  -1  20  -1  27  -1  32  -1
M  END
>  <UniqueID>  (40) 
40

>  <SMILES>  (40) 
O=C([O-])c1cc([N-]S(=O)(=O)c2ccc([O-])c(S(=O)(=O)[N-]c3ccccc3[O-])c2)ccc1[O-]

>  <Energy>  (40) 
56.677631894700006

>  <Genealogy>  (40) 
O=C([O-])c1cc([N-]S(=O)(=O)c2ccc([O-])c(S(=O)(=O)[N-]c3ccccc3[O-])c2)ccc1[O-] (protonated)
O=C([O-])c1cc([N-]S(=O)(=O)c2ccc([O-])c(S(=O)(=O)[N-]c3ccccc3[O-])c2)ccc1[O-] (3D coordinates assigned)
O=C([O-])c1cc([N-]S(=O)(=O)c2ccc([O-])c(S(=O)(=O)[N-]c3ccccc3[O-])c2)ccc1[O-] (optimized conformer: 56.677631894700006 kcal/mol)

>  <smiles>  (40) 
O=C(O)c1cc(NS(=O)(=O)c2ccc(O)c(S(=O)(=O)Nc3ccccc3O)c2)ccc1O

>  <score_type>  (40) 
oracle

>  <origin>  (40) 
adgpu

>  <m_score__min__energy>  (40) 
-15.630000000000001

>  <m_primary>  (40) 
energy

$$$$
40:0
     RDKit          3D

 52 54  0  0  0  0  0  0  0  0999 V2000
   -3.3020   20.3580  -30.8510 C   0  0  0  0  0  0  0  0  0  0  0  0
   -3.0140   21.7340  -30.3090 C   0  0  0  0  0  0  0  0  0  0  0  0
   -2.0650   21.8490  -29.2810 C   0  0  0  0  0  0  0  0  0  0  0  0
   -1.7250   23.0920  -28.7560 C   0  0  0  0  0  0  0  0  0  0  0  0
   -2.3060   24.2580  -29.2630 C   0  0  0  0  0  0  0  0  0  0  0  0
   -1.9820   25.5440  -28.7090 N   0  0  0  0  0  0  0  0  0  0  0  0
   -0.7040   25.8680  -28.1330 C   0  0  0  0  0  0  0  0  0  0  0  0
    0.1780   24.9790  -27.9940 O   0  0  0  0  0  0  0  0  0  0  0  0
   -0.4190   27.1950  -27.6750 N   0  0  0  0  0  0  0  0  0  0  0  0
    0.0690   27.5450  -26.3730 C   0  0  0  0  0  0  0  0  0  0  0  0
   -0.6470   27.2230  -25.2060 C   0  0  0  0  0  0  0  0  0  0  0  0
   -0.1610   27.6050  -23.9530 C   0  0  0  0  0  0  0  0  0  0  0  0
    1.0350   28.3290  -23.8540 C   0  0  0  0  0  0  0  0  0  0  0  0
    1.5340   28.7240  -22.5640 C   0  0  0  0  0  0  0  0  0  0  0  0
    1.9360   29.0420  -21.5260 N   0  0  0  0  0  0  0  0  0  0  0  0
    1.7350   28.6770  -25.0150 C   0  0  0  0  0  0  0  0  0  0  0  0
    1.2490   28.2930  -26.2690 C   0  0  0  0  0  0  0  0  0  0  0  0
   -3.2630   24.1640  -30.2860 C   0  0  0  0  0  0  0  0  0  0  0  0
   -3.8390   25.3340  -30.7730 O   0  0  0  0  0  0  0  0  0  0  0  0
   -3.6280   22.9100  -30.8250 C   0  0  0  0  0  0  0  0  0  0  0  0
   -4.8620   22.8610  -32.1160 S   0  0  0  0  0  0  0  0  0  0  0  0
   -5.5980   24.1720  -32.1420 O   0  0  0  0  0  0  0  0  0  0  0  0
   -4.2270   22.6850  -33.4660 O   0  0  0  0  0  0  0  0  0  0  0  0
   -6.0500   21.5360  -31.8600 C   0  0  0  0  0  0  0  0  0  0  0  0
   -7.4840   22.0780  -31.7030 C   0  0  0  0  0  0  0  0  0  0  0  0
   -8.5480   20.9690  -31.8420 C   0  0  0  0  0  0  0  0  0  0  0  0
   -7.9470   19.6340  -31.6520 N   0  0  0  0  0  0  0  0  0  0  0  0
   -8.9950   18.6030  -31.6060 C   0  0  0  0  0  0  0  0  0  0  0  0
   -6.9820   19.3340  -32.7330 C   0  0  0  0  0  0  0  0  0  0  0  0
   -6.0030   20.5030  -32.9940 C   0  0  0  0  0  0  0  0  0  0  0  0
   -3.4485   19.6580  -30.0152 H   0  0  0  0  0  0  0  0  0  0  0  0
   -4.2130   20.3897  -31.4667 H   0  0  0  0  0  0  0  0  0  0  0  0
   -2.4548   20.0217  -31.4667 H   0  0  0  0  0  0  0  0  0  0  0  0
   -1.5830   20.9431  -28.8846 H   0  0  0  0  0  0  0  0  0  0  0  0
   -0.9941   23.1575  -27.9365 H   0  0  0  0  0  0  0  0  0  0  0  0
   -2.6960   26.3010  -28.7930 H   0  0  0  0  0  0  0  0  0  0  0  0
   -1.5938   26.6680  -25.2801 H   0  0  0  0  0  0  0  0  0  0  0  0
   -0.7178   27.3371  -23.0429 H   0  0  0  0  0  0  0  0  0  0  0  0
    2.6689   29.2535  -24.9411 H   0  0  0  0  0  0  0  0  0  0  0  0
    1.7965   28.5800  -27.1789 H   0  0  0  0  0  0  0  0  0  0  0  0
   -5.7625   21.0365  -30.9231 H   0  0  0  0  0  0  0  0  0  0  0  0
   -7.5811   22.5387  -30.7089 H   0  0  0  0  0  0  0  0  0  0  0  0
   -7.6560   22.8116  -32.5044 H   0  0  0  0  0  0  0  0  0  0  0  0
   -9.3297   21.1231  -31.0836 H   0  0  0  0  0  0  0  0  0  0  0  0
   -8.9778   21.0197  -32.8533 H   0  0  0  0  0  0  0  0  0  0  0  0
   -9.2331   18.3687  -30.5579 H   0  0  0  0  0  0  0  0  0  0  0  0
   -9.8977   18.9749  -32.1128 H   0  0  0  0  0  0  0  0  0  0  0  0
   -8.6379   17.6944  -32.1128 H   0  0  0  0  0  0  0  0  0  0  0  0
   -6.4011   18.4437  -32.4503 H   0  0  0  0  0  0  0  0  0  0  0  0
   -7.5558   19.1659  -33.6563 H   0  0  0  0  0  0  0  0  0  0  0  0
   -4.9811   20.1035  -33.0721 H   0  0  0  0  0  0  0  0  0  0  0  0
   -6.2997   21.0011  -33.9288 H   0  0  0  0  0  0  0  0  0  0  0  0
  1  2  1  0
  2  3  2  0
  3  4  1  0
  4  5  2  0
  5  6  1  0
  6  7  1  0
  7  8  2  0
  7  9  1  0
  9 10  1  0
 10 11  2  0
 11 12  1  0
 12 13  2  0
 13 14  1  0
 14 15  3  0
 13 16  1  0
 16 17  2  0
  5 18  1  0
 18 19  1  0
 18 20  2  0
 20 21  1  0
 21 22  2  0
 21 23  2  0
 21 24  1  0
 24 25  1  0
 25 26  1  0
 26 27  1  0
 27 28  1  0
 27 29  1  0
 29 30  1  0
 20  2  1  0
 30 24  1  0
 17 10  1  0
  1 31  1  0
  1 32  1  0
  1 33  1  0
  3 34  1  0
  4 35  1  0
  6 36  1  0
 11 37  1  0
 12 38  1  0
 16 39  1  0
 17 40  1  0
 24 41  1  0
 25 42  1  0
 25 43  1  0
 26 44  1  0
 26 45  1  0
 28 46  1  0
 28 47  1  0
 28 48  1  0
 29 49  1  0
 29 50  1  0
 30 51  1  0
 30 52  1  0
M  CHG  2   9  -1  19  -1
M  END
>  <UniqueID>  (41) 
41

>  <SMILES>  (41) 
Cc1ccc(NC(=O)[N-]c2ccc(C#N)cc2)c([O-])c1S(=O)(=O)C1CCN(C)CC1

>  <Energy>  (41) 
67.23571833393737

>  <Genealogy>  (41) 
Cc1ccc(NC(=O)[N-]c2ccc(C#N)cc2)c([O-])c1S(=O)(=O)C1CCN(C)CC1 (protonated)
Cc1ccc(NC(=O)[N-]c2ccc(C#N)cc2)c([O-])c1S(=O)(=O)C1CCN(C)CC1 (3D coordinates assigned)
Cc1ccc(NC(=O)[N-]c2ccc(C#N)cc2)c([O-])c1S(=O)(=O)C1CCN(C)CC1 (nonaromatic ring conformer: 67.23571833393737 kcal/mol)

>  <smiles>  (41) 
Cc1ccc(NC(=O)Nc2ccc(C#N)cc2)c(O)c1S(=O)(=O)C1CCN(C)CC1

>  <score_type>  (41) 
oracle

>  <origin>  (41) 
adgpu

>  <m_score__min__energy>  (41) 
-13.4

>  <m_primary>  (41) 
energy

$$$$
41:0
     RDKit          3D

 49 51  0  0  0  0  0  0  0  0999 V2000
   -2.3150   18.6880  -26.4760 C   0  0  0  0  0  0  0  0  0  0  0  0
   -2.2730   19.8570  -27.4080 C   0  0  0  0  0  0  0  0  0  0  0  0
   -1.5690   19.7770  -28.6140 C   0  0  0  0  0  0  0  0  0  0  0  0
   -1.5820   20.8840  -29.4700 C   0  0  0  0  0  0  0  0  0  0  0  0
   -0.8230   20.8530  -30.7590 C   0  0  0  0  0  0  0  0  0  0  0  0
   -2.2710   22.0000  -29.1150 N   0  0  0  0  0  0  0  0  0  0  0  0
   -2.9490   22.0620  -27.9390 C   0  0  0  0  0  0  0  0  0  0  0  0
   -3.8140   23.5630  -27.4850 S   0  0  0  0  0  0  0  0  0  0  0  0
   -3.3090   24.4930  -28.9760 C   0  0  0  0  0  0  0  0  0  0  0  0
   -4.2720   24.2560  -30.0990 C   0  0  0  0  0  0  0  0  0  0  0  0
   -4.5900   25.2120  -30.8540 O   0  0  0  0  0  0  0  0  0  0  0  0
   -4.8240   22.9470  -30.3040 N   0  0  0  0  0  0  0  0  0  0  0  0
   -6.1040   22.6840  -30.9090 C   0  0  0  0  0  0  0  0  0  0  0  0
   -7.0420   23.7080  -31.1370 C   0  0  0  0  0  0  0  0  0  0  0  0
   -8.2960   23.4090  -31.6730 C   0  0  0  0  0  0  0  0  0  0  0  0
   -8.6370   22.0890  -31.9690 C   0  0  0  0  0  0  0  0  0  0  0  0
   -7.7260   21.0560  -31.7210 C   0  0  0  0  0  0  0  0  0  0  0  0
   -8.1650   19.3910  -32.0920 S   0  0  0  0  0  0  0  0  0  0  0  0
   -9.2530   19.3890  -33.1290 O   0  0  0  0  0  0  0  0  0  0  0  0
   -8.6820   18.7120  -30.8530 O   0  0  0  0  0  0  0  0  0  0  0  0
   -6.7670   18.5490  -32.7120 N   0  0  0  0  0  0  0  0  0  0  0  0
   -7.1220   17.2140  -33.1900 C   0  0  0  0  0  0  0  0  0  0  0  0
   -6.0850   16.8480  -34.2340 C   0  0  0  0  0  0  0  0  0  0  0  0
   -5.5880   18.1780  -34.7750 C   0  0  0  0  0  0  0  0  0  0  0  0
   -6.1910   19.2430  -33.8660 C   0  0  0  0  0  0  0  0  0  0  0  0
   -6.4610   21.3570  -31.1960 C   0  0  0  0  0  0  0  0  0  0  0  0
   -2.9530   20.9930  -27.1010 N   0  0  0  0  0  0  0  0  0  0  0  0
   -2.3021   19.0473  -25.4364 H   0  0  0  0  0  0  0  0  0  0  0  0
   -3.2345   18.1107  -26.6531 H   0  0  0  0  0  0  0  0  0  0  0  0
   -1.4393   18.0462  -26.6531 H   0  0  0  0  0  0  0  0  0  0  0  0
   -1.0174   18.8643  -28.8836 H   0  0  0  0  0  0  0  0  0  0  0  0
    0.2557   20.8089  -30.5483 H   0  0  0  0  0  0  0  0  0  0  0  0
   -1.1200   19.9662  -31.3382 H   0  0  0  0  0  0  0  0  0  0  0  0
   -1.0467   21.7610  -31.3382 H   0  0  0  0  0  0  0  0  0  0  0  0
   -3.2857   25.5673  -28.7409 H   0  0  0  0  0  0  0  0  0  0  0  0
   -2.3115   24.1488  -29.2867 H   0  0  0  0  0  0  0  0  0  0  0  0
   -4.2740   22.1300  -29.9500 H   0  0  0  0  0  0  0  0  0  0  0  0
   -6.7859   24.7493  -30.8917 H   0  0  0  0  0  0  0  0  0  0  0  0
   -9.0178   24.2172  -31.8626 H   0  0  0  0  0  0  0  0  0  0  0  0
   -9.6236   21.8598  -32.3980 H   0  0  0  0  0  0  0  0  0  0  0  0
   -7.0979   16.4929  -32.3597 H   0  0  0  0  0  0  0  0  0  0  0  0
   -8.1380   17.1965  -33.6113 H   0  0  0  0  0  0  0  0  0  0  0  0
   -5.2590   16.2830  -33.7774 H   0  0  0  0  0  0  0  0  0  0  0  0
   -6.5026   16.2090  -35.0260 H   0  0  0  0  0  0  0  0  0  0  0  0
   -4.4894   18.2203  -34.7394 H   0  0  0  0  0  0  0  0  0  0  0  0
   -5.8823   18.3254  -35.8246 H   0  0  0  0  0  0  0  0  0  0  0  0
   -5.4094   19.9423  -33.5341 H   0  0  0  0  0  0  0  0  0  0  0  0
   -6.9600   19.8221  -34.3983 H   0  0  0  0  0  0  0  0  0  0  0  0
   -5.7421   20.5461  -31.0074 H   0  0  0  0  0  0  0  0  0  0  0  0
  1  2  1  0
  2  3  2  0
  3  4  1  0
  4  5  1  0
  4  6  2  0
  6  7  1  0
  7  8  1  0
  8  9  1  0
  9 10  1  0
 10 11  2  0
 10 12  1  0
 12 13  1  0
 13 14  2  0
 14 15  1  0
 15 16  2  0
 16 17  1  0
 17 18  1  0
 18 19  2  0
 18 20  2  0
 18 21  1  0
 21 22  1  0
 22 23  1  0
 23 24  1  0
 24 25  1  0
 17 26  2  0
  7 27  2  0
 27  2  1  0
 26 13  1  0
 25 21  1  0
  1 28  1  0
  1 29  1  0
  1 30  1  0
  3 31  1  0
  5 32  1  0
  5 33  1  0
  5 34  1  0
  9 35  1  0
  9 36  1  0
 12 37  1  0
 14 38  1  0
 15 39  1  0
 16 40  1  0
 22 41  1  0
 22 42  1  0
 23 43  1  0
 23 44  1  0
 24 45  1  0
 24 46  1  0
 25 47  1  0
 25 48  1  0
 26 49  1  0
M  END
>  <UniqueID>  (42) 
42

>  <SMILES>  (42) 
Cc1cc(C)nc(SCC(=O)Nc2cccc(S(=O)(=O)N3CCCC3)c2)n1

>  <Energy>  (42) 
43.93065921738723

>  <Genealogy>  (42) 
Cc1cc(C)nc(SCC(=O)Nc2cccc(S(=O)(=O)N3CCCC3)c2)n1 (3D coordinates assigned)
Cc1cc(C)nc(SCC(=O)Nc2cccc(S(=O)(=O)N3CCCC3)c2)n1 (nonaromatic ring conformer: 43.93065921738723 kcal/mol)

>  <smiles>  (42) 
Cc1cc(C)nc(SCC(=O)Nc2cccc(S(=O)(=O)N3CCCC3)c2)n1

>  <score_type>  (42) 
oracle

>  <origin>  (42) 
adgpu

>  <m_score__min__energy>  (42) 
-9.8000000000000007

>  <m_primary>  (42) 
energy

$$$$
42:0
     RDKit          3D

 42 44  0  0  0  0  0  0  0  0999 V2000
   -4.9889   12.0588  -35.6899 H   0  0  0  0  0  0  0  0  0  0  0  0
   -5.2230   13.0180  -35.2050 C   0  0  0  0  0  0  0  0  0  0  0  0
   -6.5380   13.3180  -34.8490 C   0  0  0  0  0  0  0  0  0  0  0  0
   -7.3413   12.5968  -35.0601 H   0  0  0  0  0  0  0  0  0  0  0  0
   -6.8380   14.5320  -34.2250 C   0  0  0  0  0  0  0  0  0  0  0  0
   -7.8784   14.7634  -33.9531 H   0  0  0  0  0  0  0  0  0  0  0  0
   -5.8200   15.4600  -33.9420 C   0  0  0  0  0  0  0  0  0  0  0  0
   -6.1630   16.7370  -33.2720 C   0  0  0  0  0  0  0  0  0  0  0  0
   -7.2890   16.8610  -32.7180 O   0  0  0  0  0  0  0  0  0  0  0  0
   -5.2030   17.8030  -33.1830 N   0  0  0  0  0  0  0  0  0  0  0  0
   -4.1890   17.5490  -33.2130 H   0  0  0  0  0  0  0  0  0  0  0  0
   -5.5500   19.1710  -32.9050 C   0  0  0  0  0  0  0  0  0  0  0  0
   -4.5630   20.1610  -32.7530 C   0  0  0  0  0  0  0  0  0  0  0  0
   -3.5010   19.8959  -32.8621 H   0  0  0  0  0  0  0  0  0  0  0  0
   -4.9240   21.4800  -32.4640 C   0  0  0  0  0  0  0  0  0  0  0  0
   -4.1457   22.2488  -32.3493 H   0  0  0  0  0  0  0  0  0  0  0  0
   -6.2730   21.8260  -32.3200 C   0  0  0  0  0  0  0  0  0  0  0  0
   -6.7220   23.4910  -31.9720 S   0  0  0  0  0  0  0  0  0  0  0  0
   -7.5810   23.4850  -30.7390 O   0  0  0  0  0  0  0  0  0  0  0  0
   -7.5160   24.0960  -33.0960 O   0  0  0  0  0  0  0  0  0  0  0  0
   -5.3230   24.4680  -31.6550 N   0  0  0  0  0  0  0  0  0  0  0  0
   -4.5100   24.4670  -30.6360 C   0  0  0  0  0  0  0  0  0  0  0  0
   -3.4890   25.2900  -30.5790 O   0  0  0  0  0  0  0  0  0  0  0  0
   -2.8170   25.1400  -29.4770 N   0  0  0  0  0  0  0  0  0  0  0  0
   -3.4260   24.1690  -28.7710 C   0  0  0  0  0  0  0  0  0  0  0  0
   -2.9620   23.7180  -27.4240 C   0  0  0  0  0  0  0  0  0  0  0  0
   -3.5185   24.2589  -26.6444 H   0  0  0  0  0  0  0  0  0  0  0  0
   -3.1390   22.6375  -27.3180 H   0  0  0  0  0  0  0  0  0  0  0  0
   -1.8870   23.9256  -27.3180 H   0  0  0  0  0  0  0  0  0  0  0  0
   -4.5190   23.6850  -29.4770 C   0  0  0  0  0  0  0  0  0  0  0  0
   -5.4880   22.6560  -28.9760 C   0  0  0  0  0  0  0  0  0  0  0  0
   -5.4874   22.6566  -27.8760 H   0  0  0  0  0  0  0  0  0  0  0  0
   -6.4976   22.8940  -29.3423 H   0  0  0  0  0  0  0  0  0  0  0  0
   -5.1898   21.6625  -29.3423 H   0  0  0  0  0  0  0  0  0  0  0  0
   -7.2590   20.8370  -32.4380 C   0  0  0  0  0  0  0  0  0  0  0  0
   -8.3190   21.0995  -32.3055 H   0  0  0  0  0  0  0  0  0  0  0  0
   -6.8970   19.5170  -32.7240 C   0  0  0  0  0  0  0  0  0  0  0  0
   -7.6749   18.7438  -32.8077 H   0  0  0  0  0  0  0  0  0  0  0  0
   -4.4930   15.1580  -34.3250 C   0  0  0  0  0  0  0  0  0  0  0  0
   -3.4620   16.0680  -34.1220 O   0  0  0  0  0  0  0  0  0  0  0  0
   -4.2040   13.9370  -34.9450 C   0  0  0  0  0  0  0  0  0  0  0  0
   -3.1682   13.6998  -35.2292 H   0  0  0  0  0  0  0  0  0  0  0  0
  1  2  1  0
  2  3  2  0
  3  4  1  0
  3  5  1  0
  5  6  1  0
  5  7  2  0
  7  8  1  0
  8  9  2  0
  8 10  1  0
 10 11  1  0
 10 12  1  0
 12 13  2  0
 13 14  1  0
 13 15  1  0
 15 16  1  0
 15 17  2  0
 17 18  1  0
 18 19  2  0
 18 20  2  0
 18 21  1  0
 21 22  2  0
 22 23  1  0
 23 24  1  0
 24 25  1  0
 25 26  1  0
 26 27  1  0
 26 28  1  0
 26 29  1  0
 25 30  2  0
 30 31  1  0
 31 32  1  0
 31 33  1  0
 31 34  1  0
 17 35  1  0
 35 36  1  0
 35 37  2  0
 37 38  1  0
  7 39  1  0
 39 40  1  0
 39 41  2  0
 41 42  1  0
 41  2  1  0
 37 12  1  0
 30 22  1  0
M  CHG  2  24  -1  40  -1
M  END
>  <UniqueID>  (43) 
43

>  <SMILES>  (43) 
Cc1[n-]o/c(=N/S(=O)(=O)c2ccc(NC(=O)c3ccccc3[O-])cc2)c1C

>  <Energy>  (43) 
91.267569543188

>  <Genealogy>  (43) 
Cc1[n-]oc(=NS(=O)(=O)c2ccc(NC(=O)c3ccccc3[O-])cc2)c1C (protonated)
Cc1[n-]o/c(=N/S(=O)(=O)c2ccc(NC(=O)c3ccccc3[O-])cc2)c1C (cis-trans isomerization)
Cc1[n-]o/c(=N/S(=O)(=O)c2ccc(NC(=O)c3ccccc3[O-])cc2)c1C (3D coordinates assigned)
Cc1[n-]o/c(=N/S(=O)(=O)c2ccc(NC(=O)c3ccccc3[O-])cc2)c1C (optimized conformer: 91.267569543188 kcal/mol)

>  <smiles>  (43) 
Cc1[nH]oc(=NS(=O)(=O)c2ccc(NC(=O)c3ccccc3O)cc2)c1C

>  <score_type>  (43) 
oracle

>  <origin>  (43) 
adgpu

>  <m_score__min__energy>  (43) 
-11.83

>  <m_primary>  (43) 
energy

$$$$
43:0
     RDKit          3D

 38 39  0  0  0  0  0  0  0  0999 V2000
   -0.8320   19.2160  -28.3930 C   0  0  0  0  0  0  0  0  0  0  0  0
   -1.6010   20.0430  -29.2600 O   0  0  0  0  0  0  0  0  0  0  0  0
   -1.6530   21.4420  -29.1800 C   0  0  0  0  0  0  0  0  0  0  0  0
   -0.4780   22.1650  -29.4040 C   0  0  0  0  0  0  0  0  0  0  0  0
   -0.4760   23.5610  -29.3360 C   0  0  0  0  0  0  0  0  0  0  0  0
   -1.6600   24.2600  -29.0390 C   0  0  0  0  0  0  0  0  0  0  0  0
   -1.7010   25.6610  -28.9580 O   0  0  0  0  0  0  0  0  0  0  0  0
   -1.0800   26.4290  -27.9350 C   0  0  0  0  0  0  0  0  0  0  0  0
   -2.8440   23.5360  -28.8160 C   0  0  0  0  0  0  0  0  0  0  0  0
   -4.0650   24.2260  -28.5370 N   0  0  0  0  0  0  0  0  0  0  0  0
   -4.4070   24.5580  -27.1580 C   0  0  0  0  0  0  0  0  0  0  0  0
   -5.0270   24.8040  -29.8620 S   0  0  0  0  0  0  0  0  0  0  0  0
   -4.1780   25.6070  -30.8090 O   0  0  0  0  0  0  0  0  0  0  0  0
   -6.1160   25.6980  -29.3360 O   0  0  0  0  0  0  0  0  0  0  0  0
   -5.7240   23.4290  -30.7080 C   0  0  0  0  0  0  0  0  0  0  0  0
   -7.0270   22.9980  -30.4150 C   0  0  0  0  0  0  0  0  0  0  0  0
   -7.5550   21.8720  -31.0550 C   0  0  0  0  0  0  0  0  0  0  0  0
   -6.7830   21.1690  -31.9850 C   0  0  0  0  0  0  0  0  0  0  0  0
   -5.4830   21.5920  -32.2760 C   0  0  0  0  0  0  0  0  0  0  0  0
   -4.9530   22.7180  -31.6380 C   0  0  0  0  0  0  0  0  0  0  0  0
   -2.8400   22.1370  -28.8840 C   0  0  0  0  0  0  0  0  0  0  0  0
   -1.0640   19.4655  -27.3471 H   0  0  0  0  0  0  0  0  0  0  0  0
   -1.0766   18.1602  -28.5810 H   0  0  0  0  0  0  0  0  0  0  0  0
    0.2388   19.3834  -28.5810 H   0  0  0  0  0  0  0  0  0  0  0  0
    0.4546   21.6299  -29.6362 H   0  0  0  0  0  0  0  0  0  0  0  0
    0.4565   24.1161  -29.5157 H   0  0  0  0  0  0  0  0  0  0  0  0
   -1.3890   26.0469  -26.9509 H   0  0  0  0  0  0  0  0  0  0  0  0
    0.0131   26.3524  -28.0314 H   0  0  0  0  0  0  0  0  0  0  0  0
   -1.3837   27.4818  -28.0314 H   0  0  0  0  0  0  0  0  0  0  0  0
   -3.7896   23.9587  -26.4727 H   0  0  0  0  0  0  0  0  0  0  0  0
   -4.2190   25.6272  -26.9808 H   0  0  0  0  0  0  0  0  0  0  0  0
   -5.4702   24.3384  -26.9808 H   0  0  0  0  0  0  0  0  0  0  0  0
   -7.6344   23.5469  -29.6804 H   0  0  0  0  0  0  0  0  0  0  0  0
   -8.5783   21.5393  -30.8266 H   0  0  0  0  0  0  0  0  0  0  0  0
   -7.1987   20.2832  -32.4875 H   0  0  0  0  0  0  0  0  0  0  0  0
   -4.8761   21.0386  -33.0077 H   0  0  0  0  0  0  0  0  0  0  0  0
   -3.9284   23.0466  -31.8666 H   0  0  0  0  0  0  0  0  0  0  0  0
   -3.7705   21.5783  -28.7049 H   0  0  0  0  0  0  0  0  0  0  0  0
  1  2  1  0
  2  3  1  0
  3  4  2  0
  4  5  1  0
  5  6  2  0
  6  7  1  0
  7  8  1  0
  6  9  1  0
  9 10  1  0
 10 11  1  0
 10 12  1  0
 12 13  2  0
 12 14  2  0
 12 15  1  0
 15 16  2  0
 16 17  1  0
 17 18  2  0
 18 19  1  0
 19 20  2  0
  9 21  2  0
 21  3  1  0
 20 15  1  0
  1 22  1  0
  1 23  1  0
  1 24  1  0
  4 25  1  0
  5 26  1  0
  8 27  1  0
  8 28  1  0
  8 29  1  0
 11 30  1  0
 11 31  1  0
 11 32  1  0
 16 33  1  0
 17 34  1  0
 18 35  1  0
 19 36  1  0
 20 37  1  0
 21 38  1  0
M  END
>  <UniqueID>  (44) 
44

>  <SMILES>  (44) 
COc1ccc(OC)c(N(C)S(=O)(=O)c2ccccc2)c1

>  <Energy>  (44) 
41.42457830894493

>  <Genealogy>  (44) 
COc1ccc(OC)c(N(C)S(=O)(=O)c2ccccc2)c1 (3D coordinates assigned)
COc1ccc(OC)c(N(C)S(=O)(=O)c2ccccc2)c1 (optimized conformer: 41.42457830894493 kcal/mol)

>  <smiles>  (44) 
COc1ccc(OC)c(N(C)S(=O)(=O)c2ccccc2)c1

>  <score_type>  (44) 
oracle

>  <origin>  (44) 
adgpu

>  <m_score__min__energy>  (44) 
-7.5499999999999998

>  <m_primary>  (44) 
energy

$$$$
44:0
     RDKit          3D

 41 43  0  0  0  0  0  0  0  0999 V2000
   -8.9460   18.5330  -31.6980 C   0  0  0  0  0  0  0  0  0  0  0  0
   -8.1180   19.2200  -32.7770 C   0  0  0  0  0  0  0  0  0  0  0  0
   -6.9740   19.9140  -32.1840 N   0  0  0  0  0  0  0  0  0  0  0  0
   -5.7120   20.0350  -32.8630 C   0  0  0  0  0  0  0  0  0  0  0  0
   -5.6030   19.6320  -34.0540 O   0  0  0  0  0  0  0  0  0  0  0  0
   -4.5340   20.6350  -32.1920 C   0  0  0  0  0  0  0  0  0  0  0  0
   -3.8080   21.6810  -32.7910 C   0  0  0  0  0  0  0  0  0  0  0  0
   -2.7160   22.2520  -32.1340 C   0  0  0  0  0  0  0  0  0  0  0  0
   -2.3370   21.8020  -30.8600 C   0  0  0  0  0  0  0  0  0  0  0  0
   -1.2290   22.4920  -30.1070 C   0  0  0  0  0  0  0  0  0  0  0  0
   -1.8980   23.5790  -28.7950 S   0  0  0  0  0  0  0  0  0  0  0  0
   -3.4120   23.9610  -29.6710 C   0  0  0  0  0  0  0  0  0  0  0  0
   -4.5130   23.1890  -29.6130 N   0  0  0  0  0  0  0  0  0  0  0  0
   -5.3360   23.8180  -30.4750 C   0  0  0  0  0  0  0  0  0  0  0  0
   -6.6820   23.3250  -30.8290 C   0  0  0  0  0  0  0  0  0  0  0  0
   -7.3160   23.7600  -32.0070 C   0  0  0  0  0  0  0  0  0  0  0  0
   -8.5840   23.2760  -32.3450 C   0  0  0  0  0  0  0  0  0  0  0  0
   -9.2270   22.3520  -31.5160 C   0  0  0  0  0  0  0  0  0  0  0  0
   -8.6040   21.9120  -30.3460 C   0  0  0  0  0  0  0  0  0  0  0  0
   -7.3380   22.3940  -30.0010 C   0  0  0  0  0  0  0  0  0  0  0  0
   -4.7670   24.9130  -31.0170 N   0  0  0  0  0  0  0  0  0  0  0  0
   -3.5500   25.0020  -30.5100 N   0  0  0  0  0  0  0  0  0  0  0  0
   -3.0570   20.7610  -30.2590 C   0  0  0  0  0  0  0  0  0  0  0  0
   -4.1460   20.1840  -30.9180 C   0  0  0  0  0  0  0  0  0  0  0  0
   -8.5801   18.8366  -30.7061 H   0  0  0  0  0  0  0  0  0  0  0  0
  -10.0013   18.8244  -31.8045 H   0  0  0  0  0  0  0  0  0  0  0  0
   -8.8543   17.4420  -31.8045 H   0  0  0  0  0  0  0  0  0  0  0  0
   -7.7535   18.4647  -33.4888 H   0  0  0  0  0  0  0  0  0  0  0  0
   -8.7504   19.9564  -33.2946 H   0  0  0  0  0  0  0  0  0  0  0  0
   -7.1030   20.3370  -31.2390 H   0  0  0  0  0  0  0  0  0  0  0  0
   -4.1027   22.0516  -33.7839 H   0  0  0  0  0  0  0  0  0  0  0  0
   -2.1488   23.0604  -32.6186 H   0  0  0  0  0  0  0  0  0  0  0  0
   -0.5801   21.7320  -29.6472 H   0  0  0  0  0  0  0  0  0  0  0  0
   -0.6591   23.1111  -30.8155 H   0  0  0  0  0  0  0  0  0  0  0  0
   -6.8126   24.4837  -32.6649 H   0  0  0  0  0  0  0  0  0  0  0  0
   -9.0765   23.6232  -33.2653 H   0  0  0  0  0  0  0  0  0  0  0  0
  -10.2234   21.9716  -31.7852 H   0  0  0  0  0  0  0  0  0  0  0  0
   -9.1106   21.1846  -29.6946 H   0  0  0  0  0  0  0  0  0  0  0  0
   -6.8519   22.0443  -29.0783 H   0  0  0  0  0  0  0  0  0  0  0  0
   -2.7637   20.3961  -29.2636 H   0  0  0  0  0  0  0  0  0  0  0  0
   -4.7051   19.3690  -30.4352 H   0  0  0  0  0  0  0  0  0  0  0  0
  1  2  1  0
  2  3  1  0
  3  4  1  0
  4  5  2  0
  4  6  1  0
  6  7  2  0
  7  8  1  0
  8  9  2  0
  9 10  1  0
 10 11  1  0
 11 12  1  0
 12 13  2  0
 13 14  1  0
 14 15  1  0
 15 16  2  0
 16 17  1  0
 17 18  2  0
 18 19  1  0
 19 20  2  0
 14 21  2  0
 21 22  1  0
  9 23  1  0
 23 24  2  0
 24  6  1  0
 22 12  1  0
 20 15  1  0
  1 25  1  0
  1 26  1  0
  1 27  1  0
  2 28  1  0
  2 29  1  0
  3 30  1  0
  7 31  1  0
  8 32  1  0
 10 33  1  0
 10 34  1  0
 16 35  1  0
 17 36  1  0
 18 37  1  0
 19 38  1  0
 20 39  1  0
 23 40  1  0
 24 41  1  0
M  CHG  1  22  -1
M  END
>  <UniqueID>  (45) 
45

>  <SMILES>  (45) 
CCNC(=O)c1ccc(CSc2nc(-c3ccccc3)n[n-]2)cc1

>  <Energy>  (45) 
68.1222662920719

>  <Genealogy>  (45) 
CCNC(=O)c1ccc(CSc2nc(-c3ccccc3)n[n-]2)cc1 (protonated)
CCNC(=O)c1ccc(CSc2nc(-c3ccccc3)n[n-]2)cc1 (3D coordinates assigned)
CCNC(=O)c1ccc(CSc2nc(-c3ccccc3)n[n-]2)cc1 (optimized conformer: 68.1222662920719 kcal/mol)

>  <smiles>  (45) 
CCNC(=O)c1ccc(CSc2nc(-c3ccccc3)n[nH]2)cc1

>  <score_type>  (45) 
oracle

>  <origin>  (45) 
adgpu

>  <m_score__min__energy>  (45) 
-9.7100000000000009

>  <m_primary>  (45) 
energy

$$$$
45:0
     RDKit          3D

 47 49  0  0  0  0  0  0  0  0999 V2000
   -2.1450   21.5360  -32.3300 C   0  0  0  0  0  0  0  0  0  0  0  0
   -3.2980   21.5410  -33.3430 C   0  0  0  0  0  0  0  0  0  0  0  0
   -4.6390   21.7490  -32.7370 N   0  0  1  0  0  0  0  0  0  0  0  0
   -5.5490   20.6040  -33.0260 C   0  0  0  0  0  0  0  0  0  0  0  0
   -6.9590   20.8410  -32.5240 C   0  0  0  0  0  0  0  0  0  0  0  0
   -7.4480   22.1480  -32.3540 C   0  0  0  0  0  0  0  0  0  0  0  0
   -8.7500   22.3590  -31.8900 C   0  0  0  0  0  0  0  0  0  0  0  0
   -9.5680   21.2700  -31.5740 C   0  0  0  0  0  0  0  0  0  0  0  0
   -9.0800   19.9680  -31.7110 C   0  0  0  0  0  0  0  0  0  0  0  0
   -7.7780   19.7530  -32.1740 C   0  0  0  0  0  0  0  0  0  0  0  0
   -4.5270   22.0550  -31.2870 C   0  0  0  0  0  0  0  0  0  0  0  0
   -4.9250   23.4710  -30.9590 C   0  0  0  0  0  0  0  0  0  0  0  0
   -5.4270   24.3320  -31.8620 N   0  0  0  0  0  0  0  0  0  0  0  0
   -5.6740   25.4450  -31.1840 N   0  0  0  0  0  0  0  0  0  0  0  0
   -5.3500   25.2800  -29.9110 N   0  0  0  0  0  0  0  0  0  0  0  0
   -4.8820   24.0560  -29.7430 N   0  0  0  0  0  0  0  0  0  0  0  0
   -4.4920   23.4990  -28.4480 C   0  0  0  0  0  0  0  0  0  0  0  0
   -3.0180   23.2050  -28.4020 C   0  0  0  0  0  0  0  0  0  0  0  0
   -2.5940   22.0480  -27.8240 N   0  0  0  0  0  0  0  0  0  0  0  0
   -1.2780   21.7040  -27.7680 C   0  0  0  0  0  0  0  0  0  0  0  0
   -0.8800   20.3890  -27.1760 C   0  0  0  0  0  0  0  0  0  0  0  0
   -0.3140   22.5540  -28.3230 C   0  0  0  0  0  0  0  0  0  0  0  0
   -0.7170   23.7580  -28.9020 C   0  0  0  0  0  0  0  0  0  0  0  0
   -2.0720   24.0940  -28.9440 C   0  0  0  0  0  0  0  0  0  0  0  0
   -2.4650   25.2980  -29.5190 O   0  0  0  0  0  0  0  0  0  0  0  0
   -2.5540   21.5378  -31.3089 H   0  0  0  0  0  0  0  0  0  0  0  0
   -1.5312   20.6352  -32.4775 H   0  0  0  0  0  0  0  0  0  0  0  0
   -1.5234   22.4315  -32.4775 H   0  0  0  0  0  0  0  0  0  0  0  0
   -3.1175   22.3489  -34.0674 H   0  0  0  0  0  0  0  0  0  0  0  0
   -3.3129   20.5455  -33.8106 H   0  0  0  0  0  0  0  0  0  0  0  0
   -5.0150   22.5960  -33.2130 H   0  0  0  0  0  0  0  0  0  0  0  0
   -5.5839   20.4473  -34.1142 H   0  0  0  0  0  0  0  0  0  0  0  0
   -5.1521   19.7218  -32.5023 H   0  0  0  0  0  0  0  0  0  0  0  0
   -6.8035   23.0084  -32.5870 H   0  0  0  0  0  0  0  0  0  0  0  0
   -9.1316   23.3841  -31.7733 H   0  0  0  0  0  0  0  0  0  0  0  0
  -10.5950   21.4382  -31.2178 H   0  0  0  0  0  0  0  0  0  0  0  0
   -9.7205   19.1113  -31.4545 H   0  0  0  0  0  0  0  0  0  0  0  0
   -7.3924   18.7268  -32.2649 H   0  0  0  0  0  0  0  0  0  0  0  0
   -5.1814   21.3677  -30.7307 H   0  0  0  0  0  0  0  0  0  0  0  0
   -3.4717   21.9320  -31.0020 H   0  0  0  0  0  0  0  0  0  0  0  0
   -4.7379   24.2234  -27.6575 H   0  0  0  0  0  0  0  0  0  0  0  0
   -5.0391   22.5569  -28.2960 H   0  0  0  0  0  0  0  0  0  0  0  0
   -0.9013   20.4595  -26.0785 H   0  0  0  0  0  0  0  0  0  0  0  0
   -1.5826   19.6101  -27.5071 H   0  0  0  0  0  0  0  0  0  0  0  0
    0.1366   20.1305  -27.5071 H   0  0  0  0  0  0  0  0  0  0  0  0
    0.7500   22.2757  -28.3029 H   0  0  0  0  0  0  0  0  0  0  0  0
    0.0327   24.4426  -29.3254 H   0  0  0  0  0  0  0  0  0  0  0  0
  1  2  1  0
  2  3  1  0
  3  4  1  0
  4  5  1  0
  5  6  2  0
  6  7  1  0
  7  8  2  0
  8  9  1  0
  9 10  2  0
  3 11  1  0
 11 12  1  0
 12 13  2  0
 13 14  1  0
 14 15  2  0
 15 16  1  0
 16 17  1  0
 17 18  1  0
 18 19  2  0
 19 20  1  0
 20 21  1  0
 20 22  2  0
 22 23  1  0
 23 24  2  0
 24 25  1  0
 10  5  1  0
 16 12  1  0
 24 18  1  0
  1 26  1  0
  1 27  1  0
  1 28  1  0
  2 29  1  0
  2 30  1  0
  3 31  1  6
  4 32  1  0
  4 33  1  0
  6 34  1  0
  7 35  1  0
  8 36  1  0
  9 37  1  0
 10 38  1  0
 11 39  1  0
 11 40  1  0
 17 41  1  0
 17 42  1  0
 21 43  1  0
 21 44  1  0
 21 45  1  0
 22 46  1  0
 23 47  1  0
M  CHG  2   3   1  25  -1
M  END
>  <UniqueID>  (46) 
46

>  <SMILES>  (46) 
CC[N@@H+](Cc1ccccc1)Cc1nnnn1Cc1nc(C)ccc1[O-]

>  <Energy>  (46) 
87.77014537763286

>  <Genealogy>  (46) 
CC[NH+](Cc1ccccc1)Cc1nnnn1Cc1nc(C)ccc1[O-] (protonated)
CC[N@@H+](Cc1ccccc1)Cc1nnnn1Cc1nc(C)ccc1[O-] (chirality)
CC[N@@H+](Cc1ccccc1)Cc1nnnn1Cc1nc(C)ccc1[O-] (3D coordinates assigned)
CC[N@@H+](Cc1ccccc1)Cc1nnnn1Cc1nc(C)ccc1[O-] (optimized conformer: 87.77014537763286 kcal/mol)

>  <smiles>  (46) 
CCN(Cc1ccccc1)Cc1nnnn1Cc1nc(C)ccc1O

>  <score_type>  (46) 
oracle

>  <origin>  (46) 
adgpu

>  <m_score__min__energy>  (46) 
-11.73

>  <m_primary>  (46) 
energy

$$$$
46:0
     RDKit          3D

 46 49  0  0  0  0  0  0  0  0999 V2000
   -0.5800   17.3990  -33.9080 O   0  0  0  0  0  0  0  0  0  0  0  0
   -1.7340   17.5980  -33.4440 C   0  0  0  0  0  0  0  0  0  0  0  0
   -2.5950   16.4230  -33.0810 C   0  0  0  0  0  0  0  0  0  0  0  0
   -3.8210   16.3520  -33.9950 C   0  0  0  0  0  0  0  0  0  0  0  0
   -4.8230   17.4120  -33.6190 C   0  0  0  0  0  0  0  0  0  0  0  0
   -5.3450   17.4620  -32.3190 C   0  0  0  0  0  0  0  0  0  0  0  0
   -6.2500   18.4650  -31.9590 C   0  0  0  0  0  0  0  0  0  0  0  0
   -6.6400   19.4430  -32.8900 C   0  0  0  0  0  0  0  0  0  0  0  0
   -7.6000   20.5090  -32.5080 C   0  0  0  0  0  0  0  0  0  0  0  0
   -7.1610   21.8320  -32.3080 C   0  0  0  0  0  0  0  0  0  0  0  0
   -8.0660   22.8340  -31.9470 C   0  0  0  0  0  0  0  0  0  0  0  0
   -9.4200   22.5290  -31.7830 C   0  0  0  0  0  0  0  0  0  0  0  0
   -9.8690   21.2210  -31.9800 C   0  0  0  0  0  0  0  0  0  0  0  0
   -8.9670   20.2150  -32.3390 C   0  0  0  0  0  0  0  0  0  0  0  0
   -6.1020   19.3980  -34.1900 C   0  0  0  0  0  0  0  0  0  0  0  0
   -5.1980   18.3930  -34.5490 C   0  0  0  0  0  0  0  0  0  0  0  0
   -2.1950   18.9770  -33.2260 C   0  0  0  0  0  0  0  0  0  0  0  0
   -2.4600   19.8470  -34.2230 N   0  0  0  0  0  0  0  0  0  0  0  0
   -2.8480   20.9610  -33.5730 C   0  0  0  0  0  0  0  0  0  0  0  0
   -2.8040   20.7260  -32.2130 C   0  0  0  0  0  0  0  0  0  0  0  0
   -3.1420   21.6580  -31.1140 C   0  0  0  0  0  0  0  0  0  0  0  0
   -3.4390   21.1480  -29.8380 C   0  0  0  0  0  0  0  0  0  0  0  0
   -3.7620   22.0120  -28.7860 C   0  0  0  0  0  0  0  0  0  0  0  0
   -3.7910   23.3920  -28.9970 C   0  0  0  0  0  0  0  0  0  0  0  0
   -3.4970   23.9120  -30.2610 C   0  0  0  0  0  0  0  0  0  0  0  0
   -3.5260   25.2850  -30.4690 O   0  0  0  0  0  0  0  0  0  0  0  0
   -3.1740   23.0520  -31.3160 C   0  0  0  0  0  0  0  0  0  0  0  0
   -2.3980   19.4930  -32.0340 O   0  0  0  0  0  0  0  0  0  0  0  0
   -2.0092   15.4982  -33.1891 H   0  0  0  0  0  0  0  0  0  0  0  0
   -2.9337   16.5389  -32.0409 H   0  0  0  0  0  0  0  0  0  0  0  0
   -3.5047   16.5066  -35.0372 H   0  0  0  0  0  0  0  0  0  0  0  0
   -4.2907   15.3636  -33.8832 H   0  0  0  0  0  0  0  0  0  0  0  0
   -5.0409   16.7080  -31.5781 H   0  0  0  0  0  0  0  0  0  0  0  0
   -6.6602   18.4889  -30.9386 H   0  0  0  0  0  0  0  0  0  0  0  0
   -6.0969   22.0789  -32.4370 H   0  0  0  0  0  0  0  0  0  0  0  0
   -7.7122   23.8639  -31.7918 H   0  0  0  0  0  0  0  0  0  0  0  0
  -10.1316   23.3183  -31.4990 H   0  0  0  0  0  0  0  0  0  0  0  0
  -10.9351   20.9819  -31.8523 H   0  0  0  0  0  0  0  0  0  0  0  0
   -9.3274   19.1868  -32.4905 H   0  0  0  0  0  0  0  0  0  0  0  0
   -6.3946   20.1587  -34.9288 H   0  0  0  0  0  0  0  0  0  0  0  0
   -4.7789   18.3717  -35.5658 H   0  0  0  0  0  0  0  0  0  0  0  0
   -3.1510   21.9054  -34.0487 H   0  0  0  0  0  0  0  0  0  0  0  0
   -3.4173   20.0618  -29.6655 H   0  0  0  0  0  0  0  0  0  0  0  0
   -3.9934   21.6035  -27.7912 H   0  0  0  0  0  0  0  0  0  0  0  0
   -4.0451   24.0699  -28.1688 H   0  0  0  0  0  0  0  0  0  0  0  0
   -2.9438   23.4663  -32.3086 H   0  0  0  0  0  0  0  0  0  0  0  0
  1  2  2  0
  2  3  1  0
  3  4  1  0
  4  5  1  0
  5  6  2  0
  6  7  1  0
  7  8  2  0
  8  9  1  0
  9 10  2  0
 10 11  1  0
 11 12  2  0
 12 13  1  0
 13 14  2  0
  8 15  1  0
 15 16  2  0
  2 17  1  0
 17 18  2  0
 18 19  1  0
 19 20  2  0
 20 21  1  0
 21 22  2  0
 22 23  1  0
 23 24  2  0
 24 25  1  0
 25 26  1  0
 25 27  2  0
 20 28  1  0
 16  5  1  0
 28 17  1  0
 14  9  1  0
 27 21  1  0
  3 29  1  0
  3 30  1  0
  4 31  1  0
  4 32  1  0
  6 33  1  0
  7 34  1  0
 10 35  1  0
 11 36  1  0
 12 37  1  0
 13 38  1  0
 14 39  1  0
 15 40  1  0
 16 41  1  0
 19 42  1  0
 22 43  1  0
 23 44  1  0
 24 45  1  0
 27 46  1  0
M  CHG  1  26  -1
M  END
>  <UniqueID>  (47) 
47

>  <SMILES>  (47) 
O=C(CCc1ccc(-c2ccccc2)cc1)c1ncc(-c2cccc([O-])c2)o1

>  <Energy>  (47) 
81.76585323151792

>  <Genealogy>  (47) 
O=C(CCc1ccc(-c2ccccc2)cc1)c1ncc(-c2cccc([O-])c2)o1 (protonated)
O=C(CCc1ccc(-c2ccccc2)cc1)c1ncc(-c2cccc([O-])c2)o1 (3D coordinates assigned)
O=C(CCc1ccc(-c2ccccc2)cc1)c1ncc(-c2cccc([O-])c2)o1 (optimized conformer: 81.76585323151792 kcal/mol)

>  <smiles>  (47) 
O=C(CCc1ccc(-c2ccccc2)cc1)c1ncc(-c2cccc(O)c2)o1

>  <score_type>  (47) 
oracle

>  <origin>  (47) 
adgpu

>  <m_score__min__energy>  (47) 
-12.17

>  <m_primary>  (47) 
energy

$$$$
47:0
     RDKit          3D

 41 42  0  0  0  0  0  0  0  0999 V2000
   -7.6183   19.9262  -33.0581 H   0  0  0  0  0  0  0  0  0  0  0  0
   -6.5440   20.1610  -33.0310 C   0  0  0  0  0  0  0  0  0  0  0  0
   -5.6320   19.3080  -33.6640 C   0  0  0  0  0  0  0  0  0  0  0  0
   -6.1140   18.0620  -34.3470 C   0  0  0  0  0  0  0  0  0  0  0  0
   -6.4021   17.3172  -33.5905 H   0  0  0  0  0  0  0  0  0  0  0  0
   -6.9843   18.3017  -34.9756 H   0  0  0  0  0  0  0  0  0  0  0  0
   -5.3090   17.6536  -34.9756 H   0  0  0  0  0  0  0  0  0  0  0  0
   -4.2610   19.5860  -33.5960 C   0  0  0  0  0  0  0  0  0  0  0  0
   -3.5419   18.9045  -34.0740 H   0  0  0  0  0  0  0  0  0  0  0  0
   -3.7970   20.7270  -32.9230 C   0  0  0  0  0  0  0  0  0  0  0  0
   -2.3190   21.0000  -32.8420 C   0  0  0  0  0  0  0  0  0  0  0  0
   -2.0138   21.0564  -31.7867 H   0  0  0  0  0  0  0  0  0  0  0  0
   -1.7684   20.1884  -33.3401 H   0  0  0  0  0  0  0  0  0  0  0  0
   -2.0946   21.9548  -33.3401 H   0  0  0  0  0  0  0  0  0  0  0  0
   -4.7160   21.5810  -32.2830 C   0  0  0  0  0  0  0  0  0  0  0  0
   -4.2370   22.7340  -31.5740 N   0  0  0  0  0  0  0  0  0  0  0  0
   -3.6950   22.7230  -30.3860 C   0  0  0  0  0  0  0  0  0  0  0  0
   -3.3040   23.9390  -29.7970 C   0  0  0  0  0  0  0  0  0  0  0  0
   -3.4880   25.0170  -30.4290 O   0  0  0  0  0  0  0  0  0  0  0  0
   -2.7310   23.9480  -28.5470 N   0  0  0  0  0  0  0  0  0  0  0  0
   -2.3140   25.2190  -27.9040 C   0  0  0  0  0  0  0  0  0  0  0  0
   -2.8514   26.0414  -28.3988 H   0  0  0  0  0  0  0  0  0  0  0  0
   -0.8120   25.4660  -28.0940 C   0  0  0  0  0  0  0  0  0  0  0  0
   -0.3262   25.5459  -27.1103 H   0  0  0  0  0  0  0  0  0  0  0  0
   -0.3706   24.6284  -28.6540 H   0  0  0  0  0  0  0  0  0  0  0  0
   -0.6621   26.4009  -28.6540 H   0  0  0  0  0  0  0  0  0  0  0  0
   -2.7010   25.2390  -26.4200 C   0  0  0  0  0  0  0  0  0  0  0  0
   -1.7914   25.1920  -25.8032 H   0  0  0  0  0  0  0  0  0  0  0  0
   -3.2482   26.1666  -26.1962 H   0  0  0  0  0  0  0  0  0  0  0  0
   -3.3409   24.3727  -26.1962 H   0  0  0  0  0  0  0  0  0  0  0  0
   -2.5440   22.7640  -27.8860 C   0  0  0  0  0  0  0  0  0  0  0  0
   -2.0901   22.7646  -26.8840 H   0  0  0  0  0  0  0  0  0  0  0  0
   -2.9240   21.5570  -28.4720 C   0  0  0  0  0  0  0  0  0  0  0  0
   -2.6710   20.0460  -27.6160 Cl  0  0  0  0  0  0  0  0  0  0  0  0
   -3.4870   21.5560  -29.7070 N   0  0  0  0  0  0  0  0  0  0  0  0
   -3.7480   20.6340  -30.1220 H   0  0  0  0  0  0  0  0  0  0  0  0
   -6.1010   21.3130  -32.3620 C   0  0  0  0  0  0  0  0  0  0  0  0
   -7.1060   22.2110  -31.6930 C   0  0  0  0  0  0  0  0  0  0  0  0
   -7.0071   22.1226  -30.6010 H   0  0  0  0  0  0  0  0  0  0  0  0
   -6.9244   23.2532  -31.9944 H   0  0  0  0  0  0  0  0  0  0  0  0
   -8.1213   21.9137  -31.9944 H   0  0  0  0  0  0  0  0  0  0  0  0
  1  2  1  0
  2  3  2  0
  3  4  1  0
  4  5  1  0
  4  6  1  0
  4  7  1  0
  3  8  1  0
  8  9  1  0
  8 10  2  0
 10 11  1  0
 11 12  1  0
 11 13  1  0
 11 14  1  0
 10 15  1  0
 15 16  1  0
 16 17  2  0
 17 18  1  0
 18 19  2  0
 18 20  1  0
 20 21  1  0
 21 22  1  0
 21 23  1  0
 23 24  1  0
 23 25  1  0
 23 26  1  0
 21 27  1  0
 27 28  1  0
 27 29  1  0
 27 30  1  0
 20 31  1  0
 31 32  1  0
 31 33  2  0
 33 34  1  0
 33 35  1  0
 35 36  1  0
 15 37  2  0
 37 38  1  0
 38 39  1  0
 38 40  1  0
 38 41  1  0
 37  2  1  0
 35 17  1  0
M  END
>  <UniqueID>  (48) 
48

>  <SMILES>  (48) 
Cc1cc(C)c(/N=c2\[nH]c(Cl)cn(C(C)C)c2=O)c(C)c1

>  <Energy>  (48) 
50.84298085843266

>  <Genealogy>  (48) 
Cc1cc(C)c(/N=c2\[nH]c(Cl)cn(C(C)C)c2=O)c(C)c1 (cis-trans isomerization)
Cc1cc(C)c(/N=c2\[nH]c(Cl)cn(C(C)C)c2=O)c(C)c1 (3D coordinates assigned)
Cc1cc(C)c(/N=c2\[nH]c(Cl)cn(C(C)C)c2=O)c(C)c1 (optimized conformer: 50.84298085843266 kcal/mol)

>  <smiles>  (48) 
Cc1cc(C)c(N=c2[nH]c(Cl)cn(C(C)C)c2=O)c(C)c1

>  <score_type>  (48) 
oracle

>  <origin>  (48) 
adgpu

>  <m_score__min__energy>  (48) 
-7.54

>  <m_primary>  (48) 
energy

$$$$
48:0
     RDKit          3D

 49 51  0  0  0  0  0  0  0  0999 V2000
   -3.0720   18.6000  -25.4740 N   0  0  0  0  0  0  0  0  0  0  0  0
   -2.1430   19.0580  -26.4650 C   0  0  0  0  0  0  0  0  0  0  0  0
   -1.1280   18.3100  -26.7850 N   0  0  0  0  0  0  0  0  0  0  0  0
   -2.3430   20.3810  -27.1130 C   0  0  0  0  0  0  0  0  0  0  0  0
   -3.1220   20.4900  -28.2790 C   0  0  0  0  0  0  0  0  0  0  0  0
   -3.3270   21.7330  -28.8830 C   0  0  0  0  0  0  0  0  0  0  0  0
   -2.7530   22.8910  -28.3400 C   0  0  0  0  0  0  0  0  0  0  0  0
   -3.0150   24.1650  -28.9560 N   0  0  0  0  0  0  0  0  0  0  0  0
   -4.0130   24.3750  -29.9650 C   0  0  0  0  0  0  0  0  0  0  0  0
   -3.8740   25.3240  -30.7840 O   0  0  0  0  0  0  0  0  0  0  0  0
   -5.1910   23.5550  -30.0030 N   0  0  0  0  0  0  0  0  0  0  0  0
   -5.9450   23.3140  -31.2010 C   0  0  0  0  0  0  0  0  0  0  0  0
   -5.6010   23.8460  -32.2910 O   0  0  0  0  0  0  0  0  0  0  0  0
   -7.1620   22.4330  -31.1670 C   0  0  0  0  0  0  0  0  0  0  0  0
   -6.8570   21.0460  -31.6760 C   0  0  0  0  0  0  0  0  0  0  0  0
   -5.5520   20.5330  -31.6020 C   0  0  0  0  0  0  0  0  0  0  0  0
   -5.2720   19.2440  -32.0660 C   0  0  0  0  0  0  0  0  0  0  0  0
   -6.2880   18.4460  -32.6240 C   0  0  0  0  0  0  0  0  0  0  0  0
   -5.9910   17.0680  -33.0980 C   0  0  0  0  0  0  0  0  0  0  0  0
   -6.9480   16.3400  -33.8370 C   0  0  0  0  0  0  0  0  0  0  0  0
   -6.6650   15.0430  -34.2810 C   0  0  0  0  0  0  0  0  0  0  0  0
   -5.4260   14.4600  -34.0000 C   0  0  0  0  0  0  0  0  0  0  0  0
   -4.4680   15.1710  -33.2740 C   0  0  0  0  0  0  0  0  0  0  0  0
   -4.7460   16.4660  -32.8250 C   0  0  0  0  0  0  0  0  0  0  0  0
   -7.5920   18.9700  -32.7090 C   0  0  0  0  0  0  0  0  0  0  0  0
   -7.8750   20.2550  -32.2330 C   0  0  0  0  0  0  0  0  0  0  0  0
   -1.9920   22.7880  -27.1610 C   0  0  0  0  0  0  0  0  0  0  0  0
   -1.7810   21.5450  -26.5600 C   0  0  0  0  0  0  0  0  0  0  0  0
   -3.8480   19.2160  -25.1340 H   0  0  0  0  0  0  0  0  0  0  0  0
   -2.9540   17.6630  -25.0250 H   0  0  0  0  0  0  0  0  0  0  0  0
   -0.4420   18.6010  -27.5170 H   0  0  0  0  0  0  0  0  0  0  0  0
   -0.9840   17.3790  -26.3330 H   0  0  0  0  0  0  0  0  0  0  0  0
   -3.5737   19.5888  -28.7192 H   0  0  0  0  0  0  0  0  0  0  0  0
   -3.9434   21.8036  -29.7914 H   0  0  0  0  0  0  0  0  0  0  0  0
   -2.4350   24.9860  -28.6670 H   0  0  0  0  0  0  0  0  0  0  0  0
   -5.4760   23.0660  -29.1240 H   0  0  0  0  0  0  0  0  0  0  0  0
   -7.5224   22.3617  -30.1302 H   0  0  0  0  0  0  0  0  0  0  0  0
   -7.9279   22.8784  -31.8189 H   0  0  0  0  0  0  0  0  0  0  0  0
   -4.7456   21.1485  -31.1767 H   0  0  0  0  0  0  0  0  0  0  0  0
   -4.2475   18.8499  -31.9942 H   0  0  0  0  0  0  0  0  0  0  0  0
   -7.9230   16.7950  -34.0657 H   0  0  0  0  0  0  0  0  0  0  0  0
   -7.4190   14.4815  -34.8521 H   0  0  0  0  0  0  0  0  0  0  0  0
   -5.2055   13.4410  -34.3508 H   0  0  0  0  0  0  0  0  0  0  0  0
   -3.4929   14.7116  -33.0549 H   0  0  0  0  0  0  0  0  0  0  0  0
   -3.9864   17.0197  -32.2537 H   0  0  0  0  0  0  0  0  0  0  0  0
   -8.3953   18.3640  -33.1534 H   0  0  0  0  0  0  0  0  0  0  0  0
   -8.9006   20.6478  -32.2954 H   0  0  0  0  0  0  0  0  0  0  0  0
   -1.5600   23.6932  -26.7092 H   0  0  0  0  0  0  0  0  0  0  0  0
   -1.1707   21.4763  -25.6474 H   0  0  0  0  0  0  0  0  0  0  0  0
  1  2  1  0
  2  3  2  0
  2  4  1  0
  4  5  2  0
  5  6  1  0
  6  7  2  0
  7  8  1  0
  8  9  1  0
  9 10  2  0
  9 11  1  0
 11 12  1  0
 12 13  2  0
 12 14  1  0
 14 15  1  0
 15 16  2  0
 16 17  1  0
 17 18  2  0
 18 19  1  0
 19 20  2  0
 20 21  1  0
 21 22  2  0
 22 23  1  0
 23 24  2  0
 18 25  1  0
 25 26  2  0
  7 27  1  0
 27 28  2  0
 28  4  1  0
 26 15  1  0
 24 19  1  0
  1 29  1  0
  1 30  1  0
  3 31  1  0
  3 32  1  0
  5 33  1  0
  6 34  1  0
  8 35  1  0
 11 36  1  0
 14 37  1  0
 14 38  1  0
 16 39  1  0
 17 40  1  0
 20 41  1  0
 21 42  1  0
 22 43  1  0
 23 44  1  0
 24 45  1  0
 25 46  1  0
 26 47  1  0
 27 48  1  0
 28 49  1  0
M  CHG  1   3   1
M  END
>  <UniqueID>  (49) 
49

>  <SMILES>  (49) 
NC(=[NH2+])c1ccc(NC(=O)NC(=O)Cc2ccc(-c3ccccc3)cc2)cc1

>  <Energy>  (49) 
57.96633246591756

>  <Genealogy>  (49) 
NC(=[NH2+])c1ccc(NC(=O)NC(=O)Cc2ccc(-c3ccccc3)cc2)cc1 (protonated)
NC(=[NH2+])c1ccc(NC(=O)NC(=O)Cc2ccc(-c3ccccc3)cc2)cc1 (3D coordinates assigned)
NC(=[NH2+])c1ccc(NC(=O)NC(=O)Cc2ccc(-c3ccccc3)cc2)cc1 (optimized conformer: 57.96633246591756 kcal/mol)

>  <smiles>  (49) 
N=C(N)c1ccc(NC(=O)NC(=O)Cc2ccc(-c3ccccc3)cc2)cc1

>  <score_type>  (49) 
oracle

>  <origin>  (49) 
adgpu

>  <m_score__min__energy>  (49) 
-10.17

>  <m_primary>  (49) 
energy

$$$$
