0:0
     RDKit          3D

 47 50  0  0  0  0  0  0  0  0999 V2000
   -1.3630   18.8600  -26.9780 C   0  0  0  0  0  0  0  0  0  0  0  0
   -1.6180   20.1940  -27.5940 C   0  0  0  0  0  0  0  0  0  0  0  0
   -2.7000   20.4570  -28.3760 N   0  0  0  0  0  0  0  0  0  0  0  0
   -2.5180   21.7550  -28.6720 C   0  0  0  0  0  0  0  0  0  0  0  0
   -3.3180   22.5700  -29.4660 C   0  0  0  0  0  0  0  0  0  0  0  0
   -2.9150   23.9160  -29.6490 C   0  0  0  0  0  0  0  0  0  0  0  0
   -3.6620   24.8260  -30.4660 N   0  0  0  0  0  0  0  0  0  0  0  0
   -5.3710   25.0960  -30.3470 S   0  0  0  0  0  0  0  0  0  0  0  0
   -5.7470   25.2380  -28.8990 O   0  0  0  0  0  0  0  0  0  0  0  0
   -5.7230   26.3640  -31.0710 O   0  0  0  0  0  0  0  0  0  0  0  0
   -6.2360   23.7550  -31.0930 C   0  0  0  0  0  0  0  0  0  0  0  0
   -7.6330   23.7960  -31.1850 C   0  0  0  0  0  0  0  0  0  0  0  0
   -8.3270   22.7450  -31.7920 C   0  0  0  0  0  0  0  0  0  0  0  0
   -7.6300   21.6530  -32.3110 C   0  0  0  0  0  0  0  0  0  0  0  0
   -6.2330   21.6030  -32.2270 C   0  0  0  0  0  0  0  0  0  0  0  0
   -5.3680   20.2100  -32.8720 S   0  0  0  0  0  0  0  0  0  0  0  0
   -4.2720   20.7040  -33.7730 O   0  0  0  0  0  0  0  0  0  0  0  0
   -4.7480   19.4240  -31.7480 O   0  0  0  0  0  0  0  0  0  0  0  0
   -6.4710   19.1990  -33.7800 N   0  0  0  0  0  0  0  0  0  0  0  0
   -7.2820   18.3610  -32.8880 C   0  0  0  0  0  0  0  0  0  0  0  0
   -6.5760   17.0210  -32.7430 C   0  0  0  0  0  0  0  0  0  0  0  0
   -5.5690   16.9610  -33.8780 C   0  0  0  0  0  0  0  0  0  0  0  0
   -5.7390   18.2650  -34.6450 C   0  0  0  0  0  0  0  0  0  0  0  0
   -5.5370   22.6550  -31.6110 C   0  0  0  0  0  0  0  0  0  0  0  0
   -1.7360   24.3870  -29.0190 C   0  0  0  0  0  0  0  0  0  0  0  0
   -0.9540   23.5310  -28.2210 C   0  0  0  0  0  0  0  0  0  0  0  0
   -1.3830   22.2170  -28.0790 C   0  0  0  0  0  0  0  0  0  0  0  0
   -0.8330   21.2420  -27.4090 O   0  0  0  0  0  0  0  0  0  0  0  0
   -1.3807   18.9528  -25.8821 H   0  0  0  0  0  0  0  0  0  0  0  0
   -2.1423   18.1530  -27.2988 H   0  0  0  0  0  0  0  0  0  0  0  0
   -0.3779   18.4903  -27.2988 H   0  0  0  0  0  0  0  0  0  0  0  0
   -4.2336   22.1823  -29.9365 H   0  0  0  0  0  0  0  0  0  0  0  0
   -8.1850   24.6565  -30.7790 H   0  0  0  0  0  0  0  0  0  0  0  0
   -9.4243   22.7789  -31.8606 H   0  0  0  0  0  0  0  0  0  0  0  0
   -8.1801   20.8284  -32.7879 H   0  0  0  0  0  0  0  0  0  0  0  0
   -7.0880   19.8180  -34.3570 H   0  0  0  0  0  0  0  0  0  0  0  0
   -7.3760   18.8433  -31.9038 H   0  0  0  0  0  0  0  0  0  0  0  0
   -8.2913   18.2217  -33.3026 H   0  0  0  0  0  0  0  0  0  0  0  0
   -6.0630   16.9611  -31.7718 H   0  0  0  0  0  0  0  0  0  0  0  0
   -7.2859   16.1818  -32.7859 H   0  0  0  0  0  0  0  0  0  0  0  0
   -4.5466   16.8798  -33.4804 H   0  0  0  0  0  0  0  0  0  0  0  0
   -5.7337   16.0850  -34.5226 H   0  0  0  0  0  0  0  0  0  0  0  0
   -4.7531   18.6824  -34.8976 H   0  0  0  0  0  0  0  0  0  0  0  0
   -6.2912   18.0927  -35.5806 H   0  0  0  0  0  0  0  0  0  0  0  0
   -4.4403   22.6165  -31.5344 H   0  0  0  0  0  0  0  0  0  0  0  0
   -1.4284   25.4343  -29.1554 H   0  0  0  0  0  0  0  0  0  0  0  0
   -0.0378   23.8887  -27.7284 H   0  0  0  0  0  0  0  0  0  0  0  0
  1  2  1  0
  2  3  2  0
  3  4  1  0
  4  5  2  0
  5  6  1  0
  6  7  1  0
  7  8  1  0
  8  9  2  0
  8 10  2  0
  8 11  1  0
 11 12  2  0
 12 13  1  0
 13 14  2  0
 14 15  1  0
 15 16  1  0
 16 17  2  0
 16 18  2  0
 16 19  1  0
 19 20  1  0
 20 21  1  0
 21 22  1  0
 22 23  1  0
 15 24  2  0
  6 25  2  0
 25 26  1  0
 26 27  2  0
 27 28  1  0
 28  2  1  0
 27  4  1  0
 24 11  1  0
 23 19  1  0
  1 29  1  0
  1 30  1  0
  1 31  1  0
  5 32  1  0
 12 33  1  0
 13 34  1  0
 14 35  1  0
 19 36  1  0
 20 37  1  0
 20 38  1  0
 21 39  1  0
 21 40  1  0
 22 41  1  0
 22 42  1  0
 23 43  1  0
 23 44  1  0
 24 45  1  0
 25 46  1  0
 26 47  1  0
M  CHG  2   7  -1  19   1
M  END
>  <UniqueID>  (1) 
1

>  <SMILES>  (1) 
Cc1nc2cc([N-]S(=O)(=O)c3cccc(S(=O)(=O)[NH+]4CCCC4)c3)ccc2o1

>  <Energy>  (1) 
89.63092536928805

>  <Genealogy>  (1) 
Cc1nc2cc([N-]S(=O)(=O)c3cccc(S(=O)(=O)[NH+]4CCCC4)c3)ccc2o1 (protonated)
Cc1nc2cc([N-]S(=O)(=O)c3cccc(S(=O)(=O)[NH+]4CCCC4)c3)ccc2o1 (3D coordinates assigned)
Cc1nc2cc([N-]S(=O)(=O)c3cccc(S(=O)(=O)[NH+]4CCCC4)c3)ccc2o1 (nonaromatic ring conformer: 89.63092536928805 kcal/mol)

>  <smiles>  (1) 
Cc1nc2cc(NS(=O)(=O)c3cccc(S(=O)(=O)N4CCCC4)c3)ccc2o1

>  <score_type>  (1) 
oracle

>  <origin>  (1) 
adgpu

>  <m_score__min__energy>  (1) 
-10.390000000000001

>  <m_primary>  (1) 
energy

$$$$
1:0
     RDKit          3D

 54 57  0  0  0  0  0  0  0  0999 V2000
   -7.2220   17.1290  -33.1280 C   0  0  0  0  0  0  0  0  0  0  0  0
   -7.4630   18.5760  -32.7860 C   0  0  0  0  0  0  0  0  0  0  0  0
   -8.7780   19.0500  -32.6910 C   0  0  0  0  0  0  0  0  0  0  0  0
   -9.0050   20.3910  -32.3750 C   0  0  0  0  0  0  0  0  0  0  0  0
  -10.1840   20.8250  -32.2870 O   0  0  0  0  0  0  0  0  0  0  0  0
   -7.9850   21.2150  -32.1660 O   0  0  0  0  0  0  0  0  0  0  0  0
   -6.7180   20.8220  -32.2430 C   0  0  0  0  0  0  0  0  0  0  0  0
   -5.6980   21.7500  -32.0090 C   0  0  0  0  0  0  0  0  0  0  0  0
   -4.3540   21.3670  -32.0820 C   0  0  0  0  0  0  0  0  0  0  0  0
   -3.3720   22.3390  -31.8370 O   0  0  0  0  0  0  0  0  0  0  0  0
   -3.0960   22.8960  -30.5540 C   0  0  0  0  0  0  0  0  0  0  0  0
   -3.6580   24.2860  -30.4770 C   0  0  0  0  0  0  0  0  0  0  0  0
   -4.6400   24.5930  -31.2030 O   0  0  0  0  0  0  0  0  0  0  0  0
   -3.1310   25.2690  -29.5740 N   0  0  0  0  0  0  0  0  0  0  0  0
   -2.2580   25.0240  -28.4640 C   0  0  0  0  0  0  0  0  0  0  0  0
   -2.7980   24.5170  -27.2760 C   0  0  0  0  0  0  0  0  0  0  0  0
   -1.9770   24.2860  -26.1680 C   0  0  0  0  0  0  0  0  0  0  0  0
   -0.6100   24.5840  -26.2300 C   0  0  0  0  0  0  0  0  0  0  0  0
    0.4420   24.2720  -24.8500 S   0  0  0  0  0  0  0  0  0  0  0  0
    1.8070   23.8650  -25.3320 O   0  0  0  0  0  0  0  0  0  0  0  0
   -0.1390   23.1290  -24.0640 O   0  0  0  0  0  0  0  0  0  0  0  0
    0.5440   25.6880  -23.8220 N   0  0  0  0  0  0  0  0  0  0  0  0
   -0.7880   26.1330  -23.3670 C   0  0  0  0  0  0  0  0  0  0  0  0
   -1.6020   26.7980  -24.5020 C   0  0  0  0  0  0  0  0  0  0  0  0
   -0.8080   27.2270  -25.5950 O   0  0  0  0  0  0  0  0  0  0  0  0
    0.3770   27.8340  -25.1310 C   0  0  0  0  0  0  0  0  0  0  0  0
    1.2980   26.7850  -24.4790 C   0  0  0  0  0  0  0  0  0  0  0  0
   -0.0710   25.1170  -27.4070 C   0  0  0  0  0  0  0  0  0  0  0  0
   -0.8910   25.3460  -28.5150 C   0  0  0  0  0  0  0  0  0  0  0  0
   -4.0350   20.0330  -32.3960 C   0  0  0  0  0  0  0  0  0  0  0  0
   -5.0460   19.0990  -32.6310 C   0  0  0  0  0  0  0  0  0  0  0  0
   -6.4000   19.4800  -32.5580 C   0  0  0  0  0  0  0  0  0  0  0  0
   -7.1246   16.5445  -32.2012 H   0  0  0  0  0  0  0  0  0  0  0  0
   -8.0686   16.7453  -33.7163 H   0  0  0  0  0  0  0  0  0  0  0  0
   -6.2967   17.0405  -33.7163 H   0  0  0  0  0  0  0  0  0  0  0  0
   -9.6256   18.3706  -32.8641 H   0  0  0  0  0  0  0  0  0  0  0  0
   -5.9549   22.7914  -31.7651 H   0  0  0  0  0  0  0  0  0  0  0  0
   -3.5584   22.2705  -29.7762 H   0  0  0  0  0  0  0  0  0  0  0  0
   -2.0077   22.9328  -30.3981 H   0  0  0  0  0  0  0  0  0  0  0  0
   -3.8744   24.2991  -27.2139 H   0  0  0  0  0  0  0  0  0  0  0  0
   -2.4061   23.8690  -25.2450 H   0  0  0  0  0  0  0  0  0  0  0  0
    1.0810   25.3900  -22.9740 H   0  0  0  0  0  0  0  0  0  0  0  0
   -1.3453   25.2602  -22.9960 H   0  0  0  0  0  0  0  0  0  0  0  0
   -0.6411   26.8812  -22.5742 H   0  0  0  0  0  0  0  0  0  0  0  0
   -2.3397   26.0710  -24.8725 H   0  0  0  0  0  0  0  0  0  0  0  0
   -2.0752   27.6950  -24.0760 H   0  0  0  0  0  0  0  0  0  0  0  0
    0.9013   28.3000  -25.9783 H   0  0  0  0  0  0  0  0  0  0  0  0
    0.1177   28.5963  -24.3815 H   0  0  0  0  0  0  0  0  0  0  0  0
    1.9432   26.3513  -25.2572 H   0  0  0  0  0  0  0  0  0  0  0  0
    1.8846   27.2962  -23.7015 H   0  0  0  0  0  0  0  0  0  0  0  0
    1.0014   25.3563  -27.4597 H   0  0  0  0  0  0  0  0  0  0  0  0
   -0.4646   25.7803  -29.4313 H   0  0  0  0  0  0  0  0  0  0  0  0
   -2.9812   19.7236  -32.4568 H   0  0  0  0  0  0  0  0  0  0  0  0
   -4.7833   18.0590  -32.8747 H   0  0  0  0  0  0  0  0  0  0  0  0
  1  2  1  0
  2  3  2  0
  3  4  1  0
  4  5  2  0
  4  6  1  0
  6  7  1  0
  7  8  2  0
  8  9  1  0
  9 10  1  0
 10 11  1  0
 11 12  1  0
 12 13  2  0
 12 14  1  0
 14 15  1  0
 15 16  2  0
 16 17  1  0
 17 18  2  0
 18 19  1  0
 19 20  2  0
 19 21  2  0
 19 22  1  0
 22 23  1  0
 23 24  1  0
 24 25  1  0
 25 26  1  0
 26 27  1  0
 18 28  1  0
 28 29  2  0
  9 30  2  0
 30 31  1  0
 31 32  2  0
 32  2  1  0
 32  7  1  0
 29 15  1  0
 27 22  1  0
  1 33  1  0
  1 34  1  0
  1 35  1  0
  3 36  1  0
  8 37  1  0
 11 38  1  0
 11 39  1  0
 16 40  1  0
 17 41  1  0
 22 42  1  0
 23 43  1  0
 23 44  1  0
 24 45  1  0
 24 46  1  0
 26 47  1  0
 26 48  1  0
 27 49  1  0
 27 50  1  0
 28 51  1  0
 29 52  1  0
 30 53  1  0
 31 54  1  0
M  CHG  2  14  -1  22   1
M  END
>  <UniqueID>  (2) 
2

>  <SMILES>  (2) 
Cc1cc(=O)oc2cc(OCC(=O)[N-]c3ccc(S(=O)(=O)[NH+]4CCOCC4)cc3)ccc12

>  <Energy>  (2) 
76.53253302689393

>  <Genealogy>  (2) 
Cc1cc(=O)oc2cc(OCC(=O)[N-]c3ccc(S(=O)(=O)[NH+]4CCOCC4)cc3)ccc12 (protonated)
Cc1cc(=O)oc2cc(OCC(=O)[N-]c3ccc(S(=O)(=O)[NH+]4CCOCC4)cc3)ccc12 (3D coordinates assigned)
Cc1cc(=O)oc2cc(OCC(=O)[N-]c3ccc(S(=O)(=O)[NH+]4CCOCC4)cc3)ccc12 (nonaromatic ring conformer: 76.53253302689393 kcal/mol)

>  <smiles>  (2) 
Cc1cc(=O)oc2cc(OCC(=O)Nc3ccc(S(=O)(=O)N4CCOCC4)cc3)ccc12

>  <score_type>  (2) 
oracle

>  <origin>  (2) 
adgpu

>  <m_score__min__energy>  (2) 
-11.449999999999999

>  <m_primary>  (2) 
energy

$$$$
2:0
     RDKit          3D

 59 62  0  0  0  0  0  0  0  0999 V2000
   -1.6390   25.5990  -28.9590 O   0  0  0  0  0  0  0  0  0  0  0  0
   -2.6420   24.8610  -29.1590 C   0  0  0  0  0  0  0  0  0  0  0  0
   -2.7520   23.5530  -28.4400 C   0  0  0  0  0  0  0  0  0  0  0  0
   -1.4150   23.1250  -27.9730 N   0  0  0  0  0  0  0  0  0  0  0  0
   -1.4330   21.7930  -27.3350 C   0  0  0  0  0  0  0  0  0  0  0  0
   -1.7880   20.6800  -28.3310 C   0  0  0  0  0  0  0  0  0  0  0  0
   -0.9450   20.7530  -29.5270 N   0  0  0  0  0  0  0  0  0  0  0  0
   -0.7340   19.5660  -30.3160 C   0  0  0  0  0  0  0  0  0  0  0  0
   -1.3260   19.4550  -31.5880 C   0  0  0  0  0  0  0  0  0  0  0  0
   -1.1700   18.2870  -32.3410 C   0  0  0  0  0  0  0  0  0  0  0  0
   -0.4240   17.2200  -31.8350 C   0  0  0  0  0  0  0  0  0  0  0  0
    0.1680   17.3200  -30.5710 C   0  0  0  0  0  0  0  0  0  0  0  0
    0.0130   18.4840  -29.8060 C   0  0  0  0  0  0  0  0  0  0  0  0
    0.7090   18.5290  -28.1890 Cl  0  0  0  0  0  0  0  0  0  0  0  0
   -0.4960   22.0360  -29.9990 C   0  0  0  0  0  0  0  0  0  0  0  0
   -0.1220   22.1830  -31.1940 O   0  0  0  0  0  0  0  0  0  0  0  0
   -0.3940   23.1920  -29.0410 C   0  0  0  0  0  0  0  0  0  0  0  0
   -3.6920   25.2720  -30.0470 N   0  0  0  0  0  0  0  0  0  0  0  0
   -4.6890   24.4320  -30.6480 C   0  0  0  0  0  0  0  0  0  0  0  0
   -6.0250   24.8470  -30.8040 C   0  0  0  0  0  0  0  0  0  0  0  0
   -6.9570   24.0050  -31.4160 C   0  0  0  0  0  0  0  0  0  0  0  0
   -6.5640   22.7520  -31.8910 C   0  0  0  0  0  0  0  0  0  0  0  0
   -5.2320   22.3360  -31.7670 C   0  0  0  0  0  0  0  0  0  0  0  0
   -4.7320   20.7580  -32.3810 S   0  0  0  0  0  0  0  0  0  0  0  0
   -3.6810   20.9480  -33.4410 O   0  0  0  0  0  0  0  0  0  0  0  0
   -4.1200   19.9630  -31.2610 O   0  0  0  0  0  0  0  0  0  0  0  0
   -6.0800   19.8740  -33.0580 N   0  0  0  0  0  0  0  0  0  0  0  0
   -5.6330   18.8670  -34.0540 C   0  0  0  0  0  0  0  0  0  0  0  0
   -5.6810   17.4290  -33.5200 C   0  0  0  0  0  0  0  0  0  0  0  0
   -7.1000   17.0540  -33.0550 C   0  0  0  0  0  0  0  0  0  0  0  0
   -7.8850   18.2560  -32.5030 C   0  0  0  0  0  0  0  0  0  0  0  0
   -6.9370   19.3390  -31.9770 C   0  0  0  0  0  0  0  0  0  0  0  0
   -4.2980   23.1850  -31.1530 C   0  0  0  0  0  0  0  0  0  0  0  0
   -3.4220   23.6667  -27.5750 H   0  0  0  0  0  0  0  0  0  0  0  0
   -3.1579   22.7943  -29.1253 H   0  0  0  0  0  0  0  0  0  0  0  0
   -0.4376   21.5879  -26.9140 H   0  0  0  0  0  0  0  0  0  0  0  0
   -2.2039   21.8038  -26.5504 H   0  0  0  0  0  0  0  0  0  0  0  0
   -1.6400   19.7037  -27.8463 H   0  0  0  0  0  0  0  0  0  0  0  0
   -2.8375   20.8057  -28.6355 H   0  0  0  0  0  0  0  0  0  0  0  0
   -1.9147   20.2917  -31.9921 H   0  0  0  0  0  0  0  0  0  0  0  0
   -1.6360   18.2083  -33.3343 H   0  0  0  0  0  0  0  0  0  0  0  0
   -0.3020   16.3024  -32.4293 H   0  0  0  0  0  0  0  0  0  0  0  0
    0.7583   16.4803  -30.1756 H   0  0  0  0  0  0  0  0  0  0  0  0
    0.6038   23.1814  -28.5782 H   0  0  0  0  0  0  0  0  0  0  0  0
   -0.5617   24.1180  -29.6105 H   0  0  0  0  0  0  0  0  0  0  0  0
   -6.3365   25.8382  -30.4426 H   0  0  0  0  0  0  0  0  0  0  0  0
   -8.0024   24.3297  -31.5239 H   0  0  0  0  0  0  0  0  0  0  0  0
   -7.3032   22.0890  -32.3644 H   0  0  0  0  0  0  0  0  0  0  0  0
   -6.2856   18.9344  -34.9370 H   0  0  0  0  0  0  0  0  0  0  0  0
   -4.5842   19.0910  -34.2986 H   0  0  0  0  0  0  0  0  0  0  0  0
   -5.3714   16.7392  -34.3189 H   0  0  0  0  0  0  0  0  0  0  0  0
   -5.0015   17.3550  -32.6582 H   0  0  0  0  0  0  0  0  0  0  0  0
   -7.6514   16.6375  -33.9108 H   0  0  0  0  0  0  0  0  0  0  0  0
   -6.9982   16.3229  -32.2394 H   0  0  0  0  0  0  0  0  0  0  0  0
   -8.5046   18.6803  -33.3068 H   0  0  0  0  0  0  0  0  0  0  0  0
   -8.5156   17.9094  -31.6710 H   0  0  0  0  0  0  0  0  0  0  0  0
   -7.5322   20.1605  -31.5517 H   0  0  0  0  0  0  0  0  0  0  0  0
   -6.2889   18.8905  -31.2097 H   0  0  0  0  0  0  0  0  0  0  0  0
   -3.2481   22.8680  -31.0674 H   0  0  0  0  0  0  0  0  0  0  0  0
  1  2  2  0
  2  3  1  0
  3  4  1  0
  4  5  1  0
  5  6  1  0
  6  7  1  0
  7  8  1  0
  8  9  2  0
  9 10  1  0
 10 11  2  0
 11 12  1  0
 12 13  2  0
 13 14  1  0
  7 15  1  0
 15 16  2  0
 15 17  1  0
  2 18  1  0
 18 19  1  0
 19 20  2  0
 20 21  1  0
 21 22  2  0
 22 23  1  0
 23 24  1  0
 24 25  2  0
 24 26  2  0
 24 27  1  0
 27 28  1  0
 28 29  1  0
 29 30  1  0
 30 31  1  0
 31 32  1  0
 23 33  2  0
 17  4  1  0
 33 19  1  0
 13  8  1  0
 32 27  1  0
  3 34  1  0
  3 35  1  0
  5 36  1  0
  5 37  1  0
  6 38  1  0
  6 39  1  0
  9 40  1  0
 10 41  1  0
 11 42  1  0
 12 43  1  0
 17 44  1  0
 17 45  1  0
 20 46  1  0
 21 47  1  0
 22 48  1  0
 28 49  1  0
 28 50  1  0
 29 51  1  0
 29 52  1  0
 30 53  1  0
 30 54  1  0
 31 55  1  0
 31 56  1  0
 32 57  1  0
 32 58  1  0
 33 59  1  0
M  CHG  1  18  -1
M  END
>  <UniqueID>  (3) 
3

>  <SMILES>  (3) 
O=C(CN1CCN(c2ccccc2Cl)C(=O)C1)[N-]c1cccc(S(=O)(=O)N2CCCCC2)c1

>  <Energy>  (3) 
79.5490455680683

>  <Genealogy>  (3) 
O=C(CN1CCN(c2ccccc2Cl)C(=O)C1)[N-]c1cccc(S(=O)(=O)N2CCCCC2)c1 (protonated)
O=C(CN1CCN(c2ccccc2Cl)C(=O)C1)[N-]c1cccc(S(=O)(=O)N2CCCCC2)c1 (3D coordinates assigned)
O=C(CN1CCN(c2ccccc2Cl)C(=O)C1)[N-]c1cccc(S(=O)(=O)N2CCCCC2)c1 (nonaromatic ring conformer: 79.5490455680683 kcal/mol)

>  <smiles>  (3) 
O=C(CN1CCN(c2ccccc2Cl)C(=O)C1)Nc1cccc(S(=O)(=O)N2CCCCC2)c1

>  <score_type>  (3) 
oracle

>  <origin>  (3) 
adgpu

>  <m_score__min__energy>  (3) 
-12.140000000000001

>  <m_primary>  (3) 
energy

$$$$
3:0
     RDKit          3D

 41 44  0  0  0  0  0  0  0  0999 V2000
    1.0770   24.2350  -28.4530 O   0  0  0  0  0  0  0  0  0  0  0  0
    0.0560   23.9030  -27.7930 C   0  0  0  0  0  0  0  0  0  0  0  0
    0.2070   23.5320  -26.3760 C   0  0  0  0  0  0  0  0  0  0  0  0
    1.2210   23.9660  -25.5310 C   0  0  0  0  0  0  0  0  0  0  0  0
    1.0910   23.4900  -24.2200 C   0  0  0  0  0  0  0  0  0  0  0  0
   -0.0300   22.6940  -24.0230 C   0  0  0  0  0  0  0  0  0  0  0  0
   -0.8600   22.5870  -25.4800 S   0  0  0  0  0  0  0  0  0  0  0  0
   -1.2610   23.9170  -28.4600 C   0  0  0  0  0  0  0  0  0  0  0  0
   -1.8010   24.9760  -29.1610 C   0  0  0  0  0  0  0  0  0  0  0  0
   -1.2370   26.2360  -29.3210 O   0  0  0  0  0  0  0  0  0  0  0  0
   -2.9970   24.5510  -29.6830 C   0  0  0  0  0  0  0  0  0  0  0  0
   -3.8430   25.3220  -30.4730 O   0  0  0  0  0  0  0  0  0  0  0  0
   -3.2290   23.2650  -29.3470 N   0  0  0  0  0  0  0  0  0  0  0  0
   -4.3500   22.4450  -29.8220 C   0  0  0  0  0  0  0  0  0  0  0  0
   -4.0140   21.7560  -31.1190 C   0  0  0  0  0  0  0  0  0  0  0  0
   -5.0240   21.1630  -31.8920 C   0  0  0  0  0  0  0  0  0  0  0  0
   -4.7040   20.5130  -33.0850 C   0  0  0  0  0  0  0  0  0  0  0  0
   -3.3690   20.4440  -33.4880 C   0  0  0  0  0  0  0  0  0  0  0  0
   -2.3960   21.0020  -32.7200 N   0  0  0  0  0  0  0  0  0  0  0  0
   -2.6830   21.6430  -31.5550 C   0  0  0  0  0  0  0  0  0  0  0  0
   -2.1700   22.8660  -28.5960 C   0  0  0  0  0  0  0  0  0  0  0  0
   -1.9450   21.4770  -28.1470 C   0  0  0  0  0  0  0  0  0  0  0  0
   -2.9560   20.7860  -27.4610 C   0  0  0  0  0  0  0  0  0  0  0  0
   -2.7520   19.4640  -27.0520 C   0  0  0  0  0  0  0  0  0  0  0  0
   -1.5400   18.8250  -27.3290 C   0  0  0  0  0  0  0  0  0  0  0  0
   -0.5330   19.5040  -28.0220 C   0  0  0  0  0  0  0  0  0  0  0  0
    0.6660   18.8640  -28.3080 O   0  0  0  0  0  0  0  0  0  0  0  0
   -0.7360   20.8260  -28.4320 C   0  0  0  0  0  0  0  0  0  0  0  0
    2.0438   24.6183  -25.8588 H   0  0  0  0  0  0  0  0  0  0  0  0
    1.8097   23.7247  -23.4210 H   0  0  0  0  0  0  0  0  0  0  0  0
   -0.3237   22.2162  -23.0767 H   0  0  0  0  0  0  0  0  0  0  0  0
   -4.5845   21.6845  -29.0626 H   0  0  0  0  0  0  0  0  0  0  0  0
   -5.2140   23.1041  -29.9929 H   0  0  0  0  0  0  0  0  0  0  0  0
   -6.0706   21.2106  -31.5568 H   0  0  0  0  0  0  0  0  0  0  0  0
   -5.4949   20.0601  -33.7009 H   0  0  0  0  0  0  0  0  0  0  0  0
   -3.1043   19.9376  -34.4279 H   0  0  0  0  0  0  0  0  0  0  0  0
   -1.8703   22.0744  -30.9522 H   0  0  0  0  0  0  0  0  0  0  0  0
   -3.9117   21.2857  -27.2444 H   0  0  0  0  0  0  0  0  0  0  0  0
   -3.5458   18.9269  -26.5121 H   0  0  0  0  0  0  0  0  0  0  0  0
   -1.3783   17.7874  -27.0016 H   0  0  0  0  0  0  0  0  0  0  0  0
    0.0560   21.3571  -28.9803 H   0  0  0  0  0  0  0  0  0  0  0  0
  1  2  2  0
  2  3  1  0
  3  4  2  0
  4  5  1  0
  5  6  2  0
  6  7  1  0
  2  8  1  0
  8  9  1  0
  9 10  1  0
  9 11  2  0
 11 12  1  0
 11 13  1  0
 13 14  1  0
 14 15  1  0
 15 16  2  0
 16 17  1  0
 17 18  2  0
 18 19  1  0
 19 20  2  0
 13 21  1  0
 21 22  1  0
 22 23  2  0
 23 24  1  0
 24 25  2  0
 25 26  1  0
 26 27  1  0
 26 28  2  0
  7  3  1  0
 21  8  2  0
 28 22  1  0
 20 15  1  0
  4 29  1  0
  5 30  1  0
  6 31  1  0
 14 32  1  0
 14 33  1  0
 16 34  1  0
 17 35  1  0
 18 36  1  0
 20 37  1  0
 23 38  1  0
 24 39  1  0
 25 40  1  0
 28 41  1  0
M  CHG  3  10  -1  12  -1  27  -1
M  END
>  <UniqueID>  (4) 
4

>  <SMILES>  (4) 
O=C(c1cccs1)c1c([O-])c([O-])n(Cc2cccnc2)c1-c1cccc([O-])c1

>  <Energy>  (4) 
110.13566970322591

>  <Genealogy>  (4) 
O=C(c1cccs1)c1c([O-])c([O-])n(Cc2cccnc2)c1-c1cccc([O-])c1 (protonated)
O=C(c1cccs1)c1c([O-])c([O-])n(Cc2cccnc2)c1-c1cccc([O-])c1 (3D coordinates assigned)
O=C(c1cccs1)c1c([O-])c([O-])n(Cc2cccnc2)c1-c1cccc([O-])c1 (optimized conformer: 110.13566970322591 kcal/mol)

>  <smiles>  (4) 
O=C(c1cccs1)c1c(O)c(O)n(Cc2cccnc2)c1-c1cccc(O)c1

>  <score_type>  (4) 
oracle

>  <origin>  (4) 
adgpu

>  <m_score__min__energy>  (4) 
-13.85

>  <m_primary>  (4) 
energy

$$$$
4:0
     RDKit          3D

 55 58  0  0  0  0  0  0  0  0999 V2000
   -5.9840   24.3200  -31.8910 O   0  0  0  0  0  0  0  0  0  0  0  0
   -4.9200   23.7690  -31.5010 C   0  0  0  0  0  0  0  0  0  0  0  0
   -4.1120   24.3960  -30.4940 N   0  0  0  0  0  0  0  0  0  0  0  0
   -3.3780   23.7400  -29.4500 C   0  0  0  0  0  0  0  0  0  0  0  0
   -3.7670   22.4840  -28.9450 C   0  0  0  0  0  0  0  0  0  0  0  0
   -3.0440   21.8870  -27.9080 C   0  0  0  0  0  0  0  0  0  0  0  0
   -1.9350   22.5380  -27.3590 C   0  0  0  0  0  0  0  0  0  0  0  0
   -1.0290   21.7860  -26.0600 Cl  0  0  0  0  0  0  0  0  0  0  0  0
   -1.5570   23.7960  -27.8410 C   0  0  0  0  0  0  0  0  0  0  0  0
   -2.2780   24.3980  -28.8770 C   0  0  0  0  0  0  0  0  0  0  0  0
   -1.8960   25.6530  -29.3400 O   0  0  0  0  0  0  0  0  0  0  0  0
   -4.5120   22.4550  -32.0540 C   0  0  0  0  0  0  0  0  0  0  0  0
   -3.1670   22.2580  -32.4210 C   0  0  0  0  0  0  0  0  0  0  0  0
   -2.7400   21.0410  -32.9660 C   0  0  0  0  0  0  0  0  0  0  0  0
   -1.0400   20.8010  -33.3780 S   0  0  0  0  0  0  0  0  0  0  0  0
   -0.5800   21.9260  -34.2630 O   0  0  0  0  0  0  0  0  0  0  0  0
   -0.8910   19.5150  -34.1430 O   0  0  0  0  0  0  0  0  0  0  0  0
   -0.0390   20.7440  -31.9440 N   0  0  0  0  0  0  0  0  0  0  0  0
    0.5560   19.3990  -31.7880 C   0  0  0  0  0  0  0  0  0  0  0  0
    1.0750   19.1800  -30.3640 C   0  0  0  0  0  0  0  0  0  0  0  0
   -0.0710   19.2550  -29.3400 C   0  0  0  0  0  0  0  0  0  0  0  0
   -1.2470   20.1190  -29.8250 C   0  0  0  0  0  0  0  0  0  0  0  0
   -0.7640   21.2460  -30.7500 C   0  0  0  0  0  0  0  0  0  0  0  0
   -3.6650   20.0130  -33.1690 C   0  0  0  0  0  0  0  0  0  0  0  0
   -5.0010   20.1890  -32.8090 C   0  0  0  0  0  0  0  0  0  0  0  0
   -5.4330   21.3970  -32.2440 C   0  0  0  0  0  0  0  0  0  0  0  0
   -6.7960   21.5100  -31.8170 N   0  0  0  0  0  0  0  0  0  0  0  0
   -7.1700   22.0020  -30.5040 C   0  0  0  0  0  0  0  0  0  0  0  0
   -8.6900   21.9370  -30.4680 C   0  0  0  0  0  0  0  0  0  0  0  0
   -9.0950   20.9860  -31.5930 C   0  0  0  0  0  0  0  0  0  0  0  0
   -7.9070   20.9300  -32.5470 C   0  0  0  0  0  0  0  0  0  0  0  0
   -4.6431   21.9708  -29.3682 H   0  0  0  0  0  0  0  0  0  0  0  0
   -3.3484   20.9026  -27.5230 H   0  0  0  0  0  0  0  0  0  0  0  0
   -0.6901   24.3130  -27.4037 H   0  0  0  0  0  0  0  0  0  0  0  0
   -2.4412   23.0720  -32.2775 H   0  0  0  0  0  0  0  0  0  0  0  0
   -0.2094   18.6409  -32.0106 H   0  0  0  0  0  0  0  0  0  0  0  0
    1.4042   19.3127  -32.4830 H   0  0  0  0  0  0  0  0  0  0  0  0
    1.5478   18.1887  -30.3023 H   0  0  0  0  0  0  0  0  0  0  0  0
    1.8037   19.9706  -30.1319 H   0  0  0  0  0  0  0  0  0  0  0  0
   -0.4388   18.2361  -29.1487 H   0  0  0  0  0  0  0  0  0  0  0  0
    0.3294   19.7219  -28.4280 H   0  0  0  0  0  0  0  0  0  0  0  0
   -1.9567   19.4831  -30.3746 H   0  0  0  0  0  0  0  0  0  0  0  0
   -1.7313   20.5722  -28.9475 H   0  0  0  0  0  0  0  0  0  0  0  0
   -1.6383   21.8221  -31.0871 H   0  0  0  0  0  0  0  0  0  0  0  0
   -0.0613   21.8664  -30.1744 H   0  0  0  0  0  0  0  0  0  0  0  0
   -3.3382   19.0617  -33.6143 H   0  0  0  0  0  0  0  0  0  0  0  0
   -5.7214   19.3734  -32.9697 H   0  0  0  0  0  0  0  0  0  0  0  0
   -6.7385   21.3660  -29.7171 H   0  0  0  0  0  0  0  0  0  0  0  0
   -6.7992   23.0225  -30.3278 H   0  0  0  0  0  0  0  0  0  0  0  0
   -9.0336   21.5498  -29.4974 H   0  0  0  0  0  0  0  0  0  0  0  0
   -9.1401   22.9322  -30.5987 H   0  0  0  0  0  0  0  0  0  0  0  0
   -9.3078   19.9853  -31.1890 H   0  0  0  0  0  0  0  0  0  0  0  0
  -10.0052   21.3326  -32.1043 H   0  0  0  0  0  0  0  0  0  0  0  0
   -7.6841   19.8887  -32.8227 H   0  0  0  0  0  0  0  0  0  0  0  0
   -8.1087   21.4730  -33.4822 H   0  0  0  0  0  0  0  0  0  0  0  0
  1  2  2  0
  2  3  1  0
  3  4  1  0
  4  5  2  0
  5  6  1  0
  6  7  2  0
  7  8  1  0
  7  9  1  0
  9 10  2  0
 10 11  1  0
  2 12  1  0
 12 13  2  0
 13 14  1  0
 14 15  1  0
 15 16  2  0
 15 17  2  0
 15 18  1  0
 18 19  1  0
 19 20  1  0
 20 21  1  0
 21 22  1  0
 22 23  1  0
 14 24  2  0
 24 25  1  0
 25 26  2  0
 26 27  1  0
 27 28  1  0
 28 29  1  0
 29 30  1  0
 30 31  1  0
 10  4  1  0
 26 12  1  0
 31 27  1  0
 23 18  1  0
  5 32  1  0
  6 33  1  0
  9 34  1  0
 13 35  1  0
 19 36  1  0
 19 37  1  0
 20 38  1  0
 20 39  1  0
 21 40  1  0
 21 41  1  0
 22 42  1  0
 22 43  1  0
 23 44  1  0
 23 45  1  0
 24 46  1  0
 25 47  1  0
 28 48  1  0
 28 49  1  0
 29 50  1  0
 29 51  1  0
 30 52  1  0
 30 53  1  0
 31 54  1  0
 31 55  1  0
M  CHG  2   3  -1  11  -1
M  END
>  <UniqueID>  (5) 
5

>  <SMILES>  (5) 
O=C([N-]c1ccc(Cl)cc1[O-])c1cc(S(=O)(=O)N2CCCCC2)ccc1N1CCCC1

>  <Energy>  (5) 
73.34831286382537

>  <Genealogy>  (5) 
O=C([N-]c1ccc(Cl)cc1[O-])c1cc(S(=O)(=O)N2CCCCC2)ccc1N1CCCC1 (protonated)
O=C([N-]c1ccc(Cl)cc1[O-])c1cc(S(=O)(=O)N2CCCCC2)ccc1N1CCCC1 (3D coordinates assigned)
O=C([N-]c1ccc(Cl)cc1[O-])c1cc(S(=O)(=O)N2CCCCC2)ccc1N1CCCC1 (nonaromatic ring conformer: 73.34831286382537 kcal/mol)

>  <smiles>  (5) 
O=C(Nc1ccc(Cl)cc1O)c1cc(S(=O)(=O)N2CCCCC2)ccc1N1CCCC1

>  <score_type>  (5) 
oracle

>  <origin>  (5) 
adgpu

>  <m_score__min__energy>  (5) 
-13.92

>  <m_primary>  (5) 
energy

$$$$
5:0
     RDKit          3D

 60 63  0  0  0  0  0  0  0  0999 V2000
   -1.7540   21.5780  -33.8390 O   0  0  0  0  0  0  0  0  0  0  0  0
   -0.9520   20.3680  -33.4470 S   0  0  0  0  0  0  0  0  0  0  0  0
    0.1780   20.2270  -34.4250 O   0  0  0  0  0  0  0  0  0  0  0  0
   -0.3840   20.6040  -31.8220 N   0  0  0  0  0  0  0  0  0  0  0  0
   -1.1650   21.0030  -30.6870 C   0  0  0  0  0  0  0  0  0  0  0  0
   -1.3400   20.0840  -29.6420 C   0  0  0  0  0  0  0  0  0  0  0  0
   -2.0920   20.4260  -28.5170 C   0  0  0  0  0  0  0  0  0  0  0  0
   -2.6940   21.6850  -28.4320 C   0  0  0  0  0  0  0  0  0  0  0  0
   -2.5510   22.6030  -29.4810 C   0  0  0  0  0  0  0  0  0  0  0  0
   -3.3340   24.1790  -29.4120 S   0  0  0  0  0  0  0  0  0  0  0  0
   -4.1860   24.2320  -28.1720 O   0  0  0  0  0  0  0  0  0  0  0  0
   -2.2960   25.2650  -29.3380 O   0  0  0  0  0  0  0  0  0  0  0  0
   -4.3290   24.3870  -30.8380 N   0  0  0  0  0  0  0  0  0  0  0  0
   -5.5060   25.2520  -30.5790 C   0  0  0  0  0  0  0  0  0  0  0  0
   -6.8610   24.5320  -30.7170 C   0  0  0  0  0  0  0  0  0  0  0  0
   -6.8020   23.1440  -30.0850 C   0  0  0  0  0  0  0  0  0  0  0  0
   -5.6900   22.2790  -30.7040 C   0  0  0  0  0  0  0  0  0  0  0  0
   -4.6450   23.0990  -31.4840 C   0  0  0  0  0  0  0  0  0  0  0  0
   -1.7930   22.2580  -30.6080 C   0  0  0  0  0  0  0  0  0  0  0  0
   -1.9710   18.9270  -33.5110 C   0  0  0  0  0  0  0  0  0  0  0  0
   -3.3480   19.0530  -33.7550 C   0  0  0  0  0  0  0  0  0  0  0  0
   -4.1670   17.9180  -33.8050 C   0  0  0  0  0  0  0  0  0  0  0  0
   -5.8960   18.1030  -34.0810 S   0  0  0  0  0  0  0  0  0  0  0  0
   -6.1090   18.9190  -35.3260 O   0  0  0  0  0  0  0  0  0  0  0  0
   -6.5340   16.7540  -34.2750 O   0  0  0  0  0  0  0  0  0  0  0  0
   -6.6080   18.9260  -32.7160 N   0  0  0  0  0  0  0  0  0  0  0  0
   -7.7620   18.1920  -32.1980 C   0  0  0  0  0  0  0  0  0  0  0  0
   -8.6650   19.2200  -31.5360 C   0  0  0  0  0  0  0  0  0  0  0  0
   -8.2520   20.5590  -32.1280 C   0  0  0  0  0  0  0  0  0  0  0  0
   -7.1200   20.2410  -33.0930 C   0  0  0  0  0  0  0  0  0  0  0  0
   -3.6100   16.6500  -33.5970 C   0  0  0  0  0  0  0  0  0  0  0  0
   -2.2420   16.5180  -33.3530 C   0  0  0  0  0  0  0  0  0  0  0  0
   -1.4170   17.6500  -33.3110 C   0  0  0  0  0  0  0  0  0  0  0  0
   -0.0530   17.5060  -33.0670 O   0  0  0  0  0  0  0  0  0  0  0  0
   -0.8813   19.0865  -29.7095 H   0  0  0  0  0  0  0  0  0  0  0  0
   -2.2112   19.7038  -27.6959 H   0  0  0  0  0  0  0  0  0  0  0  0
   -3.2802   21.9551  -27.5412 H   0  0  0  0  0  0  0  0  0  0  0  0
   -5.4268   25.6448  -29.5546 H   0  0  0  0  0  0  0  0  0  0  0  0
   -5.4899   26.0446  -31.3416 H   0  0  0  0  0  0  0  0  0  0  0  0
   -7.6381   25.1254  -30.2129 H   0  0  0  0  0  0  0  0  0  0  0  0
   -7.0964   24.4238  -31.7861 H   0  0  0  0  0  0  0  0  0  0  0  0
   -6.6104   23.2518  -29.0072 H   0  0  0  0  0  0  0  0  0  0  0  0
   -7.7647   22.6445  -30.2684 H   0  0  0  0  0  0  0  0  0  0  0  0
   -5.1769   21.7382  -29.8951 H   0  0  0  0  0  0  0  0  0  0  0  0
   -6.1690   21.5951  -31.4201 H   0  0  0  0  0  0  0  0  0  0  0  0
   -3.7203   22.5080  -31.5601 H   0  0  0  0  0  0  0  0  0  0  0  0
   -5.0707   23.3212  -32.4737 H   0  0  0  0  0  0  0  0  0  0  0  0
   -1.6888   22.9742  -31.4364 H   0  0  0  0  0  0  0  0  0  0  0  0
   -3.7866   20.0501  -33.9080 H   0  0  0  0  0  0  0  0  0  0  0  0
   -8.2946   17.6917  -33.0202 H   0  0  0  0  0  0  0  0  0  0  0  0
   -7.4517   17.4157  -31.4831 H   0  0  0  0  0  0  0  0  0  0  0  0
   -9.7204   19.0080  -31.7622 H   0  0  0  0  0  0  0  0  0  0  0  0
   -8.5652   19.2081  -30.4406 H   0  0  0  0  0  0  0  0  0  0  0  0
   -9.0955   21.0202  -32.6626 H   0  0  0  0  0  0  0  0  0  0  0  0
   -7.9392   21.2715  -31.3505 H   0  0  0  0  0  0  0  0  0  0  0  0
   -7.4967   20.2198  -34.1263 H   0  0  0  0  0  0  0  0  0  0  0  0
   -6.3294   21.0041  -33.0427 H   0  0  0  0  0  0  0  0  0  0  0  0
   -4.2514   15.7569  -33.6260 H   0  0  0  0  0  0  0  0  0  0  0  0
   -1.8090   15.5196  -33.1927 H   0  0  0  0  0  0  0  0  0  0  0  0
    0.5940   18.2760  -33.1970 H   0  0  0  0  0  0  0  0  0  0  0  0
  1  2  2  0
  2  3  2  0
  2  4  1  0
  4  5  1  0
  5  6  2  0
  6  7  1  0
  7  8  2  0
  8  9  1  0
  9 10  1  0
 10 11  2  0
 10 12  2  0
 10 13  1  0
 13 14  1  0
 14 15  1  0
 15 16  1  0
 16 17  1  0
 17 18  1  0
  9 19  2  0
  2 20  1  0
 20 21  2  0
 21 22  1  0
 22 23  1  0
 23 24  2  0
 23 25  2  0
 23 26  1  0
 26 27  1  0
 27 28  1  0
 28 29  1  0
 29 30  1  0
 22 31  2  0
 31 32  1  0
 32 33  2  0
 33 34  1  0
 19  5  1  0
 33 20  1  0
 18 13  1  0
 30 26  1  0
  6 35  1  0
  7 36  1  0
  8 37  1  0
 14 38  1  0
 14 39  1  0
 15 40  1  0
 15 41  1  0
 16 42  1  0
 16 43  1  0
 17 44  1  0
 17 45  1  0
 18 46  1  0
 18 47  1  0
 19 48  1  0
 21 49  1  0
 27 50  1  0
 27 51  1  0
 28 52  1  0
 28 53  1  0
 29 54  1  0
 29 55  1  0
 30 56  1  0
 30 57  1  0
 31 58  1  0
 32 59  1  0
 34 60  1  0
M  CHG  1   4  -1
M  END
>  <UniqueID>  (6) 
6

>  <SMILES>  (6) 
O=S(=O)([N-]c1cccc(S(=O)(=O)N2CCCCC2)c1)c1cc(S(=O)(=O)N2CCCC2)ccc1O

>  <Energy>  (6) 
76.21270909387765

>  <Genealogy>  (6) 
O=S(=O)([N-]c1cccc(S(=O)(=O)N2CCCCC2)c1)c1cc(S(=O)(=O)N2CCCC2)ccc1O (protonated)
O=S(=O)([N-]c1cccc(S(=O)(=O)N2CCCCC2)c1)c1cc(S(=O)(=O)N2CCCC2)ccc1O (3D coordinates assigned)
O=S(=O)([N-]c1cccc(S(=O)(=O)N2CCCCC2)c1)c1cc(S(=O)(=O)N2CCCC2)ccc1O (nonaromatic ring conformer: 76.21270909387765 kcal/mol)

>  <smiles>  (6) 
O=S(=O)(Nc1cccc(S(=O)(=O)N2CCCCC2)c1)c1cc(S(=O)(=O)N2CCCC2)ccc1O

>  <score_type>  (6) 
oracle

>  <origin>  (6) 
adgpu

>  <m_score__min__energy>  (6) 
-12.74

>  <m_primary>  (6) 
energy

$$$$
6:0
     RDKit          3D

 59 61  0  0  0  0  0  0  0  0999 V2000
   -6.0800   18.9190  -34.1660 C   0  0  0  0  0  0  0  0  0  0  0  0
   -6.7000   17.9070  -33.2100 C   0  0  0  0  0  0  0  0  0  0  0  0
   -7.1330   18.5460  -32.0110 O   0  0  0  0  0  0  0  0  0  0  0  0
   -7.9370   19.6930  -31.9920 C   0  0  0  0  0  0  0  0  0  0  0  0
   -9.1930   19.5820  -32.0680 O   0  0  0  0  0  0  0  0  0  0  0  0
   -7.3300   20.9960  -31.8820 N   0  0  0  0  0  0  0  0  0  0  0  0
   -5.8870   21.1030  -31.6370 C   0  0  0  0  0  0  0  0  0  0  0  0
   -5.3190   22.4040  -32.2290 C   0  0  0  0  0  0  0  0  0  0  0  0
   -6.1280   23.5950  -31.8910 N   0  0  0  0  0  0  0  0  0  0  0  0
   -5.9600   24.0440  -30.4890 C   0  0  0  0  0  0  0  0  0  0  0  0
   -5.1450   25.3090  -30.4490 C   0  0  0  0  0  0  0  0  0  0  0  0
   -5.7300   26.4240  -30.4660 O   0  0  0  0  0  0  0  0  0  0  0  0
   -3.7150   25.2860  -30.3550 N   0  0  0  0  0  0  0  0  0  0  0  0
   -2.9140   24.2680  -29.7370 C   0  0  0  0  0  0  0  0  0  0  0  0
   -2.4420   24.4000  -28.4210 C   0  0  0  0  0  0  0  0  0  0  0  0
   -1.6880   23.3780  -27.8390 C   0  0  0  0  0  0  0  0  0  0  0  0
   -1.4130   22.2110  -28.5590 C   0  0  0  0  0  0  0  0  0  0  0  0
   -1.9020   22.0590  -29.8640 C   0  0  0  0  0  0  0  0  0  0  0  0
   -1.5600   20.5830  -30.7720 S   0  0  0  0  0  0  0  0  0  0  0  0
   -0.8810   19.5950  -29.8660 O   0  0  0  0  0  0  0  0  0  0  0  0
   -2.8540   19.9750  -31.2360 O   0  0  0  0  0  0  0  0  0  0  0  0
   -0.5400   20.9000  -32.1540 N   0  0  0  0  0  0  0  0  0  0  0  0
    0.5010   19.8600  -32.2700 C   0  0  0  0  0  0  0  0  0  0  0  0
    1.2630   19.9380  -33.6130 C   0  0  0  0  0  0  0  0  0  0  0  0
    1.0110   21.2670  -34.3320 C   0  0  0  0  0  0  0  0  0  0  0  0
   -0.4940   21.4970  -34.5540 C   0  0  0  0  0  0  0  0  0  0  0  0
   -1.3480   20.9750  -33.3830 C   0  0  0  0  0  0  0  0  0  0  0  0
   -2.6610   23.0860  -30.4430 C   0  0  0  0  0  0  0  0  0  0  0  0
   -7.5390   23.4130  -32.2850 C   0  0  0  0  0  0  0  0  0  0  0  0
   -8.1620   22.1780  -31.6290 C   0  0  0  0  0  0  0  0  0  0  0  0
   -5.5910   19.7172  -33.5884 H   0  0  0  0  0  0  0  0  0  0  0  0
   -5.3349   18.4159  -34.7998 H   0  0  0  0  0  0  0  0  0  0  0  0
   -6.8666   19.3543  -34.7998 H   0  0  0  0  0  0  0  0  0  0  0  0
   -7.5636   17.4314  -33.6979 H   0  0  0  0  0  0  0  0  0  0  0  0
   -5.9423   17.1516  -32.9544 H   0  0  0  0  0  0  0  0  0  0  0  0
   -5.7052   21.0927  -30.5522 H   0  0  0  0  0  0  0  0  0  0  0  0
   -5.3866   20.2515  -32.1214 H   0  0  0  0  0  0  0  0  0  0  0  0
   -4.3005   22.5504  -31.8403 H   0  0  0  0  0  0  0  0  0  0  0  0
   -5.3299   22.2991  -33.3239 H   0  0  0  0  0  0  0  0  0  0  0  0
   -6.9489   24.2333  -30.0459 H   0  0  0  0  0  0  0  0  0  0  0  0
   -5.4399   23.2606  -29.9182 H   0  0  0  0  0  0  0  0  0  0  0  0
   -2.6666   25.3109  -27.8467 H   0  0  0  0  0  0  0  0  0  0  0  0
   -1.3098   23.4914  -26.8123 H   0  0  0  0  0  0  0  0  0  0  0  0
   -0.8123   21.4115  -28.1008 H   0  0  0  0  0  0  0  0  0  0  0  0
    1.2204   19.9866  -31.4475 H   0  0  0  0  0  0  0  0  0  0  0  0
    0.0037   18.8800  -32.2223 H   0  0  0  0  0  0  0  0  0  0  0  0
    2.3408   19.8374  -33.4175 H   0  0  0  0  0  0  0  0  0  0  0  0
    0.9016   19.1248  -34.2596 H   0  0  0  0  0  0  0  0  0  0  0  0
    1.4142   22.0884  -33.7215 H   0  0  0  0  0  0  0  0  0  0  0  0
    1.5090   21.2351  -35.3123 H   0  0  0  0  0  0  0  0  0  0  0  0
   -0.6732   22.5763  -34.6680 H   0  0  0  0  0  0  0  0  0  0  0  0
   -0.7881   20.9415  -35.4567 H   0  0  0  0  0  0  0  0  0  0  0  0
   -2.1950   21.6575  -33.2192 H   0  0  0  0  0  0  0  0  0  0  0  0
   -1.7170   19.9687  -33.6303 H   0  0  0  0  0  0  0  0  0  0  0  0
   -3.0609   22.9619  -31.4602 H   0  0  0  0  0  0  0  0  0  0  0  0
   -8.1102   24.3027  -31.9816 H   0  0  0  0  0  0  0  0  0  0  0  0
   -7.5722   23.2722  -33.3754 H   0  0  0  0  0  0  0  0  0  0  0  0
   -8.2391   22.3427  -30.5441 H   0  0  0  0  0  0  0  0  0  0  0  0
   -9.1622   22.0110  -32.0554 H   0  0  0  0  0  0  0  0  0  0  0  0
  1  2  1  0
  2  3  1  0
  3  4  1  0
  4  5  2  0
  4  6  1  0
  6  7  1  0
  7  8  1  0
  8  9  1  0
  9 10  1  0
 10 11  1  0
 11 12  2  0
 11 13  1  0
 13 14  1  0
 14 15  2  0
 15 16  1  0
 16 17  2  0
 17 18  1  0
 18 19  1  0
 19 20  2  0
 19 21  2  0
 19 22  1  0
 22 23  1  0
 23 24  1  0
 24 25  1  0
 25 26  1  0
 26 27  1  0
 18 28  2  0
  9 29  1  0
 29 30  1  0
 30  6  1  0
 28 14  1  0
 27 22  1  0
  1 31  1  0
  1 32  1  0
  1 33  1  0
  2 34  1  0
  2 35  1  0
  7 36  1  0
  7 37  1  0
  8 38  1  0
  8 39  1  0
 10 40  1  0
 10 41  1  0
 15 42  1  0
 16 43  1  0
 17 44  1  0
 23 45  1  0
 23 46  1  0
 24 47  1  0
 24 48  1  0
 25 49  1  0
 25 50  1  0
 26 51  1  0
 26 52  1  0
 27 53  1  0
 27 54  1  0
 28 55  1  0
 29 56  1  0
 29 57  1  0
 30 58  1  0
 30 59  1  0
M  CHG  1  13  -1
M  END
>  <UniqueID>  (7) 
7

>  <SMILES>  (7) 
CCOC(=O)N1CCN(CC(=O)[N-]c2cccc(S(=O)(=O)N3CCCCC3)c2)CC1

>  <Energy>  (7) 
65.86427233667933

>  <Genealogy>  (7) 
CCOC(=O)N1CCN(CC(=O)[N-]c2cccc(S(=O)(=O)N3CCCCC3)c2)CC1 (protonated)
CCOC(=O)N1CCN(CC(=O)[N-]c2cccc(S(=O)(=O)N3CCCCC3)c2)CC1 (3D coordinates assigned)
CCOC(=O)N1CCN(CC(=O)[N-]c2cccc(S(=O)(=O)N3CCCCC3)c2)CC1 (nonaromatic ring conformer: 65.86427233667933 kcal/mol)

>  <smiles>  (7) 
CCOC(=O)N1CCN(CC(=O)Nc2cccc(S(=O)(=O)N3CCCCC3)c2)CC1

>  <score_type>  (7) 
oracle

>  <origin>  (7) 
adgpu

>  <m_score__min__energy>  (7) 
-11.23

>  <m_primary>  (7) 
energy

$$$$
7:0
     RDKit          3D

 80 84  0  0  0  0  0  0  0  0999 V2000
    2.4790   25.2990  -36.6020 C   0  0  0  0  0  0  0  0  0  0  0  0
    2.6290   23.9530  -37.0410 O   0  0  0  0  0  0  0  0  0  0  0  0
    2.4700   22.8280  -36.2190 C   0  0  0  0  0  0  0  0  0  0  0  0
    3.5110   21.9060  -36.0000 C   0  0  0  0  0  0  0  0  0  0  0  0
    3.3040   20.7900  -35.1820 C   0  0  0  0  0  0  0  0  0  0  0  0
    2.0530   20.5720  -34.5790 C   0  0  0  0  0  0  0  0  0  0  0  0
    1.8220   19.3680  -33.6870 C   0  0  0  0  0  0  0  0  0  0  0  0
    1.3480   19.7110  -32.3270 N   0  0  0  0  0  0  0  0  0  0  0  0
   -0.1060   19.9930  -32.2550 C   0  0  0  0  0  0  0  0  0  0  0  0
   -0.5730   20.1060  -30.8000 C   0  0  0  0  0  0  0  0  0  0  0  0
   -0.3590   18.7730  -30.0420 C   0  0  0  0  0  0  0  0  0  0  0  0
   -0.1450   19.0750  -28.2790 S   0  0  0  0  0  0  0  0  0  0  0  0
   -1.2690   18.3990  -27.5420 O   0  0  0  0  0  0  0  0  0  0  0  0
    1.1600   18.4830  -27.8240 O   0  0  0  0  0  0  0  0  0  0  0  0
   -0.1350   20.8140  -27.9340 C   0  0  0  0  0  0  0  0  0  0  0  0
    1.0270   21.3920  -27.4080 C   0  0  0  0  0  0  0  0  0  0  0  0
    1.1130   22.7730  -27.2310 C   0  0  0  0  0  0  0  0  0  0  0  0
    0.0250   23.6010  -27.5520 C   0  0  0  0  0  0  0  0  0  0  0  0
    0.0860   24.9940  -27.4080 O   0  0  0  0  0  0  0  0  0  0  0  0
   -0.5400   25.7250  -26.3590 C   0  0  0  0  0  0  0  0  0  0  0  0
   -1.1690   23.0240  -28.0060 C   0  0  0  0  0  0  0  0  0  0  0  0
   -2.2940   23.8750  -28.2710 N   0  0  0  0  0  0  0  0  0  0  0  0
   -2.3090   24.9550  -29.2140 C   0  0  0  0  0  0  0  0  0  0  0  0
   -1.2830   25.6690  -29.3420 O   0  0  0  0  0  0  0  0  0  0  0  0
   -3.4630   25.2400  -30.0180 N   0  0  0  0  0  0  0  0  0  0  0  0
   -4.5600   24.3440  -30.2520 C   0  0  0  0  0  0  0  0  0  0  0  0
   -4.3510   22.9880  -30.5520 C   0  0  0  0  0  0  0  0  0  0  0  0
   -5.4350   22.1510  -30.8110 C   0  0  0  0  0  0  0  0  0  0  0  0
   -6.7470   22.6420  -30.7340 C   0  0  0  0  0  0  0  0  0  0  0  0
   -8.1200   21.5840  -31.0930 S   0  0  0  0  0  0  0  0  0  0  0  0
   -9.1290   21.7060  -29.9880 O   0  0  0  0  0  0  0  0  0  0  0  0
   -8.7680   22.0400  -32.3670 O   0  0  0  0  0  0  0  0  0  0  0  0
   -7.6620   19.9050  -31.2560 N   0  0  0  0  0  0  0  0  0  0  0  0
   -8.8150   19.0320  -31.4860 C   0  0  0  0  0  0  0  0  0  0  0  0
   -8.3250   17.8590  -32.3280 C   0  0  0  0  0  0  0  0  0  0  0  0
   -6.9240   18.2400  -32.7820 C   0  0  0  0  0  0  0  0  0  0  0  0
   -6.7690   19.6950  -32.3920 C   0  0  0  0  0  0  0  0  0  0  0  0
   -6.9580   23.9860  -30.3970 C   0  0  0  0  0  0  0  0  0  0  0  0
   -5.8710   24.8300  -30.1470 C   0  0  0  0  0  0  0  0  0  0  0  0
   -1.2470   21.6340  -28.2120 C   0  0  0  0  0  0  0  0  0  0  0  0
   -2.4210   21.0810  -28.7110 O   0  0  0  0  0  0  0  0  0  0  0  0
    0.8150   17.9450  -30.6250 C   0  0  0  0  0  0  0  0  0  0  0  0
    1.8890   18.8450  -31.2490 C   0  0  0  0  0  0  0  0  0  0  0  0
    1.0270   21.5130  -34.7730 C   0  0  0  0  0  0  0  0  0  0  0  0
    1.2330   22.6260  -35.5930 C   0  0  0  0  0  0  0  0  0  0  0  0
    0.2040   23.5420  -35.7780 O   0  0  0  0  0  0  0  0  0  0  0  0
    2.4758   25.3278  -35.5024 H   0  0  0  0  0  0  0  0  0  0  0  0
    3.3153   25.9040  -36.9822 H   0  0  0  0  0  0  0  0  0  0  0  0
    1.5300   25.7051  -36.9822 H   0  0  0  0  0  0  0  0  0  0  0  0
    4.4911   22.0636  -36.4739 H   0  0  0  0  0  0  0  0  0  0  0  0
    4.1252   20.0788  -35.0096 H   0  0  0  0  0  0  0  0  0  0  0  0
    1.0691   18.7231  -34.1638 H   0  0  0  0  0  0  0  0  0  0  0  0
    2.7940   18.8667  -33.5693 H   0  0  0  0  0  0  0  0  0  0  0  0
   -0.3147   20.9400  -32.7742 H   0  0  0  0  0  0  0  0  0  0  0  0
   -0.6476   19.1634  -32.7330 H   0  0  0  0  0  0  0  0  0  0  0  0
   -0.0000   20.9003  -30.2992 H   0  0  0  0  0  0  0  0  0  0  0  0
   -1.6472   20.3429  -30.7947 H   0  0  0  0  0  0  0  0  0  0  0  0
   -1.2654   18.1655  -30.1809 H   0  0  0  0  0  0  0  0  0  0  0  0
    1.8783   20.7522  -27.1323 H   0  0  0  0  0  0  0  0  0  0  0  0
    2.0394   23.2165  -26.8373 H   0  0  0  0  0  0  0  0  0  0  0  0
   -0.2042   25.3328  -25.3877 H   0  0  0  0  0  0  0  0  0  0  0  0
   -0.2676   26.7877  -26.4394 H   0  0  0  0  0  0  0  0  0  0  0  0
   -1.6320   25.6193  -26.4394 H   0  0  0  0  0  0  0  0  0  0  0  0
   -3.3280   22.5850  -30.5827 H   0  0  0  0  0  0  0  0  0  0  0  0
   -5.2606   21.0981  -31.0776 H   0  0  0  0  0  0  0  0  0  0  0  0
   -9.2112   18.6687  -30.5263 H   0  0  0  0  0  0  0  0  0  0  0  0
   -9.6218   19.5746  -32.0005 H   0  0  0  0  0  0  0  0  0  0  0  0
   -8.2968   16.9390  -31.7257 H   0  0  0  0  0  0  0  0  0  0  0  0
   -8.9909   17.6637  -33.1814 H   0  0  0  0  0  0  0  0  0  0  0  0
   -6.1707   17.6207  -32.2731 H   0  0  0  0  0  0  0  0  0  0  0  0
   -6.7822   18.0838  -33.8616 H   0  0  0  0  0  0  0  0  0  0  0  0
   -5.7283   19.9046  -32.1038 H   0  0  0  0  0  0  0  0  0  0  0  0
   -7.0172   20.3648  -33.2285 H   0  0  0  0  0  0  0  0  0  0  0  0
   -7.9832   24.3789  -30.3288 H   0  0  0  0  0  0  0  0  0  0  0  0
   -6.0454   25.8793  -29.8669 H   0  0  0  0  0  0  0  0  0  0  0  0
    1.2706   17.3542  -29.8166 H   0  0  0  0  0  0  0  0  0  0  0  0
    0.4149   17.2910  -31.4138 H   0  0  0  0  0  0  0  0  0  0  0  0
    2.3139   19.4852  -30.4618 H   0  0  0  0  0  0  0  0  0  0  0  0
    2.6537   18.1928  -31.6959 H   0  0  0  0  0  0  0  0  0  0  0  0
    0.0557   21.3726  -34.2763 H   0  0  0  0  0  0  0  0  0  0  0  0
  1  2  1  0
  2  3  1  0
  3  4  2  0
  4  5  1  0
  5  6  2  0
  6  7  1  0
  7  8  1  0
  8  9  1  0
  9 10  1  0
 10 11  1  0
 11 12  1  0
 12 13  2  0
 12 14  2  0
 12 15  1  0
 15 16  2  0
 16 17  1  0
 17 18  2  0
 18 19  1  0
 19 20  1  0
 18 21  1  0
 21 22  1  0
 22 23  1  0
 23 24  2  0
 23 25  1  0
 25 26  1  0
 26 27  2  0
 27 28  1  0
 28 29  2  0
 29 30  1  0
 30 31  2  0
 30 32  2  0
 30 33  1  0
 33 34  1  0
 34 35  1  0
 35 36  1  0
 36 37  1  0
 29 38  1  0
 38 39  2  0
 21 40  2  0
 40 41  1  0
 11 42  1  0
 42 43  1  0
  6 44  1  0
 44 45  2  0
 45 46  1  0
 45  3  1  0
 43  8  1  0
 40 15  1  0
 39 26  1  0
 37 33  1  0
  1 47  1  0
  1 48  1  0
  1 49  1  0
  4 50  1  0
  5 51  1  0
  7 52  1  0
  7 53  1  0
  9 54  1  0
  9 55  1  0
 10 56  1  0
 10 57  1  0
 11 58  1  0
 16 59  1  0
 17 60  1  0
 20 61  1  0
 20 62  1  0
 20 63  1  0
 27 64  1  0
 28 65  1  0
 34 66  1  0
 34 67  1  0
 35 68  1  0
 35 69  1  0
 36 70  1  0
 36 71  1  0
 37 72  1  0
 37 73  1  0
 38 74  1  0
 39 75  1  0
 42 76  1  0
 42 77  1  0
 43 78  1  0
 43 79  1  0
 44 80  1  0
M  CHG  4  22  -1  25  -1  41  -1  46  -1
M  END
>  <UniqueID>  (8) 
8

>  <SMILES>  (8) 
COc1ccc(CN2CCC(S(=O)(=O)c3ccc(OC)c([N-]C(=O)[N-]c4ccc(S(=O)(=O)N5CCCC5)cc4)c3[O-])CC2)cc1[O-]

>  <Energy>  (8) 
102.46719055441557

>  <Genealogy>  (8) 
COc1ccc(CN2CCC(S(=O)(=O)c3ccc(OC)c([N-]C(=O)[N-]c4ccc(S(=O)(=O)N5CCCC5)cc4)c3[O-])CC2)cc1[O-] (protonated)
COc1ccc(CN2CCC(S(=O)(=O)c3ccc(OC)c([N-]C(=O)[N-]c4ccc(S(=O)(=O)N5CCCC5)cc4)c3[O-])CC2)cc1[O-] (3D coordinates assigned)
COc1ccc(CN2CCC(S(=O)(=O)c3ccc(OC)c([N-]C(=O)[N-]c4ccc(S(=O)(=O)N5CCCC5)cc4)c3[O-])CC2)cc1[O-] (nonaromatic ring conformer: 102.46719055441557 kcal/mol)

>  <smiles>  (8) 
COc1ccc(CN2CCC(S(=O)(=O)c3ccc(OC)c(NC(=O)Nc4ccc(S(=O)(=O)N5CCCC5)cc4)c3O)CC2)cc1O

>  <score_type>  (8) 
oracle

>  <origin>  (8) 
adgpu

>  <m_score__min__energy>  (8) 
-14.76

>  <m_primary>  (8) 
energy

$$$$
8:0
     RDKit          3D

 50 53  0  0  0  0  0  0  0  0999 V2000
   -1.3090   16.0550  -33.0460 C   0  0  0  0  0  0  0  0  0  0  0  0
   -2.7420   15.7680  -33.3840 C   0  0  0  0  0  0  0  0  0  0  0  0
   -3.1160   14.5040  -33.8600 C   0  0  0  0  0  0  0  0  0  0  0  0
   -4.4550   14.2220  -34.1380 C   0  0  0  0  0  0  0  0  0  0  0  0
   -5.4440   15.1980  -33.9390 C   0  0  0  0  0  0  0  0  0  0  0  0
   -6.8820   14.8780  -34.2430 C   0  0  0  0  0  0  0  0  0  0  0  0
   -5.0760   16.4590  -33.4260 C   0  0  0  0  0  0  0  0  0  0  0  0
   -6.0700   17.4610  -33.1680 N   0  0  0  0  0  0  0  0  0  0  0  0
   -6.4090   18.4280  -34.2150 C   0  0  0  0  0  0  0  0  0  0  0  0
   -6.7090   19.8250  -33.6230 C   0  0  0  0  0  0  0  0  0  0  0  0
   -6.9410   19.8040  -32.1610 N   0  0  0  0  0  0  0  0  0  0  0  0
   -7.7540   21.2670  -31.6600 S   0  0  0  0  0  0  0  0  0  0  0  0
   -8.5180   21.0080  -30.3920 O   0  0  0  0  0  0  0  0  0  0  0  0
   -8.7300   21.7050  -32.7160 O   0  0  0  0  0  0  0  0  0  0  0  0
   -6.5570   22.5360  -31.3480 C   0  0  0  0  0  0  0  0  0  0  0  0
   -7.0070   23.8470  -31.1480 C   0  0  0  0  0  0  0  0  0  0  0  0
   -6.1040   24.8760  -30.8710 C   0  0  0  0  0  0  0  0  0  0  0  0
   -4.7350   24.6100  -30.7810 C   0  0  0  0  0  0  0  0  0  0  0  0
   -3.8580   25.6530  -30.5020 O   0  0  0  0  0  0  0  0  0  0  0  0
   -4.2640   23.2980  -30.9690 C   0  0  0  0  0  0  0  0  0  0  0  0
   -2.9010   22.9890  -30.8770 C   0  0  0  0  0  0  0  0  0  0  0  0
   -2.4860   21.6720  -31.0670 C   0  0  0  0  0  0  0  0  0  0  0  0
   -1.2660   21.3720  -30.9920 O   0  0  0  0  0  0  0  0  0  0  0  0
   -3.4050   20.7100  -31.3350 N   0  0  0  0  0  0  0  0  0  0  0  0
   -4.7050   20.9930  -31.4230 N   0  0  0  0  0  0  0  0  0  0  0  0
   -5.1780   22.2580  -31.2520 C   0  0  0  0  0  0  0  0  0  0  0  0
   -7.7280   18.6250  -31.7560 C   0  0  0  0  0  0  0  0  0  0  0  0
   -6.9020   17.3500  -31.9650 C   0  0  0  0  0  0  0  0  0  0  0  0
   -3.7300   16.7370  -33.1530 C   0  0  0  0  0  0  0  0  0  0  0  0
   -1.1879   16.0793  -31.9530 H   0  0  0  0  0  0  0  0  0  0  0  0
   -0.6678   15.2674  -33.4686 H   0  0  0  0  0  0  0  0  0  0  0  0
   -1.0205   17.0288  -33.4686 H   0  0  0  0  0  0  0  0  0  0  0  0
   -2.3504   13.7297  -34.0155 H   0  0  0  0  0  0  0  0  0  0  0  0
   -4.7368   13.2280  -34.5156 H   0  0  0  0  0  0  0  0  0  0  0  0
   -7.4371   14.7545  -33.3014 H   0  0  0  0  0  0  0  0  0  0  0  0
   -7.3253   15.6995  -34.8249 H   0  0  0  0  0  0  0  0  0  0  0  0
   -6.9351   13.9461  -34.8249 H   0  0  0  0  0  0  0  0  0  0  0  0
   -5.5627   18.5101  -34.9129 H   0  0  0  0  0  0  0  0  0  0  0  0
   -7.3118   18.0723  -34.7331 H   0  0  0  0  0  0  0  0  0  0  0  0
   -5.8529   20.4836  -33.8312 H   0  0  0  0  0  0  0  0  0  0  0  0
   -7.6346   20.1867  -34.0946 H   0  0  0  0  0  0  0  0  0  0  0  0
   -6.0160   19.7860  -31.6690 H   0  0  0  0  0  0  0  0  0  0  0  0
   -8.0827   24.0687  -31.2097 H   0  0  0  0  0  0  0  0  0  0  0  0
   -6.4726   25.9018  -30.7228 H   0  0  0  0  0  0  0  0  0  0  0  0
   -2.1659   23.7772  -30.6572 H   0  0  0  0  0  0  0  0  0  0  0  0
   -7.9986   18.7144  -30.6935 H   0  0  0  0  0  0  0  0  0  0  0  0
   -8.6402   18.5703  -32.3684 H   0  0  0  0  0  0  0  0  0  0  0  0
   -6.2531   17.1931  -31.0907 H   0  0  0  0  0  0  0  0  0  0  0  0
   -7.5895   16.5002  -32.0884 H   0  0  0  0  0  0  0  0  0  0  0  0
   -3.4459   17.7222  -32.7547 H   0  0  0  0  0  0  0  0  0  0  0  0
  1  2  1  0
  2  3  2  0
  3  4  1  0
  4  5  2  0
  5  6  1  0
  5  7  1  0
  7  8  1  0
  8  9  1  0
  9 10  1  0
 10 11  1  0
 11 12  1  0
 12 13  2  0
 12 14  2  0
 12 15  1  0
 15 16  2  0
 16 17  1  0
 17 18  2  0
 18 19  1  0
 18 20  1  0
 20 21  2  0
 21 22  1  0
 22 23  2  0
 22 24  1  0
 24 25  1  0
 25 26  2  0
 11 27  1  0
 27 28  1  0
  7 29  2  0
 29  2  1  0
 28  8  1  0
 26 15  1  0
 26 20  1  0
  1 30  1  0
  1 31  1  0
  1 32  1  0
  3 33  1  0
  4 34  1  0
  6 35  1  0
  6 36  1  0
  6 37  1  0
  9 38  1  0
  9 39  1  0
 10 40  1  0
 10 41  1  0
 11 42  1  0
 16 43  1  0
 17 44  1  0
 21 45  1  0
 27 46  1  0
 27 47  1  0
 28 48  1  0
 28 49  1  0
 29 50  1  0
M  CHG  3  11   1  19  -1  24  -1
M  END
>  <UniqueID>  (9) 
9

>  <SMILES>  (9) 
Cc1ccc(C)c(N2CC[NH+](S(=O)(=O)c3ccc([O-])c4cc(=O)[n-]nc34)CC2)c1

>  <Energy>  (9) 
66.84818768879582

>  <Genealogy>  (9) 
Cc1ccc(C)c(N2CC[NH+](S(=O)(=O)c3ccc([O-])c4cc(=O)[n-]nc34)CC2)c1 (protonated)
Cc1ccc(C)c(N2CC[NH+](S(=O)(=O)c3ccc([O-])c4cc(=O)[n-]nc34)CC2)c1 (3D coordinates assigned)
Cc1ccc(C)c(N2CC[NH+](S(=O)(=O)c3ccc([O-])c4cc(=O)[n-]nc34)CC2)c1 (nonaromatic ring conformer: 66.84818768879582 kcal/mol)

>  <smiles>  (9) 
Cc1ccc(C)c(N2CCN(S(=O)(=O)c3ccc(O)c4cc(=O)[nH]nc34)CC2)c1

>  <score_type>  (9) 
oracle

>  <origin>  (9) 
adgpu

>  <m_score__min__energy>  (9) 
-11.779999999999999

>  <m_primary>  (9) 
energy

$$$$
9:0
     RDKit          3D

 36 38  0  0  0  0  0  0  0  0999 V2000
   -6.2630   26.0370  -29.4540 C   0  0  0  0  0  0  0  0  0  0  0  0
   -6.0400   25.2460  -30.7460 C   0  0  1  0  0  0  0  0  0  0  0  0
   -4.6200   24.9680  -30.9870 N   0  0  0  0  0  0  0  0  0  0  0  0
   -4.0200   23.6760  -30.8370 C   0  0  0  0  0  0  0  0  0  0  0  0
   -3.9160   22.5170  -31.5900 C   0  0  0  0  0  0  0  0  0  0  0  0
   -4.4380   22.0680  -32.8440 N   0  0  0  0  0  0  0  0  0  0  0  0
   -4.7930   20.7010  -33.1050 C   0  0  0  0  0  0  0  0  0  0  0  0
   -3.8200   19.6860  -33.1290 C   0  0  0  0  0  0  0  0  0  0  0  0
   -4.1840   18.3650  -33.4090 C   0  0  0  0  0  0  0  0  0  0  0  0
   -5.5210   18.0470  -33.6810 C   0  0  0  0  0  0  0  0  0  0  0  0
   -5.8940   16.6880  -33.9710 C   0  0  0  0  0  0  0  0  0  0  0  0
   -6.1950   15.5940  -34.2040 N   0  0  0  0  0  0  0  0  0  0  0  0
   -6.4910   19.0560  -33.6780 C   0  0  0  0  0  0  0  0  0  0  0  0
   -6.1270   20.3770  -33.3980 C   0  0  0  0  0  0  0  0  0  0  0  0
   -3.1610   21.9380  -30.5860 C   0  0  0  0  0  0  0  0  0  0  0  0
   -2.6080   20.8200  -30.4180 O   0  0  0  0  0  0  0  0  0  0  0  0
   -3.2970   23.0780  -29.8240 C   0  0  0  0  0  0  0  0  0  0  0  0
   -2.9100   23.4340  -28.6800 O   0  0  0  0  0  0  0  0  0  0  0  0
   -6.8550   23.9780  -30.7980 C   0  0  0  0  0  0  0  0  0  0  0  0
   -6.9980   23.0280  -29.7850 C   0  0  0  0  0  0  0  0  0  0  0  0
   -7.7480   21.9120  -30.1720 C   0  0  0  0  0  0  0  0  0  0  0  0
   -8.1820   21.9780  -31.4880 C   0  0  0  0  0  0  0  0  0  0  0  0
   -9.1260   20.7570  -32.3150 Cl  0  0  0  0  0  0  0  0  0  0  0  0
   -7.6360   23.4090  -32.1770 S   0  0  0  0  0  0  0  0  0  0  0  0
   -6.0790   25.3842  -28.5880 H   0  0  0  0  0  0  0  0  0  0  0  0
   -5.5707   26.8912  -29.4229 H   0  0  0  0  0  0  0  0  0  0  0  0
   -7.2996   26.4038  -29.4229 H   0  0  0  0  0  0  0  0  0  0  0  0
   -6.3960   25.8944  -31.5602 H   0  0  0  0  0  0  0  0  0  0  0  0
   -4.1000   25.6530  -31.5810 H   0  0  0  0  0  0  0  0  0  0  0  0
   -4.6760   22.7950  -33.5550 H   0  0  0  0  0  0  0  0  0  0  0  0
   -2.7672   19.9323  -32.9265 H   0  0  0  0  0  0  0  0  0  0  0  0
   -3.4192   17.5744  -33.4157 H   0  0  0  0  0  0  0  0  0  0  0  0
   -7.5407   18.8097  -33.8961 H   0  0  0  0  0  0  0  0  0  0  0  0
   -6.8916   21.1678  -33.4074 H   0  0  0  0  0  0  0  0  0  0  0  0
   -6.5637   23.1453  -28.7812 H   0  0  0  0  0  0  0  0  0  0  0  0
   -7.9707   21.0688  -29.5016 H   0  0  0  0  0  0  0  0  0  0  0  0
  1  2  1  0
  2  3  1  0
  3  4  1  0
  4  5  2  0
  5  6  1  0
  6  7  1  0
  7  8  2  0
  8  9  1  0
  9 10  2  0
 10 11  1  0
 11 12  3  0
 10 13  1  0
 13 14  2  0
  5 15  1  0
 15 16  2  0
 15 17  1  0
 17 18  2  0
  2 19  1  0
 19 20  2  0
 20 21  1  0
 21 22  2  0
 22 23  1  0
 22 24  1  0
 17  4  1  0
 24 19  1  0
 14  7  1  0
  1 25  1  0
  1 26  1  0
  1 27  1  0
  2 28  1  6
  3 29  1  0
  6 30  1  0
  8 31  1  0
  9 32  1  0
 13 33  1  0
 14 34  1  0
 20 35  1  0
 21 36  1  0
M  END
>  <UniqueID>  (10) 
10

>  <SMILES>  (10) 
C[C@@H](Nc1c(Nc2ccc(C#N)cc2)c(=O)c1=O)c1ccc(Cl)s1

>  <Energy>  (10) 
58.999000678727285

>  <Genealogy>  (10) 
C[C@@H](Nc1c(Nc2ccc(C#N)cc2)c(=O)c1=O)c1ccc(Cl)s1 (chirality)
C[C@@H](Nc1c(Nc2ccc(C#N)cc2)c(=O)c1=O)c1ccc(Cl)s1 (3D coordinates assigned)
C[C@@H](Nc1c(Nc2ccc(C#N)cc2)c(=O)c1=O)c1ccc(Cl)s1 (optimized conformer: 58.999000678727285 kcal/mol)

>  <smiles>  (10) 
CC(Nc1c(Nc2ccc(C#N)cc2)c(=O)c1=O)c1ccc(Cl)s1

>  <score_type>  (10) 
oracle

>  <origin>  (10) 
adgpu

>  <m_score__min__energy>  (10) 
-8.7899999999999991

>  <m_primary>  (10) 
energy

$$$$
10:0
     RDKit          3D

 40 41  0  0  0  0  0  0  0  0999 V2000
   -0.4560   22.7430  -23.8680 C   0  0  0  0  0  0  0  0  0  0  0  0
    0.3210   22.6710  -25.1790 C   0  0  0  0  0  0  0  0  0  0  0  0
   -0.0490   23.8200  -26.0880 C   0  0  0  0  0  0  0  0  0  0  0  0
   -0.9330   23.5840  -27.1540 C   0  0  0  0  0  0  0  0  0  0  0  0
   -1.2840   24.6170  -28.0360 C   0  0  0  0  0  0  0  0  0  0  0  0
   -2.1710   24.3820  -29.1430 N   0  0  0  0  0  0  0  0  0  0  0  0
   -2.1300   23.2050  -29.9690 C   0  0  0  0  0  0  0  0  0  0  0  0
   -1.2360   22.3340  -29.7950 O   0  0  0  0  0  0  0  0  0  0  0  0
   -3.0810   23.0120  -31.0210 N   0  0  0  0  0  0  0  0  0  0  0  0
   -4.4750   23.3510  -30.9680 C   0  0  0  0  0  0  0  0  0  0  0  0
   -5.4710   22.3740  -31.1420 C   0  0  0  0  0  0  0  0  0  0  0  0
   -6.8360   22.7220  -31.1150 C   0  0  0  0  0  0  0  0  0  0  0  0
   -7.9000   21.6960  -31.2790 C   0  0  0  0  0  0  0  0  0  0  0  0
   -7.6490   20.4000  -31.9910 C   0  0  0  0  0  0  0  0  0  0  0  0
   -9.0520   21.9080  -30.8110 O   0  0  0  0  0  0  0  0  0  0  0  0
   -7.1830   24.0740  -30.9340 C   0  0  0  0  0  0  0  0  0  0  0  0
   -6.1950   25.0500  -30.7930 C   0  0  0  0  0  0  0  0  0  0  0  0
   -4.8450   24.6930  -30.8170 C   0  0  0  0  0  0  0  0  0  0  0  0
   -3.8720   25.6780  -30.6820 O   0  0  0  0  0  0  0  0  0  0  0  0
   -0.6990   25.8780  -27.8570 C   0  0  0  0  0  0  0  0  0  0  0  0
   -0.9740   26.8270  -28.6390 O   0  0  0  0  0  0  0  0  0  0  0  0
    0.1660   26.0890  -26.8310 N   0  0  0  0  0  0  0  0  0  0  0  0
    0.5100   25.1110  -25.9490 C   0  0  0  0  0  0  0  0  0  0  0  0
    1.4650   25.4540  -24.8440 C   0  0  0  0  0  0  0  0  0  0  0  0
    0.2446   22.6781  -23.0225 H   0  0  0  0  0  0  0  0  0  0  0  0
   -1.0036   23.6957  -23.8181 H   0  0  0  0  0  0  0  0  0  0  0  0
   -1.1693   21.9071  -23.8181 H   0  0  0  0  0  0  0  0  0  0  0  0
    1.3985   22.7157  -24.9621 H   0  0  0  0  0  0  0  0  0  0  0  0
    0.0702   21.7271  -25.6852 H   0  0  0  0  0  0  0  0  0  0  0  0
   -1.3546   22.5783  -27.2987 H   0  0  0  0  0  0  0  0  0  0  0  0
   -2.9260   25.0830  -29.3120 H   0  0  0  0  0  0  0  0  0  0  0  0
   -5.1809   21.3249  -31.3012 H   0  0  0  0  0  0  0  0  0  0  0  0
   -7.4940   19.5998  -31.2523 H   0  0  0  0  0  0  0  0  0  0  0  0
   -8.5162   20.1541  -32.6215 H   0  0  0  0  0  0  0  0  0  0  0  0
   -6.7527   20.4956  -32.6215 H   0  0  0  0  0  0  0  0  0  0  0  0
   -8.2435   24.3645  -30.9033 H   0  0  0  0  0  0  0  0  0  0  0  0
   -6.4808   26.1042  -30.6625 H   0  0  0  0  0  0  0  0  0  0  0  0
    0.9795   25.2796  -23.8725 H   0  0  0  0  0  0  0  0  0  0  0  0
    2.3615   24.8217  -24.9247 H   0  0  0  0  0  0  0  0  0  0  0  0
    1.7543   26.5122  -24.9247 H   0  0  0  0  0  0  0  0  0  0  0  0
  1  2  1  0
  2  3  1  0
  3  4  1  0
  4  5  2  0
  5  6  1  0
  6  7  1  0
  7  8  2  0
  7  9  1  0
  9 10  1  0
 10 11  2  0
 11 12  1  0
 12 13  1  0
 13 14  1  0
 13 15  2  0
 12 16  2  0
 16 17  1  0
 17 18  2  0
 18 19  1  0
  5 20  1  0
 20 21  2  0
 20 22  1  0
 22 23  1  0
 23 24  1  0
 23  3  2  0
 18 10  1  0
  1 25  1  0
  1 26  1  0
  1 27  1  0
  2 28  1  0
  2 29  1  0
  4 30  1  0
  6 31  1  0
 11 32  1  0
 14 33  1  0
 14 34  1  0
 14 35  1  0
 16 36  1  0
 17 37  1  0
 24 38  1  0
 24 39  1  0
 24 40  1  0
M  CHG  3   9  -1  19  -1  22  -1
M  END
>  <UniqueID>  (11) 
11

>  <SMILES>  (11) 
CCc1cc(NC(=O)[N-]c2cc(C(C)=O)ccc2[O-])c(=O)[n-]c1C

>  <Energy>  (11) 
47.19193954176415

>  <Genealogy>  (11) 
CCc1cc(NC(=O)[N-]c2cc(C(C)=O)ccc2[O-])c(=O)[n-]c1C (protonated)
CCc1cc(NC(=O)[N-]c2cc(C(C)=O)ccc2[O-])c(=O)[n-]c1C (3D coordinates assigned)
CCc1cc(NC(=O)[N-]c2cc(C(C)=O)ccc2[O-])c(=O)[n-]c1C (optimized conformer: 47.19193954176415 kcal/mol)

>  <smiles>  (11) 
CCc1cc(NC(=O)Nc2cc(C(C)=O)ccc2O)c(=O)[nH]c1C

>  <score_type>  (11) 
oracle

>  <origin>  (11) 
adgpu

>  <m_score__min__energy>  (11) 
-12.08

>  <m_primary>  (11) 
energy

$$$$
11:0
     RDKit          3D

 46 49  0  0  0  0  0  0  0  0999 V2000
    0.1310   19.8230  -27.9630 C   0  0  0  0  0  0  0  0  0  0  0  0
   -0.5290   20.4480  -26.8030 N   0  0  0  0  0  0  0  0  0  0  0  0
   -1.9700   20.1380  -26.7320 C   0  0  0  0  0  0  0  0  0  0  0  0
   -2.7570   20.7300  -27.9110 C   0  0  0  0  0  0  0  0  0  0  0  0
   -2.3460   22.1450  -28.2230 C   0  0  0  0  0  0  0  0  0  0  0  0
   -3.1350   22.9070  -29.0960 C   0  0  0  0  0  0  0  0  0  0  0  0
   -2.7540   24.2110  -29.4610 C   0  0  0  0  0  0  0  0  0  0  0  0
   -3.5510   25.0080  -30.3500 N   0  0  0  0  0  0  0  0  0  0  0  0
   -5.2840   25.0770  -30.3600 S   0  0  0  0  0  0  0  0  0  0  0  0
   -5.7810   25.2910  -28.9560 O   0  0  0  0  0  0  0  0  0  0  0  0
   -5.7270   26.2350  -31.2090 O   0  0  0  0  0  0  0  0  0  0  0  0
   -5.9380   23.5910  -31.0400 C   0  0  0  0  0  0  0  0  0  0  0  0
   -7.2720   23.2000  -30.7670 C   0  0  0  0  0  0  0  0  0  0  0  0
   -7.7950   22.0130  -31.3110 C   0  0  0  0  0  0  0  0  0  0  0  0
   -6.9620   21.2430  -32.1250 C   0  0  0  0  0  0  0  0  0  0  0  0
   -5.6670   21.6200  -32.3860 C   0  0  0  0  0  0  0  0  0  0  0  0
   -5.1200   22.7870  -31.8590 C   0  0  0  0  0  0  0  0  0  0  0  0
   -5.1010   20.6600  -33.2010 C   0  0  0  0  0  0  0  0  0  0  0  0
   -6.1120   19.7290  -33.3960 C   0  0  0  0  0  0  0  0  0  0  0  0
   -5.9810   18.5710  -34.1510 O   0  0  0  0  0  0  0  0  0  0  0  0
   -7.2510   20.0860  -32.7520 N   0  0  0  0  0  0  0  0  0  0  0  0
   -8.4980   19.3270  -32.6840 C   0  0  0  0  0  0  0  0  0  0  0  0
   -1.5620   24.7470  -28.9410 C   0  0  0  0  0  0  0  0  0  0  0  0
   -1.1460   26.0380  -29.2670 O   0  0  0  0  0  0  0  0  0  0  0  0
   -0.7680   23.9850  -28.0790 C   0  0  0  0  0  0  0  0  0  0  0  0
   -1.1410   22.6790  -27.7290 C   0  0  0  0  0  0  0  0  0  0  0  0
   -0.2890   21.9040  -26.7480 C   0  0  0  0  0  0  0  0  0  0  0  0
    0.8879   19.1062  -27.6119 H   0  0  0  0  0  0  0  0  0  0  0  0
   -0.6187   19.2960  -28.5714 H   0  0  0  0  0  0  0  0  0  0  0  0
    0.6164   20.6003  -28.5714 H   0  0  0  0  0  0  0  0  0  0  0  0
   -2.0966   19.0453  -26.7363 H   0  0  0  0  0  0  0  0  0  0  0  0
   -2.3636   20.5866  -25.8080 H   0  0  0  0  0  0  0  0  0  0  0  0
   -2.5823   20.1071  -28.8006 H   0  0  0  0  0  0  0  0  0  0  0  0
   -3.8207   20.7437  -27.6311 H   0  0  0  0  0  0  0  0  0  0  0  0
   -4.0642   22.4796  -29.5009 H   0  0  0  0  0  0  0  0  0  0  0  0
   -7.9042   23.8301  -30.1241 H   0  0  0  0  0  0  0  0  0  0  0  0
   -8.8288   21.7009  -31.1015 H   0  0  0  0  0  0  0  0  0  0  0  0
   -4.0801   23.0730  -32.0755 H   0  0  0  0  0  0  0  0  0  0  0  0
   -4.0782   20.6379  -33.6052 H   0  0  0  0  0  0  0  0  0  0  0  0
   -8.7696   19.1617  -31.6310 H   0  0  0  0  0  0  0  0  0  0  0  0
   -9.2985   19.8912  -33.1849 H   0  0  0  0  0  0  0  0  0  0  0  0
   -8.3645   18.3568  -33.1849 H   0  0  0  0  0  0  0  0  0  0  0  0
   -1.2420   26.4240  -30.1990 H   0  0  0  0  0  0  0  0  0  0  0  0
    0.1590   24.4141  -27.6709 H   0  0  0  0  0  0  0  0  0  0  0  0
    0.7701   22.0939  -26.9766 H   0  0  0  0  0  0  0  0  0  0  0  0
   -0.5573   22.2446  -25.7371 H   0  0  0  0  0  0  0  0  0  0  0  0
  1  2  1  0
  2  3  1  0
  3  4  1  0
  4  5  1  0
  5  6  2  0
  6  7  1  0
  7  8  1  0
  8  9  1  0
  9 10  2  0
  9 11  2  0
  9 12  1  0
 12 13  2  0
 13 14  1  0
 14 15  2  0
 15 16  1  0
 16 17  2  0
 16 18  1  0
 18 19  2  0
 19 20  1  0
 19 21  1  0
 21 22  1  0
  7 23  2  0
 23 24  1  0
 23 25  1  0
 25 26  2  0
 26 27  1  0
 27  2  1  0
 26  5  1  0
 17 12  1  0
 21 15  1  0
  1 28  1  0
  1 29  1  0
  1 30  1  0
  3 31  1  0
  3 32  1  0
  4 33  1  0
  4 34  1  0
  6 35  1  0
 13 36  1  0
 14 37  1  0
 17 38  1  0
 18 39  1  0
 22 40  1  0
 22 41  1  0
 22 42  1  0
 24 43  1  0
 25 44  1  0
 27 45  1  0
 27 46  1  0
M  CHG  2   8  -1  20  -1
M  END
>  <UniqueID>  (12) 
12

>  <SMILES>  (12) 
CN1CCc2cc([N-]S(=O)(=O)c3ccc4c(c3)cc([O-])n4C)c(O)cc2C1

>  <Energy>  (12) 
91.77681959350195

>  <Genealogy>  (12) 
CN1CCc2cc([N-]S(=O)(=O)c3ccc4c(c3)cc([O-])n4C)c(O)cc2C1 (protonated)
CN1CCc2cc([N-]S(=O)(=O)c3ccc4c(c3)cc([O-])n4C)c(O)cc2C1 (3D coordinates assigned)
CN1CCc2cc([N-]S(=O)(=O)c3ccc4c(c3)cc([O-])n4C)c(O)cc2C1 (nonaromatic ring conformer: 91.77681959350195 kcal/mol)

>  <smiles>  (12) 
CN1CCc2cc(NS(=O)(=O)c3ccc4c(c3)cc(O)n4C)c(O)cc2C1

>  <score_type>  (12) 
oracle

>  <origin>  (12) 
adgpu

>  <m_score__min__energy>  (12) 
-12.24

>  <m_primary>  (12) 
energy

$$$$
12:0
     RDKit          3D

 44 47  0  0  0  0  0  0  0  0999 V2000
   -6.8270   16.4430  -34.2360 C   0  0  0  0  0  0  0  0  0  0  0  0
   -6.1700   17.0900  -33.1020 N   0  0  0  0  0  0  0  0  0  0  0  0
   -5.3710   16.2700  -32.1920 C   0  0  0  0  0  0  0  0  0  0  0  0
   -6.6730   18.3570  -32.6450 C   0  0  0  0  0  0  0  0  0  0  0  0
   -8.0160   18.4590  -32.2620 C   0  0  0  0  0  0  0  0  0  0  0  0
   -8.5380   19.6770  -31.8380 C   0  0  0  0  0  0  0  0  0  0  0  0
   -7.7300   20.8120  -31.7880 C   0  0  0  0  0  0  0  0  0  0  0  0
   -6.3710   20.7480  -32.1580 C   0  0  0  0  0  0  0  0  0  0  0  0
   -5.5230   21.8890  -32.1070 C   0  0  0  0  0  0  0  0  0  0  0  0
   -6.1050   23.4810  -31.5820 S   0  0  0  0  0  0  0  0  0  0  0  0
   -6.8300   24.1400  -32.7220 O   0  0  0  0  0  0  0  0  0  0  0  0
   -7.0280   23.3070  -30.4080 O   0  0  0  0  0  0  0  0  0  0  0  0
   -4.7720   24.4840  -31.1050 N   0  0  0  0  0  0  0  0  0  0  0  0
   -4.1130   24.4370  -29.8330 C   0  0  0  0  0  0  0  0  0  0  0  0
   -4.8910   24.2520  -28.6840 C   0  0  0  0  0  0  0  0  0  0  0  0
   -4.2920   24.2000  -27.4240 C   0  0  0  0  0  0  0  0  0  0  0  0
   -2.9070   24.3340  -27.3000 C   0  0  0  0  0  0  0  0  0  0  0  0
   -2.1070   24.5220  -28.4400 C   0  0  0  0  0  0  0  0  0  0  0  0
   -0.6420   24.6600  -28.3080 C   0  0  0  0  0  0  0  0  0  0  0  0
   -0.0240   25.6870  -27.6930 N   0  0  0  0  0  0  0  0  0  0  0  0
    1.2670   25.4200  -27.8040 N   0  0  0  0  0  0  0  0  0  0  0  0
    1.4330   24.2820  -28.4570 N   0  0  0  0  0  0  0  0  0  0  0  0
    0.2550   23.7790  -28.7880 N   0  0  0  0  0  0  0  0  0  0  0  0
   -2.7180   24.5730  -29.7060 C   0  0  0  0  0  0  0  0  0  0  0  0
   -4.1770   21.7630  -32.4810 C   0  0  0  0  0  0  0  0  0  0  0  0
   -3.6630   20.5380  -32.8950 C   0  0  0  0  0  0  0  0  0  0  0  0
   -4.4800   19.4130  -32.9480 C   0  0  0  0  0  0  0  0  0  0  0  0
   -5.8380   19.4990  -32.5910 C   0  0  0  0  0  0  0  0  0  0  0  0
   -7.5651   15.7161  -33.8662 H   0  0  0  0  0  0  0  0  0  0  0  0
   -7.3354   17.2029  -34.8476 H   0  0  0  0  0  0  0  0  0  0  0  0
   -6.0750   15.9230  -34.8476 H   0  0  0  0  0  0  0  0  0  0  0  0
   -5.6210   16.5266  -31.1520 H   0  0  0  0  0  0  0  0  0  0  0  0
   -5.5888   15.2065  -32.3698 H   0  0  0  0  0  0  0  0  0  0  0  0
   -4.3022   16.4601  -32.3698 H   0  0  0  0  0  0  0  0  0  0  0  0
   -8.6628   17.5699  -32.2966 H   0  0  0  0  0  0  0  0  0  0  0  0
   -9.5948   19.7448  -31.5404 H   0  0  0  0  0  0  0  0  0  0  0  0
   -8.1580   21.7693  -31.4558 H   0  0  0  0  0  0  0  0  0  0  0  0
   -5.9822   24.1468  -28.7746 H   0  0  0  0  0  0  0  0  0  0  0  0
   -4.9118   24.0532  -26.5272 H   0  0  0  0  0  0  0  0  0  0  0  0
   -2.4402   24.2921  -26.3048 H   0  0  0  0  0  0  0  0  0  0  0  0
   -2.1003   24.7204  -30.6042 H   0  0  0  0  0  0  0  0  0  0  0  0
   -3.5192   22.6440  -32.4466 H   0  0  0  0  0  0  0  0  0  0  0  0
   -2.6041   20.4585  -33.1822 H   0  0  0  0  0  0  0  0  0  0  0  0
   -4.0608   18.4489  -33.2716 H   0  0  0  0  0  0  0  0  0  0  0  0
  1  2  1  0
  2  3  1  0
  2  4  1  0
  4  5  2  0
  5  6  1  0
  6  7  2  0
  7  8  1  0
  8  9  2  0
  9 10  1  0
 10 11  2  0
 10 12  2  0
 10 13  1  0
 13 14  1  0
 14 15  2  0
 15 16  1  0
 16 17  2  0
 17 18  1  0
 18 19  1  0
 19 20  1  0
 20 21  2  0
 21 22  1  0
 22 23  1  0
 18 24  2  0
  9 25  1  0
 25 26  2  0
 26 27  1  0
 27 28  2  0
 28  4  1  0
 28  8  1  0
 24 14  1  0
 23 19  2  0
  1 29  1  0
  1 30  1  0
  1 31  1  0
  3 32  1  0
  3 33  1  0
  3 34  1  0
  5 35  1  0
  6 36  1  0
  7 37  1  0
 15 38  1  0
 16 39  1  0
 17 40  1  0
 24 41  1  0
 25 42  1  0
 26 43  1  0
 27 44  1  0
M  CHG  2  13  -1  22  -1
M  END
>  <UniqueID>  (13) 
13

>  <SMILES>  (13) 
CN(C)c1cccc2c(S(=O)(=O)[N-]c3cccc(-c4nn[n-]n4)c3)cccc12

>  <Energy>  (13) 
102.39271089689525

>  <Genealogy>  (13) 
CN(C)c1cccc2c(S(=O)(=O)[N-]c3cccc(-c4nn[n-]n4)c3)cccc12 (protonated)
CN(C)c1cccc2c(S(=O)(=O)[N-]c3cccc(-c4nn[n-]n4)c3)cccc12 (3D coordinates assigned)
CN(C)c1cccc2c(S(=O)(=O)[N-]c3cccc(-c4nn[n-]n4)c3)cccc12 (optimized conformer: 102.39271089689525 kcal/mol)

>  <smiles>  (13) 
CN(C)c1cccc2c(S(=O)(=O)Nc3cccc(-c4nn[nH]n4)c3)cccc12

>  <score_type>  (13) 
oracle

>  <origin>  (13) 
adgpu

>  <m_score__min__energy>  (13) 
-11.699999999999999

>  <m_primary>  (13) 
energy

$$$$
13:0
     RDKit          3D

 54 57  0  0  0  0  0  0  0  0999 V2000
   -3.3160   15.7560  -32.8320 C   0  0  0  0  0  0  0  0  0  0  0  0
   -4.4750   16.2180  -34.0990 S   0  0  0  0  0  0  0  0  0  0  0  0
   -5.2220   14.9980  -34.5620 O   0  0  0  0  0  0  0  0  0  0  0  0
   -3.7350   16.8070  -35.2680 O   0  0  0  0  0  0  0  0  0  0  0  0
   -5.6000   17.4110  -33.4570 C   0  0  0  0  0  0  0  0  0  0  0  0
   -6.2050   17.1980  -32.2130 C   0  0  0  0  0  0  0  0  0  0  0  0
   -7.0950   18.1400  -31.6890 C   0  0  0  0  0  0  0  0  0  0  0  0
   -7.3920   19.3050  -32.4100 C   0  0  0  0  0  0  0  0  0  0  0  0
   -8.4650   20.5280  -31.7350 S   0  0  0  0  0  0  0  0  0  0  0  0
   -9.1110   20.0150  -30.4770 O   0  0  0  0  0  0  0  0  0  0  0  0
   -9.5400   20.8310  -32.7410 O   0  0  0  0  0  0  0  0  0  0  0  0
   -7.5510   21.9880  -31.3630 C   0  0  0  0  0  0  0  0  0  0  0  0
   -6.9040   22.6970  -32.3850 C   0  0  0  0  0  0  0  0  0  0  0  0
   -6.1830   23.8590  -32.0900 C   0  0  0  0  0  0  0  0  0  0  0  0
   -6.1090   24.3280  -30.7690 C   0  0  0  0  0  0  0  0  0  0  0  0
   -5.3050   25.5540  -30.4300 C   0  0  0  0  0  0  0  0  0  0  0  0
   -3.8870   25.3010  -30.6600 N   0  0  0  0  0  0  0  0  0  0  0  0
   -3.0620   24.5530  -29.7610 C   0  0  0  0  0  0  0  0  0  0  0  0
   -2.1870   25.1580  -29.0890 O   0  0  0  0  0  0  0  0  0  0  0  0
   -3.2660   23.1410  -29.6010 N   0  0  0  0  0  0  0  0  0  0  0  0
   -3.1390   22.1190  -30.6010 C   0  0  0  0  0  0  0  0  0  0  0  0
   -4.2380   21.2630  -30.8260 C   0  0  0  0  0  0  0  0  0  0  0  0
   -4.1840   20.2720  -31.8190 C   0  0  0  0  0  0  0  0  0  0  0  0
   -3.0190   20.1600  -32.5750 C   0  0  0  0  0  0  0  0  0  0  0  0
   -1.9530   20.9880  -32.3780 C   0  0  0  0  0  0  0  0  0  0  0  0
   -1.9820   21.9890  -31.4060 C   0  0  0  0  0  0  0  0  0  0  0  0
   -0.8670   20.6750  -33.3490 C   0  0  0  0  0  0  0  0  0  0  0  0
   -1.4640   19.5180  -34.1910 C   0  0  0  0  0  0  0  0  0  0  0  0
   -2.7910   19.2620  -33.6390 N   0  0  0  0  0  0  0  0  0  0  0  0
   -6.7590   23.6170  -29.7500 C   0  0  0  0  0  0  0  0  0  0  0  0
   -7.4800   22.4580  -30.0450 C   0  0  0  0  0  0  0  0  0  0  0  0
   -6.7890   19.5190  -33.6580 C   0  0  0  0  0  0  0  0  0  0  0  0
   -5.9000   18.5750  -34.1810 C   0  0  0  0  0  0  0  0  0  0  0  0
   -3.7634   15.9344  -31.8431 H   0  0  0  0  0  0  0  0  0  0  0  0
   -3.0664   14.6896  -32.9346 H   0  0  0  0  0  0  0  0  0  0  0  0
   -2.4012   16.3582  -32.9346 H   0  0  0  0  0  0  0  0  0  0  0  0
   -5.9788   16.2840  -31.6443 H   0  0  0  0  0  0  0  0  0  0  0  0
   -7.5633   17.9668  -30.7088 H   0  0  0  0  0  0  0  0  0  0  0  0
   -6.9636   22.3381  -33.4231 H   0  0  0  0  0  0  0  0  0  0  0  0
   -5.6725   24.4069  -32.8957 H   0  0  0  0  0  0  0  0  0  0  0  0
   -5.6330   26.3912  -31.0637 H   0  0  0  0  0  0  0  0  0  0  0  0
   -5.4594   25.8049  -29.3702 H   0  0  0  0  0  0  0  0  0  0  0  0
   -5.1471   21.3734  -30.2166 H   0  0  0  0  0  0  0  0  0  0  0  0
   -5.0384   19.6020  -31.9954 H   0  0  0  0  0  0  0  0  0  0  0  0
   -1.1236   22.6629  -31.2683 H   0  0  0  0  0  0  0  0  0  0  0  0
   -0.6405   21.5462  -33.9812 H   0  0  0  0  0  0  0  0  0  0  0  0
    0.0822   20.4075  -32.8617 H   0  0  0  0  0  0  0  0  0  0  0  0
   -1.5402   19.8141  -35.2477 H   0  0  0  0  0  0  0  0  0  0  0  0
   -0.8299   18.6201  -34.1489 H   0  0  0  0  0  0  0  0  0  0  0  0
   -3.4750   18.5590  -34.0020 H   0  0  0  0  0  0  0  0  0  0  0  0
   -6.7006   23.9746  -28.7114 H   0  0  0  0  0  0  0  0  0  0  0  0
   -7.9939   21.9123  -29.2400 H   0  0  0  0  0  0  0  0  0  0  0  0
   -7.0162   20.4324  -34.2272 H   0  0  0  0  0  0  0  0  0  0  0  0
   -5.4344   18.7453  -35.1629 H   0  0  0  0  0  0  0  0  0  0  0  0
  1  2  1  0
  2  3  2  0
  2  4  2  0
  2  5  1  0
  5  6  2  0
  6  7  1  0
  7  8  2  0
  8  9  1  0
  9 10  2  0
  9 11  2  0
  9 12  1  0
 12 13  2  0
 13 14  1  0
 14 15  2  0
 15 16  1  0
 16 17  1  0
 17 18  1  0
 18 19  2  0
 18 20  1  0
 20 21  1  0
 21 22  2  0
 22 23  1  0
 23 24  2  0
 24 25  1  0
 25 26  2  0
 25 27  1  0
 27 28  1  0
 28 29  1  0
 15 30  1  0
 30 31  2  0
  8 32  1  0
 32 33  2  0
 33  5  1  0
 31 12  1  0
 26 21  1  0
 29 24  1  0
  1 34  1  0
  1 35  1  0
  1 36  1  0
  6 37  1  0
  7 38  1  0
 13 39  1  0
 14 40  1  0
 16 41  1  0
 16 42  1  0
 22 43  1  0
 23 44  1  0
 26 45  1  0
 27 46  1  0
 27 47  1  0
 28 48  1  0
 28 49  1  0
 29 50  1  0
 30 51  1  0
 31 52  1  0
 32 53  1  0
 33 54  1  0
M  CHG  2  17  -1  20  -1
M  END
>  <UniqueID>  (14) 
14

>  <SMILES>  (14) 
CS(=O)(=O)c1ccc(S(=O)(=O)c2ccc(C[N-]C(=O)[N-]c3ccc4c(c3)CCN4)cc2)cc1

>  <Energy>  (14) 
71.43191416083297

>  <Genealogy>  (14) 
CS(=O)(=O)c1ccc(S(=O)(=O)c2ccc(C[N-]C(=O)[N-]c3ccc4c(c3)CCN4)cc2)cc1 (protonated)
CS(=O)(=O)c1ccc(S(=O)(=O)c2ccc(C[N-]C(=O)[N-]c3ccc4c(c3)CCN4)cc2)cc1 (3D coordinates assigned)
CS(=O)(=O)c1ccc(S(=O)(=O)c2ccc(C[N-]C(=O)[N-]c3ccc4c(c3)CCN4)cc2)cc1 (nonaromatic ring conformer: 71.43191416083297 kcal/mol)

>  <smiles>  (14) 
CS(=O)(=O)c1ccc(S(=O)(=O)c2ccc(CNC(=O)Nc3ccc4c(c3)CCN4)cc2)cc1

>  <score_type>  (14) 
oracle

>  <origin>  (14) 
adgpu

>  <m_score__min__energy>  (14) 
-14.449999999999999

>  <m_primary>  (14) 
energy

$$$$
14:0
     RDKit          3D

 65 68  0  0  0  0  0  0  0  0999 V2000
    1.0700   22.2700  -34.7240 O   0  0  0  0  0  0  0  0  0  0  0  0
    0.2700   21.3020  -34.5940 C   0  0  0  0  0  0  0  0  0  0  0  0
   -0.0040   20.4530  -35.7140 N   0  0  0  0  0  0  0  0  0  0  0  0
    0.2880   19.0240  -35.7220 C   0  0  0  0  0  0  0  0  0  0  0  0
   -0.5560   18.3240  -34.6870 C   0  0  0  0  0  0  0  0  0  0  0  0
    0.0330   17.7970  -33.5250 C   0  0  0  0  0  0  0  0  0  0  0  0
   -0.7520   17.1450  -32.5710 C   0  0  0  0  0  0  0  0  0  0  0  0
   -2.1290   17.0130  -32.7620 C   0  0  0  0  0  0  0  0  0  0  0  0
   -2.7310   17.5350  -33.9140 C   0  0  0  0  0  0  0  0  0  0  0  0
   -4.4740   17.3910  -34.1450 S   0  0  0  0  0  0  0  0  0  0  0  0
   -4.7910   17.6480  -35.5930 O   0  0  0  0  0  0  0  0  0  0  0  0
   -4.9120   15.9920  -33.8060 O   0  0  0  0  0  0  0  0  0  0  0  0
   -5.3240   18.5480  -33.1470 N   0  0  0  0  0  0  0  0  0  0  0  0
   -5.8120   17.9170  -31.8900 C   0  0  0  0  0  0  0  0  0  0  0  0
   -7.2920   17.5120  -31.9620 C   0  0  0  0  0  0  0  0  0  0  0  0
   -8.1860   18.7350  -32.2320 C   0  0  0  0  0  0  0  0  0  0  0  0
   -7.4750   19.8190  -33.0590 C   0  0  0  0  0  0  0  0  0  0  0  0
   -6.3860   19.2080  -33.9480 C   0  0  0  0  0  0  0  0  0  0  0  0
   -1.9420   18.1780  -34.8770 C   0  0  0  0  0  0  0  0  0  0  0  0
   -0.4430   21.0920  -33.3140 C   0  0  0  0  0  0  0  0  0  0  0  0
    0.2670   20.8200  -32.1350 C   0  0  0  0  0  0  0  0  0  0  0  0
   -0.4020   20.7390  -30.9120 C   0  0  0  0  0  0  0  0  0  0  0  0
   -1.7840   20.9420  -30.8400 C   0  0  0  0  0  0  0  0  0  0  0  0
   -2.5250   20.8990  -29.2440 Cl  0  0  0  0  0  0  0  0  0  0  0  0
   -2.5160   21.2000  -32.0220 C   0  0  0  0  0  0  0  0  0  0  0  0
   -4.2610   21.5260  -32.0320 S   0  0  0  0  0  0  0  0  0  0  0  0
   -5.0010   20.5420  -31.1680 O   0  0  0  0  0  0  0  0  0  0  0  0
   -4.7710   21.3620  -33.4370 O   0  0  0  0  0  0  0  0  0  0  0  0
   -4.6080   23.1490  -31.4840 N   0  0  0  0  0  0  0  0  0  0  0  0
   -4.1070   23.3550  -30.1150 C   0  0  0  0  0  0  0  0  0  0  0  0
   -4.1470   24.8510  -29.7610 C   0  0  0  0  0  0  0  0  0  0  0  0
   -5.2460   25.6070  -30.5310 C   0  0  0  0  0  0  0  0  0  0  0  0
   -6.4580   24.7110  -30.8080 C   0  0  0  0  0  0  0  0  0  0  0  0
   -6.0590   23.4200  -31.5590 C   0  0  0  0  0  0  0  0  0  0  0  0
   -1.8360   21.2560  -33.2470 C   0  0  0  0  0  0  0  0  0  0  0  0
    0.0633   18.6110  -36.7165 H   0  0  0  0  0  0  0  0  0  0  0  0
    1.3517   18.8695  -35.4880 H   0  0  0  0  0  0  0  0  0  0  0  0
    1.1167   17.8983  -33.3660 H   0  0  0  0  0  0  0  0  0  0  0  0
   -0.2832   16.7336  -31.6649 H   0  0  0  0  0  0  0  0  0  0  0  0
   -2.7416   16.4985  -32.0070 H   0  0  0  0  0  0  0  0  0  0  0  0
   -4.6220   19.2800  -32.8830 H   0  0  0  0  0  0  0  0  0  0  0  0
   -5.2108   17.0173  -31.6921 H   0  0  0  0  0  0  0  0  0  0  0  0
   -5.7112   18.6606  -31.0857 H   0  0  0  0  0  0  0  0  0  0  0  0
   -7.4261   16.7821  -32.7740 H   0  0  0  0  0  0  0  0  0  0  0  0
   -7.5823   17.0721  -30.9965 H   0  0  0  0  0  0  0  0  0  0  0  0
   -9.0797   18.4033  -32.7809 H   0  0  0  0  0  0  0  0  0  0  0  0
   -8.4468   19.1771  -31.2591 H   0  0  0  0  0  0  0  0  0  0  0  0
   -8.2140   20.3285  -33.6948 H   0  0  0  0  0  0  0  0  0  0  0  0
   -7.0027   20.5326  -32.3679 H   0  0  0  0  0  0  0  0  0  0  0  0
   -6.8462   18.4617  -34.6123 H   0  0  0  0  0  0  0  0  0  0  0  0
   -5.9220   20.0205  -34.5263 H   0  0  0  0  0  0  0  0  0  0  0  0
   -2.4111   18.5724  -35.7905 H   0  0  0  0  0  0  0  0  0  0  0  0
    1.3560   20.6698  -32.1742 H   0  0  0  0  0  0  0  0  0  0  0  0
    0.1636   20.5133  -29.9959 H   0  0  0  0  0  0  0  0  0  0  0  0
   -4.7379   22.7962  -29.4081 H   0  0  0  0  0  0  0  0  0  0  0  0
   -3.0691   22.9962  -30.0520 H   0  0  0  0  0  0  0  0  0  0  0  0
   -4.3368   24.9539  -28.6824 H   0  0  0  0  0  0  0  0  0  0  0  0
   -3.1780   25.2886  -30.0431 H   0  0  0  0  0  0  0  0  0  0  0  0
   -5.5703   26.4717  -29.9334 H   0  0  0  0  0  0  0  0  0  0  0  0
   -4.8295   25.9309  -31.4962 H   0  0  0  0  0  0  0  0  0  0  0  0
   -6.9236   24.4360  -29.8501 H   0  0  0  0  0  0  0  0  0  0  0  0
   -7.1597   25.2722  -31.4425 H   0  0  0  0  0  0  0  0  0  0  0  0
   -6.6001   22.5715  -31.1147 H   0  0  0  0  0  0  0  0  0  0  0  0
   -6.3202   23.5548  -32.6190 H   0  0  0  0  0  0  0  0  0  0  0  0
   -2.4041   21.4316  -34.1724 H   0  0  0  0  0  0  0  0  0  0  0  0
  1  2  2  0
  2  3  1  0
  3  4  1  0
  4  5  1  0
  5  6  2  0
  6  7  1  0
  7  8  2  0
  8  9  1  0
  9 10  1  0
 10 11  2  0
 10 12  2  0
 10 13  1  0
 13 14  1  0
 14 15  1  0
 15 16  1  0
 16 17  1  0
 17 18  1  0
  9 19  2  0
  2 20  1  0
 20 21  2  0
 21 22  1  0
 22 23  2  0
 23 24  1  0
 23 25  1  0
 25 26  1  0
 26 27  2  0
 26 28  2  0
 26 29  1  0
 29 30  1  0
 30 31  1  0
 31 32  1  0
 32 33  1  0
 33 34  1  0
 25 35  2  0
 19  5  1  0
 35 20  1  0
 18 13  1  0
 34 29  1  0
  4 36  1  0
  4 37  1  0
  6 38  1  0
  7 39  1  0
  8 40  1  0
 13 41  1  0
 14 42  1  0
 14 43  1  0
 15 44  1  0
 15 45  1  0
 16 46  1  0
 16 47  1  0
 17 48  1  0
 17 49  1  0
 18 50  1  0
 18 51  1  0
 19 52  1  0
 21 53  1  0
 22 54  1  0
 30 55  1  0
 30 56  1  0
 31 57  1  0
 31 58  1  0
 32 59  1  0
 32 60  1  0
 33 61  1  0
 33 62  1  0
 34 63  1  0
 34 64  1  0
 35 65  1  0
M  CHG  2   3  -1  13   1
M  END
>  <UniqueID>  (15) 
15

>  <SMILES>  (15) 
O=C([N-]Cc1cccc(S(=O)(=O)[NH+]2CCCCC2)c1)c1ccc(Cl)c(S(=O)(=O)N2CCCCC2)c1

>  <Energy>  (15) 
75.11020440825901

>  <Genealogy>  (15) 
O=C([N-]Cc1cccc(S(=O)(=O)[NH+]2CCCCC2)c1)c1ccc(Cl)c(S(=O)(=O)N2CCCCC2)c1 (protonated)
O=C([N-]Cc1cccc(S(=O)(=O)[NH+]2CCCCC2)c1)c1ccc(Cl)c(S(=O)(=O)N2CCCCC2)c1 (3D coordinates assigned)
O=C([N-]Cc1cccc(S(=O)(=O)[NH+]2CCCCC2)c1)c1ccc(Cl)c(S(=O)(=O)N2CCCCC2)c1 (nonaromatic ring conformer: 75.11020440825901 kcal/mol)

>  <smiles>  (15) 
O=C(NCc1cccc(S(=O)(=O)N2CCCCC2)c1)c1ccc(Cl)c(S(=O)(=O)N2CCCCC2)c1

>  <score_type>  (15) 
oracle

>  <origin>  (15) 
adgpu

>  <m_score__min__energy>  (15) 
-12.43

>  <m_primary>  (15) 
energy

$$$$
15:0
     RDKit          3D

 55 59  0  0  0  0  0  0  0  0999 V2000
   -1.6840   25.2880  -29.3270 O   0  0  0  0  0  0  0  0  0  0  0  0
   -2.2390   24.0860  -28.6150 S   0  0  0  0  0  0  0  0  0  0  0  0
   -1.5980   24.0010  -27.2570 O   0  0  0  0  0  0  0  0  0  0  0  0
   -3.9500   24.2510  -28.4220 N   0  0  0  0  0  0  0  0  0  0  0  0
   -4.9170   23.9770  -29.4440 C   0  0  0  0  0  0  0  0  0  0  0  0
   -5.9950   23.1020  -29.2270 C   0  0  0  0  0  0  0  0  0  0  0  0
   -6.9600   22.8820  -30.2190 C   0  0  0  0  0  0  0  0  0  0  0  0
   -6.8140   23.5080  -31.4750 C   0  0  0  0  0  0  0  0  0  0  0  0
   -5.7340   24.3770  -31.6880 C   0  0  0  0  0  0  0  0  0  0  0  0
   -4.7910   24.6130  -30.6790 C   0  0  0  0  0  0  0  0  0  0  0  0
   -3.7450   25.5030  -30.8880 O   0  0  0  0  0  0  0  0  0  0  0  0
   -7.8530   23.3580  -32.5650 C   0  0  0  0  0  0  0  0  0  0  0  0
   -8.7980   22.1830  -32.3400 C   0  0  0  0  0  0  0  0  0  0  0  0
   -9.2690   22.1470  -30.8920 C   0  0  0  0  0  0  0  0  0  0  0  0
   -8.0820   21.9140  -29.9560 C   0  0  0  0  0  0  0  0  0  0  0  0
   -1.9040   22.5980  -29.4960 C   0  0  0  0  0  0  0  0  0  0  0  0
   -1.0800   21.5990  -28.9550 C   0  0  0  0  0  0  0  0  0  0  0  0
   -0.7740   20.4590  -29.7040 C   0  0  0  0  0  0  0  0  0  0  0  0
   -1.2840   20.3120  -30.9950 C   0  0  0  0  0  0  0  0  0  0  0  0
   -2.1040   21.3090  -31.5440 C   0  0  0  0  0  0  0  0  0  0  0  0
   -2.7050   21.1700  -33.1890 S   0  0  0  0  0  0  0  0  0  0  0  0
   -1.6150   21.4700  -34.1680 O   0  0  0  0  0  0  0  0  0  0  0  0
   -3.7900   22.1810  -33.3860 O   0  0  0  0  0  0  0  0  0  0  0  0
   -3.3160   19.5390  -33.4860 C   0  0  0  0  0  0  0  0  0  0  0  0
   -2.4440   18.5440  -33.9490 C   0  0  0  0  0  0  0  0  0  0  0  0
   -2.8920   17.2310  -34.1260 C   0  0  0  0  0  0  0  0  0  0  0  0
   -4.2170   16.8960  -33.8470 C   0  0  0  0  0  0  0  0  0  0  0  0
   -5.1130   17.8840  -33.4060 C   0  0  0  0  0  0  0  0  0  0  0  0
   -6.4500   17.5750  -33.1230 C   0  0  0  0  0  0  0  0  0  0  0  0
   -7.3180   18.5750  -32.6860 C   0  0  0  0  0  0  0  0  0  0  0  0
   -6.8430   19.8800  -32.5380 C   0  0  0  0  0  0  0  0  0  0  0  0
   -5.5410   20.1660  -32.8050 N   0  0  0  0  0  0  0  0  0  0  0  0
   -4.6640   19.2150  -33.2300 C   0  0  0  0  0  0  0  0  0  0  0  0
   -2.4200   22.4460  -30.7880 C   0  0  0  0  0  0  0  0  0  0  0  0
   -6.0828   22.5810  -28.2622 H   0  0  0  0  0  0  0  0  0  0  0  0
   -5.6258   24.8800  -32.6602 H   0  0  0  0  0  0  0  0  0  0  0  0
   -3.0490   25.6740  -30.1760 H   0  0  0  0  0  0  0  0  0  0  0  0
   -8.4487   24.2817  -32.6089 H   0  0  0  0  0  0  0  0  0  0  0  0
   -7.3140   23.1672  -33.5047 H   0  0  0  0  0  0  0  0  0  0  0  0
   -9.6703   22.2881  -33.0019 H   0  0  0  0  0  0  0  0  0  0  0  0
   -8.2629   21.2483  -32.5634 H   0  0  0  0  0  0  0  0  0  0  0  0
   -9.7466   23.1057  -30.6414 H   0  0  0  0  0  0  0  0  0  0  0  0
   -9.9895   21.3250  -30.7693 H   0  0  0  0  0  0  0  0  0  0  0  0
   -8.4200   22.0357  -28.9163 H   0  0  0  0  0  0  0  0  0  0  0  0
   -7.7028   20.8969  -30.1339 H   0  0  0  0  0  0  0  0  0  0  0  0
   -0.6739   21.7133  -27.9391 H   0  0  0  0  0  0  0  0  0  0  0  0
   -0.1304   19.6767  -29.2754 H   0  0  0  0  0  0  0  0  0  0  0  0
   -1.0427   19.4137  -31.5823 H   0  0  0  0  0  0  0  0  0  0  0  0
   -1.3979   18.7981  -34.1752 H   0  0  0  0  0  0  0  0  0  0  0  0
   -2.1964   16.4591  -34.4868 H   0  0  0  0  0  0  0  0  0  0  0  0
   -4.5602   15.8584  -33.9723 H   0  0  0  0  0  0  0  0  0  0  0  0
   -6.8146   16.5444  -33.2455 H   0  0  0  0  0  0  0  0  0  0  0  0
   -8.3681   18.3380  -32.4597 H   0  0  0  0  0  0  0  0  0  0  0  0
   -7.5233   20.6776  -32.2049 H   0  0  0  0  0  0  0  0  0  0  0  0
   -3.0755   23.2212  -31.2114 H   0  0  0  0  0  0  0  0  0  0  0  0
  1  2  2  0
  2  3  2  0
  2  4  1  0
  4  5  1  0
  5  6  2  0
  6  7  1  0
  7  8  2  0
  8  9  1  0
  9 10  2  0
 10 11  1  0
  8 12  1  0
 12 13  1  0
 13 14  1  0
 14 15  1  0
  2 16  1  0
 16 17  2  0
 17 18  1  0
 18 19  2  0
 19 20  1  0
 20 21  1  0
 21 22  2  0
 21 23  2  0
 21 24  1  0
 24 25  2  0
 25 26  1  0
 26 27  2  0
 27 28  1  0
 28 29  2  0
 29 30  1  0
 30 31  2  0
 31 32  1  0
 32 33  2  0
 20 34  2  0
 10  5  1  0
 34 16  1  0
 15  7  1  0
 33 24  1  0
 33 28  1  0
  6 35  1  0
  9 36  1  0
 11 37  1  0
 12 38  1  0
 12 39  1  0
 13 40  1  0
 13 41  1  0
 14 42  1  0
 14 43  1  0
 15 44  1  0
 15 45  1  0
 17 46  1  0
 18 47  1  0
 19 48  1  0
 25 49  1  0
 26 50  1  0
 27 51  1  0
 29 52  1  0
 30 53  1  0
 31 54  1  0
 34 55  1  0
M  CHG  1   4  -1
M  END
>  <UniqueID>  (16) 
16

>  <SMILES>  (16) 
O=S(=O)([N-]c1cc2c(cc1O)CCCC2)c1cccc(S(=O)(=O)c2cccc3cccnc23)c1

>  <Energy>  (16) 
69.83228830230146

>  <Genealogy>  (16) 
O=S(=O)([N-]c1cc2c(cc1O)CCCC2)c1cccc(S(=O)(=O)c2cccc3cccnc23)c1 (protonated)
O=S(=O)([N-]c1cc2c(cc1O)CCCC2)c1cccc(S(=O)(=O)c2cccc3cccnc23)c1 (3D coordinates assigned)
O=S(=O)([N-]c1cc2c(cc1O)CCCC2)c1cccc(S(=O)(=O)c2cccc3cccnc23)c1 (nonaromatic ring conformer: 69.83228830230146 kcal/mol)

>  <smiles>  (16) 
O=S(=O)(Nc1cc2c(cc1O)CCCC2)c1cccc(S(=O)(=O)c2cccc3cccnc23)c1

>  <score_type>  (16) 
oracle

>  <origin>  (16) 
adgpu

>  <m_score__min__energy>  (16) 
-12.720000000000001

>  <m_primary>  (16) 
energy

$$$$
16:0
     RDKit          3D

 58 61  0  0  0  0  0  0  0  0999 V2000
   -6.4970   25.6820  -29.3420 C   0  0  0  0  0  0  0  0  0  0  0  0
   -5.4520   24.6630  -29.6860 C   0  0  0  0  0  0  0  0  0  0  0  0
   -4.5900   24.1720  -28.6940 C   0  0  0  0  0  0  0  0  0  0  0  0
   -3.6370   23.1980  -29.0060 C   0  0  0  0  0  0  0  0  0  0  0  0
   -3.5410   22.7000  -30.3130 C   0  0  0  0  0  0  0  0  0  0  0  0
   -2.3260   21.4960  -30.7300 S   0  0  0  0  0  0  0  0  0  0  0  0
   -1.9810   20.7030  -29.5000 O   0  0  0  0  0  0  0  0  0  0  0  0
   -1.0730   22.1600  -31.2290 O   0  0  0  0  0  0  0  0  0  0  0  0
   -2.9660   20.4270  -31.9830 C   0  0  0  0  0  0  0  0  0  0  0  0
   -4.3000   20.0000  -31.8940 C   0  0  0  0  0  0  0  0  0  0  0  0
   -4.8550   19.1770  -32.8820 C   0  0  0  0  0  0  0  0  0  0  0  0
   -6.5560   18.7110  -32.7960 S   0  0  0  0  0  0  0  0  0  0  0  0
   -6.8280   18.0700  -31.4640 O   0  0  0  0  0  0  0  0  0  0  0  0
   -6.8480   17.6980  -33.8690 O   0  0  0  0  0  0  0  0  0  0  0  0
   -7.6090   20.0930  -32.9970 N   0  0  0  0  0  0  0  0  0  0  0  0
   -6.9430   21.3220  -32.5270 C   0  0  0  0  0  0  0  0  0  0  0  0
   -7.9790   22.4150  -32.2170 C   0  0  0  0  0  0  0  0  0  0  0  0
   -8.9130   22.0570  -31.2060 O   0  0  0  0  0  0  0  0  0  0  0  0
   -9.0820   20.6550  -31.0510 C   0  0  0  0  0  0  0  0  0  0  0  0
   -8.9290   19.8720  -32.3690 C   0  0  0  0  0  0  0  0  0  0  0  0
   -4.0590   18.7490  -33.9500 C   0  0  0  0  0  0  0  0  0  0  0  0
   -2.7330   19.1680  -34.0510 C   0  0  0  0  0  0  0  0  0  0  0  0
   -2.1810   20.0190  -33.0820 C   0  0  0  0  0  0  0  0  0  0  0  0
   -0.8340   20.4840  -33.2460 N   0  0  0  0  0  0  0  0  0  0  0  0
   -0.5230   21.5040  -34.2490 C   0  0  0  0  0  0  0  0  0  0  0  0
    0.3980   20.8990  -35.3110 C   0  0  0  0  0  0  0  0  0  0  0  0
    1.5800   20.2980  -34.6760 N   0  0  0  0  0  0  0  0  0  0  0  0
    1.1880   19.2120  -33.7640 C   0  0  0  0  0  0  0  0  0  0  0  0
    0.2840   19.7500  -32.6510 C   0  0  0  0  0  0  0  0  0  0  0  0
   -4.4200   23.1690  -31.2980 C   0  0  0  0  0  0  0  0  0  0  0  0
   -5.3730   24.1430  -30.9860 C   0  0  0  0  0  0  0  0  0  0  0  0
   -6.5822   25.7651  -28.2485 H   0  0  0  0  0  0  0  0  0  0  0  0
   -6.2107   26.6572  -29.7626 H   0  0  0  0  0  0  0  0  0  0  0  0
   -7.4647   25.3712  -29.7626 H   0  0  0  0  0  0  0  0  0  0  0  0
   -4.6644   24.5553  -27.6656 H   0  0  0  0  0  0  0  0  0  0  0  0
   -2.9609   22.8215  -28.2242 H   0  0  0  0  0  0  0  0  0  0  0  0
   -4.9163   20.3151  -31.0391 H   0  0  0  0  0  0  0  0  0  0  0  0
   -6.3712   21.0969  -31.6147 H   0  0  0  0  0  0  0  0  0  0  0  0
   -6.2705   21.6853  -33.3180 H   0  0  0  0  0  0  0  0  0  0  0  0
   -7.4422   23.3171  -31.8882 H   0  0  0  0  0  0  0  0  0  0  0  0
   -8.5555   22.5777  -33.1396 H   0  0  0  0  0  0  0  0  0  0  0  0
   -8.3280   20.2894  -30.3384 H   0  0  0  0  0  0  0  0  0  0  0  0
  -10.1082   20.4889  -30.6913 H   0  0  0  0  0  0  0  0  0  0  0  0
   -9.0469   18.7986  -32.1596 H   0  0  0  0  0  0  0  0  0  0  0  0
   -9.7004   20.2295  -33.0670 H   0  0  0  0  0  0  0  0  0  0  0  0
   -4.4812   18.0789  -34.7134 H   0  0  0  0  0  0  0  0  0  0  0  0
   -2.1157   18.8290  -34.8960 H   0  0  0  0  0  0  0  0  0  0  0  0
   -1.4534   21.8503  -34.7227 H   0  0  0  0  0  0  0  0  0  0  0  0
   -0.0222   22.3566  -33.7670 H   0  0  0  0  0  0  0  0  0  0  0  0
   -0.1492   20.1237  -35.8673 H   0  0  0  0  0  0  0  0  0  0  0  0
    0.7248   21.6940  -35.9974 H   0  0  0  0  0  0  0  0  0  0  0  0
    2.1700   19.8810  -35.4320 H   0  0  0  0  0  0  0  0  0  0  0  0
    0.6455   18.4409  -34.3306 H   0  0  0  0  0  0  0  0  0  0  0  0
    2.0935   18.7815  -33.3115 H   0  0  0  0  0  0  0  0  0  0  0  0
   -0.1036   18.9107  -32.0549 H   0  0  0  0  0  0  0  0  0  0  0  0
    0.8619   20.4236  -32.0011 H   0  0  0  0  0  0  0  0  0  0  0  0
   -4.3600   22.7692  -32.3210 H   0  0  0  0  0  0  0  0  0  0  0  0
   -6.0634   24.5028  -31.7630 H   0  0  0  0  0  0  0  0  0  0  0  0
  1  2  1  0
  2  3  2  0
  3  4  1  0
  4  5  2  0
  5  6  1  0
  6  7  2  0
  6  8  2  0
  6  9  1  0
  9 10  2  0
 10 11  1  0
 11 12  1  0
 12 13  2  0
 12 14  2  0
 12 15  1  0
 15 16  1  0
 16 17  1  0
 17 18  1  0
 18 19  1  0
 19 20  1  0
 11 21  2  0
 21 22  1  0
 22 23  2  0
 23 24  1  0
 24 25  1  0
 25 26  1  0
 26 27  1  0
 27 28  1  0
 28 29  1  0
  5 30  1  0
 30 31  2  0
 31  2  1  0
 23  9  1  0
 29 24  1  0
 20 15  1  0
  1 32  1  0
  1 33  1  0
  1 34  1  0
  3 35  1  0
  4 36  1  0
 10 37  1  0
 16 38  1  0
 16 39  1  0
 17 40  1  0
 17 41  1  0
 19 42  1  0
 19 43  1  0
 20 44  1  0
 20 45  1  0
 21 46  1  0
 22 47  1  0
 25 48  1  0
 25 49  1  0
 26 50  1  0
 26 51  1  0
 27 52  1  0
 28 53  1  0
 28 54  1  0
 29 55  1  0
 29 56  1  0
 30 57  1  0
 31 58  1  0
M  END
>  <UniqueID>  (17) 
17

>  <SMILES>  (17) 
Cc1ccc(S(=O)(=O)c2cc(S(=O)(=O)N3CCOCC3)ccc2N2CCNCC2)cc1

>  <Energy>  (17) 
74.20731687173975

>  <Genealogy>  (17) 
Cc1ccc(S(=O)(=O)c2cc(S(=O)(=O)N3CCOCC3)ccc2N2CCNCC2)cc1 (3D coordinates assigned)
Cc1ccc(S(=O)(=O)c2cc(S(=O)(=O)N3CCOCC3)ccc2N2CCNCC2)cc1 (nonaromatic ring conformer: 74.20731687173975 kcal/mol)

>  <smiles>  (17) 
Cc1ccc(S(=O)(=O)c2cc(S(=O)(=O)N3CCOCC3)ccc2N2CCNCC2)cc1

>  <score_type>  (17) 
oracle

>  <origin>  (17) 
adgpu

>  <m_score__min__energy>  (17) 
-9.5299999999999994

>  <m_primary>  (17) 
energy

$$$$
17:0
     RDKit          3D

 43 45  0  0  0  0  0  0  0  0999 V2000
   -1.2590   23.3160  -30.0190 O   0  0  0  0  0  0  0  0  0  0  0  0
   -2.3150   22.7870  -29.5810 C   0  0  0  0  0  0  0  0  0  0  0  0
   -3.3060   23.6250  -28.8390 C   0  0  0  0  0  0  0  0  0  0  0  0
   -4.6000   23.6990  -29.6070 C   0  0  0  0  0  0  0  0  0  0  0  0
   -5.6210   22.7700  -29.3410 C   0  0  0  0  0  0  0  0  0  0  0  0
   -6.8400   22.8440  -30.0210 C   0  0  0  0  0  0  0  0  0  0  0  0
   -7.0540   23.8500  -30.9660 C   0  0  0  0  0  0  0  0  0  0  0  0
   -6.0510   24.7870  -31.2290 C   0  0  0  0  0  0  0  0  0  0  0  0
   -4.8300   24.7200  -30.5510 C   0  0  0  0  0  0  0  0  0  0  0  0
   -3.8520   25.6720  -30.8200 O   0  0  0  0  0  0  0  0  0  0  0  0
   -2.6260   21.4170  -29.8670 N   0  0  0  0  0  0  0  0  0  0  0  0
   -3.0110   20.8770  -31.1390 C   0  0  0  0  0  0  0  0  0  0  0  0
   -2.2890   21.2590  -32.2770 C   0  0  0  0  0  0  0  0  0  0  0  0
   -2.6360   20.7600  -33.5350 C   0  0  0  0  0  0  0  0  0  0  0  0
   -3.7200   19.8890  -33.6700 C   0  0  0  0  0  0  0  0  0  0  0  0
   -4.4710   19.5240  -32.5440 C   0  0  0  0  0  0  0  0  0  0  0  0
   -5.8560   18.4500  -32.7070 S   0  0  0  0  0  0  0  0  0  0  0  0
   -6.1130   17.7840  -31.3840 O   0  0  0  0  0  0  0  0  0  0  0  0
   -5.5710   17.3960  -33.7430 O   0  0  0  0  0  0  0  0  0  0  0  0
   -7.2600   19.3730  -33.1850 N   0  0  0  0  0  0  0  0  0  0  0  0
   -8.4860   18.8350  -32.5750 C   0  0  0  0  0  0  0  0  0  0  0  0
   -9.0650   19.9030  -31.6630 C   0  0  0  0  0  0  0  0  0  0  0  0
   -8.4760   21.1920  -32.1780 C   0  0  0  0  0  0  0  0  0  0  0  0
   -7.1390   20.7760  -32.7620 C   0  0  0  0  0  0  0  0  0  0  0  0
   -4.1180   20.0200  -31.2820 C   0  0  0  0  0  0  0  0  0  0  0  0
   -3.4940   23.1776  -27.8518 H   0  0  0  0  0  0  0  0  0  0  0  0
   -2.9003   24.6404  -28.7188 H   0  0  0  0  0  0  0  0  0  0  0  0
   -5.4596   21.9798  -28.5930 H   0  0  0  0  0  0  0  0  0  0  0  0
   -7.6315   22.1093  -29.8117 H   0  0  0  0  0  0  0  0  0  0  0  0
   -8.0122   23.9048  -31.5034 H   0  0  0  0  0  0  0  0  0  0  0  0
   -6.2227   25.5799  -31.9719 H   0  0  0  0  0  0  0  0  0  0  0  0
   -1.4437   21.9561  -32.1796 H   0  0  0  0  0  0  0  0  0  0  0  0
   -2.0543   21.0536  -34.4213 H   0  0  0  0  0  0  0  0  0  0  0  0
   -3.9843   19.4895  -34.6602 H   0  0  0  0  0  0  0  0  0  0  0  0
   -9.2130   18.5807  -33.3604 H   0  0  0  0  0  0  0  0  0  0  0  0
   -8.2591   17.9246  -32.0008 H   0  0  0  0  0  0  0  0  0  0  0  0
  -10.1627   19.9211  -31.7321 H   0  0  0  0  0  0  0  0  0  0  0  0
   -8.8266   19.7256  -30.6039 H   0  0  0  0  0  0  0  0  0  0  0  0
   -9.1202   21.6347  -32.9520 H   0  0  0  0  0  0  0  0  0  0  0  0
   -8.3762   21.9558  -31.3927 H   0  0  0  0  0  0  0  0  0  0  0  0
   -6.8934   21.4094  -33.6271 H   0  0  0  0  0  0  0  0  0  0  0  0
   -6.3381   20.8886  -32.0164 H   0  0  0  0  0  0  0  0  0  0  0  0
   -4.7093   19.7380  -30.3984 H   0  0  0  0  0  0  0  0  0  0  0  0
  1  2  2  0
  2  3  1  0
  3  4  1  0
  4  5  2  0
  5  6  1  0
  6  7  2  0
  7  8  1  0
  8  9  2  0
  9 10  1  0
  2 11  1  0
 11 12  1  0
 12 13  2  0
 13 14  1  0
 14 15  2  0
 15 16  1  0
 16 17  1  0
 17 18  2  0
 17 19  2  0
 17 20  1  0
 20 21  1  0
 21 22  1  0
 22 23  1  0
 23 24  1  0
 16 25  2  0
  9  4  1  0
 25 12  1  0
 24 20  1  0
  3 26  1  0
  3 27  1  0
  5 28  1  0
  6 29  1  0
  7 30  1  0
  8 31  1  0
 13 32  1  0
 14 33  1  0
 15 34  1  0
 21 35  1  0
 21 36  1  0
 22 37  1  0
 22 38  1  0
 23 39  1  0
 23 40  1  0
 24 41  1  0
 24 42  1  0
 25 43  1  0
M  CHG  2  10  -1  11  -1
M  END
>  <UniqueID>  (18) 
18

>  <SMILES>  (18) 
O=C(Cc1ccccc1[O-])[N-]c1cccc(S(=O)(=O)N2CCCC2)c1

>  <Energy>  (18) 
47.23517781385363

>  <Genealogy>  (18) 
O=C(Cc1ccccc1[O-])[N-]c1cccc(S(=O)(=O)N2CCCC2)c1 (protonated)
O=C(Cc1ccccc1[O-])[N-]c1cccc(S(=O)(=O)N2CCCC2)c1 (3D coordinates assigned)
O=C(Cc1ccccc1[O-])[N-]c1cccc(S(=O)(=O)N2CCCC2)c1 (nonaromatic ring conformer: 47.23517781385363 kcal/mol)

>  <smiles>  (18) 
O=C(Cc1ccccc1O)Nc1cccc(S(=O)(=O)N2CCCC2)c1

>  <score_type>  (18) 
oracle

>  <origin>  (18) 
adgpu

>  <m_score__min__energy>  (18) 
-13.76

>  <m_primary>  (18) 
energy

$$$$
18:0
     RDKit          3D

 58 61  0  0  0  0  0  0  0  0999 V2000
   -1.3120   25.7510  -28.9190 O   0  0  0  0  0  0  0  0  0  0  0  0
   -2.1960   24.8620  -29.0230 C   0  0  0  0  0  0  0  0  0  0  0  0
   -3.1130   24.9340  -30.1220 N   0  0  0  0  0  0  0  0  0  0  0  0
   -4.3320   24.2010  -30.3090 C   0  0  0  0  0  0  0  0  0  0  0  0
   -5.5820   24.6830  -29.8780 C   0  0  0  0  0  0  0  0  0  0  0  0
   -6.7270   23.8890  -30.0140 C   0  0  0  0  0  0  0  0  0  0  0  0
   -6.6360   22.5920  -30.5500 C   0  0  0  0  0  0  0  0  0  0  0  0
   -7.8230   21.7110  -30.6030 C   0  0  0  0  0  0  0  0  0  0  0  0
   -8.8080   21.9560  -29.8580 O   0  0  0  0  0  0  0  0  0  0  0  0
   -7.8730   20.5720  -31.4790 N   0  0  0  0  0  0  0  0  0  0  0  0
   -6.7190   19.6790  -31.6130 C   0  0  0  0  0  0  0  0  0  0  0  0
   -7.2180   18.2470  -31.8280 C   0  0  0  0  0  0  0  0  0  0  0  0
   -8.1310   18.1910  -32.9130 O   0  0  0  0  0  0  0  0  0  0  0  0
   -9.3020   18.9260  -32.5960 C   0  0  0  0  0  0  0  0  0  0  0  0
   -8.9800   20.4170  -32.4240 C   0  0  0  0  0  0  0  0  0  0  0  0
   -5.3860   22.1120  -30.9700 C   0  0  0  0  0  0  0  0  0  0  0  0
   -4.2480   22.9160  -30.8560 C   0  0  0  0  0  0  0  0  0  0  0  0
   -2.2530   23.8280  -28.0330 N   0  0  0  0  0  0  0  0  0  0  0  0
   -2.0640   22.4160  -28.2100 C   0  0  0  0  0  0  0  0  0  0  0  0
   -2.3970   21.4970  -27.2000 C   0  0  0  0  0  0  0  0  0  0  0  0
   -2.1450   20.1360  -27.3760 C   0  0  0  0  0  0  0  0  0  0  0  0
   -1.5430   19.6790  -28.5490 C   0  0  0  0  0  0  0  0  0  0  0  0
   -1.1870   20.5800  -29.5610 C   0  0  0  0  0  0  0  0  0  0  0  0
   -0.4030   19.9660  -31.0260 S   0  0  0  0  0  0  0  0  0  0  0  0
    0.5600   18.8770  -30.6370 O   0  0  0  0  0  0  0  0  0  0  0  0
    0.3990   21.0630  -31.6730 O   0  0  0  0  0  0  0  0  0  0  0  0
   -1.5490   19.3290  -32.1880 N   0  0  0  0  0  0  0  0  0  0  0  0
   -2.8460   20.0420  -32.1640 C   0  0  0  0  0  0  0  0  0  0  0  0
   -3.0020   21.0350  -33.3280 C   0  0  0  0  0  0  0  0  0  0  0  0
   -1.7460   21.5330  -33.7150 O   0  0  0  0  0  0  0  0  0  0  0  0
   -1.0050   20.5110  -34.3510 C   0  0  0  0  0  0  0  0  0  0  0  0
   -0.9700   19.1930  -33.5390 C   0  0  0  0  0  0  0  0  0  0  0  0
   -1.4500   21.9550  -29.3930 C   0  0  0  0  0  0  0  0  0  0  0  0
   -1.1050   22.8530  -30.4060 O   0  0  0  0  0  0  0  0  0  0  0  0
   -5.6596   25.6861  -29.4332 H   0  0  0  0  0  0  0  0  0  0  0  0
   -7.7049   24.2824  -29.6994 H   0  0  0  0  0  0  0  0  0  0  0  0
   -6.1099   19.9904  -32.4744 H   0  0  0  0  0  0  0  0  0  0  0  0
   -6.1056   19.7255  -30.7011 H   0  0  0  0  0  0  0  0  0  0  0  0
   -6.3595   17.5943  -32.0446 H   0  0  0  0  0  0  0  0  0  0  0  0
   -7.7325   17.9113  -30.9155 H   0  0  0  0  0  0  0  0  0  0  0  0
  -10.0338   18.8065  -33.4085 H   0  0  0  0  0  0  0  0  0  0  0  0
   -9.7136   18.5429  -31.6506 H   0  0  0  0  0  0  0  0  0  0  0  0
   -8.6945   20.8449  -33.3963 H   0  0  0  0  0  0  0  0  0  0  0  0
   -9.8669   20.9412  -32.0385 H   0  0  0  0  0  0  0  0  0  0  0  0
   -5.3013   21.0991  -31.3906 H   0  0  0  0  0  0  0  0  0  0  0  0
   -3.2756   22.5340  -31.2002 H   0  0  0  0  0  0  0  0  0  0  0  0
   -2.8583   21.8523  -26.2667 H   0  0  0  0  0  0  0  0  0  0  0  0
   -2.4218   19.4208  -26.5874 H   0  0  0  0  0  0  0  0  0  0  0  0
   -1.3467   18.6046  -28.6799 H   0  0  0  0  0  0  0  0  0  0  0  0
   -3.6560   19.3002  -32.2240 H   0  0  0  0  0  0  0  0  0  0  0  0
   -2.8894   20.6190  -31.2285 H   0  0  0  0  0  0  0  0  0  0  0  0
   -3.4683   20.5225  -34.1824 H   0  0  0  0  0  0  0  0  0  0  0  0
   -3.6345   21.8735  -33.0011 H   0  0  0  0  0  0  0  0  0  0  0  0
   -1.4601   20.3065  -35.3314 H   0  0  0  0  0  0  0  0  0  0  0  0
    0.0317   20.8666  -34.4451 H   0  0  0  0  0  0  0  0  0  0  0  0
   -1.5389   18.4284  -34.0882 H   0  0  0  0  0  0  0  0  0  0  0  0
    0.0863   18.9117  -33.4161 H   0  0  0  0  0  0  0  0  0  0  0  0
   -1.2320   23.8520  -30.3180 H   0  0  0  0  0  0  0  0  0  0  0  0
  1  2  2  0
  2  3  1  0
  3  4  1  0
  4  5  2  0
  5  6  1  0
  6  7  2  0
  7  8  1  0
  8  9  2  0
  8 10  1  0
 10 11  1  0
 11 12  1  0
 12 13  1  0
 13 14  1  0
 14 15  1  0
  7 16  1  0
 16 17  2  0
  2 18  1  0
 18 19  1  0
 19 20  2  0
 20 21  1  0
 21 22  2  0
 22 23  1  0
 23 24  1  0
 24 25  2  0
 24 26  2  0
 24 27  1  0
 27 28  1  0
 28 29  1  0
 29 30  1  0
 30 31  1  0
 31 32  1  0
 23 33  2  0
 33 34  1  0
 17  4  1  0
 33 19  1  0
 15 10  1  0
 32 27  1  0
  5 35  1  0
  6 36  1  0
 11 37  1  0
 11 38  1  0
 12 39  1  0
 12 40  1  0
 14 41  1  0
 14 42  1  0
 15 43  1  0
 15 44  1  0
 16 45  1  0
 17 46  1  0
 20 47  1  0
 21 48  1  0
 22 49  1  0
 28 50  1  0
 28 51  1  0
 29 52  1  0
 29 53  1  0
 31 54  1  0
 31 55  1  0
 32 56  1  0
 32 57  1  0
 34 58  1  0
M  CHG  2   3  -1  18  -1
M  END
>  <UniqueID>  (19) 
19

>  <SMILES>  (19) 
O=C([N-]c1ccc(C(=O)N2CCOCC2)cc1)[N-]c1cccc(S(=O)(=O)N2CCOCC2)c1O

>  <Energy>  (19) 
84.84094608199558

>  <Genealogy>  (19) 
O=C([N-]c1ccc(C(=O)N2CCOCC2)cc1)[N-]c1cccc(S(=O)(=O)N2CCOCC2)c1O (protonated)
O=C([N-]c1ccc(C(=O)N2CCOCC2)cc1)[N-]c1cccc(S(=O)(=O)N2CCOCC2)c1O (3D coordinates assigned)
O=C([N-]c1ccc(C(=O)N2CCOCC2)cc1)[N-]c1cccc(S(=O)(=O)N2CCOCC2)c1O (nonaromatic ring conformer: 84.84094608199558 kcal/mol)

>  <smiles>  (19) 
O=C(Nc1ccc(C(=O)N2CCOCC2)cc1)Nc1cccc(S(=O)(=O)N2CCOCC2)c1O

>  <score_type>  (19) 
oracle

>  <origin>  (19) 
adgpu

>  <m_score__min__energy>  (19) 
-12.66

>  <m_primary>  (19) 
energy

$$$$
19:0
     RDKit          3D

 54 57  0  0  0  0  0  0  0  0999 V2000
   -1.8770   20.1050  -27.7170 O   0  0  0  0  0  0  0  0  0  0  0  0
   -1.5950   20.6480  -28.8190 C   0  0  0  0  0  0  0  0  0  0  0  0
   -1.2420   19.8130  -29.9310 N   0  0  0  0  0  0  0  0  0  0  0  0
   -1.1970   20.2440  -31.2990 C   0  0  0  0  0  0  0  0  0  0  0  0
   -2.3860   20.6430  -31.9200 C   0  0  0  0  0  0  0  0  0  0  0  0
   -2.3750   21.0920  -33.2440 C   0  0  0  0  0  0  0  0  0  0  0  0
   -1.1720   21.1680  -33.9480 C   0  0  0  0  0  0  0  0  0  0  0  0
    0.0250   20.8030  -33.3260 C   0  0  0  0  0  0  0  0  0  0  0  0
    0.0200   20.3440  -32.0040 C   0  0  0  0  0  0  0  0  0  0  0  0
    1.2280   20.0250  -31.3940 O   0  0  0  0  0  0  0  0  0  0  0  0
   -1.5530   22.1230  -28.9170 C   0  0  0  0  0  0  0  0  0  0  0  0
   -0.6110   22.8590  -28.1800 C   0  0  0  0  0  0  0  0  0  0  0  0
   -0.6350   24.2560  -28.1980 C   0  0  0  0  0  0  0  0  0  0  0  0
   -1.5940   24.9340  -28.9580 C   0  0  0  0  0  0  0  0  0  0  0  0
   -1.6030   26.3240  -28.9690 O   0  0  0  0  0  0  0  0  0  0  0  0
   -2.5250   24.2160  -29.7190 C   0  0  0  0  0  0  0  0  0  0  0  0
   -3.4860   24.9360  -30.5030 N   0  0  0  0  0  0  0  0  0  0  0  0
   -5.1910   24.8920  -30.2060 S   0  0  0  0  0  0  0  0  0  0  0  0
   -5.8300   26.1130  -30.8050 O   0  0  0  0  0  0  0  0  0  0  0  0
   -5.4690   24.8830  -28.7290 O   0  0  0  0  0  0  0  0  0  0  0  0
   -5.8500   23.4580  -30.9870 C   0  0  0  0  0  0  0  0  0  0  0  0
   -5.2450   22.2130  -30.7660 C   0  0  0  0  0  0  0  0  0  0  0  0
   -5.8190   21.0500  -31.2860 C   0  0  0  0  0  0  0  0  0  0  0  0
   -7.0080   21.1210  -32.0260 C   0  0  0  0  0  0  0  0  0  0  0  0
   -7.8020   19.6500  -32.5840 S   0  0  0  0  0  0  0  0  0  0  0  0
   -7.9350   18.7070  -31.4210 O   0  0  0  0  0  0  0  0  0  0  0  0
   -9.1780   19.9720  -33.1000 O   0  0  0  0  0  0  0  0  0  0  0  0
   -6.8400   18.9020  -33.8410 N   0  0  0  0  0  0  0  0  0  0  0  0
   -6.7360   17.4540  -33.6250 C   0  0  0  0  0  0  0  0  0  0  0  0
   -5.4770   17.1900  -32.8150 C   0  0  0  0  0  0  0  0  0  0  0  0
   -4.6240   18.4340  -32.9760 C   0  0  0  0  0  0  0  0  0  0  0  0
   -5.4620   19.4030  -33.8030 C   0  0  0  0  0  0  0  0  0  0  0  0
   -7.6050   22.3660  -32.2570 C   0  0  0  0  0  0  0  0  0  0  0  0
   -7.0280   23.5320  -31.7400 C   0  0  0  0  0  0  0  0  0  0  0  0
   -2.5080   22.8100  -29.6880 C   0  0  0  0  0  0  0  0  0  0  0  0
   -3.3341   20.6031  -31.3636 H   0  0  0  0  0  0  0  0  0  0  0  0
   -3.3161   21.3859  -33.7318 H   0  0  0  0  0  0  0  0  0  0  0  0
   -1.1662   21.5150  -34.9918 H   0  0  0  0  0  0  0  0  0  0  0  0
    0.9741   20.8767  -33.8772 H   0  0  0  0  0  0  0  0  0  0  0  0
    0.1501   22.3327  -27.5852 H   0  0  0  0  0  0  0  0  0  0  0  0
    0.1026   24.8245  -27.6126 H   0  0  0  0  0  0  0  0  0  0  0  0
   -4.3153   22.1514  -30.1813 H   0  0  0  0  0  0  0  0  0  0  0  0
   -5.3369   20.0763  -31.1144 H   0  0  0  0  0  0  0  0  0  0  0  0
   -7.6172   17.0945  -33.0734 H   0  0  0  0  0  0  0  0  0  0  0  0
   -6.6885   16.9259  -34.5888 H   0  0  0  0  0  0  0  0  0  0  0  0
   -5.7276   17.0300  -31.7559 H   0  0  0  0  0  0  0  0  0  0  0  0
   -4.9515   16.2872  -33.1596 H   0  0  0  0  0  0  0  0  0  0  0  0
   -4.3917   18.8699  -31.9931 H   0  0  0  0  0  0  0  0  0  0  0  0
   -3.6640   18.2084  -33.4634 H   0  0  0  0  0  0  0  0  0  0  0  0
   -5.4415   20.4009  -33.3407 H   0  0  0  0  0  0  0  0  0  0  0  0
   -5.0577   19.4791  -34.8232 H   0  0  0  0  0  0  0  0  0  0  0  0
   -8.5312   22.4283  -32.8471 H   0  0  0  0  0  0  0  0  0  0  0  0
   -7.5008   24.5077  -31.9256 H   0  0  0  0  0  0  0  0  0  0  0  0
   -3.2479   22.2427  -30.2717 H   0  0  0  0  0  0  0  0  0  0  0  0
  1  2  2  0
  2  3  1  0
  3  4  1  0
  4  5  2  0
  5  6  1  0
  6  7  2  0
  7  8  1  0
  8  9  2  0
  9 10  1  0
  2 11  1  0
 11 12  2  0
 12 13  1  0
 13 14  2  0
 14 15  1  0
 14 16  1  0
 16 17  1  0
 17 18  1  0
 18 19  2  0
 18 20  2  0
 18 21  1  0
 21 22  2  0
 22 23  1  0
 23 24  2  0
 24 25  1  0
 25 26  2  0
 25 27  2  0
 25 28  1  0
 28 29  1  0
 29 30  1  0
 30 31  1  0
 31 32  1  0
 24 33  1  0
 33 34  2  0
 16 35  2  0
  9  4  1  0
 35 11  1  0
 34 21  1  0
 32 28  1  0
  5 36  1  0
  6 37  1  0
  7 38  1  0
  8 39  1  0
 12 40  1  0
 13 41  1  0
 22 42  1  0
 23 43  1  0
 29 44  1  0
 29 45  1  0
 30 46  1  0
 30 47  1  0
 31 48  1  0
 31 49  1  0
 32 50  1  0
 32 51  1  0
 33 52  1  0
 34 53  1  0
 35 54  1  0
M  CHG  4   3  -1  10  -1  15  -1  17  -1
M  END
>  <UniqueID>  (20) 
20

>  <SMILES>  (20) 
O=C([N-]c1ccccc1[O-])c1ccc([O-])c([N-]S(=O)(=O)c2ccc(S(=O)(=O)N3CCCC3)cc2)c1

>  <Energy>  (20) 
70.47190631950323

>  <Genealogy>  (20) 
O=C([N-]c1ccccc1[O-])c1ccc([O-])c([N-]S(=O)(=O)c2ccc(S(=O)(=O)N3CCCC3)cc2)c1 (protonated)
O=C([N-]c1ccccc1[O-])c1ccc([O-])c([N-]S(=O)(=O)c2ccc(S(=O)(=O)N3CCCC3)cc2)c1 (3D coordinates assigned)
O=C([N-]c1ccccc1[O-])c1ccc([O-])c([N-]S(=O)(=O)c2ccc(S(=O)(=O)N3CCCC3)cc2)c1 (nonaromatic ring conformer: 70.47190631950323 kcal/mol)

>  <smiles>  (20) 
O=C(Nc1ccccc1O)c1ccc(O)c(NS(=O)(=O)c2ccc(S(=O)(=O)N3CCCC3)cc2)c1

>  <score_type>  (20) 
oracle

>  <origin>  (20) 
adgpu

>  <m_score__min__energy>  (20) 
-15.35

>  <m_primary>  (20) 
energy

$$$$
20:0
     RDKit          3D

 47 49  0  0  0  0  0  0  0  0999 V2000
   -7.9810   21.2130  -31.9090 C   0  0  0  0  0  0  0  0  0  0  0  0
   -6.5770   21.5310  -31.4890 C   0  0  0  0  0  0  0  0  0  0  0  0
   -5.6970   20.6350  -31.6120 O   0  0  0  0  0  0  0  0  0  0  0  0
   -6.2020   22.8640  -30.9490 C   0  0  0  0  0  0  0  0  0  0  0  0
   -7.2020   23.7890  -30.5980 C   0  0  0  0  0  0  0  0  0  0  0  0
   -6.8610   25.0490  -30.1000 C   0  0  0  0  0  0  0  0  0  0  0  0
   -5.5200   25.4040  -29.9510 C   0  0  0  0  0  0  0  0  0  0  0  0
   -4.5060   24.5040  -30.2920 C   0  0  0  0  0  0  0  0  0  0  0  0
   -3.1410   24.9110  -30.1260 N   0  0  0  0  0  0  0  0  0  0  0  0
   -2.0020   24.1710  -29.0470 S   0  0  0  0  0  0  0  0  0  0  0  0
   -2.5950   24.1250  -27.6670 O   0  0  0  0  0  0  0  0  0  0  0  0
   -0.7490   25.0010  -28.9990 O   0  0  0  0  0  0  0  0  0  0  0  0
   -1.5940   22.5460  -29.6180 C   0  0  0  0  0  0  0  0  0  0  0  0
   -1.9020   22.1940  -30.9420 C   0  0  0  0  0  0  0  0  0  0  0  0
   -1.5750   20.9320  -31.4460 C   0  0  0  0  0  0  0  0  0  0  0  0
   -1.8870   20.6300  -32.8150 N   0  0  0  0  0  0  0  0  0  0  0  0
   -3.2010   20.5140  -33.3750 C   0  0  0  0  0  0  0  0  0  0  0  0
   -3.8770   21.5610  -33.5590 O   0  0  0  0  0  0  0  0  0  0  0  0
   -3.7900   19.2040  -33.7350 C   0  0  0  0  0  0  0  0  0  0  0  0
   -2.9590   18.0710  -33.7360 C   0  0  0  0  0  0  0  0  0  0  0  0
   -3.4860   16.8060  -34.0050 C   0  0  0  0  0  0  0  0  0  0  0  0
   -4.8460   16.6590  -34.2810 C   0  0  0  0  0  0  0  0  0  0  0  0
   -5.6780   17.7790  -34.3080 C   0  0  0  0  0  0  0  0  0  0  0  0
   -5.1620   19.0560  -34.0560 C   0  0  0  0  0  0  0  0  0  0  0  0
   -6.0250   20.1470  -34.1610 O   0  0  0  0  0  0  0  0  0  0  0  0
   -0.8990   20.0180  -30.6270 C   0  0  0  0  0  0  0  0  0  0  0  0
   -0.5910   20.3520  -29.3080 C   0  0  0  0  0  0  0  0  0  0  0  0
   -0.9360   21.6070  -28.7870 C   0  0  0  0  0  0  0  0  0  0  0  0
   -0.5990   21.9050  -27.4240 N   0  0  0  0  0  0  0  0  0  0  0  0
   -4.8520   23.2300  -30.7790 C   0  0  0  0  0  0  0  0  0  0  0  0
   -8.6076   21.0711  -31.0161 H   0  0  0  0  0  0  0  0  0  0  0  0
   -8.3811   22.0433  -32.5095 H   0  0  0  0  0  0  0  0  0  0  0  0
   -7.9843   20.2914  -32.5095 H   0  0  0  0  0  0  0  0  0  0  0  0
   -8.2615   23.5180  -30.7166 H   0  0  0  0  0  0  0  0  0  0  0  0
   -7.6515   25.7627  -29.8248 H   0  0  0  0  0  0  0  0  0  0  0  0
   -5.2586   26.3993  -29.5624 H   0  0  0  0  0  0  0  0  0  0  0  0
   -2.4083   22.9225  -31.5924 H   0  0  0  0  0  0  0  0  0  0  0  0
   -1.8854   18.1812  -33.5233 H   0  0  0  0  0  0  0  0  0  0  0  0
   -2.8282   15.9244  -33.9993 H   0  0  0  0  0  0  0  0  0  0  0  0
   -5.2623   15.6599  -34.4773 H   0  0  0  0  0  0  0  0  0  0  0  0
   -6.7487   17.6575  -34.5292 H   0  0  0  0  0  0  0  0  0  0  0  0
   -5.8270   21.0500  -33.7500 H   0  0  0  0  0  0  0  0  0  0  0  0
   -0.6103   19.0341  -31.0252 H   0  0  0  0  0  0  0  0  0  0  0  0
   -0.0715   19.6223  -28.6695 H   0  0  0  0  0  0  0  0  0  0  0  0
   -0.9940   22.7220  -26.9140 H   0  0  0  0  0  0  0  0  0  0  0  0
    0.0470   21.2810  -26.8920 H   0  0  0  0  0  0  0  0  0  0  0  0
   -4.0586   22.5107  -31.0302 H   0  0  0  0  0  0  0  0  0  0  0  0
  1  2  1  0
  2  3  2  0
  2  4  1  0
  4  5  2  0
  5  6  1  0
  6  7  2  0
  7  8  1  0
  8  9  1  0
  9 10  1  0
 10 11  2  0
 10 12  2  0
 10 13  1  0
 13 14  2  0
 14 15  1  0
 15 16  1  0
 16 17  1  0
 17 18  2  0
 17 19  1  0
 19 20  2  0
 20 21  1  0
 21 22  2  0
 22 23  1  0
 23 24  2  0
 24 25  1  0
 15 26  2  0
 26 27  1  0
 27 28  2  0
 28 29  1  0
  8 30  2  0
 30  4  1  0
 28 13  1  0
 24 19  1  0
  1 31  1  0
  1 32  1  0
  1 33  1  0
  5 34  1  0
  6 35  1  0
  7 36  1  0
 14 37  1  0
 20 38  1  0
 21 39  1  0
 22 40  1  0
 23 41  1  0
 25 42  1  0
 26 43  1  0
 27 44  1  0
 29 45  1  0
 29 46  1  0
 30 47  1  0
M  CHG  2   9  -1  16  -1
M  END
>  <UniqueID>  (21) 
21

>  <SMILES>  (21) 
CC(=O)c1cccc([N-]S(=O)(=O)c2cc([N-]C(=O)c3ccccc3O)ccc2N)c1

>  <Energy>  (21) 
62.91766589325964

>  <Genealogy>  (21) 
CC(=O)c1cccc([N-]S(=O)(=O)c2cc([N-]C(=O)c3ccccc3O)ccc2N)c1 (protonated)
CC(=O)c1cccc([N-]S(=O)(=O)c2cc([N-]C(=O)c3ccccc3O)ccc2N)c1 (3D coordinates assigned)
CC(=O)c1cccc([N-]S(=O)(=O)c2cc([N-]C(=O)c3ccccc3O)ccc2N)c1 (optimized conformer: 62.91766589325964 kcal/mol)

>  <smiles>  (21) 
CC(=O)c1cccc(NS(=O)(=O)c2cc(NC(=O)c3ccccc3O)ccc2N)c1

>  <score_type>  (21) 
oracle

>  <origin>  (21) 
adgpu

>  <m_score__min__energy>  (21) 
-10.99

>  <m_primary>  (21) 
energy

$$$$
21:0
     RDKit          3D

 50 53  0  0  0  0  0  0  0  0999 V2000
   -0.2411   23.8856  -28.2450 H   0  0  0  0  0  0  0  0  0  0  0  0
   -1.1040   23.7020  -28.9020 C   0  0  0  0  0  0  0  0  0  0  0  0
   -1.3570   22.4100  -29.3780 C   0  0  0  0  0  0  0  0  0  0  0  0
   -0.6966   21.5795  -29.0879 H   0  0  0  0  0  0  0  0  0  0  0  0
   -2.4530   22.1710  -30.2260 C   0  0  0  0  0  0  0  0  0  0  0  0
   -2.7270   20.7880  -30.7510 C   0  0  0  0  0  0  0  0  0  0  0  0
   -3.8136   20.6173  -30.7640 H   0  0  0  0  0  0  0  0  0  0  0  0
   -2.2293   20.0596  -30.0939 H   0  0  0  0  0  0  0  0  0  0  0  0
   -2.2010   20.6260  -32.1080 N   0  0  0  0  0  0  0  0  0  0  0  0
   -2.7870   19.9920  -33.0850 C   0  0  0  0  0  0  0  0  0  0  0  0
   -4.1320   19.3800  -32.9280 C   0  0  0  0  0  0  0  0  0  0  0  0
   -4.2720   17.9860  -33.0580 C   0  0  0  0  0  0  0  0  0  0  0  0
   -3.2500   17.2790  -33.2890 O   0  0  0  0  0  0  0  0  0  0  0  0
   -5.5050   17.3950  -32.9630 N   0  0  0  0  0  0  0  0  0  0  0  0
   -5.6220   15.9680  -33.1270 C   0  0  0  0  0  0  0  0  0  0  0  0
   -6.4430   15.4380  -34.1330 C   0  0  0  0  0  0  0  0  0  0  0  0
   -7.0348   16.1118  -34.7700 H   0  0  0  0  0  0  0  0  0  0  0  0
   -6.5110   14.0560  -34.3280 C   0  0  0  0  0  0  0  0  0  0  0  0
   -7.1560   13.6460  -35.1191 H   0  0  0  0  0  0  0  0  0  0  0  0
   -5.7590   13.1870  -33.5180 C   0  0  0  0  0  0  0  0  0  0  0  0
   -5.8640   11.7030  -33.7010 C   0  0  0  0  0  0  0  0  0  0  0  0
   -5.8986   11.2137  -32.7164 H   0  0  0  0  0  0  0  0  0  0  0  0
   -6.7811   11.4665  -34.2604 H   0  0  0  0  0  0  0  0  0  0  0  0
   -4.9893   11.3397  -34.2604 H   0  0  0  0  0  0  0  0  0  0  0  0
   -4.9730   13.7160  -32.4860 C   0  0  0  0  0  0  0  0  0  0  0  0
   -4.4128   13.0407  -31.8226 H   0  0  0  0  0  0  0  0  0  0  0  0
   -4.8980   15.1000  -32.2960 C   0  0  0  0  0  0  0  0  0  0  0  0
   -4.2688   15.5093  -31.4918 H   0  0  0  0  0  0  0  0  0  0  0  0
   -6.6320   18.1410  -32.7380 C   0  0  0  0  0  0  0  0  0  0  0  0
   -7.8730   17.5120  -32.6380 O   0  0  0  0  0  0  0  0  0  0  0  0
   -6.5420   19.5380  -32.5900 C   0  0  0  0  0  0  0  0  0  0  0  0
   -7.6910   20.3160  -32.3520 C   0  0  0  0  0  0  0  0  0  0  0  0
   -8.6763   19.8313  -32.2870 H   0  0  0  0  0  0  0  0  0  0  0  0
   -7.5860   21.7000  -32.1980 C   0  0  0  0  0  0  0  0  0  0  0  0
   -8.4888   22.3013  -32.0152 H   0  0  0  0  0  0  0  0  0  0  0  0
   -6.3430   22.3210  -32.2750 C   0  0  0  0  0  0  0  0  0  0  0  0
   -6.2665   23.4113  -32.1509 H   0  0  0  0  0  0  0  0  0  0  0  0
   -5.1940   21.5660  -32.5090 C   0  0  0  0  0  0  0  0  0  0  0  0
   -4.2150   22.0647  -32.5615 H   0  0  0  0  0  0  0  0  0  0  0  0
   -5.2770   20.1670  -32.6790 C   0  0  0  0  0  0  0  0  0  0  0  0
   -2.1330   19.9670  -34.4300 C   0  0  0  0  0  0  0  0  0  0  0  0
   -1.0408   19.9252  -34.3059 H   0  0  0  0  0  0  0  0  0  0  0  0
   -2.4729   19.0812  -34.9866 H   0  0  0  0  0  0  0  0  0  0  0  0
   -2.4043   20.8762  -34.9866 H   0  0  0  0  0  0  0  0  0  0  0  0
   -3.2840   23.2420  -30.5960 C   0  0  0  0  0  0  0  0  0  0  0  0
   -4.1339   23.0669  -31.2720 H   0  0  0  0  0  0  0  0  0  0  0  0
   -3.0360   24.5300  -30.1090 C   0  0  0  0  0  0  0  0  0  0  0  0
   -3.8740   25.5800  -30.4740 O   0  0  0  0  0  0  0  0  0  0  0  0
   -1.9460   24.7600  -29.2600 C   0  0  0  0  0  0  0  0  0  0  0  0
   -1.6980   26.0390  -28.7750 O   0  0  0  0  0  0  0  0  0  0  0  0
  1  2  1  0
  2  3  2  0
  3  4  1  0
  3  5  1  0
  5  6  1  0
  6  7  1  0
  6  8  1  0
  6  9  1  0
  9 10  2  0
 10 11  1  0
 11 12  1  0
 12 13  2  0
 12 14  1  0
 14 15  1  0
 15 16  2  0
 16 17  1  0
 16 18  1  0
 18 19  1  0
 18 20  2  0
 20 21  1  0
 21 22  1  0
 21 23  1  0
 21 24  1  0
 20 25  1  0
 25 26  1  0
 25 27  2  0
 27 28  1  0
 14 29  1  0
 29 30  1  0
 29 31  2  0
 31 32  1  0
 32 33  1  0
 32 34  2  0
 34 35  1  0
 34 36  1  0
 36 37  1  0
 36 38  2  0
 38 39  1  0
 38 40  1  0
 10 41  1  0
 41 42  1  0
 41 43  1  0
 41 44  1  0
  5 45  2  0
 45 46  1  0
 45 47  1  0
 47 48  1  0
 47 49  2  0
 49 50  1  0
 49  2  1  0
 40 11  2  0
 27 15  1  0
 40 31  1  0
M  CHG  3  30  -1  48  -1  50  -1
M  END
>  <UniqueID>  (22) 
22

>  <SMILES>  (22) 
C/C(=N/Cc1ccc([O-])c([O-])c1)c1c(=O)n(-c2ccc(C)cc2)c([O-])c2ccccc12

>  <Energy>  (22) 
72.12533938659296

>  <Genealogy>  (22) 
CC(=NCc1ccc([O-])c([O-])c1)c1c(=O)n(-c2ccc(C)cc2)c([O-])c2ccccc12 (protonated)
C/C(=N/Cc1ccc([O-])c([O-])c1)c1c(=O)n(-c2ccc(C)cc2)c([O-])c2ccccc12 (cis-trans isomerization)
C/C(=N/Cc1ccc([O-])c([O-])c1)c1c(=O)n(-c2ccc(C)cc2)c([O-])c2ccccc12 (3D coordinates assigned)
C/C(=N/Cc1ccc([O-])c([O-])c1)c1c(=O)n(-c2ccc(C)cc2)c([O-])c2ccccc12 (optimized conformer: 72.12533938659296 kcal/mol)

>  <smiles>  (22) 
CC(=NCc1ccc(O)c(O)c1)c1c(=O)n(-c2ccc(C)cc2)c(O)c2ccccc12

>  <score_type>  (22) 
oracle

>  <origin>  (22) 
adgpu

>  <m_score__min__energy>  (22) 
-14.279999999999999

>  <m_primary>  (22) 
energy

$$$$
22:0
     RDKit          3D

 53 56  0  0  0  0  0  0  0  0999 V2000
   -4.4500   12.9460  -33.7180 C   0  0  0  0  0  0  0  0  0  0  0  0
   -5.0920   14.2730  -33.4330 C   0  0  0  0  0  0  0  0  0  0  0  0
   -4.6370   15.0550  -32.3610 C   0  0  0  0  0  0  0  0  0  0  0  0
   -5.2490   16.2770  -32.0720 C   0  0  0  0  0  0  0  0  0  0  0  0
   -6.3410   16.7250  -32.8300 C   0  0  0  0  0  0  0  0  0  0  0  0
   -6.9390   17.9960  -32.5200 N   0  0  0  0  0  0  0  0  0  0  0  0
   -6.8540   19.1590  -33.3660 C   0  0  0  0  0  0  0  0  0  0  0  0
   -6.1620   19.1360  -34.4170 O   0  0  0  0  0  0  0  0  0  0  0  0
   -7.5300   20.3740  -33.0160 N   0  0  0  0  0  0  0  0  0  0  0  0
   -6.9250   21.5260  -32.4130 C   0  0  0  0  0  0  0  0  0  0  0  0
   -5.5290   21.6450  -32.2940 C   0  0  0  0  0  0  0  0  0  0  0  0
   -4.9680   22.7610  -31.6690 C   0  0  0  0  0  0  0  0  0  0  0  0
   -5.7910   23.7650  -31.1470 C   0  0  0  0  0  0  0  0  0  0  0  0
   -5.0770   25.1220  -30.2780 S   0  0  0  0  0  0  0  0  0  0  0  0
   -3.9330   25.6750  -31.0810 O   0  0  0  0  0  0  0  0  0  0  0  0
   -6.0950   26.2090  -30.0690 O   0  0  0  0  0  0  0  0  0  0  0  0
   -4.4890   24.5570  -28.7510 N   0  0  0  0  0  0  0  0  0  0  0  0
   -3.3030   23.7650  -28.6790 C   0  0  0  0  0  0  0  0  0  0  0  0
   -3.3990   22.4210  -28.3040 C   0  0  0  0  0  0  0  0  0  0  0  0
   -2.2430   21.6400  -28.1550 C   0  0  0  0  0  0  0  0  0  0  0  0
   -0.9780   22.2200  -28.3770 C   0  0  0  0  0  0  0  0  0  0  0  0
   -0.8900   23.5610  -28.7820 C   0  0  0  0  0  0  0  0  0  0  0  0
   -2.0440   24.3340  -28.9240 C   0  0  0  0  0  0  0  0  0  0  0  0
   -1.9340   25.6620  -29.3160 O   0  0  0  0  0  0  0  0  0  0  0  0
    0.2770   21.3850  -28.2820 C   0  0  0  0  0  0  0  0  0  0  0  0
    0.0970   20.2080  -27.4230 N   0  0  0  0  0  0  0  0  0  0  0  0
   -1.0730   19.4280  -27.8500 C   0  0  0  0  0  0  0  0  0  0  0  0
   -2.3700   20.2250  -27.6530 C   0  0  0  0  0  0  0  0  0  0  0  0
   -7.1830   23.6320  -31.2330 C   0  0  0  0  0  0  0  0  0  0  0  0
   -7.7460   22.5140  -31.8580 C   0  0  0  0  0  0  0  0  0  0  0  0
   -6.7880   15.9460  -33.9130 C   0  0  0  0  0  0  0  0  0  0  0  0
   -6.1740   14.7230  -34.2040 C   0  0  0  0  0  0  0  0  0  0  0  0
   -4.2075   12.4447  -32.7694 H   0  0  0  0  0  0  0  0  0  0  0  0
   -5.1446   12.3194  -34.2967 H   0  0  0  0  0  0  0  0  0  0  0  0
   -3.5276   13.1017  -34.2967 H   0  0  0  0  0  0  0  0  0  0  0  0
   -3.7952   14.7047  -31.7457 H   0  0  0  0  0  0  0  0  0  0  0  0
   -4.8713   16.8933  -31.2428 H   0  0  0  0  0  0  0  0  0  0  0  0
   -7.5310   18.0490  -31.6630 H   0  0  0  0  0  0  0  0  0  0  0  0
   -4.8759   20.8558  -32.6948 H   0  0  0  0  0  0  0  0  0  0  0  0
   -3.8748   22.8510  -31.5868 H   0  0  0  0  0  0  0  0  0  0  0  0
   -4.3876   21.9732  -28.1247 H   0  0  0  0  0  0  0  0  0  0  0  0
    0.0945   24.0058  -28.9889 H   0  0  0  0  0  0  0  0  0  0  0  0
    0.5551   21.0476  -29.2914 H   0  0  0  0  0  0  0  0  0  0  0  0
    1.0653   22.0100  -27.8371 H   0  0  0  0  0  0  0  0  0  0  0  0
   -0.0430   20.5260  -26.4340 H   0  0  0  0  0  0  0  0  0  0  0  0
   -0.9660   19.1734  -28.9148 H   0  0  0  0  0  0  0  0  0  0  0  0
   -1.1271   18.5156  -27.2380 H   0  0  0  0  0  0  0  0  0  0  0  0
   -3.1815   19.7247  -28.2018 H   0  0  0  0  0  0  0  0  0  0  0  0
   -2.5850   20.2643  -26.5749 H   0  0  0  0  0  0  0  0  0  0  0  0
   -7.8353   24.4090  -30.8078 H   0  0  0  0  0  0  0  0  0  0  0  0
   -8.8398   22.4111  -31.9134 H   0  0  0  0  0  0  0  0  0  0  0  0
   -7.6241   16.3002  -34.5338 H   0  0  0  0  0  0  0  0  0  0  0  0
   -6.5414   14.1115  -35.0413 H   0  0  0  0  0  0  0  0  0  0  0  0
  1  2  1  0
  2  3  2  0
  3  4  1  0
  4  5  2  0
  5  6  1  0
  6  7  1  0
  7  8  2  0
  7  9  1  0
  9 10  1  0
 10 11  2  0
 11 12  1  0
 12 13  2  0
 13 14  1  0
 14 15  2  0
 14 16  2  0
 14 17  1  0
 17 18  1  0
 18 19  2  0
 19 20  1  0
 20 21  2  0
 21 22  1  0
 22 23  2  0
 23 24  1  0
 21 25  1  0
 25 26  1  0
 26 27  1  0
 27 28  1  0
 13 29  1  0
 29 30  2  0
  5 31  1  0
 31 32  2  0
 32  2  1  0
 30 10  1  0
 23 18  1  0
 28 20  1  0
  1 33  1  0
  1 34  1  0
  1 35  1  0
  3 36  1  0
  4 37  1  0
  6 38  1  0
 11 39  1  0
 12 40  1  0
 19 41  1  0
 22 42  1  0
 25 43  1  0
 25 44  1  0
 26 45  1  0
 27 46  1  0
 27 47  1  0
 28 48  1  0
 28 49  1  0
 29 50  1  0
 30 51  1  0
 31 52  1  0
 32 53  1  0
M  CHG  3   9  -1  17  -1  24  -1
M  END
>  <UniqueID>  (23) 
23

>  <SMILES>  (23) 
Cc1ccc(NC(=O)[N-]c2ccc(S(=O)(=O)[N-]c3cc4c(cc3[O-])CNCC4)cc2)cc1

>  <Energy>  (23) 
74.77821641928408

>  <Genealogy>  (23) 
Cc1ccc(NC(=O)[N-]c2ccc(S(=O)(=O)[N-]c3cc4c(cc3[O-])CNCC4)cc2)cc1 (protonated)
Cc1ccc(NC(=O)[N-]c2ccc(S(=O)(=O)[N-]c3cc4c(cc3[O-])CNCC4)cc2)cc1 (3D coordinates assigned)
Cc1ccc(NC(=O)[N-]c2ccc(S(=O)(=O)[N-]c3cc4c(cc3[O-])CNCC4)cc2)cc1 (nonaromatic ring conformer: 74.77821641928408 kcal/mol)

>  <smiles>  (23) 
Cc1ccc(NC(=O)Nc2ccc(S(=O)(=O)Nc3cc4c(cc3O)CNCC4)cc2)cc1

>  <score_type>  (23) 
oracle

>  <origin>  (23) 
adgpu

>  <m_score__min__energy>  (23) 
-15.35

>  <m_primary>  (23) 
energy

$$$$
23:0
     RDKit          3D

 51 54  0  0  0  0  0  0  0  0999 V2000
   -9.0450   18.6000  -31.3840 C   0  0  0  0  0  0  0  0  0  0  0  0
   -7.7110   18.8730  -32.0160 C   0  0  0  0  0  0  0  0  0  0  0  0
   -7.6020   19.7800  -33.0830 C   0  0  0  0  0  0  0  0  0  0  0  0
   -6.3640   19.9940  -33.7020 C   0  0  0  0  0  0  0  0  0  0  0  0
   -5.2310   19.2950  -33.2660 C   0  0  0  0  0  0  0  0  0  0  0  0
   -3.6580   19.5110  -34.1030 S   0  0  0  0  0  0  0  0  0  0  0  0
   -2.9590   20.3360  -32.6790 C   0  0  0  0  0  0  0  0  0  0  0  0
   -1.7930   19.8590  -32.0830 C   0  0  0  0  0  0  0  0  0  0  0  0
   -1.3390   20.4570  -30.9080 C   0  0  0  0  0  0  0  0  0  0  0  0
   -2.0590   21.5010  -30.3160 C   0  0  0  0  0  0  0  0  0  0  0  0
   -1.4530   22.1610  -28.7550 S   0  0  0  0  0  0  0  0  0  0  0  0
   -1.7530   20.6400  -27.8520 C   0  0  0  0  0  0  0  0  0  0  0  0
   -2.9510   20.4650  -27.1520 C   0  0  0  0  0  0  0  0  0  0  0  0
   -3.1920   19.2740  -26.4640 C   0  0  0  0  0  0  0  0  0  0  0  0
   -2.2280   18.2600  -26.4550 C   0  0  0  0  0  0  0  0  0  0  0  0
   -1.0120   18.4400  -27.1290 C   0  0  0  0  0  0  0  0  0  0  0  0
   -0.0140   17.4150  -27.1010 N   0  0  0  0  0  0  0  0  0  0  0  0
   -0.7780   19.6350  -27.8230 C   0  0  0  0  0  0  0  0  0  0  0  0
   -3.2200   21.9780  -30.9720 C   0  0  0  0  0  0  0  0  0  0  0  0
   -4.2740   23.2390  -30.3280 S   0  0  0  0  0  0  0  0  0  0  0  0
   -4.2680   23.2450  -28.8260 O   0  0  0  0  0  0  0  0  0  0  0  0
   -3.7550   24.5650  -30.8090 O   0  0  0  0  0  0  0  0  0  0  0  0
   -5.9260   23.0240  -30.9170 C   0  0  0  0  0  0  0  0  0  0  0  0
   -6.8870   22.3340  -30.1560 C   0  0  0  0  0  0  0  0  0  0  0  0
   -8.1880   22.1740  -30.6440 C   0  0  0  0  0  0  0  0  0  0  0  0
   -8.5350   22.6910  -31.8950 C   0  0  0  0  0  0  0  0  0  0  0  0
   -7.5830   23.3750  -32.6570 C   0  0  0  0  0  0  0  0  0  0  0  0
   -6.2810   23.5410  -32.1690 C   0  0  0  0  0  0  0  0  0  0  0  0
   -3.6240   21.3790  -32.1250 N   0  0  0  0  0  0  0  0  0  0  0  0
   -5.3380   18.3880  -32.2060 C   0  0  0  0  0  0  0  0  0  0  0  0
   -6.5730   18.1690  -31.5900 C   0  0  0  0  0  0  0  0  0  0  0  0
   -8.9431   18.6209  -30.2889 H   0  0  0  0  0  0  0  0  0  0  0  0
   -9.7648   19.3695  -31.7000 H   0  0  0  0  0  0  0  0  0  0  0  0
   -9.4046   17.6096  -31.7000 H   0  0  0  0  0  0  0  0  0  0  0  0
   -8.4916   20.3238  -33.4335 H   0  0  0  0  0  0  0  0  0  0  0  0
   -6.2813   20.7118  -34.5314 H   0  0  0  0  0  0  0  0  0  0  0  0
   -1.2386   19.0224  -32.5332 H   0  0  0  0  0  0  0  0  0  0  0  0
   -0.4067   20.1051  -30.4422 H   0  0  0  0  0  0  0  0  0  0  0  0
   -3.7043   21.2665  -27.1434 H   0  0  0  0  0  0  0  0  0  0  0  0
   -4.1420   19.1327  -25.9278 H   0  0  0  0  0  0  0  0  0  0  0  0
   -2.4245   17.3202  -25.9183 H   0  0  0  0  0  0  0  0  0  0  0  0
    0.8320   17.4750  -27.7150 H   0  0  0  0  0  0  0  0  0  0  0  0
   -0.1210   16.5830  -26.4780 H   0  0  0  0  0  0  0  0  0  0  0  0
    0.1770   19.7844  -28.3480 H   0  0  0  0  0  0  0  0  0  0  0  0
   -6.6146   21.9191  -29.1744 H   0  0  0  0  0  0  0  0  0  0  0  0
   -8.9388   21.6407  -30.0424 H   0  0  0  0  0  0  0  0  0  0  0  0
   -9.5570   22.5599  -32.2802 H   0  0  0  0  0  0  0  0  0  0  0  0
   -7.8571   23.7832  -33.6410 H   0  0  0  0  0  0  0  0  0  0  0  0
   -5.5345   24.0794  -32.7713 H   0  0  0  0  0  0  0  0  0  0  0  0
   -4.4471   17.8456  -31.8565 H   0  0  0  0  0  0  0  0  0  0  0  0
   -6.6541   17.4423  -30.7682 H   0  0  0  0  0  0  0  0  0  0  0  0
  1  2  1  0
  2  3  2  0
  3  4  1  0
  4  5  2  0
  5  6  1  0
  6  7  1  0
  7  8  2  0
  8  9  1  0
  9 10  2  0
 10 11  1  0
 11 12  1  0
 12 13  2  0
 13 14  1  0
 14 15  2  0
 15 16  1  0
 16 17  1  0
 16 18  2  0
 10 19  1  0
 19 20  1  0
 20 21  2  0
 20 22  2  0
 20 23  1  0
 23 24  2  0
 24 25  1  0
 25 26  2  0
 26 27  1  0
 27 28  2  0
 19 29  2  0
  5 30  1  0
 30 31  2  0
 31  2  1  0
 29  7  1  0
 18 12  1  0
 28 23  1  0
  1 32  1  0
  1 33  1  0
  1 34  1  0
  3 35  1  0
  4 36  1  0
  8 37  1  0
  9 38  1  0
 13 39  1  0
 14 40  1  0
 15 41  1  0
 17 42  1  0
 17 43  1  0
 18 44  1  0
 24 45  1  0
 25 46  1  0
 26 47  1  0
 27 48  1  0
 28 49  1  0
 30 50  1  0
 31 51  1  0
M  END
>  <UniqueID>  (24) 
24

>  <SMILES>  (24) 
Cc1ccc(Sc2ccc(Sc3cccc(N)c3)c(S(=O)(=O)c3ccccc3)n2)cc1

>  <Energy>  (24) 
46.20938767463938

>  <Genealogy>  (24) 
Cc1ccc(Sc2ccc(Sc3cccc(N)c3)c(S(=O)(=O)c3ccccc3)n2)cc1 (3D coordinates assigned)
Cc1ccc(Sc2ccc(Sc3cccc(N)c3)c(S(=O)(=O)c3ccccc3)n2)cc1 (optimized conformer: 46.20938767463938 kcal/mol)

>  <smiles>  (24) 
Cc1ccc(Sc2ccc(Sc3cccc(N)c3)c(S(=O)(=O)c3ccccc3)n2)cc1

>  <score_type>  (24) 
oracle

>  <origin>  (24) 
adgpu

>  <m_score__min__energy>  (24) 
-11.19

>  <m_primary>  (24) 
energy

$$$$
24:0
     RDKit          3D

 65 69  0  0  0  0  0  0  0  0999 V2000
    0.6850   28.5390  -24.3940 C   0  0  0  0  0  0  0  0  0  0  0  0
   -0.7030   28.0600  -24.2850 N   0  0  0  0  0  0  0  0  0  0  0  0
   -0.8440   26.9360  -23.3400 C   0  0  0  0  0  0  0  0  0  0  0  0
   -0.1090   25.6740  -23.8120 C   0  0  0  0  0  0  0  0  0  0  0  0
   -0.3000   25.4100  -25.2810 C   0  0  0  0  0  0  0  0  0  0  0  0
    0.1160   24.1800  -25.8110 C   0  0  0  0  0  0  0  0  0  0  0  0
    0.0850   23.9470  -27.1910 C   0  0  0  0  0  0  0  0  0  0  0  0
    0.5910   22.7220  -27.7310 N   0  0  0  0  0  0  0  0  0  0  0  0
   -0.3540   21.2680  -27.7980 S   0  0  0  0  0  0  0  0  0  0  0  0
    0.5650   20.0980  -28.0200 O   0  0  0  0  0  0  0  0  0  0  0  0
   -1.0650   21.0730  -26.4860 O   0  0  0  0  0  0  0  0  0  0  0  0
   -1.5330   21.3340  -29.1040 C   0  0  0  0  0  0  0  0  0  0  0  0
   -2.6700   20.5140  -29.0730 C   0  0  0  0  0  0  0  0  0  0  0  0
   -3.5480   20.4890  -30.1600 C   0  0  0  0  0  0  0  0  0  0  0  0
   -3.2930   21.2770  -31.2920 C   0  0  0  0  0  0  0  0  0  0  0  0
   -4.3840   21.2310  -32.6760 S   0  0  0  0  0  0  0  0  0  0  0  0
   -3.7090   20.5010  -33.8040 O   0  0  0  0  0  0  0  0  0  0  0  0
   -4.6620   22.6440  -33.1090 O   0  0  0  0  0  0  0  0  0  0  0  0
   -5.9140   20.4230  -32.2900 C   0  0  0  0  0  0  0  0  0  0  0  0
   -6.0330   19.0360  -32.4820 C   0  0  0  0  0  0  0  0  0  0  0  0
   -7.2230   18.3740  -32.1620 C   0  0  0  0  0  0  0  0  0  0  0  0
   -8.3070   19.0880  -31.6590 C   0  0  0  0  0  0  0  0  0  0  0  0
   -8.2110   20.4670  -31.4750 C   0  0  0  0  0  0  0  0  0  0  0  0
   -7.0220   21.1450  -31.7870 C   0  0  0  0  0  0  0  0  0  0  0  0
   -6.9620   22.8890  -31.5550 S   0  0  0  0  0  0  0  0  0  0  0  0
   -6.9800   23.7550  -32.9920 O   0  0  0  0  0  0  0  0  0  0  0  0
   -5.6980   23.4110  -30.4580 C   0  0  0  0  0  0  0  0  0  0  0  0
   -4.8660   24.4800  -30.8130 C   0  0  0  0  0  0  0  0  0  0  0  0
   -3.8650   24.9130  -29.9350 C   0  0  0  0  0  0  0  0  0  0  0  0
   -3.6930   24.2750  -28.7020 C   0  0  0  0  0  0  0  0  0  0  0  0
   -4.5200   23.2010  -28.3470 C   0  0  0  0  0  0  0  0  0  0  0  0
   -5.5200   22.7680  -29.2240 C   0  0  0  0  0  0  0  0  0  0  0  0
   -2.1640   22.1090  -31.3170 C   0  0  0  0  0  0  0  0  0  0  0  0
   -1.2910   22.1400  -30.2260 C   0  0  0  0  0  0  0  0  0  0  0  0
   -0.4580   24.9220  -28.0470 C   0  0  0  0  0  0  0  0  0  0  0  0
   -0.5600   24.7060  -29.4210 O   0  0  0  0  0  0  0  0  0  0  0  0
   -0.8940   26.1410  -27.5200 C   0  0  0  0  0  0  0  0  0  0  0  0
   -0.7820   26.4100  -26.1470 C   0  0  0  0  0  0  0  0  0  0  0  0
   -1.2820   27.7280  -25.6020 C   0  0  0  0  0  0  0  0  0  0  0  0
    1.1032   28.6833  -23.3869 H   0  0  0  0  0  0  0  0  0  0  0  0
    1.2874   27.7968  -24.9383 H   0  0  0  0  0  0  0  0  0  0  0  0
    0.7014   29.4948  -24.9383 H   0  0  0  0  0  0  0  0  0  0  0  0
   -0.4324   27.2403  -22.3663 H   0  0  0  0  0  0  0  0  0  0  0  0
   -1.9142   26.6920  -23.2690 H   0  0  0  0  0  0  0  0  0  0  0  0
    0.9658   25.7967  -23.6127 H   0  0  0  0  0  0  0  0  0  0  0  0
   -0.5279   24.8184  -23.2619 H   0  0  0  0  0  0  0  0  0  0  0  0
    0.4709   23.3888  -25.1342 H   0  0  0  0  0  0  0  0  0  0  0  0
   -2.8714   19.8887  -28.1907 H   0  0  0  0  0  0  0  0  0  0  0  0
   -4.4422   19.8491  -30.1277 H   0  0  0  0  0  0  0  0  0  0  0  0
   -5.1837   18.4664  -32.8871 H   0  0  0  0  0  0  0  0  0  0  0  0
   -7.3024   17.2867  -32.3082 H   0  0  0  0  0  0  0  0  0  0  0  0
   -9.2405   18.5638  -31.4064 H   0  0  0  0  0  0  0  0  0  0  0  0
   -9.0726   21.0272  -31.0828 H   0  0  0  0  0  0  0  0  0  0  0  0
   -6.1340   23.5130  -33.4360 H   0  0  0  0  0  0  0  0  0  0  0  0
   -4.9991   24.9805  -31.7835 H   0  0  0  0  0  0  0  0  0  0  0  0
   -3.2141   25.7545  -30.2146 H   0  0  0  0  0  0  0  0  0  0  0  0
   -2.9083   24.6165  -28.0109 H   0  0  0  0  0  0  0  0  0  0  0  0
   -4.3828   22.6982  -27.3783 H   0  0  0  0  0  0  0  0  0  0  0  0
   -6.1670   21.9230  -28.9459 H   0  0  0  0  0  0  0  0  0  0  0  0
   -1.9653   22.7383  -32.1970 H   0  0  0  0  0  0  0  0  0  0  0  0
   -0.4106   22.7992  -30.2474 H   0  0  0  0  0  0  0  0  0  0  0  0
   -0.1200   25.3150  -30.1010 H   0  0  0  0  0  0  0  0  0  0  0  0
   -1.3297   26.8979  -28.1887 H   0  0  0  0  0  0  0  0  0  0  0  0
   -1.0180   28.5249  -26.3128 H   0  0  0  0  0  0  0  0  0  0  0  0
   -2.3708   27.6407  -25.4722 H   0  0  0  0  0  0  0  0  0  0  0  0
  1  2  1  0
  2  3  1  0
  3  4  1  0
  4  5  1  0
  5  6  2  0
  6  7  1  0
  7  8  1  0
  8  9  1  0
  9 10  2  0
  9 11  2  0
  9 12  1  0
 12 13  2  0
 13 14  1  0
 14 15  2  0
 15 16  1  0
 16 17  2  0
 16 18  2  0
 16 19  1  0
 19 20  2  0
 20 21  1  0
 21 22  2  0
 22 23  1  0
 23 24  2  0
 24 25  1  0
 25 26  1  6
 25 27  1  0
 27 28  2  0
 28 29  1  0
 29 30  2  0
 30 31  1  0
 31 32  2  0
 15 33  1  0
 33 34  2  0
  7 35  2  0
 35 36  1  0
 35 37  1  0
 37 38  2  0
 38 39  1  0
 39  2  1  0
 38  5  1  0
 34 12  1  0
 24 19  1  0
 32 27  1  0
  1 40  1  0
  1 41  1  0
  1 42  1  0
  3 43  1  0
  3 44  1  0
  4 45  1  0
  4 46  1  0
  6 47  1  0
 13 48  1  0
 14 49  1  0
 20 50  1  0
 21 51  1  0
 22 52  1  0
 23 53  1  0
 26 54  1  0
 28 55  1  0
 29 56  1  0
 30 57  1  0
 31 58  1  0
 32 59  1  0
 33 60  1  0
 34 61  1  0
 36 62  1  0
 37 63  1  0
 39 64  1  0
 39 65  1  0
M  CHG  2   8  -1  25   1
M  END
>  <UniqueID>  (25) 
25

>  <SMILES>  (25) 
CN1CCc2cc([N-]S(=O)(=O)c3ccc(S(=O)(=O)c4ccccc4[S@+](O)c4ccccc4)cc3)c(O)cc2C1

>  <Energy>  (25) 
85.02494653744058

>  <Genealogy>  (25) 
CN1CCc2cc([N-]S(=O)(=O)c3ccc(S(=O)(=O)c4ccccc4[S+](O)c4ccccc4)cc3)c(O)cc2C1 (protonated)
CN1CCc2cc([N-]S(=O)(=O)c3ccc(S(=O)(=O)c4ccccc4[S@+](O)c4ccccc4)cc3)c(O)cc2C1 (chirality)
CN1CCc2cc([N-]S(=O)(=O)c3ccc(S(=O)(=O)c4ccccc4[S@+](O)c4ccccc4)cc3)c(O)cc2C1 (3D coordinates assigned)
CN1CCc2cc([N-]S(=O)(=O)c3ccc(S(=O)(=O)c4ccccc4[S@+](O)c4ccccc4)cc3)c(O)cc2C1 (nonaromatic ring conformer: 85.02494653744058 kcal/mol)

>  <smiles>  (25) 
CN1CCc2cc(NS(=O)(=O)c3ccc(S(=O)(=O)c4ccccc4[S+]([O-])c4ccccc4)cc3)c(O)cc2C1

>  <score_type>  (25) 
oracle

>  <origin>  (25) 
adgpu

>  <m_score__min__energy>  (25) 
-12.220000000000001

>  <m_primary>  (25) 
energy

$$$$
25:0
     RDKit          3D

 54 57  0  0  0  0  0  0  0  0999 V2000
   -2.2130   20.2700  -29.3290 O   0  0  0  0  0  0  0  0  0  0  0  0
   -2.3270   21.2390  -30.1270 C   0  0  0  0  0  0  0  0  0  0  0  0
   -2.8100   22.4910  -29.6240 N   0  0  0  0  0  0  0  0  0  0  0  0
   -3.9700   23.2150  -30.0750 C   0  0  0  0  0  0  0  0  0  0  0  0
   -5.1360   22.5560  -30.5050 C   0  0  0  0  0  0  0  0  0  0  0  0
   -6.2550   23.2850  -30.9320 C   0  0  0  0  0  0  0  0  0  0  0  0
   -7.7500   22.4460  -31.3480 S   0  0  0  0  0  0  0  0  0  0  0  0
   -8.6910   23.4200  -32.0030 O   0  0  0  0  0  0  0  0  0  0  0  0
   -8.3990   21.9480  -30.0860 O   0  0  0  0  0  0  0  0  0  0  0  0
   -7.4700   21.0860  -32.4150 N   0  0  0  0  0  0  0  0  0  0  0  0
   -8.7150   20.3220  -32.6830 C   0  0  0  0  0  0  0  0  0  0  0  0
   -8.7790   18.9900  -31.9170 C   0  0  0  0  0  0  0  0  0  0  0  0
   -7.5760   18.0920  -32.2620 C   0  0  0  0  0  0  0  0  0  0  0  0
   -6.3070   18.8930  -32.6000 C   0  0  0  0  0  0  0  0  0  0  0  0
   -6.3310   20.2720  -31.9280 C   0  0  0  0  0  0  0  0  0  0  0  0
   -6.1820   24.6830  -30.9940 C   0  0  0  0  0  0  0  0  0  0  0  0
   -5.0130   25.3420  -30.6100 C   0  0  0  0  0  0  0  0  0  0  0  0
   -3.9140   24.6150  -30.1410 C   0  0  0  0  0  0  0  0  0  0  0  0
   -2.7680   25.2890  -29.7270 O   0  0  0  0  0  0  0  0  0  0  0  0
   -1.9990   21.0410  -31.5550 C   0  0  0  0  0  0  0  0  0  0  0  0
   -2.9680   20.5140  -32.4230 C   0  0  0  0  0  0  0  0  0  0  0  0
   -2.6730   20.3210  -33.7730 C   0  0  0  0  0  0  0  0  0  0  0  0
   -1.4200   20.6720  -34.2690 C   0  0  0  0  0  0  0  0  0  0  0  0
   -0.4480   21.2210  -33.4260 C   0  0  0  0  0  0  0  0  0  0  0  0
    0.8060   21.6100  -33.9990 N   0  0  0  0  0  0  0  0  0  0  0  0
    1.0850   21.9610  -35.6730 S   0  0  0  0  0  0  0  0  0  0  0  0
   -0.0740   21.4600  -36.4870 O   0  0  0  0  0  0  0  0  0  0  0  0
    2.3320   21.2510  -36.1210 O   0  0  0  0  0  0  0  0  0  0  0  0
    1.2990   23.6860  -35.9030 C   0  0  0  0  0  0  0  0  0  0  0  0
    0.2820   24.5930  -36.1490 C   0  0  0  0  0  0  0  0  0  0  0  0
    0.7360   25.9120  -36.2080 C   0  0  0  0  0  0  0  0  0  0  0  0
    2.1030   26.0410  -36.0080 C   0  0  0  0  0  0  0  0  0  0  0  0
    2.7500   24.5110  -35.7540 S   0  0  0  0  0  0  0  0  0  0  0  0
   -0.7360   21.3900  -32.0590 C   0  0  0  0  0  0  0  0  0  0  0  0
   -5.1703   21.4565  -30.5063 H   0  0  0  0  0  0  0  0  0  0  0  0
   -9.5758   20.9390  -32.3858 H   0  0  0  0  0  0  0  0  0  0  0  0
   -8.7310   20.0851  -33.7571 H   0  0  0  0  0  0  0  0  0  0  0  0
   -8.7746   19.1966  -30.8366 H   0  0  0  0  0  0  0  0  0  0  0  0
   -9.7009   18.4647  -32.2071 H   0  0  0  0  0  0  0  0  0  0  0  0
   -7.3626   17.4446  -31.3987 H   0  0  0  0  0  0  0  0  0  0  0  0
   -7.8453   17.5090  -33.1550 H   0  0  0  0  0  0  0  0  0  0  0  0
   -5.4260   18.3365  -32.2475 H   0  0  0  0  0  0  0  0  0  0  0  0
   -6.2627   19.0354  -33.6899 H   0  0  0  0  0  0  0  0  0  0  0  0
   -6.4241   20.1393  -30.8400 H   0  0  0  0  0  0  0  0  0  0  0  0
   -5.3966   20.7967  -32.1763 H   0  0  0  0  0  0  0  0  0  0  0  0
   -7.0481   25.2625  -31.3462 H   0  0  0  0  0  0  0  0  0  0  0  0
   -4.9558   26.4385  -30.6766 H   0  0  0  0  0  0  0  0  0  0  0  0
   -3.9643   20.2520  -32.0373 H   0  0  0  0  0  0  0  0  0  0  0  0
   -3.4302   19.8916  -34.4455 H   0  0  0  0  0  0  0  0  0  0  0  0
   -1.1924   20.5161  -35.3338 H   0  0  0  0  0  0  0  0  0  0  0  0
   -0.7711   24.3051  -36.2836 H   0  0  0  0  0  0  0  0  0  0  0  0
    0.0721   26.7688  -36.3955 H   0  0  0  0  0  0  0  0  0  0  0  0
    2.6676   26.9850  -36.0146 H   0  0  0  0  0  0  0  0  0  0  0  0
    0.0308   21.7968  -31.3833 H   0  0  0  0  0  0  0  0  0  0  0  0
  1  2  2  0
  2  3  1  0
  3  4  1  0
  4  5  2  0
  5  6  1  0
  6  7  1  0
  7  8  2  0
  7  9  2  0
  7 10  1  0
 10 11  1  0
 11 12  1  0
 12 13  1  0
 13 14  1  0
 14 15  1  0
  6 16  2  0
 16 17  1  0
 17 18  2  0
 18 19  1  0
  2 20  1  0
 20 21  2  0
 21 22  1  0
 22 23  2  0
 23 24  1  0
 24 25  1  0
 25 26  1  0
 26 27  2  0
 26 28  2  0
 26 29  1  0
 29 30  2  0
 30 31  1  0
 31 32  2  0
 32 33  1  0
 24 34  2  0
 18  4  1  0
 34 20  1  0
 15 10  1  0
 33 29  1  0
  5 35  1  0
 11 36  1  0
 11 37  1  0
 12 38  1  0
 12 39  1  0
 13 40  1  0
 13 41  1  0
 14 42  1  0
 14 43  1  0
 15 44  1  0
 15 45  1  0
 16 46  1  0
 17 47  1  0
 21 48  1  0
 22 49  1  0
 23 50  1  0
 30 51  1  0
 31 52  1  0
 32 53  1  0
 34 54  1  0
M  CHG  3   3  -1  19  -1  25  -1
M  END
>  <UniqueID>  (26) 
26

>  <SMILES>  (26) 
O=C([N-]c1cc(S(=O)(=O)N2CCCCC2)ccc1[O-])c1cccc([N-]S(=O)(=O)c2cccs2)c1

>  <Energy>  (26) 
93.90106264824418

>  <Genealogy>  (26) 
O=C([N-]c1cc(S(=O)(=O)N2CCCCC2)ccc1[O-])c1cccc([N-]S(=O)(=O)c2cccs2)c1 (protonated)
O=C([N-]c1cc(S(=O)(=O)N2CCCCC2)ccc1[O-])c1cccc([N-]S(=O)(=O)c2cccs2)c1 (3D coordinates assigned)
O=C([N-]c1cc(S(=O)(=O)N2CCCCC2)ccc1[O-])c1cccc([N-]S(=O)(=O)c2cccs2)c1 (nonaromatic ring conformer: 93.90106264824418 kcal/mol)

>  <smiles>  (26) 
O=C(Nc1cc(S(=O)(=O)N2CCCCC2)ccc1O)c1cccc(NS(=O)(=O)c2cccs2)c1

>  <score_type>  (26) 
oracle

>  <origin>  (26) 
adgpu

>  <m_score__min__energy>  (26) 
-15.57

>  <m_primary>  (26) 
energy

$$$$
26:0
     RDKit          3D

 46 48  0  0  0  0  0  0  0  0999 V2000
   -0.6280   21.1000  -32.5510 C   0  0  0  0  0  0  0  0  0  0  0  0
   -1.8280   20.3550  -32.9690 N   0  0  0  0  0  0  0  0  0  0  0  0
   -2.5380   19.7620  -31.8190 C   0  0  0  0  0  0  0  0  0  0  0  0
   -3.2460   20.8230  -30.9440 C   0  0  0  0  0  0  0  0  0  0  0  0
   -3.4680   22.0860  -31.6730 N   0  0  0  0  0  0  0  0  0  0  0  0
   -4.6590   23.0640  -30.8510 S   0  0  0  0  0  0  0  0  0  0  0  0
   -4.4850   22.9200  -29.3650 O   0  0  0  0  0  0  0  0  0  0  0  0
   -4.4470   24.5090  -31.2070 O   0  0  0  0  0  0  0  0  0  0  0  0
   -6.3030   22.5950  -31.2960 C   0  0  0  0  0  0  0  0  0  0  0  0
   -7.3100   23.5610  -31.3990 C   0  0  0  0  0  0  0  0  0  0  0  0
   -8.6090   23.1870  -31.7430 C   0  0  0  0  0  0  0  0  0  0  0  0
   -8.9220   21.8450  -31.9890 C   0  0  0  0  0  0  0  0  0  0  0  0
  -10.2390   21.5340  -32.3360 O   0  0  0  0  0  0  0  0  0  0  0  0
   -7.9130   20.8610  -31.8840 C   0  0  0  0  0  0  0  0  0  0  0  0
   -8.2460   19.1510  -32.1890 S   0  0  0  0  0  0  0  0  0  0  0  0
   -8.5190   18.4260  -30.9010 O   0  0  0  0  0  0  0  0  0  0  0  0
   -9.4640   19.0440  -33.0640 O   0  0  0  0  0  0  0  0  0  0  0  0
   -6.8530   18.4020  -32.9660 C   0  0  0  0  0  0  0  0  0  0  0  0
   -6.1580   19.0950  -33.9680 C   0  0  0  0  0  0  0  0  0  0  0  0
   -5.0530   18.5080  -34.5910 C   0  0  0  0  0  0  0  0  0  0  0  0
   -4.6350   17.2280  -34.2130 C   0  0  0  0  0  0  0  0  0  0  0  0
   -5.3210   16.5360  -33.2110 C   0  0  0  0  0  0  0  0  0  0  0  0
   -6.4270   17.1210  -32.5870 C   0  0  0  0  0  0  0  0  0  0  0  0
   -6.6080   21.2500  -31.5420 C   0  0  0  0  0  0  0  0  0  0  0  0
   -3.8800   21.8260  -33.0570 C   0  0  0  0  0  0  0  0  0  0  0  0
   -2.7230   21.1660  -33.8300 C   0  0  0  0  0  0  0  0  0  0  0  0
   -0.5793   21.1302  -31.4525 H   0  0  0  0  0  0  0  0  0  0  0  0
    0.2695   20.6000  -32.9442 H   0  0  0  0  0  0  0  0  0  0  0  0
   -0.6780   22.1261  -32.9442 H   0  0  0  0  0  0  0  0  0  0  0  0
   -3.2928   19.0567  -32.1969 H   0  0  0  0  0  0  0  0  0  0  0  0
   -1.7895   19.2578  -31.1900 H   0  0  0  0  0  0  0  0  0  0  0  0
   -4.2190   20.4243  -30.6210 H   0  0  0  0  0  0  0  0  0  0  0  0
   -2.5970   21.0390  -30.0826 H   0  0  0  0  0  0  0  0  0  0  0  0
   -7.0765   24.6188  -31.2081 H   0  0  0  0  0  0  0  0  0  0  0  0
   -9.3943   23.9533  -31.8217 H   0  0  0  0  0  0  0  0  0  0  0  0
  -10.5210   20.6370  -32.7060 H   0  0  0  0  0  0  0  0  0  0  0  0
   -6.4834   20.1031  -34.2643 H   0  0  0  0  0  0  0  0  0  0  0  0
   -4.5121   19.0529  -35.3787 H   0  0  0  0  0  0  0  0  0  0  0  0
   -3.7662   16.7658  -34.7044 H   0  0  0  0  0  0  0  0  0  0  0  0
   -4.9904   15.5301  -32.9130 H   0  0  0  0  0  0  0  0  0  0  0  0
   -6.9640   16.5752  -31.7972 H   0  0  0  0  0  0  0  0  0  0  0  0
   -5.8162   20.4902  -31.4664 H   0  0  0  0  0  0  0  0  0  0  0  0
   -4.7508   21.1539  -33.0587 H   0  0  0  0  0  0  0  0  0  0  0  0
   -4.1452   22.7770  -33.5420 H   0  0  0  0  0  0  0  0  0  0  0  0
   -3.1494   20.5114  -34.6045 H   0  0  0  0  0  0  0  0  0  0  0  0
   -2.1150   21.9758  -34.2596 H   0  0  0  0  0  0  0  0  0  0  0  0
  1  2  1  0
  2  3  1  0
  3  4  1  0
  4  5  1  0
  5  6  1  0
  6  7  2  0
  6  8  2  0
  6  9  1  0
  9 10  2  0
 10 11  1  0
 11 12  2  0
 12 13  1  0
 12 14  1  0
 14 15  1  0
 15 16  2  0
 15 17  2  0
 15 18  1  0
 18 19  2  0
 19 20  1  0
 20 21  2  0
 21 22  1  0
 22 23  2  0
 14 24  2  0
  5 25  1  0
 25 26  1  0
 26  2  1  0
 24  9  1  0
 23 18  1  0
  1 27  1  0
  1 28  1  0
  1 29  1  0
  3 30  1  0
  3 31  1  0
  4 32  1  0
  4 33  1  0
 10 34  1  0
 11 35  1  0
 13 36  1  0
 19 37  1  0
 20 38  1  0
 21 39  1  0
 22 40  1  0
 23 41  1  0
 24 42  1  0
 25 43  1  0
 25 44  1  0
 26 45  1  0
 26 46  1  0
M  END
>  <UniqueID>  (27) 
27

>  <SMILES>  (27) 
CN1CCN(S(=O)(=O)c2ccc(O)c(S(=O)(=O)c3ccccc3)c2)CC1

>  <Energy>  (27) 
59.17364329156566

>  <Genealogy>  (27) 
CN1CCN(S(=O)(=O)c2ccc(O)c(S(=O)(=O)c3ccccc3)c2)CC1 (3D coordinates assigned)
CN1CCN(S(=O)(=O)c2ccc(O)c(S(=O)(=O)c3ccccc3)c2)CC1 (nonaromatic ring conformer: 59.17364329156566 kcal/mol)

>  <smiles>  (27) 
CN1CCN(S(=O)(=O)c2ccc(O)c(S(=O)(=O)c3ccccc3)c2)CC1

>  <score_type>  (27) 
oracle

>  <origin>  (27) 
adgpu

>  <m_score__min__energy>  (27) 
-10.25

>  <m_primary>  (27) 
energy

$$$$
27:0
     RDKit          3D

 54 57  0  0  0  0  0  0  0  0999 V2000
   -0.6020   21.0830  -30.6970 O   0  0  0  0  0  0  0  0  0  0  0  0
   -1.7630   21.4090  -31.0630 C   0  0  0  0  0  0  0  0  0  0  0  0
   -2.4010   22.5630  -30.4880 N   0  0  0  0  0  0  0  0  0  0  0  0
   -1.7710   23.3890  -29.4970 C   0  0  0  0  0  0  0  0  0  0  0  0
   -0.8060   22.8260  -28.6500 C   0  0  0  0  0  0  0  0  0  0  0  0
   -0.1830   23.6060  -27.6710 C   0  0  0  0  0  0  0  0  0  0  0  0
   -0.5330   24.9500  -27.5220 C   0  0  0  0  0  0  0  0  0  0  0  0
   -1.5150   25.5130  -28.3420 C   0  0  0  0  0  0  0  0  0  0  0  0
   -2.1450   24.7350  -29.3200 C   0  0  0  0  0  0  0  0  0  0  0  0
   -3.1580   25.2980  -30.0880 O   0  0  0  0  0  0  0  0  0  0  0  0
   -2.4710   20.5770  -32.0680 C   0  0  0  0  0  0  0  0  0  0  0  0
   -3.8750   20.5080  -32.0450 C   0  0  0  0  0  0  0  0  0  0  0  0
   -4.5700   19.7150  -32.9670 C   0  0  0  0  0  0  0  0  0  0  0  0
   -6.3360   19.6450  -32.9290 S   0  0  0  0  0  0  0  0  0  0  0  0
   -6.7630   18.2560  -32.5410 O   0  0  0  0  0  0  0  0  0  0  0  0
   -6.8680   19.9260  -34.3060 O   0  0  0  0  0  0  0  0  0  0  0  0
   -7.0340   20.7880  -31.8060 N   0  0  0  0  0  0  0  0  0  0  0  0
   -8.4800   20.6180  -31.6770 C   0  0  0  0  0  0  0  0  0  0  0  0
   -9.0320   21.9660  -31.2380 C   0  0  0  0  0  0  0  0  0  0  0  0
   -7.9570   22.9800  -31.5980 C   0  0  0  0  0  0  0  0  0  0  0  0
   -6.8390   22.1710  -32.2370 C   0  0  0  0  0  0  0  0  0  0  0  0
   -3.8560   18.9590  -33.9040 C   0  0  0  0  0  0  0  0  0  0  0  0
   -2.4630   19.0070  -33.9300 C   0  0  0  0  0  0  0  0  0  0  0  0
   -1.7590   19.8120  -33.0210 C   0  0  0  0  0  0  0  0  0  0  0  0
   -0.3240   19.8730  -33.1010 N   0  0  0  0  0  0  0  0  0  0  0  0
    0.3200   21.0760  -33.6300 C   0  0  0  0  0  0  0  0  0  0  0  0
    1.7200   20.7260  -34.1430 C   0  0  0  0  0  0  0  0  0  0  0  0
    2.4630   20.0500  -33.1460 O   0  0  0  0  0  0  0  0  0  0  0  0
    1.8660   18.7970  -32.8710 C   0  0  0  0  0  0  0  0  0  0  0  0
    0.4730   18.9800  -32.2570 C   0  0  0  0  0  0  0  0  0  0  0  0
   -3.4030   22.7570  -30.7060 H   0  0  0  0  0  0  0  0  0  0  0  0
   -0.5375   21.7646  -28.7563 H   0  0  0  0  0  0  0  0  0  0  0  0
    0.5826   23.1613  -27.0183 H   0  0  0  0  0  0  0  0  0  0  0  0
   -0.0353   25.5660  -26.7585 H   0  0  0  0  0  0  0  0  0  0  0  0
   -1.7933   26.5700  -28.2183 H   0  0  0  0  0  0  0  0  0  0  0  0
   -4.4348   21.0840  -31.2935 H   0  0  0  0  0  0  0  0  0  0  0  0
   -8.9165   20.3242  -32.6430 H   0  0  0  0  0  0  0  0  0  0  0  0
   -8.7262   19.8298  -30.9503 H   0  0  0  0  0  0  0  0  0  0  0  0
   -9.9673   22.1910  -31.7715 H   0  0  0  0  0  0  0  0  0  0  0  0
   -9.2654   21.9818  -30.1632 H   0  0  0  0  0  0  0  0  0  0  0  0
   -8.3500   23.7221  -32.3085 H   0  0  0  0  0  0  0  0  0  0  0  0
   -7.6074   23.5370  -30.7163 H   0  0  0  0  0  0  0  0  0  0  0  0
   -6.8978   22.2400  -33.3333 H   0  0  0  0  0  0  0  0  0  0  0  0
   -5.8506   22.5478  -31.9352 H   0  0  0  0  0  0  0  0  0  0  0  0
   -4.3960   18.3247  -34.6224 H   0  0  0  0  0  0  0  0  0  0  0  0
   -1.9107   18.4086  -34.6695 H   0  0  0  0  0  0  0  0  0  0  0  0
   -0.2824   21.4802  -34.4569 H   0  0  0  0  0  0  0  0  0  0  0  0
    0.4010   21.8282  -32.8314 H   0  0  0  0  0  0  0  0  0  0  0  0
    1.6291   20.0781  -35.0273 H   0  0  0  0  0  0  0  0  0  0  0  0
    2.2441   21.6571  -34.4046 H   0  0  0  0  0  0  0  0  0  0  0  0
    1.7751   18.2276  -33.8077 H   0  0  0  0  0  0  0  0  0  0  0  0
    2.4991   18.2551  -32.1530 H   0  0  0  0  0  0  0  0  0  0  0  0
   -0.0263   18.0025  -32.1849 H   0  0  0  0  0  0  0  0  0  0  0  0
    0.5717   19.4188  -31.2531 H   0  0  0  0  0  0  0  0  0  0  0  0
  1  2  2  0
  2  3  1  0
  3  4  1  0
  4  5  2  0
  5  6  1  0
  6  7  2  0
  7  8  1  0
  8  9  2  0
  9 10  1  0
  2 11  1  0
 11 12  2  0
 12 13  1  0
 13 14  1  0
 14 15  2  0
 14 16  2  0
 14 17  1  0
 17 18  1  0
 18 19  1  0
 19 20  1  0
 20 21  1  0
 13 22  2  0
 22 23  1  0
 23 24  2  0
 24 25  1  0
 25 26  1  0
 26 27  1  0
 27 28  1  0
 28 29  1  0
 29 30  1  0
  9  4  1  0
 24 11  1  0
 30 25  1  0
 21 17  1  0
  3 31  1  0
  5 32  1  0
  6 33  1  0
  7 34  1  0
  8 35  1  0
 12 36  1  0
 18 37  1  0
 18 38  1  0
 19 39  1  0
 19 40  1  0
 20 41  1  0
 20 42  1  0
 21 43  1  0
 21 44  1  0
 22 45  1  0
 23 46  1  0
 26 47  1  0
 26 48  1  0
 27 49  1  0
 27 50  1  0
 29 51  1  0
 29 52  1  0
 30 53  1  0
 30 54  1  0
M  CHG  1  10  -1
M  END
>  <UniqueID>  (28) 
28

>  <SMILES>  (28) 
O=C(Nc1ccccc1[O-])c1cc(S(=O)(=O)N2CCCC2)ccc1N1CCOCC1

>  <Energy>  (28) 
71.62799237616488

>  <Genealogy>  (28) 
O=C(Nc1ccccc1[O-])c1cc(S(=O)(=O)N2CCCC2)ccc1N1CCOCC1 (protonated)
O=C(Nc1ccccc1[O-])c1cc(S(=O)(=O)N2CCCC2)ccc1N1CCOCC1 (3D coordinates assigned)
O=C(Nc1ccccc1[O-])c1cc(S(=O)(=O)N2CCCC2)ccc1N1CCOCC1 (nonaromatic ring conformer: 71.62799237616488 kcal/mol)

>  <smiles>  (28) 
O=C(Nc1ccccc1O)c1cc(S(=O)(=O)N2CCCC2)ccc1N1CCOCC1

>  <score_type>  (28) 
oracle

>  <origin>  (28) 
adgpu

>  <m_score__min__energy>  (28) 
-11.58

>  <m_primary>  (28) 
energy

$$$$
28:0
     RDKit          3D

 57 60  0  0  0  0  0  0  0  0999 V2000
   -1.2190   26.3040  -28.8550 O   0  0  0  0  0  0  0  0  0  0  0  0
   -1.5570   25.3500  -28.1050 C   0  0  0  0  0  0  0  0  0  0  0  0
   -2.1070   24.1310  -28.7310 C   0  0  0  0  0  0  0  0  0  0  0  0
   -3.3650   23.6550  -28.3340 C   0  0  0  0  0  0  0  0  0  0  0  0
   -3.9340   22.5540  -28.9760 C   0  0  0  0  0  0  0  0  0  0  0  0
   -3.2540   21.8940  -30.0170 C   0  0  0  0  0  0  0  0  0  0  0  0
   -3.9340   20.8180  -30.7010 N   0  0  0  0  0  0  0  0  0  0  0  0
   -4.7730   20.9200  -32.2220 S   0  0  0  0  0  0  0  0  0  0  0  0
   -4.0310   20.0760  -33.2220 O   0  0  0  0  0  0  0  0  0  0  0  0
   -4.8510   22.3200  -32.7590 O   0  0  0  0  0  0  0  0  0  0  0  0
   -6.4320   20.3160  -32.0140 C   0  0  0  0  0  0  0  0  0  0  0  0
   -6.6000   18.9260  -31.9170 C   0  0  0  0  0  0  0  0  0  0  0  0
   -7.8750   18.3530  -31.8480 C   0  0  0  0  0  0  0  0  0  0  0  0
   -9.0020   19.1600  -31.9120 C   0  0  0  0  0  0  0  0  0  0  0  0
   -8.8600   20.5450  -32.0010 C   0  0  0  0  0  0  0  0  0  0  0  0
   -7.5890   21.1510  -32.0010 C   0  0  0  0  0  0  0  0  0  0  0  0
   -7.5710   22.9360  -31.9900 S   0  0  0  0  0  0  0  0  0  0  0  0
   -7.2410   23.5080  -33.3300 O   0  0  0  0  0  0  0  0  0  0  0  0
   -8.9550   23.4090  -31.6390 O   0  0  0  0  0  0  0  0  0  0  0  0
   -6.4440   23.6160  -30.8410 N   0  0  0  0  0  0  0  0  0  0  0  0
   -5.5400   24.5890  -31.4320 C   0  0  0  0  0  0  0  0  0  0  0  0
   -5.0010   25.3950  -30.2680 C   0  0  0  0  0  0  0  0  0  0  0  0
   -6.1220   25.3750  -29.2410 C   0  0  0  0  0  0  0  0  0  0  0  0
   -7.1010   24.3140  -29.7360 C   0  0  0  0  0  0  0  0  0  0  0  0
   -1.9510   22.3200  -30.3490 C   0  0  0  0  0  0  0  0  0  0  0  0
   -1.3950   23.4450  -29.7270 C   0  0  0  0  0  0  0  0  0  0  0  0
   -1.3360   25.4380  -26.6770 N   0  0  0  0  0  0  0  0  0  0  0  0
   -1.1750   26.7450  -26.0220 C   0  0  0  0  0  0  0  0  0  0  0  0
   -0.0780   26.6560  -24.9550 C   0  0  0  0  0  0  0  0  0  0  0  0
   -0.3390   25.5900  -24.0570 O   0  0  0  0  0  0  0  0  0  0  0  0
   -0.2690   24.3510  -24.7510 C   0  0  0  0  0  0  0  0  0  0  0  0
   -1.3750   24.2510  -25.8070 C   0  0  0  0  0  0  0  0  0  0  0  0
   -3.9050   24.1509  -27.5140 H   0  0  0  0  0  0  0  0  0  0  0  0
   -4.9268   22.1973  -28.6644 H   0  0  0  0  0  0  0  0  0  0  0  0
   -3.8620   19.8530  -30.2970 H   0  0  0  0  0  0  0  0  0  0  0  0
   -5.7135   18.2751  -31.8948 H   0  0  0  0  0  0  0  0  0  0  0  0
   -7.9837   17.2634  -31.7431 H   0  0  0  0  0  0  0  0  0  0  0  0
  -10.0050   18.7088  -31.8926 H   0  0  0  0  0  0  0  0  0  0  0  0
   -9.7583   21.1758  -32.0726 H   0  0  0  0  0  0  0  0  0  0  0  0
   -4.7201   24.0811  -31.9611 H   0  0  0  0  0  0  0  0  0  0  0  0
   -6.0496   25.2260  -32.1699 H   0  0  0  0  0  0  0  0  0  0  0  0
   -4.0916   24.9293  -29.8604 H   0  0  0  0  0  0  0  0  0  0  0  0
   -4.7199   26.4173  -30.5611 H   0  0  0  0  0  0  0  0  0  0  0  0
   -5.7310   25.1058  -28.2487 H   0  0  0  0  0  0  0  0  0  0  0  0
   -6.6014   26.3596  -29.1372 H   0  0  0  0  0  0  0  0  0  0  0  0
   -7.3342   23.6067  -28.9265 H   0  0  0  0  0  0  0  0  0  0  0  0
   -8.0462   24.7712  -30.0640 H   0  0  0  0  0  0  0  0  0  0  0  0
   -1.3687   21.7660  -31.1000 H   0  0  0  0  0  0  0  0  0  0  0  0
   -0.3938   23.7931  -30.0210 H   0  0  0  0  0  0  0  0  0  0  0  0
   -0.8946   27.4983  -26.7729 H   0  0  0  0  0  0  0  0  0  0  0  0
   -2.1238   27.0335  -25.5461 H   0  0  0  0  0  0  0  0  0  0  0  0
    0.8911   26.4852  -25.4466 H   0  0  0  0  0  0  0  0  0  0  0  0
   -0.0573   27.5989  -24.3889 H   0  0  0  0  0  0  0  0  0  0  0  0
    0.7099   24.2707  -25.2463 H   0  0  0  0  0  0  0  0  0  0  0  0
   -0.4014   23.5346  -24.0258 H   0  0  0  0  0  0  0  0  0  0  0  0
   -1.2207   23.3468  -26.4142 H   0  0  0  0  0  0  0  0  0  0  0  0
   -2.3534   24.1964  -25.3072 H   0  0  0  0  0  0  0  0  0  0  0  0
  1  2  2  0
  2  3  1  0
  3  4  2  0
  4  5  1  0
  5  6  2  0
  6  7  1  0
  7  8  1  0
  8  9  2  0
  8 10  2  0
  8 11  1  0
 11 12  2  0
 12 13  1  0
 13 14  2  0
 14 15  1  0
 15 16  2  0
 16 17  1  0
 17 18  2  0
 17 19  2  0
 17 20  1  0
 20 21  1  0
 21 22  1  0
 22 23  1  0
 23 24  1  0
  6 25  1  0
 25 26  2  0
  2 27  1  0
 27 28  1  0
 28 29  1  0
 29 30  1  0
 30 31  1  0
 31 32  1  0
 26  3  1  0
 32 27  1  0
 16 11  1  0
 24 20  1  0
  4 33  1  0
  5 34  1  0
  7 35  1  0
 12 36  1  0
 13 37  1  0
 14 38  1  0
 15 39  1  0
 21 40  1  0
 21 41  1  0
 22 42  1  0
 22 43  1  0
 23 44  1  0
 23 45  1  0
 24 46  1  0
 24 47  1  0
 25 48  1  0
 26 49  1  0
 28 50  1  0
 28 51  1  0
 29 52  1  0
 29 53  1  0
 31 54  1  0
 31 55  1  0
 32 56  1  0
 32 57  1  0
M  END
>  <UniqueID>  (29) 
29

>  <SMILES>  (29) 
O=C(c1ccc(NS(=O)(=O)c2ccccc2S(=O)(=O)N2CCCC2)cc1)N1CCOCC1

>  <Energy>  (29) 
82.2298919496128

>  <Genealogy>  (29) 
O=C(c1ccc(NS(=O)(=O)c2ccccc2S(=O)(=O)N2CCCC2)cc1)N1CCOCC1 (3D coordinates assigned)
O=C(c1ccc(NS(=O)(=O)c2ccccc2S(=O)(=O)N2CCCC2)cc1)N1CCOCC1 (nonaromatic ring conformer: 82.2298919496128 kcal/mol)

>  <smiles>  (29) 
O=C(c1ccc(NS(=O)(=O)c2ccccc2S(=O)(=O)N2CCCC2)cc1)N1CCOCC1

>  <score_type>  (29) 
oracle

>  <origin>  (29) 
adgpu

>  <m_score__min__energy>  (29) 
-10.050000000000001

>  <m_primary>  (29) 
energy

$$$$
29:0
     RDKit          3D

 57 60  0  0  0  0  0  0  0  0999 V2000
   -6.0830   18.2220  -32.4330 O   0  0  0  0  0  0  0  0  0  0  0  0
   -6.0190   19.6360  -32.9400 S   0  0  0  0  0  0  0  0  0  0  0  0
   -6.3690   19.6370  -34.4030 O   0  0  0  0  0  0  0  0  0  0  0  0
   -4.3790   20.2470  -32.7060 C   0  0  0  0  0  0  0  0  0  0  0  0
   -4.0980   21.1330  -31.6540 C   0  0  0  0  0  0  0  0  0  0  0  0
   -2.7890   21.6130  -31.4500 C   0  0  0  0  0  0  0  0  0  0  0  0
   -2.4420   22.5420  -30.3450 C   0  0  0  0  0  0  0  0  0  0  0  0
   -1.3760   22.3790  -29.5460 C   0  0  0  0  0  0  0  0  0  0  0  0
   -1.0270   23.3100  -28.4430 C   0  0  0  0  0  0  0  0  0  0  0  0
   -0.5220   22.7740  -27.2480 C   0  0  0  0  0  0  0  0  0  0  0  0
   -0.1850   23.6060  -26.1790 C   0  0  0  0  0  0  0  0  0  0  0  0
   -0.3550   24.9980  -26.2740 C   0  0  0  0  0  0  0  0  0  0  0  0
   -0.0050   25.8610  -25.1690 N   0  0  0  0  0  0  0  0  0  0  0  0
   -0.4310   25.5360  -23.8010 C   0  0  0  0  0  0  0  0  0  0  0  0
   -0.5390   26.8150  -22.9640 C   0  0  0  0  0  0  0  0  0  0  0  0
    0.7210   27.5900  -22.9360 N   0  0  0  0  0  0  0  0  0  0  0  0
    1.5800   27.4320  -24.1300 C   0  0  0  0  0  0  0  0  0  0  0  0
    0.7830   27.0800  -25.3930 C   0  0  0  0  0  0  0  0  0  0  0  0
   -0.8790   25.5350  -27.4630 C   0  0  0  0  0  0  0  0  0  0  0  0
   -1.2160   24.7020  -28.5340 C   0  0  0  0  0  0  0  0  0  0  0  0
   -1.7630   21.1660  -32.2970 C   0  0  0  0  0  0  0  0  0  0  0  0
   -2.0380   20.2810  -33.3410 C   0  0  0  0  0  0  0  0  0  0  0  0
   -3.3390   19.8200  -33.5480 C   0  0  0  0  0  0  0  0  0  0  0  0
   -3.5910   18.9310  -34.5880 O   0  0  0  0  0  0  0  0  0  0  0  0
   -7.1460   20.6330  -32.0560 N   0  0  0  0  0  0  0  0  0  0  0  0
   -6.9480   22.0470  -32.4070 C   0  0  0  0  0  0  0  0  0  0  0  0
   -8.0020   22.9300  -31.7060 C   0  0  0  0  0  0  0  0  0  0  0  0
   -8.8920   22.1610  -30.9170 O   0  0  0  0  0  0  0  0  0  0  0  0
   -9.5370   21.1990  -31.7300 C   0  0  0  0  0  0  0  0  0  0  0  0
   -8.5250   20.2220  -32.3620 C   0  0  0  0  0  0  0  0  0  0  0  0
   -4.9074   21.4556  -30.9825 H   0  0  0  0  0  0  0  0  0  0  0  0
   -3.0939   23.4109  -30.1718 H   0  0  0  0  0  0  0  0  0  0  0  0
   -0.7256   21.5086  -29.7175 H   0  0  0  0  0  0  0  0  0  0  0  0
   -0.3903   21.6861  -27.1529 H   0  0  0  0  0  0  0  0  0  0  0  0
    0.2174   23.1681  -25.2536 H   0  0  0  0  0  0  0  0  0  0  0  0
   -1.4118   25.0391  -23.8340 H   0  0  0  0  0  0  0  0  0  0  0  0
    0.3125   24.8677  -23.3421 H   0  0  0  0  0  0  0  0  0  0  0  0
   -1.3315   27.4479  -23.3899 H   0  0  0  0  0  0  0  0  0  0  0  0
   -0.7670   26.5160  -21.9302 H   0  0  0  0  0  0  0  0  0  0  0  0
    1.2730   27.3050  -22.0930 H   0  0  0  0  0  0  0  0  0  0  0  0
    0.4830   28.6030  -22.8220 H   0  0  0  0  0  0  0  0  0  0  0  0
    2.1164   28.3764  -24.3046 H   0  0  0  0  0  0  0  0  0  0  0  0
    2.2722   26.6003  -23.9325 H   0  0  0  0  0  0  0  0  0  0  0  0
    0.1056   27.9110  -25.6392 H   0  0  0  0  0  0  0  0  0  0  0  0
    1.4827   26.9088  -26.2243 H   0  0  0  0  0  0  0  0  0  0  0  0
   -1.0253   26.6216  -27.5515 H   0  0  0  0  0  0  0  0  0  0  0  0
   -1.6319   25.1375  -29.4545 H   0  0  0  0  0  0  0  0  0  0  0  0
   -0.7327   21.5163  -32.1367 H   0  0  0  0  0  0  0  0  0  0  0  0
   -1.2261   19.9457  -34.0031 H   0  0  0  0  0  0  0  0  0  0  0  0
   -5.9429   22.3616  -32.0894 H   0  0  0  0  0  0  0  0  0  0  0  0
   -7.0546   22.1619  -33.4958 H   0  0  0  0  0  0  0  0  0  0  0  0
   -7.4860   23.6536  -31.0578 H   0  0  0  0  0  0  0  0  0  0  0  0
   -8.5891   23.4427  -32.4821 H   0  0  0  0  0  0  0  0  0  0  0  0
  -10.2471   20.6285  -31.1134 H   0  0  0  0  0  0  0  0  0  0  0  0
  -10.0589   21.7275  -32.5414 H   0  0  0  0  0  0  0  0  0  0  0  0
   -8.6985   19.2126  -31.9609 H   0  0  0  0  0  0  0  0  0  0  0  0
   -8.6621   20.2273  -33.4534 H   0  0  0  0  0  0  0  0  0  0  0  0
  1  2  2  0
  2  3  2  0
  2  4  1  0
  4  5  2  0
  5  6  1  0
  6  7  1  0
  7  8  2  3
  8  9  1  0
  9 10  2  0
 10 11  1  0
 11 12  2  0
 12 13  1  0
 13 14  1  0
 14 15  1  0
 15 16  1  0
 16 17  1  0
 17 18  1  0
 12 19  1  0
 19 20  2  0
  6 21  2  0
 21 22  1  0
 22 23  2  0
 23 24  1  0
  2 25  1  0
 25 26  1  0
 26 27  1  0
 27 28  1  0
 28 29  1  0
 29 30  1  0
 23  4  1  0
 30 25  1  0
 20  9  1  0
 18 13  1  0
  5 31  1  0
  7 32  1  0
  8 33  1  0
 10 34  1  0
 11 35  1  0
 14 36  1  0
 14 37  1  0
 15 38  1  0
 15 39  1  0
 16 40  1  0
 16 41  1  0
 17 42  1  0
 17 43  1  0
 18 44  1  0
 18 45  1  0
 19 46  1  0
 20 47  1  0
 21 48  1  0
 22 49  1  0
 26 50  1  0
 26 51  1  0
 27 52  1  0
 27 53  1  0
 29 54  1  0
 29 55  1  0
 30 56  1  0
 30 57  1  0
M  CHG  2  16   1  24  -1
M  END
>  <UniqueID>  (30) 
30

>  <SMILES>  (30) 
O=S(=O)(c1cc(C=Cc2ccc(N3CC[NH2+]CC3)cc2)ccc1[O-])N1CCOCC1

>  <Energy>  (30) 
79.83846459710907

>  <Genealogy>  (30) 
O=S(=O)(c1cc(C=Cc2ccc(N3CC[NH2+]CC3)cc2)ccc1[O-])N1CCOCC1 (protonated)
O=S(=O)(c1cc(C=Cc2ccc(N3CC[NH2+]CC3)cc2)ccc1[O-])N1CCOCC1 (3D coordinates assigned)
O=S(=O)(c1cc(C=Cc2ccc(N3CC[NH2+]CC3)cc2)ccc1[O-])N1CCOCC1 (nonaromatic ring conformer: 79.83846459710907 kcal/mol)

>  <smiles>  (30) 
O=S(=O)(c1cc(C=Cc2ccc(N3CCNCC3)cc2)ccc1O)N1CCOCC1

>  <score_type>  (30) 
oracle

>  <origin>  (30) 
adgpu

>  <m_score__min__energy>  (30) 
-10.67

>  <m_primary>  (30) 
energy

$$$$
30:0
     RDKit          3D

 68 72  0  0  0  0  0  0  0  0999 V2000
   -2.7880   21.6080  -32.2020 O   0  0  0  0  0  0  0  0  0  0  0  0
   -3.8350   21.3840  -31.5340 C   0  0  0  0  0  0  0  0  0  0  0  0
   -3.8720   21.6950  -30.1310 N   0  0  0  0  0  0  0  0  0  0  0  0
   -2.8760   22.4870  -29.4650 C   0  0  0  0  0  0  0  0  0  0  0  0
   -1.8430   21.8900  -28.7200 C   0  0  0  0  0  0  0  0  0  0  0  0
   -0.8810   22.6800  -28.0870 C   0  0  0  0  0  0  0  0  0  0  0  0
   -0.9260   24.0750  -28.1990 C   0  0  0  0  0  0  0  0  0  0  0  0
    0.2890   25.0720  -27.3950 S   0  0  0  0  0  0  0  0  0  0  0  0
    0.0980   26.5070  -27.8010 O   0  0  0  0  0  0  0  0  0  0  0  0
    1.6580   24.6430  -27.8490 O   0  0  0  0  0  0  0  0  0  0  0  0
    0.1880   24.9540  -25.6490 N   0  0  0  0  0  0  0  0  0  0  0  0
   -1.2040   25.0240  -25.1870 C   0  0  0  0  0  0  0  0  0  0  0  0
   -1.4680   26.4240  -24.6470 C   0  0  0  0  0  0  0  0  0  0  0  0
   -0.1290   27.1350  -24.6570 C   0  0  0  0  0  0  0  0  0  0  0  0
    0.8940   26.0670  -25.0050 C   0  0  0  0  0  0  0  0  0  0  0  0
   -1.9440   24.6730  -28.9550 C   0  0  0  0  0  0  0  0  0  0  0  0
   -2.9040   23.8840  -29.5930 C   0  0  0  0  0  0  0  0  0  0  0  0
   -5.0140   20.7830  -32.2010 C   0  0  0  0  0  0  0  0  0  0  0  0
   -4.8660   19.5690  -32.8940 C   0  0  0  0  0  0  0  0  0  0  0  0
   -5.9700   18.9240  -33.4700 C   0  0  0  0  0  0  0  0  0  0  0  0
   -5.7250   17.3610  -34.2760 S   0  0  0  0  0  0  0  0  0  0  0  0
   -7.0360   16.6250  -34.2750 O   0  0  0  0  0  0  0  0  0  0  0  0
   -5.3270   17.6240  -35.7020 O   0  0  0  0  0  0  0  0  0  0  0  0
   -4.5370   16.3080  -33.5360 N   0  0  0  0  0  0  0  0  0  0  0  0
   -4.9780   15.7500  -32.2520 C   0  0  0  0  0  0  0  0  0  0  0  0
   -4.6100   14.2700  -32.2350 C   0  0  0  0  0  0  0  0  0  0  0  0
   -3.8070   14.0310  -33.4980 C   0  0  0  0  0  0  0  0  0  0  0  0
   -4.1400   15.1980  -34.4070 C   0  0  0  0  0  0  0  0  0  0  0  0
   -7.2420   19.4960  -33.3330 C   0  0  0  0  0  0  0  0  0  0  0  0
   -7.4020   20.7080  -32.6620 C   0  0  0  0  0  0  0  0  0  0  0  0
   -6.2990   21.3630  -32.0980 C   0  0  0  0  0  0  0  0  0  0  0  0
   -6.4900   22.6420  -31.4760 N   0  0  0  0  0  0  0  0  0  0  0  0
   -7.2180   22.8140  -30.2300 C   0  0  0  0  0  0  0  0  0  0  0  0
   -6.8800   24.2220  -29.7540 C   0  0  0  0  0  0  0  0  0  0  0  0
   -6.2900   24.9410  -30.9660 C   0  0  0  0  0  0  0  0  0  0  0  0
   -5.7860   23.8430  -31.8930 C   0  0  0  0  0  0  0  0  0  0  0  0
   -4.5910   21.2150  -29.5410 H   0  0  0  0  0  0  0  0  0  0  0  0
   -1.7926   20.7944  -28.6355 H   0  0  0  0  0  0  0  0  0  0  0  0
   -0.0837   22.2039  -27.4973 H   0  0  0  0  0  0  0  0  0  0  0  0
   -1.8838   24.8165  -26.0265 H   0  0  0  0  0  0  0  0  0  0  0  0
   -1.3752   24.2783  -24.3967 H   0  0  0  0  0  0  0  0  0  0  0  0
   -2.1864   26.9528  -25.2907 H   0  0  0  0  0  0  0  0  0  0  0  0
   -1.8992   26.3911  -23.6356 H   0  0  0  0  0  0  0  0  0  0  0  0
   -0.1234   27.9339  -25.4131 H   0  0  0  0  0  0  0  0  0  0  0  0
    0.0889   27.6093  -23.6887 H   0  0  0  0  0  0  0  0  0  0  0  0
    1.6455   26.4805  -25.6937 H   0  0  0  0  0  0  0  0  0  0  0  0
    1.4065   25.7189  -24.0961 H   0  0  0  0  0  0  0  0  0  0  0  0
   -1.9869   25.7684  -29.0462 H   0  0  0  0  0  0  0  0  0  0  0  0
   -3.6874   24.3612  -30.2000 H   0  0  0  0  0  0  0  0  0  0  0  0
   -3.8673   19.1173  -32.9861 H   0  0  0  0  0  0  0  0  0  0  0  0
   -4.4732   16.2705  -31.4248 H   0  0  0  0  0  0  0  0  0  0  0  0
   -6.0639   15.8770  -32.1309 H   0  0  0  0  0  0  0  0  0  0  0  0
   -4.0055   14.0355  -31.3464 H   0  0  0  0  0  0  0  0  0  0  0  0
   -5.5041   13.6304  -32.1959 H   0  0  0  0  0  0  0  0  0  0  0  0
   -2.7304   14.0122  -33.2730 H   0  0  0  0  0  0  0  0  0  0  0  0
   -4.0504   13.0645  -33.9635 H   0  0  0  0  0  0  0  0  0  0  0  0
   -3.2585   15.4791  -35.0020 H   0  0  0  0  0  0  0  0  0  0  0  0
   -4.9460   14.9367  -35.1085 H   0  0  0  0  0  0  0  0  0  0  0  0
   -8.1194   18.9860  -33.7573 H   0  0  0  0  0  0  0  0  0  0  0  0
   -8.4037   21.1541  -32.5746 H   0  0  0  0  0  0  0  0  0  0  0  0
   -8.3003   22.7147  -30.3999 H   0  0  0  0  0  0  0  0  0  0  0  0
   -6.9401   22.0531  -29.4858 H   0  0  0  0  0  0  0  0  0  0  0  0
   -7.7879   24.7374  -29.4074 H   0  0  0  0  0  0  0  0  0  0  0  0
   -6.1745   24.2055  -28.9102 H   0  0  0  0  0  0  0  0  0  0  0  0
   -7.0621   25.5423  -31.4683 H   0  0  0  0  0  0  0  0  0  0  0  0
   -5.4823   25.6291  -30.6758 H   0  0  0  0  0  0  0  0  0  0  0  0
   -6.0206   24.0841  -32.9403 H   0  0  0  0  0  0  0  0  0  0  0  0
   -4.6943   23.7223  -31.8331 H   0  0  0  0  0  0  0  0  0  0  0  0
  1  2  2  0
  2  3  1  0
  3  4  1  0
  4  5  2  0
  5  6  1  0
  6  7  2  0
  7  8  1  0
  8  9  2  0
  8 10  2  0
  8 11  1  0
 11 12  1  0
 12 13  1  0
 13 14  1  0
 14 15  1  0
  7 16  1  0
 16 17  2  0
  2 18  1  0
 18 19  2  0
 19 20  1  0
 20 21  1  0
 21 22  2  0
 21 23  2  0
 21 24  1  0
 24 25  1  0
 25 26  1  0
 26 27  1  0
 27 28  1  0
 20 29  2  0
 29 30  1  0
 30 31  2  0
 31 32  1  0
 32 33  1  0
 33 34  1  0
 34 35  1  0
 35 36  1  0
 17  4  1  0
 31 18  1  0
 36 32  1  0
 15 11  1  0
 28 24  1  0
  3 37  1  0
  5 38  1  0
  6 39  1  0
 12 40  1  0
 12 41  1  0
 13 42  1  0
 13 43  1  0
 14 44  1  0
 14 45  1  0
 15 46  1  0
 15 47  1  0
 16 48  1  0
 17 49  1  0
 19 50  1  0
 25 51  1  0
 25 52  1  0
 26 53  1  0
 26 54  1  0
 27 55  1  0
 27 56  1  0
 28 57  1  0
 28 58  1  0
 29 59  1  0
 30 60  1  0
 33 61  1  0
 33 62  1  0
 34 63  1  0
 34 64  1  0
 35 65  1  0
 35 66  1  0
 36 67  1  0
 36 68  1  0
M  END
>  <UniqueID>  (31) 
31

>  <SMILES>  (31) 
O=C(Nc1ccc(S(=O)(=O)N2CCCC2)cc1)c1cc(S(=O)(=O)N2CCCC2)ccc1N1CCCC1

>  <Energy>  (31) 
87.07093582708555

>  <Genealogy>  (31) 
O=C(Nc1ccc(S(=O)(=O)N2CCCC2)cc1)c1cc(S(=O)(=O)N2CCCC2)ccc1N1CCCC1 (3D coordinates assigned)
O=C(Nc1ccc(S(=O)(=O)N2CCCC2)cc1)c1cc(S(=O)(=O)N2CCCC2)ccc1N1CCCC1 (nonaromatic ring conformer: 87.07093582708555 kcal/mol)

>  <smiles>  (31) 
O=C(Nc1ccc(S(=O)(=O)N2CCCC2)cc1)c1cc(S(=O)(=O)N2CCCC2)ccc1N1CCCC1

>  <score_type>  (31) 
oracle

>  <origin>  (31) 
adgpu

>  <m_score__min__energy>  (31) 
-10.32

>  <m_primary>  (31) 
energy

$$$$
31:0
     RDKit          3D

 57 60  0  0  0  0  0  0  0  0999 V2000
   -3.1030   25.3410  -26.2910 C   0  0  0  0  0  0  0  0  0  0  0  0
   -1.7200   24.8970  -26.5300 N   0  0  0  0  0  0  0  0  0  0  0  0
   -1.1340   25.5660  -27.7160 C   0  0  0  0  0  0  0  0  0  0  0  0
   -1.4950   24.8540  -29.0280 C   0  0  0  0  0  0  0  0  0  0  0  0
   -1.2120   23.4190  -28.9360 N   0  0  0  0  0  0  0  0  0  0  0  0
   -1.6250   22.5520  -30.0020 C   0  0  0  0  0  0  0  0  0  0  0  0
   -0.7110   21.6150  -30.5050 C   0  0  0  0  0  0  0  0  0  0  0  0
   -1.0850   20.7320  -31.5180 C   0  0  0  0  0  0  0  0  0  0  0  0
   -2.3810   20.7730  -32.0410 C   0  0  0  0  0  0  0  0  0  0  0  0
   -2.8690   19.6230  -33.2820 S   0  0  0  0  0  0  0  0  0  0  0  0
   -2.2240   19.9890  -34.5920 O   0  0  0  0  0  0  0  0  0  0  0  0
   -2.4070   18.2460  -32.8900 O   0  0  0  0  0  0  0  0  0  0  0  0
   -4.6080   19.6360  -33.4260 N   0  0  0  0  0  0  0  0  0  0  0  0
   -5.0780   18.5440  -34.2780 C   0  0  0  0  0  0  0  0  0  0  0  0
   -6.4970   18.2320  -33.8340 C   0  0  0  0  0  0  0  0  0  0  0  0
   -6.5990   18.7750  -32.4170 C   0  0  0  0  0  0  0  0  0  0  0  0
   -5.2540   19.4260  -32.1320 C   0  0  0  0  0  0  0  0  0  0  0  0
   -3.3010   21.7050  -31.5430 C   0  0  0  0  0  0  0  0  0  0  0  0
   -2.9320   22.6090  -30.5350 C   0  0  0  0  0  0  0  0  0  0  0  0
   -4.1270   23.7830  -29.9670 S   0  0  0  0  0  0  0  0  0  0  0  0
   -4.1570   23.7710  -28.4630 O   0  0  0  0  0  0  0  0  0  0  0  0
   -3.7840   25.1690  -30.4370 O   0  0  0  0  0  0  0  0  0  0  0  0
   -5.7200   23.3770  -30.6050 C   0  0  0  0  0  0  0  0  0  0  0  0
   -6.1040   23.8520  -31.8670 C   0  0  0  0  0  0  0  0  0  0  0  0
   -7.3540   23.5140  -32.3940 C   0  0  0  0  0  0  0  0  0  0  0  0
   -8.2240   22.6970  -31.6650 C   0  0  0  0  0  0  0  0  0  0  0  0
   -7.8430   22.2150  -30.4080 C   0  0  0  0  0  0  0  0  0  0  0  0
   -6.5930   22.5530  -29.8790 C   0  0  0  0  0  0  0  0  0  0  0  0
   -0.7560   22.8530  -27.6650 C   0  0  0  0  0  0  0  0  0  0  0  0
   -1.6230   23.4110  -26.5290 C   0  0  0  0  0  0  0  0  0  0  0  0
   -3.2872   25.4001  -25.2081 H   0  0  0  0  0  0  0  0  0  0  0  0
   -3.2531   26.3325  -26.7431 H   0  0  0  0  0  0  0  0  0  0  0  0
   -3.8022   24.6222  -26.7431 H   0  0  0  0  0  0  0  0  0  0  0  0
   -1.5090   26.5992  -27.7600 H   0  0  0  0  0  0  0  0  0  0  0  0
   -0.0395   25.5386  -27.6098 H   0  0  0  0  0  0  0  0  0  0  0  0
   -2.5660   24.9980  -29.2336 H   0  0  0  0  0  0  0  0  0  0  0  0
   -0.8885   25.2818  -29.8399 H   0  0  0  0  0  0  0  0  0  0  0  0
    0.3099   21.5760  -30.0972 H   0  0  0  0  0  0  0  0  0  0  0  0
   -0.3591   20.0022  -31.9060 H   0  0  0  0  0  0  0  0  0  0  0  0
   -5.0694   18.8544  -35.3333 H   0  0  0  0  0  0  0  0  0  0  0  0
   -4.4290   17.6605  -34.1873 H   0  0  0  0  0  0  0  0  0  0  0  0
   -7.2252   18.7296  -34.4913 H   0  0  0  0  0  0  0  0  0  0  0  0
   -6.7146   17.1546  -33.8785 H   0  0  0  0  0  0  0  0  0  0  0  0
   -7.4077   19.5174  -32.3473 H   0  0  0  0  0  0  0  0  0  0  0  0
   -6.8291   17.9806  -31.6917 H   0  0  0  0  0  0  0  0  0  0  0  0
   -5.3994   20.3886  -31.6199 H   0  0  0  0  0  0  0  0  0  0  0  0
   -4.6368   18.7910  -31.4794 H   0  0  0  0  0  0  0  0  0  0  0  0
   -4.3240   21.7284  -31.9466 H   0  0  0  0  0  0  0  0  0  0  0  0
   -5.4202   24.4921  -32.4438 H   0  0  0  0  0  0  0  0  0  0  0  0
   -7.6535   23.8910  -33.3830 H   0  0  0  0  0  0  0  0  0  0  0  0
   -9.2080   22.4333  -32.0799 H   0  0  0  0  0  0  0  0  0  0  0  0
   -8.5264   21.5703  -29.8358 H   0  0  0  0  0  0  0  0  0  0  0  0
   -6.2938   22.1718  -28.8915 H   0  0  0  0  0  0  0  0  0  0  0  0
   -0.8484   21.7573  -27.6951 H   0  0  0  0  0  0  0  0  0  0  0  0
    0.2969   23.1224  -27.4951 H   0  0  0  0  0  0  0  0  0  0  0  0
   -2.6368   22.9960  -26.6288 H   0  0  0  0  0  0  0  0  0  0  0  0
   -1.1436   23.1189  -25.5830 H   0  0  0  0  0  0  0  0  0  0  0  0
  1  2  1  0
  2  3  1  0
  3  4  1  0
  4  5  1  0
  5  6  1  0
  6  7  2  0
  7  8  1  0
  8  9  2  0
  9 10  1  0
 10 11  2  0
 10 12  2  0
 10 13  1  0
 13 14  1  0
 14 15  1  0
 15 16  1  0
 16 17  1  0
  9 18  1  0
 18 19  2  0
 19 20  1  0
 20 21  2  0
 20 22  2  0
 20 23  1  0
 23 24  2  0
 24 25  1  0
 25 26  2  0
 26 27  1  0
 27 28  2  0
  5 29  1  0
 29 30  1  0
 30  2  1  0
 19  6  1  0
 28 23  1  0
 17 13  1  0
  1 31  1  0
  1 32  1  0
  1 33  1  0
  3 34  1  0
  3 35  1  0
  4 36  1  0
  4 37  1  0
  7 38  1  0
  8 39  1  0
 14 40  1  0
 14 41  1  0
 15 42  1  0
 15 43  1  0
 16 44  1  0
 16 45  1  0
 17 46  1  0
 17 47  1  0
 18 48  1  0
 24 49  1  0
 25 50  1  0
 26 51  1  0
 27 52  1  0
 28 53  1  0
 29 54  1  0
 29 55  1  0
 30 56  1  0
 30 57  1  0
M  END
>  <UniqueID>  (32) 
32

>  <SMILES>  (32) 
CN1CCN(c2ccc(S(=O)(=O)N3CCCC3)cc2S(=O)(=O)c2ccccc2)CC1

>  <Energy>  (32) 
74.4004842066446

>  <Genealogy>  (32) 
CN1CCN(c2ccc(S(=O)(=O)N3CCCC3)cc2S(=O)(=O)c2ccccc2)CC1 (3D coordinates assigned)
CN1CCN(c2ccc(S(=O)(=O)N3CCCC3)cc2S(=O)(=O)c2ccccc2)CC1 (nonaromatic ring conformer: 74.4004842066446 kcal/mol)

>  <smiles>  (32) 
CN1CCN(c2ccc(S(=O)(=O)N3CCCC3)cc2S(=O)(=O)c2ccccc2)CC1

>  <score_type>  (32) 
oracle

>  <origin>  (32) 
adgpu

>  <m_score__min__energy>  (32) 
-9.7200000000000006

>  <m_primary>  (32) 
energy

$$$$
32:0
     RDKit          3D

 78 81  0  0  0  0  0  0  0  0999 V2000
    0.6250   17.3400  -27.7630 C   0  0  0  0  0  0  0  0  0  0  0  0
   -0.2630   18.4870  -28.2650 C   0  0  0  0  0  0  0  0  0  0  0  0
   -1.2280   18.9680  -27.1730 C   0  0  0  0  0  0  0  0  0  0  0  0
    0.5560   19.5960  -28.8060 N   0  0  0  0  0  0  0  0  0  0  0  0
    0.9890   19.5860  -30.2080 C   0  0  0  0  0  0  0  0  0  0  0  0
   -0.0430   20.2460  -31.1470 C   0  0  0  0  0  0  0  0  0  0  0  0
   -1.4430   19.7270  -30.7740 C   0  0  0  0  0  0  0  0  0  0  0  0
    0.2210   19.9160  -32.6310 C   0  0  0  0  0  0  0  0  0  0  0  0
   -0.0590   21.6570  -30.9440 O   0  0  0  0  0  0  0  0  0  0  0  0
   -0.5610   22.3390  -29.8300 C   0  0  0  0  0  0  0  0  0  0  0  0
   -1.4790   23.3610  -30.0990 C   0  0  0  0  0  0  0  0  0  0  0  0
   -2.0560   24.1110  -29.0680 C   0  0  0  0  0  0  0  0  0  0  0  0
   -3.0440   25.1140  -29.3440 N   0  0  0  0  0  0  0  0  0  0  0  0
   -4.2440   24.8970  -30.0930 C   0  0  0  0  0  0  0  0  0  0  0  0
   -4.5250   25.6610  -31.0560 O   0  0  0  0  0  0  0  0  0  0  0  0
   -5.1730   23.7820  -29.6700 C   0  0  0  0  0  0  0  0  0  0  0  0
   -5.5040   22.7910  -30.7190 N   0  0  0  0  0  0  0  0  0  0  0  0
   -4.5370   21.6820  -30.8210 C   0  0  0  0  0  0  0  0  0  0  0  0
   -4.7660   20.8940  -32.1270 C   0  0  0  0  0  0  0  0  0  0  0  0
   -6.1360   21.0760  -32.6620 N   0  0  0  0  0  0  0  0  0  0  0  0
   -6.4540   20.0150  -33.6310 C   0  0  0  0  0  0  0  0  0  0  0  0
   -7.1290   21.0960  -31.5740 C   0  0  0  0  0  0  0  0  0  0  0  0
   -6.9160   22.3440  -30.6990 C   0  0  0  0  0  0  0  0  0  0  0  0
   -1.7090   23.8390  -27.7410 C   0  0  0  0  0  0  0  0  0  0  0  0
   -2.2920   24.5980  -26.7150 O   0  0  0  0  0  0  0  0  0  0  0  0
   -1.6010   25.4850  -25.8750 C   0  0  0  0  0  0  0  0  0  0  0  0
   -0.9630   25.0520  -24.7010 C   0  0  0  0  0  0  0  0  0  0  0  0
   -0.2630   25.9580  -23.9090 C   0  0  0  0  0  0  0  0  0  0  0  0
   -0.1820   27.3010  -24.2790 C   0  0  0  0  0  0  0  0  0  0  0  0
   -0.8020   27.7660  -25.4610 C   0  0  0  0  0  0  0  0  0  0  0  0
   -0.7100   29.1640  -25.8540 N   0  0  0  0  0  0  0  0  0  0  0  0
   -1.1830   30.2280  -24.9570 C   0  0  0  0  0  0  0  0  0  0  0  0
   -0.1480   29.5400  -27.1580 C   0  0  0  0  0  0  0  0  0  0  0  0
   -1.5080   26.8310  -26.2510 C   0  0  0  0  0  0  0  0  0  0  0  0
   -0.8230   22.7880  -27.4580 C   0  0  0  0  0  0  0  0  0  0  0  0
   -0.2430   22.0180  -28.4860 C   0  0  0  0  0  0  0  0  0  0  0  0
    0.5720   20.8400  -28.0840 C   0  0  0  0  0  0  0  0  0  0  0  0
    1.3620   20.9620  -27.1070 O   0  0  0  0  0  0  0  0  0  0  0  0
    0.6295   17.3342  -26.6630 H   0  0  0  0  0  0  0  0  0  0  0  0
    0.2308   16.3821  -28.1331 H   0  0  0  0  0  0  0  0  0  0  0  0
    1.6511   17.4817  -28.1331 H   0  0  0  0  0  0  0  0  0  0  0  0
   -0.8792   18.1009  -29.0903 H   0  0  0  0  0  0  0  0  0  0  0  0
   -0.7981   18.7537  -26.1834 H   0  0  0  0  0  0  0  0  0  0  0  0
   -1.3881   20.0514  -27.2764 H   0  0  0  0  0  0  0  0  0  0  0  0
   -2.1895   18.4437  -27.2764 H   0  0  0  0  0  0  0  0  0  0  0  0
    1.9400   20.1330  -30.2880 H   0  0  0  0  0  0  0  0  0  0  0  0
    1.1007   18.5363  -30.5171 H   0  0  0  0  0  0  0  0  0  0  0  0
   -1.5409   19.6907  -29.6790 H   0  0  0  0  0  0  0  0  0  0  0  0
   -2.2066   20.4018  -31.1882 H   0  0  0  0  0  0  0  0  0  0  0  0
   -1.5822   18.7175  -31.1882 H   0  0  0  0  0  0  0  0  0  0  0  0
    0.9068   19.0587  -32.6996 H   0  0  0  0  0  0  0  0  0  0  0  0
   -0.7291   19.6659  -33.1257 H   0  0  0  0  0  0  0  0  0  0  0  0
    0.6735   20.7881  -33.1257 H   0  0  0  0  0  0  0  0  0  0  0  0
   -1.7524   23.5790  -31.1420 H   0  0  0  0  0  0  0  0  0  0  0  0
   -4.6989   23.2452  -28.8351 H   0  0  0  0  0  0  0  0  0  0  0  0
   -6.1237   24.2675  -29.4047 H   0  0  0  0  0  0  0  0  0  0  0  0
   -3.5152   22.0893  -30.8168 H   0  0  0  0  0  0  0  0  0  0  0  0
   -4.6751   21.0055  -29.9647 H   0  0  0  0  0  0  0  0  0  0  0  0
   -4.0433   21.2406  -32.8804 H   0  0  0  0  0  0  0  0  0  0  0  0
   -4.6320   19.8255  -31.9027 H   0  0  0  0  0  0  0  0  0  0  0  0
   -6.7293   19.0965  -33.0919 H   0  0  0  0  0  0  0  0  0  0  0  0
   -7.2955   20.3356  -34.2627 H   0  0  0  0  0  0  0  0  0  0  0  0
   -5.5749   19.8198  -34.2627 H   0  0  0  0  0  0  0  0  0  0  0  0
   -8.1414   21.1193  -32.0036 H   0  0  0  0  0  0  0  0  0  0  0  0
   -7.0101   20.1937  -30.9561 H   0  0  0  0  0  0  0  0  0  0  0  0
   -7.5531   23.1574  -31.0766 H   0  0  0  0  0  0  0  0  0  0  0  0
   -7.1800   22.0861  -29.6628 H   0  0  0  0  0  0  0  0  0  0  0  0
   -1.0166   23.9935  -24.4064 H   0  0  0  0  0  0  0  0  0  0  0  0
    0.2286   25.6135  -22.9872 H   0  0  0  0  0  0  0  0  0  0  0  0
    0.3716   28.0070  -23.6425 H   0  0  0  0  0  0  0  0  0  0  0  0
   -1.0439   29.9151  -23.9117 H   0  0  0  0  0  0  0  0  0  0  0  0
   -0.6088   31.1474  -25.1440 H   0  0  0  0  0  0  0  0  0  0  0  0
   -2.2502   30.4178  -25.1440 H   0  0  0  0  0  0  0  0  0  0  0  0
    0.7575   30.1458  -27.0061 H   0  0  0  0  0  0  0  0  0  0  0  0
    0.1091   28.6314  -27.7222 H   0  0  0  0  0  0  0  0  0  0  0  0
   -0.8897   30.1244  -27.7222 H   0  0  0  0  0  0  0  0  0  0  0  0
   -1.9939   27.1667  -27.1790 H   0  0  0  0  0  0  0  0  0  0  0  0
   -0.5758   22.5602  -26.4106 H   0  0  0  0  0  0  0  0  0  0  0  0
  1  2  1  0
  2  3  1  0
  2  4  1  0
  4  5  1  0
  5  6  1  0
  6  7  1  0
  6  8  1  0
  6  9  1  0
  9 10  1  0
 10 11  2  0
 11 12  1  0
 12 13  1  0
 13 14  1  0
 14 15  2  0
 14 16  1  0
 16 17  1  0
 17 18  1  0
 18 19  1  0
 19 20  1  0
 20 21  1  0
 20 22  1  0
 22 23  1  0
 12 24  2  0
 24 25  1  0
 25 26  1  0
 26 27  2  0
 27 28  1  0
 28 29  2  0
 29 30  1  0
 30 31  1  0
 31 32  1  0
 31 33  1  0
 30 34  2  0
 24 35  1  0
 35 36  2  0
 36 37  1  0
 37 38  2  0
 37  4  1  0
 36 10  1  0
 23 17  1  0
 34 26  1  0
  1 39  1  0
  1 40  1  0
  1 41  1  0
  2 42  1  0
  3 43  1  0
  3 44  1  0
  3 45  1  0
  5 46  1  0
  5 47  1  0
  7 48  1  0
  7 49  1  0
  7 50  1  0
  8 51  1  0
  8 52  1  0
  8 53  1  0
 11 54  1  0
 16 55  1  0
 16 56  1  0
 18 57  1  0
 18 58  1  0
 19 59  1  0
 19 60  1  0
 21 61  1  0
 21 62  1  0
 21 63  1  0
 22 64  1  0
 22 65  1  0
 23 66  1  0
 23 67  1  0
 27 68  1  0
 28 69  1  0
 29 70  1  0
 32 71  1  0
 32 72  1  0
 32 73  1  0
 33 74  1  0
 33 75  1  0
 33 76  1  0
 34 77  1  0
 35 78  1  0
M  CHG  1  13  -1
M  END
>  <UniqueID>  (33) 
33

>  <SMILES>  (33) 
CC(C)N1CC(C)(C)Oc2cc([N-]C(=O)CN3CCN(C)CC3)c(Oc3cccc(N(C)C)c3)cc2C1=O

>  <Energy>  (33) 
113.30667365081943

>  <Genealogy>  (33) 
CC(C)N1CC(C)(C)Oc2cc([N-]C(=O)CN3CCN(C)CC3)c(Oc3cccc(N(C)C)c3)cc2C1=O (protonated)
CC(C)N1CC(C)(C)Oc2cc([N-]C(=O)CN3CCN(C)CC3)c(Oc3cccc(N(C)C)c3)cc2C1=O (3D coordinates assigned)
CC(C)N1CC(C)(C)Oc2cc([N-]C(=O)CN3CCN(C)CC3)c(Oc3cccc(N(C)C)c3)cc2C1=O (nonaromatic ring conformer: 113.30667365081943 kcal/mol)

>  <smiles>  (33) 
CC(C)N1CC(C)(C)Oc2cc(NC(=O)CN3CCN(C)CC3)c(Oc3cccc(N(C)C)c3)cc2C1=O

>  <score_type>  (33) 
oracle

>  <origin>  (33) 
adgpu

>  <m_score__min__energy>  (33) 
-8.0700000000000003

>  <m_primary>  (33) 
energy

$$$$
33:0
     RDKit          3D

 44 47  0  0  0  0  0  0  0  0999 V2000
   -4.2650   25.6960  -30.4820 O   0  0  0  0  0  0  0  0  0  0  0  0
   -4.1030   24.4470  -30.4750 C   0  0  0  0  0  0  0  0  0  0  0  0
   -4.7140   23.6750  -31.5180 N   0  0  0  0  0  0  0  0  0  0  0  0
   -4.2530   22.4150  -32.0250 C   0  0  0  0  0  0  0  0  0  0  0  0
   -2.8690   22.2060  -32.0940 C   0  0  0  0  0  0  0  0  0  0  0  0
   -2.3530   21.0300  -32.6400 C   0  0  0  0  0  0  0  0  0  0  0  0
   -3.2190   20.0400  -33.1030 C   0  0  0  0  0  0  0  0  0  0  0  0
   -4.6000   20.2120  -32.9980 C   0  0  0  0  0  0  0  0  0  0  0  0
   -5.1390   21.3900  -32.4450 C   0  0  0  0  0  0  0  0  0  0  0  0
   -6.5610   21.4830  -32.2090 N   0  0  0  0  0  0  0  0  0  0  0  0
   -7.3700   20.2710  -32.3860 C   0  0  0  0  0  0  0  0  0  0  0  0
   -8.7320   20.4440  -31.7160 C   0  0  0  0  0  0  0  0  0  0  0  0
   -9.3660   21.6150  -32.1870 O   0  0  0  0  0  0  0  0  0  0  0  0
   -8.6420   22.7510  -31.7570 C   0  0  0  0  0  0  0  0  0  0  0  0
   -7.2360   22.7800  -32.3700 C   0  0  0  0  0  0  0  0  0  0  0  0
   -3.3120   23.8270  -29.3830 C   0  0  0  0  0  0  0  0  0  0  0  0
   -3.6610   22.5420  -28.9420 C   0  0  0  0  0  0  0  0  0  0  0  0
   -2.9810   21.9390  -27.8830 C   0  0  0  0  0  0  0  0  0  0  0  0
   -1.9180   22.6030  -27.2610 C   0  0  0  0  0  0  0  0  0  0  0  0
   -1.2430   22.0070  -26.1840 C   0  0  0  0  0  0  0  0  0  0  0  0
   -0.1700   22.6630  -25.5760 C   0  0  0  0  0  0  0  0  0  0  0  0
    0.2370   23.9160  -26.0390 C   0  0  0  0  0  0  0  0  0  0  0  0
   -0.4240   24.5210  -27.1110 C   0  0  0  0  0  0  0  0  0  0  0  0
   -1.5110   23.8760  -27.7310 C   0  0  0  0  0  0  0  0  0  0  0  0
   -2.1910   24.4700  -28.8120 C   0  0  0  0  0  0  0  0  0  0  0  0
   -1.7300   25.6720  -29.3400 O   0  0  0  0  0  0  0  0  0  0  0  0
   -2.1824   22.9768  -31.7139 H   0  0  0  0  0  0  0  0  0  0  0  0
   -1.2647   20.8842  -32.7051 H   0  0  0  0  0  0  0  0  0  0  0  0
   -2.8128   19.1216  -33.5519 H   0  0  0  0  0  0  0  0  0  0  0  0
   -5.2752   19.4186  -33.3511 H   0  0  0  0  0  0  0  0  0  0  0  0
   -7.5145   20.0842  -33.4603 H   0  0  0  0  0  0  0  0  0  0  0  0
   -6.8480   19.4201  -31.9240 H   0  0  0  0  0  0  0  0  0  0  0  0
   -9.3626   19.5726  -31.9461 H   0  0  0  0  0  0  0  0  0  0  0  0
   -8.5873   20.5286  -30.6289 H   0  0  0  0  0  0  0  0  0  0  0  0
   -9.1845   23.6582  -32.0614 H   0  0  0  0  0  0  0  0  0  0  0  0
   -8.5430   22.7061  -30.6624 H   0  0  0  0  0  0  0  0  0  0  0  0
   -7.3163   23.0125  -33.4421 H   0  0  0  0  0  0  0  0  0  0  0  0
   -6.6444   23.5485  -31.8509 H   0  0  0  0  0  0  0  0  0  0  0  0
   -4.4816   22.0024  -29.4375 H   0  0  0  0  0  0  0  0  0  0  0  0
   -3.2814   20.9392  -27.5364 H   0  0  0  0  0  0  0  0  0  0  0  0
   -1.5603   21.0196  -25.8175 H   0  0  0  0  0  0  0  0  0  0  0  0
    0.3548   22.1921  -24.7317 H   0  0  0  0  0  0  0  0  0  0  0  0
    1.0823   24.4293  -25.5573 H   0  0  0  0  0  0  0  0  0  0  0  0
   -0.0935   25.5060  -27.4723 H   0  0  0  0  0  0  0  0  0  0  0  0
  1  2  2  0
  2  3  1  0
  3  4  1  0
  4  5  2  0
  5  6  1  0
  6  7  2  0
  7  8  1  0
  8  9  2  0
  9 10  1  0
 10 11  1  0
 11 12  1  0
 12 13  1  0
 13 14  1  0
 14 15  1  0
  2 16  1  0
 16 17  2  0
 17 18  1  0
 18 19  2  0
 19 20  1  0
 20 21  2  0
 21 22  1  0
 22 23  2  0
 23 24  1  0
 24 25  2  0
 25 26  1  0
  9  4  1  0
 15 10  1  0
 25 16  1  0
 24 19  1  0
  5 27  1  0
  6 28  1  0
  7 29  1  0
  8 30  1  0
 11 31  1  0
 11 32  1  0
 12 33  1  0
 12 34  1  0
 14 35  1  0
 14 36  1  0
 15 37  1  0
 15 38  1  0
 17 39  1  0
 18 40  1  0
 20 41  1  0
 21 42  1  0
 22 43  1  0
 23 44  1  0
M  CHG  2   3  -1  26  -1
M  END
>  <UniqueID>  (34) 
34

>  <SMILES>  (34) 
O=C([N-]c1ccccc1N1CCOCC1)c1ccc2ccccc2c1[O-]

>  <Energy>  (34) 
66.76693260346887

>  <Genealogy>  (34) 
O=C([N-]c1ccccc1N1CCOCC1)c1ccc2ccccc2c1[O-] (protonated)
O=C([N-]c1ccccc1N1CCOCC1)c1ccc2ccccc2c1[O-] (3D coordinates assigned)
O=C([N-]c1ccccc1N1CCOCC1)c1ccc2ccccc2c1[O-] (nonaromatic ring conformer: 66.76693260346887 kcal/mol)

>  <smiles>  (34) 
O=C(Nc1ccccc1N1CCOCC1)c1ccc2ccccc2c1O

>  <score_type>  (34) 
oracle

>  <origin>  (34) 
adgpu

>  <m_score__min__energy>  (34) 
-13.08

>  <m_primary>  (34) 
energy

$$$$
34:0
     RDKit          3D

 61 64  0  0  0  0  0  0  0  0999 V2000
   -4.9640   24.6250  -28.8010 O   0  0  0  0  0  0  0  0  0  0  0  0
   -4.9000   24.2830  -30.2640 S   0  0  0  0  0  0  0  0  0  0  0  0
   -4.7470   25.5520  -31.0550 O   0  0  0  0  0  0  0  0  0  0  0  0
   -6.4130   23.5170  -30.7460 C   0  0  0  0  0  0  0  0  0  0  0  0
   -7.0680   22.6420  -29.8660 C   0  0  0  0  0  0  0  0  0  0  0  0
   -8.2830   22.0550  -30.2330 C   0  0  0  0  0  0  0  0  0  0  0  0
   -8.8510   22.3420  -31.4780 C   0  0  0  0  0  0  0  0  0  0  0  0
   -8.2070   23.2190  -32.3550 C   0  0  0  0  0  0  0  0  0  0  0  0
   -6.9920   23.8080  -31.9910 C   0  0  0  0  0  0  0  0  0  0  0  0
   -3.5080   23.2250  -30.5590 C   0  0  0  0  0  0  0  0  0  0  0  0
   -3.6980   22.0410  -31.2920 C   0  0  0  0  0  0  0  0  0  0  0  0
   -2.6240   21.1970  -31.5850 C   0  0  0  0  0  0  0  0  0  0  0  0
   -2.9070   19.7090  -32.4840 S   0  0  0  0  0  0  0  0  0  0  0  0
   -2.8850   20.0320  -33.9520 O   0  0  0  0  0  0  0  0  0  0  0  0
   -1.8090   18.7210  -32.2010 O   0  0  0  0  0  0  0  0  0  0  0  0
   -4.4630   19.0240  -32.0680 N   0  0  0  0  0  0  0  0  0  0  0  0
   -4.6630   17.6890  -32.6650 C   0  0  0  0  0  0  0  0  0  0  0  0
   -4.9330   17.7460  -34.1800 C   0  0  0  0  0  0  0  0  0  0  0  0
   -5.8430   18.9180  -34.5880 C   0  0  0  0  0  0  0  0  0  0  0  0
   -6.5750   19.5180  -33.3890 C   0  0  0  0  0  0  0  0  0  0  0  0
   -5.5730   19.9800  -32.3150 C   0  0  0  0  0  0  0  0  0  0  0  0
   -1.3440   21.5270  -31.1350 C   0  0  0  0  0  0  0  0  0  0  0  0
   -1.1370   22.6930  -30.3990 C   0  0  0  0  0  0  0  0  0  0  0  0
   -2.2090   23.5560  -30.0950 C   0  0  0  0  0  0  0  0  0  0  0  0
   -1.9830   24.7420  -29.3030 N   0  0  0  0  0  0  0  0  0  0  0  0
   -1.7180   24.6960  -27.8620 C   0  0  0  0  0  0  0  0  0  0  0  0
   -2.3470   23.4570  -27.2120 C   0  0  0  0  0  0  0  0  0  0  0  0
   -1.2970   22.3940  -26.8730 C   0  0  0  0  0  0  0  0  0  0  0  0
   -1.9130   21.0710  -26.8450 N   0  0  0  0  0  0  0  0  0  0  0  0
   -1.6210   20.0600  -26.0110 C   0  0  0  0  0  0  0  0  0  0  0  0
   -2.3830   18.9750  -26.3810 C   0  0  0  0  0  0  0  0  0  0  0  0
   -3.1410   19.2970  -27.4500 N   0  0  0  0  0  0  0  0  0  0  0  0
   -2.8240   20.5830  -27.7090 C   0  0  0  0  0  0  0  0  0  0  0  0
   -6.6245   22.4172  -28.8848 H   0  0  0  0  0  0  0  0  0  0  0  0
   -8.7921   21.3671  -29.5419 H   0  0  0  0  0  0  0  0  0  0  0  0
   -9.8051   21.8773  -31.7673 H   0  0  0  0  0  0  0  0  0  0  0  0
   -8.6564   23.4463  -33.3329 H   0  0  0  0  0  0  0  0  0  0  0  0
   -6.4891   24.5007  -32.6818 H   0  0  0  0  0  0  0  0  0  0  0  0
   -4.7070   21.7750  -31.6400 H   0  0  0  0  0  0  0  0  0  0  0  0
   -3.7583   17.0877  -32.4918 H   0  0  0  0  0  0  0  0  0  0  0  0
   -5.5479   17.2426  -32.1879 H   0  0  0  0  0  0  0  0  0  0  0  0
   -3.9711   17.8512  -34.7032 H   0  0  0  0  0  0  0  0  0  0  0  0
   -5.4526   16.8164  -34.4555 H   0  0  0  0  0  0  0  0  0  0  0  0
   -5.2268   19.7000  -35.0557 H   0  0  0  0  0  0  0  0  0  0  0  0
   -6.5980   18.5338  -35.2897 H   0  0  0  0  0  0  0  0  0  0  0  0
   -7.1692   20.3811  -33.7236 H   0  0  0  0  0  0  0  0  0  0  0  0
   -7.2304   18.7492  -32.9538 H   0  0  0  0  0  0  0  0  0  0  0  0
   -5.1384   20.9377  -32.6375 H   0  0  0  0  0  0  0  0  0  0  0  0
   -6.1347   20.0633  -31.3729 H   0  0  0  0  0  0  0  0  0  0  0  0
   -0.4957   20.8645  -31.3620 H   0  0  0  0  0  0  0  0  0  0  0  0
   -0.1238   22.9426  -30.0511 H   0  0  0  0  0  0  0  0  0  0  0  0
   -2.0060   25.6750  -29.7690 H   0  0  0  0  0  0  0  0  0  0  0  0
   -0.6303   24.6712  -27.6996 H   0  0  0  0  0  0  0  0  0  0  0  0
   -2.1634   25.5901  -27.4013 H   0  0  0  0  0  0  0  0  0  0  0  0
   -2.8567   23.7614  -26.2859 H   0  0  0  0  0  0  0  0  0  0  0  0
   -3.0562   23.0187  -27.9296 H   0  0  0  0  0  0  0  0  0  0  0  0
   -0.5040   22.4100  -27.6352 H   0  0  0  0  0  0  0  0  0  0  0  0
   -0.8697   22.6130  -25.8833 H   0  0  0  0  0  0  0  0  0  0  0  0
   -0.9010   20.0929  -25.1800 H   0  0  0  0  0  0  0  0  0  0  0  0
   -2.3752   17.9950  -25.8815 H   0  0  0  0  0  0  0  0  0  0  0  0
   -3.2604   21.1669  -28.5328 H   0  0  0  0  0  0  0  0  0  0  0  0
  1  2  2  0
  2  3  2  0
  2  4  1  0
  4  5  2  0
  5  6  1  0
  6  7  2  0
  7  8  1  0
  8  9  2  0
  2 10  1  0
 10 11  2  0
 11 12  1  0
 12 13  1  0
 13 14  2  0
 13 15  2  0
 13 16  1  0
 16 17  1  0
 17 18  1  0
 18 19  1  0
 19 20  1  0
 20 21  1  0
 12 22  2  0
 22 23  1  0
 23 24  2  0
 24 25  1  0
 25 26  1  0
 26 27  1  0
 27 28  1  0
 28 29  1  0
 29 30  1  0
 30 31  2  0
 31 32  1  0
 32 33  2  0
  9  4  1  0
 24 10  1  0
 33 29  1  0
 21 16  1  0
  5 34  1  0
  6 35  1  0
  7 36  1  0
  8 37  1  0
  9 38  1  0
 11 39  1  0
 17 40  1  0
 17 41  1  0
 18 42  1  0
 18 43  1  0
 19 44  1  0
 19 45  1  0
 20 46  1  0
 20 47  1  0
 21 48  1  0
 21 49  1  0
 22 50  1  0
 23 51  1  0
 25 52  1  0
 26 53  1  0
 26 54  1  0
 27 55  1  0
 27 56  1  0
 28 57  1  0
 28 58  1  0
 30 59  1  0
 31 60  1  0
 33 61  1  0
M  END
>  <UniqueID>  (35) 
35

>  <SMILES>  (35) 
O=S(=O)(c1ccccc1)c1cc(S(=O)(=O)N2CCCCC2)ccc1NCCCn1ccnc1

>  <Energy>  (35) 
99.19828098840519

>  <Genealogy>  (35) 
O=S(=O)(c1ccccc1)c1cc(S(=O)(=O)N2CCCCC2)ccc1NCCCn1ccnc1 (3D coordinates assigned)
O=S(=O)(c1ccccc1)c1cc(S(=O)(=O)N2CCCCC2)ccc1NCCCn1ccnc1 (nonaromatic ring conformer: 99.19828098840519 kcal/mol)

>  <smiles>  (35) 
O=S(=O)(c1ccccc1)c1cc(S(=O)(=O)N2CCCCC2)ccc1NCCCn1ccnc1

>  <score_type>  (35) 
oracle

>  <origin>  (35) 
adgpu

>  <m_score__min__energy>  (35) 
-10.050000000000001

>  <m_primary>  (35) 
energy

$$$$
35:0
     RDKit          3D

 68 71  0  0  0  0  0  0  0  0999 V2000
   -0.4830   24.4930  -25.1550 C   0  0  0  0  0  0  0  0  0  0  0  0
   -0.7590   24.5080  -26.5950 N   0  0  0  0  0  0  0  0  0  0  0  0
   -1.8980   25.2920  -27.1000 C   0  0  0  0  0  0  0  0  0  0  0  0
   -1.9730   25.2410  -28.5950 C   0  0  0  0  0  0  0  0  0  0  0  0
   -1.2210   25.9740  -29.2930 O   0  0  0  0  0  0  0  0  0  0  0  0
   -2.9760   24.4280  -29.2140 N   0  0  0  0  0  0  0  0  0  0  0  0
   -2.7490   23.4110  -30.2000 C   0  0  0  0  0  0  0  0  0  0  0  0
   -1.4810   22.8170  -30.3410 C   0  0  0  0  0  0  0  0  0  0  0  0
   -1.2760   21.7960  -31.2730 C   0  0  0  0  0  0  0  0  0  0  0  0
   -2.3310   21.3580  -32.0730 C   0  0  0  0  0  0  0  0  0  0  0  0
   -3.5980   21.9280  -31.9350 C   0  0  0  0  0  0  0  0  0  0  0  0
   -3.8230   22.9480  -30.9940 C   0  0  0  0  0  0  0  0  0  0  0  0
   -5.4410   23.6680  -30.8940 S   0  0  0  0  0  0  0  0  0  0  0  0
   -5.4470   25.0390  -31.5160 O   0  0  0  0  0  0  0  0  0  0  0  0
   -5.8140   23.8140  -29.4450 O   0  0  0  0  0  0  0  0  0  0  0  0
   -6.6090   22.6360  -31.6850 N   0  0  0  0  0  0  0  0  0  0  0  0
   -7.9770   23.1000  -31.3950 C   0  0  0  0  0  0  0  0  0  0  0  0
   -9.0160   22.1020  -31.9510 C   0  0  0  0  0  0  0  0  0  0  0  0
   -8.4000   21.0610  -32.6890 O   0  0  0  0  0  0  0  0  0  0  0  0
   -7.5170   20.3370  -31.8530 C   0  0  0  0  0  0  0  0  0  0  0  0
   -6.4440   21.2520  -31.2200 C   0  0  0  0  0  0  0  0  0  0  0  0
   -0.0090   23.6590  -27.4960 C   0  0  0  0  0  0  0  0  0  0  0  0
    0.9090   24.1580  -28.2010 O   0  0  0  0  0  0  0  0  0  0  0  0
   -0.2590   22.2010  -27.5750 C   0  0  0  0  0  0  0  0  0  0  0  0
    0.8180   21.3440  -27.8560 C   0  0  0  0  0  0  0  0  0  0  0  0
    0.6330   19.9560  -27.9220 C   0  0  0  0  0  0  0  0  0  0  0  0
    2.0160   18.8860  -28.1700 S   0  0  0  0  0  0  0  0  0  0  0  0
    2.0850   18.4920  -29.6190 O   0  0  0  0  0  0  0  0  0  0  0  0
    3.2830   19.6220  -27.8280 O   0  0  0  0  0  0  0  0  0  0  0  0
    1.8970   17.4460  -27.1830 N   0  0  0  0  0  0  0  0  0  0  0  0
    1.0440   16.4410  -27.8410 C   0  0  0  0  0  0  0  0  0  0  0  0
    1.1620   15.0710  -27.1430 C   0  0  0  0  0  0  0  0  0  0  0  0
    1.7790   15.1930  -25.8760 O   0  0  0  0  0  0  0  0  0  0  0  0
    3.1190   15.6380  -26.0310 C   0  0  0  0  0  0  0  0  0  0  0  0
    3.2330   16.8880  -26.9290 C   0  0  0  0  0  0  0  0  0  0  0  0
   -0.6480   19.4230  -27.7540 C   0  0  0  0  0  0  0  0  0  0  0  0
   -1.7310   20.2650  -27.5000 C   0  0  0  0  0  0  0  0  0  0  0  0
   -1.5500   21.6480  -27.3930 C   0  0  0  0  0  0  0  0  0  0  0  0
   -2.6630   22.4310  -27.0830 O   0  0  0  0  0  0  0  0  0  0  0  0
   -1.4310   24.5445  -24.5994 H   0  0  0  0  0  0  0  0  0  0  0  0
    0.0458   23.5648  -24.8927 H   0  0  0  0  0  0  0  0  0  0  0  0
    0.1433   25.3584  -24.8927 H   0  0  0  0  0  0  0  0  0  0  0  0
   -2.8289   24.8829  -26.6803 H   0  0  0  0  0  0  0  0  0  0  0  0
   -1.7611   26.3398  -26.7946 H   0  0  0  0  0  0  0  0  0  0  0  0
   -0.6451   23.1589  -29.7130 H   0  0  0  0  0  0  0  0  0  0  0  0
   -0.2815   21.3374  -31.3757 H   0  0  0  0  0  0  0  0  0  0  0  0
   -2.1646   20.5622  -32.8139 H   0  0  0  0  0  0  0  0  0  0  0  0
   -4.4265   21.5763  -32.5674 H   0  0  0  0  0  0  0  0  0  0  0  0
   -8.1062   23.1880  -30.3062 H   0  0  0  0  0  0  0  0  0  0  0  0
   -8.1303   24.0776  -31.8753 H   0  0  0  0  0  0  0  0  0  0  0  0
   -9.5729   21.6619  -31.1106 H   0  0  0  0  0  0  0  0  0  0  0  0
   -9.6897   22.6492  -32.6268 H   0  0  0  0  0  0  0  0  0  0  0  0
   -8.0979   19.8611  -31.0492 H   0  0  0  0  0  0  0  0  0  0  0  0
   -7.0034   19.5844  -32.4693 H   0  0  0  0  0  0  0  0  0  0  0  0
   -6.5442   21.2236  -30.1249 H   0  0  0  0  0  0  0  0  0  0  0  0
   -5.4483   20.8924  -31.5190 H   0  0  0  0  0  0  0  0  0  0  0  0
    1.8189   21.7673  -28.0264 H   0  0  0  0  0  0  0  0  0  0  0  0
   -0.0029   16.7761  -27.8003 H   0  0  0  0  0  0  0  0  0  0  0  0
    1.3742   16.3314  -28.8845 H   0  0  0  0  0  0  0  0  0  0  0  0
    0.1554   14.6471  -27.0124 H   0  0  0  0  0  0  0  0  0  0  0  0
    1.7819   14.4133  -27.7700 H   0  0  0  0  0  0  0  0  0  0  0  0
    3.5262   15.8799  -25.0382 H   0  0  0  0  0  0  0  0  0  0  0  0
    3.6832   14.8282  -26.5167 H   0  0  0  0  0  0  0  0  0  0  0  0
    3.8539   17.6434  -26.4252 H   0  0  0  0  0  0  0  0  0  0  0  0
    3.6949   16.6049  -27.8864 H   0  0  0  0  0  0  0  0  0  0  0  0
   -0.8028   18.3361  -27.8223 H   0  0  0  0  0  0  0  0  0  0  0  0
   -2.7375   19.8370  -27.3827 H   0  0  0  0  0  0  0  0  0  0  0  0
   -3.0850   23.0790  -27.7370 H   0  0  0  0  0  0  0  0  0  0  0  0
  1  2  1  0
  2  3  1  0
  3  4  1  0
  4  5  2  0
  4  6  1  0
  6  7  1  0
  7  8  2  0
  8  9  1  0
  9 10  2  0
 10 11  1  0
 11 12  2  0
 12 13  1  0
 13 14  2  0
 13 15  2  0
 13 16  1  0
 16 17  1  0
 17 18  1  0
 18 19  1  0
 19 20  1  0
 20 21  1  0
  2 22  1  0
 22 23  2  0
 22 24  1  0
 24 25  2  0
 25 26  1  0
 26 27  1  0
 27 28  2  0
 27 29  2  0
 27 30  1  0
 30 31  1  0
 31 32  1  0
 32 33  1  0
 33 34  1  0
 34 35  1  0
 26 36  2  0
 36 37  1  0
 37 38  2  0
 38 39  1  0
 12  7  1  0
 21 16  1  0
 38 24  1  0
 35 30  1  0
  1 40  1  0
  1 41  1  0
  1 42  1  0
  3 43  1  0
  3 44  1  0
  8 45  1  0
  9 46  1  0
 10 47  1  0
 11 48  1  0
 17 49  1  0
 17 50  1  0
 18 51  1  0
 18 52  1  0
 20 53  1  0
 20 54  1  0
 21 55  1  0
 21 56  1  0
 25 57  1  0
 31 58  1  0
 31 59  1  0
 32 60  1  0
 32 61  1  0
 34 62  1  0
 34 63  1  0
 35 64  1  0
 35 65  1  0
 36 66  1  0
 37 67  1  0
 39 68  1  0
M  CHG  1   6  -1
M  END
>  <UniqueID>  (36) 
36

>  <SMILES>  (36) 
CN(CC(=O)[N-]c1ccccc1S(=O)(=O)N1CCOCC1)C(=O)c1cc(S(=O)(=O)N2CCOCC2)ccc1O

>  <Energy>  (36) 
93.52100795921807

>  <Genealogy>  (36) 
CN(CC(=O)[N-]c1ccccc1S(=O)(=O)N1CCOCC1)C(=O)c1cc(S(=O)(=O)N2CCOCC2)ccc1O (protonated)
CN(CC(=O)[N-]c1ccccc1S(=O)(=O)N1CCOCC1)C(=O)c1cc(S(=O)(=O)N2CCOCC2)ccc1O (3D coordinates assigned)
CN(CC(=O)[N-]c1ccccc1S(=O)(=O)N1CCOCC1)C(=O)c1cc(S(=O)(=O)N2CCOCC2)ccc1O (nonaromatic ring conformer: 93.52100795921807 kcal/mol)

>  <smiles>  (36) 
CN(CC(=O)Nc1ccccc1S(=O)(=O)N1CCOCC1)C(=O)c1cc(S(=O)(=O)N2CCOCC2)ccc1O

>  <score_type>  (36) 
oracle

>  <origin>  (36) 
adgpu

>  <m_score__min__energy>  (36) 
-10.09

>  <m_primary>  (36) 
energy

$$$$
36:0
     RDKit          3D

 51 53  0  0  0  0  0  0  0  0999 V2000
   -5.3390   20.4070  -32.8690 C   0  0  0  0  0  0  0  0  0  0  0  0
   -4.1970   20.9620  -32.0720 C   0  0  0  0  0  0  0  0  0  0  0  0
   -4.2380   20.9510  -30.6690 C   0  0  0  0  0  0  0  0  0  0  0  0
   -3.1600   21.4420  -29.9280 C   0  0  0  0  0  0  0  0  0  0  0  0
   -2.0180   21.9360  -30.5790 C   0  0  0  0  0  0  0  0  0  0  0  0
   -0.8840   22.5220  -29.7830 C   0  0  0  0  0  0  0  0  0  0  0  0
   -1.3810   23.1300  -28.5370 N   0  0  0  0  0  0  0  0  0  0  0  0
   -1.0390   22.5040  -27.2480 C   0  0  0  0  0  0  0  0  0  0  0  0
   -0.9870   20.9910  -27.3120 C   0  0  0  0  0  0  0  0  0  0  0  0
   -2.0480   20.2600  -26.7510 C   0  0  0  0  0  0  0  0  0  0  0  0
   -2.0260   18.8630  -26.7490 C   0  0  0  0  0  0  0  0  0  0  0  0
   -0.9400   18.1780  -27.3000 C   0  0  0  0  0  0  0  0  0  0  0  0
    0.1240   18.8910  -27.8540 C   0  0  0  0  0  0  0  0  0  0  0  0
    0.1070   20.2900  -27.8570 C   0  0  0  0  0  0  0  0  0  0  0  0
   -2.1480   24.3540  -28.6010 C   0  0  0  0  0  0  0  0  0  0  0  0
   -1.7490   25.3020  -29.3290 O   0  0  0  0  0  0  0  0  0  0  0  0
   -3.4080   24.5470  -27.8000 C   0  0  0  0  0  0  0  0  0  0  0  0
   -4.5740   24.0430  -28.5200 N   0  0  0  0  0  0  0  0  0  0  0  0
   -4.8330   24.3660  -29.8960 C   0  0  0  0  0  0  0  0  0  0  0  0
   -4.0640   25.1570  -30.5070 O   0  0  0  0  0  0  0  0  0  0  0  0
   -5.9850   23.7680  -30.6020 C   0  0  0  0  0  0  0  0  0  0  0  0
   -6.2010   24.0090  -31.9690 C   0  0  0  0  0  0  0  0  0  0  0  0
   -7.2880   23.4110  -32.6080 C   0  0  0  0  0  0  0  0  0  0  0  0
   -8.1500   22.5820  -31.8890 C   0  0  0  0  0  0  0  0  0  0  0  0
   -7.9100   22.3650  -30.5310 C   0  0  0  0  0  0  0  0  0  0  0  0
   -6.8440   22.9540  -29.9260 N   0  0  0  0  0  0  0  0  0  0  0  0
   -1.9710   21.9300  -31.9820 C   0  0  0  0  0  0  0  0  0  0  0  0
   -3.0510   21.4400  -32.7230 C   0  0  0  0  0  0  0  0  0  0  0  0
   -6.1142   20.0303  -32.1855 H   0  0  0  0  0  0  0  0  0  0  0  0
   -5.7630   21.1996  -33.5031 H   0  0  0  0  0  0  0  0  0  0  0  0
   -4.9778   19.5840  -33.5031 H   0  0  0  0  0  0  0  0  0  0  0  0
   -5.1231   20.5539  -30.1504 H   0  0  0  0  0  0  0  0  0  0  0  0
   -3.2061   21.4416  -28.8290 H   0  0  0  0  0  0  0  0  0  0  0  0
   -0.1675   21.7251  -29.5349 H   0  0  0  0  0  0  0  0  0  0  0  0
   -0.3950   23.3014  -30.3858 H   0  0  0  0  0  0  0  0  0  0  0  0
   -0.0530   22.8742  -26.9307 H   0  0  0  0  0  0  0  0  0  0  0  0
   -1.8318   22.7730  -26.5345 H   0  0  0  0  0  0  0  0  0  0  0  0
   -2.9034   20.7924  -26.3095 H   0  0  0  0  0  0  0  0  0  0  0  0
   -2.8652   18.3014  -26.3128 H   0  0  0  0  0  0  0  0  0  0  0  0
   -0.9237   17.0781  -27.2971 H   0  0  0  0  0  0  0  0  0  0  0  0
    0.9782   18.3518  -28.2894 H   0  0  0  0  0  0  0  0  0  0  0  0
    0.9529   20.8460  -28.2875 H   0  0  0  0  0  0  0  0  0  0  0  0
   -3.3135   24.0062  -26.8468 H   0  0  0  0  0  0  0  0  0  0  0  0
   -3.5466   25.6238  -27.6230 H   0  0  0  0  0  0  0  0  0  0  0  0
   -5.2480   23.4410  -27.9940 H   0  0  0  0  0  0  0  0  0  0  0  0
   -5.5189   24.6637  -32.5312 H   0  0  0  0  0  0  0  0  0  0  0  0
   -7.4653   23.5931  -33.6782 H   0  0  0  0  0  0  0  0  0  0  0  0
   -9.0078   22.1055  -32.3860 H   0  0  0  0  0  0  0  0  0  0  0  0
   -8.5833   21.7174  -29.9502 H   0  0  0  0  0  0  0  0  0  0  0  0
   -1.0800   22.3127  -32.5012 H   0  0  0  0  0  0  0  0  0  0  0  0
   -3.0012   21.4296  -33.8218 H   0  0  0  0  0  0  0  0  0  0  0  0
  1  2  1  0
  2  3  2  0
  3  4  1  0
  4  5  2  0
  5  6  1  0
  6  7  1  0
  7  8  1  0
  8  9  1  0
  9 10  2  0
 10 11  1  0
 11 12  2  0
 12 13  1  0
 13 14  2  0
  7 15  1  0
 15 16  2  0
 15 17  1  0
 17 18  1  0
 18 19  1  0
 19 20  2  0
 19 21  1  0
 21 22  2  0
 22 23  1  0
 23 24  2  0
 24 25  1  0
 25 26  2  0
  5 27  1  0
 27 28  2  0
 28  2  1  0
 14  9  1  0
 26 21  1  0
  1 29  1  0
  1 30  1  0
  1 31  1  0
  3 32  1  0
  4 33  1  0
  6 34  1  0
  6 35  1  0
  8 36  1  0
  8 37  1  0
 10 38  1  0
 11 39  1  0
 12 40  1  0
 13 41  1  0
 14 42  1  0
 17 43  1  0
 17 44  1  0
 18 45  1  0
 22 46  1  0
 23 47  1  0
 24 48  1  0
 25 49  1  0
 27 50  1  0
 28 51  1  0
M  END
>  <UniqueID>  (37) 
37

>  <SMILES>  (37) 
Cc1ccc(CN(Cc2ccccc2)C(=O)CNC(=O)c2ccccn2)cc1

>  <Energy>  (37) 
45.87882360707877

>  <Genealogy>  (37) 
Cc1ccc(CN(Cc2ccccc2)C(=O)CNC(=O)c2ccccn2)cc1 (3D coordinates assigned)
Cc1ccc(CN(Cc2ccccc2)C(=O)CNC(=O)c2ccccn2)cc1 (optimized conformer: 45.87882360707877 kcal/mol)

>  <smiles>  (37) 
Cc1ccc(CN(Cc2ccccc2)C(=O)CNC(=O)c2ccccn2)cc1

>  <score_type>  (37) 
oracle

>  <origin>  (37) 
adgpu

>  <m_score__min__energy>  (37) 
-9.3100000000000005

>  <m_primary>  (37) 
energy

$$$$
37:0
     RDKit          3D

 61 64  0  0  0  0  0  0  0  0999 V2000
   -9.4520   21.6580  -31.1180 C   0  0  0  0  0  0  0  0  0  0  0  0
   -8.9810   20.8280  -32.3090 C   0  0  0  0  0  0  0  0  0  0  0  0
   -7.9820   19.7940  -31.8760 C   0  0  0  0  0  0  0  0  0  0  0  0
   -8.2660   18.5380  -31.3860 C   0  0  0  0  0  0  0  0  0  0  0  0
   -7.1140   17.8650  -31.2020 N   0  0  0  0  0  0  0  0  0  0  0  0
   -6.1050   18.6440  -31.5660 N   0  0  0  0  0  0  0  0  0  0  0  0
   -6.6030   19.8280  -31.9780 C   0  0  0  0  0  0  0  0  0  0  0  0
   -5.7550   20.9430  -32.5410 C   0  0  0  0  0  0  0  0  0  0  0  0
   -4.3250   20.9020  -31.9500 C   0  0  0  0  0  0  0  0  0  0  0  0
   -4.1520   21.9370  -30.8330 C   0  0  0  0  0  0  0  0  0  0  0  0
   -4.3570   23.3160  -31.3320 N   0  0  0  0  0  0  0  0  0  0  0  0
   -4.6590   24.3910  -29.9890 S   0  0  0  0  0  0  0  0  0  0  0  0
   -4.6240   25.8170  -30.4600 O   0  0  0  0  0  0  0  0  0  0  0  0
   -6.0160   24.1110  -29.4030 O   0  0  0  0  0  0  0  0  0  0  0  0
   -3.4160   24.1760  -28.7590 C   0  0  0  0  0  0  0  0  0  0  0  0
   -2.1280   23.7760  -29.1370 C   0  0  0  0  0  0  0  0  0  0  0  0
   -1.1360   23.5870  -28.1710 C   0  0  0  0  0  0  0  0  0  0  0  0
   -1.4250   23.7910  -26.8150 C   0  0  0  0  0  0  0  0  0  0  0  0
   -0.1570   23.5790  -25.6110 S   0  0  0  0  0  0  0  0  0  0  0  0
    1.1170   23.2200  -26.3270 O   0  0  0  0  0  0  0  0  0  0  0  0
   -0.5110   22.4470  -24.6870 O   0  0  0  0  0  0  0  0  0  0  0  0
    0.0860   25.0590  -24.7040 N   0  0  0  0  0  0  0  0  0  0  0  0
   -1.1960   25.7980  -24.5130 C   0  0  0  0  0  0  0  0  0  0  0  0
   -1.2400   27.1750  -25.1980 C   0  0  0  0  0  0  0  0  0  0  0  0
   -0.6590   27.0970  -26.6080 C   0  0  0  0  0  0  0  0  0  0  0  0
    0.7820   26.5560  -26.6080 C   0  0  0  0  0  0  0  0  0  0  0  0
    1.1750   25.8800  -25.2810 C   0  0  0  0  0  0  0  0  0  0  0  0
   -2.7150   24.1890  -26.4350 C   0  0  0  0  0  0  0  0  0  0  0  0
   -3.7080   24.3760  -27.4020 C   0  0  0  0  0  0  0  0  0  0  0  0
   -5.4130   23.4480  -32.3670 C   0  0  0  0  0  0  0  0  0  0  0  0
   -6.4410   22.3090  -32.3190 C   0  0  0  0  0  0  0  0  0  0  0  0
   -9.1657   21.1535  -30.1834 H   0  0  0  0  0  0  0  0  0  0  0  0
   -8.9837   22.6526  -31.1561 H   0  0  0  0  0  0  0  0  0  0  0  0
  -10.5460   21.7661  -31.1561 H   0  0  0  0  0  0  0  0  0  0  0  0
   -9.8473   20.3247  -32.7631 H   0  0  0  0  0  0  0  0  0  0  0  0
   -8.5019   21.4977  -33.0383 H   0  0  0  0  0  0  0  0  0  0  0  0
   -9.2730   18.1472  -31.1782 H   0  0  0  0  0  0  0  0  0  0  0  0
   -5.6559   20.7988  -33.6270 H   0  0  0  0  0  0  0  0  0  0  0  0
   -4.1354   19.8987  -31.5408 H   0  0  0  0  0  0  0  0  0  0  0  0
   -3.6114   21.1370  -32.7534 H   0  0  0  0  0  0  0  0  0  0  0  0
   -4.8854   21.7317  -30.0393 H   0  0  0  0  0  0  0  0  0  0  0  0
   -3.1246   21.8594  -30.4477 H   0  0  0  0  0  0  0  0  0  0  0  0
   -1.8962   23.6098  -30.1994 H   0  0  0  0  0  0  0  0  0  0  0  0
   -0.1255   23.2772  -28.4759 H   0  0  0  0  0  0  0  0  0  0  0  0
    0.4160   24.7520  -23.7590 H   0  0  0  0  0  0  0  0  0  0  0  0
   -2.0121   25.1837  -24.9212 H   0  0  0  0  0  0  0  0  0  0  0  0
   -1.2975   25.9796  -23.4329 H   0  0  0  0  0  0  0  0  0  0  0  0
   -2.2843   27.5157  -25.2564 H   0  0  0  0  0  0  0  0  0  0  0  0
   -0.6394   27.8824  -24.6074 H   0  0  0  0  0  0  0  0  0  0  0  0
   -1.2888   26.4303  -27.2154 H   0  0  0  0  0  0  0  0  0  0  0  0
   -0.6401   28.1148  -27.0248 H   0  0  0  0  0  0  0  0  0  0  0  0
    0.8788   25.8185  -27.4184 H   0  0  0  0  0  0  0  0  0  0  0  0
    1.4543   27.4151  -26.7495 H   0  0  0  0  0  0  0  0  0  0  0  0
    2.0445   25.2311  -25.4624 H   0  0  0  0  0  0  0  0  0  0  0  0
    1.4016   26.6790  -24.5597 H   0  0  0  0  0  0  0  0  0  0  0  0
   -2.9467   24.3547  -25.3725 H   0  0  0  0  0  0  0  0  0  0  0  0
   -4.7202   24.6806  -27.0975 H   0  0  0  0  0  0  0  0  0  0  0  0
   -5.9385   24.4020  -32.2128 H   0  0  0  0  0  0  0  0  0  0  0  0
   -4.9198   23.4069  -33.3494 H   0  0  0  0  0  0  0  0  0  0  0  0
   -6.9345   22.3095  -31.3359 H   0  0  0  0  0  0  0  0  0  0  0  0
   -7.1804   22.4668  -33.1180 H   0  0  0  0  0  0  0  0  0  0  0  0
  1  2  1  0
  2  3  1  0
  3  4  2  0
  4  5  1  0
  5  6  1  0
  6  7  2  0
  7  8  1  0
  8  9  1  0
  9 10  1  0
 10 11  1  0
 11 12  1  0
 12 13  2  0
 12 14  2  0
 12 15  1  0
 15 16  2  0
 16 17  1  0
 17 18  2  0
 18 19  1  0
 19 20  2  0
 19 21  2  0
 19 22  1  0
 22 23  1  0
 23 24  1  0
 24 25  1  0
 25 26  1  0
 26 27  1  0
 18 28  1  0
 28 29  2  0
 11 30  1  0
 30 31  1  0
  7  3  1  0
 31  8  1  0
 29 15  1  0
 27 22  1  0
  1 32  1  0
  1 33  1  0
  1 34  1  0
  2 35  1  0
  2 36  1  0
  4 37  1  0
  8 38  1  0
  9 39  1  0
  9 40  1  0
 10 41  1  0
 10 42  1  0
 16 43  1  0
 17 44  1  0
 22 45  1  0
 23 46  1  0
 23 47  1  0
 24 48  1  0
 24 49  1  0
 25 50  1  0
 25 51  1  0
 26 52  1  0
 26 53  1  0
 27 54  1  0
 27 55  1  0
 28 56  1  0
 29 57  1  0
 30 58  1  0
 30 59  1  0
 31 60  1  0
 31 61  1  0
M  CHG  2   5  -1  22   1
M  END
>  <UniqueID>  (38) 
38

>  <SMILES>  (38) 
CCc1c[n-]nc1C1CCN(S(=O)(=O)c2ccc(S(=O)(=O)[NH+]3CCCCC3)cc2)CC1

>  <Energy>  (38) 
101.11173266665028

>  <Genealogy>  (38) 
CCc1c[n-]nc1C1CCN(S(=O)(=O)c2ccc(S(=O)(=O)[NH+]3CCCCC3)cc2)CC1 (protonated)
CCc1c[n-]nc1C1CCN(S(=O)(=O)c2ccc(S(=O)(=O)[NH+]3CCCCC3)cc2)CC1 (3D coordinates assigned)
CCc1c[n-]nc1C1CCN(S(=O)(=O)c2ccc(S(=O)(=O)[NH+]3CCCCC3)cc2)CC1 (nonaromatic ring conformer: 101.11173266665028 kcal/mol)

>  <smiles>  (38) 
CCc1c[nH]nc1C1CCN(S(=O)(=O)c2ccc(S(=O)(=O)N3CCCCC3)cc2)CC1

>  <score_type>  (38) 
oracle

>  <origin>  (38) 
adgpu

>  <m_score__min__energy>  (38) 
-11.27

>  <m_primary>  (38) 
energy

$$$$
38:0
     RDKit          3D

 47 50  0  0  0  0  0  0  0  0999 V2000
   -7.0250   25.6950  -29.7360 O   0  0  0  0  0  0  0  0  0  0  0  0
   -6.3070   24.8660  -30.3540 C   0  0  0  0  0  0  0  0  0  0  0  0
   -6.8880   24.1120  -31.4290 N   0  0  0  0  0  0  0  0  0  0  0  0
   -7.0670   22.6910  -31.4220 C   0  0  0  0  0  0  0  0  0  0  0  0
   -8.3460   22.1210  -31.5310 C   0  0  0  0  0  0  0  0  0  0  0  0
   -8.4890   20.7420  -31.6920 C   0  0  0  0  0  0  0  0  0  0  0  0
   -7.3570   19.9170  -31.7250 C   0  0  0  0  0  0  0  0  0  0  0  0
   -7.5090   18.2080  -32.1220 S   0  0  0  0  0  0  0  0  0  0  0  0
   -8.9370   17.7650  -31.9600 O   0  0  0  0  0  0  0  0  0  0  0  0
   -6.6490   17.4170  -31.1750 O   0  0  0  0  0  0  0  0  0  0  0  0
   -6.9730   17.9370  -33.7670 N   0  0  0  0  0  0  0  0  0  0  0  0
   -6.1780   16.7070  -33.8630 C   0  0  0  0  0  0  0  0  0  0  0  0
   -4.7150   17.0760  -33.6840 C   0  0  0  0  0  0  0  0  0  0  0  0
   -4.6410   18.5680  -33.9470 C   0  0  0  0  0  0  0  0  0  0  0  0
   -6.0760   19.0140  -34.1970 C   0  0  0  0  0  0  0  0  0  0  0  0
   -6.0860   20.4760  -31.5400 C   0  0  0  0  0  0  0  0  0  0  0  0
   -5.9440   21.8570  -31.3760 C   0  0  0  0  0  0  0  0  0  0  0  0
   -4.9040   24.6750  -29.9310 C   0  0  0  0  0  0  0  0  0  0  0  0
   -4.4420   23.8010  -28.9650 C   0  0  0  0  0  0  0  0  0  0  0  0
   -3.0700   23.9540  -28.9970 C   0  0  0  0  0  0  0  0  0  0  0  0
   -2.0670   23.1580  -28.2440 C   0  0  0  0  0  0  0  0  0  0  0  0
   -2.5010   22.0350  -27.5160 C   0  0  0  0  0  0  0  0  0  0  0  0
   -1.6000   21.2890  -26.7520 C   0  0  0  0  0  0  0  0  0  0  0  0
   -0.2530   21.6510  -26.7080 C   0  0  0  0  0  0  0  0  0  0  0  0
    0.1980   22.7500  -27.4390 C   0  0  0  0  0  0  0  0  0  0  0  0
   -0.6960   23.5030  -28.2160 C   0  0  0  0  0  0  0  0  0  0  0  0
   -0.2120   24.5730  -28.9680 O   0  0  0  0  0  0  0  0  0  0  0  0
   -2.7480   24.8820  -29.9220 N   0  0  0  0  0  0  0  0  0  0  0  0
   -3.8630   25.3280  -30.4820 N   0  0  0  0  0  0  0  0  0  0  0  0
   -9.2379   22.7635  -31.4893 H   0  0  0  0  0  0  0  0  0  0  0  0
   -9.4921   20.3021  -31.7932 H   0  0  0  0  0  0  0  0  0  0  0  0
   -6.4840   16.0027  -33.0754 H   0  0  0  0  0  0  0  0  0  0  0  0
   -6.3335   16.2278  -34.8409 H   0  0  0  0  0  0  0  0  0  0  0  0
   -4.3832   16.8487  -32.6601 H   0  0  0  0  0  0  0  0  0  0  0  0
   -4.0635   16.5078  -34.3643 H   0  0  0  0  0  0  0  0  0  0  0  0
   -4.2233   19.0911  -33.0741 H   0  0  0  0  0  0  0  0  0  0  0  0
   -3.9894   18.7976  -34.8030 H   0  0  0  0  0  0  0  0  0  0  0  0
   -6.2877   19.9269  -33.6210 H   0  0  0  0  0  0  0  0  0  0  0  0
   -6.2260   19.2290  -35.2653 H   0  0  0  0  0  0  0  0  0  0  0  0
   -5.1980   19.8271  -31.5237 H   0  0  0  0  0  0  0  0  0  0  0  0
   -4.9463   22.2896  -31.2102 H   0  0  0  0  0  0  0  0  0  0  0  0
   -5.0325   23.1354  -28.3183 H   0  0  0  0  0  0  0  0  0  0  0  0
   -3.5606   21.7413  -27.5487 H   0  0  0  0  0  0  0  0  0  0  0  0
   -1.9528   20.4153  -26.1845 H   0  0  0  0  0  0  0  0  0  0  0  0
    0.4531   21.0697  -26.0969 H   0  0  0  0  0  0  0  0  0  0  0  0
    1.2617   23.0285  -27.4063 H   0  0  0  0  0  0  0  0  0  0  0  0
   -0.7230   24.9410  -29.7620 H   0  0  0  0  0  0  0  0  0  0  0  0
  1  2  2  0
  2  3  1  0
  3  4  1  0
  4  5  2  0
  5  6  1  0
  6  7  2  0
  7  8  1  0
  8  9  2  0
  8 10  2  0
  8 11  1  0
 11 12  1  0
 12 13  1  0
 13 14  1  0
 14 15  1  0
  7 16  1  0
 16 17  2  0
  2 18  1  0
 18 19  1  0
 19 20  2  0
 20 21  1  0
 21 22  2  0
 22 23  1  0
 23 24  2  0
 24 25  1  0
 25 26  2  0
 26 27  1  0
 20 28  1  0
 28 29  1  0
 17  4  1  0
 29 18  2  0
 15 11  1  0
 26 21  1  0
  5 30  1  0
  6 31  1  0
 12 32  1  0
 12 33  1  0
 13 34  1  0
 13 35  1  0
 14 36  1  0
 14 37  1  0
 15 38  1  0
 15 39  1  0
 16 40  1  0
 17 41  1  0
 19 42  1  0
 22 43  1  0
 23 44  1  0
 24 45  1  0
 25 46  1  0
 27 47  1  0
M  CHG  2   3  -1  28  -1
M  END
>  <UniqueID>  (39) 
39

>  <SMILES>  (39) 
O=C([N-]c1ccc(S(=O)(=O)N2CCCC2)cc1)c1cc(-c2ccccc2O)[n-]n1

>  <Energy>  (39) 
87.79494147746398

>  <Genealogy>  (39) 
O=C([N-]c1ccc(S(=O)(=O)N2CCCC2)cc1)c1cc(-c2ccccc2O)[n-]n1 (protonated)
O=C([N-]c1ccc(S(=O)(=O)N2CCCC2)cc1)c1cc(-c2ccccc2O)[n-]n1 (3D coordinates assigned)
O=C([N-]c1ccc(S(=O)(=O)N2CCCC2)cc1)c1cc(-c2ccccc2O)[n-]n1 (nonaromatic ring conformer: 87.79494147746398 kcal/mol)

>  <smiles>  (39) 
O=C(Nc1ccc(S(=O)(=O)N2CCCC2)cc1)c1cc(-c2ccccc2O)[nH]n1

>  <score_type>  (39) 
oracle

>  <origin>  (39) 
adgpu

>  <m_score__min__energy>  (39) 
-12.41

>  <m_primary>  (39) 
energy

$$$$
39:0
     RDKit          3D

 48 51  0  0  0  0  0  0  0  0999 V2000
   -5.6910   25.3260  -28.9340 O   0  0  0  0  0  0  0  0  0  0  0  0
   -5.2980   25.0870  -30.3650 S   0  0  0  0  0  0  0  0  0  0  0  0
   -5.7100   26.2740  -31.1940 O   0  0  0  0  0  0  0  0  0  0  0  0
   -3.5760   24.8960  -30.4650 N   0  0  0  0  0  0  0  0  0  0  0  0
   -2.7920   24.0640  -29.5990 C   0  0  0  0  0  0  0  0  0  0  0  0
   -3.1690   22.7430  -29.2970 C   0  0  0  0  0  0  0  0  0  0  0  0
   -2.4370   21.9820  -28.3700 C   0  0  0  0  0  0  0  0  0  0  0  0
   -1.2770   22.5250  -27.7810 C   0  0  0  0  0  0  0  0  0  0  0  0
   -0.8820   23.8310  -28.1130 C   0  0  0  0  0  0  0  0  0  0  0  0
   -1.6320   24.5940  -29.0150 C   0  0  0  0  0  0  0  0  0  0  0  0
   -1.2320   25.8930  -29.3140 O   0  0  0  0  0  0  0  0  0  0  0  0
   -0.5300   21.7750  -26.6980 C   0  0  0  0  0  0  0  0  0  0  0  0
   -0.7980   20.3300  -26.7220 N   0  0  0  0  0  0  0  0  0  0  0  0
   -2.2410   20.0630  -26.7620 C   0  0  0  0  0  0  0  0  0  0  0  0
   -2.8550   20.5650  -28.0750 C   0  0  0  0  0  0  0  0  0  0  0  0
   -6.1020   23.6250  -30.9360 C   0  0  0  0  0  0  0  0  0  0  0  0
   -6.8690   22.8580  -30.0490 C   0  0  0  0  0  0  0  0  0  0  0  0
   -7.4560   21.6640  -30.4780 C   0  0  0  0  0  0  0  0  0  0  0  0
   -7.2790   21.2260  -31.7970 C   0  0  0  0  0  0  0  0  0  0  0  0
   -7.9960   19.7160  -32.3420 S   0  0  0  0  0  0  0  0  0  0  0  0
   -8.9950   19.9770  -33.4370 O   0  0  0  0  0  0  0  0  0  0  0  0
   -8.7200   19.0610  -31.1970 O   0  0  0  0  0  0  0  0  0  0  0  0
   -6.7280   18.6530  -32.9390 C   0  0  0  0  0  0  0  0  0  0  0  0
   -6.0200   18.9830  -34.1030 C   0  0  0  0  0  0  0  0  0  0  0  0
   -5.0150   18.1350  -34.5770 C   0  0  0  0  0  0  0  0  0  0  0  0
   -4.7230   16.9480  -33.8970 C   0  0  0  0  0  0  0  0  0  0  0  0
   -5.4400   16.6040  -32.7440 C   0  0  0  0  0  0  0  0  0  0  0  0
   -6.4400   17.4560  -32.2660 C   0  0  0  0  0  0  0  0  0  0  0  0
   -6.5330   22.0070  -32.6900 C   0  0  0  0  0  0  0  0  0  0  0  0
   -5.9470   23.2010  -32.2610 C   0  0  0  0  0  0  0  0  0  0  0  0
   -4.0463   22.3009  -29.7919 H   0  0  0  0  0  0  0  0  0  0  0  0
    0.0249   24.2580  -27.6601 H   0  0  0  0  0  0  0  0  0  0  0  0
    0.5491   21.9354  -26.8389 H   0  0  0  0  0  0  0  0  0  0  0  0
   -0.8748   22.1612  -25.7275 H   0  0  0  0  0  0  0  0  0  0  0  0
   -0.3480   19.9140  -27.5750 H   0  0  0  0  0  0  0  0  0  0  0  0
   -2.4091   18.9792  -26.6771 H   0  0  0  0  0  0  0  0  0  0  0  0
   -2.7195   20.5930  -25.9253 H   0  0  0  0  0  0  0  0  0  0  0  0
   -2.5221   19.9149  -28.8975 H   0  0  0  0  0  0  0  0  0  0  0  0
   -3.9504   20.5401  -27.9771 H   0  0  0  0  0  0  0  0  0  0  0  0
   -7.0097   23.1965  -29.0119 H   0  0  0  0  0  0  0  0  0  0  0  0
   -8.0586   21.0666  -29.7780 H   0  0  0  0  0  0  0  0  0  0  0  0
   -6.2558   19.9111  -34.6444 H   0  0  0  0  0  0  0  0  0  0  0  0
   -4.4537   18.4011  -35.4848 H   0  0  0  0  0  0  0  0  0  0  0  0
   -3.9289   16.2836  -34.2684 H   0  0  0  0  0  0  0  0  0  0  0  0
   -5.2167   15.6654  -32.2157 H   0  0  0  0  0  0  0  0  0  0  0  0
   -7.0026   17.1872  -31.3598 H   0  0  0  0  0  0  0  0  0  0  0  0
   -6.4082   21.6790  -33.7325 H   0  0  0  0  0  0  0  0  0  0  0  0
   -5.3622   23.8094  -32.9666 H   0  0  0  0  0  0  0  0  0  0  0  0
  1  2  2  0
  2  3  2  0
  2  4  1  0
  4  5  1  0
  5  6  2  0
  6  7  1  0
  7  8  2  0
  8  9  1  0
  9 10  2  0
 10 11  1  0
  8 12  1  0
 12 13  1  0
 13 14  1  0
 14 15  1  0
  2 16  1  0
 16 17  2  0
 17 18  1  0
 18 19  2  0
 19 20  1  0
 20 21  2  0
 20 22  2  0
 20 23  1  0
 23 24  2  0
 24 25  1  0
 25 26  2  0
 26 27  1  0
 27 28  2  0
 19 29  1  0
 29 30  2  0
 10  5  1  0
 30 16  1  0
 15  7  1  0
 28 23  1  0
  6 31  1  0
  9 32  1  0
 12 33  1  0
 12 34  1  0
 13 35  1  0
 14 36  1  0
 14 37  1  0
 15 38  1  0
 15 39  1  0
 17 40  1  0
 18 41  1  0
 24 42  1  0
 25 43  1  0
 26 44  1  0
 27 45  1  0
 28 46  1  0
 29 47  1  0
 30 48  1  0
M  CHG  2   4  -1  11  -1
M  END
>  <UniqueID>  (40) 
40

>  <SMILES>  (40) 
O=S(=O)([N-]c1cc2c(cc1[O-])CNCC2)c1ccc(S(=O)(=O)c2ccccc2)cc1

>  <Energy>  (40) 
59.1567896664896

>  <Genealogy>  (40) 
O=S(=O)([N-]c1cc2c(cc1[O-])CNCC2)c1ccc(S(=O)(=O)c2ccccc2)cc1 (protonated)
O=S(=O)([N-]c1cc2c(cc1[O-])CNCC2)c1ccc(S(=O)(=O)c2ccccc2)cc1 (3D coordinates assigned)
O=S(=O)([N-]c1cc2c(cc1[O-])CNCC2)c1ccc(S(=O)(=O)c2ccccc2)cc1 (nonaromatic ring conformer: 59.1567896664896 kcal/mol)

>  <smiles>  (40) 
O=S(=O)(Nc1cc2c(cc1O)CNCC2)c1ccc(S(=O)(=O)c2ccccc2)cc1

>  <score_type>  (40) 
oracle

>  <origin>  (40) 
adgpu

>  <m_score__min__energy>  (40) 
-16.050000000000001

>  <m_primary>  (40) 
energy

$$$$
40:0
     RDKit          3D

 55 59  0  0  0  0  0  0  0  0999 V2000
   -4.3210   16.8520  -33.9400 C   0  0  0  0  0  0  0  0  0  0  0  0
   -4.9020   18.1510  -33.4380 C   0  0  0  0  0  0  0  0  0  0  0  0
   -4.0740   19.2840  -33.4070 C   0  0  0  0  0  0  0  0  0  0  0  0
   -4.5500   20.5010  -32.9290 C   0  0  0  0  0  0  0  0  0  0  0  0
   -3.4640   21.9290  -32.8770 S   0  0  0  0  0  0  0  0  0  0  0  0
   -2.4810   21.2800  -31.5120 C   0  0  0  0  0  0  0  0  0  0  0  0
   -1.6530   20.1810  -31.7850 C   0  0  0  0  0  0  0  0  0  0  0  0
   -0.8310   19.6430  -30.7900 C   0  0  0  0  0  0  0  0  0  0  0  0
    0.0090   18.5530  -31.0500 C   0  0  0  0  0  0  0  0  0  0  0  0
    0.8250   18.0490  -30.0340 C   0  0  0  0  0  0  0  0  0  0  0  0
    0.7910   18.6400  -28.7690 C   0  0  0  0  0  0  0  0  0  0  0  0
   -0.0300   19.6960  -28.5300 N   0  0  0  0  0  0  0  0  0  0  0  0
   -0.8360   20.2090  -29.5000 C   0  0  0  0  0  0  0  0  0  0  0  0
   -1.6700   21.2920  -29.2180 C   0  0  0  0  0  0  0  0  0  0  0  0
   -2.5140   21.8290  -30.2050 C   0  0  0  0  0  0  0  0  0  0  0  0
   -3.5610   23.1840  -29.7460 S   0  0  0  0  0  0  0  0  0  0  0  0
   -4.8240   22.7190  -29.0790 O   0  0  0  0  0  0  0  0  0  0  0  0
   -3.9140   23.9760  -30.9740 O   0  0  0  0  0  0  0  0  0  0  0  0
   -2.7190   24.2240  -28.6110 C   0  0  0  0  0  0  0  0  0  0  0  0
   -3.0970   24.4340  -27.2880 C   0  0  0  0  0  0  0  0  0  0  0  0
   -2.2170   25.2930  -26.6210 C   0  0  0  0  0  0  0  0  0  0  0  0
   -2.3140   25.6990  -25.2870 C   0  0  0  0  0  0  0  0  0  0  0  0
   -1.3350   26.5670  -24.7720 C   0  0  0  0  0  0  0  0  0  0  0  0
   -0.2800   27.0190  -25.5890 C   0  0  0  0  0  0  0  0  0  0  0  0
   -0.1910   26.6030  -26.9270 C   0  0  0  0  0  0  0  0  0  0  0  0
   -1.1710   25.7410  -27.4150 C   0  0  0  0  0  0  0  0  0  0  0  0
   -1.3070   25.0890  -28.9570 S   0  0  0  0  0  0  0  0  0  0  0  0
   -5.8730   20.6120  -32.5040 C   0  0  0  0  0  0  0  0  0  0  0  0
   -6.7280   19.5000  -32.5190 C   0  0  0  0  0  0  0  0  0  0  0  0
   -8.3770   19.7050  -31.8990 S   0  0  0  0  0  0  0  0  0  0  0  0
   -9.5040   19.5530  -33.2000 N   0  0  0  0  0  0  0  0  0  0  0  0
   -8.6590   18.6620  -30.8540 O   0  0  0  0  0  0  0  0  0  0  0  0
   -8.5340   21.0620  -31.2690 O   0  0  0  0  0  0  0  0  0  0  0  0
   -6.2570   18.2580  -33.0260 C   0  0  0  0  0  0  0  0  0  0  0  0
   -7.1620   17.0450  -33.0620 C   0  0  0  0  0  0  0  0  0  0  0  0
   -4.0390   16.2214  -33.0840 H   0  0  0  0  0  0  0  0  0  0  0  0
   -5.0701   16.3271  -34.5510 H   0  0  0  0  0  0  0  0  0  0  0  0
   -3.4304   17.0605  -34.5510 H   0  0  0  0  0  0  0  0  0  0  0  0
   -3.0365   19.2089  -33.7648 H   0  0  0  0  0  0  0  0  0  0  0  0
   -1.6504   19.7381  -32.7919 H   0  0  0  0  0  0  0  0  0  0  0  0
    0.0263   18.0955  -32.0502 H   0  0  0  0  0  0  0  0  0  0  0  0
    1.4888   17.1937  -30.2288 H   0  0  0  0  0  0  0  0  0  0  0  0
    1.4307   18.2495  -27.9639 H   0  0  0  0  0  0  0  0  0  0  0  0
   -1.6666   21.7312  -28.2095 H   0  0  0  0  0  0  0  0  0  0  0  0
   -3.9831   23.9783  -26.8219 H   0  0  0  0  0  0  0  0  0  0  0  0
   -3.1403   25.3463  -24.6523 H   0  0  0  0  0  0  0  0  0  0  0  0
   -1.3933   26.8955  -23.7238 H   0  0  0  0  0  0  0  0  0  0  0  0
    0.4778   27.7013  -25.1765 H   0  0  0  0  0  0  0  0  0  0  0  0
    0.6301   26.9482  -27.5725 H   0  0  0  0  0  0  0  0  0  0  0  0
   -6.2511   21.5834  -32.1526 H   0  0  0  0  0  0  0  0  0  0  0  0
   -9.0970   20.0590  -34.0190 H   0  0  0  0  0  0  0  0  0  0  0  0
   -9.5400   18.5420  -33.4560 H   0  0  0  0  0  0  0  0  0  0  0  0
   -7.3959   16.7314  -32.0339 H   0  0  0  0  0  0  0  0  0  0  0  0
   -8.0937   17.2982  -33.5891 H   0  0  0  0  0  0  0  0  0  0  0  0
   -6.6540   16.2240  -33.5891 H   0  0  0  0  0  0  0  0  0  0  0  0
  1  2  1  0
  2  3  2  0
  3  4  1  0
  4  5  1  0
  5  6  1  0
  6  7  2  0
  7  8  1  0
  8  9  2  0
  9 10  1  0
 10 11  2  0
 11 12  1  0
 12 13  2  0
 13 14  1  0
 14 15  2  0
 15 16  1  0
 16 17  2  0
 16 18  2  0
 16 19  1  0
 19 20  2  0
 20 21  1  0
 21 22  2  0
 22 23  1  0
 23 24  2  0
 24 25  1  0
 25 26  2  0
 26 27  1  0
  4 28  2  0
 28 29  1  0
 29 30  1  0
 30 31  1  0
 30 32  2  0
 30 33  2  0
 29 34  2  0
 34 35  1  0
 34  2  1  0
 15  6  1  0
 27 19  1  0
 13  8  1  0
 26 21  1  0
  1 36  1  0
  1 37  1  0
  1 38  1  0
  3 39  1  0
  7 40  1  0
  9 41  1  0
 10 42  1  0
 11 43  1  0
 14 44  1  0
 20 45  1  0
 22 46  1  0
 23 47  1  0
 24 48  1  0
 25 49  1  0
 28 50  1  0
 31 51  1  0
 31 52  1  0
 35 53  1  0
 35 54  1  0
 35 55  1  0
M  END
>  <UniqueID>  (41) 
41

>  <SMILES>  (41) 
Cc1cc(Sc2cc3cccnc3cc2S(=O)(=O)c2cc3ccccc3s2)cc(S(N)(=O)=O)c1C

>  <Energy>  (41) 
97.58931970391559

>  <Genealogy>  (41) 
Cc1cc(Sc2cc3cccnc3cc2S(=O)(=O)c2cc3ccccc3s2)cc(S(N)(=O)=O)c1C (3D coordinates assigned)
Cc1cc(Sc2cc3cccnc3cc2S(=O)(=O)c2cc3ccccc3s2)cc(S(N)(=O)=O)c1C (optimized conformer: 97.58931970391559 kcal/mol)

>  <smiles>  (41) 
Cc1cc(Sc2cc3cccnc3cc2S(=O)(=O)c2cc3ccccc3s2)cc(S(N)(=O)=O)c1C

>  <score_type>  (41) 
oracle

>  <origin>  (41) 
adgpu

>  <m_score__min__energy>  (41) 
-11.460000000000001

>  <m_primary>  (41) 
energy

$$$$
41:0
     RDKit          3D

 54 56  0  0  0  0  0  0  0  0999 V2000
   -3.9680   22.0570  -33.1720 C   0  0  0  0  0  0  0  0  0  0  0  0
   -4.5730   21.2590  -32.1600 O   0  0  0  0  0  0  0  0  0  0  0  0
   -5.8830   20.7570  -32.2150 C   0  0  0  0  0  0  0  0  0  0  0  0
   -6.1740   19.5320  -32.8500 C   0  0  0  0  0  0  0  0  0  0  0  0
   -7.4890   19.0700  -32.9300 C   0  0  0  0  0  0  0  0  0  0  0  0
   -8.5290   19.8210  -32.3850 C   0  0  0  0  0  0  0  0  0  0  0  0
   -8.2560   21.0320  -31.7480 C   0  0  0  0  0  0  0  0  0  0  0  0
   -6.9370   21.5040  -31.6400 C   0  0  0  0  0  0  0  0  0  0  0  0
   -6.6990   22.7760  -30.9170 C   0  0  0  0  0  0  0  0  0  0  0  0
   -7.3260   22.9910  -29.8440 O   0  0  0  0  0  0  0  0  0  0  0  0
   -5.6690   23.7820  -31.3670 C   0  0  0  0  0  0  0  0  0  0  0  0
   -5.0630   24.5420  -30.1840 C   0  0  0  0  0  0  0  0  0  0  0  0
   -3.6760   24.9040  -30.4730 N   0  0  0  0  0  0  0  0  0  0  0  0
   -2.6630   24.5320  -29.1130 S   0  0  0  0  0  0  0  0  0  0  0  0
   -3.5010   24.5140  -27.8660 O   0  0  0  0  0  0  0  0  0  0  0  0
   -1.6100   25.5940  -28.9620 O   0  0  0  0  0  0  0  0  0  0  0  0
   -1.8990   22.9590  -29.3280 C   0  0  0  0  0  0  0  0  0  0  0  0
   -1.5390   22.1900  -28.2150 C   0  0  0  0  0  0  0  0  0  0  0  0
   -0.9990   20.9130  -28.3900 C   0  0  0  0  0  0  0  0  0  0  0  0
   -0.8360   20.3910  -29.6770 C   0  0  0  0  0  0  0  0  0  0  0  0
   -1.2090   21.1470  -30.7960 C   0  0  0  0  0  0  0  0  0  0  0  0
   -1.0700   20.4680  -32.4210 S   0  0  0  0  0  0  0  0  0  0  0  0
   -1.0860   21.5890  -33.4230 O   0  0  0  0  0  0  0  0  0  0  0  0
    0.2480   19.7530  -32.5440 O   0  0  0  0  0  0  0  0  0  0  0  0
   -2.3630   19.3510  -32.7890 N   0  0  0  0  0  0  0  0  0  0  0  0
   -1.9930   17.9570  -32.5250 C   0  0  0  0  0  0  0  0  0  0  0  0
   -2.8460   17.0960  -33.4470 C   0  0  0  0  0  0  0  0  0  0  0  0
   -3.3660   18.0410  -34.5210 C   0  0  0  0  0  0  0  0  0  0  0  0
   -2.7560   19.3960  -34.1990 C   0  0  0  0  0  0  0  0  0  0  0  0
   -1.7160   22.4410  -30.6170 C   0  0  0  0  0  0  0  0  0  0  0  0
   -3.3668   22.8500  -32.7032 H   0  0  0  0  0  0  0  0  0  0  0  0
   -3.3192   21.4262  -33.7974 H   0  0  0  0  0  0  0  0  0  0  0  0
   -4.7506   22.5114  -33.7974 H   0  0  0  0  0  0  0  0  0  0  0  0
   -5.3586   18.9359  -33.2856 H   0  0  0  0  0  0  0  0  0  0  0  0
   -7.7048   18.1113  -33.4242 H   0  0  0  0  0  0  0  0  0  0  0  0
   -9.5652   19.4589  -32.4571 H   0  0  0  0  0  0  0  0  0  0  0  0
   -9.0820   21.6233  -31.3260 H   0  0  0  0  0  0  0  0  0  0  0  0
   -4.8650   23.2542  -31.9008 H   0  0  0  0  0  0  0  0  0  0  0  0
   -6.1666   24.5110  -32.0235 H   0  0  0  0  0  0  0  0  0  0  0  0
   -5.6468   25.4564  -30.0022 H   0  0  0  0  0  0  0  0  0  0  0  0
   -5.0873   23.8973  -29.2930 H   0  0  0  0  0  0  0  0  0  0  0  0
   -1.6814   22.5916  -27.2009 H   0  0  0  0  0  0  0  0  0  0  0  0
   -0.7018   20.3176  -27.5141 H   0  0  0  0  0  0  0  0  0  0  0  0
   -0.4138   19.3841  -29.8112 H   0  0  0  0  0  0  0  0  0  0  0  0
   -3.1910   19.6010  -32.1970 H   0  0  0  0  0  0  0  0  0  0  0  0
   -0.9257   17.8007  -32.7403 H   0  0  0  0  0  0  0  0  0  0  0  0
   -2.1627   17.6955  -31.4701 H   0  0  0  0  0  0  0  0  0  0  0  0
   -2.2384   16.2980  -33.8986 H   0  0  0  0  0  0  0  0  0  0  0  0
   -3.6668   16.6054  -32.9032 H   0  0  0  0  0  0  0  0  0  0  0  0
   -3.0470   17.7028  -35.5180 H   0  0  0  0  0  0  0  0  0  0  0  0
   -4.4652   18.0805  -34.5328 H   0  0  0  0  0  0  0  0  0  0  0  0
   -1.8756   19.5767  -34.8332 H   0  0  0  0  0  0  0  0  0  0  0  0
   -3.4726   20.2093  -34.3863 H   0  0  0  0  0  0  0  0  0  0  0  0
   -1.9719   23.0539  -31.4938 H   0  0  0  0  0  0  0  0  0  0  0  0
  1  2  1  0
  2  3  1  0
  3  4  2  0
  4  5  1  0
  5  6  2  0
  6  7  1  0
  7  8  2  0
  8  9  1  0
  9 10  2  0
  9 11  1  0
 11 12  1  0
 12 13  1  0
 13 14  1  0
 14 15  2  0
 14 16  2  0
 14 17  1  0
 17 18  2  0
 18 19  1  0
 19 20  2  0
 20 21  1  0
 21 22  1  0
 22 23  2  0
 22 24  2  0
 22 25  1  0
 25 26  1  0
 26 27  1  0
 27 28  1  0
 28 29  1  0
 21 30  2  0
  8  3  1  0
 30 17  1  0
 29 25  1  0
  1 31  1  0
  1 32  1  0
  1 33  1  0
  4 34  1  0
  5 35  1  0
  6 36  1  0
  7 37  1  0
 11 38  1  0
 11 39  1  0
 12 40  1  0
 12 41  1  0
 18 42  1  0
 19 43  1  0
 20 44  1  0
 25 45  1  0
 26 46  1  0
 26 47  1  0
 27 48  1  0
 27 49  1  0
 28 50  1  0
 28 51  1  0
 29 52  1  0
 29 53  1  0
 30 54  1  0
M  CHG  2  13  -1  25   1
M  END
>  <UniqueID>  (42) 
42

>  <SMILES>  (42) 
COc1ccccc1C(=O)CC[N-]S(=O)(=O)c1cccc(S(=O)(=O)[NH+]2CCCC2)c1

>  <Energy>  (42) 
55.272950860758

>  <Genealogy>  (42) 
COc1ccccc1C(=O)CC[N-]S(=O)(=O)c1cccc(S(=O)(=O)[NH+]2CCCC2)c1 (protonated)
COc1ccccc1C(=O)CC[N-]S(=O)(=O)c1cccc(S(=O)(=O)[NH+]2CCCC2)c1 (3D coordinates assigned)
COc1ccccc1C(=O)CC[N-]S(=O)(=O)c1cccc(S(=O)(=O)[NH+]2CCCC2)c1 (nonaromatic ring conformer: 55.272950860758 kcal/mol)

>  <smiles>  (42) 
COc1ccccc1C(=O)CCNS(=O)(=O)c1cccc(S(=O)(=O)N2CCCC2)c1

>  <score_type>  (42) 
oracle

>  <origin>  (42) 
adgpu

>  <m_score__min__energy>  (42) 
-10.960000000000001

>  <m_primary>  (42) 
energy

$$$$
42:0
     RDKit          3D

 62 65  0  0  0  0  0  0  0  0999 V2000
   -5.5260   17.7490  -33.9170 N   0  0  0  0  0  0  0  0  0  0  0  0
   -6.1720   18.8150  -33.2080 C   0  0  0  0  0  0  0  0  0  0  0  0
   -7.5680   18.7900  -33.0670 C   0  0  0  0  0  0  0  0  0  0  0  0
   -8.2410   19.8590  -32.4710 C   0  0  0  0  0  0  0  0  0  0  0  0
   -7.5290   20.9750  -32.0170 C   0  0  0  0  0  0  0  0  0  0  0  0
   -8.3870   22.3390  -31.2960 S   0  0  0  0  0  0  0  0  0  0  0  0
   -9.3860   21.8250  -30.2960 O   0  0  0  0  0  0  0  0  0  0  0  0
   -9.1390   23.0710  -32.3710 O   0  0  0  0  0  0  0  0  0  0  0  0
   -7.2880   23.4430  -30.5050 N   0  0  0  0  0  0  0  0  0  0  0  0
   -6.4130   22.7080  -29.5680 C   0  0  0  0  0  0  0  0  0  0  0  0
   -5.2130   23.5580  -29.0860 C   0  0  0  0  0  0  0  0  0  0  0  0
   -5.4430   25.0500  -29.3380 C   0  0  0  0  0  0  0  0  0  0  0  0
   -5.7170   25.3240  -30.8280 C   0  0  0  0  0  0  0  0  0  0  0  0
   -6.4970   24.1800  -31.5020 C   0  0  0  0  0  0  0  0  0  0  0  0
   -6.1340   21.0010  -32.1420 C   0  0  0  0  0  0  0  0  0  0  0  0
   -5.4450   19.9190  -32.7050 C   0  0  0  0  0  0  0  0  0  0  0  0
   -4.0140   19.9830  -32.7670 N   0  0  0  0  0  0  0  0  0  0  0  0
   -3.1580   20.0240  -31.6200 C   0  0  0  0  0  0  0  0  0  0  0  0
   -2.0540   19.4130  -31.6320 O   0  0  0  0  0  0  0  0  0  0  0  0
   -3.5970   20.7110  -30.4400 N   0  0  0  0  0  0  0  0  0  0  0  0
   -2.7370   21.0650  -29.3440 C   0  0  0  0  0  0  0  0  0  0  0  0
   -2.2700   20.0990  -28.4350 C   0  0  0  0  0  0  0  0  0  0  0  0
   -1.3970   20.4620  -27.4070 C   0  0  0  0  0  0  0  0  0  0  0  0
   -0.9730   21.7880  -27.2780 C   0  0  0  0  0  0  0  0  0  0  0  0
   -0.1120   22.1080  -26.2820 F   0  0  0  0  0  0  0  0  0  0  0  0
   -1.4290   22.7650  -28.1800 C   0  0  0  0  0  0  0  0  0  0  0  0
   -0.8890   24.4470  -28.0510 S   0  0  0  0  0  0  0  0  0  0  0  0
    0.5440   24.5460  -28.4990 O   0  0  0  0  0  0  0  0  0  0  0  0
   -1.7190   25.2950  -28.9730 O   0  0  0  0  0  0  0  0  0  0  0  0
   -1.0230   25.0840  -26.4300 N   0  0  0  0  0  0  0  0  0  0  0  0
    0.2800   25.2380  -25.7870 C   0  0  0  0  0  0  0  0  0  0  0  0
    0.1140   26.3240  -24.7320 C   0  0  0  0  0  0  0  0  0  0  0  0
   -1.1620   27.0610  -25.1120 C   0  0  0  0  0  0  0  0  0  0  0  0
   -1.6250   26.4140  -26.4070 C   0  0  0  0  0  0  0  0  0  0  0  0
   -2.2980   22.3930  -29.2170 C   0  0  0  0  0  0  0  0  0  0  0  0
   -6.0900   17.0140  -34.3990 H   0  0  0  0  0  0  0  0  0  0  0  0
   -4.4920   17.7280  -34.0550 H   0  0  0  0  0  0  0  0  0  0  0  0
   -8.1371   17.9211  -33.4290 H   0  0  0  0  0  0  0  0  0  0  0  0
   -9.3346   19.8236  -32.3581 H   0  0  0  0  0  0  0  0  0  0  0  0
   -7.0072   22.4082  -28.6922 H   0  0  0  0  0  0  0  0  0  0  0  0
   -6.0105   21.8348  -30.1023 H   0  0  0  0  0  0  0  0  0  0  0  0
   -5.0708   23.3958  -28.0074 H   0  0  0  0  0  0  0  0  0  0  0  0
   -4.3217   23.2468  -29.6506 H   0  0  0  0  0  0  0  0  0  0  0  0
   -6.3074   25.3854  -28.7460 H   0  0  0  0  0  0  0  0  0  0  0  0
   -4.5363   25.5983  -29.0426 H   0  0  0  0  0  0  0  0  0  0  0  0
   -6.3037   26.2505  -30.9147 H   0  0  0  0  0  0  0  0  0  0  0  0
   -4.7457   25.4126  -31.3366 H   0  0  0  0  0  0  0  0  0  0  0  0
   -7.1722   24.6000  -32.2621 H   0  0  0  0  0  0  0  0  0  0  0  0
   -5.7821   23.4890  -31.9726 H   0  0  0  0  0  0  0  0  0  0  0  0
   -5.5732   21.8811  -31.7941 H   0  0  0  0  0  0  0  0  0  0  0  0
   -4.6180   20.9150  -30.3550 H   0  0  0  0  0  0  0  0  0  0  0  0
   -2.5938   19.0524  -28.5341 H   0  0  0  0  0  0  0  0  0  0  0  0
   -1.0416   19.7016  -26.6960 H   0  0  0  0  0  0  0  0  0  0  0  0
    0.5852   24.2925  -25.3148 H   0  0  0  0  0  0  0  0  0  0  0  0
    1.0559   25.5082  -26.5184 H   0  0  0  0  0  0  0  0  0  0  0  0
    0.0177   25.8776  -23.7313 H   0  0  0  0  0  0  0  0  0  0  0  0
    0.9824   26.9984  -24.6973 H   0  0  0  0  0  0  0  0  0  0  0  0
   -1.9241   26.9426  -24.3276 H   0  0  0  0  0  0  0  0  0  0  0  0
   -0.9933   28.1416  -25.2296 H   0  0  0  0  0  0  0  0  0  0  0  0
   -2.7222   26.3373  -26.4250 H   0  0  0  0  0  0  0  0  0  0  0  0
   -1.3252   27.0072  -27.2835 H   0  0  0  0  0  0  0  0  0  0  0  0
   -2.6392   23.1500  -29.9385 H   0  0  0  0  0  0  0  0  0  0  0  0
  1  2  1  0
  2  3  2  0
  3  4  1  0
  4  5  2  0
  5  6  1  0
  6  7  2  0
  6  8  2  0
  6  9  1  0
  9 10  1  0
 10 11  1  0
 11 12  1  0
 12 13  1  0
 13 14  1  0
  5 15  1  0
 15 16  2  0
 16 17  1  0
 17 18  1  0
 18 19  2  0
 18 20  1  0
 20 21  1  0
 21 22  2  0
 22 23  1  0
 23 24  2  0
 24 25  1  0
 24 26  1  0
 26 27  1  0
 27 28  2  0
 27 29  2  0
 27 30  1  0
 30 31  1  0
 31 32  1  0
 32 33  1  0
 33 34  1  0
 26 35  2  0
 16  2  1  0
 35 21  1  0
 14  9  1  0
 34 30  1  0
  1 36  1  0
  1 37  1  0
  3 38  1  0
  4 39  1  0
 10 40  1  0
 10 41  1  0
 11 42  1  0
 11 43  1  0
 12 44  1  0
 12 45  1  0
 13 46  1  0
 13 47  1  0
 14 48  1  0
 14 49  1  0
 15 50  1  0
 20 51  1  0
 22 52  1  0
 23 53  1  0
 31 54  1  0
 31 55  1  0
 32 56  1  0
 32 57  1  0
 33 58  1  0
 33 59  1  0
 34 60  1  0
 34 61  1  0
 35 62  1  0
M  CHG  1  17  -1
M  END
>  <UniqueID>  (43) 
43

>  <SMILES>  (43) 
Nc1ccc(S(=O)(=O)N2CCCCC2)cc1[N-]C(=O)Nc1ccc(F)c(S(=O)(=O)N2CCCC2)c1

>  <Energy>  (43) 
77.54546798646398

>  <Genealogy>  (43) 
Nc1ccc(S(=O)(=O)N2CCCCC2)cc1[N-]C(=O)Nc1ccc(F)c(S(=O)(=O)N2CCCC2)c1 (protonated)
Nc1ccc(S(=O)(=O)N2CCCCC2)cc1[N-]C(=O)Nc1ccc(F)c(S(=O)(=O)N2CCCC2)c1 (3D coordinates assigned)
Nc1ccc(S(=O)(=O)N2CCCCC2)cc1[N-]C(=O)Nc1ccc(F)c(S(=O)(=O)N2CCCC2)c1 (nonaromatic ring conformer: 77.54546798646398 kcal/mol)

>  <smiles>  (43) 
Nc1ccc(S(=O)(=O)N2CCCCC2)cc1NC(=O)Nc1ccc(F)c(S(=O)(=O)N2CCCC2)c1

>  <score_type>  (43) 
oracle

>  <origin>  (43) 
adgpu

>  <m_score__min__energy>  (43) 
-11.539999999999999

>  <m_primary>  (43) 
energy

$$$$
43:0
     RDKit          3D

 83 87  0  0  0  0  0  0  0  0999 V2000
   -0.1030   22.4930  -23.3680 C   0  0  0  0  0  0  0  0  0  0  0  0
   -0.4590   22.1680  -24.8270 C   0  0  0  0  0  0  0  0  0  0  0  0
   -0.3150   23.3160  -25.9010 C   0  0  0  0  0  0  0  0  0  0  0  0
    1.0510   23.2140  -26.6700 C   0  0  0  0  0  0  0  0  0  0  0  0
    1.2890   21.9140  -27.4560 C   0  0  0  0  0  0  0  0  0  0  0  0
   -0.3250   24.6570  -25.0850 C   0  0  0  0  0  0  0  0  0  0  0  0
   -0.4970   25.9860  -25.9140 C   0  0  0  0  0  0  0  0  0  0  0  0
   -1.6340   26.8330  -25.3090 C   0  0  0  0  0  0  0  0  0  0  0  0
    0.7980   26.8260  -25.8660 C   0  0  0  0  0  0  0  0  0  0  0  0
   -0.8400   25.7070  -27.3140 N   0  0  0  0  0  0  0  0  0  0  0  0
   -1.6280   24.5610  -27.6500 C   0  0  0  0  0  0  0  0  0  0  0  0
   -2.5480   24.6280  -28.7040 C   0  0  0  0  0  0  0  0  0  0  0  0
   -3.3760   23.5390  -28.9860 C   0  0  0  0  0  0  0  0  0  0  0  0
   -4.5020   23.6280  -30.3360 S   0  0  0  0  0  0  0  0  0  0  0  0
   -4.2230   24.8950  -31.0950 O   0  0  0  0  0  0  0  0  0  0  0  0
   -5.9220   23.6850  -29.8450 O   0  0  0  0  0  0  0  0  0  0  0  0
   -4.2980   22.2160  -31.3920 C   0  0  0  0  0  0  0  0  0  0  0  0
   -3.0780   21.5250  -31.3520 C   0  0  0  0  0  0  0  0  0  0  0  0
   -2.8570   20.4130  -32.1640 C   0  0  0  0  0  0  0  0  0  0  0  0
   -3.8530   19.9640  -33.0410 C   0  0  0  0  0  0  0  0  0  0  0  0
   -3.6130   18.7910  -33.9190 C   0  0  0  0  0  0  0  0  0  0  0  0
   -4.6930   18.1190  -34.5210 C   0  0  0  0  0  0  0  0  0  0  0  0
   -4.4660   17.0100  -35.3410 C   0  0  0  0  0  0  0  0  0  0  0  0
   -3.1650   16.5630  -35.5720 C   0  0  0  0  0  0  0  0  0  0  0  0
   -2.0790   17.2240  -34.9860 C   0  0  0  0  0  0  0  0  0  0  0  0
   -0.4410   16.6390  -35.2600 S   0  0  0  0  0  0  0  0  0  0  0  0
    0.0870   15.6850  -33.8560 C   0  0  0  0  0  0  0  0  0  0  0  0
    0.4930   17.8000  -35.4560 O   0  0  0  0  0  0  0  0  0  0  0  0
   -0.4100   15.7820  -36.4940 O   0  0  0  0  0  0  0  0  0  0  0  0
   -2.3050   18.3330  -34.1580 C   0  0  0  0  0  0  0  0  0  0  0  0
   -5.0810   20.6420  -33.0800 C   0  0  0  0  0  0  0  0  0  0  0  0
   -5.3240   21.7560  -32.2580 C   0  0  0  0  0  0  0  0  0  0  0  0
   -6.6670   22.4430  -32.3690 C   0  0  0  0  0  0  0  0  0  0  0  0
   -7.7300   21.5990  -31.7930 N   0  0  0  0  0  0  0  0  0  0  0  0
   -8.0200   20.4420  -32.6420 C   0  0  0  0  0  0  0  0  0  0  0  0
   -9.4430   20.0190  -32.3220 C   0  0  0  0  0  0  0  0  0  0  0  0
  -10.1050   21.2540  -31.7300 C   0  0  0  0  0  0  0  0  0  0  0  0
   -9.0080   22.3070  -31.6580 C   0  0  0  0  0  0  0  0  0  0  0  0
   -3.2940   22.3860  -28.1960 C   0  0  0  0  0  0  0  0  0  0  0  0
   -2.3550   22.3040  -27.1640 C   0  0  0  0  0  0  0  0  0  0  0  0
   -1.4860   23.3830  -26.8940 C   0  0  0  0  0  0  0  0  0  0  0  0
   -0.7453   21.9066  -22.6945 H   0  0  0  0  0  0  0  0  0  0  0  0
    0.9511   22.2392  -23.1825 H   0  0  0  0  0  0  0  0  0  0  0  0
   -0.2600   23.5658  -23.1825 H   0  0  0  0  0  0  0  0  0  0  0  0
    0.1912   21.3397  -25.1451 H   0  0  0  0  0  0  0  0  0  0  0  0
   -1.5367   21.9490  -24.8034 H   0  0  0  0  0  0  0  0  0  0  0  0
    1.0992   24.0510  -27.3821 H   0  0  0  0  0  0  0  0  0  0  0  0
    1.8298   23.2368  -25.8935 H   0  0  0  0  0  0  0  0  0  0  0  0
    1.4412   21.0826  -26.7521 H   0  0  0  0  0  0  0  0  0  0  0  0
    0.4146   21.7030  -28.0891 H   0  0  0  0  0  0  0  0  0  0  0  0
    2.1815   22.0265  -28.0891 H   0  0  0  0  0  0  0  0  0  0  0  0
   -1.1546   24.6032  -24.3647 H   0  0  0  0  0  0  0  0  0  0  0  0
    0.6737   24.7266  -24.6292 H   0  0  0  0  0  0  0  0  0  0  0  0
   -1.5780   26.7913  -24.2112 H   0  0  0  0  0  0  0  0  0  0  0  0
   -1.5311   27.8763  -25.6420 H   0  0  0  0  0  0  0  0  0  0  0  0
   -2.6042   26.4358  -25.6420 H   0  0  0  0  0  0  0  0  0  0  0  0
    1.0784   27.0079  -24.8180 H   0  0  0  0  0  0  0  0  0  0  0  0
    1.6078   26.2807  -26.3729 H   0  0  0  0  0  0  0  0  0  0  0  0
    0.6302   27.7877  -26.3729 H   0  0  0  0  0  0  0  0  0  0  0  0
   -0.7880   26.4930  -28.0020 H   0  0  0  0  0  0  0  0  0  0  0  0
   -2.6187   25.5419  -29.3121 H   0  0  0  0  0  0  0  0  0  0  0  0
   -2.2843   21.8651  -30.6705 H   0  0  0  0  0  0  0  0  0  0  0  0
   -1.8935   19.8845  -32.1156 H   0  0  0  0  0  0  0  0  0  0  0  0
   -5.7212   18.4683  -34.3453 H   0  0  0  0  0  0  0  0  0  0  0  0
   -5.3157   16.4883  -35.8055 H   0  0  0  0  0  0  0  0  0  0  0  0
   -2.9919   15.6886  -36.2165 H   0  0  0  0  0  0  0  0  0  0  0  0
   -0.2007   16.2049  -32.9303 H   0  0  0  0  0  0  0  0  0  0  0  0
   -0.3916   14.6950  -33.8845 H   0  0  0  0  0  0  0  0  0  0  0  0
    1.1800   15.5648  -33.8845 H   0  0  0  0  0  0  0  0  0  0  0  0
   -1.4525   18.8487  -33.6918 H   0  0  0  0  0  0  0  0  0  0  0  0
   -5.8677   20.2954  -33.7663 H   0  0  0  0  0  0  0  0  0  0  0  0
   -6.6302   23.3990  -31.8261 H   0  0  0  0  0  0  0  0  0  0  0  0
   -6.8895   22.6179  -33.4320 H   0  0  0  0  0  0  0  0  0  0  0  0
   -7.9352   20.7185  -33.7033 H   0  0  0  0  0  0  0  0  0  0  0  0
   -7.3097   19.6231  -32.4550 H   0  0  0  0  0  0  0  0  0  0  0  0
   -9.9658   19.7025  -33.2366 H   0  0  0  0  0  0  0  0  0  0  0  0
   -9.4712   19.1660  -31.6281 H   0  0  0  0  0  0  0  0  0  0  0  0
  -10.9261   21.5975  -32.3764 H   0  0  0  0  0  0  0  0  0  0  0  0
  -10.5406   21.0496  -30.7409 H   0  0  0  0  0  0  0  0  0  0  0  0
   -9.1264   23.0335  -32.4754 H   0  0  0  0  0  0  0  0  0  0  0  0
   -9.0540   22.8600  -30.7082 H   0  0  0  0  0  0  0  0  0  0  0  0
   -3.9715   21.5410  -28.3884 H   0  0  0  0  0  0  0  0  0  0  0  0
   -2.2926   21.3894  -26.5561 H   0  0  0  0  0  0  0  0  0  0  0  0
  1  2  1  0
  2  3  1  0
  3  4  1  0
  4  5  1  0
  3  6  1  0
  6  7  1  0
  7  8  1  0
  7  9  1  0
  7 10  1  0
 10 11  1  0
 11 12  2  0
 12 13  1  0
 13 14  1  0
 14 15  2  0
 14 16  2  0
 14 17  1  0
 17 18  2  0
 18 19  1  0
 19 20  2  0
 20 21  1  0
 21 22  2  0
 22 23  1  0
 23 24  2  0
 24 25  1  0
 25 26  1  0
 26 27  1  0
 26 28  2  0
 26 29  2  0
 25 30  2  0
 20 31  1  0
 31 32  2  0
 32 33  1  0
 33 34  1  0
 34 35  1  0
 35 36  1  0
 36 37  1  0
 37 38  1  0
 13 39  2  0
 39 40  1  0
 40 41  2  0
 41  3  1  0
 41 11  1  0
 32 17  1  0
 38 34  1  0
 30 21  1  0
  1 42  1  0
  1 43  1  0
  1 44  1  0
  2 45  1  0
  2 46  1  0
  4 47  1  0
  4 48  1  0
  5 49  1  0
  5 50  1  0
  5 51  1  0
  6 52  1  0
  6 53  1  0
  8 54  1  0
  8 55  1  0
  8 56  1  0
  9 57  1  0
  9 58  1  0
  9 59  1  0
 10 60  1  0
 12 61  1  0
 18 62  1  0
 19 63  1  0
 22 64  1  0
 23 65  1  0
 24 66  1  0
 27 67  1  0
 27 68  1  0
 27 69  1  0
 30 70  1  0
 31 71  1  0
 33 72  1  0
 33 73  1  0
 35 74  1  0
 35 75  1  0
 36 76  1  0
 36 77  1  0
 37 78  1  0
 37 79  1  0
 38 80  1  0
 38 81  1  0
 39 82  1  0
 40 83  1  0
M  END
>  <UniqueID>  (44) 
44

>  <SMILES>  (44) 
CCC1(CC)CC(C)(C)Nc2cc(S(=O)(=O)c3ccc(-c4cccc(S(C)(=O)=O)c4)cc3CN3CCCC3)ccc21

>  <Energy>  (44) 
107.69627962426232

>  <Genealogy>  (44) 
CCC1(CC)CC(C)(C)Nc2cc(S(=O)(=O)c3ccc(-c4cccc(S(C)(=O)=O)c4)cc3CN3CCCC3)ccc21 (3D coordinates assigned)
CCC1(CC)CC(C)(C)Nc2cc(S(=O)(=O)c3ccc(-c4cccc(S(C)(=O)=O)c4)cc3CN3CCCC3)ccc21 (nonaromatic ring conformer: 107.69627962426232 kcal/mol)

>  <smiles>  (44) 
CCC1(CC)CC(C)(C)Nc2cc(S(=O)(=O)c3ccc(-c4cccc(S(C)(=O)=O)c4)cc3CN3CCCC3)ccc21

>  <score_type>  (44) 
oracle

>  <origin>  (44) 
adgpu

>  <m_score__min__energy>  (44) 
-11.25

>  <m_primary>  (44) 
energy

$$$$
44:0
     RDKit          3D

 60 63  0  0  0  0  0  0  0  0999 V2000
   -6.1180   16.2810  -33.7960 C   0  0  0  0  0  0  0  0  0  0  0  0
   -6.6390   17.5650  -33.2370 C   0  0  0  0  0  0  0  0  0  0  0  0
   -5.8650   18.6290  -32.8240 C   0  0  0  0  0  0  0  0  0  0  0  0
   -6.7600   19.5940  -32.3930 C   0  0  0  0  0  0  0  0  0  0  0  0
   -6.4010   20.9340  -31.8760 C   0  0  0  0  0  0  0  0  0  0  0  0
   -5.2160   21.5740  -32.2830 C   0  0  0  0  0  0  0  0  0  0  0  0
   -4.8820   22.8330  -31.7760 C   0  0  0  0  0  0  0  0  0  0  0  0
   -5.7260   23.4760  -30.8670 C   0  0  0  0  0  0  0  0  0  0  0  0
   -5.2600   25.0410  -30.2040 S   0  0  0  0  0  0  0  0  0  0  0  0
   -5.9850   25.3260  -28.9170 O   0  0  0  0  0  0  0  0  0  0  0  0
   -5.6120   26.1120  -31.1990 O   0  0  0  0  0  0  0  0  0  0  0  0
   -3.5480   25.0600  -29.9290 N   0  0  0  0  0  0  0  0  0  0  0  0
   -2.8200   24.0550  -29.2100 C   0  0  0  0  0  0  0  0  0  0  0  0
   -1.4220   24.0390  -29.3050 C   0  0  0  0  0  0  0  0  0  0  0  0
   -0.6780   23.0550  -28.6470 C   0  0  0  0  0  0  0  0  0  0  0  0
   -1.3260   22.0770  -27.8750 C   0  0  0  0  0  0  0  0  0  0  0  0
   -0.5230   21.0060  -27.1850 C   0  0  0  0  0  0  0  0  0  0  0  0
    0.2980   20.2860  -28.1620 N   0  0  0  0  0  0  0  0  0  0  0  0
   -0.4870   19.2670  -28.8790 C   0  0  0  0  0  0  0  0  0  0  0  0
    0.1330   18.9730  -30.2600 C   0  0  2  0  0  0  0  0  0  0  0  0
    1.4980   19.3160  -30.3200 O   0  0  0  0  0  0  0  0  0  0  0  0
   -0.6620   19.6260  -31.3750 C   0  0  0  0  0  0  0  0  0  0  0  0
   -0.9830   20.9950  -31.3550 C   0  0  0  0  0  0  0  0  0  0  0  0
   -1.7770   21.5440  -32.3630 C   0  0  0  0  0  0  0  0  0  0  0  0
   -2.2670   20.7200  -33.3750 C   0  0  0  0  0  0  0  0  0  0  0  0
   -1.9740   19.3920  -33.3710 N   0  0  0  0  0  0  0  0  0  0  0  0
   -1.1990   18.8340  -32.4020 C   0  0  0  0  0  0  0  0  0  0  0  0
   -2.7270   22.0950  -27.7720 C   0  0  0  0  0  0  0  0  0  0  0  0
   -3.4660   23.0770  -28.4380 C   0  0  0  0  0  0  0  0  0  0  0  0
   -6.9150   22.8530  -30.4730 C   0  0  0  0  0  0  0  0  0  0  0  0
   -7.2540   21.5930  -30.9770 C   0  0  0  0  0  0  0  0  0  0  0  0
   -8.0290   19.0580  -32.6020 C   0  0  0  0  0  0  0  0  0  0  0  0
   -9.3510   19.7120  -32.3380 C   0  0  0  0  0  0  0  0  0  0  0  0
   -7.9170   17.8460  -33.0970 O   0  0  0  0  0  0  0  0  0  0  0  0
   -5.8443   15.6064  -32.9714 H   0  0  0  0  0  0  0  0  0  0  0  0
   -6.8953   15.8080  -34.4141 H   0  0  0  0  0  0  0  0  0  0  0  0
   -5.2308   16.4834  -34.4141 H   0  0  0  0  0  0  0  0  0  0  0  0
   -4.7672   18.6970  -32.8347 H   0  0  0  0  0  0  0  0  0  0  0  0
   -4.5483   21.0806  -33.0046 H   0  0  0  0  0  0  0  0  0  0  0  0
   -3.9489   23.3206  -32.0946 H   0  0  0  0  0  0  0  0  0  0  0  0
   -0.9063   24.8060  -29.9015 H   0  0  0  0  0  0  0  0  0  0  0  0
    0.4185   23.0468  -28.7343 H   0  0  0  0  0  0  0  0  0  0  0  0
    0.1306   21.4696  -26.4314 H   0  0  0  0  0  0  0  0  0  0  0  0
   -1.2096   20.2973  -26.6989 H   0  0  0  0  0  0  0  0  0  0  0  0
    1.0770   19.8030  -27.6490 H   0  0  0  0  0  0  0  0  0  0  0  0
   -0.5034   18.3407  -28.2860 H   0  0  0  0  0  0  0  0  0  0  0  0
   -1.5095   19.6457  -29.0239 H   0  0  0  0  0  0  0  0  0  0  0  0
    0.0790   17.8844  -30.4086 H   0  0  0  0  0  0  0  0  0  0  0  0
    1.6770   20.0310  -29.6590 H   0  0  0  0  0  0  0  0  0  0  0  0
   -0.6073   21.6348  -30.5428 H   0  0  0  0  0  0  0  0  0  0  0  0
   -2.0142   22.6181  -32.3589 H   0  0  0  0  0  0  0  0  0  0  0  0
   -2.8903   21.1437  -34.1763 H   0  0  0  0  0  0  0  0  0  0  0  0
   -0.9916   17.7539  -32.4235 H   0  0  0  0  0  0  0  0  0  0  0  0
   -3.2431   21.3354  -27.1665 H   0  0  0  0  0  0  0  0  0  0  0  0
   -4.5629   23.0833  -28.3563 H   0  0  0  0  0  0  0  0  0  0  0  0
   -7.5871   23.3569  -29.7628 H   0  0  0  0  0  0  0  0  0  0  0  0
   -8.1952   21.1155  -30.6668 H   0  0  0  0  0  0  0  0  0  0  0  0
   -9.5107   19.7910  -31.2525 H   0  0  0  0  0  0  0  0  0  0  0  0
   -9.3582   20.7176  -32.7838 H   0  0  0  0  0  0  0  0  0  0  0  0
  -10.1546   19.1075  -32.7838 H   0  0  0  0  0  0  0  0  0  0  0  0
  1  2  1  0
  2  3  2  0
  3  4  1  0
  4  5  1  0
  5  6  2  0
  6  7  1  0
  7  8  2  0
  8  9  1  0
  9 10  2  0
  9 11  2  0
  9 12  1  0
 12 13  1  0
 13 14  2  0
 14 15  1  0
 15 16  2  0
 16 17  1  0
 17 18  1  0
 18 19  1  0
 19 20  1  0
 20 21  1  0
 20 22  1  0
 22 23  2  0
 23 24  1  0
 24 25  2  0
 25 26  1  0
 26 27  2  0
 16 28  1  0
 28 29  2  0
  8 30  1  0
 30 31  2  0
  4 32  2  0
 32 33  1  0
 32 34  1  0
 34  2  1  0
 31  5  1  0
 29 13  1  0
 27 22  1  0
  1 35  1  0
  1 36  1  0
  1 37  1  0
  3 38  1  0
  6 39  1  0
  7 40  1  0
 14 41  1  0
 15 42  1  0
 17 43  1  0
 17 44  1  0
 18 45  1  0
 19 46  1  0
 19 47  1  0
 20 48  1  6
 21 49  1  0
 23 50  1  0
 24 51  1  0
 25 52  1  0
 27 53  1  0
 28 54  1  0
 29 55  1  0
 30 56  1  0
 31 57  1  0
 33 58  1  0
 33 59  1  0
 33 60  1  0
M  CHG  1  12  -1
M  END
>  <UniqueID>  (45) 
45

>  <SMILES>  (45) 
Cc1cc(-c2ccc(S(=O)(=O)[N-]c3ccc(CNC[C@H](O)c4cccnc4)cc3)cc2)c(C)o1

>  <Energy>  (45) 
97.06506082256746

>  <Genealogy>  (45) 
Cc1cc(-c2ccc(S(=O)(=O)[N-]c3ccc(CNCC(O)c4cccnc4)cc3)cc2)c(C)o1 (protonated)
Cc1cc(-c2ccc(S(=O)(=O)[N-]c3ccc(CNC[C@H](O)c4cccnc4)cc3)cc2)c(C)o1 (chirality)
Cc1cc(-c2ccc(S(=O)(=O)[N-]c3ccc(CNC[C@H](O)c4cccnc4)cc3)cc2)c(C)o1 (3D coordinates assigned)
Cc1cc(-c2ccc(S(=O)(=O)[N-]c3ccc(CNC[C@H](O)c4cccnc4)cc3)cc2)c(C)o1 (optimized conformer: 97.06506082256746 kcal/mol)

>  <smiles>  (45) 
Cc1cc(-c2ccc(S(=O)(=O)Nc3ccc(CNCC(O)c4cccnc4)cc3)cc2)c(C)o1

>  <score_type>  (45) 
oracle

>  <origin>  (45) 
adgpu

>  <m_score__min__energy>  (45) 
-11.800000000000001

>  <m_primary>  (45) 
energy

$$$$
45:0
     RDKit          3D

 59 62  0  0  0  0  0  0  0  0999 V2000
   -4.6300   15.3590  -32.7490 C   0  0  0  0  0  0  0  0  0  0  0  0
   -4.7590   16.5900  -33.5460 N   0  0  0  0  0  0  0  0  0  0  0  0
   -4.4570   17.8080  -32.7750 C   0  0  0  0  0  0  0  0  0  0  0  0
   -5.5810   18.1880  -31.7950 C   0  0  0  0  0  0  0  0  0  0  0  0
   -6.9180   18.1990  -32.4150 N   0  0  0  0  0  0  0  0  0  0  0  0
   -7.3660   19.7420  -33.1140 S   0  0  0  0  0  0  0  0  0  0  0  0
   -8.8660   19.8180  -33.1810 O   0  0  0  0  0  0  0  0  0  0  0  0
   -6.8460   19.8270  -34.5220 O   0  0  0  0  0  0  0  0  0  0  0  0
   -6.7750   21.1360  -32.2060 C   0  0  0  0  0  0  0  0  0  0  0  0
   -7.6790   21.9840  -31.5470 C   0  0  0  0  0  0  0  0  0  0  0  0
   -7.2160   23.1190  -30.8740 C   0  0  0  0  0  0  0  0  0  0  0  0
   -5.8500   23.4230  -30.8570 C   0  0  0  0  0  0  0  0  0  0  0  0
   -5.2780   24.8610  -30.0160 S   0  0  0  0  0  0  0  0  0  0  0  0
   -4.2350   25.5670  -30.8360 O   0  0  0  0  0  0  0  0  0  0  0  0
   -6.4370   25.7970  -29.8200 O   0  0  0  0  0  0  0  0  0  0  0  0
   -4.6050   24.4680  -28.4680 N   0  0  0  0  0  0  0  0  0  0  0  0
   -3.4370   23.6540  -28.3210 C   0  0  0  0  0  0  0  0  0  0  0  0
   -3.5430   22.3480  -27.8240 C   0  0  0  0  0  0  0  0  0  0  0  0
   -2.4010   21.5510  -27.6640 C   0  0  0  0  0  0  0  0  0  0  0  0
   -1.1390   22.0530  -28.0460 C   0  0  0  0  0  0  0  0  0  0  0  0
   -1.0320   23.3740  -28.5050 C   0  0  0  0  0  0  0  0  0  0  0  0
   -2.1700   24.1770  -28.6390 C   0  0  0  0  0  0  0  0  0  0  0  0
   -2.0180   25.4850  -29.1000 O   0  0  0  0  0  0  0  0  0  0  0  0
    0.1140   21.2280  -27.8620 C   0  0  0  0  0  0  0  0  0  0  0  0
   -0.1570   19.7810  -27.7560 N   0  0  0  0  0  0  0  0  0  0  0  0
   -0.4320   19.1720  -29.0690 C   0  0  0  0  0  0  0  0  0  0  0  0
   -1.2180   19.5030  -26.7680 C   0  0  0  0  0  0  0  0  0  0  0  0
   -2.5590   20.1470  -27.1480 C   0  0  0  0  0  0  0  0  0  0  0  0
   -4.9450   22.5760  -31.5160 C   0  0  0  0  0  0  0  0  0  0  0  0
   -5.4070   21.4460  -32.1960 C   0  0  0  0  0  0  0  0  0  0  0  0
   -7.2050   17.0360  -33.2740 C   0  0  0  0  0  0  0  0  0  0  0  0
   -6.0560   16.6960  -34.2340 C   0  0  0  0  0  0  0  0  0  0  0  0
   -4.6564   15.6108  -31.6785 H   0  0  0  0  0  0  0  0  0  0  0  0
   -5.4619   14.6796  -32.9865 H   0  0  0  0  0  0  0  0  0  0  0  0
   -3.6754   14.8668  -32.9865 H   0  0  0  0  0  0  0  0  0  0  0  0
   -3.5329   17.6411  -32.2021 H   0  0  0  0  0  0  0  0  0  0  0  0
   -4.3492   18.6353  -33.4919 H   0  0  0  0  0  0  0  0  0  0  0  0
   -5.5851   17.4606  -30.9698 H   0  0  0  0  0  0  0  0  0  0  0  0
   -5.3760   19.2108  -31.4460 H   0  0  0  0  0  0  0  0  0  0  0  0
   -8.7548   21.7550  -31.5600 H   0  0  0  0  0  0  0  0  0  0  0  0
   -7.9292   23.7764  -30.3552 H   0  0  0  0  0  0  0  0  0  0  0  0
   -4.5310   21.9448  -27.5571 H   0  0  0  0  0  0  0  0  0  0  0  0
   -0.0437   23.7828  -28.7622 H   0  0  0  0  0  0  0  0  0  0  0  0
   -2.8120   26.0690  -29.3410 H   0  0  0  0  0  0  0  0  0  0  0  0
    0.7753   21.3983  -28.7244 H   0  0  0  0  0  0  0  0  0  0  0  0
    0.5801   21.5449  -26.9174 H   0  0  0  0  0  0  0  0  0  0  0  0
   -0.8808   18.1781  -28.9254 H   0  0  0  0  0  0  0  0  0  0  0  0
   -1.1288   19.8112  -29.6310 H   0  0  0  0  0  0  0  0  0  0  0  0
    0.5083   19.0720  -29.6310 H   0  0  0  0  0  0  0  0  0  0  0  0
   -1.3572   18.4142  -26.6969 H   0  0  0  0  0  0  0  0  0  0  0  0
   -0.9008   19.9339  -25.8069 H   0  0  0  0  0  0  0  0  0  0  0  0
   -3.0344   19.5359  -27.9294 H   0  0  0  0  0  0  0  0  0  0  0  0
   -3.1756   20.1939  -26.2383 H   0  0  0  0  0  0  0  0  0  0  0  0
   -3.8687   22.8025  -31.4970 H   0  0  0  0  0  0  0  0  0  0  0  0
   -4.6946   20.7966  -32.7259 H   0  0  0  0  0  0  0  0  0  0  0  0
   -7.3929   16.1638  -32.6306 H   0  0  0  0  0  0  0  0  0  0  0  0
   -8.0805   17.2915  -33.8890 H   0  0  0  0  0  0  0  0  0  0  0  0
   -6.2763   15.7348  -34.7214 H   0  0  0  0  0  0  0  0  0  0  0  0
   -5.9798   17.5130  -34.9666 H   0  0  0  0  0  0  0  0  0  0  0  0
  1  2  1  0
  2  3  1  0
  3  4  1  0
  4  5  1  0
  5  6  1  0
  6  7  2  0
  6  8  2  0
  6  9  1  0
  9 10  2  0
 10 11  1  0
 11 12  2  0
 12 13  1  0
 13 14  2  0
 13 15  2  0
 13 16  1  0
 16 17  1  0
 17 18  2  0
 18 19  1  0
 19 20  2  0
 20 21  1  0
 21 22  2  0
 22 23  1  0
 20 24  1  0
 24 25  1  0
 25 26  1  0
 25 27  1  0
 27 28  1  0
 12 29  1  0
 29 30  2  0
  5 31  1  0
 31 32  1  0
 32  2  1  0
 30  9  1  0
 22 17  1  0
 28 19  1  0
  1 33  1  0
  1 34  1  0
  1 35  1  0
  3 36  1  0
  3 37  1  0
  4 38  1  0
  4 39  1  0
 10 40  1  0
 11 41  1  0
 18 42  1  0
 21 43  1  0
 23 44  1  0
 24 45  1  0
 24 46  1  0
 26 47  1  0
 26 48  1  0
 26 49  1  0
 27 50  1  0
 27 51  1  0
 28 52  1  0
 28 53  1  0
 29 54  1  0
 30 55  1  0
 31 56  1  0
 31 57  1  0
 32 58  1  0
 32 59  1  0
M  CHG  1  16  -1
M  END
>  <UniqueID>  (46) 
46

>  <SMILES>  (46) 
CN1CCN(S(=O)(=O)c2ccc(S(=O)(=O)[N-]c3cc4c(cc3O)CN(C)CC4)cc2)CC1

>  <Energy>  (46) 
79.23165905060452

>  <Genealogy>  (46) 
CN1CCN(S(=O)(=O)c2ccc(S(=O)(=O)[N-]c3cc4c(cc3O)CN(C)CC4)cc2)CC1 (protonated)
CN1CCN(S(=O)(=O)c2ccc(S(=O)(=O)[N-]c3cc4c(cc3O)CN(C)CC4)cc2)CC1 (3D coordinates assigned)
CN1CCN(S(=O)(=O)c2ccc(S(=O)(=O)[N-]c3cc4c(cc3O)CN(C)CC4)cc2)CC1 (nonaromatic ring conformer: 79.23165905060452 kcal/mol)

>  <smiles>  (46) 
CN1CCN(S(=O)(=O)c2ccc(S(=O)(=O)Nc3cc4c(cc3O)CN(C)CC4)cc2)CC1

>  <score_type>  (46) 
oracle

>  <origin>  (46) 
adgpu

>  <m_score__min__energy>  (46) 
-13.960000000000001

>  <m_primary>  (46) 
energy

$$$$
46:0
     RDKit          3D

 58 61  0  0  0  0  0  0  0  0999 V2000
   -4.9400   26.1810  -30.4860 O   0  0  0  0  0  0  0  0  0  0  0  0
   -4.2690   25.1210  -30.5760 C   0  0  0  0  0  0  0  0  0  0  0  0
   -3.1130   24.9600  -29.7420 N   0  0  0  0  0  0  0  0  0  0  0  0
   -2.7940   23.8100  -28.9460 C   0  0  0  0  0  0  0  0  0  0  0  0
   -1.9250   23.8890  -27.8440 C   0  0  0  0  0  0  0  0  0  0  0  0
   -1.6070   22.7390  -27.1140 C   0  0  0  0  0  0  0  0  0  0  0  0
   -2.1820   21.5080  -27.4540 C   0  0  0  0  0  0  0  0  0  0  0  0
   -1.7620   20.0540  -26.5500 S   0  0  0  0  0  0  0  0  0  0  0  0
   -2.8780   19.0510  -26.6630 O   0  0  0  0  0  0  0  0  0  0  0  0
   -1.5920   20.4180  -25.1010 O   0  0  0  0  0  0  0  0  0  0  0  0
   -0.2730   19.3630  -27.1560 N   0  0  0  0  0  0  0  0  0  0  0  0
    0.2350   20.1130  -28.3260 C   0  0  0  0  0  0  0  0  0  0  0  0
   -0.0830   19.3980  -29.6520 C   0  0  0  0  0  0  0  0  0  0  0  0
    0.4570   18.0850  -29.7340 O   0  0  0  0  0  0  0  0  0  0  0  0
    0.5460   17.4250  -28.4780 C   0  0  0  0  0  0  0  0  0  0  0  0
   -0.4690   17.9260  -27.4360 C   0  0  0  0  0  0  0  0  0  0  0  0
   -3.0910   21.4400  -28.5200 C   0  0  0  0  0  0  0  0  0  0  0  0
   -3.3970   22.5860  -29.2570 C   0  0  0  0  0  0  0  0  0  0  0  0
   -4.6810   24.1160  -31.5120 N   0  0  0  0  0  0  0  0  0  0  0  0
   -5.8170   23.2490  -31.3700 C   0  0  0  0  0  0  0  0  0  0  0  0
   -6.8690   23.5590  -30.4920 C   0  0  0  0  0  0  0  0  0  0  0  0
   -7.9430   22.6770  -30.3420 C   0  0  0  0  0  0  0  0  0  0  0  0
   -7.9840   21.4910  -31.0770 C   0  0  0  0  0  0  0  0  0  0  0  0
   -6.9550   21.1850  -31.9810 C   0  0  0  0  0  0  0  0  0  0  0  0
   -6.9950   19.6810  -32.9030 S   0  0  0  0  0  0  0  0  0  0  0  0
   -8.3090   18.9790  -32.6970 O   0  0  0  0  0  0  0  0  0  0  0  0
   -6.8600   20.0220  -34.3610 O   0  0  0  0  0  0  0  0  0  0  0  0
   -5.6650   18.6570  -32.4070 N   0  0  0  0  0  0  0  0  0  0  0  0
   -6.1090   17.2740  -32.1490 C   0  0  0  0  0  0  0  0  0  0  0  0
   -6.3540   16.4790  -33.4550 C   0  0  0  0  0  0  0  0  0  0  0  0
   -5.7960   17.0910  -34.6040 O   0  0  0  0  0  0  0  0  0  0  0  0
   -4.4880   17.5330  -34.3250 C   0  0  0  0  0  0  0  0  0  0  0  0
   -4.5260   18.7230  -33.3500 C   0  0  0  0  0  0  0  0  0  0  0  0
   -5.8730   22.0700  -32.1270 C   0  0  0  0  0  0  0  0  0  0  0  0
   -4.8370   21.7710  -33.0070 O   0  0  0  0  0  0  0  0  0  0  0  0
   -1.4935   24.8586  -27.5547 H   0  0  0  0  0  0  0  0  0  0  0  0
   -0.9035   22.8016  -26.2707 H   0  0  0  0  0  0  0  0  0  0  0  0
   -0.2313   21.1092  -28.3390 H   0  0  0  0  0  0  0  0  0  0  0  0
    1.3286   20.1867  -28.2336 H   0  0  0  0  0  0  0  0  0  0  0  0
   -1.1759   19.3319  -29.7582 H   0  0  0  0  0  0  0  0  0  0  0  0
    0.3803   19.9884  -30.4563 H   0  0  0  0  0  0  0  0  0  0  0  0
    0.3751   16.3503  -28.6388 H   0  0  0  0  0  0  0  0  0  0  0  0
    1.5474   17.6385  -28.0759 H   0  0  0  0  0  0  0  0  0  0  0  0
   -1.4873   17.7701  -27.8216 H   0  0  0  0  0  0  0  0  0  0  0  0
   -0.3205   17.3632  -26.5026 H   0  0  0  0  0  0  0  0  0  0  0  0
   -3.5644   20.4808  -28.7763 H   0  0  0  0  0  0  0  0  0  0  0  0
   -4.1164   22.5263  -30.0870 H   0  0  0  0  0  0  0  0  0  0  0  0
   -6.8475   24.4988  -29.9208 H   0  0  0  0  0  0  0  0  0  0  0  0
   -8.7576   22.9180  -29.6432 H   0  0  0  0  0  0  0  0  0  0  0  0
   -8.8252   20.7942  -30.9473 H   0  0  0  0  0  0  0  0  0  0  0  0
   -5.3350   16.7584  -31.5615 H   0  0  0  0  0  0  0  0  0  0  0  0
   -7.0628   17.3244  -31.6033 H   0  0  0  0  0  0  0  0  0  0  0  0
   -5.9088   15.4794  -33.3424 H   0  0  0  0  0  0  0  0  0  0  0  0
   -7.4425   16.4371  -33.6080 H   0  0  0  0  0  0  0  0  0  0  0  0
   -3.9153   16.7103  -33.8721 H   0  0  0  0  0  0  0  0  0  0  0  0
   -4.0093   17.8522  -35.2625 H   0  0  0  0  0  0  0  0  0  0  0  0
   -3.5907   18.7328  -32.7710 H   0  0  0  0  0  0  0  0  0  0  0  0
   -4.6452   19.6378  -33.9491 H   0  0  0  0  0  0  0  0  0  0  0  0
  1  2  2  0
  2  3  1  0
  3  4  1  0
  4  5  2  0
  5  6  1  0
  6  7  2  0
  7  8  1  0
  8  9  2  0
  8 10  2  0
  8 11  1  0
 11 12  1  0
 12 13  1  0
 13 14  1  0
 14 15  1  0
 15 16  1  0
  7 17  1  0
 17 18  2  0
  2 19  1  0
 19 20  1  0
 20 21  2  0
 21 22  1  0
 22 23  2  0
 23 24  1  0
 24 25  1  0
 25 26  2  0
 25 27  2  0
 25 28  1  0
 28 29  1  0
 29 30  1  0
 30 31  1  0
 31 32  1  0
 32 33  1  0
 24 34  2  0
 34 35  1  0
 18  4  1  0
 34 20  1  0
 16 11  1  0
 33 28  1  0
  5 36  1  0
  6 37  1  0
 12 38  1  0
 12 39  1  0
 13 40  1  0
 13 41  1  0
 15 42  1  0
 15 43  1  0
 16 44  1  0
 16 45  1  0
 17 46  1  0
 18 47  1  0
 21 48  1  0
 22 49  1  0
 23 50  1  0
 29 51  1  0
 29 52  1  0
 30 53  1  0
 30 54  1  0
 32 55  1  0
 32 56  1  0
 33 57  1  0
 33 58  1  0
M  CHG  3   3  -1  19  -1  35  -1
M  END
>  <UniqueID>  (47) 
47

>  <SMILES>  (47) 
O=C([N-]c1ccc(S(=O)(=O)N2CCOCC2)cc1)[N-]c1cccc(S(=O)(=O)N2CCOCC2)c1[O-]

>  <Energy>  (47) 
86.61001059873647

>  <Genealogy>  (47) 
O=C([N-]c1ccc(S(=O)(=O)N2CCOCC2)cc1)[N-]c1cccc(S(=O)(=O)N2CCOCC2)c1[O-] (protonated)
O=C([N-]c1ccc(S(=O)(=O)N2CCOCC2)cc1)[N-]c1cccc(S(=O)(=O)N2CCOCC2)c1[O-] (3D coordinates assigned)
O=C([N-]c1ccc(S(=O)(=O)N2CCOCC2)cc1)[N-]c1cccc(S(=O)(=O)N2CCOCC2)c1[O-] (nonaromatic ring conformer: 86.61001059873647 kcal/mol)

>  <smiles>  (47) 
O=C(Nc1ccc(S(=O)(=O)N2CCOCC2)cc1)Nc1cccc(S(=O)(=O)N2CCOCC2)c1O

>  <score_type>  (47) 
oracle

>  <origin>  (47) 
adgpu

>  <m_score__min__energy>  (47) 
-16.829999999999998

>  <m_primary>  (47) 
energy

$$$$
47:0
     RDKit          3D

 24 25  0  0  0  0  0  0  0  0999 V2000
   -2.5420   23.1050  -28.0510 S   0  0  0  0  0  0  0  0  0  0  0  0
   -3.3940   23.8130  -29.2520 C   0  0  0  0  0  0  0  0  0  0  0  0
   -4.5650   23.3380  -29.7170 N   0  0  0  0  0  0  0  0  0  0  0  0
   -4.8620   24.2440  -30.6760 C   0  0  0  0  0  0  0  0  0  0  0  0
   -6.0660   24.1460  -31.5570 C   0  0  0  0  0  0  0  0  0  0  0  0
   -7.2270   23.4910  -30.8060 C   0  0  0  0  0  0  0  0  0  0  0  0
   -7.6470   22.2180  -31.4880 C   0  0  0  0  0  0  0  0  0  0  0  0
   -6.6920   21.4080  -32.1270 C   0  0  0  0  0  0  0  0  0  0  0  0
   -7.0780   20.2090  -32.7340 C   0  0  0  0  0  0  0  0  0  0  0  0
   -8.4150   19.8050  -32.6990 C   0  0  0  0  0  0  0  0  0  0  0  0
   -9.3690   20.5970  -32.0540 C   0  0  0  0  0  0  0  0  0  0  0  0
   -8.9870   21.7980  -31.4460 C   0  0  0  0  0  0  0  0  0  0  0  0
   -3.9210   25.2020  -30.8020 N   0  0  0  0  0  0  0  0  0  0  0  0
   -3.0040   24.9240  -29.8960 N   0  0  0  0  0  0  0  0  0  0  0  0
   -6.3646   25.1556  -31.8757 H   0  0  0  0  0  0  0  0  0  0  0  0
   -5.8165   23.5301  -32.4336 H   0  0  0  0  0  0  0  0  0  0  0  0
   -6.9096   23.2627  -29.7778 H   0  0  0  0  0  0  0  0  0  0  0  0
   -8.0797   24.1858  -30.7953 H   0  0  0  0  0  0  0  0  0  0  0  0
   -5.6370   21.7187  -32.1495 H   0  0  0  0  0  0  0  0  0  0  0  0
   -6.3281   19.5830  -33.2397 H   0  0  0  0  0  0  0  0  0  0  0  0
   -8.7171   18.8627  -33.1795 H   0  0  0  0  0  0  0  0  0  0  0  0
  -10.4207   20.2760  -32.0243 H   0  0  0  0  0  0  0  0  0  0  0  0
   -9.7389   22.4157  -30.9331 H   0  0  0  0  0  0  0  0  0  0  0  0
   -2.1360   25.4810  -29.7330 H   0  0  0  0  0  0  0  0  0  0  0  0
  1  2  2  0
  2  3  1  0
  3  4  1  0
  4  5  1  0
  5  6  1  0
  6  7  1  0
  7  8  2  0
  8  9  1  0
  9 10  2  0
 10 11  1  0
 11 12  2  0
  4 13  2  0
 13 14  1  0
 14  2  1  0
 12  7  1  0
  5 15  1  0
  5 16  1  0
  6 17  1  0
  6 18  1  0
  8 19  1  0
  9 20  1  0
 10 21  1  0
 11 22  1  0
 12 23  1  0
 14 24  1  0
M  CHG  1   3  -1
M  END
>  <UniqueID>  (48) 
48

>  <SMILES>  (48) 
S=c1[n-]c(CCc2ccccc2)n[nH]1

>  <Energy>  (48) 
53.23202489554994

>  <Genealogy>  (48) 
S=c1[n-]c(CCc2ccccc2)n[nH]1 (protonated)
S=c1[n-]c(CCc2ccccc2)n[nH]1 (3D coordinates assigned)
S=c1[n-]c(CCc2ccccc2)n[nH]1 (optimized conformer: 53.23202489554994 kcal/mol)

>  <smiles>  (48) 
S=c1[nH]nc(CCc2ccccc2)[nH]1

>  <score_type>  (48) 
oracle

>  <origin>  (48) 
adgpu

>  <m_score__min__energy>  (48) 
-8.3200000000000003

>  <m_primary>  (48) 
energy

$$$$
