0:0
     RDKit          3D

 51 53  0  0  0  0  0  0  0  0999 V2000
   -2.5680   18.9870  -26.3500 C   0  0  0  0  0  0  0  0  0  0  0  0
   -1.7140   20.1620  -26.4650 N   0  0  0  0  0  0  0  0  0  0  0  0
   -1.7200   21.0330  -27.6030 C   0  0  0  0  0  0  0  0  0  0  0  0
   -1.8760   20.5420  -28.7540 O   0  0  0  0  0  0  0  0  0  0  0  0
   -1.5410   22.4900  -27.4520 C   0  0  0  0  0  0  0  0  0  0  0  0
   -0.9000   22.9740  -26.3010 C   0  0  0  0  0  0  0  0  0  0  0  0
   -0.6180   24.3350  -26.1730 C   0  0  0  0  0  0  0  0  0  0  0  0
   -0.9680   25.2210  -27.1950 C   0  0  0  0  0  0  0  0  0  0  0  0
   -1.6220   24.7540  -28.3390 C   0  0  0  0  0  0  0  0  0  0  0  0
   -1.9780   25.6530  -29.3390 O   0  0  0  0  0  0  0  0  0  0  0  0
   -1.9330   23.3910  -28.4710 C   0  0  0  0  0  0  0  0  0  0  0  0
   -2.6370   22.9360  -29.6410 N   0  0  0  0  0  0  0  0  0  0  0  0
   -3.9180   23.4640  -30.0380 C   0  0  0  0  0  0  0  0  0  0  0  0
   -4.5880   24.3660  -29.1890 C   0  0  0  0  0  0  0  0  0  0  0  0
   -5.7890   24.9550  -29.5800 C   0  0  0  0  0  0  0  0  0  0  0  0
   -6.3380   24.6590  -30.8260 C   0  0  0  0  0  0  0  0  0  0  0  0
   -5.6880   23.7730  -31.6850 C   0  0  0  0  0  0  0  0  0  0  0  0
   -4.4770   23.1590  -31.3070 C   0  0  0  0  0  0  0  0  0  0  0  0
   -3.8610   22.1790  -32.2370 C   0  0  0  0  0  0  0  0  0  0  0  0
   -2.6090   22.1130  -32.3620 O   0  0  0  0  0  0  0  0  0  0  0  0
   -4.6940   21.2720  -32.9720 N   0  0  0  0  0  0  0  0  0  0  0  0
   -5.4170   20.1540  -32.3680 C   0  0  0  0  0  0  0  0  0  0  0  0
   -5.8820   19.1940  -33.4850 C   0  0  0  0  0  0  0  0  0  0  0  0
   -7.2040   18.5140  -33.1170 C   0  0  0  0  0  0  0  0  0  0  0  0
   -8.2980   19.5030  -32.9680 N   0  0  0  0  0  0  0  0  0  0  0  0
   -9.4260   18.9080  -32.2340 C   0  0  0  0  0  0  0  0  0  0  0  0
   -7.8790   20.7960  -32.3650 C   0  0  0  0  0  0  0  0  0  0  0  0
   -6.6020   20.6760  -31.5200 C   0  0  0  0  0  0  0  0  0  0  0  0
   -2.7348   18.7575  -25.2872 H   0  0  0  0  0  0  0  0  0  0  0  0
   -3.5335   19.1863  -26.8380 H   0  0  0  0  0  0  0  0  0  0  0  0
   -2.0804   18.1302  -26.8380 H   0  0  0  0  0  0  0  0  0  0  0  0
   -0.6188   22.2782  -25.4968 H   0  0  0  0  0  0  0  0  0  0  0  0
   -0.1199   24.7103  -25.2669 H   0  0  0  0  0  0  0  0  0  0  0  0
   -0.7280   26.2902  -27.0992 H   0  0  0  0  0  0  0  0  0  0  0  0
   -2.1130   22.3500  -30.3280 H   0  0  0  0  0  0  0  0  0  0  0  0
   -4.1584   24.6085  -28.2058 H   0  0  0  0  0  0  0  0  0  0  0  0
   -6.3039   25.6540  -28.9045 H   0  0  0  0  0  0  0  0  0  0  0  0
   -7.2860   25.1250  -31.1328 H   0  0  0  0  0  0  0  0  0  0  0  0
   -6.1258   23.5508  -32.6693 H   0  0  0  0  0  0  0  0  0  0  0  0
   -4.7552   19.5983  -31.6873 H   0  0  0  0  0  0  0  0  0  0  0  0
   -6.0192   19.7654  -34.4149 H   0  0  0  0  0  0  0  0  0  0  0  0
   -5.1154   18.4162  -33.6168 H   0  0  0  0  0  0  0  0  0  0  0  0
   -7.4722   17.8004  -33.9100 H   0  0  0  0  0  0  0  0  0  0  0  0
   -7.0713   17.9971  -32.1551 H   0  0  0  0  0  0  0  0  0  0  0  0
   -9.2495   19.0011  -31.1523 H   0  0  0  0  0  0  0  0  0  0  0  0
  -10.3549   19.4335  -32.5005 H   0  0  0  0  0  0  0  0  0  0  0  0
   -9.5168   17.8447  -32.5005 H   0  0  0  0  0  0  0  0  0  0  0  0
   -7.6975   21.5183  -33.1746 H   0  0  0  0  0  0  0  0  0  0  0  0
   -8.6876   21.1254  -31.6959 H   0  0  0  0  0  0  0  0  0  0  0  0
   -6.3451   21.6661  -31.1154 H   0  0  0  0  0  0  0  0  0  0  0  0
   -6.7892   19.9609  -30.7054 H   0  0  0  0  0  0  0  0  0  0  0  0
  1  2  1  0
  2  3  1  0
  3  4  2  0
  3  5  1  0
  5  6  2  0
  6  7  1  0
  7  8  2  0
  8  9  1  0
  9 10  1  0
  9 11  2  0
 11 12  1  0
 12 13  1  0
 13 14  2  0
 14 15  1  0
 15 16  2  0
 16 17  1  0
 17 18  2  0
 18 19  1  0
 19 20  2  0
 19 21  1  0
 21 22  1  0
 22 23  1  0
 23 24  1  0
 24 25  1  0
 25 26  1  0
 25 27  1  0
 27 28  1  0
 11  5  1  0
 18 13  1  0
 28 22  1  0
  1 29  1  0
  1 30  1  0
  1 31  1  0
  6 32  1  0
  7 33  1  0
  8 34  1  0
 12 35  1  0
 14 36  1  0
 15 37  1  0
 16 38  1  0
 17 39  1  0
 22 40  1  0
 23 41  1  0
 23 42  1  0
 24 43  1  0
 24 44  1  0
 26 45  1  0
 26 46  1  0
 26 47  1  0
 27 48  1  0
 27 49  1  0
 28 50  1  0
 28 51  1  0
M  CHG  3   2  -1  10  -1  21  -1
M  END
>  <UniqueID>  (1) 
1

>  <SMILES>  (1) 
C[N-]C(=O)c1cccc([O-])c1Nc1ccccc1C(=O)[N-]C1CCN(C)CC1

>  <Energy>  (1) 
73.52289809083345

>  <Genealogy>  (1) 
C[N-]C(=O)c1cccc([O-])c1Nc1ccccc1C(=O)[N-]C1CCN(C)CC1 (protonated)
C[N-]C(=O)c1cccc([O-])c1Nc1ccccc1C(=O)[N-]C1CCN(C)CC1 (3D coordinates assigned)
C[N-]C(=O)c1cccc([O-])c1Nc1ccccc1C(=O)[N-]C1CCN(C)CC1 (nonaromatic ring conformer: 73.52289809083345 kcal/mol)

>  <smiles>  (1) 
CNC(=O)c1cccc(O)c1Nc1ccccc1C(=O)NC1CCN(C)CC1

>  <score_type>  (1) 
oracle

>  <origin>  (1) 
adgpu

>  <m_score__min__energy>  (1) 
-12.050000000000001

>  <m_primary>  (1) 
energy

$$$$
1:0
     RDKit          3D

 58 61  0  0  0  0  0  0  0  0999 V2000
   -2.9890   20.5610  -32.1740 O   0  0  0  0  0  0  0  0  0  0  0  0
   -2.6030   21.5130  -31.4420 C   0  0  0  0  0  0  0  0  0  0  0  0
   -3.0960   22.8400  -31.6670 N   0  0  0  0  0  0  0  0  0  0  0  0
   -4.3520   23.3510  -31.1990 C   0  0  0  0  0  0  0  0  0  0  0  0
   -5.5220   22.6650  -31.5470 C   0  0  0  0  0  0  0  0  0  0  0  0
   -6.7710   23.1020  -31.0840 C   0  0  0  0  0  0  0  0  0  0  0  0
   -8.2300   22.1840  -31.4600 S   0  0  0  0  0  0  0  0  0  0  0  0
   -9.3050   23.1310  -31.9190 O   0  0  0  0  0  0  0  0  0  0  0  0
   -8.7160   21.5100  -30.2060 O   0  0  0  0  0  0  0  0  0  0  0  0
   -7.9650   20.9720  -32.6980 N   0  0  0  0  0  0  0  0  0  0  0  0
   -6.6900   20.2540  -32.5210 C   0  0  0  0  0  0  0  0  0  0  0  0
   -6.7790   19.1080  -31.4830 C   0  0  0  0  0  0  0  0  0  0  0  0
   -8.1060   18.7980  -31.1010 O   0  0  0  0  0  0  0  0  0  0  0  0
   -8.9180   18.6890  -32.2460 C   0  0  0  0  0  0  0  0  0  0  0  0
   -9.1280   20.0740  -32.8820 C   0  0  0  0  0  0  0  0  0  0  0  0
   -6.8510   24.2640  -30.3040 C   0  0  0  0  0  0  0  0  0  0  0  0
   -5.6940   24.9800  -29.9910 C   0  0  0  0  0  0  0  0  0  0  0  0
   -4.4450   24.5360  -30.4410 C   0  0  0  0  0  0  0  0  0  0  0  0
   -3.3150   25.2960  -30.1600 O   0  0  0  0  0  0  0  0  0  0  0  0
   -1.5380   21.2810  -30.4470 C   0  0  0  0  0  0  0  0  0  0  0  0
   -1.1780   22.3390  -29.5920 C   0  0  0  0  0  0  0  0  0  0  0  0
   -0.2670   22.1390  -28.5490 C   0  0  0  0  0  0  0  0  0  0  0  0
    0.0990   23.4540  -27.4280 S   0  0  0  0  0  0  0  0  0  0  0  0
    0.4260   24.6950  -28.2160 O   0  0  0  0  0  0  0  0  0  0  0  0
    1.3110   23.0900  -26.6100 O   0  0  0  0  0  0  0  0  0  0  0  0
   -1.2470   23.7830  -26.3580 N   0  0  0  0  0  0  0  0  0  0  0  0
   -2.2910   24.5570  -27.0560 C   0  0  0  0  0  0  0  0  0  0  0  0
   -3.1770   25.3030  -26.0450 C   0  0  0  0  0  0  0  0  0  0  0  0
   -2.4670   26.2510  -25.2590 O   0  0  0  0  0  0  0  0  0  0  0  0
   -1.0960   25.9280  -25.0680 C   0  0  0  0  0  0  0  0  0  0  0  0
   -0.8030   24.4150  -25.0940 C   0  0  0  0  0  0  0  0  0  0  0  0
    0.3280   20.8830  -28.3840 C   0  0  0  0  0  0  0  0  0  0  0  0
    0.0070   19.8360  -29.2490 C   0  0  0  0  0  0  0  0  0  0  0  0
   -0.9140   20.0210  -30.2840 C   0  0  0  0  0  0  0  0  0  0  0  0
   -1.1570   18.9460  -31.1450 O   0  0  0  0  0  0  0  0  0  0  0  0
   -5.4605   21.7746  -32.1899 H   0  0  0  0  0  0  0  0  0  0  0  0
   -6.3910   19.8270  -33.4896 H   0  0  0  0  0  0  0  0  0  0  0  0
   -5.9532   20.9800  -32.1468 H   0  0  0  0  0  0  0  0  0  0  0  0
   -6.3218   18.2071  -31.9181 H   0  0  0  0  0  0  0  0  0  0  0  0
   -6.2514   19.4466  -30.5791 H   0  0  0  0  0  0  0  0  0  0  0  0
   -8.4310   18.0245  -32.9749 H   0  0  0  0  0  0  0  0  0  0  0  0
   -9.8950   18.2756  -31.9552 H   0  0  0  0  0  0  0  0  0  0  0  0
   -9.3037   19.9428  -33.9599 H   0  0  0  0  0  0  0  0  0  0  0  0
   -9.9894   20.5409  -32.3821 H   0  0  0  0  0  0  0  0  0  0  0  0
   -7.8278   24.6126  -29.9376 H   0  0  0  0  0  0  0  0  0  0  0  0
   -5.7642   25.8973  -29.3880 H   0  0  0  0  0  0  0  0  0  0  0  0
   -1.6181   23.3354  -29.7454 H   0  0  0  0  0  0  0  0  0  0  0  0
   -1.8130   25.2870  -27.7258 H   0  0  0  0  0  0  0  0  0  0  0  0
   -2.9191   23.8642  -27.6352 H   0  0  0  0  0  0  0  0  0  0  0  0
   -3.9671   25.8317  -26.5983 H   0  0  0  0  0  0  0  0  0  0  0  0
   -3.5835   24.5498  -25.3540 H   0  0  0  0  0  0  0  0  0  0  0  0
   -0.5122   26.4079  -25.8673 H   0  0  0  0  0  0  0  0  0  0  0  0
   -0.8182   26.2906  -24.0673 H   0  0  0  0  0  0  0  0  0  0  0  0
    0.2805   24.2616  -24.9822 H   0  0  0  0  0  0  0  0  0  0  0  0
   -1.3596   23.9480  -24.2681 H   0  0  0  0  0  0  0  0  0  0  0  0
    1.0504   20.7207  -27.5705 H   0  0  0  0  0  0  0  0  0  0  0  0
    0.4842   18.8540  -29.1148 H   0  0  0  0  0  0  0  0  0  0  0  0
   -1.8560   18.9680  -31.8720 H   0  0  0  0  0  0  0  0  0  0  0  0
  1  2  2  0
  2  3  1  0
  3  4  1  0
  4  5  2  0
  5  6  1  0
  6  7  1  0
  7  8  2  0
  7  9  2  0
  7 10  1  0
 10 11  1  0
 11 12  1  0
 12 13  1  0
 13 14  1  0
 14 15  1  0
  6 16  2  0
 16 17  1  0
 17 18  2  0
 18 19  1  0
  2 20  1  0
 20 21  2  0
 21 22  1  0
 22 23  1  0
 23 24  2  0
 23 25  2  0
 23 26  1  0
 26 27  1  0
 27 28  1  0
 28 29  1  0
 29 30  1  0
 30 31  1  0
 22 32  2  0
 32 33  1  0
 33 34  2  0
 34 35  1  0
 18  4  1  0
 34 20  1  0
 15 10  1  0
 31 26  1  0
  5 36  1  0
 11 37  1  0
 11 38  1  0
 12 39  1  0
 12 40  1  0
 14 41  1  0
 14 42  1  0
 15 43  1  0
 15 44  1  0
 16 45  1  0
 17 46  1  0
 21 47  1  0
 27 48  1  0
 27 49  1  0
 28 50  1  0
 28 51  1  0
 30 52  1  0
 30 53  1  0
 31 54  1  0
 31 55  1  0
 32 56  1  0
 33 57  1  0
 35 58  1  0
M  CHG  2   3  -1  19  -1
M  END
>  <UniqueID>  (2) 
2

>  <SMILES>  (2) 
O=C([N-]c1cc(S(=O)(=O)N2CCOCC2)ccc1[O-])c1cc(S(=O)(=O)N2CCOCC2)ccc1O

>  <Energy>  (2) 
93.8783578428919

>  <Genealogy>  (2) 
O=C([N-]c1cc(S(=O)(=O)N2CCOCC2)ccc1[O-])c1cc(S(=O)(=O)N2CCOCC2)ccc1O (protonated)
O=C([N-]c1cc(S(=O)(=O)N2CCOCC2)ccc1[O-])c1cc(S(=O)(=O)N2CCOCC2)ccc1O (3D coordinates assigned)
O=C([N-]c1cc(S(=O)(=O)N2CCOCC2)ccc1[O-])c1cc(S(=O)(=O)N2CCOCC2)ccc1O (nonaromatic ring conformer: 93.8783578428919 kcal/mol)

>  <smiles>  (2) 
O=C(Nc1cc(S(=O)(=O)N2CCOCC2)ccc1O)c1cc(S(=O)(=O)N2CCOCC2)ccc1O

>  <score_type>  (2) 
oracle

>  <origin>  (2) 
adgpu

>  <m_score__min__energy>  (2) 
-14.18

>  <m_primary>  (2) 
energy

$$$$
2:0
     RDKit          3D

 55 59  0  0  0  0  0  0  0  0999 V2000
   -8.3650   19.6340  -31.4230 C   0  0  0  0  0  0  0  0  0  0  0  0
   -7.1520   19.7810  -32.2260 N   0  0  0  0  0  0  0  0  0  0  0  0
   -6.5810   18.8710  -33.0580 C   0  0  0  0  0  0  0  0  0  0  0  0
   -7.2700   17.2490  -33.4020 S   0  0  0  0  0  0  0  0  0  0  0  0
   -5.7370   16.5860  -34.1420 C   0  0  0  0  0  0  0  0  0  0  0  0
   -5.3680   15.2640  -33.5320 C   0  0  0  0  0  0  0  0  0  0  0  0
   -4.6450   15.2070  -32.3280 C   0  0  0  0  0  0  0  0  0  0  0  0
   -4.3140   13.9680  -31.7640 C   0  0  0  0  0  0  0  0  0  0  0  0
   -4.6970   12.7800  -32.3990 C   0  0  0  0  0  0  0  0  0  0  0  0
   -5.4150   12.8280  -33.6010 C   0  0  0  0  0  0  0  0  0  0  0  0
   -5.7470   14.0660  -34.1680 C   0  0  0  0  0  0  0  0  0  0  0  0
   -5.4050   19.2880  -33.5930 N   0  0  0  0  0  0  0  0  0  0  0  0
   -5.2410   20.5060  -33.0430 C   0  0  0  0  0  0  0  0  0  0  0  0
   -4.1860   21.3930  -33.2420 C   0  0  0  0  0  0  0  0  0  0  0  0
   -4.2140   22.6120  -32.5430 C   0  0  0  0  0  0  0  0  0  0  0  0
   -5.2740   22.9140  -31.6540 C   0  0  0  0  0  0  0  0  0  0  0  0
   -5.2580   24.4230  -30.7420 S   0  0  0  0  0  0  0  0  0  0  0  0
   -6.0250   25.4910  -31.4730 O   0  0  0  0  0  0  0  0  0  0  0  0
   -5.9230   24.2050  -29.4120 O   0  0  0  0  0  0  0  0  0  0  0  0
   -3.6170   24.9170  -30.4550 N   0  0  0  0  0  0  0  0  0  0  0  0
   -2.6010   24.1350  -29.8080 C   0  0  0  0  0  0  0  0  0  0  0  0
   -2.5680   22.7360  -29.9130 C   0  0  0  0  0  0  0  0  0  0  0  0
   -1.5910   21.9910  -29.2430 C   0  0  0  0  0  0  0  0  0  0  0  0
   -0.6320   22.6500  -28.4480 C   0  0  0  0  0  0  0  0  0  0  0  0
   -0.6320   24.0520  -28.3860 C   0  0  0  0  0  0  0  0  0  0  0  0
   -1.6140   24.7870  -29.0580 C   0  0  0  0  0  0  0  0  0  0  0  0
   -1.6100   26.1730  -28.9650 O   0  0  0  0  0  0  0  0  0  0  0  0
    0.4340   21.8650  -27.7210 C   0  0  0  0  0  0  0  0  0  0  0  0
    0.0040   20.4160  -27.4640 C   0  0  0  0  0  0  0  0  0  0  0  0
   -0.4920   19.7680  -28.7650 C   0  0  0  0  0  0  0  0  0  0  0  0
   -1.5820   20.5570  -29.3340 N   0  0  0  0  0  0  0  0  0  0  0  0
   -6.3280   21.9900  -31.4800 C   0  0  0  0  0  0  0  0  0  0  0  0
   -6.2780   20.8000  -32.2090 C   0  0  0  0  0  0  0  0  0  0  0  0
   -8.1038   19.6657  -30.3549 H   0  0  0  0  0  0  0  0  0  0  0  0
   -9.0600   20.4545  -31.6550 H   0  0  0  0  0  0  0  0  0  0  0  0
   -8.8439   18.6713  -31.6550 H   0  0  0  0  0  0  0  0  0  0  0  0
   -5.8889   16.4525  -35.2232 H   0  0  0  0  0  0  0  0  0  0  0  0
   -4.9210   17.2983  -33.9504 H   0  0  0  0  0  0  0  0  0  0  0  0
   -4.3384   16.1373  -31.8274 H   0  0  0  0  0  0  0  0  0  0  0  0
   -3.7516   13.9282  -30.8195 H   0  0  0  0  0  0  0  0  0  0  0  0
   -4.4340   11.8090  -31.9539 H   0  0  0  0  0  0  0  0  0  0  0  0
   -5.7178   11.8952  -34.0992 H   0  0  0  0  0  0  0  0  0  0  0  0
   -6.3064   14.1021  -35.1145 H   0  0  0  0  0  0  0  0  0  0  0  0
   -3.3582   21.1477  -33.9236 H   0  0  0  0  0  0  0  0  0  0  0  0
   -3.4026   23.3403  -32.6883 H   0  0  0  0  0  0  0  0  0  0  0  0
   -3.3186   22.2191  -30.5289 H   0  0  0  0  0  0  0  0  0  0  0  0
    0.1433   24.5748  -27.8067 H   0  0  0  0  0  0  0  0  0  0  0  0
    1.3500   21.8611  -28.3301 H   0  0  0  0  0  0  0  0  0  0  0  0
    0.6064   22.3465  -26.7471 H   0  0  0  0  0  0  0  0  0  0  0  0
    0.8622   19.8458  -27.0789 H   0  0  0  0  0  0  0  0  0  0  0  0
   -0.8132   20.4107  -26.7277 H   0  0  0  0  0  0  0  0  0  0  0  0
    0.3370   19.7191  -29.4864 H   0  0  0  0  0  0  0  0  0  0  0  0
   -0.8573   18.7538  -28.5460 H   0  0  0  0  0  0  0  0  0  0  0  0
   -2.3540   20.0630  -29.8270 H   0  0  0  0  0  0  0  0  0  0  0  0
   -7.1608   22.2008  -30.7929 H   0  0  0  0  0  0  0  0  0  0  0  0
  1  2  1  0
  2  3  1  0
  3  4  1  0
  4  5  1  0
  5  6  1  0
  6  7  2  0
  7  8  1  0
  8  9  2  0
  9 10  1  0
 10 11  2  0
  3 12  2  0
 12 13  1  0
 13 14  2  0
 14 15  1  0
 15 16  2  0
 16 17  1  0
 17 18  2  0
 17 19  2  0
 17 20  1  0
 20 21  1  0
 21 22  2  0
 22 23  1  0
 23 24  2  0
 24 25  1  0
 25 26  2  0
 26 27  1  0
 24 28  1  0
 28 29  1  0
 29 30  1  0
 30 31  1  0
 16 32  1  0
 32 33  2  0
 33  2  1  0
 11  6  1  0
 33 13  1  0
 26 21  1  0
 31 23  1  0
  1 34  1  0
  1 35  1  0
  1 36  1  0
  5 37  1  0
  5 38  1  0
  7 39  1  0
  8 40  1  0
  9 41  1  0
 10 42  1  0
 11 43  1  0
 14 44  1  0
 15 45  1  0
 22 46  1  0
 25 47  1  0
 28 48  1  0
 28 49  1  0
 29 50  1  0
 29 51  1  0
 30 52  1  0
 30 53  1  0
 31 54  1  0
 32 55  1  0
M  CHG  2  20  -1  27  -1
M  END
>  <UniqueID>  (3) 
3

>  <SMILES>  (3) 
Cn1c(SCc2ccccc2)nc2ccc(S(=O)(=O)[N-]c3cc4c(cc3[O-])CCCN4)cc21

>  <Energy>  (3) 
97.1356917129697

>  <Genealogy>  (3) 
Cn1c(SCc2ccccc2)nc2ccc(S(=O)(=O)[N-]c3cc4c(cc3[O-])CCCN4)cc21 (protonated)
Cn1c(SCc2ccccc2)nc2ccc(S(=O)(=O)[N-]c3cc4c(cc3[O-])CCCN4)cc21 (3D coordinates assigned)
Cn1c(SCc2ccccc2)nc2ccc(S(=O)(=O)[N-]c3cc4c(cc3[O-])CCCN4)cc21 (nonaromatic ring conformer: 97.1356917129697 kcal/mol)

>  <smiles>  (3) 
Cn1c(SCc2ccccc2)nc2ccc(S(=O)(=O)Nc3cc4c(cc3O)CCCN4)cc21

>  <score_type>  (3) 
oracle

>  <origin>  (3) 
adgpu

>  <m_score__min__energy>  (3) 
-15.220000000000001

>  <m_primary>  (3) 
energy

$$$$
3:0
     RDKit          3D

 27 28  0  0  0  0  0  0  0  0999 V2000
   -6.1450   17.2260  -31.2850 C   0  0  0  0  0  0  0  0  0  0  0  0
   -5.9120   17.7840  -32.6530 C   0  0  0  0  0  0  0  0  0  0  0  0
   -5.0540   17.2300  -33.5360 N   0  0  0  0  0  0  0  0  0  0  0  0
   -5.1770   17.9930  -34.6420 C   0  0  0  0  0  0  0  0  0  0  0  0
   -6.1080   18.9840  -34.4210 C   0  0  0  0  0  0  0  0  0  0  0  0
   -6.5680   18.8450  -33.1680 N   0  0  0  0  0  0  0  0  0  0  0  0
   -7.7800   19.8220  -32.4050 S   0  0  0  0  0  0  0  0  0  0  0  0
   -8.8970   20.0670  -33.3810 O   0  0  0  0  0  0  0  0  0  0  0  0
   -8.3310   19.1070  -31.2040 O   0  0  0  0  0  0  0  0  0  0  0  0
   -7.0650   21.3420  -31.8820 C   0  0  0  0  0  0  0  0  0  0  0  0
   -5.6780   21.4310  -31.7040 C   0  0  0  0  0  0  0  0  0  0  0  0
   -5.0950   22.6370  -31.3030 C   0  0  0  0  0  0  0  0  0  0  0  0
   -5.8920   23.7730  -31.0720 C   0  0  0  0  0  0  0  0  0  0  0  0
   -5.2970   25.0160  -30.6600 N   0  0  0  0  0  0  0  0  0  0  0  0
   -5.9920   25.9140  -30.1380 O   0  0  0  0  0  0  0  0  0  0  0  0
   -3.9500   25.2400  -30.8330 O   0  0  0  0  0  0  0  0  0  0  0  0
   -7.2840   23.6750  -31.2500 C   0  0  0  0  0  0  0  0  0  0  0  0
   -7.8650   22.4690  -31.6520 C   0  0  0  0  0  0  0  0  0  0  0  0
   -5.8366   17.9645  -30.5304 H   0  0  0  0  0  0  0  0  0  0  0  0
   -7.2137   16.9976  -31.1593 H   0  0  0  0  0  0  0  0  0  0  0  0
   -5.5561   16.3055  -31.1593 H   0  0  0  0  0  0  0  0  0  0  0  0
   -4.6185   17.8460  -35.5782 H   0  0  0  0  0  0  0  0  0  0  0  0
   -6.4192   19.7529  -35.1435 H   0  0  0  0  0  0  0  0  0  0  0  0
   -5.0453   20.5486  -31.8804 H   0  0  0  0  0  0  0  0  0  0  0  0
   -4.0051   22.6979  -31.1672 H   0  0  0  0  0  0  0  0  0  0  0  0
   -7.9202   24.5544  -31.0714 H   0  0  0  0  0  0  0  0  0  0  0  0
   -8.9546   22.4044  -31.7883 H   0  0  0  0  0  0  0  0  0  0  0  0
  1  2  1  0
  2  3  2  0
  3  4  1  0
  4  5  2  0
  5  6  1  0
  6  7  1  0
  7  8  2  0
  7  9  2  0
  7 10  1  0
 10 11  2  0
 11 12  1  0
 12 13  2  0
 13 14  1  0
 14 15  2  0
 14 16  1  0
 13 17  1  0
 17 18  2  0
  6  2  1  0
 18 10  1  0
  1 19  1  0
  1 20  1  0
  1 21  1  0
  4 22  1  0
  5 23  1  0
 11 24  1  0
 12 25  1  0
 17 26  1  0
 18 27  1  0
M  CHG  2  14   1  16  -1
M  END
>  <UniqueID>  (4) 
4

>  <SMILES>  (4) 
Cc1nccn1S(=O)(=O)c1ccc([N+](=O)[O-])cc1

>  <Energy>  (4) 
58.1601678809894

>  <Genealogy>  (4) 
Cc1nccn1S(=O)(=O)c1ccc([N+](=O)[O-])cc1 (3D coordinates assigned)
Cc1nccn1S(=O)(=O)c1ccc([N+](=O)[O-])cc1 (optimized conformer: 58.1601678809894 kcal/mol)

>  <smiles>  (4) 
Cc1nccn1S(=O)(=O)c1ccc([N+](=O)[O-])cc1

>  <score_type>  (4) 
oracle

>  <origin>  (4) 
adgpu

>  <m_score__min__energy>  (4) 
-7.8899999999999997

>  <m_primary>  (4) 
energy

$$$$
4:0
     RDKit          3D

 43 46  0  0  0  0  0  0  0  0999 V2000
   -4.1810   23.0500  -32.3420 N   0  0  0  0  0  0  0  0  0  0  0  0
   -5.1230   21.9760  -32.2790 C   0  0  0  0  0  0  0  0  0  0  0  0
   -4.8270   20.6260  -32.4630 C   0  0  0  0  0  0  0  0  0  0  0  0
   -3.2410   19.9030  -32.6760 S   0  0  0  0  0  0  0  0  0  0  0  0
   -2.3580   20.8130  -33.4830 O   0  0  0  0  0  0  0  0  0  0  0  0
   -2.6030   19.6840  -31.3320 O   0  0  0  0  0  0  0  0  0  0  0  0
   -3.4530   18.3800  -33.5320 C   0  0  0  0  0  0  0  0  0  0  0  0
   -4.3950   18.2960  -34.5680 C   0  0  0  0  0  0  0  0  0  0  0  0
   -4.6130   17.0790  -35.2200 C   0  0  0  0  0  0  0  0  0  0  0  0
   -3.8920   15.9410  -34.8400 C   0  0  0  0  0  0  0  0  0  0  0  0
   -2.9510   16.0210  -33.8080 C   0  0  0  0  0  0  0  0  0  0  0  0
   -2.7330   17.2370  -33.1530 C   0  0  0  0  0  0  0  0  0  0  0  0
   -6.0150   19.9670  -32.2180 C   0  0  0  0  0  0  0  0  0  0  0  0
   -6.2780   18.6350  -32.2240 N   0  0  0  0  0  0  0  0  0  0  0  0
   -7.5450   18.2100  -31.9360 C   0  0  0  0  0  0  0  0  0  0  0  0
   -8.5660   19.1430  -31.6400 C   0  0  0  0  0  0  0  0  0  0  0  0
   -8.2760   20.5190  -31.6290 C   0  0  0  0  0  0  0  0  0  0  0  0
   -6.9660   20.9010  -31.9080 C   0  0  0  0  0  0  0  0  0  0  0  0
   -6.4180   22.1330  -31.9190 N   0  0  0  0  0  0  0  0  0  0  0  0
   -7.0360   23.3540  -31.5840 N   0  0  0  0  0  0  0  0  0  0  0  0
   -6.6150   24.1530  -30.6450 C   0  0  0  0  0  0  0  0  0  0  0  0
   -5.3750   23.9230  -29.8710 C   0  0  0  0  0  0  0  0  0  0  0  0
   -5.3380   22.8560  -28.9600 C   0  0  0  0  0  0  0  0  0  0  0  0
   -4.1740   22.5860  -28.2360 C   0  0  0  0  0  0  0  0  0  0  0  0
   -3.0430   23.3900  -28.4020 C   0  0  0  0  0  0  0  0  0  0  0  0
   -3.0810   24.4820  -29.2740 C   0  0  0  0  0  0  0  0  0  0  0  0
   -1.9590   25.2900  -29.4180 O   0  0  0  0  0  0  0  0  0  0  0  0
   -4.2500   24.7650  -29.9930 C   0  0  0  0  0  0  0  0  0  0  0  0
   -4.2940   25.8990  -30.7980 O   0  0  0  0  0  0  0  0  0  0  0  0
   -3.2280   22.8940  -32.7390 H   0  0  0  0  0  0  0  0  0  0  0  0
   -4.4180   23.9940  -31.9720 H   0  0  0  0  0  0  0  0  0  0  0  0
   -4.9629   19.1891  -34.8677 H   0  0  0  0  0  0  0  0  0  0  0  0
   -5.3518   17.0155  -36.0325 H   0  0  0  0  0  0  0  0  0  0  0  0
   -4.0654   14.9835  -35.3530 H   0  0  0  0  0  0  0  0  0  0  0  0
   -2.3825   15.1271  -33.5117 H   0  0  0  0  0  0  0  0  0  0  0  0
   -1.9956   17.2976  -32.3390 H   0  0  0  0  0  0  0  0  0  0  0  0
   -7.7723   17.1337  -31.9345 H   0  0  0  0  0  0  0  0  0  0  0  0
   -9.5851   18.7929  -31.4188 H   0  0  0  0  0  0  0  0  0  0  0  0
   -9.0538   21.2649  -31.4085 H   0  0  0  0  0  0  0  0  0  0  0  0
   -7.2136   25.0468  -30.4152 H   0  0  0  0  0  0  0  0  0  0  0  0
   -6.2301   22.2290  -28.8153 H   0  0  0  0  0  0  0  0  0  0  0  0
   -4.1477   21.7393  -27.5343 H   0  0  0  0  0  0  0  0  0  0  0  0
   -2.1215   23.1632  -27.8457 H   0  0  0  0  0  0  0  0  0  0  0  0
  1  2  1  0
  2  3  2  0
  3  4  1  0
  4  5  2  0
  4  6  2  0
  4  7  1  0
  7  8  2  0
  8  9  1  0
  9 10  2  0
 10 11  1  0
 11 12  2  0
  3 13  1  0
 13 14  2  0
 14 15  1  0
 15 16  2  0
 16 17  1  0
 17 18  2  0
 18 19  1  0
 19 20  1  0
 20 21  2  3
 21 22  1  0
 22 23  2  0
 23 24  1  0
 24 25  2  0
 25 26  1  0
 26 27  1  0
 26 28  2  0
 28 29  1  0
 19  2  1  0
 28 22  1  0
 12  7  1  0
 18 13  1  0
  1 30  1  0
  1 31  1  0
  8 32  1  0
  9 33  1  0
 10 34  1  0
 11 35  1  0
 12 36  1  0
 15 37  1  0
 16 38  1  0
 17 39  1  0
 21 40  1  0
 23 41  1  0
 24 42  1  0
 25 43  1  0
M  CHG  2  27  -1  29  -1
M  END
>  <UniqueID>  (5) 
5

>  <SMILES>  (5) 
Nc1c(S(=O)(=O)c2ccccc2)c2ncccc2n1N=Cc1cccc([O-])c1[O-]

>  <Energy>  (5) 
99.11942413043317

>  <Genealogy>  (5) 
Nc1c(S(=O)(=O)c2ccccc2)c2ncccc2n1N=Cc1cccc([O-])c1[O-] (protonated)
Nc1c(S(=O)(=O)c2ccccc2)c2ncccc2n1N=Cc1cccc([O-])c1[O-] (3D coordinates assigned)
Nc1c(S(=O)(=O)c2ccccc2)c2ncccc2n1N=Cc1cccc([O-])c1[O-] (optimized conformer: 99.11942413043317 kcal/mol)

>  <smiles>  (5) 
Nc1c(S(=O)(=O)c2ccccc2)c2ncccc2n1N=Cc1cccc(O)c1O

>  <score_type>  (5) 
oracle

>  <origin>  (5) 
adgpu

>  <m_score__min__energy>  (5) 
-14.199999999999999

>  <m_primary>  (5) 
energy

$$$$
5:0
     RDKit          3D

 53 54  0  0  0  0  0  0  0  0999 V2000
   -1.7280   22.8240  -30.2470 C   0  0  0  0  0  0  0  0  0  0  0  0
   -3.1500   23.0790  -30.6650 C   0  0  0  0  0  0  0  0  0  0  0  0
   -3.8510   22.1030  -31.3890 C   0  0  0  0  0  0  0  0  0  0  0  0
   -5.1740   22.3290  -31.8030 C   0  0  0  0  0  0  0  0  0  0  0  0
   -5.9190   21.3010  -32.5720 C   0  0  0  0  0  0  0  0  0  0  0  0
   -7.1640   21.4350  -32.7200 O   0  0  0  0  0  0  0  0  0  0  0  0
   -5.2490   20.1200  -33.1720 C   0  0  0  0  0  0  0  0  0  0  0  0
   -3.8820   20.1450  -33.4800 C   0  0  0  0  0  0  0  0  0  0  0  0
   -3.2420   19.0240  -34.0320 C   0  0  0  0  0  0  0  0  0  0  0  0
   -1.7630   19.0980  -34.3350 C   0  0  0  0  0  0  0  0  0  0  0  0
   -1.2360   20.4480  -34.0430 N   0  0  0  0  0  0  0  0  0  0  0  0
   -0.6500   20.4780  -32.6930 C   0  0  0  0  0  0  0  0  0  0  0  0
   -0.2150   20.8390  -35.0320 C   0  0  0  0  0  0  0  0  0  0  0  0
   -3.9870   17.8410  -34.2570 C   0  0  0  0  0  0  0  0  0  0  0  0
   -3.3920   16.6920  -34.7880 O   0  0  0  0  0  0  0  0  0  0  0  0
   -5.3580   17.8060  -33.9380 C   0  0  0  0  0  0  0  0  0  0  0  0
   -6.1610   16.5450  -34.1470 C   0  0  0  0  0  0  0  0  0  0  0  0
   -5.3560   15.3530  -33.8090 N   0  0  0  0  0  0  0  0  0  0  0  0
   -6.1160   14.1310  -34.1180 C   0  0  0  0  0  0  0  0  0  0  0  0
   -4.9900   15.3570  -32.3810 C   0  0  0  0  0  0  0  0  0  0  0  0
   -5.9760   18.9410  -33.3910 C   0  0  0  0  0  0  0  0  0  0  0  0
   -5.7790   23.5640  -31.5180 C   0  0  0  0  0  0  0  0  0  0  0  0
   -5.0840   24.5540  -30.8070 C   0  0  0  0  0  0  0  0  0  0  0  0
   -5.7420   25.8730  -30.5100 C   0  0  0  0  0  0  0  0  0  0  0  0
   -3.7660   24.3120  -30.3860 C   0  0  0  0  0  0  0  0  0  0  0  0
   -3.0660   25.2980  -29.6940 O   0  0  0  0  0  0  0  0  0  0  0  0
   -1.6650   22.8127  -29.1489 H   0  0  0  0  0  0  0  0  0  0  0  0
   -1.3980   21.8523  -30.6432 H   0  0  0  0  0  0  0  0  0  0  0  0
   -1.0809   23.6204  -30.6432 H   0  0  0  0  0  0  0  0  0  0  0  0
   -3.3592   21.1504  -31.6351 H   0  0  0  0  0  0  0  0  0  0  0  0
   -3.3007   21.0585  -33.2859 H   0  0  0  0  0  0  0  0  0  0  0  0
   -1.2304   18.3609  -33.7160 H   0  0  0  0  0  0  0  0  0  0  0  0
   -1.6098   18.8822  -35.4027 H   0  0  0  0  0  0  0  0  0  0  0  0
   -1.4539   20.4368  -31.9433 H   0  0  0  0  0  0  0  0  0  0  0  0
    0.0168   19.6128  -32.5634 H   0  0  0  0  0  0  0  0  0  0  0  0
   -0.0750   21.4068  -32.5634 H   0  0  0  0  0  0  0  0  0  0  0  0
    0.6886   21.1851  -34.5089 H   0  0  0  0  0  0  0  0  0  0  0  0
    0.0353   19.9731  -35.6625 H   0  0  0  0  0  0  0  0  0  0  0  0
   -0.6071   21.6506  -35.6625 H   0  0  0  0  0  0  0  0  0  0  0  0
   -3.6090   15.7550  -34.4770 H   0  0  0  0  0  0  0  0  0  0  0  0
   -7.0525   16.5734  -33.5033 H   0  0  0  0  0  0  0  0  0  0  0  0
   -6.4568   16.4845  -35.2048 H   0  0  0  0  0  0  0  0  0  0  0  0
   -6.4203   13.6417  -33.1810 H   0  0  0  0  0  0  0  0  0  0  0  0
   -7.0105   14.3934  -34.7020 H   0  0  0  0  0  0  0  0  0  0  0  0
   -5.4852   13.4447  -34.7020 H   0  0  0  0  0  0  0  0  0  0  0  0
   -5.9035   15.3470  -31.7683 H   0  0  0  0  0  0  0  0  0  0  0  0
   -4.3869   14.4654  -32.1546 H   0  0  0  0  0  0  0  0  0  0  0  0
   -4.4065   16.2616  -32.1546 H   0  0  0  0  0  0  0  0  0  0  0  0
   -7.0442   18.9054  -33.1307 H   0  0  0  0  0  0  0  0  0  0  0  0
   -6.8080   23.7571  -31.8556 H   0  0  0  0  0  0  0  0  0  0  0  0
   -5.8110   26.0113  -29.4209 H   0  0  0  0  0  0  0  0  0  0  0  0
   -5.1445   26.6872  -30.9459 H   0  0  0  0  0  0  0  0  0  0  0  0
   -6.7519   25.8854  -30.9459 H   0  0  0  0  0  0  0  0  0  0  0  0
  1  2  1  0
  2  3  2  0
  3  4  1  0
  4  5  1  0
  5  6  2  0
  5  7  1  0
  7  8  2  0
  8  9  1  0
  9 10  1  0
 10 11  1  0
 11 12  1  0
 11 13  1  0
  9 14  2  0
 14 15  1  0
 14 16  1  0
 16 17  1  0
 17 18  1  0
 18 19  1  0
 18 20  1  0
 16 21  2  0
  4 22  2  0
 22 23  1  0
 23 24  1  0
 23 25  2  0
 25 26  1  0
 25  2  1  0
 21  7  1  0
  1 27  1  0
  1 28  1  0
  1 29  1  0
  3 30  1  0
  8 31  1  0
 10 32  1  0
 10 33  1  0
 12 34  1  0
 12 35  1  0
 12 36  1  0
 13 37  1  0
 13 38  1  0
 13 39  1  0
 15 40  1  0
 17 41  1  0
 17 42  1  0
 19 43  1  0
 19 44  1  0
 19 45  1  0
 20 46  1  0
 20 47  1  0
 20 48  1  0
 21 49  1  0
 22 50  1  0
 24 51  1  0
 24 52  1  0
 24 53  1  0
M  CHG  1  26  -1
M  END
>  <UniqueID>  (6) 
6

>  <SMILES>  (6) 
Cc1cc(C(=O)c2cc(CN(C)C)c(O)c(CN(C)C)c2)cc(C)c1[O-]

>  <Energy>  (6) 
58.95340109146345

>  <Genealogy>  (6) 
Cc1cc(C(=O)c2cc(CN(C)C)c(O)c(CN(C)C)c2)cc(C)c1[O-] (protonated)
Cc1cc(C(=O)c2cc(CN(C)C)c(O)c(CN(C)C)c2)cc(C)c1[O-] (3D coordinates assigned)
Cc1cc(C(=O)c2cc(CN(C)C)c(O)c(CN(C)C)c2)cc(C)c1[O-] (optimized conformer: 58.95340109146345 kcal/mol)

>  <smiles>  (6) 
Cc1cc(C(=O)c2cc(CN(C)C)c(O)c(CN(C)C)c2)cc(C)c1O

>  <score_type>  (6) 
oracle

>  <origin>  (6) 
adgpu

>  <m_score__min__energy>  (6) 
-10.050000000000001

>  <m_primary>  (6) 
energy

$$$$
6:0
     RDKit          3D

 46 49  0  0  0  0  0  0  0  0999 V2000
   -6.7150   25.3440  -30.0080 C   0  0  0  0  0  0  0  0  0  0  0  0
   -6.7060   23.9510  -30.5760 C   0  0  0  0  0  0  0  0  0  0  0  0
   -7.9440   23.3620  -30.9210 C   0  0  0  0  0  0  0  0  0  0  0  0
   -7.9480   22.0560  -31.3960 C   0  0  0  0  0  0  0  0  0  0  0  0
   -9.0170   21.3370  -31.7830 N   0  0  0  0  0  0  0  0  0  0  0  0
   -8.5310   20.1390  -32.1830 C   0  0  0  0  0  0  0  0  0  0  0  0
   -9.3880   19.0340  -32.7150 C   0  0  0  0  0  0  0  0  0  0  0  0
   -7.1460   20.0930  -32.0270 C   0  0  0  0  0  0  0  0  0  0  0  0
   -6.2220   18.9850  -32.4250 C   0  0  0  0  0  0  0  0  0  0  0  0
   -6.7930   21.3360  -31.5360 C   0  0  0  0  0  0  0  0  0  0  0  0
   -5.5500   21.8810  -31.2330 C   0  0  0  0  0  0  0  0  0  0  0  0
   -5.4910   23.2160  -30.7720 C   0  0  0  0  0  0  0  0  0  0  0  0
   -4.1520   23.8030  -30.5160 C   0  0  0  0  0  0  0  0  0  0  0  0
   -3.9520   25.0080  -30.8330 O   0  0  0  0  0  0  0  0  0  0  0  0
   -3.0850   23.0440  -29.9040 N   0  0  0  0  0  0  0  0  0  0  0  0
   -2.8620   23.2980  -28.4610 C   0  0  0  0  0  0  0  0  0  0  0  0
   -1.8040   22.4060  -27.8140 C   0  0  0  0  0  0  0  0  0  0  0  0
   -0.3290   22.4410  -28.7850 S   0  0  0  0  0  0  0  0  0  0  0  0
    0.2560   23.8230  -28.8420 O   0  0  0  0  0  0  0  0  0  0  0  0
    0.6730   21.4710  -28.2240 O   0  0  0  0  0  0  0  0  0  0  0  0
   -0.8900   21.9320  -30.3540 C   0  0  0  0  0  0  0  0  0  0  0  0
   -0.0510   21.1880  -31.1930 C   0  0  0  0  0  0  0  0  0  0  0  0
   -0.5400   20.6670  -32.3900 C   0  0  0  0  0  0  0  0  0  0  0  0
   -1.8760   20.8660  -32.7410 C   0  0  0  0  0  0  0  0  0  0  0  0
   -2.7160   21.6110  -31.9110 C   0  0  0  0  0  0  0  0  0  0  0  0
   -2.2280   22.1920  -30.7210 C   0  0  0  0  0  0  0  0  0  0  0  0
   -6.7147   25.2920  -28.9092 H   0  0  0  0  0  0  0  0  0  0  0  0
   -5.8203   25.8851  -30.3497 H   0  0  0  0  0  0  0  0  0  0  0  0
   -7.6166   25.8735  -30.3497 H   0  0  0  0  0  0  0  0  0  0  0  0
   -8.8832   23.9249  -30.8158 H   0  0  0  0  0  0  0  0  0  0  0  0
  -10.0150   21.6470  -31.7880 H   0  0  0  0  0  0  0  0  0  0  0  0
   -9.8240   18.4718  -31.8761 H   0  0  0  0  0  0  0  0  0  0  0  0
  -10.1947   19.4593  -33.3300 H   0  0  0  0  0  0  0  0  0  0  0  0
   -8.7753   18.3585  -33.3300 H   0  0  0  0  0  0  0  0  0  0  0  0
   -5.8190   18.5017  -31.5228 H   0  0  0  0  0  0  0  0  0  0  0  0
   -6.7737   18.2442  -33.0224 H   0  0  0  0  0  0  0  0  0  0  0  0
   -5.3942   19.3947  -33.0224 H   0  0  0  0  0  0  0  0  0  0  0  0
   -4.6322   21.2859  -31.3496 H   0  0  0  0  0  0  0  0  0  0  0  0
   -2.5473   24.3453  -28.3417 H   0  0  0  0  0  0  0  0  0  0  0  0
   -3.8120   23.0723  -27.9544 H   0  0  0  0  0  0  0  0  0  0  0  0
   -1.5845   22.7736  -26.8007 H   0  0  0  0  0  0  0  0  0  0  0  0
   -2.1803   21.3740  -27.7566 H   0  0  0  0  0  0  0  0  0  0  0  0
    0.9968   21.0143  -30.9067 H   0  0  0  0  0  0  0  0  0  0  0  0
    0.1261   20.0999  -33.0568 H   0  0  0  0  0  0  0  0  0  0  0  0
   -2.2682   20.4348  -33.6739 H   0  0  0  0  0  0  0  0  0  0  0  0
   -3.7718   21.7468  -32.1882 H   0  0  0  0  0  0  0  0  0  0  0  0
  1  2  1  0
  2  3  2  0
  3  4  1  0
  4  5  1  0
  5  6  1  0
  6  7  1  0
  6  8  2  0
  8  9  1  0
  8 10  1  0
 10 11  1  0
 11 12  2  0
 12 13  1  0
 13 14  2  0
 13 15  1  0
 15 16  1  0
 16 17  1  0
 17 18  1  0
 18 19  2  0
 18 20  2  0
 18 21  1  0
 21 22  2  0
 22 23  1  0
 23 24  2  0
 24 25  1  0
 25 26  2  0
 12  2  1  0
 26 15  1  0
 10  4  2  0
 26 21  1  0
  1 27  1  0
  1 28  1  0
  1 29  1  0
  3 30  1  0
  5 31  1  0
  7 32  1  0
  7 33  1  0
  7 34  1  0
  9 35  1  0
  9 36  1  0
  9 37  1  0
 11 38  1  0
 16 39  1  0
 16 40  1  0
 17 41  1  0
 17 42  1  0
 22 43  1  0
 23 44  1  0
 24 45  1  0
 25 46  1  0
M  END
>  <UniqueID>  (7) 
7

>  <SMILES>  (7) 
Cc1cc2[nH]c(C)c(C)c2cc1C(=O)N1CCS(=O)(=O)c2ccccc21

>  <Energy>  (7) 
94.04090583801181

>  <Genealogy>  (7) 
Cc1cc2[nH]c(C)c(C)c2cc1C(=O)N1CCS(=O)(=O)c2ccccc21 (3D coordinates assigned)
Cc1cc2[nH]c(C)c(C)c2cc1C(=O)N1CCS(=O)(=O)c2ccccc21 (nonaromatic ring conformer: 94.04090583801181 kcal/mol)

>  <smiles>  (7) 
Cc1cc2[nH]c(C)c(C)c2cc1C(=O)N1CCS(=O)(=O)c2ccccc21

>  <score_type>  (7) 
oracle

>  <origin>  (7) 
adgpu

>  <m_score__min__energy>  (7) 
-9.6999999999999993

>  <m_primary>  (7) 
energy

$$$$
7:0
     RDKit          3D

 49 52  0  0  0  0  0  0  0  0999 V2000
   -6.8750   17.3180  -33.2020 C   0  0  0  0  0  0  0  0  0  0  0  0
   -6.7660   18.7730  -33.5400 C   0  0  0  0  0  0  0  0  0  0  0  0
   -6.1410   19.1090  -34.5820 O   0  0  0  0  0  0  0  0  0  0  0  0
   -7.3220   19.7950  -32.6940 N   0  0  0  0  0  0  0  0  0  0  0  0
   -8.7400   19.8370  -32.3260 C   0  0  0  0  0  0  0  0  0  0  0  0
   -8.9700   21.2120  -31.6520 C   0  0  0  0  0  0  0  0  0  0  0  0
   -7.6090   21.8110  -31.6180 C   0  0  0  0  0  0  0  0  0  0  0  0
   -7.2260   23.0270  -31.0490 C   0  0  0  0  0  0  0  0  0  0  0  0
   -5.8670   23.3960  -31.0870 C   0  0  0  0  0  0  0  0  0  0  0  0
   -5.3320   24.9420  -30.4370 S   0  0  0  0  0  0  0  0  0  0  0  0
   -5.8740   25.0970  -29.0440 O   0  0  0  0  0  0  0  0  0  0  0  0
   -5.8400   26.0860  -31.2730 O   0  0  0  0  0  0  0  0  0  0  0  0
   -3.5980   24.9680  -30.3740 N   0  0  0  0  0  0  0  0  0  0  0  0
   -2.7850   24.1950  -29.4790 C   0  0  0  0  0  0  0  0  0  0  0  0
   -3.1380   22.8870  -29.0970 C   0  0  0  0  0  0  0  0  0  0  0  0
   -2.3210   22.1550  -28.2220 C   0  0  0  0  0  0  0  0  0  0  0  0
   -1.1180   22.7210  -27.7480 C   0  0  0  0  0  0  0  0  0  0  0  0
   -0.7790   24.0300  -28.1170 C   0  0  0  0  0  0  0  0  0  0  0  0
   -1.5990   24.7580  -28.9830 C   0  0  0  0  0  0  0  0  0  0  0  0
   -1.2330   26.0530  -29.3420 O   0  0  0  0  0  0  0  0  0  0  0  0
   -0.2360   21.9690  -26.7760 C   0  0  0  0  0  0  0  0  0  0  0  0
   -0.4470   20.5060  -26.8150 N   0  0  0  0  0  0  0  0  0  0  0  0
    0.2140   19.8880  -27.9800 C   0  0  0  0  0  0  0  0  0  0  0  0
   -1.8820   20.1640  -26.7280 C   0  0  0  0  0  0  0  0  0  0  0  0
   -2.6910   20.7270  -27.9070 C   0  0  0  0  0  0  0  0  0  0  0  0
   -4.9230   22.5260  -31.6720 C   0  0  0  0  0  0  0  0  0  0  0  0
   -5.3320   21.2980  -32.2220 C   0  0  0  0  0  0  0  0  0  0  0  0
   -6.6980   20.9800  -32.2140 C   0  0  0  0  0  0  0  0  0  0  0  0
   -6.8842   17.1952  -32.1089 H   0  0  0  0  0  0  0  0  0  0  0  0
   -7.8061   16.9122  -33.6244 H   0  0  0  0  0  0  0  0  0  0  0  0
   -6.0148   16.7780  -33.6244 H   0  0  0  0  0  0  0  0  0  0  0  0
   -9.3698   19.7416  -33.2228 H   0  0  0  0  0  0  0  0  0  0  0  0
   -9.0038   19.0099  -31.6504 H   0  0  0  0  0  0  0  0  0  0  0  0
   -9.6580   21.8314  -32.2461 H   0  0  0  0  0  0  0  0  0  0  0  0
   -9.4284   21.1305  -30.6554 H   0  0  0  0  0  0  0  0  0  0  0  0
   -7.9720   23.6851  -30.5795 H   0  0  0  0  0  0  0  0  0  0  0  0
   -4.0617   22.4351  -29.4875 H   0  0  0  0  0  0  0  0  0  0  0  0
    0.1398   24.4878  -27.7217 H   0  0  0  0  0  0  0  0  0  0  0  0
    0.8153   22.1780  -27.0232 H   0  0  0  0  0  0  0  0  0  0  0  0
   -0.4965   22.3115  -25.7636 H   0  0  0  0  0  0  0  0  0  0  0  0
    0.9766   19.1750  -27.6334 H   0  0  0  0  0  0  0  0  0  0  0  0
   -0.5342   19.3580  -28.5877 H   0  0  0  0  0  0  0  0  0  0  0  0
    0.6925   20.6701  -28.5877 H   0  0  0  0  0  0  0  0  0  0  0  0
   -1.9843   19.0688  -26.7204 H   0  0  0  0  0  0  0  0  0  0  0  0
   -2.2782   20.6123  -25.8049 H   0  0  0  0  0  0  0  0  0  0  0  0
   -2.5000   20.1074  -28.7956 H   0  0  0  0  0  0  0  0  0  0  0  0
   -3.7544   20.7079  -27.6264 H   0  0  0  0  0  0  0  0  0  0  0  0
   -3.8606   22.8099  -31.6981 H   0  0  0  0  0  0  0  0  0  0  0  0
   -4.5959   20.6014  -32.6496 H   0  0  0  0  0  0  0  0  0  0  0  0
  1  2  1  0
  2  3  2  0
  2  4  1  0
  4  5  1  0
  5  6  1  0
  6  7  1  0
  7  8  2  0
  8  9  1  0
  9 10  1  0
 10 11  2  0
 10 12  2  0
 10 13  1  0
 13 14  1  0
 14 15  2  0
 15 16  1  0
 16 17  2  0
 17 18  1  0
 18 19  2  0
 19 20  1  0
 17 21  1  0
 21 22  1  0
 22 23  1  0
 22 24  1  0
 24 25  1  0
  9 26  2  0
 26 27  1  0
 27 28  2  0
 28  4  1  0
 28  7  1  0
 19 14  1  0
 25 16  1  0
  1 29  1  0
  1 30  1  0
  1 31  1  0
  5 32  1  0
  5 33  1  0
  6 34  1  0
  6 35  1  0
  8 36  1  0
 15 37  1  0
 18 38  1  0
 21 39  1  0
 21 40  1  0
 23 41  1  0
 23 42  1  0
 23 43  1  0
 24 44  1  0
 24 45  1  0
 25 46  1  0
 25 47  1  0
 26 48  1  0
 27 49  1  0
M  CHG  2  13  -1  20  -1
M  END
>  <UniqueID>  (8) 
8

>  <SMILES>  (8) 
CC(=O)N1CCc2cc(S(=O)(=O)[N-]c3cc4c(cc3[O-])CN(C)CC4)ccc21

>  <Energy>  (8) 
77.49871687606029

>  <Genealogy>  (8) 
CC(=O)N1CCc2cc(S(=O)(=O)[N-]c3cc4c(cc3[O-])CN(C)CC4)ccc21 (protonated)
CC(=O)N1CCc2cc(S(=O)(=O)[N-]c3cc4c(cc3[O-])CN(C)CC4)ccc21 (3D coordinates assigned)
CC(=O)N1CCc2cc(S(=O)(=O)[N-]c3cc4c(cc3[O-])CN(C)CC4)ccc21 (nonaromatic ring conformer: 77.49871687606029 kcal/mol)

>  <smiles>  (8) 
CC(=O)N1CCc2cc(S(=O)(=O)Nc3cc4c(cc3O)CN(C)CC4)ccc21

>  <score_type>  (8) 
oracle

>  <origin>  (8) 
adgpu

>  <m_score__min__energy>  (8) 
-15.119999999999999

>  <m_primary>  (8) 
energy

$$$$
8:0
     RDKit          3D

 44 46  0  0  0  0  0  0  0  0999 V2000
   -9.4310   18.0460  -31.5880 N   0  0  0  0  0  0  0  0  0  0  0  0
   -8.8870   19.0550  -31.7410 C   0  0  0  0  0  0  0  0  0  0  0  0
   -8.2090   20.3120  -31.9300 C   0  0  0  0  0  0  0  0  0  0  0  0
   -8.8890   21.5140  -31.7070 C   0  0  0  0  0  0  0  0  0  0  0  0
   -8.2350   22.7330  -31.9010 C   0  0  0  0  0  0  0  0  0  0  0  0
   -6.8990   22.7560  -32.3080 C   0  0  0  0  0  0  0  0  0  0  0  0
   -6.1990   21.5540  -32.5190 C   0  0  0  0  0  0  0  0  0  0  0  0
   -4.7950   21.5630  -32.9920 C   0  0  0  0  0  0  0  0  0  0  0  0
   -4.2010   22.6690  -33.0960 O   0  0  0  0  0  0  0  0  0  0  0  0
   -4.0720   20.3090  -33.3140 C   0  0  0  0  0  0  0  0  0  0  0  0
   -4.7070   19.3350  -33.8010 O   0  0  0  0  0  0  0  0  0  0  0  0
   -2.6730   20.1520  -33.0230 N   0  0  0  0  0  0  0  0  0  0  0  0
   -2.2220   18.9470  -32.3260 C   0  0  0  0  0  0  0  0  0  0  0  0
   -0.8250   19.1450  -31.7060 C   0  0  0  0  0  0  0  0  0  0  0  0
   -0.5840   20.5380  -31.2610 N   0  0  0  0  0  0  0  0  0  0  0  0
   -0.9420   20.8390  -29.8570 C   0  0  0  0  0  0  0  0  0  0  0  0
   -1.9310   21.9750  -29.7080 C   0  0  0  0  0  0  0  0  0  0  0  0
   -3.3110   21.7080  -29.6510 C   0  0  0  0  0  0  0  0  0  0  0  0
   -4.2290   22.7550  -29.5310 C   0  0  0  0  0  0  0  0  0  0  0  0
   -3.7800   24.0750  -29.4400 C   0  0  0  0  0  0  0  0  0  0  0  0
   -2.4090   24.3480  -29.4560 C   0  0  0  0  0  0  0  0  0  0  0  0
   -1.9620   25.6590  -29.3410 O   0  0  0  0  0  0  0  0  0  0  0  0
   -1.4880   23.3040  -29.5850 C   0  0  0  0  0  0  0  0  0  0  0  0
   -0.8820   21.6130  -32.2420 C   0  0  0  0  0  0  0  0  0  0  0  0
   -1.6670   21.1170  -33.4610 C   0  0  0  0  0  0  0  0  0  0  0  0
   -6.8700   20.3320  -32.3400 C   0  0  0  0  0  0  0  0  0  0  0  0
   -9.9388   21.4993  -31.3789 H   0  0  0  0  0  0  0  0  0  0  0  0
   -8.7735   23.6773  -31.7328 H   0  0  0  0  0  0  0  0  0  0  0  0
   -6.3914   23.7193  -32.4644 H   0  0  0  0  0  0  0  0  0  0  0  0
   -2.9378   18.7074  -31.5259 H   0  0  0  0  0  0  0  0  0  0  0  0
   -2.1633   18.1265  -33.0562 H   0  0  0  0  0  0  0  0  0  0  0  0
   -0.7287   18.4773  -30.8372 H   0  0  0  0  0  0  0  0  0  0  0  0
   -0.0826   18.9138  -32.4841 H   0  0  0  0  0  0  0  0  0  0  0  0
   -1.3821   19.9354  -29.4101 H   0  0  0  0  0  0  0  0  0  0  0  0
   -0.0168   21.1517  -29.3508 H   0  0  0  0  0  0  0  0  0  0  0  0
   -3.6696   20.6693  -29.7012 H   0  0  0  0  0  0  0  0  0  0  0  0
   -5.3074   22.5394  -29.5081 H   0  0  0  0  0  0  0  0  0  0  0  0
   -4.5045   24.8985  -29.3559 H   0  0  0  0  0  0  0  0  0  0  0  0
   -0.4101   23.5236  -29.5903 H   0  0  0  0  0  0  0  0  0  0  0  0
   -1.4736   22.3917  -31.7384 H   0  0  0  0  0  0  0  0  0  0  0  0
    0.0813   21.9979  -32.6080 H   0  0  0  0  0  0  0  0  0  0  0  0
   -2.1622   21.9682  -33.9512 H   0  0  0  0  0  0  0  0  0  0  0  0
   -0.9798   20.6375  -34.1737 H   0  0  0  0  0  0  0  0  0  0  0  0
   -6.3402   19.3855  -32.5231 H   0  0  0  0  0  0  0  0  0  0  0  0
  1  2  3  0
  2  3  1  0
  3  4  2  0
  4  5  1  0
  5  6  2  0
  6  7  1  0
  7  8  1  0
  8  9  2  0
  8 10  1  0
 10 11  2  0
 10 12  1  0
 12 13  1  0
 13 14  1  0
 14 15  1  0
 15 16  1  0
 16 17  1  0
 17 18  2  0
 18 19  1  0
 19 20  2  0
 20 21  1  0
 21 22  1  0
 21 23  2  0
 15 24  1  0
 24 25  1  0
  7 26  2  0
 26  3  1  0
 25 12  1  0
 23 17  1  0
  4 27  1  0
  5 28  1  0
  6 29  1  0
 13 30  1  0
 13 31  1  0
 14 32  1  0
 14 33  1  0
 16 34  1  0
 16 35  1  0
 18 36  1  0
 19 37  1  0
 20 38  1  0
 23 39  1  0
 24 40  1  0
 24 41  1  0
 25 42  1  0
 25 43  1  0
 26 44  1  0
M  CHG  1  22  -1
M  END
>  <UniqueID>  (9) 
9

>  <SMILES>  (9) 
N#Cc1cccc(C(=O)C(=O)N2CCN(Cc3cccc([O-])c3)CC2)c1

>  <Energy>  (9) 
62.5666785556676

>  <Genealogy>  (9) 
N#Cc1cccc(C(=O)C(=O)N2CCN(Cc3cccc([O-])c3)CC2)c1 (protonated)
N#Cc1cccc(C(=O)C(=O)N2CCN(Cc3cccc([O-])c3)CC2)c1 (3D coordinates assigned)
N#Cc1cccc(C(=O)C(=O)N2CCN(Cc3cccc([O-])c3)CC2)c1 (nonaromatic ring conformer: 62.5666785556676 kcal/mol)

>  <smiles>  (9) 
N#Cc1cccc(C(=O)C(=O)N2CCN(Cc3cccc(O)c3)CC2)c1

>  <score_type>  (9) 
oracle

>  <origin>  (9) 
adgpu

>  <m_score__min__energy>  (9) 
-11.880000000000001

>  <m_primary>  (9) 
energy

$$$$
9:0
     RDKit          3D

 50 53  0  0  0  0  0  0  0  0999 V2000
   -1.2440   26.3480  -28.9620 N   0  0  0  0  0  0  0  0  0  0  0  0
   -0.6900   25.5180  -27.9420 C   0  0  0  0  0  0  0  0  0  0  0  0
    0.4300   24.9740  -28.1190 O   0  0  0  0  0  0  0  0  0  0  0  0
   -1.3980   25.2880  -26.7210 N   0  0  0  0  0  0  0  0  0  0  0  0
   -2.3720   24.2170  -26.5370 C   0  0  0  0  0  0  0  0  0  0  0  0
   -1.8070   22.8750  -27.0120 C   0  0  0  0  0  0  0  0  0  0  0  0
   -2.0210   22.6960  -28.4470 N   0  0  0  0  0  0  0  0  0  0  0  0
   -0.9940   22.2490  -29.3880 C   0  0  0  0  0  0  0  0  0  0  0  0
   -1.6920   22.1570  -30.7670 C   0  0  0  0  0  0  0  0  0  0  0  0
   -3.1090   22.5020  -30.4610 C   0  0  0  0  0  0  0  0  0  0  0  0
   -4.1970   22.5190  -31.3350 C   0  0  0  0  0  0  0  0  0  0  0  0
   -5.4660   22.8570  -30.8240 C   0  0  0  0  0  0  0  0  0  0  0  0
   -6.8830   22.8630  -31.8670 S   0  0  0  0  0  0  0  0  0  0  0  0
   -8.0570   23.3690  -31.0740 O   0  0  0  0  0  0  0  0  0  0  0  0
   -6.6570   23.7980  -33.0260 O   0  0  0  0  0  0  0  0  0  0  0  0
   -7.1410   21.2220  -32.4240 N   0  0  0  0  0  0  0  0  0  0  0  0
   -7.6860   20.3810  -31.3470 C   0  0  0  0  0  0  0  0  0  0  0  0
   -8.1440   19.0380  -31.9220 C   0  0  0  0  0  0  0  0  0  0  0  0
   -7.1090   18.4310  -32.8340 C   0  0  0  0  0  0  0  0  0  0  0  0
   -7.2340   17.0870  -33.2200 C   0  0  0  0  0  0  0  0  0  0  0  0
   -6.3260   16.5250  -34.1200 C   0  0  0  0  0  0  0  0  0  0  0  0
   -5.2890   17.2980  -34.6440 C   0  0  0  0  0  0  0  0  0  0  0  0
   -5.1570   18.6370  -34.2700 C   0  0  0  0  0  0  0  0  0  0  0  0
   -6.0740   19.2180  -33.3800 C   0  0  0  0  0  0  0  0  0  0  0  0
   -5.8860   20.6490  -32.9410 C   0  0  0  0  0  0  0  0  0  0  0  0
   -5.6140   23.1520  -29.4520 C   0  0  0  0  0  0  0  0  0  0  0  0
   -4.5030   23.1250  -28.5950 C   0  0  0  0  0  0  0  0  0  0  0  0
   -3.2560   22.8010  -29.1350 C   0  0  0  0  0  0  0  0  0  0  0  0
   -1.2240   26.0530  -29.9630 H   0  0  0  0  0  0  0  0  0  0  0  0
   -2.6275   24.1424  -25.4697 H   0  0  0  0  0  0  0  0  0  0  0  0
   -3.2673   24.4510  -27.1317 H   0  0  0  0  0  0  0  0  0  0  0  0
   -0.7276   22.8446  -26.8025 H   0  0  0  0  0  0  0  0  0  0  0  0
   -2.3259   22.0665  -26.4763 H   0  0  0  0  0  0  0  0  0  0  0  0
   -0.1677   22.9741  -29.4252 H   0  0  0  0  0  0  0  0  0  0  0  0
   -0.5649   21.2817  -29.0876 H   0  0  0  0  0  0  0  0  0  0  0  0
   -1.2566   22.8754  -31.4772 H   0  0  0  0  0  0  0  0  0  0  0  0
   -1.5829   21.1691  -31.2383 H   0  0  0  0  0  0  0  0  0  0  0  0
   -4.0668   22.2739  -32.3994 H   0  0  0  0  0  0  0  0  0  0  0  0
   -6.9078   20.2079  -30.5891 H   0  0  0  0  0  0  0  0  0  0  0  0
   -8.5443   20.8912  -30.8856 H   0  0  0  0  0  0  0  0  0  0  0  0
   -8.3363   18.3432  -31.0912 H   0  0  0  0  0  0  0  0  0  0  0  0
   -9.0551   19.2146  -32.5126 H   0  0  0  0  0  0  0  0  0  0  0  0
   -8.0509   16.4738  -32.8117 H   0  0  0  0  0  0  0  0  0  0  0  0
   -6.4284   15.4707  -34.4165 H   0  0  0  0  0  0  0  0  0  0  0  0
   -4.5750   16.8523  -35.3522 H   0  0  0  0  0  0  0  0  0  0  0  0
   -4.3304   19.2394  -34.6748 H   0  0  0  0  0  0  0  0  0  0  0  0
   -5.1239   20.6831  -32.1486 H   0  0  0  0  0  0  0  0  0  0  0  0
   -5.5691   21.2398  -33.8131 H   0  0  0  0  0  0  0  0  0  0  0  0
   -6.6068   23.4048  -29.0516 H   0  0  0  0  0  0  0  0  0  0  0  0
   -4.6114   23.3533  -27.5244 H   0  0  0  0  0  0  0  0  0  0  0  0
  1  2  1  0
  2  3  2  0
  2  4  1  0
  4  5  1  0
  5  6  1  0
  6  7  1  0
  7  8  1  0
  8  9  1  0
  9 10  1  0
 10 11  2  0
 11 12  1  0
 12 13  1  0
 13 14  2  0
 13 15  2  0
 13 16  1  0
 16 17  1  0
 17 18  1  0
 18 19  1  0
 19 20  2  0
 20 21  1  0
 21 22  2  0
 22 23  1  0
 23 24  2  0
 24 25  1  0
 12 26  2  0
 26 27  1  0
 27 28  2  0
 28  7  1  0
 28 10  1  0
 25 16  1  0
 24 19  1  0
  1 29  1  0
  5 30  1  0
  5 31  1  0
  6 32  1  0
  6 33  1  0
  8 34  1  0
  8 35  1  0
  9 36  1  0
  9 37  1  0
 11 38  1  0
 17 39  1  0
 17 40  1  0
 18 41  1  0
 18 42  1  0
 20 43  1  0
 21 44  1  0
 22 45  1  0
 23 46  1  0
 25 47  1  0
 25 48  1  0
 26 49  1  0
 27 50  1  0
M  CHG  2   1  -1   4  -1
M  END
>  <UniqueID>  (10) 
10

>  <SMILES>  (10) 
[NH-]C(=O)[N-]CCN1CCc2cc(S(=O)(=O)N3CCc4ccccc4C3)ccc21

>  <Energy>  (10) 
64.16606473784249

>  <Genealogy>  (10) 
[NH-]C(=O)[N-]CCN1CCc2cc(S(=O)(=O)N3CCc4ccccc4C3)ccc21 (protonated)
[NH-]C(=O)[N-]CCN1CCc2cc(S(=O)(=O)N3CCc4ccccc4C3)ccc21 (3D coordinates assigned)
[NH-]C(=O)[N-]CCN1CCc2cc(S(=O)(=O)N3CCc4ccccc4C3)ccc21 (nonaromatic ring conformer: 64.16606473784249 kcal/mol)

>  <smiles>  (10) 
NC(=O)NCCN1CCc2cc(S(=O)(=O)N3CCc4ccccc4C3)ccc21

>  <score_type>  (10) 
oracle

>  <origin>  (10) 
adgpu

>  <m_score__min__energy>  (10) 
-13.130000000000001

>  <m_primary>  (10) 
energy

$$$$
10:0
     RDKit          3D

 50 52  0  0  0  0  0  0  0  0999 V2000
   -0.5776   20.8436  -32.2213 H   0  0  0  0  0  0  0  0  0  0  0  0
   -1.3950   20.2120  -31.8430 C   0  0  0  0  0  0  0  0  0  0  0  0
   -2.2490   20.7240  -30.9430 C   0  0  0  0  0  0  0  0  0  0  0  0
   -3.0835   20.0903  -30.6084 H   0  0  0  0  0  0  0  0  0  0  0  0
   -2.1420   22.0870  -30.3700 C   0  0  0  0  0  0  0  0  0  0  0  0
   -1.0690   22.4880  -29.5510 C   0  0  0  0  0  0  0  0  0  0  0  0
   -0.2687   21.7731  -29.3092 H   0  0  0  0  0  0  0  0  0  0  0  0
   -1.0150   23.7880  -29.0440 C   0  0  0  0  0  0  0  0  0  0  0  0
   -0.1754   24.0906  -28.4010 H   0  0  0  0  0  0  0  0  0  0  0  0
   -2.0230   24.7060  -29.3500 C   0  0  0  0  0  0  0  0  0  0  0  0
   -1.9550   25.9960  -28.8340 O   0  0  0  0  0  0  0  0  0  0  0  0
   -3.0930   24.3350  -30.1730 C   0  0  0  0  0  0  0  0  0  0  0  0
   -4.0810   25.2890  -30.4620 O   0  0  0  0  0  0  0  0  0  0  0  0
   -5.4540   25.1610  -30.1100 C   0  0  0  0  0  0  0  0  0  0  0  0
   -5.5523   25.1518  -29.0144 H   0  0  0  0  0  0  0  0  0  0  0  0
   -6.0188   26.0104  -30.5217 H   0  0  0  0  0  0  0  0  0  0  0  0
   -5.8521   24.2218  -30.5217 H   0  0  0  0  0  0  0  0  0  0  0  0
   -3.1430   23.0230  -30.6840 C   0  0  0  0  0  0  0  0  0  0  0  0
   -3.9767   22.7269  -31.3376 H   0  0  0  0  0  0  0  0  0  0  0  0
   -1.5180   18.8310  -32.3400 C   0  0  0  0  0  0  0  0  0  0  0  0
   -0.5430   17.9030  -32.1980 N   0  0  0  0  0  0  0  0  0  0  0  0
   -0.8750   16.7010  -32.6720 N   0  0  0  0  0  0  0  0  0  0  0  0
   -2.1220   16.6570  -33.1860 C   0  0  0  0  0  0  0  0  0  0  0  0
   -2.6310   15.5700  -33.6930 N   0  0  0  0  0  0  0  0  0  0  0  0
   -3.9730   15.4200  -34.1850 C   0  0  0  0  0  0  0  0  0  0  0  0
   -4.2260   14.4820  -34.9870 O   0  0  0  0  0  0  0  0  0  0  0  0
   -5.0670   16.3120  -33.7460 C   0  0  0  0  0  0  0  0  0  0  0  0
   -5.5770   17.2860  -34.6180 C   0  0  0  0  0  0  0  0  0  0  0  0
   -5.2571   17.3022  -35.6703 H   0  0  0  0  0  0  0  0  0  0  0  0
   -6.4910   18.2360  -34.1520 C   0  0  0  0  0  0  0  0  0  0  0  0
   -6.8750   19.0078  -34.8353 H   0  0  0  0  0  0  0  0  0  0  0  0
   -6.9200   18.2090  -32.8180 C   0  0  0  0  0  0  0  0  0  0  0  0
   -7.9650   19.4830  -32.1890 S   0  0  0  0  0  0  0  0  0  0  0  0
   -8.8020   18.9290  -31.0700 O   0  0  0  0  0  0  0  0  0  0  0  0
   -8.8930   19.9470  -33.2780 O   0  0  0  0  0  0  0  0  0  0  0  0
   -7.0260   20.8360  -31.6040 N   0  0  0  0  0  0  0  0  0  0  0  0
   -6.8960   20.7190  -30.5720 H   0  0  0  0  0  0  0  0  0  0  0  0
   -7.7410   22.0980  -31.8490 C   0  0  0  0  0  0  0  0  0  0  0  0
   -8.0044   22.5628  -30.8875 H   0  0  0  0  0  0  0  0  0  0  0  0
   -7.0952   22.7802  -32.4214 H   0  0  0  0  0  0  0  0  0  0  0  0
   -8.6581   21.8947  -32.4214 H   0  0  0  0  0  0  0  0  0  0  0  0
   -5.7040   20.8610  -32.2460 C   0  0  0  0  0  0  0  0  0  0  0  0
   -4.9213   20.8758  -31.4732 H   0  0  0  0  0  0  0  0  0  0  0  0
   -5.5837   19.9650  -32.8726 H   0  0  0  0  0  0  0  0  0  0  0  0
   -5.6176   21.7609  -32.8726 H   0  0  0  0  0  0  0  0  0  0  0  0
   -6.4650   17.1940  -31.9660 C   0  0  0  0  0  0  0  0  0  0  0  0
   -6.8336   17.1406  -30.9310 H   0  0  0  0  0  0  0  0  0  0  0  0
   -5.5450   16.2500  -32.4270 C   0  0  0  0  0  0  0  0  0  0  0  0
   -5.1931   15.4543  -31.7539 H   0  0  0  0  0  0  0  0  0  0  0  0
   -2.8700   18.1690  -33.1010 S   0  0  0  0  0  0  0  0  0  0  0  0
  1  2  1  0
  2  3  2  3
  3  4  1  0
  3  5  1  0
  5  6  2  0
  6  7  1  0
  6  8  1  0
  8  9  1  0
  8 10  2  0
 10 11  1  0
 10 12  1  0
 12 13  1  0
 13 14  1  0
 14 15  1  0
 14 16  1  0
 14 17  1  0
 12 18  2  0
 18 19  1  0
  2 20  1  0
 20 21  2  0
 21 22  1  0
 22 23  1  0
 23 24  2  0
 24 25  1  0
 25 26  2  0
 25 27  1  0
 27 28  2  0
 28 29  1  0
 28 30  1  0
 30 31  1  0
 30 32  2  0
 32 33  1  0
 33 34  2  0
 33 35  2  0
 33 36  1  0
 36 37  1  0
 36 38  1  0
 38 39  1  0
 38 40  1  0
 38 41  1  0
 36 42  1  0
 42 43  1  0
 42 44  1  0
 42 45  1  0
 32 46  1  0
 46 47  1  0
 46 48  2  0
 48 49  1  0
 23 50  1  0
 18  5  1  0
 50 20  1  0
 48 27  1  0
M  CHG  3  11  -1  22  -1  36   1
M  END
>  <UniqueID>  (11) 
11

>  <SMILES>  (11) 
COc1cc(C=Cc2n[n-]/c(=N/C(=O)c3ccc(S(=O)(=O)[NH+](C)C)cc3)s2)ccc1[O-]

>  <Energy>  (11) 
91.916105653965

>  <Genealogy>  (11) 
COc1cc(C=Cc2n[n-]c(=NC(=O)c3ccc(S(=O)(=O)[NH+](C)C)cc3)s2)ccc1[O-] (protonated)
COc1cc(C=Cc2n[n-]/c(=N/C(=O)c3ccc(S(=O)(=O)[NH+](C)C)cc3)s2)ccc1[O-] (cis-trans isomerization)
COc1cc(C=Cc2n[n-]/c(=N/C(=O)c3ccc(S(=O)(=O)[NH+](C)C)cc3)s2)ccc1[O-] (3D coordinates assigned)
COc1cc(C=Cc2n[n-]/c(=N/C(=O)c3ccc(S(=O)(=O)[NH+](C)C)cc3)s2)ccc1[O-] (optimized conformer: 91.916105653965 kcal/mol)

>  <smiles>  (11) 
COc1cc(C=Cc2n[nH]c(=NC(=O)c3ccc(S(=O)(=O)N(C)C)cc3)s2)ccc1O

>  <score_type>  (11) 
oracle

>  <origin>  (11) 
adgpu

>  <m_score__min__energy>  (11) 
-10.949999999999999

>  <m_primary>  (11) 
energy

$$$$
11:0
     RDKit          3D

 49 52  0  0  0  0  0  0  0  0999 V2000
   -4.4970   23.1550  -32.1690 O   0  0  0  0  0  0  0  0  0  0  0  0
   -5.7050   23.4510  -31.3270 S   0  0  0  0  0  0  0  0  0  0  0  0
   -6.1180   24.8800  -31.5330 O   0  0  0  0  0  0  0  0  0  0  0  0
   -5.2830   23.2320  -29.6600 N   0  0  0  0  0  0  0  0  0  0  0  0
   -3.9250   23.2890  -29.2240 C   0  0  0  0  0  0  0  0  0  0  0  0
   -3.4610   22.3320  -28.3150 C   0  0  0  0  0  0  0  0  0  0  0  0
   -2.1250   22.3410  -27.8890 C   0  0  0  0  0  0  0  0  0  0  0  0
   -1.2550   23.3520  -28.3480 C   0  0  0  0  0  0  0  0  0  0  0  0
   -1.7240   24.3100  -29.2590 C   0  0  0  0  0  0  0  0  0  0  0  0
   -3.0550   24.2930  -29.6890 C   0  0  0  0  0  0  0  0  0  0  0  0
   -3.4890   25.2880  -30.5660 O   0  0  0  0  0  0  0  0  0  0  0  0
    0.2010   23.3530  -27.9460 C   0  0  0  0  0  0  0  0  0  0  0  0
    0.4160   22.6130  -26.6940 N   0  0  0  0  0  0  0  0  0  0  0  0
   -0.1340   21.2580  -26.8020 C   0  0  0  0  0  0  0  0  0  0  0  0
   -1.6620   21.3220  -26.8790 C   0  0  0  0  0  0  0  0  0  0  0  0
   -7.0440   22.3710  -31.7610 C   0  0  0  0  0  0  0  0  0  0  0  0
   -8.3530   22.8610  -31.6180 C   0  0  0  0  0  0  0  0  0  0  0  0
   -9.4540   22.0560  -31.9110 C   0  0  0  0  0  0  0  0  0  0  0  0
   -9.2640   20.7510  -32.3560 C   0  0  0  0  0  0  0  0  0  0  0  0
   -7.9740   20.2500  -32.5220 C   0  0  0  0  0  0  0  0  0  0  0  0
   -6.8480   21.0490  -32.2480 C   0  0  0  0  0  0  0  0  0  0  0  0
   -5.2390   20.3460  -32.5100 S   0  0  0  0  0  0  0  0  0  0  0  0
   -4.4760   21.1370  -33.5360 O   0  0  0  0  0  0  0  0  0  0  0  0
   -4.4740   20.3560  -31.2170 O   0  0  0  0  0  0  0  0  0  0  0  0
   -5.3560   18.6890  -33.1050 C   0  0  0  0  0  0  0  0  0  0  0  0
   -5.8280   17.6770  -32.2560 C   0  0  0  0  0  0  0  0  0  0  0  0
   -5.9060   16.3580  -32.7130 C   0  0  0  0  0  0  0  0  0  0  0  0
   -5.5080   16.0430  -34.0160 C   0  0  0  0  0  0  0  0  0  0  0  0
   -5.0300   17.0470  -34.8630 C   0  0  0  0  0  0  0  0  0  0  0  0
   -4.9520   18.3670  -34.4090 C   0  0  0  0  0  0  0  0  0  0  0  0
   -4.1504   21.5656  -27.9310 H   0  0  0  0  0  0  0  0  0  0  0  0
   -1.0386   25.0820  -29.6389 H   0  0  0  0  0  0  0  0  0  0  0  0
   -3.9450   25.0750  -31.4450 H   0  0  0  0  0  0  0  0  0  0  0  0
    0.7925   22.8824  -28.7452 H   0  0  0  0  0  0  0  0  0  0  0  0
    0.5142   24.3956  -27.7882 H   0  0  0  0  0  0  0  0  0  0  0  0
    1.4490   22.5290  -26.5490 H   0  0  0  0  0  0  0  0  0  0  0  0
    0.2574   20.7765  -27.7103 H   0  0  0  0  0  0  0  0  0  0  0  0
    0.1606   20.6753  -25.9167 H   0  0  0  0  0  0  0  0  0  0  0  0
   -2.0465   20.3328  -27.1680 H   0  0  0  0  0  0  0  0  0  0  0  0
   -2.0440   21.6189  -25.8911 H   0  0  0  0  0  0  0  0  0  0  0  0
   -8.5117   23.8926  -31.2706 H   0  0  0  0  0  0  0  0  0  0  0  0
  -10.4728   22.4528  -31.7903 H   0  0  0  0  0  0  0  0  0  0  0  0
  -10.1332   20.1141  -32.5770 H   0  0  0  0  0  0  0  0  0  0  0  0
   -7.8340   19.2165  -32.8718 H   0  0  0  0  0  0  0  0  0  0  0  0
   -6.1372   17.9216  -31.2291 H   0  0  0  0  0  0  0  0  0  0  0  0
   -6.2809   15.5671  -32.0468 H   0  0  0  0  0  0  0  0  0  0  0  0
   -5.5711   15.0050  -34.3745 H   0  0  0  0  0  0  0  0  0  0  0  0
   -4.7151   16.7984  -35.8872 H   0  0  0  0  0  0  0  0  0  0  0  0
   -4.5728   19.1551  -35.0762 H   0  0  0  0  0  0  0  0  0  0  0  0
  1  2  2  0
  2  3  2  0
  2  4  1  0
  4  5  1  0
  5  6  2  0
  6  7  1  0
  7  8  2  0
  8  9  1  0
  9 10  2  0
 10 11  1  0
  8 12  1  0
 12 13  1  0
 13 14  1  0
 14 15  1  0
  2 16  1  0
 16 17  2  0
 17 18  1  0
 18 19  2  0
 19 20  1  0
 20 21  2  0
 21 22  1  0
 22 23  2  0
 22 24  2  0
 22 25  1  0
 25 26  2  0
 26 27  1  0
 27 28  2  0
 28 29  1  0
 29 30  2  0
 10  5  1  0
 21 16  1  0
 30 25  1  0
 15  7  1  0
  6 31  1  0
  9 32  1  0
 11 33  1  0
 12 34  1  0
 12 35  1  0
 13 36  1  0
 14 37  1  0
 14 38  1  0
 15 39  1  0
 15 40  1  0
 17 41  1  0
 18 42  1  0
 19 43  1  0
 20 44  1  0
 26 45  1  0
 27 46  1  0
 28 47  1  0
 29 48  1  0
 30 49  1  0
M  CHG  1   4  -1
M  END
>  <UniqueID>  (12) 
12

>  <SMILES>  (12) 
O=S(=O)([N-]c1cc2c(cc1O)CNCC2)c1ccccc1S(=O)(=O)c1ccccc1

>  <Energy>  (12) 
70.67334011678254

>  <Genealogy>  (12) 
O=S(=O)([N-]c1cc2c(cc1O)CNCC2)c1ccccc1S(=O)(=O)c1ccccc1 (protonated)
O=S(=O)([N-]c1cc2c(cc1O)CNCC2)c1ccccc1S(=O)(=O)c1ccccc1 (3D coordinates assigned)
O=S(=O)([N-]c1cc2c(cc1O)CNCC2)c1ccccc1S(=O)(=O)c1ccccc1 (nonaromatic ring conformer: 70.67334011678254 kcal/mol)

>  <smiles>  (12) 
O=S(=O)(Nc1cc2c(cc1O)CNCC2)c1ccccc1S(=O)(=O)c1ccccc1

>  <score_type>  (12) 
oracle

>  <origin>  (12) 
adgpu

>  <m_score__min__energy>  (12) 
-11.73

>  <m_primary>  (12) 
energy

$$$$
12:0
     RDKit          3D

 56 58  0  0  0  0  0  0  0  0999 V2000
   -2.7710   22.9150  -31.2150 O   0  0  0  0  0  0  0  0  0  0  0  0
   -3.6050   23.7120  -30.7040 C   0  0  0  0  0  0  0  0  0  0  0  0
   -3.1520   24.9090  -30.0610 N   0  0  0  0  0  0  0  0  0  0  0  0
   -2.2600   24.9260  -28.9070 C   0  0  0  0  0  0  0  0  0  0  0  0
   -2.6510   23.8260  -27.9140 C   0  0  0  0  0  0  0  0  0  0  0  0
   -1.6920   22.6320  -28.0060 C   0  0  0  0  0  0  0  0  0  0  0  0
   -2.3960   21.4360  -28.5310 N   0  0  0  0  0  0  0  0  0  0  0  0
   -3.0850   20.6620  -27.4720 C   0  0  0  0  0  0  0  0  0  0  0  0
   -2.1710   19.6030  -26.8170 C   0  0  0  0  0  0  0  0  0  0  0  0
   -0.8110   19.8910  -27.0520 O   0  0  0  0  0  0  0  0  0  0  0  0
   -0.5260   19.7610  -28.4330 C   0  0  0  0  0  0  0  0  0  0  0  0
   -1.5110   20.5560  -29.3240 C   0  0  0  0  0  0  0  0  0  0  0  0
   -5.0510   23.4390  -30.8270 C   0  0  0  0  0  0  0  0  0  0  0  0
   -5.4600   22.1590  -31.2400 C   0  0  0  0  0  0  0  0  0  0  0  0
   -6.8140   21.8800  -31.4740 C   0  0  0  0  0  0  0  0  0  0  0  0
   -7.3060   20.2890  -32.0610 S   0  0  0  0  0  0  0  0  0  0  0  0
   -7.9830   20.4400  -33.3950 O   0  0  0  0  0  0  0  0  0  0  0  0
   -8.2990   19.6930  -31.1010 O   0  0  0  0  0  0  0  0  0  0  0  0
   -5.9360   19.2150  -32.2310 N   0  0  0  0  0  0  0  0  0  0  0  0
   -6.3430   17.7910  -32.1340 C   0  0  0  0  0  0  0  0  0  0  0  0
   -6.4240   17.0970  -33.5000 C   0  0  0  0  0  0  0  0  0  0  0  0
   -5.0770   17.1580  -34.2420 C   0  0  0  0  0  0  0  0  0  0  0  0
   -4.2500   18.4020  -33.8710 C   0  0  0  0  0  0  0  0  0  0  0  0
   -5.1590   19.5560  -33.4420 C   0  0  0  0  0  0  0  0  0  0  0  0
   -7.7700   22.8810  -31.2710 C   0  0  0  0  0  0  0  0  0  0  0  0
   -7.3790   24.1470  -30.8340 C   0  0  0  0  0  0  0  0  0  0  0  0
   -6.0310   24.4340  -30.5920 C   0  0  0  0  0  0  0  0  0  0  0  0
   -5.7110   25.6970  -30.0910 O   0  0  0  0  0  0  0  0  0  0  0  0
   -1.2267   24.7587  -29.2450 H   0  0  0  0  0  0  0  0  0  0  0  0
   -2.3406   25.9029  -28.4077 H   0  0  0  0  0  0  0  0  0  0  0  0
   -2.6183   24.2352  -26.8935 H   0  0  0  0  0  0  0  0  0  0  0  0
   -3.6655   23.4787  -28.1592 H   0  0  0  0  0  0  0  0  0  0  0  0
   -0.8608   22.8870  -28.6798 H   0  0  0  0  0  0  0  0  0  0  0  0
   -1.3102   22.4054  -26.9996 H   0  0  0  0  0  0  0  0  0  0  0  0
   -3.4292   21.3593  -26.6940 H   0  0  0  0  0  0  0  0  0  0  0  0
   -3.9252   20.1303  -27.9425 H   0  0  0  0  0  0  0  0  0  0  0  0
   -2.3537   19.5922  -25.7323 H   0  0  0  0  0  0  0  0  0  0  0  0
   -2.4015   18.6219  -27.2577 H   0  0  0  0  0  0  0  0  0  0  0  0
    0.4932   20.1310  -28.6183 H   0  0  0  0  0  0  0  0  0  0  0  0
   -0.6265   18.6972  -28.6941 H   0  0  0  0  0  0  0  0  0  0  0  0
   -0.9331   21.1748  -30.0262 H   0  0  0  0  0  0  0  0  0  0  0  0
   -2.1445   19.8315  -29.8567 H   0  0  0  0  0  0  0  0  0  0  0  0
   -4.7093   21.3674  -31.3812 H   0  0  0  0  0  0  0  0  0  0  0  0
   -5.6083   17.2578  -31.5128 H   0  0  0  0  0  0  0  0  0  0  0  0
   -7.3497   17.7656  -31.6915 H   0  0  0  0  0  0  0  0  0  0  0  0
   -6.7026   16.0435  -33.3502 H   0  0  0  0  0  0  0  0  0  0  0  0
   -7.1781   17.6176  -34.1085 H   0  0  0  0  0  0  0  0  0  0  0  0
   -4.4946   16.2599  -33.9885 H   0  0  0  0  0  0  0  0  0  0  0  0
   -5.2933   17.2121  -35.3192 H   0  0  0  0  0  0  0  0  0  0  0  0
   -3.5729   18.1498  -33.0416 H   0  0  0  0  0  0  0  0  0  0  0  0
   -3.6757   18.7177  -34.7544 H   0  0  0  0  0  0  0  0  0  0  0  0
   -4.5388   20.4397  -33.2312 H   0  0  0  0  0  0  0  0  0  0  0  0
   -5.8667   19.7589  -34.2593 H   0  0  0  0  0  0  0  0  0  0  0  0
   -8.8334   22.6693  -31.4565 H   0  0  0  0  0  0  0  0  0  0  0  0
   -8.1382   24.9276  -30.6781 H   0  0  0  0  0  0  0  0  0  0  0  0
   -4.9820   25.8540  -29.4080 H   0  0  0  0  0  0  0  0  0  0  0  0
  1  2  2  0
  2  3  1  0
  3  4  1  0
  4  5  1  0
  5  6  1  0
  6  7  1  0
  7  8  1  0
  8  9  1  0
  9 10  1  0
 10 11  1  0
 11 12  1  0
  2 13  1  0
 13 14  2  0
 14 15  1  0
 15 16  1  0
 16 17  2  0
 16 18  2  0
 16 19  1  0
 19 20  1  0
 20 21  1  0
 21 22  1  0
 22 23  1  0
 23 24  1  0
 15 25  2  0
 25 26  1  0
 26 27  2  0
 27 28  1  0
 12  7  1  0
 27 13  1  0
 24 19  1  0
  4 29  1  0
  4 30  1  0
  5 31  1  0
  5 32  1  0
  6 33  1  0
  6 34  1  0
  8 35  1  0
  8 36  1  0
  9 37  1  0
  9 38  1  0
 11 39  1  0
 11 40  1  0
 12 41  1  0
 12 42  1  0
 14 43  1  0
 20 44  1  0
 20 45  1  0
 21 46  1  0
 21 47  1  0
 22 48  1  0
 22 49  1  0
 23 50  1  0
 23 51  1  0
 24 52  1  0
 24 53  1  0
 25 54  1  0
 26 55  1  0
 28 56  1  0
M  CHG  1   3  -1
M  END
>  <UniqueID>  (13) 
13

>  <SMILES>  (13) 
O=C([N-]CCCN1CCOCC1)c1cc(S(=O)(=O)N2CCCCC2)ccc1O

>  <Energy>  (13) 
73.47408919526252

>  <Genealogy>  (13) 
O=C([N-]CCCN1CCOCC1)c1cc(S(=O)(=O)N2CCCCC2)ccc1O (protonated)
O=C([N-]CCCN1CCOCC1)c1cc(S(=O)(=O)N2CCCCC2)ccc1O (3D coordinates assigned)
O=C([N-]CCCN1CCOCC1)c1cc(S(=O)(=O)N2CCCCC2)ccc1O (nonaromatic ring conformer: 73.47408919526252 kcal/mol)

>  <smiles>  (13) 
O=C(NCCCN1CCOCC1)c1cc(S(=O)(=O)N2CCCCC2)ccc1O

>  <score_type>  (13) 
oracle

>  <origin>  (13) 
adgpu

>  <m_score__min__energy>  (13) 
-10.949999999999999

>  <m_primary>  (13) 
energy

$$$$
13:0
     RDKit          3D

 52 55  0  0  0  0  0  0  0  0999 V2000
   -0.5660   21.0190  -28.5130 O   0  0  0  0  0  0  0  0  0  0  0  0
   -1.2350   22.2800  -28.0400 S   0  0  0  0  0  0  0  0  0  0  0  0
   -1.5720   22.1510  -26.5820 O   0  0  0  0  0  0  0  0  0  0  0  0
   -0.1790   23.6380  -28.2720 N   0  0  0  0  0  0  0  0  0  0  0  0
   -0.2290   24.8390  -27.4820 C   0  0  0  0  0  0  0  0  0  0  0  0
    0.2200   24.8590  -26.1480 C   0  0  0  0  0  0  0  0  0  0  0  0
    0.1600   26.0360  -25.3890 C   0  0  0  0  0  0  0  0  0  0  0  0
   -0.3380   27.2180  -25.9680 C   0  0  0  0  0  0  0  0  0  0  0  0
   -0.8080   27.1970  -27.2880 C   0  0  0  0  0  0  0  0  0  0  0  0
   -0.7540   26.0210  -28.0410 C   0  0  0  0  0  0  0  0  0  0  0  0
   -1.2250   26.0360  -29.3480 O   0  0  0  0  0  0  0  0  0  0  0  0
   -0.4510   28.4790  -25.1470 C   0  0  0  0  0  0  0  0  0  0  0  0
    0.5540   28.4930  -23.9900 C   0  0  0  0  0  0  0  0  0  0  0  0
    0.4510   27.2050  -23.1700 C   0  0  0  0  0  0  0  0  0  0  0  0
    0.6290   26.0400  -24.0330 N   0  0  0  0  0  0  0  0  0  0  0  0
   -2.7010   22.5280  -28.9810 C   0  0  0  0  0  0  0  0  0  0  0  0
   -2.7110   22.3140  -30.3670 C   0  0  0  0  0  0  0  0  0  0  0  0
   -3.8840   22.5110  -31.1010 C   0  0  0  0  0  0  0  0  0  0  0  0
   -5.0600   22.9200  -30.4550 C   0  0  0  0  0  0  0  0  0  0  0  0
   -6.5330   23.2010  -31.3770 S   0  0  0  0  0  0  0  0  0  0  0  0
   -7.3980   24.2030  -30.6620 O   0  0  0  0  0  0  0  0  0  0  0  0
   -6.1660   23.7620  -32.7220 O   0  0  0  0  0  0  0  0  0  0  0  0
   -7.3930   21.6950  -31.5810 N   0  0  0  0  0  0  0  0  0  0  0  0
   -8.8180   21.9590  -31.8520 C   0  0  0  0  0  0  0  0  0  0  0  0
   -9.5410   20.6760  -32.3050 C   0  0  0  0  0  0  0  0  0  0  0  0
   -8.7340   19.5350  -32.0880 O   0  0  0  0  0  0  0  0  0  0  0  0
   -7.5750   19.6090  -32.8980 C   0  0  0  0  0  0  0  0  0  0  0  0
   -6.7960   20.9250  -32.6820 C   0  0  0  0  0  0  0  0  0  0  0  0
   -5.0490   23.1360  -29.0710 C   0  0  0  0  0  0  0  0  0  0  0  0
   -3.8760   22.9370  -28.3380 C   0  0  0  0  0  0  0  0  0  0  0  0
    0.5630   23.5300  -28.9980 H   0  0  0  0  0  0  0  0  0  0  0  0
    0.6226   23.9405  -25.6960 H   0  0  0  0  0  0  0  0  0  0  0  0
   -1.2224   28.1128  -27.7347 H   0  0  0  0  0  0  0  0  0  0  0  0
   -0.2592   29.3458  -25.7965 H   0  0  0  0  0  0  0  0  0  0  0  0
   -1.4646   28.5221  -24.7218 H   0  0  0  0  0  0  0  0  0  0  0  0
    1.5721   28.5819  -24.3968 H   0  0  0  0  0  0  0  0  0  0  0  0
    0.3291   29.3483  -23.3358 H   0  0  0  0  0  0  0  0  0  0  0  0
    1.2312   27.2050  -22.3946 H   0  0  0  0  0  0  0  0  0  0  0  0
   -0.5438   27.1562  -22.7031 H   0  0  0  0  0  0  0  0  0  0  0  0
    1.0290   25.1660  -23.6220 H   0  0  0  0  0  0  0  0  0  0  0  0
   -1.7925   21.9900  -30.8782 H   0  0  0  0  0  0  0  0  0  0  0  0
   -3.8850   22.3448  -32.1884 H   0  0  0  0  0  0  0  0  0  0  0  0
   -9.2947   22.3359  -30.9351 H   0  0  0  0  0  0  0  0  0  0  0  0
   -8.8892   22.7044  -32.6578 H   0  0  0  0  0  0  0  0  0  0  0  0
  -10.4754   20.5693  -31.7345 H   0  0  0  0  0  0  0  0  0  0  0  0
   -9.7531   20.7552  -33.3814 H   0  0  0  0  0  0  0  0  0  0  0  0
   -6.9164   18.7629  -32.6523 H   0  0  0  0  0  0  0  0  0  0  0  0
   -7.8951   19.5745  -33.9498 H   0  0  0  0  0  0  0  0  0  0  0  0
   -5.7496   20.6914  -32.4361 H   0  0  0  0  0  0  0  0  0  0  0  0
   -6.8412   21.5236  -33.6037 H   0  0  0  0  0  0  0  0  0  0  0  0
   -5.9663   23.4632  -28.5597 H   0  0  0  0  0  0  0  0  0  0  0  0
   -3.8756   23.1024  -27.2505 H   0  0  0  0  0  0  0  0  0  0  0  0
  1  2  2  0
  2  3  2  0
  2  4  1  0
  4  5  1  0
  5  6  2  0
  6  7  1  0
  7  8  2  0
  8  9  1  0
  9 10  2  0
 10 11  1  0
  8 12  1  0
 12 13  1  0
 13 14  1  0
 14 15  1  0
  2 16  1  0
 16 17  2  0
 17 18  1  0
 18 19  2  0
 19 20  1  0
 20 21  2  0
 20 22  2  0
 20 23  1  0
 23 24  1  0
 24 25  1  0
 25 26  1  0
 26 27  1  0
 27 28  1  0
 19 29  1  0
 29 30  2  0
 10  5  1  0
 30 16  1  0
 15  7  1  0
 28 23  1  0
  4 31  1  0
  6 32  1  0
  9 33  1  0
 12 34  1  0
 12 35  1  0
 13 36  1  0
 13 37  1  0
 14 38  1  0
 14 39  1  0
 15 40  1  0
 17 41  1  0
 18 42  1  0
 24 43  1  0
 24 44  1  0
 25 45  1  0
 25 46  1  0
 27 47  1  0
 27 48  1  0
 28 49  1  0
 28 50  1  0
 29 51  1  0
 30 52  1  0
M  CHG  1  11  -1
M  END
>  <UniqueID>  (14) 
14

>  <SMILES>  (14) 
O=S(=O)(Nc1cc2c(cc1[O-])CCCN2)c1ccc(S(=O)(=O)N2CCOCC2)cc1

>  <Energy>  (14) 
64.8153838307368

>  <Genealogy>  (14) 
O=S(=O)(Nc1cc2c(cc1[O-])CCCN2)c1ccc(S(=O)(=O)N2CCOCC2)cc1 (protonated)
O=S(=O)(Nc1cc2c(cc1[O-])CCCN2)c1ccc(S(=O)(=O)N2CCOCC2)cc1 (3D coordinates assigned)
O=S(=O)(Nc1cc2c(cc1[O-])CCCN2)c1ccc(S(=O)(=O)N2CCOCC2)cc1 (nonaromatic ring conformer: 64.8153838307368 kcal/mol)

>  <smiles>  (14) 
O=S(=O)(Nc1cc2c(cc1O)CCCN2)c1ccc(S(=O)(=O)N2CCOCC2)cc1

>  <score_type>  (14) 
oracle

>  <origin>  (14) 
adgpu

>  <m_score__min__energy>  (14) 
-14.58

>  <m_primary>  (14) 
energy

$$$$
14:0
     RDKit          3D

 71 75  0  0  0  0  0  0  0  0999 V2000
   -4.0270   14.6470  -32.7120 C   0  0  0  0  0  0  0  0  0  0  0  0
   -3.1800   15.8310  -33.0630 C   0  0  0  0  0  0  0  0  0  0  0  0
   -1.8370   15.8180  -32.9830 N   0  0  0  0  0  0  0  0  0  0  0  0
   -1.3960   16.9970  -33.4570 C   0  0  0  0  0  0  0  0  0  0  0  0
    0.0380   17.3210  -33.6200 C   0  0  0  0  0  0  0  0  0  0  0  0
    0.4520   17.5460  -34.7900 O   0  0  0  0  0  0  0  0  0  0  0  0
    0.9650   17.4650  -32.5030 N   0  0  0  0  0  0  0  0  0  0  0  0
    0.3960   17.2840  -31.1560 C   0  0  0  0  0  0  0  0  0  0  0  0
   -0.4970   18.4460  -30.6860 C   0  0  0  0  0  0  0  0  0  0  0  0
   -0.2730   19.7380  -31.3690 N   0  0  0  0  0  0  0  0  0  0  0  0
   -1.2500   20.8130  -31.1880 C   0  0  0  0  0  0  0  0  0  0  0  0
   -2.5700   20.6940  -31.6870 C   0  0  0  0  0  0  0  0  0  0  0  0
   -3.5330   21.6710  -31.4260 C   0  0  0  0  0  0  0  0  0  0  0  0
   -3.2170   22.7910  -30.6530 C   0  0  0  0  0  0  0  0  0  0  0  0
   -1.8980   22.9660  -30.1970 C   0  0  0  0  0  0  0  0  0  0  0  0
   -0.9260   21.9930  -30.4750 C   0  0  0  0  0  0  0  0  0  0  0  0
   -1.5760   24.1700  -29.4030 C   0  0  0  0  0  0  0  0  0  0  0  0
   -0.3830   24.4810  -29.1450 O   0  0  0  0  0  0  0  0  0  0  0  0
   -2.6420   25.0050  -28.9460 N   0  0  0  0  0  0  0  0  0  0  0  0
   -4.0260   24.5520  -29.0500 C   0  0  0  0  0  0  0  0  0  0  0  0
   -4.2620   23.8570  -30.3980 C   0  0  0  0  0  0  0  0  0  0  0  0
    0.8770   19.9590  -32.2740 C   0  0  0  0  0  0  0  0  0  0  0  0
    1.7330   18.7170  -32.5480 C   0  0  0  0  0  0  0  0  0  0  0  0
   -2.4730   17.8190  -33.7630 C   0  0  0  0  0  0  0  0  0  0  0  0
   -2.4040   19.2330  -34.2570 C   0  0  0  0  0  0  0  0  0  0  0  0
   -3.6200   17.0510  -33.5660 C   0  0  0  0  0  0  0  0  0  0  0  0
   -5.0120   17.4030  -33.9280 C   0  0  0  0  0  0  0  0  0  0  0  0
   -5.2650   17.8600  -35.0750 O   0  0  0  0  0  0  0  0  0  0  0  0
   -6.0800   17.2080  -32.9960 N   0  0  0  0  0  0  0  0  0  0  0  0
   -7.0150   18.0660  -32.7080 C   0  0  0  0  0  0  0  0  0  0  0  0
   -6.9920   19.5110  -33.1400 C   0  0  0  0  0  0  0  0  0  0  0  0
   -7.2060   20.3970  -31.9790 N   0  0  0  0  0  0  0  0  0  0  0  0
   -8.5740   20.2590  -31.4240 C   0  0  0  0  0  0  0  0  0  0  0  0
   -9.5050   21.3790  -31.9240 C   0  0  0  0  0  0  0  0  0  0  0  0
   -9.0630   22.6820  -31.5650 O   0  0  0  0  0  0  0  0  0  0  0  0
   -7.6510   22.7950  -31.4470 C   0  0  0  0  0  0  0  0  0  0  0  0
   -6.8740   21.8010  -32.3270 C   0  0  0  0  0  0  0  0  0  0  0  0
   -4.0930   14.5548  -31.6179 H   0  0  0  0  0  0  0  0  0  0  0  0
   -5.0356   14.7808  -33.1302 H   0  0  0  0  0  0  0  0  0  0  0  0
   -3.5746   13.7357  -33.1302 H   0  0  0  0  0  0  0  0  0  0  0  0
   -1.2530   15.0340  -32.6210 H   0  0  0  0  0  0  0  0  0  0  0  0
    1.6660   16.6930  -32.6120 H   0  0  0  0  0  0  0  0  0  0  0  0
   -0.2073   16.3642  -31.1573 H   0  0  0  0  0  0  0  0  0  0  0  0
    1.2452   17.2363  -30.4584 H   0  0  0  0  0  0  0  0  0  0  0  0
   -1.5453   18.1545  -30.8477 H   0  0  0  0  0  0  0  0  0  0  0  0
   -0.2414   18.6148  -29.6295 H   0  0  0  0  0  0  0  0  0  0  0  0
   -2.8417   19.8159  -32.2912 H   0  0  0  0  0  0  0  0  0  0  0  0
   -4.5489   21.5578  -31.8324 H   0  0  0  0  0  0  0  0  0  0  0  0
    0.1075   22.1497  -30.1326 H   0  0  0  0  0  0  0  0  0  0  0  0
   -4.2377   23.8439  -28.2352 H   0  0  0  0  0  0  0  0  0  0  0  0
   -4.6930   25.4236  -28.9765 H   0  0  0  0  0  0  0  0  0  0  0  0
   -5.2577   23.3895  -30.3916 H   0  0  0  0  0  0  0  0  0  0  0  0
   -4.1935   24.6109  -31.1961 H   0  0  0  0  0  0  0  0  0  0  0  0
    0.4889   20.3251  -33.2360 H   0  0  0  0  0  0  0  0  0  0  0  0
    1.5344   20.6798  -31.7658 H   0  0  0  0  0  0  0  0  0  0  0  0
    2.1831   18.8157  -33.5468 H   0  0  0  0  0  0  0  0  0  0  0  0
    2.4945   18.6628  -31.7560 H   0  0  0  0  0  0  0  0  0  0  0  0
   -2.3705   19.9201  -33.3986 H   0  0  0  0  0  0  0  0  0  0  0  0
   -1.4984   19.3644  -34.8674 H   0  0  0  0  0  0  0  0  0  0  0  0
   -3.2925   19.4519  -34.8674 H   0  0  0  0  0  0  0  0  0  0  0  0
   -7.8728   17.7169  -32.1145 H   0  0  0  0  0  0  0  0  0  0  0  0
   -6.0165   19.7382  -33.5947 H   0  0  0  0  0  0  0  0  0  0  0  0
   -7.7970   19.6785  -33.8707 H   0  0  0  0  0  0  0  0  0  0  0  0
   -8.9876   19.2873  -31.7317 H   0  0  0  0  0  0  0  0  0  0  0  0
   -8.5091   20.3295  -30.3282 H   0  0  0  0  0  0  0  0  0  0  0  0
   -9.5635   21.3203  -33.0209 H   0  0  0  0  0  0  0  0  0  0  0  0
  -10.4842   21.2250  -31.4471 H   0  0  0  0  0  0  0  0  0  0  0  0
   -7.3592   23.8156  -31.7356 H   0  0  0  0  0  0  0  0  0  0  0  0
   -7.3969   22.5648  -30.4018 H   0  0  0  0  0  0  0  0  0  0  0  0
   -7.1316   21.9791  -33.3815 H   0  0  0  0  0  0  0  0  0  0  0  0
   -5.7982   21.9551  -32.1571 H   0  0  0  0  0  0  0  0  0  0  0  0
  1  2  1  0
  2  3  1  0
  3  4  1  0
  4  5  1  0
  5  6  2  0
  5  7  1  0
  7  8  1  0
  8  9  1  0
  9 10  1  0
 10 11  1  0
 11 12  2  0
 12 13  1  0
 13 14  2  0
 14 15  1  0
 15 16  2  0
 15 17  1  0
 17 18  2  0
 17 19  1  0
 19 20  1  0
 20 21  1  0
 10 22  1  0
 22 23  1  0
  4 24  2  0
 24 25  1  0
 24 26  1  0
 26 27  1  0
 27 28  2  0
 27 29  1  0
 29 30  2  3
 30 31  1  0
 31 32  1  0
 32 33  1  0
 33 34  1  0
 34 35  1  0
 35 36  1  0
 36 37  1  0
 26  2  2  0
 37 32  1  0
 23  7  1  0
 16 11  1  0
 21 14  1  0
  1 38  1  0
  1 39  1  0
  1 40  1  0
  3 41  1  0
  7 42  1  0
  8 43  1  0
  8 44  1  0
  9 45  1  0
  9 46  1  0
 12 47  1  0
 13 48  1  0
 16 49  1  0
 20 50  1  0
 20 51  1  0
 21 52  1  0
 21 53  1  0
 22 54  1  0
 22 55  1  0
 23 56  1  0
 23 57  1  0
 25 58  1  0
 25 59  1  0
 25 60  1  0
 30 61  1  0
 31 62  1  0
 31 63  1  0
 33 64  1  0
 33 65  1  0
 34 66  1  0
 34 67  1  0
 36 68  1  0
 36 69  1  0
 37 70  1  0
 37 71  1  0
M  CHG  2   7   1  19  -1
M  END
>  <UniqueID>  (15) 
15

>  <SMILES>  (15) 
Cc1[nH]c(C(=O)[NH+]2CCN(c3ccc4c(c3)C(=O)[N-]CC4)CC2)c(C)c1C(=O)N=CCN1CCOCC1

>  <Energy>  (15) 
140.71950454823906

>  <Genealogy>  (15) 
Cc1[nH]c(C(=O)[NH+]2CCN(c3ccc4c(c3)C(=O)[N-]CC4)CC2)c(C)c1C(=O)N=CCN1CCOCC1 (protonated)
Cc1[nH]c(C(=O)[NH+]2CCN(c3ccc4c(c3)C(=O)[N-]CC4)CC2)c(C)c1C(=O)N=CCN1CCOCC1 (3D coordinates assigned)
Cc1[nH]c(C(=O)[NH+]2CCN(c3ccc4c(c3)C(=O)[N-]CC4)CC2)c(C)c1C(=O)N=CCN1CCOCC1 (nonaromatic ring conformer: 140.71950454823906 kcal/mol)

>  <smiles>  (15) 
Cc1[nH]c(C(=O)N2CCN(c3ccc4c(c3)C(=O)NCC4)CC2)c(C)c1C(=O)N=CCN1CCOCC1

>  <score_type>  (15) 
oracle

>  <origin>  (15) 
adgpu

>  <m_score__min__energy>  (15) 
-11.07

>  <m_primary>  (15) 
energy

$$$$
15:0
     RDKit          3D

 46 48  0  0  0  0  0  0  0  0999 V2000
   -8.1750   20.3960  -32.6540 C   0  0  0  0  0  0  0  0  0  0  0  0
   -7.3960   21.5080  -31.9990 C   0  0  0  0  0  0  0  0  0  0  0  0
   -8.0900   22.6320  -31.5190 C   0  0  0  0  0  0  0  0  0  0  0  0
   -7.4060   23.6850  -30.9120 C   0  0  0  0  0  0  0  0  0  0  0  0
   -6.0180   23.6330  -30.7700 C   0  0  0  0  0  0  0  0  0  0  0  0
   -5.1620   24.9770  -30.0180 S   0  0  0  0  0  0  0  0  0  0  0  0
   -5.2810   24.8950  -28.5210 O   0  0  0  0  0  0  0  0  0  0  0  0
   -5.7810   26.2700  -30.4710 O   0  0  0  0  0  0  0  0  0  0  0  0
   -3.4880   24.9570  -30.4770 N   0  0  0  0  0  0  0  0  0  0  0  0
   -2.6640   24.5560  -29.3370 C   0  0  0  0  0  0  0  0  0  0  0  0
   -2.3380   23.0590  -29.4150 C   0  0  2  0  0  0  0  0  0  0  0  0
   -3.2460   22.2170  -28.5160 C   0  0  0  0  0  0  0  0  0  0  0  0
   -2.3240   21.7280  -27.4410 C   0  0  0  0  0  0  0  0  0  0  0  0
   -0.9640   21.8180  -28.0960 C   0  0  0  0  0  0  0  0  0  0  0  0
   -0.9900   22.8490  -29.0530 O   0  0  0  0  0  0  0  0  0  0  0  0
   -5.3120   22.5270  -31.2590 C   0  0  0  0  0  0  0  0  0  0  0  0
   -5.9830   21.4640  -31.8810 C   0  0  0  0  0  0  0  0  0  0  0  0
   -5.0350   20.0880  -32.4720 S   0  0  0  0  0  0  0  0  0  0  0  0
   -5.3410   18.8800  -31.6310 O   0  0  0  0  0  0  0  0  0  0  0  0
   -5.3970   19.7740  -33.8960 O   0  0  0  0  0  0  0  0  0  0  0  0
   -3.3190   20.4750  -32.4040 C   0  0  0  0  0  0  0  0  0  0  0  0
   -2.6910   21.1310  -33.4740 C   0  0  0  0  0  0  0  0  0  0  0  0
   -1.3260   21.4270  -33.4110 C   0  0  0  0  0  0  0  0  0  0  0  0
   -0.5830   21.0730  -32.2810 C   0  0  0  0  0  0  0  0  0  0  0  0
   -1.2060   20.4240  -31.2120 C   0  0  0  0  0  0  0  0  0  0  0  0
   -2.5710   20.1260  -31.2710 C   0  0  0  0  0  0  0  0  0  0  0  0
   -8.6230   19.7565  -31.8792 H   0  0  0  0  0  0  0  0  0  0  0  0
   -8.9708   20.8254  -33.2804 H   0  0  0  0  0  0  0  0  0  0  0  0
   -7.4996   19.7947  -33.2804 H   0  0  0  0  0  0  0  0  0  0  0  0
   -9.1839   22.6817  -31.6232 H   0  0  0  0  0  0  0  0  0  0  0  0
   -7.9621   24.5597  -30.5438 H   0  0  0  0  0  0  0  0  0  0  0  0
   -1.7270   25.1322  -29.3462 H   0  0  0  0  0  0  0  0  0  0  0  0
   -3.2190   24.7530  -28.4079 H   0  0  0  0  0  0  0  0  0  0  0  0
   -2.5110   22.7380  -30.4528 H   0  0  0  0  0  0  0  0  0  0  0  0
   -4.0547   22.8296  -28.0908 H   0  0  0  0  0  0  0  0  0  0  0  0
   -3.7425   21.3984  -29.0575 H   0  0  0  0  0  0  0  0  0  0  0  0
   -2.3778   22.3715  -26.5505 H   0  0  0  0  0  0  0  0  0  0  0  0
   -2.5690   20.7162  -27.0856 H   0  0  0  0  0  0  0  0  0  0  0  0
   -0.2009   22.0388  -27.3351 H   0  0  0  0  0  0  0  0  0  0  0  0
   -0.7189   20.8622  -28.5823 H   0  0  0  0  0  0  0  0  0  0  0  0
   -4.2176   22.4914  -31.1540 H   0  0  0  0  0  0  0  0  0  0  0  0
   -3.2736   21.4127  -34.3635 H   0  0  0  0  0  0  0  0  0  0  0  0
   -0.8359   21.9393  -34.2520 H   0  0  0  0  0  0  0  0  0  0  0  0
    0.4912   21.3052  -32.2335 H   0  0  0  0  0  0  0  0  0  0  0  0
   -0.6216   20.1469  -30.3222 H   0  0  0  0  0  0  0  0  0  0  0  0
   -3.0587   19.6167  -30.4267 H   0  0  0  0  0  0  0  0  0  0  0  0
  1  2  1  0
  2  3  2  0
  3  4  1  0
  4  5  2  0
  5  6  1  0
  6  7  2  0
  6  8  2  0
  6  9  1  0
  9 10  1  0
 10 11  1  0
 11 12  1  0
 12 13  1  0
 13 14  1  0
 14 15  1  0
  5 16  1  0
 16 17  2  0
 17 18  1  0
 18 19  2  0
 18 20  2  0
 18 21  1  0
 21 22  2  0
 22 23  1  0
 23 24  2  0
 24 25  1  0
 25 26  2  0
 17  2  1  0
 26 21  1  0
 15 11  1  0
  1 27  1  0
  1 28  1  0
  1 29  1  0
  3 30  1  0
  4 31  1  0
 10 32  1  0
 10 33  1  0
 11 34  1  6
 12 35  1  0
 12 36  1  0
 13 37  1  0
 13 38  1  0
 14 39  1  0
 14 40  1  0
 16 41  1  0
 22 42  1  0
 23 43  1  0
 24 44  1  0
 25 45  1  0
 26 46  1  0
M  CHG  1   9  -1
M  END
>  <UniqueID>  (16) 
16

>  <SMILES>  (16) 
Cc1ccc(S(=O)(=O)[N-]C[C@@H]2CCCO2)cc1S(=O)(=O)c1ccccc1

>  <Energy>  (16) 
46.65637121514839

>  <Genealogy>  (16) 
Cc1ccc(S(=O)(=O)[N-]CC2CCCO2)cc1S(=O)(=O)c1ccccc1 (protonated)
Cc1ccc(S(=O)(=O)[N-]C[C@@H]2CCCO2)cc1S(=O)(=O)c1ccccc1 (chirality)
Cc1ccc(S(=O)(=O)[N-]C[C@@H]2CCCO2)cc1S(=O)(=O)c1ccccc1 (3D coordinates assigned)
Cc1ccc(S(=O)(=O)[N-]C[C@@H]2CCCO2)cc1S(=O)(=O)c1ccccc1 (nonaromatic ring conformer: 46.65637121514839 kcal/mol)

>  <smiles>  (16) 
Cc1ccc(S(=O)(=O)NCC2CCCO2)cc1S(=O)(=O)c1ccccc1

>  <score_type>  (16) 
oracle

>  <origin>  (16) 
adgpu

>  <m_score__min__energy>  (16) 
-11.449999999999999

>  <m_primary>  (16) 
energy

$$$$
16:0
     RDKit          3D

 44 47  0  0  1  0  0  0  0  0999 V2000
   -0.8330   27.1800  -23.4770 C   0  0  0  0  0  0  0  0  0  0  0  0
   -0.5010   25.8420  -23.4770 C   0  0  0  0  0  0  0  0  0  0  0  0
    0.0750   25.2380  -24.5740 C   0  0  0  0  0  0  0  0  0  0  0  0
    0.3040   26.0410  -25.6760 C   0  0  0  0  0  0  0  0  0  0  0  0
    0.9280   25.4970  -26.9330 C   0  0  0  0  0  0  0  0  0  0  0  0
    0.0050   25.6830  -28.0010 N   0  0  0  0  0  0  0  0  0  0  0  0
   -1.0300   24.9490  -28.2200 C   0  0  0  0  0  0  0  0  0  0  0  0
   -1.2920   23.8930  -27.3700 C   0  0  0  0  0  0  0  0  0  0  0  0
   -2.4130   23.1300  -27.6400 C   0  0  0  0  0  0  0  0  0  0  0  0
   -3.2190   23.4010  -28.6840 N   0  0  0  0  0  0  0  0  0  0  0  0
   -2.8960   24.4510  -29.4710 C   0  0  0  0  0  0  0  0  0  0  0  0
   -3.6630   24.7100  -30.4660 N   0  0  0  0  0  0  0  0  0  0  0  0
   -4.8290   23.9650  -30.7980 C   0  0  0  0  0  0  0  0  0  0  0  0
   -6.0960   24.3170  -30.3840 C   0  0  0  0  0  0  0  0  0  0  0  0
   -7.1590   23.5070  -30.7730 C   0  0  0  0  0  0  0  0  0  0  0  0
   -6.9900   22.3850  -31.5460 C   0  0  0  0  0  0  0  0  0  0  0  0
   -8.0810   21.5470  -31.9490 N   0  0  0  0  0  0  0  0  0  0  0  0
   -8.0110   20.2940  -32.4320 C   0  0  0  0  0  0  0  0  0  0  0  0
   -9.3130   19.8830  -32.6830 C   0  0  0  0  0  0  0  0  0  0  0  0
  -10.1490   20.8840  -32.3510 N   0  0  0  0  0  0  0  0  0  0  0  0
   -9.3790   21.8920  -31.9050 C   0  0  0  0  0  0  0  0  0  0  0  0
   -5.7050   22.0460  -31.9520 C   0  0  0  0  0  0  0  0  0  0  0  0
   -4.6330   22.8340  -31.5790 C   0  0  0  0  0  0  0  0  0  0  0  0
   -1.8260   25.2280  -29.2630 N   0  0  0  0  0  0  0  0  0  0  0  0
   -0.0200   27.3880  -25.7000 C   0  0  0  0  0  0  0  0  0  0  0  0
   -0.5960   27.9630  -24.5840 C   0  0  0  0  0  0  0  0  0  0  0  0
   -1.2922   27.6267  -22.5828 H   0  0  0  0  0  0  0  0  0  0  0  0
   -0.7010   25.2406  -22.5779 H   0  0  0  0  0  0  0  0  0  0  0  0
    0.3393   24.1702  -24.5728 H   0  0  0  0  0  0  0  0  0  0  0  0
    1.8621   26.0363  -27.1492 H   0  0  0  0  0  0  0  0  0  0  0  0
    1.1604   24.4287  -26.8117 H   0  0  0  0  0  0  0  0  0  0  0  0
   -0.6373   23.6684  -26.5151 H   0  0  0  0  0  0  0  0  0  0  0  0
   -2.6526   22.2795  -26.9849 H   0  0  0  0  0  0  0  0  0  0  0  0
   -4.0660   22.8160  -28.8800 H   0  0  0  0  0  0  0  0  0  0  0  0
   -6.2619   25.2110  -29.7649 H   0  0  0  0  0  0  0  0  0  0  0  0
   -8.1748   23.7765  -30.4482 H   0  0  0  0  0  0  0  0  0  0  0  0
   -7.0959   19.7063  -32.5969 H   0  0  0  0  0  0  0  0  0  0  0  0
   -9.6112   18.9037  -33.0856 H   0  0  0  0  0  0  0  0  0  0  0  0
   -9.7583   22.8628  -31.5534 H   0  0  0  0  0  0  0  0  0  0  0  0
   -5.5413   21.1508  -32.5700 H   0  0  0  0  0  0  0  0  0  0  0  0
   -3.6173   22.5633  -31.9031 H   0  0  0  0  0  0  0  0  0  0  0  0
   -1.6160   26.0420  -29.9110 H   0  0  0  0  0  0  0  0  0  0  0  0
    0.1792   27.9923  -26.5973 H   0  0  0  0  0  0  0  0  0  0  0  0
   -0.8613   29.0305  -24.5799 H   0  0  0  0  0  0  0  0  0  0  0  0
  1  2  2  0
  2  3  1  0
  3  4  2  0
  4  5  1  0
  5  6  1  0
  6  7  2  0
  7  8  1  0
  8  9  2  0
  9 10  1  0
 10 11  1  0
 11 12  2  0
 12 13  1  0
 13 14  2  0
 14 15  1  0
 15 16  2  0
 16 17  1  0
 17 18  1  0
 18 19  2  0
 19 20  1  0
 20 21  2  0
 16 22  1  0
 22 23  2  0
 11 24  1  0
  4 25  1  0
 25 26  2  0
 26  1  1  0
 24  7  1  0
 23 13  1  0
 21 17  1  0
  1 27  1  0
  2 28  1  0
  3 29  1  0
  5 30  1  0
  5 31  1  0
  8 32  1  0
  9 33  1  0
 10 34  1  0
 14 35  1  0
 15 36  1  0
 18 37  1  0
 19 38  1  0
 21 39  1  0
 22 40  1  0
 23 41  1  0
 24 42  1  0
 25 43  1  0
 26 44  1  0
M  END
>  <smiles>  (17) 
c1ccc(CN=c2cc[nH]c(=Nc3ccc(-n4ccnc4)cc3)[nH]2)cc1

>  <score_type>  (17) 
oracle

>  <origin>  (17) 
adgpu

>  <m_score__min__energy>  (17) 
-9.1799999999999997

>  <m_primary>  (17) 
energy

$$$$
17:0
     RDKit          3D

 47 49  0  0  0  0  0  0  0  0999 V2000
   -2.3690   20.0390  -27.0740 C   0  0  0  0  0  0  0  0  0  0  0  0
   -1.2950   20.9720  -27.0140 O   0  0  0  0  0  0  0  0  0  0  0  0
   -1.3010   22.2340  -27.6290 C   0  0  0  0  0  0  0  0  0  0  0  0
   -2.1880   22.5500  -28.6770 C   0  0  0  0  0  0  0  0  0  0  0  0
   -2.1580   23.8120  -29.2850 C   0  0  0  0  0  0  0  0  0  0  0  0
   -3.0900   24.1020  -30.3400 N   0  0  0  0  0  0  0  0  0  0  0  0
   -4.4870   24.3440  -30.1120 C   0  0  0  0  0  0  0  0  0  0  0  0
   -4.8990   24.6320  -28.9570 O   0  0  0  0  0  0  0  0  0  0  0  0
   -5.4170   24.3570  -31.2020 N   0  0  0  0  0  0  0  0  0  0  0  0
   -6.3110   23.2930  -31.5560 C   0  0  0  0  0  0  0  0  0  0  0  0
   -7.7070   23.4390  -31.4680 C   0  0  0  0  0  0  0  0  0  0  0  0
   -8.5500   22.3900  -31.8470 C   0  0  0  0  0  0  0  0  0  0  0  0
   -8.0130   21.1930  -32.3450 C   0  0  0  0  0  0  0  0  0  0  0  0
   -8.9160   20.0550  -32.7140 C   0  0  0  0  0  0  0  0  0  0  0  0
   -6.6200   21.0520  -32.4410 C   0  0  0  0  0  0  0  0  0  0  0  0
   -5.7770   22.1020  -32.0620 C   0  0  0  0  0  0  0  0  0  0  0  0
   -1.2550   24.7830  -28.8160 C   0  0  0  0  0  0  0  0  0  0  0  0
   -1.2460   26.0660  -29.3520 O   0  0  0  0  0  0  0  0  0  0  0  0
   -0.3680   24.4720  -27.7830 C   0  0  0  0  0  0  0  0  0  0  0  0
   -0.3960   23.2050  -27.1750 C   0  0  0  0  0  0  0  0  0  0  0  0
    0.5140   22.8690  -26.1160 N   0  0  0  0  0  0  0  0  0  0  0  0
    0.5360   23.4440  -24.8030 C   0  0  0  0  0  0  0  0  0  0  0  0
    0.7240   22.6860  -23.8160 O   0  0  0  0  0  0  0  0  0  0  0  0
    0.2940   24.8890  -24.5740 C   0  0  0  0  0  0  0  0  0  0  0  0
    1.3710   25.7490  -24.2940 C   0  0  0  0  0  0  0  0  0  0  0  0
    1.1480   27.1120  -24.0750 C   0  0  0  0  0  0  0  0  0  0  0  0
   -0.1490   27.6270  -24.1210 C   0  0  0  0  0  0  0  0  0  0  0  0
   -1.2280   26.7780  -24.3820 C   0  0  0  0  0  0  0  0  0  0  0  0
   -1.0110   25.4150  -24.6020 C   0  0  0  0  0  0  0  0  0  0  0  0
   -2.6785   19.7701  -26.0533 H   0  0  0  0  0  0  0  0  0  0  0  0
   -3.2181   20.4911  -27.6075 H   0  0  0  0  0  0  0  0  0  0  0  0
   -2.0401   19.1350  -27.6075 H   0  0  0  0  0  0  0  0  0  0  0  0
   -2.9123   21.7974  -29.0218 H   0  0  0  0  0  0  0  0  0  0  0  0
   -2.7090   24.3000  -31.2930 H   0  0  0  0  0  0  0  0  0  0  0  0
   -8.1372   24.3820  -31.0996 H   0  0  0  0  0  0  0  0  0  0  0  0
   -9.6402   22.5036  -31.7543 H   0  0  0  0  0  0  0  0  0  0  0  0
   -9.2956   19.5766  -31.7991 H   0  0  0  0  0  0  0  0  0  0  0  0
   -9.7611   20.4349  -33.3069 H   0  0  0  0  0  0  0  0  0  0  0  0
   -8.3540   19.3183  -33.3069 H   0  0  0  0  0  0  0  0  0  0  0  0
   -6.1892   20.1118  -32.8159 H   0  0  0  0  0  0  0  0  0  0  0  0
   -4.6872   21.9911  -32.1622 H   0  0  0  0  0  0  0  0  0  0  0  0
    0.3584   25.2246  -27.4425 H   0  0  0  0  0  0  0  0  0  0  0  0
    2.3940   25.3474  -24.2470 H   0  0  0  0  0  0  0  0  0  0  0  0
    1.9965   27.7801  -23.8660 H   0  0  0  0  0  0  0  0  0  0  0  0
   -0.3214   28.7002  -23.9519 H   0  0  0  0  0  0  0  0  0  0  0  0
   -2.2501   27.1833  -24.4143 H   0  0  0  0  0  0  0  0  0  0  0  0
   -1.8648   24.7498  -24.7981 H   0  0  0  0  0  0  0  0  0  0  0  0
  1  2  1  0
  2  3  1  0
  3  4  2  0
  4  5  1  0
  5  6  1  0
  6  7  1  0
  7  8  2  0
  7  9  1  0
  9 10  1  0
 10 11  2  0
 11 12  1  0
 12 13  2  0
 13 14  1  0
 13 15  1  0
 15 16  2  0
  5 17  2  0
 17 18  1  0
 17 19  1  0
 19 20  2  0
 20 21  1  0
 21 22  1  0
 22 23  2  0
 22 24  1  0
 24 25  2  0
 25 26  1  0
 26 27  2  0
 27 28  1  0
 28 29  2  0
 20  3  1  0
 29 24  1  0
 16 10  1  0
  1 30  1  0
  1 31  1  0
  1 32  1  0
  4 33  1  0
  6 34  1  0
 11 35  1  0
 12 36  1  0
 14 37  1  0
 14 38  1  0
 14 39  1  0
 15 40  1  0
 16 41  1  0
 19 42  1  0
 25 43  1  0
 26 44  1  0
 27 45  1  0
 28 46  1  0
 29 47  1  0
M  CHG  3   9  -1  18  -1  21  -1
M  END
>  <UniqueID>  (18) 
17

>  <SMILES>  (18) 
COc1cc(NC(=O)[N-]c2ccc(C)cc2)c([O-])cc1[N-]C(=O)c1ccccc1

>  <Energy>  (18) 
63.866886224096625

>  <Genealogy>  (18) 
COc1cc(NC(=O)[N-]c2ccc(C)cc2)c([O-])cc1[N-]C(=O)c1ccccc1 (protonated)
COc1cc(NC(=O)[N-]c2ccc(C)cc2)c([O-])cc1[N-]C(=O)c1ccccc1 (3D coordinates assigned)
COc1cc(NC(=O)[N-]c2ccc(C)cc2)c([O-])cc1[N-]C(=O)c1ccccc1 (optimized conformer: 63.866886224096625 kcal/mol)

>  <smiles>  (18) 
COc1cc(NC(=O)Nc2ccc(C)cc2)c(O)cc1NC(=O)c1ccccc1

>  <score_type>  (18) 
oracle

>  <origin>  (18) 
adgpu

>  <m_score__min__energy>  (18) 
-12.619999999999999

>  <m_primary>  (18) 
energy

$$$$
18:0
     RDKit          3D

 51 54  0  0  0  0  0  0  0  0999 V2000
   -9.1370   22.1750  -31.8850 C   0  0  0  0  0  0  0  0  0  0  0  0
   -7.4590   22.4910  -31.3660 S   0  0  0  0  0  0  0  0  0  0  0  0
   -7.0550   23.8530  -31.8540 O   0  0  0  0  0  0  0  0  0  0  0  0
   -7.4060   22.4830  -29.8630 O   0  0  0  0  0  0  0  0  0  0  0  0
   -6.3440   21.3030  -31.9970 N   0  0  0  0  0  0  0  0  0  0  0  0
   -7.0440   20.3570  -32.8940 C   0  0  0  0  0  0  0  0  0  0  0  0
   -6.0870   19.6140  -33.8500 C   0  0  0  0  0  0  0  0  0  0  0  0
   -4.7100   19.6350  -33.3380 N   0  0  0  0  0  0  0  0  0  0  0  0
   -3.9720   18.4050  -33.1580 C   0  0  0  0  0  0  0  0  0  0  0  0
   -4.5960   17.3280  -32.9400 O   0  0  0  0  0  0  0  0  0  0  0  0
   -2.4960   18.3730  -33.2090 C   0  0  0  0  0  0  0  0  0  0  0  0
   -1.8450   17.6320  -34.2050 C   0  0  0  0  0  0  0  0  0  0  0  0
   -0.4500   17.6020  -34.2630 C   0  0  0  0  0  0  0  0  0  0  0  0
    0.3110   18.3230  -33.3330 C   0  0  0  0  0  0  0  0  0  0  0  0
    1.7020   18.2890  -33.3920 O   0  0  0  0  0  0  0  0  0  0  0  0
   -0.3270   19.0830  -32.3420 C   0  0  0  0  0  0  0  0  0  0  0  0
    0.4780   19.8180  -31.4100 N   0  0  0  0  0  0  0  0  0  0  0  0
    0.0900   20.0680  -29.7380 S   0  0  0  0  0  0  0  0  0  0  0  0
   -0.8150   18.9720  -29.2530 O   0  0  0  0  0  0  0  0  0  0  0  0
    1.3570   20.0740  -28.9290 O   0  0  0  0  0  0  0  0  0  0  0  0
   -0.7370   21.6100  -29.5600 C   0  0  0  0  0  0  0  0  0  0  0  0
   -0.2380   22.5690  -28.6460 C   0  0  0  0  0  0  0  0  0  0  0  0
   -0.8690   23.8210  -28.5060 C   0  0  0  0  0  0  0  0  0  0  0  0
   -1.9850   24.0760  -29.2980 C   0  0  0  0  0  0  0  0  0  0  0  0
   -2.7230   25.1950  -29.3420 N   0  0  0  0  0  0  0  0  0  0  0  0
   -3.6530   24.8850  -30.2830 C   0  0  0  0  0  0  0  0  0  0  0  0
   -4.5540   25.6920  -30.6300 O   0  0  0  0  0  0  0  0  0  0  0  0
   -3.5380   23.6450  -30.8240 N   0  0  0  0  0  0  0  0  0  0  0  0
   -2.4690   23.1550  -30.1780 C   0  0  0  0  0  0  0  0  0  0  0  0
   -1.8740   21.9060  -30.3420 C   0  0  0  0  0  0  0  0  0  0  0  0
   -1.7330   19.1080  -32.2900 C   0  0  0  0  0  0  0  0  0  0  0  0
   -4.1220   20.9270  -32.9500 C   0  0  0  0  0  0  0  0  0  0  0  0
   -5.2180   21.9640  -32.6740 C   0  0  0  0  0  0  0  0  0  0  0  0
   -9.7781   22.0543  -30.9994 H   0  0  0  0  0  0  0  0  0  0  0  0
   -9.4998   23.0206  -32.4878 H   0  0  0  0  0  0  0  0  0  0  0  0
   -9.1673   21.2554  -32.4878 H   0  0  0  0  0  0  0  0  0  0  0  0
   -7.5709   19.6138  -32.2776 H   0  0  0  0  0  0  0  0  0  0  0  0
   -7.7391   20.9430  -33.5132 H   0  0  0  0  0  0  0  0  0  0  0  0
   -6.4177   18.5697  -33.9501 H   0  0  0  0  0  0  0  0  0  0  0  0
   -6.1054   20.1194  -34.8269 H   0  0  0  0  0  0  0  0  0  0  0  0
   -2.4358   17.0715  -34.9445 H   0  0  0  0  0  0  0  0  0  0  0  0
    0.0534   17.0102  -35.0417 H   0  0  0  0  0  0  0  0  0  0  0  0
    2.2740   18.8030  -32.7310 H   0  0  0  0  0  0  0  0  0  0  0  0
    0.6497   22.3348  -28.0401 H   0  0  0  0  0  0  0  0  0  0  0  0
   -0.4926   24.5713  -27.7951 H   0  0  0  0  0  0  0  0  0  0  0  0
   -2.2772   21.1744  -31.0576 H   0  0  0  0  0  0  0  0  0  0  0  0
   -2.2387   19.7101  -31.5208 H   0  0  0  0  0  0  0  0  0  0  0  0
   -3.5183   20.7898  -32.0408 H   0  0  0  0  0  0  0  0  0  0  0  0
   -3.4933   21.2903  -33.7763 H   0  0  0  0  0  0  0  0  0  0  0  0
   -4.8176   22.7613  -32.0305 H   0  0  0  0  0  0  0  0  0  0  0  0
   -5.5610   22.4032  -33.6224 H   0  0  0  0  0  0  0  0  0  0  0  0
  1  2  1  0
  2  3  2  0
  2  4  2  0
  2  5  1  0
  5  6  1  0
  6  7  1  0
  7  8  1  0
  8  9  1  0
  9 10  2  0
  9 11  1  0
 11 12  2  0
 12 13  1  0
 13 14  2  0
 14 15  1  0
 14 16  1  0
 16 17  1  0
 17 18  1  0
 18 19  2  0
 18 20  2  0
 18 21  1  0
 21 22  2  0
 22 23  1  0
 23 24  2  0
 24 25  1  0
 25 26  1  0
 26 27  2  0
 26 28  1  0
 28 29  1  0
 29 30  2  0
 16 31  2  0
  8 32  1  0
 32 33  1  0
 33  5  1  0
 31 11  1  0
 30 21  1  0
 29 24  1  0
  1 34  1  0
  1 35  1  0
  1 36  1  0
  6 37  1  0
  6 38  1  0
  7 39  1  0
  7 40  1  0
 12 41  1  0
 13 42  1  0
 15 43  1  0
 22 44  1  0
 23 45  1  0
 30 46  1  0
 31 47  1  0
 32 48  1  0
 32 49  1  0
 33 50  1  0
 33 51  1  0
M  CHG  3  17  -1  25  -1  28  -1
M  END
>  <UniqueID>  (19) 
18

>  <SMILES>  (19) 
CS(=O)(=O)N1CCN(C(=O)c2ccc(O)c([N-]S(=O)(=O)c3ccc4[n-]c(=O)[n-]c4c3)c2)CC1

>  <Energy>  (19) 
98.65381607617728

>  <Genealogy>  (19) 
CS(=O)(=O)N1CCN(C(=O)c2ccc(O)c([N-]S(=O)(=O)c3ccc4[n-]c(=O)[n-]c4c3)c2)CC1 (protonated)
CS(=O)(=O)N1CCN(C(=O)c2ccc(O)c([N-]S(=O)(=O)c3ccc4[n-]c(=O)[n-]c4c3)c2)CC1 (3D coordinates assigned)
CS(=O)(=O)N1CCN(C(=O)c2ccc(O)c([N-]S(=O)(=O)c3ccc4[n-]c(=O)[n-]c4c3)c2)CC1 (nonaromatic ring conformer: 98.65381607617728 kcal/mol)

>  <smiles>  (19) 
CS(=O)(=O)N1CCN(C(=O)c2ccc(O)c(NS(=O)(=O)c3ccc4[nH]c(=O)[nH]c4c3)c2)CC1

>  <score_type>  (19) 
oracle

>  <origin>  (19) 
adgpu

>  <m_score__min__energy>  (19) 
-12.34

>  <m_primary>  (19) 
energy

$$$$
19:0
     RDKit          3D

 56 59  0  0  0  0  0  0  0  0999 V2000
   -3.6100   22.9380  -27.9710 O   0  0  0  0  0  0  0  0  0  0  0  0
   -3.5920   23.0270  -29.2290 C   0  0  0  0  0  0  0  0  0  0  0  0
   -2.4210   22.6280  -29.9460 N   0  0  0  0  0  0  0  0  0  0  0  0
   -1.3180   21.9570  -29.3250 C   0  0  0  0  0  0  0  0  0  0  0  0
   -1.1180   20.5980  -29.6040 C   0  0  0  0  0  0  0  0  0  0  0  0
   -0.0420   19.9120  -29.0360 C   0  0  0  0  0  0  0  0  0  0  0  0
    0.8320   20.5750  -28.1760 C   0  0  0  0  0  0  0  0  0  0  0  0
    0.6280   21.9230  -27.8690 C   0  0  0  0  0  0  0  0  0  0  0  0
   -0.4520   22.6260  -28.4240 C   0  0  0  0  0  0  0  0  0  0  0  0
   -0.7080   24.3130  -27.9430 S   0  0  0  0  0  0  0  0  0  0  0  0
   -1.4720   25.0460  -29.0130 O   0  0  0  0  0  0  0  0  0  0  0  0
    0.6360   24.9600  -27.7530 O   0  0  0  0  0  0  0  0  0  0  0  0
   -1.6060   24.3870  -26.4410 N   0  0  0  0  0  0  0  0  0  0  0  0
   -2.2670   25.6900  -26.3010 C   0  0  0  0  0  0  0  0  0  0  0  0
   -1.3680   26.6000  -25.4730 C   0  0  0  0  0  0  0  0  0  0  0  0
   -0.2950   25.6990  -24.8950 C   0  0  0  0  0  0  0  0  0  0  0  0
   -0.6960   24.2900  -25.2960 C   0  0  0  0  0  0  0  0  0  0  0  0
   -4.8020   23.4720  -29.9580 C   0  0  0  0  0  0  0  0  0  0  0  0
   -5.8790   22.5810  -30.1090 C   0  0  0  0  0  0  0  0  0  0  0  0
   -6.9830   22.9180  -30.9030 C   0  0  0  0  0  0  0  0  0  0  0  0
   -8.2680   21.7380  -31.1800 S   0  0  0  0  0  0  0  0  0  0  0  0
   -9.1600   22.2260  -32.2860 O   0  0  0  0  0  0  0  0  0  0  0  0
   -9.0980   21.6240  -29.9300 O   0  0  0  0  0  0  0  0  0  0  0  0
   -7.6330   20.1700  -31.6280 N   0  0  0  0  0  0  0  0  0  0  0  0
   -8.7210   19.2210  -31.9000 C   0  0  0  0  0  0  0  0  0  0  0  0
   -8.1380   17.8380  -32.2660 C   0  0  0  0  0  0  0  0  0  0  0  0
   -6.7280   17.8670  -32.4030 O   0  0  0  0  0  0  0  0  0  0  0  0
   -6.3530   18.8800  -33.3180 C   0  0  0  0  0  0  0  0  0  0  0  0
   -6.7520   20.2800  -32.8030 C   0  0  0  0  0  0  0  0  0  0  0  0
   -7.0340   24.1750  -31.5170 C   0  0  0  0  0  0  0  0  0  0  0  0
   -5.9900   25.0840  -31.3420 C   0  0  0  0  0  0  0  0  0  0  0  0
   -4.8720   24.7390  -30.5760 C   0  0  0  0  0  0  0  0  0  0  0  0
   -3.8460   25.6660  -30.4340 O   0  0  0  0  0  0  0  0  0  0  0  0
   -1.8120   20.0690  -30.2737 H   0  0  0  0  0  0  0  0  0  0  0  0
    0.1157   18.8482  -29.2674 H   0  0  0  0  0  0  0  0  0  0  0  0
    1.6847   20.0356  -27.7378 H   0  0  0  0  0  0  0  0  0  0  0  0
    1.3202   22.4374  -27.1862 H   0  0  0  0  0  0  0  0  0  0  0  0
   -2.4292   26.1328  -27.2948 H   0  0  0  0  0  0  0  0  0  0  0  0
   -3.2408   25.5679  -25.8042 H   0  0  0  0  0  0  0  0  0  0  0  0
   -0.9163   27.3752  -26.1093 H   0  0  0  0  0  0  0  0  0  0  0  0
   -1.9315   27.1190  -24.6836 H   0  0  0  0  0  0  0  0  0  0  0  0
    0.6893   25.9537  -25.3149 H   0  0  0  0  0  0  0  0  0  0  0  0
   -0.2130   25.8071  -23.8034 H   0  0  0  0  0  0  0  0  0  0  0  0
    0.1975   23.7132  -25.5770 H   0  0  0  0  0  0  0  0  0  0  0  0
   -1.1909   23.7798  -24.4565 H   0  0  0  0  0  0  0  0  0  0  0  0
   -5.8545   21.6075  -29.5975 H   0  0  0  0  0  0  0  0  0  0  0  0
   -9.3524   19.1245  -31.0044 H   0  0  0  0  0  0  0  0  0  0  0  0
   -9.3222   19.5934  -32.7426 H   0  0  0  0  0  0  0  0  0  0  0  0
   -8.4016   17.1222  -31.4734 H   0  0  0  0  0  0  0  0  0  0  0  0
   -8.5638   17.5396  -33.2353 H   0  0  0  0  0  0  0  0  0  0  0  0
   -5.2627   18.8482  -33.4601 H   0  0  0  0  0  0  0  0  0  0  0  0
   -6.8759   18.6988  -34.2687 H   0  0  0  0  0  0  0  0  0  0  0  0
   -5.8440   20.8342  -32.5231 H   0  0  0  0  0  0  0  0  0  0  0  0
   -7.2915   20.8104  -33.6015 H   0  0  0  0  0  0  0  0  0  0  0  0
   -7.8995   24.4468  -32.1391 H   0  0  0  0  0  0  0  0  0  0  0  0
   -6.0467   26.0781  -31.8094 H   0  0  0  0  0  0  0  0  0  0  0  0
  1  2  2  0
  2  3  1  0
  3  4  1  0
  4  5  2  0
  5  6  1  0
  6  7  2  0
  7  8  1  0
  8  9  2  0
  9 10  1  0
 10 11  2  0
 10 12  2  0
 10 13  1  0
 13 14  1  0
 14 15  1  0
 15 16  1  0
 16 17  1  0
  2 18  1  0
 18 19  2  0
 19 20  1  0
 20 21  1  0
 21 22  2  0
 21 23  2  0
 21 24  1  0
 24 25  1  0
 25 26  1  0
 26 27  1  0
 27 28  1  0
 28 29  1  0
 20 30  2  0
 30 31  1  0
 31 32  2  0
 32 33  1  0
  9  4  1  0
 17 13  1  0
 32 18  1  0
 29 24  1  0
  5 34  1  0
  6 35  1  0
  7 36  1  0
  8 37  1  0
 14 38  1  0
 14 39  1  0
 15 40  1  0
 15 41  1  0
 16 42  1  0
 16 43  1  0
 17 44  1  0
 17 45  1  0
 19 46  1  0
 25 47  1  0
 25 48  1  0
 26 49  1  0
 26 50  1  0
 28 51  1  0
 28 52  1  0
 29 53  1  0
 29 54  1  0
 30 55  1  0
 31 56  1  0
M  CHG  2   3  -1  33  -1
M  END
>  <UniqueID>  (20) 
19

>  <SMILES>  (20) 
O=C([N-]c1ccccc1S(=O)(=O)N1CCCC1)c1cc(S(=O)(=O)N2CCOCC2)ccc1[O-]

>  <Energy>  (20) 
76.82071337042603

>  <Genealogy>  (20) 
O=C([N-]c1ccccc1S(=O)(=O)N1CCCC1)c1cc(S(=O)(=O)N2CCOCC2)ccc1[O-] (protonated)
O=C([N-]c1ccccc1S(=O)(=O)N1CCCC1)c1cc(S(=O)(=O)N2CCOCC2)ccc1[O-] (3D coordinates assigned)
O=C([N-]c1ccccc1S(=O)(=O)N1CCCC1)c1cc(S(=O)(=O)N2CCOCC2)ccc1[O-] (nonaromatic ring conformer: 76.82071337042603 kcal/mol)

>  <smiles>  (20) 
O=C(Nc1ccccc1S(=O)(=O)N1CCCC1)c1cc(S(=O)(=O)N2CCOCC2)ccc1O

>  <score_type>  (20) 
oracle

>  <origin>  (20) 
adgpu

>  <m_score__min__energy>  (20) 
-14.52

>  <m_primary>  (20) 
energy

$$$$
20:0
     RDKit          3D

 57 60  0  0  0  0  0  0  0  0999 V2000
    4.2180   17.7810  -28.1480 C   0  0  0  0  0  0  0  0  0  0  0  0
    2.8240   17.2390  -28.2790 C   0  0  0  0  0  0  0  0  0  0  0  0
    2.6760   16.0040  -28.5010 O   0  0  0  0  0  0  0  0  0  0  0  0
    1.6660   18.0990  -28.1730 N   0  0  0  0  0  0  0  0  0  0  0  0
    1.8280   19.5640  -28.2110 C   0  0  0  0  0  0  0  0  0  0  0  0
    0.5110   20.2600  -28.5610 C   0  0  0  0  0  0  0  0  0  0  0  0
   -0.5670   19.7920  -27.6750 N   0  0  0  0  0  0  0  0  0  0  0  0
   -1.5240   20.7240  -27.1290 C   0  0  0  0  0  0  0  0  0  0  0  0
   -1.9490   20.5610  -25.9550 O   0  0  0  0  0  0  0  0  0  0  0  0
   -1.9850   21.9000  -27.9040 C   0  0  0  0  0  0  0  0  0  0  0  0
   -2.2860   23.1050  -27.2510 C   0  0  0  0  0  0  0  0  0  0  0  0
   -2.6670   24.2300  -27.9900 C   0  0  0  0  0  0  0  0  0  0  0  0
   -2.7680   24.1580  -29.3820 C   0  0  0  0  0  0  0  0  0  0  0  0
   -3.1330   25.2920  -30.1030 O   0  0  0  0  0  0  0  0  0  0  0  0
   -2.5140   22.9480  -30.0480 C   0  0  0  0  0  0  0  0  0  0  0  0
   -2.6510   22.9000  -31.4760 N   0  0  0  0  0  0  0  0  0  0  0  0
   -2.8580   21.4550  -32.4200 S   0  0  0  0  0  0  0  0  0  0  0  0
   -2.2960   21.6920  -33.7920 O   0  0  0  0  0  0  0  0  0  0  0  0
   -2.1110   20.3050  -31.7970 O   0  0  0  0  0  0  0  0  0  0  0  0
   -4.5790   21.1120  -32.5640 C   0  0  0  0  0  0  0  0  0  0  0  0
   -5.5070   22.1350  -32.3280 C   0  0  0  0  0  0  0  0  0  0  0  0
   -6.8820   21.8660  -32.3600 C   0  0  0  0  0  0  0  0  0  0  0  0
   -7.3270   20.5620  -32.5850 C   0  0  0  0  0  0  0  0  0  0  0  0
   -6.4040   19.5350  -32.8310 C   0  0  0  0  0  0  0  0  0  0  0  0
   -5.0320   19.8120  -32.8330 C   0  0  0  0  0  0  0  0  0  0  0  0
   -6.9380   18.1500  -33.1060 C   0  0  0  0  0  0  0  0  0  0  0  0
   -8.0450   17.7890  -32.0890 C   0  0  0  0  0  0  0  0  0  0  0  0
   -9.0990   18.9120  -31.8760 C   0  0  0  0  0  0  0  0  0  0  0  0
   -8.8000   20.2310  -32.6250 C   0  0  0  0  0  0  0  0  0  0  0  0
   -2.1210   21.8220  -29.3010 C   0  0  0  0  0  0  0  0  0  0  0  0
   -0.6290   18.3760  -27.2810 C   0  0  0  0  0  0  0  0  0  0  0  0
    0.3190   17.5090  -28.1190 C   0  0  0  0  0  0  0  0  0  0  0  0
    4.4741   17.8806  -27.0829 H   0  0  0  0  0  0  0  0  0  0  0  0
    4.9261   17.0927  -28.6326 H   0  0  0  0  0  0  0  0  0  0  0  0
    4.2751   18.7669  -28.6326 H   0  0  0  0  0  0  0  0  0  0  0  0
    2.1664   19.9128  -27.2242 H   0  0  0  0  0  0  0  0  0  0  0  0
    2.5682   19.8115  -28.9861 H   0  0  0  0  0  0  0  0  0  0  0  0
    0.6323   21.3468  -28.4417 H   0  0  0  0  0  0  0  0  0  0  0  0
    0.2467   20.0216  -29.6018 H   0  0  0  0  0  0  0  0  0  0  0  0
   -2.2222   23.1652  -26.1545 H   0  0  0  0  0  0  0  0  0  0  0  0
   -2.8881   25.1755  -27.4731 H   0  0  0  0  0  0  0  0  0  0  0  0
   -5.1542   23.1552  -32.1164 H   0  0  0  0  0  0  0  0  0  0  0  0
   -7.6075   22.6788  -32.2085 H   0  0  0  0  0  0  0  0  0  0  0  0
   -4.3092   19.0105  -33.0455 H   0  0  0  0  0  0  0  0  0  0  0  0
   -7.3554   18.1176  -34.1232 H   0  0  0  0  0  0  0  0  0  0  0  0
   -6.1162   17.4249  -33.0121 H   0  0  0  0  0  0  0  0  0  0  0  0
   -8.5659   16.8897  -32.4494 H   0  0  0  0  0  0  0  0  0  0  0  0
   -7.5480   17.6312  -31.1204 H   0  0  0  0  0  0  0  0  0  0  0  0
  -10.0739   18.5363  -32.2201 H   0  0  0  0  0  0  0  0  0  0  0  0
   -9.0818   19.1539  -30.8031 H   0  0  0  0  0  0  0  0  0  0  0  0
   -9.1158   20.1273  -33.6736 H   0  0  0  0  0  0  0  0  0  0  0  0
   -9.3525   21.0440  -32.1312 H   0  0  0  0  0  0  0  0  0  0  0  0
   -1.9182   20.8711  -29.8155 H   0  0  0  0  0  0  0  0  0  0  0  0
   -0.3478   18.2888  -26.2211 H   0  0  0  0  0  0  0  0  0  0  0  0
   -1.6560   18.0194  -27.4485 H   0  0  0  0  0  0  0  0  0  0  0  0
    0.3830   16.5075  -27.6685 H   0  0  0  0  0  0  0  0  0  0  0  0
   -0.0771   17.4469  -29.1433 H   0  0  0  0  0  0  0  0  0  0  0  0
  1  2  1  0
  2  3  2  0
  2  4  1  0
  4  5  1  0
  5  6  1  0
  6  7  1  0
  7  8  1  0
  8  9  2  0
  8 10  1  0
 10 11  2  0
 11 12  1  0
 12 13  2  0
 13 14  1  0
 13 15  1  0
 15 16  1  0
 16 17  1  0
 17 18  2  0
 17 19  2  0
 17 20  1  0
 20 21  2  0
 21 22  1  0
 22 23  2  0
 23 24  1  0
 24 25  2  0
 24 26  1  0
 26 27  1  0
 27 28  1  0
 28 29  1  0
 15 30  2  0
  7 31  1  0
 31 32  1  0
 32  4  1  0
 30 10  1  0
 25 20  1  0
 29 23  1  0
  1 33  1  0
  1 34  1  0
  1 35  1  0
  5 36  1  0
  5 37  1  0
  6 38  1  0
  6 39  1  0
 11 40  1  0
 12 41  1  0
 21 42  1  0
 22 43  1  0
 25 44  1  0
 26 45  1  0
 26 46  1  0
 27 47  1  0
 27 48  1  0
 28 49  1  0
 28 50  1  0
 29 51  1  0
 29 52  1  0
 30 53  1  0
 31 54  1  0
 31 55  1  0
 32 56  1  0
 32 57  1  0
M  CHG  2  14  -1  16  -1
M  END
>  <UniqueID>  (21) 
20

>  <SMILES>  (21) 
CC(=O)N1CCN(C(=O)c2ccc([O-])c([N-]S(=O)(=O)c3ccc4c(c3)CCCC4)c2)CC1

>  <Energy>  (21) 
71.63715490929405

>  <Genealogy>  (21) 
CC(=O)N1CCN(C(=O)c2ccc([O-])c([N-]S(=O)(=O)c3ccc4c(c3)CCCC4)c2)CC1 (protonated)
CC(=O)N1CCN(C(=O)c2ccc([O-])c([N-]S(=O)(=O)c3ccc4c(c3)CCCC4)c2)CC1 (3D coordinates assigned)
CC(=O)N1CCN(C(=O)c2ccc([O-])c([N-]S(=O)(=O)c3ccc4c(c3)CCCC4)c2)CC1 (nonaromatic ring conformer: 71.63715490929405 kcal/mol)

>  <smiles>  (21) 
CC(=O)N1CCN(C(=O)c2ccc(O)c(NS(=O)(=O)c3ccc4c(c3)CCCC4)c2)CC1

>  <score_type>  (21) 
oracle

>  <origin>  (21) 
adgpu

>  <m_score__min__energy>  (21) 
-14.720000000000001

>  <m_primary>  (21) 
energy

$$$$
21:0
     RDKit          3D

 66 70  0  0  0  0  0  0  0  0999 V2000
   -3.6420   21.5390  -28.7150 O   0  0  0  0  0  0  0  0  0  0  0  0
   -2.8680   21.7370  -29.6880 C   0  0  0  0  0  0  0  0  0  0  0  0
   -3.3130   22.5100  -30.8200 N   0  0  0  0  0  0  0  0  0  0  0  0
   -4.5790   23.1930  -30.8760 C   0  0  0  0  0  0  0  0  0  0  0  0
   -5.7760   22.4890  -31.1000 C   0  0  0  0  0  0  0  0  0  0  0  0
   -7.0050   23.1620  -31.1230 C   0  0  0  0  0  0  0  0  0  0  0  0
   -8.4860   22.2660  -31.4620 S   0  0  0  0  0  0  0  0  0  0  0  0
   -9.5710   23.2240  -31.8670 O   0  0  0  0  0  0  0  0  0  0  0  0
   -8.9180   21.5660  -30.2040 O   0  0  0  0  0  0  0  0  0  0  0  0
   -8.1870   21.0810  -32.7170 N   0  0  0  0  0  0  0  0  0  0  0  0
   -9.2340   20.0400  -32.7990 C   0  0  0  0  0  0  0  0  0  0  0  0
   -9.1020   18.9700  -31.7070 C   0  0  0  0  0  0  0  0  0  0  0  0
   -7.7010   18.3610  -31.7190 C   0  0  0  0  0  0  0  0  0  0  0  0
   -6.6380   19.4520  -31.5910 C   0  0  0  0  0  0  0  0  0  0  0  0
   -6.8180   20.5290  -32.6720 C   0  0  0  0  0  0  0  0  0  0  0  0
   -7.0420   24.5470  -30.9120 C   0  0  0  0  0  0  0  0  0  0  0  0
   -5.8600   25.2490  -30.6640 C   0  0  0  0  0  0  0  0  0  0  0  0
   -4.6330   24.5790  -30.6420 C   0  0  0  0  0  0  0  0  0  0  0  0
   -3.4690   25.2990  -30.3990 O   0  0  0  0  0  0  0  0  0  0  0  0
   -1.5100   21.1490  -29.6570 C   0  0  0  0  0  0  0  0  0  0  0  0
   -0.7310   21.2510  -28.4900 C   0  0  0  0  0  0  0  0  0  0  0  0
    0.5570   20.7100  -28.4500 C   0  0  0  0  0  0  0  0  0  0  0  0
    1.0750   20.0500  -29.5650 C   0  0  0  0  0  0  0  0  0  0  0  0
    0.3040   19.9130  -30.7240 C   0  0  0  0  0  0  0  0  0  0  0  0
    0.9560   19.0460  -32.1140 S   0  0  0  0  0  0  0  0  0  0  0  0
    1.8950   19.9590  -32.8540 O   0  0  0  0  0  0  0  0  0  0  0  0
    1.7330   17.8440  -31.6490 O   0  0  0  0  0  0  0  0  0  0  0  0
   -0.3420   18.5430  -33.1690 N   0  0  0  0  0  0  0  0  0  0  0  0
   -0.9170   19.7050  -33.9070 C   0  0  0  0  0  0  0  0  0  0  0  0
   -2.4100   19.9630  -33.6360 C   0  0  0  0  0  0  0  0  0  0  0  0
   -3.1670   18.6740  -33.7340 C   0  0  0  0  0  0  0  0  0  0  0  0
   -4.4260   18.5960  -34.3470 C   0  0  0  0  0  0  0  0  0  0  0  0
   -5.1060   17.3730  -34.3870 C   0  0  0  0  0  0  0  0  0  0  0  0
   -4.5370   16.2350  -33.8050 C   0  0  0  0  0  0  0  0  0  0  0  0
   -3.2880   16.3170  -33.1780 C   0  0  0  0  0  0  0  0  0  0  0  0
   -2.5980   17.5390  -33.1500 C   0  0  0  0  0  0  0  0  0  0  0  0
   -1.2980   17.7060  -32.4110 C   0  0  0  0  0  0  0  0  0  0  0  0
   -0.9860   20.4630  -30.7690 C   0  0  0  0  0  0  0  0  0  0  0  0
   -2.7010   22.5690  -31.6640 H   0  0  0  0  0  0  0  0  0  0  0  0
   -5.7471   21.4009  -31.2585 H   0  0  0  0  0  0  0  0  0  0  0  0
  -10.2172   20.5231  -32.6995 H   0  0  0  0  0  0  0  0  0  0  0  0
   -9.1210   19.5353  -33.7698 H   0  0  0  0  0  0  0  0  0  0  0  0
   -9.2880   19.4302  -30.7253 H   0  0  0  0  0  0  0  0  0  0  0  0
   -9.8368   18.1742  -31.8990 H   0  0  0  0  0  0  0  0  0  0  0  0
   -7.6039   17.6612  -30.8758 H   0  0  0  0  0  0  0  0  0  0  0  0
   -7.5528   17.8321  -32.6720 H   0  0  0  0  0  0  0  0  0  0  0  0
   -6.7218   19.9207  -30.5994 H   0  0  0  0  0  0  0  0  0  0  0  0
   -5.6473   18.9913  -31.7183 H   0  0  0  0  0  0  0  0  0  0  0  0
   -6.1157   21.3507  -32.4680 H   0  0  0  0  0  0  0  0  0  0  0  0
   -6.6238   20.0534  -33.6447 H   0  0  0  0  0  0  0  0  0  0  0  0
   -8.0028   25.0818  -30.9417 H   0  0  0  0  0  0  0  0  0  0  0  0
   -5.8947   26.3338  -30.4852 H   0  0  0  0  0  0  0  0  0  0  0  0
   -1.1381   21.7596  -27.6037 H   0  0  0  0  0  0  0  0  0  0  0  0
    1.1638   20.8047  -27.5374 H   0  0  0  0  0  0  0  0  0  0  0  0
    2.0935   19.6359  -29.5324 H   0  0  0  0  0  0  0  0  0  0  0  0
   -0.3556   20.6060  -33.6187 H   0  0  0  0  0  0  0  0  0  0  0  0
   -0.8319   19.4666  -34.9775 H   0  0  0  0  0  0  0  0  0  0  0  0
   -2.5319   20.3836  -32.6269 H   0  0  0  0  0  0  0  0  0  0  0  0
   -2.7995   20.6736  -34.3798 H   0  0  0  0  0  0  0  0  0  0  0  0
   -4.8779   19.4932  -34.7951 H   0  0  0  0  0  0  0  0  0  0  0  0
   -6.0888   17.3066  -34.8766 H   0  0  0  0  0  0  0  0  0  0  0  0
   -5.0718   15.2744  -33.8401 H   0  0  0  0  0  0  0  0  0  0  0  0
   -2.8480   15.4251  -32.7080 H   0  0  0  0  0  0  0  0  0  0  0  0
   -1.4983   18.1834  -31.4404 H   0  0  0  0  0  0  0  0  0  0  0  0
   -0.8500   16.7106  -32.2753 H   0  0  0  0  0  0  0  0  0  0  0  0
   -1.5927   20.3573  -31.6804 H   0  0  0  0  0  0  0  0  0  0  0  0
  1  2  2  0
  2  3  1  0
  3  4  1  0
  4  5  2  0
  5  6  1  0
  6  7  1  0
  7  8  2  0
  7  9  2  0
  7 10  1  0
 10 11  1  0
 11 12  1  0
 12 13  1  0
 13 14  1  0
 14 15  1  0
  6 16  2  0
 16 17  1  0
 17 18  2  0
 18 19  1  0
  2 20  1  0
 20 21  2  0
 21 22  1  0
 22 23  2  0
 23 24  1  0
 24 25  1  0
 25 26  2  0
 25 27  2  0
 25 28  1  0
 28 29  1  0
 29 30  1  0
 30 31  1  0
 31 32  2  0
 32 33  1  0
 33 34  2  0
 34 35  1  0
 35 36  2  0
 36 37  1  0
 24 38  2  0
 18  4  1  0
 38 20  1  0
 15 10  1  0
 37 28  1  0
 36 31  1  0
  3 39  1  0
  5 40  1  0
 11 41  1  0
 11 42  1  0
 12 43  1  0
 12 44  1  0
 13 45  1  0
 13 46  1  0
 14 47  1  0
 14 48  1  0
 15 49  1  0
 15 50  1  0
 16 51  1  0
 17 52  1  0
 21 53  1  0
 22 54  1  0
 23 55  1  0
 29 56  1  0
 29 57  1  0
 30 58  1  0
 30 59  1  0
 32 60  1  0
 33 61  1  0
 34 62  1  0
 35 63  1  0
 37 64  1  0
 37 65  1  0
 38 66  1  0
M  CHG  1  19  -1
M  END
>  <UniqueID>  (22) 
21

>  <SMILES>  (22) 
O=C(Nc1cc(S(=O)(=O)N2CCCCC2)ccc1[O-])c1cccc(S(=O)(=O)N2CCc3ccccc3C2)c1

>  <Energy>  (22) 
86.89119956567228

>  <Genealogy>  (22) 
O=C(Nc1cc(S(=O)(=O)N2CCCCC2)ccc1[O-])c1cccc(S(=O)(=O)N2CCc3ccccc3C2)c1 (protonated)
O=C(Nc1cc(S(=O)(=O)N2CCCCC2)ccc1[O-])c1cccc(S(=O)(=O)N2CCc3ccccc3C2)c1 (3D coordinates assigned)
O=C(Nc1cc(S(=O)(=O)N2CCCCC2)ccc1[O-])c1cccc(S(=O)(=O)N2CCc3ccccc3C2)c1 (nonaromatic ring conformer: 86.89119956567228 kcal/mol)

>  <smiles>  (22) 
O=C(Nc1cc(S(=O)(=O)N2CCCCC2)ccc1O)c1cccc(S(=O)(=O)N2CCc3ccccc3C2)c1

>  <score_type>  (22) 
oracle

>  <origin>  (22) 
adgpu

>  <m_score__min__energy>  (22) 
-15.16

>  <m_primary>  (22) 
energy

$$$$
22:0
     RDKit          3D

 71 74  0  0  0  0  0  0  0  0999 V2000
   -0.8900   21.7540  -26.4960 C   0  0  0  0  0  0  0  0  0  0  0  0
   -1.5250   22.5670  -27.5940 C   0  0  0  0  0  0  0  0  0  0  0  0
   -2.1660   23.7620  -27.2330 C   0  0  0  0  0  0  0  0  0  0  0  0
   -2.7740   24.5630  -28.1930 C   0  0  0  0  0  0  0  0  0  0  0  0
   -2.7630   24.1890  -29.5340 C   0  0  0  0  0  0  0  0  0  0  0  0
   -3.4920   24.9890  -30.4730 N   0  0  0  0  0  0  0  0  0  0  0  0
   -4.8890   25.2500  -30.3250 C   0  0  0  0  0  0  0  0  0  0  0  0
   -5.3150   26.4290  -30.3970 O   0  0  0  0  0  0  0  0  0  0  0  0
   -5.8070   24.1710  -30.1250 N   0  0  0  0  0  0  0  0  0  0  0  0
   -5.7440   22.9200  -30.8180 C   0  0  0  0  0  0  0  0  0  0  0  0
   -4.8140   21.9320  -30.4490 C   0  0  0  0  0  0  0  0  0  0  0  0
   -4.6650   20.7790  -31.2260 C   0  0  0  0  0  0  0  0  0  0  0  0
   -5.4520   20.5940  -32.3720 C   0  0  0  0  0  0  0  0  0  0  0  0
   -5.1970   19.1870  -33.4040 S   0  0  0  0  0  0  0  0  0  0  0  0
   -6.0900   19.2740  -34.6130 O   0  0  0  0  0  0  0  0  0  0  0  0
   -5.5580   17.9430  -32.6380 O   0  0  0  0  0  0  0  0  0  0  0  0
   -3.5190   19.1170  -33.8880 N   0  0  0  0  0  0  0  0  0  0  0  0
   -2.8000   18.1280  -33.0660 C   0  0  0  0  0  0  0  0  0  0  0  0
   -1.3460   17.9720  -33.5560 C   0  0  0  0  0  0  0  0  0  0  0  0
   -0.9480   19.0830  -34.4470 N   0  0  0  0  0  0  0  0  0  0  0  0
    0.5040   19.0580  -34.6760 C   0  0  0  0  0  0  0  0  0  0  0  0
   -1.3620   20.3790  -33.8760 C   0  0  0  0  0  0  0  0  0  0  0  0
   -2.9000   20.4500  -33.7550 C   0  0  0  0  0  0  0  0  0  0  0  0
   -6.4040   21.5630  -32.7190 C   0  0  0  0  0  0  0  0  0  0  0  0
   -6.5390   22.7260  -31.9510 C   0  0  0  0  0  0  0  0  0  0  0  0
   -2.0850   23.0220  -29.9320 C   0  0  0  0  0  0  0  0  0  0  0  0
   -2.0170   22.6790  -31.2850 O   0  0  0  0  0  0  0  0  0  0  0  0
   -1.4620   22.1920  -28.9670 C   0  0  0  0  0  0  0  0  0  0  0  0
   -0.5970   20.7290  -29.5300 S   0  0  0  0  0  0  0  0  0  0  0  0
    0.2540   21.0380  -30.7290 O   0  0  0  0  0  0  0  0  0  0  0  0
   -1.6130   19.7130  -29.9740 O   0  0  0  0  0  0  0  0  0  0  0  0
    0.4250   19.9570  -28.2570 C   0  0  0  0  0  0  0  0  0  0  0  0
    1.8050   19.5430  -28.8100 C   0  0  0  0  0  0  0  0  0  0  0  0
    2.4840   18.5500  -27.8560 C   0  0  0  0  0  0  0  0  0  0  0  0
    1.7000   17.2980  -27.6910 N   0  0  0  0  0  0  0  0  0  0  0  0
    2.2910   16.1840  -28.4510 C   0  0  0  0  0  0  0  0  0  0  0  0
    0.2550   17.4300  -27.9970 C   0  0  0  0  0  0  0  0  0  0  0  0
   -0.2880   18.7870  -27.5350 C   0  0  0  0  0  0  0  0  0  0  0  0
   -1.2007   22.1518  -25.5187 H   0  0  0  0  0  0  0  0  0  0  0  0
   -1.2107   20.7054  -26.5838 H   0  0  0  0  0  0  0  0  0  0  0  0
    0.2050   21.8112  -26.5838 H   0  0  0  0  0  0  0  0  0  0  0  0
   -2.1877   24.0689  -26.1769 H   0  0  0  0  0  0  0  0  0  0  0  0
   -3.2672   25.4987  -27.8909 H   0  0  0  0  0  0  0  0  0  0  0  0
   -4.2012   22.0666  -29.5455 H   0  0  0  0  0  0  0  0  0  0  0  0
   -3.9283   20.0148  -30.9375 H   0  0  0  0  0  0  0  0  0  0  0  0
   -2.7948   18.4634  -32.0184 H   0  0  0  0  0  0  0  0  0  0  0  0
   -3.3099   17.1570  -33.1512 H   0  0  0  0  0  0  0  0  0  0  0  0
   -0.6755   17.9563  -32.6841 H   0  0  0  0  0  0  0  0  0  0  0  0
   -1.2742   17.0332  -34.1247 H   0  0  0  0  0  0  0  0  0  0  0  0
    1.0277   19.0490  -33.7087 H   0  0  0  0  0  0  0  0  0  0  0  0
    0.7699   18.1551  -35.2453 H   0  0  0  0  0  0  0  0  0  0  0  0
    0.8008   19.9512  -35.2453 H   0  0  0  0  0  0  0  0  0  0  0  0
   -0.9146   20.4942  -32.8777 H   0  0  0  0  0  0  0  0  0  0  0  0
   -1.0197   21.1861  -34.5403 H   0  0  0  0  0  0  0  0  0  0  0  0
   -3.1615   20.8682  -32.7718 H   0  0  0  0  0  0  0  0  0  0  0  0
   -3.2793   21.0873  -34.5674 H   0  0  0  0  0  0  0  0  0  0  0  0
   -7.0473   21.4090  -33.5979 H   0  0  0  0  0  0  0  0  0  0  0  0
   -7.2745   23.4909  -32.2409 H   0  0  0  0  0  0  0  0  0  0  0  0
   -1.5610   21.8380  -31.6150 H   0  0  0  0  0  0  0  0  0  0  0  0
    0.5951   20.7249  -27.4880 H   0  0  0  0  0  0  0  0  0  0  0  0
    1.6746   19.0695  -29.7943 H   0  0  0  0  0  0  0  0  0  0  0  0
    2.4367   20.4386  -28.9040 H   0  0  0  0  0  0  0  0  0  0  0  0
    3.4758   18.2956  -28.2579 H   0  0  0  0  0  0  0  0  0  0  0  0
    2.5606   19.0308  -26.8696 H   0  0  0  0  0  0  0  0  0  0  0  0
    2.6891   15.4337  -27.7520 H   0  0  0  0  0  0  0  0  0  0  0  0
    1.5193   15.7221  -29.0844 H   0  0  0  0  0  0  0  0  0  0  0  0
    3.1061   16.5639  -29.0844 H   0  0  0  0  0  0  0  0  0  0  0  0
    0.1082   17.3358  -29.0831 H   0  0  0  0  0  0  0  0  0  0  0  0
   -0.2881   16.6371  -27.4618 H   0  0  0  0  0  0  0  0  0  0  0  0
   -1.3650   18.8347  -27.7537 H   0  0  0  0  0  0  0  0  0  0  0  0
   -0.1042   18.8836  -26.4548 H   0  0  0  0  0  0  0  0  0  0  0  0
  1  2  1  0
  2  3  2  0
  3  4  1  0
  4  5  2  0
  5  6  1  0
  6  7  1  0
  7  8  2  0
  7  9  1  0
  9 10  1  0
 10 11  2  0
 11 12  1  0
 12 13  2  0
 13 14  1  0
 14 15  2  0
 14 16  2  0
 14 17  1  0
 17 18  1  0
 18 19  1  0
 19 20  1  0
 20 21  1  0
 20 22  1  0
 22 23  1  0
 13 24  1  0
 24 25  2  0
  5 26  1  0
 26 27  1  0
 26 28  2  0
 28 29  1  0
 29 30  2  0
 29 31  2  0
 29 32  1  0
 32 33  1  0
 33 34  1  0
 34 35  1  0
 35 36  1  0
 35 37  1  0
 37 38  1  0
 28  2  1  0
 38 32  1  0
 25 10  1  0
 23 17  1  0
  1 39  1  0
  1 40  1  0
  1 41  1  0
  3 42  1  0
  4 43  1  0
 11 44  1  0
 12 45  1  0
 18 46  1  0
 18 47  1  0
 19 48  1  0
 19 49  1  0
 21 50  1  0
 21 51  1  0
 21 52  1  0
 22 53  1  0
 22 54  1  0
 23 55  1  0
 23 56  1  0
 24 57  1  0
 25 58  1  0
 27 59  1  0
 32 60  1  0
 33 61  1  0
 33 62  1  0
 34 63  1  0
 34 64  1  0
 36 65  1  0
 36 66  1  0
 36 67  1  0
 37 68  1  0
 37 69  1  0
 38 70  1  0
 38 71  1  0
M  CHG  2   6  -1   9  -1
M  END
>  <UniqueID>  (23) 
22

>  <SMILES>  (23) 
Cc1ccc([N-]C(=O)[N-]c2ccc(S(=O)(=O)N3CCN(C)CC3)cc2)c(O)c1S(=O)(=O)C1CCN(C)CC1

>  <Energy>  (23) 
98.15932071858157

>  <Genealogy>  (23) 
Cc1ccc([N-]C(=O)[N-]c2ccc(S(=O)(=O)N3CCN(C)CC3)cc2)c(O)c1S(=O)(=O)C1CCN(C)CC1 (protonated)
Cc1ccc([N-]C(=O)[N-]c2ccc(S(=O)(=O)N3CCN(C)CC3)cc2)c(O)c1S(=O)(=O)C1CCN(C)CC1 (3D coordinates assigned)
Cc1ccc([N-]C(=O)[N-]c2ccc(S(=O)(=O)N3CCN(C)CC3)cc2)c(O)c1S(=O)(=O)C1CCN(C)CC1 (nonaromatic ring conformer: 98.15932071858157 kcal/mol)

>  <smiles>  (23) 
Cc1ccc(NC(=O)Nc2ccc(S(=O)(=O)N3CCN(C)CC3)cc2)c(O)c1S(=O)(=O)C1CCN(C)CC1

>  <score_type>  (23) 
oracle

>  <origin>  (23) 
adgpu

>  <m_score__min__energy>  (23) 
-15.69

>  <m_primary>  (23) 
energy

$$$$
23:0
     RDKit          3D

 47 49  0  0  0  0  0  0  0  0999 V2000
   -8.8920   21.3020  -31.5440 C   0  0  0  0  0  0  0  0  0  0  0  0
   -8.6570   22.7050  -31.4880 O   0  0  0  0  0  0  0  0  0  0  0  0
   -7.4090   23.2880  -31.2160 C   0  0  0  0  0  0  0  0  0  0  0  0
   -7.2340   24.2730  -30.2260 C   0  0  0  0  0  0  0  0  0  0  0  0
   -5.9700   24.8240  -29.9970 C   0  0  0  0  0  0  0  0  0  0  0  0
   -4.8640   24.4030  -30.7460 C   0  0  0  0  0  0  0  0  0  0  0  0
   -3.5860   24.9980  -30.4760 N   0  0  0  0  0  0  0  0  0  0  0  0
   -2.5180   24.5290  -29.1930 S   0  0  0  0  0  0  0  0  0  0  0  0
   -3.3160   24.3320  -27.9360 O   0  0  0  0  0  0  0  0  0  0  0  0
   -1.5110   25.6200  -28.9670 O   0  0  0  0  0  0  0  0  0  0  0  0
   -1.7240   23.0130  -29.6050 C   0  0  0  0  0  0  0  0  0  0  0  0
   -0.7640   22.4570  -28.7530 C   0  0  0  0  0  0  0  0  0  0  0  0
   -0.1570   21.2420  -29.0770 C   0  0  0  0  0  0  0  0  0  0  0  0
   -0.5070   20.5600  -30.2590 C   0  0  0  0  0  0  0  0  0  0  0  0
    0.0690   19.3250  -30.5990 O   0  0  0  0  0  0  0  0  0  0  0  0
    0.2560   18.2430  -29.6930 C   0  0  0  0  0  0  0  0  0  0  0  0
   -1.4660   21.1280  -31.1240 C   0  0  0  0  0  0  0  0  0  0  0  0
   -1.9150   20.4000  -32.3690 C   0  0  0  0  0  0  0  0  0  0  0  0
   -3.1020   21.1080  -33.0320 C   0  0  0  0  0  0  0  0  0  0  0  0
   -4.3530   20.4040  -32.7550 N   0  0  0  0  0  0  0  0  0  0  0  0
   -5.2750   20.0110  -33.6480 C   0  0  0  0  0  0  0  0  0  0  0  0
   -6.2430   19.3050  -32.9700 C   0  0  0  0  0  0  0  0  0  0  0  0
   -5.9270   19.2470  -31.6590 N   0  0  0  0  0  0  0  0  0  0  0  0
   -4.7650   19.9260  -31.5660 C   0  0  0  0  0  0  0  0  0  0  0  0
   -2.0690   22.3510  -30.7860 C   0  0  0  0  0  0  0  0  0  0  0  0
   -5.0390   23.4200  -31.7350 C   0  0  0  0  0  0  0  0  0  0  0  0
   -6.3020   22.8670  -31.9620 C   0  0  0  0  0  0  0  0  0  0  0  0
   -8.9593   20.9004  -30.5221 H   0  0  0  0  0  0  0  0  0  0  0  0
   -9.8350   21.1091  -32.0766 H   0  0  0  0  0  0  0  0  0  0  0  0
   -8.0634   20.8124  -32.0766 H   0  0  0  0  0  0  0  0  0  0  0  0
   -8.0950   24.6104  -29.6304 H   0  0  0  0  0  0  0  0  0  0  0  0
   -5.8429   25.5945  -29.2223 H   0  0  0  0  0  0  0  0  0  0  0  0
   -0.4865   22.9785  -27.8251 H   0  0  0  0  0  0  0  0  0  0  0  0
    0.6005   20.8139  -28.4040 H   0  0  0  0  0  0  0  0  0  0  0  0
    0.1918   18.6147  -28.6597 H   0  0  0  0  0  0  0  0  0  0  0  0
   -0.5247   17.4862  -29.8596 H   0  0  0  0  0  0  0  0  0  0  0  0
    1.2454   17.7921  -29.8596 H   0  0  0  0  0  0  0  0  0  0  0  0
   -1.0782   20.3600  -33.0819 H   0  0  0  0  0  0  0  0  0  0  0  0
   -2.2318   19.3863  -32.0826 H   0  0  0  0  0  0  0  0  0  0  0  0
   -3.1726   22.1340  -32.6418 H   0  0  0  0  0  0  0  0  0  0  0  0
   -2.9399   21.1199  -34.1199 H   0  0  0  0  0  0  0  0  0  0  0  0
   -5.2598   20.2164  -34.7285 H   0  0  0  0  0  0  0  0  0  0  0  0
   -7.1375   18.8566  -33.4269 H   0  0  0  0  0  0  0  0  0  0  0  0
   -4.2158   20.0726  -30.6242 H   0  0  0  0  0  0  0  0  0  0  0  0
   -2.8202   22.7918  -31.4578 H   0  0  0  0  0  0  0  0  0  0  0  0
   -4.1785   23.0847  -32.3326 H   0  0  0  0  0  0  0  0  0  0  0  0
   -6.4275   22.0936  -32.7341 H   0  0  0  0  0  0  0  0  0  0  0  0
  1  2  1  0
  2  3  1  0
  3  4  2  0
  4  5  1  0
  5  6  2  0
  6  7  1  0
  7  8  1  0
  8  9  2  0
  8 10  2  0
  8 11  1  0
 11 12  2  0
 12 13  1  0
 13 14  2  0
 14 15  1  0
 15 16  1  0
 14 17  1  0
 17 18  1  0
 18 19  1  0
 19 20  1  0
 20 21  1  0
 21 22  2  0
 22 23  1  0
 23 24  2  0
 17 25  2  0
  6 26  1  0
 26 27  2  0
 27  3  1  0
 25 11  1  0
 24 20  1  0
  1 28  1  0
  1 29  1  0
  1 30  1  0
  4 31  1  0
  5 32  1  0
 12 33  1  0
 13 34  1  0
 16 35  1  0
 16 36  1  0
 16 37  1  0
 18 38  1  0
 18 39  1  0
 19 40  1  0
 19 41  1  0
 21 42  1  0
 22 43  1  0
 24 44  1  0
 25 45  1  0
 26 46  1  0
 27 47  1  0
M  CHG  1   7  -1
M  END
>  <UniqueID>  (24) 
23

>  <SMILES>  (24) 
COc1ccc([N-]S(=O)(=O)c2ccc(OC)c(CCn3ccnc3)c2)cc1

>  <Energy>  (24) 
75.32830447493589

>  <Genealogy>  (24) 
COc1ccc([N-]S(=O)(=O)c2ccc(OC)c(CCn3ccnc3)c2)cc1 (protonated)
COc1ccc([N-]S(=O)(=O)c2ccc(OC)c(CCn3ccnc3)c2)cc1 (3D coordinates assigned)
COc1ccc([N-]S(=O)(=O)c2ccc(OC)c(CCn3ccnc3)c2)cc1 (optimized conformer: 75.32830447493589 kcal/mol)

>  <smiles>  (24) 
COc1ccc(NS(=O)(=O)c2ccc(OC)c(CCn3ccnc3)c2)cc1

>  <score_type>  (24) 
oracle

>  <origin>  (24) 
adgpu

>  <m_score__min__energy>  (24) 
-9.0899999999999999

>  <m_primary>  (24) 
energy

$$$$
24:0
     RDKit          3D

 62 67  0  0  0  0  0  0  0  0999 V2000
   -5.8530   24.5100  -31.0450 C   0  0  0  0  0  0  0  0  0  0  0  0
   -4.6240   24.0630  -30.4170 N   0  0  0  0  0  0  0  0  0  0  0  0
   -3.9260   24.8880  -29.5800 C   0  0  0  0  0  0  0  0  0  0  0  0
   -2.8240   24.1740  -29.1570 C   0  0  0  0  0  0  0  0  0  0  0  0
   -1.7520   24.5860  -28.2580 C   0  0  0  0  0  0  0  0  0  0  0  0
   -0.4690   24.1750  -28.5270 C   0  0  0  0  0  0  0  0  0  0  0  0
    0.6110   24.5180  -27.7290 C   0  0  0  0  0  0  0  0  0  0  0  0
    0.3680   25.3020  -26.6280 C   0  0  0  0  0  0  0  0  0  0  0  0
    1.4240   25.6350  -25.8520 F   0  0  0  0  0  0  0  0  0  0  0  0
   -0.9200   25.7230  -26.3450 C   0  0  0  0  0  0  0  0  0  0  0  0
   -1.0800   26.5730  -25.1250 C   0  0  0  0  0  0  0  0  0  0  0  0
   -2.3720   26.4650  -24.6190 F   0  0  0  0  0  0  0  0  0  0  0  0
   -0.2030   26.2310  -24.1260 F   0  0  0  0  0  0  0  0  0  0  0  0
   -0.8540   27.8830  -25.5180 F   0  0  0  0  0  0  0  0  0  0  0  0
   -2.0020   25.3800  -27.1450 C   0  0  0  0  0  0  0  0  0  0  0  0
   -2.8770   22.9620  -29.7310 N   0  0  0  0  0  0  0  0  0  0  0  0
   -3.9900   22.8790  -30.5170 C   0  0  0  0  0  0  0  0  0  0  0  0
   -4.4340   21.7330  -31.3280 C   0  0  0  0  0  0  0  0  0  0  0  0
   -4.2810   21.9680  -32.8190 C   0  0  0  0  0  0  0  0  0  0  0  0
   -4.9870   20.8050  -33.4840 C   0  0  0  0  0  0  0  0  0  0  0  0
   -4.3890   19.5490  -33.0940 N   0  0  0  0  0  0  0  0  0  0  0  0
   -4.6950   18.3060  -33.7200 C   0  0  0  0  0  0  0  0  0  0  0  0
   -3.6700   17.7780  -34.4600 N   0  0  0  0  0  0  0  0  0  0  0  0
   -3.7930   16.5890  -35.0740 C   0  0  0  0  0  0  0  0  0  0  0  0
   -4.9530   15.9420  -34.9360 N   0  0  0  0  0  0  0  0  0  0  0  0
   -6.0020   16.4210  -34.2160 C   0  0  0  0  0  0  0  0  0  0  0  0
   -7.0380   15.6770  -34.1870 N   0  0  0  0  0  0  0  0  0  0  0  0
   -5.8920   17.6410  -33.5790 C   0  0  0  0  0  0  0  0  0  0  0  0
   -6.9810   18.2400  -32.8340 C   0  0  0  0  0  0  0  0  0  0  0  0
   -7.2720   19.5100  -32.5270 N   0  0  0  0  0  0  0  0  0  0  0  0
   -8.4140   19.5830  -31.7990 C   0  0  0  0  0  0  0  0  0  0  0  0
   -9.0480   20.8210  -31.2780 C   0  0  0  0  0  0  0  0  0  0  0  0
   -8.1190   21.8600  -30.6410 C   0  0  0  0  0  0  0  0  0  0  0  0
   -8.7800   22.1070  -31.9950 C   0  0  0  0  0  0  0  0  0  0  0  0
   -8.8080   18.2980  -31.6750 N   0  0  0  0  0  0  0  0  0  0  0  0
   -7.9500   17.5360  -32.2890 O   0  0  0  0  0  0  0  0  0  0  0  0
   -3.4220   19.5290  -32.0280 C   0  0  0  0  0  0  0  0  0  0  0  0
   -3.9090   20.4030  -30.9000 C   0  0  0  0  0  0  0  0  0  0  0  0
   -6.5855   24.7764  -30.2688 H   0  0  0  0  0  0  0  0  0  0  0  0
   -5.6457   25.3903  -31.6712 H   0  0  0  0  0  0  0  0  0  0  0  0
   -6.2597   23.7022  -31.6712 H   0  0  0  0  0  0  0  0  0  0  0  0
   -4.1908   25.9181  -29.2991 H   0  0  0  0  0  0  0  0  0  0  0  0
   -0.2915   23.5474  -29.4128 H   0  0  0  0  0  0  0  0  0  0  0  0
    1.6278   24.1741  -27.9693 H   0  0  0  0  0  0  0  0  0  0  0  0
   -3.0193   25.7240  -26.9066 H   0  0  0  0  0  0  0  0  0  0  0  0
   -5.5125   21.6728  -31.1203 H   0  0  0  0  0  0  0  0  0  0  0  0
   -4.7504   22.9197  -33.1088 H   0  0  0  0  0  0  0  0  0  0  0  0
   -3.2239   22.0294  -33.1171 H   0  0  0  0  0  0  0  0  0  0  0  0
   -6.0458   20.8080  -33.1857 H   0  0  0  0  0  0  0  0  0  0  0  0
   -4.8953   20.9148  -34.5747 H   0  0  0  0  0  0  0  0  0  0  0  0
   -2.9697   16.1649  -35.6675 H   0  0  0  0  0  0  0  0  0  0  0  0
   -5.0230   15.0080  -35.4300 H   0  0  0  0  0  0  0  0  0  0  0  0
   -7.8920   15.9040  -33.6910 H   0  0  0  0  0  0  0  0  0  0  0  0
   -9.9603   20.2913  -30.9663 H   0  0  0  0  0  0  0  0  0  0  0  0
   -8.4443   22.4244  -29.7546 H   0  0  0  0  0  0  0  0  0  0  0  0
   -7.0881   21.8624  -30.2574 H   0  0  0  0  0  0  0  0  0  0  0  0
   -9.5771   22.8595  -32.0860 H   0  0  0  0  0  0  0  0  0  0  0  0
   -8.4121   22.3703  -32.9977 H   0  0  0  0  0  0  0  0  0  0  0  0
   -3.2948   18.4981  -31.6660 H   0  0  0  0  0  0  0  0  0  0  0  0
   -2.4570   19.9062  -32.3975 H   0  0  0  0  0  0  0  0  0  0  0  0
   -4.7145   19.8687  -30.3749 H   0  0  0  0  0  0  0  0  0  0  0  0
   -3.0364   20.6028  -30.2607 H   0  0  0  0  0  0  0  0  0  0  0  0
  1  2  1  0
  2  3  1  0
  3  4  2  0
  4  5  1  0
  5  6  2  0
  6  7  1  0
  7  8  2  0
  8  9  1  0
  8 10  1  0
 10 11  1  0
 11 12  1  0
 11 13  1  0
 11 14  1  0
 10 15  2  0
  4 16  1  0
 16 17  2  0
 17 18  1  0
 18 19  1  0
 19 20  1  0
 20 21  1  0
 21 22  1  0
 22 23  1  0
 23 24  2  0
 24 25  1  0
 25 26  1  0
 26 27  2  3
 26 28  1  0
 28 29  1  0
 29 30  2  0
 30 31  1  0
 31 32  1  0
 32 33  1  0
 33 34  1  0
 31 35  2  0
 35 36  1  0
 21 37  1  0
 37 38  1  0
 17  2  1  0
 38 18  1  0
 15  5  1  0
 28 22  2  0
 36 29  1  0
 34 32  1  0
  1 39  1  0
  1 40  1  0
  1 41  1  0
  3 42  1  0
  6 43  1  0
  7 44  1  0
 15 45  1  0
 18 46  1  0
 19 47  1  0
 19 48  1  0
 20 49  1  0
 20 50  1  0
 24 51  1  0
 25 52  1  0
 27 53  1  0
 32 54  1  0
 33 55  1  0
 33 56  1  0
 34 57  1  0
 34 58  1  0
 37 59  1  0
 37 60  1  0
 38 61  1  0
 38 62  1  0
M  END
>  <smiles>  (25) 
Cn1cc(-c2ccc(F)c(C(F)(F)F)c2)nc1C1CCN(c2nc[nH]c(=N)c2-c2nc(C3CC3)no2)CC1

>  <score_type>  (25) 
oracle

>  <origin>  (25) 
adgpu

>  <m_score__min__energy>  (25) 
-8.7599999999999998

>  <m_primary>  (25) 
energy

$$$$
25:0
     RDKit          3D

 45 47  0  0  0  0  0  0  0  0999 V2000
    0.6080   20.8300  -33.0220 C   0  0  0  0  0  0  0  0  0  0  0  0
   -0.1150   21.2440  -34.2690 C   0  0  0  0  0  0  0  0  0  0  0  0
    0.3200   22.2230  -34.9270 O   0  0  0  0  0  0  0  0  0  0  0  0
   -1.2620   20.5340  -34.7570 N   0  0  0  0  0  0  0  0  0  0  0  0
   -2.3400   20.0040  -33.9750 C   0  0  0  0  0  0  0  0  0  0  0  0
   -2.9250   18.7600  -34.2700 C   0  0  0  0  0  0  0  0  0  0  0  0
   -3.9600   18.2580  -33.4700 C   0  0  0  0  0  0  0  0  0  0  0  0
   -4.5530   17.0330  -33.7600 O   0  0  0  0  0  0  0  0  0  0  0  0
   -4.4080   18.9960  -32.3680 C   0  0  0  0  0  0  0  0  0  0  0  0
   -3.8250   20.2300  -32.0540 C   0  0  0  0  0  0  0  0  0  0  0  0
   -4.2850   20.9230  -30.9240 O   0  0  0  0  0  0  0  0  0  0  0  0
   -3.7350   22.1110  -30.4180 C   0  0  0  0  0  0  0  0  0  0  0  0
   -2.4420   22.1180  -29.8620 C   0  0  0  0  0  0  0  0  0  0  0  0
   -1.8800   23.3030  -29.3850 C   0  0  0  0  0  0  0  0  0  0  0  0
   -2.5920   24.4990  -29.4770 C   0  0  0  0  0  0  0  0  0  0  0  0
   -2.0300   25.6800  -29.0070 O   0  0  0  0  0  0  0  0  0  0  0  0
   -3.8660   24.5120  -30.0500 C   0  0  0  0  0  0  0  0  0  0  0  0
   -4.4570   23.3240  -30.5140 C   0  0  0  0  0  0  0  0  0  0  0  0
   -6.0990   23.3820  -31.1990 S   0  0  0  0  0  0  0  0  0  0  0  0
   -6.8330   24.5480  -30.5900 O   0  0  0  0  0  0  0  0  0  0  0  0
   -6.0370   23.6030  -32.6870 O   0  0  0  0  0  0  0  0  0  0  0  0
   -7.0040   21.8990  -30.9420 N   0  0  0  0  0  0  0  0  0  0  0  0
   -8.3980   22.1470  -30.5400 C   0  0  0  0  0  0  0  0  0  0  0  0
   -9.3070   21.5710  -31.6150 C   0  0  0  0  0  0  0  0  0  0  0  0
   -8.4510   20.5520  -32.3360 C   0  0  0  0  0  0  0  0  0  0  0  0
   -7.0210   21.0280  -32.1280 C   0  0  0  0  0  0  0  0  0  0  0  0
   -2.7690   20.7150  -32.8470 C   0  0  0  0  0  0  0  0  0  0  0  0
    0.0364   21.1573  -32.1410 H   0  0  0  0  0  0  0  0  0  0  0  0
    0.7126   19.7351  -33.0052 H   0  0  0  0  0  0  0  0  0  0  0  0
    1.6052   21.2939  -33.0052 H   0  0  0  0  0  0  0  0  0  0  0  0
   -2.5685   18.1782  -35.1328 H   0  0  0  0  0  0  0  0  0  0  0  0
   -4.2070   16.1690  -33.3580 H   0  0  0  0  0  0  0  0  0  0  0  0
   -5.2243   18.6036  -31.7438 H   0  0  0  0  0  0  0  0  0  0  0  0
   -1.8692   21.1808  -29.8029 H   0  0  0  0  0  0  0  0  0  0  0  0
   -0.8756   23.2939  -28.9365 H   0  0  0  0  0  0  0  0  0  0  0  0
   -4.4127   25.4624  -30.1391 H   0  0  0  0  0  0  0  0  0  0  0  0
   -8.6016   21.6563  -29.5768 H   0  0  0  0  0  0  0  0  0  0  0  0
   -8.5767   23.2265  -30.4267 H   0  0  0  0  0  0  0  0  0  0  0  0
  -10.1859   21.0887  -31.1623 H   0  0  0  0  0  0  0  0  0  0  0  0
   -9.6921   22.3462  -32.2938 H   0  0  0  0  0  0  0  0  0  0  0  0
   -8.5929   19.5509  -31.9029 H   0  0  0  0  0  0  0  0  0  0  0  0
   -8.7107   20.4716  -33.4019 H   0  0  0  0  0  0  0  0  0  0  0  0
   -6.3589   20.1644  -31.9674 H   0  0  0  0  0  0  0  0  0  0  0  0
   -6.6667   21.5772  -33.0128 H   0  0  0  0  0  0  0  0  0  0  0  0
   -2.2758   21.6610  -32.5788 H   0  0  0  0  0  0  0  0  0  0  0  0
  1  2  1  0
  2  3  2  0
  2  4  1  0
  4  5  1  0
  5  6  2  0
  6  7  1  0
  7  8  1  0
  7  9  2  0
  9 10  1  0
 10 11  1  0
 11 12  1  0
 12 13  2  0
 13 14  1  0
 14 15  2  0
 15 16  1  0
 15 17  1  0
 17 18  2  0
 18 19  1  0
 19 20  2  0
 19 21  2  0
 19 22  1  0
 22 23  1  0
 23 24  1  0
 24 25  1  0
 25 26  1  0
 10 27  2  0
 27  5  1  0
 18 12  1  0
 26 22  1  0
  1 28  1  0
  1 29  1  0
  1 30  1  0
  6 31  1  0
  8 32  1  0
  9 33  1  0
 13 34  1  0
 14 35  1  0
 17 36  1  0
 23 37  1  0
 23 38  1  0
 24 39  1  0
 24 40  1  0
 25 41  1  0
 25 42  1  0
 26 43  1  0
 26 44  1  0
 27 45  1  0
M  CHG  2   4  -1  16  -1
M  END
>  <UniqueID>  (26) 
24

>  <SMILES>  (26) 
CC(=O)[N-]c1cc(O)cc(Oc2ccc([O-])cc2S(=O)(=O)N2CCCC2)c1

>  <Energy>  (26) 
60.06604119350447

>  <Genealogy>  (26) 
CC(=O)[N-]c1cc(O)cc(Oc2ccc([O-])cc2S(=O)(=O)N2CCCC2)c1 (protonated)
CC(=O)[N-]c1cc(O)cc(Oc2ccc([O-])cc2S(=O)(=O)N2CCCC2)c1 (3D coordinates assigned)
CC(=O)[N-]c1cc(O)cc(Oc2ccc([O-])cc2S(=O)(=O)N2CCCC2)c1 (nonaromatic ring conformer: 60.06604119350447 kcal/mol)

>  <smiles>  (26) 
CC(=O)Nc1cc(O)cc(Oc2ccc(O)cc2S(=O)(=O)N2CCCC2)c1

>  <score_type>  (26) 
oracle

>  <origin>  (26) 
adgpu

>  <m_score__min__energy>  (26) 
-10.470000000000001

>  <m_primary>  (26) 
energy

$$$$
26:0
     RDKit          3D

 70 74  0  0  0  0  0  0  0  0999 V2000
   -9.4550   21.5210  -30.1460 C   0  0  0  0  0  0  0  0  0  0  0  0
   -9.2190   21.6090  -31.7880 C   0  0  0  0  0  0  0  0  0  0  0  0
   -8.5780   20.4970  -32.7180 C   0  0  0  0  0  0  0  0  0  0  0  0
   -7.1910   20.3650  -32.4010 C   0  0  0  0  0  0  0  0  0  0  0  0
   -6.4680   21.5210  -31.8010 C   0  0  0  0  0  0  0  0  0  0  0  0
   -4.8980   21.7890  -31.9940 C   0  0  0  0  0  0  0  0  0  0  0  0
   -4.4570   21.0910  -32.9890 N   0  0  0  0  0  0  0  0  0  0  0  0
   -3.2290   20.7340  -32.7410 N   0  0  0  0  0  0  0  0  0  0  0  0
   -2.5130   20.0320  -33.8430 C   0  0  0  0  0  0  0  0  0  0  0  0
   -3.1020   18.6520  -34.1260 N   0  0  0  0  0  0  0  0  0  0  0  0
   -4.4030   18.0930  -33.7690 C   0  0  0  0  0  0  0  0  0  0  0  0
   -4.8260   18.0150  -32.3930 C   0  0  0  0  0  0  0  0  0  0  0  0
   -6.0590   17.4220  -32.1020 C   0  0  0  0  0  0  0  0  0  0  0  0
   -6.8740   16.9260  -33.1000 C   0  0  0  0  0  0  0  0  0  0  0  0
   -6.4780   16.9520  -34.4430 C   0  0  0  0  0  0  0  0  0  0  0  0
   -5.2390   17.5120  -34.7560 C   0  0  0  0  0  0  0  0  0  0  0  0
   -2.7630   21.5340  -31.7320 C   0  0  0  0  0  0  0  0  0  0  0  0
   -1.1830   21.6140  -31.3310 S   0  0  0  0  0  0  0  0  0  0  0  0
   -3.8430   22.4160  -31.1750 N   0  0  0  0  0  0  0  0  0  0  0  0
   -3.6660   23.0030  -29.8440 C   0  0  0  0  0  0  0  0  0  0  0  0
   -2.5880   23.8310  -29.6140 C   0  0  0  0  0  0  0  0  0  0  0  0
   -2.4890   24.5390  -28.4870 C   0  0  0  0  0  0  0  0  0  0  0  0
   -2.9790   24.7360  -27.2160 C   0  0  0  0  0  0  0  0  0  0  0  0
   -1.7620   25.7680  -25.9520 S   0  0  0  0  0  0  0  0  0  0  0  0
   -1.8530   26.3010  -24.5450 O   0  0  0  0  0  0  0  0  0  0  0  0
   -0.8850   27.0670  -26.5620 O   0  0  0  0  0  0  0  0  0  0  0  0
   -0.2280   24.6010  -25.2170 N   0  0  0  0  0  0  0  0  0  0  0  0
   -0.0570   24.1170  -26.4500 C   0  0  0  0  0  0  0  0  0  0  0  0
    1.0250   23.2750  -27.0790 C   0  0  0  0  0  0  0  0  0  0  0  0
    1.6580   24.5390  -27.8310 N   0  0  0  0  0  0  0  0  0  0  0  0
    2.2010   26.1650  -27.2320 C   0  0  0  0  0  0  0  0  0  0  0  0
    2.6010   24.6230  -26.8460 C   0  0  0  0  0  0  0  0  0  0  0  0
    1.3750   24.7990  -25.1310 C   0  0  0  0  0  0  0  0  0  0  0  0
   -4.0110   23.6080  -27.1830 C   0  0  0  0  0  0  0  0  0  0  0  0
   -4.4420   22.6900  -28.6120 C   0  0  0  0  0  0  0  0  0  0  0  0
   -7.1420   22.7720  -31.9930 C   0  0  0  0  0  0  0  0  0  0  0  0
   -6.5750   24.1570  -31.5430 C   0  0  0  0  0  0  0  0  0  0  0  0
   -8.5970   22.7560  -31.9970 C   0  0  0  0  0  0  0  0  0  0  0  0
   -8.5466   21.8597  -29.6263 H   0  0  0  0  0  0  0  0  0  0  0  0
  -10.3011   22.1640  -29.8622 H   0  0  0  0  0  0  0  0  0  0  0  0
   -9.6735   20.4810  -29.8622 H   0  0  0  0  0  0  0  0  0  0  0  0
   -9.1150   19.9193  -33.4848 H   0  0  0  0  0  0  0  0  0  0  0  0
   -6.6630   19.4203  -32.5978 H   0  0  0  0  0  0  0  0  0  0  0  0
   -2.5836   20.6414  -34.7561 H   0  0  0  0  0  0  0  0  0  0  0  0
   -1.4665   19.8955  -33.5328 H   0  0  0  0  0  0  0  0  0  0  0  0
   -2.4330   18.0090  -34.5900 H   0  0  0  0  0  0  0  0  0  0  0  0
   -4.1916   18.4140  -31.5878 H   0  0  0  0  0  0  0  0  0  0  0  0
   -6.3867   17.3492  -31.0545 H   0  0  0  0  0  0  0  0  0  0  0  0
   -7.8538   16.5020  -32.8350 H   0  0  0  0  0  0  0  0  0  0  0  0
   -7.1269   16.5416  -35.2307 H   0  0  0  0  0  0  0  0  0  0  0  0
   -4.8997   17.5025  -35.8023 H   0  0  0  0  0  0  0  0  0  0  0  0
   -1.7955   23.9095  -30.3728 H   0  0  0  0  0  0  0  0  0  0  0  0
   -1.6791   25.2683  -28.6358 H   0  0  0  0  0  0  0  0  0  0  0  0
   -0.9698   23.5273  -26.6207 H   0  0  0  0  0  0  0  0  0  0  0  0
    0.2555   25.0680  -26.9061 H   0  0  0  0  0  0  0  0  0  0  0  0
    1.7040   22.8124  -26.3476 H   0  0  0  0  0  0  0  0  0  0  0  0
    0.7425   22.3879  -27.6649 H   0  0  0  0  0  0  0  0  0  0  0  0
    2.2023   26.1688  -26.1320 H   0  0  0  0  0  0  0  0  0  0  0  0
    3.2167   26.3711  -27.6006 H   0  0  0  0  0  0  0  0  0  0  0  0
    1.5129   26.9401  -27.6006 H   0  0  0  0  0  0  0  0  0  0  0  0
    3.2251   23.7181  -26.8056 H   0  0  0  0  0  0  0  0  0  0  0  0
    3.3212   25.4443  -26.9756 H   0  0  0  0  0  0  0  0  0  0  0  0
    1.7418   24.0546  -24.4090 H   0  0  0  0  0  0  0  0  0  0  0  0
    1.4694   25.8658  -24.8801 H   0  0  0  0  0  0  0  0  0  0  0  0
   -4.5001   23.3642  -26.2284 H   0  0  0  0  0  0  0  0  0  0  0  0
   -5.2367   21.9295  -28.5998 H   0  0  0  0  0  0  0  0  0  0  0  0
   -6.5551   24.2056  -30.4443 H   0  0  0  0  0  0  0  0  0  0  0  0
   -5.5542   24.2799  -31.9340 H   0  0  0  0  0  0  0  0  0  0  0  0
   -7.2166   24.9604  -31.9340 H   0  0  0  0  0  0  0  0  0  0  0  0
   -9.1677   23.6802  -32.1705 H   0  0  0  0  0  0  0  0  0  0  0  0
  1  2  1  0
  2  3  2  0
  3  4  1  0
  4  5  2  0
  5  6  1  0
  6  7  2  0
  7  8  1  0
  8  9  1  0
  9 10  1  0
 10 11  1  0
 11 12  2  0
 12 13  1  0
 13 14  2  0
 14 15  1  0
 15 16  2  0
  8 17  1  0
 17 18  2  0
 17 19  1  0
 19 20  1  0
 20 21  2  0
 21 22  1  0
 22 23  2  0
 23 24  1  0
 24 25  2  0
 24 26  2  0
 24 27  1  0
 27 28  1  0
 28 29  1  0
 29 30  1  0
 30 31  1  0
 30 32  1  0
 32 33  1  0
 23 34  1  0
 34 35  2  0
  5 36  1  0
 36 37  1  0
 36 38  2  0
 38  2  1  0
 19  6  1  0
 35 20  1  0
 16 11  1  0
 33 27  1  0
  1 39  1  0
  1 40  1  0
  1 41  1  0
  3 42  1  0
  4 43  1  0
  9 44  1  0
  9 45  1  0
 10 46  1  0
 12 47  1  0
 13 48  1  0
 14 49  1  0
 15 50  1  0
 16 51  1  0
 21 52  1  0
 22 53  1  0
 28 54  1  0
 28 55  1  0
 29 56  1  0
 29 57  1  0
 31 58  1  0
 31 59  1  0
 31 60  1  0
 32 61  1  0
 32 62  1  0
 33 63  1  0
 33 64  1  0
 34 65  1  0
 35 66  1  0
 37 67  1  0
 37 68  1  0
 37 69  1  0
 38 70  1  0
M  END
>  <UniqueID>  (27) 
25

>  <SMILES>  (27) 
Cc1ccc(-c2nn(CNc3ccccc3)c(=S)n2-c2ccc(S(=O)(=O)N3CCN(C)CC3)cc2)c(C)c1

>  <Energy>  (27) 
1961.0166700312943

>  <Genealogy>  (27) 
Cc1ccc(-c2nn(CNc3ccccc3)c(=S)n2-c2ccc(S(=O)(=O)N3CCN(C)CC3)cc2)c(C)c1 (3D coordinates assigned)
Cc1ccc(-c2nn(CNc3ccccc3)c(=S)n2-c2ccc(S(=O)(=O)N3CCN(C)CC3)cc2)c(C)c1 (nonaromatic ring conformer: 1961.0166700312943 kcal/mol)

>  <smiles>  (27) 
Cc1ccc(-c2nn(CNc3ccccc3)c(=S)n2-c2ccc(S(=O)(=O)N3CCN(C)CC3)cc2)c(C)c1

>  <score_type>  (27) 
oracle

>  <origin>  (27) 
adgpu

>  <m_score__min__energy>  (27) 
-10.609999999999999

>  <m_primary>  (27) 
energy

$$$$
27:0
     RDKit          3D

 67 71  0  0  0  0  0  0  0  0999 V2000
   -3.2440   21.8820  -33.5360 O   0  0  0  0  0  0  0  0  0  0  0  0
   -3.4340   20.6960  -33.1560 C   0  0  0  0  0  0  0  0  0  0  0  0
   -2.4100   19.6460  -33.4820 C   0  0  0  0  0  0  0  0  0  0  0  0
   -3.0210   18.4380  -34.2130 C   0  0  0  0  0  0  0  0  0  0  0  0
   -4.3210   18.0440  -33.6340 N   0  0  0  0  0  0  0  0  0  0  0  0
   -4.3350   16.6700  -33.1120 C   0  0  0  0  0  0  0  0  0  0  0  0
   -5.7320   16.1030  -33.3440 C   0  0  0  0  0  0  0  0  0  0  0  0
   -6.4660   17.1420  -34.1690 C   0  0  0  0  0  0  0  0  0  0  0  0
   -5.3840   18.0930  -34.6390 C   0  0  0  0  0  0  0  0  0  0  0  0
   -4.6150   20.3530  -32.4160 N   0  0  0  0  0  0  0  0  0  0  0  0
   -5.5350   21.3570  -31.9700 C   0  0  0  0  0  0  0  0  0  0  0  0
   -5.0290   22.5680  -31.4930 C   0  0  0  0  0  0  0  0  0  0  0  0
   -5.8900   23.5770  -31.0590 C   0  0  0  0  0  0  0  0  0  0  0  0
   -5.2180   24.9970  -30.2600 S   0  0  0  0  0  0  0  0  0  0  0  0
   -6.2900   26.0300  -30.0370 O   0  0  0  0  0  0  0  0  0  0  0  0
   -4.1490   25.5800  -31.1430 O   0  0  0  0  0  0  0  0  0  0  0  0
   -4.5090   24.5590  -28.7320 N   0  0  0  0  0  0  0  0  0  0  0  0
   -3.3280   23.7590  -28.6010 C   0  0  0  0  0  0  0  0  0  0  0  0
   -3.4010   22.4230  -28.1760 C   0  0  0  0  0  0  0  0  0  0  0  0
   -2.2660   21.6020  -28.2150 C   0  0  0  0  0  0  0  0  0  0  0  0
   -1.0210   22.1490  -28.5880 C   0  0  0  0  0  0  0  0  0  0  0  0
   -0.9360   23.5060  -28.9410 C   0  0  0  0  0  0  0  0  0  0  0  0
   -2.0840   24.3060  -28.9480 C   0  0  0  0  0  0  0  0  0  0  0  0
   -1.9880   25.6420  -29.3300 O   0  0  0  0  0  0  0  0  0  0  0  0
    0.1930   21.2620  -28.7060 C   0  0  0  0  0  0  0  0  0  0  0  0
    0.0770   20.0190  -27.8160 C   0  0  0  0  0  0  0  0  0  0  0  0
   -1.2490   19.2950  -28.0700 C   0  0  0  0  0  0  0  0  0  0  0  0
   -2.3740   20.2080  -27.8850 N   0  0  0  0  0  0  0  0  0  0  0  0
   -7.2740   23.3820  -31.1210 C   0  0  0  0  0  0  0  0  0  0  0  0
   -7.8050   22.1650  -31.5630 C   0  0  0  0  0  0  0  0  0  0  0  0
   -6.9300   21.1250  -31.9680 C   0  0  0  0  0  0  0  0  0  0  0  0
   -7.4770   19.7970  -32.4570 C   0  0  0  0  0  0  0  0  0  0  0  0
   -8.9150   19.5360  -31.9990 C   0  0  0  0  0  0  0  0  0  0  0  0
   -9.7850   20.7600  -32.2750 C   0  0  0  0  0  0  0  0  0  0  0  0
   -9.2970   21.9500  -31.4460 C   0  0  0  0  0  0  0  0  0  0  0  0
   -1.6371   20.0936  -34.1241 H   0  0  0  0  0  0  0  0  0  0  0  0
   -1.9862   19.2848  -32.5333 H   0  0  0  0  0  0  0  0  0  0  0  0
   -3.1677   18.6997  -35.2713 H   0  0  0  0  0  0  0  0  0  0  0  0
   -2.3292   17.5895  -34.1066 H   0  0  0  0  0  0  0  0  0  0  0  0
   -3.5895   16.0595  -33.6426 H   0  0  0  0  0  0  0  0  0  0  0  0
   -4.0875   16.6612  -32.0402 H   0  0  0  0  0  0  0  0  0  0  0  0
   -5.6731   15.1506  -33.8913 H   0  0  0  0  0  0  0  0  0  0  0  0
   -6.2496   15.8991  -32.3951 H   0  0  0  0  0  0  0  0  0  0  0  0
   -6.9689   16.6718  -35.0269 H   0  0  0  0  0  0  0  0  0  0  0  0
   -7.2494   17.6549  -33.5917 H   0  0  0  0  0  0  0  0  0  0  0  0
   -4.9965   17.7736  -35.6177 H   0  0  0  0  0  0  0  0  0  0  0  0
   -5.7754   19.1146  -34.7540 H   0  0  0  0  0  0  0  0  0  0  0  0
   -4.6880   19.4020  -31.9950 H   0  0  0  0  0  0  0  0  0  0  0  0
   -3.9413   22.7282  -31.4590 H   0  0  0  0  0  0  0  0  0  0  0  0
   -4.3558   22.0178  -27.8098 H   0  0  0  0  0  0  0  0  0  0  0  0
    0.0368   23.9414  -29.2130 H   0  0  0  0  0  0  0  0  0  0  0  0
    0.3000   20.9419  -29.7529 H   0  0  0  0  0  0  0  0  0  0  0  0
    1.0710   21.8376  -28.3776 H   0  0  0  0  0  0  0  0  0  0  0  0
    0.9101   19.3361  -28.0387 H   0  0  0  0  0  0  0  0  0  0  0  0
    0.1131   20.3330  -26.7624 H   0  0  0  0  0  0  0  0  0  0  0  0
   -1.2601   18.9110  -29.1008 H   0  0  0  0  0  0  0  0  0  0  0  0
   -1.3435   18.4645  -27.3549 H   0  0  0  0  0  0  0  0  0  0  0  0
   -3.3110   19.7940  -27.6650 H   0  0  0  0  0  0  0  0  0  0  0  0
   -7.9520   24.1939  -30.8191 H   0  0  0  0  0  0  0  0  0  0  0  0
   -7.4532   19.7918  -33.5567 H   0  0  0  0  0  0  0  0  0  0  0  0
   -6.8465   19.0040  -32.0284 H   0  0  0  0  0  0  0  0  0  0  0  0
   -9.3196   18.6715  -32.5458 H   0  0  0  0  0  0  0  0  0  0  0  0
   -8.9165   19.3301  -30.9185 H   0  0  0  0  0  0  0  0  0  0  0  0
   -9.7278   21.0134  -33.3439 H   0  0  0  0  0  0  0  0  0  0  0  0
  -10.8252   20.5318  -31.9995 H   0  0  0  0  0  0  0  0  0  0  0  0
   -9.8124   22.8573  -31.7941 H   0  0  0  0  0  0  0  0  0  0  0  0
   -9.5219   21.7364  -30.3906 H   0  0  0  0  0  0  0  0  0  0  0  0
  1  2  2  0
  2  3  1  0
  3  4  1  0
  4  5  1  0
  5  6  1  0
  6  7  1  0
  7  8  1  0
  8  9  1  0
  2 10  1  0
 10 11  1  0
 11 12  2  0
 12 13  1  0
 13 14  1  0
 14 15  2  0
 14 16  2  0
 14 17  1  0
 17 18  1  0
 18 19  2  0
 19 20  1  0
 20 21  2  0
 21 22  1  0
 22 23  2  0
 23 24  1  0
 21 25  1  0
 25 26  1  0
 26 27  1  0
 27 28  1  0
 13 29  2  0
 29 30  1  0
 30 31  2  0
 31 32  1  0
 32 33  1  0
 33 34  1  0
 34 35  1  0
  9  5  1  0
 31 11  1  0
 23 18  1  0
 35 30  1  0
 28 20  1  0
  3 36  1  0
  3 37  1  0
  4 38  1  0
  4 39  1  0
  6 40  1  0
  6 41  1  0
  7 42  1  0
  7 43  1  0
  8 44  1  0
  8 45  1  0
  9 46  1  0
  9 47  1  0
 10 48  1  0
 12 49  1  0
 19 50  1  0
 22 51  1  0
 25 52  1  0
 25 53  1  0
 26 54  1  0
 26 55  1  0
 27 56  1  0
 27 57  1  0
 28 58  1  0
 29 59  1  0
 32 60  1  0
 32 61  1  0
 33 62  1  0
 33 63  1  0
 34 64  1  0
 34 65  1  0
 35 66  1  0
 35 67  1  0
M  CHG  2  17  -1  24  -1
M  END
>  <UniqueID>  (28) 
26

>  <SMILES>  (28) 
O=C(CCN1CCCC1)Nc1cc(S(=O)(=O)[N-]c2cc3c(cc2[O-])CCCN3)cc2c1CCCC2

>  <Energy>  (28) 
79.5034444843958

>  <Genealogy>  (28) 
O=C(CCN1CCCC1)Nc1cc(S(=O)(=O)[N-]c2cc3c(cc2[O-])CCCN3)cc2c1CCCC2 (protonated)
O=C(CCN1CCCC1)Nc1cc(S(=O)(=O)[N-]c2cc3c(cc2[O-])CCCN3)cc2c1CCCC2 (3D coordinates assigned)
O=C(CCN1CCCC1)Nc1cc(S(=O)(=O)[N-]c2cc3c(cc2[O-])CCCN3)cc2c1CCCC2 (nonaromatic ring conformer: 79.5034444843958 kcal/mol)

>  <smiles>  (28) 
O=C(CCN1CCCC1)Nc1cc(S(=O)(=O)Nc2cc3c(cc2O)CCCN3)cc2c1CCCC2

>  <score_type>  (28) 
oracle

>  <origin>  (28) 
adgpu

>  <m_score__min__energy>  (28) 
-16.539999999999999

>  <m_primary>  (28) 
energy

$$$$
28:0
     RDKit          3D

 33 35  0  0  1  0  0  0  0  0999 V2000
   -3.9150   25.5670  -30.4740 O   0  0  0  0  0  0  0  0  0  0  0  0
   -4.7410   24.5140  -30.8520 C   0  0  0  0  0  0  0  0  0  0  0  0
   -6.1160   24.6180  -30.9110 C   0  0  0  0  0  0  0  0  0  0  0  0
   -6.8980   23.5230  -31.2990 C   0  0  0  0  0  0  0  0  0  0  0  0
   -6.2880   22.3380  -31.6220 C   0  0  0  0  0  0  0  0  0  0  0  0
   -7.0150   21.1420  -32.0360 C   0  0  0  0  0  0  0  0  0  0  0  0
   -6.4610   19.9280  -32.4490 C   0  0  0  0  0  0  0  0  0  0  0  0
   -7.5020   19.0750  -32.7480 C   0  0  0  0  0  0  0  0  0  0  0  0
   -7.4910   17.8590  -33.1660 N   0  0  0  0  0  0  0  0  0  0  0  0
   -6.2400   17.2120  -33.3800 C   0  0  0  0  0  0  0  0  0  0  0  0
   -5.7150   16.2460  -32.5880 C   0  0  0  0  0  0  0  0  0  0  0  0
   -4.4760   15.6690  -32.8850 C   0  0  0  0  0  0  0  0  0  0  0  0
   -3.7500   16.0740  -34.0030 C   0  0  0  0  0  0  0  0  0  0  0  0
   -4.2920   17.0710  -34.8200 C   0  0  0  0  0  0  0  0  0  0  0  0
   -5.5170   17.6250  -34.5080 C   0  0  0  0  0  0  0  0  0  0  0  0
   -5.9980   18.6100  -35.3620 O   0  0  0  0  0  0  0  0  0  0  0  0
   -8.6430   19.7550  -32.5220 N   0  0  0  0  0  0  0  0  0  0  0  0
   -8.3640   20.9740  -32.1010 N   0  0  0  0  0  0  0  0  0  0  0  0
   -4.9220   22.2770  -31.5500 C   0  0  0  0  0  0  0  0  0  0  0  0
   -4.1150   23.3250  -31.1740 C   0  0  0  0  0  0  0  0  0  0  0  0
   -2.9610   25.6790  -30.8420 H   0  0  0  0  0  0  0  0  0  0  0  0
   -6.6021   25.5698  -30.6508 H   0  0  0  0  0  0  0  0  0  0  0  0
   -7.9934   23.6127  -31.3444 H   0  0  0  0  0  0  0  0  0  0  0  0
   -5.3885   19.6949  -32.5224 H   0  0  0  0  0  0  0  0  0  0  0  0
   -6.2706   15.9111  -31.6997 H   0  0  0  0  0  0  0  0  0  0  0  0
   -4.0698   14.8859  -32.2279 H   0  0  0  0  0  0  0  0  0  0  0  0
   -2.7753   15.6210  -34.2370 H   0  0  0  0  0  0  0  0  0  0  0  0
   -3.7431   17.4131  -35.7097 H   0  0  0  0  0  0  0  0  0  0  0  0
   -6.8570   19.1290  -35.1590 H   0  0  0  0  0  0  0  0  0  0  0  0
   -9.6200   19.3990  -32.6480 H   0  0  0  0  0  0  0  0  0  0  0  0
   -9.0980   21.7010  -31.8560 H   0  0  0  0  0  0  0  0  0  0  0  0
   -4.4371   21.3247  -31.8107 H   0  0  0  0  0  0  0  0  0  0  0  0
   -3.0207   23.2215  -31.1315 H   0  0  0  0  0  0  0  0  0  0  0  0
  1  2  1  0
  2  3  2  0
  3  4  1  0
  4  5  2  0
  5  6  1  0
  6  7  2  0
  7  8  1  0
  8  9  2  0
  9 10  1  0
 10 11  2  0
 11 12  1  0
 12 13  2  0
 13 14  1  0
 14 15  2  0
 15 16  1  0
  8 17  1  0
 17 18  1  0
  5 19  1  0
 19 20  2  0
 20  2  1  0
 18  6  1  0
 15 10  1  0
  1 21  1  0
  3 22  1  0
  4 23  1  0
  7 24  1  0
 11 25  1  0
 12 26  1  0
 13 27  1  0
 14 28  1  0
 16 29  1  0
 17 30  1  0
 18 31  1  0
 19 32  1  0
 20 33  1  0
M  END
>  <smiles>  (29) 
Oc1ccc(-c2cc(=Nc3ccccc3O)[nH][nH]2)cc1

>  <score_type>  (29) 
oracle

>  <origin>  (29) 
adgpu

>  <m_score__min__energy>  (29) 
-8.4299999999999997

>  <m_primary>  (29) 
energy

$$$$
29:0
     RDKit          3D

 43 45  0  0  0  0  0  0  0  0999 V2000
   -7.9980   21.7770  -30.4250 C   0  0  0  0  0  0  0  0  0  0  0  0
   -6.9080   22.8070  -30.4450 C   0  0  0  0  0  0  0  0  0  0  0  0
   -7.2080   24.1500  -30.7110 C   0  0  0  0  0  0  0  0  0  0  0  0
   -6.1880   25.1000  -30.7690 C   0  0  0  0  0  0  0  0  0  0  0  0
   -4.8550   24.7180  -30.5840 C   0  0  0  0  0  0  0  0  0  0  0  0
   -3.8580   25.6850  -30.6680 O   0  0  0  0  0  0  0  0  0  0  0  0
   -4.5340   23.3680  -30.3410 C   0  0  0  0  0  0  0  0  0  0  0  0
   -3.1240   22.9390  -30.1680 C   0  0  0  0  0  0  0  0  0  0  0  0
   -2.2730   23.7660  -29.7480 O   0  0  0  0  0  0  0  0  0  0  0  0
   -2.7060   21.5880  -30.4090 N   0  0  0  0  0  0  0  0  0  0  0  0
   -2.8550   20.8530  -31.6340 C   0  0  0  0  0  0  0  0  0  0  0  0
   -4.0520   20.1860  -31.9510 C   0  0  0  0  0  0  0  0  0  0  0  0
   -4.1710   19.4690  -33.1500 C   0  0  0  0  0  0  0  0  0  0  0  0
   -5.6610   18.5890  -33.5110 S   0  0  0  0  0  0  0  0  0  0  0  0
   -6.0660   18.8770  -34.9300 O   0  0  0  0  0  0  0  0  0  0  0  0
   -5.3960   17.1130  -33.3930 O   0  0  0  0  0  0  0  0  0  0  0  0
   -6.9790   19.0170  -32.4460 N   0  0  0  0  0  0  0  0  0  0  0  0
   -7.9760   19.8500  -33.1130 C   0  0  0  0  0  0  0  0  0  0  0  0
   -9.2820   19.6350  -32.3630 C   0  0  0  0  0  0  0  0  0  0  0  0
   -9.1090   18.3140  -31.6270 C   0  0  0  0  0  0  0  0  0  0  0  0
   -7.7060   17.8410  -31.9710 C   0  0  0  0  0  0  0  0  0  0  0  0
   -3.0920   19.4320  -34.0420 C   0  0  0  0  0  0  0  0  0  0  0  0
   -1.9130   20.1220  -33.7500 C   0  0  0  0  0  0  0  0  0  0  0  0
   -1.7940   20.8340  -32.5520 C   0  0  0  0  0  0  0  0  0  0  0  0
   -0.6140   21.5140  -32.2720 O   0  0  0  0  0  0  0  0  0  0  0  0
   -5.5710   22.4210  -30.2660 C   0  0  0  0  0  0  0  0  0  0  0  0
   -8.2544   21.5347  -29.3831 H   0  0  0  0  0  0  0  0  0  0  0  0
   -8.8864   22.1732  -30.9386 H   0  0  0  0  0  0  0  0  0  0  0  0
   -7.6526   20.8676  -30.9386 H   0  0  0  0  0  0  0  0  0  0  0  0
   -8.2518   24.4562  -30.8747 H   0  0  0  0  0  0  0  0  0  0  0  0
   -6.4332   26.1550  -30.9612 H   0  0  0  0  0  0  0  0  0  0  0  0
   -4.9012   20.2272  -31.2530 H   0  0  0  0  0  0  0  0  0  0  0  0
   -7.6802   20.9085  -33.0673 H   0  0  0  0  0  0  0  0  0  0  0  0
   -8.0757   19.5815  -34.1751 H   0  0  0  0  0  0  0  0  0  0  0  0
   -9.4559   20.4539  -31.6494 H   0  0  0  0  0  0  0  0  0  0  0  0
  -10.1470   19.6160  -33.0423 H   0  0  0  0  0  0  0  0  0  0  0  0
   -9.2099   18.4620  -30.5417 H   0  0  0  0  0  0  0  0  0  0  0  0
   -9.8723   17.5787  -31.9214 H   0  0  0  0  0  0  0  0  0  0  0  0
   -7.2153   17.4251  -31.0787 H   0  0  0  0  0  0  0  0  0  0  0  0
   -7.7279   17.0501  -32.7352 H   0  0  0  0  0  0  0  0  0  0  0  0
   -3.1732   18.8573  -34.9764 H   0  0  0  0  0  0  0  0  0  0  0  0
   -1.0763   20.1053  -34.4639 H   0  0  0  0  0  0  0  0  0  0  0  0
   -5.3314   21.3664  -30.0649 H   0  0  0  0  0  0  0  0  0  0  0  0
  1  2  1  0
  2  3  2  0
  3  4  1  0
  4  5  2  0
  5  6  1  0
  5  7  1  0
  7  8  1  0
  8  9  2  0
  8 10  1  0
 10 11  1  0
 11 12  2  0
 12 13  1  0
 13 14  1  0
 14 15  2  0
 14 16  2  0
 14 17  1  0
 17 18  1  0
 18 19  1  0
 19 20  1  0
 20 21  1  0
 13 22  2  0
 22 23  1  0
 23 24  2  0
 24 25  1  0
  7 26  2  0
 26  2  1  0
 24 11  1  0
 21 17  1  0
  1 27  1  0
  1 28  1  0
  1 29  1  0
  3 30  1  0
  4 31  1  0
 12 32  1  0
 18 33  1  0
 18 34  1  0
 19 35  1  0
 19 36  1  0
 20 37  1  0
 20 38  1  0
 21 39  1  0
 21 40  1  0
 22 41  1  0
 23 42  1  0
 26 43  1  0
M  CHG  3   6  -1  10  -1  25  -1
M  END
>  <UniqueID>  (30) 
27

>  <SMILES>  (30) 
Cc1ccc([O-])c(C(=O)[N-]c2cc(S(=O)(=O)N3CCCC3)ccc2[O-])c1

>  <Energy>  (30) 
51.94465165948104

>  <Genealogy>  (30) 
Cc1ccc([O-])c(C(=O)[N-]c2cc(S(=O)(=O)N3CCCC3)ccc2[O-])c1 (protonated)
Cc1ccc([O-])c(C(=O)[N-]c2cc(S(=O)(=O)N3CCCC3)ccc2[O-])c1 (3D coordinates assigned)
Cc1ccc([O-])c(C(=O)[N-]c2cc(S(=O)(=O)N3CCCC3)ccc2[O-])c1 (nonaromatic ring conformer: 51.94465165948104 kcal/mol)

>  <smiles>  (30) 
Cc1ccc(O)c(C(=O)Nc2cc(S(=O)(=O)N3CCCC3)ccc2O)c1

>  <score_type>  (30) 
oracle

>  <origin>  (30) 
adgpu

>  <m_score__min__energy>  (30) 
-14.9

>  <m_primary>  (30) 
energy

$$$$
30:0
     RDKit          3D

 62 65  0  0  0  0  0  0  0  0999 V2000
   -1.9250   26.4210  -24.4710 C   0  0  0  0  0  0  0  0  0  0  0  0
   -2.3180   25.8490  -25.8070 C   0  0  0  0  0  0  0  0  0  0  0  0
   -3.4690   25.0440  -25.8700 C   0  0  0  0  0  0  0  0  0  0  0  0
   -3.8730   24.4660  -27.0710 C   0  0  0  0  0  0  0  0  0  0  0  0
   -3.1420   24.6840  -28.2430 C   0  0  0  0  0  0  0  0  0  0  0  0
   -3.5200   24.0500  -29.4760 N   0  0  0  0  0  0  0  0  0  0  0  0
   -4.4790   24.6010  -30.3970 C   0  0  0  0  0  0  0  0  0  0  0  0
   -5.1060   25.6550  -30.1120 O   0  0  0  0  0  0  0  0  0  0  0  0
   -4.7630   23.9440  -31.6380 N   0  0  0  0  0  0  0  0  0  0  0  0
   -5.4270   22.6820  -31.7840 C   0  0  0  0  0  0  0  0  0  0  0  0
   -4.7420   21.4670  -31.6120 C   0  0  0  0  0  0  0  0  0  0  0  0
   -5.4100   20.2510  -31.7890 C   0  0  0  0  0  0  0  0  0  0  0  0
   -6.7630   20.2360  -32.1510 C   0  0  0  0  0  0  0  0  0  0  0  0
   -7.5900   18.7000  -32.3920 S   0  0  0  0  0  0  0  0  0  0  0  0
   -9.0530   18.9420  -32.6430 O   0  0  0  0  0  0  0  0  0  0  0  0
   -7.4490   17.8720  -31.1460 O   0  0  0  0  0  0  0  0  0  0  0  0
   -6.8850   17.8470  -33.7450 N   0  0  0  0  0  0  0  0  0  0  0  0
   -6.1450   16.6640  -33.2640 C   0  0  0  0  0  0  0  0  0  0  0  0
   -5.1120   16.2070  -34.3070 C   0  0  0  0  0  0  0  0  0  0  0  0
   -4.1370   17.1910  -34.6310 O   0  0  0  0  0  0  0  0  0  0  0  0
   -4.5460   18.5210  -34.3450 C   0  0  0  0  0  0  0  0  0  0  0  0
   -6.0520   18.7520  -34.5690 C   0  0  0  0  0  0  0  0  0  0  0  0
   -7.4380   21.4480  -32.3560 C   0  0  0  0  0  0  0  0  0  0  0  0
   -6.7690   22.6640  -32.1810 C   0  0  0  0  0  0  0  0  0  0  0  0
   -1.9840   25.4770  -28.1960 C   0  0  0  0  0  0  0  0  0  0  0  0
   -1.2440   25.6630  -29.3600 O   0  0  0  0  0  0  0  0  0  0  0  0
   -1.5720   26.0860  -26.9920 C   0  0  0  0  0  0  0  0  0  0  0  0
   -0.0950   27.0830  -27.0340 S   0  0  0  0  0  0  0  0  0  0  0  0
    0.2370   27.6810  -25.6960 O   0  0  0  0  0  0  0  0  0  0  0  0
   -0.3200   28.2150  -28.0000 O   0  0  0  0  0  0  0  0  0  0  0  0
    1.2350   26.1000  -27.5930 N   0  0  0  0  0  0  0  0  0  0  0  0
    1.1030   24.7280  -27.0770 C   0  0  0  0  0  0  0  0  0  0  0  0
    2.3440   23.8890  -27.4430 C   0  0  0  0  0  0  0  0  0  0  0  0
    3.2470   24.6190  -28.2520 O   0  0  0  0  0  0  0  0  0  0  0  0
    3.6890   25.7690  -27.5540 C   0  0  0  0  0  0  0  0  0  0  0  0
    2.5120   26.6850  -27.1550 C   0  0  0  0  0  0  0  0  0  0  0  0
   -2.3505   25.8018  -23.6675 H   0  0  0  0  0  0  0  0  0  0  0  0
   -0.8284   26.4310  -24.3847 H   0  0  0  0  0  0  0  0  0  0  0  0
   -2.3090   27.4482  -24.3847 H   0  0  0  0  0  0  0  0  0  0  0  0
   -4.0586   24.8683  -24.9581 H   0  0  0  0  0  0  0  0  0  0  0  0
   -4.7729   23.8339  -27.0978 H   0  0  0  0  0  0  0  0  0  0  0  0
   -3.0210   23.1710  -29.7400 H   0  0  0  0  0  0  0  0  0  0  0  0
   -3.6769   21.4724  -31.3372 H   0  0  0  0  0  0  0  0  0  0  0  0
   -4.8710   19.3032  -31.6434 H   0  0  0  0  0  0  0  0  0  0  0  0
   -5.6251   16.9192  -32.3288 H   0  0  0  0  0  0  0  0  0  0  0  0
   -6.8599   15.8457  -33.0927 H   0  0  0  0  0  0  0  0  0  0  0  0
   -4.5913   15.3221  -33.9123 H   0  0  0  0  0  0  0  0  0  0  0  0
   -5.6684   15.9962  -35.2322 H   0  0  0  0  0  0  0  0  0  0  0  0
   -4.3109   18.7409  -33.2932 H   0  0  0  0  0  0  0  0  0  0  0  0
   -4.0062   19.1855  -35.0357 H   0  0  0  0  0  0  0  0  0  0  0  0
   -6.2936   19.7926  -34.3069 H   0  0  0  0  0  0  0  0  0  0  0  0
   -6.2720   18.5442  -35.6266 H   0  0  0  0  0  0  0  0  0  0  0  0
   -8.4965   21.4425  -32.6552 H   0  0  0  0  0  0  0  0  0  0  0  0
   -7.3004   23.6110  -32.3563 H   0  0  0  0  0  0  0  0  0  0  0  0
    0.9994   24.7618  -25.9824 H   0  0  0  0  0  0  0  0  0  0  0  0
    0.2145   24.2630  -27.5290 H   0  0  0  0  0  0  0  0  0  0  0  0
    2.8570   23.5882  -26.5176 H   0  0  0  0  0  0  0  0  0  0  0  0
    2.0085   23.0085  -28.0106 H   0  0  0  0  0  0  0  0  0  0  0  0
    4.2177   25.4514  -26.6432 H   0  0  0  0  0  0  0  0  0  0  0  0
    4.3548   26.3381  -28.2195 H   0  0  0  0  0  0  0  0  0  0  0  0
    2.5000   26.8040  -26.0615 H   0  0  0  0  0  0  0  0  0  0  0  0
    2.6412   27.6636  -27.6405 H   0  0  0  0  0  0  0  0  0  0  0  0
  1  2  1  0
  2  3  2  0
  3  4  1  0
  4  5  2  0
  5  6  1  0
  6  7  1  0
  7  8  2  0
  7  9  1  0
  9 10  1  0
 10 11  2  0
 11 12  1  0
 12 13  2  0
 13 14  1  0
 14 15  2  0
 14 16  2  0
 14 17  1  0
 17 18  1  0
 18 19  1  0
 19 20  1  0
 20 21  1  0
 21 22  1  0
 13 23  1  0
 23 24  2  0
  5 25  1  0
 25 26  1  0
 25 27  2  0
 27 28  1  0
 28 29  2  0
 28 30  2  0
 28 31  1  0
 31 32  1  0
 32 33  1  0
 33 34  1  0
 34 35  1  0
 35 36  1  0
 27  2  1  0
 36 31  1  0
 24 10  1  0
 22 17  1  0
  1 37  1  0
  1 38  1  0
  1 39  1  0
  3 40  1  0
  4 41  1  0
  6 42  1  0
 11 43  1  0
 12 44  1  0
 18 45  1  0
 18 46  1  0
 19 47  1  0
 19 48  1  0
 21 49  1  0
 21 50  1  0
 22 51  1  0
 22 52  1  0
 23 53  1  0
 24 54  1  0
 32 55  1  0
 32 56  1  0
 33 57  1  0
 33 58  1  0
 35 59  1  0
 35 60  1  0
 36 61  1  0
 36 62  1  0
M  CHG  2   9  -1  26  -1
M  END
>  <UniqueID>  (31) 
28

>  <SMILES>  (31) 
Cc1ccc(NC(=O)[N-]c2ccc(S(=O)(=O)N3CCOCC3)cc2)c([O-])c1S(=O)(=O)N1CCOCC1

>  <Energy>  (31) 
96.30082102023403

>  <Genealogy>  (31) 
Cc1ccc(NC(=O)[N-]c2ccc(S(=O)(=O)N3CCOCC3)cc2)c([O-])c1S(=O)(=O)N1CCOCC1 (protonated)
Cc1ccc(NC(=O)[N-]c2ccc(S(=O)(=O)N3CCOCC3)cc2)c([O-])c1S(=O)(=O)N1CCOCC1 (3D coordinates assigned)
Cc1ccc(NC(=O)[N-]c2ccc(S(=O)(=O)N3CCOCC3)cc2)c([O-])c1S(=O)(=O)N1CCOCC1 (nonaromatic ring conformer: 96.30082102023403 kcal/mol)

>  <smiles>  (31) 
Cc1ccc(NC(=O)Nc2ccc(S(=O)(=O)N3CCOCC3)cc2)c(O)c1S(=O)(=O)N1CCOCC1

>  <score_type>  (31) 
oracle

>  <origin>  (31) 
adgpu

>  <m_score__min__energy>  (31) 
-14.119999999999999

>  <m_primary>  (31) 
energy

$$$$
31:0
     RDKit          3D

 53 56  0  0  0  0  0  0  0  0999 V2000
   -5.6320   26.4410  -30.4100 O   0  0  0  0  0  0  0  0  0  0  0  0
   -5.1900   25.2730  -30.5790 C   0  0  0  0  0  0  0  0  0  0  0  0
   -3.7830   25.0080  -30.4730 N   0  0  0  0  0  0  0  0  0  0  0  0
   -3.1690   23.7530  -30.1510 C   0  0  0  0  0  0  0  0  0  0  0  0
   -3.1300   22.6510  -30.9800 C   0  0  0  0  0  0  0  0  0  0  0  0
   -2.4910   21.6500  -30.3440 N   0  0  0  0  0  0  0  0  0  0  0  0
   -2.1390   22.0980  -29.1470 N   0  0  0  0  0  0  0  0  0  0  0  0
   -1.2930   21.1450  -27.9770 S   0  0  0  0  0  0  0  0  0  0  0  0
   -2.2960   20.4140  -27.1290 O   0  0  0  0  0  0  0  0  0  0  0  0
   -0.4090   20.1470  -28.6710 O   0  0  0  0  0  0  0  0  0  0  0  0
   -0.2890   22.1940  -26.9830 C   0  0  0  0  0  0  0  0  0  0  0  0
   -0.4940   22.2410  -25.5980 C   0  0  0  0  0  0  0  0  0  0  0  0
    0.2990   23.0680  -24.7970 C   0  0  0  0  0  0  0  0  0  0  0  0
    1.3020   23.8590  -25.3750 C   0  0  0  0  0  0  0  0  0  0  0  0
    2.3100   24.8770  -24.3490 S   0  0  0  0  0  0  0  0  0  0  0  0
    3.3830   25.5000  -25.1960 O   0  0  0  0  0  0  0  0  0  0  0  0
    2.9650   24.0420  -23.2810 O   0  0  0  0  0  0  0  0  0  0  0  0
    1.3330   26.1260  -23.6110 N   0  0  0  0  0  0  0  0  0  0  0  0
   -0.0990   25.8830  -23.9210 C   0  0  0  0  0  0  0  0  0  0  0  0
   -0.9410   27.1480  -23.7220 C   0  0  0  0  0  0  0  0  0  0  0  0
   -0.4880   28.2700  -24.6740 C   0  0  0  0  0  0  0  0  0  0  0  0
    0.9820   28.1270  -25.1060 C   0  0  0  0  0  0  0  0  0  0  0  0
    1.8210   27.4810  -23.9940 C   0  0  0  0  0  0  0  0  0  0  0  0
    1.5050   23.8140  -26.7620 C   0  0  0  0  0  0  0  0  0  0  0  0
    0.7120   22.9860  -27.5620 C   0  0  0  0  0  0  0  0  0  0  0  0
   -2.5340   23.3740  -28.9850 C   0  0  0  0  0  0  0  0  0  0  0  0
   -6.1270   24.1720  -30.9000 C   0  0  0  0  0  0  0  0  0  0  0  0
   -6.8010   23.4750  -29.8810 C   0  0  0  0  0  0  0  0  0  0  0  0
   -7.6810   22.4410  -30.2020 C   0  0  0  0  0  0  0  0  0  0  0  0
   -7.8840   22.1050  -31.5410 C   0  0  0  0  0  0  0  0  0  0  0  0
   -7.2300   22.7840  -32.5190 N   0  0  0  0  0  0  0  0  0  0  0  0
   -6.3670   23.7960  -32.2350 C   0  0  0  0  0  0  0  0  0  0  0  0
   -3.5518   22.5983  -31.9946 H   0  0  0  0  0  0  0  0  0  0  0  0
   -1.2815   21.6251  -25.1392 H   0  0  0  0  0  0  0  0  0  0  0  0
    0.1355   23.0982  -23.7096 H   0  0  0  0  0  0  0  0  0  0  0  0
    1.4560   26.0230  -22.5760 H   0  0  0  0  0  0  0  0  0  0  0  0
   -0.1874   25.5562  -24.9676 H   0  0  0  0  0  0  0  0  0  0  0  0
   -0.4733   25.1087  -23.2351 H   0  0  0  0  0  0  0  0  0  0  0  0
   -1.9967   26.9120  -23.9213 H   0  0  0  0  0  0  0  0  0  0  0  0
   -0.8116   27.4948  -22.6862 H   0  0  0  0  0  0  0  0  0  0  0  0
   -1.1224   28.2464  -25.5723 H   0  0  0  0  0  0  0  0  0  0  0  0
   -0.5833   29.2228  -24.1326 H   0  0  0  0  0  0  0  0  0  0  0  0
    1.0328   27.4978  -26.0068 H   0  0  0  0  0  0  0  0  0  0  0  0
    1.3859   29.1290  -25.3131 H   0  0  0  0  0  0  0  0  0  0  0  0
    2.8601   27.3936  -24.3443 H   0  0  0  0  0  0  0  0  0  0  0  0
    1.7409   28.1238  -23.1049 H   0  0  0  0  0  0  0  0  0  0  0  0
    2.2904   24.4319  -27.2217 H   0  0  0  0  0  0  0  0  0  0  0  0
    0.8742   22.9560  -28.6496 H   0  0  0  0  0  0  0  0  0  0  0  0
   -2.3801   23.9976  -28.0920 H   0  0  0  0  0  0  0  0  0  0  0  0
   -6.6338   23.7459  -28.8281 H   0  0  0  0  0  0  0  0  0  0  0  0
   -8.2100   21.8955  -29.4066 H   0  0  0  0  0  0  0  0  0  0  0  0
   -8.5740   21.2899  -31.8047 H   0  0  0  0  0  0  0  0  0  0  0  0
   -5.8539   24.3234  -33.0527 H   0  0  0  0  0  0  0  0  0  0  0  0
  1  2  2  0
  2  3  1  0
  3  4  1  0
  4  5  1  0
  5  6  2  0
  6  7  1  0
  7  8  1  0
  8  9  2  0
  8 10  2  0
  8 11  1  0
 11 12  2  0
 12 13  1  0
 13 14  2  0
 14 15  1  0
 15 16  2  0
 15 17  2  0
 15 18  1  0
 18 19  1  0
 19 20  1  0
 20 21  1  0
 21 22  1  0
 22 23  1  0
 14 24  1  0
 24 25  2  0
  7 26  1  0
  2 27  1  0
 27 28  2  0
 28 29  1  0
 29 30  2  0
 30 31  1  0
 31 32  2  0
 26  4  2  0
 32 27  1  0
 25 11  1  0
 23 18  1  0
  5 33  1  0
 12 34  1  0
 13 35  1  0
 18 36  1  0
 19 37  1  0
 19 38  1  0
 20 39  1  0
 20 40  1  0
 21 41  1  0
 21 42  1  0
 22 43  1  0
 22 44  1  0
 23 45  1  0
 23 46  1  0
 24 47  1  0
 25 48  1  0
 26 49  1  0
 28 50  1  0
 29 51  1  0
 30 52  1  0
 32 53  1  0
M  CHG  2   3  -1  18   1
M  END
>  <UniqueID>  (32) 
29

>  <SMILES>  (32) 
O=C([N-]c1cnn(S(=O)(=O)c2ccc(S(=O)(=O)[NH+]3CCCCC3)cc2)c1)c1cccnc1

>  <Energy>  (32) 
97.80314130105637

>  <Genealogy>  (32) 
O=C([N-]c1cnn(S(=O)(=O)c2ccc(S(=O)(=O)[NH+]3CCCCC3)cc2)c1)c1cccnc1 (protonated)
O=C([N-]c1cnn(S(=O)(=O)c2ccc(S(=O)(=O)[NH+]3CCCCC3)cc2)c1)c1cccnc1 (3D coordinates assigned)
O=C([N-]c1cnn(S(=O)(=O)c2ccc(S(=O)(=O)[NH+]3CCCCC3)cc2)c1)c1cccnc1 (nonaromatic ring conformer: 97.80314130105637 kcal/mol)

>  <smiles>  (32) 
O=C(Nc1cnn(S(=O)(=O)c2ccc(S(=O)(=O)N3CCCCC3)cc2)c1)c1cccnc1

>  <score_type>  (32) 
oracle

>  <origin>  (32) 
adgpu

>  <m_score__min__energy>  (32) 
-11.43

>  <m_primary>  (32) 
energy

$$$$
32:0
     RDKit          3D

 40 42  0  0  0  0  0  0  0  0999 V2000
   -2.2040   19.2320  -32.7990 C   0  0  0  0  0  0  0  0  0  0  0  0
   -2.9330   20.4500  -32.3160 C   0  0  0  0  0  0  0  0  0  0  0  0
   -3.7470   21.1810  -33.1930 C   0  0  0  0  0  0  0  0  0  0  0  0
   -4.4560   22.2940  -32.7340 C   0  0  0  0  0  0  0  0  0  0  0  0
   -4.3620   22.6940  -31.3920 C   0  0  0  0  0  0  0  0  0  0  0  0
   -5.1010   23.8380  -30.9330 N   0  0  0  0  0  0  0  0  0  0  0  0
   -4.6110   25.0620  -30.8550 N   0  0  0  0  0  0  0  0  0  0  0  0
   -5.5360   25.8620  -30.3460 N   0  0  0  0  0  0  0  0  0  0  0  0
   -6.6340   25.1710  -30.0730 N   0  0  0  0  0  0  0  0  0  0  0  0
   -6.3540   23.9090  -30.4430 C   0  0  0  0  0  0  0  0  0  0  0  0
   -7.4620   22.5260  -30.1620 S   0  0  0  0  0  0  0  0  0  0  0  0
   -7.8410   22.3180  -31.9370 C   0  0  0  0  0  0  0  0  0  0  0  0
   -8.8930   21.2090  -32.1720 C   0  0  0  0  0  0  0  0  0  0  0  0
   -8.4150   20.0250  -32.9330 N   0  0  0  0  0  0  0  0  0  0  0  0
   -6.9610   20.0370  -33.1890 C   0  0  0  0  0  0  0  0  0  0  0  0
   -6.3280   18.8860  -32.4110 C   0  0  0  0  0  0  0  0  0  0  0  0
   -7.4560   18.2250  -31.6440 C   0  0  0  0  0  0  0  0  0  0  0  0
   -8.7290   18.7370  -32.2930 C   0  0  0  0  0  0  0  0  0  0  0  0
   -3.5760   21.9380  -30.5060 C   0  0  0  0  0  0  0  0  0  0  0  0
   -2.8680   20.8230  -30.9650 C   0  0  0  0  0  0  0  0  0  0  0  0
   -1.8542   18.6475  -31.9353 H   0  0  0  0  0  0  0  0  0  0  0  0
   -2.8822   18.6162  -33.4080 H   0  0  0  0  0  0  0  0  0  0  0  0
   -1.3409   19.5387  -33.4080 H   0  0  0  0  0  0  0  0  0  0  0  0
   -3.8277   20.8769  -34.2470 H   0  0  0  0  0  0  0  0  0  0  0  0
   -5.0924   22.8608  -33.4294 H   0  0  0  0  0  0  0  0  0  0  0  0
   -8.2304   23.2680  -32.3319 H   0  0  0  0  0  0  0  0  0  0  0  0
   -6.9145   22.0262  -32.4532 H   0  0  0  0  0  0  0  0  0  0  0  0
   -9.2442   20.8612  -31.1893 H   0  0  0  0  0  0  0  0  0  0  0  0
   -9.6814   21.6660  -32.7881 H   0  0  0  0  0  0  0  0  0  0  0  0
   -8.9090   20.0500  -33.8580 H   0  0  0  0  0  0  0  0  0  0  0  0
   -6.7716   19.9074  -34.2648 H   0  0  0  0  0  0  0  0  0  0  0  0
   -6.5274   20.9955  -32.8676 H   0  0  0  0  0  0  0  0  0  0  0  0
   -5.8645   18.1672  -33.1028 H   0  0  0  0  0  0  0  0  0  0  0  0
   -5.5388   19.2451  -31.7341 H   0  0  0  0  0  0  0  0  0  0  0  0
   -7.3920   17.1303  -31.7302 H   0  0  0  0  0  0  0  0  0  0  0  0
   -7.4175   18.4604  -30.5702 H   0  0  0  0  0  0  0  0  0  0  0  0
   -9.0802   18.0185  -33.0483 H   0  0  0  0  0  0  0  0  0  0  0  0
   -9.5225   18.8621  -31.5416 H   0  0  0  0  0  0  0  0  0  0  0  0
   -3.5173   22.2248  -29.4457 H   0  0  0  0  0  0  0  0  0  0  0  0
   -2.2572   20.2356  -30.2637 H   0  0  0  0  0  0  0  0  0  0  0  0
  1  2  1  0
  2  3  2  0
  3  4  1  0
  4  5  2  0
  5  6  1  0
  6  7  1  0
  7  8  2  0
  8  9  1  0
  9 10  2  0
 10 11  1  0
 11 12  1  0
 12 13  1  0
 13 14  1  0
 14 15  1  0
 15 16  1  0
 16 17  1  0
 17 18  1  0
  5 19  1  0
 19 20  2  0
 20  2  1  0
 10  6  1  0
 18 14  1  0
  1 21  1  0
  1 22  1  0
  1 23  1  0
  3 24  1  0
  4 25  1  0
 12 26  1  0
 12 27  1  0
 13 28  1  0
 13 29  1  0
 14 30  1  0
 15 31  1  0
 15 32  1  0
 16 33  1  0
 16 34  1  0
 17 35  1  0
 17 36  1  0
 18 37  1  0
 18 38  1  0
 19 39  1  0
 20 40  1  0
M  CHG  1  14   1
M  END
>  <UniqueID>  (33) 
30

>  <SMILES>  (33) 
Cc1ccc(-n2nnnc2SCC[NH+]2CCCC2)cc1

>  <Energy>  (33) 
88.07261502681739

>  <Genealogy>  (33) 
Cc1ccc(-n2nnnc2SCC[NH+]2CCCC2)cc1 (protonated)
Cc1ccc(-n2nnnc2SCC[NH+]2CCCC2)cc1 (3D coordinates assigned)
Cc1ccc(-n2nnnc2SCC[NH+]2CCCC2)cc1 (nonaromatic ring conformer: 88.07261502681739 kcal/mol)

>  <smiles>  (33) 
Cc1ccc(-n2nnnc2SCCN2CCCC2)cc1

>  <score_type>  (33) 
oracle

>  <origin>  (33) 
adgpu

>  <m_score__min__energy>  (33) 
-7.8399999999999999

>  <m_primary>  (33) 
energy

$$$$
33:0
     RDKit          3D

 32 34  0  0  0  0  0  0  0  0999 V2000
   -6.3820   18.5470  -34.2170 O   0  0  0  0  0  0  0  0  0  0  0  0
   -6.4930   19.5240  -33.4310 C   0  0  0  0  0  0  0  0  0  0  0  0
   -5.4700   20.5050  -33.2410 N   0  0  0  0  0  0  0  0  0  0  0  0
   -6.0440   21.3930  -32.2770 C   0  0  0  0  0  0  0  0  0  0  0  0
   -5.4380   22.5330  -31.7530 C   0  0  0  0  0  0  0  0  0  0  0  0
   -6.1500   23.3010  -30.8110 C   0  0  0  0  0  0  0  0  0  0  0  0
   -5.4140   24.7610  -30.1530 S   0  0  0  0  0  0  0  0  0  0  0  0
   -6.4810   25.8090  -30.0040 O   0  0  0  0  0  0  0  0  0  0  0  0
   -4.3630   25.2840  -31.0920 O   0  0  0  0  0  0  0  0  0  0  0  0
   -4.6990   24.4560  -28.5950 N   0  0  0  0  0  0  0  0  0  0  0  0
   -3.2830   24.1010  -28.7100 C   0  0  0  0  0  0  0  0  0  0  0  0
   -2.4510   24.8200  -27.6770 C   0  0  0  0  0  0  0  0  0  0  0  0
   -2.6580   24.5700  -26.3100 C   0  0  0  0  0  0  0  0  0  0  0  0
   -1.8810   25.2210  -25.3470 C   0  0  0  0  0  0  0  0  0  0  0  0
   -0.8940   26.1270  -25.7400 C   0  0  0  0  0  0  0  0  0  0  0  0
   -0.6830   26.3870  -27.0960 C   0  0  0  0  0  0  0  0  0  0  0  0
   -1.4560   25.7380  -28.0660 C   0  0  0  0  0  0  0  0  0  0  0  0
   -1.2310   26.0110  -29.4110 O   0  0  0  0  0  0  0  0  0  0  0  0
   -7.4520   22.9100  -30.4150 C   0  0  0  0  0  0  0  0  0  0  0  0
   -8.0450   21.7580  -30.9560 C   0  0  0  0  0  0  0  0  0  0  0  0
   -7.3160   21.0200  -31.8840 C   0  0  0  0  0  0  0  0  0  0  0  0
   -7.6530   19.8120  -32.6050 C   0  0  0  0  0  0  0  0  0  0  0  0
   -8.7240   19.1510  -32.5330 O   0  0  0  0  0  0  0  0  0  0  0  0
   -4.4258   22.8268  -32.0680 H   0  0  0  0  0  0  0  0  0  0  0  0
   -3.1730   23.0160  -28.5665 H   0  0  0  0  0  0  0  0  0  0  0  0
   -2.9306   24.3997  -29.7083 H   0  0  0  0  0  0  0  0  0  0  0  0
   -3.4356   23.8582  -25.9957 H   0  0  0  0  0  0  0  0  0  0  0  0
   -2.0475   25.0192  -24.2786 H   0  0  0  0  0  0  0  0  0  0  0  0
   -0.2821   26.6364  -24.9811 H   0  0  0  0  0  0  0  0  0  0  0  0
    0.0929   27.1039  -27.4026 H   0  0  0  0  0  0  0  0  0  0  0  0
   -8.0029   23.5131  -29.6782 H   0  0  0  0  0  0  0  0  0  0  0  0
   -9.0565   21.4477  -30.6551 H   0  0  0  0  0  0  0  0  0  0  0  0
  1  2  2  0
  2  3  1  0
  3  4  1  0
  4  5  2  0
  5  6  1  0
  6  7  1  0
  7  8  2  0
  7  9  2  0
  7 10  1  0
 10 11  1  0
 11 12  1  0
 12 13  2  0
 13 14  1  0
 14 15  2  0
 15 16  1  0
 16 17  2  0
 17 18  1  0
  6 19  2  0
 19 20  1  0
 20 21  2  0
 21 22  1  0
 22 23  2  0
 22  2  1  0
 21  4  1  0
 17 12  1  0
  5 24  1  0
 11 25  1  0
 11 26  1  0
 13 27  1  0
 14 28  1  0
 15 29  1  0
 16 30  1  0
 19 31  1  0
 20 32  1  0
M  CHG  3   3  -1  10  -1  18  -1
M  END
>  <UniqueID>  (34) 
31

>  <SMILES>  (34) 
O=C1[N-]c2cc(S(=O)(=O)[N-]Cc3ccccc3[O-])ccc2C1=O

>  <Energy>  (34) 
64.28325633955075

>  <Genealogy>  (34) 
O=C1[N-]c2cc(S(=O)(=O)[N-]Cc3ccccc3[O-])ccc2C1=O (protonated)
O=C1[N-]c2cc(S(=O)(=O)[N-]Cc3ccccc3[O-])ccc2C1=O (3D coordinates assigned)
O=C1[N-]c2cc(S(=O)(=O)[N-]Cc3ccccc3[O-])ccc2C1=O (nonaromatic ring conformer: 64.28325633955075 kcal/mol)

>  <smiles>  (34) 
O=C1Nc2cc(S(=O)(=O)NCc3ccccc3O)ccc2C1=O

>  <score_type>  (34) 
oracle

>  <origin>  (34) 
adgpu

>  <m_score__min__energy>  (34) 
-12.91

>  <m_primary>  (34) 
energy

$$$$
34:0
     RDKit          3D

 58 60  0  0  0  0  0  0  0  0999 V2000
   -1.6040   19.9330  -26.1370 C   0  0  0  0  0  0  0  0  0  0  0  0
   -1.2980   21.3420  -26.3730 N   0  0  0  0  0  0  0  0  0  0  0  0
   -2.0020   22.1600  -27.3370 C   0  0  0  0  0  0  0  0  0  0  0  0
   -3.3220   21.8400  -27.7220 C   0  0  0  0  0  0  0  0  0  0  0  0
   -3.9770   22.5730  -28.7120 C   0  0  0  0  0  0  0  0  0  0  0  0
   -3.3340   23.6430  -29.3510 C   0  0  0  0  0  0  0  0  0  0  0  0
   -3.9850   24.3660  -30.4720 C   0  0  0  0  0  0  0  0  0  0  0  0
   -4.1130   25.6240  -30.4130 O   0  0  0  0  0  0  0  0  0  0  0  0
   -4.4720   23.6520  -31.6190 N   0  0  0  0  0  0  0  0  0  0  0  0
   -5.7280   22.9560  -31.6580 C   0  0  0  0  0  0  0  0  0  0  0  0
   -6.9420   23.6310  -31.4420 C   0  0  0  0  0  0  0  0  0  0  0  0
   -8.1510   22.9350  -31.4800 C   0  0  0  0  0  0  0  0  0  0  0  0
   -8.1600   21.5640  -31.7430 C   0  0  0  0  0  0  0  0  0  0  0  0
   -6.9580   20.8830  -31.9840 C   0  0  0  0  0  0  0  0  0  0  0  0
   -7.0060   19.1510  -32.2980 S   0  0  0  0  0  0  0  0  0  0  0  0
   -8.4280   18.6540  -32.2530 O   0  0  0  0  0  0  0  0  0  0  0  0
   -6.2210   18.4500  -31.2190 O   0  0  0  0  0  0  0  0  0  0  0  0
   -6.3070   18.8390  -33.8750 N   0  0  0  0  0  0  0  0  0  0  0  0
   -6.3780   17.4030  -34.1970 C   0  0  0  0  0  0  0  0  0  0  0  0
   -4.9160   19.3180  -33.9300 C   0  0  0  0  0  0  0  0  0  0  0  0
   -5.7450   21.5850  -31.9530 C   0  0  0  0  0  0  0  0  0  0  0  0
   -2.0400   23.9960  -28.9420 C   0  0  0  0  0  0  0  0  0  0  0  0
   -1.3700   23.2790  -27.9400 C   0  0  0  0  0  0  0  0  0  0  0  0
    0.2370   23.8260  -27.4340 S   0  0  0  0  0  0  0  0  0  0  0  0
    1.0620   22.6140  -27.0800 O   0  0  0  0  0  0  0  0  0  0  0  0
    0.8860   24.5470  -28.5870 O   0  0  0  0  0  0  0  0  0  0  0  0
    0.0880   24.8910  -26.0440 N   0  0  0  0  0  0  0  0  0  0  0  0
    1.3830   25.0910  -25.3620 C   0  0  0  0  0  0  0  0  0  0  0  0
    1.7460   23.9170  -24.4280 C   0  0  0  0  0  0  0  0  0  0  0  0
    0.7910   22.8770  -24.4880 O   0  0  0  0  0  0  0  0  0  0  0  0
   -0.4800   23.3730  -24.1230 C   0  0  0  0  0  0  0  0  0  0  0  0
   -0.9620   24.4700  -25.0950 C   0  0  0  0  0  0  0  0  0  0  0  0
   -1.6452   19.7431  -25.0543 H   0  0  0  0  0  0  0  0  0  0  0  0
   -2.5763   19.6881  -26.5895 H   0  0  0  0  0  0  0  0  0  0  0  0
   -0.8209   19.3069  -26.5895 H   0  0  0  0  0  0  0  0  0  0  0  0
   -0.4770   21.7230  -25.8530 H   0  0  0  0  0  0  0  0  0  0  0  0
   -3.8411   21.0014  -27.2348 H   0  0  0  0  0  0  0  0  0  0  0  0
   -5.0070   22.3093  -28.9939 H   0  0  0  0  0  0  0  0  0  0  0  0
   -6.9390   24.7127  -31.2421 H   0  0  0  0  0  0  0  0  0  0  0  0
   -9.0973   23.4669  -31.3026 H   0  0  0  0  0  0  0  0  0  0  0  0
   -9.1135   21.0158  -31.7613 H   0  0  0  0  0  0  0  0  0  0  0  0
   -6.8620   19.3620  -34.5930 H   0  0  0  0  0  0  0  0  0  0  0  0
   -6.4069   16.8193  -33.2651 H   0  0  0  0  0  0  0  0  0  0  0  0
   -7.2871   17.2032  -34.7831 H   0  0  0  0  0  0  0  0  0  0  0  0
   -5.4930   17.1145  -34.7831 H   0  0  0  0  0  0  0  0  0  0  0  0
   -4.5329   19.4499  -32.9073 H   0  0  0  0  0  0  0  0  0  0  0  0
   -4.2954   18.5818  -34.4619 H   0  0  0  0  0  0  0  0  0  0  0  0
   -4.8803   20.2802  -34.4619 H   0  0  0  0  0  0  0  0  0  0  0  0
   -4.8021   21.0581  -32.1610 H   0  0  0  0  0  0  0  0  0  0  0  0
   -1.5400   24.8530  -29.4169 H   0  0  0  0  0  0  0  0  0  0  0  0
    2.1706   25.1929  -26.1231 H   0  0  0  0  0  0  0  0  0  0  0  0
    1.2990   25.9968  -24.7436 H   0  0  0  0  0  0  0  0  0  0  0  0
    2.7262   23.5164  -24.7258 H   0  0  0  0  0  0  0  0  0  0  0  0
    1.7683   24.2983  -23.3964 H   0  0  0  0  0  0  0  0  0  0  0  0
   -1.2031   22.5441  -24.1332 H   0  0  0  0  0  0  0  0  0  0  0  0
   -0.4018   23.8137  -23.1182 H   0  0  0  0  0  0  0  0  0  0  0  0
   -1.8183   24.0825  -25.6665 H   0  0  0  0  0  0  0  0  0  0  0  0
   -1.2387   25.3487  -24.4939 H   0  0  0  0  0  0  0  0  0  0  0  0
  1  2  1  0
  2  3  1  0
  3  4  2  0
  4  5  1  0
  5  6  2  0
  6  7  1  0
  7  8  2  0
  7  9  1  0
  9 10  1  0
 10 11  2  0
 11 12  1  0
 12 13  2  0
 13 14  1  0
 14 15  1  0
 15 16  2  0
 15 17  2  0
 15 18  1  0
 18 19  1  0
 18 20  1  0
 14 21  2  0
  6 22  1  0
 22 23  2  0
 23 24  1  0
 24 25  2  0
 24 26  2  0
 24 27  1  0
 27 28  1  0
 28 29  1  0
 29 30  1  0
 30 31  1  0
 31 32  1  0
 23  3  1  0
 32 27  1  0
 21 10  1  0
  1 33  1  0
  1 34  1  0
  1 35  1  0
  2 36  1  0
  4 37  1  0
  5 38  1  0
 11 39  1  0
 12 40  1  0
 13 41  1  0
 18 42  1  0
 19 43  1  0
 19 44  1  0
 19 45  1  0
 20 46  1  0
 20 47  1  0
 20 48  1  0
 21 49  1  0
 22 50  1  0
 28 51  1  0
 28 52  1  0
 29 53  1  0
 29 54  1  0
 31 55  1  0
 31 56  1  0
 32 57  1  0
 32 58  1  0
M  CHG  2   9  -1  18   1
M  END
>  <UniqueID>  (35) 
32

>  <SMILES>  (35) 
CNc1ccc(C(=O)[N-]c2cccc(S(=O)(=O)[NH+](C)C)c2)cc1S(=O)(=O)N1CCOCC1

>  <Energy>  (35) 
78.36299438285403

>  <Genealogy>  (35) 
CNc1ccc(C(=O)[N-]c2cccc(S(=O)(=O)[NH+](C)C)c2)cc1S(=O)(=O)N1CCOCC1 (protonated)
CNc1ccc(C(=O)[N-]c2cccc(S(=O)(=O)[NH+](C)C)c2)cc1S(=O)(=O)N1CCOCC1 (3D coordinates assigned)
CNc1ccc(C(=O)[N-]c2cccc(S(=O)(=O)[NH+](C)C)c2)cc1S(=O)(=O)N1CCOCC1 (nonaromatic ring conformer: 78.36299438285403 kcal/mol)

>  <smiles>  (35) 
CNc1ccc(C(=O)Nc2cccc(S(=O)(=O)N(C)C)c2)cc1S(=O)(=O)N1CCOCC1

>  <score_type>  (35) 
oracle

>  <origin>  (35) 
adgpu

>  <m_score__min__energy>  (35) 
-11.25

>  <m_primary>  (35) 
energy

$$$$
35:0
     RDKit          3D

 60 63  0  0  0  0  0  0  0  0999 V2000
    0.8450   26.9900  -23.8530 C   0  0  0  0  0  0  0  0  0  0  0  0
    2.0730   26.5920  -24.5680 N   0  0  0  0  0  0  0  0  0  0  0  0
    1.8930   26.6300  -26.0430 C   0  0  0  0  0  0  0  0  0  0  0  0
    1.9150   25.2460  -26.7160 C   0  0  0  0  0  0  0  0  0  0  0  0
    1.2700   24.2480  -25.8540 N   0  0  0  0  0  0  0  0  0  0  0  0
    0.3110   23.3070  -26.3750 C   0  0  0  0  0  0  0  0  0  0  0  0
    0.2170   22.1610  -25.8590 O   0  0  0  0  0  0  0  0  0  0  0  0
   -0.6200   23.6840  -27.4630 C   0  0  0  0  0  0  0  0  0  0  0  0
   -1.0570   25.0160  -27.5450 C   0  0  0  0  0  0  0  0  0  0  0  0
   -1.9890   25.3980  -28.5120 C   0  0  0  0  0  0  0  0  0  0  0  0
   -2.4880   24.4660  -29.4260 C   0  0  0  0  0  0  0  0  0  0  0  0
   -3.4320   24.9090  -30.4100 N   0  0  0  0  0  0  0  0  0  0  0  0
   -5.1520   24.6970  -30.3260 S   0  0  0  0  0  0  0  0  0  0  0  0
   -5.6390   24.9360  -28.9240 O   0  0  0  0  0  0  0  0  0  0  0  0
   -5.8110   25.7010  -31.2280 O   0  0  0  0  0  0  0  0  0  0  0  0
   -5.5690   23.0780  -30.8800 C   0  0  0  0  0  0  0  0  0  0  0  0
   -4.5600   22.1530  -31.2340 C   0  0  0  0  0  0  0  0  0  0  0  0
   -4.9000   20.8910  -31.7450 C   0  0  0  0  0  0  0  0  0  0  0  0
   -6.2520   20.5620  -31.8790 C   0  0  0  0  0  0  0  0  0  0  0  0
   -7.2400   21.4540  -31.5040 C   0  0  0  0  0  0  0  0  0  0  0  0
   -6.9250   22.7240  -31.0130 C   0  0  0  0  0  0  0  0  0  0  0  0
   -8.5400   20.9230  -31.7140 N   0  0  0  0  0  0  0  0  0  0  0  0
   -9.7860   21.6850  -31.7600 C   0  0  0  0  0  0  0  0  0  0  0  0
   -8.3200   19.6420  -32.3050 C   0  0  0  0  0  0  0  0  0  0  0  0
   -9.2590   18.8910  -32.6850 O   0  0  0  0  0  0  0  0  0  0  0  0
   -6.8560   19.3000  -32.4350 C   0  0  0  0  0  0  0  0  0  0  0  0
   -6.4930   18.0800  -31.5750 C   0  0  0  0  0  0  0  0  0  0  0  0
   -6.4690   19.0960  -33.9080 C   0  0  0  0  0  0  0  0  0  0  0  0
   -2.0540   23.1340  -29.3500 C   0  0  0  0  0  0  0  0  0  0  0  0
   -1.1300   22.7330  -28.3780 C   0  0  0  0  0  0  0  0  0  0  0  0
   -0.7270   21.3940  -28.3650 O   0  0  0  0  0  0  0  0  0  0  0  0
    1.7180   24.1200  -24.4640 C   0  0  0  0  0  0  0  0  0  0  0  0
    2.6090   25.3070  -24.0620 C   0  0  0  0  0  0  0  0  0  0  0  0
    1.0179   26.9340  -22.7681 H   0  0  0  0  0  0  0  0  0  0  0  0
    0.5778   28.0207  -24.1290 H   0  0  0  0  0  0  0  0  0  0  0  0
    0.0240   26.3120  -24.1290 H   0  0  0  0  0  0  0  0  0  0  0  0
    0.9246   27.1042  -26.2605 H   0  0  0  0  0  0  0  0  0  0  0  0
    2.7444   27.1942  -26.4514 H   0  0  0  0  0  0  0  0  0  0  0  0
    1.3766   25.3000  -27.6737 H   0  0  0  0  0  0  0  0  0  0  0  0
    2.9602   24.9485  -26.8864 H   0  0  0  0  0  0  0  0  0  0  0  0
   -0.6620   25.7642  -26.8420 H   0  0  0  0  0  0  0  0  0  0  0  0
   -2.3335   26.4418  -28.5548 H   0  0  0  0  0  0  0  0  0  0  0  0
   -3.5015   22.4244  -31.1080 H   0  0  0  0  0  0  0  0  0  0  0  0
   -4.1174   20.1743  -32.0346 H   0  0  0  0  0  0  0  0  0  0  0  0
   -7.7200   23.4321  -30.7363 H   0  0  0  0  0  0  0  0  0  0  0  0
  -10.1265   21.8932  -30.7350 H   0  0  0  0  0  0  0  0  0  0  0  0
   -9.6161   22.6339  -32.2898 H   0  0  0  0  0  0  0  0  0  0  0  0
  -10.5533   21.1015  -32.2898 H   0  0  0  0  0  0  0  0  0  0  0  0
   -6.5719   18.3453  -30.5104 H   0  0  0  0  0  0  0  0  0  0  0  0
   -7.1844   17.2544  -31.7994 H   0  0  0  0  0  0  0  0  0  0  0  0
   -5.4627   17.7667  -31.7994 H   0  0  0  0  0  0  0  0  0  0  0  0
   -5.4972   18.5837  -33.9642 H   0  0  0  0  0  0  0  0  0  0  0  0
   -7.2352   18.4846  -34.4071 H   0  0  0  0  0  0  0  0  0  0  0  0
   -6.3976   20.0736  -34.4071 H   0  0  0  0  0  0  0  0  0  0  0  0
   -2.4453   22.3945  -30.0642 H   0  0  0  0  0  0  0  0  0  0  0  0
   -0.2880   20.9570  -27.5640 H   0  0  0  0  0  0  0  0  0  0  0  0
    0.8387   24.0901  -23.8037 H   0  0  0  0  0  0  0  0  0  0  0  0
    2.3031   23.1935  -24.3677 H   0  0  0  0  0  0  0  0  0  0  0  0
    2.6676   25.3529  -22.9645 H   0  0  0  0  0  0  0  0  0  0  0  0
    3.6043   25.1532  -24.5044 H   0  0  0  0  0  0  0  0  0  0  0  0
  1  2  1  0
  2  3  1  0
  3  4  1  0
  4  5  1  0
  5  6  1  0
  6  7  2  0
  6  8  1  0
  8  9  2  0
  9 10  1  0
 10 11  2  0
 11 12  1  0
 12 13  1  0
 13 14  2  0
 13 15  2  0
 13 16  1  0
 16 17  2  0
 17 18  1  0
 18 19  2  0
 19 20  1  0
 20 21  2  0
 20 22  1  0
 22 23  1  0
 22 24  1  0
 24 25  2  0
 24 26  1  0
 26 27  1  0
 26 28  1  0
 11 29  1  0
 29 30  2  0
 30 31  1  0
  5 32  1  0
 32 33  1  0
 33  2  1  0
 30  8  1  0
 21 16  1  0
 26 19  1  0
  1 34  1  0
  1 35  1  0
  1 36  1  0
  3 37  1  0
  3 38  1  0
  4 39  1  0
  4 40  1  0
  9 41  1  0
 10 42  1  0
 17 43  1  0
 18 44  1  0
 21 45  1  0
 23 46  1  0
 23 47  1  0
 23 48  1  0
 27 49  1  0
 27 50  1  0
 27 51  1  0
 28 52  1  0
 28 53  1  0
 28 54  1  0
 29 55  1  0
 31 56  1  0
 32 57  1  0
 32 58  1  0
 33 59  1  0
 33 60  1  0
M  CHG  1  12  -1
M  END
>  <UniqueID>  (36) 
33

>  <SMILES>  (36) 
CN1CCN(C(=O)c2ccc([N-]S(=O)(=O)c3ccc4c(c3)N(C)C(=O)C4(C)C)cc2O)CC1

>  <Energy>  (36) 
96.3241755473073

>  <Genealogy>  (36) 
CN1CCN(C(=O)c2ccc([N-]S(=O)(=O)c3ccc4c(c3)N(C)C(=O)C4(C)C)cc2O)CC1 (protonated)
CN1CCN(C(=O)c2ccc([N-]S(=O)(=O)c3ccc4c(c3)N(C)C(=O)C4(C)C)cc2O)CC1 (3D coordinates assigned)
CN1CCN(C(=O)c2ccc([N-]S(=O)(=O)c3ccc4c(c3)N(C)C(=O)C4(C)C)cc2O)CC1 (nonaromatic ring conformer: 96.3241755473073 kcal/mol)

>  <smiles>  (36) 
CN1CCN(C(=O)c2ccc(NS(=O)(=O)c3ccc4c(c3)N(C)C(=O)C4(C)C)cc2O)CC1

>  <score_type>  (36) 
oracle

>  <origin>  (36) 
adgpu

>  <m_score__min__energy>  (36) 
-11.380000000000001

>  <m_primary>  (36) 
energy

$$$$
36:0
     RDKit          3D

 58 62  0  0  0  0  0  0  0  0999 V2000
   -3.2040   22.2870  -31.3200 C   0  0  0  0  0  0  0  0  0  0  0  0
   -4.5380   22.9560  -31.1290 C   0  0  0  0  0  0  0  0  0  0  0  0
   -5.7090   22.2200  -31.3690 C   0  0  0  0  0  0  0  0  0  0  0  0
   -6.9710   22.8120  -31.2260 C   0  0  0  0  0  0  0  0  0  0  0  0
   -8.4360   21.8750  -31.5430 S   0  0  0  0  0  0  0  0  0  0  0  0
   -9.4000   22.7230  -32.3260 O   0  0  0  0  0  0  0  0  0  0  0  0
   -9.0850   21.5230  -30.2340 O   0  0  0  0  0  0  0  0  0  0  0  0
   -8.1190   20.4050  -32.4340 N   0  0  0  0  0  0  0  0  0  0  0  0
   -6.9930   20.5500  -33.3540 C   0  0  0  0  0  0  0  0  0  0  0  0
   -6.4310   19.1540  -33.5670 C   0  0  0  0  0  0  0  0  0  0  0  0
   -6.9350   18.3330  -32.3890 C   0  0  0  0  0  0  0  0  0  0  0  0
   -7.7650   19.2940  -31.5540 C   0  0  0  0  0  0  0  0  0  0  0  0
   -7.0620   24.1590  -30.8550 C   0  0  0  0  0  0  0  0  0  0  0  0
   -5.9070   24.8960  -30.5940 C   0  0  0  0  0  0  0  0  0  0  0  0
   -4.6430   24.3000  -30.6940 C   0  0  0  0  0  0  0  0  0  0  0  0
   -3.4870   25.0940  -30.3980 N   0  0  0  0  0  0  0  0  0  0  0  0
   -2.7130   24.9000  -29.3730 C   0  0  0  0  0  0  0  0  0  0  0  0
   -2.9480   23.9450  -28.4310 N   0  0  0  0  0  0  0  0  0  0  0  0
   -1.9250   24.1250  -27.5840 C   0  0  0  0  0  0  0  0  0  0  0  0
   -1.6490   23.4150  -26.4190 C   0  0  0  0  0  0  0  0  0  0  0  0
   -0.5100   23.7870  -25.6810 C   0  0  0  0  0  0  0  0  0  0  0  0
    0.3180   24.8490  -26.1220 C   0  0  0  0  0  0  0  0  0  0  0  0
    1.7370   25.3280  -25.1950 S   0  0  0  0  0  0  0  0  0  0  0  0
    2.2400   24.1660  -24.3820 O   0  0  0  0  0  0  0  0  0  0  0  0
    2.8120   25.7500  -26.1570 O   0  0  0  0  0  0  0  0  0  0  0  0
    1.3230   26.6640  -24.1430 N   0  0  0  0  0  0  0  0  0  0  0  0
    1.1720   27.9010  -24.9170 C   0  0  0  0  0  0  0  0  0  0  0  0
   -0.2990   28.0610  -25.2730 C   0  0  0  0  0  0  0  0  0  0  0  0
   -1.0470   27.1030  -24.3660 C   0  0  0  0  0  0  0  0  0  0  0  0
    0.0200   26.4350  -23.5100 C   0  0  0  0  0  0  0  0  0  0  0  0
    0.0030   25.5420  -27.3090 C   0  0  0  0  0  0  0  0  0  0  0  0
   -1.1310   25.1450  -28.0120 C   0  0  0  0  0  0  0  0  0  0  0  0
   -1.6120   25.6630  -29.1520 N   0  0  0  0  0  0  0  0  0  0  0  0
   -2.7612   22.0649  -30.3378 H   0  0  0  0  0  0  0  0  0  0  0  0
   -3.3404   21.3506  -31.8809 H   0  0  0  0  0  0  0  0  0  0  0  0
   -2.5351   22.9563  -31.8809 H   0  0  0  0  0  0  0  0  0  0  0  0
   -5.6350   21.1655  -31.6731 H   0  0  0  0  0  0  0  0  0  0  0  0
   -7.3350   20.9725  -34.3103 H   0  0  0  0  0  0  0  0  0  0  0  0
   -6.2299   21.2294  -32.9466 H   0  0  0  0  0  0  0  0  0  0  0  0
   -6.7965   18.7322  -34.5149 H   0  0  0  0  0  0  0  0  0  0  0  0
   -5.3324   19.1588  -33.6229 H   0  0  0  0  0  0  0  0  0  0  0  0
   -7.5545   17.4949  -32.7408 H   0  0  0  0  0  0  0  0  0  0  0  0
   -6.1076   17.8971  -31.8099 H   0  0  0  0  0  0  0  0  0  0  0  0
   -8.6739   18.7934  -31.1888 H   0  0  0  0  0  0  0  0  0  0  0  0
   -7.2047   19.6446  -30.6747 H   0  0  0  0  0  0  0  0  0  0  0  0
   -8.0485   24.6380  -30.7690 H   0  0  0  0  0  0  0  0  0  0  0  0
   -5.9892   25.9547  -30.3071 H   0  0  0  0  0  0  0  0  0  0  0  0
   -2.2986   22.5918  -26.0868 H   0  0  0  0  0  0  0  0  0  0  0  0
   -0.2605   23.2491  -24.7545 H   0  0  0  0  0  0  0  0  0  0  0  0
    1.5054   28.7597  -24.3158 H   0  0  0  0  0  0  0  0  0  0  0  0
    1.7819   27.8547  -25.8313 H   0  0  0  0  0  0  0  0  0  0  0  0
   -0.6270   29.0953  -25.0924 H   0  0  0  0  0  0  0  0  0  0  0  0
   -0.4857   27.8441  -26.3351 H   0  0  0  0  0  0  0  0  0  0  0  0
   -1.7602   27.6511  -23.7327 H   0  0  0  0  0  0  0  0  0  0  0  0
   -1.6282   26.3670  -24.9409 H   0  0  0  0  0  0  0  0  0  0  0  0
    0.0145   26.8711  -22.5002 H   0  0  0  0  0  0  0  0  0  0  0  0
   -0.1786   25.3562  -23.4274 H   0  0  0  0  0  0  0  0  0  0  0  0
    0.6329   26.3694  -27.6678 H   0  0  0  0  0  0  0  0  0  0  0  0
  1  2  1  0
  2  3  2  0
  3  4  1  0
  4  5  1  0
  5  6  2  0
  5  7  2  0
  5  8  1  0
  8  9  1  0
  9 10  1  0
 10 11  1  0
 11 12  1  0
  4 13  2  0
 13 14  1  0
 14 15  2  0
 15 16  1  0
 16 17  2  3
 17 18  1  0
 18 19  1  0
 19 20  2  0
 20 21  1  0
 21 22  2  0
 22 23  1  0
 23 24  2  0
 23 25  2  0
 23 26  1  0
 26 27  1  0
 27 28  1  0
 28 29  1  0
 29 30  1  0
 22 31  1  0
 31 32  2  0
 32 33  1  0
 15  2  1  0
 33 17  1  0
 12  8  1  0
 32 19  1  0
 30 26  1  0
  1 34  1  0
  1 35  1  0
  1 36  1  0
  3 37  1  0
  9 38  1  0
  9 39  1  0
 10 40  1  0
 10 41  1  0
 11 42  1  0
 11 43  1  0
 12 44  1  0
 12 45  1  0
 13 46  1  0
 14 47  1  0
 20 48  1  0
 21 49  1  0
 27 50  1  0
 27 51  1  0
 28 52  1  0
 28 53  1  0
 29 54  1  0
 29 55  1  0
 30 56  1  0
 30 57  1  0
 31 58  1  0
M  CHG  2  18  -1  33  -1
M  END
>  <UniqueID>  (37) 
34

>  <SMILES>  (37) 
Cc1cc(S(=O)(=O)N2CCCC2)ccc1N=c1[n-]c2ccc(S(=O)(=O)N3CCCC3)cc2[n-]1

>  <Energy>  (37) 
106.68581146655139

>  <Genealogy>  (37) 
Cc1cc(S(=O)(=O)N2CCCC2)ccc1N=c1[n-]c2ccc(S(=O)(=O)N3CCCC3)cc2[n-]1 (protonated)
Cc1cc(S(=O)(=O)N2CCCC2)ccc1N=c1[n-]c2ccc(S(=O)(=O)N3CCCC3)cc2[n-]1 (3D coordinates assigned)
Cc1cc(S(=O)(=O)N2CCCC2)ccc1N=c1[n-]c2ccc(S(=O)(=O)N3CCCC3)cc2[n-]1 (nonaromatic ring conformer: 106.68581146655139 kcal/mol)

>  <smiles>  (37) 
Cc1cc(S(=O)(=O)N2CCCC2)ccc1N=c1[nH]c2ccc(S(=O)(=O)N3CCCC3)cc2[nH]1

>  <score_type>  (37) 
oracle

>  <origin>  (37) 
adgpu

>  <m_score__min__energy>  (37) 
-13.710000000000001

>  <m_primary>  (37) 
energy

$$$$
37:0
     RDKit          3D

 71 75  0  0  0  0  0  0  0  0999 V2000
   -4.5400   13.8660  -35.6740 O   0  0  0  0  0  0  0  0  0  0  0  0
   -5.2150   14.3110  -34.4060 S   0  0  0  0  0  0  0  0  0  0  0  0
   -6.7010   14.2390  -34.6220 O   0  0  0  0  0  0  0  0  0  0  0  0
   -4.7620   15.9850  -34.0700 C   0  0  0  0  0  0  0  0  0  0  0  0
   -3.4350   16.4060  -34.2350 C   0  0  0  0  0  0  0  0  0  0  0  0
   -3.0790   17.7310  -33.9730 C   0  0  0  0  0  0  0  0  0  0  0  0
   -4.0450   18.6490  -33.5400 C   0  0  0  0  0  0  0  0  0  0  0  0
   -3.5870   20.3020  -33.1470 S   0  0  0  0  0  0  0  0  0  0  0  0
   -4.8230   21.1500  -33.0280 O   0  0  0  0  0  0  0  0  0  0  0  0
   -2.7350   20.8760  -34.2440 O   0  0  0  0  0  0  0  0  0  0  0  0
   -2.7090   20.3310  -31.6480 N   0  0  0  0  0  0  0  0  0  0  0  0
   -3.3660   20.7740  -30.4140 C   0  0  0  0  0  0  0  0  0  0  0  0
   -2.9120   22.1630  -30.0480 C   0  0  0  0  0  0  0  0  0  0  0  0
   -1.7520   22.3540  -29.2790 C   0  0  0  0  0  0  0  0  0  0  0  0
   -1.3520   23.6400  -28.9120 C   0  0  0  0  0  0  0  0  0  0  0  0
   -2.1020   24.7510  -29.3100 C   0  0  0  0  0  0  0  0  0  0  0  0
   -1.6880   26.0260  -28.9410 O   0  0  0  0  0  0  0  0  0  0  0  0
   -3.2620   24.5720  -30.0810 C   0  0  0  0  0  0  0  0  0  0  0  0
   -4.0310   25.6620  -30.4900 O   0  0  0  0  0  0  0  0  0  0  0  0
   -3.6580   23.2820  -30.4500 C   0  0  0  0  0  0  0  0  0  0  0  0
   -1.3440   19.8940  -31.6230 C   0  0  0  0  0  0  0  0  0  0  0  0
   -0.5820   19.9020  -32.7950 C   0  0  0  0  0  0  0  0  0  0  0  0
    0.7500   19.4870  -32.7670 C   0  0  0  0  0  0  0  0  0  0  0  0
    1.3280   19.0500  -31.5710 C   0  0  0  0  0  0  0  0  0  0  0  0
    2.6630   18.6640  -31.5770 O   0  0  0  0  0  0  0  0  0  0  0  0
    0.5650   19.0140  -30.3860 C   0  0  0  0  0  0  0  0  0  0  0  0
    1.2820   18.4480  -28.8590 S   0  0  0  0  0  0  0  0  0  0  0  0
    2.6920   18.9670  -28.7730 O   0  0  0  0  0  0  0  0  0  0  0  0
    1.3310   16.9460  -28.8660 O   0  0  0  0  0  0  0  0  0  0  0  0
    0.3960   18.9190  -27.4220 N   0  0  0  0  0  0  0  0  0  0  0  0
   -0.7830   18.0810  -27.1680 C   0  0  0  0  0  0  0  0  0  0  0  0
   -1.9890   18.9950  -27.0180 C   0  0  0  0  0  0  0  0  0  0  0  0
   -1.4150   20.3820  -26.8300 C   0  0  0  0  0  0  0  0  0  0  0  0
   -0.0300   20.3220  -27.4490 C   0  0  0  0  0  0  0  0  0  0  0  0
   -0.7640   19.4650  -30.4220 C   0  0  0  0  0  0  0  0  0  0  0  0
   -5.3760   18.2350  -33.3980 C   0  0  0  0  0  0  0  0  0  0  0  0
   -5.7330   16.9100  -33.6630 C   0  0  0  0  0  0  0  0  0  0  0  0
   -4.7800   13.2160  -33.1150 N   0  0  0  0  0  0  0  0  0  0  0  0
   -4.5680   13.9170  -31.8510 C   0  0  0  0  0  0  0  0  0  0  0  0
   -4.7510   12.8720  -30.7680 C   0  0  0  0  0  0  0  0  0  0  0  0
   -5.6910   11.8410  -31.3750 C   0  0  0  0  0  0  0  0  0  0  0  0
   -5.8270   12.2300  -32.8440 C   0  0  0  0  0  0  0  0  0  0  0  0
   -2.6711   15.6900  -34.5722 H   0  0  0  0  0  0  0  0  0  0  0  0
   -2.0364   18.0550  -34.1071 H   0  0  0  0  0  0  0  0  0  0  0  0
   -4.4557   20.7764  -30.5641 H   0  0  0  0  0  0  0  0  0  0  0  0
   -3.0987   20.0846  -29.5996 H   0  0  0  0  0  0  0  0  0  0  0  0
   -1.1554   21.4851  -28.9642 H   0  0  0  0  0  0  0  0  0  0  0  0
   -0.4436   23.7799  -28.3076 H   0  0  0  0  0  0  0  0  0  0  0  0
   -3.8650   26.5970  -30.1380 H   0  0  0  0  0  0  0  0  0  0  0  0
   -4.5623   23.1433  -31.0608 H   0  0  0  0  0  0  0  0  0  0  0  0
   -1.0332   20.2360  -33.7410 H   0  0  0  0  0  0  0  0  0  0  0  0
    1.3481   19.5037  -33.6900 H   0  0  0  0  0  0  0  0  0  0  0  0
   -0.9397   17.3924  -28.0114 H   0  0  0  0  0  0  0  0  0  0  0  0
   -0.6386   17.4874  -26.2532 H   0  0  0  0  0  0  0  0  0  0  0  0
   -2.6168   18.9565  -27.9205 H   0  0  0  0  0  0  0  0  0  0  0  0
   -2.6282   18.6968  -26.1739 H   0  0  0  0  0  0  0  0  0  0  0  0
   -2.0361   21.1303  -27.3442 H   0  0  0  0  0  0  0  0  0  0  0  0
   -1.3813   20.6748  -25.7702 H   0  0  0  0  0  0  0  0  0  0  0  0
   -0.0648   20.6855  -28.4866 H   0  0  0  0  0  0  0  0  0  0  0  0
    0.6752   20.9553  -26.8908 H   0  0  0  0  0  0  0  0  0  0  0  0
   -1.3572   19.4818  -29.4958 H   0  0  0  0  0  0  0  0  0  0  0  0
   -6.1427   18.9554  -33.0768 H   0  0  0  0  0  0  0  0  0  0  0  0
   -6.7801   16.5920  -33.5517 H   0  0  0  0  0  0  0  0  0  0  0  0
   -3.5523   14.3373  -31.8110 H   0  0  0  0  0  0  0  0  0  0  0  0
   -5.2689   14.7559  -31.7289 H   0  0  0  0  0  0  0  0  0  0  0  0
   -3.7867   12.4110  -30.5078 H   0  0  0  0  0  0  0  0  0  0  0  0
   -5.1529   13.3034  -29.8394 H   0  0  0  0  0  0  0  0  0  0  0  0
   -5.2655   10.8309  -31.2824 H   0  0  0  0  0  0  0  0  0  0  0  0
   -6.6653   11.8258  -30.8645 H   0  0  0  0  0  0  0  0  0  0  0  0
   -5.6909   11.3462  -33.4847 H   0  0  0  0  0  0  0  0  0  0  0  0
   -6.8246   12.6433  -33.0538 H   0  0  0  0  0  0  0  0  0  0  0  0
  1  2  2  0
  2  3  2  0
  2  4  1  0
  4  5  2  0
  5  6  1  0
  6  7  2  0
  7  8  1  0
  8  9  2  0
  8 10  2  0
  8 11  1  0
 11 12  1  0
 12 13  1  0
 13 14  2  0
 14 15  1  0
 15 16  2  0
 16 17  1  0
 16 18  1  0
 18 19  1  0
 18 20  2  0
 11 21  1  0
 21 22  2  0
 22 23  1  0
 23 24  2  0
 24 25  1  0
 24 26  1  0
 26 27  1  0
 27 28  2  0
 27 29  2  0
 27 30  1  0
 30 31  1  0
 31 32  1  0
 32 33  1  0
 33 34  1  0
 26 35  2  0
  7 36  1  0
 36 37  2  0
  2 38  1  0
 38 39  1  0
 39 40  1  0
 40 41  1  0
 41 42  1  0
 37  4  1  0
 42 38  1  0
 20 13  1  0
 35 21  1  0
 34 30  1  0
  5 43  1  0
  6 44  1  0
 12 45  1  0
 12 46  1  0
 14 47  1  0
 15 48  1  0
 19 49  1  0
 20 50  1  0
 22 51  1  0
 23 52  1  0
 31 53  1  0
 31 54  1  0
 32 55  1  0
 32 56  1  0
 33 57  1  0
 33 58  1  0
 34 59  1  0
 34 60  1  0
 35 61  1  0
 36 62  1  0
 37 63  1  0
 39 64  1  0
 39 65  1  0
 40 66  1  0
 40 67  1  0
 41 68  1  0
 41 69  1  0
 42 70  1  0
 42 71  1  0
M  CHG  2  17  -1  25  -1
M  END
>  <UniqueID>  (38) 
35

>  <SMILES>  (38) 
O=S(=O)(c1ccc(S(=O)(=O)N(Cc2ccc([O-])c(O)c2)c2ccc([O-])c(S(=O)(=O)N3CCCC3)c2)cc1)N1CCCC1

>  <Energy>  (38) 
81.17974182968291

>  <Genealogy>  (38) 
O=S(=O)(c1ccc(S(=O)(=O)N(Cc2ccc([O-])c(O)c2)c2ccc([O-])c(S(=O)(=O)N3CCCC3)c2)cc1)N1CCCC1 (protonated)
O=S(=O)(c1ccc(S(=O)(=O)N(Cc2ccc([O-])c(O)c2)c2ccc([O-])c(S(=O)(=O)N3CCCC3)c2)cc1)N1CCCC1 (3D coordinates assigned)
O=S(=O)(c1ccc(S(=O)(=O)N(Cc2ccc([O-])c(O)c2)c2ccc([O-])c(S(=O)(=O)N3CCCC3)c2)cc1)N1CCCC1 (nonaromatic ring conformer: 81.17974182968291 kcal/mol)

>  <smiles>  (38) 
O=S(=O)(c1ccc(S(=O)(=O)N(Cc2ccc(O)c(O)c2)c2ccc(O)c(S(=O)(=O)N3CCCC3)c2)cc1)N1CCCC1

>  <score_type>  (38) 
oracle

>  <origin>  (38) 
adgpu

>  <m_score__min__energy>  (38) 
-14.85

>  <m_primary>  (38) 
energy

$$$$
38:0
     RDKit          3D

 53 57  0  0  0  0  0  0  0  0999 V2000
   -6.1130   25.6280  -30.0370 C   0  0  0  0  0  0  0  0  0  0  0  0
   -5.1450   24.7150  -30.7770 C   0  0  0  0  0  0  0  0  0  0  0  0
   -3.8700   25.3080  -30.8010 O   0  0  0  0  0  0  0  0  0  0  0  0
   -3.2760   24.9660  -29.6280 N   0  0  0  0  0  0  0  0  0  0  0  0
   -2.1490   24.0870  -29.5980 C   0  0  0  0  0  0  0  0  0  0  0  0
   -1.1050   24.4430  -28.9850 O   0  0  0  0  0  0  0  0  0  0  0  0
   -2.1990   22.7720  -30.2740 C   0  0  0  0  0  0  0  0  0  0  0  0
   -2.6730   22.6660  -31.5930 C   0  0  0  0  0  0  0  0  0  0  0  0
   -2.6430   21.4390  -32.2610 C   0  0  0  0  0  0  0  0  0  0  0  0
   -2.1520   20.2980  -31.6130 C   0  0  0  0  0  0  0  0  0  0  0  0
   -2.0360   19.0350  -32.3480 C   0  0  0  0  0  0  0  0  0  0  0  0
   -0.7910   18.4990  -32.4750 N   0  0  0  0  0  0  0  0  0  0  0  0
   -0.5670   17.3670  -33.1860 C   0  0  0  0  0  0  0  0  0  0  0  0
    1.0980   16.7410  -33.3700 S   0  0  0  0  0  0  0  0  0  0  0  0
    1.8200   18.0680  -32.3550 C   0  0  0  0  0  0  0  0  0  0  0  0
   -1.5960   16.7290  -33.7960 N   0  0  0  0  0  0  0  0  0  0  0  0
   -2.8670   17.2010  -33.7090 C   0  0  0  0  0  0  0  0  0  0  0  0
   -3.8790   16.5320  -34.3490 N   0  0  0  0  0  0  0  0  0  0  0  0
   -5.1690   16.9790  -34.3190 C   0  0  0  0  0  0  0  0  0  0  0  0
   -6.0800   16.3530  -34.9220 O   0  0  0  0  0  0  0  0  0  0  0  0
   -5.4500   18.1380  -33.6080 C   0  0  0  0  0  0  0  0  0  0  0  0
   -6.6400   18.7460  -33.4770 N   0  0  0  0  0  0  0  0  0  0  0  0
   -6.4400   19.8240  -32.7270 N   0  0  0  0  0  0  0  0  0  0  0  0
   -7.4880   20.7640  -32.4060 C   0  0  0  0  0  0  0  0  0  0  0  0
   -7.1730   22.1190  -32.1910 C   0  0  0  0  0  0  0  0  0  0  0  0
   -8.1690   23.0370  -31.8450 C   0  0  0  0  0  0  0  0  0  0  0  0
   -9.4930   22.6160  -31.7020 C   0  0  0  0  0  0  0  0  0  0  0  0
   -9.8270   21.2790  -31.9240 C   0  0  0  0  0  0  0  0  0  0  0  0
   -8.8350   20.3560  -32.2720 C   0  0  0  0  0  0  0  0  0  0  0  0
   -5.1290   19.9070  -32.3840 C   0  0  0  0  0  0  0  0  0  0  0  0
   -4.4700   18.8280  -32.9480 C   0  0  0  0  0  0  0  0  0  0  0  0
   -3.1300   18.3910  -32.9730 C   0  0  0  0  0  0  0  0  0  0  0  0
   -1.6820   20.3930  -30.2960 C   0  0  0  0  0  0  0  0  0  0  0  0
   -1.7080   21.6210  -29.6290 C   0  0  0  0  0  0  0  0  0  0  0  0
   -5.9794   25.5020  -28.9524 H   0  0  0  0  0  0  0  0  0  0  0  0
   -5.9132   26.6742  -30.3120 H   0  0  0  0  0  0  0  0  0  0  0  0
   -7.1457   25.3674  -30.3120 H   0  0  0  0  0  0  0  0  0  0  0  0
   -5.0889   23.7447  -30.2618 H   0  0  0  0  0  0  0  0  0  0  0  0
   -5.4987   24.5620  -31.8073 H   0  0  0  0  0  0  0  0  0  0  0  0
   -3.0706   23.5557  -32.1033 H   0  0  0  0  0  0  0  0  0  0  0  0
   -3.0054   21.3689  -33.2972 H   0  0  0  0  0  0  0  0  0  0  0  0
    1.6890   17.8273  -31.2897 H   0  0  0  0  0  0  0  0  0  0  0  0
    2.8926   18.1601  -32.5809 H   0  0  0  0  0  0  0  0  0  0  0  0
    1.3147   19.0186  -32.5809 H   0  0  0  0  0  0  0  0  0  0  0  0
   -3.6560   15.6600  -34.8840 H   0  0  0  0  0  0  0  0  0  0  0  0
   -6.1322   22.4591  -32.2963 H   0  0  0  0  0  0  0  0  0  0  0  0
   -7.9092   24.0938  -31.6849 H   0  0  0  0  0  0  0  0  0  0  0  0
  -10.2720   23.3375  -31.4146 H   0  0  0  0  0  0  0  0  0  0  0  0
  -10.8721   20.9505  -31.8251 H   0  0  0  0  0  0  0  0  0  0  0  0
   -9.1054   19.3035  -32.4429 H   0  0  0  0  0  0  0  0  0  0  0  0
   -4.6708   20.6935  -31.7664 H   0  0  0  0  0  0  0  0  0  0  0  0
   -1.2920   19.4996  -29.7864 H   0  0  0  0  0  0  0  0  0  0  0  0
   -1.3426   21.6885  -28.5937 H   0  0  0  0  0  0  0  0  0  0  0  0
  1  2  1  0
  2  3  1  0
  3  4  1  0
  4  5  1  0
  5  6  2  0
  5  7  1  0
  7  8  2  0
  8  9  1  0
  9 10  2  0
 10 11  1  0
 11 12  2  0
 12 13  1  0
 13 14  1  0
 14 15  1  0
 13 16  2  0
 16 17  1  0
 17 18  1  0
 18 19  1  0
 19 20  2  0
 19 21  1  0
 21 22  2  0
 22 23  1  0
 23 24  1  0
 24 25  2  0
 25 26  1  0
 26 27  2  0
 27 28  1  0
 28 29  2  0
 23 30  1  0
 30 31  2  0
 31 32  1  0
 10 33  1  0
 33 34  2  0
 34  7  1  0
 32 11  1  0
 32 17  2  0
 31 21  1  0
 29 24  1  0
  1 35  1  0
  1 36  1  0
  1 37  1  0
  2 38  1  0
  2 39  1  0
  8 40  1  0
  9 41  1  0
 15 42  1  0
 15 43  1  0
 15 44  1  0
 18 45  1  0
 25 46  1  0
 26 47  1  0
 27 48  1  0
 28 49  1  0
 29 50  1  0
 30 51  1  0
 33 52  1  0
 34 53  1  0
M  CHG  1   4  -1
M  END
>  <UniqueID>  (39) 
36

>  <SMILES>  (39) 
CCO[N-]C(=O)c1ccc(-c2nc(SC)nc3[nH]c(=O)c4nn(-c5ccccc5)cc4c23)cc1

>  <Energy>  (39) 
108.32459932593238

>  <Genealogy>  (39) 
CCO[N-]C(=O)c1ccc(-c2nc(SC)nc3[nH]c(=O)c4nn(-c5ccccc5)cc4c23)cc1 (protonated)
CCO[N-]C(=O)c1ccc(-c2nc(SC)nc3[nH]c(=O)c4nn(-c5ccccc5)cc4c23)cc1 (3D coordinates assigned)
CCO[N-]C(=O)c1ccc(-c2nc(SC)nc3[nH]c(=O)c4nn(-c5ccccc5)cc4c23)cc1 (optimized conformer: 108.32459932593238 kcal/mol)

>  <smiles>  (39) 
CCONC(=O)c1ccc(-c2nc(SC)nc3[nH]c(=O)c4nn(-c5ccccc5)cc4c23)cc1

>  <score_type>  (39) 
oracle

>  <origin>  (39) 
adgpu

>  <m_score__min__energy>  (39) 
-11.27

>  <m_primary>  (39) 
energy

$$$$
39:0
     RDKit          3D

 51 53  0  0  0  0  0  0  0  0999 V2000
   -2.9730   14.7170  -35.8880 C   0  0  0  0  0  0  0  0  0  0  0  0
   -3.4220   16.0690  -35.9000 O   0  0  0  0  0  0  0  0  0  0  0  0
   -4.2070   16.6500  -34.8930 C   0  0  0  0  0  0  0  0  0  0  0  0
   -4.1300   18.0210  -34.5720 C   0  0  0  0  0  0  0  0  0  0  0  0
   -4.9400   18.5540  -33.5650 C   0  0  0  0  0  0  0  0  0  0  0  0
   -5.8340   17.7300  -32.8630 C   0  0  0  0  0  0  0  0  0  0  0  0
   -6.7060   18.3110  -31.7800 C   0  0  0  0  0  0  0  0  0  0  0  0
   -6.1470   19.5650  -31.2680 N   0  0  0  0  0  0  0  0  0  0  0  0
   -6.9450   20.9480  -31.9600 S   0  0  0  0  0  0  0  0  0  0  0  0
   -8.3740   21.0090  -31.4940 O   0  0  0  0  0  0  0  0  0  0  0  0
   -6.9460   20.8100  -33.4570 O   0  0  0  0  0  0  0  0  0  0  0  0
   -6.1070   22.4390  -31.5290 C   0  0  0  0  0  0  0  0  0  0  0  0
   -6.8010   23.6540  -31.5230 C   0  0  0  0  0  0  0  0  0  0  0  0
   -6.1410   24.8350  -31.1760 C   0  0  0  0  0  0  0  0  0  0  0  0
   -4.7920   24.8050  -30.8100 C   0  0  0  0  0  0  0  0  0  0  0  0
   -4.1530   25.9870  -30.4540 O   0  0  0  0  0  0  0  0  0  0  0  0
   -4.0920   23.5890  -30.7880 C   0  0  0  0  0  0  0  0  0  0  0  0
   -2.7120   23.5880  -30.3870 N   0  0  0  0  0  0  0  0  0  0  0  0
   -2.0870   22.8190  -29.3460 C   0  0  0  0  0  0  0  0  0  0  0  0
   -1.2100   21.9750  -29.6690 O   0  0  0  0  0  0  0  0  0  0  0  0
   -2.4210   22.9820  -27.8890 C   0  0  0  0  0  0  0  0  0  0  0  0
   -2.7710   24.3360  -27.6070 O   0  0  0  0  0  0  0  0  0  0  0  0
   -1.9050   25.2760  -27.0310 C   0  0  0  0  0  0  0  0  0  0  0  0
   -1.7740   25.4120  -25.6340 C   0  0  0  0  0  0  0  0  0  0  0  0
   -0.9270   26.3840  -25.0950 C   0  0  0  0  0  0  0  0  0  0  0  0
   -0.2020   27.2270  -25.9400 C   0  0  0  0  0  0  0  0  0  0  0  0
   -0.3160   27.0960  -27.3260 C   0  0  0  0  0  0  0  0  0  0  0  0
   -1.1590   26.1220  -27.8750 C   0  0  0  0  0  0  0  0  0  0  0  0
   -1.2530   26.0190  -29.2630 O   0  0  0  0  0  0  0  0  0  0  0  0
   -4.7470   22.4140  -31.1940 C   0  0  0  0  0  0  0  0  0  0  0  0
   -5.8950   16.3620  -33.1720 C   0  0  0  0  0  0  0  0  0  0  0  0
   -5.0940   15.8320  -34.1860 C   0  0  0  0  0  0  0  0  0  0  0  0
   -2.8602   14.3773  -34.8479 H   0  0  0  0  0  0  0  0  0  0  0  0
   -3.7084   14.0818  -36.4034 H   0  0  0  0  0  0  0  0  0  0  0  0
   -2.0037   14.6480  -36.4034 H   0  0  0  0  0  0  0  0  0  0  0  0
   -3.4305   18.6730  -35.1156 H   0  0  0  0  0  0  0  0  0  0  0  0
   -4.8766   19.6248  -33.3213 H   0  0  0  0  0  0  0  0  0  0  0  0
   -7.7076   18.5056  -32.1911 H   0  0  0  0  0  0  0  0  0  0  0  0
   -6.7613   17.5894  -30.9516 H   0  0  0  0  0  0  0  0  0  0  0  0
   -7.8674   23.6791  -31.7918 H   0  0  0  0  0  0  0  0  0  0  0  0
   -6.6841   25.7914  -31.1907 H   0  0  0  0  0  0  0  0  0  0  0  0
   -3.2689   22.3284  -27.6363 H   0  0  0  0  0  0  0  0  0  0  0  0
   -1.5407   22.7087  -27.2886 H   0  0  0  0  0  0  0  0  0  0  0  0
   -2.3418   24.7492  -24.9644 H   0  0  0  0  0  0  0  0  0  0  0  0
   -0.8312   26.4853  -24.0039 H   0  0  0  0  0  0  0  0  0  0  0  0
    0.4598   27.9952  -25.5135 H   0  0  0  0  0  0  0  0  0  0  0  0
    0.2584   27.7602  -27.9884 H   0  0  0  0  0  0  0  0  0  0  0  0
   -2.0810   25.6630  -29.7230 H   0  0  0  0  0  0  0  0  0  0  0  0
   -4.1881   21.4682  -31.2491 H   0  0  0  0  0  0  0  0  0  0  0  0
   -6.5769   15.7044  -32.6129 H   0  0  0  0  0  0  0  0  0  0  0  0
   -5.1614   14.7617  -34.4307 H   0  0  0  0  0  0  0  0  0  0  0  0
  1  2  1  0
  2  3  1  0
  3  4  2  0
  4  5  1  0
  5  6  2  0
  6  7  1  0
  7  8  1  0
  8  9  1  0
  9 10  2  0
  9 11  2  0
  9 12  1  0
 12 13  2  0
 13 14  1  0
 14 15  2  0
 15 16  1  0
 15 17  1  0
 17 18  1  0
 18 19  1  0
 19 20  2  0
 19 21  1  0
 21 22  1  0
 22 23  1  0
 23 24  2  0
 24 25  1  0
 25 26  2  0
 26 27  1  0
 27 28  2  0
 28 29  1  0
 17 30  2  0
  6 31  1  0
 31 32  2  0
 32  3  1  0
 30 12  1  0
 28 23  1  0
  1 33  1  0
  1 34  1  0
  1 35  1  0
  4 36  1  0
  5 37  1  0
  7 38  1  0
  7 39  1  0
 13 40  1  0
 14 41  1  0
 21 42  1  0
 21 43  1  0
 24 44  1  0
 25 45  1  0
 26 46  1  0
 27 47  1  0
 29 48  1  0
 30 49  1  0
 31 50  1  0
 32 51  1  0
M  CHG  3   8  -1  16  -1  18  -1
M  END
>  <UniqueID>  (40) 
37

>  <SMILES>  (40) 
COc1ccc(C[N-]S(=O)(=O)c2ccc([O-])c([N-]C(=O)COc3ccccc3O)c2)cc1

>  <Energy>  (40) 
52.73630851173889

>  <Genealogy>  (40) 
COc1ccc(C[N-]S(=O)(=O)c2ccc([O-])c([N-]C(=O)COc3ccccc3O)c2)cc1 (protonated)
COc1ccc(C[N-]S(=O)(=O)c2ccc([O-])c([N-]C(=O)COc3ccccc3O)c2)cc1 (3D coordinates assigned)
COc1ccc(C[N-]S(=O)(=O)c2ccc([O-])c([N-]C(=O)COc3ccccc3O)c2)cc1 (optimized conformer: 52.73630851173889 kcal/mol)

>  <smiles>  (40) 
COc1ccc(CNS(=O)(=O)c2ccc(O)c(NC(=O)COc3ccccc3O)c2)cc1

>  <score_type>  (40) 
oracle

>  <origin>  (40) 
adgpu

>  <m_score__min__energy>  (40) 
-12.19

>  <m_primary>  (40) 
energy

$$$$
40:0
     RDKit          3D

 43 46  0  0  0  0  0  0  0  0999 V2000
   -6.5640   16.6940  -34.5620 O   0  0  0  0  0  0  0  0  0  0  0  0
   -6.0820   17.7400  -34.0560 C   0  0  0  0  0  0  0  0  0  0  0  0
   -4.7790   18.0930  -34.1980 N   0  0  0  0  0  0  0  0  0  0  0  0
   -4.7370   19.2450  -33.5070 C   0  0  0  0  0  0  0  0  0  0  0  0
   -3.6400   20.0750  -33.2920 C   0  0  0  0  0  0  0  0  0  0  0  0
   -3.8390   21.2350  -32.5190 C   0  0  0  0  0  0  0  0  0  0  0  0
   -5.1190   21.5380  -31.9900 C   0  0  0  0  0  0  0  0  0  0  0  0
   -5.3560   22.9580  -30.9810 S   0  0  0  0  0  0  0  0  0  0  0  0
   -6.6760   22.8560  -30.2710 O   0  0  0  0  0  0  0  0  0  0  0  0
   -5.3720   24.2060  -31.8200 O   0  0  0  0  0  0  0  0  0  0  0  0
   -4.0400   23.0210  -29.8090 C   0  0  0  0  0  0  0  0  0  0  0  0
   -3.7440   21.8770  -29.0570 C   0  0  0  0  0  0  0  0  0  0  0  0
   -2.6440   21.8590  -28.1890 C   0  0  0  0  0  0  0  0  0  0  0  0
   -2.2260   20.3800  -27.3210 S   0  0  0  0  0  0  0  0  0  0  0  0
   -3.4810   19.6080  -27.0230 O   0  0  0  0  0  0  0  0  0  0  0  0
   -1.5780   20.7380  -26.0110 O   0  0  0  0  0  0  0  0  0  0  0  0
   -1.1330   19.3780  -28.2500 N   0  0  0  0  0  0  0  0  0  0  0  0
   -0.6290   18.2630  -27.4250 C   0  0  0  0  0  0  0  0  0  0  0  0
    0.6680   17.6930  -28.0210 C   0  0  0  0  0  0  0  0  0  0  0  0
    1.7300   18.6360  -28.1060 O   0  0  0  0  0  0  0  0  0  0  0  0
    1.2950   19.9880  -28.1510 C   0  0  0  0  0  0  0  0  0  0  0  0
   -0.0510   20.1720  -28.8740 C   0  0  0  0  0  0  0  0  0  0  0  0
   -1.8580   23.0100  -28.0480 C   0  0  0  0  0  0  0  0  0  0  0  0
   -2.1510   24.1560  -28.7900 C   0  0  0  0  0  0  0  0  0  0  0  0
   -3.2290   24.1630  -29.6800 C   0  0  0  0  0  0  0  0  0  0  0  0
   -3.4750   25.3020  -30.4400 O   0  0  0  0  0  0  0  0  0  0  0  0
   -6.2050   20.6690  -32.2280 C   0  0  0  0  0  0  0  0  0  0  0  0
   -5.9670   19.5330  -32.9940 C   0  0  0  0  0  0  0  0  0  0  0  0
   -6.8000   18.5880  -33.3410 O   0  0  0  0  0  0  0  0  0  0  0  0
   -2.6523   19.8330  -33.7114 H   0  0  0  0  0  0  0  0  0  0  0  0
   -2.9941   21.9119  -32.3239 H   0  0  0  0  0  0  0  0  0  0  0  0
   -4.3807   20.9847  -29.1486 H   0  0  0  0  0  0  0  0  0  0  0  0
   -0.4292   18.6281  -26.4068 H   0  0  0  0  0  0  0  0  0  0  0  0
   -1.3883   17.4675  -27.4015 H   0  0  0  0  0  0  0  0  0  0  0  0
    0.9994   16.8550  -27.3901 H   0  0  0  0  0  0  0  0  0  0  0  0
    0.4353   17.3826  -29.0503 H   0  0  0  0  0  0  0  0  0  0  0  0
    1.1900   20.3552  -27.1194 H   0  0  0  0  0  0  0  0  0  0  0  0
    2.0489   20.5535  -28.7183 H   0  0  0  0  0  0  0  0  0  0  0  0
   -0.3282   21.2360  -28.8414 H   0  0  0  0  0  0  0  0  0  0  0  0
    0.0710   19.8220  -29.9097 H   0  0  0  0  0  0  0  0  0  0  0  0
   -1.0074   23.0110  -27.3506 H   0  0  0  0  0  0  0  0  0  0  0  0
   -1.5309   25.0571  -28.6737 H   0  0  0  0  0  0  0  0  0  0  0  0
   -7.2047   20.8827  -31.8219 H   0  0  0  0  0  0  0  0  0  0  0  0
  1  2  2  0
  2  3  1  0
  3  4  1  0
  4  5  2  0
  5  6  1  0
  6  7  2  0
  7  8  1  0
  8  9  2  0
  8 10  2  0
  8 11  1  0
 11 12  2  0
 12 13  1  0
 13 14  1  0
 14 15  2  0
 14 16  2  0
 14 17  1  0
 17 18  1  0
 18 19  1  0
 19 20  1  0
 20 21  1  0
 21 22  1  0
 13 23  2  0
 23 24  1  0
 24 25  2  0
 25 26  1  0
  7 27  1  0
 27 28  2  0
 28 29  1  0
 29  2  1  0
 28  4  1  0
 25 11  1  0
 22 17  1  0
  5 30  1  0
  6 31  1  0
 12 32  1  0
 18 33  1  0
 18 34  1  0
 19 35  1  0
 19 36  1  0
 21 37  1  0
 21 38  1  0
 22 39  1  0
 22 40  1  0
 23 41  1  0
 24 42  1  0
 27 43  1  0
M  CHG  2   3  -1  26  -1
M  END
>  <UniqueID>  (41) 
38

>  <SMILES>  (41) 
O=c1[n-]c2ccc(S(=O)(=O)c3cc(S(=O)(=O)N4CCOCC4)ccc3[O-])cc2o1

>  <Energy>  (41) 
97.50507212696715

>  <Genealogy>  (41) 
O=c1[n-]c2ccc(S(=O)(=O)c3cc(S(=O)(=O)N4CCOCC4)ccc3[O-])cc2o1 (protonated)
O=c1[n-]c2ccc(S(=O)(=O)c3cc(S(=O)(=O)N4CCOCC4)ccc3[O-])cc2o1 (3D coordinates assigned)
O=c1[n-]c2ccc(S(=O)(=O)c3cc(S(=O)(=O)N4CCOCC4)ccc3[O-])cc2o1 (nonaromatic ring conformer: 97.50507212696715 kcal/mol)

>  <smiles>  (41) 
O=c1[nH]c2ccc(S(=O)(=O)c3cc(S(=O)(=O)N4CCOCC4)ccc3O)cc2o1

>  <score_type>  (41) 
oracle

>  <origin>  (41) 
adgpu

>  <m_score__min__energy>  (41) 
-12.449999999999999

>  <m_primary>  (41) 
energy

$$$$
41:0
     RDKit          3D

 56 58  0  0  0  0  0  0  0  0999 V2000
   -3.7420   23.4090  -27.6110 C   0  0  0  0  0  0  0  0  0  0  0  0
   -4.0320   22.3000  -28.4580 O   0  0  0  0  0  0  0  0  0  0  0  0
   -3.2550   21.9030  -29.5590 C   0  0  0  0  0  0  0  0  0  0  0  0
   -2.4960   20.7160  -29.5210 C   0  0  0  0  0  0  0  0  0  0  0  0
   -1.7440   20.3160  -30.6260 C   0  0  0  0  0  0  0  0  0  0  0  0
   -1.7400   21.0850  -31.7910 C   0  0  0  0  0  0  0  0  0  0  0  0
   -0.8590   20.5200  -33.2130 S   0  0  0  0  0  0  0  0  0  0  0  0
   -0.3850   21.7050  -34.0080 O   0  0  0  0  0  0  0  0  0  0  0  0
    0.3420   19.7360  -32.7620 O   0  0  0  0  0  0  0  0  0  0  0  0
   -1.8400   19.5140  -34.2360 N   0  0  0  0  0  0  0  0  0  0  0  0
   -2.5610   18.3660  -33.7770 C   0  0  0  0  0  0  0  0  0  0  0  0
   -3.9640   18.3330  -33.8320 C   0  0  0  0  0  0  0  0  0  0  0  0
   -4.6710   17.2420  -33.3070 C   0  0  0  0  0  0  0  0  0  0  0  0
   -6.1500   17.2570  -33.2810 C   0  0  0  0  0  0  0  0  0  0  0  0
   -6.7810   16.1690  -33.3920 O   0  0  0  0  0  0  0  0  0  0  0  0
   -6.8790   18.4880  -33.1300 N   0  0  0  0  0  0  0  0  0  0  0  0
   -6.5110   19.6790  -33.9020 C   0  0  0  0  0  0  0  0  0  0  0  0
   -6.8130   20.9220  -33.0670 C   0  0  0  0  0  0  0  0  0  0  0  0
   -8.2480   21.0190  -32.7250 N   0  0  0  0  0  0  0  0  0  0  0  0
   -8.4820   22.0170  -31.3090 S   0  0  0  0  0  0  0  0  0  0  0  0
   -6.9850   22.1730  -30.3520 C   0  0  0  0  0  0  0  0  0  0  0  0
   -8.9340   23.3870  -31.7310 O   0  0  0  0  0  0  0  0  0  0  0  0
   -9.5490   21.4030  -30.4440 O   0  0  0  0  0  0  0  0  0  0  0  0
   -8.9690   19.7260  -32.6170 C   0  0  0  0  0  0  0  0  0  0  0  0
   -8.0610   18.5350  -32.2600 C   0  0  0  0  0  0  0  0  0  0  0  0
   -3.9610   16.1370  -32.8130 C   0  0  0  0  0  0  0  0  0  0  0  0
   -2.5640   16.1370  -32.8180 C   0  0  0  0  0  0  0  0  0  0  0  0
   -1.8590   17.2470  -33.2920 C   0  0  0  0  0  0  0  0  0  0  0  0
   -0.4640   17.2230  -33.2570 O   0  0  0  0  0  0  0  0  0  0  0  0
   -2.4830   22.2720  -31.8400 C   0  0  0  0  0  0  0  0  0  0  0  0
   -3.2430   22.6990  -30.7330 C   0  0  0  0  0  0  0  0  0  0  0  0
   -4.0190   23.9690  -30.8390 C   0  0  0  0  0  0  0  0  0  0  0  0
   -3.5280   25.1880  -30.2850 N   0  0  0  0  0  0  0  0  0  0  0  0
   -5.1300   23.9820  -31.4370 O   0  0  0  0  0  0  0  0  0  0  0  0
   -3.8233   23.0980  -26.5590 H   0  0  0  0  0  0  0  0  0  0  0  0
   -2.7205   23.7652  -27.8101 H   0  0  0  0  0  0  0  0  0  0  0  0
   -4.4584   24.2197  -27.8101 H   0  0  0  0  0  0  0  0  0  0  0  0
   -2.4965   20.0985  -28.6106 H   0  0  0  0  0  0  0  0  0  0  0  0
   -1.1515   19.3904  -30.5790 H   0  0  0  0  0  0  0  0  0  0  0  0
   -4.5122   19.1693  -34.2904 H   0  0  0  0  0  0  0  0  0  0  0  0
   -5.4379   19.6468  -34.1417 H   0  0  0  0  0  0  0  0  0  0  0  0
   -7.0877   19.7095  -34.8382 H   0  0  0  0  0  0  0  0  0  0  0  0
   -6.2276   20.8768  -32.1368 H   0  0  0  0  0  0  0  0  0  0  0  0
   -6.5429   21.8070  -33.6618 H   0  0  0  0  0  0  0  0  0  0  0  0
   -7.2307   22.1474  -29.2801 H   0  0  0  0  0  0  0  0  0  0  0  0
   -6.3074   21.3406  -30.5928 H   0  0  0  0  0  0  0  0  0  0  0  0
   -6.4936   23.1272  -30.5928 H   0  0  0  0  0  0  0  0  0  0  0  0
   -9.7378   19.8220  -31.8362 H   0  0  0  0  0  0  0  0  0  0  0  0
   -9.3983   19.5154  -33.6076 H   0  0  0  0  0  0  0  0  0  0  0  0
   -7.7332   18.6346  -31.2147 H   0  0  0  0  0  0  0  0  0  0  0  0
   -8.6337   17.6064  -32.4005 H   0  0  0  0  0  0  0  0  0  0  0  0
   -4.5070   15.2667  -32.4200 H   0  0  0  0  0  0  0  0  0  0  0  0
   -2.0157   15.2586  -32.4468 H   0  0  0  0  0  0  0  0  0  0  0  0
    0.0970   18.0400  -33.4600 H   0  0  0  0  0  0  0  0  0  0  0  0
   -2.4728   22.8798  -32.7568 H   0  0  0  0  0  0  0  0  0  0  0  0
   -2.5170   25.3070  -30.0560 H   0  0  0  0  0  0  0  0  0  0  0  0
  1  2  1  0
  2  3  1  0
  3  4  2  0
  4  5  1  0
  5  6  2  0
  6  7  1  0
  7  8  2  0
  7  9  2  0
  7 10  1  0
 10 11  1  0
 11 12  2  0
 12 13  1  0
 13 14  1  0
 14 15  2  0
 14 16  1  0
 16 17  1  0
 17 18  1  0
 18 19  1  0
 19 20  1  0
 20 21  1  0
 20 22  2  0
 20 23  2  0
 19 24  1  0
 24 25  1  0
 13 26  2  0
 26 27  1  0
 27 28  2  0
 28 29  1  0
  6 30  1  0
 30 31  2  0
 31 32  1  0
 32 33  1  0
 32 34  2  0
 31  3  1  0
 28 11  1  0
 25 16  1  0
  1 35  1  0
  1 36  1  0
  1 37  1  0
  4 38  1  0
  5 39  1  0
 12 40  1  0
 17 41  1  0
 17 42  1  0
 18 43  1  0
 18 44  1  0
 21 45  1  0
 21 46  1  0
 21 47  1  0
 24 48  1  0
 24 49  1  0
 25 50  1  0
 25 51  1  0
 26 52  1  0
 27 53  1  0
 29 54  1  0
 30 55  1  0
 33 56  1  0
M  CHG  2  10  -1  33  -1
M  END
>  <UniqueID>  (42) 
39

>  <SMILES>  (42) 
COc1ccc(S(=O)(=O)[N-]c2cc(C(=O)N3CCN(S(C)(=O)=O)CC3)ccc2O)cc1C([NH-])=O

>  <Energy>  (42) 
72.7251883748995

>  <Genealogy>  (42) 
COc1ccc(S(=O)(=O)[N-]c2cc(C(=O)N3CCN(S(C)(=O)=O)CC3)ccc2O)cc1C([NH-])=O (protonated)
COc1ccc(S(=O)(=O)[N-]c2cc(C(=O)N3CCN(S(C)(=O)=O)CC3)ccc2O)cc1C([NH-])=O (3D coordinates assigned)
COc1ccc(S(=O)(=O)[N-]c2cc(C(=O)N3CCN(S(C)(=O)=O)CC3)ccc2O)cc1C([NH-])=O (nonaromatic ring conformer: 72.7251883748995 kcal/mol)

>  <smiles>  (42) 
COc1ccc(S(=O)(=O)Nc2cc(C(=O)N3CCN(S(C)(=O)=O)CC3)ccc2O)cc1C(N)=O

>  <score_type>  (42) 
oracle

>  <origin>  (42) 
adgpu

>  <m_score__min__energy>  (42) 
-12.18

>  <m_primary>  (42) 
energy

$$$$
42:0
     RDKit          3D

 38 41  0  0  0  0  0  0  0  0999 V2000
   -6.0210   18.7020  -34.4190 O   0  0  0  0  0  0  0  0  0  0  0  0
   -6.1690   19.7090  -33.6780 C   0  0  0  0  0  0  0  0  0  0  0  0
   -7.3440   20.0010  -33.0620 N   0  0  0  0  0  0  0  0  0  0  0  0
   -7.0240   21.1290  -32.4030 C   0  0  0  0  0  0  0  0  0  0  0  0
   -7.8430   21.9020  -31.5850 C   0  0  0  0  0  0  0  0  0  0  0  0
   -7.2820   23.0500  -30.9970 C   0  0  0  0  0  0  0  0  0  0  0  0
   -5.9280   23.3960  -31.2370 C   0  0  0  0  0  0  0  0  0  0  0  0
   -5.2480   24.8290  -30.4730 S   0  0  0  0  0  0  0  0  0  0  0  0
   -5.6510   26.0730  -31.2140 O   0  0  0  0  0  0  0  0  0  0  0  0
   -5.7560   24.9130  -29.0620 O   0  0  0  0  0  0  0  0  0  0  0  0
   -3.5180   24.7150  -30.4490 N   0  0  0  0  0  0  0  0  0  0  0  0
   -2.7640   23.6940  -29.7790 C   0  0  0  0  0  0  0  0  0  0  0  0
   -2.1040   22.6740  -30.4870 C   0  0  0  0  0  0  0  0  0  0  0  0
   -1.3780   21.6860  -29.8060 C   0  0  0  0  0  0  0  0  0  0  0  0
   -1.3390   21.6960  -28.3970 C   0  0  0  0  0  0  0  0  0  0  0  0
   -1.9790   22.7260  -27.6950 C   0  0  0  0  0  0  0  0  0  0  0  0
   -2.6910   23.7180  -28.3790 C   0  0  0  0  0  0  0  0  0  0  0  0
   -3.3350   24.7330  -27.6720 O   0  0  0  0  0  0  0  0  0  0  0  0
   -0.5260   20.6720  -27.6400 C   0  0  0  0  0  0  0  0  0  0  0  0
   -0.2780   19.4590  -28.4320 N   0  0  0  0  0  0  0  0  0  0  0  0
    0.2870   19.8000  -29.7430 C   0  0  0  0  0  0  0  0  0  0  0  0
   -0.7260   20.5780  -30.5910 C   0  0  0  0  0  0  0  0  0  0  0  0
   -5.1300   22.5870  -32.0750 C   0  0  0  0  0  0  0  0  0  0  0  0
   -5.7230   21.4610  -32.6360 C   0  0  0  0  0  0  0  0  0  0  0  0
   -5.1970   20.5680  -33.4320 O   0  0  0  0  0  0  0  0  0  0  0  0
   -8.8921   21.6248  -31.4047 H   0  0  0  0  0  0  0  0  0  0  0  0
   -7.8994   23.6853  -30.3449 H   0  0  0  0  0  0  0  0  0  0  0  0
   -2.1576   22.6508  -31.5854 H   0  0  0  0  0  0  0  0  0  0  0  0
   -1.9213   22.7552  -26.5969 H   0  0  0  0  0  0  0  0  0  0  0  0
   -4.0610   25.3000  -28.0970 H   0  0  0  0  0  0  0  0  0  0  0  0
    0.4409   21.1198  -27.3670 H   0  0  0  0  0  0  0  0  0  0  0  0
   -1.1000   20.3797  -26.7483 H   0  0  0  0  0  0  0  0  0  0  0  0
   -1.1840   18.9520  -28.5710 H   0  0  0  0  0  0  0  0  0  0  0  0
    1.1852   20.4182  -29.5981 H   0  0  0  0  0  0  0  0  0  0  0  0
    0.5421   18.8679  -30.2684 H   0  0  0  0  0  0  0  0  0  0  0  0
   -0.2058   21.0134  -31.4569 H   0  0  0  0  0  0  0  0  0  0  0  0
   -1.5116   19.8785  -30.9128 H   0  0  0  0  0  0  0  0  0  0  0  0
   -4.0782   22.8380  -32.2767 H   0  0  0  0  0  0  0  0  0  0  0  0
  1  2  2  0
  2  3  1  0
  3  4  1  0
  4  5  2  0
  5  6  1  0
  6  7  2  0
  7  8  1  0
  8  9  2  0
  8 10  2  0
  8 11  1  0
 11 12  1  0
 12 13  2  0
 13 14  1  0
 14 15  2  0
 15 16  1  0
 16 17  2  0
 17 18  1  0
 15 19  1  0
 19 20  1  0
 20 21  1  0
 21 22  1  0
  7 23  1  0
 23 24  2  0
 24 25  1  0
 25  2  1  0
 24  4  1  0
 17 12  1  0
 22 14  1  0
  5 26  1  0
  6 27  1  0
 13 28  1  0
 16 29  1  0
 18 30  1  0
 19 31  1  0
 19 32  1  0
 20 33  1  0
 21 34  1  0
 21 35  1  0
 22 36  1  0
 22 37  1  0
 23 38  1  0
M  CHG  2   3  -1  11  -1
M  END
>  <UniqueID>  (43) 
40

>  <SMILES>  (43) 
O=c1[n-]c2ccc(S(=O)(=O)[N-]c3cc4c(cc3O)CNCC4)cc2o1

>  <Energy>  (43) 
84.42344397703992

>  <Genealogy>  (43) 
O=c1[n-]c2ccc(S(=O)(=O)[N-]c3cc4c(cc3O)CNCC4)cc2o1 (protonated)
O=c1[n-]c2ccc(S(=O)(=O)[N-]c3cc4c(cc3O)CNCC4)cc2o1 (3D coordinates assigned)
O=c1[n-]c2ccc(S(=O)(=O)[N-]c3cc4c(cc3O)CNCC4)cc2o1 (nonaromatic ring conformer: 84.42344397703992 kcal/mol)

>  <smiles>  (43) 
O=c1[nH]c2ccc(S(=O)(=O)Nc3cc4c(cc3O)CNCC4)cc2o1

>  <score_type>  (43) 
oracle

>  <origin>  (43) 
adgpu

>  <m_score__min__energy>  (43) 
-10.380000000000001

>  <m_primary>  (43) 
energy

$$$$
43:0
     RDKit          3D

 56 58  0  0  0  0  0  0  0  0999 V2000
   -3.9260   24.4390  -29.3730 C   0  0  0  0  0  0  0  0  0  0  0  0
   -4.4420   24.3380  -30.7480 N   0  0  0  0  0  0  0  0  0  0  0  0
   -5.7090   25.0960  -30.9070 C   0  0  0  0  0  0  0  0  0  0  0  0
   -6.9430   24.1830  -30.8790 C   0  0  0  0  0  0  0  0  0  0  0  0
   -6.9020   23.1880  -31.9730 N   0  0  0  0  0  0  0  0  0  0  0  0
   -7.9270   21.8290  -31.5810 S   0  0  0  0  0  0  0  0  0  0  0  0
   -7.9620   21.6360  -30.0900 O   0  0  0  0  0  0  0  0  0  0  0  0
   -9.3270   22.0900  -32.0680 O   0  0  0  0  0  0  0  0  0  0  0  0
   -7.2970   20.3580  -32.3220 C   0  0  0  0  0  0  0  0  0  0  0  0
   -7.3620   19.1480  -31.6200 C   0  0  0  0  0  0  0  0  0  0  0  0
   -6.8640   17.9740  -32.1940 C   0  0  0  0  0  0  0  0  0  0  0  0
   -6.2940   18.0010  -33.4790 C   0  0  0  0  0  0  0  0  0  0  0  0
   -5.7930   16.7340  -34.1190 C   0  0  0  0  0  0  0  0  0  0  0  0
   -4.6270   17.0030  -34.9620 N   0  0  0  0  0  0  0  0  0  0  0  0
   -3.1550   16.9740  -34.0320 S   0  0  0  0  0  0  0  0  0  0  0  0
   -3.4040   16.2940  -32.7140 O   0  0  0  0  0  0  0  0  0  0  0  0
   -2.1170   16.1880  -34.7820 O   0  0  0  0  0  0  0  0  0  0  0  0
   -2.5500   18.6170  -33.7830 C   0  0  0  0  0  0  0  0  0  0  0  0
   -3.1970   19.4710  -32.8790 C   0  0  0  0  0  0  0  0  0  0  0  0
   -2.7350   20.7710  -32.6880 C   0  0  0  0  0  0  0  0  0  0  0  0
   -1.6280   21.2340  -33.3990 C   0  0  0  0  0  0  0  0  0  0  0  0
   -0.9670   20.4000  -34.3170 C   0  0  0  0  0  0  0  0  0  0  0  0
    0.4440   21.0360  -35.1810 S   0  0  0  0  0  0  0  0  0  0  0  0
    1.9330   20.2880  -34.5470 C   0  0  0  0  0  0  0  0  0  0  0  0
    0.5440   22.5240  -34.9810 O   0  0  0  0  0  0  0  0  0  0  0  0
    0.3130   20.7650  -36.6550 O   0  0  0  0  0  0  0  0  0  0  0  0
   -1.4330   19.0750  -34.5070 C   0  0  0  0  0  0  0  0  0  0  0  0
   -0.8140   18.1940  -35.4020 O   0  0  0  0  0  0  0  0  0  0  0  0
   -6.2240   19.2170  -34.1770 C   0  0  0  0  0  0  0  0  0  0  0  0
   -6.7190   20.3900  -33.6000 C   0  0  0  0  0  0  0  0  0  0  0  0
   -5.5320   22.7370  -32.3180 C   0  0  0  0  0  0  0  0  0  0  0  0
   -4.5470   22.9160  -31.1530 C   0  0  0  0  0  0  0  0  0  0  0  0
   -4.7481   24.2781  -28.6601 H   0  0  0  0  0  0  0  0  0  0  0  0
   -3.1496   23.6758  -29.2157 H   0  0  0  0  0  0  0  0  0  0  0  0
   -3.4947   25.4386  -29.2157 H   0  0  0  0  0  0  0  0  0  0  0  0
   -5.7900   25.8251  -30.0873 H   0  0  0  0  0  0  0  0  0  0  0  0
   -5.6818   25.5941  -31.8874 H   0  0  0  0  0  0  0  0  0  0  0  0
   -6.9754   23.6542  -29.9150 H   0  0  0  0  0  0  0  0  0  0  0  0
   -7.8390   24.8071  -31.0115 H   0  0  0  0  0  0  0  0  0  0  0  0
   -7.8061   19.1209  -30.6140 H   0  0  0  0  0  0  0  0  0  0  0  0
   -6.9184   17.0263  -31.6383 H   0  0  0  0  0  0  0  0  0  0  0  0
   -5.5115   16.0192  -33.3317 H   0  0  0  0  0  0  0  0  0  0  0  0
   -6.5934   16.3162  -34.7474 H   0  0  0  0  0  0  0  0  0  0  0  0
   -4.0730   19.1130  -32.3183 H   0  0  0  0  0  0  0  0  0  0  0  0
   -3.2448   21.4347  -31.9741 H   0  0  0  0  0  0  0  0  0  0  0  0
   -1.2690   22.2615  -33.2398 H   0  0  0  0  0  0  0  0  0  0  0  0
    1.9097   20.2997  -33.4473 H   0  0  0  0  0  0  0  0  0  0  0  0
    2.0008   19.2488  -34.9013 H   0  0  0  0  0  0  0  0  0  0  0  0
    2.8072   20.8540  -34.9013 H   0  0  0  0  0  0  0  0  0  0  0  0
   -1.1740   17.2780  -35.6350 H   0  0  0  0  0  0  0  0  0  0  0  0
   -5.7778   19.2469  -35.1820 H   0  0  0  0  0  0  0  0  0  0  0  0
   -6.6552   21.3408  -34.1495 H   0  0  0  0  0  0  0  0  0  0  0  0
   -5.5685   21.6717  -32.5895 H   0  0  0  0  0  0  0  0  0  0  0  0
   -5.1764   23.3541  -33.1563 H   0  0  0  0  0  0  0  0  0  0  0  0
   -4.8967   22.3241  -30.2943 H   0  0  0  0  0  0  0  0  0  0  0  0
   -3.5544   22.5756  -31.4831 H   0  0  0  0  0  0  0  0  0  0  0  0
  1  2  1  0
  2  3  1  0
  3  4  1  0
  4  5  1  0
  5  6  1  0
  6  7  2  0
  6  8  2  0
  6  9  1  0
  9 10  2  0
 10 11  1  0
 11 12  2  0
 12 13  1  0
 13 14  1  0
 14 15  1  0
 15 16  2  0
 15 17  2  0
 15 18  1  0
 18 19  2  0
 19 20  1  0
 20 21  2  0
 21 22  1  0
 22 23  1  0
 23 24  1  0
 23 25  2  0
 23 26  2  0
 22 27  2  0
 27 28  1  0
 12 29  1  0
 29 30  2  0
  5 31  1  0
 31 32  1  0
 32  2  1  0
 30  9  1  0
 27 18  1  0
  1 33  1  0
  1 34  1  0
  1 35  1  0
  3 36  1  0
  3 37  1  0
  4 38  1  0
  4 39  1  0
 10 40  1  0
 11 41  1  0
 13 42  1  0
 13 43  1  0
 19 44  1  0
 20 45  1  0
 21 46  1  0
 24 47  1  0
 24 48  1  0
 24 49  1  0
 28 50  1  0
 29 51  1  0
 30 52  1  0
 31 53  1  0
 31 54  1  0
 32 55  1  0
 32 56  1  0
M  CHG  1  14  -1
M  END
>  <UniqueID>  (44) 
41

>  <SMILES>  (44) 
CN1CCN(S(=O)(=O)c2ccc(C[N-]S(=O)(=O)c3cccc(S(C)(=O)=O)c3O)cc2)CC1

>  <Energy>  (44) 
65.85531063830148

>  <Genealogy>  (44) 
CN1CCN(S(=O)(=O)c2ccc(C[N-]S(=O)(=O)c3cccc(S(C)(=O)=O)c3O)cc2)CC1 (protonated)
CN1CCN(S(=O)(=O)c2ccc(C[N-]S(=O)(=O)c3cccc(S(C)(=O)=O)c3O)cc2)CC1 (3D coordinates assigned)
CN1CCN(S(=O)(=O)c2ccc(C[N-]S(=O)(=O)c3cccc(S(C)(=O)=O)c3O)cc2)CC1 (nonaromatic ring conformer: 65.85531063830148 kcal/mol)

>  <smiles>  (44) 
CN1CCN(S(=O)(=O)c2ccc(CNS(=O)(=O)c3cccc(S(C)(=O)=O)c3O)cc2)CC1

>  <score_type>  (44) 
oracle

>  <origin>  (44) 
adgpu

>  <m_score__min__energy>  (44) 
-11.890000000000001

>  <m_primary>  (44) 
energy

$$$$
44:0
     RDKit          3D

 60 63  0  0  0  0  0  0  0  0999 V2000
   -1.1610   18.7940  -34.9490 O   0  0  0  0  0  0  0  0  0  0  0  0
   -1.2850   18.3750  -33.7670 C   0  0  0  0  0  0  0  0  0  0  0  0
   -1.9740   17.0600  -33.5120 C   0  0  0  0  0  0  0  0  0  0  0  0
   -3.2620   17.0140  -34.1260 O   0  0  0  0  0  0  0  0  0  0  0  0
   -4.4320   17.5860  -33.5980 C   0  0  0  0  0  0  0  0  0  0  0  0
   -5.6500   17.3030  -34.2280 C   0  0  0  0  0  0  0  0  0  0  0  0
   -6.8430   17.8470  -33.7440 C   0  0  0  0  0  0  0  0  0  0  0  0
   -6.8330   18.6890  -32.6240 C   0  0  0  0  0  0  0  0  0  0  0  0
   -8.3420   19.3720  -32.0080 S   0  0  0  0  0  0  0  0  0  0  0  0
   -8.8060   18.5530  -30.8360 O   0  0  0  0  0  0  0  0  0  0  0  0
   -9.3930   19.2850  -33.0800 O   0  0  0  0  0  0  0  0  0  0  0  0
   -8.1790   21.0390  -31.5070 N   0  0  0  0  0  0  0  0  0  0  0  0
   -9.3640   21.8310  -31.8350 C   0  0  0  0  0  0  0  0  0  0  0  0
   -8.8940   23.2720  -31.9730 C   0  0  0  0  0  0  0  0  0  0  0  0
   -7.3860   23.1910  -32.1570 C   0  0  0  0  0  0  0  0  0  0  0  0
   -7.0640   21.7060  -32.1750 C   0  0  0  0  0  0  0  0  0  0  0  0
   -5.6180   18.9670  -31.9830 C   0  0  0  0  0  0  0  0  0  0  0  0
   -4.4240   18.4240  -32.4670 C   0  0  0  0  0  0  0  0  0  0  0  0
   -0.8860   19.2320  -32.6900 N   0  0  0  0  0  0  0  0  0  0  0  0
   -1.7090   20.2160  -32.0520 C   0  0  0  0  0  0  0  0  0  0  0  0
   -1.6030   20.4720  -30.6750 C   0  0  0  0  0  0  0  0  0  0  0  0
   -2.3910   21.4620  -30.0820 C   0  0  0  0  0  0  0  0  0  0  0  0
   -3.2750   22.2200  -30.8590 C   0  0  0  0  0  0  0  0  0  0  0  0
   -4.2640   23.4630  -30.0990 S   0  0  0  0  0  0  0  0  0  0  0  0
   -5.5540   22.8650  -29.6090 O   0  0  0  0  0  0  0  0  0  0  0  0
   -4.5670   24.5280  -31.1160 O   0  0  0  0  0  0  0  0  0  0  0  0
   -3.3960   24.1570  -28.7500 N   0  0  0  0  0  0  0  0  0  0  0  0
   -2.0990   24.7260  -29.1830 C   0  0  0  0  0  0  0  0  0  0  0  0
   -0.9080   23.8550  -28.7480 C   0  0  0  0  0  0  0  0  0  0  0  0
   -0.8440   23.6610  -27.3430 O   0  0  0  0  0  0  0  0  0  0  0  0
   -2.1170   23.5460  -26.7190 C   0  0  0  0  0  0  0  0  0  0  0  0
   -3.2570   23.1560  -27.6760 C   0  0  0  0  0  0  0  0  0  0  0  0
   -3.3510   21.9930  -32.2400 C   0  0  0  0  0  0  0  0  0  0  0  0
   -2.5630   21.0020  -32.8340 C   0  0  0  0  0  0  0  0  0  0  0  0
   -1.3548   16.2475  -33.9200 H   0  0  0  0  0  0  0  0  0  0  0  0
   -2.1062   16.9457  -32.4260 H   0  0  0  0  0  0  0  0  0  0  0  0
   -5.6681   16.6472  -35.1110 H   0  0  0  0  0  0  0  0  0  0  0  0
   -7.7941   17.6131  -34.2446 H   0  0  0  0  0  0  0  0  0  0  0  0
   -9.8046   21.4824  -32.7807 H   0  0  0  0  0  0  0  0  0  0  0  0
  -10.1348   21.7362  -31.0560 H   0  0  0  0  0  0  0  0  0  0  0  0
   -9.3631   23.7475  -32.8470 H   0  0  0  0  0  0  0  0  0  0  0  0
   -9.1664   23.8763  -31.0952 H   0  0  0  0  0  0  0  0  0  0  0  0
   -7.0876   23.6616  -33.1054 H   0  0  0  0  0  0  0  0  0  0  0  0
   -6.8461   23.7183  -31.3567 H   0  0  0  0  0  0  0  0  0  0  0  0
   -6.9713   21.3485  -33.2111 H   0  0  0  0  0  0  0  0  0  0  0  0
   -6.1102   21.4965  -31.6687 H   0  0  0  0  0  0  0  0  0  0  0  0
   -5.6038   19.6156  -31.0947 H   0  0  0  0  0  0  0  0  0  0  0  0
   -3.4741   18.6527  -31.9617 H   0  0  0  0  0  0  0  0  0  0  0  0
   -0.8979   19.8917  -30.0618 H   0  0  0  0  0  0  0  0  0  0  0  0
   -2.3164   21.6465  -29.0001 H   0  0  0  0  0  0  0  0  0  0  0  0
   -2.0964   24.8073  -30.2800 H   0  0  0  0  0  0  0  0  0  0  0  0
   -1.9875   25.7120  -28.7082 H   0  0  0  0  0  0  0  0  0  0  0  0
   -0.9974   22.8720  -29.2335 H   0  0  0  0  0  0  0  0  0  0  0  0
    0.0102   24.3808  -29.0488 H   0  0  0  0  0  0  0  0  0  0  0  0
   -2.0481   22.7785  -25.9341 H   0  0  0  0  0  0  0  0  0  0  0  0
   -2.3649   24.5415  -26.3220 H   0  0  0  0  0  0  0  0  0  0  0  0
   -3.0355   22.1752  -28.1220 H   0  0  0  0  0  0  0  0  0  0  0  0
   -4.1980   23.1110  -27.1081 H   0  0  0  0  0  0  0  0  0  0  0  0
   -4.0323   22.5959  -32.8583 H   0  0  0  0  0  0  0  0  0  0  0  0
   -2.6147   20.8396  -33.9207 H   0  0  0  0  0  0  0  0  0  0  0  0
  1  2  2  0
  2  3  1  0
  3  4  1  0
  4  5  1  0
  5  6  2  0
  6  7  1  0
  7  8  2  0
  8  9  1  0
  9 10  2  0
  9 11  2  0
  9 12  1  0
 12 13  1  0
 13 14  1  0
 14 15  1  0
 15 16  1  0
  8 17  1  0
 17 18  2  0
  2 19  1  0
 19 20  1  0
 20 21  2  0
 21 22  1  0
 22 23  2  0
 23 24  1  0
 24 25  2  0
 24 26  2  0
 24 27  1  0
 27 28  1  0
 28 29  1  0
 29 30  1  0
 30 31  1  0
 31 32  1  0
 23 33  1  0
 33 34  2  0
 18  5  1  0
 34 20  1  0
 16 12  1  0
 32 27  1  0
  3 35  1  0
  3 36  1  0
  6 37  1  0
  7 38  1  0
 13 39  1  0
 13 40  1  0
 14 41  1  0
 14 42  1  0
 15 43  1  0
 15 44  1  0
 16 45  1  0
 16 46  1  0
 17 47  1  0
 18 48  1  0
 21 49  1  0
 22 50  1  0
 28 51  1  0
 28 52  1  0
 29 53  1  0
 29 54  1  0
 31 55  1  0
 31 56  1  0
 32 57  1  0
 32 58  1  0
 33 59  1  0
 34 60  1  0
M  CHG  1  19  -1
M  END
>  <UniqueID>  (45) 
42

>  <SMILES>  (45) 
O=C(COc1ccc(S(=O)(=O)N2CCCC2)cc1)[N-]c1ccc(S(=O)(=O)N2CCOCC2)cc1

>  <Energy>  (45) 
81.03530988012926

>  <Genealogy>  (45) 
O=C(COc1ccc(S(=O)(=O)N2CCCC2)cc1)[N-]c1ccc(S(=O)(=O)N2CCOCC2)cc1 (protonated)
O=C(COc1ccc(S(=O)(=O)N2CCCC2)cc1)[N-]c1ccc(S(=O)(=O)N2CCOCC2)cc1 (3D coordinates assigned)
O=C(COc1ccc(S(=O)(=O)N2CCCC2)cc1)[N-]c1ccc(S(=O)(=O)N2CCOCC2)cc1 (nonaromatic ring conformer: 81.03530988012926 kcal/mol)

>  <smiles>  (45) 
O=C(COc1ccc(S(=O)(=O)N2CCCC2)cc1)Nc1ccc(S(=O)(=O)N2CCOCC2)cc1

>  <score_type>  (45) 
oracle

>  <origin>  (45) 
adgpu

>  <m_score__min__energy>  (45) 
-11.58

>  <m_primary>  (45) 
energy

$$$$
45:0
     RDKit          3D

 53 55  0  0  0  0  0  0  0  0999 V2000
   -3.0890   15.2150  -35.4120 C   0  0  0  0  0  0  0  0  0  0  0  0
   -3.1490   16.6690  -35.4110 N   0  0  0  0  0  0  0  0  0  0  0  0
   -3.3300   17.4570  -34.2290 C   0  0  0  0  0  0  0  0  0  0  0  0
   -2.3180   17.8310  -33.5800 O   0  0  0  0  0  0  0  0  0  0  0  0
   -4.6720   17.8180  -33.7360 C   0  0  0  0  0  0  0  0  0  0  0  0
   -5.6040   16.8000  -33.4900 C   0  0  0  0  0  0  0  0  0  0  0  0
   -6.8760   17.1080  -33.0040 C   0  0  0  0  0  0  0  0  0  0  0  0
   -7.2380   18.4400  -32.7450 C   0  0  0  0  0  0  0  0  0  0  0  0
   -8.6000   18.7500  -32.2450 C   0  0  0  0  0  0  0  0  0  0  0  0
   -9.5980   19.3160  -33.0980 N   0  0  0  0  0  0  0  0  0  0  0  0
   -8.8850   18.5320  -31.0370 O   0  0  0  0  0  0  0  0  0  0  0  0
   -6.3000   19.4590  -32.9880 C   0  0  0  0  0  0  0  0  0  0  0  0
   -5.0110   19.1550  -33.4580 C   0  0  0  0  0  0  0  0  0  0  0  0
   -4.0490   20.1940  -33.7010 N   0  0  0  0  0  0  0  0  0  0  0  0
   -3.3390   20.9300  -32.6950 C   0  0  0  0  0  0  0  0  0  0  0  0
   -2.1320   20.6590  -32.4520 O   0  0  0  0  0  0  0  0  0  0  0  0
   -4.0060   22.0410  -31.9790 C   0  0  0  0  0  0  0  0  0  0  0  0
   -5.3900   22.2400  -32.1030 C   0  0  0  0  0  0  0  0  0  0  0  0
   -6.0190   23.2850  -31.4260 C   0  0  0  0  0  0  0  0  0  0  0  0
   -5.2760   24.1620  -30.6210 C   0  0  0  0  0  0  0  0  0  0  0  0
   -5.9660   25.3020  -29.9200 C   0  0  0  0  0  0  0  0  0  0  0  0
   -3.8830   23.9910  -30.5090 C   0  0  0  0  0  0  0  0  0  0  0  0
   -3.1240   24.9180  -29.7150 N   0  0  0  0  0  0  0  0  0  0  0  0
   -1.9200   24.4780  -28.5460 S   0  0  0  0  0  0  0  0  0  0  0  0
   -2.2030   25.1370  -27.2260 O   0  0  0  0  0  0  0  0  0  0  0  0
   -0.5760   24.9430  -29.0310 O   0  0  0  0  0  0  0  0  0  0  0  0
   -1.8820   22.7320  -28.3690 C   0  0  0  0  0  0  0  0  0  0  0  0
   -0.9960   21.8730  -28.9910 C   0  0  0  0  0  0  0  0  0  0  0  0
   -1.3510   20.6010  -28.5840 C   0  0  0  0  0  0  0  0  0  0  0  0
   -2.4180   20.6660  -27.7630 N   0  0  0  0  0  0  0  0  0  0  0  0
   -3.0500   19.5440  -27.0800 C   0  0  0  0  0  0  0  0  0  0  0  0
   -2.7430   21.9630  -27.6140 C   0  0  0  0  0  0  0  0  0  0  0  0
   -3.2610   22.9200  -31.1740 C   0  0  0  0  0  0  0  0  0  0  0  0
   -3.0739   14.8479  -34.3752 H   0  0  0  0  0  0  0  0  0  0  0  0
   -3.9713   14.8120  -35.9308 H   0  0  0  0  0  0  0  0  0  0  0  0
   -2.1765   14.8860  -35.9308 H   0  0  0  0  0  0  0  0  0  0  0  0
   -5.3312   15.7516  -33.6812 H   0  0  0  0  0  0  0  0  0  0  0  0
   -7.6007   16.3007  -32.8224 H   0  0  0  0  0  0  0  0  0  0  0  0
  -10.5660   19.4710  -32.7360 H   0  0  0  0  0  0  0  0  0  0  0  0
   -9.3720   19.6630  -34.0560 H   0  0  0  0  0  0  0  0  0  0  0  0
   -6.5788   20.5077  -32.8079 H   0  0  0  0  0  0  0  0  0  0  0  0
   -5.9833   21.5666  -32.7391 H   0  0  0  0  0  0  0  0  0  0  0  0
   -7.1060   23.4226  -31.5240 H   0  0  0  0  0  0  0  0  0  0  0  0
   -5.8840   25.1665  -28.8315 H   0  0  0  0  0  0  0  0  0  0  0  0
   -5.4907   26.2512  -30.2082 H   0  0  0  0  0  0  0  0  0  0  0  0
   -7.0274   25.3211  -30.2082 H   0  0  0  0  0  0  0  0  0  0  0  0
   -0.1757   22.1460  -29.6712 H   0  0  0  0  0  0  0  0  0  0  0  0
   -0.8397   19.6747  -28.8848 H   0  0  0  0  0  0  0  0  0  0  0  0
   -2.9705   19.6852  -25.9920 H   0  0  0  0  0  0  0  0  0  0  0  0
   -4.1108   19.4909  -27.3663 H   0  0  0  0  0  0  0  0  0  0  0  0
   -2.5457   18.6093  -27.3663 H   0  0  0  0  0  0  0  0  0  0  0  0
   -3.5633   22.3482  -26.9905 H   0  0  0  0  0  0  0  0  0  0  0  0
   -2.1772   22.7679  -31.0629 H   0  0  0  0  0  0  0  0  0  0  0  0
  1  2  1  0
  2  3  1  0
  3  4  2  0
  3  5  1  0
  5  6  2  0
  6  7  1  0
  7  8  2  0
  8  9  1  0
  9 10  1  0
  9 11  2  0
  8 12  1  0
 12 13  2  0
 13 14  1  0
 14 15  1  0
 15 16  2  0
 15 17  1  0
 17 18  2  0
 18 19  1  0
 19 20  2  0
 20 21  1  0
 20 22  1  0
 22 23  1  0
 23 24  1  0
 24 25  2  0
 24 26  2  0
 24 27  1  0
 27 28  1  0
 28 29  2  0
 29 30  1  0
 30 31  1  0
 30 32  1  0
 22 33  2  0
 13  5  1  0
 33 17  1  0
 32 27  2  0
  1 34  1  0
  1 35  1  0
  1 36  1  0
  6 37  1  0
  7 38  1  0
 10 39  1  0
 10 40  1  0
 12 41  1  0
 18 42  1  0
 19 43  1  0
 21 44  1  0
 21 45  1  0
 21 46  1  0
 28 47  1  0
 29 48  1  0
 31 49  1  0
 31 50  1  0
 31 51  1  0
 32 52  1  0
 33 53  1  0
M  CHG  3   2  -1  14  -1  23  -1
M  END
>  <UniqueID>  (46) 
43

>  <SMILES>  (46) 
C[N-]C(=O)c1ccc(C(N)=O)cc1[N-]C(=O)c1ccc(C)c([N-]S(=O)(=O)c2ccn(C)c2)c1

>  <Energy>  (46) 
92.7101091969779

>  <Genealogy>  (46) 
C[N-]C(=O)c1ccc(C(N)=O)cc1[N-]C(=O)c1ccc(C)c([N-]S(=O)(=O)c2ccn(C)c2)c1 (protonated)
C[N-]C(=O)c1ccc(C(N)=O)cc1[N-]C(=O)c1ccc(C)c([N-]S(=O)(=O)c2ccn(C)c2)c1 (3D coordinates assigned)
C[N-]C(=O)c1ccc(C(N)=O)cc1[N-]C(=O)c1ccc(C)c([N-]S(=O)(=O)c2ccn(C)c2)c1 (optimized conformer: 92.7101091969779 kcal/mol)

>  <smiles>  (46) 
CNC(=O)c1ccc(C(N)=O)cc1NC(=O)c1ccc(C)c(NS(=O)(=O)c2ccn(C)c2)c1

>  <score_type>  (46) 
oracle

>  <origin>  (46) 
adgpu

>  <m_score__min__energy>  (46) 
-12.279999999999999

>  <m_primary>  (46) 
energy

$$$$
46:0
     RDKit          3D

 45 47  0  0  0  0  0  0  0  0999 V2000
   -6.9990   24.4960  -30.7070 C   0  0  0  0  0  0  0  0  0  0  0  0
   -7.1110   23.0380  -31.0660 C   0  0  0  0  0  0  0  0  0  0  0  0
   -8.3840   22.4960  -31.3100 C   0  0  0  0  0  0  0  0  0  0  0  0
   -8.5350   21.1430  -31.6110 C   0  0  0  0  0  0  0  0  0  0  0  0
   -7.4160   20.3080  -31.6870 C   0  0  0  0  0  0  0  0  0  0  0  0
   -7.6150   18.5750  -31.9540 S   0  0  0  0  0  0  0  0  0  0  0  0
   -6.8770   17.8190  -30.8830 O   0  0  0  0  0  0  0  0  0  0  0  0
   -9.0730   18.2210  -31.8530 O   0  0  0  0  0  0  0  0  0  0  0  0
   -6.9970   18.0990  -33.5200 N   0  0  0  0  0  0  0  0  0  0  0  0
   -6.8670   16.6250  -33.6310 C   0  0  0  0  0  0  0  0  0  0  0  0
   -5.4200   16.1360  -33.4660 C   0  0  0  0  0  0  0  0  0  0  0  0
   -4.4930   16.7730  -34.5170 C   0  0  0  0  0  0  0  0  0  0  0  0
   -4.9620   18.1720  -34.9540 C   0  0  0  0  0  0  0  0  0  0  0  0
   -5.7650   18.8540  -33.8430 C   0  0  0  0  0  0  0  0  0  0  0  0
   -6.1390   20.8470  -31.4950 C   0  0  0  0  0  0  0  0  0  0  0  0
   -5.9700   22.2050  -31.1840 C   0  0  0  0  0  0  0  0  0  0  0  0
   -4.3340   22.7920  -30.8400 S   0  0  0  0  0  0  0  0  0  0  0  0
   -4.0380   22.6420  -29.3740 O   0  0  0  0  0  0  0  0  0  0  0  0
   -4.2160   24.2450  -31.2050 O   0  0  0  0  0  0  0  0  0  0  0  0
   -3.1920   21.8660  -31.7990 C   0  0  0  0  0  0  0  0  0  0  0  0
   -3.5060   21.4780  -33.1070 C   0  0  0  0  0  0  0  0  0  0  0  0
   -2.5740   20.7420  -33.8420 C   0  0  0  0  0  0  0  0  0  0  0  0
   -1.3470   20.4010  -33.2680 C   0  0  0  0  0  0  0  0  0  0  0  0
   -1.0710   20.8030  -31.9590 C   0  0  0  0  0  0  0  0  0  0  0  0
   -1.9910   21.5200  -31.2600 N   0  0  0  0  0  0  0  0  0  0  0  0
   -6.9907   24.6045  -29.6124 H   0  0  0  0  0  0  0  0  0  0  0  0
   -6.0668   24.9055  -31.1232 H   0  0  0  0  0  0  0  0  0  0  0  0
   -7.8578   25.0431  -31.1232 H   0  0  0  0  0  0  0  0  0  0  0  0
   -9.2705   23.1456  -31.2631 H   0  0  0  0  0  0  0  0  0  0  0  0
   -9.5390   20.7306  -31.7895 H   0  0  0  0  0  0  0  0  0  0  0  0
   -7.4858   16.1587  -32.8502 H   0  0  0  0  0  0  0  0  0  0  0  0
   -7.1973   16.3406  -34.6410 H   0  0  0  0  0  0  0  0  0  0  0  0
   -5.0624   16.4063  -32.4615 H   0  0  0  0  0  0  0  0  0  0  0  0
   -5.4037   15.0447  -33.6033 H   0  0  0  0  0  0  0  0  0  0  0  0
   -3.4830   16.8582  -34.0897 H   0  0  0  0  0  0  0  0  0  0  0  0
   -4.5057   16.1259  -35.4064 H   0  0  0  0  0  0  0  0  0  0  0  0
   -4.0824   18.7881  -35.1920 H   0  0  0  0  0  0  0  0  0  0  0  0
   -5.6081   18.0646  -35.8377 H   0  0  0  0  0  0  0  0  0  0  0  0
   -5.1401   18.9209  -32.9402 H   0  0  0  0  0  0  0  0  0  0  0  0
   -6.0565   19.8551  -34.1935 H   0  0  0  0  0  0  0  0  0  0  0  0
   -5.2560   20.1977  -31.5891 H   0  0  0  0  0  0  0  0  0  0  0  0
   -4.4753   21.7496  -33.5506 H   0  0  0  0  0  0  0  0  0  0  0  0
   -2.8058   20.4313  -34.8714 H   0  0  0  0  0  0  0  0  0  0  0  0
   -0.6067   19.8226  -33.8402 H   0  0  0  0  0  0  0  0  0  0  0  0
   -0.1097   20.5396  -31.4938 H   0  0  0  0  0  0  0  0  0  0  0  0
  1  2  1  0
  2  3  2  0
  3  4  1  0
  4  5  2  0
  5  6  1  0
  6  7  2  0
  6  8  2  0
  6  9  1  0
  9 10  1  0
 10 11  1  0
 11 12  1  0
 12 13  1  0
 13 14  1  0
  5 15  1  0
 15 16  2  0
 16 17  1  0
 17 18  2  0
 17 19  2  0
 17 20  1  0
 20 21  2  0
 21 22  1  0
 22 23  2  0
 23 24  1  0
 24 25  2  0
 16  2  1  0
 25 20  1  0
 14  9  1  0
  1 26  1  0
  1 27  1  0
  1 28  1  0
  3 29  1  0
  4 30  1  0
 10 31  1  0
 10 32  1  0
 11 33  1  0
 11 34  1  0
 12 35  1  0
 12 36  1  0
 13 37  1  0
 13 38  1  0
 14 39  1  0
 14 40  1  0
 15 41  1  0
 21 42  1  0
 22 43  1  0
 23 44  1  0
 24 45  1  0
M  END
>  <UniqueID>  (47) 
44

>  <SMILES>  (47) 
Cc1ccc(S(=O)(=O)N2CCCCC2)cc1S(=O)(=O)c1ccccn1

>  <Energy>  (47) 
53.635035185560625

>  <Genealogy>  (47) 
Cc1ccc(S(=O)(=O)N2CCCCC2)cc1S(=O)(=O)c1ccccn1 (3D coordinates assigned)
Cc1ccc(S(=O)(=O)N2CCCCC2)cc1S(=O)(=O)c1ccccn1 (nonaromatic ring conformer: 53.635035185560625 kcal/mol)

>  <smiles>  (47) 
Cc1ccc(S(=O)(=O)N2CCCCC2)cc1S(=O)(=O)c1ccccn1

>  <score_type>  (47) 
oracle

>  <origin>  (47) 
adgpu

>  <m_score__min__energy>  (47) 
-9.5099999999999998

>  <m_primary>  (47) 
energy

$$$$
47:0
     RDKit          3D

 28 29  0  0  0  0  0  0  0  0999 V2000
   -9.2000   22.3200  -31.7410 C   0  0  0  0  0  0  0  0  0  0  0  0
   -7.7100   22.4960  -31.7660 C   0  0  0  0  0  0  0  0  0  0  0  0
   -6.8970   21.5290  -32.3690 C   0  0  0  0  0  0  0  0  0  0  0  0
   -5.5160   21.7100  -32.4240 C   0  0  0  0  0  0  0  0  0  0  0  0
   -4.9280   22.8620  -31.8900 C   0  0  0  0  0  0  0  0  0  0  0  0
   -3.5460   22.9970  -31.9620 O   0  0  0  0  0  0  0  0  0  0  0  0
   -5.7340   23.8600  -31.2950 C   0  0  0  0  0  0  0  0  0  0  0  0
   -5.1460   25.1020  -30.7240 C   0  0  0  0  0  0  0  0  0  0  0  0
   -5.8800   26.0900  -30.4520 O   0  0  0  0  0  0  0  0  0  0  0  0
   -3.7440   25.1620  -30.4300 N   0  0  0  0  0  0  0  0  0  0  0  0
   -3.0960   24.5250  -29.3210 C   0  0  0  0  0  0  0  0  0  0  0  0
   -3.6590   23.3530  -28.7980 C   0  0  0  0  0  0  0  0  0  0  0  0
   -3.0560   22.6950  -27.7230 C   0  0  0  0  0  0  0  0  0  0  0  0
   -1.8730   23.1940  -27.1720 C   0  0  0  0  0  0  0  0  0  0  0  0
   -1.2840   24.3420  -27.7070 C   0  0  0  0  0  0  0  0  0  0  0  0
   -1.8800   25.0030  -28.7870 C   0  0  0  0  0  0  0  0  0  0  0  0
   -1.2390   26.1040  -29.3430 O   0  0  0  0  0  0  0  0  0  0  0  0
   -7.1290   23.6620  -31.2460 C   0  0  0  0  0  0  0  0  0  0  0  0
   -9.5469   22.2790  -30.6979 H   0  0  0  0  0  0  0  0  0  0  0  0
   -9.6780   23.1679  -32.2534 H   0  0  0  0  0  0  0  0  0  0  0  0
   -9.4673   21.3840  -32.2534 H   0  0  0  0  0  0  0  0  0  0  0  0
   -7.3492   20.6239  -32.8006 H   0  0  0  0  0  0  0  0  0  0  0  0
   -4.8832   20.9409  -32.8910 H   0  0  0  0  0  0  0  0  0  0  0  0
   -4.5827   22.9481  -29.2372 H   0  0  0  0  0  0  0  0  0  0  0  0
   -3.5129   21.7835  -27.3102 H   0  0  0  0  0  0  0  0  0  0  0  0
   -1.4057   22.6830  -26.3173 H   0  0  0  0  0  0  0  0  0  0  0  0
   -0.3478   24.7281  -27.2776 H   0  0  0  0  0  0  0  0  0  0  0  0
   -7.7707   24.4325  -30.7937 H   0  0  0  0  0  0  0  0  0  0  0  0
  1  2  1  0
  2  3  2  0
  3  4  1  0
  4  5  2  0
  5  6  1  0
  5  7  1  0
  7  8  1  0
  8  9  2  0
  8 10  1  0
 10 11  1  0
 11 12  2  0
 12 13  1  0
 13 14  2  0
 14 15  1  0
 15 16  2  0
 16 17  1  0
  7 18  2  0
 18  2  1  0
 16 11  1  0
  1 19  1  0
  1 20  1  0
  1 21  1  0
  3 22  1  0
  4 23  1  0
 12 24  1  0
 13 25  1  0
 14 26  1  0
 15 27  1  0
 18 28  1  0
M  CHG  3   6  -1  10  -1  17  -1
M  END
>  <UniqueID>  (48) 
45

>  <SMILES>  (48) 
Cc1ccc([O-])c(C(=O)[N-]c2ccccc2[O-])c1

>  <Energy>  (48) 
36.32002364919765

>  <Genealogy>  (48) 
Cc1ccc([O-])c(C(=O)[N-]c2ccccc2[O-])c1 (protonated)
Cc1ccc([O-])c(C(=O)[N-]c2ccccc2[O-])c1 (3D coordinates assigned)
Cc1ccc([O-])c(C(=O)[N-]c2ccccc2[O-])c1 (optimized conformer: 36.32002364919765 kcal/mol)

>  <smiles>  (48) 
Cc1ccc(O)c(C(=O)Nc2ccccc2O)c1

>  <score_type>  (48) 
oracle

>  <origin>  (48) 
adgpu

>  <m_score__min__energy>  (48) 
-13.23

>  <m_primary>  (48) 
energy

$$$$
48:0
     RDKit          3D

 55 59  0  0  0  0  0  0  0  0999 V2000
   -5.9510   24.6550  -29.1390 O   0  0  0  0  0  0  0  0  0  0  0  0
   -5.3690   24.8040  -30.5150 S   0  0  0  0  0  0  0  0  0  0  0  0
   -6.0310   25.9590  -31.2130 O   0  0  0  0  0  0  0  0  0  0  0  0
   -3.6630   25.1020  -30.3950 N   0  0  0  0  0  0  0  0  0  0  0  0
   -2.7630   24.2110  -29.7210 C   0  0  0  0  0  0  0  0  0  0  0  0
   -3.0760   22.8510  -29.5570 C   0  0  0  0  0  0  0  0  0  0  0  0
   -2.2890   22.0390  -28.7320 C   0  0  0  0  0  0  0  0  0  0  0  0
   -1.1450   22.5660  -28.1180 C   0  0  0  0  0  0  0  0  0  0  0  0
   -0.7750   23.8980  -28.3580 C   0  0  0  0  0  0  0  0  0  0  0  0
   -1.5890   24.7200  -29.1470 C   0  0  0  0  0  0  0  0  0  0  0  0
   -1.2430   26.0540  -29.3310 O   0  0  0  0  0  0  0  0  0  0  0  0
   -0.3200   21.6630  -27.2430 C   0  0  0  0  0  0  0  0  0  0  0  0
   -1.2140   20.8120  -26.3160 C   0  0  0  0  0  0  0  0  0  0  0  0
   -2.5360   20.3110  -26.9590 C   0  0  0  0  0  0  0  0  0  0  0  0
   -2.6540   20.6050  -28.4620 C   0  0  0  0  0  0  0  0  0  0  0  0
   -5.6180   23.3050  -31.4080 C   0  0  0  0  0  0  0  0  0  0  0  0
   -6.8210   22.5900  -31.2240 C   0  0  0  0  0  0  0  0  0  0  0  0
   -6.9480   21.2780  -31.7040 C   0  0  0  0  0  0  0  0  0  0  0  0
   -5.8610   20.7080  -32.3710 C   0  0  0  0  0  0  0  0  0  0  0  0
   -4.7100   21.4110  -32.5940 C   0  0  0  0  0  0  0  0  0  0  0  0
   -4.5570   22.7180  -32.1270 C   0  0  0  0  0  0  0  0  0  0  0  0
   -3.6860   20.5470  -33.2430 C   0  0  0  0  0  0  0  0  0  0  0  0
   -4.3820   19.1670  -33.3240 C   0  0  0  0  0  0  0  0  0  0  0  0
   -5.7340   19.3680  -32.8060 N   0  0  0  0  0  0  0  0  0  0  0  0
   -6.8180   18.0800  -32.3930 S   0  0  0  0  0  0  0  0  0  0  0  0
   -8.1460   18.3050  -33.0600 O   0  0  0  0  0  0  0  0  0  0  0  0
   -7.0190   18.0460  -30.9040 O   0  0  0  0  0  0  0  0  0  0  0  0
   -6.1490   16.5400  -32.9240 C   0  0  0  0  0  0  0  0  0  0  0  0
   -4.9850   16.0380  -32.3280 C   0  0  0  0  0  0  0  0  0  0  0  0
   -4.4620   14.8070  -32.7370 C   0  0  0  0  0  0  0  0  0  0  0  0
   -5.1030   14.0710  -33.7380 C   0  0  0  0  0  0  0  0  0  0  0  0
   -4.5960   12.8790  -34.1330 F   0  0  0  0  0  0  0  0  0  0  0  0
   -6.2710   14.5650  -34.3290 C   0  0  0  0  0  0  0  0  0  0  0  0
   -6.7970   15.7940  -33.9210 C   0  0  0  0  0  0  0  0  0  0  0  0
   -3.9438   22.4223  -30.0796 H   0  0  0  0  0  0  0  0  0  0  0  0
    0.1548   24.2967  -27.9262 H   0  0  0  0  0  0  0  0  0  0  0  0
    0.2760   20.9931  -27.8802 H   0  0  0  0  0  0  0  0  0  0  0  0
    0.3341   22.2880  -26.6173 H   0  0  0  0  0  0  0  0  0  0  0  0
   -0.6352   19.9329  -25.9965 H   0  0  0  0  0  0  0  0  0  0  0  0
   -1.5063   21.4683  -25.4831 H   0  0  0  0  0  0  0  0  0  0  0  0
   -2.5996   19.2225  -26.8140 H   0  0  0  0  0  0  0  0  0  0  0  0
   -3.3547   20.8544  -26.4646 H   0  0  0  0  0  0  0  0  0  0  0  0
   -1.9726   19.9441  -29.0178 H   0  0  0  0  0  0  0  0  0  0  0  0
   -3.6900   20.4272  -28.7861 H   0  0  0  0  0  0  0  0  0  0  0  0
   -7.6643   23.0646  -30.7009 H   0  0  0  0  0  0  0  0  0  0  0  0
   -7.8801   20.7123  -31.5588 H   0  0  0  0  0  0  0  0  0  0  0  0
   -3.6289   23.2773  -32.3160 H   0  0  0  0  0  0  0  0  0  0  0  0
   -3.4343   20.9206  -34.2465 H   0  0  0  0  0  0  0  0  0  0  0  0
   -2.7356   20.5173  -32.6900 H   0  0  0  0  0  0  0  0  0  0  0  0
   -4.4198   18.8184  -34.3666 H   0  0  0  0  0  0  0  0  0  0  0  0
   -3.8375   18.4060  -32.7458 H   0  0  0  0  0  0  0  0  0  0  0  0
   -4.4814   16.6129  -31.5369 H   0  0  0  0  0  0  0  0  0  0  0  0
   -3.5452   14.4174  -32.2705 H   0  0  0  0  0  0  0  0  0  0  0  0
   -6.7760   13.9854  -35.1158 H   0  0  0  0  0  0  0  0  0  0  0  0
   -7.7196   16.1770  -34.3816 H   0  0  0  0  0  0  0  0  0  0  0  0
  1  2  2  0
  2  3  2  0
  2  4  1  0
  4  5  1  0
  5  6  2  0
  6  7  1  0
  7  8  2  0
  8  9  1  0
  9 10  2  0
 10 11  1  0
  8 12  1  0
 12 13  1  0
 13 14  1  0
 14 15  1  0
  2 16  1  0
 16 17  2  0
 17 18  1  0
 18 19  2  0
 19 20  1  0
 20 21  2  0
 20 22  1  0
 22 23  1  0
 23 24  1  0
 24 25  1  0
 25 26  2  0
 25 27  2  0
 25 28  1  0
 28 29  2  0
 29 30  1  0
 30 31  2  0
 31 32  1  0
 31 33  1  0
 33 34  2  0
 10  5  1  0
 21 16  1  0
 34 28  1  0
 15  7  1  0
 24 19  1  0
  6 35  1  0
  9 36  1  0
 12 37  1  0
 12 38  1  0
 13 39  1  0
 13 40  1  0
 14 41  1  0
 14 42  1  0
 15 43  1  0
 15 44  1  0
 17 45  1  0
 18 46  1  0
 21 47  1  0
 22 48  1  0
 22 49  1  0
 23 50  1  0
 23 51  1  0
 29 52  1  0
 30 53  1  0
 33 54  1  0
 34 55  1  0
M  CHG  2   4  -1  11  -1
M  END
>  <UniqueID>  (49) 
46

>  <SMILES>  (49) 
O=S(=O)([N-]c1cc2c(cc1[O-])CCCC2)c1ccc2c(c1)CCN2S(=O)(=O)c1ccc(F)cc1

>  <Energy>  (49) 
82.84852640609427

>  <Genealogy>  (49) 
O=S(=O)([N-]c1cc2c(cc1[O-])CCCC2)c1ccc2c(c1)CCN2S(=O)(=O)c1ccc(F)cc1 (protonated)
O=S(=O)([N-]c1cc2c(cc1[O-])CCCC2)c1ccc2c(c1)CCN2S(=O)(=O)c1ccc(F)cc1 (3D coordinates assigned)
O=S(=O)([N-]c1cc2c(cc1[O-])CCCC2)c1ccc2c(c1)CCN2S(=O)(=O)c1ccc(F)cc1 (nonaromatic ring conformer: 82.84852640609427 kcal/mol)

>  <smiles>  (49) 
O=S(=O)(Nc1cc2c(cc1O)CCCC2)c1ccc2c(c1)CCN2S(=O)(=O)c1ccc(F)cc1

>  <score_type>  (49) 
oracle

>  <origin>  (49) 
adgpu

>  <m_score__min__energy>  (49) 
-15.83

>  <m_primary>  (49) 
energy

$$$$
49:0
     RDKit          3D

 47 49  0  0  0  0  0  0  0  0999 V2000
   -3.8060   25.2840  -30.7990 O   0  0  0  0  0  0  0  0  0  0  0  0
   -4.0170   24.5420  -29.8010 C   0  0  0  0  0  0  0  0  0  0  0  0
   -5.3650   24.2420  -29.4270 N   0  0  0  0  0  0  0  0  0  0  0  0
   -6.5050   24.4840  -30.3030 C   0  0  0  0  0  0  0  0  0  0  0  0
   -6.2530   23.8740  -31.6830 C   0  0  0  0  0  0  0  0  0  0  0  0
   -7.0630   22.6200  -31.8850 C   0  0  0  0  0  0  0  0  0  0  0  0
   -8.3270   22.4930  -31.2890 C   0  0  0  0  0  0  0  0  0  0  0  0
   -9.0960   21.3460  -31.5070 C   0  0  0  0  0  0  0  0  0  0  0  0
   -8.6170   20.3230  -32.3300 C   0  0  0  0  0  0  0  0  0  0  0  0
   -9.3950   19.1900  -32.5390 O   0  0  0  0  0  0  0  0  0  0  0  0
   -7.3560   20.4440  -32.9380 C   0  0  0  0  0  0  0  0  0  0  0  0
   -6.8570   19.4420  -33.7690 O   0  0  0  0  0  0  0  0  0  0  0  0
   -6.5860   21.5900  -32.7140 C   0  0  0  0  0  0  0  0  0  0  0  0
   -2.8680   23.9890  -29.0340 C   0  0  0  0  0  0  0  0  0  0  0  0
   -2.9620   22.6930  -28.4860 C   0  0  0  0  0  0  0  0  0  0  0  0
   -1.9020   22.1410  -27.7550 C   0  0  0  0  0  0  0  0  0  0  0  0
   -2.0300   20.5110  -27.0970 S   0  0  0  0  0  0  0  0  0  0  0  0
   -1.5360   20.5110  -25.6770 O   0  0  0  0  0  0  0  0  0  0  0  0
   -3.4700   20.0760  -27.1020 O   0  0  0  0  0  0  0  0  0  0  0  0
   -1.0550   19.4230  -28.0520 N   0  0  0  0  0  0  0  0  0  0  0  0
   -0.7690   18.1860  -27.3240 C   0  0  0  0  0  0  0  0  0  0  0  0
    0.5530   17.6610  -27.8600 C   0  0  0  0  0  0  0  0  0  0  0  0
    1.2150   18.8480  -28.5420 C   0  0  0  0  0  0  0  0  0  0  0  0
    0.2510   20.0080  -28.3550 C   0  0  0  0  0  0  0  0  0  0  0  0
   -0.7270   22.8760  -27.5760 C   0  0  0  0  0  0  0  0  0  0  0  0
   -0.6170   24.1600  -28.1090 C   0  0  0  0  0  0  0  0  0  0  0  0
   -1.6740   24.7210  -28.8330 C   0  0  0  0  0  0  0  0  0  0  0  0
   -1.5170   26.0060  -29.3410 O   0  0  0  0  0  0  0  0  0  0  0  0
   -7.4040   24.0275  -29.8631 H   0  0  0  0  0  0  0  0  0  0  0  0
   -6.6483   25.5691  -30.4122 H   0  0  0  0  0  0  0  0  0  0  0  0
   -6.5300   24.6074  -32.4546 H   0  0  0  0  0  0  0  0  0  0  0  0
   -5.1868   23.6136  -31.7574 H   0  0  0  0  0  0  0  0  0  0  0  0
   -8.7142   23.2988  -30.6480 H   0  0  0  0  0  0  0  0  0  0  0  0
  -10.0819   21.2483  -31.0289 H   0  0  0  0  0  0  0  0  0  0  0  0
   -7.4520   18.7210  -34.1600 H   0  0  0  0  0  0  0  0  0  0  0  0
   -5.5992   21.6860  -33.1904 H   0  0  0  0  0  0  0  0  0  0  0  0
   -3.8810   22.1070  -28.6347 H   0  0  0  0  0  0  0  0  0  0  0  0
   -0.6870   18.3904  -26.2463 H   0  0  0  0  0  0  0  0  0  0  0  0
   -1.5737   17.4491  -27.4634 H   0  0  0  0  0  0  0  0  0  0  0  0
    1.1818   17.2908  -27.0368 H   0  0  0  0  0  0  0  0  0  0  0  0
    0.4069   16.8206  -28.5546 H   0  0  0  0  0  0  0  0  0  0  0  0
    2.1833   19.0721  -28.0707 H   0  0  0  0  0  0  0  0  0  0  0  0
    1.4163   18.6498  -29.6051 H   0  0  0  0  0  0  0  0  0  0  0  0
    0.5828   20.6466  -27.5231 H   0  0  0  0  0  0  0  0  0  0  0  0
    0.2047   20.6342  -29.2582 H   0  0  0  0  0  0  0  0  0  0  0  0
    0.1125   22.4411  -27.0138 H   0  0  0  0  0  0  0  0  0  0  0  0
    0.3081   24.7359  -27.9589 H   0  0  0  0  0  0  0  0  0  0  0  0
  1  2  2  0
  2  3  1  0
  3  4  1  0
  4  5  1  0
  5  6  1  0
  6  7  2  0
  7  8  1  0
  8  9  2  0
  9 10  1  0
  9 11  1  0
 11 12  1  0
 11 13  2  0
  2 14  1  0
 14 15  2  0
 15 16  1  0
 16 17  1  0
 17 18  2  0
 17 19  2  0
 17 20  1  0
 20 21  1  0
 21 22  1  0
 22 23  1  0
 23 24  1  0
 16 25  2  0
 25 26  1  0
 26 27  2  0
 27 28  1  0
 13  6  1  0
 27 14  1  0
 24 20  1  0
  4 29  1  0
  4 30  1  0
  5 31  1  0
  5 32  1  0
  7 33  1  0
  8 34  1  0
 12 35  1  0
 13 36  1  0
 15 37  1  0
 21 38  1  0
 21 39  1  0
 22 40  1  0
 22 41  1  0
 23 42  1  0
 23 43  1  0
 24 44  1  0
 24 45  1  0
 25 46  1  0
 26 47  1  0
M  CHG  3   3  -1  10  -1  28  -1
M  END
>  <UniqueID>  (50) 
47

>  <SMILES>  (50) 
O=C([N-]CCc1ccc([O-])c(O)c1)c1cc(S(=O)(=O)N2CCCC2)ccc1[O-]

>  <Energy>  (50) 
46.355723848375014

>  <Genealogy>  (50) 
O=C([N-]CCc1ccc([O-])c(O)c1)c1cc(S(=O)(=O)N2CCCC2)ccc1[O-] (protonated)
O=C([N-]CCc1ccc([O-])c(O)c1)c1cc(S(=O)(=O)N2CCCC2)ccc1[O-] (3D coordinates assigned)
O=C([N-]CCc1ccc([O-])c(O)c1)c1cc(S(=O)(=O)N2CCCC2)ccc1[O-] (nonaromatic ring conformer: 46.355723848375014 kcal/mol)

>  <smiles>  (50) 
O=C(NCCc1ccc(O)c(O)c1)c1cc(S(=O)(=O)N2CCCC2)ccc1O

>  <score_type>  (50) 
oracle

>  <origin>  (50) 
adgpu

>  <m_score__min__energy>  (50) 
-13.15

>  <m_primary>  (50) 
energy

$$$$
