0:0
     RDKit          3D

 47 49  0  0  0  0  0  0  0  0999 V2000
   -1.8730   18.9130  -33.1830 C   0  0  0  0  0  0  0  0  0  0  0  0
   -3.1730   19.5600  -33.4010 N   0  0  0  0  0  0  0  0  0  0  0  0
   -4.2090   18.9010  -34.2070 C   0  0  0  0  0  0  0  0  0  0  0  0
   -5.4060   18.5940  -33.3480 C   0  0  0  0  0  0  0  0  0  0  0  0
   -6.6140   19.2750  -33.5420 C   0  0  0  0  0  0  0  0  0  0  0  0
   -7.6620   19.0570  -32.7050 N   0  0  0  0  0  0  0  0  0  0  0  0
   -7.5590   18.1790  -31.6740 C   0  0  0  0  0  0  0  0  0  0  0  0
   -6.3950   17.5040  -31.4640 N   0  0  0  0  0  0  0  0  0  0  0  0
   -5.3210   17.6990  -32.2730 C   0  0  0  0  0  0  0  0  0  0  0  0
   -3.4850   20.7730  -32.7070 C   0  0  0  0  0  0  0  0  0  0  0  0
   -4.6070   21.5250  -33.0830 C   0  0  0  0  0  0  0  0  0  0  0  0
   -4.9710   22.6570  -32.3470 C   0  0  0  0  0  0  0  0  0  0  0  0
   -4.2190   23.0400  -31.2270 C   0  0  0  0  0  0  0  0  0  0  0  0
   -4.7510   24.3610  -30.1910 S   0  0  0  0  0  0  0  0  0  0  0  0
   -6.1320   24.0990  -29.6530 O   0  0  0  0  0  0  0  0  0  0  0  0
   -4.7710   25.6340  -30.9960 O   0  0  0  0  0  0  0  0  0  0  0  0
   -3.6350   24.5190  -28.8700 N   0  0  0  0  0  0  0  0  0  0  0  0
   -3.0540   23.3590  -28.2500 C   0  0  0  0  0  0  0  0  0  0  0  0
   -3.8360   22.2030  -28.0710 C   0  0  0  0  0  0  0  0  0  0  0  0
   -3.2960   21.0650  -27.4750 C   0  0  0  0  0  0  0  0  0  0  0  0
   -1.9730   21.0710  -27.0330 C   0  0  0  0  0  0  0  0  0  0  0  0
   -1.1840   22.2100  -27.2020 C   0  0  0  0  0  0  0  0  0  0  0  0
   -1.7090   23.3590  -27.8140 C   0  0  0  0  0  0  0  0  0  0  0  0
   -0.6540   24.7590  -28.0570 S   0  0  0  0  0  0  0  0  0  0  0  0
   -1.2520   25.7520  -29.3430 N   0  0  0  0  0  0  0  0  0  0  0  0
   -0.6080   25.5870  -26.8060 O   0  0  0  0  0  0  0  0  0  0  0  0
    0.7310   24.2860  -28.3940 O   0  0  0  0  0  0  0  0  0  0  0  0
   -3.0830   22.3010  -30.8670 C   0  0  0  0  0  0  0  0  0  0  0  0
   -2.7170   21.1710  -31.6030 C   0  0  0  0  0  0  0  0  0  0  0  0
   -1.6862   18.8200  -32.1030 H   0  0  0  0  0  0  0  0  0  0  0  0
   -1.8796   17.9131  -33.6414 H   0  0  0  0  0  0  0  0  0  0  0  0
   -1.0793   19.5212  -33.6414 H   0  0  0  0  0  0  0  0  0  0  0  0
   -4.5107   19.5670  -35.0289 H   0  0  0  0  0  0  0  0  0  0  0  0
   -3.8071   17.9631  -34.6178 H   0  0  0  0  0  0  0  0  0  0  0  0
   -6.7148   19.9879  -34.3736 H   0  0  0  0  0  0  0  0  0  0  0  0
   -8.4178   18.0127  -31.0070 H   0  0  0  0  0  0  0  0  0  0  0  0
   -4.3843   17.1541  -32.0841 H   0  0  0  0  0  0  0  0  0  0  0  0
   -5.2017   21.2242  -33.9581 H   0  0  0  0  0  0  0  0  0  0  0  0
   -5.8488   23.2481  -32.6471 H   0  0  0  0  0  0  0  0  0  0  0  0
   -3.2590   25.4710  -28.6580 H   0  0  0  0  0  0  0  0  0  0  0  0
   -4.8841   22.1975  -28.4049 H   0  0  0  0  0  0  0  0  0  0  0  0
   -3.9128   20.1624  -27.3531 H   0  0  0  0  0  0  0  0  0  0  0  0
   -1.5509   20.1770  -26.5507 H   0  0  0  0  0  0  0  0  0  0  0  0
   -0.1411   22.2072  -26.8523 H   0  0  0  0  0  0  0  0  0  0  0  0
   -1.9510   26.4050  -28.9210 H   0  0  0  0  0  0  0  0  0  0  0  0
   -2.4780   22.6118  -30.0025 H   0  0  0  0  0  0  0  0  0  0  0  0
   -1.8259   20.5932  -31.3163 H   0  0  0  0  0  0  0  0  0  0  0  0
  1  2  1  0
  2  3  1  0
  3  4  1  0
  4  5  2  0
  5  6  1  0
  6  7  2  0
  7  8  1  0
  8  9  2  0
  2 10  1  0
 10 11  2  0
 11 12  1  0
 12 13  2  0
 13 14  1  0
 14 15  2  0
 14 16  2  0
 14 17  1  0
 17 18  1  0
 18 19  2  0
 19 20  1  0
 20 21  2  0
 21 22  1  0
 22 23  2  0
 23 24  1  0
 24 25  1  0
 24 26  2  0
 24 27  2  0
 13 28  1  0
 28 29  2  0
  9  4  1  0
 29 10  1  0
 23 18  1  0
  1 30  1  0
  1 31  1  0
  1 32  1  0
  3 33  1  0
  3 34  1  0
  5 35  1  0
  7 36  1  0
  9 37  1  0
 11 38  1  0
 12 39  1  0
 17 40  1  0
 19 41  1  0
 20 42  1  0
 21 43  1  0
 22 44  1  0
 25 45  1  0
 28 46  1  0
 29 47  1  0
M  CHG  1  25  -1
M  END
>  <UniqueID>  (1) 
1

>  <SMILES>  (1) 
CN(Cc1cncnc1)c1ccc(S(=O)(=O)Nc2ccccc2S([NH-])(=O)=O)cc1

>  <Energy>  (1) 
56.9295311358593

>  <Genealogy>  (1) 
CN(Cc1cncnc1)c1ccc(S(=O)(=O)Nc2ccccc2S([NH-])(=O)=O)cc1 (protonated)
CN(Cc1cncnc1)c1ccc(S(=O)(=O)Nc2ccccc2S([NH-])(=O)=O)cc1 (3D coordinates assigned)
CN(Cc1cncnc1)c1ccc(S(=O)(=O)Nc2ccccc2S([NH-])(=O)=O)cc1 (optimized conformer: 56.9295311358593 kcal/mol)

>  <smiles>  (1) 
CN(Cc1cncnc1)c1ccc(S(=O)(=O)Nc2ccccc2S(N)(=O)=O)cc1

>  <score_type>  (1) 
oracle

>  <origin>  (1) 
adgpu

>  <m_score__min__energy>  (1) 
-11.92

>  <m_primary>  (1) 
energy

$$$$
1:0
     RDKit          3D

 80 84  0  0  0  0  0  0  0  0999 V2000
   -9.8530   23.8150  -32.7130 C   0  0  0  0  0  0  0  0  0  0  0  0
   -8.8430   23.8150  -31.7090 O   0  0  0  0  0  0  0  0  0  0  0  0
   -7.7410   22.9450  -31.6770 C   0  0  0  0  0  0  0  0  0  0  0  0
   -7.8950   21.5750  -31.9680 C   0  0  0  0  0  0  0  0  0  0  0  0
   -6.8020   20.6990  -31.9190 C   0  0  0  0  0  0  0  0  0  0  0  0
   -6.9560   19.2780  -32.2900 C   0  0  0  0  0  0  0  0  0  0  0  0
   -8.1000   18.5740  -32.1650 N   0  0  0  0  0  0  0  0  0  0  0  0
   -7.8430   17.3620  -32.6310 N   0  0  0  0  0  0  0  0  0  0  0  0
   -6.5530   17.3740  -33.0180 C   0  0  0  0  0  0  0  0  0  0  0  0
   -5.8540   16.2180  -33.6530 C   0  0  0  0  0  0  0  0  0  0  0  0
   -4.4620   16.6270  -34.0520 C   0  0  0  0  0  0  0  0  0  0  0  0
   -3.8090   15.9730  -35.1090 C   0  0  0  0  0  0  0  0  0  0  0  0
   -2.4750   16.2720  -35.4050 C   0  0  0  0  0  0  0  0  0  0  0  0
   -1.7840   17.2170  -34.6440 C   0  0  0  0  0  0  0  0  0  0  0  0
   -2.4200   17.8850  -33.5830 C   0  0  0  0  0  0  0  0  0  0  0  0
   -1.6580   18.8760  -32.7280 C   0  0  1  0  0  0  0  0  0  0  0  0
   -0.2760   18.5790  -32.8430 O   0  0  0  0  0  0  0  0  0  0  0  0
    0.5320   19.3630  -31.9740 C   0  0  2  0  0  0  0  0  0  0  0  0
    0.5430   18.7950  -30.5410 C   0  0  0  0  0  0  0  0  0  0  0  0
   -0.5930   19.2260  -29.8430 O   0  0  0  0  0  0  0  0  0  0  0  0
    0.2350   20.8960  -32.0610 C   0  0  2  0  0  0  0  0  0  0  0  0
   -0.3590   21.3860  -30.8810 O   0  0  0  0  0  0  0  0  0  0  0  0
   -0.6980   21.1980  -33.2370 C   0  0  1  0  0  0  0  0  0  0  0  0
   -0.0390   20.9080  -34.4440 O   0  0  0  0  0  0  0  0  0  0  0  0
   -1.9840   20.3570  -33.1040 C   0  0  1  0  0  0  0  0  0  0  0  0
   -2.7450   20.4490  -34.2850 O   0  0  0  0  0  0  0  0  0  0  0  0
   -3.7660   17.5880  -33.2990 C   0  0  0  0  0  0  0  0  0  0  0  0
   -6.0020   18.5440  -32.8120 O   0  0  0  0  0  0  0  0  0  0  0  0
   -5.5490   21.1890  -31.5350 C   0  0  0  0  0  0  0  0  0  0  0  0
   -5.3750   22.5450  -31.2330 C   0  0  0  0  0  0  0  0  0  0  0  0
   -3.7690   23.1310  -30.7760 S   0  0  0  0  0  0  0  0  0  0  0  0
   -3.7810   24.6360  -30.8070 O   0  0  0  0  0  0  0  0  0  0  0  0
   -2.7470   22.6320  -31.7630 O   0  0  0  0  0  0  0  0  0  0  0  0
   -3.3400   22.5810  -29.1690 N   0  0  0  0  0  0  0  0  0  0  0  0
   -2.9660   21.1500  -29.2000 C   0  0  0  0  0  0  0  0  0  0  0  0
   -2.0830   20.7860  -28.0000 C   0  0  0  0  0  0  0  0  0  0  0  0
   -0.7880   21.5090  -28.0550 N   0  0  0  0  0  0  0  0  0  0  0  0
   -0.2060   21.6120  -26.7050 C   0  0  0  0  0  0  0  0  0  0  0  0
   -0.8880   22.8500  -28.6950 C   0  0  0  0  0  0  0  0  0  0  0  0
   -2.3000   23.4550  -28.5750 C   0  0  0  0  0  0  0  0  0  0  0  0
   -6.4560   23.4410  -31.3380 C   0  0  0  0  0  0  0  0  0  0  0  0
   -6.1920   24.8040  -31.0970 O   0  0  0  0  0  0  0  0  0  0  0  0
   -6.3980   25.5070  -29.8730 C   0  0  0  0  0  0  0  0  0  0  0  0
  -10.1130   22.7779  -32.9715 H   0  0  0  0  0  0  0  0  0  0  0  0
  -10.7462   24.3335  -32.3345 H   0  0  0  0  0  0  0  0  0  0  0  0
   -9.4799   24.3335  -33.6085 H   0  0  0  0  0  0  0  0  0  0  0  0
   -8.8883   21.1870  -32.2378 H   0  0  0  0  0  0  0  0  0  0  0  0
   -5.7996   15.3848  -32.9369 H   0  0  0  0  0  0  0  0  0  0  0  0
   -6.4115   15.9000  -34.5464 H   0  0  0  0  0  0  0  0  0  0  0  0
   -4.3482   15.2230  -35.7063 H   0  0  0  0  0  0  0  0  0  0  0  0
   -1.9697   15.7620  -36.2384 H   0  0  0  0  0  0  0  0  0  0  0  0
   -0.7325   17.4408  -34.8768 H   0  0  0  0  0  0  0  0  0  0  0  0
   -1.9693   18.7763  -31.6777 H   0  0  0  0  0  0  0  0  0  0  0  0
    1.5672   19.2796  -32.3365 H   0  0  0  0  0  0  0  0  0  0  0  0
    0.5474   17.6959  -30.5854 H   0  0  0  0  0  0  0  0  0  0  0  0
    1.4430   19.1523  -30.0192 H   0  0  0  0  0  0  0  0  0  0  0  0
   -1.2760   19.4700  -30.5190 H   0  0  0  0  0  0  0  0  0  0  0  0
    1.2035   21.3972  -32.2051 H   0  0  0  0  0  0  0  0  0  0  0  0
   -1.3160   21.1190  -30.9040 H   0  0  0  0  0  0  0  0  0  0  0  0
   -0.9724   22.2632  -33.2319 H   0  0  0  0  0  0  0  0  0  0  0  0
   -0.1020   19.9240  -34.5820 H   0  0  0  0  0  0  0  0  0  0  0  0
   -2.5886   20.7632  -32.2797 H   0  0  0  0  0  0  0  0  0  0  0  0
   -2.1620   20.8600  -34.9760 H   0  0  0  0  0  0  0  0  0  0  0  0
   -4.2784   18.1133  -32.4795 H   0  0  0  0  0  0  0  0  0  0  0  0
   -4.6923   20.5022  -31.4697 H   0  0  0  0  0  0  0  0  0  0  0  0
   -3.8801   20.5387  -29.1724 H   0  0  0  0  0  0  0  0  0  0  0  0
   -2.4000   20.9559  -30.1230 H   0  0  0  0  0  0  0  0  0  0  0  0
   -2.6074   21.0572  -27.0719 H   0  0  0  0  0  0  0  0  0  0  0  0
   -1.8826   19.7047  -28.0270 H   0  0  0  0  0  0  0  0  0  0  0  0
   -0.1250   20.9350  -28.6310 H   0  0  0  0  0  0  0  0  0  0  0  0
   -0.9967   21.4721  -25.9532 H   0  0  0  0  0  0  0  0  0  0  0  0
    0.5631   20.8360  -26.5771 H   0  0  0  0  0  0  0  0  0  0  0  0
    0.2500   22.6048  -26.5771 H   0  0  0  0  0  0  0  0  0  0  0  0
   -0.1709   23.5277  -28.2087 H   0  0  0  0  0  0  0  0  0  0  0  0
   -0.6656   22.7279  -29.7653 H   0  0  0  0  0  0  0  0  0  0  0  0
   -2.5308   23.6056  -27.5101 H   0  0  0  0  0  0  0  0  0  0  0  0
   -2.3058   24.4068  -29.1264 H   0  0  0  0  0  0  0  0  0  0  0  0
   -6.2007   24.8337  -29.0258 H   0  0  0  0  0  0  0  0  0  0  0  0
   -5.7142   26.3673  -29.8247 H   0  0  0  0  0  0  0  0  0  0  0  0
   -7.4380   25.8621  -29.8247 H   0  0  0  0  0  0  0  0  0  0  0  0
  1  2  1  0
  2  3  1  0
  3  4  2  0
  4  5  1  0
  5  6  1  0
  6  7  2  0
  7  8  1  0
  8  9  2  0
  9 10  1  0
 10 11  1  0
 11 12  2  0
 12 13  1  0
 13 14  2  0
 14 15  1  0
 15 16  1  0
 16 17  1  0
 17 18  1  0
 18 19  1  0
 19 20  1  0
 18 21  1  0
 21 22  1  0
 21 23  1  0
 23 24  1  0
 23 25  1  0
 25 26  1  0
 15 27  2  0
  9 28  1  0
  5 29  2  0
 29 30  1  0
 30 31  1  0
 31 32  2  0
 31 33  2  0
 31 34  1  0
 34 35  1  0
 35 36  1  0
 36 37  1  0
 37 38  1  0
 37 39  1  0
 39 40  1  0
 30 41  2  0
 41 42  1  0
 42 43  1  0
 41  3  1  0
 28  6  1  0
 40 34  1  0
 27 11  1  0
 25 16  1  0
  1 44  1  0
  1 45  1  0
  1 46  1  0
  4 47  1  0
 10 48  1  0
 10 49  1  0
 12 50  1  0
 13 51  1  0
 14 52  1  0
 16 53  1  1
 18 54  1  6
 19 55  1  0
 19 56  1  0
 20 57  1  0
 21 58  1  6
 22 59  1  0
 23 60  1  6
 24 61  1  0
 25 62  1  1
 26 63  1  0
 27 64  1  0
 29 65  1  0
 35 66  1  0
 35 67  1  0
 36 68  1  0
 36 69  1  0
 37 70  1  0
 38 71  1  0
 38 72  1  0
 38 73  1  0
 39 74  1  0
 39 75  1  0
 40 76  1  0
 40 77  1  0
 43 78  1  0
 43 79  1  0
 43 80  1  0
M  CHG  1  37   1
M  END
>  <UniqueID>  (2) 
2

>  <SMILES>  (2) 
COc1cc(-c2nnc(Cc3cccc([C@H]4O[C@H](CO)C(O)C(O)C4O)c3)o2)cc(S(=O)(=O)N2CC[NH+](C)CC2)c1OC

>  <Energy>  (2) 
144.7467682610172

>  <Genealogy>  (2) 
COc1cc(-c2nnc(Cc3cccc(C4OC(CO)C(O)C(O)C4O)c3)o2)cc(S(=O)(=O)N2CC[NH+](C)CC2)c1OC (protonated)
COc1cc(-c2nnc(Cc3cccc([C@H]4O[C@H](CO)C(O)C(O)C4O)c3)o2)cc(S(=O)(=O)N2CC[NH+](C)CC2)c1OC (chirality)
COc1cc(-c2nnc(Cc3cccc([C@H]4O[C@H](CO)C(O)C(O)C4O)c3)o2)cc(S(=O)(=O)N2CC[NH+](C)CC2)c1OC (3D coordinates assigned)
COc1cc(-c2nnc(Cc3cccc([C@H]4O[C@H](CO)C(O)C(O)C4O)c3)o2)cc(S(=O)(=O)N2CC[NH+](C)CC2)c1OC (nonaromatic ring conformer: 144.7467682610172 kcal/mol)

>  <smiles>  (2) 
COc1cc(-c2nnc(Cc3cccc(C4OC(CO)C(O)C(O)C4O)c3)o2)cc(S(=O)(=O)N2CCN(C)CC2)c1OC

>  <score_type>  (2) 
oracle

>  <origin>  (2) 
adgpu

>  <m_score__min__energy>  (2) 
-10.69

>  <m_primary>  (2) 
energy

$$$$
2:0
     RDKit          3D

 47 50  0  0  0  0  0  0  0  0999 V2000
   -2.7930   21.8950  -33.0730 O   0  0  0  0  0  0  0  0  0  0  0  0
   -3.1500   22.4050  -31.9780 C   0  0  0  0  0  0  0  0  0  0  0  0
   -2.1820   22.5280  -30.9290 N   0  0  0  0  0  0  0  0  0  0  0  0
   -1.7240   21.4650  -30.0780 C   0  0  0  0  0  0  0  0  0  0  0  0
   -1.8490   21.5430  -28.6810 C   0  0  0  0  0  0  0  0  0  0  0  0
   -1.3520   20.5550  -27.8930 N   0  0  0  0  0  0  0  0  0  0  0  0
   -0.7160   19.4750  -28.4160 C   0  0  0  0  0  0  0  0  0  0  0  0
   -0.5510   19.3620  -29.7970 C   0  0  0  0  0  0  0  0  0  0  0  0
   -1.0560   20.3630  -30.6380 C   0  0  0  0  0  0  0  0  0  0  0  0
   -0.9070   20.2420  -32.0610 N   0  0  0  0  0  0  0  0  0  0  0  0
   -1.7750   19.3100  -32.7890 C   0  0  0  0  0  0  0  0  0  0  0  0
   -1.4730   19.3460  -34.2900 C   0  0  0  0  0  0  0  0  0  0  0  0
   -1.2530   20.7310  -34.7240 N   0  0  0  0  0  0  0  0  0  0  0  0
   -0.0340   21.3210  -34.1290 C   0  0  0  0  0  0  0  0  0  0  0  0
    0.2860   20.7910  -32.7130 C   0  0  0  0  0  0  0  0  0  0  0  0
   -4.5740   22.7330  -31.7480 C   0  0  0  0  0  0  0  0  0  0  0  0
   -4.8540   23.9500  -31.2120 N   0  0  0  0  0  0  0  0  0  0  0  0
   -6.1150   24.3460  -30.9220 C   0  0  0  0  0  0  0  0  0  0  0  0
   -7.1890   23.4960  -31.1600 C   0  0  0  0  0  0  0  0  0  0  0  0
   -6.9740   22.2240  -31.7270 C   0  0  0  0  0  0  0  0  0  0  0  0
   -8.0520   21.3330  -32.0010 C   0  0  0  0  0  0  0  0  0  0  0  0
   -9.4930   21.6830  -31.6640 C   0  0  0  0  0  0  0  0  0  0  0  0
  -10.3500   20.8160  -32.3180 F   0  0  0  0  0  0  0  0  0  0  0  0
   -9.6900   21.5870  -30.2980 F   0  0  0  0  0  0  0  0  0  0  0  0
   -9.8170   22.9720  -32.0520 F   0  0  0  0  0  0  0  0  0  0  0  0
   -7.7730   20.0960  -32.6120 C   0  0  0  0  0  0  0  0  0  0  0  0
   -6.4710   19.7430  -32.9500 C   0  0  0  0  0  0  0  0  0  0  0  0
   -5.4130   20.6010  -32.6750 C   0  0  0  0  0  0  0  0  0  0  0  0
   -5.6380   21.8390  -32.0420 C   0  0  0  0  0  0  0  0  0  0  0  0
   -2.3515   22.4079  -28.2235 H   0  0  0  0  0  0  0  0  0  0  0  0
   -0.3306   18.6886  -27.7504 H   0  0  0  0  0  0  0  0  0  0  0  0
   -0.0280   18.4930  -30.2228 H   0  0  0  0  0  0  0  0  0  0  0  0
   -1.6067   18.2906  -32.4115 H   0  0  0  0  0  0  0  0  0  0  0  0
   -2.8223   19.6079  -32.6326 H   0  0  0  0  0  0  0  0  0  0  0  0
   -0.5698   18.7522  -34.4944 H   0  0  0  0  0  0  0  0  0  0  0  0
   -2.3276   18.9261  -34.8408 H   0  0  0  0  0  0  0  0  0  0  0  0
   -1.1640   20.7490  -35.7660 H   0  0  0  0  0  0  0  0  0  0  0  0
   -2.0860   21.3120  -34.4640 H   0  0  0  0  0  0  0  0  0  0  0  0
    0.8183   21.0929  -34.7859 H   0  0  0  0  0  0  0  0  0  0  0  0
   -0.2137   22.4021  -34.0343 H   0  0  0  0  0  0  0  0  0  0  0  0
    1.0463   19.9999  -32.7911 H   0  0  0  0  0  0  0  0  0  0  0  0
    0.6547   21.6309  -32.1059 H   0  0  0  0  0  0  0  0  0  0  0  0
   -6.2910   25.3448  -30.4961 H   0  0  0  0  0  0  0  0  0  0  0  0
   -8.2096   23.8173  -30.9050 H   0  0  0  0  0  0  0  0  0  0  0  0
   -8.5965   19.3986  -32.8252 H   0  0  0  0  0  0  0  0  0  0  0  0
   -6.2771   18.7769  -33.4389 H   0  0  0  0  0  0  0  0  0  0  0  0
   -4.3895   20.3104  -32.9545 H   0  0  0  0  0  0  0  0  0  0  0  0
  1  2  2  0
  2  3  1  0
  3  4  1  0
  4  5  2  0
  5  6  1  0
  6  7  2  0
  7  8  1  0
  8  9  2  0
  9 10  1  0
 10 11  1  0
 11 12  1  0
 12 13  1  0
 13 14  1  0
 14 15  1  0
  2 16  1  0
 16 17  2  0
 17 18  1  0
 18 19  2  0
 19 20  1  0
 20 21  2  0
 21 22  1  0
 22 23  1  0
 22 24  1  0
 22 25  1  0
 21 26  1  0
 26 27  2  0
 27 28  1  0
 28 29  2  0
  9  4  1  0
 15 10  1  0
 29 16  1  0
 29 20  1  0
  5 30  1  0
  7 31  1  0
  8 32  1  0
 11 33  1  0
 11 34  1  0
 12 35  1  0
 12 36  1  0
 13 37  1  0
 13 38  1  0
 14 39  1  0
 14 40  1  0
 15 41  1  0
 15 42  1  0
 18 43  1  0
 19 44  1  0
 26 45  1  0
 27 46  1  0
 28 47  1  0
M  CHG  2   3  -1  13   1
M  END
>  <UniqueID>  (3) 
3

>  <SMILES>  (3) 
O=C([N-]c1cnccc1N1CC[NH2+]CC1)c1nccc2c(C(F)(F)F)cccc12

>  <Energy>  (3) 
78.5715820212932

>  <Genealogy>  (3) 
O=C([N-]c1cnccc1N1CC[NH2+]CC1)c1nccc2c(C(F)(F)F)cccc12 (protonated)
O=C([N-]c1cnccc1N1CC[NH2+]CC1)c1nccc2c(C(F)(F)F)cccc12 (3D coordinates assigned)
O=C([N-]c1cnccc1N1CC[NH2+]CC1)c1nccc2c(C(F)(F)F)cccc12 (nonaromatic ring conformer: 78.5715820212932 kcal/mol)

>  <smiles>  (3) 
O=C(Nc1cnccc1N1CCNCC1)c1nccc2c(C(F)(F)F)cccc12

>  <score_type>  (3) 
oracle

>  <origin>  (3) 
adgpu

>  <m_score__min__energy>  (3) 
-8.3300000000000001

>  <m_primary>  (3) 
energy

$$$$
3:0
     RDKit          3D

 40 42  0  0  0  0  0  0  0  0999 V2000
   -1.1000   20.0230  -29.7970 C   0  0  0  0  0  0  0  0  0  0  0  0
   -1.7970   21.3390  -30.0300 C   0  0  0  0  0  0  0  0  0  0  0  0
   -1.7400   22.3190  -29.0260 C   0  0  0  0  0  0  0  0  0  0  0  0
   -2.3950   23.5400  -29.1840 C   0  0  0  0  0  0  0  0  0  0  0  0
   -3.1380   23.8010  -30.3360 C   0  0  0  0  0  0  0  0  0  0  0  0
   -3.7820   25.0780  -30.4640 N   0  0  0  0  0  0  0  0  0  0  0  0
   -5.1950   25.3190  -30.5200 C   0  0  0  0  0  0  0  0  0  0  0  0
   -5.6420   26.4910  -30.3950 O   0  0  0  0  0  0  0  0  0  0  0  0
   -6.1270   24.1970  -30.7810 C   0  0  0  0  0  0  0  0  0  0  0  0
   -6.4240   23.8050  -32.0980 C   0  0  0  0  0  0  0  0  0  0  0  0
   -7.3060   22.7460  -32.3230 C   0  0  0  0  0  0  0  0  0  0  0  0
   -7.8770   22.0980  -31.2740 N   0  0  0  0  0  0  0  0  0  0  0  0
   -7.6130   22.4530  -29.9890 C   0  0  0  0  0  0  0  0  0  0  0  0
   -6.7360   23.5070  -29.7190 C   0  0  0  0  0  0  0  0  0  0  0  0
   -3.1890   22.8370  -31.3550 C   0  0  0  0  0  0  0  0  0  0  0  0
   -2.5370   21.6010  -31.2100 C   0  0  0  0  0  0  0  0  0  0  0  0
   -2.6650   20.4120  -32.5200 S   0  0  0  0  0  0  0  0  0  0  0  0
   -1.7040   19.2860  -32.2550 O   0  0  0  0  0  0  0  0  0  0  0  0
   -2.3080   21.0390  -33.8390 O   0  0  0  0  0  0  0  0  0  0  0  0
   -4.3160   19.8110  -32.6310 C   0  0  0  0  0  0  0  0  0  0  0  0
   -5.1790   19.8770  -31.5270 C   0  0  0  0  0  0  0  0  0  0  0  0
   -6.4930   19.4080  -31.6340 C   0  0  0  0  0  0  0  0  0  0  0  0
   -6.9480   18.8710  -32.8420 C   0  0  0  0  0  0  0  0  0  0  0  0
   -6.0910   18.8030  -33.9440 C   0  0  0  0  0  0  0  0  0  0  0  0
   -4.7780   19.2710  -33.8400 C   0  0  0  0  0  0  0  0  0  0  0  0
   -1.0055   19.8445  -28.7157 H   0  0  0  0  0  0  0  0  0  0  0  0
   -1.6866   19.2117  -30.2526 H   0  0  0  0  0  0  0  0  0  0  0  0
   -0.0992   20.0524  -30.2526 H   0  0  0  0  0  0  0  0  0  0  0  0
   -1.1724   22.1214  -28.1047 H   0  0  0  0  0  0  0  0  0  0  0  0
   -2.3254   24.3030  -28.3947 H   0  0  0  0  0  0  0  0  0  0  0  0
   -5.9635   24.3303  -32.9477 H   0  0  0  0  0  0  0  0  0  0  0  0
   -7.5392   22.4356  -33.3522 H   0  0  0  0  0  0  0  0  0  0  0  0
   -8.0904   21.9098  -29.1601 H   0  0  0  0  0  0  0  0  0  0  0  0
   -6.5232   23.7955  -28.6790 H   0  0  0  0  0  0  0  0  0  0  0  0
   -3.7464   23.0520  -32.2786 H   0  0  0  0  0  0  0  0  0  0  0  0
   -4.8221   20.2982  -30.5756 H   0  0  0  0  0  0  0  0  0  0  0  0
   -7.1682   19.4618  -30.7673 H   0  0  0  0  0  0  0  0  0  0  0  0
   -7.9809   18.5019  -32.9252 H   0  0  0  0  0  0  0  0  0  0  0  0
   -6.4502   18.3808  -34.8941 H   0  0  0  0  0  0  0  0  0  0  0  0
   -4.1054   19.2156  -34.7086 H   0  0  0  0  0  0  0  0  0  0  0  0
  1  2  1  0
  2  3  2  0
  3  4  1  0
  4  5  2  0
  5  6  1  0
  6  7  1  0
  7  8  2  0
  7  9  1  0
  9 10  2  0
 10 11  1  0
 11 12  2  0
 12 13  1  0
 13 14  2  0
  5 15  1  0
 15 16  2  0
 16 17  1  0
 17 18  2  0
 17 19  2  0
 17 20  1  0
 20 21  2  0
 21 22  1  0
 22 23  2  0
 23 24  1  0
 24 25  2  0
 16  2  1  0
 25 20  1  0
 14  9  1  0
  1 26  1  0
  1 27  1  0
  1 28  1  0
  3 29  1  0
  4 30  1  0
 10 31  1  0
 11 32  1  0
 13 33  1  0
 14 34  1  0
 15 35  1  0
 21 36  1  0
 22 37  1  0
 23 38  1  0
 24 39  1  0
 25 40  1  0
M  CHG  1   6  -1
M  END
>  <UniqueID>  (4) 
4

>  <SMILES>  (4) 
Cc1ccc([N-]C(=O)c2ccncc2)cc1S(=O)(=O)c1ccccc1

>  <Energy>  (4) 
51.046565370155264

>  <Genealogy>  (4) 
Cc1ccc([N-]C(=O)c2ccncc2)cc1S(=O)(=O)c1ccccc1 (protonated)
Cc1ccc([N-]C(=O)c2ccncc2)cc1S(=O)(=O)c1ccccc1 (3D coordinates assigned)
Cc1ccc([N-]C(=O)c2ccncc2)cc1S(=O)(=O)c1ccccc1 (optimized conformer: 51.046565370155264 kcal/mol)

>  <smiles>  (4) 
Cc1ccc(NC(=O)c2ccncc2)cc1S(=O)(=O)c1ccccc1

>  <score_type>  (4) 
oracle

>  <origin>  (4) 
adgpu

>  <m_score__min__energy>  (4) 
-9.8699999999999992

>  <m_primary>  (4) 
energy

$$$$
4:0
     RDKit          3D

 50 53  0  0  0  0  0  0  0  0999 V2000
   -9.4320   19.8930  -32.7130 C   0  0  0  0  0  0  0  0  0  0  0  0
   -8.1900   20.6100  -32.3690 N   0  0  0  0  0  0  0  0  0  0  0  0
   -6.9860   20.0760  -32.7340 C   0  0  0  0  0  0  0  0  0  0  0  0
   -5.7760   20.7200  -32.4310 C   0  0  0  0  0  0  0  0  0  0  0  0
   -4.5110   20.0830  -32.8840 C   0  0  0  0  0  0  0  0  0  0  0  0
   -4.5080   19.4020  -33.9470 O   0  0  0  0  0  0  0  0  0  0  0  0
   -3.3120   20.1250  -32.0850 N   0  0  0  0  0  0  0  0  0  0  0  0
   -1.9860   20.3950  -32.5690 C   0  0  0  0  0  0  0  0  0  0  0  0
   -0.8930   19.8920  -31.8590 C   0  0  0  0  0  0  0  0  0  0  0  0
    0.4100   20.1580  -32.2910 C   0  0  0  0  0  0  0  0  0  0  0  0
    0.6260   20.9080  -33.4510 C   0  0  0  0  0  0  0  0  0  0  0  0
   -0.4620   21.3850  -34.1850 C   0  0  0  0  0  0  0  0  0  0  0  0
   -1.7660   21.1210  -33.7550 C   0  0  0  0  0  0  0  0  0  0  0  0
   -5.8090   21.9600  -31.7450 C   0  0  0  0  0  0  0  0  0  0  0  0
   -4.6290   22.6470  -31.3710 C   0  0  0  0  0  0  0  0  0  0  0  0
   -4.6950   23.9080  -30.7490 C   0  0  0  0  0  0  0  0  0  0  0  0
   -3.5170   24.6800  -30.4430 N   0  0  0  0  0  0  0  0  0  0  0  0
   -2.6250   24.6290  -28.9520 S   0  0  0  0  0  0  0  0  0  0  0  0
   -1.5490   25.6810  -28.9950 O   0  0  0  0  0  0  0  0  0  0  0  0
   -3.5220   24.8820  -27.7690 O   0  0  0  0  0  0  0  0  0  0  0  0
   -1.9160   23.0150  -28.7700 C   0  0  0  0  0  0  0  0  0  0  0  0
   -2.6860   21.8910  -29.1340 C   0  0  0  0  0  0  0  0  0  0  0  0
   -2.1730   20.5960  -28.9850 C   0  0  0  0  0  0  0  0  0  0  0  0
   -0.8870   20.4050  -28.4680 C   0  0  0  0  0  0  0  0  0  0  0  0
   -0.3850   19.1410  -28.3370 F   0  0  0  0  0  0  0  0  0  0  0  0
   -0.1120   21.5050  -28.0960 C   0  0  0  0  0  0  0  0  0  0  0  0
   -0.6080   22.8200  -28.2420 C   0  0  0  0  0  0  0  0  0  0  0  0
    0.2290   23.9200  -27.8380 N   0  0  0  0  0  0  0  0  0  0  0  0
    1.1450   24.3260  -28.5820 O   0  0  0  0  0  0  0  0  0  0  0  0
    0.1860   24.3630  -26.5310 O   0  0  0  0  0  0  0  0  0  0  0  0
   -5.9420   24.4430  -30.4130 C   0  0  0  0  0  0  0  0  0  0  0  0
   -7.1180   23.7570  -30.7280 C   0  0  0  0  0  0  0  0  0  0  0  0
   -7.0680   22.5190  -31.4000 C   0  0  0  0  0  0  0  0  0  0  0  0
   -8.2510   21.8200  -31.7250 C   0  0  0  0  0  0  0  0  0  0  0  0
   -9.3780   22.3120  -31.4180 O   0  0  0  0  0  0  0  0  0  0  0  0
   -9.9503   19.5938  -31.7900 H   0  0  0  0  0  0  0  0  0  0  0  0
  -10.0851   20.5530  -33.3028 H   0  0  0  0  0  0  0  0  0  0  0  0
   -9.1870   18.9974  -33.3028 H   0  0  0  0  0  0  0  0  0  0  0  0
   -6.9646   19.1199  -33.2775 H   0  0  0  0  0  0  0  0  0  0  0  0
   -1.0580   19.2845  -30.9569 H   0  0  0  0  0  0  0  0  0  0  0  0
    1.2671   19.7763  -31.7168 H   0  0  0  0  0  0  0  0  0  0  0  0
    1.6519   21.1221  -33.7851 H   0  0  0  0  0  0  0  0  0  0  0  0
   -0.2931   21.9687  -35.1019 H   0  0  0  0  0  0  0  0  0  0  0  0
   -2.6218   21.4813  -34.3446 H   0  0  0  0  0  0  0  0  0  0  0  0
   -3.6484   22.1897  -31.5689 H   0  0  0  0  0  0  0  0  0  0  0  0
   -3.6990   22.0325  -29.5387 H   0  0  0  0  0  0  0  0  0  0  0  0
   -2.7825   19.7275  -29.2751 H   0  0  0  0  0  0  0  0  0  0  0  0
    0.8958   21.3463  -27.6847 H   0  0  0  0  0  0  0  0  0  0  0  0
   -5.9980   25.4124  -29.8962 H   0  0  0  0  0  0  0  0  0  0  0  0
   -8.0913   24.1869  -30.4491 H   0  0  0  0  0  0  0  0  0  0  0  0
  1  2  1  0
  2  3  1  0
  3  4  2  0
  4  5  1  0
  5  6  2  0
  5  7  1  0
  7  8  1  0
  8  9  2  0
  9 10  1  0
 10 11  2  0
 11 12  1  0
 12 13  2  0
  4 14  1  0
 14 15  2  0
 15 16  1  0
 16 17  1  0
 17 18  1  0
 18 19  2  0
 18 20  2  0
 18 21  1  0
 21 22  2  0
 22 23  1  0
 23 24  2  0
 24 25  1  0
 24 26  1  0
 26 27  2  0
 27 28  1  0
 28 29  2  0
 28 30  1  0
 16 31  2  0
 31 32  1  0
 32 33  2  0
 33 34  1  0
 34 35  2  0
 34  2  1  0
 13  8  1  0
 33 14  1  0
 27 21  1  0
  1 36  1  0
  1 37  1  0
  1 38  1  0
  3 39  1  0
  9 40  1  0
 10 41  1  0
 11 42  1  0
 12 43  1  0
 13 44  1  0
 15 45  1  0
 22 46  1  0
 23 47  1  0
 26 48  1  0
 31 49  1  0
 32 50  1  0
M  CHG  4   7  -1  17  -1  28   1  30  -1
M  END
>  <UniqueID>  (5) 
5

>  <SMILES>  (5) 
Cn1cc(C(=O)[N-]c2ccccc2)c2cc([N-]S(=O)(=O)c3ccc(F)cc3[N+](=O)[O-])ccc2c1=O

>  <Energy>  (5) 
84.72064014015487

>  <Genealogy>  (5) 
Cn1cc(C(=O)[N-]c2ccccc2)c2cc([N-]S(=O)(=O)c3ccc(F)cc3[N+](=O)[O-])ccc2c1=O (protonated)
Cn1cc(C(=O)[N-]c2ccccc2)c2cc([N-]S(=O)(=O)c3ccc(F)cc3[N+](=O)[O-])ccc2c1=O (3D coordinates assigned)
Cn1cc(C(=O)[N-]c2ccccc2)c2cc([N-]S(=O)(=O)c3ccc(F)cc3[N+](=O)[O-])ccc2c1=O (optimized conformer: 84.72064014015487 kcal/mol)

>  <smiles>  (5) 
Cn1cc(C(=O)Nc2ccccc2)c2cc(NS(=O)(=O)c3ccc(F)cc3[N+](=O)[O-])ccc2c1=O

>  <score_type>  (5) 
oracle

>  <origin>  (5) 
adgpu

>  <m_score__min__energy>  (5) 
-11.449999999999999

>  <m_primary>  (5) 
energy

$$$$
5:0
     RDKit          3D

 37 39  0  0  0  0  0  0  0  0999 V2000
   -2.5960   22.5940  -29.5030 O   0  0  0  0  0  0  0  0  0  0  0  0
   -3.4420   22.4070  -30.4200 C   0  0  0  0  0  0  0  0  0  0  0  0
   -4.7050   23.1910  -30.4110 C   0  0  0  0  0  0  0  0  0  0  0  0
   -5.9470   22.5290  -30.3660 C   0  0  0  0  0  0  0  0  0  0  0  0
   -7.1400   23.2580  -30.3530 C   0  0  0  0  0  0  0  0  0  0  0  0
   -7.1080   24.6530  -30.3740 C   0  0  0  0  0  0  0  0  0  0  0  0
   -5.8840   25.3230  -30.4070 C   0  0  0  0  0  0  0  0  0  0  0  0
   -4.6840   24.6030  -30.4260 C   0  0  0  0  0  0  0  0  0  0  0  0
   -3.4810   25.2980  -30.4760 O   0  0  0  0  0  0  0  0  0  0  0  0
   -3.1540   21.4030  -31.4770 C   0  0  0  0  0  0  0  0  0  0  0  0
   -4.1900   20.8880  -32.2650 C   0  0  0  0  0  0  0  0  0  0  0  0
   -3.9460   19.9390  -33.2160 N   0  0  0  0  0  0  0  0  0  0  0  0
   -5.0840   19.3620  -33.9500 C   0  0  0  0  0  0  0  0  0  0  0  0
   -6.3220   19.4000  -33.0930 C   0  0  0  0  0  0  0  0  0  0  0  0
   -6.6920   18.2750  -32.3350 C   0  0  0  0  0  0  0  0  0  0  0  0
   -7.8690   18.2900  -31.5810 C   0  0  0  0  0  0  0  0  0  0  0  0
   -8.6870   19.4240  -31.5820 C   0  0  0  0  0  0  0  0  0  0  0  0
   -8.3300   20.5420  -32.3410 C   0  0  0  0  0  0  0  0  0  0  0  0
   -7.1550   20.5300  -33.0980 C   0  0  0  0  0  0  0  0  0  0  0  0
   -2.6660   19.4940  -33.4200 C   0  0  0  0  0  0  0  0  0  0  0  0
   -2.4240   18.6080  -34.2850 O   0  0  0  0  0  0  0  0  0  0  0  0
   -1.6390   20.0070  -32.6910 N   0  0  0  0  0  0  0  0  0  0  0  0
   -1.8520   20.9430  -31.7280 C   0  0  0  0  0  0  0  0  0  0  0  0
   -0.8760   21.3740  -31.0560 O   0  0  0  0  0  0  0  0  0  0  0  0
   -5.9789   21.4297  -30.3409 H   0  0  0  0  0  0  0  0  0  0  0  0
   -8.1053   22.7312  -30.3262 H   0  0  0  0  0  0  0  0  0  0  0  0
   -8.0477   25.2247  -30.3645 H   0  0  0  0  0  0  0  0  0  0  0  0
   -5.8624   26.4227  -30.4181 H   0  0  0  0  0  0  0  0  0  0  0  0
   -5.2167   21.2535  -32.1158 H   0  0  0  0  0  0  0  0  0  0  0  0
   -5.2581   19.9432  -34.8676 H   0  0  0  0  0  0  0  0  0  0  0  0
   -4.8552   18.3174  -34.2079 H   0  0  0  0  0  0  0  0  0  0  0  0
   -6.0529   17.3797  -32.3353 H   0  0  0  0  0  0  0  0  0  0  0  0
   -8.1519   17.4089  -30.9864 H   0  0  0  0  0  0  0  0  0  0  0  0
   -9.6112   19.4362  -30.9856 H   0  0  0  0  0  0  0  0  0  0  0  0
   -8.9750   21.4331  -32.3426 H   0  0  0  0  0  0  0  0  0  0  0  0
   -6.8820   21.4093  -33.6999 H   0  0  0  0  0  0  0  0  0  0  0  0
   -0.6660   19.6630  -32.8630 H   0  0  0  0  0  0  0  0  0  0  0  0
  1  2  2  0
  2  3  1  0
  3  4  2  0
  4  5  1  0
  5  6  2  0
  6  7  1  0
  7  8  2  0
  8  9  1  0
  2 10  1  0
 10 11  2  0
 11 12  1  0
 12 13  1  0
 13 14  1  0
 14 15  2  0
 15 16  1  0
 16 17  2  0
 17 18  1  0
 18 19  2  0
 12 20  1  0
 20 21  2  0
 20 22  1  0
 22 23  1  0
 23 24  2  0
  8  3  1  0
 23 10  1  0
 19 14  1  0
  4 25  1  0
  5 26  1  0
  6 27  1  0
  7 28  1  0
 11 29  1  0
 13 30  1  0
 13 31  1  0
 15 32  1  0
 16 33  1  0
 17 34  1  0
 18 35  1  0
 19 36  1  0
 22 37  1  0
M  CHG  1   9  -1
M  END
>  <UniqueID>  (6) 
6

>  <SMILES>  (6) 
O=C(c1ccccc1[O-])c1cn(Cc2ccccc2)c(=O)[nH]c1=O

>  <Energy>  (6) 
49.2742232618546

>  <Genealogy>  (6) 
O=C(c1ccccc1[O-])c1cn(Cc2ccccc2)c(=O)[nH]c1=O (protonated)
O=C(c1ccccc1[O-])c1cn(Cc2ccccc2)c(=O)[nH]c1=O (3D coordinates assigned)
O=C(c1ccccc1[O-])c1cn(Cc2ccccc2)c(=O)[nH]c1=O (optimized conformer: 49.2742232618546 kcal/mol)

>  <smiles>  (6) 
O=C(c1ccccc1O)c1cn(Cc2ccccc2)c(=O)[nH]c1=O

>  <score_type>  (6) 
oracle

>  <origin>  (6) 
adgpu

>  <m_score__min__energy>  (6) 
-11.699999999999999

>  <m_primary>  (6) 
energy

$$$$
6:0
     RDKit          3D

 58 61  0  0  0  0  0  0  0  0999 V2000
   -5.0760   24.8300  -28.3280 O   0  0  0  0  0  0  0  0  0  0  0  0
   -5.0870   24.9270  -29.8280 S   0  0  0  0  0  0  0  0  0  0  0  0
   -5.7930   26.1960  -30.2120 O   0  0  0  0  0  0  0  0  0  0  0  0
   -3.4460   24.9090  -30.3930 N   0  0  0  0  0  0  0  0  0  0  0  0
   -2.3570   24.2660  -29.7210 C   0  0  0  0  0  0  0  0  0  0  0  0
   -2.1610   22.8780  -29.8050 C   0  0  0  0  0  0  0  0  0  0  0  0
   -1.0830   22.2700  -29.1460 C   0  0  0  0  0  0  0  0  0  0  0  0
   -0.8460   20.5230  -29.2580 S   0  0  0  0  0  0  0  0  0  0  0  0
    0.0280   20.0690  -28.1220 O   0  0  0  0  0  0  0  0  0  0  0  0
   -2.1760   19.8340  -29.1250 O   0  0  0  0  0  0  0  0  0  0  0  0
   -0.1120   20.0660  -30.7770 N   0  0  0  0  0  0  0  0  0  0  0  0
   -0.6830   20.8550  -31.8850 C   0  0  0  0  0  0  0  0  0  0  0  0
   -0.4450   20.1500  -33.2300 C   0  0  0  0  0  0  0  0  0  0  0  0
   -1.0250   18.8540  -33.3170 O   0  0  0  0  0  0  0  0  0  0  0  0
   -1.2520   18.2410  -32.0550 C   0  0  0  0  0  0  0  0  0  0  0  0
   -0.1890   18.6060  -31.0020 C   0  0  0  0  0  0  0  0  0  0  0  0
   -0.1840   23.0620  -28.4180 C   0  0  0  0  0  0  0  0  0  0  0  0
   -0.3560   24.4460  -28.3590 C   0  0  0  0  0  0  0  0  0  0  0  0
   -1.4360   25.0500  -29.0110 C   0  0  0  0  0  0  0  0  0  0  0  0
   -1.5980   26.4280  -28.9380 O   0  0  0  0  0  0  0  0  0  0  0  0
   -5.9370   23.5500  -30.5180 C   0  0  0  0  0  0  0  0  0  0  0  0
   -7.3180   23.3960  -30.3340 C   0  0  0  0  0  0  0  0  0  0  0  0
   -7.9730   22.2740  -30.8480 C   0  0  0  0  0  0  0  0  0  0  0  0
   -7.2550   21.2980  -31.5440 C   0  0  0  0  0  0  0  0  0  0  0  0
   -7.9070   20.2030  -32.0100 F   0  0  0  0  0  0  0  0  0  0  0  0
   -5.8730   21.4480  -31.7410 C   0  0  0  0  0  0  0  0  0  0  0  0
   -4.9530   20.1980  -32.5810 S   0  0  0  0  0  0  0  0  0  0  0  0
   -3.8920   19.6530  -31.6670 O   0  0  0  0  0  0  0  0  0  0  0  0
   -4.2740   20.8180  -33.7700 O   0  0  0  0  0  0  0  0  0  0  0  0
   -6.0170   18.9160  -33.1240 N   0  0  0  0  0  0  0  0  0  0  0  0
   -5.6500   17.6120  -32.5430 C   0  0  0  0  0  0  0  0  0  0  0  0
   -4.3610   17.0340  -33.1720 C   0  0  0  0  0  0  0  0  0  0  0  0
   -4.0410   17.5940  -34.4350 O   0  0  0  0  0  0  0  0  0  0  0  0
   -5.2070   17.7620  -35.2080 C   0  0  0  0  0  0  0  0  0  0  0  0
   -6.0980   18.8630  -34.6020 C   0  0  0  0  0  0  0  0  0  0  0  0
   -5.2190   22.5760  -31.2230 C   0  0  0  0  0  0  0  0  0  0  0  0
   -2.8586   22.2629  -30.3924 H   0  0  0  0  0  0  0  0  0  0  0  0
   -1.7649   20.9726  -31.7250 H   0  0  0  0  0  0  0  0  0  0  0  0
   -0.1926   21.8394  -31.9089 H   0  0  0  0  0  0  0  0  0  0  0  0
   -0.8733   20.7744  -34.0279 H   0  0  0  0  0  0  0  0  0  0  0  0
    0.6424   20.0183  -33.3311 H   0  0  0  0  0  0  0  0  0  0  0  0
   -2.2365   18.5611  -31.6831 H   0  0  0  0  0  0  0  0  0  0  0  0
   -1.2008   17.1527  -32.2068 H   0  0  0  0  0  0  0  0  0  0  0  0
   -0.4454   18.1132  -30.0526 H   0  0  0  0  0  0  0  0  0  0  0  0
    0.7891   18.2670  -31.3741 H   0  0  0  0  0  0  0  0  0  0  0  0
    0.6595   22.5914  -27.8917 H   0  0  0  0  0  0  0  0  0  0  0  0
    0.3604   25.0638  -27.7977 H   0  0  0  0  0  0  0  0  0  0  0  0
   -7.8871   24.1599  -29.7839 H   0  0  0  0  0  0  0  0  0  0  0  0
   -9.0575   22.1586  -30.7043 H   0  0  0  0  0  0  0  0  0  0  0  0
   -5.4908   17.7381  -31.4619 H   0  0  0  0  0  0  0  0  0  0  0  0
   -6.4704   16.9083  -32.7476 H   0  0  0  0  0  0  0  0  0  0  0  0
   -3.5235   17.2257  -32.4851 H   0  0  0  0  0  0  0  0  0  0  0  0
   -4.5358   15.9599  -33.3322 H   0  0  0  0  0  0  0  0  0  0  0  0
   -4.9250   18.0467  -36.2324 H   0  0  0  0  0  0  0  0  0  0  0  0
   -5.7672   16.8154  -35.2198 H   0  0  0  0  0  0  0  0  0  0  0  0
   -5.7802   19.8352  -35.0068 H   0  0  0  0  0  0  0  0  0  0  0  0
   -7.1396   18.6315  -34.8692 H   0  0  0  0  0  0  0  0  0  0  0  0
   -4.1357   22.6961  -31.3715 H   0  0  0  0  0  0  0  0  0  0  0  0
  1  2  2  0
  2  3  2  0
  2  4  1  0
  4  5  1  0
  5  6  2  0
  6  7  1  0
  7  8  1  0
  8  9  2  0
  8 10  2  0
  8 11  1  0
 11 12  1  0
 12 13  1  0
 13 14  1  0
 14 15  1  0
 15 16  1  0
  7 17  2  0
 17 18  1  0
 18 19  2  0
 19 20  1  0
  2 21  1  0
 21 22  2  0
 22 23  1  0
 23 24  2  0
 24 25  1  0
 24 26  1  0
 26 27  1  0
 27 28  2  0
 27 29  2  0
 27 30  1  0
 30 31  1  0
 31 32  1  0
 32 33  1  0
 33 34  1  0
 34 35  1  0
 26 36  2  0
 19  5  1  0
 36 21  1  0
 16 11  1  0
 35 30  1  0
  6 37  1  0
 12 38  1  0
 12 39  1  0
 13 40  1  0
 13 41  1  0
 15 42  1  0
 15 43  1  0
 16 44  1  0
 16 45  1  0
 17 46  1  0
 18 47  1  0
 22 48  1  0
 23 49  1  0
 31 50  1  0
 31 51  1  0
 32 52  1  0
 32 53  1  0
 34 54  1  0
 34 55  1  0
 35 56  1  0
 35 57  1  0
 36 58  1  0
M  CHG  2   4  -1  20  -1
M  END
>  <UniqueID>  (7) 
7

>  <SMILES>  (7) 
O=S(=O)([N-]c1cc(S(=O)(=O)N2CCOCC2)ccc1[O-])c1ccc(F)c(S(=O)(=O)N2CCOCC2)c1

>  <Energy>  (7) 
85.81945146347786

>  <Genealogy>  (7) 
O=S(=O)([N-]c1cc(S(=O)(=O)N2CCOCC2)ccc1[O-])c1ccc(F)c(S(=O)(=O)N2CCOCC2)c1 (protonated)
O=S(=O)([N-]c1cc(S(=O)(=O)N2CCOCC2)ccc1[O-])c1ccc(F)c(S(=O)(=O)N2CCOCC2)c1 (3D coordinates assigned)
O=S(=O)([N-]c1cc(S(=O)(=O)N2CCOCC2)ccc1[O-])c1ccc(F)c(S(=O)(=O)N2CCOCC2)c1 (nonaromatic ring conformer: 85.81945146347786 kcal/mol)

>  <smiles>  (7) 
O=S(=O)(Nc1cc(S(=O)(=O)N2CCOCC2)ccc1O)c1ccc(F)c(S(=O)(=O)N2CCOCC2)c1

>  <score_type>  (7) 
oracle

>  <origin>  (7) 
adgpu

>  <m_score__min__energy>  (7) 
-14.17

>  <m_primary>  (7) 
energy

$$$$
7:0
     RDKit          3D

 44 46  0  0  0  0  0  0  0  0999 V2000
   -7.1350   26.1320  -28.9740 H   0  0  0  0  0  0  0  0  0  0  0  0
   -7.2380   25.4150  -29.7280 N   0  0  0  0  0  0  0  0  0  0  0  0
   -6.2340   24.7360  -30.1920 C   0  0  0  0  0  0  0  0  0  0  0  0
   -4.9450   24.9500  -29.6830 C   0  0  0  0  0  0  0  0  0  0  0  0
   -4.7854   25.6750  -28.8713 H   0  0  0  0  0  0  0  0  0  0  0  0
   -3.8610   24.2370  -30.2120 C   0  0  0  0  0  0  0  0  0  0  0  0
   -2.5280   24.4180  -29.7090 N   0  0  0  0  0  0  0  0  0  0  0  0
   -1.7380   24.1250  -30.3280 H   0  0  0  0  0  0  0  0  0  0  0  0
   -2.2060   24.9820  -28.4260 C   0  0  0  0  0  0  0  0  0  0  0  0
   -1.1360   25.8820  -28.2710 C   0  0  0  0  0  0  0  0  0  0  0  0
   -0.5429   26.1832  -29.1471 H   0  0  0  0  0  0  0  0  0  0  0  0
   -0.8230   26.3950  -27.0100 C   0  0  0  0  0  0  0  0  0  0  0  0
    0.0135   27.1006  -26.8985 H   0  0  0  0  0  0  0  0  0  0  0  0
   -1.5700   26.0150  -25.8850 C   0  0  0  0  0  0  0  0  0  0  0  0
   -1.2050   26.5340  -24.5250 C   0  0  0  0  0  0  0  0  0  0  0  0
   -1.6565   25.8920  -23.7542 H   0  0  0  0  0  0  0  0  0  0  0  0
   -0.1108   26.5285  -24.4120 H   0  0  0  0  0  0  0  0  0  0  0  0
   -1.5802   27.5619  -24.4120 H   0  0  0  0  0  0  0  0  0  0  0  0
   -2.6100   25.0840  -26.0320 C   0  0  0  0  0  0  0  0  0  0  0  0
   -3.1805   24.7566  -25.1503 H   0  0  0  0  0  0  0  0  0  0  0  0
   -2.9240   24.5710  -27.2940 C   0  0  0  0  0  0  0  0  0  0  0  0
   -3.7395   23.8403  -27.3995 H   0  0  0  0  0  0  0  0  0  0  0  0
   -4.0830   23.3020  -31.1710 N   0  0  0  0  0  0  0  0  0  0  0  0
   -5.3190   23.0390  -31.6740 C   0  0  0  0  0  0  0  0  0  0  0  0
   -5.4370   22.0270  -32.6890 N   0  0  0  0  0  0  0  0  0  0  0  0
   -5.0280   22.2350  -33.6270 H   0  0  0  0  0  0  0  0  0  0  0  0
   -6.0450   20.7380  -32.4980 C   0  0  0  0  0  0  0  0  0  0  0  0
   -7.3620   20.6850  -32.0170 C   0  0  0  0  0  0  0  0  0  0  0  0
   -7.9012   21.6188  -31.7996 H   0  0  0  0  0  0  0  0  0  0  0  0
   -7.9940   19.4570  -31.8120 C   0  0  0  0  0  0  0  0  0  0  0  0
   -9.0225   19.4265  -31.4231 H   0  0  0  0  0  0  0  0  0  0  0  0
   -7.3220   18.2680  -32.1000 C   0  0  0  0  0  0  0  0  0  0  0  0
   -7.8168   17.3009  -31.9270 H   0  0  0  0  0  0  0  0  0  0  0  0
   -6.0210   18.3060  -32.6080 C   0  0  0  0  0  0  0  0  0  0  0  0
   -5.4979   17.3669  -32.8415 H   0  0  0  0  0  0  0  0  0  0  0  0
   -5.3780   19.5330  -32.8220 C   0  0  0  0  0  0  0  0  0  0  0  0
   -3.7360   19.5120  -33.5600 S   0  0  0  0  0  0  0  0  0  0  0  0
   -4.0570   18.0080  -34.5320 C   0  0  0  0  0  0  0  0  0  0  0  0
   -4.2373   17.1630  -33.8512 H   0  0  0  0  0  0  0  0  0  0  0  0
   -4.9422   18.1633  -35.1662 H   0  0  0  0  0  0  0  0  0  0  0  0
   -3.1855   17.7883  -35.1662 H   0  0  0  0  0  0  0  0  0  0  0  0
   -6.4300   23.7810  -31.2100 C   0  0  0  0  0  0  0  0  0  0  0  0
   -7.7440   23.6070  -31.7900 C   0  0  0  0  0  0  0  0  0  0  0  0
   -8.7950   23.4690  -32.2540 N   0  0  0  0  0  0  0  0  0  0  0  0
  1  2  1  0
  2  3  2  0
  3  4  1  0
  4  5  1  0
  4  6  2  0
  6  7  1  0
  7  8  1  0
  7  9  1  0
  9 10  2  0
 10 11  1  0
 10 12  1  0
 12 13  1  0
 12 14  2  0
 14 15  1  0
 15 16  1  0
 15 17  1  0
 15 18  1  0
 14 19  1  0
 19 20  1  0
 19 21  2  0
 21 22  1  0
  6 23  1  0
 23 24  1  0
 24 25  1  0
 25 26  1  0
 25 27  1  0
 27 28  2  0
 28 29  1  0
 28 30  1  0
 30 31  1  0
 30 32  2  0
 32 33  1  0
 32 34  1  0
 34 35  1  0
 34 36  2  0
 36 37  1  0
 37 38  1  0
 38 39  1  0
 38 40  1  0
 38 41  1  0
 24 42  2  0
 42 43  1  0
 43 44  3  0
 42  3  1  0
 21  9  1  0
 36 27  1  0
M  CHG  1  23  -1
M  END
>  <UniqueID>  (8) 
8

>  <SMILES>  (8) 
[H]/N=c1\cc(Nc2ccc(C)cc2)[n-]c(Nc2ccccc2SC)c1C#N

>  <Energy>  (8) 
58.045624331752975

>  <Genealogy>  (8) 
CSc1ccccc1Nc1[n-]c(Nc2ccc(C)cc2)cc(=N)c1C#N (protonated)
[H]/N=c1\cc(Nc2ccc(C)cc2)[n-]c(Nc2ccccc2SC)c1C#N (cis-trans isomerization)
[H]/N=c1\cc(Nc2ccc(C)cc2)[n-]c(Nc2ccccc2SC)c1C#N (3D coordinates assigned)
[H]/N=c1\cc(Nc2ccc(C)cc2)[n-]c(Nc2ccccc2SC)c1C#N (optimized conformer: 58.045624331752975 kcal/mol)

>  <smiles>  (8) 
CSc1ccccc1Nc1[nH]c(Nc2ccc(C)cc2)cc(=N)c1C#N

>  <score_type>  (8) 
oracle

>  <origin>  (8) 
adgpu

>  <m_score__min__energy>  (8) 
-10.51

>  <m_primary>  (8) 
energy

$$$$
8:0
     RDKit          3D

 42 44  0  0  0  0  0  0  0  0999 V2000
   -4.0380   25.6410  -30.1780 O   0  0  0  0  0  0  0  0  0  0  0  0
   -3.7490   24.4220  -30.3060 C   0  0  0  0  0  0  0  0  0  0  0  0
   -4.1700   23.7380  -31.4960 N   0  0  0  0  0  0  0  0  0  0  0  0
   -5.4250   23.0700  -31.6940 C   0  0  0  0  0  0  0  0  0  0  0  0
   -6.6020   23.7010  -31.2760 C   0  0  0  0  0  0  0  0  0  0  0  0
   -7.8380   23.0730  -31.4460 C   0  0  0  0  0  0  0  0  0  0  0  0
   -7.9060   21.8030  -32.0240 C   0  0  0  0  0  0  0  0  0  0  0  0
   -6.7330   21.1470  -32.4210 C   0  0  0  0  0  0  0  0  0  0  0  0
   -6.8090   19.5350  -33.1330 S   0  0  0  0  0  0  0  0  0  0  0  0
   -8.1900   18.9730  -32.9360 O   0  0  0  0  0  0  0  0  0  0  0  0
   -6.5700   19.6500  -34.6130 O   0  0  0  0  0  0  0  0  0  0  0  0
   -5.6350   18.4330  -32.4420 N   0  0  0  0  0  0  0  0  0  0  0  0
   -4.3800   18.3870  -33.2170 C   0  0  0  0  0  0  0  0  0  0  0  0
   -4.4600   17.4480  -34.4440 C   0  0  0  0  0  0  0  0  0  0  0  0
   -5.6260   16.6490  -34.4650 O   0  0  0  0  0  0  0  0  0  0  0  0
   -5.8120   16.0440  -33.2070 C   0  0  0  0  0  0  0  0  0  0  0  0
   -6.2000   17.0960  -32.1560 C   0  0  0  0  0  0  0  0  0  0  0  0
   -5.4940   21.7790  -32.2480 C   0  0  0  0  0  0  0  0  0  0  0  0
   -2.9350   23.7510  -29.2630 C   0  0  0  0  0  0  0  0  0  0  0  0
   -3.2300   22.4280  -28.8870 C   0  0  0  0  0  0  0  0  0  0  0  0
   -2.4780   21.7890  -27.8990 C   0  0  0  0  0  0  0  0  0  0  0  0
   -1.4190   22.4570  -27.2820 C   0  0  0  0  0  0  0  0  0  0  0  0
   -1.1080   23.7660  -27.6540 C   0  0  0  0  0  0  0  0  0  0  0  0
   -1.8600   24.4200  -28.6400 C   0  0  0  0  0  0  0  0  0  0  0  0
   -1.5510   25.7360  -28.9890 O   0  0  0  0  0  0  0  0  0  0  0  0
   -6.5536   24.6968  -30.8111 H   0  0  0  0  0  0  0  0  0  0  0  0
   -8.7598   23.5795  -31.1241 H   0  0  0  0  0  0  0  0  0  0  0  0
   -8.8823   21.3169  -32.1678 H   0  0  0  0  0  0  0  0  0  0  0  0
   -4.1476   19.4032  -33.5681 H   0  0  0  0  0  0  0  0  0  0  0  0
   -3.5975   17.9927  -32.5520 H   0  0  0  0  0  0  0  0  0  0  0  0
   -4.4426   18.0634  -35.3556 H   0  0  0  0  0  0  0  0  0  0  0  0
   -3.5996   16.7650  -34.3866 H   0  0  0  0  0  0  0  0  0  0  0  0
   -6.6130   15.2937  -33.2810 H   0  0  0  0  0  0  0  0  0  0  0  0
   -4.8707   15.5647  -32.9000 H   0  0  0  0  0  0  0  0  0  0  0  0
   -7.2967   17.1771  -32.1292 H   0  0  0  0  0  0  0  0  0  0  0  0
   -5.7896   16.7644  -31.1908 H   0  0  0  0  0  0  0  0  0  0  0  0
   -4.5701   21.2623  -32.5472 H   0  0  0  0  0  0  0  0  0  0  0  0
   -4.0585   21.8933  -29.3745 H   0  0  0  0  0  0  0  0  0  0  0  0
   -2.7207   20.7568  -27.6063 H   0  0  0  0  0  0  0  0  0  0  0  0
   -0.8295   21.9519  -26.5026 H   0  0  0  0  0  0  0  0  0  0  0  0
   -0.2684   24.2872  -27.1709 H   0  0  0  0  0  0  0  0  0  0  0  0
   -1.6050   26.0560  -29.9490 H   0  0  0  0  0  0  0  0  0  0  0  0
  1  2  2  0
  2  3  1  0
  3  4  1  0
  4  5  2  0
  5  6  1  0
  6  7  2  0
  7  8  1  0
  8  9  1  0
  9 10  2  0
  9 11  2  0
  9 12  1  0
 12 13  1  0
 13 14  1  0
 14 15  1  0
 15 16  1  0
 16 17  1  0
  8 18  2  0
  2 19  1  0
 19 20  2  0
 20 21  1  0
 21 22  2  0
 22 23  1  0
 23 24  2  0
 24 25  1  0
 18  4  1  0
 24 19  1  0
 17 12  1  0
  5 26  1  0
  6 27  1  0
  7 28  1  0
 13 29  1  0
 13 30  1  0
 14 31  1  0
 14 32  1  0
 16 33  1  0
 16 34  1  0
 17 35  1  0
 17 36  1  0
 18 37  1  0
 20 38  1  0
 21 39  1  0
 22 40  1  0
 23 41  1  0
 25 42  1  0
M  CHG  1   3  -1
M  END
>  <UniqueID>  (9) 
9

>  <SMILES>  (9) 
O=C([N-]c1cccc(S(=O)(=O)N2CCOCC2)c1)c1ccccc1O

>  <Energy>  (9) 
60.841294961083214

>  <Genealogy>  (9) 
O=C([N-]c1cccc(S(=O)(=O)N2CCOCC2)c1)c1ccccc1O (protonated)
O=C([N-]c1cccc(S(=O)(=O)N2CCOCC2)c1)c1ccccc1O (3D coordinates assigned)
O=C([N-]c1cccc(S(=O)(=O)N2CCOCC2)c1)c1ccccc1O (nonaromatic ring conformer: 60.841294961083214 kcal/mol)

>  <smiles>  (9) 
O=C(Nc1cccc(S(=O)(=O)N2CCOCC2)c1)c1ccccc1O

>  <score_type>  (9) 
oracle

>  <origin>  (9) 
adgpu

>  <m_score__min__energy>  (9) 
-10.550000000000001

>  <m_primary>  (9) 
energy

$$$$
9:0
     RDKit          3D

 60 63  0  0  0  0  0  0  0  0999 V2000
   -1.9810   19.7360  -26.7130 C   0  0  0  0  0  0  0  0  0  0  0  0
   -1.3780   20.7420  -27.5200 O   0  0  0  0  0  0  0  0  0  0  0  0
   -2.0830   21.6300  -28.3430 C   0  0  0  0  0  0  0  0  0  0  0  0
   -3.1340   21.1990  -29.1730 C   0  0  0  0  0  0  0  0  0  0  0  0
   -3.8340   22.1060  -29.9680 C   0  0  0  0  0  0  0  0  0  0  0  0
   -3.5030   23.4710  -29.9520 C   0  0  0  0  0  0  0  0  0  0  0  0
   -4.2760   24.4420  -30.7600 C   0  0  0  0  0  0  0  0  0  0  0  0
   -4.2550   25.6660  -30.4630 O   0  0  0  0  0  0  0  0  0  0  0  0
   -5.0610   23.9880  -31.8700 N   0  0  0  0  0  0  0  0  0  0  0  0
   -6.0940   22.9890  -31.8250 C   0  0  0  0  0  0  0  0  0  0  0  0
   -7.2630   23.2570  -31.1030 C   0  0  0  0  0  0  0  0  0  0  0  0
   -8.2690   22.2940  -31.0050 C   0  0  0  0  0  0  0  0  0  0  0  0
   -8.1110   21.0510  -31.6220 C   0  0  0  0  0  0  0  0  0  0  0  0
   -6.9400   20.7610  -32.3360 C   0  0  0  0  0  0  0  0  0  0  0  0
   -6.7330   19.1890  -33.1110 S   0  0  0  0  0  0  0  0  0  0  0  0
   -6.4840   19.3950  -34.5780 O   0  0  0  0  0  0  0  0  0  0  0  0
   -8.0090   18.4120  -32.9700 O   0  0  0  0  0  0  0  0  0  0  0  0
   -5.4200   18.2610  -32.4200 N   0  0  0  0  0  0  0  0  0  0  0  0
   -5.5410   16.8170  -32.6910 C   0  0  0  0  0  0  0  0  0  0  0  0
   -5.0340   16.4230  -34.1000 C   0  0  0  0  0  0  0  0  0  0  0  0
   -4.3320   17.4610  -34.7560 O   0  0  0  0  0  0  0  0  0  0  0  0
   -3.3860   18.0240  -33.8770 C   0  0  0  0  0  0  0  0  0  0  0  0
   -4.0890   18.8110  -32.7570 C   0  0  0  0  0  0  0  0  0  0  0  0
   -5.9240   21.7260  -32.4200 C   0  0  0  0  0  0  0  0  0  0  0  0
   -2.4490   23.9040  -29.1300 C   0  0  0  0  0  0  0  0  0  0  0  0
   -1.7340   22.9920  -28.3360 C   0  0  0  0  0  0  0  0  0  0  0  0
   -0.4220   23.5850  -27.3100 S   0  0  0  0  0  0  0  0  0  0  0  0
    0.3760   24.5950  -28.0840 O   0  0  0  0  0  0  0  0  0  0  0  0
    0.4780   22.4420  -26.9290 O   0  0  0  0  0  0  0  0  0  0  0  0
   -1.0640   24.3290  -25.8660 N   0  0  0  0  0  0  0  0  0  0  0  0
    0.0000   24.6700  -24.9200 C   0  0  0  0  0  0  0  0  0  0  0  0
   -0.5070   25.8460  -24.1010 C   0  0  0  0  0  0  0  0  0  0  0  0
   -1.6460   26.4430  -24.9130 C   0  0  0  0  0  0  0  0  0  0  0  0
   -1.7320   25.5930  -26.1720 C   0  0  0  0  0  0  0  0  0  0  0  0
   -1.8341   19.9811  -25.6508 H   0  0  0  0  0  0  0  0  0  0  0  0
   -3.0578   19.6866  -26.9324 H   0  0  0  0  0  0  0  0  0  0  0  0
   -1.5171   18.7630  -26.9324 H   0  0  0  0  0  0  0  0  0  0  0  0
   -3.4069   20.1336  -29.1951 H   0  0  0  0  0  0  0  0  0  0  0  0
   -4.6513   21.7499  -30.6123 H   0  0  0  0  0  0  0  0  0  0  0  0
   -7.3897   24.2321  -30.6100 H   0  0  0  0  0  0  0  0  0  0  0  0
   -9.1873   22.5145  -30.4411 H   0  0  0  0  0  0  0  0  0  0  0  0
   -8.9083   20.2969  -31.5474 H   0  0  0  0  0  0  0  0  0  0  0  0
   -4.9528   16.2687  -31.9405 H   0  0  0  0  0  0  0  0  0  0  0  0
   -6.6095   16.5606  -32.6414 H   0  0  0  0  0  0  0  0  0  0  0  0
   -4.3625   15.5576  -33.9993 H   0  0  0  0  0  0  0  0  0  0  0  0
   -5.9196   16.1939  -34.7110 H   0  0  0  0  0  0  0  0  0  0  0  0
   -2.7837   17.2192  -33.4302 H   0  0  0  0  0  0  0  0  0  0  0  0
   -2.7411   18.7122  -34.4432 H   0  0  0  0  0  0  0  0  0  0  0  0
   -3.4578   18.7810  -31.8566 H   0  0  0  0  0  0  0  0  0  0  0  0
   -4.2367   19.8399  -33.1170 H   0  0  0  0  0  0  0  0  0  0  0  0
   -4.9907   21.4933  -32.9536 H   0  0  0  0  0  0  0  0  0  0  0  0
   -2.1803   24.9705  -29.1079 H   0  0  0  0  0  0  0  0  0  0  0  0
    0.2126   23.8137  -24.2631 H   0  0  0  0  0  0  0  0  0  0  0  0
    0.9316   24.9255  -25.4462 H   0  0  0  0  0  0  0  0  0  0  0  0
   -0.8711   25.5039  -23.1210 H   0  0  0  0  0  0  0  0  0  0  0  0
    0.2871   26.5823  -23.9076 H   0  0  0  0  0  0  0  0  0  0  0  0
   -2.5890   26.3921  -24.3489 H   0  0  0  0  0  0  0  0  0  0  0  0
   -1.4707   27.5036  -25.1461 H   0  0  0  0  0  0  0  0  0  0  0  0
   -2.7841   25.4123  -26.4374 H   0  0  0  0  0  0  0  0  0  0  0  0
   -1.2565   26.0977  -27.0259 H   0  0  0  0  0  0  0  0  0  0  0  0
  1  2  1  0
  2  3  1  0
  3  4  2  0
  4  5  1  0
  5  6  2  0
  6  7  1  0
  7  8  2  0
  7  9  1  0
  9 10  1  0
 10 11  2  0
 11 12  1  0
 12 13  2  0
 13 14  1  0
 14 15  1  0
 15 16  2  0
 15 17  2  0
 15 18  1  0
 18 19  1  0
 19 20  1  0
 20 21  1  0
 21 22  1  0
 22 23  1  0
 14 24  2  0
  6 25  1  0
 25 26  2  0
 26 27  1  0
 27 28  2  0
 27 29  2  0
 27 30  1  0
 30 31  1  0
 31 32  1  0
 32 33  1  0
 33 34  1  0
 26  3  1  0
 34 30  1  0
 24 10  1  0
 23 18  1  0
  1 35  1  0
  1 36  1  0
  1 37  1  0
  4 38  1  0
  5 39  1  0
 11 40  1  0
 12 41  1  0
 13 42  1  0
 19 43  1  0
 19 44  1  0
 20 45  1  0
 20 46  1  0
 22 47  1  0
 22 48  1  0
 23 49  1  0
 23 50  1  0
 24 51  1  0
 25 52  1  0
 31 53  1  0
 31 54  1  0
 32 55  1  0
 32 56  1  0
 33 57  1  0
 33 58  1  0
 34 59  1  0
 34 60  1  0
M  CHG  1   9  -1
M  END
>  <UniqueID>  (10) 
10

>  <SMILES>  (10) 
COc1ccc(C(=O)[N-]c2cccc(S(=O)(=O)N3CCOCC3)c2)cc1S(=O)(=O)N1CCCC1

>  <Energy>  (10) 
77.23229890284527

>  <Genealogy>  (10) 
COc1ccc(C(=O)[N-]c2cccc(S(=O)(=O)N3CCOCC3)c2)cc1S(=O)(=O)N1CCCC1 (protonated)
COc1ccc(C(=O)[N-]c2cccc(S(=O)(=O)N3CCOCC3)c2)cc1S(=O)(=O)N1CCCC1 (3D coordinates assigned)
COc1ccc(C(=O)[N-]c2cccc(S(=O)(=O)N3CCOCC3)c2)cc1S(=O)(=O)N1CCCC1 (nonaromatic ring conformer: 77.23229890284527 kcal/mol)

>  <smiles>  (10) 
COc1ccc(C(=O)Nc2cccc(S(=O)(=O)N3CCOCC3)c2)cc1S(=O)(=O)N1CCCC1

>  <score_type>  (10) 
oracle

>  <origin>  (10) 
adgpu

>  <m_score__min__energy>  (10) 
-11.630000000000001

>  <m_primary>  (10) 
energy

$$$$
10:0
     RDKit          3D

 48 50  0  0  0  0  0  0  0  0999 V2000
    2.7530   24.8320  -27.8290 C   0  0  0  0  0  0  0  0  0  0  0  0
    1.3470   24.6030  -27.8340 O   0  0  0  0  0  0  0  0  0  0  0  0
    0.4740   24.9820  -26.8010 C   0  0  0  0  0  0  0  0  0  0  0  0
    0.9180   25.1200  -25.4700 C   0  0  0  0  0  0  0  0  0  0  0  0
    0.0200   25.4630  -24.4560 C   0  0  0  0  0  0  0  0  0  0  0  0
   -1.3260   25.6740  -24.7550 C   0  0  0  0  0  0  0  0  0  0  0  0
   -1.7790   25.5480  -26.0690 C   0  0  0  0  0  0  0  0  0  0  0  0
   -0.8880   25.2080  -27.1000 C   0  0  0  0  0  0  0  0  0  0  0  0
   -1.3970   25.0720  -28.4840 C   0  0  0  0  0  0  0  0  0  0  0  0
   -1.2360   26.0190  -29.3000 O   0  0  0  0  0  0  0  0  0  0  0  0
   -2.1030   23.8910  -28.9040 N   0  0  0  0  0  0  0  0  0  0  0  0
   -1.6180   22.5860  -28.4540 C   0  0  0  0  0  0  0  0  0  0  0  0
   -3.4250   23.9900  -29.4740 C   0  0  0  0  0  0  0  0  0  0  0  0
   -3.7020   24.7210  -30.5800 N   0  0  0  0  0  0  0  0  0  0  0  0
   -4.9570   24.5830  -31.0050 N   0  0  0  0  0  0  0  0  0  0  0  0
   -5.6850   23.7370  -30.2450 C   0  0  0  0  0  0  0  0  0  0  0  0
   -7.3810   23.2830  -30.5990 S   0  0  0  0  0  0  0  0  0  0  0  0
   -7.0290   22.5800  -32.2530 C   0  0  0  0  0  0  0  0  0  0  0  0
   -7.3720   21.1070  -32.3230 C   0  0  0  0  0  0  0  0  0  0  0  0
   -6.3630   20.1960  -32.6810 C   0  0  0  0  0  0  0  0  0  0  0  0
   -6.6020   18.8150  -32.6720 C   0  0  0  0  0  0  0  0  0  0  0  0
   -5.4880   17.8670  -33.0070 C   0  0  0  0  0  0  0  0  0  0  0  0
   -7.8750   18.3390  -32.3400 C   0  0  0  0  0  0  0  0  0  0  0  0
   -8.8960   19.2310  -32.0080 C   0  0  0  0  0  0  0  0  0  0  0  0
   -8.6600   20.6170  -31.9880 C   0  0  0  0  0  0  0  0  0  0  0  0
   -9.7900   21.5440  -31.6270 C   0  0  0  0  0  0  0  0  0  0  0  0
   -4.7830   23.1210  -28.9670 S   0  0  0  0  0  0  0  0  0  0  0  0
    3.1113   24.8904  -26.7906 H   0  0  0  0  0  0  0  0  0  0  0  0
    3.2611   24.0048  -28.3463 H   0  0  0  0  0  0  0  0  0  0  0  0
    2.9723   25.7777  -28.3463 H   0  0  0  0  0  0  0  0  0  0  0  0
    1.9786   24.9565  -25.2282 H   0  0  0  0  0  0  0  0  0  0  0  0
    0.3751   25.5668  -23.4201 H   0  0  0  0  0  0  0  0  0  0  0  0
   -2.0314   25.9401  -23.9540 H   0  0  0  0  0  0  0  0  0  0  0  0
   -2.8415   25.7162  -26.2988 H   0  0  0  0  0  0  0  0  0  0  0  0
   -1.6076   22.5580  -27.3544 H   0  0  0  0  0  0  0  0  0  0  0  0
   -2.2828   21.7966  -28.8346 H   0  0  0  0  0  0  0  0  0  0  0  0
   -0.5990   22.4224  -28.8346 H   0  0  0  0  0  0  0  0  0  0  0  0
   -7.6247   23.1203  -33.0035 H   0  0  0  0  0  0  0  0  0  0  0  0
   -5.9522   22.6898  -32.4488 H   0  0  0  0  0  0  0  0  0  0  0  0
   -5.3714   20.5725  -32.9725 H   0  0  0  0  0  0  0  0  0  0  0  0
   -5.0395   17.4853  -32.0779 H   0  0  0  0  0  0  0  0  0  0  0  0
   -5.8860   17.0264  -33.5943 H   0  0  0  0  0  0  0  0  0  0  0  0
   -4.7219   18.3944  -33.5943 H   0  0  0  0  0  0  0  0  0  0  0  0
   -8.0722   17.2568  -32.3406 H   0  0  0  0  0  0  0  0  0  0  0  0
   -9.8958   18.8456  -31.7594 H   0  0  0  0  0  0  0  0  0  0  0  0
   -9.8729   21.6120  -30.5322 H   0  0  0  0  0  0  0  0  0  0  0  0
   -9.5917   22.5430  -32.0425 H   0  0  0  0  0  0  0  0  0  0  0  0
  -10.7310   21.1542  -32.0425 H   0  0  0  0  0  0  0  0  0  0  0  0
  1  2  1  0
  2  3  1  0
  3  4  2  0
  4  5  1  0
  5  6  2  0
  6  7  1  0
  7  8  2  0
  8  9  1  0
  9 10  2  0
  9 11  1  0
 11 12  1  0
 11 13  1  0
 13 14  2  0
 14 15  1  0
 15 16  2  0
 16 17  1  0
 17 18  1  0
 18 19  1  0
 19 20  2  0
 20 21  1  0
 21 22  1  0
 21 23  2  0
 23 24  1  0
 24 25  2  0
 25 26  1  0
 16 27  1  0
  8  3  1  0
 27 13  1  0
 25 19  1  0
  1 28  1  0
  1 29  1  0
  1 30  1  0
  4 31  1  0
  5 32  1  0
  6 33  1  0
  7 34  1  0
 12 35  1  0
 12 36  1  0
 12 37  1  0
 18 38  1  0
 18 39  1  0
 20 40  1  0
 22 41  1  0
 22 42  1  0
 22 43  1  0
 23 44  1  0
 24 45  1  0
 26 46  1  0
 26 47  1  0
 26 48  1  0
M  END
>  <UniqueID>  (11) 
11

>  <SMILES>  (11) 
COc1ccccc1C(=O)N(C)c1nnc(SCc2cc(C)ccc2C)s1

>  <Energy>  (11) 
84.11350849665145

>  <Genealogy>  (11) 
COc1ccccc1C(=O)N(C)c1nnc(SCc2cc(C)ccc2C)s1 (3D coordinates assigned)
COc1ccccc1C(=O)N(C)c1nnc(SCc2cc(C)ccc2C)s1 (optimized conformer: 84.11350849665145 kcal/mol)

>  <smiles>  (11) 
COc1ccccc1C(=O)N(C)c1nnc(SCc2cc(C)ccc2C)s1

>  <score_type>  (11) 
oracle

>  <origin>  (11) 
adgpu

>  <m_score__min__energy>  (11) 
-10.66

>  <m_primary>  (11) 
energy

$$$$
11:0
     RDKit          3D

 38 40  0  0  0  0  0  0  0  0999 V2000
   -8.7240   19.1650  -32.2350 C   0  0  0  0  0  0  0  0  0  0  0  0
   -8.4350   20.4760  -32.7120 O   0  0  0  0  0  0  0  0  0  0  0  0
   -7.6350   21.4070  -32.0330 C   0  0  0  0  0  0  0  0  0  0  0  0
   -6.3800   21.8220  -32.5180 C   0  0  0  0  0  0  0  0  0  0  0  0
   -5.6210   22.7540  -31.8010 C   0  0  0  0  0  0  0  0  0  0  0  0
   -6.1050   23.2840  -30.5990 C   0  0  0  0  0  0  0  0  0  0  0  0
   -5.1300   24.4390  -29.6970 S   0  0  0  0  0  0  0  0  0  0  0  0
   -4.0020   24.9030  -30.5760 O   0  0  0  0  0  0  0  0  0  0  0  0
   -5.9770   25.6270  -29.3300 O   0  0  0  0  0  0  0  0  0  0  0  0
   -4.5150   23.6470  -28.2630 N   0  0  0  0  0  0  0  0  0  0  0  0
   -3.6690   24.5510  -27.4570 C   0  0  0  0  0  0  0  0  0  0  0  0
   -2.2790   24.5930  -27.9960 C   0  0  0  0  0  0  0  0  0  0  0  0
   -1.2560   25.4870  -27.7650 C   0  0  0  0  0  0  0  0  0  0  0  0
   -0.1400   25.0330  -28.3780 N   0  0  0  0  0  0  0  0  0  0  0  0
   -0.4360   23.8830  -28.9690 N   0  0  0  0  0  0  0  0  0  0  0  0
   -1.7290   23.5950  -28.7410 C   0  0  0  0  0  0  0  0  0  0  0  0
   -2.4720   22.3680  -29.1750 C   0  0  2  0  0  0  0  0  0  0  0  0
   -2.5030   22.2540  -30.7030 C   0  0  0  0  0  0  0  0  0  0  0  0
   -3.8960   22.3230  -28.5350 C   0  0  0  0  0  0  0  0  0  0  0  0
   -7.3510   22.8660  -30.1110 C   0  0  0  0  0  0  0  0  0  0  0  0
   -8.1100   21.9350  -30.8260 C   0  0  0  0  0  0  0  0  0  0  0  0
   -8.7236   19.1667  -31.1350 H   0  0  0  0  0  0  0  0  0  0  0  0
   -9.7128   18.8514  -32.6009 H   0  0  0  0  0  0  0  0  0  0  0  0
   -7.9587   18.4647  -32.6009 H   0  0  0  0  0  0  0  0  0  0  0  0
   -5.9948   21.4124  -33.4635 H   0  0  0  0  0  0  0  0  0  0  0  0
   -4.6398   23.0715  -32.1836 H   0  0  0  0  0  0  0  0  0  0  0  0
   -4.0968   25.5641  -27.4825 H   0  0  0  0  0  0  0  0  0  0  0  0
   -3.6361   24.1762  -26.4233 H   0  0  0  0  0  0  0  0  0  0  0  0
   -1.3345   26.4150  -27.1796 H   0  0  0  0  0  0  0  0  0  0  0  0
    0.2470   23.3010  -29.5050 H   0  0  0  0  0  0  0  0  0  0  0  0
   -1.9325   21.4829  -28.8068 H   0  0  0  0  0  0  0  0  0  0  0  0
   -2.7817   21.2290  -30.9886 H   0  0  0  0  0  0  0  0  0  0  0  0
   -3.2414   22.9613  -31.1085 H   0  0  0  0  0  0  0  0  0  0  0  0
   -1.5081   22.4899  -31.1085 H   0  0  0  0  0  0  0  0  0  0  0  0
   -4.5585   21.7729  -29.2195 H   0  0  0  0  0  0  0  0  0  0  0  0
   -3.7726   21.8390  -27.5549 H   0  0  0  0  0  0  0  0  0  0  0  0
   -7.7326   23.2719  -29.1625 H   0  0  0  0  0  0  0  0  0  0  0  0
   -9.0880   21.6146  -30.4376 H   0  0  0  0  0  0  0  0  0  0  0  0
  1  2  1  0
  2  3  1  0
  3  4  2  0
  4  5  1  0
  5  6  2  0
  6  7  1  0
  7  8  2  0
  7  9  2  0
  7 10  1  0
 10 11  1  0
 11 12  1  0
 12 13  1  0
 13 14  2  0
 14 15  1  0
 15 16  1  0
 16 17  1  0
 17 18  1  0
 17 19  1  0
  6 20  1  0
 20 21  2  0
 21  3  1  0
 19 10  1  0
 16 12  2  0
  1 22  1  0
  1 23  1  0
  1 24  1  0
  4 25  1  0
  5 26  1  0
 11 27  1  0
 11 28  1  0
 13 29  1  0
 15 30  1  0
 17 31  1  1
 18 32  1  0
 18 33  1  0
 18 34  1  0
 19 35  1  0
 19 36  1  0
 20 37  1  0
 21 38  1  0
M  END
>  <UniqueID>  (12) 
12

>  <SMILES>  (12) 
COc1ccc(S(=O)(=O)N2Cc3cn[nH]c3[C@H](C)C2)cc1

>  <Energy>  (12) 
76.65506997138917

>  <Genealogy>  (12) 
COc1ccc(S(=O)(=O)N2Cc3cn[nH]c3[C@H](C)C2)cc1 (chirality)
COc1ccc(S(=O)(=O)N2Cc3cn[nH]c3[C@H](C)C2)cc1 (3D coordinates assigned)
COc1ccc(S(=O)(=O)N2Cc3cn[nH]c3[C@H](C)C2)cc1 (nonaromatic ring conformer: 76.65506997138917 kcal/mol)

>  <smiles>  (12) 
COc1ccc(S(=O)(=O)N2Cc3cn[nH]c3C(C)C2)cc1

>  <score_type>  (12) 
oracle

>  <origin>  (12) 
adgpu

>  <m_score__min__energy>  (12) 
-8.1400000000000006

>  <m_primary>  (12) 
energy

$$$$
12:0
     RDKit          3D

 42 44  0  0  0  0  0  0  0  0999 V2000
   -1.9990   25.2860  -29.3650 N   0  0  0  0  0  0  0  0  0  0  0  0
   -1.2580   24.5110  -28.0080 S   0  0  0  0  0  0  0  0  0  0  0  0
   -1.7440   25.1700  -26.7490 O   0  0  0  0  0  0  0  0  0  0  0  0
    0.2320   24.6740  -28.1230 O   0  0  0  0  0  0  0  0  0  0  0  0
   -1.6680   22.7900  -27.9670 C   0  0  0  0  0  0  0  0  0  0  0  0
   -1.2020   22.0060  -26.8980 C   0  0  0  0  0  0  0  0  0  0  0  0
   -1.5410   20.6560  -26.8060 C   0  0  0  0  0  0  0  0  0  0  0  0
   -2.3460   20.0700  -27.7800 C   0  0  0  0  0  0  0  0  0  0  0  0
   -2.8070   20.8310  -28.8550 C   0  0  0  0  0  0  0  0  0  0  0  0
   -2.4760   22.1940  -28.9690 C   0  0  0  0  0  0  0  0  0  0  0  0
   -2.9450   22.9610  -30.0940 N   0  0  0  0  0  0  0  0  0  0  0  0
   -4.4330   23.8560  -30.0850 S   0  0  0  0  0  0  0  0  0  0  0  0
   -4.7730   24.2200  -28.6660 O   0  0  0  0  0  0  0  0  0  0  0  0
   -4.2320   25.1170  -30.8740 O   0  0  0  0  0  0  0  0  0  0  0  0
   -5.7500   22.8550  -30.7260 C   0  0  0  0  0  0  0  0  0  0  0  0
   -6.9230   22.7540  -29.9580 C   0  0  0  0  0  0  0  0  0  0  0  0
   -8.0350   22.0610  -30.4380 C   0  0  0  0  0  0  0  0  0  0  0  0
   -8.0030   21.4850  -31.7060 C   0  0  0  0  0  0  0  0  0  0  0  0
   -6.8550   21.5910  -32.4920 C   0  0  0  0  0  0  0  0  0  0  0  0
   -5.7140   22.2500  -32.0080 C   0  0  0  0  0  0  0  0  0  0  0  0
   -4.2740   22.3350  -33.0910 S   0  0  0  0  0  0  0  0  0  0  0  0
   -4.0320   20.5530  -33.1330 C   0  0  0  0  0  0  0  0  0  0  0  0
   -2.8380   19.9840  -32.6730 C   0  0  0  0  0  0  0  0  0  0  0  0
   -2.6650   18.5960  -32.6970 C   0  0  0  0  0  0  0  0  0  0  0  0
   -3.6760   17.7730  -33.1970 C   0  0  0  0  0  0  0  0  0  0  0  0
   -4.8600   18.3370  -33.6840 C   0  0  0  0  0  0  0  0  0  0  0  0
   -6.1250   17.3050  -34.3260 Cl  0  0  0  0  0  0  0  0  0  0  0  0
   -5.0350   19.7250  -33.6590 C   0  0  0  0  0  0  0  0  0  0  0  0
   -2.9980   25.4560  -29.1140 H   0  0  0  0  0  0  0  0  0  0  0  0
   -0.5638   22.4612  -26.1263 H   0  0  0  0  0  0  0  0  0  0  0  0
   -1.1720   20.0533  -25.9630 H   0  0  0  0  0  0  0  0  0  0  0  0
   -2.6184   19.0071  -27.7018 H   0  0  0  0  0  0  0  0  0  0  0  0
   -3.4373   20.3593  -29.6233 H   0  0  0  0  0  0  0  0  0  0  0  0
   -2.3620   23.0400  -30.9550 H   0  0  0  0  0  0  0  0  0  0  0  0
   -6.9649   23.2273  -28.9659 H   0  0  0  0  0  0  0  0  0  0  0  0
   -8.9370   21.9695  -29.8150 H   0  0  0  0  0  0  0  0  0  0  0  0
   -8.8830   20.9465  -32.0877 H   0  0  0  0  0  0  0  0  0  0  0  0
   -6.8440   21.1537  -33.5013 H   0  0  0  0  0  0  0  0  0  0  0  0
   -2.0337   20.6303  -32.2917 H   0  0  0  0  0  0  0  0  0  0  0  0
   -1.7311   18.1524  -32.3214 H   0  0  0  0  0  0  0  0  0  0  0  0
   -3.5416   16.6813  -33.2080 H   0  0  0  0  0  0  0  0  0  0  0  0
   -5.9615   20.1682  -34.0528 H   0  0  0  0  0  0  0  0  0  0  0  0
  1  2  1  0
  2  3  2  0
  2  4  2  0
  2  5  1  0
  5  6  2  0
  6  7  1  0
  7  8  2  0
  8  9  1  0
  9 10  2  0
 10 11  1  0
 11 12  1  0
 12 13  2  0
 12 14  2  0
 12 15  1  0
 15 16  2  0
 16 17  1  0
 17 18  2  0
 18 19  1  0
 19 20  2  0
 20 21  1  0
 21 22  1  0
 22 23  2  0
 23 24  1  0
 24 25  2  0
 25 26  1  0
 26 27  1  0
 26 28  2  0
 10  5  1  0
 20 15  1  0
 28 22  1  0
  1 29  1  0
  6 30  1  0
  7 31  1  0
  8 32  1  0
  9 33  1  0
 11 34  1  0
 16 35  1  0
 17 36  1  0
 18 37  1  0
 19 38  1  0
 23 39  1  0
 24 40  1  0
 25 41  1  0
 28 42  1  0
M  CHG  1   1  -1
M  END
>  <UniqueID>  (13) 
13

>  <SMILES>  (13) 
[NH-]S(=O)(=O)c1ccccc1NS(=O)(=O)c1ccccc1Sc1cccc(Cl)c1

>  <Energy>  (13) 
48.23009519825787

>  <Genealogy>  (13) 
[NH-]S(=O)(=O)c1ccccc1NS(=O)(=O)c1ccccc1Sc1cccc(Cl)c1 (protonated)
[NH-]S(=O)(=O)c1ccccc1NS(=O)(=O)c1ccccc1Sc1cccc(Cl)c1 (3D coordinates assigned)
[NH-]S(=O)(=O)c1ccccc1NS(=O)(=O)c1ccccc1Sc1cccc(Cl)c1 (optimized conformer: 48.23009519825787 kcal/mol)

>  <smiles>  (13) 
NS(=O)(=O)c1ccccc1NS(=O)(=O)c1ccccc1Sc1cccc(Cl)c1

>  <score_type>  (13) 
oracle

>  <origin>  (13) 
adgpu

>  <m_score__min__energy>  (13) 
-12.369999999999999

>  <m_primary>  (13) 
energy

$$$$
13:0
     RDKit          3D

 54 57  0  0  0  0  0  0  0  0999 V2000
    1.6670   25.7130  -27.6850 O   0  0  0  0  0  0  0  0  0  0  0  0
    0.5470   25.2780  -27.2970 C   0  0  0  0  0  0  0  0  0  0  0  0
   -0.0440   25.8190  -26.0470 C   0  0  0  0  0  0  0  0  0  0  0  0
    0.7560   26.0610  -24.9130 C   0  0  0  0  0  0  0  0  0  0  0  0
    0.1830   26.5550  -23.7360 C   0  0  0  0  0  0  0  0  0  0  0  0
   -1.1890   26.8030  -23.6750 C   0  0  0  0  0  0  0  0  0  0  0  0
   -1.9950   26.5530  -24.7890 C   0  0  0  0  0  0  0  0  0  0  0  0
   -1.4280   26.0610  -25.9680 C   0  0  0  0  0  0  0  0  0  0  0  0
   -0.1430   24.2620  -28.1230 C   0  0  0  0  0  0  0  0  0  0  0  0
    0.1850   22.9070  -27.9630 C   0  0  0  0  0  0  0  0  0  0  0  0
   -0.4510   21.9280  -28.7310 C   0  0  0  0  0  0  0  0  0  0  0  0
   -1.4200   22.2830  -29.6740 C   0  0  0  0  0  0  0  0  0  0  0  0
   -2.0600   21.2440  -30.4270 N   0  0  0  0  0  0  0  0  0  0  0  0
   -2.7760   21.3970  -31.6600 C   0  0  0  0  0  0  0  0  0  0  0  0
   -2.1730   21.2950  -32.7610 O   0  0  0  0  0  0  0  0  0  0  0  0
   -4.2450   21.5710  -31.6300 C   0  0  0  0  0  0  0  0  0  0  0  0
   -5.0580   20.4380  -31.8080 C   0  0  0  0  0  0  0  0  0  0  0  0
   -6.4540   20.5490  -31.8190 C   0  0  0  0  0  0  0  0  0  0  0  0
   -7.4550   19.1090  -32.0090 S   0  0  0  0  0  0  0  0  0  0  0  0
   -7.2280   18.1900  -30.8400 O   0  0  0  0  0  0  0  0  0  0  0  0
   -8.9010   19.5190  -31.9940 O   0  0  0  0  0  0  0  0  0  0  0  0
   -7.1150   18.2450  -33.4950 N   0  0  0  0  0  0  0  0  0  0  0  0
   -6.8190   16.8190  -33.2630 C   0  0  0  0  0  0  0  0  0  0  0  0
   -5.3520   16.5650  -32.8420 C   0  0  0  0  0  0  0  0  0  0  0  0
   -4.5230   17.7030  -32.9780 O   0  0  0  0  0  0  0  0  0  0  0  0
   -4.7160   18.2840  -34.2470 C   0  0  0  0  0  0  0  0  0  0  0  0
   -6.1100   18.9250  -34.3390 C   0  0  0  0  0  0  0  0  0  0  0  0
   -7.0470   21.8080  -31.6760 C   0  0  0  0  0  0  0  0  0  0  0  0
   -6.2530   22.9400  -31.4920 C   0  0  0  0  0  0  0  0  0  0  0  0
   -4.8580   22.8340  -31.4440 C   0  0  0  0  0  0  0  0  0  0  0  0
   -4.1270   23.9940  -31.1760 O   0  0  0  0  0  0  0  0  0  0  0  0
   -1.7860   23.6350  -29.8060 C   0  0  0  0  0  0  0  0  0  0  0  0
   -1.1570   24.6180  -29.0350 C   0  0  0  0  0  0  0  0  0  0  0  0
   -1.5660   25.9420  -29.1630 O   0  0  0  0  0  0  0  0  0  0  0  0
    1.8368   25.8605  -24.9531 H   0  0  0  0  0  0  0  0  0  0  0  0
    0.8153   26.7483  -22.8569 H   0  0  0  0  0  0  0  0  0  0  0  0
   -1.6362   27.1954  -22.7498 H   0  0  0  0  0  0  0  0  0  0  0  0
   -3.0771   26.7437  -24.7379 H   0  0  0  0  0  0  0  0  0  0  0  0
   -2.0680   25.8616  -26.8401 H   0  0  0  0  0  0  0  0  0  0  0  0
    0.9484   22.6133  -27.2275 H   0  0  0  0  0  0  0  0  0  0  0  0
   -0.1870   20.8692  -28.5924 H   0  0  0  0  0  0  0  0  0  0  0  0
   -4.5912   19.4508  -31.9405 H   0  0  0  0  0  0  0  0  0  0  0  0
   -7.4811   16.4490  -32.4663 H   0  0  0  0  0  0  0  0  0  0  0  0
   -6.9839   16.2906  -34.2136 H   0  0  0  0  0  0  0  0  0  0  0  0
   -5.3413   16.2499  -31.7881 H   0  0  0  0  0  0  0  0  0  0  0  0
   -4.9516   15.7899  -33.5120 H   0  0  0  0  0  0  0  0  0  0  0  0
   -3.9506   19.0567  -34.4116 H   0  0  0  0  0  0  0  0  0  0  0  0
   -4.6337   17.4996  -35.0137 H   0  0  0  0  0  0  0  0  0  0  0  0
   -6.0351   19.9745  -34.0182 H   0  0  0  0  0  0  0  0  0  0  0  0
   -6.4441   18.8378  -35.3834 H   0  0  0  0  0  0  0  0  0  0  0  0
   -8.1422   21.9055  -31.7087 H   0  0  0  0  0  0  0  0  0  0  0  0
   -6.7280   23.9262  -31.3835 H   0  0  0  0  0  0  0  0  0  0  0  0
   -3.2330   24.2000  -31.6000 H   0  0  0  0  0  0  0  0  0  0  0  0
   -2.5721   23.9209  -30.5203 H   0  0  0  0  0  0  0  0  0  0  0  0
  1  2  2  0
  2  3  1  0
  3  4  2  0
  4  5  1  0
  5  6  2  0
  6  7  1  0
  7  8  2  0
  2  9  1  0
  9 10  2  0
 10 11  1  0
 11 12  2  0
 12 13  1  0
 13 14  1  0
 14 15  2  0
 14 16  1  0
 16 17  2  0
 17 18  1  0
 18 19  1  0
 19 20  2  0
 19 21  2  0
 19 22  1  0
 22 23  1  0
 23 24  1  0
 24 25  1  0
 25 26  1  0
 26 27  1  0
 18 28  2  0
 28 29  1  0
 29 30  2  0
 30 31  1  0
 12 32  1  0
 32 33  2  0
 33 34  1  0
  8  3  1  0
 33  9  1  0
 30 16  1  0
 27 22  1  0
  4 35  1  0
  5 36  1  0
  6 37  1  0
  7 38  1  0
  8 39  1  0
 10 40  1  0
 11 41  1  0
 17 42  1  0
 23 43  1  0
 23 44  1  0
 24 45  1  0
 24 46  1  0
 26 47  1  0
 26 48  1  0
 27 49  1  0
 27 50  1  0
 28 51  1  0
 29 52  1  0
 31 53  1  0
 32 54  1  0
M  CHG  2  13  -1  34  -1
M  END
>  <UniqueID>  (14) 
14

>  <SMILES>  (14) 
O=C(c1ccccc1)c1ccc([N-]C(=O)c2cc(S(=O)(=O)N3CCOCC3)ccc2O)cc1[O-]

>  <Energy>  (14) 
84.69654718651275

>  <Genealogy>  (14) 
O=C(c1ccccc1)c1ccc([N-]C(=O)c2cc(S(=O)(=O)N3CCOCC3)ccc2O)cc1[O-] (protonated)
O=C(c1ccccc1)c1ccc([N-]C(=O)c2cc(S(=O)(=O)N3CCOCC3)ccc2O)cc1[O-] (3D coordinates assigned)
O=C(c1ccccc1)c1ccc([N-]C(=O)c2cc(S(=O)(=O)N3CCOCC3)ccc2O)cc1[O-] (nonaromatic ring conformer: 84.69654718651275 kcal/mol)

>  <smiles>  (14) 
O=C(Nc1ccc(C(=O)c2ccccc2)c(O)c1)c1cc(S(=O)(=O)N2CCOCC2)ccc1O

>  <score_type>  (14) 
oracle

>  <origin>  (14) 
adgpu

>  <m_score__min__energy>  (14) 
-12.859999999999999

>  <m_primary>  (14) 
energy

$$$$
14:0
     RDKit          3D

 61 65  0  0  0  0  0  0  0  0999 V2000
    0.0700   21.5470  -34.9100 C   0  0  0  0  0  0  0  0  0  0  0  0
    0.6660   21.1570  -33.5640 C   0  0  0  0  0  0  0  0  0  0  0  0
   -0.4000   20.9590  -32.5670 N   0  0  0  0  0  0  0  0  0  0  0  0
   -0.2220   21.4230  -31.1810 C   0  0  0  0  0  0  0  0  0  0  0  0
   -0.2410   20.2440  -30.2100 C   0  0  0  0  0  0  0  0  0  0  0  0
   -1.6160   20.2790  -32.9470 C   0  0  0  0  0  0  0  0  0  0  0  0
   -2.8150   20.9950  -33.0820 C   0  0  0  0  0  0  0  0  0  0  0  0
   -3.9930   20.3370  -33.4510 C   0  0  0  0  0  0  0  0  0  0  0  0
   -3.9930   18.9510  -33.6880 C   0  0  0  0  0  0  0  0  0  0  0  0
   -5.2350   18.2470  -34.0850 C   0  0  0  0  0  0  0  0  0  0  0  0
   -5.1870   17.0160  -34.3620 O   0  0  0  0  0  0  0  0  0  0  0  0
   -6.4890   18.9320  -34.2280 N   0  0  0  0  0  0  0  0  0  0  0  0
   -7.2150   19.6060  -33.1860 C   0  0  0  0  0  0  0  0  0  0  0  0
   -8.1400   18.8780  -32.4300 C   0  0  0  0  0  0  0  0  0  0  0  0
   -8.8740   19.5040  -31.4200 C   0  0  0  0  0  0  0  0  0  0  0  0
   -8.6740   20.8590  -31.1440 C   0  0  0  0  0  0  0  0  0  0  0  0
   -7.7220   21.5930  -31.8610 C   0  0  0  0  0  0  0  0  0  0  0  0
   -7.5590   22.9530  -31.5620 O   0  0  0  0  0  0  0  0  0  0  0  0
   -6.4010   23.5410  -31.0270 C   0  0  0  0  0  0  0  0  0  0  0  0
   -6.1240   24.9280  -31.1780 C   0  0  0  0  0  0  0  0  0  0  0  0
   -4.9320   25.4800  -30.6680 C   0  0  0  0  0  0  0  0  0  0  0  0
   -4.0410   24.6210  -30.0310 C   0  0  0  0  0  0  0  0  0  0  0  0
   -2.8390   24.9210  -29.5150 N   0  0  0  0  0  0  0  0  0  0  0  0
   -2.4040   23.7130  -29.0640 C   0  0  0  0  0  0  0  0  0  0  0  0
   -1.0940   23.5340  -28.4190 C   0  0  0  0  0  0  0  0  0  0  0  0
   -0.7220   22.3660  -27.7540 C   0  0  0  0  0  0  0  0  0  0  0  0
    0.8520   22.5700  -27.2020 S   0  0  0  0  0  0  0  0  0  0  0  0
    0.9810   24.1350  -27.8030 C   0  0  0  0  0  0  0  0  0  0  0  0
    2.2350   24.9470  -27.8110 C   0  0  0  0  0  0  0  0  0  0  0  0
   -0.1440   24.5080  -28.4500 N   0  0  0  0  0  0  0  0  0  0  0  0
   -3.2700   22.6860  -29.2770 N   0  0  0  0  0  0  0  0  0  0  0  0
   -4.2960   23.2940  -29.8910 C   0  0  0  0  0  0  0  0  0  0  0  0
   -5.4650   22.7110  -30.3770 C   0  0  0  0  0  0  0  0  0  0  0  0
   -6.9980   20.9650  -32.8910 C   0  0  0  0  0  0  0  0  0  0  0  0
   -2.7850   18.2390  -33.5700 C   0  0  0  0  0  0  0  0  0  0  0  0
   -1.6090   18.8950  -33.1980 C   0  0  0  0  0  0  0  0  0  0  0  0
   -0.8405   22.1428  -34.7490 H   0  0  0  0  0  0  0  0  0  0  0  0
    0.8018   22.1415  -35.4766 H   0  0  0  0  0  0  0  0  0  0  0  0
   -0.1818   20.6384  -35.4766 H   0  0  0  0  0  0  0  0  0  0  0  0
    1.2346   20.2221  -33.6768 H   0  0  0  0  0  0  0  0  0  0  0  0
    1.3294   21.9645  -33.2207 H   0  0  0  0  0  0  0  0  0  0  0  0
    0.7425   21.9451  -31.0961 H   0  0  0  0  0  0  0  0  0  0  0  0
   -1.0482   22.1034  -30.9271 H   0  0  0  0  0  0  0  0  0  0  0  0
   -0.2349   20.6202  -29.1763 H   0  0  0  0  0  0  0  0  0  0  0  0
   -1.1489   19.6459  -30.3772 H   0  0  0  0  0  0  0  0  0  0  0  0
    0.6472   19.6169  -30.3772 H   0  0  0  0  0  0  0  0  0  0  0  0
   -2.8288   22.0792  -32.8968 H   0  0  0  0  0  0  0  0  0  0  0  0
   -4.9269   20.9085  -33.5566 H   0  0  0  0  0  0  0  0  0  0  0  0
   -8.2900   17.8072  -32.6320 H   0  0  0  0  0  0  0  0  0  0  0  0
   -9.6112   18.9289  -30.8405 H   0  0  0  0  0  0  0  0  0  0  0  0
   -9.2675   21.3513  -30.3595 H   0  0  0  0  0  0  0  0  0  0  0  0
   -6.8463   25.5751  -31.6972 H   0  0  0  0  0  0  0  0  0  0  0  0
   -4.7131   26.5532  -30.7698 H   0  0  0  0  0  0  0  0  0  0  0  0
   -1.3470   21.4714  -27.6156 H   0  0  0  0  0  0  0  0  0  0  0  0
    2.5474   25.1493  -26.7759 H   0  0  0  0  0  0  0  0  0  0  0  0
    3.0286   24.3909  -28.3315 H   0  0  0  0  0  0  0  0  0  0  0  0
    2.0523   25.8987  -28.3315 H   0  0  0  0  0  0  0  0  0  0  0  0
   -5.6520   21.6337  -30.2568 H   0  0  0  0  0  0  0  0  0  0  0  0
   -6.2586   21.5390  -33.4687 H   0  0  0  0  0  0  0  0  0  0  0  0
   -2.7665   17.1579  -33.7722 H   0  0  0  0  0  0  0  0  0  0  0  0
   -0.6725   18.3261  -33.1009 H   0  0  0  0  0  0  0  0  0  0  0  0
  1  2  1  0
  2  3  1  0
  3  4  1  0
  4  5  1  0
  3  6  1  0
  6  7  2  0
  7  8  1  0
  8  9  2  0
  9 10  1  0
 10 11  2  0
 10 12  1  0
 12 13  1  0
 13 14  2  0
 14 15  1  0
 15 16  2  0
 16 17  1  0
 17 18  1  0
 18 19  1  0
 19 20  2  0
 20 21  1  0
 21 22  2  0
 22 23  1  0
 23 24  1  0
 24 25  1  0
 25 26  2  0
 26 27  1  0
 27 28  1  0
 28 29  1  0
 28 30  2  0
 24 31  2  0
 31 32  1  0
 32 33  2  0
 17 34  2  0
  9 35  1  0
 35 36  2  0
 36  6  1  0
 34 13  1  0
 33 19  1  0
 32 22  1  0
 30 25  1  0
  1 37  1  0
  1 38  1  0
  1 39  1  0
  2 40  1  0
  2 41  1  0
  4 42  1  0
  4 43  1  0
  5 44  1  0
  5 45  1  0
  5 46  1  0
  7 47  1  0
  8 48  1  0
 14 49  1  0
 15 50  1  0
 16 51  1  0
 20 52  1  0
 21 53  1  0
 26 54  1  0
 29 55  1  0
 29 56  1  0
 29 57  1  0
 33 58  1  0
 34 59  1  0
 35 60  1  0
 36 61  1  0
M  CHG  2  12  -1  23  -1
M  END
>  <UniqueID>  (15) 
15

>  <SMILES>  (15) 
CCN(CC)c1ccc(C(=O)[N-]c2cccc(Oc3ccc4[n-]c(-c5csc(C)n5)nc4c3)c2)cc1

>  <Energy>  (15) 
138.24189821687173

>  <Genealogy>  (15) 
CCN(CC)c1ccc(C(=O)[N-]c2cccc(Oc3ccc4[n-]c(-c5csc(C)n5)nc4c3)c2)cc1 (protonated)
CCN(CC)c1ccc(C(=O)[N-]c2cccc(Oc3ccc4[n-]c(-c5csc(C)n5)nc4c3)c2)cc1 (3D coordinates assigned)
CCN(CC)c1ccc(C(=O)[N-]c2cccc(Oc3ccc4[n-]c(-c5csc(C)n5)nc4c3)c2)cc1 (optimized conformer: 138.24189821687173 kcal/mol)

>  <smiles>  (15) 
CCN(CC)c1ccc(C(=O)Nc2cccc(Oc3ccc4[nH]c(-c5csc(C)n5)nc4c3)c2)cc1

>  <score_type>  (15) 
oracle

>  <origin>  (15) 
adgpu

>  <m_score__min__energy>  (15) 
-11.99

>  <m_primary>  (15) 
energy

$$$$
15:0
     RDKit          3D

 45 48  0  0  0  0  0  0  0  0999 V2000
   -7.5400   23.8160  -31.4520 O   0  0  0  0  0  0  0  0  0  0  0  0
   -6.4330   23.2950  -31.7490 C   0  0  0  0  0  0  0  0  0  0  0  0
   -6.4140   22.1830  -32.6520 N   0  0  0  0  0  0  0  0  0  0  0  0
   -7.0850   20.9300  -32.4580 C   0  0  0  0  0  0  0  0  0  0  0  0
   -8.3730   20.9450  -31.9070 C   0  0  0  0  0  0  0  0  0  0  0  0
   -9.0560   19.7510  -31.6700 C   0  0  0  0  0  0  0  0  0  0  0  0
   -8.4660   18.5300  -31.9980 C   0  0  0  0  0  0  0  0  0  0  0  0
   -7.1970   18.5010  -32.5800 C   0  0  0  0  0  0  0  0  0  0  0  0
   -6.4970   19.6950  -32.8280 C   0  0  0  0  0  0  0  0  0  0  0  0
   -5.2350   19.6450  -33.5190 N   0  0  0  0  0  0  0  0  0  0  0  0
   -4.9150   18.5260  -34.4070 C   0  0  0  0  0  0  0  0  0  0  0  0
   -3.6630   17.8190  -33.8770 C   0  0  0  0  0  0  0  0  0  0  0  0
   -2.5990   18.7380  -33.7030 O   0  0  0  0  0  0  0  0  0  0  0  0
   -2.9350   19.6940  -32.7110 C   0  0  0  0  0  0  0  0  0  0  0  0
   -4.1320   20.5390  -33.1570 C   0  0  0  0  0  0  0  0  0  0  0  0
   -5.2020   23.8150  -31.1260 C   0  0  0  0  0  0  0  0  0  0  0  0
   -4.1780   23.0520  -30.6040 C   0  0  0  0  0  0  0  0  0  0  0  0
   -3.2730   23.9840  -30.1370 C   0  0  0  0  0  0  0  0  0  0  0  0
   -2.0260   23.6900  -29.3960 C   0  0  0  0  0  0  0  0  0  0  0  0
   -1.6100   22.3510  -29.2710 C   0  0  0  0  0  0  0  0  0  0  0  0
   -0.4780   22.0240  -28.5200 C   0  0  0  0  0  0  0  0  0  0  0  0
    0.2520   23.0270  -27.8840 C   0  0  0  0  0  0  0  0  0  0  0  0
   -0.1380   24.3610  -28.0100 C   0  0  0  0  0  0  0  0  0  0  0  0
   -1.2600   24.7080  -28.7740 C   0  0  0  0  0  0  0  0  0  0  0  0
   -1.5580   26.0650  -28.9160 O   0  0  0  0  0  0  0  0  0  0  0  0
   -3.7440   25.2250  -30.3680 N   0  0  0  0  0  0  0  0  0  0  0  0
   -4.9140   25.1230  -30.9780 N   0  0  0  0  0  0  0  0  0  0  0  0
   -8.8496   21.9049  -31.6593 H   0  0  0  0  0  0  0  0  0  0  0  0
  -10.0612   19.7728  -31.2238 H   0  0  0  0  0  0  0  0  0  0  0  0
   -9.0007   17.5897  -31.7980 H   0  0  0  0  0  0  0  0  0  0  0  0
   -6.7412   17.5361  -32.8467 H   0  0  0  0  0  0  0  0  0  0  0  0
   -5.7574   17.8190  -34.4296 H   0  0  0  0  0  0  0  0  0  0  0  0
   -4.7319   18.8974  -35.4261 H   0  0  0  0  0  0  0  0  0  0  0  0
   -3.8963   17.3507  -32.9094 H   0  0  0  0  0  0  0  0  0  0  0  0
   -3.3536   17.0573  -34.6078 H   0  0  0  0  0  0  0  0  0  0  0  0
   -3.1899   19.1712  -31.7773 H   0  0  0  0  0  0  0  0  0  0  0  0
   -2.0724   20.3581  -32.5533 H   0  0  0  0  0  0  0  0  0  0  0  0
   -4.4457   21.1982  -32.3342 H   0  0  0  0  0  0  0  0  0  0  0  0
   -3.8512   21.1548  -34.0241 H   0  0  0  0  0  0  0  0  0  0  0  0
   -4.1006   21.9553  -30.5682 H   0  0  0  0  0  0  0  0  0  0  0  0
   -2.1817   21.5543  -29.7694 H   0  0  0  0  0  0  0  0  0  0  0  0
   -0.1625   20.9740  -28.4305 H   0  0  0  0  0  0  0  0  0  0  0  0
    1.1356   22.7669  -27.2827 H   0  0  0  0  0  0  0  0  0  0  0  0
    0.4412   25.1478  -27.5045 H   0  0  0  0  0  0  0  0  0  0  0  0
   -2.5010   26.4240  -28.9690 H   0  0  0  0  0  0  0  0  0  0  0  0
  1  2  2  0
  2  3  1  0
  3  4  1  0
  4  5  2  0
  5  6  1  0
  6  7  2  0
  7  8  1  0
  8  9  2  0
  9 10  1  0
 10 11  1  0
 11 12  1  0
 12 13  1  0
 13 14  1  0
 14 15  1  0
  2 16  1  0
 16 17  1  0
 17 18  2  0
 18 19  1  0
 19 20  2  0
 20 21  1  0
 21 22  2  0
 22 23  1  0
 23 24  2  0
 24 25  1  0
 18 26  1  0
 26 27  1  0
  9  4  1  0
 15 10  1  0
 27 16  2  0
 24 19  1  0
  5 28  1  0
  6 29  1  0
  7 30  1  0
  8 31  1  0
 11 32  1  0
 11 33  1  0
 12 34  1  0
 12 35  1  0
 14 36  1  0
 14 37  1  0
 15 38  1  0
 15 39  1  0
 17 40  1  0
 20 41  1  0
 21 42  1  0
 22 43  1  0
 23 44  1  0
 25 45  1  0
M  CHG  2   3  -1  26  -1
M  END
>  <UniqueID>  (16) 
16

>  <SMILES>  (16) 
O=C([N-]c1ccccc1N1CCOCC1)c1cc(-c2ccccc2O)[n-]n1

>  <Energy>  (16) 
95.04854067826837

>  <Genealogy>  (16) 
O=C([N-]c1ccccc1N1CCOCC1)c1cc(-c2ccccc2O)[n-]n1 (protonated)
O=C([N-]c1ccccc1N1CCOCC1)c1cc(-c2ccccc2O)[n-]n1 (3D coordinates assigned)
O=C([N-]c1ccccc1N1CCOCC1)c1cc(-c2ccccc2O)[n-]n1 (nonaromatic ring conformer: 95.04854067826837 kcal/mol)

>  <smiles>  (16) 
O=C(Nc1ccccc1N1CCOCC1)c1cc(-c2ccccc2O)[nH]n1

>  <score_type>  (16) 
oracle

>  <origin>  (16) 
adgpu

>  <m_score__min__energy>  (16) 
-12.210000000000001

>  <m_primary>  (16) 
energy

$$$$
16:0
     RDKit          3D

 56 58  0  0  0  0  0  0  0  0999 V2000
   -1.8460   19.0430  -27.1400 C   0  0  0  0  0  0  0  0  0  0  0  0
   -0.4180   19.1680  -27.6720 C   0  0  0  0  0  0  0  0  0  0  0  0
   -0.3180   20.1370  -28.8570 C   0  0  0  0  0  0  0  0  0  0  0  0
   -0.7950   21.5170  -28.4950 C   0  0  0  0  0  0  0  0  0  0  0  0
   -0.7980   21.9570  -27.2200 N   0  0  0  0  0  0  0  0  0  0  0  0
   -1.2460   23.2220  -27.3040 C   0  0  0  0  0  0  0  0  0  0  0  0
   -1.4230   24.1090  -26.1130 C   0  0  0  0  0  0  0  0  0  0  0  0
   -1.5040   23.5430  -28.6270 C   0  0  0  0  0  0  0  0  0  0  0  0
   -2.0170   24.8450  -29.1070 C   0  0  0  0  0  0  0  0  0  0  0  0
   -3.1840   24.9200  -29.5760 O   0  0  0  0  0  0  0  0  0  0  0  0
   -1.2180   26.0270  -29.0040 N   0  0  0  0  0  0  0  0  0  0  0  0
   -0.8730   26.6360  -27.7290 C   0  0  0  0  0  0  0  0  0  0  0  0
   -1.2100   22.4560  -29.3840 N   0  0  0  0  0  0  0  0  0  0  0  0
   -1.4550   22.2470  -30.8200 C   0  0  0  0  0  0  0  0  0  0  0  0
   -2.9260   22.0460  -31.0910 C   0  0  0  0  0  0  0  0  0  0  0  0
   -3.3850   21.8200  -32.3990 C   0  0  0  0  0  0  0  0  0  0  0  0
   -4.7480   21.6350  -32.6490 C   0  0  0  0  0  0  0  0  0  0  0  0
   -5.6720   21.6900  -31.5970 C   0  0  0  0  0  0  0  0  0  0  0  0
   -7.1090   21.4740  -31.8540 C   0  0  0  0  0  0  0  0  0  0  0  0
   -8.0150   22.4750  -31.4640 C   0  0  0  0  0  0  0  0  0  0  0  0
   -9.3840   22.3170  -31.6880 C   0  0  0  0  0  0  0  0  0  0  0  0
   -9.8630   21.1660  -32.3120 C   0  0  0  0  0  0  0  0  0  0  0  0
   -8.9740   20.1670  -32.7160 C   0  0  0  0  0  0  0  0  0  0  0  0
   -7.5930   20.3000  -32.4860 C   0  0  0  0  0  0  0  0  0  0  0  0
   -6.6630   19.2280  -33.0130 C   0  0  0  0  0  0  0  0  0  0  0  0
   -6.4950   19.3550  -34.4610 N   0  0  0  0  0  0  0  0  0  0  0  0
   -5.2190   21.9150  -30.2900 C   0  0  0  0  0  0  0  0  0  0  0  0
   -3.8570   22.1030  -30.0400 C   0  0  0  0  0  0  0  0  0  0  0  0
   -1.8290   19.0445  -26.0401 H   0  0  0  0  0  0  0  0  0  0  0  0
   -2.4465   19.8920  -27.4986 H   0  0  0  0  0  0  0  0  0  0  0  0
   -2.2899   18.1026  -27.4986 H   0  0  0  0  0  0  0  0  0  0  0  0
    0.2302   19.5329  -26.8616 H   0  0  0  0  0  0  0  0  0  0  0  0
   -0.1030   18.1745  -28.0238 H   0  0  0  0  0  0  0  0  0  0  0  0
    0.7319   20.1969  -29.1798 H   0  0  0  0  0  0  0  0  0  0  0  0
   -0.9600   19.7553  -29.6646 H   0  0  0  0  0  0  0  0  0  0  0  0
   -1.3048   23.5165  -25.1938 H   0  0  0  0  0  0  0  0  0  0  0  0
   -0.6664   24.9072  -26.1346 H   0  0  0  0  0  0  0  0  0  0  0  0
   -2.4280   24.5557  -26.1346 H   0  0  0  0  0  0  0  0  0  0  0  0
   -1.2341   25.9985  -26.9085 H   0  0  0  0  0  0  0  0  0  0  0  0
    0.2195   26.7423  -27.6571 H   0  0  0  0  0  0  0  0  0  0  0  0
   -1.3434   27.6277  -27.6571 H   0  0  0  0  0  0  0  0  0  0  0  0
   -1.1030   23.1275  -31.3774 H   0  0  0  0  0  0  0  0  0  0  0  0
   -0.9117   21.3464  -31.1421 H   0  0  0  0  0  0  0  0  0  0  0  0
   -2.6674   21.7884  -33.2321 H   0  0  0  0  0  0  0  0  0  0  0  0
   -5.0963   21.4456  -33.6751 H   0  0  0  0  0  0  0  0  0  0  0  0
   -7.6430   23.3894  -30.9788 H   0  0  0  0  0  0  0  0  0  0  0  0
  -10.0862   23.1024  -31.3715 H   0  0  0  0  0  0  0  0  0  0  0  0
  -10.9422   21.0443  -32.4864 H   0  0  0  0  0  0  0  0  0  0  0  0
   -9.3580   19.2673  -33.2191 H   0  0  0  0  0  0  0  0  0  0  0  0
   -5.6822   19.3293  -32.5255 H   0  0  0  0  0  0  0  0  0  0  0  0
   -7.0988   18.2423  -32.7927 H   0  0  0  0  0  0  0  0  0  0  0  0
   -7.2630   19.9430  -34.8610 H   0  0  0  0  0  0  0  0  0  0  0  0
   -5.5680   19.7880  -34.6800 H   0  0  0  0  0  0  0  0  0  0  0  0
   -6.5340   18.4050  -34.8950 H   0  0  0  0  0  0  0  0  0  0  0  0
   -5.9380   21.9437  -29.4580 H   0  0  0  0  0  0  0  0  0  0  0  0
   -3.5115   22.2969  -29.0138 H   0  0  0  0  0  0  0  0  0  0  0  0
  1  2  1  0
  2  3  1  0
  3  4  1  0
  4  5  2  0
  5  6  1  0
  6  7  1  0
  6  8  2  0
  8  9  1  0
  9 10  2  0
  9 11  1  0
 11 12  1  0
  8 13  1  0
 13 14  1  0
 14 15  1  0
 15 16  2  0
 16 17  1  0
 17 18  2  0
 18 19  1  0
 19 20  2  0
 20 21  1  0
 21 22  2  0
 22 23  1  0
 23 24  2  0
 24 25  1  0
 25 26  1  0
 18 27  1  0
 27 28  2  0
 13  4  1  0
 28 15  1  0
 24 19  1  0
  1 29  1  0
  1 30  1  0
  1 31  1  0
  2 32  1  0
  2 33  1  0
  3 34  1  0
  3 35  1  0
  7 36  1  0
  7 37  1  0
  7 38  1  0
 12 39  1  0
 12 40  1  0
 12 41  1  0
 14 42  1  0
 14 43  1  0
 16 44  1  0
 17 45  1  0
 20 46  1  0
 21 47  1  0
 22 48  1  0
 23 49  1  0
 25 50  1  0
 25 51  1  0
 26 52  1  0
 26 53  1  0
 26 54  1  0
 27 55  1  0
 28 56  1  0
M  CHG  2  11  -1  26   1
M  END
>  <UniqueID>  (17) 
17

>  <SMILES>  (17) 
CCCc1nc(C)c(C(=O)[N-]C)n1Cc1ccc(-c2ccccc2C[NH3+])cc1

>  <Energy>  (17) 
88.06361512394616

>  <Genealogy>  (17) 
CCCc1nc(C)c(C(=O)[N-]C)n1Cc1ccc(-c2ccccc2C[NH3+])cc1 (protonated)
CCCc1nc(C)c(C(=O)[N-]C)n1Cc1ccc(-c2ccccc2C[NH3+])cc1 (3D coordinates assigned)
CCCc1nc(C)c(C(=O)[N-]C)n1Cc1ccc(-c2ccccc2C[NH3+])cc1 (optimized conformer: 88.06361512394616 kcal/mol)

>  <smiles>  (17) 
CCCc1nc(C)c(C(=O)NC)n1Cc1ccc(-c2ccccc2CN)cc1

>  <score_type>  (17) 
oracle

>  <origin>  (17) 
adgpu

>  <m_score__min__energy>  (17) 
-10.369999999999999

>  <m_primary>  (17) 
energy

$$$$
17:0
     RDKit          3D

 52 55  0  0  0  0  0  0  0  0999 V2000
   -5.8730   17.2190  -32.0860 C   0  0  0  0  0  0  0  0  0  0  0  0
   -6.8790   17.7380  -33.0300 N   0  0  0  0  0  0  0  0  0  0  0  0
   -6.2510   18.4050  -34.1920 C   0  0  0  0  0  0  0  0  0  0  0  0
   -5.5510   19.7140  -33.7920 C   0  0  0  0  0  0  0  0  0  0  0  0
   -6.3280   20.4290  -32.7740 N   0  0  0  0  0  0  0  0  0  0  0  0
   -5.6630   21.2500  -31.7990 C   0  0  0  0  0  0  0  0  0  0  0  0
   -4.5140   20.8040  -31.2240 N   0  0  0  0  0  0  0  0  0  0  0  0
   -3.8390   21.5420  -30.3060 C   0  0  0  0  0  0  0  0  0  0  0  0
   -4.3360   22.7990  -29.9250 C   0  0  0  0  0  0  0  0  0  0  0  0
   -3.6530   23.6360  -28.9080 C   0  0  0  0  0  0  0  0  0  0  0  0
   -2.3870   24.1820  -29.1850 C   0  0  0  0  0  0  0  0  0  0  0  0
   -1.7360   24.9840  -28.2440 C   0  0  0  0  0  0  0  0  0  0  0  0
   -2.3400   25.2670  -27.0160 C   0  0  0  0  0  0  0  0  0  0  0  0
   -1.6560   26.0810  -26.0990 O   0  0  0  0  0  0  0  0  0  0  0  0
   -0.4370   25.7630  -25.4820 C   0  0  0  0  0  0  0  0  0  0  0  0
    0.4070   26.7530  -24.9480 C   0  0  0  0  0  0  0  0  0  0  0  0
    1.6210   26.3970  -24.3500 C   0  0  0  0  0  0  0  0  0  0  0  0
    2.0100   25.0490  -24.2730 C   0  0  0  0  0  0  0  0  0  0  0  0
    3.3410   24.6690  -23.6760 C   0  0  0  0  0  0  0  0  0  0  0  0
    4.2590   24.4830  -24.6920 F   0  0  0  0  0  0  0  0  0  0  0  0
    3.2310   23.4990  -22.9460 F   0  0  0  0  0  0  0  0  0  0  0  0
    3.8020   25.6640  -22.8300 F   0  0  0  0  0  0  0  0  0  0  0  0
    1.1840   24.0690  -24.8530 C   0  0  0  0  0  0  0  0  0  0  0  0
   -0.0310   24.4260  -25.4450 C   0  0  0  0  0  0  0  0  0  0  0  0
   -3.5870   24.6940  -26.7140 C   0  0  0  0  0  0  0  0  0  0  0  0
   -4.2380   23.8880  -27.6520 C   0  0  0  0  0  0  0  0  0  0  0  0
   -5.4990   23.2320  -30.4840 N   0  0  0  0  0  0  0  0  0  0  0  0
   -6.1720   22.5030  -31.4120 C   0  0  0  0  0  0  0  0  0  0  0  0
   -7.4130   23.0140  -31.9320 C   0  0  0  0  0  0  0  0  0  0  0  0
   -8.4120   23.4260  -32.3450 N   0  0  0  0  0  0  0  0  0  0  0  0
   -7.7410   20.0860  -32.5980 C   0  0  0  0  0  0  0  0  0  0  0  0
   -7.9010   18.5740  -32.3470 C   0  0  0  0  0  0  0  0  0  0  0  0
   -6.2130   17.3944  -31.0547 H   0  0  0  0  0  0  0  0  0  0  0  0
   -5.7394   16.1394  -32.2494 H   0  0  0  0  0  0  0  0  0  0  0  0
   -4.9158   17.7358  -32.2494 H   0  0  0  0  0  0  0  0  0  0  0  0
   -5.5078   17.7248  -34.6337 H   0  0  0  0  0  0  0  0  0  0  0  0
   -7.0437   18.6492  -34.9145 H   0  0  0  0  0  0  0  0  0  0  0  0
   -4.5546   19.4815  -33.3881 H   0  0  0  0  0  0  0  0  0  0  0  0
   -5.4629   20.3536  -34.6826 H   0  0  0  0  0  0  0  0  0  0  0  0
   -2.9083   21.1577  -29.8632 H   0  0  0  0  0  0  0  0  0  0  0  0
   -1.9045   23.9757  -30.1518 H   0  0  0  0  0  0  0  0  0  0  0  0
   -0.7415   25.3953  -28.4713 H   0  0  0  0  0  0  0  0  0  0  0  0
    0.1117   27.8113  -25.0006 H   0  0  0  0  0  0  0  0  0  0  0  0
    2.2758   27.1784  -23.9370 H   0  0  0  0  0  0  0  0  0  0  0  0
    1.4964   23.0144  -24.8406 H   0  0  0  0  0  0  0  0  0  0  0  0
   -0.6727   23.6485  -25.8852 H   0  0  0  0  0  0  0  0  0  0  0  0
   -4.0528   24.8806  -25.7351 H   0  0  0  0  0  0  0  0  0  0  0  0
   -5.2154   23.4468  -27.4072 H   0  0  0  0  0  0  0  0  0  0  0  0
   -8.1439   20.6406  -31.7377 H   0  0  0  0  0  0  0  0  0  0  0  0
   -8.2895   20.3553  -33.5127 H   0  0  0  0  0  0  0  0  0  0  0  0
   -7.8290   18.3932  -31.2644 H   0  0  0  0  0  0  0  0  0  0  0  0
   -8.8784   18.2837  -32.7598 H   0  0  0  0  0  0  0  0  0  0  0  0
  1  2  1  0
  2  3  1  0
  3  4  1  0
  4  5  1  0
  5  6  1  0
  6  7  2  0
  7  8  1  0
  8  9  2  0
  9 10  1  0
 10 11  2  0
 11 12  1  0
 12 13  2  0
 13 14  1  0
 14 15  1  0
 15 16  2  0
 16 17  1  0
 17 18  2  0
 18 19  1  0
 19 20  1  0
 19 21  1  0
 19 22  1  0
 18 23  1  0
 23 24  2  0
 13 25  1  0
 25 26  2  0
  9 27  1  0
 27 28  2  0
 28 29  1  0
 29 30  3  0
  5 31  1  0
 31 32  1  0
 32  2  1  0
 28  6  1  0
 26 10  1  0
 24 15  1  0
  1 33  1  0
  1 34  1  0
  1 35  1  0
  3 36  1  0
  3 37  1  0
  4 38  1  0
  4 39  1  0
  8 40  1  0
 11 41  1  0
 12 42  1  0
 16 43  1  0
 17 44  1  0
 23 45  1  0
 24 46  1  0
 25 47  1  0
 26 48  1  0
 31 49  1  0
 31 50  1  0
 32 51  1  0
 32 52  1  0
M  END
>  <UniqueID>  (18) 
18

>  <SMILES>  (18) 
CN1CCN(c2ncc(-c3ccc(Oc4ccc(C(F)(F)F)cc4)cc3)nc2C#N)CC1

>  <Energy>  (18) 
80.31794560377784

>  <Genealogy>  (18) 
CN1CCN(c2ncc(-c3ccc(Oc4ccc(C(F)(F)F)cc4)cc3)nc2C#N)CC1 (3D coordinates assigned)
CN1CCN(c2ncc(-c3ccc(Oc4ccc(C(F)(F)F)cc4)cc3)nc2C#N)CC1 (nonaromatic ring conformer: 80.31794560377784 kcal/mol)

>  <smiles>  (18) 
CN1CCN(c2ncc(-c3ccc(Oc4ccc(C(F)(F)F)cc4)cc3)nc2C#N)CC1

>  <score_type>  (18) 
oracle

>  <origin>  (18) 
adgpu

>  <m_score__min__energy>  (18) 
-8.3399999999999999

>  <m_primary>  (18) 
energy

$$$$
18:0
     RDKit          3D

 56 58  0  0  0  0  0  0  0  0999 V2000
   -0.2360   21.4960  -28.5210 C   0  0  0  0  0  0  0  0  0  0  0  0
   -1.3280   22.2970  -29.1770 C   0  0  0  0  0  0  0  0  0  0  0  0
   -2.0160   21.7350  -30.2660 C   0  0  0  0  0  0  0  0  0  0  0  0
   -3.0160   22.4530  -30.9270 C   0  0  0  0  0  0  0  0  0  0  0  0
   -3.3620   23.7440  -30.4920 C   0  0  0  0  0  0  0  0  0  0  0  0
   -4.3570   24.5540  -31.1330 N   0  0  0  0  0  0  0  0  0  0  0  0
   -5.4510   25.3120  -30.5970 C   0  0  0  0  0  0  0  0  0  0  0  0
   -5.3690   26.5570  -30.4290 O   0  0  0  0  0  0  0  0  0  0  0  0
   -6.6850   24.6470  -30.3110 N   0  0  0  0  0  0  0  0  0  0  0  0
   -7.0480   23.4020  -30.9220 C   0  0  0  0  0  0  0  0  0  0  0  0
   -8.2620   23.2640  -31.6150 C   0  0  0  0  0  0  0  0  0  0  0  0
   -8.6590   22.0170  -32.1020 C   0  0  0  0  0  0  0  0  0  0  0  0
   -7.8550   20.8910  -31.8900 C   0  0  0  0  0  0  0  0  0  0  0  0
   -8.4340   19.2920  -32.3590 S   0  0  0  0  0  0  0  0  0  0  0  0
   -9.7660   19.4380  -33.0440 O   0  0  0  0  0  0  0  0  0  0  0  0
   -8.6400   18.4580  -31.1230 O   0  0  0  0  0  0  0  0  0  0  0  0
   -7.3240   18.4720  -33.4430 N   0  0  0  0  0  0  0  0  0  0  0  0
   -6.1920   19.3310  -33.8600 C   0  0  0  0  0  0  0  0  0  0  0  0
   -4.8900   19.0190  -33.0990 C   0  0  0  0  0  0  0  0  0  0  0  0
   -5.1760   18.5270  -31.8090 O   0  0  0  0  0  0  0  0  0  0  0  0
   -5.7500   17.2370  -31.9050 C   0  0  0  0  0  0  0  0  0  0  0  0
   -6.9020   17.1510  -32.9360 C   0  0  0  0  0  0  0  0  0  0  0  0
   -6.6100   21.0400  -31.2600 C   0  0  0  0  0  0  0  0  0  0  0  0
   -6.2040   22.2930  -30.7870 C   0  0  0  0  0  0  0  0  0  0  0  0
   -2.6760   24.3060  -29.4130 C   0  0  0  0  0  0  0  0  0  0  0  0
   -1.6400   23.6170  -28.7670 C   0  0  0  0  0  0  0  0  0  0  0  0
   -0.7900   24.4240  -27.4350 S   0  0  0  0  0  0  0  0  0  0  0  0
    0.5450   24.9310  -27.9050 O   0  0  0  0  0  0  0  0  0  0  0  0
   -0.5820   23.4210  -26.3350 O   0  0  0  0  0  0  0  0  0  0  0  0
   -1.7390   25.7660  -26.8390 N   0  0  0  0  0  0  0  0  0  0  0  0
   -0.9960   26.4690  -25.7860 C   0  0  0  0  0  0  0  0  0  0  0  0
   -3.0160   25.2740  -26.3090 C   0  0  0  0  0  0  0  0  0  0  0  0
   -0.3345   21.5682  -27.4278 H   0  0  0  0  0  0  0  0  0  0  0  0
   -0.3189   20.4429  -28.8278 H   0  0  0  0  0  0  0  0  0  0  0  0
    0.7436   21.8913  -28.8278 H   0  0  0  0  0  0  0  0  0  0  0  0
   -1.7644   20.7182  -30.6019 H   0  0  0  0  0  0  0  0  0  0  0  0
   -3.5334   22.0071  -31.7893 H   0  0  0  0  0  0  0  0  0  0  0  0
   -8.9035   24.1431  -31.7749 H   0  0  0  0  0  0  0  0  0  0  0  0
   -9.6057   21.9193  -32.6535 H   0  0  0  0  0  0  0  0  0  0  0  0
   -6.0147   19.1803  -34.9351 H   0  0  0  0  0  0  0  0  0  0  0  0
   -6.4661   20.3716  -33.6318 H   0  0  0  0  0  0  0  0  0  0  0  0
   -4.3179   18.2624  -33.6560 H   0  0  0  0  0  0  0  0  0  0  0  0
   -4.3037   19.9449  -33.0040 H   0  0  0  0  0  0  0  0  0  0  0  0
   -4.9638   16.5268  -32.2008 H   0  0  0  0  0  0  0  0  0  0  0  0
   -6.1776   16.9980  -30.9201 H   0  0  0  0  0  0  0  0  0  0  0  0
   -6.5657   16.5403  -33.7869 H   0  0  0  0  0  0  0  0  0  0  0  0
   -7.7673   16.7035  -32.4251 H   0  0  0  0  0  0  0  0  0  0  0  0
   -5.9504   20.1683  -31.1374 H   0  0  0  0  0  0  0  0  0  0  0  0
   -5.2202   22.4068  -30.3084 H   0  0  0  0  0  0  0  0  0  0  0  0
   -2.9546   25.3108  -29.0626 H   0  0  0  0  0  0  0  0  0  0  0  0
   -1.3508   26.1333  -24.8004 H   0  0  0  0  0  0  0  0  0  0  0  0
    0.0770   26.2478  -25.8843 H   0  0  0  0  0  0  0  0  0  0  0  0
   -1.1575   27.5526  -25.8843 H   0  0  0  0  0  0  0  0  0  0  0  0
   -2.9856   25.2857  -25.2095 H   0  0  0  0  0  0  0  0  0  0  0  0
   -3.8327   25.9218  -26.6601 H   0  0  0  0  0  0  0  0  0  0  0  0
   -3.1869   24.2457  -26.6601 H   0  0  0  0  0  0  0  0  0  0  0  0
  1  2  1  0
  2  3  2  0
  3  4  1  0
  4  5  2  0
  5  6  1  0
  6  7  1  0
  7  8  2  0
  7  9  1  0
  9 10  1  0
 10 11  2  0
 11 12  1  0
 12 13  2  0
 13 14  1  0
 14 15  2  0
 14 16  2  0
 14 17  1  0
 17 18  1  0
 18 19  1  0
 19 20  1  0
 20 21  1  0
 21 22  1  0
 13 23  1  0
 23 24  2  0
  5 25  1  0
 25 26  2  0
 26 27  1  0
 27 28  2  0
 27 29  2  0
 27 30  1  0
 30 31  1  0
 30 32  1  0
 26  2  1  0
 24 10  1  0
 22 17  1  0
  1 33  1  0
  1 34  1  0
  1 35  1  0
  3 36  1  0
  4 37  1  0
 11 38  1  0
 12 39  1  0
 18 40  1  0
 18 41  1  0
 19 42  1  0
 19 43  1  0
 21 44  1  0
 21 45  1  0
 22 46  1  0
 22 47  1  0
 23 48  1  0
 24 49  1  0
 25 50  1  0
 31 51  1  0
 31 52  1  0
 31 53  1  0
 32 54  1  0
 32 55  1  0
 32 56  1  0
M  CHG  2   6  -1   9  -1
M  END
>  <UniqueID>  (19) 
19

>  <SMILES>  (19) 
Cc1ccc([N-]C(=O)[N-]c2ccc(S(=O)(=O)N3CCOCC3)cc2)cc1S(=O)(=O)N(C)C

>  <Energy>  (19) 
74.05197459242808

>  <Genealogy>  (19) 
Cc1ccc([N-]C(=O)[N-]c2ccc(S(=O)(=O)N3CCOCC3)cc2)cc1S(=O)(=O)N(C)C (protonated)
Cc1ccc([N-]C(=O)[N-]c2ccc(S(=O)(=O)N3CCOCC3)cc2)cc1S(=O)(=O)N(C)C (3D coordinates assigned)
Cc1ccc([N-]C(=O)[N-]c2ccc(S(=O)(=O)N3CCOCC3)cc2)cc1S(=O)(=O)N(C)C (nonaromatic ring conformer: 74.05197459242808 kcal/mol)

>  <smiles>  (19) 
Cc1ccc(NC(=O)Nc2ccc(S(=O)(=O)N3CCOCC3)cc2)cc1S(=O)(=O)N(C)C

>  <score_type>  (19) 
oracle

>  <origin>  (19) 
adgpu

>  <m_score__min__energy>  (19) 
-12.199999999999999

>  <m_primary>  (19) 
energy

$$$$
19:0
     RDKit          3D

 55 58  0  0  0  0  0  0  0  0999 V2000
   -8.5085   23.5240  -31.4790 H   0  0  0  0  0  0  0  0  0  0  0  0
   -8.0880   22.5170  -31.6170 C   0  0  0  0  0  0  0  0  0  0  0  0
   -8.9150   21.4710  -32.0330 C   0  0  0  0  0  0  0  0  0  0  0  0
   -9.9836   21.6599  -32.2128 H   0  0  0  0  0  0  0  0  0  0  0  0
   -8.3950   20.1800  -32.2240 C   0  0  0  0  0  0  0  0  0  0  0  0
   -9.3020   19.0830  -32.7100 C   0  0  0  0  0  0  0  0  0  0  0  0
   -9.7366   18.5573  -31.8470 H   0  0  0  0  0  0  0  0  0  0  0  0
  -10.1085   19.5170  -33.3192 H   0  0  0  0  0  0  0  0  0  0  0  0
   -8.7242   18.3724  -33.3192 H   0  0  0  0  0  0  0  0  0  0  0  0
   -7.0330   19.9350  -31.9340 C   0  0  0  0  0  0  0  0  0  0  0  0
   -6.4500   18.6310  -32.1150 N   0  0  0  0  0  0  0  0  0  0  0  0
   -6.5230   17.7110  -31.0890 C   0  0  0  0  0  0  0  0  0  0  0  0
   -7.0480   17.9749  -30.1591 H   0  0  0  0  0  0  0  0  0  0  0  0
   -5.9510   16.4760  -31.2140 N   0  0  0  0  0  0  0  0  0  0  0  0
   -5.3060   16.1870  -32.3650 C   0  0  0  0  0  0  0  0  0  0  0  0
   -4.6440   15.0500  -32.7680 C   0  0  0  0  0  0  0  0  0  0  0  0
   -4.5250   13.7670  -32.0160 C   0  0  0  0  0  0  0  0  0  0  0  0
   -4.5440   13.9722  -30.9355 H   0  0  0  0  0  0  0  0  0  0  0  0
   -5.3659   13.1085  -32.2790 H   0  0  0  0  0  0  0  0  0  0  0  0
   -3.5773   13.2744  -32.2790 H   0  0  0  0  0  0  0  0  0  0  0  0
   -4.1750   15.2550  -34.0250 N   0  0  0  0  0  0  0  0  0  0  0  0
   -4.5130   16.4880  -34.3930 N   0  0  0  0  0  0  0  0  0  0  0  0
   -4.1730   17.0730  -35.6860 C   0  0  0  0  0  0  0  0  0  0  0  0
   -3.6258   18.0144  -35.5300 H   0  0  0  0  0  0  0  0  0  0  0  0
   -3.5419   16.3714  -36.2513 H   0  0  0  0  0  0  0  0  0  0  0  0
   -5.0950   17.2741  -36.2513 H   0  0  0  0  0  0  0  0  0  0  0  0
   -5.2070   17.0650  -33.3900 C   0  0  0  0  0  0  0  0  0  0  0  0
   -5.7890   18.3230  -33.2830 C   0  0  0  0  0  0  0  0  0  0  0  0
   -5.7180   19.1520  -34.2320 O   0  0  0  0  0  0  0  0  0  0  0  0
   -6.2170   20.9890  -31.4990 C   0  0  0  0  0  0  0  0  0  0  0  0
   -5.1633   20.7922  -31.2520 H   0  0  0  0  0  0  0  0  0  0  0  0
   -6.7250   22.2920  -31.3740 C   0  0  0  0  0  0  0  0  0  0  0  0
   -5.8320   23.4160  -30.9940 C   0  0  0  0  0  0  0  0  0  0  0  0
   -5.5380   24.2920  -31.8490 O   0  0  0  0  0  0  0  0  0  0  0  0
   -5.3500   23.5750  -29.6510 N   0  0  0  0  0  0  0  0  0  0  0  0
   -4.2240   24.1350  -29.3100 C   0  0  0  0  0  0  0  0  0  0  0  0
   -3.7230   24.1690  -28.0290 C   0  0  0  0  0  0  0  0  0  0  0  0
   -4.1744   23.7686  -27.1092 H   0  0  0  0  0  0  0  0  0  0  0  0
   -2.5110   24.8300  -28.1760 C   0  0  0  0  0  0  0  0  0  0  0  0
   -1.5040   25.1230  -27.0820 C   0  0  0  0  0  0  0  0  0  0  0  0
   -2.2280   25.6320  -25.8190 C   0  0  0  0  0  0  0  0  0  0  0  0
   -1.7053   25.2645  -24.9236 H   0  0  0  0  0  0  0  0  0  0  0  0
   -2.2310   26.7320  -25.8163 H   0  0  0  0  0  0  0  0  0  0  0  0
   -3.2641   25.2625  -25.8163 H   0  0  0  0  0  0  0  0  0  0  0  0
   -0.5210   26.2050  -27.5670 C   0  0  0  0  0  0  0  0  0  0  0  0
   -0.0674   26.7043  -26.6981 H   0  0  0  0  0  0  0  0  0  0  0  0
    0.2680   25.7378  -28.1746 H   0  0  0  0  0  0  0  0  0  0  0  0
   -1.0615   26.9457  -28.1746 H   0  0  0  0  0  0  0  0  0  0  0  0
   -0.7330   23.8350  -26.7380 C   0  0  0  0  0  0  0  0  0  0  0  0
   -0.6684   23.7271  -25.6452 H   0  0  0  0  0  0  0  0  0  0  0  0
   -1.2606   22.9677  -27.1615 H   0  0  0  0  0  0  0  0  0  0  0  0
    0.2807   23.8903  -27.1615 H   0  0  0  0  0  0  0  0  0  0  0  0
   -2.3610   25.1660  -29.4430 O   0  0  0  0  0  0  0  0  0  0  0  0
   -3.3760   24.7630  -30.1480 N   0  0  0  0  0  0  0  0  0  0  0  0
   -3.4880   24.9390  -31.1710 H   0  0  0  0  0  0  0  0  0  0  0  0
  1  2  1  0
  2  3  2  0
  3  4  1  0
  3  5  1  0
  5  6  1  0
  6  7  1  0
  6  8  1  0
  6  9  1  0
  5 10  2  0
 10 11  1  0
 11 12  1  0
 12 13  1  0
 12 14  2  0
 14 15  1  0
 15 16  1  0
 16 17  1  0
 17 18  1  0
 17 19  1  0
 17 20  1  0
 16 21  2  0
 21 22  1  0
 22 23  1  0
 23 24  1  0
 23 25  1  0
 23 26  1  0
 22 27  1  0
 27 28  1  0
 28 29  2  0
 10 30  1  0
 30 31  1  0
 30 32  2  0
 32 33  1  0
 33 34  2  0
 33 35  1  0
 35 36  2  0
 36 37  1  0
 37 38  1  0
 37 39  2  0
 39 40  1  0
 40 41  1  0
 41 42  1  0
 41 43  1  0
 41 44  1  0
 40 45  1  0
 45 46  1  0
 45 47  1  0
 45 48  1  0
 40 49  1  0
 49 50  1  0
 49 51  1  0
 49 52  1  0
 39 53  1  0
 53 54  1  0
 54 55  1  0
 32  2  1  0
 54 36  1  0
 28 11  1  0
 27 15  2  0
M  END
>  <UniqueID>  (20) 
20

>  <SMILES>  (20) 
Cc1ccc(C(=O)/N=c2/cc(C(C)(C)C)o[nH]2)cc1-n1cnc2c(C)nn(C)c2c1=O

>  <Energy>  (20) 
142.54455601487385

>  <Genealogy>  (20) 
Cc1ccc(C(=O)/N=c2/cc(C(C)(C)C)o[nH]2)cc1-n1cnc2c(C)nn(C)c2c1=O (cis-trans isomerization)
Cc1ccc(C(=O)/N=c2/cc(C(C)(C)C)o[nH]2)cc1-n1cnc2c(C)nn(C)c2c1=O (3D coordinates assigned)
Cc1ccc(C(=O)/N=c2/cc(C(C)(C)C)o[nH]2)cc1-n1cnc2c(C)nn(C)c2c1=O (optimized conformer: 142.54455601487385 kcal/mol)

>  <smiles>  (20) 
Cc1ccc(C(=O)N=c2cc(C(C)(C)C)o[nH]2)cc1-n1cnc2c(C)nn(C)c2c1=O

>  <score_type>  (20) 
oracle

>  <origin>  (20) 
adgpu

>  <m_score__min__energy>  (20) 
-11.35

>  <m_primary>  (20) 
energy

$$$$
20:0
     RDKit          3D

 41 43  0  0  0  0  0  0  0  0999 V2000
   -7.6080   18.8410  -32.3450 C   0  0  0  0  0  0  0  0  0  0  0  0
   -7.9440   20.2110  -32.5380 O   0  0  0  0  0  0  0  0  0  0  0  0
   -7.2970   21.2860  -31.9080 C   0  0  0  0  0  0  0  0  0  0  0  0
   -7.9200   22.0310  -30.8870 C   0  0  0  0  0  0  0  0  0  0  0  0
   -7.2770   23.1360  -30.3250 C   0  0  0  0  0  0  0  0  0  0  0  0
   -6.0090   23.5180  -30.7740 C   0  0  0  0  0  0  0  0  0  0  0  0
   -5.2340   24.9410  -30.0870 S   0  0  0  0  0  0  0  0  0  0  0  0
   -5.4020   24.9760  -28.5920 O   0  0  0  0  0  0  0  0  0  0  0  0
   -5.8640   26.1710  -30.6760 O   0  0  0  0  0  0  0  0  0  0  0  0
   -3.5420   24.9300  -30.4680 N   0  0  0  0  0  0  0  0  0  0  0  0
   -2.5610   24.0810  -29.8560 C   0  0  0  0  0  0  0  0  0  0  0  0
   -2.7120   22.6810  -29.8090 C   0  0  0  0  0  0  0  0  0  0  0  0
   -1.7240   21.8830  -29.2130 C   0  0  0  0  0  0  0  0  0  0  0  0
   -1.8490   20.4890  -29.1620 C   0  0  0  0  0  0  0  0  0  0  0  0
   -0.8470   19.7240  -28.5600 C   0  0  0  0  0  0  0  0  0  0  0  0
    0.2710   20.3620  -28.0140 C   0  0  0  0  0  0  0  0  0  0  0  0
    1.1810   19.6830  -27.4680 O   0  0  0  0  0  0  0  0  0  0  0  0
    0.3800   21.7160  -28.0710 N   0  0  0  0  0  0  0  0  0  0  0  0
   -0.5790   22.4870  -28.6510 C   0  0  0  0  0  0  0  0  0  0  0  0
   -0.4340   23.8760  -28.6920 C   0  0  0  0  0  0  0  0  0  0  0  0
   -1.4180   24.6690  -29.2910 C   0  0  0  0  0  0  0  0  0  0  0  0
   -1.2550   26.0500  -29.3250 O   0  0  0  0  0  0  0  0  0  0  0  0
   -5.3770   22.7750  -31.7790 C   0  0  0  0  0  0  0  0  0  0  0  0
   -6.0010   21.6470  -32.3280 C   0  0  0  0  0  0  0  0  0  0  0  0
   -5.3220   20.9240  -33.3630 N   0  0  0  0  0  0  0  0  0  0  0  0
   -4.0180   20.3390  -33.2560 C   0  0  0  0  0  0  0  0  0  0  0  0
   -2.7850   21.1720  -33.0770 C   0  0  0  0  0  0  0  0  0  0  0  0
   -3.9020   19.0880  -33.3420 O   0  0  0  0  0  0  0  0  0  0  0  0
   -7.5550   18.6247  -31.2678 H   0  0  0  0  0  0  0  0  0  0  0  0
   -8.3770   18.2060  -32.8091 H   0  0  0  0  0  0  0  0  0  0  0  0
   -6.6324   18.6338  -32.8091 H   0  0  0  0  0  0  0  0  0  0  0  0
   -8.9192   21.7404  -30.5304 H   0  0  0  0  0  0  0  0  0  0  0  0
   -7.7702   23.7084  -29.5256 H   0  0  0  0  0  0  0  0  0  0  0  0
   -3.6081   22.2118  -30.2413 H   0  0  0  0  0  0  0  0  0  0  0  0
   -2.7333   19.9981  -29.5945 H   0  0  0  0  0  0  0  0  0  0  0  0
   -0.9368   18.6286  -28.5159 H   0  0  0  0  0  0  0  0  0  0  0  0
    0.4570   24.3474  -28.2517 H   0  0  0  0  0  0  0  0  0  0  0  0
   -4.3835   23.0792  -32.1400 H   0  0  0  0  0  0  0  0  0  0  0  0
   -2.5860   21.3065  -32.0035 H   0  0  0  0  0  0  0  0  0  0  0  0
   -1.9292   20.6662  -33.5480 H   0  0  0  0  0  0  0  0  0  0  0  0
   -2.9348   22.1547  -33.5480 H   0  0  0  0  0  0  0  0  0  0  0  0
  1  2  1  0
  2  3  1  0
  3  4  2  0
  4  5  1  0
  5  6  2  0
  6  7  1  0
  7  8  2  0
  7  9  2  0
  7 10  1  0
 10 11  1  0
 11 12  2  0
 12 13  1  0
 13 14  1  0
 14 15  2  0
 15 16  1  0
 16 17  2  0
 16 18  1  0
 18 19  1  0
 19 20  1  0
 20 21  2  0
 21 22  1  0
  6 23  1  0
 23 24  2  0
 24 25  1  0
 25 26  1  0
 26 27  1  0
 26 28  2  0
 24  3  1  0
 21 11  1  0
 19 13  2  0
  1 29  1  0
  1 30  1  0
  1 31  1  0
  4 32  1  0
  5 33  1  0
 12 34  1  0
 14 35  1  0
 15 36  1  0
 20 37  1  0
 23 38  1  0
 27 39  1  0
 27 40  1  0
 27 41  1  0
M  CHG  4  10  -1  18  -1  22  -1  25  -1
M  END
>  <UniqueID>  (21) 
21

>  <SMILES>  (21) 
COc1ccc(S(=O)(=O)[N-]c2cc3ccc(=O)[n-]c3cc2[O-])cc1[N-]C(C)=O

>  <Energy>  (21) 
54.30223294104419

>  <Genealogy>  (21) 
COc1ccc(S(=O)(=O)[N-]c2cc3ccc(=O)[n-]c3cc2[O-])cc1[N-]C(C)=O (protonated)
COc1ccc(S(=O)(=O)[N-]c2cc3ccc(=O)[n-]c3cc2[O-])cc1[N-]C(C)=O (3D coordinates assigned)
COc1ccc(S(=O)(=O)[N-]c2cc3ccc(=O)[n-]c3cc2[O-])cc1[N-]C(C)=O (optimized conformer: 54.30223294104419 kcal/mol)

>  <smiles>  (21) 
COc1ccc(S(=O)(=O)Nc2cc3ccc(=O)[nH]c3cc2O)cc1NC(C)=O

>  <score_type>  (21) 
oracle

>  <origin>  (21) 
adgpu

>  <m_score__min__energy>  (21) 
-13.02

>  <m_primary>  (21) 
energy

$$$$
21:0
     RDKit          3D

 57 60  0  0  0  0  0  0  0  0999 V2000
   -0.8840   22.5460  -30.4810 C   0  0  0  0  0  0  0  0  0  0  0  0
   -1.2520   23.0130  -29.1130 C   0  0  0  0  0  0  0  0  0  0  0  0
   -0.6380   22.5950  -27.9870 N   0  0  0  0  0  0  0  0  0  0  0  0
   -1.1170   23.3090  -26.9770 N   0  0  0  0  0  0  0  0  0  0  0  0
   -0.5880   23.2230  -25.6190 C   0  0  0  0  0  0  0  0  0  0  0  0
   -2.0090   24.2130  -27.4360 C   0  0  0  0  0  0  0  0  0  0  0  0
   -2.6220   25.3090  -26.6180 C   0  0  0  0  0  0  0  0  0  0  0  0
   -2.1260   24.0360  -28.7990 C   0  0  0  0  0  0  0  0  0  0  0  0
   -2.7610   24.9230  -29.7190 N   0  0  0  0  0  0  0  0  0  0  0  0
   -4.4740   24.8630  -29.9570 S   0  0  0  0  0  0  0  0  0  0  0  0
   -4.9020   26.0450  -30.7790 O   0  0  0  0  0  0  0  0  0  0  0  0
   -5.1780   24.9130  -28.6300 O   0  0  0  0  0  0  0  0  0  0  0  0
   -4.8780   23.3760  -30.8050 C   0  0  0  0  0  0  0  0  0  0  0  0
   -4.0780   22.2380  -30.6660 C   0  0  0  0  0  0  0  0  0  0  0  0
   -4.4830   21.0280  -31.2310 C   0  0  0  0  0  0  0  0  0  0  0  0
   -5.6960   20.9650  -31.9380 C   0  0  0  0  0  0  0  0  0  0  0  0
   -6.1930   19.7150  -32.4500 N   0  0  0  0  0  0  0  0  0  0  0  0
   -6.8590   19.6160  -33.7530 C   0  0  0  0  0  0  0  0  0  0  0  0
   -6.0410   18.7340  -34.7220 C   0  0  0  0  0  0  0  0  0  0  0  0
   -4.9740   17.8480  -34.0110 C   0  0  0  0  0  0  0  0  0  0  0  0
   -4.5820   16.6630  -34.9580 C   0  0  0  0  0  0  0  0  0  0  0  0
   -3.0670   16.5060  -35.0980 C   0  0  0  0  0  0  0  0  0  0  0  0
   -2.3990   16.6650  -33.7410 C   0  0  0  0  0  0  0  0  0  0  0  0
   -2.7700   18.0180  -33.1050 C   0  0  0  0  0  0  0  0  0  0  0  0
   -3.8450   18.6860  -33.7540 O   0  0  0  0  0  0  0  0  0  0  0  0
   -5.6070   17.3180  -32.6860 C   0  0  0  0  0  0  0  0  0  0  0  0
   -5.9270   18.4710  -31.7140 C   0  0  0  0  0  0  0  0  0  0  0  0
   -6.4540   22.0900  -32.0590 N   0  0  0  0  0  0  0  0  0  0  0  0
   -6.0740   23.2800  -31.5250 C   0  0  0  0  0  0  0  0  0  0  0  0
   -0.2048   21.6841  -30.4039 H   0  0  0  0  0  0  0  0  0  0  0  0
   -1.7933   22.2488  -31.0240 H   0  0  0  0  0  0  0  0  0  0  0  0
   -0.3824   23.3606  -31.0240 H   0  0  0  0  0  0  0  0  0  0  0  0
   -1.4073   23.3562  -24.8972 H   0  0  0  0  0  0  0  0  0  0  0  0
   -0.1232   22.2375  -25.4683 H   0  0  0  0  0  0  0  0  0  0  0  0
    0.1651   24.0105  -25.4683 H   0  0  0  0  0  0  0  0  0  0  0  0
   -2.4957   25.0831  -25.5489 H   0  0  0  0  0  0  0  0  0  0  0  0
   -2.1263   26.2626  -26.8524 H   0  0  0  0  0  0  0  0  0  0  0  0
   -3.6940   25.3857  -26.8524 H   0  0  0  0  0  0  0  0  0  0  0  0
   -3.1298   22.2963  -30.1115 H   0  0  0  0  0  0  0  0  0  0  0  0
   -3.8572   20.1297  -31.1238 H   0  0  0  0  0  0  0  0  0  0  0  0
   -7.8559   19.1719  -33.6155 H   0  0  0  0  0  0  0  0  0  0  0  0
   -6.9450   20.6251  -34.1824 H   0  0  0  0  0  0  0  0  0  0  0  0
   -6.7360   18.0746  -35.2626 H   0  0  0  0  0  0  0  0  0  0  0  0
   -5.4984   19.4134  -35.3959 H   0  0  0  0  0  0  0  0  0  0  0  0
   -4.9975   15.7307  -34.5480 H   0  0  0  0  0  0  0  0  0  0  0  0
   -4.9905   16.8814  -35.9557 H   0  0  0  0  0  0  0  0  0  0  0  0
   -2.8401   15.5079  -35.5008 H   0  0  0  0  0  0  0  0  0  0  0  0
   -2.6858   17.2798  -35.7805 H   0  0  0  0  0  0  0  0  0  0  0  0
   -2.7302   15.8519  -33.0783 H   0  0  0  0  0  0  0  0  0  0  0  0
   -1.3082   16.6265  -33.8778 H   0  0  0  0  0  0  0  0  0  0  0  0
   -3.0544   17.8414  -32.0572 H   0  0  0  0  0  0  0  0  0  0  0  0
   -1.8874   18.6675  -33.2002 H   0  0  0  0  0  0  0  0  0  0  0  0
   -6.5376   16.7817  -32.9236 H   0  0  0  0  0  0  0  0  0  0  0  0
   -4.8826   16.6475  -32.2006 H   0  0  0  0  0  0  0  0  0  0  0  0
   -6.8144   18.2064  -31.1202 H   0  0  0  0  0  0  0  0  0  0  0  0
   -5.0595   18.6289  -31.0563 H   0  0  0  0  0  0  0  0  0  0  0  0
   -6.7074   24.1693  -31.6588 H   0  0  0  0  0  0  0  0  0  0  0  0
  1  2  1  0
  2  3  2  0
  3  4  1  0
  4  5  1  0
  4  6  1  0
  6  7  1  0
  6  8  2  0
  8  9  1  0
  9 10  1  0
 10 11  2  0
 10 12  2  0
 10 13  1  0
 13 14  2  0
 14 15  1  0
 15 16  2  0
 16 17  1  0
 17 18  1  0
 18 19  1  0
 19 20  1  0
 20 21  1  0
 21 22  1  0
 22 23  1  0
 23 24  1  0
 24 25  1  0
 20 26  1  0
 26 27  1  0
 16 28  1  0
 28 29  2  0
  8  2  1  0
 29 13  1  0
 27 17  1  0
 25 20  1  0
  1 30  1  0
  1 31  1  0
  1 32  1  0
  5 33  1  0
  5 34  1  0
  5 35  1  0
  7 36  1  0
  7 37  1  0
  7 38  1  0
 14 39  1  0
 15 40  1  0
 18 41  1  0
 18 42  1  0
 19 43  1  0
 19 44  1  0
 21 45  1  0
 21 46  1  0
 22 47  1  0
 22 48  1  0
 23 49  1  0
 23 50  1  0
 24 51  1  0
 24 52  1  0
 26 53  1  0
 26 54  1  0
 27 55  1  0
 27 56  1  0
 29 57  1  0
M  CHG  1   9  -1
M  END
>  <UniqueID>  (22) 
22

>  <SMILES>  (22) 
Cc1nn(C)c(C)c1[N-]S(=O)(=O)c1ccc(N2CCC3(CCCCO3)CC2)nc1

>  <Energy>  (22) 
112.87759561116269

>  <Genealogy>  (22) 
Cc1nn(C)c(C)c1[N-]S(=O)(=O)c1ccc(N2CCC3(CCCCO3)CC2)nc1 (protonated)
Cc1nn(C)c(C)c1[N-]S(=O)(=O)c1ccc(N2CCC3(CCCCO3)CC2)nc1 (3D coordinates assigned)
Cc1nn(C)c(C)c1[N-]S(=O)(=O)c1ccc(N2CCC3(CCCCO3)CC2)nc1 (nonaromatic ring conformer: 112.87759561116269 kcal/mol)

>  <smiles>  (22) 
Cc1nn(C)c(C)c1NS(=O)(=O)c1ccc(N2CCC3(CCCCO3)CC2)nc1

>  <score_type>  (22) 
oracle

>  <origin>  (22) 
adgpu

>  <m_score__min__energy>  (22) 
-9.9800000000000004

>  <m_primary>  (22) 
energy

$$$$
22:0
     RDKit          3D

 46 48  0  0  0  0  0  0  0  0999 V2000
   -5.6110   23.4340  -29.2680 N   0  0  0  0  0  0  0  0  0  0  0  0
   -4.2000   23.9190  -30.1410 S   0  0  0  0  0  0  0  0  0  0  0  0
   -4.5980   24.9480  -31.1680 O   0  0  0  0  0  0  0  0  0  0  0  0
   -3.2010   24.5360  -29.1960 O   0  0  0  0  0  0  0  0  0  0  0  0
   -3.4690   22.5140  -30.9300 C   0  0  0  0  0  0  0  0  0  0  0  0
   -2.5460   21.7230  -30.2280 C   0  0  0  0  0  0  0  0  0  0  0  0
   -1.9550   20.6110  -30.8440 C   0  0  0  0  0  0  0  0  0  0  0  0
   -2.2960   20.2680  -32.1660 C   0  0  0  0  0  0  0  0  0  0  0  0
   -1.6590   19.1760  -32.8510 N   0  0  0  0  0  0  0  0  0  0  0  0
   -2.3130   18.2180  -33.6930 C   0  0  0  0  0  0  0  0  0  0  0  0
   -2.1090   18.2120  -34.9360 O   0  0  0  0  0  0  0  0  0  0  0  0
   -3.2610   17.2370  -33.0840 C   0  0  0  0  0  0  0  0  0  0  0  0
   -4.6550   17.7650  -33.2160 C   0  0  0  0  0  0  0  0  0  0  0  0
   -5.1620   18.4400  -34.3230 C   0  0  0  0  0  0  0  0  0  0  0  0
   -6.4230   19.0050  -34.0960 C   0  0  0  0  0  0  0  0  0  0  0  0
   -6.8850   18.7950  -32.8040 C   0  0  0  0  0  0  0  0  0  0  0  0
   -8.3550   19.4730  -32.1190 S   0  0  0  0  0  0  0  0  0  0  0  0
   -9.4900   19.2670  -33.0860 O   0  0  0  0  0  0  0  0  0  0  0  0
   -8.6750   18.7370  -30.8460 O   0  0  0  0  0  0  0  0  0  0  0  0
   -8.1840   21.1800  -31.7720 N   0  0  0  0  0  0  0  0  0  0  0  0
   -6.9920   21.7230  -32.4440 C   0  0  0  0  0  0  0  0  0  0  0  0
   -6.8940   23.2490  -32.2090 C   0  0  0  0  0  0  0  0  0  0  0  0
   -7.9400   23.7230  -31.3760 O   0  0  0  0  0  0  0  0  0  0  0  0
   -9.1960   23.4320  -31.9670 C   0  0  0  0  0  0  0  0  0  0  0  0
   -9.3820   21.9180  -32.2070 C   0  0  0  0  0  0  0  0  0  0  0  0
   -5.7460   17.9090  -31.9420 S   0  0  0  0  0  0  0  0  0  0  0  0
   -3.2110   21.0670  -32.8660 C   0  0  0  0  0  0  0  0  0  0  0  0
   -3.7950   22.1850  -32.2550 C   0  0  0  0  0  0  0  0  0  0  0  0
   -5.7890   24.1650  -28.5380 H   0  0  0  0  0  0  0  0  0  0  0  0
   -6.4170   23.4820  -29.9380 H   0  0  0  0  0  0  0  0  0  0  0  0
   -2.2853   21.9768  -29.1899 H   0  0  0  0  0  0  0  0  0  0  0  0
   -1.2220   20.0042  -30.2922 H   0  0  0  0  0  0  0  0  0  0  0  0
   -3.1804   16.2723  -33.6064 H   0  0  0  0  0  0  0  0  0  0  0  0
   -3.0161   17.0920  -32.0214 H   0  0  0  0  0  0  0  0  0  0  0  0
   -4.6258   18.5214  -35.2800 H   0  0  0  0  0  0  0  0  0  0  0  0
   -6.9881   19.5573  -34.8612 H   0  0  0  0  0  0  0  0  0  0  0  0
   -6.0930   21.2347  -32.0397 H   0  0  0  0  0  0  0  0  0  0  0  0
   -7.0705   21.5308  -33.5242 H   0  0  0  0  0  0  0  0  0  0  0  0
   -5.9290   23.4743  -31.7315 H   0  0  0  0  0  0  0  0  0  0  0  0
   -6.9800   23.7509  -33.1841 H   0  0  0  0  0  0  0  0  0  0  0  0
   -9.9944   23.7869  -31.2987 H   0  0  0  0  0  0  0  0  0  0  0  0
   -9.2401   23.9398  -32.9418 H   0  0  0  0  0  0  0  0  0  0  0  0
  -10.2531   21.5645  -31.6359 H   0  0  0  0  0  0  0  0  0  0  0  0
   -9.5393   21.7430  -33.2815 H   0  0  0  0  0  0  0  0  0  0  0  0
   -3.4729   20.8142  -33.9040 H   0  0  0  0  0  0  0  0  0  0  0  0
   -4.5101   22.8057  -32.8148 H   0  0  0  0  0  0  0  0  0  0  0  0
  1  2  1  0
  2  3  2  0
  2  4  2  0
  2  5  1  0
  5  6  2  0
  6  7  1  0
  7  8  2  0
  8  9  1  0
  9 10  1  0
 10 11  2  0
 10 12  1  0
 12 13  1  0
 13 14  2  0
 14 15  1  0
 15 16  2  0
 16 17  1  0
 17 18  2  0
 17 19  2  0
 17 20  1  0
 20 21  1  0
 21 22  1  0
 22 23  1  0
 23 24  1  0
 24 25  1  0
 16 26  1  0
  8 27  1  0
 27 28  2  0
 28  5  1  0
 26 13  1  0
 25 20  1  0
  1 29  1  0
  1 30  1  0
  6 31  1  0
  7 32  1  0
 12 33  1  0
 12 34  1  0
 14 35  1  0
 15 36  1  0
 21 37  1  0
 21 38  1  0
 22 39  1  0
 22 40  1  0
 24 41  1  0
 24 42  1  0
 25 43  1  0
 25 44  1  0
 27 45  1  0
 28 46  1  0
M  CHG  1   9  -1
M  END
>  <UniqueID>  (23) 
23

>  <SMILES>  (23) 
NS(=O)(=O)c1ccc([N-]C(=O)Cc2ccc(S(=O)(=O)N3CCOCC3)s2)cc1

>  <Energy>  (23) 
78.93605546538934

>  <Genealogy>  (23) 
NS(=O)(=O)c1ccc([N-]C(=O)Cc2ccc(S(=O)(=O)N3CCOCC3)s2)cc1 (protonated)
NS(=O)(=O)c1ccc([N-]C(=O)Cc2ccc(S(=O)(=O)N3CCOCC3)s2)cc1 (3D coordinates assigned)
NS(=O)(=O)c1ccc([N-]C(=O)Cc2ccc(S(=O)(=O)N3CCOCC3)s2)cc1 (nonaromatic ring conformer: 78.93605546538934 kcal/mol)

>  <smiles>  (23) 
NS(=O)(=O)c1ccc(NC(=O)Cc2ccc(S(=O)(=O)N3CCOCC3)s2)cc1

>  <score_type>  (23) 
oracle

>  <origin>  (23) 
adgpu

>  <m_score__min__energy>  (23) 
-11.02

>  <m_primary>  (23) 
energy

$$$$
23:0
     RDKit          3D

 54 56  0  0  0  0  0  0  0  0999 V2000
   -9.0180   18.5410  -31.6130 C   0  0  0  0  0  0  0  0  0  0  0  0
   -8.6010   19.4870  -32.7320 C   0  0  0  0  0  0  0  0  0  0  0  0
   -7.2080   19.9120  -32.5490 N   0  0  0  0  0  0  0  0  0  0  0  0
   -6.0980   19.3790  -33.1340 C   0  0  0  0  0  0  0  0  0  0  0  0
   -6.1060   18.2010  -34.0670 C   0  0  0  0  0  0  0  0  0  0  0  0
   -4.9730   20.1440  -32.8170 C   0  0  0  0  0  0  0  0  0  0  0  0
   -3.3170   19.9000  -33.3870 S   0  0  0  0  0  0  0  0  0  0  0  0
   -3.3100   18.8970  -34.5050 O   0  0  0  0  0  0  0  0  0  0  0  0
   -2.7570   21.1900  -33.9160 O   0  0  0  0  0  0  0  0  0  0  0  0
   -2.2980   19.3020  -32.0490 C   0  0  0  0  0  0  0  0  0  0  0  0
   -1.7630   20.4560  -31.2080 C   0  0  0  0  0  0  0  0  0  0  0  0
   -5.4240   21.1520  -31.9870 C   0  0  0  0  0  0  0  0  0  0  0  0
   -4.7430   22.1920  -31.3510 C   0  0  0  0  0  0  0  0  0  0  0  0
   -5.4880   23.1020  -30.5780 C   0  0  0  0  0  0  0  0  0  0  0  0
   -4.6640   24.4400  -29.7900 S   0  0  0  0  0  0  0  0  0  0  0  0
   -5.6660   25.2840  -29.0520 O   0  0  0  0  0  0  0  0  0  0  0  0
   -3.9790   25.3080  -30.8090 O   0  0  0  0  0  0  0  0  0  0  0  0
   -3.4730   23.7910  -28.6690 C   0  0  0  0  0  0  0  0  0  0  0  0
   -2.6090   24.6520  -27.9840 C   0  0  0  0  0  0  0  0  0  0  0  0
   -1.6820   24.1420  -27.0740 C   0  0  0  0  0  0  0  0  0  0  0  0
   -1.6090   22.7570  -26.8300 C   0  0  0  0  0  0  0  0  0  0  0  0
   -0.6900   22.2110  -25.9190 O   0  0  0  0  0  0  0  0  0  0  0  0
   -0.2040   22.8830  -24.7610 C   0  0  0  0  0  0  0  0  0  0  0  0
   -2.4830   21.8890  -27.5150 C   0  0  0  0  0  0  0  0  0  0  0  0
   -2.4310   20.4080  -27.2610 C   0  0  0  0  0  0  0  0  0  0  0  0
   -3.4140   22.4140  -28.4270 C   0  0  0  0  0  0  0  0  0  0  0  0
   -6.8900   22.9580  -30.4710 C   0  0  0  0  0  0  0  0  0  0  0  0
   -7.5500   21.8950  -31.1120 C   0  0  0  0  0  0  0  0  0  0  0  0
   -6.7820   20.9940  -31.8590 C   0  0  0  0  0  0  0  0  0  0  0  0
   -8.8111   19.0104  -30.6399 H   0  0  0  0  0  0  0  0  0  0  0  0
  -10.0938   18.3271  -31.6956 H   0  0  0  0  0  0  0  0  0  0  0  0
   -8.4501   17.6025  -31.6956 H   0  0  0  0  0  0  0  0  0  0  0  0
   -8.6987   18.9708  -33.6985 H   0  0  0  0  0  0  0  0  0  0  0  0
   -9.2509   20.3742  -32.7105 H   0  0  0  0  0  0  0  0  0  0  0  0
   -6.1123   17.2697  -33.4817 H   0  0  0  0  0  0  0  0  0  0  0  0
   -7.0039   18.2416  -34.7012 H   0  0  0  0  0  0  0  0  0  0  0  0
   -5.2076   18.2294  -34.7012 H   0  0  0  0  0  0  0  0  0  0  0  0
   -2.8985   18.6391  -31.4087 H   0  0  0  0  0  0  0  0  0  0  0  0
   -1.4440   18.7566  -32.4772 H   0  0  0  0  0  0  0  0  0  0  0  0
   -1.8749   20.2146  -30.1407 H   0  0  0  0  0  0  0  0  0  0  0  0
   -0.6992   20.6152  -31.4383 H   0  0  0  0  0  0  0  0  0  0  0  0
   -2.3289   21.3707  -31.4383 H   0  0  0  0  0  0  0  0  0  0  0  0
   -3.6527   22.2973  -31.4515 H   0  0  0  0  0  0  0  0  0  0  0  0
   -2.6606   25.7360  -28.1635 H   0  0  0  0  0  0  0  0  0  0  0  0
   -1.0037   24.8266  -26.5437 H   0  0  0  0  0  0  0  0  0  0  0  0
   -0.5730   22.3728  -23.8591 H   0  0  0  0  0  0  0  0  0  0  0  0
    0.8959   22.8713  -24.7648 H   0  0  0  0  0  0  0  0  0  0  0  0
   -0.5596   23.9239  -24.7648 H   0  0  0  0  0  0  0  0  0  0  0  0
   -2.4245   20.2219  -26.1769 H   0  0  0  0  0  0  0  0  0  0  0  0
   -3.3128   19.9278  -27.7101 H   0  0  0  0  0  0  0  0  0  0  0  0
   -1.5177   19.9908  -27.7101 H   0  0  0  0  0  0  0  0  0  0  0  0
   -4.1019   21.7372  -28.9549 H   0  0  0  0  0  0  0  0  0  0  0  0
   -7.4695   23.6836  -29.8813 H   0  0  0  0  0  0  0  0  0  0  0  0
   -8.6402   21.7745  -31.0288 H   0  0  0  0  0  0  0  0  0  0  0  0
  1  2  1  0
  2  3  1  0
  3  4  1  0
  4  5  1  0
  4  6  2  0
  6  7  1  0
  7  8  2  0
  7  9  2  0
  7 10  1  0
 10 11  1  0
  6 12  1  0
 12 13  2  0
 13 14  1  0
 14 15  1  0
 15 16  2  0
 15 17  2  0
 15 18  1  0
 18 19  2  0
 19 20  1  0
 20 21  2  0
 21 22  1  0
 22 23  1  0
 21 24  1  0
 24 25  1  0
 24 26  2  0
 14 27  2  0
 27 28  1  0
 28 29  2  0
 29  3  1  0
 29 12  1  0
 26 18  1  0
  1 30  1  0
  1 31  1  0
  1 32  1  0
  2 33  1  0
  2 34  1  0
  5 35  1  0
  5 36  1  0
  5 37  1  0
 10 38  1  0
 10 39  1  0
 11 40  1  0
 11 41  1  0
 11 42  1  0
 13 43  1  0
 19 44  1  0
 20 45  1  0
 23 46  1  0
 23 47  1  0
 23 48  1  0
 25 49  1  0
 25 50  1  0
 25 51  1  0
 26 52  1  0
 27 53  1  0
 28 54  1  0
M  END
>  <UniqueID>  (24) 
24

>  <SMILES>  (24) 
CCn1c(C)c(S(=O)(=O)CC)c2cc(S(=O)(=O)c3ccc(OC)c(C)c3)ccc21

>  <Energy>  (24) 
81.74356913702283

>  <Genealogy>  (24) 
CCn1c(C)c(S(=O)(=O)CC)c2cc(S(=O)(=O)c3ccc(OC)c(C)c3)ccc21 (3D coordinates assigned)
CCn1c(C)c(S(=O)(=O)CC)c2cc(S(=O)(=O)c3ccc(OC)c(C)c3)ccc21 (optimized conformer: 81.74356913702283 kcal/mol)

>  <smiles>  (24) 
CCn1c(C)c(S(=O)(=O)CC)c2cc(S(=O)(=O)c3ccc(OC)c(C)c3)ccc21

>  <score_type>  (24) 
oracle

>  <origin>  (24) 
adgpu

>  <m_score__min__energy>  (24) 
-10.119999999999999

>  <m_primary>  (24) 
energy

$$$$
24:0
     RDKit          3D

 55 58  0  0  0  0  0  0  0  0999 V2000
    2.1500   18.2140  -27.8320 C   0  0  0  0  0  0  0  0  0  0  0  0
    1.1430   18.9600  -28.6580 C   0  0  0  0  0  0  0  0  0  0  0  0
    1.4150   19.2590  -30.0010 C   0  0  0  0  0  0  0  0  0  0  0  0
    0.4640   19.9210  -30.7850 C   0  0  0  0  0  0  0  0  0  0  0  0
   -0.7790   20.2810  -30.2400 C   0  0  0  0  0  0  0  0  0  0  0  0
   -1.8000   20.9590  -31.0830 C   0  0  0  0  0  0  0  0  0  0  0  0
   -2.0060   22.3450  -30.9340 C   0  0  0  0  0  0  0  0  0  0  0  0
   -1.2080   23.0690  -30.0470 O   0  0  0  0  0  0  0  0  0  0  0  0
   -1.5310   23.2060  -28.6700 C   0  0  0  0  0  0  0  0  0  0  0  0
   -1.7320   24.6880  -28.3720 C   0  0  0  0  0  0  0  0  0  0  0  0
   -2.6350   25.2440  -29.3250 O   0  0  0  0  0  0  0  0  0  0  0  0
   -3.8280   24.6170  -29.7010 C   0  0  0  0  0  0  0  0  0  0  0  0
   -4.5240   25.0960  -30.7660 N   0  0  0  0  0  0  0  0  0  0  0  0
   -5.6990   24.5260  -31.1470 C   0  0  0  0  0  0  0  0  0  0  0  0
   -6.2020   23.4320  -30.4420 C   0  0  0  0  0  0  0  0  0  0  0  0
   -7.8580   22.6190  -30.9440 Br  0  0  0  0  0  0  0  0  0  0  0  0
   -5.4720   22.9490  -29.3580 C   0  0  0  0  0  0  0  0  0  0  0  0
   -4.3020   23.5460  -29.0100 N   0  0  0  0  0  0  0  0  0  0  0  0
   -2.9670   22.9760  -31.6650 N   0  0  0  0  0  0  0  0  0  0  0  0
   -3.7490   22.3040  -32.5470 C   0  0  0  0  0  0  0  0  0  0  0  0
   -3.5860   20.9300  -32.7330 C   0  0  0  0  0  0  0  0  0  0  0  0
   -2.6100   20.2320  -31.9870 C   0  0  0  0  0  0  0  0  0  0  0  0
   -2.4240   18.9470  -32.1130 N   0  0  0  0  0  0  0  0  0  0  0  0
   -3.2990   17.8470  -33.1320 S   0  0  0  0  0  0  0  0  0  0  0  0
   -2.9080   18.0690  -34.5650 O   0  0  0  0  0  0  0  0  0  0  0  0
   -3.0050   16.4280  -32.7380 O   0  0  0  0  0  0  0  0  0  0  0  0
   -5.0230   18.1560  -32.9290 C   0  0  0  0  0  0  0  0  0  0  0  0
   -5.6790   19.1220  -33.7090 C   0  0  0  0  0  0  0  0  0  0  0  0
   -7.0450   19.3620  -33.5290 C   0  0  0  0  0  0  0  0  0  0  0  0
   -7.7620   18.6450  -32.5670 C   0  0  0  0  0  0  0  0  0  0  0  0
   -9.4750   18.9480  -32.3410 Cl  0  0  0  0  0  0  0  0  0  0  0  0
   -7.1100   17.6850  -31.7830 C   0  0  0  0  0  0  0  0  0  0  0  0
   -5.7440   17.4420  -31.9630 C   0  0  0  0  0  0  0  0  0  0  0  0
   -1.0560   19.9660  -28.8980 C   0  0  0  0  0  0  0  0  0  0  0  0
   -0.1040   19.3030  -28.1160 C   0  0  0  0  0  0  0  0  0  0  0  0
    1.9374   18.3715  -26.7643 H   0  0  0  0  0  0  0  0  0  0  0  0
    2.0907   17.1402  -28.0632 H   0  0  0  0  0  0  0  0  0  0  0  0
    3.1599   18.5836  -28.0632 H   0  0  0  0  0  0  0  0  0  0  0  0
    2.3815   18.9714  -30.4404 H   0  0  0  0  0  0  0  0  0  0  0  0
    0.6913   20.1608  -31.8342 H   0  0  0  0  0  0  0  0  0  0  0  0
   -2.4555   22.6529  -28.4477 H   0  0  0  0  0  0  0  0  0  0  0  0
   -0.7198   22.8003  -28.0476 H   0  0  0  0  0  0  0  0  0  0  0  0
   -2.1475   24.8059  -27.3603 H   0  0  0  0  0  0  0  0  0  0  0  0
   -0.7655   25.2097  -28.4334 H   0  0  0  0  0  0  0  0  0  0  0  0
   -6.2516   24.9269  -32.0095 H   0  0  0  0  0  0  0  0  0  0  0  0
   -5.8421   22.0860  -28.7850 H   0  0  0  0  0  0  0  0  0  0  0  0
   -3.1050   24.0060  -31.5450 H   0  0  0  0  0  0  0  0  0  0  0  0
   -4.5166   22.8455  -33.1194 H   0  0  0  0  0  0  0  0  0  0  0  0
   -4.2152   20.3927  -33.4578 H   0  0  0  0  0  0  0  0  0  0  0  0
   -5.1169   19.6916  -34.4637 H   0  0  0  0  0  0  0  0  0  0  0  0
   -7.5559   20.1162  -34.1455 H   0  0  0  0  0  0  0  0  0  0  0  0
   -7.6728   17.1211  -31.0245 H   0  0  0  0  0  0  0  0  0  0  0  0
   -5.2347   16.6883  -31.3444 H   0  0  0  0  0  0  0  0  0  0  0  0
   -2.0267   20.2424  -28.4605 H   0  0  0  0  0  0  0  0  0  0  0  0
   -0.3348   19.0495  -27.0708 H   0  0  0  0  0  0  0  0  0  0  0  0
  1  2  1  0
  2  3  2  0
  3  4  1  0
  4  5  2  0
  5  6  1  0
  6  7  2  0
  7  8  1  0
  8  9  1  0
  9 10  1  0
 10 11  1  0
 11 12  1  0
 12 13  2  0
 13 14  1  0
 14 15  2  0
 15 16  1  0
 15 17  1  0
 17 18  2  0
  7 19  1  0
 19 20  1  0
 20 21  2  0
 21 22  1  0
 22 23  2  3
 23 24  1  0
 24 25  2  0
 24 26  2  0
 24 27  1  0
 27 28  2  0
 28 29  1  0
 29 30  2  0
 30 31  1  0
 30 32  1  0
 32 33  2  0
  5 34  1  0
 34 35  2  0
 35  2  1  0
 22  6  1  0
 33 27  1  0
 18 12  1  0
  1 36  1  0
  1 37  1  0
  1 38  1  0
  3 39  1  0
  4 40  1  0
  9 41  1  0
  9 42  1  0
 10 43  1  0
 10 44  1  0
 14 45  1  0
 17 46  1  0
 19 47  1  0
 20 48  1  0
 21 49  1  0
 28 50  1  0
 29 51  1  0
 32 52  1  0
 33 53  1  0
 34 54  1  0
 35 55  1  0
M  END
>  <UniqueID>  (25) 
25

>  <SMILES>  (25) 
Cc1ccc(-c2c(OCCOc3ncc(Br)cn3)[nH]ccc2=NS(=O)(=O)c2ccc(Cl)cc2)cc1

>  <Energy>  (25) 
74.41161764625087

>  <Genealogy>  (25) 
Cc1ccc(-c2c(OCCOc3ncc(Br)cn3)[nH]ccc2=NS(=O)(=O)c2ccc(Cl)cc2)cc1 (3D coordinates assigned)
Cc1ccc(-c2c(OCCOc3ncc(Br)cn3)[nH]ccc2=NS(=O)(=O)c2ccc(Cl)cc2)cc1 (optimized conformer: 74.41161764625087 kcal/mol)

>  <smiles>  (25) 
Cc1ccc(-c2c(OCCOc3ncc(Br)cn3)[nH]ccc2=NS(=O)(=O)c2ccc(Cl)cc2)cc1

>  <score_type>  (25) 
oracle

>  <origin>  (25) 
adgpu

>  <m_score__min__energy>  (25) 
-10.619999999999999

>  <m_primary>  (25) 
energy

$$$$
25:0
     RDKit          3D

 34 36  0  0  0  0  0  0  0  0999 V2000
   -4.9260   24.5650  -28.6010 N   0  0  0  0  0  0  0  0  0  0  0  0
   -5.1150   24.7580  -30.3070 S   0  0  0  0  0  0  0  0  0  0  0  0
   -4.0360   25.6640  -30.8320 O   0  0  0  0  0  0  0  0  0  0  0  0
   -6.4500   25.3830  -30.5970 O   0  0  0  0  0  0  0  0  0  0  0  0
   -5.0080   23.1860  -31.0960 C   0  0  0  0  0  0  0  0  0  0  0  0
   -3.8210   22.4470  -31.0360 C   0  0  0  0  0  0  0  0  0  0  0  0
   -3.7400   21.1930  -31.6500 C   0  0  0  0  0  0  0  0  0  0  0  0
   -4.8490   20.6570  -32.3270 C   0  0  0  0  0  0  0  0  0  0  0  0
   -4.7690   19.3670  -32.9680 N   0  0  0  0  0  0  0  0  0  0  0  0
   -3.5110   18.6710  -33.0430 C   0  0  0  0  0  0  0  0  0  0  0  0
   -3.4110   17.4060  -33.3520 N   0  0  0  0  0  0  0  0  0  0  0  0
   -4.4990   16.4990  -33.6430 C   0  0  0  0  0  0  0  0  0  0  0  0
   -4.2210   15.1290  -33.7960 C   0  0  0  0  0  0  0  0  0  0  0  0
   -5.2440   14.2220  -34.0880 C   0  0  0  0  0  0  0  0  0  0  0  0
   -6.5570   14.6720  -34.2340 C   0  0  0  0  0  0  0  0  0  0  0  0
   -6.8480   16.0310  -34.0910 C   0  0  0  0  0  0  0  0  0  0  0  0
   -5.8240   16.9400  -33.7950 C   0  0  0  0  0  0  0  0  0  0  0  0
   -6.1830   18.6340  -33.6360 S   0  0  0  0  0  0  0  0  0  0  0  0
   -6.4880   19.2210  -34.9850 O   0  0  0  0  0  0  0  0  0  0  0  0
   -7.3460   18.8220  -32.7030 O   0  0  0  0  0  0  0  0  0  0  0  0
   -6.0400   21.4040  -32.3770 C   0  0  0  0  0  0  0  0  0  0  0  0
   -6.1200   22.6560  -31.7640 C   0  0  0  0  0  0  0  0  0  0  0  0
   -4.7780   25.5180  -28.1990 H   0  0  0  0  0  0  0  0  0  0  0  0
   -5.8410   24.2210  -28.2300 H   0  0  0  0  0  0  0  0  0  0  0  0
   -2.9485   22.8540  -30.5039 H   0  0  0  0  0  0  0  0  0  0  0  0
   -2.8011   20.6218  -31.6027 H   0  0  0  0  0  0  0  0  0  0  0  0
   -2.5891   19.2320  -32.8297 H   0  0  0  0  0  0  0  0  0  0  0  0
   -2.4450   17.0070  -33.3610 H   0  0  0  0  0  0  0  0  0  0  0  0
   -3.1881   14.7673  -33.6848 H   0  0  0  0  0  0  0  0  0  0  0  0
   -5.0138   13.1525  -34.2028 H   0  0  0  0  0  0  0  0  0  0  0  0
   -7.3619   13.9575  -34.4614 H   0  0  0  0  0  0  0  0  0  0  0  0
   -7.8817   16.3874  -34.2109 H   0  0  0  0  0  0  0  0  0  0  0  0
   -6.9162   20.9981  -32.9038 H   0  0  0  0  0  0  0  0  0  0  0  0
   -7.0587   23.2280  -31.8056 H   0  0  0  0  0  0  0  0  0  0  0  0
  1  2  1  0
  2  3  2  0
  2  4  2  0
  2  5  1  0
  5  6  2  0
  6  7  1  0
  7  8  2  0
  8  9  1  0
  9 10  1  0
 10 11  2  0
 11 12  1  0
 12 13  2  0
 13 14  1  0
 14 15  2  0
 15 16  1  0
 16 17  2  0
 17 18  1  0
 18 19  2  0
 18 20  2  0
  8 21  1  0
 21 22  2  0
 22  5  1  0
 18  9  1  0
 17 12  1  0
  1 23  1  0
  1 24  1  0
  6 25  1  0
  7 26  1  0
 10 27  1  0
 11 28  1  0
 13 29  1  0
 14 30  1  0
 15 31  1  0
 16 32  1  0
 21 33  1  0
 22 34  1  0
M  CHG  1  11   1
M  END
>  <UniqueID>  (26) 
26

>  <SMILES>  (26) 
NS(=O)(=O)c1ccc(N2C=[NH+]c3ccccc3S2(=O)=O)cc1

>  <Energy>  (26) 
45.99418632661724

>  <Genealogy>  (26) 
NS(=O)(=O)c1ccc(N2C=[NH+]c3ccccc3S2(=O)=O)cc1 (protonated)
NS(=O)(=O)c1ccc(N2C=[NH+]c3ccccc3S2(=O)=O)cc1 (3D coordinates assigned)
NS(=O)(=O)c1ccc(N2C=[NH+]c3ccccc3S2(=O)=O)cc1 (nonaromatic ring conformer: 45.99418632661724 kcal/mol)

>  <smiles>  (26) 
NS(=O)(=O)c1ccc(N2C=Nc3ccccc3S2(=O)=O)cc1

>  <score_type>  (26) 
oracle

>  <origin>  (26) 
adgpu

>  <m_score__min__energy>  (26) 
-8.3300000000000001

>  <m_primary>  (26) 
energy

$$$$
26:0
     RDKit          3D

 41 42  0  0  0  0  0  0  0  0999 V2000
   -4.5720   14.4570  -31.6400 C   0  0  0  0  0  0  0  0  0  0  0  0
   -5.2630   15.7410  -31.6110 N   0  0  0  0  0  0  0  0  0  0  0  0
   -5.5280   16.4790  -32.8130 C   0  0  0  0  0  0  0  0  0  0  0  0
   -5.2860   15.9490  -33.9330 O   0  0  0  0  0  0  0  0  0  0  0  0
   -6.1020   17.8460  -32.7650 C   0  0  0  0  0  0  0  0  0  0  0  0
   -7.4580   18.0550  -32.4560 C   0  0  0  0  0  0  0  0  0  0  0  0
   -7.9910   19.3520  -32.4220 C   0  0  0  0  0  0  0  0  0  0  0  0
   -9.4310   19.5670  -32.0600 C   0  0  0  0  0  0  0  0  0  0  0  0
   -7.1550   20.4510  -32.6570 C   0  0  0  0  0  0  0  0  0  0  0  0
   -5.7910   20.2600  -32.9380 C   0  0  0  0  0  0  0  0  0  0  0  0
   -4.9220   21.3360  -33.1830 O   0  0  0  0  0  0  0  0  0  0  0  0
   -4.4960   22.2440  -32.2050 C   0  0  0  0  0  0  0  0  0  0  0  0
   -5.3490   23.2670  -31.7320 C   0  0  0  0  0  0  0  0  0  0  0  0
   -6.7610   23.4040  -32.2330 C   0  0  0  0  0  0  0  0  0  0  0  0
   -4.8640   24.1850  -30.7870 C   0  0  0  0  0  0  0  0  0  0  0  0
   -3.5540   24.0790  -30.2930 C   0  0  0  0  0  0  0  0  0  0  0  0
   -3.0500   24.9860  -29.3020 N   0  0  0  0  0  0  0  0  0  0  0  0
   -1.6700   25.1960  -28.9730 C   0  0  0  0  0  0  0  0  0  0  0  0
   -1.2210   26.3740  -28.9670 O   0  0  0  0  0  0  0  0  0  0  0  0
   -0.7830   24.0920  -28.5710 C   0  0  0  0  0  0  0  0  0  0  0  0
    0.4670   24.2000  -28.6760 O   0  0  0  0  0  0  0  0  0  0  0  0
   -1.3270   22.9010  -28.1080 O   0  0  0  0  0  0  0  0  0  0  0  0
   -2.7450   23.0200  -30.7150 C   0  0  0  0  0  0  0  0  0  0  0  0
   -3.2080   22.1110  -31.6690 C   0  0  0  0  0  0  0  0  0  0  0  0
   -2.0500   20.7050  -32.2570 Br  0  0  0  0  0  0  0  0  0  0  0  0
   -5.2770   18.9610  -33.0000 C   0  0  0  0  0  0  0  0  0  0  0  0
   -4.3885   14.1160  -30.6104 H   0  0  0  0  0  0  0  0  0  0  0  0
   -5.1940   13.7176  -32.1657 H   0  0  0  0  0  0  0  0  0  0  0  0
   -3.6123   14.5689  -32.1657 H   0  0  0  0  0  0  0  0  0  0  0  0
   -5.6080   16.0930  -30.6900 H   0  0  0  0  0  0  0  0  0  0  0  0
   -8.1065   17.1934  -32.2390 H   0  0  0  0  0  0  0  0  0  0  0  0
   -9.5354   19.5826  -30.9651 H   0  0  0  0  0  0  0  0  0  0  0  0
   -9.7741   20.5263  -32.4748 H   0  0  0  0  0  0  0  0  0  0  0  0
  -10.0393   18.7497  -32.4748 H   0  0  0  0  0  0  0  0  0  0  0  0
   -7.5684   21.4698  -32.6214 H   0  0  0  0  0  0  0  0  0  0  0  0
   -7.4489   23.4707  -31.3772 H   0  0  0  0  0  0  0  0  0  0  0  0
   -6.8465   24.3147  -32.8441 H   0  0  0  0  0  0  0  0  0  0  0  0
   -7.0200   22.5268  -32.8441 H   0  0  0  0  0  0  0  0  0  0  0  0
   -5.5167   24.9953  -30.4301 H   0  0  0  0  0  0  0  0  0  0  0  0
   -1.7363   22.9017  -30.2926 H   0  0  0  0  0  0  0  0  0  0  0  0
   -4.2134   18.8090  -33.2357 H   0  0  0  0  0  0  0  0  0  0  0  0
  1  2  1  0
  2  3  1  0
  3  4  2  0
  3  5  1  0
  5  6  2  0
  6  7  1  0
  7  8  1  0
  7  9  2  0
  9 10  1  0
 10 11  1  0
 11 12  1  0
 12 13  2  0
 13 14  1  0
 13 15  1  0
 15 16  2  0
 16 17  1  0
 17 18  1  0
 18 19  2  0
 18 20  1  0
 20 21  2  0
 20 22  1  0
 16 23  1  0
 23 24  2  0
 24 25  1  0
 10 26  2  0
 26  5  1  0
 24 12  1  0
  1 27  1  0
  1 28  1  0
  1 29  1  0
  2 30  1  0
  6 31  1  0
  8 32  1  0
  8 33  1  0
  8 34  1  0
  9 35  1  0
 14 36  1  0
 14 37  1  0
 14 38  1  0
 15 39  1  0
 23 40  1  0
 26 41  1  0
M  CHG  2  17  -1  22  -1
M  END
>  <UniqueID>  (27) 
27

>  <SMILES>  (27) 
CNC(=O)c1cc(C)cc(Oc2c(C)cc([N-]C(=O)C(=O)[O-])cc2Br)c1

>  <Energy>  (27) 
52.4651568515646

>  <Genealogy>  (27) 
CNC(=O)c1cc(C)cc(Oc2c(C)cc([N-]C(=O)C(=O)[O-])cc2Br)c1 (protonated)
CNC(=O)c1cc(C)cc(Oc2c(C)cc([N-]C(=O)C(=O)[O-])cc2Br)c1 (3D coordinates assigned)
CNC(=O)c1cc(C)cc(Oc2c(C)cc([N-]C(=O)C(=O)[O-])cc2Br)c1 (optimized conformer: 52.4651568515646 kcal/mol)

>  <smiles>  (27) 
CNC(=O)c1cc(C)cc(Oc2c(C)cc(NC(=O)C(=O)O)cc2Br)c1

>  <score_type>  (27) 
oracle

>  <origin>  (27) 
adgpu

>  <m_score__min__energy>  (27) 
-11.68

>  <m_primary>  (27) 
energy

$$$$
27:0
     RDKit          3D

 35 37  0  0  0  0  0  0  0  0999 V2000
    1.3091   25.6308  -24.8932 H   0  0  0  0  0  0  0  0  0  0  0  0
    0.6180   25.6260  -25.7490 C   0  0  0  0  0  0  0  0  0  0  0  0
    0.4870   26.7390  -26.5220 N   0  0  0  0  0  0  0  0  0  0  0  0
   -0.3580   26.7750  -27.5890 C   0  0  0  0  0  0  0  0  0  0  0  0
   -0.4423   27.6892  -28.1950 H   0  0  0  0  0  0  0  0  0  0  0  0
   -1.1170   25.6490  -27.9120 C   0  0  0  0  0  0  0  0  0  0  0  0
   -1.9720   25.6570  -28.9660 N   0  0  0  0  0  0  0  0  0  0  0  0
   -2.7290   24.5740  -29.2930 C   0  0  0  0  0  0  0  0  0  0  0  0
   -3.5290   24.6870  -30.3210 N   0  0  0  0  0  0  0  0  0  0  0  0
   -4.4920   23.7430  -30.8070 C   0  0  0  0  0  0  0  0  0  0  0  0
   -5.8250   23.8390  -30.3890 C   0  0  0  0  0  0  0  0  0  0  0  0
   -6.1293   24.6483  -29.7089 H   0  0  0  0  0  0  0  0  0  0  0  0
   -6.7700   22.9100  -30.8330 C   0  0  0  0  0  0  0  0  0  0  0  0
   -7.8201   23.0033  -30.5190 H   0  0  0  0  0  0  0  0  0  0  0  0
   -6.3840   21.8600  -31.6770 C   0  0  0  0  0  0  0  0  0  0  0  0
   -7.5790   20.7030  -32.2570 S   0  0  0  0  0  0  0  0  0  0  0  0
   -8.9290   21.3600  -32.3310 O   0  0  0  0  0  0  0  0  0  0  0  0
   -7.6620   19.5400  -31.3090 O   0  0  0  0  0  0  0  0  0  0  0  0
   -7.1260   20.1380  -33.8260 N   0  0  0  0  0  0  0  0  0  0  0  0
   -7.8930   20.4080  -34.4810 H   0  0  0  0  0  0  0  0  0  0  0  0
   -7.1200   19.0940  -33.7840 H   0  0  0  0  0  0  0  0  0  0  0  0
   -5.0460   21.7480  -32.0770 C   0  0  0  0  0  0  0  0  0  0  0  0
   -4.7393   20.9266  -32.7413 H   0  0  0  0  0  0  0  0  0  0  0  0
   -4.0980   22.6780  -31.6340 C   0  0  0  0  0  0  0  0  0  0  0  0
   -2.8020   22.5460  -32.0120 F   0  0  0  0  0  0  0  0  0  0  0  0
   -2.5870   23.3880  -28.5140 C   0  0  0  0  0  0  0  0  0  0  0  0
   -3.2290   22.2970  -28.8140 N   0  0  0  0  0  0  0  0  0  0  0  0
   -3.1210   21.0460  -28.0720 C   0  0  0  0  0  0  0  0  0  0  0  0
   -3.1392   21.2572  -26.9926 H   0  0  0  0  0  0  0  0  0  0  0  0
   -3.9660   20.3914  -28.3319 H   0  0  0  0  0  0  0  0  0  0  0  0
   -2.1763   20.5459  -28.3319 H   0  0  0  0  0  0  0  0  0  0  0  0
   -1.7280   23.3960  -27.4540 N   0  0  0  0  0  0  0  0  0  0  0  0
   -0.9980   24.4920  -27.1300 C   0  0  0  0  0  0  0  0  0  0  0  0
   -0.1240   24.4760  -26.0400 C   0  0  0  0  0  0  0  0  0  0  0  0
   -0.0208   23.5731  -25.4201 H   0  0  0  0  0  0  0  0  0  0  0  0
  1  2  1  0
  2  3  2  0
  3  4  1  0
  4  5  1  0
  4  6  2  0
  6  7  1  0
  7  8  1  0
  8  9  2  0
  9 10  1  0
 10 11  2  0
 11 12  1  0
 11 13  1  0
 13 14  1  0
 13 15  2  0
 15 16  1  0
 16 17  2  0
 16 18  2  0
 16 19  1  0
 19 20  1  0
 19 21  1  0
 15 22  1  0
 22 23  1  0
 22 24  2  0
 24 25  1  0
  8 26  1  0
 26 27  2  0
 27 28  1  0
 28 29  1  0
 28 30  1  0
 28 31  1  0
 26 32  1  0
 32 33  1  0
 33 34  2  0
 34 35  1  0
 34  2  1  0
 33  6  1  0
 24 10  1  0
M  CHG  2   7  -1  32  -1
M  END
>  <UniqueID>  (28) 
28

>  <SMILES>  (28) 
C/N=c1\[n-]c2ccncc2[n-]c1=Nc1ccc(S(N)(=O)=O)cc1F

>  <Energy>  (28) 
53.95069769770257

>  <Genealogy>  (28) 
CN=c1[n-]c2ccncc2[n-]c1=Nc1ccc(S(N)(=O)=O)cc1F (protonated)
C/N=c1\[n-]c2ccncc2[n-]c1=Nc1ccc(S(N)(=O)=O)cc1F (cis-trans isomerization)
C/N=c1\[n-]c2ccncc2[n-]c1=Nc1ccc(S(N)(=O)=O)cc1F (3D coordinates assigned)
C/N=c1\[n-]c2ccncc2[n-]c1=Nc1ccc(S(N)(=O)=O)cc1F (optimized conformer: 53.95069769770257 kcal/mol)

>  <smiles>  (28) 
CN=c1[nH]c2ccncc2[nH]c1=Nc1ccc(S(N)(=O)=O)cc1F

>  <score_type>  (28) 
oracle

>  <origin>  (28) 
adgpu

>  <m_score__min__energy>  (28) 
-9.6300000000000008

>  <m_primary>  (28) 
energy

$$$$
28:0
     RDKit          3D

 69 72  0  0  0  0  0  0  0  0999 V2000
   -2.9630   24.8280  -26.7320 C   0  0  0  0  0  0  0  0  0  0  0  0
   -1.8860   25.5080  -25.9510 C   0  0  0  0  0  0  0  0  0  0  0  0
   -1.9540   26.7950  -25.5480 N   0  0  0  0  0  0  0  0  0  0  0  0
   -0.7890   27.1070  -24.9950 N   0  0  0  0  0  0  0  0  0  0  0  0
   -0.4720   28.4400  -24.4920 C   0  0  0  0  0  0  0  0  0  0  0  0
    0.0560   26.0570  -25.0770 C   0  0  0  0  0  0  0  0  0  0  0  0
    1.4730   26.0430  -24.5890 C   0  0  0  0  0  0  0  0  0  0  0  0
   -0.6260   25.0160  -25.6690 C   0  0  0  0  0  0  0  0  0  0  0  0
   -0.0960   23.7330  -26.0190 N   0  0  0  0  0  0  0  0  0  0  0  0
   -0.4500   22.5550  -25.2340 C   0  0  0  0  0  0  0  0  0  0  0  0
    0.6790   23.5270  -27.5550 S   0  0  0  0  0  0  0  0  0  0  0  0
    2.0000   22.8370  -27.3660 O   0  0  0  0  0  0  0  0  0  0  0  0
    0.9340   24.8690  -28.1830 O   0  0  0  0  0  0  0  0  0  0  0  0
   -0.3600   22.5700  -28.6040 C   0  0  0  0  0  0  0  0  0  0  0  0
   -1.4880   23.1540  -29.1920 C   0  0  0  0  0  0  0  0  0  0  0  0
   -2.2980   22.4090  -30.0530 C   0  0  0  0  0  0  0  0  0  0  0  0
   -1.9900   21.0660  -30.3420 C   0  0  0  0  0  0  0  0  0  0  0  0
   -2.8520   20.2760  -31.2570 C   0  0  0  0  0  0  0  0  0  0  0  0
   -4.2500   20.4260  -31.2290 C   0  0  0  0  0  0  0  0  0  0  0  0
   -5.0630   19.6700  -32.0800 C   0  0  0  0  0  0  0  0  0  0  0  0
   -4.4920   18.7540  -32.9710 C   0  0  0  0  0  0  0  0  0  0  0  0
   -5.5160   17.8170  -34.0600 S   0  0  0  0  0  0  0  0  0  0  0  0
   -5.1000   16.3730  -34.0280 O   0  0  0  0  0  0  0  0  0  0  0  0
   -5.3470   18.3280  -35.4640 O   0  0  0  0  0  0  0  0  0  0  0  0
   -7.1870   17.9540  -33.6010 N   0  0  0  0  0  0  0  0  0  0  0  0
   -7.3140   17.8020  -32.1500 C   0  0  0  0  0  0  0  0  0  0  0  0
   -8.2880   18.8630  -31.5990 C   0  0  0  0  0  0  0  0  0  0  0  0
   -8.6090   19.9560  -32.5490 N   0  0  0  0  0  0  0  0  0  0  0  0
   -9.8480   20.6760  -32.2310 C   0  0  0  0  0  0  0  0  0  0  0  0
   -9.4690   22.0100  -31.6080 C   0  0  0  0  0  0  0  0  0  0  0  0
   -8.0130   22.2370  -31.9730 C   0  0  0  0  0  0  0  0  0  0  0  0
   -7.5470   20.9640  -32.6700 C   0  0  0  0  0  0  0  0  0  0  0  0
   -3.1000   18.6080  -33.0160 C   0  0  0  0  0  0  0  0  0  0  0  0
   -2.2850   19.3610  -32.1630 C   0  0  0  0  0  0  0  0  0  0  0  0
   -0.8530   20.4880  -29.7480 C   0  0  0  0  0  0  0  0  0  0  0  0
   -0.0440   21.2360  -28.8890 C   0  0  0  0  0  0  0  0  0  0  0  0
   -3.6857   24.3717  -26.0395 H   0  0  0  0  0  0  0  0  0  0  0  0
   -3.4776   25.5653  -27.3657 H   0  0  0  0  0  0  0  0  0  0  0  0
   -2.5186   24.0464  -27.3657 H   0  0  0  0  0  0  0  0  0  0  0  0
   -0.4751   28.4272  -23.3921 H   0  0  0  0  0  0  0  0  0  0  0  0
    0.5228   28.7409  -24.8524 H   0  0  0  0  0  0  0  0  0  0  0  0
   -1.2248   29.1565  -24.8524 H   0  0  0  0  0  0  0  0  0  0  0  0
    1.4820   26.0429  -23.4890 H   0  0  0  0  0  0  0  0  0  0  0  0
    1.9796   25.1398  -24.9599 H   0  0  0  0  0  0  0  0  0  0  0  0
    1.9974   26.9360  -24.9599 H   0  0  0  0  0  0  0  0  0  0  0  0
   -0.3784   22.7933  -24.1625 H   0  0  0  0  0  0  0  0  0  0  0  0
   -1.4794   22.2503  -25.4739 H   0  0  0  0  0  0  0  0  0  0  0  0
    0.2409   21.7333  -25.4739 H   0  0  0  0  0  0  0  0  0  0  0  0
   -1.7377   24.2032  -28.9755 H   0  0  0  0  0  0  0  0  0  0  0  0
   -3.1837   22.8757  -30.5088 H   0  0  0  0  0  0  0  0  0  0  0  0
   -4.7079   21.1436  -30.5323 H   0  0  0  0  0  0  0  0  0  0  0  0
   -6.1553   19.7959  -32.0488 H   0  0  0  0  0  0  0  0  0  0  0  0
   -7.4940   18.9210  -33.8550 H   0  0  0  0  0  0  0  0  0  0  0  0
   -7.6992   16.7976  -31.9200 H   0  0  0  0  0  0  0  0  0  0  0  0
   -6.3274   17.9356  -31.6822 H   0  0  0  0  0  0  0  0  0  0  0  0
   -9.2266   18.3587  -31.3257 H   0  0  0  0  0  0  0  0  0  0  0  0
   -7.7859   19.3325  -30.7402 H   0  0  0  0  0  0  0  0  0  0  0  0
  -10.4283   20.8446  -33.1502 H   0  0  0  0  0  0  0  0  0  0  0  0
  -10.4629   20.0890  -31.5329 H   0  0  0  0  0  0  0  0  0  0  0  0
  -10.0966   22.8158  -32.0164 H   0  0  0  0  0  0  0  0  0  0  0  0
   -9.6176   22.0051  -30.5181 H   0  0  0  0  0  0  0  0  0  0  0  0
   -7.9193   23.0988  -32.6501 H   0  0  0  0  0  0  0  0  0  0  0  0
   -7.4048   22.4523  -31.0821 H   0  0  0  0  0  0  0  0  0  0  0  0
   -7.3511   21.1721  -33.7322 H   0  0  0  0  0  0  0  0  0  0  0  0
   -6.6203   20.5955  -32.2058 H   0  0  0  0  0  0  0  0  0  0  0  0
   -2.6457   17.8993  -33.7240 H   0  0  0  0  0  0  0  0  0  0  0  0
   -1.1927   19.2365  -32.2012 H   0  0  0  0  0  0  0  0  0  0  0  0
   -0.5991   19.4392  -29.9616 H   0  0  0  0  0  0  0  0  0  0  0  0
    0.8453   20.7749  -28.4345 H   0  0  0  0  0  0  0  0  0  0  0  0
  1  2  1  0
  2  3  2  0
  3  4  1  0
  4  5  1  0
  4  6  1  0
  6  7  1  0
  6  8  2  0
  8  9  1  0
  9 10  1  0
  9 11  1  0
 11 12  2  0
 11 13  2  0
 11 14  1  0
 14 15  2  0
 15 16  1  0
 16 17  2  0
 17 18  1  0
 18 19  2  0
 19 20  1  0
 20 21  2  0
 21 22  1  0
 22 23  2  0
 22 24  2  0
 22 25  1  0
 25 26  1  0
 26 27  1  0
 27 28  1  0
 28 29  1  0
 29 30  1  0
 30 31  1  0
 31 32  1  0
 21 33  1  0
 33 34  2  0
 17 35  1  0
 35 36  2  0
  8  2  1  0
 36 14  1  0
 34 18  1  0
 32 28  1  0
  1 37  1  0
  1 38  1  0
  1 39  1  0
  5 40  1  0
  5 41  1  0
  5 42  1  0
  7 43  1  0
  7 44  1  0
  7 45  1  0
 10 46  1  0
 10 47  1  0
 10 48  1  0
 15 49  1  0
 16 50  1  0
 19 51  1  0
 20 52  1  0
 25 53  1  0
 26 54  1  0
 26 55  1  0
 27 56  1  0
 27 57  1  0
 29 58  1  0
 29 59  1  0
 30 60  1  0
 30 61  1  0
 31 62  1  0
 31 63  1  0
 32 64  1  0
 32 65  1  0
 33 66  1  0
 34 67  1  0
 35 68  1  0
 36 69  1  0
M  END
>  <UniqueID>  (29) 
29

>  <SMILES>  (29) 
Cc1nn(C)c(C)c1N(C)S(=O)(=O)c1ccc(-c2ccc(S(=O)(=O)NCCN3CCCC3)cc2)cc1

>  <Energy>  (29) 
111.06531742594454

>  <Genealogy>  (29) 
Cc1nn(C)c(C)c1N(C)S(=O)(=O)c1ccc(-c2ccc(S(=O)(=O)NCCN3CCCC3)cc2)cc1 (3D coordinates assigned)
Cc1nn(C)c(C)c1N(C)S(=O)(=O)c1ccc(-c2ccc(S(=O)(=O)NCCN3CCCC3)cc2)cc1 (nonaromatic ring conformer: 111.06531742594454 kcal/mol)

>  <smiles>  (29) 
Cc1nn(C)c(C)c1N(C)S(=O)(=O)c1ccc(-c2ccc(S(=O)(=O)NCCN3CCCC3)cc2)cc1

>  <score_type>  (29) 
oracle

>  <origin>  (29) 
adgpu

>  <m_score__min__energy>  (29) 
-10.199999999999999

>  <m_primary>  (29) 
energy

$$$$
29:0
     RDKit          3D

 42 44  0  0  0  0  0  0  0  0999 V2000
   -4.6050   15.1260  -32.3970 C   0  0  0  0  0  0  0  0  0  0  0  0
   -5.1540   15.4710  -33.7020 N   0  0  0  0  0  0  0  0  0  0  0  0
   -6.4180   16.1130  -33.9140 C   0  0  0  0  0  0  0  0  0  0  0  0
   -7.3170   15.4860  -34.5340 O   0  0  0  0  0  0  0  0  0  0  0  0
   -6.6870   17.4930  -33.4650 C   0  0  0  0  0  0  0  0  0  0  0  0
   -6.0940   18.5730  -34.1370 C   0  0  0  0  0  0  0  0  0  0  0  0
   -6.3520   19.8860  -33.7300 C   0  0  0  0  0  0  0  0  0  0  0  0
   -7.2310   20.1370  -32.6630 C   0  0  0  0  0  0  0  0  0  0  0  0
   -7.5030   21.4390  -32.2140 O   0  0  0  0  0  0  0  0  0  0  0  0
   -6.5500   22.3510  -31.7380 C   0  0  0  0  0  0  0  0  0  0  0  0
   -6.8940   23.3940  -30.8630 C   0  0  0  0  0  0  0  0  0  0  0  0
   -5.9020   24.2640  -30.4070 C   0  0  0  0  0  0  0  0  0  0  0  0
   -4.5780   24.1000  -30.8230 C   0  0  0  0  0  0  0  0  0  0  0  0
   -3.5770   24.9970  -30.3210 N   0  0  0  0  0  0  0  0  0  0  0  0
   -2.5160   24.6730  -29.4150 C   0  0  0  0  0  0  0  0  0  0  0  0
   -2.3610   23.4920  -29.0040 O   0  0  0  0  0  0  0  0  0  0  0  0
   -1.6340   25.7160  -28.9830 N   0  0  0  0  0  0  0  0  0  0  0  0
   -1.3030   26.0530  -27.6280 C   0  0  0  0  0  0  0  0  0  0  0  0
   -1.8440   25.2800  -26.5920 C   0  0  0  0  0  0  0  0  0  0  0  0
   -1.5640   25.5870  -25.2570 C   0  0  0  0  0  0  0  0  0  0  0  0
   -0.7490   26.6800  -24.9470 C   0  0  0  0  0  0  0  0  0  0  0  0
   -0.4000   27.0670  -23.2710 Cl  0  0  0  0  0  0  0  0  0  0  0  0
   -0.2250   27.4730  -25.9720 C   0  0  0  0  0  0  0  0  0  0  0  0
   -0.5050   27.1670  -27.3080 C   0  0  0  0  0  0  0  0  0  0  0  0
   -4.2670   23.0200  -31.6660 C   0  0  0  0  0  0  0  0  0  0  0  0
   -5.2490   22.1840  -32.0950 N   0  0  0  0  0  0  0  0  0  0  0  0
   -7.8230   19.0600  -31.9950 C   0  0  0  0  0  0  0  0  0  0  0  0
   -7.5650   17.7460  -32.4000 C   0  0  0  0  0  0  0  0  0  0  0  0
   -5.2532   15.5334  -31.6072 H   0  0  0  0  0  0  0  0  0  0  0  0
   -4.5515   14.0316  -32.2994 H   0  0  0  0  0  0  0  0  0  0  0  0
   -3.5958   15.5526  -32.2994 H   0  0  0  0  0  0  0  0  0  0  0  0
   -5.4228   18.3859  -34.9882 H   0  0  0  0  0  0  0  0  0  0  0  0
   -5.8647   20.7256  -34.2474 H   0  0  0  0  0  0  0  0  0  0  0  0
   -7.9372   23.5245  -30.5393 H   0  0  0  0  0  0  0  0  0  0  0  0
   -6.1633   25.0809  -29.7183 H   0  0  0  0  0  0  0  0  0  0  0  0
   -2.4939   24.4252  -26.8308 H   0  0  0  0  0  0  0  0  0  0  0  0
   -1.9849   24.9686  -24.4505 H   0  0  0  0  0  0  0  0  0  0  0  0
    0.4083   28.3386  -25.7278 H   0  0  0  0  0  0  0  0  0  0  0  0
   -0.0998   27.7996  -28.1115 H   0  0  0  0  0  0  0  0  0  0  0  0
   -3.2263   22.8506  -31.9796 H   0  0  0  0  0  0  0  0  0  0  0  0
   -8.4960   19.2475  -31.1454 H   0  0  0  0  0  0  0  0  0  0  0  0
   -8.0526   16.9074  -31.8813 H   0  0  0  0  0  0  0  0  0  0  0  0
  1  2  1  0
  2  3  1  0
  3  4  2  0
  3  5  1  0
  5  6  2  0
  6  7  1  0
  7  8  2  0
  8  9  1  0
  9 10  1  0
 10 11  2  0
 11 12  1  0
 12 13  2  0
 13 14  1  0
 14 15  1  0
 15 16  2  0
 15 17  1  0
 17 18  1  0
 18 19  2  0
 19 20  1  0
 20 21  2  0
 21 22  1  0
 21 23  1  0
 23 24  2  0
 13 25  1  0
 25 26  2  0
  8 27  1  0
 27 28  2  0
 28  5  1  0
 26 10  1  0
 24 18  1  0
  1 29  1  0
  1 30  1  0
  1 31  1  0
  6 32  1  0
  7 33  1  0
 11 34  1  0
 12 35  1  0
 19 36  1  0
 20 37  1  0
 23 38  1  0
 24 39  1  0
 25 40  1  0
 27 41  1  0
 28 42  1  0
M  CHG  3   2  -1  14  -1  17  -1
M  END
>  <UniqueID>  (30) 
30

>  <SMILES>  (30) 
C[N-]C(=O)c1ccc(Oc2ccc([N-]C(=O)[N-]c3ccc(Cl)cc3)cn2)cc1

>  <Energy>  (30) 
62.631784825911815

>  <Genealogy>  (30) 
C[N-]C(=O)c1ccc(Oc2ccc([N-]C(=O)[N-]c3ccc(Cl)cc3)cn2)cc1 (protonated)
C[N-]C(=O)c1ccc(Oc2ccc([N-]C(=O)[N-]c3ccc(Cl)cc3)cn2)cc1 (3D coordinates assigned)
C[N-]C(=O)c1ccc(Oc2ccc([N-]C(=O)[N-]c3ccc(Cl)cc3)cn2)cc1 (optimized conformer: 62.631784825911815 kcal/mol)

>  <smiles>  (30) 
CNC(=O)c1ccc(Oc2ccc(NC(=O)Nc3ccc(Cl)cc3)cn2)cc1

>  <score_type>  (30) 
oracle

>  <origin>  (30) 
adgpu

>  <m_score__min__energy>  (30) 
-11.85

>  <m_primary>  (30) 
energy

$$$$
30:0
     RDKit          3D

 52 54  0  0  0  0  0  0  0  0999 V2000
   -9.1450   19.5540  -32.7080 C   0  0  0  0  0  0  0  0  0  0  0  0
   -8.1030   20.5440  -32.2770 C   0  0  0  0  0  0  0  0  0  0  0  0
   -6.7960   20.4630  -32.7790 C   0  0  0  0  0  0  0  0  0  0  0  0
   -5.8190   21.3660  -32.3480 C   0  0  0  0  0  0  0  0  0  0  0  0
   -6.1360   22.3630  -31.4100 C   0  0  0  0  0  0  0  0  0  0  0  0
   -5.1340   23.2800  -30.9400 N   0  0  0  0  0  0  0  0  0  0  0  0
   -5.1100   24.5620  -31.2700 N   0  0  0  0  0  0  0  0  0  0  0  0
   -4.0970   25.1770  -30.6790 N   0  0  0  0  0  0  0  0  0  0  0  0
   -3.4420   24.2540  -29.9460 C   0  0  0  0  0  0  0  0  0  0  0  0
   -2.2540   24.5520  -29.1220 C   0  0  0  0  0  0  0  0  0  0  0  0
   -1.5950   25.6060  -29.3310 O   0  0  0  0  0  0  0  0  0  0  0  0
   -1.8210   23.6180  -28.1200 N   0  0  0  0  0  0  0  0  0  0  0  0
   -0.8440   23.9190  -27.1090 C   0  0  0  0  0  0  0  0  0  0  0  0
    0.3200   23.1520  -26.9660 C   0  0  0  0  0  0  0  0  0  0  0  0
    1.2630   23.4770  -25.9920 C   0  0  0  0  0  0  0  0  0  0  0  0
    1.0800   24.5890  -25.1530 C   0  0  0  0  0  0  0  0  0  0  0  0
    2.1160   24.8590  -24.0930 C   0  0  0  0  0  0  0  0  0  0  0  0
   -0.0860   25.3860  -25.3040 C   0  0  0  0  0  0  0  0  0  0  0  0
   -0.4340   26.8230  -24.3120 S   0  0  0  0  0  0  0  0  0  0  0  0
   -1.6140   27.5370  -24.9120 O   0  0  0  0  0  0  0  0  0  0  0  0
   -0.8140   26.4350  -22.9100 O   0  0  0  0  0  0  0  0  0  0  0  0
    0.9220   27.9250  -24.2560 N   0  0  0  0  0  0  0  0  0  0  0  0
    0.5570   29.2090  -24.8660 C   0  0  0  0  0  0  0  0  0  0  0  0
    1.3540   28.1290  -22.8670 C   0  0  0  0  0  0  0  0  0  0  0  0
   -1.0280   25.0370  -26.2870 C   0  0  0  0  0  0  0  0  0  0  0  0
   -4.0870   23.0390  -30.1220 C   0  0  0  0  0  0  0  0  0  0  0  0
   -3.6780   21.7020  -29.5750 C   0  0  0  0  0  0  0  0  0  0  0  0
   -7.4340   22.4140  -30.8800 C   0  0  0  0  0  0  0  0  0  0  0  0
   -8.4110   21.5120  -31.3100 C   0  0  0  0  0  0  0  0  0  0  0  0
   -9.6156   19.1069  -31.8199 H   0  0  0  0  0  0  0  0  0  0  0  0
   -9.9103   20.0658  -33.3100 H   0  0  0  0  0  0  0  0  0  0  0  0
   -8.6730   18.7636  -33.3100 H   0  0  0  0  0  0  0  0  0  0  0  0
   -6.5384   19.6865  -33.5143 H   0  0  0  0  0  0  0  0  0  0  0  0
   -4.7959   21.2953  -32.7458 H   0  0  0  0  0  0  0  0  0  0  0  0
   -2.1750   22.6360  -28.1760 H   0  0  0  0  0  0  0  0  0  0  0  0
    0.4906   22.2887  -27.6259 H   0  0  0  0  0  0  0  0  0  0  0  0
    2.1627   22.8543  -25.8788 H   0  0  0  0  0  0  0  0  0  0  0  0
    1.6620   24.7407  -23.0980 H   0  0  0  0  0  0  0  0  0  0  0  0
    2.9477   24.1476  -24.2035 H   0  0  0  0  0  0  0  0  0  0  0  0
    2.4947   25.8858  -24.2035 H   0  0  0  0  0  0  0  0  0  0  0  0
    0.3479   29.9444  -24.0751 H   0  0  0  0  0  0  0  0  0  0  0  0
    1.3887   29.5681  -25.4900 H   0  0  0  0  0  0  0  0  0  0  0  0
   -0.3392   29.0769  -25.4900 H   0  0  0  0  0  0  0  0  0  0  0  0
    0.5750   27.7612  -22.1830 H   0  0  0  0  0  0  0  0  0  0  0  0
    2.2888   27.5772  -22.6889 H   0  0  0  0  0  0  0  0  0  0  0  0
    1.5217   29.2015  -22.6889 H   0  0  0  0  0  0  0  0  0  0  0  0
   -1.9289   25.6555  -26.4131 H   0  0  0  0  0  0  0  0  0  0  0  0
   -3.6886   21.7368  -28.4756 H   0  0  0  0  0  0  0  0  0  0  0  0
   -4.3817   20.9321  -29.9243 H   0  0  0  0  0  0  0  0  0  0  0  0
   -2.6640   21.4575  -29.9243 H   0  0  0  0  0  0  0  0  0  0  0  0
   -7.6845   23.1693  -30.1206 H   0  0  0  0  0  0  0  0  0  0  0  0
   -9.4257   21.5614  -30.8883 H   0  0  0  0  0  0  0  0  0  0  0  0
  1  2  1  0
  2  3  2  0
  3  4  1  0
  4  5  2  0
  5  6  1  0
  6  7  1  0
  7  8  2  0
  8  9  1  0
  9 10  1  0
 10 11  2  0
 10 12  1  0
 12 13  1  0
 13 14  2  0
 14 15  1  0
 15 16  2  0
 16 17  1  0
 16 18  1  0
 18 19  1  0
 19 20  2  0
 19 21  2  0
 19 22  1  0
 22 23  1  0
 22 24  1  0
 18 25  2  0
  9 26  2  0
 26 27  1  0
  5 28  1  0
 28 29  2  0
 29  2  1  0
 26  6  1  0
 25 13  1  0
  1 30  1  0
  1 31  1  0
  1 32  1  0
  3 33  1  0
  4 34  1  0
 12 35  1  0
 14 36  1  0
 15 37  1  0
 17 38  1  0
 17 39  1  0
 17 40  1  0
 23 41  1  0
 23 42  1  0
 23 43  1  0
 24 44  1  0
 24 45  1  0
 24 46  1  0
 25 47  1  0
 27 48  1  0
 27 49  1  0
 27 50  1  0
 28 51  1  0
 29 52  1  0
M  END
>  <UniqueID>  (31) 
31

>  <SMILES>  (31) 
Cc1ccc(-n2nnc(C(=O)Nc3ccc(C)c(S(=O)(=O)N(C)C)c3)c2C)cc1

>  <Energy>  (31) 
97.61609357702619

>  <Genealogy>  (31) 
Cc1ccc(-n2nnc(C(=O)Nc3ccc(C)c(S(=O)(=O)N(C)C)c3)c2C)cc1 (3D coordinates assigned)
Cc1ccc(-n2nnc(C(=O)Nc3ccc(C)c(S(=O)(=O)N(C)C)c3)c2C)cc1 (optimized conformer: 97.61609357702619 kcal/mol)

>  <smiles>  (31) 
Cc1ccc(-n2nnc(C(=O)Nc3ccc(C)c(S(=O)(=O)N(C)C)c3)c2C)cc1

>  <score_type>  (31) 
oracle

>  <origin>  (31) 
adgpu

>  <m_score__min__energy>  (31) 
-9.8499999999999996

>  <m_primary>  (31) 
energy

$$$$
31:0
     RDKit          3D

 59 62  0  0  1  0  0  0  0  0999 V2000
   -6.2120   25.6360  -29.4670 C   0  0  0  0  0  0  0  0  0  0  0  0
   -5.9730   25.1550  -30.7780 O   0  0  0  0  0  0  0  0  0  0  0  0
   -5.6650   23.8070  -30.9180 C   0  0  0  0  0  0  0  0  0  0  0  0
   -6.6340   22.8500  -31.2120 C   0  0  0  0  0  0  0  0  0  0  0  0
   -6.3350   21.5140  -31.3510 C   0  0  0  0  0  0  0  0  0  0  0  0
   -7.3120   20.5420  -31.6500 N   0  0  0  0  0  0  0  0  0  0  0  0
   -8.7320   20.8280  -31.6110 C   0  0  0  0  0  0  0  0  0  0  0  0
   -9.5010   19.9720  -32.5850 C   0  0  0  0  0  0  0  0  0  0  0  0
   -9.1610   18.6450  -32.5820 O   0  0  0  0  0  0  0  0  0  0  0  0
   -8.1380   18.3120  -31.7350 C   0  0  0  0  0  0  0  0  0  0  0  0
   -6.9150   19.1950  -32.0110 C   0  0  0  0  0  0  0  0  0  0  0  0
   -5.0170   21.1450  -31.1860 C   0  0  0  0  0  0  0  0  0  0  0  0
   -4.0390   22.1000  -30.8910 C   0  0  0  0  0  0  0  0  0  0  0  0
   -4.3460   23.4380  -30.7530 C   0  0  0  0  0  0  0  0  0  0  0  0
   -3.3440   24.3990  -30.4530 N   0  0  0  0  0  0  0  0  0  0  0  0
   -2.8730   24.5380  -29.2670 C   0  0  0  0  0  0  0  0  0  0  0  0
   -3.3610   23.7360  -28.2910 N   0  0  0  0  0  0  0  0  0  0  0  0
   -2.8230   23.9330  -27.0590 C   0  0  0  0  0  0  0  0  0  0  0  0
   -1.8600   24.8660  -26.8050 C   0  0  0  0  0  0  0  0  0  0  0  0
   -1.2100   25.0710  -25.2070 Cl  0  0  0  0  0  0  0  0  0  0  0  0
   -1.3810   25.6680  -27.8120 C   0  0  0  0  0  0  0  0  0  0  0  0
   -0.5010   26.5600  -27.7090 N   0  0  0  0  0  0  0  0  0  0  0  0
    0.1300   26.8550  -26.4760 C   0  0  0  0  0  0  0  0  0  0  0  0
   -0.3780   27.8240  -25.5990 C   0  0  0  0  0  0  0  0  0  0  0  0
    0.2900   28.1110  -24.4040 C   0  0  0  0  0  0  0  0  0  0  0  0
    1.4640   27.4060  -24.1180 C   0  0  0  0  0  0  0  0  0  0  0  0
    2.1360   27.7540  -22.8240 C   0  0  0  0  0  0  0  0  0  0  0  0
    1.9810   26.4570  -24.9540 C   0  0  0  0  0  0  0  0  0  0  0  0
    3.4540   25.5960  -24.5580 S   0  0  0  0  0  0  0  0  0  0  0  0
    3.4230   24.9060  -22.9910 N   0  0  0  0  0  0  0  0  0  0  0  0
    4.6200   26.5370  -24.6480 O   0  0  0  0  0  0  0  0  0  0  0  0
    3.6460   24.5280  -25.6130 O   0  0  0  0  0  0  0  0  0  0  0  0
    1.3100   26.1730  -26.1480 C   0  0  0  0  0  0  0  0  0  0  0  0
   -1.9270   25.4630  -29.0450 N   0  0  0  0  0  0  0  0  0  0  0  0
   -5.8468   24.9011  -28.7345 H   0  0  0  0  0  0  0  0  0  0  0  0
   -5.6830   26.5899  -29.3243 H   0  0  0  0  0  0  0  0  0  0  0  0
   -7.2917   25.7905  -29.3243 H   0  0  0  0  0  0  0  0  0  0  0  0
   -7.6774   23.1747  -31.3378 H   0  0  0  0  0  0  0  0  0  0  0  0
   -9.1065   20.6356  -30.5947 H   0  0  0  0  0  0  0  0  0  0  0  0
   -8.8771   21.8815  -31.8922 H   0  0  0  0  0  0  0  0  0  0  0  0
  -10.5702   20.0511  -32.3388 H   0  0  0  0  0  0  0  0  0  0  0  0
   -9.2552   20.3505  -33.5882 H   0  0  0  0  0  0  0  0  0  0  0  0
   -8.4648   18.4584  -30.6949 H   0  0  0  0  0  0  0  0  0  0  0  0
   -7.8651   17.2589  -31.8975 H   0  0  0  0  0  0  0  0  0  0  0  0
   -6.0614   18.8698  -31.3981 H   0  0  0  0  0  0  0  0  0  0  0  0
   -6.5999   19.1336  -33.0631 H   0  0  0  0  0  0  0  0  0  0  0  0
   -4.7315   20.0876  -31.2875 H   0  0  0  0  0  0  0  0  0  0  0  0
   -2.9955   21.7753  -30.7654 H   0  0  0  0  0  0  0  0  0  0  0  0
   -4.0980   23.0150  -28.4610 H   0  0  0  0  0  0  0  0  0  0  0  0
   -3.1810   23.3103  -26.2259 H   0  0  0  0  0  0  0  0  0  0  0  0
   -1.3047   28.3601  -25.8515 H   0  0  0  0  0  0  0  0  0  0  0  0
   -0.0971   28.8701  -23.7083 H   0  0  0  0  0  0  0  0  0  0  0  0
    1.5054   27.4274  -21.9839 H   0  0  0  0  0  0  0  0  0  0  0  0
    3.1109   27.2474  -22.7693 H   0  0  0  0  0  0  0  0  0  0  0  0
    2.2848   28.8425  -22.7693 H   0  0  0  0  0  0  0  0  0  0  0  0
    4.0240   24.0710  -22.9860 H   0  0  0  0  0  0  0  0  0  0  0  0
    2.4690   24.6960  -22.6410 H   0  0  0  0  0  0  0  0  0  0  0  0
    1.7102   25.4109  -26.8329 H   0  0  0  0  0  0  0  0  0  0  0  0
   -1.6020   26.0480  -29.8610 H   0  0  0  0  0  0  0  0  0  0  0  0
  1  2  1  0
  2  3  1  0
  3  4  2  0
  4  5  1  0
  5  6  1  0
  6  7  1  0
  7  8  1  0
  8  9  1  0
  9 10  1  0
 10 11  1  0
  5 12  2  0
 12 13  1  0
 13 14  2  0
 14 15  1  0
 15 16  2  0
 16 17  1  0
 17 18  1  0
 18 19  2  0
 19 20  1  0
 19 21  1  0
 21 22  2  0
 22 23  1  0
 23 24  2  0
 24 25  1  0
 25 26  2  0
 26 27  1  0
 26 28  1  0
 28 29  1  0
 29 30  1  0
 29 31  2  0
 29 32  2  0
 28 33  2  0
 21 34  1  0
 14  3  1  0
 34 16  1  0
 11  6  1  0
 33 23  1  0
  1 35  1  0
  1 36  1  0
  1 37  1  0
  4 38  1  0
  7 39  1  0
  7 40  1  0
  8 41  1  0
  8 42  1  0
 10 43  1  0
 10 44  1  0
 11 45  1  0
 11 46  1  0
 12 47  1  0
 13 48  1  0
 17 49  1  0
 18 50  1  0
 24 51  1  0
 25 52  1  0
 27 53  1  0
 27 54  1  0
 27 55  1  0
 30 56  1  0
 30 57  1  0
 33 58  1  0
 34 59  1  0
M  END
>  <smiles>  (32) 
COc1cc(N2CCOCC2)ccc1N=c1[nH]cc(Cl)c(=Nc2ccc(C)c(S(N)(=O)=O)c2)[nH]1

>  <score_type>  (32) 
oracle

>  <origin>  (32) 
adgpu

>  <m_score__min__energy>  (32) 
-10.130000000000001

>  <m_primary>  (32) 
energy

$$$$
32:0
     RDKit          3D

 36 38  0  0  0  0  0  0  0  0999 V2000
   -4.6890   19.4430  -32.2640 O   0  0  0  0  0  0  0  0  0  0  0  0
   -4.2790   20.5940  -32.5780 C   0  0  0  0  0  0  0  0  0  0  0  0
   -5.2130   21.6760  -32.7080 N   0  0  0  0  0  0  0  0  0  0  0  0
   -6.5480   21.6030  -32.1900 C   0  0  0  0  0  0  0  0  0  0  0  0
   -7.4840   20.7880  -32.8430 C   0  0  0  0  0  0  0  0  0  0  0  0
   -8.7820   20.6610  -32.3420 C   0  0  0  0  0  0  0  0  0  0  0  0
   -9.1590   21.3560  -31.1930 C   0  0  0  0  0  0  0  0  0  0  0  0
   -8.2450   22.1920  -30.5490 C   0  0  0  0  0  0  0  0  0  0  0  0
   -6.9380   22.3340  -31.0430 C   0  0  0  0  0  0  0  0  0  0  0  0
   -6.0530   23.2830  -30.4210 N   0  0  0  0  0  0  0  0  0  0  0  0
   -4.6870   22.8800  -30.0680 C   0  0  0  0  0  0  0  0  0  0  0  0
   -3.8150   24.1140  -29.8440 C   0  0  0  0  0  0  0  0  0  0  0  0
   -4.1040   25.0700  -30.8400 O   0  0  0  0  0  0  0  0  0  0  0  0
   -5.3650   25.6730  -30.5960 C   0  0  0  0  0  0  0  0  0  0  0  0
   -6.4840   24.6710  -30.2160 C   0  0  0  0  0  0  0  0  0  0  0  0
   -2.8430   20.8100  -32.8190 C   0  0  0  0  0  0  0  0  0  0  0  0
   -2.1400   20.4140  -33.9510 C   0  0  0  0  0  0  0  0  0  0  0  0
   -0.7770   20.7290  -33.8950 C   0  0  0  0  0  0  0  0  0  0  0  0
   -0.4010   21.3710  -32.7210 C   0  0  0  0  0  0  0  0  0  0  0  0
   -1.7650   21.5410  -31.7540 S   0  0  0  0  0  0  0  0  0  0  0  0
   -4.9670   22.4820  -33.3250 H   0  0  0  0  0  0  0  0  0  0  0  0
   -7.1945   20.2455  -33.7551 H   0  0  0  0  0  0  0  0  0  0  0  0
   -9.5075   20.0121  -32.8544 H   0  0  0  0  0  0  0  0  0  0  0  0
  -10.1780   21.2453  -30.7937 H   0  0  0  0  0  0  0  0  0  0  0  0
   -8.5508   22.7437  -29.6478 H   0  0  0  0  0  0  0  0  0  0  0  0
   -4.7117   22.2802  -29.1463 H   0  0  0  0  0  0  0  0  0  0  0  0
   -4.2637   22.2856  -30.8912 H   0  0  0  0  0  0  0  0  0  0  0  0
   -4.0270   24.5398  -28.8521 H   0  0  0  0  0  0  0  0  0  0  0  0
   -2.7531   23.8322  -29.8976 H   0  0  0  0  0  0  0  0  0  0  0  0
   -5.2502   26.3914  -29.7710 H   0  0  0  0  0  0  0  0  0  0  0  0
   -5.6745   26.1514  -31.5369 H   0  0  0  0  0  0  0  0  0  0  0  0
   -6.7457   24.8117  -29.1569 H   0  0  0  0  0  0  0  0  0  0  0  0
   -7.3536   24.8622  -30.8620 H   0  0  0  0  0  0  0  0  0  0  0  0
   -2.6081   19.9039  -34.8058 H   0  0  0  0  0  0  0  0  0  0  0  0
   -0.0704   20.4909  -34.7037 H   0  0  0  0  0  0  0  0  0  0  0  0
    0.6146   21.7096  -32.4683 H   0  0  0  0  0  0  0  0  0  0  0  0
  1  2  2  0
  2  3  1  0
  3  4  1  0
  4  5  2  0
  5  6  1  0
  6  7  2  0
  7  8  1  0
  8  9  2  0
  9 10  1  0
 10 11  1  0
 11 12  1  0
 12 13  1  0
 13 14  1  0
 14 15  1  0
  2 16  1  0
 16 17  2  0
 17 18  1  0
 18 19  2  0
 19 20  1  0
  9  4  1  0
 15 10  1  0
 20 16  1  0
  3 21  1  0
  5 22  1  0
  6 23  1  0
  7 24  1  0
  8 25  1  0
 11 26  1  0
 11 27  1  0
 12 28  1  0
 12 29  1  0
 14 30  1  0
 14 31  1  0
 15 32  1  0
 15 33  1  0
 17 34  1  0
 18 35  1  0
 19 36  1  0
M  END
>  <UniqueID>  (33) 
32

>  <SMILES>  (33) 
O=C(Nc1ccccc1N1CCOCC1)c1cccs1

>  <Energy>  (33) 
78.88649331272849

>  <Genealogy>  (33) 
O=C(Nc1ccccc1N1CCOCC1)c1cccs1 (3D coordinates assigned)
O=C(Nc1ccccc1N1CCOCC1)c1cccs1 (nonaromatic ring conformer: 78.88649331272849 kcal/mol)

>  <smiles>  (33) 
O=C(Nc1ccccc1N1CCOCC1)c1cccs1

>  <score_type>  (33) 
oracle

>  <origin>  (33) 
adgpu

>  <m_score__min__energy>  (33) 
-7.7300000000000004

>  <m_primary>  (33) 
energy

$$$$
33:0
     RDKit          3D

 48 50  0  0  0  0  0  0  0  0999 V2000
   -4.9620   18.1430  -34.5630 C   0  0  0  0  0  0  0  0  0  0  0  0
   -4.7230   19.5670  -33.4540 S   0  0  0  0  0  0  0  0  0  0  0  0
   -6.3350   19.3840  -32.6790 C   0  0  0  0  0  0  0  0  0  0  0  0
   -7.0900   18.2320  -32.9380 C   0  0  0  0  0  0  0  0  0  0  0  0
   -8.3430   18.0640  -32.3450 C   0  0  0  0  0  0  0  0  0  0  0  0
   -8.8550   19.0510  -31.5000 C   0  0  0  0  0  0  0  0  0  0  0  0
   -8.1120   20.2060  -31.2410 C   0  0  0  0  0  0  0  0  0  0  0  0
   -6.8390   20.3740  -31.8120 C   0  0  0  0  0  0  0  0  0  0  0  0
   -6.0910   21.5760  -31.5740 N   0  0  0  0  0  0  0  0  0  0  0  0
   -6.6620   22.9000  -31.5520 C   0  0  0  0  0  0  0  0  0  0  0  0
   -8.2640   23.1440  -31.8210 S   0  0  0  0  0  0  0  0  0  0  0  0
   -5.8270   24.0420  -31.3120 N   0  0  0  0  0  0  0  0  0  0  0  0
   -4.6830   24.0230  -30.4450 C   0  0  0  0  0  0  0  0  0  0  0  0
   -4.7860   24.5520  -29.1500 C   0  0  0  0  0  0  0  0  0  0  0  0
   -3.6880   24.5230  -28.2850 C   0  0  0  0  0  0  0  0  0  0  0  0
   -2.4780   23.9510  -28.7000 C   0  0  0  0  0  0  0  0  0  0  0  0
   -1.0780   23.9180  -27.6320 S   0  0  0  0  0  0  0  0  0  0  0  0
    0.1270   24.3690  -28.4080 O   0  0  0  0  0  0  0  0  0  0  0  0
   -0.8380   22.5180  -27.1360 O   0  0  0  0  0  0  0  0  0  0  0  0
   -1.3480   24.9930  -26.2840 N   0  0  0  0  0  0  0  0  0  0  0  0
   -0.5060   24.5930  -25.1430 C   0  0  0  0  0  0  0  0  0  0  0  0
   -0.5460   25.6620  -24.0320 C   0  0  0  0  0  0  0  0  0  0  0  0
   -1.5490   26.6260  -24.2850 O   0  0  0  0  0  0  0  0  0  0  0  0
   -1.2470   27.3270  -25.4790 C   0  0  0  0  0  0  0  0  0  0  0  0
   -1.0460   26.3760  -26.6780 C   0  0  0  0  0  0  0  0  0  0  0  0
   -2.3780   23.4020  -29.9840 C   0  0  0  0  0  0  0  0  0  0  0  0
   -3.4740   23.4310  -30.8500 C   0  0  0  0  0  0  0  0  0  0  0  0
   -5.1147   17.2332  -33.9638 H   0  0  0  0  0  0  0  0  0  0  0  0
   -5.8436   18.3164  -35.1976 H   0  0  0  0  0  0  0  0  0  0  0  0
   -4.0721   18.0191  -35.1976 H   0  0  0  0  0  0  0  0  0  0  0  0
   -6.6940   17.4572  -33.6110 H   0  0  0  0  0  0  0  0  0  0  0  0
   -8.9273   17.1534  -32.5436 H   0  0  0  0  0  0  0  0  0  0  0  0
   -9.8444   18.9192  -31.0377 H   0  0  0  0  0  0  0  0  0  0  0  0
   -8.5258   20.9876  -30.5868 H   0  0  0  0  0  0  0  0  0  0  0  0
   -5.0770   21.4670  -31.3500 H   0  0  0  0  0  0  0  0  0  0  0  0
   -6.0740   24.9400  -31.7870 H   0  0  0  0  0  0  0  0  0  0  0  0
   -5.7361   24.9922  -28.8131 H   0  0  0  0  0  0  0  0  0  0  0  0
   -3.7743   24.9507  -27.2752 H   0  0  0  0  0  0  0  0  0  0  0  0
   -0.8755   23.6389  -24.7390 H   0  0  0  0  0  0  0  0  0  0  0  0
    0.5318   24.4849  -25.4913 H   0  0  0  0  0  0  0  0  0  0  0  0
   -0.7544   25.1716  -23.0697 H   0  0  0  0  0  0  0  0  0  0  0  0
    0.4281   26.1722  -24.0047 H   0  0  0  0  0  0  0  0  0  0  0  0
   -2.0760   28.0134  -25.7062 H   0  0  0  0  0  0  0  0  0  0  0  0
   -0.3062   27.8745  -25.3206 H   0  0  0  0  0  0  0  0  0  0  0  0
   -1.7174   26.6757  -27.4962 H   0  0  0  0  0  0  0  0  0  0  0  0
    0.0007   26.4342  -27.0112 H   0  0  0  0  0  0  0  0  0  0  0  0
   -1.4325   22.9459  -30.3124 H   0  0  0  0  0  0  0  0  0  0  0  0
   -3.3905   22.9885  -31.8536 H   0  0  0  0  0  0  0  0  0  0  0  0
  1  2  1  0
  2  3  1  0
  3  4  2  0
  4  5  1  0
  5  6  2  0
  6  7  1  0
  7  8  2  0
  8  9  1  0
  9 10  1  0
 10 11  2  0
 10 12  1  0
 12 13  1  0
 13 14  2  0
 14 15  1  0
 15 16  2  0
 16 17  1  0
 17 18  2  0
 17 19  2  0
 17 20  1  0
 20 21  1  0
 21 22  1  0
 22 23  1  0
 23 24  1  0
 24 25  1  0
 16 26  1  0
 26 27  2  0
  8  3  1  0
 27 13  1  0
 25 20  1  0
  1 28  1  0
  1 29  1  0
  1 30  1  0
  4 31  1  0
  5 32  1  0
  6 33  1  0
  7 34  1  0
  9 35  1  0
 12 36  1  0
 14 37  1  0
 15 38  1  0
 21 39  1  0
 21 40  1  0
 22 41  1  0
 22 42  1  0
 24 43  1  0
 24 44  1  0
 25 45  1  0
 25 46  1  0
 26 47  1  0
 27 48  1  0
M  END
>  <UniqueID>  (34) 
33

>  <SMILES>  (34) 
CSc1ccccc1NC(=S)Nc1ccc(S(=O)(=O)N2CCOCC2)cc1

>  <Energy>  (34) 
61.54393264044035

>  <Genealogy>  (34) 
CSc1ccccc1NC(=S)Nc1ccc(S(=O)(=O)N2CCOCC2)cc1 (3D coordinates assigned)
CSc1ccccc1NC(=S)Nc1ccc(S(=O)(=O)N2CCOCC2)cc1 (nonaromatic ring conformer: 61.54393264044035 kcal/mol)

>  <smiles>  (34) 
CSc1ccccc1NC(=S)Nc1ccc(S(=O)(=O)N2CCOCC2)cc1

>  <score_type>  (34) 
oracle

>  <origin>  (34) 
adgpu

>  <m_score__min__energy>  (34) 
-8.9000000000000004

>  <m_primary>  (34) 
energy

$$$$
34:0
     RDKit          3D

 58 61  0  0  0  0  0  0  0  0999 V2000
   -8.9760   19.3710  -32.6640 C   0  0  0  0  0  0  0  0  0  0  0  0
   -8.1470   20.5030  -32.1180 C   0  0  0  0  0  0  0  0  0  0  0  0
   -8.7970   21.4860  -31.3520 C   0  0  0  0  0  0  0  0  0  0  0  0
   -8.0780   22.5200  -30.7550 C   0  0  0  0  0  0  0  0  0  0  0  0
   -6.6900   22.5770  -30.8770 C   0  0  0  0  0  0  0  0  0  0  0  0
   -5.9870   23.6550  -30.2440 N   0  0  0  0  0  0  0  0  0  0  0  0
   -4.8670   24.3680  -30.7810 C   0  0  0  0  0  0  0  0  0  0  0  0
   -4.9380   25.6200  -30.8970 O   0  0  0  0  0  0  0  0  0  0  0  0
   -3.6780   23.6720  -31.1740 N   0  0  0  0  0  0  0  0  0  0  0  0
   -2.7050   23.1200  -30.2780 C   0  0  0  0  0  0  0  0  0  0  0  0
   -2.4850   21.7450  -30.3110 C   0  0  0  0  0  0  0  0  0  0  0  0
   -1.5150   21.1680  -29.5000 C   0  0  0  0  0  0  0  0  0  0  0  0
   -0.7770   21.9480  -28.5960 C   0  0  0  0  0  0  0  0  0  0  0  0
    0.2980   21.2620  -27.7960 C   0  0  0  0  0  0  0  0  0  0  0  0
   -1.0790   23.3310  -28.4550 C   0  0  0  0  0  0  0  0  0  0  0  0
   -0.3300   24.3120  -27.1630 S   0  0  0  0  0  0  0  0  0  0  0  0
   -0.0410   23.4490  -25.9660 O   0  0  0  0  0  0  0  0  0  0  0  0
    0.9820   24.8890  -27.6140 O   0  0  0  0  0  0  0  0  0  0  0  0
   -1.4380   25.6600  -26.7560 C   0  0  0  0  0  0  0  0  0  0  0  0
   -1.6810   25.8210  -25.2640 C   0  0  0  0  0  0  0  0  0  0  0  0
   -2.7820   25.2730  -26.1570 C   0  0  0  0  0  0  0  0  0  0  0  0
   -2.0110   23.9230  -29.3510 C   0  0  0  0  0  0  0  0  0  0  0  0
   -2.2780   25.2940  -29.3420 O   0  0  0  0  0  0  0  0  0  0  0  0
   -6.0310   21.6190  -31.6630 C   0  0  0  0  0  0  0  0  0  0  0  0
   -6.7390   20.5870  -32.3040 C   0  0  0  0  0  0  0  0  0  0  0  0
   -5.7930   19.4300  -33.2820 S   0  0  0  0  0  0  0  0  0  0  0  0
   -6.4580   19.3160  -34.6260 O   0  0  0  0  0  0  0  0  0  0  0  0
   -4.4000   19.9420  -33.5230 O   0  0  0  0  0  0  0  0  0  0  0  0
   -5.6970   17.8240  -32.5800 N   0  0  0  0  0  0  0  0  0  0  0  0
   -6.8640   17.0100  -32.9210 C   0  0  0  0  0  0  0  0  0  0  0  0
   -6.5310   16.2260  -34.1790 C   0  0  0  0  0  0  0  0  0  0  0  0
   -5.0140   16.1850  -34.2290 C   0  0  0  0  0  0  0  0  0  0  0  0
   -4.5410   17.0780  -33.0860 C   0  0  0  0  0  0  0  0  0  0  0  0
   -9.4001   18.7919  -31.8305 H   0  0  0  0  0  0  0  0  0  0  0  0
   -9.7914   19.7777  -33.2802 H   0  0  0  0  0  0  0  0  0  0  0  0
   -8.3422   18.7164  -33.2802 H   0  0  0  0  0  0  0  0  0  0  0  0
   -9.8882   21.4386  -31.2219 H   0  0  0  0  0  0  0  0  0  0  0  0
   -8.6088   23.2960  -30.1840 H   0  0  0  0  0  0  0  0  0  0  0  0
   -3.0827   21.1118  -30.9832 H   0  0  0  0  0  0  0  0  0  0  0  0
   -1.3233   20.0869  -29.5674 H   0  0  0  0  0  0  0  0  0  0  0  0
    0.0952   21.3914  -26.7226 H   0  0  0  0  0  0  0  0  0  0  0  0
    0.3090   20.1896  -28.0404 H   0  0  0  0  0  0  0  0  0  0  0  0
    1.2753   21.7038  -28.0404 H   0  0  0  0  0  0  0  0  0  0  0  0
   -1.1305   26.3120  -27.5869 H   0  0  0  0  0  0  0  0  0  0  0  0
   -1.1717   25.1579  -24.5493 H   0  0  0  0  0  0  0  0  0  0  0  0
   -1.6020   26.6530  -24.5488 H   0  0  0  0  0  0  0  0  0  0  0  0
   -3.0692   24.2133  -26.0888 H   0  0  0  0  0  0  0  0  0  0  0  0
   -3.8294   25.5440  -26.3560 H   0  0  0  0  0  0  0  0  0  0  0  0
   -3.1100   25.7070  -29.7350 H   0  0  0  0  0  0  0  0  0  0  0  0
   -4.9388   21.6767  -31.7799 H   0  0  0  0  0  0  0  0  0  0  0  0
   -7.0908   16.3172  -32.0972 H   0  0  0  0  0  0  0  0  0  0  0  0
   -7.7433   17.6495  -33.0879 H   0  0  0  0  0  0  0  0  0  0  0  0
   -6.9432   15.2078  -34.1201 H   0  0  0  0  0  0  0  0  0  0  0  0
   -6.9609   16.6891  -35.0794 H   0  0  0  0  0  0  0  0  0  0  0  0
   -4.6529   15.1557  -34.0867 H   0  0  0  0  0  0  0  0  0  0  0  0
   -4.6295   16.5296  -35.2003 H   0  0  0  0  0  0  0  0  0  0  0  0
   -4.1156   16.4597  -32.2818 H   0  0  0  0  0  0  0  0  0  0  0  0
   -3.7662   17.7729  -33.4420 H   0  0  0  0  0  0  0  0  0  0  0  0
  1  2  1  0
  2  3  2  0
  3  4  1  0
  4  5  2  0
  5  6  1  0
  6  7  1  0
  7  8  2  0
  7  9  1  0
  9 10  1  0
 10 11  2  0
 11 12  1  0
 12 13  2  0
 13 14  1  0
 13 15  1  0
 15 16  1  0
 16 17  2  0
 16 18  2  0
 16 19  1  0
 19 20  1  0
 20 21  1  0
 15 22  2  0
 22 23  1  0
  5 24  1  0
 24 25  2  0
 25 26  1  0
 26 27  2  0
 26 28  2  0
 26 29  1  0
 29 30  1  0
 30 31  1  0
 31 32  1  0
 32 33  1  0
 25  2  1  0
 33 29  1  0
 22 10  1  0
 21 19  1  0
  1 34  1  0
  1 35  1  0
  1 36  1  0
  3 37  1  0
  4 38  1  0
 11 39  1  0
 12 40  1  0
 14 41  1  0
 14 42  1  0
 14 43  1  0
 19 44  1  0
 20 45  1  0
 20 46  1  0
 21 47  1  0
 21 48  1  0
 23 49  1  0
 24 50  1  0
 30 51  1  0
 30 52  1  0
 31 53  1  0
 31 54  1  0
 32 55  1  0
 32 56  1  0
 33 57  1  0
 33 58  1  0
M  CHG  2   6  -1   9  -1
M  END
>  <UniqueID>  (35) 
34

>  <SMILES>  (35) 
Cc1ccc([N-]C(=O)[N-]c2ccc(C)c(S(=O)(=O)C3CC3)c2O)cc1S(=O)(=O)N1CCCC1

>  <Energy>  (35) 
342.86524858386235

>  <Genealogy>  (35) 
Cc1ccc([N-]C(=O)[N-]c2ccc(C)c(S(=O)(=O)C3CC3)c2O)cc1S(=O)(=O)N1CCCC1 (protonated)
Cc1ccc([N-]C(=O)[N-]c2ccc(C)c(S(=O)(=O)C3CC3)c2O)cc1S(=O)(=O)N1CCCC1 (3D coordinates assigned)
Cc1ccc([N-]C(=O)[N-]c2ccc(C)c(S(=O)(=O)C3CC3)c2O)cc1S(=O)(=O)N1CCCC1 (nonaromatic ring conformer: 342.86524858386235 kcal/mol)

>  <smiles>  (35) 
Cc1ccc(NC(=O)Nc2ccc(C)c(S(=O)(=O)C3CC3)c2O)cc1S(=O)(=O)N1CCCC1

>  <score_type>  (35) 
oracle

>  <origin>  (35) 
adgpu

>  <m_score__min__energy>  (35) 
-14.57

>  <m_primary>  (35) 
energy

$$$$
35:0
     RDKit          3D

 67 72  0  0  0  0  0  0  0  0999 V2000
    1.5830   24.1670  -28.8700 H   0  0  0  0  0  0  0  0  0  0  0  0
    2.1390   24.7030  -28.1680 N   0  0  0  0  0  0  0  0  0  0  0  0
    1.6230   25.2880  -27.1300 C   0  0  0  0  0  0  0  0  0  0  0  0
    2.4570   25.9560  -26.2720 N   0  0  0  0  0  0  0  0  0  0  0  0
    2.0090   26.5750  -25.1740 N   0  0  0  0  0  0  0  0  0  0  0  0
    0.6870   26.5470  -24.8950 C   0  0  0  0  0  0  0  0  0  0  0  0
    0.0860   27.1190  -23.8400 N   0  0  0  0  0  0  0  0  0  0  0  0
   -1.2190   26.8010  -24.0390 C   0  0  0  0  0  0  0  0  0  0  0  0
   -2.0258   27.1041  -23.3554 H   0  0  0  0  0  0  0  0  0  0  0  0
   -1.4300   26.0720  -25.1650 N   0  0  0  0  0  0  0  0  0  0  0  0
   -2.7220   25.5790  -25.6350 C   0  0  0  0  0  0  0  0  0  0  0  0
   -3.3582   25.3363  -24.7711 H   0  0  0  0  0  0  0  0  0  0  0  0
   -3.2106   26.3539  -26.2440 H   0  0  0  0  0  0  0  0  0  0  0  0
   -2.5703   24.6756  -26.2440 H   0  0  0  0  0  0  0  0  0  0  0  0
   -0.2020   25.9100  -25.6990 C   0  0  0  0  0  0  0  0  0  0  0  0
    0.2250   25.2460  -26.8590 C   0  0  0  0  0  0  0  0  0  0  0  0
   -0.7160   24.5390  -27.7480 C   0  0  0  0  0  0  0  0  0  0  0  0
   -0.6910   23.1430  -27.8350 C   0  0  0  0  0  0  0  0  0  0  0  0
    0.0336   22.5625  -27.2451 H   0  0  0  0  0  0  0  0  0  0  0  0
   -1.5950   22.4940  -28.6780 C   0  0  0  0  0  0  0  0  0  0  0  0
   -1.5768   21.3975  -28.7631 H   0  0  0  0  0  0  0  0  0  0  0  0
   -2.4980   23.2160  -29.3940 N   0  0  0  0  0  0  0  0  0  0  0  0
   -2.5640   24.5720  -29.3190 C   0  0  0  0  0  0  0  0  0  0  0  0
   -3.5030   25.2450  -30.1120 O   0  0  0  0  0  0  0  0  0  0  0  0
   -4.8040   24.7990  -30.3820 C   0  0  0  0  0  0  0  0  0  0  0  0
   -5.9280   25.3940  -29.7860 C   0  0  0  0  0  0  0  0  0  0  0  0
   -5.7984   26.2240  -29.0758 H   0  0  0  0  0  0  0  0  0  0  0  0
   -7.2110   24.9330  -30.0940 C   0  0  0  0  0  0  0  0  0  0  0  0
   -8.0901   25.4076  -29.6336 H   0  0  0  0  0  0  0  0  0  0  0  0
   -7.3790   23.8700  -30.9860 C   0  0  0  0  0  0  0  0  0  0  0  0
   -8.3921   23.5261  -31.2418 H   0  0  0  0  0  0  0  0  0  0  0  0
   -6.2640   23.2390  -31.5570 C   0  0  0  0  0  0  0  0  0  0  0  0
   -6.4570   22.1730  -32.5030 N   0  0  0  0  0  0  0  0  0  0  0  0
   -5.8910   22.1790  -33.3810 H   0  0  0  0  0  0  0  0  0  0  0  0
   -7.4430   21.1420  -32.3360 C   0  0  0  0  0  0  0  0  0  0  0  0
   -8.5330   21.4160  -31.7630 O   0  0  0  0  0  0  0  0  0  0  0  0
   -7.2080   19.7710  -32.8510 C   0  0  0  0  0  0  0  0  0  0  0  0
   -7.8590   18.6740  -32.2620 C   0  0  0  0  0  0  0  0  0  0  0  0
   -8.5698   18.8392  -31.4389 H   0  0  0  0  0  0  0  0  0  0  0  0
   -7.6110   17.3750  -32.7130 C   0  0  0  0  0  0  0  0  0  0  0  0
   -8.1421   16.5278  -32.2545 H   0  0  0  0  0  0  0  0  0  0  0  0
   -6.6900   17.1420  -33.7460 C   0  0  0  0  0  0  0  0  0  0  0  0
   -6.4000   15.7330  -34.2280 C   0  0  0  0  0  0  0  0  0  0  0  0
   -7.3525   15.2620  -34.5124 H   0  0  0  0  0  0  0  0  0  0  0  0
   -5.7026   15.8235  -35.0738 H   0  0  0  0  0  0  0  0  0  0  0  0
   -5.7390   14.8740  -33.2180 N   0  0  0  0  0  0  0  0  0  0  0  0
   -5.3830   13.5300  -33.7150 C   0  0  0  0  0  0  0  0  0  0  0  0
   -6.2982   12.9308  -33.8306 H   0  0  0  0  0  0  0  0  0  0  0  0
   -4.8744   13.6285  -34.6854 H   0  0  0  0  0  0  0  0  0  0  0  0
   -4.4400   12.8310  -32.7220 C   0  0  0  0  0  0  0  0  0  0  0  0
   -4.9629   12.7333  -31.7592 H   0  0  0  0  0  0  0  0  0  0  0  0
   -4.1784   11.8581  -33.1637 H   0  0  0  0  0  0  0  0  0  0  0  0
   -3.2160   13.5230  -32.4980 O   0  0  0  0  0  0  0  0  0  0  0  0
   -3.2820   14.9170  -32.7730 C   0  0  0  0  0  0  0  0  0  0  0  0
   -2.5208   15.4291  -32.1661 H   0  0  0  0  0  0  0  0  0  0  0  0
   -3.1070   15.0452  -33.8514 H   0  0  0  0  0  0  0  0  0  0  0  0
   -4.6560   15.5350  -32.4570 C   0  0  0  0  0  0  0  0  0  0  0  0
   -4.8576   15.4256  -31.3812 H   0  0  0  0  0  0  0  0  0  0  0  0
   -4.6306   16.5960  -32.7463 H   0  0  0  0  0  0  0  0  0  0  0  0
   -6.0570   18.2390  -34.3510 C   0  0  0  0  0  0  0  0  0  0  0  0
   -5.3591   18.0735  -35.1850 H   0  0  0  0  0  0  0  0  0  0  0  0
   -6.3050   19.5390  -33.9040 C   0  0  0  0  0  0  0  0  0  0  0  0
   -5.7904   20.3873  -34.3790 H   0  0  0  0  0  0  0  0  0  0  0  0
   -4.9750   23.7120  -31.2460 C   0  0  0  0  0  0  0  0  0  0  0  0
   -4.0940   23.2223  -31.6865 H   0  0  0  0  0  0  0  0  0  0  0  0
   -1.6610   25.2600  -28.4890 C   0  0  0  0  0  0  0  0  0  0  0  0
   -1.6966   26.3574  -28.4221 H   0  0  0  0  0  0  0  0  0  0  0  0
  1  2  1  0
  2  3  2  0
  3  4  1  0
  4  5  1  0
  5  6  2  0
  6  7  1  0
  7  8  2  0
  8  9  1  0
  8 10  1  0
 10 11  1  0
 11 12  1  0
 11 13  1  0
 11 14  1  0
 10 15  1  0
 15 16  2  0
 16 17  1  0
 17 18  2  0
 18 19  1  0
 18 20  1  0
 20 21  1  0
 20 22  2  0
 22 23  1  0
 23 24  1  0
 24 25  1  0
 25 26  2  0
 26 27  1  0
 26 28  1  0
 28 29  1  0
 28 30  2  0
 30 31  1  0
 30 32  1  0
 32 33  1  0
 33 34  1  0
 33 35  1  0
 35 36  2  0
 35 37  1  0
 37 38  2  0
 38 39  1  0
 38 40  1  0
 40 41  1  0
 40 42  2  0
 42 43  1  0
 43 44  1  0
 43 45  1  0
 43 46  1  0
 46 47  1  0
 47 48  1  0
 47 49  1  0
 47 50  1  0
 50 51  1  0
 50 52  1  0
 50 53  1  0
 53 54  1  0
 54 55  1  0
 54 56  1  0
 54 57  1  0
 57 58  1  0
 57 59  1  0
 42 60  1  0
 60 61  1  0
 60 62  2  0
 62 63  1  0
 32 64  2  0
 64 65  1  0
 23 66  2  0
 66 67  1  0
 16  3  1  0
 66 17  1  0
 15  6  1  0
 64 25  1  0
 62 37  1  0
 57 46  1  0
M  CHG  1   4  -1
M  END
>  <UniqueID>  (36) 
35

>  <SMILES>  (36) 
[H]/N=c1/[n-]nc2ncn(C)c2c1-c1ccnc(Oc2cccc(NC(=O)c3ccc(CN4CCOCC4)cc3)c2)c1

>  <Energy>  (36) 
154.69388751715778

>  <Genealogy>  (36) 
Cn1cnc2n[n-]c(=N)c(-c3ccnc(Oc4cccc(NC(=O)c5ccc(CN6CCOCC6)cc5)c4)c3)c21 (protonated)
[H]/N=c1/[n-]nc2ncn(C)c2c1-c1ccnc(Oc2cccc(NC(=O)c3ccc(CN4CCOCC4)cc3)c2)c1 (cis-trans isomerization)
[H]/N=c1/[n-]nc2ncn(C)c2c1-c1ccnc(Oc2cccc(NC(=O)c3ccc(CN4CCOCC4)cc3)c2)c1 (3D coordinates assigned)
[H]/N=c1/[n-]nc2ncn(C)c2c1-c1ccnc(Oc2cccc(NC(=O)c3ccc(CN4CCOCC4)cc3)c2)c1 (nonaromatic ring conformer: 154.69388751715778 kcal/mol)

>  <smiles>  (36) 
Cn1cnc2n[nH]c(=N)c(-c3ccnc(Oc4cccc(NC(=O)c5ccc(CN6CCOCC6)cc5)c4)c3)c21

>  <score_type>  (36) 
oracle

>  <origin>  (36) 
adgpu

>  <m_score__min__energy>  (36) 
-11.630000000000001

>  <m_primary>  (36) 
energy

$$$$
36:0
     RDKit          3D

 41 43  0  0  0  0  0  0  0  0999 V2000
   -1.3260   25.6780  -29.0740 N   0  0  0  0  0  0  0  0  0  0  0  0
   -2.4760   24.3860  -29.0580 S   0  0  0  0  0  0  0  0  0  0  0  0
   -3.6350   24.7970  -28.1920 O   0  0  0  0  0  0  0  0  0  0  0  0
   -2.9870   24.1310  -30.4480 O   0  0  0  0  0  0  0  0  0  0  0  0
   -1.7250   22.9180  -28.4100 C   0  0  0  0  0  0  0  0  0  0  0  0
   -1.8860   22.6220  -27.0460 C   0  0  0  0  0  0  0  0  0  0  0  0
   -1.2750   21.5010  -26.4830 C   0  0  0  0  0  0  0  0  0  0  0  0
   -0.4930   20.6630  -27.2720 C   0  0  0  0  0  0  0  0  0  0  0  0
   -0.3220   20.9390  -28.6290 C   0  0  0  0  0  0  0  0  0  0  0  0
   -0.9310   22.0630  -29.2170 C   0  0  0  0  0  0  0  0  0  0  0  0
   -0.7710   22.3140  -30.6260 N   0  0  0  0  0  0  0  0  0  0  0  0
   -1.2610   21.1850  -31.8490 S   0  0  0  0  0  0  0  0  0  0  0  0
   -0.7180   21.6300  -33.1770 O   0  0  0  0  0  0  0  0  0  0  0  0
   -0.6960   19.8300  -31.5210 O   0  0  0  0  0  0  0  0  0  0  0  0
   -3.0170   21.1110  -31.9360 C   0  0  0  0  0  0  0  0  0  0  0  0
   -3.7540   22.2480  -32.2860 C   0  0  0  0  0  0  0  0  0  0  0  0
   -5.1480   22.1880  -32.3620 C   0  0  0  0  0  0  0  0  0  0  0  0
   -5.8280   20.9860  -32.0860 C   0  0  0  0  0  0  0  0  0  0  0  0
   -7.3090   20.9190  -32.1700 C   0  0  0  0  0  0  0  0  0  0  0  0
   -8.0960   22.0400  -31.8410 C   0  0  0  0  0  0  0  0  0  0  0  0
   -9.4900   21.9750  -31.9210 C   0  0  0  0  0  0  0  0  0  0  0  0
  -10.1140   20.7940  -32.3310 C   0  0  0  0  0  0  0  0  0  0  0  0
   -9.3450   19.6760  -32.6600 C   0  0  0  0  0  0  0  0  0  0  0  0
   -7.9500   19.7350  -32.5810 C   0  0  0  0  0  0  0  0  0  0  0  0
   -5.0790   19.8500  -31.7300 C   0  0  0  0  0  0  0  0  0  0  0  0
   -3.6850   19.9140  -31.6540 C   0  0  0  0  0  0  0  0  0  0  0  0
   -1.2420   26.0170  -30.0570 H   0  0  0  0  0  0  0  0  0  0  0  0
   -2.5004   23.2811  -26.4151 H   0  0  0  0  0  0  0  0  0  0  0  0
   -1.4117   21.2795  -25.4142 H   0  0  0  0  0  0  0  0  0  0  0  0
   -0.0091   19.7819  -26.8254 H   0  0  0  0  0  0  0  0  0  0  0  0
    0.2960   20.2703  -29.2462 H   0  0  0  0  0  0  0  0  0  0  0  0
   -0.3150   23.1900  -30.9560 H   0  0  0  0  0  0  0  0  0  0  0  0
   -3.2338   23.1928  -32.5022 H   0  0  0  0  0  0  0  0  0  0  0  0
   -5.7186   23.0865  -32.6395 H   0  0  0  0  0  0  0  0  0  0  0  0
   -7.6102   22.9729  -31.5189 H   0  0  0  0  0  0  0  0  0  0  0  0
  -10.0966   22.8549  -31.6608 H   0  0  0  0  0  0  0  0  0  0  0  0
  -11.2111   20.7450  -32.3946 H   0  0  0  0  0  0  0  0  0  0  0  0
   -9.8376   18.7467  -32.9821 H   0  0  0  0  0  0  0  0  0  0  0  0
   -7.3499   18.8507  -32.8416 H   0  0  0  0  0  0  0  0  0  0  0  0
   -5.5946   18.9036  -31.5096 H   0  0  0  0  0  0  0  0  0  0  0  0
   -3.1103   19.0197  -31.3713 H   0  0  0  0  0  0  0  0  0  0  0  0
  1  2  1  0
  2  3  2  0
  2  4  2  0
  2  5  1  0
  5  6  2  0
  6  7  1  0
  7  8  2  0
  8  9  1  0
  9 10  2  0
 10 11  1  0
 11 12  1  0
 12 13  2  0
 12 14  2  0
 12 15  1  0
 15 16  2  0
 16 17  1  0
 17 18  2  0
 18 19  1  0
 19 20  2  0
 20 21  1  0
 21 22  2  0
 22 23  1  0
 23 24  2  0
 18 25  1  0
 25 26  2  0
 10  5  1  0
 26 15  1  0
 24 19  1  0
  1 27  1  0
  6 28  1  0
  7 29  1  0
  8 30  1  0
  9 31  1  0
 11 32  1  0
 16 33  1  0
 17 34  1  0
 20 35  1  0
 21 36  1  0
 22 37  1  0
 23 38  1  0
 24 39  1  0
 25 40  1  0
 26 41  1  0
M  CHG  1   1  -1
M  END
>  <UniqueID>  (37) 
36

>  <SMILES>  (37) 
[NH-]S(=O)(=O)c1ccccc1NS(=O)(=O)c1ccc(-c2ccccc2)cc1

>  <Energy>  (37) 
54.960976160643206

>  <Genealogy>  (37) 
[NH-]S(=O)(=O)c1ccccc1NS(=O)(=O)c1ccc(-c2ccccc2)cc1 (protonated)
[NH-]S(=O)(=O)c1ccccc1NS(=O)(=O)c1ccc(-c2ccccc2)cc1 (3D coordinates assigned)
[NH-]S(=O)(=O)c1ccccc1NS(=O)(=O)c1ccc(-c2ccccc2)cc1 (optimized conformer: 54.960976160643206 kcal/mol)

>  <smiles>  (37) 
NS(=O)(=O)c1ccccc1NS(=O)(=O)c1ccc(-c2ccccc2)cc1

>  <score_type>  (37) 
oracle

>  <origin>  (37) 
adgpu

>  <m_score__min__energy>  (37) 
-12.539999999999999

>  <m_primary>  (37) 
energy

$$$$
37:0
     RDKit          3D

 41 44  0  0  0  0  0  0  0  0999 V2000
   -1.5100   15.5650  -36.0130 O   0  0  0  0  0  0  0  0  0  0  0  0
   -2.4360   16.1130  -35.3570 C   0  0  0  0  0  0  0  0  0  0  0  0
   -3.6500   15.4530  -35.1810 C   0  0  0  0  0  0  0  0  0  0  0  0
   -4.6620   16.0850  -34.4490 C   0  0  0  0  0  0  0  0  0  0  0  0
   -5.9760   15.4040  -34.2140 C   0  0  0  0  0  0  0  0  0  0  0  0
   -6.9590   16.3500  -33.8950 O   0  0  0  0  0  0  0  0  0  0  0  0
   -4.4530   17.2920  -33.9310 O   0  0  0  0  0  0  0  0  0  0  0  0
   -3.3090   17.9600  -34.0700 C   0  0  0  0  0  0  0  0  0  0  0  0
   -3.1790   19.2660  -33.4760 N   0  0  0  0  0  0  0  0  0  0  0  0
   -2.1040   20.0310  -33.5960 N   0  0  0  0  0  0  0  0  0  0  0  0
   -2.3100   21.2210  -33.0510 N   0  0  0  0  0  0  0  0  0  0  0  0
   -3.5680   21.2240  -32.5640 C   0  0  0  0  0  0  0  0  0  0  0  0
   -4.1680   22.3770  -31.8570 C   0  0  0  0  0  0  0  0  0  0  0  0
   -5.5580   22.5740  -31.9060 C   0  0  0  0  0  0  0  0  0  0  0  0
   -6.1420   23.6590  -31.2480 C   0  0  0  0  0  0  0  0  0  0  0  0
   -5.3460   24.5680  -30.5440 C   0  0  0  0  0  0  0  0  0  0  0  0
   -6.0980   25.9250  -29.7220 Cl  0  0  0  0  0  0  0  0  0  0  0  0
   -3.9550   24.3920  -30.5080 C   0  0  0  0  0  0  0  0  0  0  0  0
   -3.1510   25.2950  -29.8220 O   0  0  0  0  0  0  0  0  0  0  0  0
   -3.3700   23.3050  -31.1660 C   0  0  0  0  0  0  0  0  0  0  0  0
   -4.1280   19.9840  -32.8350 C   0  0  0  0  0  0  0  0  0  0  0  0
   -5.5090   19.5380  -32.5560 C   0  0  0  0  0  0  0  0  0  0  0  0
   -5.7590   18.6050  -31.5370 C   0  0  0  0  0  0  0  0  0  0  0  0
   -7.0650   18.1820  -31.2760 C   0  0  0  0  0  0  0  0  0  0  0  0
   -8.1300   18.6910  -32.0260 C   0  0  0  0  0  0  0  0  0  0  0  0
   -9.4280   18.2680  -31.7670 O   0  0  0  0  0  0  0  0  0  0  0  0
   -7.8880   19.6260  -33.0380 C   0  0  0  0  0  0  0  0  0  0  0  0
   -6.5820   20.0500  -33.3020 C   0  0  0  0  0  0  0  0  0  0  0  0
   -2.2520   17.3800  -34.7980 C   0  0  0  0  0  0  0  0  0  0  0  0
   -1.0370   18.0410  -34.9520 O   0  0  0  0  0  0  0  0  0  0  0  0
   -3.8106   14.4528  -35.6097 H   0  0  0  0  0  0  0  0  0  0  0  0
   -6.2734   14.8633  -35.1246 H   0  0  0  0  0  0  0  0  0  0  0  0
   -5.8708   14.6982  -33.3768 H   0  0  0  0  0  0  0  0  0  0  0  0
   -6.4860   17.2080  -33.7360 H   0  0  0  0  0  0  0  0  0  0  0  0
   -6.1905   21.8695  -32.4660 H   0  0  0  0  0  0  0  0  0  0  0  0
   -7.2325   23.7989  -31.2838 H   0  0  0  0  0  0  0  0  0  0  0  0
   -2.2779   23.1756  -31.1425 H   0  0  0  0  0  0  0  0  0  0  0  0
   -4.9242   18.2058  -30.9423 H   0  0  0  0  0  0  0  0  0  0  0  0
   -7.2556   17.4476  -30.4795 H   0  0  0  0  0  0  0  0  0  0  0  0
   -8.7258   20.0280  -33.6266 H   0  0  0  0  0  0  0  0  0  0  0  0
   -6.3949   20.7871  -34.0968 H   0  0  0  0  0  0  0  0  0  0  0  0
  1  2  2  0
  2  3  1  0
  3  4  2  0
  4  5  1  0
  5  6  1  0
  4  7  1  0
  7  8  1  0
  8  9  1  0
  9 10  1  0
 10 11  2  0
 11 12  1  0
 12 13  1  0
 13 14  2  0
 14 15  1  0
 15 16  2  0
 16 17  1  0
 16 18  1  0
 18 19  1  0
 18 20  2  0
 12 21  2  0
 21 22  1  0
 22 23  2  0
 23 24  1  0
 24 25  2  0
 25 26  1  0
 25 27  1  0
 27 28  2  0
  8 29  2  0
 29 30  1  0
 29  2  1  0
 21  9  1  0
 28 22  1  0
 20 13  1  0
  3 31  1  0
  5 32  1  0
  5 33  1  0
  6 34  1  0
 14 35  1  0
 15 36  1  0
 20 37  1  0
 23 38  1  0
 24 39  1  0
 27 40  1  0
 28 41  1  0
M  CHG  3  19  -1  26  -1  30  -1
M  END
>  <UniqueID>  (38) 
37

>  <SMILES>  (38) 
O=c1cc(CO)oc(-n2nnc(-c3ccc(Cl)c([O-])c3)c2-c2ccc([O-])cc2)c1[O-]

>  <Energy>  (38) 
93.38512979261559

>  <Genealogy>  (38) 
O=c1cc(CO)oc(-n2nnc(-c3ccc(Cl)c([O-])c3)c2-c2ccc([O-])cc2)c1[O-] (protonated)
O=c1cc(CO)oc(-n2nnc(-c3ccc(Cl)c([O-])c3)c2-c2ccc([O-])cc2)c1[O-] (3D coordinates assigned)
O=c1cc(CO)oc(-n2nnc(-c3ccc(Cl)c([O-])c3)c2-c2ccc([O-])cc2)c1[O-] (optimized conformer: 93.38512979261559 kcal/mol)

>  <smiles>  (38) 
O=c1cc(CO)oc(-n2nnc(-c3ccc(Cl)c(O)c3)c2-c2ccc(O)cc2)c1O

>  <score_type>  (38) 
oracle

>  <origin>  (38) 
adgpu

>  <m_score__min__energy>  (38) 
-11.09

>  <m_primary>  (38) 
energy

$$$$
38:0
     RDKit          3D

 49 51  0  0  0  0  0  0  0  0999 V2000
   -0.6980   22.2560  -26.1010 C   0  0  0  0  0  0  0  0  0  0  0  0
   -1.4380   23.0860  -27.1080 C   0  0  0  0  0  0  0  0  0  0  0  0
   -2.7610   22.7690  -27.4500 C   0  0  0  0  0  0  0  0  0  0  0  0
   -3.4360   23.5160  -28.4210 C   0  0  0  0  0  0  0  0  0  0  0  0
   -2.7890   24.5650  -29.0830 C   0  0  0  0  0  0  0  0  0  0  0  0
   -3.5000   25.2990  -30.0900 N   0  0  0  0  0  0  0  0  0  0  0  0
   -4.6370   24.8170  -30.8190 C   0  0  0  0  0  0  0  0  0  0  0  0
   -5.5840   25.6070  -31.0680 O   0  0  0  0  0  0  0  0  0  0  0  0
   -4.7220   23.4590  -31.2710 N   0  0  0  0  0  0  0  0  0  0  0  0
   -5.9440   22.7400  -31.4980 C   0  0  0  0  0  0  0  0  0  0  0  0
   -7.1560   23.4250  -31.6400 C   0  0  0  0  0  0  0  0  0  0  0  0
   -8.3440   22.7270  -31.8240 C   0  0  0  0  0  0  0  0  0  0  0  0
   -8.3500   21.3260  -31.8810 C   0  0  0  0  0  0  0  0  0  0  0  0
   -9.6700   20.6230  -32.0650 C   0  0  0  0  0  0  0  0  0  0  0  0
   -7.1240   20.6170  -31.7920 C   0  0  0  0  0  0  0  0  0  0  0  0
   -7.1050   18.8350  -31.8550 S   0  0  0  0  0  0  0  0  0  0  0  0
   -6.1030   18.3180  -30.8600 O   0  0  0  0  0  0  0  0  0  0  0  0
   -8.4480   18.2610  -31.4980 O   0  0  0  0  0  0  0  0  0  0  0  0
   -6.6560   18.3110  -33.4600 N   0  0  0  0  0  0  0  0  0  0  0  0
   -6.0330   16.9750  -33.3960 C   0  0  0  0  0  0  0  0  0  0  0  0
   -5.1840   16.7100  -34.6500 C   0  0  0  0  0  0  0  0  0  0  0  0
   -4.1320   17.6470  -34.8550 O   0  0  0  0  0  0  0  0  0  0  0  0
   -4.3290   18.8840  -34.1860 C   0  0  0  0  0  0  0  0  0  0  0  0
   -5.8050   19.3160  -34.1350 C   0  0  0  0  0  0  0  0  0  0  0  0
   -5.9230   21.3360  -31.5890 C   0  0  0  0  0  0  0  0  0  0  0  0
   -4.7140   20.6490  -31.4510 O   0  0  0  0  0  0  0  0  0  0  0  0
   -1.4660   24.8890  -28.7350 C   0  0  0  0  0  0  0  0  0  0  0  0
   -0.7930   24.1470  -27.7610 C   0  0  0  0  0  0  0  0  0  0  0  0
   -0.9804   22.5728  -25.0862 H   0  0  0  0  0  0  0  0  0  0  0  0
   -0.9559   21.1956  -26.2392 H   0  0  0  0  0  0  0  0  0  0  0  0
    0.3849   22.3910  -26.2392 H   0  0  0  0  0  0  0  0  0  0  0  0
   -3.2695   21.9299  -26.9527 H   0  0  0  0  0  0  0  0  0  0  0  0
   -4.4816   23.2773  -28.6655 H   0  0  0  0  0  0  0  0  0  0  0  0
   -7.1687   24.5244  -31.6057 H   0  0  0  0  0  0  0  0  0  0  0  0
   -9.2896   23.2797  -31.9260 H   0  0  0  0  0  0  0  0  0  0  0  0
  -10.1030   20.3924  -31.0804 H   0  0  0  0  0  0  0  0  0  0  0  0
  -10.3575   21.2744  -32.6244 H   0  0  0  0  0  0  0  0  0  0  0  0
   -9.5131   19.6890  -32.6244 H   0  0  0  0  0  0  0  0  0  0  0  0
   -5.3892   16.9192  -32.5058 H   0  0  0  0  0  0  0  0  0  0  0  0
   -6.8279   16.2167  -33.3407 H   0  0  0  0  0  0  0  0  0  0  0  0
   -4.7397   15.7078  -34.5595 H   0  0  0  0  0  0  0  0  0  0  0  0
   -5.8600   16.8022  -35.5129 H   0  0  0  0  0  0  0  0  0  0  0  0
   -3.9570   18.7874  -33.1553 H   0  0  0  0  0  0  0  0  0  0  0  0
   -3.7823   19.6528  -34.7517 H   0  0  0  0  0  0  0  0  0  0  0  0
   -5.8774   20.2673  -33.5876 H   0  0  0  0  0  0  0  0  0  0  0  0
   -6.1627   19.4228  -35.1697 H   0  0  0  0  0  0  0  0  0  0  0  0
   -4.6480   19.7320  -31.0270 H   0  0  0  0  0  0  0  0  0  0  0  0
   -0.9589   25.7296  -29.2312 H   0  0  0  0  0  0  0  0  0  0  0  0
    0.2474   24.3959  -27.5050 H   0  0  0  0  0  0  0  0  0  0  0  0
  1  2  1  0
  2  3  2  0
  3  4  1  0
  4  5  2  0
  5  6  1  0
  6  7  1  0
  7  8  2  0
  7  9  1  0
  9 10  1  0
 10 11  2  0
 11 12  1  0
 12 13  2  0
 13 14  1  0
 13 15  1  0
 15 16  1  0
 16 17  2  0
 16 18  2  0
 16 19  1  0
 19 20  1  0
 20 21  1  0
 21 22  1  0
 22 23  1  0
 23 24  1  0
 15 25  2  0
 25 26  1  0
  5 27  1  0
 27 28  2  0
 28  2  1  0
 25 10  1  0
 24 19  1  0
  1 29  1  0
  1 30  1  0
  1 31  1  0
  3 32  1  0
  4 33  1  0
 11 34  1  0
 12 35  1  0
 14 36  1  0
 14 37  1  0
 14 38  1  0
 20 39  1  0
 20 40  1  0
 21 41  1  0
 21 42  1  0
 23 43  1  0
 23 44  1  0
 24 45  1  0
 24 46  1  0
 26 47  1  0
 27 48  1  0
 28 49  1  0
M  CHG  2   6  -1   9  -1
M  END
>  <UniqueID>  (39) 
38

>  <SMILES>  (39) 
Cc1ccc([N-]C(=O)[N-]c2ccc(C)c(S(=O)(=O)N3CCOCC3)c2O)cc1

>  <Energy>  (39) 
69.17141690055489

>  <Genealogy>  (39) 
Cc1ccc([N-]C(=O)[N-]c2ccc(C)c(S(=O)(=O)N3CCOCC3)c2O)cc1 (protonated)
Cc1ccc([N-]C(=O)[N-]c2ccc(C)c(S(=O)(=O)N3CCOCC3)c2O)cc1 (3D coordinates assigned)
Cc1ccc([N-]C(=O)[N-]c2ccc(C)c(S(=O)(=O)N3CCOCC3)c2O)cc1 (nonaromatic ring conformer: 69.17141690055489 kcal/mol)

>  <smiles>  (39) 
Cc1ccc(NC(=O)Nc2ccc(C)c(S(=O)(=O)N3CCOCC3)c2O)cc1

>  <score_type>  (39) 
oracle

>  <origin>  (39) 
adgpu

>  <m_score__min__energy>  (39) 
-12.74

>  <m_primary>  (39) 
energy

$$$$
39:0
     RDKit          3D

 47 50  0  0  0  0  0  0  0  0999 V2000
   -0.6837   26.7938  -28.6121 H   0  0  0  0  0  0  0  0  0  0  0  0
   -0.9890   25.7390  -28.5470 C   0  0  0  0  0  0  0  0  0  0  0  0
   -2.0350   25.2870  -29.2890 N   0  0  0  0  0  0  0  0  0  0  0  0
   -2.4460   23.9860  -29.2450 C   0  0  0  0  0  0  0  0  0  0  0  0
   -3.4850   23.5810  -29.9180 N   0  0  0  0  0  0  0  0  0  0  0  0
   -4.2980   24.3820  -30.7900 C   0  0  0  0  0  0  0  0  0  0  0  0
   -4.1600   25.6370  -30.8340 O   0  0  0  0  0  0  0  0  0  0  0  0
   -5.2960   23.7360  -31.5880 N   0  0  0  0  0  0  0  0  0  0  0  0
   -6.7970   23.1420  -30.9510 S   0  0  0  0  0  0  0  0  0  0  0  0
   -6.6940   22.9550  -29.4640 O   0  0  0  0  0  0  0  0  0  0  0  0
   -7.8600   24.1660  -31.2290 O   0  0  0  0  0  0  0  0  0  0  0  0
   -7.2500   21.5980  -31.6920 C   0  0  0  0  0  0  0  0  0  0  0  0
   -8.4780   21.0120  -31.3440 C   0  0  0  0  0  0  0  0  0  0  0  0
   -9.1570   21.5366  -30.6557 H   0  0  0  0  0  0  0  0  0  0  0  0
   -8.8440   19.7700  -31.8640 C   0  0  0  0  0  0  0  0  0  0  0  0
   -9.8029   19.3149  -31.5754 H   0  0  0  0  0  0  0  0  0  0  0  0
   -7.9950   19.1040  -32.7500 C   0  0  0  0  0  0  0  0  0  0  0  0
   -8.2903   18.1307  -33.1689 H   0  0  0  0  0  0  0  0  0  0  0  0
   -6.7700   19.6750  -33.1040 C   0  0  0  0  0  0  0  0  0  0  0  0
   -6.1043   19.1492  -33.8042 H   0  0  0  0  0  0  0  0  0  0  0  0
   -6.3820   20.9180  -32.5710 C   0  0  0  0  0  0  0  0  0  0  0  0
   -5.1720   21.5140  -32.9510 O   0  0  0  0  0  0  0  0  0  0  0  0
   -3.8940   21.1180  -32.5290 C   0  0  0  0  0  0  0  0  0  0  0  0
   -2.8630   21.0760  -33.4720 C   0  0  0  0  0  0  0  0  0  0  0  0
   -3.0816   21.2988  -34.5268 H   0  0  0  0  0  0  0  0  0  0  0  0
   -1.5570   20.7540  -33.0900 C   0  0  0  0  0  0  0  0  0  0  0  0
   -0.7549   20.7327  -33.8424 H   0  0  0  0  0  0  0  0  0  0  0  0
   -1.2660   20.4570  -31.7450 C   0  0  0  0  0  0  0  0  0  0  0  0
    0.0340   20.1210  -31.3010 C   0  0  0  0  0  0  0  0  0  0  0  0
    1.2070   20.0560  -32.2440 C   0  0  0  0  0  0  0  0  0  0  0  0
    2.1407   20.0043  -31.6648 H   0  0  0  0  0  0  0  0  0  0  0  0
    1.1187   19.1614  -32.8779 H   0  0  0  0  0  0  0  0  0  0  0  0
    1.2181   20.9549  -32.8779 H   0  0  0  0  0  0  0  0  0  0  0  0
    0.2260   19.8390  -29.9410 C   0  0  0  0  0  0  0  0  0  0  0  0
    1.2258   19.5745  -29.5664 H   0  0  0  0  0  0  0  0  0  0  0  0
   -0.8590   19.8960  -29.0660 C   0  0  0  0  0  0  0  0  0  0  0  0
   -0.6950   19.6400  -27.8440 O   0  0  0  0  0  0  0  0  0  0  0  0
   -2.0680   20.2170  -29.5120 O   0  0  0  0  0  0  0  0  0  0  0  0
   -2.3120   20.4940  -30.7900 C   0  0  0  0  0  0  0  0  0  0  0  0
   -3.6120   20.8270  -31.1840 C   0  0  0  0  0  0  0  0  0  0  0  0
   -4.4182   20.8612  -30.4364 H   0  0  0  0  0  0  0  0  0  0  0  0
   -1.7730   23.0800  -28.4160 C   0  0  0  0  0  0  0  0  0  0  0  0
   -2.0883   22.0270  -28.3745 H   0  0  0  0  0  0  0  0  0  0  0  0
   -0.6980   23.5240  -27.6420 C   0  0  0  0  0  0  0  0  0  0  0  0
   -0.1638   22.8206  -26.9863 H   0  0  0  0  0  0  0  0  0  0  0  0
   -0.3020   24.8640  -27.7020 C   0  0  0  0  0  0  0  0  0  0  0  0
    1.0330   25.4410  -26.7190 Cl  0  0  0  0  0  0  0  0  0  0  0  0
  1  2  1  0
  2  3  1  0
  3  4  1  0
  4  5  2  0
  5  6  1  0
  6  7  2  0
  6  8  1  0
  8  9  1  0
  9 10  2  0
  9 11  2  0
  9 12  1  0
 12 13  2  0
 13 14  1  0
 13 15  1  0
 15 16  1  0
 15 17  2  0
 17 18  1  0
 17 19  1  0
 19 20  1  0
 19 21  2  0
 21 22  1  0
 22 23  1  0
 23 24  2  0
 24 25  1  0
 24 26  1  0
 26 27  1  0
 26 28  2  0
 28 29  1  0
 29 30  1  0
 30 31  1  0
 30 32  1  0
 30 33  1  0
 29 34  2  0
 34 35  1  0
 34 36  1  0
 36 37  2  0
 36 38  1  0
 38 39  1  0
 39 40  2  0
 40 41  1  0
  4 42  1  0
 42 43  1  0
 42 44  2  0
 44 45  1  0
 44 46  1  0
 46 47  1  0
 46  2  2  0
 21 12  1  0
 40 23  1  0
 39 28  1  0
M  CHG  2   3  -1   8  -1
M  END
>  <UniqueID>  (40) 
39

>  <SMILES>  (40) 
Cc1cc(=O)oc2cc(Oc3ccccc3S(=O)(=O)[N-]C(=O)/N=c3/ccc(Cl)c[n-]3)ccc12

>  <Energy>  (40) 
67.81740843475828

>  <Genealogy>  (40) 
Cc1cc(=O)oc2cc(Oc3ccccc3S(=O)(=O)[N-]C(=O)N=c3ccc(Cl)c[n-]3)ccc12 (protonated)
Cc1cc(=O)oc2cc(Oc3ccccc3S(=O)(=O)[N-]C(=O)/N=c3/ccc(Cl)c[n-]3)ccc12 (cis-trans isomerization)
Cc1cc(=O)oc2cc(Oc3ccccc3S(=O)(=O)[N-]C(=O)/N=c3/ccc(Cl)c[n-]3)ccc12 (3D coordinates assigned)
Cc1cc(=O)oc2cc(Oc3ccccc3S(=O)(=O)[N-]C(=O)/N=c3/ccc(Cl)c[n-]3)ccc12 (optimized conformer: 67.81740843475828 kcal/mol)

>  <smiles>  (40) 
Cc1cc(=O)oc2cc(Oc3ccccc3S(=O)(=O)NC(=O)N=c3ccc(Cl)c[nH]3)ccc12

>  <score_type>  (40) 
oracle

>  <origin>  (40) 
adgpu

>  <m_score__min__energy>  (40) 
-12.529999999999999

>  <m_primary>  (40) 
energy

$$$$
40:0
     RDKit          3D

 51 54  0  0  0  0  0  0  0  0999 V2000
    0.0859   20.2308  -33.5625 H   0  0  0  0  0  0  0  0  0  0  0  0
   -0.8480   20.5620  -33.0850 C   0  0  0  0  0  0  0  0  0  0  0  0
   -0.8180   20.8220  -31.6310 C   0  0  0  0  0  0  0  0  0  0  0  0
    0.1620   21.4480  -31.1450 O   0  0  0  0  0  0  0  0  0  0  0  0
   -1.9280   20.4650  -30.7890 N   0  0  0  0  0  0  0  0  0  0  0  0
   -2.8580   20.3220  -31.2410 H   0  0  0  0  0  0  0  0  0  0  0  0
   -1.8170   20.2760  -29.3670 C   0  0  0  0  0  0  0  0  0  0  0  0
   -0.7930   19.4630  -28.8440 C   0  0  0  0  0  0  0  0  0  0  0  0
   -0.0519   19.0165  -29.5232 H   0  0  0  0  0  0  0  0  0  0  0  0
   -0.7090   19.2180  -27.4720 C   0  0  0  0  0  0  0  0  0  0  0  0
    0.1022   18.5896  -27.0755 H   0  0  0  0  0  0  0  0  0  0  0  0
   -1.6510   19.7680  -26.6030 C   0  0  0  0  0  0  0  0  0  0  0  0
   -1.5808   19.5763  -25.5221 H   0  0  0  0  0  0  0  0  0  0  0  0
   -2.6830   20.5620  -27.1060 C   0  0  0  0  0  0  0  0  0  0  0  0
   -3.4303   20.9836  -26.4177 H   0  0  0  0  0  0  0  0  0  0  0  0
   -2.7770   20.8280  -28.4810 C   0  0  0  0  0  0  0  0  0  0  0  0
   -3.8250   21.6860  -28.9490 N   0  0  0  0  0  0  0  0  0  0  0  0
   -4.6100   21.3000  -29.5210 H   0  0  0  0  0  0  0  0  0  0  0  0
   -3.8870   22.6900  -28.6770 H   0  0  0  0  0  0  0  0  0  0  0  0
   -1.9300   20.7000  -33.8660 C   0  0  0  0  0  0  0  0  0  0  0  0
   -1.7924   20.6101  -34.9536 H   0  0  0  0  0  0  0  0  0  0  0  0
   -3.2960   20.9650  -33.3630 C   0  0  0  0  0  0  0  0  0  0  0  0
   -4.3700   20.1210  -33.6960 C   0  0  0  0  0  0  0  0  0  0  0  0
   -4.2087   19.2689  -34.3727 H   0  0  0  0  0  0  0  0  0  0  0  0
   -5.6430   20.3620  -33.1690 C   0  0  0  0  0  0  0  0  0  0  0  0
   -6.4776   19.6910  -33.4203 H   0  0  0  0  0  0  0  0  0  0  0  0
   -5.8560   21.4550  -32.3230 C   0  0  0  0  0  0  0  0  0  0  0  0
   -6.8550   21.6345  -31.8990 H   0  0  0  0  0  0  0  0  0  0  0  0
   -4.7980   22.3230  -32.0140 C   0  0  0  0  0  0  0  0  0  0  0  0
   -5.0500   23.6700  -30.9090 S   0  0  0  0  0  0  0  0  0  0  0  0
   -5.7940   23.2050  -29.6850 O   0  0  0  0  0  0  0  0  0  0  0  0
   -5.8690   24.7230  -31.6080 O   0  0  0  0  0  0  0  0  0  0  0  0
   -3.5010   24.3010  -30.4540 N   0  0  0  0  0  0  0  0  0  0  0  0
   -3.1230   24.4960  -29.2280 C   0  0  0  0  0  0  0  0  0  0  0  0
   -3.8870   24.2340  -28.1440 N   0  0  0  0  0  0  0  0  0  0  0  0
   -3.2830   24.5450  -26.9990 N   0  0  0  0  0  0  0  0  0  0  0  0
   -2.0350   25.0510  -27.1600 C   0  0  0  0  0  0  0  0  0  0  0  0
   -1.1840   25.4960  -26.0340 C   0  0  0  0  0  0  0  0  0  0  0  0
    0.0650   24.8810  -25.8060 C   0  0  0  0  0  0  0  0  0  0  0  0
    0.4100   24.0779  -26.4739 H   0  0  0  0  0  0  0  0  0  0  0  0
    0.8670   25.2880  -24.7340 C   0  0  0  0  0  0  0  0  0  0  0  0
    1.8397   24.8039  -24.5620 H   0  0  0  0  0  0  0  0  0  0  0  0
    0.4360   26.3070  -23.8820 C   0  0  0  0  0  0  0  0  0  0  0  0
    1.0671   26.6222  -23.0380 H   0  0  0  0  0  0  0  0  0  0  0  0
   -0.7970   26.9260  -24.1020 C   0  0  0  0  0  0  0  0  0  0  0  0
   -1.1318   27.7330  -23.4337 H   0  0  0  0  0  0  0  0  0  0  0  0
   -1.6070   26.5240  -25.1680 C   0  0  0  0  0  0  0  0  0  0  0  0
   -2.5790   27.0123  -25.3316 H   0  0  0  0  0  0  0  0  0  0  0  0
   -1.6280   25.1300  -28.8010 S   0  0  0  0  0  0  0  0  0  0  0  0
   -3.5220   22.0800  -32.5430 C   0  0  0  0  0  0  0  0  0  0  0  0
   -2.6944   22.7674  -32.3136 H   0  0  0  0  0  0  0  0  0  0  0  0
  1  2  1  0
  2  3  1  0
  3  4  2  0
  3  5  1  0
  5  6  1  0
  5  7  1  0
  7  8  2  0
  8  9  1  0
  8 10  1  0
 10 11  1  0
 10 12  2  0
 12 13  1  0
 12 14  1  0
 14 15  1  0
 14 16  2  0
 16 17  1  0
 17 18  1  0
 17 19  1  0
  2 20  2  0
 20 21  1  0
 20 22  1  0
 22 23  2  0
 23 24  1  0
 23 25  1  0
 25 26  1  0
 25 27  2  0
 27 28  1  0
 27 29  1  0
 29 30  1  0
 30 31  2  0
 30 32  2  0
 30 33  1  0
 33 34  2  3
 34 35  1  0
 35 36  1  0
 36 37  2  0
 37 38  1  0
 38 39  2  0
 39 40  1  0
 39 41  1  0
 41 42  1  0
 41 43  2  0
 43 44  1  0
 43 45  1  0
 45 46  1  0
 45 47  2  0
 47 48  1  0
 37 49  1  0
 29 50  2  0
 50 51  1  0
 16  7  1  0
 50 22  1  0
 49 34  1  0
 47 38  1  0
M  CHG  1  35  -1
M  END
>  <UniqueID>  (41) 
40

>  <SMILES>  (41) 
Nc1ccccc1NC(=O)/C=C\c1cccc(S(=O)(=O)N=c2[n-]nc(-c3ccccc3)s2)c1

>  <Energy>  (41) 
106.71299384879919

>  <Genealogy>  (41) 
Nc1ccccc1NC(=O)C=Cc1cccc(S(=O)(=O)N=c2[n-]nc(-c3ccccc3)s2)c1 (protonated)
Nc1ccccc1NC(=O)/C=C\c1cccc(S(=O)(=O)N=c2[n-]nc(-c3ccccc3)s2)c1 (cis-trans isomerization)
Nc1ccccc1NC(=O)/C=C\c1cccc(S(=O)(=O)N=c2[n-]nc(-c3ccccc3)s2)c1 (3D coordinates assigned)
Nc1ccccc1NC(=O)/C=C\c1cccc(S(=O)(=O)N=c2[n-]nc(-c3ccccc3)s2)c1 (optimized conformer: 106.71299384879919 kcal/mol)

>  <smiles>  (41) 
Nc1ccccc1NC(=O)C=Cc1cccc(S(=O)(=O)N=c2[nH]nc(-c3ccccc3)s2)c1

>  <score_type>  (41) 
oracle

>  <origin>  (41) 
adgpu

>  <m_score__min__energy>  (41) 
-12.15

>  <m_primary>  (41) 
energy

$$$$
41:0
     RDKit          3D

 56 59  0  0  0  0  0  0  0  0999 V2000
   -0.6770   18.2750  -31.7920 C   0  0  0  0  0  0  0  0  0  0  0  0
    0.3040   18.7480  -30.7670 C   0  0  0  0  0  0  0  0  0  0  0  0
    1.6790   18.6170  -30.9890 C   0  0  0  0  0  0  0  0  0  0  0  0
    2.5610   19.0580  -29.9970 C   0  0  0  0  0  0  0  0  0  0  0  0
    4.0380   18.9210  -30.1800 C   0  0  0  0  0  0  0  0  0  0  0  0
    2.0660   19.5780  -28.8420 N   0  0  0  0  0  0  0  0  0  0  0  0
    0.7290   19.6930  -28.6350 C   0  0  0  0  0  0  0  0  0  0  0  0
    0.2990   20.1960  -27.5190 N   0  0  0  0  0  0  0  0  0  0  0  0
   -1.3820   20.3930  -27.1360 S   0  0  0  0  0  0  0  0  0  0  0  0
   -2.1300   19.1280  -27.4540 O   0  0  0  0  0  0  0  0  0  0  0  0
   -1.5390   20.7040  -25.6730 O   0  0  0  0  0  0  0  0  0  0  0  0
   -2.0320   21.7180  -28.0950 C   0  0  0  0  0  0  0  0  0  0  0  0
   -2.7310   22.7620  -27.4750 C   0  0  0  0  0  0  0  0  0  0  0  0
   -3.2300   23.8230  -28.2360 C   0  0  0  0  0  0  0  0  0  0  0  0
   -3.0160   23.8610  -29.6260 C   0  0  0  0  0  0  0  0  0  0  0  0
   -3.5180   24.9330  -30.4370 N   0  0  0  0  0  0  0  0  0  0  0  0
   -4.8820   25.1180  -30.8380 C   0  0  0  0  0  0  0  0  0  0  0  0
   -5.3630   26.2820  -30.8230 O   0  0  0  0  0  0  0  0  0  0  0  0
   -5.7480   23.9780  -31.2210 C   0  0  0  0  0  0  0  0  0  0  0  0
   -7.1080   23.9620  -30.8680 C   0  0  0  0  0  0  0  0  0  0  0  0
   -7.9200   22.8860  -31.2310 C   0  0  0  0  0  0  0  0  0  0  0  0
   -7.3830   21.8120  -31.9440 C   0  0  0  0  0  0  0  0  0  0  0  0
   -6.0260   21.8120  -32.3140 C   0  0  0  0  0  0  0  0  0  0  0  0
   -5.2170   22.9080  -31.9630 C   0  0  0  0  0  0  0  0  0  0  0  0
   -5.5200   20.6910  -33.0710 N   0  0  0  0  0  0  0  0  0  0  0  0
   -3.8450   20.2120  -32.9830 S   0  0  0  0  0  0  0  0  0  0  0  0
   -3.6050   18.6790  -33.8570 C   0  0  0  0  0  0  0  0  0  0  0  0
   -3.4330   20.0570  -31.5460 O   0  0  0  0  0  0  0  0  0  0  0  0
   -2.9690   21.2520  -33.6240 O   0  0  0  0  0  0  0  0  0  0  0  0
   -6.4920   19.8530  -33.7830 C   0  0  0  0  0  0  0  0  0  0  0  0
   -7.6650   19.5320  -32.8550 C   0  0  0  0  0  0  0  0  0  0  0  0
   -8.2030   20.7360  -32.3050 O   0  0  0  0  0  0  0  0  0  0  0  0
   -2.3330   22.8060  -30.2430 C   0  0  0  0  0  0  0  0  0  0  0  0
   -1.8350   21.7440  -29.4820 C   0  0  0  0  0  0  0  0  0  0  0  0
   -0.1400   19.2760  -29.5960 N   0  0  0  0  0  0  0  0  0  0  0  0
   -1.5578   17.8503  -31.2881 H   0  0  0  0  0  0  0  0  0  0  0  0
   -0.9875   19.1224  -32.4209 H   0  0  0  0  0  0  0  0  0  0  0  0
   -0.2073   17.5044  -32.4209 H   0  0  0  0  0  0  0  0  0  0  0  0
    2.0582   18.1769  -31.9231 H   0  0  0  0  0  0  0  0  0  0  0  0
    4.5268   18.8757  -29.1956 H   0  0  0  0  0  0  0  0  0  0  0  0
    4.2542   17.9989  -30.7395 H   0  0  0  0  0  0  0  0  0  0  0  0
    4.4201   19.7876  -30.7395 H   0  0  0  0  0  0  0  0  0  0  0  0
   -2.8876   22.7467  -26.3863 H   0  0  0  0  0  0  0  0  0  0  0  0
   -3.7923   24.6316  -27.7461 H   0  0  0  0  0  0  0  0  0  0  0  0
   -7.5356   24.8027  -30.3020 H   0  0  0  0  0  0  0  0  0  0  0  0
   -8.9848   22.8841  -30.9549 H   0  0  0  0  0  0  0  0  0  0  0  0
   -4.1613   22.9282  -32.2712 H   0  0  0  0  0  0  0  0  0  0  0  0
   -3.4769   17.8605  -33.1333 H   0  0  0  0  0  0  0  0  0  0  0  0
   -4.4823   18.4759  -34.4888 H   0  0  0  0  0  0  0  0  0  0  0  0
   -2.7076   18.7537  -34.4888 H   0  0  0  0  0  0  0  0  0  0  0  0
   -6.8615   20.3915  -34.6682 H   0  0  0  0  0  0  0  0  0  0  0  0
   -6.0076   18.9173  -34.0988 H   0  0  0  0  0  0  0  0  0  0  0  0
   -8.4481   19.0117  -33.4259 H   0  0  0  0  0  0  0  0  0  0  0  0
   -7.3090   18.8907  -32.0352 H   0  0  0  0  0  0  0  0  0  0  0  0
   -2.1873   22.8127  -31.3333 H   0  0  0  0  0  0  0  0  0  0  0  0
   -1.2870   20.9266  -29.9736 H   0  0  0  0  0  0  0  0  0  0  0  0
  1  2  1  0
  2  3  1  0
  3  4  2  0
  4  5  1  0
  4  6  1  0
  6  7  1  0
  7  8  2  3
  8  9  1  0
  9 10  2  0
  9 11  2  0
  9 12  1  0
 12 13  2  0
 13 14  1  0
 14 15  2  0
 15 16  1  0
 16 17  1  0
 17 18  2  0
 17 19  1  0
 19 20  2  0
 20 21  1  0
 21 22  2  0
 22 23  1  0
 23 24  2  0
 23 25  1  0
 25 26  1  0
 26 27  1  0
 26 28  2  0
 26 29  2  0
 25 30  1  0
 30 31  1  0
 31 32  1  0
 15 33  1  0
 33 34  2  0
  7 35  1  0
 35  2  2  0
 34 12  1  0
 24 19  1  0
 32 22  1  0
  1 36  1  0
  1 37  1  0
  1 38  1  0
  3 39  1  0
  5 40  1  0
  5 41  1  0
  5 42  1  0
 13 43  1  0
 14 44  1  0
 20 45  1  0
 21 46  1  0
 24 47  1  0
 27 48  1  0
 27 49  1  0
 27 50  1  0
 30 51  1  0
 30 52  1  0
 31 53  1  0
 31 54  1  0
 33 55  1  0
 34 56  1  0
M  CHG  2   6  -1  16  -1
M  END
>  <UniqueID>  (42) 
41

>  <SMILES>  (42) 
Cc1cc(C)[n-]c(=NS(=O)(=O)c2ccc([N-]C(=O)c3ccc4c(c3)N(S(C)(=O)=O)CCO4)cc2)n1

>  <Energy>  (42) 
68.23826340510996

>  <Genealogy>  (42) 
Cc1cc(C)[n-]c(=NS(=O)(=O)c2ccc([N-]C(=O)c3ccc4c(c3)N(S(C)(=O)=O)CCO4)cc2)n1 (protonated)
Cc1cc(C)[n-]c(=NS(=O)(=O)c2ccc([N-]C(=O)c3ccc4c(c3)N(S(C)(=O)=O)CCO4)cc2)n1 (3D coordinates assigned)
Cc1cc(C)[n-]c(=NS(=O)(=O)c2ccc([N-]C(=O)c3ccc4c(c3)N(S(C)(=O)=O)CCO4)cc2)n1 (nonaromatic ring conformer: 68.23826340510996 kcal/mol)

>  <smiles>  (42) 
Cc1cc(C)[nH]c(=NS(=O)(=O)c2ccc(NC(=O)c3ccc4c(c3)N(S(C)(=O)=O)CCO4)cc2)n1

>  <score_type>  (42) 
oracle

>  <origin>  (42) 
adgpu

>  <m_score__min__energy>  (42) 
-11.27

>  <m_primary>  (42) 
energy

$$$$
42:0
     RDKit          3D

 38 41  0  0  0  0  0  0  0  0999 V2000
   -0.0020   21.9190  -30.5680 O   0  0  0  0  0  0  0  0  0  0  0  0
   -1.3080   21.1780  -30.4340 S   0  0  0  0  0  0  0  0  0  0  0  0
   -1.1330   20.0090  -29.5000 O   0  0  0  0  0  0  0  0  0  0  0  0
   -1.7730   20.5890  -32.0020 N   0  0  0  0  0  0  0  0  0  0  0  0
   -3.0610   20.0450  -32.3170 C   0  0  0  0  0  0  0  0  0  0  0  0
   -4.2460   20.7410  -32.0190 C   0  0  0  0  0  0  0  0  0  0  0  0
   -5.5070   20.2110  -32.3770 C   0  0  0  0  0  0  0  0  0  0  0  0
   -5.5610   18.9400  -33.0050 C   0  0  0  0  0  0  0  0  0  0  0  0
   -4.3760   18.2320  -33.2550 C   0  0  0  0  0  0  0  0  0  0  0  0
   -3.1370   18.7770  -32.9040 C   0  0  0  0  0  0  0  0  0  0  0  0
   -1.9730   18.0550  -33.1570 O   0  0  0  0  0  0  0  0  0  0  0  0
   -6.8810   18.3650  -33.4460 C   0  0  0  0  0  0  0  0  0  0  0  0
   -8.0610   18.4840  -32.0680 S   0  0  0  0  0  0  0  0  0  0  0  0
   -8.0080   20.2800  -32.0430 C   0  0  0  0  0  0  0  0  0  0  0  0
   -9.2150   20.9860  -31.9250 C   0  0  0  0  0  0  0  0  0  0  0  0
   -9.2070   22.3790  -31.8550 C   0  0  0  0  0  0  0  0  0  0  0  0
   -7.9960   23.0720  -31.9130 C   0  0  0  0  0  0  0  0  0  0  0  0
   -6.7900   22.3770  -32.0470 C   0  0  0  0  0  0  0  0  0  0  0  0
   -6.7750   20.9700  -32.1170 C   0  0  0  0  0  0  0  0  0  0  0  0
   -2.5110   22.3020  -29.7930 C   0  0  0  0  0  0  0  0  0  0  0  0
   -2.7310   23.5380  -30.4210 C   0  0  0  0  0  0  0  0  0  0  0  0
   -3.6700   24.4370  -29.9030 C   0  0  0  0  0  0  0  0  0  0  0  0
   -3.8620   25.6730  -30.5150 O   0  0  0  0  0  0  0  0  0  0  0  0
   -4.3960   24.1040  -28.7510 C   0  0  0  0  0  0  0  0  0  0  0  0
   -4.1930   22.8670  -28.1290 C   0  0  0  0  0  0  0  0  0  0  0  0
   -3.2580   21.9630  -28.6490 C   0  0  0  0  0  0  0  0  0  0  0  0
   -3.0600   20.7770  -28.0170 F   0  0  0  0  0  0  0  0  0  0  0  0
   -4.1912   21.7098  -31.5009 H   0  0  0  0  0  0  0  0  0  0  0  0
   -4.4218   17.2411  -33.7305 H   0  0  0  0  0  0  0  0  0  0  0  0
   -7.2615   18.9317  -34.3086 H   0  0  0  0  0  0  0  0  0  0  0  0
   -6.7516   17.3123  -33.7376 H   0  0  0  0  0  0  0  0  0  0  0  0
  -10.1691   20.4399  -31.8876 H   0  0  0  0  0  0  0  0  0  0  0  0
  -10.1532   22.9309  -31.7543 H   0  0  0  0  0  0  0  0  0  0  0  0
   -7.9907   24.1703  -31.8530 H   0  0  0  0  0  0  0  0  0  0  0  0
   -5.8432   22.9346  -32.0983 H   0  0  0  0  0  0  0  0  0  0  0  0
   -2.1623   23.8013  -31.3250 H   0  0  0  0  0  0  0  0  0  0  0  0
   -5.1254   24.8151  -28.3359 H   0  0  0  0  0  0  0  0  0  0  0  0
   -4.7691   22.6040  -27.2296 H   0  0  0  0  0  0  0  0  0  0  0  0
  1  2  2  0
  2  3  2  0
  2  4  1  0
  4  5  1  0
  5  6  2  0
  6  7  1  0
  7  8  2  0
  8  9  1  0
  9 10  2  0
 10 11  1  0
  8 12  1  0
 12 13  1  0
 13 14  1  0
 14 15  2  0
 15 16  1  0
 16 17  2  0
 17 18  1  0
 18 19  2  0
  2 20  1  0
 20 21  2  0
 21 22  1  0
 22 23  1  0
 22 24  2  0
 24 25  1  0
 25 26  2  0
 26 27  1  0
 10  5  1  0
 19 14  1  0
 26 20  1  0
 19  7  1  0
  6 28  1  0
  9 29  1  0
 12 30  1  0
 12 31  1  0
 15 32  1  0
 16 33  1  0
 17 34  1  0
 18 35  1  0
 21 36  1  0
 24 37  1  0
 25 38  1  0
M  CHG  3   4  -1  11  -1  23  -1
M  END
>  <UniqueID>  (43) 
42

>  <SMILES>  (43) 
O=S(=O)([N-]c1cc2c(cc1[O-])CSc1ccccc1-2)c1cc([O-])ccc1F

>  <Energy>  (43) 
57.558868621221244

>  <Genealogy>  (43) 
O=S(=O)([N-]c1cc2c(cc1[O-])CSc1ccccc1-2)c1cc([O-])ccc1F (protonated)
O=S(=O)([N-]c1cc2c(cc1[O-])CSc1ccccc1-2)c1cc([O-])ccc1F (3D coordinates assigned)
O=S(=O)([N-]c1cc2c(cc1[O-])CSc1ccccc1-2)c1cc([O-])ccc1F (nonaromatic ring conformer: 57.558868621221244 kcal/mol)

>  <smiles>  (43) 
O=S(=O)(Nc1cc2c(cc1O)CSc1ccccc1-2)c1cc(O)ccc1F

>  <score_type>  (43) 
oracle

>  <origin>  (43) 
adgpu

>  <m_score__min__energy>  (43) 
-13.289999999999999

>  <m_primary>  (43) 
energy

$$$$
43:0
     RDKit          3D

 37 39  0  0  0  0  0  0  0  0999 V2000
   -9.4480   18.1560  -31.9450 F   0  0  0  0  0  0  0  0  0  0  0  0
   -8.4720   19.0800  -32.1260 C   0  0  0  0  0  0  0  0  0  0  0  0
   -8.7110   20.4140  -31.7880 C   0  0  0  0  0  0  0  0  0  0  0  0
   -7.7120   21.3750  -31.9700 C   0  0  0  0  0  0  0  0  0  0  0  0
   -6.4640   21.0060  -32.4980 C   0  0  0  0  0  0  0  0  0  0  0  0
   -5.4370   21.9970  -32.6920 N   0  0  0  0  0  0  0  0  0  0  0  0
   -4.0550   21.5720  -32.9520 C   0  0  0  0  0  0  0  0  0  0  0  0
   -3.2660   21.5850  -31.6740 C   0  0  0  0  0  0  0  0  0  0  0  0
   -3.8630   21.1890  -30.4650 C   0  0  0  0  0  0  0  0  0  0  0  0
   -3.1100   21.1550  -29.2860 C   0  0  0  0  0  0  0  0  0  0  0  0
   -1.7570   21.5020  -29.3090 C   0  0  0  0  0  0  0  0  0  0  0  0
   -1.1520   21.8820  -30.5110 C   0  0  0  0  0  0  0  0  0  0  0  0
   -1.9010   21.9190  -31.6910 C   0  0  0  0  0  0  0  0  0  0  0  0
   -5.7760   23.4220  -32.6100 C   0  0  0  0  0  0  0  0  0  0  0  0
   -5.4690   23.9390  -31.2400 C   0  0  0  0  0  0  0  0  0  0  0  0
   -6.3600   24.0240  -30.1950 C   0  0  0  0  0  0  0  0  0  0  0  0
   -5.7280   24.6050  -29.1650 N   0  0  0  0  0  0  0  0  0  0  0  0
   -4.4830   24.8670  -29.6050 C   0  0  0  0  0  0  0  0  0  0  0  0
   -4.2870   24.4800  -30.8840 N   0  0  0  0  0  0  0  0  0  0  0  0
   -6.2300   19.6650  -32.8400 C   0  0  0  0  0  0  0  0  0  0  0  0
   -7.2300   18.7030  -32.6550 C   0  0  0  0  0  0  0  0  0  0  0  0
   -6.9160   17.0290  -33.0810 Cl  0  0  0  0  0  0  0  0  0  0  0  0
   -9.6879   20.7093  -31.3775 H   0  0  0  0  0  0  0  0  0  0  0  0
   -7.9041   22.4236  -31.6988 H   0  0  0  0  0  0  0  0  0  0  0  0
   -4.0589   20.5536  -33.3677 H   0  0  0  0  0  0  0  0  0  0  0  0
   -3.5923   22.2654  -33.6698 H   0  0  0  0  0  0  0  0  0  0  0  0
   -4.9255   20.9049  -30.4454 H   0  0  0  0  0  0  0  0  0  0  0  0
   -3.5841   20.8547  -28.3399 H   0  0  0  0  0  0  0  0  0  0  0  0
   -1.1671   21.4763  -28.3809 H   0  0  0  0  0  0  0  0  0  0  0  0
   -0.0858   22.1521  -30.5282 H   0  0  0  0  0  0  0  0  0  0  0  0
   -1.4200   22.2107  -32.6363 H   0  0  0  0  0  0  0  0  0  0  0  0
   -5.1862   23.9807  -33.3516 H   0  0  0  0  0  0  0  0  0  0  0  0
   -6.8489   23.5520  -32.8148 H   0  0  0  0  0  0  0  0  0  0  0  0
   -7.4039   23.6774  -30.2031 H   0  0  0  0  0  0  0  0  0  0  0  0
   -6.1230   24.8180  -28.2210 H   0  0  0  0  0  0  0  0  0  0  0  0
   -3.7078   25.3454  -28.9884 H   0  0  0  0  0  0  0  0  0  0  0  0
   -5.2557   19.3684  -33.2556 H   0  0  0  0  0  0  0  0  0  0  0  0
  1  2  1  0
  2  3  2  0
  3  4  1  0
  4  5  2  0
  5  6  1  0
  6  7  1  0
  7  8  1  0
  8  9  2  0
  9 10  1  0
 10 11  2  0
 11 12  1  0
 12 13  2  0
  6 14  1  0
 14 15  1  0
 15 16  2  0
 16 17  1  0
 17 18  1  0
 18 19  2  0
  5 20  1  0
 20 21  2  0
 21 22  1  0
 21  2  1  0
 13  8  1  0
 19 15  1  0
  3 23  1  0
  4 24  1  0
  7 25  1  0
  7 26  1  0
  9 27  1  0
 10 28  1  0
 11 29  1  0
 12 30  1  0
 13 31  1  0
 14 32  1  0
 14 33  1  0
 16 34  1  0
 17 35  1  0
 18 36  1  0
 20 37  1  0
M  END
>  <UniqueID>  (44) 
43

>  <SMILES>  (44) 
Fc1ccc(N(Cc2ccccc2)Cc2c[nH]cn2)cc1Cl

>  <Energy>  (44) 
68.36554592628806

>  <Genealogy>  (44) 
Fc1ccc(N(Cc2ccccc2)Cc2c[nH]cn2)cc1Cl (3D coordinates assigned)
Fc1ccc(N(Cc2ccccc2)Cc2c[nH]cn2)cc1Cl (optimized conformer: 68.36554592628806 kcal/mol)

>  <smiles>  (44) 
Fc1ccc(N(Cc2ccccc2)Cc2c[nH]cn2)cc1Cl

>  <score_type>  (44) 
oracle

>  <origin>  (44) 
adgpu

>  <m_score__min__energy>  (44) 
-7.7199999999999998

>  <m_primary>  (44) 
energy

$$$$
44:0
     RDKit          3D

 49 52  0  0  0  0  0  0  0  0999 V2000
   -3.1560   19.3280  -34.2080 O   0  0  0  0  0  0  0  0  0  0  0  0
   -2.4350   19.7740  -33.2770 C   0  0  0  0  0  0  0  0  0  0  0  0
   -1.1530   19.0790  -32.9160 C   0  0  0  0  0  0  0  0  0  0  0  0
   -0.7060   19.4300  -31.6010 O   0  0  0  0  0  0  0  0  0  0  0  0
   -1.0170   20.6490  -30.9860 C   0  0  0  0  0  0  0  0  0  0  0  0
   -0.3130   21.0610  -29.8500 C   0  0  0  0  0  0  0  0  0  0  0  0
   -0.6330   22.2720  -29.2290 C   0  0  0  0  0  0  0  0  0  0  0  0
   -1.6640   23.0760  -29.7390 C   0  0  0  0  0  0  0  0  0  0  0  0
   -2.0800   24.6020  -28.9680 S   0  0  0  0  0  0  0  0  0  0  0  0
   -0.9480   25.5860  -29.0790 O   0  0  0  0  0  0  0  0  0  0  0  0
   -2.3620   24.3530  -27.5130 O   0  0  0  0  0  0  0  0  0  0  0  0
   -3.4940   25.2680  -29.7160 N   0  0  0  0  0  0  0  0  0  0  0  0
   -4.6710   24.5290  -30.0660 C   0  0  0  0  0  0  0  0  0  0  0  0
   -5.3760   24.8990  -31.2180 C   0  0  0  0  0  0  0  0  0  0  0  0
   -6.5240   24.1990  -31.6020 C   0  0  0  0  0  0  0  0  0  0  0  0
   -6.9850   23.1250  -30.8310 C   0  0  0  0  0  0  0  0  0  0  0  0
   -8.4180   22.2220  -31.3140 S   0  0  0  0  0  0  0  0  0  0  0  0
   -9.2730   21.9270  -30.1080 O   0  0  0  0  0  0  0  0  0  0  0  0
   -9.2070   23.0650  -32.2790 O   0  0  0  0  0  0  0  0  0  0  0  0
   -7.9450   20.7260  -32.0810 N   0  0  0  0  0  0  0  0  0  0  0  0
   -6.4790   20.7070  -32.2850 C   0  0  0  0  0  0  0  0  0  0  0  0
   -5.9490   19.3020  -32.6580 C   0  0  0  0  0  0  0  0  0  0  0  0
   -7.0800   18.3720  -33.1060 C   0  0  0  0  0  0  0  0  0  0  0  0
   -8.1610   18.2590  -32.0200 C   0  0  0  0  0  0  0  0  0  0  0  0
   -8.3730   19.5820  -31.2590 C   0  0  0  0  0  0  0  0  0  0  0  0
   -6.2800   22.7470  -29.6830 C   0  0  0  0  0  0  0  0  0  0  0  0
   -5.1320   23.4460  -29.2980 C   0  0  0  0  0  0  0  0  0  0  0  0
   -2.3750   22.6570  -30.8730 C   0  0  0  0  0  0  0  0  0  0  0  0
   -2.0520   21.4460  -31.4920 C   0  0  0  0  0  0  0  0  0  0  0  0
   -2.8030   20.9880  -32.6160 N   0  0  0  0  0  0  0  0  0  0  0  0
   -1.3140   17.9917  -32.9583 H   0  0  0  0  0  0  0  0  0  0  0  0
   -0.3811   19.3942  -33.6335 H   0  0  0  0  0  0  0  0  0  0  0  0
    0.4931   20.4318  -29.4448 H   0  0  0  0  0  0  0  0  0  0  0  0
   -0.0750   22.5956  -28.3380 H   0  0  0  0  0  0  0  0  0  0  0  0
   -5.0243   25.7462  -31.8251 H   0  0  0  0  0  0  0  0  0  0  0  0
   -7.0666   24.4930  -32.5126 H   0  0  0  0  0  0  0  0  0  0  0  0
   -6.2270   21.4056  -33.0965 H   0  0  0  0  0  0  0  0  0  0  0  0
   -6.0065   21.0005  -31.3360 H   0  0  0  0  0  0  0  0  0  0  0  0
   -5.2225   19.4009  -33.4780 H   0  0  0  0  0  0  0  0  0  0  0  0
   -5.4778   18.8645  -31.7655 H   0  0  0  0  0  0  0  0  0  0  0  0
   -7.5332   18.7730  -34.0246 H   0  0  0  0  0  0  0  0  0  0  0  0
   -6.6603   17.3718  -33.2889 H   0  0  0  0  0  0  0  0  0  0  0  0
   -9.1098   17.9695  -32.4954 H   0  0  0  0  0  0  0  0  0  0  0  0
   -7.8266   17.5047  -31.2925 H   0  0  0  0  0  0  0  0  0  0  0  0
   -9.4398   19.6915  -31.0143 H   0  0  0  0  0  0  0  0  0  0  0  0
   -7.7719   19.5620  -30.3380 H   0  0  0  0  0  0  0  0  0  0  0  0
   -6.6306   21.8960  -29.0806 H   0  0  0  0  0  0  0  0  0  0  0  0
   -4.5874   23.1471  -28.3903 H   0  0  0  0  0  0  0  0  0  0  0  0
   -3.1866   23.2812  -31.2752 H   0  0  0  0  0  0  0  0  0  0  0  0
  1  2  2  0
  2  3  1  0
  3  4  1  0
  4  5  1  0
  5  6  2  0
  6  7  1  0
  7  8  2  0
  8  9  1  0
  9 10  2  0
  9 11  2  0
  9 12  1  0
 12 13  1  0
 13 14  2  0
 14 15  1  0
 15 16  2  0
 16 17  1  0
 17 18  2  0
 17 19  2  0
 17 20  1  0
 20 21  1  0
 21 22  1  0
 22 23  1  0
 23 24  1  0
 24 25  1  0
 16 26  1  0
 26 27  2  0
  8 28  1  0
 28 29  2  0
 29 30  1  0
 30  2  1  0
 29  5  1  0
 27 13  1  0
 25 20  1  0
  3 31  1  0
  3 32  1  0
  6 33  1  0
  7 34  1  0
 14 35  1  0
 15 36  1  0
 21 37  1  0
 21 38  1  0
 22 39  1  0
 22 40  1  0
 23 41  1  0
 23 42  1  0
 24 43  1  0
 24 44  1  0
 25 45  1  0
 25 46  1  0
 26 47  1  0
 27 48  1  0
 28 49  1  0
M  CHG  2  12  -1  30  -1
M  END
>  <UniqueID>  (45) 
44

>  <SMILES>  (45) 
O=C1COc2ccc(S(=O)(=O)[N-]c3ccc(S(=O)(=O)N4CCCCC4)cc3)cc2[N-]1

>  <Energy>  (45) 
59.467906189530794

>  <Genealogy>  (45) 
O=C1COc2ccc(S(=O)(=O)[N-]c3ccc(S(=O)(=O)N4CCCCC4)cc3)cc2[N-]1 (protonated)
O=C1COc2ccc(S(=O)(=O)[N-]c3ccc(S(=O)(=O)N4CCCCC4)cc3)cc2[N-]1 (3D coordinates assigned)
O=C1COc2ccc(S(=O)(=O)[N-]c3ccc(S(=O)(=O)N4CCCCC4)cc3)cc2[N-]1 (nonaromatic ring conformer: 59.467906189530794 kcal/mol)

>  <smiles>  (45) 
O=C1COc2ccc(S(=O)(=O)Nc3ccc(S(=O)(=O)N4CCCCC4)cc3)cc2N1

>  <score_type>  (45) 
oracle

>  <origin>  (45) 
adgpu

>  <m_score__min__energy>  (45) 
-11.890000000000001

>  <m_primary>  (45) 
energy

$$$$
45:0
     RDKit          3D

 28 29  0  0  0  0  0  0  0  0999 V2000
   -3.1610   25.6880  -31.0290 H   0  0  0  0  0  0  0  0  0  0  0  0
   -4.1730   25.6700  -30.7720 N   0  0  0  0  0  0  0  0  0  0  0  0
   -4.8610   24.5780  -30.8400 C   0  0  0  0  0  0  0  0  0  0  0  0
   -4.3400   23.3990  -31.2380 N   0  0  0  0  0  0  0  0  0  0  0  0
   -5.2760   22.4120  -31.2260 C   0  0  0  0  0  0  0  0  0  0  0  0
   -4.9280   21.0060  -31.6020 C   0  0  0  0  0  0  0  0  0  0  0  0
   -4.7801   20.4085  -30.6903 H   0  0  0  0  0  0  0  0  0  0  0  0
   -5.7459   20.5722  -32.1960 H   0  0  0  0  0  0  0  0  0  0  0  0
   -4.0022   21.0038  -32.1960 H   0  0  0  0  0  0  0  0  0  0  0  0
   -6.5530   22.8210  -30.8210 C   0  0  0  0  0  0  0  0  0  0  0  0
   -7.7800   21.9660  -30.6960 C   0  0  0  0  0  0  0  0  0  0  0  0
   -7.4978   20.9123  -30.8376 H   0  0  0  0  0  0  0  0  0  0  0  0
   -8.2114   22.1240  -29.6965 H   0  0  0  0  0  0  0  0  0  0  0  0
   -9.0400   22.4180  -31.9450 S   0  0  0  0  0  0  0  0  0  0  0  0
   -9.6240   20.7210  -32.3160 C   0  0  0  0  0  0  0  0  0  0  0  0
  -10.2317   20.3582  -31.4740 H   0  0  0  0  0  0  0  0  0  0  0  0
  -10.2211   20.7514  -33.2394 H   0  0  0  0  0  0  0  0  0  0  0  0
   -8.4690   19.7850  -32.5260 C   0  0  0  0  0  0  0  0  0  0  0  0
   -7.5370   20.0630  -33.4820 N   0  0  0  0  0  0  0  0  0  0  0  0
   -6.4710   19.2500  -33.7050 C   0  0  0  0  0  0  0  0  0  0  0  0
   -5.7360   19.5082  -34.4816 H   0  0  0  0  0  0  0  0  0  0  0  0
   -6.3080   18.0870  -32.9490 C   0  0  0  0  0  0  0  0  0  0  0  0
   -5.4406   17.4316  -33.1165 H   0  0  0  0  0  0  0  0  0  0  0  0
   -7.2580   17.7660  -31.9790 C   0  0  0  0  0  0  0  0  0  0  0  0
   -7.1465   16.8498  -31.3806 H   0  0  0  0  0  0  0  0  0  0  0  0
   -8.3510   18.6100  -31.7690 C   0  0  0  0  0  0  0  0  0  0  0  0
   -9.1123   18.3555  -31.0168 H   0  0  0  0  0  0  0  0  0  0  0  0
   -6.4870   24.4650  -30.4450 S   0  0  0  0  0  0  0  0  0  0  0  0
  1  2  1  0
  2  3  2  0
  3  4  1  0
  4  5  1  0
  5  6  1  0
  6  7  1  0
  6  8  1  0
  6  9  1  0
  5 10  2  0
 10 11  1  0
 11 12  1  0
 11 13  1  0
 11 14  1  0
 14 15  1  0
 15 16  1  0
 15 17  1  0
 15 18  1  0
 18 19  2  0
 19 20  1  0
 20 21  1  0
 20 22  2  0
 22 23  1  0
 22 24  1  0
 24 25  1  0
 24 26  2  0
 26 27  1  0
 10 28  1  0
 28  3  1  0
 26 18  1  0
M  CHG  1   4  -1
M  END
>  <UniqueID>  (46) 
45

>  <SMILES>  (46) 
[H]/N=c1\[n-]c(C)c(CSCc2ccccn2)s1

>  <Energy>  (46) 
51.25024361378609

>  <Genealogy>  (46) 
Cc1[n-]c(=N)sc1CSCc1ccccn1 (protonated)
[H]/N=c1\[n-]c(C)c(CSCc2ccccn2)s1 (cis-trans isomerization)
[H]/N=c1\[n-]c(C)c(CSCc2ccccn2)s1 (3D coordinates assigned)
[H]/N=c1\[n-]c(C)c(CSCc2ccccn2)s1 (optimized conformer: 51.25024361378609 kcal/mol)

>  <smiles>  (46) 
Cc1[nH]c(=N)sc1CSCc1ccccn1

>  <score_type>  (46) 
oracle

>  <origin>  (46) 
adgpu

>  <m_score__min__energy>  (46) 
-8.8699999999999992

>  <m_primary>  (46) 
energy

$$$$
46:0
     RDKit          3D

 71 75  0  0  0  0  0  0  0  0999 V2000
   -0.0540   22.7320  -24.0770 C   0  0  0  0  0  0  0  0  0  0  0  0
   -0.0870   23.8490  -24.9590 O   0  0  0  0  0  0  0  0  0  0  0  0
    1.0010   24.2950  -25.7240 C   0  0  0  0  0  0  0  0  0  0  0  0
    1.6310   23.4730  -26.6820 C   0  0  0  0  0  0  0  0  0  0  0  0
    2.7220   23.9540  -27.4150 C   0  0  0  0  0  0  0  0  0  0  0  0
    3.1940   25.2510  -27.2010 C   0  0  0  0  0  0  0  0  0  0  0  0
    2.5780   26.0720  -26.2540 C   0  0  0  0  0  0  0  0  0  0  0  0
    1.4830   25.6010  -25.5180 C   0  0  0  0  0  0  0  0  0  0  0  0
    0.8510   26.4590  -24.5630 N   0  0  0  0  0  0  0  0  0  0  0  0
    1.6030   26.9210  -23.4000 C   0  0  0  0  0  0  0  0  0  0  0  0
   -0.8040   26.9270  -24.7920 S   0  0  0  0  0  0  0  0  0  0  0  0
   -0.8850   28.4170  -24.9740 O   0  0  0  0  0  0  0  0  0  0  0  0
   -1.6090   26.5620  -23.5770 O   0  0  0  0  0  0  0  0  0  0  0  0
   -1.4580   26.1150  -26.2100 C   0  0  0  0  0  0  0  0  0  0  0  0
   -2.5920   25.3020  -26.1020 C   0  0  0  0  0  0  0  0  0  0  0  0
   -3.1230   24.6770  -27.2320 C   0  0  0  0  0  0  0  0  0  0  0  0
   -2.5140   24.8400  -28.4910 C   0  0  0  0  0  0  0  0  0  0  0  0
   -3.0640   24.1830  -29.7040 C   0  0  0  0  0  0  0  0  0  0  0  0
   -3.7230   24.8670  -30.5340 O   0  0  0  0  0  0  0  0  0  0  0  0
   -2.8400   22.7880  -29.9670 N   0  0  0  0  0  0  0  0  0  0  0  0
   -3.6450   22.0510  -30.8970 C   0  0  0  0  0  0  0  0  0  0  0  0
   -5.0490   22.1450  -30.7970 C   0  0  0  0  0  0  0  0  0  0  0  0
   -5.8250   21.3780  -31.6640 C   0  0  0  0  0  0  0  0  0  0  0  0
   -5.2620   20.5560  -32.6010 C   0  0  0  0  0  0  0  0  0  0  0  0
   -3.8810   20.4510  -32.7520 C   0  0  0  0  0  0  0  0  0  0  0  0
   -3.0550   21.2180  -31.9000 C   0  0  0  0  0  0  0  0  0  0  0  0
   -1.6320   21.1980  -32.1090 N   0  0  0  0  0  0  0  0  0  0  0  0
   -1.0940   21.3500  -33.4670 C   0  0  0  0  0  0  0  0  0  0  0  0
    0.3610   20.8870  -33.5070 C   0  0  0  0  0  0  0  0  0  0  0  0
    0.4790   19.6830  -32.7800 O   0  0  0  0  0  0  0  0  0  0  0  0
    0.3880   19.9310  -31.3860 C   0  0  0  0  0  0  0  0  0  0  0  0
   -0.7220   20.9340  -30.9880 C   0  0  0  0  0  0  0  0  0  0  0  0
   -6.2360   19.9200  -33.2820 N   0  0  0  0  0  0  0  0  0  0  0  0
   -6.0830   18.9200  -34.3340 C   0  0  0  0  0  0  0  0  0  0  0  0
   -7.3850   20.3720  -32.7180 C   0  0  0  0  0  0  0  0  0  0  0  0
   -8.5310   19.9820  -33.0660 O   0  0  0  0  0  0  0  0  0  0  0  0
   -7.1680   21.2790  -31.7320 N   0  0  0  0  0  0  0  0  0  0  0  0
   -8.1560   21.9400  -30.8840 C   0  0  0  0  0  0  0  0  0  0  0  0
   -1.3820   25.6690  -28.5910 C   0  0  0  0  0  0  0  0  0  0  0  0
   -0.8610   26.3030  -27.4600 C   0  0  0  0  0  0  0  0  0  0  0  0
   -0.0645   23.0866  -23.0358 H   0  0  0  0  0  0  0  0  0  0  0  0
   -0.9338   22.0967  -24.2569 H   0  0  0  0  0  0  0  0  0  0  0  0
    0.8617   22.1497  -24.2569 H   0  0  0  0  0  0  0  0  0  0  0  0
    1.2635   22.4505  -26.8535 H   0  0  0  0  0  0  0  0  0  0  0  0
    3.2088   23.3091  -28.1614 H   0  0  0  0  0  0  0  0  0  0  0  0
    4.0516   25.6261  -27.7788 H   0  0  0  0  0  0  0  0  0  0  0  0
    2.9539   27.0920  -26.0854 H   0  0  0  0  0  0  0  0  0  0  0  0
    1.0880   26.6046  -22.4810 H   0  0  0  0  0  0  0  0  0  0  0  0
    2.6140   26.4880  -23.4214 H   0  0  0  0  0  0  0  0  0  0  0  0
    1.6737   28.0185  -23.4214 H   0  0  0  0  0  0  0  0  0  0  0  0
   -3.0677   25.1545  -25.1212 H   0  0  0  0  0  0  0  0  0  0  0  0
   -4.0238   24.0527  -27.1380 H   0  0  0  0  0  0  0  0  0  0  0  0
   -1.9470   22.3500  -29.6440 H   0  0  0  0  0  0  0  0  0  0  0  0
   -5.5189   22.8063  -30.0542 H   0  0  0  0  0  0  0  0  0  0  0  0
   -3.4452   19.7885  -33.5143 H   0  0  0  0  0  0  0  0  0  0  0  0
   -1.6890   20.7424  -34.1647 H   0  0  0  0  0  0  0  0  0  0  0  0
   -1.1441   22.4094  -33.7589 H   0  0  0  0  0  0  0  0  0  0  0  0
    0.6664   20.7195  -34.5504 H   0  0  0  0  0  0  0  0  0  0  0  0
    1.0087   21.6561  -33.0609 H   0  0  0  0  0  0  0  0  0  0  0  0
    0.1872   18.9759  -30.8787 H   0  0  0  0  0  0  0  0  0  0  0  0
    1.3441   20.3832  -31.0837 H   0  0  0  0  0  0  0  0  0  0  0  0
   -1.2986   20.5157  -30.1498 H   0  0  0  0  0  0  0  0  0  0  0  0
   -0.2447   21.8819  -30.6988 H   0  0  0  0  0  0  0  0  0  0  0  0
   -5.9315   17.9298  -33.8794 H   0  0  0  0  0  0  0  0  0  0  0  0
   -6.9889   18.9024  -34.9577 H   0  0  0  0  0  0  0  0  0  0  0  0
   -5.2133   19.1741  -34.9577 H   0  0  0  0  0  0  0  0  0  0  0  0
   -7.9035   21.7711  -29.8268 H   0  0  0  0  0  0  0  0  0  0  0  0
   -8.1550   23.0199  -31.0932 H   0  0  0  0  0  0  0  0  0  0  0  0
   -9.1538   21.5270  -31.0932 H   0  0  0  0  0  0  0  0  0  0  0  0
   -0.9021   25.8197  -29.5693 H   0  0  0  0  0  0  0  0  0  0  0  0
    0.0220   26.9523  -27.5536 H   0  0  0  0  0  0  0  0  0  0  0  0
  1  2  1  0
  2  3  1  0
  3  4  2  0
  4  5  1  0
  5  6  2  0
  6  7  1  0
  7  8  2  0
  8  9  1  0
  9 10  1  0
  9 11  1  0
 11 12  2  0
 11 13  2  0
 11 14  1  0
 14 15  2  0
 15 16  1  0
 16 17  2  0
 17 18  1  0
 18 19  2  0
 18 20  1  0
 20 21  1  0
 21 22  2  0
 22 23  1  0
 23 24  2  0
 24 25  1  0
 25 26  2  0
 26 27  1  0
 27 28  1  0
 28 29  1  0
 29 30  1  0
 30 31  1  0
 31 32  1  0
 24 33  1  0
 33 34  1  0
 33 35  1  0
 35 36  2  0
 35 37  1  0
 37 38  1  0
 17 39  1  0
 39 40  2  0
  8  3  1  0
 40 14  1  0
 26 21  1  0
 32 27  1  0
 37 23  1  0
  1 41  1  0
  1 42  1  0
  1 43  1  0
  4 44  1  0
  5 45  1  0
  6 46  1  0
  7 47  1  0
 10 48  1  0
 10 49  1  0
 10 50  1  0
 15 51  1  0
 16 52  1  0
 20 53  1  0
 22 54  1  0
 25 55  1  0
 28 56  1  0
 28 57  1  0
 29 58  1  0
 29 59  1  0
 31 60  1  0
 31 61  1  0
 32 62  1  0
 32 63  1  0
 34 64  1  0
 34 65  1  0
 34 66  1  0
 38 67  1  0
 38 68  1  0
 38 69  1  0
 39 70  1  0
 40 71  1  0
M  END
>  <UniqueID>  (47) 
46

>  <SMILES>  (47) 
COc1ccccc1N(C)S(=O)(=O)c1ccc(C(=O)Nc2cc3c(cc2N2CCOCC2)n(C)c(=O)n3C)cc1

>  <Energy>  (47) 
136.94098068604492

>  <Genealogy>  (47) 
COc1ccccc1N(C)S(=O)(=O)c1ccc(C(=O)Nc2cc3c(cc2N2CCOCC2)n(C)c(=O)n3C)cc1 (3D coordinates assigned)
COc1ccccc1N(C)S(=O)(=O)c1ccc(C(=O)Nc2cc3c(cc2N2CCOCC2)n(C)c(=O)n3C)cc1 (nonaromatic ring conformer: 136.94098068604492 kcal/mol)

>  <smiles>  (47) 
COc1ccccc1N(C)S(=O)(=O)c1ccc(C(=O)Nc2cc3c(cc2N2CCOCC2)n(C)c(=O)n3C)cc1

>  <score_type>  (47) 
oracle

>  <origin>  (47) 
adgpu

>  <m_score__min__energy>  (47) 
-9.5399999999999991

>  <m_primary>  (47) 
energy

$$$$
47:0
     RDKit          3D

 46 48  0  0  0  0  0  0  0  0999 V2000
   -3.5040   24.8400  -30.8370 N   0  0  0  0  0  0  0  0  0  0  0  0
   -4.9160   25.0370  -30.7760 C   0  0  0  0  0  0  0  0  0  0  0  0
   -5.3620   26.1660  -30.4350 O   0  0  0  0  0  0  0  0  0  0  0  0
   -5.8490   23.9350  -31.1110 C   0  0  0  0  0  0  0  0  0  0  0  0
   -7.2410   24.1110  -30.9830 C   0  0  0  0  0  0  0  0  0  0  0  0
   -8.1200   23.0730  -31.3030 C   0  0  0  0  0  0  0  0  0  0  0  0
   -7.6250   21.8480  -31.7520 C   0  0  0  0  0  0  0  0  0  0  0  0
   -6.2430   21.6550  -31.8830 C   0  0  0  0  0  0  0  0  0  0  0  0
   -5.6040   20.1050  -32.4280 S   0  0  0  0  0  0  0  0  0  0  0  0
   -6.6340   19.0200  -32.2820 O   0  0  0  0  0  0  0  0  0  0  0  0
   -5.2240   20.2200  -33.8770 O   0  0  0  0  0  0  0  0  0  0  0  0
   -4.1990   19.6860  -31.5010 N   0  0  0  0  0  0  0  0  0  0  0  0
   -2.9870   20.4530  -31.4370 C   0  0  0  0  0  0  0  0  0  0  0  0
   -2.6670   21.2330  -30.3090 C   0  0  0  0  0  0  0  0  0  0  0  0
   -1.4750   21.9680  -30.2620 C   0  0  0  0  0  0  0  0  0  0  0  0
   -1.0750   22.9190  -28.8300 S   0  0  0  0  0  0  0  0  0  0  0  0
   -0.9340   21.9970  -27.6500 O   0  0  0  0  0  0  0  0  0  0  0  0
    0.2470   23.6040  -29.0450 O   0  0  0  0  0  0  0  0  0  0  0  0
   -2.3080   24.1080  -28.4790 N   0  0  0  0  0  0  0  0  0  0  0  0
   -3.4320   23.4920  -27.7450 C   0  0  0  0  0  0  0  0  0  0  0  0
   -4.2310   24.5610  -26.9840 C   0  0  0  0  0  0  0  0  0  0  0  0
   -3.4680   25.2630  -26.0100 O   0  0  0  0  0  0  0  0  0  0  0  0
   -2.0720   25.2950  -26.2860 C   0  0  0  0  0  0  0  0  0  0  0  0
   -1.7450   25.2920  -27.7910 C   0  0  0  0  0  0  0  0  0  0  0  0
   -0.6010   21.9360  -31.3560 C   0  0  0  0  0  0  0  0  0  0  0  0
   -0.9110   21.1690  -32.4810 C   0  0  0  0  0  0  0  0  0  0  0  0
   -2.0950   20.4260  -32.5270 C   0  0  0  0  0  0  0  0  0  0  0  0
   -2.3650   19.6640  -33.6650 O   0  0  0  0  0  0  0  0  0  0  0  0
   -5.3600   22.6960  -31.5630 C   0  0  0  0  0  0  0  0  0  0  0  0
   -2.8640   25.2940  -30.1450 H   0  0  0  0  0  0  0  0  0  0  0  0
   -7.6390   25.0732  -30.6283 H   0  0  0  0  0  0  0  0  0  0  0  0
   -9.2051   23.2219  -31.2007 H   0  0  0  0  0  0  0  0  0  0  0  0
   -8.3200   21.0332  -32.0033 H   0  0  0  0  0  0  0  0  0  0  0  0
   -3.3603   21.2656  -29.4556 H   0  0  0  0  0  0  0  0  0  0  0  0
   -4.0963   22.9850  -28.4603 H   0  0  0  0  0  0  0  0  0  0  0  0
   -3.0290   22.7682  -27.0213 H   0  0  0  0  0  0  0  0  0  0  0  0
   -4.6176   25.2890  -27.7124 H   0  0  0  0  0  0  0  0  0  0  0  0
   -5.0344   24.0374  -26.4452 H   0  0  0  0  0  0  0  0  0  0  0  0
   -1.6492   26.2070  -25.8393 H   0  0  0  0  0  0  0  0  0  0  0  0
   -1.6356   24.3808  -25.8574 H   0  0  0  0  0  0  0  0  0  0  0  0
   -2.1646   26.2007  -28.2473 H   0  0  0  0  0  0  0  0  0  0  0  0
   -0.6509   25.2602  -27.9007 H   0  0  0  0  0  0  0  0  0  0  0  0
    0.3327   22.5170  -31.3289 H   0  0  0  0  0  0  0  0  0  0  0  0
   -0.2196   21.1491  -33.3364 H   0  0  0  0  0  0  0  0  0  0  0  0
   -3.2800   19.2690  -33.8500 H   0  0  0  0  0  0  0  0  0  0  0  0
   -4.2757   22.5425  -31.6663 H   0  0  0  0  0  0  0  0  0  0  0  0
  1  2  1  0
  2  3  2  0
  2  4  1  0
  4  5  2  0
  5  6  1  0
  6  7  2  0
  7  8  1  0
  8  9  1  0
  9 10  2  0
  9 11  2  0
  9 12  1  0
 12 13  1  0
 13 14  2  0
 14 15  1  0
 15 16  1  0
 16 17  2  0
 16 18  2  0
 16 19  1  0
 19 20  1  0
 20 21  1  0
 21 22  1  0
 22 23  1  0
 23 24  1  0
 15 25  2  0
 25 26  1  0
 26 27  2  0
 27 28  1  0
  8 29  2  0
 29  4  1  0
 27 13  1  0
 24 19  1  0
  1 30  1  0
  5 31  1  0
  6 32  1  0
  7 33  1  0
 14 34  1  0
 20 35  1  0
 20 36  1  0
 21 37  1  0
 21 38  1  0
 23 39  1  0
 23 40  1  0
 24 41  1  0
 24 42  1  0
 25 43  1  0
 26 44  1  0
 28 45  1  0
 29 46  1  0
M  CHG  2   1  -1  12  -1
M  END
>  <UniqueID>  (48) 
47

>  <SMILES>  (48) 
[NH-]C(=O)c1cccc(S(=O)(=O)[N-]c2cc(S(=O)(=O)N3CCOCC3)ccc2O)c1

>  <Energy>  (48) 
61.90614846752369

>  <Genealogy>  (48) 
[NH-]C(=O)c1cccc(S(=O)(=O)[N-]c2cc(S(=O)(=O)N3CCOCC3)ccc2O)c1 (protonated)
[NH-]C(=O)c1cccc(S(=O)(=O)[N-]c2cc(S(=O)(=O)N3CCOCC3)ccc2O)c1 (3D coordinates assigned)
[NH-]C(=O)c1cccc(S(=O)(=O)[N-]c2cc(S(=O)(=O)N3CCOCC3)ccc2O)c1 (nonaromatic ring conformer: 61.90614846752369 kcal/mol)

>  <smiles>  (48) 
NC(=O)c1cccc(S(=O)(=O)Nc2cc(S(=O)(=O)N3CCOCC3)ccc2O)c1

>  <score_type>  (48) 
oracle

>  <origin>  (48) 
adgpu

>  <m_score__min__energy>  (48) 
-11.699999999999999

>  <m_primary>  (48) 
energy

$$$$
48:0
     RDKit          3D

 49 51  0  0  0  0  0  0  0  0999 V2000
   -6.3560   23.3190  -31.5070 C   0  0  0  0  0  0  0  0  0  0  0  0
   -5.0780   22.5280  -31.4150 C   0  0  0  0  0  0  0  0  0  0  0  0
   -5.0230   21.2680  -32.0320 C   0  0  0  0  0  0  0  0  0  0  0  0
   -3.8430   20.5020  -31.9780 C   0  0  0  0  0  0  0  0  0  0  0  0
   -3.7460   19.3290  -32.5390 N   0  0  0  0  0  0  0  0  0  0  0  0
   -4.9800   18.5000  -33.4390 S   0  0  0  0  0  0  0  0  0  0  0  0
   -4.7280   17.0190  -33.3760 O   0  0  0  0  0  0  0  0  0  0  0  0
   -4.9190   18.9380  -34.8750 O   0  0  0  0  0  0  0  0  0  0  0  0
   -6.5730   18.8980  -32.7940 C   0  0  0  0  0  0  0  0  0  0  0  0
   -7.3300   19.9310  -33.3670 C   0  0  0  0  0  0  0  0  0  0  0  0
   -8.5990   20.2340  -32.8650 C   0  0  0  0  0  0  0  0  0  0  0  0
   -9.1180   19.5090  -31.7890 C   0  0  0  0  0  0  0  0  0  0  0  0
   -8.3670   18.4820  -31.2110 C   0  0  0  0  0  0  0  0  0  0  0  0
   -7.0970   18.1750  -31.7100 C   0  0  0  0  0  0  0  0  0  0  0  0
   -6.3810   17.1750  -31.1360 F   0  0  0  0  0  0  0  0  0  0  0  0
   -2.7610   21.0010  -31.3200 N   0  0  0  0  0  0  0  0  0  0  0  0
   -2.7790   22.2200  -30.7200 C   0  0  0  0  0  0  0  0  0  0  0  0
   -3.9280   23.0220  -30.7580 C   0  0  0  0  0  0  0  0  0  0  0  0
   -3.8790   24.5800  -29.9130 S   0  0  0  0  0  0  0  0  0  0  0  0
   -4.7800   24.5940  -28.7100 O   0  0  0  0  0  0  0  0  0  0  0  0
   -4.3450   25.6570  -30.8510 O   0  0  0  0  0  0  0  0  0  0  0  0
   -2.2540   24.9250  -29.4360 N   0  0  0  0  0  0  0  0  0  0  0  0
   -1.8320   24.7600  -28.0840 C   0  0  0  0  0  0  0  0  0  0  0  0
   -2.1050   23.6910  -27.2540 C   0  0  0  0  0  0  0  0  0  0  0  0
   -2.8860   22.4670  -27.6010 C   0  0  0  0  0  0  0  0  0  0  0  0
   -1.6700   23.9780  -26.0100 N   0  0  0  0  0  0  0  0  0  0  0  0
   -1.1140   25.1830  -26.0450 N   0  0  0  0  0  0  0  0  0  0  0  0
   -0.5750   25.8540  -24.8680 C   0  0  0  0  0  0  0  0  0  0  0  0
   -1.1920   25.6900  -27.2950 C   0  0  0  0  0  0  0  0  0  0  0  0
   -0.7960   27.0790  -27.6930 C   0  0  0  0  0  0  0  0  0  0  0  0
   -6.7211   23.5450  -30.4942 H   0  0  0  0  0  0  0  0  0  0  0  0
   -6.1676   24.2586  -32.0470 H   0  0  0  0  0  0  0  0  0  0  0  0
   -7.1129   22.7312  -32.0470 H   0  0  0  0  0  0  0  0  0  0  0  0
   -5.9056   20.8777  -32.5598 H   0  0  0  0  0  0  0  0  0  0  0  0
   -6.9238   20.5040  -34.2136 H   0  0  0  0  0  0  0  0  0  0  0  0
   -9.1897   21.0441  -33.3175 H   0  0  0  0  0  0  0  0  0  0  0  0
  -10.1179   19.7468  -31.3969 H   0  0  0  0  0  0  0  0  0  0  0  0
   -8.7754   17.9141  -30.3621 H   0  0  0  0  0  0  0  0  0  0  0  0
   -1.8820   20.4370  -31.2680 H   0  0  0  0  0  0  0  0  0  0  0  0
   -1.8809   22.5819  -30.1981 H   0  0  0  0  0  0  0  0  0  0  0  0
   -3.2075   21.9631  -26.6775 H   0  0  0  0  0  0  0  0  0  0  0  0
   -3.7701   22.7511  -28.1906 H   0  0  0  0  0  0  0  0  0  0  0  0
   -2.2558   21.7849  -28.1906 H   0  0  0  0  0  0  0  0  0  0  0  0
   -0.9637   25.3701  -23.9599 H   0  0  0  0  0  0  0  0  0  0  0  0
    0.5229   25.7866  -24.8781 H   0  0  0  0  0  0  0  0  0  0  0  0
   -0.8775   26.9115  -24.8781 H   0  0  0  0  0  0  0  0  0  0  0  0
   -0.6235   27.6839  -26.7906 H   0  0  0  0  0  0  0  0  0  0  0  0
    0.1269   27.0402  -28.2903 H   0  0  0  0  0  0  0  0  0  0  0  0
   -1.6006   27.5327  -28.2903 H   0  0  0  0  0  0  0  0  0  0  0  0
  1  2  1  0
  2  3  2  0
  3  4  1  0
  4  5  2  3
  5  6  1  0
  6  7  2  0
  6  8  2  0
  6  9  1  0
  9 10  2  0
 10 11  1  0
 11 12  2  0
 12 13  1  0
 13 14  2  0
 14 15  1  0
  4 16  1  0
 16 17  1  0
 17 18  2  0
 18 19  1  0
 19 20  2  0
 19 21  2  0
 19 22  1  0
 22 23  1  0
 23 24  1  0
 24 25  1  0
 24 26  2  0
 26 27  1  0
 27 28  1  0
 27 29  1  0
 29 30  1  0
 18  2  1  0
 29 23  2  0
 14  9  1  0
  1 31  1  0
  1 32  1  0
  1 33  1  0
  3 34  1  0
 10 35  1  0
 11 36  1  0
 12 37  1  0
 13 38  1  0
 16 39  1  0
 17 40  1  0
 25 41  1  0
 25 42  1  0
 25 43  1  0
 28 44  1  0
 28 45  1  0
 28 46  1  0
 30 47  1  0
 30 48  1  0
 30 49  1  0
M  CHG  1  22  -1
M  END
>  <UniqueID>  (49) 
48

>  <SMILES>  (49) 
Cc1cc(=NS(=O)(=O)c2ccccc2F)[nH]cc1S(=O)(=O)[N-]c1c(C)nn(C)c1C

>  <Energy>  (49) 
95.43410557998781

>  <Genealogy>  (49) 
Cc1cc(=NS(=O)(=O)c2ccccc2F)[nH]cc1S(=O)(=O)[N-]c1c(C)nn(C)c1C (protonated)
Cc1cc(=NS(=O)(=O)c2ccccc2F)[nH]cc1S(=O)(=O)[N-]c1c(C)nn(C)c1C (3D coordinates assigned)
Cc1cc(=NS(=O)(=O)c2ccccc2F)[nH]cc1S(=O)(=O)[N-]c1c(C)nn(C)c1C (optimized conformer: 95.43410557998781 kcal/mol)

>  <smiles>  (49) 
Cc1cc(=NS(=O)(=O)c2ccccc2F)[nH]cc1S(=O)(=O)Nc1c(C)nn(C)c1C

>  <score_type>  (49) 
oracle

>  <origin>  (49) 
adgpu

>  <m_score__min__energy>  (49) 
-10.91

>  <m_primary>  (49) 
energy

$$$$
49:0
     RDKit          3D

 44 46  0  0  0  0  0  0  0  0999 V2000
    0.0590   17.0980  -27.1930 C   0  0  0  0  0  0  0  0  0  0  0  0
   -0.5150   18.3930  -27.6830 C   0  0  0  0  0  0  0  0  0  0  0  0
    0.0070   19.0130  -28.8270 C   0  0  0  0  0  0  0  0  0  0  0  0
   -0.5470   20.2090  -29.2920 C   0  0  0  0  0  0  0  0  0  0  0  0
   -1.6420   20.7930  -28.6320 C   0  0  0  0  0  0  0  0  0  0  0  0
   -2.2260   22.0640  -29.1250 C   0  0  0  0  0  0  0  0  0  0  0  0
   -1.5600   23.2850  -28.9150 C   0  0  0  0  0  0  0  0  0  0  0  0
   -2.1160   24.4810  -29.3760 C   0  0  0  0  0  0  0  0  0  0  0  0
   -3.3340   24.4750  -30.0610 C   0  0  0  0  0  0  0  0  0  0  0  0
   -3.8710   25.6800  -30.5020 O   0  0  0  0  0  0  0  0  0  0  0  0
   -4.0020   23.2610  -30.2950 C   0  0  0  0  0  0  0  0  0  0  0  0
   -5.5200   23.2220  -31.1950 S   0  0  0  0  0  0  0  0  0  0  0  0
   -6.6530   22.9900  -30.2330 O   0  0  0  0  0  0  0  0  0  0  0  0
   -5.7460   24.5230  -31.9120 O   0  0  0  0  0  0  0  0  0  0  0  0
   -5.4960   21.9360  -32.3620 N   0  0  0  0  0  0  0  0  0  0  0  0
   -4.2990   21.2420  -32.7720 C   0  0  0  0  0  0  0  0  0  0  0  0
   -3.0520   21.9010  -32.7600 C   0  0  0  0  0  0  0  0  0  0  0  0
   -1.8840   21.2250  -33.1170 C   0  0  0  0  0  0  0  0  0  0  0  0
   -1.9370   19.8850  -33.4880 C   0  0  0  0  0  0  0  0  0  0  0  0
   -3.1590   19.2150  -33.5080 C   0  0  0  0  0  0  0  0  0  0  0  0
   -4.3470   19.8770  -33.1580 C   0  0  0  0  0  0  0  0  0  0  0  0
   -5.8700   18.9760  -33.2300 S   0  0  0  0  0  0  0  0  0  0  0  0
   -5.9660   18.1170  -34.7280 N   0  0  0  0  0  0  0  0  0  0  0  0
   -5.9400   18.0070  -32.0840 O   0  0  0  0  0  0  0  0  0  0  0  0
   -7.0390   19.9160  -33.1320 O   0  0  0  0  0  0  0  0  0  0  0  0
   -3.4510   22.0640  -29.8130 C   0  0  0  0  0  0  0  0  0  0  0  0
   -2.1740   20.1560  -27.4970 C   0  0  0  0  0  0  0  0  0  0  0  0
   -1.6160   18.9650  -27.0290 C   0  0  0  0  0  0  0  0  0  0  0  0
    0.0620   17.0912  -26.0930 H   0  0  0  0  0  0  0  0  0  0  0  0
   -0.5530   16.2623  -27.5632 H   0  0  0  0  0  0  0  0  0  0  0  0
    1.0892   16.9902  -27.5632 H   0  0  0  0  0  0  0  0  0  0  0  0
    0.8545   18.5571  -29.3598 H   0  0  0  0  0  0  0  0  0  0  0  0
   -0.1226   20.6972  -30.1817 H   0  0  0  0  0  0  0  0  0  0  0  0
   -0.5962   23.2983  -28.3850 H   0  0  0  0  0  0  0  0  0  0  0  0
   -1.5924   25.4320  -29.1989 H   0  0  0  0  0  0  0  0  0  0  0  0
   -6.4240   21.6600  -32.7490 H   0  0  0  0  0  0  0  0  0  0  0  0
   -2.9993   22.9597  -32.4660 H   0  0  0  0  0  0  0  0  0  0  0  0
   -0.9191   21.7531  -33.1050 H   0  0  0  0  0  0  0  0  0  0  0  0
   -1.0143   19.3543  -33.7656 H   0  0  0  0  0  0  0  0  0  0  0  0
   -3.1933   18.1554  -33.8013 H   0  0  0  0  0  0  0  0  0  0  0  0
   -6.5020   18.7200  -35.3900 H   0  0  0  0  0  0  0  0  0  0  0  0
   -3.9838   21.1155  -29.9755 H   0  0  0  0  0  0  0  0  0  0  0  0
   -3.0350   20.5987  -26.9747 H   0  0  0  0  0  0  0  0  0  0  0  0
   -2.0421   18.4725  -26.1425 H   0  0  0  0  0  0  0  0  0  0  0  0
  1  2  1  0
  2  3  2  0
  3  4  1  0
  4  5  2  0
  5  6  1  0
  6  7  2  0
  7  8  1  0
  8  9  2  0
  9 10  1  0
  9 11  1  0
 11 12  1  0
 12 13  2  0
 12 14  2  0
 12 15  1  0
 15 16  1  0
 16 17  2  0
 17 18  1  0
 18 19  2  0
 19 20  1  0
 20 21  2  0
 21 22  1  0
 22 23  1  0
 22 24  2  0
 22 25  2  0
 11 26  2  0
  5 27  1  0
 27 28  2  0
 28  2  1  0
 26  6  1  0
 21 16  1  0
  1 29  1  0
  1 30  1  0
  1 31  1  0
  3 32  1  0
  4 33  1  0
  7 34  1  0
  8 35  1  0
 15 36  1  0
 17 37  1  0
 18 38  1  0
 19 39  1  0
 20 40  1  0
 23 41  1  0
 26 42  1  0
 27 43  1  0
 28 44  1  0
M  CHG  2  10  -1  23  -1
M  END
>  <UniqueID>  (50) 
49

>  <SMILES>  (50) 
Cc1ccc(-c2ccc([O-])c(S(=O)(=O)Nc3ccccc3S([NH-])(=O)=O)c2)cc1

>  <Energy>  (50) 
57.03766878791734

>  <Genealogy>  (50) 
Cc1ccc(-c2ccc([O-])c(S(=O)(=O)Nc3ccccc3S([NH-])(=O)=O)c2)cc1 (protonated)
Cc1ccc(-c2ccc([O-])c(S(=O)(=O)Nc3ccccc3S([NH-])(=O)=O)c2)cc1 (3D coordinates assigned)
Cc1ccc(-c2ccc([O-])c(S(=O)(=O)Nc3ccccc3S([NH-])(=O)=O)c2)cc1 (optimized conformer: 57.03766878791734 kcal/mol)

>  <smiles>  (50) 
Cc1ccc(-c2ccc(O)c(S(=O)(=O)Nc3ccccc3S(N)(=O)=O)c2)cc1

>  <score_type>  (50) 
oracle

>  <origin>  (50) 
adgpu

>  <m_score__min__energy>  (50) 
-12.460000000000001

>  <m_primary>  (50) 
energy

$$$$
