0:0
     RDKit          3D

 46 49  0  0  0  0  0  0  0  0999 V2000
   -1.3500   21.0580  -29.4260 C   0  0  0  0  0  0  0  0  0  0  0  0
   -1.9280   21.0940  -30.8110 C   0  0  0  0  0  0  0  0  0  0  0  0
   -1.1050   21.3560  -31.9160 C   0  0  0  0  0  0  0  0  0  0  0  0
   -1.6340   21.3260  -33.2090 C   0  0  0  0  0  0  0  0  0  0  0  0
   -2.9820   21.0210  -33.4080 C   0  0  0  0  0  0  0  0  0  0  0  0
   -3.8140   20.7520  -32.3130 C   0  0  0  0  0  0  0  0  0  0  0  0
   -5.4900   20.2830  -32.5840 S   0  0  0  0  0  0  0  0  0  0  0  0
   -5.7430   20.0250  -34.0430 O   0  0  0  0  0  0  0  0  0  0  0  0
   -5.7900   19.0280  -31.8140 O   0  0  0  0  0  0  0  0  0  0  0  0
   -6.5270   21.5850  -32.0290 C   0  0  0  0  0  0  0  0  0  0  0  0
   -7.8670   21.4840  -31.8780 N   0  0  0  0  0  0  0  0  0  0  0  0
   -8.3180   22.5910  -31.2930 N   0  0  0  0  0  0  0  0  0  0  0  0
   -7.2570   23.3850  -31.0660 C   0  0  0  0  0  0  0  0  0  0  0  0
   -7.2300   24.6130  -30.4090 C   0  0  0  0  0  0  0  0  0  0  0  0
   -5.9760   25.2250  -30.2140 C   0  0  0  0  0  0  0  0  0  0  0  0
   -4.7910   24.6060  -30.6900 C   0  0  0  0  0  0  0  0  0  0  0  0
   -3.5100   25.2020  -30.4690 N   0  0  0  0  0  0  0  0  0  0  0  0
   -2.6900   24.8970  -29.3400 C   0  0  0  0  0  0  0  0  0  0  0  0
   -3.0420   23.9790  -28.5520 O   0  0  0  0  0  0  0  0  0  0  0  0
   -1.5180   25.6720  -29.0680 N   0  0  0  0  0  0  0  0  0  0  0  0
   -0.5250   25.2970  -28.0710 C   0  0  0  0  0  0  0  0  0  0  0  0
   -0.6740   26.1780  -26.8610 C   0  0  0  0  0  0  0  0  0  0  0  0
   -1.1130   25.6370  -25.6440 C   0  0  0  0  0  0  0  0  0  0  0  0
   -1.1930   26.4450  -24.5090 C   0  0  0  0  0  0  0  0  0  0  0  0
   -0.8220   27.7880  -24.5990 C   0  0  0  0  0  0  0  0  0  0  0  0
   -0.3850   28.2960  -25.7820 N   0  0  0  0  0  0  0  0  0  0  0  0
   -0.3010   27.5290  -26.9030 C   0  0  0  0  0  0  0  0  0  0  0  0
   -4.8620   23.3760  -31.3700 C   0  0  0  0  0  0  0  0  0  0  0  0
   -6.1150   22.7920  -31.5200 C   0  0  0  0  0  0  0  0  0  0  0  0
   -3.2820   20.7870  -31.0150 C   0  0  0  0  0  0  0  0  0  0  0  0
   -2.1638   21.1087  -28.6876 H   0  0  0  0  0  0  0  0  0  0  0  0
   -0.7872   20.1231  -29.2878 H   0  0  0  0  0  0  0  0  0  0  0  0
   -0.6755   21.9159  -29.2878 H   0  0  0  0  0  0  0  0  0  0  0  0
   -0.0400   21.5858  -31.7644 H   0  0  0  0  0  0  0  0  0  0  0  0
   -0.9872   21.5431  -34.0718 H   0  0  0  0  0  0  0  0  0  0  0  0
   -3.3924   20.9918  -34.4282 H   0  0  0  0  0  0  0  0  0  0  0  0
   -8.1563   25.0888  -30.0545 H   0  0  0  0  0  0  0  0  0  0  0  0
   -5.9150   26.1897  -29.6890 H   0  0  0  0  0  0  0  0  0  0  0  0
   -0.6749   24.2466  -27.7808 H   0  0  0  0  0  0  0  0  0  0  0  0
    0.4835   25.4198  -28.4928 H   0  0  0  0  0  0  0  0  0  0  0  0
   -1.3944   24.5753  -25.5840 H   0  0  0  0  0  0  0  0  0  0  0  0
   -1.5446   26.0283  -23.5536 H   0  0  0  0  0  0  0  0  0  0  0  0
   -0.8833   28.4357  -23.7120 H   0  0  0  0  0  0  0  0  0  0  0  0
    0.0602   27.9697  -27.8439 H   0  0  0  0  0  0  0  0  0  0  0  0
   -3.9577   22.8933  -31.7690 H   0  0  0  0  0  0  0  0  0  0  0  0
   -3.9301   20.5726  -30.1524 H   0  0  0  0  0  0  0  0  0  0  0  0
  1  2  1  0
  2  3  2  0
  3  4  1  0
  4  5  2  0
  5  6  1  0
  6  7  1  0
  7  8  2  0
  7  9  2  0
  7 10  1  0
 10 11  2  0
 11 12  1  0
 12 13  1  0
 13 14  2  0
 14 15  1  0
 15 16  2  0
 16 17  1  0
 17 18  1  0
 18 19  2  0
 18 20  1  0
 20 21  1  0
 21 22  1  0
 22 23  2  0
 23 24  1  0
 24 25  2  0
 25 26  1  0
 26 27  2  0
 16 28  1  0
 28 29  2  0
  6 30  2  0
 30  2  1  0
 29 10  1  0
 29 13  1  0
 27 22  1  0
  1 31  1  0
  1 32  1  0
  1 33  1  0
  3 34  1  0
  4 35  1  0
  5 36  1  0
 14 37  1  0
 15 38  1  0
 21 39  1  0
 21 40  1  0
 23 41  1  0
 24 42  1  0
 25 43  1  0
 27 44  1  0
 28 45  1  0
 30 46  1  0
M  CHG  3  12  -1  17  -1  20  -1
M  END
>  <UniqueID>  (1) 
1

>  <SMILES>  (1) 
Cc1cccc(S(=O)(=O)c2n[n-]c3ccc([N-]C(=O)[N-]Cc4cccnc4)cc23)c1

>  <Energy>  (1) 
90.96805766864206

>  <Genealogy>  (1) 
Cc1cccc(S(=O)(=O)c2n[n-]c3ccc([N-]C(=O)[N-]Cc4cccnc4)cc23)c1 (protonated)
Cc1cccc(S(=O)(=O)c2n[n-]c3ccc([N-]C(=O)[N-]Cc4cccnc4)cc23)c1 (3D coordinates assigned)
Cc1cccc(S(=O)(=O)c2n[n-]c3ccc([N-]C(=O)[N-]Cc4cccnc4)cc23)c1 (optimized conformer: 90.96805766864206 kcal/mol)

>  <smiles>  (1) 
Cc1cccc(S(=O)(=O)c2n[nH]c3ccc(NC(=O)NCc4cccnc4)cc23)c1

>  <score_type>  (1) 
oracle

>  <origin>  (1) 
adgpu

>  <m_score__min__energy>  (1) 
-11.91

>  <m_primary>  (1) 
energy

$$$$
1:0
     RDKit          3D

 60 63  0  0  0  0  0  0  0  0999 V2000
   -6.5540   19.9460  -32.6250 C   0  0  0  0  0  0  0  0  0  0  0  0
   -5.1390   20.4200  -32.8210 C   0  0  0  0  0  0  0  0  0  0  0  0
   -4.2930   19.6620  -33.6470 C   0  0  0  0  0  0  0  0  0  0  0  0
   -2.9650   20.0320  -33.8420 C   0  0  0  0  0  0  0  0  0  0  0  0
   -2.4490   21.1750  -33.2210 C   0  0  0  0  0  0  0  0  0  0  0  0
   -1.0650   21.5310  -33.3670 N   0  0  0  0  0  0  0  0  0  0  0  0
   -0.3200   21.3520  -34.5850 C   0  0  0  0  0  0  0  0  0  0  0  0
   -0.8680   20.8380  -35.5970 O   0  0  0  0  0  0  0  0  0  0  0  0
    1.0630   21.7160  -34.6630 N   0  0  0  0  0  0  0  0  0  0  0  0
    1.5960   22.8530  -35.3510 C   0  0  0  0  0  0  0  0  0  0  0  0
    2.9820   23.0550  -35.4750 C   0  0  0  0  0  0  0  0  0  0  0  0
    3.4700   24.1880  -36.1330 C   0  0  0  0  0  0  0  0  0  0  0  0
    2.5830   25.1330  -36.6560 C   0  0  0  0  0  0  0  0  0  0  0  0
    1.2000   24.9550  -36.5110 C   0  0  0  0  0  0  0  0  0  0  0  0
    0.0670   26.1150  -37.1940 S   0  0  0  0  0  0  0  0  0  0  0  0
    0.2580   26.1570  -38.6850 O   0  0  0  0  0  0  0  0  0  0  0  0
   -1.3480   25.6910  -36.9030 O   0  0  0  0  0  0  0  0  0  0  0  0
    0.3770   27.6910  -36.5080 N   0  0  0  0  0  0  0  0  0  0  0  0
   -0.1840   27.7640  -35.1490 C   0  0  0  0  0  0  0  0  0  0  0  0
    0.2700   29.0600  -34.4500 C   0  0  0  0  0  0  0  0  0  0  0  0
    0.6650   30.1580  -35.4500 C   0  0  0  0  0  0  0  0  0  0  0  0
   -0.2330   30.1220  -36.6890 C   0  0  0  0  0  0  0  0  0  0  0  0
   -0.2060   28.7360  -37.3740 C   0  0  0  0  0  0  0  0  0  0  0  0
    0.7120   23.8190  -35.8500 C   0  0  0  0  0  0  0  0  0  0  0  0
   -3.2800   21.9420  -32.3880 C   0  0  0  0  0  0  0  0  0  0  0  0
   -2.7460   23.0530  -31.7400 O   0  0  0  0  0  0  0  0  0  0  0  0
   -4.6370   21.5980  -32.2070 C   0  0  0  0  0  0  0  0  0  0  0  0
   -5.6360   22.6260  -31.1520 S   0  0  0  0  0  0  0  0  0  0  0  0
   -6.7180   21.8470  -30.4590 O   0  0  0  0  0  0  0  0  0  0  0  0
   -6.3070   23.6830  -31.9840 O   0  0  0  0  0  0  0  0  0  0  0  0
   -4.6170   23.3690  -29.9650 N   0  0  0  0  0  0  0  0  0  0  0  0
   -4.0020   22.6720  -28.8490 C   0  0  0  0  0  0  0  0  0  0  0  0
   -3.0670   23.7090  -28.1800 C   0  0  0  0  0  0  0  0  0  0  0  0
   -3.1400   24.9200  -28.9930 N   0  0  0  0  0  0  0  0  0  0  0  0
   -4.0630   24.6640  -30.0270 C   0  0  0  0  0  0  0  0  0  0  0  0
   -4.3460   25.5060  -30.9180 O   0  0  0  0  0  0  0  0  0  0  0  0
   -6.7707   19.8734  -31.5490 H   0  0  0  0  0  0  0  0  0  0  0  0
   -7.2480   20.6607  -33.0914 H   0  0  0  0  0  0  0  0  0  0  0  0
   -6.6775   18.9574  -33.0914 H   0  0  0  0  0  0  0  0  0  0  0  0
   -4.6849   18.7638  -34.1467 H   0  0  0  0  0  0  0  0  0  0  0  0
   -2.3171   19.4218  -34.4885 H   0  0  0  0  0  0  0  0  0  0  0  0
   -0.5930   21.9780  -32.5520 H   0  0  0  0  0  0  0  0  0  0  0  0
    3.6837   22.3202  -35.0535 H   0  0  0  0  0  0  0  0  0  0  0  0
    4.5548   24.3360  -36.2393 H   0  0  0  0  0  0  0  0  0  0  0  0
    2.9706   26.0178  -37.1822 H   0  0  0  0  0  0  0  0  0  0  0  0
   -1.2823   27.7500  -35.2089 H   0  0  0  0  0  0  0  0  0  0  0  0
    0.1736   26.9010  -34.5682 H   0  0  0  0  0  0  0  0  0  0  0  0
   -0.5552   29.4319  -33.8249 H   0  0  0  0  0  0  0  0  0  0  0  0
    1.1578   28.8217  -33.8459 H   0  0  0  0  0  0  0  0  0  0  0  0
    0.5670   31.1396  -34.9634 H   0  0  0  0  0  0  0  0  0  0  0  0
    1.7045   29.9860  -35.7661 H   0  0  0  0  0  0  0  0  0  0  0  0
   -1.2659   30.3507  -36.3876 H   0  0  0  0  0  0  0  0  0  0  0  0
    0.1420   30.8667  -37.4064 H   0  0  0  0  0  0  0  0  0  0  0  0
   -1.2364   28.4483  -37.6299 H   0  0  0  0  0  0  0  0  0  0  0  0
    0.4245   28.8178  -38.2717 H   0  0  0  0  0  0  0  0  0  0  0  0
   -0.3723   23.6851  -35.7222 H   0  0  0  0  0  0  0  0  0  0  0  0
   -4.7694   22.3311  -28.1384 H   0  0  0  0  0  0  0  0  0  0  0  0
   -3.4517   21.7784  -29.1786 H   0  0  0  0  0  0  0  0  0  0  0  0
   -3.4048   23.9191  -27.1545 H   0  0  0  0  0  0  0  0  0  0  0  0
   -2.0351   23.3327  -28.1194 H   0  0  0  0  0  0  0  0  0  0  0  0
  1  2  1  0
  2  3  2  0
  3  4  1  0
  4  5  2  0
  5  6  1  0
  6  7  1  0
  7  8  2  0
  7  9  1  0
  9 10  1  0
 10 11  2  0
 11 12  1  0
 12 13  2  0
 13 14  1  0
 14 15  1  0
 15 16  2  0
 15 17  2  0
 15 18  1  0
 18 19  1  0
 19 20  1  0
 20 21  1  0
 21 22  1  0
 22 23  1  0
 14 24  2  0
  5 25  1  0
 25 26  1  0
 25 27  2  0
 27 28  1  0
 28 29  2  0
 28 30  2  0
 28 31  1  0
 31 32  1  0
 32 33  1  0
 33 34  1  0
 34 35  1  0
 35 36  2  0
 27  2  1  0
 35 31  1  0
 24 10  1  0
 23 18  1  0
  1 37  1  0
  1 38  1  0
  1 39  1  0
  3 40  1  0
  4 41  1  0
  6 42  1  0
 11 43  1  0
 12 44  1  0
 13 45  1  0
 19 46  1  0
 19 47  1  0
 20 48  1  0
 20 49  1  0
 21 50  1  0
 21 51  1  0
 22 52  1  0
 22 53  1  0
 23 54  1  0
 23 55  1  0
 24 56  1  0
 32 57  1  0
 32 58  1  0
 33 59  1  0
 33 60  1  0
M  CHG  3   9  -1  26  -1  34  -1
M  END
>  <UniqueID>  (2) 
2

>  <SMILES>  (2) 
Cc1ccc(NC(=O)[N-]c2cccc(S(=O)(=O)N3CCCCC3)c2)c([O-])c1S(=O)(=O)N1CC[N-]C1=O

>  <Energy>  (2) 
92.73625541348565

>  <Genealogy>  (2) 
Cc1ccc(NC(=O)[N-]c2cccc(S(=O)(=O)N3CCCCC3)c2)c([O-])c1S(=O)(=O)N1CC[N-]C1=O (protonated)
Cc1ccc(NC(=O)[N-]c2cccc(S(=O)(=O)N3CCCCC3)c2)c([O-])c1S(=O)(=O)N1CC[N-]C1=O (3D coordinates assigned)
Cc1ccc(NC(=O)[N-]c2cccc(S(=O)(=O)N3CCCCC3)c2)c([O-])c1S(=O)(=O)N1CC[N-]C1=O (nonaromatic ring conformer: 92.73625541348565 kcal/mol)

>  <smiles>  (2) 
Cc1ccc(NC(=O)Nc2cccc(S(=O)(=O)N3CCCCC3)c2)c(O)c1S(=O)(=O)N1CCNC1=O

>  <score_type>  (2) 
oracle

>  <origin>  (2) 
adgpu

>  <m_score__min__energy>  (2) 
-14.710000000000001

>  <m_primary>  (2) 
energy

$$$$
2:0
     RDKit          3D

 42 44  0  0  0  0  0  0  0  0999 V2000
   -5.8720   25.9970  -30.2010 O   0  0  0  0  0  0  0  0  0  0  0  0
   -5.0180   25.3120  -30.8230 C   0  0  0  0  0  0  0  0  0  0  0  0
   -5.4360   24.5500  -31.9600 N   0  0  0  0  0  0  0  0  0  0  0  0
   -6.2020   23.3370  -31.9340 C   0  0  0  0  0  0  0  0  0  0  0  0
   -7.5640   23.4060  -31.6120 C   0  0  0  0  0  0  0  0  0  0  0  0
   -8.3380   22.2440  -31.5530 C   0  0  0  0  0  0  0  0  0  0  0  0
   -7.7520   20.9980  -31.8000 C   0  0  0  0  0  0  0  0  0  0  0  0
   -8.7230   19.5400  -31.7240 Cl  0  0  0  0  0  0  0  0  0  0  0  0
   -6.3870   20.9180  -32.0940 C   0  0  0  0  0  0  0  0  0  0  0  0
   -5.6110   22.0790  -32.1490 C   0  0  0  0  0  0  0  0  0  0  0  0
   -3.6470   25.2980  -30.4020 N   0  0  0  0  0  0  0  0  0  0  0  0
   -3.0830   24.5260  -29.3310 C   0  0  0  0  0  0  0  0  0  0  0  0
   -3.7900   23.4100  -28.8660 C   0  0  0  0  0  0  0  0  0  0  0  0
   -3.2710   22.6240  -27.8350 C   0  0  0  0  0  0  0  0  0  0  0  0
   -2.0320   22.9360  -27.2690 C   0  0  0  0  0  0  0  0  0  0  0  0
   -1.2990   24.0320  -27.7460 C   0  0  0  0  0  0  0  0  0  0  0  0
    0.2660   24.4430  -27.0490 S   0  0  0  0  0  0  0  0  0  0  0  0
    1.1720   24.9180  -28.1500 O   0  0  0  0  0  0  0  0  0  0  0  0
    0.8810   23.2300  -26.4050 O   0  0  0  0  0  0  0  0  0  0  0  0
    0.0610   25.7080  -25.8640 N   0  0  0  0  0  0  0  0  0  0  0  0
   -0.6810   26.8360  -26.4550 C   0  0  0  0  0  0  0  0  0  0  0  0
   -1.1200   27.8360  -25.3670 C   0  0  0  0  0  0  0  0  0  0  0  0
   -0.4620   27.5760  -24.1420 O   0  0  0  0  0  0  0  0  0  0  0  0
   -0.8540   26.3060  -23.6490 C   0  0  0  0  0  0  0  0  0  0  0  0
   -0.6580   25.1860  -24.6930 C   0  0  0  0  0  0  0  0  0  0  0  0
   -1.8230   24.8220  -28.7780 C   0  0  0  0  0  0  0  0  0  0  0  0
   -8.0272   24.3818  -31.4042 H   0  0  0  0  0  0  0  0  0  0  0  0
   -9.4093   22.3092  -31.3121 H   0  0  0  0  0  0  0  0  0  0  0  0
   -5.9230   19.9386  -32.2825 H   0  0  0  0  0  0  0  0  0  0  0  0
   -4.5340   22.0087  -32.3612 H   0  0  0  0  0  0  0  0  0  0  0  0
   -4.7599   23.1511  -29.3156 H   0  0  0  0  0  0  0  0  0  0  0  0
   -3.8391   21.7568  -27.4673 H   0  0  0  0  0  0  0  0  0  0  0  0
   -1.6317   22.3216  -26.4491 H   0  0  0  0  0  0  0  0  0  0  0  0
   -0.0340   27.3527  -27.1792 H   0  0  0  0  0  0  0  0  0  0  0  0
   -1.5790   26.4430  -26.9541 H   0  0  0  0  0  0  0  0  0  0  0  0
   -0.8753   28.8564  -25.6969 H   0  0  0  0  0  0  0  0  0  0  0  0
   -2.2037   27.7299  -25.2113 H   0  0  0  0  0  0  0  0  0  0  0  0
   -0.2508   26.0702  -22.7598 H   0  0  0  0  0  0  0  0  0  0  0  0
   -1.9257   26.3556  -23.4060 H   0  0  0  0  0  0  0  0  0  0  0  0
   -0.0763   24.3675  -24.2438 H   0  0  0  0  0  0  0  0  0  0  0  0
   -1.6430   24.8139  -25.0114 H   0  0  0  0  0  0  0  0  0  0  0  0
   -1.2464   25.6782  -29.1580 H   0  0  0  0  0  0  0  0  0  0  0  0
  1  2  2  0
  2  3  1  0
  3  4  1  0
  4  5  2  0
  5  6  1  0
  6  7  2  0
  7  8  1  0
  7  9  1  0
  9 10  2  0
  2 11  1  0
 11 12  1  0
 12 13  2  0
 13 14  1  0
 14 15  2  0
 15 16  1  0
 16 17  1  0
 17 18  2  0
 17 19  2  0
 17 20  1  0
 20 21  1  0
 21 22  1  0
 22 23  1  0
 23 24  1  0
 24 25  1  0
 16 26  2  0
 10  4  1  0
 26 12  1  0
 25 20  1  0
  5 27  1  0
  6 28  1  0
  9 29  1  0
 10 30  1  0
 13 31  1  0
 14 32  1  0
 15 33  1  0
 21 34  1  0
 21 35  1  0
 22 36  1  0
 22 37  1  0
 24 38  1  0
 24 39  1  0
 25 40  1  0
 25 41  1  0
 26 42  1  0
M  CHG  2   3  -1  11  -1
M  END
>  <UniqueID>  (3) 
3

>  <SMILES>  (3) 
O=C([N-]c1ccc(Cl)cc1)[N-]c1cccc(S(=O)(=O)N2CCOCC2)c1

>  <Energy>  (3) 
57.342785757033596

>  <Genealogy>  (3) 
O=C([N-]c1ccc(Cl)cc1)[N-]c1cccc(S(=O)(=O)N2CCOCC2)c1 (protonated)
O=C([N-]c1ccc(Cl)cc1)[N-]c1cccc(S(=O)(=O)N2CCOCC2)c1 (3D coordinates assigned)
O=C([N-]c1ccc(Cl)cc1)[N-]c1cccc(S(=O)(=O)N2CCOCC2)c1 (nonaromatic ring conformer: 57.342785757033596 kcal/mol)

>  <smiles>  (3) 
O=C(Nc1ccc(Cl)cc1)Nc1cccc(S(=O)(=O)N2CCOCC2)c1

>  <score_type>  (3) 
oracle

>  <origin>  (3) 
adgpu

>  <m_score__min__energy>  (3) 
-12.18

>  <m_primary>  (3) 
energy

$$$$
3:0
     RDKit          3D

 31 33  0  0  0  0  0  0  0  0999 V2000
   -3.9580   25.4380  -30.2530 O   0  0  0  0  0  0  0  0  0  0  0  0
   -3.8380   24.2130  -29.9820 C   0  0  0  0  0  0  0  0  0  0  0  0
   -2.9500   23.7980  -28.9300 N   0  0  0  0  0  0  0  0  0  0  0  0
   -2.4660   24.6930  -27.9150 C   0  0  0  0  0  0  0  0  0  0  0  0
   -2.8960   24.5230  -26.5900 C   0  0  0  0  0  0  0  0  0  0  0  0
   -2.4480   25.3840  -25.5830 C   0  0  0  0  0  0  0  0  0  0  0  0
   -1.5790   26.4310  -25.8950 C   0  0  0  0  0  0  0  0  0  0  0  0
   -1.1650   26.6270  -27.2160 C   0  0  0  0  0  0  0  0  0  0  0  0
   -1.6140   25.7730  -28.2280 C   0  0  0  0  0  0  0  0  0  0  0  0
   -1.2300   26.0200  -29.5420 O   0  0  0  0  0  0  0  0  0  0  0  0
   -4.5840   23.2290  -30.7910 C   0  0  0  0  0  0  0  0  0  0  0  0
   -5.9410   22.9570  -30.5540 C   0  0  0  0  0  0  0  0  0  0  0  0
   -6.5960   22.0160  -31.3540 C   0  0  0  0  0  0  0  0  0  0  0  0
   -7.9520   21.7160  -31.1500 C   0  0  0  0  0  0  0  0  0  0  0  0
   -8.5910   20.7730  -31.9590 C   0  0  0  0  0  0  0  0  0  0  0  0
   -7.8840   20.1260  -32.9760 C   0  0  0  0  0  0  0  0  0  0  0  0
   -6.5340   20.4180  -33.1910 C   0  0  0  0  0  0  0  0  0  0  0  0
   -5.8800   21.3660  -32.3820 C   0  0  0  0  0  0  0  0  0  0  0  0
   -4.5240   21.6980  -32.5630 C   0  0  0  0  0  0  0  0  0  0  0  0
   -3.8420   21.1480  -33.4690 O   0  0  0  0  0  0  0  0  0  0  0  0
   -3.9460   22.5980  -31.7760 O   0  0  0  0  0  0  0  0  0  0  0  0
   -2.4870   22.8650  -29.0140 H   0  0  0  0  0  0  0  0  0  0  0  0
   -3.5903   23.7068  -26.3417 H   0  0  0  0  0  0  0  0  0  0  0  0
   -2.7805   25.2361  -24.5449 H   0  0  0  0  0  0  0  0  0  0  0  0
   -1.2197   27.1022  -25.1011 H   0  0  0  0  0  0  0  0  0  0  0  0
   -0.4839   27.4556  -27.4599 H   0  0  0  0  0  0  0  0  0  0  0  0
   -6.4815   23.4774  -29.7496 H   0  0  0  0  0  0  0  0  0  0  0  0
   -8.5126   22.2243  -30.3517 H   0  0  0  0  0  0  0  0  0  0  0  0
   -9.6533   20.5393  -31.7950 H   0  0  0  0  0  0  0  0  0  0  0  0
   -8.3918   19.3841  -33.6098 H   0  0  0  0  0  0  0  0  0  0  0  0
   -5.9822   19.9063  -33.9933 H   0  0  0  0  0  0  0  0  0  0  0  0
  1  2  2  0
  2  3  1  0
  3  4  1  0
  4  5  2  0
  5  6  1  0
  6  7  2  0
  7  8  1  0
  8  9  2  0
  9 10  1  0
  2 11  1  0
 11 12  2  0
 12 13  1  0
 13 14  2  0
 14 15  1  0
 15 16  2  0
 16 17  1  0
 17 18  2  0
 18 19  1  0
 19 20  2  0
 19 21  1  0
  9  4  1  0
 21 11  1  0
 18 13  1  0
  3 22  1  0
  5 23  1  0
  6 24  1  0
  7 25  1  0
  8 26  1  0
 12 27  1  0
 14 28  1  0
 15 29  1  0
 16 30  1  0
 17 31  1  0
M  CHG  1  10  -1
M  END
>  <UniqueID>  (4) 
4

>  <SMILES>  (4) 
O=C(Nc1ccccc1[O-])c1cc2ccccc2c(=O)o1

>  <Energy>  (4) 
45.84832021548982

>  <Genealogy>  (4) 
O=C(Nc1ccccc1[O-])c1cc2ccccc2c(=O)o1 (protonated)
O=C(Nc1ccccc1[O-])c1cc2ccccc2c(=O)o1 (3D coordinates assigned)
O=C(Nc1ccccc1[O-])c1cc2ccccc2c(=O)o1 (optimized conformer: 45.84832021548982 kcal/mol)

>  <smiles>  (4) 
O=C(Nc1ccccc1O)c1cc2ccccc2c(=O)o1

>  <score_type>  (4) 
oracle

>  <origin>  (4) 
adgpu

>  <m_score__min__energy>  (4) 
-10.779999999999999

>  <m_primary>  (4) 
energy

$$$$
4:0
     RDKit          3D

 53 56  0  0  0  0  0  0  0  0999 V2000
   -4.8780   23.5490  -31.6240 O   0  0  0  0  0  0  0  0  0  0  0  0
   -5.6010   22.9560  -30.7770 C   0  0  0  0  0  0  0  0  0  0  0  0
   -5.2770   23.0380  -29.3790 N   0  0  0  0  0  0  0  0  0  0  0  0
   -3.9720   23.3830  -28.8840 C   0  0  0  0  0  0  0  0  0  0  0  0
   -2.8340   23.0010  -29.6110 C   0  0  0  0  0  0  0  0  0  0  0  0
   -1.5550   23.3400  -29.1590 C   0  0  0  0  0  0  0  0  0  0  0  0
   -1.3980   24.0800  -27.9820 C   0  0  0  0  0  0  0  0  0  0  0  0
    0.2200   24.5120  -27.4350 S   0  0  0  0  0  0  0  0  0  0  0  0
    0.6280   23.6850  -26.2450 O   0  0  0  0  0  0  0  0  0  0  0  0
    1.1910   24.2590  -28.5540 O   0  0  0  0  0  0  0  0  0  0  0  0
    0.2660   26.1940  -27.0110 N   0  0  0  0  0  0  0  0  0  0  0  0
   -0.0960   26.6710  -25.8590 C   0  0  0  0  0  0  0  0  0  0  0  0
   -0.0540   27.9880  -25.5750 N   0  0  0  0  0  0  0  0  0  0  0  0
   -0.4710   28.2740  -24.3410 N   0  0  0  0  0  0  0  0  0  0  0  0
   -0.8500   27.1860  -23.6340 C   0  0  0  0  0  0  0  0  0  0  0  0
   -0.6690   25.7800  -24.5480 S   0  0  0  0  0  0  0  0  0  0  0  0
   -2.5300   24.4860  -27.2630 C   0  0  0  0  0  0  0  0  0  0  0  0
   -3.8100   24.1440  -27.7120 C   0  0  0  0  0  0  0  0  0  0  0  0
   -6.8110   22.2290  -31.2360 C   0  0  0  0  0  0  0  0  0  0  0  0
   -6.7570   20.8350  -31.4100 C   0  0  0  0  0  0  0  0  0  0  0  0
   -7.8950   20.1170  -31.8050 C   0  0  0  0  0  0  0  0  0  0  0  0
   -7.8310   18.3600  -31.9560 S   0  0  0  0  0  0  0  0  0  0  0  0
   -6.9640   17.7990  -30.8600 O   0  0  0  0  0  0  0  0  0  0  0  0
   -9.2180   17.7980  -31.7820 O   0  0  0  0  0  0  0  0  0  0  0  0
   -7.1750   17.8630  -33.5030 N   0  0  0  0  0  0  0  0  0  0  0  0
   -6.8160   16.4280  -33.5290 C   0  0  0  0  0  0  0  0  0  0  0  0
   -5.3620   16.1380  -33.1050 C   0  0  0  0  0  0  0  0  0  0  0  0
   -4.3300   17.1150  -33.6970 C   0  0  0  0  0  0  0  0  0  0  0  0
   -4.9590   18.1050  -34.6730 C   0  0  0  0  0  0  0  0  0  0  0  0
   -6.1430   18.8040  -34.0010 C   0  0  0  0  0  0  0  0  0  0  0  0
   -9.0940   20.8010  -32.0480 C   0  0  0  0  0  0  0  0  0  0  0  0
   -9.1570   22.1850  -31.8810 C   0  0  0  0  0  0  0  0  0  0  0  0
   -8.0300   22.9000  -31.4690 C   0  0  0  0  0  0  0  0  0  0  0  0
   -8.1490   24.2360  -31.2540 F   0  0  0  0  0  0  0  0  0  0  0  0
   -6.0600   22.9640  -28.6890 H   0  0  0  0  0  0  0  0  0  0  0  0
   -2.9492   22.4301  -30.5442 H   0  0  0  0  0  0  0  0  0  0  0  0
   -0.6697   23.0240  -29.7304 H   0  0  0  0  0  0  0  0  0  0  0  0
   -1.2262   27.2138  -22.6007 H   0  0  0  0  0  0  0  0  0  0  0  0
   -2.4118   25.0758  -26.3421 H   0  0  0  0  0  0  0  0  0  0  0  0
   -4.6943   24.4718  -27.1458 H   0  0  0  0  0  0  0  0  0  0  0  0
   -5.8113   20.3014  -31.2343 H   0  0  0  0  0  0  0  0  0  0  0  0
   -7.4895   15.8904  -32.8454 H   0  0  0  0  0  0  0  0  0  0  0  0
   -6.9163   16.0934  -34.5721 H   0  0  0  0  0  0  0  0  0  0  0  0
   -5.3035   16.1960  -32.0081 H   0  0  0  0  0  0  0  0  0  0  0  0
   -5.1116   15.1387  -33.4905 H   0  0  0  0  0  0  0  0  0  0  0  0
   -3.8639   17.6775  -32.8746 H   0  0  0  0  0  0  0  0  0  0  0  0
   -3.5876   16.5228  -34.2520 H   0  0  0  0  0  0  0  0  0  0  0  0
   -4.2101   18.8548  -34.9678 H   0  0  0  0  0  0  0  0  0  0  0  0
   -5.3105   17.5661  -35.5652 H   0  0  0  0  0  0  0  0  0  0  0  0
   -5.7652   19.3899  -33.1501 H   0  0  0  0  0  0  0  0  0  0  0  0
   -6.6210   19.4383  -34.7620 H   0  0  0  0  0  0  0  0  0  0  0  0
   -9.9870   20.2458  -32.3710 H   0  0  0  0  0  0  0  0  0  0  0  0
  -10.1004   22.7164  -32.0751 H   0  0  0  0  0  0  0  0  0  0  0  0
  1  2  2  0
  2  3  1  0
  3  4  1  0
  4  5  2  0
  5  6  1  0
  6  7  2  0
  7  8  1  0
  8  9  2  0
  8 10  2  0
  8 11  1  0
 11 12  2  3
 12 13  1  0
 13 14  1  0
 14 15  2  0
 15 16  1  0
  7 17  1  0
 17 18  2  0
  2 19  1  0
 19 20  2  0
 20 21  1  0
 21 22  1  0
 22 23  2  0
 22 24  2  0
 22 25  1  0
 25 26  1  0
 26 27  1  0
 27 28  1  0
 28 29  1  0
 29 30  1  0
 21 31  2  0
 31 32  1  0
 32 33  2  0
 33 34  1  0
 18  4  1  0
 33 19  1  0
 16 12  1  0
 30 25  1  0
  3 35  1  0
  5 36  1  0
  6 37  1  0
 15 38  1  0
 17 39  1  0
 18 40  1  0
 20 41  1  0
 26 42  1  0
 26 43  1  0
 27 44  1  0
 27 45  1  0
 28 46  1  0
 28 47  1  0
 29 48  1  0
 29 49  1  0
 30 50  1  0
 30 51  1  0
 31 52  1  0
 32 53  1  0
M  CHG  1  13  -1
M  END
>  <UniqueID>  (5) 
5

>  <SMILES>  (5) 
O=C(Nc1ccc(S(=O)(=O)N=c2[n-]ncs2)cc1)c1cc(S(=O)(=O)N2CCCCC2)ccc1F

>  <Energy>  (5) 
107.72545027502765

>  <Genealogy>  (5) 
O=C(Nc1ccc(S(=O)(=O)N=c2[n-]ncs2)cc1)c1cc(S(=O)(=O)N2CCCCC2)ccc1F (protonated)
O=C(Nc1ccc(S(=O)(=O)N=c2[n-]ncs2)cc1)c1cc(S(=O)(=O)N2CCCCC2)ccc1F (3D coordinates assigned)
O=C(Nc1ccc(S(=O)(=O)N=c2[n-]ncs2)cc1)c1cc(S(=O)(=O)N2CCCCC2)ccc1F (nonaromatic ring conformer: 107.72545027502765 kcal/mol)

>  <smiles>  (5) 
O=C(Nc1ccc(S(=O)(=O)N=c2[nH]ncs2)cc1)c1cc(S(=O)(=O)N2CCCCC2)ccc1F

>  <score_type>  (5) 
oracle

>  <origin>  (5) 
adgpu

>  <m_score__min__energy>  (5) 
-11.02

>  <m_primary>  (5) 
energy

$$$$
5:0
     RDKit          3D

 39 41  0  0  0  0  0  0  0  0999 V2000
   -4.2030   19.9660  -33.4610 C   0  0  0  0  0  0  0  0  0  0  0  0
   -5.4340   20.6390  -32.9120 C   0  0  0  0  0  0  0  0  0  0  0  0
   -6.6800   20.0060  -33.0700 C   0  0  0  0  0  0  0  0  0  0  0  0
   -7.8490   20.6070  -32.6020 C   0  0  0  0  0  0  0  0  0  0  0  0
   -7.7920   21.8530  -31.9780 C   0  0  0  0  0  0  0  0  0  0  0  0
   -6.5670   22.5020  -31.8230 C   0  0  0  0  0  0  0  0  0  0  0  0
   -5.3770   21.9110  -32.2850 C   0  0  0  0  0  0  0  0  0  0  0  0
   -4.0770   22.6710  -32.1230 C   0  0  0  0  0  0  0  0  0  0  0  0
   -3.7810   22.9040  -30.7070 N   0  0  0  0  0  0  0  0  0  0  0  0
   -3.6510   21.9690  -29.7410 C   0  0  0  0  0  0  0  0  0  0  0  0
   -3.7440   20.6000  -29.9690 O   0  0  0  0  0  0  0  0  0  0  0  0
   -3.4180   22.5540  -28.5080 C   0  0  0  0  0  0  0  0  0  0  0  0
   -3.4040   23.9150  -28.7440 C   0  0  0  0  0  0  0  0  0  0  0  0
   -3.2460   24.9270  -27.7420 N   0  0  0  0  0  0  0  0  0  0  0  0
   -1.9770   25.3140  -27.1950 C   0  0  0  0  0  0  0  0  0  0  0  0
   -1.6790   24.9960  -25.8610 C   0  0  0  0  0  0  0  0  0  0  0  0
   -0.4460   25.3510  -25.3070 C   0  0  0  0  0  0  0  0  0  0  0  0
    0.5060   26.0140  -26.0860 C   0  0  0  0  0  0  0  0  0  0  0  0
    0.2320   26.3100  -27.4230 C   0  0  0  0  0  0  0  0  0  0  0  0
   -0.9990   25.9540  -27.9850 C   0  0  0  0  0  0  0  0  0  0  0  0
   -1.2330   26.2170  -29.3310 O   0  0  0  0  0  0  0  0  0  0  0  0
   -3.6590   24.0970  -30.0920 C   0  0  0  0  0  0  0  0  0  0  0  0
   -3.8110   25.3220  -30.7330 O   0  0  0  0  0  0  0  0  0  0  0  0
   -3.5718   19.6209  -32.6288 H   0  0  0  0  0  0  0  0  0  0  0  0
   -4.5000   19.1048  -34.0775 H   0  0  0  0  0  0  0  0  0  0  0  0
   -3.6384   20.6809  -34.0775 H   0  0  0  0  0  0  0  0  0  0  0  0
   -6.7335   19.0266  -33.5679 H   0  0  0  0  0  0  0  0  0  0  0  0
   -8.8162   20.0978  -32.7253 H   0  0  0  0  0  0  0  0  0  0  0  0
   -8.7142   22.3245  -31.6076 H   0  0  0  0  0  0  0  0  0  0  0  0
   -6.5312   23.4867  -31.3341 H   0  0  0  0  0  0  0  0  0  0  0  0
   -3.2597   22.0863  -32.5704 H   0  0  0  0  0  0  0  0  0  0  0  0
   -4.1734   23.6441  -32.6268 H   0  0  0  0  0  0  0  0  0  0  0  0
   -4.3810   20.2310  -30.6660 H   0  0  0  0  0  0  0  0  0  0  0  0
   -3.2744   22.0432  -27.5444 H   0  0  0  0  0  0  0  0  0  0  0  0
   -4.0960   25.4520  -27.4360 H   0  0  0  0  0  0  0  0  0  0  0  0
   -2.4208   24.4638  -25.2474 H   0  0  0  0  0  0  0  0  0  0  0  0
   -0.2248   25.1084  -24.2571 H   0  0  0  0  0  0  0  0  0  0  0  0
    1.4718   26.3029  -25.6458 H   0  0  0  0  0  0  0  0  0  0  0  0
    0.9863   26.8247  -28.0363 H   0  0  0  0  0  0  0  0  0  0  0  0
  1  2  1  0
  2  3  2  0
  3  4  1  0
  4  5  2  0
  5  6  1  0
  6  7  2  0
  7  8  1  0
  8  9  1  0
  9 10  1  0
 10 11  1  0
 10 12  2  0
 12 13  1  0
 13 14  1  0
 14 15  1  0
 15 16  2  0
 16 17  1  0
 17 18  2  0
 18 19  1  0
 19 20  2  0
 20 21  1  0
 13 22  2  0
 22 23  1  0
  7  2  1  0
 22  9  1  0
 20 15  1  0
  1 24  1  0
  1 25  1  0
  1 26  1  0
  3 27  1  0
  4 28  1  0
  5 29  1  0
  6 30  1  0
  8 31  1  0
  8 32  1  0
 11 33  1  0
 12 34  1  0
 14 35  1  0
 16 36  1  0
 17 37  1  0
 18 38  1  0
 19 39  1  0
M  CHG  2  21  -1  23  -1
M  END
>  <UniqueID>  (6) 
6

>  <SMILES>  (6) 
Cc1ccccc1Cn1c(O)cc(Nc2ccccc2[O-])c1[O-]

>  <Energy>  (6) 
75.96062944080194

>  <Genealogy>  (6) 
Cc1ccccc1Cn1c(O)cc(Nc2ccccc2[O-])c1[O-] (protonated)
Cc1ccccc1Cn1c(O)cc(Nc2ccccc2[O-])c1[O-] (3D coordinates assigned)
Cc1ccccc1Cn1c(O)cc(Nc2ccccc2[O-])c1[O-] (optimized conformer: 75.96062944080194 kcal/mol)

>  <smiles>  (6) 
Cc1ccccc1Cn1c(O)cc(Nc2ccccc2O)c1O

>  <score_type>  (6) 
oracle

>  <origin>  (6) 
adgpu

>  <m_score__min__energy>  (6) 
-13.18

>  <m_primary>  (6) 
energy

$$$$
6:0
     RDKit          3D

 53 55  0  0  0  0  0  0  0  0999 V2000
    0.7720   19.6150  -28.7340 C   0  0  0  0  0  0  0  0  0  0  0  0
   -0.5260   20.3220  -28.4740 C   0  0  0  0  0  0  0  0  0  0  0  0
   -1.5230   19.7120  -27.7040 C   0  0  0  0  0  0  0  0  0  0  0  0
   -2.7150   20.3870  -27.4350 C   0  0  0  0  0  0  0  0  0  0  0  0
   -2.9240   21.6920  -27.9140 C   0  0  0  0  0  0  0  0  0  0  0  0
   -4.2310   22.3780  -27.6100 C   0  0  0  0  0  0  0  0  0  0  0  0
   -1.9130   22.3180  -28.6840 C   0  0  0  0  0  0  0  0  0  0  0  0
   -2.0980   23.9700  -29.3010 S   0  0  0  0  0  0  0  0  0  0  0  0
   -0.7470   24.4920  -29.7010 O   0  0  0  0  0  0  0  0  0  0  0  0
   -2.6780   24.8680  -28.2460 O   0  0  0  0  0  0  0  0  0  0  0  0
   -3.1240   24.0120  -30.7020 N   0  0  0  0  0  0  0  0  0  0  0  0
   -4.5590   23.9310  -30.7090 C   0  0  0  0  0  0  0  0  0  0  0  0
   -5.3400   25.0180  -30.2690 C   0  0  0  0  0  0  0  0  0  0  0  0
   -6.7300   24.9220  -30.2270 C   0  0  0  0  0  0  0  0  0  0  0  0
   -7.3590   23.7430  -30.6150 C   0  0  0  0  0  0  0  0  0  0  0  0
   -6.6050   22.6560  -31.0560 C   0  0  0  0  0  0  0  0  0  0  0  0
   -5.1970   22.7280  -31.1180 C   0  0  0  0  0  0  0  0  0  0  0  0
   -4.3980   21.5640  -31.6190 C   0  0  0  0  0  0  0  0  0  0  0  0
   -3.9130   20.7580  -30.7750 O   0  0  0  0  0  0  0  0  0  0  0  0
   -4.1870   21.3300  -33.0430 N   0  0  1  0  0  0  0  0  0  0  0  0
   -2.7800   21.5420  -33.4430 C   0  0  0  0  0  0  0  0  0  0  0  0
   -4.6800   19.9950  -33.4650 C   0  0  0  0  0  0  0  0  0  0  0  0
   -6.0470   19.6430  -32.9120 C   0  0  0  0  0  0  0  0  0  0  0  0
   -7.1720   20.4240  -33.2270 C   0  0  0  0  0  0  0  0  0  0  0  0
   -8.4310   20.0830  -32.7220 C   0  0  0  0  0  0  0  0  0  0  0  0
   -8.5750   18.9690  -31.8920 C   0  0  0  0  0  0  0  0  0  0  0  0
   -7.4590   18.1970  -31.5600 C   0  0  0  0  0  0  0  0  0  0  0  0
   -6.2000   18.5330  -32.0640 C   0  0  0  0  0  0  0  0  0  0  0  0
   -0.7190   21.6270  -28.9420 C   0  0  0  0  0  0  0  0  0  0  0  0
    1.2469   19.3563  -27.7761 H   0  0  0  0  0  0  0  0  0  0  0  0
    0.5806   18.6965  -29.3082 H   0  0  0  0  0  0  0  0  0  0  0  0
    1.4399   20.2740  -29.3082 H   0  0  0  0  0  0  0  0  0  0  0  0
   -1.3668   18.6972  -27.3094 H   0  0  0  0  0  0  0  0  0  0  0  0
   -3.4987   19.8927  -26.8422 H   0  0  0  0  0  0  0  0  0  0  0  0
   -4.3638   22.4477  -26.5203 H   0  0  0  0  0  0  0  0  0  0  0  0
   -4.2242   23.3888  -28.0439 H   0  0  0  0  0  0  0  0  0  0  0  0
   -5.0590   21.7983  -28.0439 H   0  0  0  0  0  0  0  0  0  0  0  0
   -4.8484   25.9509  -29.9558 H   0  0  0  0  0  0  0  0  0  0  0  0
   -7.3301   25.7789  -29.8869 H   0  0  0  0  0  0  0  0  0  0  0  0
   -8.4557   23.6681  -30.5737 H   0  0  0  0  0  0  0  0  0  0  0  0
   -7.1147   21.7297  -31.3597 H   0  0  0  0  0  0  0  0  0  0  0  0
   -4.7270   22.0480  -33.5760 H   0  0  0  0  0  0  0  0  0  0  0  0
   -2.1534   21.6364  -32.5438 H   0  0  0  0  0  0  0  0  0  0  0  0
   -2.4359   20.6856  -34.0414 H   0  0  0  0  0  0  0  0  0  0  0  0
   -2.7035   22.4618  -34.0414 H   0  0  0  0  0  0  0  0  0  0  0  0
   -4.7355   19.9775  -34.5635 H   0  0  0  0  0  0  0  0  0  0  0  0
   -3.9730   19.2525  -33.0665 H   0  0  0  0  0  0  0  0  0  0  0  0
   -7.0620   21.3072  -33.8734 H   0  0  0  0  0  0  0  0  0  0  0  0
   -9.3093   20.6933  -32.9790 H   0  0  0  0  0  0  0  0  0  0  0  0
   -9.5668   18.6996  -31.4999 H   0  0  0  0  0  0  0  0  0  0  0  0
   -7.5717   17.3235  -30.9010 H   0  0  0  0  0  0  0  0  0  0  0  0
   -5.3234   17.9251  -31.7954 H   0  0  0  0  0  0  0  0  0  0  0  0
    0.0771   22.1183  -29.5207 H   0  0  0  0  0  0  0  0  0  0  0  0
  1  2  1  0
  2  3  2  0
  3  4  1  0
  4  5  2  0
  5  6  1  0
  5  7  1  0
  7  8  1  0
  8  9  2  0
  8 10  2  0
  8 11  1  0
 11 12  1  0
 12 13  2  0
 13 14  1  0
 14 15  2  0
 15 16  1  0
 16 17  2  0
 17 18  1  0
 18 19  2  0
 18 20  1  0
 20 21  1  0
 20 22  1  0
 22 23  1  0
 23 24  2  0
 24 25  1  0
 25 26  2  0
 26 27  1  0
 27 28  2  0
  7 29  2  0
 29  2  1  0
 17 12  1  0
 28 23  1  0
  1 30  1  0
  1 31  1  0
  1 32  1  0
  3 33  1  0
  4 34  1  0
  6 35  1  0
  6 36  1  0
  6 37  1  0
 13 38  1  0
 14 39  1  0
 15 40  1  0
 16 41  1  0
 20 42  1  6
 21 43  1  0
 21 44  1  0
 21 45  1  0
 22 46  1  0
 22 47  1  0
 24 48  1  0
 25 49  1  0
 26 50  1  0
 27 51  1  0
 28 52  1  0
 29 53  1  0
M  CHG  2  11  -1  20   1
M  END
>  <UniqueID>  (7) 
7

>  <SMILES>  (7) 
Cc1ccc(C)c(S(=O)(=O)[N-]c2ccccc2C(=O)[N@@H+](C)Cc2ccccc2)c1

>  <Energy>  (7) 
67.01622251006185

>  <Genealogy>  (7) 
Cc1ccc(C)c(S(=O)(=O)[N-]c2ccccc2C(=O)[NH+](C)Cc2ccccc2)c1 (protonated)
Cc1ccc(C)c(S(=O)(=O)[N-]c2ccccc2C(=O)[N@@H+](C)Cc2ccccc2)c1 (chirality)
Cc1ccc(C)c(S(=O)(=O)[N-]c2ccccc2C(=O)[N@@H+](C)Cc2ccccc2)c1 (3D coordinates assigned)
Cc1ccc(C)c(S(=O)(=O)[N-]c2ccccc2C(=O)[N@@H+](C)Cc2ccccc2)c1 (optimized conformer: 67.01622251006185 kcal/mol)

>  <smiles>  (7) 
Cc1ccc(C)c(S(=O)(=O)Nc2ccccc2C(=O)N(C)Cc2ccccc2)c1

>  <score_type>  (7) 
oracle

>  <origin>  (7) 
adgpu

>  <m_score__min__energy>  (7) 
-10.25

>  <m_primary>  (7) 
energy

$$$$
7:0
     RDKit          3D

 46 48  0  0  0  0  0  0  0  0999 V2000
    0.4180   23.9850  -26.0020 C   0  0  0  0  0  0  0  0  0  0  0  0
    0.4800   24.4400  -27.4280 C   0  0  0  0  0  0  0  0  0  0  0  0
    1.5460   24.9690  -27.8440 O   0  0  0  0  0  0  0  0  0  0  0  0
   -0.6780   24.3020  -28.3490 C   0  0  0  0  0  0  0  0  0  0  0  0
   -1.5030   25.4090  -28.6200 C   0  0  0  0  0  0  0  0  0  0  0  0
   -1.2390   26.6480  -28.0500 O   0  0  0  0  0  0  0  0  0  0  0  0
   -2.5410   25.2930  -29.4400 O   0  0  0  0  0  0  0  0  0  0  0  0
   -2.8680   24.1550  -30.0410 C   0  0  0  0  0  0  0  0  0  0  0  0
   -3.8780   24.1330  -30.7930 O   0  0  0  0  0  0  0  0  0  0  0  0
   -2.1090   22.9900  -29.8220 C   0  0  0  0  0  0  0  0  0  0  0  0
   -2.4800   21.7080  -30.4750 C   0  0  0  0  0  0  0  0  0  0  0  0
   -2.8890   20.5320  -29.6220 C   0  0  0  0  0  0  0  0  0  0  0  0
   -2.5050   21.6590  -31.7780 N   0  0  0  0  0  0  0  0  0  0  0  0
   -2.8010   20.5210  -32.6010 C   0  0  0  0  0  0  0  0  0  0  0  0
   -1.8100   19.9010  -33.3810 C   0  0  0  0  0  0  0  0  0  0  0  0
   -2.1370   18.8160  -34.1970 C   0  0  0  0  0  0  0  0  0  0  0  0
   -3.4570   18.3600  -34.2630 C   0  0  0  0  0  0  0  0  0  0  0  0
   -4.4630   18.9960  -33.5270 C   0  0  0  0  0  0  0  0  0  0  0  0
   -5.8100   18.5200  -33.6520 N   0  0  0  0  0  0  0  0  0  0  0  0
   -6.9390   18.3680  -32.3450 S   0  0  0  0  0  0  0  0  0  0  0  0
   -6.2010   17.9410  -31.1070 O   0  0  0  0  0  0  0  0  0  0  0  0
   -7.9590   17.3220  -32.6950 O   0  0  0  0  0  0  0  0  0  0  0  0
   -7.7650   19.8990  -32.0760 C   0  0  0  0  0  0  0  0  0  0  0  0
   -7.0380   21.0470  -31.7350 C   0  0  0  0  0  0  0  0  0  0  0  0
   -7.6960   22.2660  -31.5420 C   0  0  0  0  0  0  0  0  0  0  0  0
   -9.0850   22.3420  -31.6870 C   0  0  0  0  0  0  0  0  0  0  0  0
   -9.8160   21.1980  -32.0220 C   0  0  0  0  0  0  0  0  0  0  0  0
   -9.1590   19.9780  -32.2130 C   0  0  0  0  0  0  0  0  0  0  0  0
   -4.1270   20.0830  -32.6980 C   0  0  0  0  0  0  0  0  0  0  0  0
   -0.9980   23.0750  -28.9630 C   0  0  0  0  0  0  0  0  0  0  0  0
   -0.2240   21.9450  -28.7180 O   0  0  0  0  0  0  0  0  0  0  0  0
    0.5361   24.8518  -25.3351 H   0  0  0  0  0  0  0  0  0  0  0  0
   -0.5537   23.5058  -25.8119 H   0  0  0  0  0  0  0  0  0  0  0  0
    1.2261   23.2633  -25.8119 H   0  0  0  0  0  0  0  0  0  0  0  0
   -2.7958   20.7999  -28.5592 H   0  0  0  0  0  0  0  0  0  0  0  0
   -3.9329   20.2645  -29.8426 H   0  0  0  0  0  0  0  0  0  0  0  0
   -2.2363   19.6745  -29.8426 H   0  0  0  0  0  0  0  0  0  0  0  0
   -0.7746   20.2711  -33.3487 H   0  0  0  0  0  0  0  0  0  0  0  0
   -1.3544   18.3190  -34.7891 H   0  0  0  0  0  0  0  0  0  0  0  0
   -3.7062   17.4964  -34.8971 H   0  0  0  0  0  0  0  0  0  0  0  0
   -5.9457   20.9894  -31.6186 H   0  0  0  0  0  0  0  0  0  0  0  0
   -7.1209   23.1652  -31.2761 H   0  0  0  0  0  0  0  0  0  0  0  0
   -9.6022   23.3013  -31.5376 H   0  0  0  0  0  0  0  0  0  0  0  0
  -10.9085   21.2575  -32.1354 H   0  0  0  0  0  0  0  0  0  0  0  0
   -9.7368   19.0783  -32.4713 H   0  0  0  0  0  0  0  0  0  0  0  0
   -4.9131   20.5926  -32.1215 H   0  0  0  0  0  0  0  0  0  0  0  0
  1  2  1  0
  2  3  2  0
  2  4  1  0
  4  5  2  0
  5  6  1  0
  5  7  1  0
  7  8  1  0
  8  9  2  0
  8 10  1  0
 10 11  1  0
 11 12  1  0
 11 13  2  3
 13 14  1  0
 14 15  2  0
 15 16  1  0
 16 17  2  0
 17 18  1  0
 18 19  1  0
 19 20  1  0
 20 21  2  0
 20 22  2  0
 20 23  1  0
 23 24  2  0
 24 25  1  0
 25 26  2  0
 26 27  1  0
 27 28  2  0
 18 29  2  0
 10 30  2  0
 30 31  1  0
 30  4  1  0
 29 14  1  0
 28 23  1  0
  1 32  1  0
  1 33  1  0
  1 34  1  0
 12 35  1  0
 12 36  1  0
 12 37  1  0
 15 38  1  0
 16 39  1  0
 17 40  1  0
 24 41  1  0
 25 42  1  0
 26 43  1  0
 27 44  1  0
 28 45  1  0
 29 46  1  0
M  CHG  3   6  -1  19  -1  31  -1
M  END
>  <UniqueID>  (8) 
8

>  <SMILES>  (8) 
CC(=O)c1c([O-])oc(=O)c(C(C)=Nc2cccc([N-]S(=O)(=O)c3ccccc3)c2)c1[O-]

>  <Energy>  (8) 
70.83558061673854

>  <Genealogy>  (8) 
CC(=O)c1c([O-])oc(=O)c(C(C)=Nc2cccc([N-]S(=O)(=O)c3ccccc3)c2)c1[O-] (protonated)
CC(=O)c1c([O-])oc(=O)c(C(C)=Nc2cccc([N-]S(=O)(=O)c3ccccc3)c2)c1[O-] (3D coordinates assigned)
CC(=O)c1c([O-])oc(=O)c(C(C)=Nc2cccc([N-]S(=O)(=O)c3ccccc3)c2)c1[O-] (optimized conformer: 70.83558061673854 kcal/mol)

>  <smiles>  (8) 
CC(=O)c1c(O)oc(=O)c(C(C)=Nc2cccc(NS(=O)(=O)c3ccccc3)c2)c1O

>  <score_type>  (8) 
oracle

>  <origin>  (8) 
adgpu

>  <m_score__min__energy>  (8) 
-12.1

>  <m_primary>  (8) 
energy

$$$$
8:0
     RDKit          3D

 50 52  0  0  0  0  0  0  0  0999 V2000
   -2.5260   22.2120  -31.1420 C   0  0  0  0  0  0  0  0  0  0  0  0
   -3.4420   22.9680  -31.9270 O   0  0  0  0  0  0  0  0  0  0  0  0
   -4.6740   23.4520  -31.4620 C   0  0  0  0  0  0  0  0  0  0  0  0
   -5.8910   22.7950  -31.7290 C   0  0  0  0  0  0  0  0  0  0  0  0
   -7.1040   23.3140  -31.2470 C   0  0  0  0  0  0  0  0  0  0  0  0
   -8.4000   22.6090  -31.5520 C   0  0  0  0  0  0  0  0  0  0  0  0
   -8.4860   21.3320  -30.8270 N   0  0  0  0  0  0  0  0  0  0  0  0
   -8.4190   20.1610  -31.7170 C   0  0  0  0  0  0  0  0  0  0  0  0
   -7.0340   19.9470  -32.2820 C   0  0  0  0  0  0  0  0  0  0  0  0
   -5.9340   19.8130  -31.4220 C   0  0  0  0  0  0  0  0  0  0  0  0
   -4.6530   19.6010  -31.9410 C   0  0  0  0  0  0  0  0  0  0  0  0
   -4.4500   19.5110  -33.3290 C   0  0  0  0  0  0  0  0  0  0  0  0
   -3.0870   19.2900  -33.8700 C   0  0  0  0  0  0  0  0  0  0  0  0
   -2.7240   18.1220  -34.1810 O   0  0  0  0  0  0  0  0  0  0  0  0
   -2.1820   20.3890  -34.0650 N   0  0  0  0  0  0  0  0  0  0  0  0
   -0.8030   20.1930  -34.4140 C   0  0  0  0  0  0  0  0  0  0  0  0
   -0.2710   20.9100  -35.4950 C   0  0  0  0  0  0  0  0  0  0  0  0
    1.0560   20.7200  -35.8880 C   0  0  0  0  0  0  0  0  0  0  0  0
    1.8660   19.8180  -35.1970 C   0  0  0  0  0  0  0  0  0  0  0  0
    1.3580   19.1180  -34.1010 C   0  0  0  0  0  0  0  0  0  0  0  0
    0.0280   19.3070  -33.6890 C   0  0  0  0  0  0  0  0  0  0  0  0
   -0.4380   18.6380  -32.5110 N   0  0  0  0  0  0  0  0  0  0  0  0
   -5.5530   19.6580  -34.1880 C   0  0  0  0  0  0  0  0  0  0  0  0
   -6.8330   19.8720  -33.6680 C   0  0  0  0  0  0  0  0  0  0  0  0
   -7.0950   24.4960  -30.4910 C   0  0  0  0  0  0  0  0  0  0  0  0
   -5.8910   25.1510  -30.2240 C   0  0  0  0  0  0  0  0  0  0  0  0
   -4.6860   24.6330  -30.7050 C   0  0  0  0  0  0  0  0  0  0  0  0
   -3.4960   25.2960  -30.4310 O   0  0  0  0  0  0  0  0  0  0  0  0
   -2.7311   22.3813  -30.0746 H   0  0  0  0  0  0  0  0  0  0  0  0
   -2.6413   21.1426  -31.3724 H   0  0  0  0  0  0  0  0  0  0  0  0
   -1.4979   22.5280  -31.3724 H   0  0  0  0  0  0  0  0  0  0  0  0
   -5.8915   21.8674  -32.3202 H   0  0  0  0  0  0  0  0  0  0  0  0
   -9.2397   23.2521  -31.2496 H   0  0  0  0  0  0  0  0  0  0  0  0
   -8.4428   22.4037  -32.6318 H   0  0  0  0  0  0  0  0  0  0  0  0
   -9.3890   21.3110  -30.2970 H   0  0  0  0  0  0  0  0  0  0  0  0
   -8.7103   19.2665  -31.1468 H   0  0  0  0  0  0  0  0  0  0  0  0
   -9.1019   20.3406  -32.5605 H   0  0  0  0  0  0  0  0  0  0  0  0
   -6.0799   19.8750  -30.3335 H   0  0  0  0  0  0  0  0  0  0  0  0
   -3.7968   19.5038  -31.2572 H   0  0  0  0  0  0  0  0  0  0  0  0
   -2.5830   21.3440  -34.2010 H   0  0  0  0  0  0  0  0  0  0  0  0
   -0.9035   21.6278  -36.0379 H   0  0  0  0  0  0  0  0  0  0  0  0
    1.4624   21.2814  -36.7422 H   0  0  0  0  0  0  0  0  0  0  0  0
    2.9064   19.6582  -35.5163 H   0  0  0  0  0  0  0  0  0  0  0  0
    2.0036   18.4135  -33.5561 H   0  0  0  0  0  0  0  0  0  0  0  0
   -1.3940   18.2190  -32.4820 H   0  0  0  0  0  0  0  0  0  0  0  0
    0.1830   18.4810  -31.6860 H   0  0  0  0  0  0  0  0  0  0  0  0
   -5.4080   19.6043  -35.2771 H   0  0  0  0  0  0  0  0  0  0  0  0
   -7.6884   19.9823  -34.3507 H   0  0  0  0  0  0  0  0  0  0  0  0
   -8.0399   24.9082  -30.1072 H   0  0  0  0  0  0  0  0  0  0  0  0
   -5.8914   26.0785  -29.6326 H   0  0  0  0  0  0  0  0  0  0  0  0
  1  2  1  0
  2  3  1  0
  3  4  2  0
  4  5  1  0
  5  6  1  0
  6  7  1  0
  7  8  1  0
  8  9  1  0
  9 10  2  0
 10 11  1  0
 11 12  2  0
 12 13  1  0
 13 14  2  0
 13 15  1  0
 15 16  1  0
 16 17  2  0
 17 18  1  0
 18 19  2  0
 19 20  1  0
 20 21  2  0
 21 22  1  0
 12 23  1  0
 23 24  2  0
  5 25  2  0
 25 26  1  0
 26 27  2  0
 27 28  1  0
 27  3  1  0
 24  9  1  0
 21 16  1  0
  1 29  1  0
  1 30  1  0
  1 31  1  0
  4 32  1  0
  6 33  1  0
  6 34  1  0
  7 35  1  0
  8 36  1  0
  8 37  1  0
 10 38  1  0
 11 39  1  0
 15 40  1  0
 17 41  1  0
 18 42  1  0
 19 43  1  0
 20 44  1  0
 22 45  1  0
 22 46  1  0
 23 47  1  0
 24 48  1  0
 25 49  1  0
 26 50  1  0
M  CHG  1  28  -1
M  END
>  <UniqueID>  (9) 
9

>  <SMILES>  (9) 
COc1cc(CNCc2ccc(C(=O)Nc3ccccc3N)cc2)ccc1[O-]

>  <Energy>  (9) 
59.300378051415336

>  <Genealogy>  (9) 
COc1cc(CNCc2ccc(C(=O)Nc3ccccc3N)cc2)ccc1[O-] (protonated)
COc1cc(CNCc2ccc(C(=O)Nc3ccccc3N)cc2)ccc1[O-] (3D coordinates assigned)
COc1cc(CNCc2ccc(C(=O)Nc3ccccc3N)cc2)ccc1[O-] (optimized conformer: 59.300378051415336 kcal/mol)

>  <smiles>  (9) 
COc1cc(CNCc2ccc(C(=O)Nc3ccccc3N)cc2)ccc1O

>  <score_type>  (9) 
oracle

>  <origin>  (9) 
adgpu

>  <m_score__min__energy>  (9) 
-11.039999999999999

>  <m_primary>  (9) 
energy

$$$$
9:0
     RDKit          3D

 47 49  0  0  0  0  0  0  0  0999 V2000
   -3.7750   18.2700  -34.4860 C   0  0  0  0  0  0  0  0  0  0  0  0
   -3.2210   19.5600  -34.2590 O   0  0  0  0  0  0  0  0  0  0  0  0
   -3.2190   20.2190  -33.0180 C   0  0  0  0  0  0  0  0  0  0  0  0
   -4.1460   19.9070  -32.0070 C   0  0  0  0  0  0  0  0  0  0  0  0
   -4.1120   20.5820  -30.7850 C   0  0  0  0  0  0  0  0  0  0  0  0
   -3.1460   21.5670  -30.5440 C   0  0  0  0  0  0  0  0  0  0  0  0
   -3.1430   22.2880  -29.2570 C   0  0  0  0  0  0  0  0  0  0  0  0
   -2.3360   21.9480  -28.2310 N   0  0  0  0  0  0  0  0  0  0  0  0
   -2.5850   22.7700  -27.2240 N   0  0  0  0  0  0  0  0  0  0  0  0
   -3.5340   23.6490  -27.5870 C   0  0  0  0  0  0  0  0  0  0  0  0
   -4.1630   24.9380  -26.5110 S   0  0  0  0  0  0  0  0  0  0  0  0
   -2.5020   25.5150  -26.0410 C   0  0  0  0  0  0  0  0  0  0  0  0
   -3.9220   23.3800  -28.8860 C   0  0  0  0  0  0  0  0  0  0  0  0
   -5.0710   24.2960  -29.8690 S   0  0  0  0  0  0  0  0  0  0  0  0
   -4.3060   25.0400  -30.9280 O   0  0  0  0  0  0  0  0  0  0  0  0
   -5.7950   25.2960  -29.0150 O   0  0  0  0  0  0  0  0  0  0  0  0
   -6.2490   23.2280  -30.6250 C   0  0  0  0  0  0  0  0  0  0  0  0
   -6.0800   22.8390  -31.9610 C   0  0  0  0  0  0  0  0  0  0  0  0
   -6.9950   21.9690  -32.5610 C   0  0  0  0  0  0  0  0  0  0  0  0
   -8.0860   21.4740  -31.8310 C   0  0  0  0  0  0  0  0  0  0  0  0
   -9.0850   20.5680  -32.4860 C   0  0  0  0  0  0  0  0  0  0  0  0
   -8.2700   21.8900  -30.5030 C   0  0  0  0  0  0  0  0  0  0  0  0
   -7.3560   22.7600  -29.9030 C   0  0  0  0  0  0  0  0  0  0  0  0
   -2.2340   21.8940  -31.5590 C   0  0  0  0  0  0  0  0  0  0  0  0
   -2.2610   21.2190  -32.7950 C   0  0  0  0  0  0  0  0  0  0  0  0
   -1.3570   21.5200  -33.8270 O   0  0  0  0  0  0  0  0  0  0  0  0
   -0.0860   20.9010  -33.9940 C   0  0  0  0  0  0  0  0  0  0  0  0
   -3.9832   17.7853  -33.5207 H   0  0  0  0  0  0  0  0  0  0  0  0
   -4.7104   18.3679  -35.0564 H   0  0  0  0  0  0  0  0  0  0  0  0
   -3.0599   17.6590  -35.0564 H   0  0  0  0  0  0  0  0  0  0  0  0
   -4.9020   19.1269  -32.1800 H   0  0  0  0  0  0  0  0  0  0  0  0
   -4.8494   20.3383  -30.0060 H   0  0  0  0  0  0  0  0  0  0  0  0
   -2.1010   22.7310  -26.3010 H   0  0  0  0  0  0  0  0  0  0  0  0
   -2.4204   25.5434  -24.9444 H   0  0  0  0  0  0  0  0  0  0  0  0
   -1.7462   24.8268  -26.4473 H   0  0  0  0  0  0  0  0  0  0  0  0
   -2.3356   26.5236  -26.4473 H   0  0  0  0  0  0  0  0  0  0  0  0
   -5.2249   23.2194  -32.5390 H   0  0  0  0  0  0  0  0  0  0  0  0
   -6.8589   21.6709  -33.6111 H   0  0  0  0  0  0  0  0  0  0  0  0
   -9.6649   20.0421  -31.7133 H   0  0  0  0  0  0  0  0  0  0  0  0
   -9.7649   21.1639  -33.1126 H   0  0  0  0  0  0  0  0  0  0  0  0
   -8.5581   19.8333  -33.1126 H   0  0  0  0  0  0  0  0  0  0  0  0
   -9.1381   21.5292  -29.9318 H   0  0  0  0  0  0  0  0  0  0  0  0
   -7.5054   23.0788  -28.8609 H   0  0  0  0  0  0  0  0  0  0  0  0
   -1.4900   22.6859  -31.3876 H   0  0  0  0  0  0  0  0  0  0  0  0
    0.3508   20.6883  -33.0071 H   0  0  0  0  0  0  0  0  0  0  0  0
   -0.2066   19.9607  -34.5520 H   0  0  0  0  0  0  0  0  0  0  0  0
    0.5799   21.5757  -34.5520 H   0  0  0  0  0  0  0  0  0  0  0  0
  1  2  1  0
  2  3  1  0
  3  4  2  0
  4  5  1  0
  5  6  2  0
  6  7  1  0
  7  8  2  0
  8  9  1  0
  9 10  1  0
 10 11  1  0
 11 12  1  0
 10 13  2  0
 13 14  1  0
 14 15  2  0
 14 16  2  0
 14 17  1  0
 17 18  2  0
 18 19  1  0
 19 20  2  0
 20 21  1  0
 20 22  1  0
 22 23  2  0
  6 24  1  0
 24 25  2  0
 25 26  1  0
 26 27  1  0
 25  3  1  0
 13  7  1  0
 23 17  1  0
  1 28  1  0
  1 29  1  0
  1 30  1  0
  4 31  1  0
  5 32  1  0
  9 33  1  0
 12 34  1  0
 12 35  1  0
 12 36  1  0
 18 37  1  0
 19 38  1  0
 21 39  1  0
 21 40  1  0
 21 41  1  0
 22 42  1  0
 23 43  1  0
 24 44  1  0
 27 45  1  0
 27 46  1  0
 27 47  1  0
M  END
>  <UniqueID>  (10) 
10

>  <SMILES>  (10) 
COc1ccc(-c2n[nH]c(SC)c2S(=O)(=O)c2ccc(C)cc2)cc1OC

>  <Energy>  (10) 
78.37413636820884

>  <Genealogy>  (10) 
COc1ccc(-c2n[nH]c(SC)c2S(=O)(=O)c2ccc(C)cc2)cc1OC (3D coordinates assigned)
COc1ccc(-c2n[nH]c(SC)c2S(=O)(=O)c2ccc(C)cc2)cc1OC (optimized conformer: 78.37413636820884 kcal/mol)

>  <smiles>  (10) 
COc1ccc(-c2n[nH]c(SC)c2S(=O)(=O)c2ccc(C)cc2)cc1OC

>  <score_type>  (10) 
oracle

>  <origin>  (10) 
adgpu

>  <m_score__min__energy>  (10) 
-8.4299999999999997

>  <m_primary>  (10) 
energy

$$$$
10:0
     RDKit          3D

 38 40  0  0  0  0  0  0  0  0999 V2000
   -4.0210   25.3060  -30.2350 O   0  0  0  0  0  0  0  0  0  0  0  0
   -3.2430   24.3190  -30.1720 C   0  0  0  0  0  0  0  0  0  0  0  0
   -3.1660   23.4230  -31.2890 N   0  0  0  0  0  0  0  0  0  0  0  0
   -2.6000   22.0770  -31.2300 C   0  0  0  0  0  0  0  0  0  0  0  0
   -3.6840   21.0290  -31.5150 C   0  0  0  0  0  0  0  0  0  0  0  0
   -4.4710   21.3430  -32.7950 C   0  0  0  0  0  0  0  0  0  0  0  0
   -5.8940   21.7250  -32.4840 C   0  0  0  0  0  0  0  0  0  0  0  0
   -6.3750   22.9880  -32.1430 C   0  0  0  0  0  0  0  0  0  0  0  0
   -5.6120   24.1500  -32.0740 O   0  0  0  0  0  0  0  0  0  0  0  0
   -7.7000   22.9730  -31.8650 N   0  0  0  0  0  0  0  0  0  0  0  0
   -8.0550   21.6830  -32.0220 C   0  0  0  0  0  0  0  0  0  0  0  0
   -9.3240   21.1440  -31.8200 C   0  0  0  0  0  0  0  0  0  0  0  0
   -9.4910   19.7600  -32.0030 C   0  0  0  0  0  0  0  0  0  0  0  0
   -8.3970   18.9520  -32.3800 C   0  0  0  0  0  0  0  0  0  0  0  0
   -7.1260   19.5190  -32.5790 C   0  0  0  0  0  0  0  0  0  0  0  0
   -6.9910   20.8960  -32.3890 C   0  0  0  0  0  0  0  0  0  0  0  0
   -2.4400   24.1110  -28.9490 C   0  0  0  0  0  0  0  0  0  0  0  0
   -2.6360   22.9590  -28.1690 C   0  0  0  0  0  0  0  0  0  0  0  0
   -1.8730   22.7490  -27.0180 C   0  0  0  0  0  0  0  0  0  0  0  0
   -0.9060   23.6820  -26.6390 C   0  0  0  0  0  0  0  0  0  0  0  0
   -0.6960   24.8270  -27.4140 C   0  0  0  0  0  0  0  0  0  0  0  0
   -1.4570   25.0430  -28.5690 C   0  0  0  0  0  0  0  0  0  0  0  0
   -1.2390   26.1900  -29.3250 O   0  0  0  0  0  0  0  0  0  0  0  0
   -1.8014   21.9862  -31.9810 H   0  0  0  0  0  0  0  0  0  0  0  0
   -2.1925   21.9047  -30.2229 H   0  0  0  0  0  0  0  0  0  0  0  0
   -3.2051   20.0450  -31.6259 H   0  0  0  0  0  0  0  0  0  0  0  0
   -4.3915   21.0369  -30.6728 H   0  0  0  0  0  0  0  0  0  0  0  0
   -3.9828   22.1773  -33.3199 H   0  0  0  0  0  0  0  0  0  0  0  0
   -4.4839   20.4408  -33.4241 H   0  0  0  0  0  0  0  0  0  0  0  0
   -4.6080   24.1200  -31.9540 H   0  0  0  0  0  0  0  0  0  0  0  0
  -10.1701   21.7825  -31.5260 H   0  0  0  0  0  0  0  0  0  0  0  0
  -10.4805   19.3041  -31.8514 H   0  0  0  0  0  0  0  0  0  0  0  0
   -8.5399   17.8702  -32.5192 H   0  0  0  0  0  0  0  0  0  0  0  0
   -6.2668   18.8989  -32.8744 H   0  0  0  0  0  0  0  0  0  0  0  0
   -3.3938   22.2191  -28.4661 H   0  0  0  0  0  0  0  0  0  0  0  0
   -2.0343   21.8471  -26.4092 H   0  0  0  0  0  0  0  0  0  0  0  0
   -0.3089   23.5164  -25.7302 H   0  0  0  0  0  0  0  0  0  0  0  0
    0.0686   25.5593  -27.1155 H   0  0  0  0  0  0  0  0  0  0  0  0
  1  2  2  0
  2  3  1  0
  3  4  1  0
  4  5  1  0
  5  6  1  0
  6  7  1  0
  7  8  2  0
  8  9  1  0
  8 10  1  0
 10 11  1  0
 11 12  2  0
 12 13  1  0
 13 14  2  0
 14 15  1  0
 15 16  2  0
  2 17  1  0
 17 18  2  0
 18 19  1  0
 19 20  2  0
 20 21  1  0
 21 22  2  0
 22 23  1  0
 16  7  1  0
 22 17  1  0
 16 11  1  0
  4 24  1  0
  4 25  1  0
  5 26  1  0
  5 27  1  0
  6 28  1  0
  6 29  1  0
  9 30  1  0
 12 31  1  0
 13 32  1  0
 14 33  1  0
 15 34  1  0
 18 35  1  0
 19 36  1  0
 20 37  1  0
 21 38  1  0
M  CHG  3   3  -1  10  -1  23  -1
M  END
>  <UniqueID>  (11) 
11

>  <SMILES>  (11) 
O=C([N-]CCCc1c(O)[n-]c2ccccc12)c1ccccc1[O-]

>  <Energy>  (11) 
68.80545994546434

>  <Genealogy>  (11) 
O=C([N-]CCCc1c(O)[n-]c2ccccc12)c1ccccc1[O-] (protonated)
O=C([N-]CCCc1c(O)[n-]c2ccccc12)c1ccccc1[O-] (3D coordinates assigned)
O=C([N-]CCCc1c(O)[n-]c2ccccc12)c1ccccc1[O-] (optimized conformer: 68.80545994546434 kcal/mol)

>  <smiles>  (11) 
O=C(NCCCc1c(O)[nH]c2ccccc12)c1ccccc1O

>  <score_type>  (11) 
oracle

>  <origin>  (11) 
adgpu

>  <m_score__min__energy>  (11) 
-12.779999999999999

>  <m_primary>  (11) 
energy

$$$$
11:0
     RDKit          3D

 61 65  0  0  0  0  0  0  0  0999 V2000
   -1.0520   19.4460  -33.0600 O   0  0  0  0  0  0  0  0  0  0  0  0
   -2.2260   19.0730  -32.7950 C   0  0  0  0  0  0  0  0  0  0  0  0
   -2.7300   17.7720  -33.3480 C   0  0  0  0  0  0  0  0  0  0  0  0
   -3.7550   18.0290  -34.8380 S   0  0  0  0  0  0  0  0  0  0  0  0
   -5.0930   18.8510  -33.9660 C   0  0  0  0  0  0  0  0  0  0  0  0
   -5.0190   20.1270  -33.5390 N   0  0  0  0  0  0  0  0  0  0  0  0
   -6.2000   20.4280  -33.0180 N   0  0  0  0  0  0  0  0  0  0  0  0
   -6.9760   19.3290  -33.1330 C   0  0  0  0  0  0  0  0  0  0  0  0
   -8.4270   19.2830  -32.7400 C   0  0  0  0  0  0  0  0  0  0  0  0
   -8.8180   20.0810  -31.5070 C   0  0  0  0  0  0  0  0  0  0  0  0
   -8.6810   18.5730  -31.4220 C   0  0  0  0  0  0  0  0  0  0  0  0
   -6.3080   18.3160  -33.7270 N   0  0  0  0  0  0  0  0  0  0  0  0
   -6.8220   17.0110  -34.1540 C   0  0  0  0  0  0  0  0  0  0  0  0
   -6.0170   15.8900  -33.5510 C   0  0  0  0  0  0  0  0  0  0  0  0
   -5.8990   14.6640  -34.2250 C   0  0  0  0  0  0  0  0  0  0  0  0
   -5.1580   13.6200  -33.6660 C   0  0  0  0  0  0  0  0  0  0  0  0
   -4.5230   13.7950  -32.4330 C   0  0  0  0  0  0  0  0  0  0  0  0
   -4.6250   15.0160  -31.7610 C   0  0  0  0  0  0  0  0  0  0  0  0
   -5.3650   16.0620  -32.3180 C   0  0  0  0  0  0  0  0  0  0  0  0
   -3.0840   19.8820  -31.9740 N   0  0  0  0  0  0  0  0  0  0  0  0
   -2.6390   20.9620  -31.1300 C   0  0  0  0  0  0  0  0  0  0  0  0
   -3.3320   22.1860  -31.0560 C   0  0  0  0  0  0  0  0  0  0  0  0
   -2.8630   23.2160  -30.2350 C   0  0  0  0  0  0  0  0  0  0  0  0
   -1.6810   23.0530  -29.4990 C   0  0  0  0  0  0  0  0  0  0  0  0
   -1.0910   24.3560  -28.4630 S   0  0  0  0  0  0  0  0  0  0  0  0
    0.4110   24.3800  -28.5090 O   0  0  0  0  0  0  0  0  0  0  0  0
   -1.5910   25.6720  -28.9890 O   0  0  0  0  0  0  0  0  0  0  0  0
   -1.6250   24.1710  -26.8040 N   0  0  0  0  0  0  0  0  0  0  0  0
   -0.4850   24.1480  -25.8850 C   0  0  0  0  0  0  0  0  0  0  0  0
   -0.3070   25.5460  -25.3150 C   0  0  0  0  0  0  0  0  0  0  0  0
   -1.6260   26.2530  -25.5550 C   0  0  0  0  0  0  0  0  0  0  0  0
   -2.4700   25.2960  -26.3860 C   0  0  0  0  0  0  0  0  0  0  0  0
   -0.9680   21.8500  -29.5960 C   0  0  0  0  0  0  0  0  0  0  0  0
   -1.4440   20.8130  -30.4040 C   0  0  0  0  0  0  0  0  0  0  0  0
   -1.8701   17.1384  -33.6108 H   0  0  0  0  0  0  0  0  0  0  0  0
   -3.3525   17.2892  -32.5803 H   0  0  0  0  0  0  0  0  0  0  0  0
   -8.8180   19.2193  -33.7662 H   0  0  0  0  0  0  0  0  0  0  0  0
   -8.0784   20.7291  -31.0140 H   0  0  0  0  0  0  0  0  0  0  0  0
   -9.6113   20.8046  -31.2682 H   0  0  0  0  0  0  0  0  0  0  0  0
   -7.8422   18.1276  -30.8669 H   0  0  0  0  0  0  0  0  0  0  0  0
   -9.3343   17.7504  -31.0956 H   0  0  0  0  0  0  0  0  0  0  0  0
   -7.8697   16.9145  -33.8330 H   0  0  0  0  0  0  0  0  0  0  0  0
   -6.7470   16.9463  -35.2495 H   0  0  0  0  0  0  0  0  0  0  0  0
   -6.3925   14.5248  -35.1982 H   0  0  0  0  0  0  0  0  0  0  0  0
   -5.0742   12.6599  -34.1963 H   0  0  0  0  0  0  0  0  0  0  0  0
   -3.9428   12.9713  -31.9916 H   0  0  0  0  0  0  0  0  0  0  0  0
   -4.1221   15.1537  -30.7924 H   0  0  0  0  0  0  0  0  0  0  0  0
   -5.4376   17.0239  -31.7894 H   0  0  0  0  0  0  0  0  0  0  0  0
   -4.1130   19.7100  -32.0390 H   0  0  0  0  0  0  0  0  0  0  0  0
   -4.2477   22.3324  -31.6477 H   0  0  0  0  0  0  0  0  0  0  0  0
   -3.4245   24.1594  -30.1662 H   0  0  0  0  0  0  0  0  0  0  0  0
   -0.6781   23.4352  -25.0698 H   0  0  0  0  0  0  0  0  0  0  0  0
    0.4258   23.8353  -26.4167 H   0  0  0  0  0  0  0  0  0  0  0  0
   -0.0876   25.4969  -24.2382 H   0  0  0  0  0  0  0  0  0  0  0  0
    0.5320   26.0760  -25.7895 H   0  0  0  0  0  0  0  0  0  0  0  0
   -2.1236   26.4690  -24.5980 H   0  0  0  0  0  0  0  0  0  0  0  0
   -1.4803   27.2135  -26.0709 H   0  0  0  0  0  0  0  0  0  0  0  0
   -3.3112   24.9239  -25.7827 H   0  0  0  0  0  0  0  0  0  0  0  0
   -2.8687   25.8159  -27.2696 H   0  0  0  0  0  0  0  0  0  0  0  0
   -0.0309   21.7214  -29.0345 H   0  0  0  0  0  0  0  0  0  0  0  0
   -0.8785   19.8720  -30.4724 H   0  0  0  0  0  0  0  0  0  0  0  0
  1  2  2  0
  2  3  1  0
  3  4  1  0
  4  5  1  0
  5  6  2  0
  6  7  1  0
  7  8  2  0
  8  9  1  0
  9 10  1  0
 10 11  1  0
  8 12  1  0
 12 13  1  0
 13 14  1  0
 14 15  2  0
 15 16  1  0
 16 17  2  0
 17 18  1  0
 18 19  2  0
  2 20  1  0
 20 21  1  0
 21 22  2  0
 22 23  1  0
 23 24  2  0
 24 25  1  0
 25 26  2  0
 25 27  2  0
 25 28  1  0
 28 29  1  0
 29 30  1  0
 30 31  1  0
 31 32  1  0
 24 33  1  0
 33 34  2  0
 12  5  1  0
 19 14  1  0
 34 21  1  0
 11  9  1  0
 32 28  1  0
  3 35  1  0
  3 36  1  0
  9 37  1  0
 10 38  1  0
 10 39  1  0
 11 40  1  0
 11 41  1  0
 13 42  1  0
 13 43  1  0
 15 44  1  0
 16 45  1  0
 17 46  1  0
 18 47  1  0
 19 48  1  0
 20 49  1  0
 22 50  1  0
 23 51  1  0
 29 52  1  0
 29 53  1  0
 30 54  1  0
 30 55  1  0
 31 56  1  0
 31 57  1  0
 32 58  1  0
 32 59  1  0
 33 60  1  0
 34 61  1  0
M  END
>  <UniqueID>  (12) 
12

>  <SMILES>  (12) 
O=C(CSc1nnc(C2CC2)n1Cc1ccccc1)Nc1ccc(S(=O)(=O)N2CCCC2)cc1

>  <Energy>  (12) 
360.1532501680625

>  <Genealogy>  (12) 
O=C(CSc1nnc(C2CC2)n1Cc1ccccc1)Nc1ccc(S(=O)(=O)N2CCCC2)cc1 (3D coordinates assigned)
O=C(CSc1nnc(C2CC2)n1Cc1ccccc1)Nc1ccc(S(=O)(=O)N2CCCC2)cc1 (nonaromatic ring conformer: 360.1532501680625 kcal/mol)

>  <smiles>  (12) 
O=C(CSc1nnc(C2CC2)n1Cc1ccccc1)Nc1ccc(S(=O)(=O)N2CCCC2)cc1

>  <score_type>  (12) 
oracle

>  <origin>  (12) 
adgpu

>  <m_score__min__energy>  (12) 
-11.48

>  <m_primary>  (12) 
energy

$$$$
12:0
     RDKit          3D

 51 54  0  0  0  0  0  0  0  0999 V2000
    1.5120   17.7970  -35.7680 C   0  0  0  0  0  0  0  0  0  0  0  0
    0.4620   18.7490  -35.3760 N   0  0  0  0  0  0  0  0  0  0  0  0
    1.0110   20.1260  -35.3380 C   0  0  0  0  0  0  0  0  0  0  0  0
   -0.1180   21.1530  -35.1340 C   0  0  0  0  0  0  0  0  0  0  0  0
   -1.0250   20.7210  -34.0220 C   0  0  0  0  0  0  0  0  0  0  0  0
   -1.9180   21.5510  -33.4210 N   0  0  0  0  0  0  0  0  0  0  0  0
   -2.6400   20.9000  -32.4780 C   0  0  0  0  0  0  0  0  0  0  0  0
   -3.6720   21.5480  -31.6560 C   0  0  0  0  0  0  0  0  0  0  0  0
   -4.1030   20.9590  -30.6270 O   0  0  0  0  0  0  0  0  0  0  0  0
   -4.2060   22.8260  -32.0350 N   0  0  0  0  0  0  0  0  0  0  0  0
   -5.1380   23.5560  -31.2200 C   0  0  0  0  0  0  0  0  0  0  0  0
   -4.7670   24.7740  -30.6140 C   0  0  0  0  0  0  0  0  0  0  0  0
   -3.4970   25.3050  -30.8110 O   0  0  0  0  0  0  0  0  0  0  0  0
   -5.6870   25.4770  -29.8300 C   0  0  0  0  0  0  0  0  0  0  0  0
   -6.9860   24.9940  -29.6700 C   0  0  0  0  0  0  0  0  0  0  0  0
   -7.3700   23.8030  -30.2870 C   0  0  0  0  0  0  0  0  0  0  0  0
   -6.4490   23.0670  -31.0480 C   0  0  0  0  0  0  0  0  0  0  0  0
   -6.8390   21.8520  -31.7050 N   0  0  0  0  0  0  0  0  0  0  0  0
   -8.1590   21.2940  -31.7660 C   0  0  0  0  0  0  0  0  0  0  0  0
   -9.0560   21.9340  -32.3750 O   0  0  0  0  0  0  0  0  0  0  0  0
   -8.4770   19.9260  -31.2290 C   0  0  0  0  0  0  0  0  0  0  0  0
   -8.9680   18.7810  -32.5680 S   0  0  0  0  0  0  0  0  0  0  0  0
   -7.2950   18.4020  -33.1010 C   0  0  0  0  0  0  0  0  0  0  0  0
   -6.7710   17.1170  -32.9050 C   0  0  0  0  0  0  0  0  0  0  0  0
   -5.4730   16.8180  -33.3320 C   0  0  0  0  0  0  0  0  0  0  0  0
   -4.7000   17.7970  -33.9630 C   0  0  0  0  0  0  0  0  0  0  0  0
   -5.2260   19.0760  -34.1730 C   0  0  0  0  0  0  0  0  0  0  0  0
   -6.5240   19.3780  -33.7460 C   0  0  0  0  0  0  0  0  0  0  0  0
   -2.2000   19.2720  -32.3620 S   0  0  0  0  0  0  0  0  0  0  0  0
   -1.0600   19.4100  -33.5880 C   0  0  0  0  0  0  0  0  0  0  0  0
   -0.1010   18.3640  -34.0610 C   0  0  0  0  0  0  0  0  0  0  0  0
    1.9786   17.3739  -34.8662 H   0  0  0  0  0  0  0  0  0  0  0  0
    1.0681   16.9871  -36.3655 H   0  0  0  0  0  0  0  0  0  0  0  0
    2.2747   18.3178  -36.3655 H   0  0  0  0  0  0  0  0  0  0  0  0
    1.7279   20.2068  -34.5076 H   0  0  0  0  0  0  0  0  0  0  0  0
    1.5124   20.3349  -36.2945 H   0  0  0  0  0  0  0  0  0  0  0  0
    0.3218   22.1297  -34.8838 H   0  0  0  0  0  0  0  0  0  0  0  0
   -0.7034   21.2277  -36.0623 H   0  0  0  0  0  0  0  0  0  0  0  0
   -4.0200   23.1780  -33.0010 H   0  0  0  0  0  0  0  0  0  0  0  0
   -5.3856   26.4135  -29.3380 H   0  0  0  0  0  0  0  0  0  0  0  0
   -7.7083   25.5528  -29.0567 H   0  0  0  0  0  0  0  0  0  0  0  0
   -8.4019   23.4384  -30.1761 H   0  0  0  0  0  0  0  0  0  0  0  0
   -7.5867   19.5243  -30.7231 H   0  0  0  0  0  0  0  0  0  0  0  0
   -9.3179   20.0170  -30.5257 H   0  0  0  0  0  0  0  0  0  0  0  0
   -7.3806   16.3434  -32.4152 H   0  0  0  0  0  0  0  0  0  0  0  0
   -5.0600   15.8113  -33.1711 H   0  0  0  0  0  0  0  0  0  0  0  0
   -3.6779   17.5615  -34.2945 H   0  0  0  0  0  0  0  0  0  0  0  0
   -4.6192   19.8446  -34.6739 H   0  0  0  0  0  0  0  0  0  0  0  0
   -6.9392   20.3822  -33.9168 H   0  0  0  0  0  0  0  0  0  0  0  0
    0.7156   18.2619  -33.3311 H   0  0  0  0  0  0  0  0  0  0  0  0
   -0.6329   17.4065  -34.1627 H   0  0  0  0  0  0  0  0  0  0  0  0
  1  2  1  0
  2  3  1  0
  3  4  1  0
  4  5  1  0
  5  6  1  0
  6  7  2  0
  7  8  1  0
  8  9  2  0
  8 10  1  0
 10 11  1  0
 11 12  2  0
 12 13  1  0
 12 14  1  0
 14 15  2  0
 15 16  1  0
 16 17  2  0
 17 18  1  0
 18 19  1  0
 19 20  2  0
 19 21  1  0
 21 22  1  0
 22 23  1  0
 23 24  2  0
 24 25  1  0
 25 26  2  0
 26 27  1  0
 27 28  2  0
  7 29  1  0
 29 30  1  0
 30 31  1  0
 31  2  1  0
 30  5  2  0
 17 11  1  0
 28 23  1  0
  1 32  1  0
  1 33  1  0
  1 34  1  0
  3 35  1  0
  3 36  1  0
  4 37  1  0
  4 38  1  0
 10 39  1  0
 14 40  1  0
 15 41  1  0
 16 42  1  0
 21 43  1  0
 21 44  1  0
 24 45  1  0
 25 46  1  0
 26 47  1  0
 27 48  1  0
 28 49  1  0
 31 50  1  0
 31 51  1  0
M  CHG  2  13  -1  18  -1
M  END
>  <UniqueID>  (13) 
13

>  <SMILES>  (13) 
CN1CCc2nc(C(=O)Nc3c([O-])cccc3[N-]C(=O)CSc3ccccc3)sc2C1

>  <Energy>  (13) 
92.82520417958197

>  <Genealogy>  (13) 
CN1CCc2nc(C(=O)Nc3c([O-])cccc3[N-]C(=O)CSc3ccccc3)sc2C1 (protonated)
CN1CCc2nc(C(=O)Nc3c([O-])cccc3[N-]C(=O)CSc3ccccc3)sc2C1 (3D coordinates assigned)
CN1CCc2nc(C(=O)Nc3c([O-])cccc3[N-]C(=O)CSc3ccccc3)sc2C1 (nonaromatic ring conformer: 92.82520417958197 kcal/mol)

>  <smiles>  (13) 
CN1CCc2nc(C(=O)Nc3c(O)cccc3NC(=O)CSc3ccccc3)sc2C1

>  <score_type>  (13) 
oracle

>  <origin>  (13) 
adgpu

>  <m_score__min__energy>  (13) 
-11.779999999999999

>  <m_primary>  (13) 
energy

$$$$
13:0
     RDKit          3D

 45 47  0  0  0  0  0  0  0  0999 V2000
   -7.6050   23.0540  -31.6010 C   0  0  0  0  0  0  0  0  0  0  0  0
   -6.2850   22.4080  -31.9370 C   0  0  0  0  0  0  0  0  0  0  0  0
   -6.2820   21.2460  -32.7290 C   0  0  0  0  0  0  0  0  0  0  0  0
   -5.0820   20.6200  -33.0720 C   0  0  0  0  0  0  0  0  0  0  0  0
   -3.8650   21.1470  -32.6320 C   0  0  0  0  0  0  0  0  0  0  0  0
   -2.3490   20.3660  -33.0790 S   0  0  0  0  0  0  0  0  0  0  0  0
   -1.2100   21.1360  -32.4710 O   0  0  0  0  0  0  0  0  0  0  0  0
   -2.1960   20.3580  -34.5750 O   0  0  0  0  0  0  0  0  0  0  0  0
   -2.3030   18.7310  -32.4840 N   0  0  0  0  0  0  0  0  0  0  0  0
   -2.5750   17.7960  -33.5730 C   0  0  0  0  0  0  0  0  0  0  0  0
   -4.0530   17.5730  -33.6690 C   0  0  0  0  0  0  0  0  0  0  0  0
   -4.7400   16.8930  -32.6520 C   0  0  0  0  0  0  0  0  0  0  0  0
   -6.1170   16.6870  -32.7750 C   0  0  0  0  0  0  0  0  0  0  0  0
   -6.7910   17.1490  -33.9070 C   0  0  0  0  0  0  0  0  0  0  0  0
   -6.0710   17.8140  -34.9060 C   0  0  0  0  0  0  0  0  0  0  0  0
   -4.7300   18.0070  -34.7670 N   0  0  0  0  0  0  0  0  0  0  0  0
   -3.8540   22.3130  -31.8550 C   0  0  0  0  0  0  0  0  0  0  0  0
   -5.0510   22.9590  -31.5090 C   0  0  0  0  0  0  0  0  0  0  0  0
   -4.9730   24.4330  -30.5240 S   0  0  0  0  0  0  0  0  0  0  0  0
   -5.6540   25.5730  -31.2280 O   0  0  0  0  0  0  0  0  0  0  0  0
   -5.6660   24.1780  -29.2140 O   0  0  0  0  0  0  0  0  0  0  0  0
   -3.3270   24.8810  -30.1930 N   0  0  0  0  0  0  0  0  0  0  0  0
   -2.5370   24.4020  -29.0940 C   0  0  0  0  0  0  0  0  0  0  0  0
   -2.7780   23.1500  -28.4930 C   0  0  0  0  0  0  0  0  0  0  0  0
   -2.0050   22.7290  -27.4060 C   0  0  0  0  0  0  0  0  0  0  0  0
   -0.9870   23.5510  -26.9100 C   0  0  0  0  0  0  0  0  0  0  0  0
   -0.7330   24.7920  -27.5070 C   0  0  0  0  0  0  0  0  0  0  0  0
   -1.5030   25.2160  -28.5980 C   0  0  0  0  0  0  0  0  0  0  0  0
   -1.2280   26.4420  -29.1960 O   0  0  0  0  0  0  0  0  0  0  0  0
   -7.7184   23.1095  -30.5083 H   0  0  0  0  0  0  0  0  0  0  0  0
   -7.6351   24.0686  -32.0248 H   0  0  0  0  0  0  0  0  0  0  0  0
   -8.4247   22.4552  -32.0248 H   0  0  0  0  0  0  0  0  0  0  0  0
   -7.2353   20.8257  -33.0821 H   0  0  0  0  0  0  0  0  0  0  0  0
   -5.0947   19.7100  -33.6899 H   0  0  0  0  0  0  0  0  0  0  0  0
   -2.2033   18.2149  -34.5198 H   0  0  0  0  0  0  0  0  0  0  0  0
   -2.0677   16.8400  -33.3764 H   0  0  0  0  0  0  0  0  0  0  0  0
   -4.2003   16.5257  -31.7667 H   0  0  0  0  0  0  0  0  0  0  0  0
   -6.6686   16.1618  -31.9813 H   0  0  0  0  0  0  0  0  0  0  0  0
   -7.8747   16.9922  -34.0124 H   0  0  0  0  0  0  0  0  0  0  0  0
   -6.5887   18.1812  -35.8044 H   0  0  0  0  0  0  0  0  0  0  0  0
   -2.8946   22.7275  -31.5117 H   0  0  0  0  0  0  0  0  0  0  0  0
   -3.5774   22.5013  -28.8805 H   0  0  0  0  0  0  0  0  0  0  0  0
   -2.1975   21.7510  -26.9407 H   0  0  0  0  0  0  0  0  0  0  0  0
   -0.3854   23.2219  -26.0499 H   0  0  0  0  0  0  0  0  0  0  0  0
    0.0715   25.4342  -27.1192 H   0  0  0  0  0  0  0  0  0  0  0  0
  1  2  1  0
  2  3  2  0
  3  4  1  0
  4  5  2  0
  5  6  1  0
  6  7  2  0
  6  8  2  0
  6  9  1  0
  9 10  1  0
 10 11  1  0
 11 12  2  0
 12 13  1  0
 13 14  2  0
 14 15  1  0
 15 16  2  0
  5 17  1  0
 17 18  2  0
 18 19  1  0
 19 20  2  0
 19 21  2  0
 19 22  1  0
 22 23  1  0
 23 24  2  0
 24 25  1  0
 25 26  2  0
 26 27  1  0
 27 28  2  0
 28 29  1  0
 18  2  1  0
 28 23  1  0
 16 11  1  0
  1 30  1  0
  1 31  1  0
  1 32  1  0
  3 33  1  0
  4 34  1  0
 10 35  1  0
 10 36  1  0
 12 37  1  0
 13 38  1  0
 14 39  1  0
 15 40  1  0
 17 41  1  0
 24 42  1  0
 25 43  1  0
 26 44  1  0
 27 45  1  0
M  CHG  3   9  -1  22  -1  29  -1
M  END
>  <UniqueID>  (14) 
14

>  <SMILES>  (14) 
Cc1ccc(S(=O)(=O)[N-]Cc2ccccn2)cc1S(=O)(=O)[N-]c1ccccc1[O-]

>  <Energy>  (14) 
49.11501301866171

>  <Genealogy>  (14) 
Cc1ccc(S(=O)(=O)[N-]Cc2ccccn2)cc1S(=O)(=O)[N-]c1ccccc1[O-] (protonated)
Cc1ccc(S(=O)(=O)[N-]Cc2ccccn2)cc1S(=O)(=O)[N-]c1ccccc1[O-] (3D coordinates assigned)
Cc1ccc(S(=O)(=O)[N-]Cc2ccccn2)cc1S(=O)(=O)[N-]c1ccccc1[O-] (optimized conformer: 49.11501301866171 kcal/mol)

>  <smiles>  (14) 
Cc1ccc(S(=O)(=O)NCc2ccccn2)cc1S(=O)(=O)Nc1ccccc1O

>  <score_type>  (14) 
oracle

>  <origin>  (14) 
adgpu

>  <m_score__min__energy>  (14) 
-13.94

>  <m_primary>  (14) 
energy

$$$$
14:0
     RDKit          3D

 50 52  0  0  0  0  0  0  0  0999 V2000
   -0.6120   24.5860  -25.0210 C   0  0  0  0  0  0  0  0  0  0  0  0
   -0.5850   26.0150  -25.4960 C   0  0  0  0  0  0  0  0  0  0  0  0
   -0.8300   27.0330  -24.5600 C   0  0  0  0  0  0  0  0  0  0  0  0
   -0.8470   28.3730  -24.9540 C   0  0  0  0  0  0  0  0  0  0  0  0
   -0.6180   28.7130  -26.2860 C   0  0  0  0  0  0  0  0  0  0  0  0
   -0.3610   27.7160  -27.2280 C   0  0  0  0  0  0  0  0  0  0  0  0
   -0.3160   26.3640  -26.8460 C   0  0  0  0  0  0  0  0  0  0  0  0
   -0.0040   25.3530  -27.8840 C   0  0  0  0  0  0  0  0  0  0  0  0
    1.1030   24.7550  -27.8410 O   0  0  0  0  0  0  0  0  0  0  0  0
   -0.9130   25.0470  -28.9500 N   0  0  0  0  0  0  0  0  0  0  0  0
   -2.1170   24.2720  -28.8440 C   0  0  0  0  0  0  0  0  0  0  0  0
   -3.2710   24.6200  -29.5680 C   0  0  0  0  0  0  0  0  0  0  0  0
   -4.4380   23.8530  -29.4590 C   0  0  0  0  0  0  0  0  0  0  0  0
   -5.8640   24.2600  -30.4100 S   0  0  0  0  0  0  0  0  0  0  0  0
   -5.4830   25.1870  -31.5320 O   0  0  0  0  0  0  0  0  0  0  0  0
   -6.8480   24.9680  -29.5200 O   0  0  0  0  0  0  0  0  0  0  0  0
   -6.5910   22.8080  -31.0550 N   0  0  0  0  0  0  0  0  0  0  0  0
   -7.6770   22.3640  -30.1570 C   0  0  0  0  0  0  0  0  0  0  0  0
   -8.8880   21.7630  -30.8970 C   0  0  0  0  0  0  0  0  0  0  0  0
   -8.5340   20.6210  -31.8660 C   0  0  0  0  0  0  0  0  0  0  0  0
   -7.4020   20.9280  -32.8690 C   0  0  0  0  0  0  0  0  0  0  0  0
   -5.9820   20.7180  -32.3060 C   0  0  0  0  0  0  0  0  0  0  0  0
   -5.5550   21.7730  -31.2550 C   0  0  0  0  0  0  0  0  0  0  0  0
   -4.4570   22.7390  -28.6130 C   0  0  0  0  0  0  0  0  0  0  0  0
   -3.3250   22.4050  -27.8670 C   0  0  0  0  0  0  0  0  0  0  0  0
   -2.1570   23.1670  -27.9720 C   0  0  0  0  0  0  0  0  0  0  0  0
   -1.0450   22.7990  -27.2130 O   0  0  0  0  0  0  0  0  0  0  0  0
   -0.6124   24.5651  -23.9212 H   0  0  0  0  0  0  0  0  0  0  0  0
   -1.5196   24.0916  -25.3974 H   0  0  0  0  0  0  0  0  0  0  0  0
    0.2763   24.0576  -25.3974 H   0  0  0  0  0  0  0  0  0  0  0  0
   -1.0102   26.7726  -23.5066 H   0  0  0  0  0  0  0  0  0  0  0  0
   -1.0415   29.1612  -24.2117 H   0  0  0  0  0  0  0  0  0  0  0  0
   -0.6399   29.7684  -26.5952 H   0  0  0  0  0  0  0  0  0  0  0  0
   -0.1920   27.9908  -28.2796 H   0  0  0  0  0  0  0  0  0  0  0  0
   -3.2572   25.5018  -30.2254 H   0  0  0  0  0  0  0  0  0  0  0  0
   -7.2734   21.6010  -29.4752 H   0  0  0  0  0  0  0  0  0  0  0  0
   -8.0373   23.2561  -29.6237 H   0  0  0  0  0  0  0  0  0  0  0  0
   -9.5915   21.3728  -30.1467 H   0  0  0  0  0  0  0  0  0  0  0  0
   -9.3184   22.5715  -31.5062 H   0  0  0  0  0  0  0  0  0  0  0  0
   -8.2291   19.7504  -31.2668 H   0  0  0  0  0  0  0  0  0  0  0  0
   -9.4358   20.4483  -32.4718 H   0  0  0  0  0  0  0  0  0  0  0  0
   -7.5273   20.2705  -33.7419 H   0  0  0  0  0  0  0  0  0  0  0  0
   -7.4861   21.9951  -33.1224 H   0  0  0  0  0  0  0  0  0  0  0  0
   -5.9407   19.7249  -31.8348 H   0  0  0  0  0  0  0  0  0  0  0  0
   -5.2875   20.8158  -33.1534 H   0  0  0  0  0  0  0  0  0  0  0  0
   -5.3711   21.2651  -30.2968 H   0  0  0  0  0  0  0  0  0  0  0  0
   -4.6456   22.2701  -31.6235 H   0  0  0  0  0  0  0  0  0  0  0  0
   -5.3661   22.1246  -28.5353 H   0  0  0  0  0  0  0  0  0  0  0  0
   -3.3520   21.5367  -27.1922 H   0  0  0  0  0  0  0  0  0  0  0  0
   -0.1310   23.2130  -27.3560 H   0  0  0  0  0  0  0  0  0  0  0  0
  1  2  1  0
  2  3  2  0
  3  4  1  0
  4  5  2  0
  5  6  1  0
  6  7  2  0
  7  8  1  0
  8  9  2  0
  8 10  1  0
 10 11  1  0
 11 12  2  0
 12 13  1  0
 13 14  1  0
 14 15  2  0
 14 16  2  0
 14 17  1  0
 17 18  1  0
 18 19  1  0
 19 20  1  0
 20 21  1  0
 21 22  1  0
 22 23  1  0
 13 24  2  0
 24 25  1  0
 25 26  2  0
 26 27  1  0
  7  2  1  0
 26 11  1  0
 23 17  1  0
  1 28  1  0
  1 29  1  0
  1 30  1  0
  3 31  1  0
  4 32  1  0
  5 33  1  0
  6 34  1  0
 12 35  1  0
 18 36  1  0
 18 37  1  0
 19 38  1  0
 19 39  1  0
 20 40  1  0
 20 41  1  0
 21 42  1  0
 21 43  1  0
 22 44  1  0
 22 45  1  0
 23 46  1  0
 23 47  1  0
 24 48  1  0
 25 49  1  0
 27 50  1  0
M  CHG  1  10  -1
M  END
>  <UniqueID>  (15) 
15

>  <SMILES>  (15) 
Cc1ccccc1C(=O)[N-]c1cc(S(=O)(=O)N2CCCCCC2)ccc1O

>  <Energy>  (15) 
64.24004567895109

>  <Genealogy>  (15) 
Cc1ccccc1C(=O)[N-]c1cc(S(=O)(=O)N2CCCCCC2)ccc1O (protonated)
Cc1ccccc1C(=O)[N-]c1cc(S(=O)(=O)N2CCCCCC2)ccc1O (3D coordinates assigned)
Cc1ccccc1C(=O)[N-]c1cc(S(=O)(=O)N2CCCCCC2)ccc1O (nonaromatic ring conformer: 64.24004567895109 kcal/mol)

>  <smiles>  (15) 
Cc1ccccc1C(=O)Nc1cc(S(=O)(=O)N2CCCCCC2)ccc1O

>  <score_type>  (15) 
oracle

>  <origin>  (15) 
adgpu

>  <m_score__min__energy>  (15) 
-9.4800000000000004

>  <m_primary>  (15) 
energy

$$$$
15:0
     RDKit          3D

 46 49  0  0  0  0  0  0  0  0999 V2000
   -1.2020   21.3790  -26.1890 C   0  0  0  0  0  0  0  0  0  0  0  0
   -1.7830   22.0360  -27.4120 C   0  0  0  0  0  0  0  0  0  0  0  0
   -2.7020   21.3080  -28.1810 C   0  0  0  0  0  0  0  0  0  0  0  0
   -3.2930   21.8700  -29.3080 C   0  0  0  0  0  0  0  0  0  0  0  0
   -2.9980   23.1860  -29.6840 C   0  0  0  0  0  0  0  0  0  0  0  0
   -3.6010   23.7760  -30.8460 N   0  0  0  0  0  0  0  0  0  0  0  0
   -4.5900   24.8110  -30.8490 C   0  0  0  0  0  0  0  0  0  0  0  0
   -4.2640   25.9660  -30.4660 O   0  0  0  0  0  0  0  0  0  0  0  0
   -5.9540   24.5100  -31.1740 N   0  0  0  0  0  0  0  0  0  0  0  0
   -6.4770   23.2350  -31.5720 C   0  0  0  0  0  0  0  0  0  0  0  0
   -7.7850   22.8990  -31.1940 C   0  0  0  0  0  0  0  0  0  0  0  0
   -8.3270   21.6560  -31.5370 C   0  0  0  0  0  0  0  0  0  0  0  0
   -7.5530   20.7310  -32.2420 C   0  0  0  0  0  0  0  0  0  0  0  0
   -6.2480   21.0590  -32.6290 C   0  0  0  0  0  0  0  0  0  0  0  0
   -5.6990   22.2960  -32.2770 C   0  0  0  0  0  0  0  0  0  0  0  0
   -5.5030   20.1290  -33.3620 O   0  0  0  0  0  0  0  0  0  0  0  0
   -6.1290   18.9910  -33.9620 C   0  0  0  0  0  0  0  0  0  0  0  0
   -7.2070   18.4230  -33.0280 C   0  0  0  0  0  0  0  0  0  0  0  0
   -8.0640   19.4700  -32.5670 O   0  0  0  0  0  0  0  0  0  0  0  0
   -2.0460   23.9190  -28.9490 C   0  0  0  0  0  0  0  0  0  0  0  0
   -1.7380   25.2310  -29.3190 O   0  0  0  0  0  0  0  0  0  0  0  0
   -1.4100   23.3440  -27.8230 C   0  0  0  0  0  0  0  0  0  0  0  0
   -0.1990   24.2950  -26.9270 S   0  0  0  0  0  0  0  0  0  0  0  0
    0.8890   23.4040  -26.3960 O   0  0  0  0  0  0  0  0  0  0  0  0
    0.4480   25.2980  -27.8420 O   0  0  0  0  0  0  0  0  0  0  0  0
   -1.0300   25.1760  -25.6060 C   0  0  0  0  0  0  0  0  0  0  0  0
   -1.3290   26.6450  -25.8620 C   0  0  0  0  0  0  0  0  0  0  0  0
   -2.4420   25.6150  -25.9580 C   0  0  0  0  0  0  0  0  0  0  0  0
   -1.6188   21.8503  -25.2867 H   0  0  0  0  0  0  0  0  0  0  0  0
   -1.4541   20.3083  -26.1932 H   0  0  0  0  0  0  0  0  0  0  0  0
   -0.1085   21.4982  -26.1932 H   0  0  0  0  0  0  0  0  0  0  0  0
   -2.9590   20.2790  -27.8893 H   0  0  0  0  0  0  0  0  0  0  0  0
   -3.9976   21.2758  -29.9084 H   0  0  0  0  0  0  0  0  0  0  0  0
   -8.3897   23.6189  -30.6230 H   0  0  0  0  0  0  0  0  0  0  0  0
   -9.3601   21.4074  -31.2524 H   0  0  0  0  0  0  0  0  0  0  0  0
   -4.6608   22.5355  -32.5504 H   0  0  0  0  0  0  0  0  0  0  0  0
   -6.5939   19.2915  -34.9126 H   0  0  0  0  0  0  0  0  0  0  0  0
   -5.3681   18.2175  -34.1431 H   0  0  0  0  0  0  0  0  0  0  0  0
   -7.8048   17.6783  -33.5740 H   0  0  0  0  0  0  0  0  0  0  0  0
   -6.7189   17.9520  -32.1620 H   0  0  0  0  0  0  0  0  0  0  0  0
   -2.1150   25.6700  -30.1500 H   0  0  0  0  0  0  0  0  0  0  0  0
   -0.5513   24.6241  -24.7837 H   0  0  0  0  0  0  0  0  0  0  0  0
   -1.3142   27.3627  -25.0285 H   0  0  0  0  0  0  0  0  0  0  0  0
   -0.9227   27.4160  -26.5331 H   0  0  0  0  0  0  0  0  0  0  0  0
   -3.2330   25.5873  -25.1941 H   0  0  0  0  0  0  0  0  0  0  0  0
   -3.1752   25.3319  -26.7276 H   0  0  0  0  0  0  0  0  0  0  0  0
  1  2  1  0
  2  3  2  0
  3  4  1  0
  4  5  2  0
  5  6  1  0
  6  7  1  0
  7  8  2  0
  7  9  1  0
  9 10  1  0
 10 11  2  0
 11 12  1  0
 12 13  2  0
 13 14  1  0
 14 15  2  0
 14 16  1  0
 16 17  1  0
 17 18  1  0
 18 19  1  0
  5 20  1  0
 20 21  1  0
 20 22  2  0
 22 23  1  0
 23 24  2  0
 23 25  2  0
 23 26  1  0
 26 27  1  0
 27 28  1  0
 22  2  1  0
 28 26  1  0
 15 10  1  0
 19 13  1  0
  1 29  1  0
  1 30  1  0
  1 31  1  0
  3 32  1  0
  4 33  1  0
 11 34  1  0
 12 35  1  0
 15 36  1  0
 17 37  1  0
 17 38  1  0
 18 39  1  0
 18 40  1  0
 21 41  1  0
 26 42  1  0
 27 43  1  0
 27 44  1  0
 28 45  1  0
 28 46  1  0
M  CHG  2   6  -1   9  -1
M  END
>  <UniqueID>  (16) 
16

>  <SMILES>  (16) 
Cc1ccc([N-]C(=O)[N-]c2ccc3c(c2)OCCO3)c(O)c1S(=O)(=O)C1CC1

>  <Energy>  (16) 
323.3687797663452

>  <Genealogy>  (16) 
Cc1ccc([N-]C(=O)[N-]c2ccc3c(c2)OCCO3)c(O)c1S(=O)(=O)C1CC1 (protonated)
Cc1ccc([N-]C(=O)[N-]c2ccc3c(c2)OCCO3)c(O)c1S(=O)(=O)C1CC1 (3D coordinates assigned)
Cc1ccc([N-]C(=O)[N-]c2ccc3c(c2)OCCO3)c(O)c1S(=O)(=O)C1CC1 (nonaromatic ring conformer: 323.3687797663452 kcal/mol)

>  <smiles>  (16) 
Cc1ccc(NC(=O)Nc2ccc3c(c2)OCCO3)c(O)c1S(=O)(=O)C1CC1

>  <score_type>  (16) 
oracle

>  <origin>  (16) 
adgpu

>  <m_score__min__energy>  (16) 
-12.75

>  <m_primary>  (16) 
energy

$$$$
16:0
     RDKit          3D

 56 59  0  0  0  0  0  0  0  0999 V2000
   -0.1800   22.9550  -25.8390 C   0  0  0  0  0  0  0  0  0  0  0  0
   -1.0680   23.0000  -27.0550 C   0  0  0  0  0  0  0  0  0  0  0  0
   -1.7600   21.8320  -27.4120 C   0  0  0  0  0  0  0  0  0  0  0  0
   -2.5930   21.8100  -28.5290 C   0  0  0  0  0  0  0  0  0  0  0  0
   -2.7450   22.9490  -29.3240 C   0  0  0  0  0  0  0  0  0  0  0  0
   -3.6050   22.8880  -30.4730 N   0  0  0  0  0  0  0  0  0  0  0  0
   -4.9840   23.2810  -30.4370 C   0  0  0  0  0  0  0  0  0  0  0  0
   -5.4900   23.7290  -29.3710 O   0  0  0  0  0  0  0  0  0  0  0  0
   -5.7810   23.1460  -31.6210 N   0  0  0  0  0  0  0  0  0  0  0  0
   -7.0390   22.4630  -31.7270 C   0  0  0  0  0  0  0  0  0  0  0  0
   -8.2480   23.1530  -31.9400 C   0  0  0  0  0  0  0  0  0  0  0  0
   -9.4510   22.4490  -32.0350 C   0  0  0  0  0  0  0  0  0  0  0  0
   -9.4600   21.0560  -31.9440 C   0  0  0  0  0  0  0  0  0  0  0  0
   -8.2560   20.3510  -31.7880 C   0  0  0  0  0  0  0  0  0  0  0  0
   -8.2550   18.8780  -31.7050 C   0  0  0  0  0  0  0  0  0  0  0  0
   -9.2800   18.2860  -31.2710 O   0  0  0  0  0  0  0  0  0  0  0  0
   -7.1200   18.0920  -32.0970 N   0  0  0  0  0  0  0  0  0  0  0  0
   -6.7460   17.7720  -33.4720 C   0  0  0  0  0  0  0  0  0  0  0  0
   -5.2890   18.0700  -33.6950 C   0  0  0  0  0  0  0  0  0  0  0  0
   -4.4430   17.1170  -34.2910 C   0  0  0  0  0  0  0  0  0  0  0  0
   -3.0990   17.4220  -34.5350 C   0  0  0  0  0  0  0  0  0  0  0  0
   -2.5920   18.6780  -34.1860 C   0  0  0  0  0  0  0  0  0  0  0  0
   -3.4280   19.6340  -33.5970 C   0  0  0  0  0  0  0  0  0  0  0  0
   -2.7910   21.2090  -33.1620 Cl  0  0  0  0  0  0  0  0  0  0  0  0
   -4.7740   19.3330  -33.3580 C   0  0  0  0  0  0  0  0  0  0  0  0
   -7.0510   21.0620  -31.6670 C   0  0  0  0  0  0  0  0  0  0  0  0
   -2.0840   24.1380  -28.9640 C   0  0  0  0  0  0  0  0  0  0  0  0
   -2.3320   25.2990  -29.6930 O   0  0  0  0  0  0  0  0  0  0  0  0
   -1.2040   24.1650  -27.8580 C   0  0  0  0  0  0  0  0  0  0  0  0
   -0.3350   25.6720  -27.4680 S   0  0  0  0  0  0  0  0  0  0  0  0
    1.1240   25.5390  -27.8070 O   0  0  0  0  0  0  0  0  0  0  0  0
   -0.8880   26.8130  -28.2770 O   0  0  0  0  0  0  0  0  0  0  0  0
   -0.5770   26.0370  -25.7300 C   0  0  0  0  0  0  0  0  0  0  0  0
   -2.0360   26.1030  -25.3110 C   0  0  0  0  0  0  0  0  0  0  0  0
   -1.2160   27.3790  -25.4080 C   0  0  0  0  0  0  0  0  0  0  0  0
   -0.8000   22.9864  -24.9309 H   0  0  0  0  0  0  0  0  0  0  0  0
    0.4087   22.0259  -25.8491 H   0  0  0  0  0  0  0  0  0  0  0  0
    0.4996   23.8199  -25.8491 H   0  0  0  0  0  0  0  0  0  0  0  0
   -1.6434   20.9235  -26.8029 H   0  0  0  0  0  0  0  0  0  0  0  0
   -3.1353   20.8884  -28.7870 H   0  0  0  0  0  0  0  0  0  0  0  0
   -3.1660   22.7470  -31.4140 H   0  0  0  0  0  0  0  0  0  0  0  0
   -8.2452   24.2492  -32.0318 H   0  0  0  0  0  0  0  0  0  0  0  0
  -10.3948   22.9945  -32.1821 H   0  0  0  0  0  0  0  0  0  0  0  0
  -10.4131   20.5092  -31.9947 H   0  0  0  0  0  0  0  0  0  0  0  0
   -6.9317   16.7043  -33.6603 H   0  0  0  0  0  0  0  0  0  0  0  0
   -7.3476   18.3841  -34.1600 H   0  0  0  0  0  0  0  0  0  0  0  0
   -4.8393   16.1285  -34.5663 H   0  0  0  0  0  0  0  0  0  0  0  0
   -2.4413   16.6737  -35.0014 H   0  0  0  0  0  0  0  0  0  0  0  0
   -1.5345   18.9150  -34.3747 H   0  0  0  0  0  0  0  0  0  0  0  0
   -5.4317   20.0890  -32.9042 H   0  0  0  0  0  0  0  0  0  0  0  0
   -6.1076   20.5148  -31.5238 H   0  0  0  0  0  0  0  0  0  0  0  0
    0.3253   25.5138  -25.3806 H   0  0  0  0  0  0  0  0  0  0  0  0
   -2.8289   25.9017  -26.0464 H   0  0  0  0  0  0  0  0  0  0  0  0
   -2.6420   25.6260  -24.5267 H   0  0  0  0  0  0  0  0  0  0  0  0
   -1.4151   28.1009  -26.2137 H   0  0  0  0  0  0  0  0  0  0  0  0
   -0.9824   28.2077  -24.7234 H   0  0  0  0  0  0  0  0  0  0  0  0
  1  2  1  0
  2  3  2  0
  3  4  1  0
  4  5  2  0
  5  6  1  0
  6  7  1  0
  7  8  2  0
  7  9  1  0
  9 10  1  0
 10 11  2  0
 11 12  1  0
 12 13  2  0
 13 14  1  0
 14 15  1  0
 15 16  2  0
 15 17  1  0
 17 18  1  0
 18 19  1  0
 19 20  2  0
 20 21  1  0
 21 22  2  0
 22 23  1  0
 23 24  1  0
 23 25  2  0
 14 26  2  0
  5 27  1  0
 27 28  1  0
 27 29  2  0
 29 30  1  0
 30 31  2  0
 30 32  2  0
 30 33  1  0
 33 34  1  0
 34 35  1  0
 29  2  1  0
 35 33  1  0
 26 10  1  0
 25 19  1  0
  1 36  1  0
  1 37  1  0
  1 38  1  0
  3 39  1  0
  4 40  1  0
  6 41  1  0
 11 42  1  0
 12 43  1  0
 13 44  1  0
 18 45  1  0
 18 46  1  0
 20 47  1  0
 21 48  1  0
 22 49  1  0
 25 50  1  0
 26 51  1  0
 33 52  1  0
 34 53  1  0
 34 54  1  0
 35 55  1  0
 35 56  1  0
M  CHG  3   9  -1  17  -1  28  -1
M  END
>  <UniqueID>  (17) 
17

>  <SMILES>  (17) 
Cc1ccc(NC(=O)[N-]c2cccc(C(=O)[N-]Cc3cccc(Cl)c3)c2)c([O-])c1S(=O)(=O)C1CC1

>  <Energy>  (17) 
336.8501563129844

>  <Genealogy>  (17) 
Cc1ccc(NC(=O)[N-]c2cccc(C(=O)[N-]Cc3cccc(Cl)c3)c2)c([O-])c1S(=O)(=O)C1CC1 (protonated)
Cc1ccc(NC(=O)[N-]c2cccc(C(=O)[N-]Cc3cccc(Cl)c3)c2)c([O-])c1S(=O)(=O)C1CC1 (3D coordinates assigned)
Cc1ccc(NC(=O)[N-]c2cccc(C(=O)[N-]Cc3cccc(Cl)c3)c2)c([O-])c1S(=O)(=O)C1CC1 (nonaromatic ring conformer: 336.8501563129844 kcal/mol)

>  <smiles>  (17) 
Cc1ccc(NC(=O)Nc2cccc(C(=O)NCc3cccc(Cl)c3)c2)c(O)c1S(=O)(=O)C1CC1

>  <score_type>  (17) 
oracle

>  <origin>  (17) 
adgpu

>  <m_score__min__energy>  (17) 
-14.56

>  <m_primary>  (17) 
energy

$$$$
17:0
     RDKit          3D

 29 31  0  0  0  0  0  0  0  0999 V2000
   -9.4620   17.8580  -31.9560 O   0  0  0  0  0  0  0  0  0  0  0  0
   -8.8490   18.9550  -31.8910 C   0  0  0  0  0  0  0  0  0  0  0  0
   -9.4860   20.1540  -31.8940 N   0  0  0  0  0  0  0  0  0  0  0  0
   -8.4490   21.0060  -31.8130 C   0  0  0  0  0  0  0  0  0  0  0  0
   -8.4870   22.3950  -31.7730 C   0  0  0  0  0  0  0  0  0  0  0  0
   -7.2610   23.0810  -31.6840 C   0  0  0  0  0  0  0  0  0  0  0  0
   -6.0300   22.3740  -31.6430 C   0  0  0  0  0  0  0  0  0  0  0  0
   -4.8010   23.1160  -31.5610 N   0  0  0  0  0  0  0  0  0  0  0  0
   -4.4320   24.2280  -30.2810 S   0  0  0  0  0  0  0  0  0  0  0  0
   -5.6800   24.4920  -29.4840 O   0  0  0  0  0  0  0  0  0  0  0  0
   -3.9530   25.5250  -30.8720 O   0  0  0  0  0  0  0  0  0  0  0  0
   -3.1560   23.5660  -29.2580 C   0  0  0  0  0  0  0  0  0  0  0  0
   -3.2380   22.2420  -28.8010 C   0  0  0  0  0  0  0  0  0  0  0  0
   -2.2190   21.7050  -28.0080 C   0  0  0  0  0  0  0  0  0  0  0  0
   -2.3240   20.0470  -27.4480 Cl  0  0  0  0  0  0  0  0  0  0  0  0
   -1.1140   22.4900  -27.6650 C   0  0  0  0  0  0  0  0  0  0  0  0
   -1.0260   23.8120  -28.1100 C   0  0  0  0  0  0  0  0  0  0  0  0
    0.3710   24.7820  -27.6680 Cl  0  0  0  0  0  0  0  0  0  0  0  0
   -2.0460   24.3540  -28.9060 C   0  0  0  0  0  0  0  0  0  0  0  0
   -1.9540   25.6720  -29.3440 O   0  0  0  0  0  0  0  0  0  0  0  0
   -6.0410   20.9570  -31.6760 C   0  0  0  0  0  0  0  0  0  0  0  0
   -7.2740   20.3190  -31.7650 C   0  0  0  0  0  0  0  0  0  0  0  0
   -7.5320   19.0400  -31.8150 O   0  0  0  0  0  0  0  0  0  0  0  0
   -9.4422   22.9393  -31.8096 H   0  0  0  0  0  0  0  0  0  0  0  0
   -7.2564   24.1803  -31.6457 H   0  0  0  0  0  0  0  0  0  0  0  0
   -4.0380   22.9090  -32.2440 H   0  0  0  0  0  0  0  0  0  0  0  0
   -4.1077   21.6236  -29.0677 H   0  0  0  0  0  0  0  0  0  0  0  0
   -0.3117   22.0660  -27.0432 H   0  0  0  0  0  0  0  0  0  0  0  0
   -5.1051   20.3806  -31.6327 H   0  0  0  0  0  0  0  0  0  0  0  0
  1  2  2  0
  2  3  1  0
  3  4  1  0
  4  5  2  0
  5  6  1  0
  6  7  2  0
  7  8  1  0
  8  9  1  0
  9 10  2  0
  9 11  2  0
  9 12  1  0
 12 13  2  0
 13 14  1  0
 14 15  1  0
 14 16  2  0
 16 17  1  0
 17 18  1  0
 17 19  2  0
 19 20  1  0
  7 21  1  0
 21 22  2  0
 22 23  1  0
 23  2  1  0
 22  4  1  0
 19 12  1  0
  5 24  1  0
  6 25  1  0
  8 26  1  0
 13 27  1  0
 16 28  1  0
 21 29  1  0
M  CHG  2   3  -1  20  -1
M  END
>  <UniqueID>  (18) 
18

>  <SMILES>  (18) 
O=c1[n-]c2ccc(NS(=O)(=O)c3cc(Cl)cc(Cl)c3[O-])cc2o1

>  <Energy>  (18) 
73.33525486866122

>  <Genealogy>  (18) 
O=c1[n-]c2ccc(NS(=O)(=O)c3cc(Cl)cc(Cl)c3[O-])cc2o1 (protonated)
O=c1[n-]c2ccc(NS(=O)(=O)c3cc(Cl)cc(Cl)c3[O-])cc2o1 (3D coordinates assigned)
O=c1[n-]c2ccc(NS(=O)(=O)c3cc(Cl)cc(Cl)c3[O-])cc2o1 (optimized conformer: 73.33525486866122 kcal/mol)

>  <smiles>  (18) 
O=c1[nH]c2ccc(NS(=O)(=O)c3cc(Cl)cc(Cl)c3O)cc2o1

>  <score_type>  (18) 
oracle

>  <origin>  (18) 
adgpu

>  <m_score__min__energy>  (18) 
-11.66

>  <m_primary>  (18) 
energy

$$$$
18:0
     RDKit          3D

 41 43  0  0  0  0  0  0  0  0999 V2000
   -1.5410   25.6970  -28.9680 O   0  0  0  0  0  0  0  0  0  0  0  0
   -2.4810   24.8970  -29.2140 C   0  0  0  0  0  0  0  0  0  0  0  0
   -3.4930   25.2900  -30.1510 N   0  0  0  0  0  0  0  0  0  0  0  0
   -4.6100   24.4940  -30.5690 C   0  0  0  0  0  0  0  0  0  0  0  0
   -4.4280   23.2440  -31.1880 C   0  0  0  0  0  0  0  0  0  0  0  0
   -5.5340   22.4810  -31.5830 C   0  0  0  0  0  0  0  0  0  0  0  0
   -5.2820   20.9220  -32.3650 S   0  0  0  0  0  0  0  0  0  0  0  0
   -4.9630   19.9080  -31.3030 O   0  0  0  0  0  0  0  0  0  0  0  0
   -4.1130   21.0050  -33.3070 O   0  0  0  0  0  0  0  0  0  0  0  0
   -6.7240   20.4240  -33.2260 N   0  0  0  0  0  0  0  0  0  0  0  0
   -6.4650   19.2930  -34.1390 C   0  0  0  0  0  0  0  0  0  0  0  0
   -6.2740   17.9560  -33.3980 C   0  0  0  0  0  0  0  0  0  0  0  0
   -7.2320   17.7840  -32.2060 C   0  0  0  0  0  0  0  0  0  0  0  0
   -8.3940   18.7730  -32.2600 C   0  0  0  0  0  0  0  0  0  0  0  0
   -7.8740   20.2210  -32.3080 C   0  0  0  0  0  0  0  0  0  0  0  0
   -6.8290   22.9510  -31.3240 C   0  0  0  0  0  0  0  0  0  0  0  0
   -7.0140   24.1770  -30.6810 C   0  0  0  0  0  0  0  0  0  0  0  0
   -5.9090   24.9450  -30.3000 C   0  0  0  0  0  0  0  0  0  0  0  0
   -6.1030   26.1330  -29.6770 F   0  0  0  0  0  0  0  0  0  0  0  0
   -2.4800   23.5600  -28.5880 C   0  0  0  0  0  0  0  0  0  0  0  0
   -3.8430   22.6790  -28.1350 S   0  0  0  0  0  0  0  0  0  0  0  0
   -3.0270   21.3150  -27.5870 C   0  0  0  0  0  0  0  0  0  0  0  0
   -1.6660   21.5240  -27.7630 C   0  0  0  0  0  0  0  0  0  0  0  0
   -1.3620   22.7720  -28.3250 C   0  0  0  0  0  0  0  0  0  0  0  0
   -0.0590   23.1850  -28.5900 O   0  0  0  0  0  0  0  0  0  0  0  0
   -3.4108   22.8635  -31.3629 H   0  0  0  0  0  0  0  0  0  0  0  0
   -7.3180   19.1945  -34.8265 H   0  0  0  0  0  0  0  0  0  0  0  0
   -5.5295   19.5095  -34.6757 H   0  0  0  0  0  0  0  0  0  0  0  0
   -6.4479   17.1342  -34.1082 H   0  0  0  0  0  0  0  0  0  0  0  0
   -5.2490   17.9457  -32.9990 H   0  0  0  0  0  0  0  0  0  0  0  0
   -7.6354   16.7607  -32.2192 H   0  0  0  0  0  0  0  0  0  0  0  0
   -6.6647   17.9757  -31.2833 H   0  0  0  0  0  0  0  0  0  0  0  0
   -8.9951   18.5751  -33.1597 H   0  0  0  0  0  0  0  0  0  0  0  0
   -9.0078   18.6473  -31.3558 H   0  0  0  0  0  0  0  0  0  0  0  0
   -8.6971   20.8726  -32.6366 H   0  0  0  0  0  0  0  0  0  0  0  0
   -7.5175   20.4629  -31.2959 H   0  0  0  0  0  0  0  0  0  0  0  0
   -7.7010   22.3532  -31.6277 H   0  0  0  0  0  0  0  0  0  0  0  0
   -8.0316   24.5395  -30.4737 H   0  0  0  0  0  0  0  0  0  0  0  0
   -3.4914   20.4128  -27.1623 H   0  0  0  0  0  0  0  0  0  0  0  0
   -0.9009   20.7830  -27.4884 H   0  0  0  0  0  0  0  0  0  0  0  0
    0.1470   24.1500  -28.8230 H   0  0  0  0  0  0  0  0  0  0  0  0
  1  2  2  0
  2  3  1  0
  3  4  1  0
  4  5  2  0
  5  6  1  0
  6  7  1  0
  7  8  2  0
  7  9  2  0
  7 10  1  0
 10 11  1  0
 11 12  1  0
 12 13  1  0
 13 14  1  0
 14 15  1  0
  6 16  2  0
 16 17  1  0
 17 18  2  0
 18 19  1  0
  2 20  1  0
 20 21  1  0
 21 22  1  0
 22 23  2  0
 23 24  1  0
 24 25  1  0
 18  4  1  0
 24 20  2  0
 15 10  1  0
  5 26  1  0
 11 27  1  0
 11 28  1  0
 12 29  1  0
 12 30  1  0
 13 31  1  0
 13 32  1  0
 14 33  1  0
 14 34  1  0
 15 35  1  0
 15 36  1  0
 16 37  1  0
 17 38  1  0
 22 39  1  0
 23 40  1  0
 25 41  1  0
M  CHG  1   3  -1
M  END
>  <UniqueID>  (19) 
19

>  <SMILES>  (19) 
O=C([N-]c1cc(S(=O)(=O)N2CCCCC2)ccc1F)c1sccc1O

>  <Energy>  (19) 
80.36962915949488

>  <Genealogy>  (19) 
O=C([N-]c1cc(S(=O)(=O)N2CCCCC2)ccc1F)c1sccc1O (protonated)
O=C([N-]c1cc(S(=O)(=O)N2CCCCC2)ccc1F)c1sccc1O (3D coordinates assigned)
O=C([N-]c1cc(S(=O)(=O)N2CCCCC2)ccc1F)c1sccc1O (nonaromatic ring conformer: 80.36962915949488 kcal/mol)

>  <smiles>  (19) 
O=C(Nc1cc(S(=O)(=O)N2CCCCC2)ccc1F)c1sccc1O

>  <score_type>  (19) 
oracle

>  <origin>  (19) 
adgpu

>  <m_score__min__energy>  (19) 
-10.75

>  <m_primary>  (19) 
energy

$$$$
19:0
     RDKit          3D

 58 61  0  0  0  0  0  0  0  0999 V2000
   -0.4870   24.3780  -25.6310 C   0  0  0  0  0  0  0  0  0  0  0  0
   -1.3130   25.2460  -26.4810 N   0  0  0  0  0  0  0  0  0  0  0  0
   -1.0380   26.6570  -26.1890 C   0  0  0  0  0  0  0  0  0  0  0  0
   -0.9790   24.9160  -28.1630 S   0  0  0  0  0  0  0  0  0  0  0  0
    0.4720   24.5520  -28.3220 O   0  0  0  0  0  0  0  0  0  0  0  0
   -1.2350   26.1580  -28.9710 O   0  0  0  0  0  0  0  0  0  0  0  0
   -1.9750   23.5990  -28.7880 C   0  0  0  0  0  0  0  0  0  0  0  0
   -3.0410   23.0960  -28.0270 C   0  0  0  0  0  0  0  0  0  0  0  0
   -3.8810   22.1140  -28.5570 C   0  0  0  0  0  0  0  0  0  0  0  0
   -3.6650   21.6290  -29.8500 C   0  0  0  0  0  0  0  0  0  0  0  0
   -2.5830   22.0970  -30.6070 C   0  0  0  0  0  0  0  0  0  0  0  0
   -2.4040   21.6290  -31.9520 N   0  0  0  0  0  0  0  0  0  0  0  0
   -1.7250   20.4070  -32.2560 C   0  0  0  0  0  0  0  0  0  0  0  0
   -2.0250   19.2660  -32.9790 C   0  0  0  0  0  0  0  0  0  0  0  0
   -3.1610   18.8390  -33.7410 N   0  0  0  0  0  0  0  0  0  0  0  0
   -4.5240   19.0460  -33.3390 C   0  0  0  0  0  0  0  0  0  0  0  0
   -4.8430   19.0910  -31.9730 C   0  0  0  0  0  0  0  0  0  0  0  0
   -6.1600   19.3070  -31.5580 C   0  0  0  0  0  0  0  0  0  0  0  0
   -7.1740   19.4970  -32.5030 C   0  0  0  0  0  0  0  0  0  0  0  0
   -8.8240   19.7850  -31.9590 S   0  0  0  0  0  0  0  0  0  0  0  0
   -9.8160   19.4540  -33.0390 O   0  0  0  0  0  0  0  0  0  0  0  0
   -9.1000   18.9070  -30.7710 O   0  0  0  0  0  0  0  0  0  0  0  0
   -9.0030   21.4490  -31.5000 N   0  0  0  0  0  0  0  0  0  0  0  0
   -7.8930   22.3410  -31.3030 C   0  0  0  0  0  0  0  0  0  0  0  0
   -7.1530   22.8530  -32.3850 C   0  0  0  0  0  0  0  0  0  0  0  0
   -6.0730   23.7110  -32.1580 C   0  0  0  0  0  0  0  0  0  0  0  0
   -5.7250   24.0740  -30.8540 C   0  0  0  0  0  0  0  0  0  0  0  0
   -6.4610   23.5810  -29.7740 C   0  0  0  0  0  0  0  0  0  0  0  0
   -7.5430   22.7220  -29.9960 C   0  0  0  0  0  0  0  0  0  0  0  0
   -6.8570   19.4910  -33.8690 C   0  0  0  0  0  0  0  0  0  0  0  0
   -5.5380   19.2830  -34.2840 C   0  0  0  0  0  0  0  0  0  0  0  0
   -0.7850   18.7420  -32.6530 C   0  0  0  0  0  0  0  0  0  0  0  0
   -0.1840   17.6570  -32.8720 O   0  0  0  0  0  0  0  0  0  0  0  0
   -0.4640   19.9120  -31.9960 C   0  0  0  0  0  0  0  0  0  0  0  0
    0.5500   20.3400  -31.3870 O   0  0  0  0  0  0  0  0  0  0  0  0
   -1.7390   23.0860  -30.0710 C   0  0  0  0  0  0  0  0  0  0  0  0
   -0.6945   24.5960  -24.5730 H   0  0  0  0  0  0  0  0  0  0  0  0
   -0.7246   23.3249  -25.8418 H   0  0  0  0  0  0  0  0  0  0  0  0
    0.5766   24.5632  -25.8418 H   0  0  0  0  0  0  0  0  0  0  0  0
   -1.0088   26.8071  -25.0997 H   0  0  0  0  0  0  0  0  0  0  0  0
   -0.0680   26.9392  -26.6242 H   0  0  0  0  0  0  0  0  0  0  0  0
   -1.8311   27.2828  -26.6242 H   0  0  0  0  0  0  0  0  0  0  0  0
   -3.2158   23.4762  -27.0097 H   0  0  0  0  0  0  0  0  0  0  0  0
   -4.7142   21.7215  -27.9556 H   0  0  0  0  0  0  0  0  0  0  0  0
   -4.3468   20.8774  -30.2746 H   0  0  0  0  0  0  0  0  0  0  0  0
   -2.7440   22.2170  -32.7450 H   0  0  0  0  0  0  0  0  0  0  0  0
   -2.9800   18.3640  -34.6520 H   0  0  0  0  0  0  0  0  0  0  0  0
   -4.0500   18.9552  -31.2229 H   0  0  0  0  0  0  0  0  0  0  0  0
   -6.4001   19.3277  -30.4847 H   0  0  0  0  0  0  0  0  0  0  0  0
   -9.9600   21.7610  -31.2230 H   0  0  0  0  0  0  0  0  0  0  0  0
   -7.4257   22.5767  -33.4142 H   0  0  0  0  0  0  0  0  0  0  0  0
   -5.4951   24.1018  -33.0085 H   0  0  0  0  0  0  0  0  0  0  0  0
   -4.8728   24.7469  -30.6784 H   0  0  0  0  0  0  0  0  0  0  0  0
   -6.1896   23.8685  -28.7475 H   0  0  0  0  0  0  0  0  0  0  0  0
   -8.1235   22.3424  -29.1422 H   0  0  0  0  0  0  0  0  0  0  0  0
   -7.6483   19.6504  -34.6163 H   0  0  0  0  0  0  0  0  0  0  0  0
   -5.2922   19.3049  -35.3560 H   0  0  0  0  0  0  0  0  0  0  0  0
   -0.8892   23.4589  -30.6616 H   0  0  0  0  0  0  0  0  0  0  0  0
  1  2  1  0
  2  3  1  0
  2  4  1  0
  4  5  2  0
  4  6  2  0
  4  7  1  0
  7  8  2  0
  8  9  1  0
  9 10  2  0
 10 11  1  0
 11 12  1  0
 12 13  1  0
 13 14  2  0
 14 15  1  0
 15 16  1  0
 16 17  2  0
 17 18  1  0
 18 19  2  0
 19 20  1  0
 20 21  2  0
 20 22  2  0
 20 23  1  0
 23 24  1  0
 24 25  2  0
 25 26  1  0
 26 27  2  0
 27 28  1  0
 28 29  2  0
 19 30  1  0
 30 31  2  0
 14 32  1  0
 32 33  2  0
 32 34  1  0
 34 35  2  0
 11 36  2  0
 36  7  1  0
 34 13  1  0
 31 16  1  0
 29 24  1  0
  1 37  1  0
  1 38  1  0
  1 39  1  0
  3 40  1  0
  3 41  1  0
  3 42  1  0
  8 43  1  0
  9 44  1  0
 10 45  1  0
 12 46  1  0
 15 47  1  0
 17 48  1  0
 18 49  1  0
 23 50  1  0
 25 51  1  0
 26 52  1  0
 27 53  1  0
 28 54  1  0
 29 55  1  0
 30 56  1  0
 31 57  1  0
 36 58  1  0
M  END
>  <UniqueID>  (20) 
20

>  <SMILES>  (20) 
CN(C)S(=O)(=O)c1cccc(Nc2c(Nc3ccc(S(=O)(=O)Nc4ccccc4)cc3)c(=O)c2=O)c1

>  <Energy>  (20) 
59.39101902532144

>  <Genealogy>  (20) 
CN(C)S(=O)(=O)c1cccc(Nc2c(Nc3ccc(S(=O)(=O)Nc4ccccc4)cc3)c(=O)c2=O)c1 (3D coordinates assigned)
CN(C)S(=O)(=O)c1cccc(Nc2c(Nc3ccc(S(=O)(=O)Nc4ccccc4)cc3)c(=O)c2=O)c1 (optimized conformer: 59.39101902532144 kcal/mol)

>  <smiles>  (20) 
CN(C)S(=O)(=O)c1cccc(Nc2c(Nc3ccc(S(=O)(=O)Nc4ccccc4)cc3)c(=O)c2=O)c1

>  <score_type>  (20) 
oracle

>  <origin>  (20) 
adgpu

>  <m_score__min__energy>  (20) 
-11.140000000000001

>  <m_primary>  (20) 
energy

$$$$
20:0
     RDKit          3D

 52 54  0  0  0  0  0  0  0  0999 V2000
   -2.4520   20.4120  -27.8810 C   0  0  0  0  0  0  0  0  0  0  0  0
   -1.2320   20.8750  -28.1710 C   0  0  0  0  0  0  0  0  0  0  0  0
   -0.8110   21.1820  -29.5830 C   0  0  0  0  0  0  0  0  0  0  0  0
   -1.0130   22.5990  -29.8680 N   0  0  0  0  0  0  0  0  0  0  0  0
   -0.6990   23.6370  -28.9340 C   0  0  0  0  0  0  0  0  0  0  0  0
    0.4510   24.1520  -28.9260 O   0  0  0  0  0  0  0  0  0  0  0  0
   -1.7210   24.1080  -27.9780 C   0  0  0  0  0  0  0  0  0  0  0  0
   -1.3160   24.7670  -26.8060 C   0  0  0  0  0  0  0  0  0  0  0  0
   -2.2650   25.3200  -25.9420 C   0  0  0  0  0  0  0  0  0  0  0  0
   -3.6250   25.2220  -26.2420 C   0  0  0  0  0  0  0  0  0  0  0  0
   -4.0430   24.5470  -27.3910 C   0  0  0  0  0  0  0  0  0  0  0  0
   -3.1030   23.9610  -28.2490 C   0  0  0  0  0  0  0  0  0  0  0  0
   -3.5660   23.1870  -29.3660 N   0  0  0  0  0  0  0  0  0  0  0  0
   -4.3410   23.7780  -30.4210 C   0  0  0  0  0  0  0  0  0  0  0  0
   -4.2680   25.0220  -30.6240 O   0  0  0  0  0  0  0  0  0  0  0  0
   -5.2310   22.9510  -31.2650 C   0  0  0  0  0  0  0  0  0  0  0  0
   -6.6040   23.2430  -31.3480 C   0  0  0  0  0  0  0  0  0  0  0  0
   -7.4540   22.4310  -32.1030 C   0  0  0  0  0  0  0  0  0  0  0  0
   -6.9490   21.3140  -32.7700 C   0  0  0  0  0  0  0  0  0  0  0  0
   -5.5840   21.0040  -32.6880 C   0  0  0  0  0  0  0  0  0  0  0  0
   -4.9400   19.5620  -33.4640 S   0  0  0  0  0  0  0  0  0  0  0  0
   -3.4900   19.7990  -33.7830 O   0  0  0  0  0  0  0  0  0  0  0  0
   -5.6760   19.3000  -34.7500 O   0  0  0  0  0  0  0  0  0  0  0  0
   -5.1070   18.2070  -32.3670 N   0  0  0  0  0  0  0  0  0  0  0  0
   -6.0990   18.4780  -31.3010 C   0  0  0  0  0  0  0  0  0  0  0  0
   -7.4780   17.8610  -31.6000 C   0  0  0  0  0  0  0  0  0  0  0  0
   -7.7100   17.8260  -32.9910 O   0  0  0  0  0  0  0  0  0  0  0  0
   -6.8450   16.8870  -33.6060 C   0  0  0  0  0  0  0  0  0  0  0  0
   -5.3890   16.9520  -33.0870 C   0  0  0  0  0  0  0  0  0  0  0  0
   -4.7300   21.8250  -31.9410 C   0  0  0  0  0  0  0  0  0  0  0  0
   -2.7254   20.1984  -26.8372 H   0  0  0  0  0  0  0  0  0  0  0  0
   -3.1825   20.2446  -28.6862 H   0  0  0  0  0  0  0  0  0  0  0  0
   -0.5143   21.0365  -27.3532 H   0  0  0  0  0  0  0  0  0  0  0  0
    0.2533   20.9336  -29.7078 H   0  0  0  0  0  0  0  0  0  0  0  0
   -1.4181   20.5840  -30.2786 H   0  0  0  0  0  0  0  0  0  0  0  0
   -0.2455   24.8484  -26.5666 H   0  0  0  0  0  0  0  0  0  0  0  0
   -1.9402   25.8330  -25.0247 H   0  0  0  0  0  0  0  0  0  0  0  0
   -4.3690   25.6775  -25.5719 H   0  0  0  0  0  0  0  0  0  0  0  0
   -5.1157   24.4750  -27.6236 H   0  0  0  0  0  0  0  0  0  0  0  0
   -3.1950   22.2190  -29.4940 H   0  0  0  0  0  0  0  0  0  0  0  0
   -7.0110   24.1154  -30.8157 H   0  0  0  0  0  0  0  0  0  0  0  0
   -8.5249   22.6729  -32.1719 H   0  0  0  0  0  0  0  0  0  0  0  0
   -7.6227   20.6759  -33.3608 H   0  0  0  0  0  0  0  0  0  0  0  0
   -5.7234   18.0584  -30.3561 H   0  0  0  0  0  0  0  0  0  0  0  0
   -6.2298   19.5684  -31.2390 H   0  0  0  0  0  0  0  0  0  0  0  0
   -7.5108   16.8364  -31.2012 H   0  0  0  0  0  0  0  0  0  0  0  0
   -8.2552   18.4769  -31.1240 H   0  0  0  0  0  0  0  0  0  0  0  0
   -7.2370   15.8769  -33.4159 H   0  0  0  0  0  0  0  0  0  0  0  0
   -6.8158   17.1301  -34.6784 H   0  0  0  0  0  0  0  0  0  0  0  0
   -5.2188   16.1066  -32.4042 H   0  0  0  0  0  0  0  0  0  0  0  0
   -4.7190   16.9061  -33.9582 H   0  0  0  0  0  0  0  0  0  0  0  0
   -3.6577   21.5866  -31.8828 H   0  0  0  0  0  0  0  0  0  0  0  0
  1  2  2  0
  2  3  1  0
  3  4  1  0
  4  5  1  0
  5  6  2  0
  5  7  1  0
  7  8  2  0
  8  9  1  0
  9 10  2  0
 10 11  1  0
 11 12  2  0
 12 13  1  0
 13 14  1  0
 14 15  2  0
 14 16  1  0
 16 17  2  0
 17 18  1  0
 18 19  2  0
 19 20  1  0
 20 21  1  0
 21 22  2  0
 21 23  2  0
 21 24  1  0
 24 25  1  0
 25 26  1  0
 26 27  1  0
 27 28  1  0
 28 29  1  0
 20 30  2  0
 12  7  1  0
 30 16  1  0
 29 24  1  0
  1 31  1  0
  1 32  1  0
  2 33  1  0
  3 34  1  0
  3 35  1  0
  8 36  1  0
  9 37  1  0
 10 38  1  0
 11 39  1  0
 13 40  1  0
 17 41  1  0
 18 42  1  0
 19 43  1  0
 25 44  1  0
 25 45  1  0
 26 46  1  0
 26 47  1  0
 28 48  1  0
 28 49  1  0
 29 50  1  0
 29 51  1  0
 30 52  1  0
M  CHG  1   4  -1
M  END
>  <UniqueID>  (21) 
21

>  <SMILES>  (21) 
C=CC[N-]C(=O)c1ccccc1NC(=O)c1cccc(S(=O)(=O)N2CCOCC2)c1

>  <Energy>  (21) 
68.76261213367108

>  <Genealogy>  (21) 
C=CC[N-]C(=O)c1ccccc1NC(=O)c1cccc(S(=O)(=O)N2CCOCC2)c1 (protonated)
C=CC[N-]C(=O)c1ccccc1NC(=O)c1cccc(S(=O)(=O)N2CCOCC2)c1 (3D coordinates assigned)
C=CC[N-]C(=O)c1ccccc1NC(=O)c1cccc(S(=O)(=O)N2CCOCC2)c1 (nonaromatic ring conformer: 68.76261213367108 kcal/mol)

>  <smiles>  (21) 
C=CCNC(=O)c1ccccc1NC(=O)c1cccc(S(=O)(=O)N2CCOCC2)c1

>  <score_type>  (21) 
oracle

>  <origin>  (21) 
adgpu

>  <m_score__min__energy>  (21) 
-10.66

>  <m_primary>  (21) 
energy

$$$$
21:0
     RDKit          3D

 39 40  0  0  1  0  0  0  0  0999 V2000
    2.1560   17.0020  -27.4690 C   0  0  0  0  0  0  0  0  0  0  0  0
    0.6500   17.1590  -27.4630 C   0  0  0  0  0  0  0  0  0  0  0  0
    0.2300   18.3770  -28.0980 N   0  0  0  0  0  0  0  0  0  0  0  0
   -0.8470   18.9820  -27.7770 C   0  0  0  0  0  0  0  0  0  0  0  0
   -1.2130   20.1680  -28.4270 C   0  0  0  0  0  0  0  0  0  0  0  0
   -2.3790   20.8180  -28.0770 C   0  0  0  0  0  0  0  0  0  0  0  0
   -2.7750   22.0540  -28.7420 C   0  0  0  0  0  0  0  0  0  0  0  0
   -2.0740   23.2330  -28.5390 C   0  0  0  0  0  0  0  0  0  0  0  0
   -2.4520   24.4190  -29.1750 C   0  0  0  0  0  0  0  0  0  0  0  0
   -1.7180   25.6010  -28.9470 O   0  0  0  0  0  0  0  0  0  0  0  0
   -1.0300   25.8140  -27.7360 C   0  0  0  0  0  0  0  0  0  0  0  0
   -3.5270   24.4670  -30.0190 C   0  0  0  0  0  0  0  0  0  0  0  0
   -3.8690   25.6550  -30.6280 O   0  0  0  0  0  0  0  0  0  0  0  0
   -4.2300   23.3040  -30.2280 C   0  0  0  0  0  0  0  0  0  0  0  0
   -5.5940   23.3450  -31.2950 S   0  0  0  0  0  0  0  0  0  0  0  0
   -7.0480   22.8970  -30.3840 C   0  0  0  0  0  0  0  0  0  0  0  0
   -5.7810   24.7540  -31.8250 O   0  0  0  0  0  0  0  0  0  0  0  0
   -5.3900   22.4380  -32.4830 O   0  0  0  0  0  0  0  0  0  0  0  0
   -3.8500   22.1150  -29.5900 C   0  0  0  0  0  0  0  0  0  0  0  0
   -3.1110   20.2490  -27.1010 N   0  0  0  0  0  0  0  0  0  0  0  0
   -2.7320   19.1020  -26.4900 C   0  0  0  0  0  0  0  0  0  0  0  0
   -1.6040   18.4430  -26.8060 N   0  0  0  0  0  0  0  0  0  0  0  0
    2.5248   16.9636  -26.4334 H   0  0  0  0  0  0  0  0  0  0  0  0
    2.4255   16.0709  -27.9890 H   0  0  0  0  0  0  0  0  0  0  0  0
    2.6118   17.8575  -27.9890 H   0  0  0  0  0  0  0  0  0  0  0  0
    0.2028   16.3080  -27.9977 H   0  0  0  0  0  0  0  0  0  0  0  0
    0.3176   17.1920  -26.4149 H   0  0  0  0  0  0  0  0  0  0  0  0
   -0.5698   20.5818  -29.2177 H   0  0  0  0  0  0  0  0  0  0  0  0
   -1.2046   23.2351  -27.8652 H   0  0  0  0  0  0  0  0  0  0  0  0
   -1.7025   25.6058  -26.8907 H   0  0  0  0  0  0  0  0  0  0  0  0
   -0.1596   25.1433  -27.6859 H   0  0  0  0  0  0  0  0  0  0  0  0
   -0.6908   26.8592  -27.6859 H   0  0  0  0  0  0  0  0  0  0  0  0
   -4.1670   25.6780  -31.5920 H   0  0  0  0  0  0  0  0  0  0  0  0
   -6.8395   22.9612  -29.3059 H   0  0  0  0  0  0  0  0  0  0  0  0
   -7.8677   23.5843  -30.6405 H   0  0  0  0  0  0  0  0  0  0  0  0
   -7.3388   21.8676  -30.6405 H   0  0  0  0  0  0  0  0  0  0  0  0
   -4.4336   21.2013  -29.7760 H   0  0  0  0  0  0  0  0  0  0  0  0
   -3.9980   20.6650  -26.7730 H   0  0  0  0  0  0  0  0  0  0  0  0
   -3.3764   18.6907  -25.6991 H   0  0  0  0  0  0  0  0  0  0  0  0
  1  2  1  0
  2  3  1  0
  3  4  2  0
  4  5  1  0
  5  6  2  0
  6  7  1  0
  7  8  2  0
  8  9  1  0
  9 10  1  0
 10 11  1  0
  9 12  2  0
 12 13  1  0
 12 14  1  0
 14 15  1  0
 15 16  1  0
 15 17  2  0
 15 18  2  0
 14 19  2  0
  6 20  1  0
 20 21  1  0
 21 22  2  0
 22  4  1  0
 19  7  1  0
  1 23  1  0
  1 24  1  0
  1 25  1  0
  2 26  1  0
  2 27  1  0
  5 28  1  0
  8 29  1  0
 11 30  1  0
 11 31  1  0
 11 32  1  0
 13 33  1  0
 16 34  1  0
 16 35  1  0
 16 36  1  0
 19 37  1  0
 20 38  1  0
 21 39  1  0
M  END
>  <smiles>  (22) 
CCN=c1cc(-c2cc(OC)c(O)c(S(C)(=O)=O)c2)[nH]cn1

>  <score_type>  (22) 
oracle

>  <origin>  (22) 
adgpu

>  <m_score__min__energy>  (22) 
-8.7699999999999996

>  <m_primary>  (22) 
energy

$$$$
22:0
     RDKit          3D

 52 55  0  0  0  0  0  0  0  0999 V2000
    0.2630   17.4290  -28.1190 C   0  0  0  0  0  0  0  0  0  0  0  0
   -0.0350   18.8090  -27.6120 C   0  0  0  0  0  0  0  0  0  0  0  0
   -1.2590   19.0810  -26.9830 C   0  0  0  0  0  0  0  0  0  0  0  0
   -1.5520   20.3750  -26.5410 C   0  0  0  0  0  0  0  0  0  0  0  0
   -0.6340   21.4170  -26.7440 C   0  0  0  0  0  0  0  0  0  0  0  0
   -0.9340   22.7980  -26.2360 C   0  0  0  0  0  0  0  0  0  0  0  0
    0.2660   23.6240  -26.3580 N   0  0  0  0  0  0  0  0  0  0  0  0
    0.2120   24.5270  -27.8400 S   0  0  0  0  0  0  0  0  0  0  0  0
    1.5130   24.3670  -28.5790 O   0  0  0  0  0  0  0  0  0  0  0  0
    0.0200   25.9830  -27.5240 O   0  0  0  0  0  0  0  0  0  0  0  0
   -1.1290   23.9730  -28.8370 C   0  0  0  0  0  0  0  0  0  0  0  0
   -1.1750   22.6230  -29.2600 C   0  0  0  0  0  0  0  0  0  0  0  0
   -2.2260   22.1620  -30.0730 C   0  0  0  0  0  0  0  0  0  0  0  0
   -3.2000   23.0830  -30.4600 C   0  0  0  0  0  0  0  0  0  0  0  0
   -4.3580   22.9850  -31.2070 C   0  0  0  0  0  0  0  0  0  0  0  0
   -4.8980   21.8020  -31.9080 C   0  0  0  0  0  0  0  0  0  0  0  0
   -4.1330   21.1180  -32.8630 C   0  0  0  0  0  0  0  0  0  0  0  0
   -4.6590   20.0070  -33.5240 C   0  0  0  0  0  0  0  0  0  0  0  0
   -5.9610   19.5580  -33.2490 C   0  0  0  0  0  0  0  0  0  0  0  0
   -6.4900   18.3620  -33.9960 C   0  0  0  0  0  0  0  0  0  0  0  0
   -6.7550   20.2680  -32.3150 C   0  0  0  0  0  0  0  0  0  0  0  0
   -8.4160   19.7790  -31.9400 S   0  0  0  0  0  0  0  0  0  0  0  0
   -8.4260   18.1410  -31.3870 N   0  0  0  0  0  0  0  0  0  0  0  0
   -8.9870   20.6610  -30.8640 O   0  0  0  0  0  0  0  0  0  0  0  0
   -9.2760   19.9060  -33.1660 O   0  0  0  0  0  0  0  0  0  0  0  0
   -6.2110   21.3820  -31.6540 C   0  0  0  0  0  0  0  0  0  0  0  0
   -4.9740   24.1930  -31.1950 N   0  0  0  0  0  0  0  0  0  0  0  0
   -4.2450   25.0490  -30.4840 N   0  0  0  0  0  0  0  0  0  0  0  0
   -3.1680   24.3820  -30.0380 C   0  0  0  0  0  0  0  0  0  0  0  0
   -2.1460   24.8710  -29.2290 C   0  0  0  0  0  0  0  0  0  0  0  0
    0.5900   21.1440  -27.3750 C   0  0  0  0  0  0  0  0  0  0  0  0
    0.8820   19.8500  -27.8170 C   0  0  0  0  0  0  0  0  0  0  0  0
    0.4098   16.7491  -27.2669 H   0  0  0  0  0  0  0  0  0  0  0  0
   -0.5791   17.0734  -28.7310 H   0  0  0  0  0  0  0  0  0  0  0  0
    1.1768   17.4526  -28.7310 H   0  0  0  0  0  0  0  0  0  0  0  0
   -1.9912   18.2732  -26.8369 H   0  0  0  0  0  0  0  0  0  0  0  0
   -2.5060   20.5770  -26.0321 H   0  0  0  0  0  0  0  0  0  0  0  0
   -1.7475   23.2402  -26.8299 H   0  0  0  0  0  0  0  0  0  0  0  0
   -1.2423   22.7460  -25.1814 H   0  0  0  0  0  0  0  0  0  0  0  0
   -0.3811   21.9277  -28.9499 H   0  0  0  0  0  0  0  0  0  0  0  0
   -2.2783   21.1109  -30.3929 H   0  0  0  0  0  0  0  0  0  0  0  0
   -3.1126   21.4587  -33.0927 H   0  0  0  0  0  0  0  0  0  0  0  0
   -4.0469   19.4771  -34.2687 H   0  0  0  0  0  0  0  0  0  0  0  0
   -6.8269   17.6004  -33.2773 H   0  0  0  0  0  0  0  0  0  0  0  0
   -7.3361   18.6693  -34.6281 H   0  0  0  0  0  0  0  0  0  0  0  0
   -5.6934   17.9427  -34.6281 H   0  0  0  0  0  0  0  0  0  0  0  0
   -7.5990   18.0260  -30.7580 H   0  0  0  0  0  0  0  0  0  0  0  0
   -9.2770   18.0230  -30.7930 H   0  0  0  0  0  0  0  0  0  0  0  0
   -6.8247   21.9330  -30.9261 H   0  0  0  0  0  0  0  0  0  0  0  0
   -2.1311   25.9223  -28.9057 H   0  0  0  0  0  0  0  0  0  0  0  0
    1.3224   21.9514  -27.5223 H   0  0  0  0  0  0  0  0  0  0  0  0
    1.8350   19.6477  -28.3277 H   0  0  0  0  0  0  0  0  0  0  0  0
  1  2  1  0
  2  3  2  0
  3  4  1  0
  4  5  2  0
  5  6  1  0
  6  7  1  0
  7  8  1  0
  8  9  2  0
  8 10  2  0
  8 11  1  0
 11 12  1  0
 12 13  2  0
 13 14  1  0
 14 15  2  0
 15 16  1  0
 16 17  2  0
 17 18  1  0
 18 19  2  0
 19 20  1  0
 19 21  1  0
 21 22  1  0
 22 23  1  0
 22 24  2  0
 22 25  2  0
 21 26  2  0
 15 27  1  0
 27 28  1  0
 28 29  2  0
 29 30  1  0
  5 31  1  0
 31 32  2  0
 32  2  1  0
 30 11  2  0
 29 14  1  0
 26 16  1  0
  1 33  1  0
  1 34  1  0
  1 35  1  0
  3 36  1  0
  4 37  1  0
  6 38  1  0
  6 39  1  0
 12 40  1  0
 13 41  1  0
 17 42  1  0
 18 43  1  0
 20 44  1  0
 20 45  1  0
 20 46  1  0
 23 47  1  0
 23 48  1  0
 26 49  1  0
 30 50  1  0
 31 51  1  0
 32 52  1  0
M  CHG  2   7  -1  27  -1
M  END
>  <UniqueID>  (23) 
22

>  <SMILES>  (23) 
Cc1ccc(C[N-]S(=O)(=O)c2ccc3c(-c4ccc(C)c(S(N)(=O)=O)c4)[n-]nc3c2)cc1

>  <Energy>  (23) 
95.42997342426206

>  <Genealogy>  (23) 
Cc1ccc(C[N-]S(=O)(=O)c2ccc3c(-c4ccc(C)c(S(N)(=O)=O)c4)[n-]nc3c2)cc1 (protonated)
Cc1ccc(C[N-]S(=O)(=O)c2ccc3c(-c4ccc(C)c(S(N)(=O)=O)c4)[n-]nc3c2)cc1 (3D coordinates assigned)
Cc1ccc(C[N-]S(=O)(=O)c2ccc3c(-c4ccc(C)c(S(N)(=O)=O)c4)[n-]nc3c2)cc1 (optimized conformer: 95.42997342426206 kcal/mol)

>  <smiles>  (23) 
Cc1ccc(CNS(=O)(=O)c2ccc3c(-c4ccc(C)c(S(N)(=O)=O)c4)[nH]nc3c2)cc1

>  <score_type>  (23) 
oracle

>  <origin>  (23) 
adgpu

>  <m_score__min__energy>  (23) 
-12.67

>  <m_primary>  (23) 
energy

$$$$
23:0
     RDKit          3D

 39 41  0  0  0  0  0  0  0  0999 V2000
   -7.5430   19.9340  -33.1040 C   0  0  0  0  0  0  0  0  0  0  0  0
   -7.0670   21.1180  -32.3170 C   0  0  0  0  0  0  0  0  0  0  0  0
   -5.7150   21.4940  -32.3560 C   0  0  0  0  0  0  0  0  0  0  0  0
   -5.2790   22.6230  -31.6560 C   0  0  0  0  0  0  0  0  0  0  0  0
   -6.1890   23.3950  -30.9220 C   0  0  0  0  0  0  0  0  0  0  0  0
   -5.6330   24.8360  -30.0780 S   0  0  0  0  0  0  0  0  0  0  0  0
   -6.8180   25.7160  -29.7950 O   0  0  0  0  0  0  0  0  0  0  0  0
   -4.6460   25.5990  -30.9160 O   0  0  0  0  0  0  0  0  0  0  0  0
   -4.8780   24.3890  -28.5800 N   0  0  0  0  0  0  0  0  0  0  0  0
   -3.7050   23.5570  -28.4990 C   0  0  0  0  0  0  0  0  0  0  0  0
   -3.7620   22.2660  -27.9410 C   0  0  0  0  0  0  0  0  0  0  0  0
   -2.6120   21.4700  -27.8520 C   0  0  0  0  0  0  0  0  0  0  0  0
   -1.3770   21.9750  -28.3060 C   0  0  0  0  0  0  0  0  0  0  0  0
   -1.3250   23.2460  -28.8930 C   0  0  0  0  0  0  0  0  0  0  0  0
   -2.4750   24.0340  -28.9860 C   0  0  0  0  0  0  0  0  0  0  0  0
   -2.3840   25.2980  -29.5570 O   0  0  0  0  0  0  0  0  0  0  0  0
   -0.1320   21.1200  -28.2650 C   0  0  0  0  0  0  0  0  0  0  0  0
   -0.2280   20.0400  -27.2730 N   0  0  0  0  0  0  0  0  0  0  0  0
   -1.4590   19.2650  -27.4680 C   0  0  0  0  0  0  0  0  0  0  0  0
   -2.6970   20.1230  -27.1830 C   0  0  0  0  0  0  0  0  0  0  0  0
   -7.5420   23.0280  -30.8940 C   0  0  0  0  0  0  0  0  0  0  0  0
   -7.9790   21.8990  -31.5930 C   0  0  0  0  0  0  0  0  0  0  0  0
   -7.8625   19.1393  -32.4137 H   0  0  0  0  0  0  0  0  0  0  0  0
   -8.3912   20.2320  -33.7378 H   0  0  0  0  0  0  0  0  0  0  0  0
   -6.7246   19.5620  -33.7378 H   0  0  0  0  0  0  0  0  0  0  0  0
   -4.9967   20.8987  -32.9389 H   0  0  0  0  0  0  0  0  0  0  0  0
   -4.2165   22.9065  -31.6817 H   0  0  0  0  0  0  0  0  0  0  0  0
   -5.3820   24.6550  -27.7050 H   0  0  0  0  0  0  0  0  0  0  0  0
   -4.7216   21.8768  -27.5700 H   0  0  0  0  0  0  0  0  0  0  0  0
   -0.3701   23.6270  -29.2842 H   0  0  0  0  0  0  0  0  0  0  0  0
    0.0238   20.6745  -29.2586 H   0  0  0  0  0  0  0  0  0  0  0  0
    0.7102   21.7665  -27.9773 H   0  0  0  0  0  0  0  0  0  0  0  0
   -0.2340   20.4590  -26.3130 H   0  0  0  0  0  0  0  0  0  0  0  0
   -1.4994   18.9089  -28.5080 H   0  0  0  0  0  0  0  0  0  0  0  0
   -1.4529   18.4145  -26.7704 H   0  0  0  0  0  0  0  0  0  0  0  0
   -3.5882   19.5965  -27.5553 H   0  0  0  0  0  0  0  0  0  0  0  0
   -2.7574   20.2847  -26.0966 H   0  0  0  0  0  0  0  0  0  0  0  0
   -8.2618   23.6303  -30.3203 H   0  0  0  0  0  0  0  0  0  0  0  0
   -9.0434   21.6220  -31.5749 H   0  0  0  0  0  0  0  0  0  0  0  0
  1  2  1  0
  2  3  2  0
  3  4  1  0
  4  5  2  0
  5  6  1  0
  6  7  2  0
  6  8  2  0
  6  9  1  0
  9 10  1  0
 10 11  2  0
 11 12  1  0
 12 13  2  0
 13 14  1  0
 14 15  2  0
 15 16  1  0
 13 17  1  0
 17 18  1  0
 18 19  1  0
 19 20  1  0
  5 21  1  0
 21 22  2  0
 22  2  1  0
 15 10  1  0
 20 12  1  0
  1 23  1  0
  1 24  1  0
  1 25  1  0
  3 26  1  0
  4 27  1  0
  9 28  1  0
 11 29  1  0
 14 30  1  0
 17 31  1  0
 17 32  1  0
 18 33  1  0
 19 34  1  0
 19 35  1  0
 20 36  1  0
 20 37  1  0
 21 38  1  0
 22 39  1  0
M  CHG  1  16  -1
M  END
>  <UniqueID>  (24) 
23

>  <SMILES>  (24) 
Cc1ccc(S(=O)(=O)Nc2cc3c(cc2[O-])CNCC3)cc1

>  <Energy>  (24) 
44.719744275830955

>  <Genealogy>  (24) 
Cc1ccc(S(=O)(=O)Nc2cc3c(cc2[O-])CNCC3)cc1 (protonated)
Cc1ccc(S(=O)(=O)Nc2cc3c(cc2[O-])CNCC3)cc1 (3D coordinates assigned)
Cc1ccc(S(=O)(=O)Nc2cc3c(cc2[O-])CNCC3)cc1 (nonaromatic ring conformer: 44.719744275830955 kcal/mol)

>  <smiles>  (24) 
Cc1ccc(S(=O)(=O)Nc2cc3c(cc2O)CNCC3)cc1

>  <score_type>  (24) 
oracle

>  <origin>  (24) 
adgpu

>  <m_score__min__energy>  (24) 
-12.4

>  <m_primary>  (24) 
energy

$$$$
24:0
     RDKit          3D

 38 41  0  0  0  0  0  0  0  0999 V2000
   -8.7030   19.2560  -31.7960 O   0  0  0  0  0  0  0  0  0  0  0  0
   -7.5290   19.5950  -32.1120 C   0  0  0  0  0  0  0  0  0  0  0  0
   -6.7080   18.7050  -32.9660 C   0  0  0  0  0  0  0  0  0  0  0  0
   -7.2240   17.4810  -33.4310 C   0  0  0  0  0  0  0  0  0  0  0  0
   -6.4470   16.6460  -34.2360 C   0  0  0  0  0  0  0  0  0  0  0  0
   -5.1500   17.0210  -34.5860 C   0  0  0  0  0  0  0  0  0  0  0  0
   -4.6230   18.2320  -34.1320 C   0  0  0  0  0  0  0  0  0  0  0  0
   -5.3950   19.0840  -33.3200 C   0  0  0  0  0  0  0  0  0  0  0  0
   -4.8410   20.3710  -32.8370 C   0  0  0  0  0  0  0  0  0  0  0  0
   -3.6670   20.7090  -33.1540 O   0  0  0  0  0  0  0  0  0  0  0  0
   -5.6630   21.2600  -31.9820 C   0  0  0  0  0  0  0  0  0  0  0  0
   -5.1450   22.4830  -31.5150 C   0  0  0  0  0  0  0  0  0  0  0  0
   -5.9190   23.3200  -30.7030 C   0  0  0  0  0  0  0  0  0  0  0  0
   -5.2620   24.8410  -30.1080 S   0  0  0  0  0  0  0  0  0  0  0  0
   -4.5660   25.5880  -31.2120 O   0  0  0  0  0  0  0  0  0  0  0  0
   -6.3870   25.6840  -29.5800 O   0  0  0  0  0  0  0  0  0  0  0  0
   -4.1290   24.5400  -28.8300 N   0  0  0  0  0  0  0  0  0  0  0  0
   -2.9690   23.7010  -28.9310 C   0  0  0  0  0  0  0  0  0  0  0  0
   -3.0470   22.3020  -28.7870 C   0  0  0  0  0  0  0  0  0  0  0  0
   -1.8930   21.5190  -28.8850 C   0  0  0  0  0  0  0  0  0  0  0  0
   -0.6560   22.1200  -29.1300 C   0  0  0  0  0  0  0  0  0  0  0  0
   -0.5710   23.5060  -29.2780 C   0  0  0  0  0  0  0  0  0  0  0  0
   -1.7230   24.2950  -29.1790 C   0  0  0  0  0  0  0  0  0  0  0  0
   -1.6220   25.6740  -29.3270 O   0  0  0  0  0  0  0  0  0  0  0  0
   -7.2210   22.9430  -30.3610 C   0  0  0  0  0  0  0  0  0  0  0  0
   -7.7470   21.7320  -30.8170 C   0  0  0  0  0  0  0  0  0  0  0  0
   -6.9750   20.8820  -31.6280 C   0  0  0  0  0  0  0  0  0  0  0  0
   -8.2463   17.1802  -33.1583 H   0  0  0  0  0  0  0  0  0  0  0  0
   -6.8583   15.6909  -34.5948 H   0  0  0  0  0  0  0  0  0  0  0  0
   -4.5407   16.3613  -35.2212 H   0  0  0  0  0  0  0  0  0  0  0  0
   -3.5990   18.5216  -34.4105 H   0  0  0  0  0  0  0  0  0  0  0  0
   -4.1233   22.7833  -31.7906 H   0  0  0  0  0  0  0  0  0  0  0  0
   -4.0192   21.8239  -28.5968 H   0  0  0  0  0  0  0  0  0  0  0  0
   -1.9592   20.4271  -28.7689 H   0  0  0  0  0  0  0  0  0  0  0  0
    0.2507   21.5018  -29.2063 H   0  0  0  0  0  0  0  0  0  0  0  0
    0.4030   23.9786  -29.4727 H   0  0  0  0  0  0  0  0  0  0  0  0
   -7.8341   23.6031  -29.7299 H   0  0  0  0  0  0  0  0  0  0  0  0
   -8.7712   21.4418  -30.5399 H   0  0  0  0  0  0  0  0  0  0  0  0
  1  2  2  0
  2  3  1  0
  3  4  2  0
  4  5  1  0
  5  6  2  0
  6  7  1  0
  7  8  2  0
  8  9  1  0
  9 10  2  0
  9 11  1  0
 11 12  2  0
 12 13  1  0
 13 14  1  0
 14 15  2  0
 14 16  2  0
 14 17  1  0
 17 18  1  0
 18 19  2  0
 19 20  1  0
 20 21  2  0
 21 22  1  0
 22 23  2  0
 23 24  1  0
 13 25  2  0
 25 26  1  0
 26 27  2  0
 27  2  1  0
  8  3  1  0
 27 11  1  0
 23 18  1  0
  4 28  1  0
  5 29  1  0
  6 30  1  0
  7 31  1  0
 12 32  1  0
 19 33  1  0
 20 34  1  0
 21 35  1  0
 22 36  1  0
 25 37  1  0
 26 38  1  0
M  CHG  2  17  -1  24  -1
M  END
>  <UniqueID>  (25) 
24

>  <SMILES>  (25) 
O=C1c2ccccc2C(=O)c2cc(S(=O)(=O)[N-]c3ccccc3[O-])ccc21

>  <Energy>  (25) 
51.103853985476114

>  <Genealogy>  (25) 
O=C1c2ccccc2C(=O)c2cc(S(=O)(=O)[N-]c3ccccc3[O-])ccc21 (protonated)
O=C1c2ccccc2C(=O)c2cc(S(=O)(=O)[N-]c3ccccc3[O-])ccc21 (3D coordinates assigned)
O=C1c2ccccc2C(=O)c2cc(S(=O)(=O)[N-]c3ccccc3[O-])ccc21 (nonaromatic ring conformer: 51.103853985476114 kcal/mol)

>  <smiles>  (25) 
O=C1c2ccccc2C(=O)c2cc(S(=O)(=O)Nc3ccccc3O)ccc21

>  <score_type>  (25) 
oracle

>  <origin>  (25) 
adgpu

>  <m_score__min__energy>  (25) 
-15.380000000000001

>  <m_primary>  (25) 
energy

$$$$
25:0
     RDKit          3D

 59 62  0  0  1  0  0  0  0  0999 V2000
    1.3600   28.6280  -22.6910 C   0  0  0  0  0  0  0  0  0  0  0  0
    0.7100   27.9080  -23.7990 C   0  0  0  0  0  0  0  0  0  0  0  0
    0.5650   28.5350  -25.0110 C   0  0  0  0  0  0  0  0  0  0  0  0
   -0.0510   27.8380  -26.0100 C   0  0  0  0  0  0  0  0  0  0  0  0
   -0.5300   26.4980  -25.8030 C   0  0  0  0  0  0  0  0  0  0  0  0
   -1.0680   25.8510  -26.7500 N   0  0  0  0  0  0  0  0  0  0  0  0
   -1.2720   25.1760  -27.6820 C   0  0  0  0  0  0  0  0  0  0  0  0
   -2.4990   24.9170  -28.2190 C   0  0  0  0  0  0  0  0  0  0  0  0
   -2.7090   24.0740  -29.3070 C   0  0  0  0  0  0  0  0  0  0  0  0
   -4.0540   23.8570  -29.8130 C   0  0  0  0  0  0  0  0  0  0  0  0
   -5.0030   23.1720  -29.1140 C   0  0  0  0  0  0  0  0  0  0  0  0
   -6.2740   22.9800  -29.6180 C   0  0  0  0  0  0  0  0  0  0  0  0
   -6.6150   23.4850  -30.8570 C   0  0  0  0  0  0  0  0  0  0  0  0
   -7.9780   23.2580  -31.3540 C   0  0  0  0  0  0  0  0  0  0  0  0
   -8.0530   22.2000  -32.3480 N   0  0  0  0  0  0  0  0  0  0  0  0
   -6.7530   21.5930  -32.4380 C   0  0  0  0  0  0  0  0  0  0  0  0
   -6.5630   20.3670  -31.6090 C   0  0  0  0  0  0  0  0  0  0  0  0
   -7.6430   19.1100  -32.3080 S   0  0  0  0  0  0  0  0  0  0  0  0
   -8.1180   18.1600  -31.2600 O   0  0  0  0  0  0  0  0  0  0  0  0
   -6.9420   18.4470  -33.4490 O   0  0  0  0  0  0  0  0  0  0  0  0
   -9.0760   20.0490  -32.8600 C   0  0  0  0  0  0  0  0  0  0  0  0
   -9.0900   21.2700  -31.9620 C   0  0  0  0  0  0  0  0  0  0  0  0
   -5.6370   24.1740  -31.5430 C   0  0  0  0  0  0  0  0  0  0  0  0
   -4.4000   24.3450  -31.0220 N   0  0  0  0  0  0  0  0  0  0  0  0
   -1.6110   23.5070  -29.8230 N   0  0  0  0  0  0  0  0  0  0  0  0
   -0.4320   23.7610  -29.3010 N   0  0  0  0  0  0  0  0  0  0  0  0
   -0.1850   24.5560  -28.2680 C   0  0  0  0  0  0  0  0  0  0  0  0
    0.9210   24.7750  -27.8780 N   0  0  0  0  0  0  0  0  0  0  0  0
    1.6400   25.4690  -26.9870 C   0  0  0  0  0  0  0  0  0  0  0  0
    2.3310   24.2350  -26.2200 C   0  0  0  0  0  0  0  0  0  0  0  0
    1.5130   23.7960  -25.2420 F   0  0  0  0  0  0  0  0  0  0  0  0
    3.5250   24.6470  -25.7510 F   0  0  0  0  0  0  0  0  0  0  0  0
    2.4730   23.2840  -27.1870 F   0  0  0  0  0  0  0  0  0  0  0  0
   -0.3320   25.9380  -24.5170 C   0  0  0  0  0  0  0  0  0  0  0  0
    0.2770   26.6570  -23.5650 N   0  0  0  0  0  0  0  0  0  0  0  0
    0.9990   28.2281  -21.7320 H   0  0  0  0  0  0  0  0  0  0  0  0
    2.4500   28.4950  -22.7567 H   0  0  0  0  0  0  0  0  0  0  0  0
    1.1166   29.6987  -22.7567 H   0  0  0  0  0  0  0  0  0  0  0  0
    0.9311   29.5598  -25.1713 H   0  0  0  0  0  0  0  0  0  0  0  0
   -0.1838   28.3113  -26.9941 H   0  0  0  0  0  0  0  0  0  0  0  0
   -3.3751   25.4034  -27.7652 H   0  0  0  0  0  0  0  0  0  0  0  0
   -4.7501   22.7625  -28.1249 H   0  0  0  0  0  0  0  0  0  0  0  0
   -7.0180   22.4224  -29.0301 H   0  0  0  0  0  0  0  0  0  0  0  0
   -8.6201   22.9855  -30.5034 H   0  0  0  0  0  0  0  0  0  0  0  0
   -8.3098   24.1880  -31.8388 H   0  0  0  0  0  0  0  0  0  0  0  0
   -6.5761   21.3230  -33.4896 H   0  0  0  0  0  0  0  0  0  0  0  0
   -6.0424   22.3368  -32.0484 H   0  0  0  0  0  0  0  0  0  0  0  0
   -5.5149   20.0360  -31.6538 H   0  0  0  0  0  0  0  0  0  0  0  0
   -6.8042   20.5580  -30.5529 H   0  0  0  0  0  0  0  0  0  0  0  0
   -8.9676   20.3419  -33.9147 H   0  0  0  0  0  0  0  0  0  0  0  0
  -10.0088   19.4694  -32.7971 H   0  0  0  0  0  0  0  0  0  0  0  0
  -10.0684   21.7663  -32.0426 H   0  0  0  0  0  0  0  0  0  0  0  0
   -8.9091   20.9489  -30.9256 H   0  0  0  0  0  0  0  0  0  0  0  0
   -5.8672   24.5930  -32.5337 H   0  0  0  0  0  0  0  0  0  0  0  0
   -1.6930   22.8670  -30.6320 H   0  0  0  0  0  0  0  0  0  0  0  0
    0.3830   23.2880  -29.7460 H   0  0  0  0  0  0  0  0  0  0  0  0
    2.3806   26.1223  -27.4715 H   0  0  0  0  0  0  0  0  0  0  0  0
    1.0705   26.1650  -26.3536 H   0  0  0  0  0  0  0  0  0  0  0  0
   -0.6772   24.9162  -24.3009 H   0  0  0  0  0  0  0  0  0  0  0  0
  1  2  1  0
  2  3  2  0
  3  4  1  0
  4  5  2  0
  5  6  1  0
  6  7  2  0
  7  8  1  0
  8  9  2  0
  9 10  1  0
 10 11  2  0
 11 12  1  0
 12 13  2  0
 13 14  1  0
 14 15  1  0
 15 16  1  0
 16 17  1  0
 17 18  1  0
 18 19  2  0
 18 20  2  0
 18 21  1  0
 21 22  1  0
 13 23  1  0
 23 24  2  0
  9 25  1  0
 25 26  1  0
 26 27  1  0
 27 28  2  0
 28 29  1  0
 29 30  1  0
 30 31  1  0
 30 32  1  0
 30 33  1  0
  5 34  1  0
 34 35  2  0
 35  2  1  0
 27  7  1  0
 24 10  1  0
 22 15  1  0
  1 36  1  0
  1 37  1  0
  1 38  1  0
  3 39  1  0
  4 40  1  0
  8 41  1  0
 11 42  1  0
 12 43  1  0
 14 44  1  0
 14 45  1  0
 16 46  1  0
 16 47  1  0
 17 48  1  0
 17 49  1  0
 21 50  1  0
 21 51  1  0
 22 52  1  0
 22 53  1  0
 23 54  1  0
 25 55  1  0
 26 56  1  0
 29 57  1  0
 29 58  1  0
 34 59  1  0
M  END
>  <smiles>  (26) 
Cc1ccc(N=c2cc(-c3ccc(CN4CCS(=O)(=O)CC4)cn3)[nH][nH]c2=NCC(F)(F)F)cn1

>  <score_type>  (26) 
oracle

>  <origin>  (26) 
adgpu

>  <m_score__min__energy>  (26) 
-9.4000000000000004

>  <m_primary>  (26) 
energy

$$$$
26:0
     RDKit          3D

 25 27  0  0  0  0  0  0  0  0999 V2000
   -3.7520   24.5270  -26.9460 C   0  0  0  0  0  0  0  0  0  0  0  0
   -2.3370   24.5540  -28.0880 S   0  0  0  0  0  0  0  0  0  0  0  0
   -3.2250   23.7030  -29.3910 C   0  0  0  0  0  0  0  0  0  0  0  0
   -3.4470   22.0400  -29.4850 S   0  0  0  0  0  0  0  0  0  0  0  0
   -4.3310   22.1470  -30.9170 C   0  0  0  0  0  0  0  0  0  0  0  0
   -4.8910   20.9990  -31.6360 C   0  0  0  0  0  0  0  0  0  0  0  0
   -4.4010   20.4760  -32.8310 C   0  0  0  0  0  0  0  0  0  0  0  0
   -5.2430   19.4240  -33.1080 C   0  0  0  0  0  0  0  0  0  0  0  0
   -5.2570   18.5220  -34.1690 C   0  0  0  0  0  0  0  0  0  0  0  0
   -6.2620   17.5360  -34.1770 C   0  0  0  0  0  0  0  0  0  0  0  0
   -7.2160   17.4790  -33.1350 C   0  0  0  0  0  0  0  0  0  0  0  0
   -7.1730   18.4070  -32.0770 C   0  0  0  0  0  0  0  0  0  0  0  0
   -6.1670   19.3700  -32.0990 C   0  0  0  0  0  0  0  0  0  0  0  0
   -5.9460   20.3190  -31.2220 O   0  0  0  0  0  0  0  0  0  0  0  0
   -4.4660   23.4280  -31.3290 N   0  0  0  0  0  0  0  0  0  0  0  0
   -3.8510   24.2930  -30.4800 C   0  0  0  0  0  0  0  0  0  0  0  0
   -3.8570   25.6640  -30.6990 O   0  0  0  0  0  0  0  0  0  0  0  0
   -3.3862   24.5340  -25.9086 H   0  0  0  0  0  0  0  0  0  0  0  0
   -4.3800   25.4133  -27.1193 H   0  0  0  0  0  0  0  0  0  0  0  0
   -4.3457   23.6174  -27.1193 H   0  0  0  0  0  0  0  0  0  0  0  0
   -3.5386   20.8245  -33.4182 H   0  0  0  0  0  0  0  0  0  0  0  0
   -4.5086   18.5780  -34.9732 H   0  0  0  0  0  0  0  0  0  0  0  0
   -6.3052   16.8058  -34.9986 H   0  0  0  0  0  0  0  0  0  0  0  0
   -7.9970   16.7045  -33.1510 H   0  0  0  0  0  0  0  0  0  0  0  0
   -7.9092   18.3726  -31.2604 H   0  0  0  0  0  0  0  0  0  0  0  0
  1  2  1  0
  2  3  1  0
  3  4  1  0
  4  5  1  0
  5  6  1  0
  6  7  2  0
  7  8  1  0
  8  9  2  0
  9 10  1  0
 10 11  2  0
 11 12  1  0
 12 13  2  0
 13 14  1  0
  5 15  2  0
 15 16  1  0
 16 17  1  0
 16  3  2  0
 14  6  1  0
 13  8  1  0
  1 18  1  0
  1 19  1  0
  1 20  1  0
  7 21  1  0
  9 22  1  0
 10 23  1  0
 11 24  1  0
 12 25  1  0
M  CHG  1  17  -1
M  END
>  <UniqueID>  (27) 
25

>  <SMILES>  (27) 
CSc1sc(-c2cc3ccccc3o2)nc1[O-]

>  <Energy>  (27) 
86.75174442137718

>  <Genealogy>  (27) 
CSc1sc(-c2cc3ccccc3o2)nc1[O-] (protonated)
CSc1sc(-c2cc3ccccc3o2)nc1[O-] (3D coordinates assigned)
CSc1sc(-c2cc3ccccc3o2)nc1[O-] (optimized conformer: 86.75174442137718 kcal/mol)

>  <smiles>  (27) 
CSc1sc(-c2cc3ccccc3o2)nc1O

>  <score_type>  (27) 
oracle

>  <origin>  (27) 
adgpu

>  <m_score__min__energy>  (27) 
-9.6799999999999997

>  <m_primary>  (27) 
energy

$$$$
27:0
     RDKit          3D

 50 53  0  0  0  0  0  0  0  0999 V2000
   -0.1060   21.8930  -34.1700 O   0  0  0  0  0  0  0  0  0  0  0  0
    0.0560   21.0550  -33.2450 C   0  0  0  0  0  0  0  0  0  0  0  0
    0.8110   19.9000  -33.4730 C   0  0  0  0  0  0  0  0  0  0  0  0
    0.9780   18.9840  -32.4340 C   0  0  0  0  0  0  0  0  0  0  0  0
    0.3870   19.2410  -31.1930 C   0  0  0  0  0  0  0  0  0  0  0  0
    0.5210   18.3530  -30.1180 C   0  0  0  0  0  0  0  0  0  0  0  0
   -0.0830   18.6450  -28.8910 C   0  0  0  0  0  0  0  0  0  0  0  0
   -0.8180   19.8290  -28.7280 C   0  0  0  0  0  0  0  0  0  0  0  0
   -1.5560   20.2130  -27.1760 S   0  0  0  0  0  0  0  0  0  0  0  0
   -0.6810   21.1440  -26.3840 O   0  0  0  0  0  0  0  0  0  0  0  0
   -1.7410   18.9390  -26.4010 O   0  0  0  0  0  0  0  0  0  0  0  0
   -3.1020   20.9620  -27.4240 N   0  0  0  0  0  0  0  0  0  0  0  0
   -3.2970   22.1700  -28.1810 C   0  0  0  0  0  0  0  0  0  0  0  0
   -2.7640   23.4040  -27.7650 C   0  0  0  0  0  0  0  0  0  0  0  0
   -2.9600   24.5530  -28.5340 C   0  0  0  0  0  0  0  0  0  0  0  0
   -3.6980   24.4940  -29.7180 C   0  0  0  0  0  0  0  0  0  0  0  0
   -3.8650   25.6490  -30.4730 O   0  0  0  0  0  0  0  0  0  0  0  0
   -4.2590   23.2740  -30.1350 C   0  0  0  0  0  0  0  0  0  0  0  0
   -5.2010   23.1680  -31.6260 S   0  0  0  0  0  0  0  0  0  0  0  0
   -5.7360   24.5240  -31.9940 O   0  0  0  0  0  0  0  0  0  0  0  0
   -4.2990   22.6770  -32.7240 O   0  0  0  0  0  0  0  0  0  0  0  0
   -6.5330   22.0580  -31.4120 N   0  0  0  0  0  0  0  0  0  0  0  0
   -7.8120   22.7610  -31.6070 C   0  0  0  0  0  0  0  0  0  0  0  0
   -8.9860   21.8590  -31.1840 C   0  0  0  0  0  0  0  0  0  0  0  0
   -8.6410   20.3630  -31.2870 C   0  0  0  0  0  0  0  0  0  0  0  0
   -7.6990   20.0940  -32.4640 C   0  0  0  0  0  0  0  0  0  0  0  0
   -6.4030   20.9300  -32.3590 C   0  0  0  0  0  0  0  0  0  0  0  0
   -4.0440   22.1190  -29.3690 C   0  0  0  0  0  0  0  0  0  0  0  0
   -0.9590   20.7150  -29.8040 C   0  0  0  0  0  0  0  0  0  0  0  0
   -0.3590   20.4290  -31.0350 C   0  0  0  0  0  0  0  0  0  0  0  0
   -0.4930   21.2760  -32.0530 O   0  0  0  0  0  0  0  0  0  0  0  0
    1.2666   19.7164  -34.4573 H   0  0  0  0  0  0  0  0  0  0  0  0
    1.5685   18.0690  -32.5894 H   0  0  0  0  0  0  0  0  0  0  0  0
    1.1011   17.4263  -30.2389 H   0  0  0  0  0  0  0  0  0  0  0  0
    0.0186   17.9434  -28.0499 H   0  0  0  0  0  0  0  0  0  0  0  0
   -3.9360   20.4550  -27.0550 H   0  0  0  0  0  0  0  0  0  0  0  0
   -2.1897   23.4639  -26.8287 H   0  0  0  0  0  0  0  0  0  0  0  0
   -2.5303   25.5107  -28.2050 H   0  0  0  0  0  0  0  0  0  0  0  0
   -7.8197   23.6767  -30.9975 H   0  0  0  0  0  0  0  0  0  0  0  0
   -7.9218   23.0166  -32.6712 H   0  0  0  0  0  0  0  0  0  0  0  0
   -9.2514   22.0897  -30.1417 H   0  0  0  0  0  0  0  0  0  0  0  0
   -9.8255   22.0580  -31.8663 H   0  0  0  0  0  0  0  0  0  0  0  0
   -8.1524   20.0421  -30.3552 H   0  0  0  0  0  0  0  0  0  0  0  0
   -9.5721   19.8002  -31.4491 H   0  0  0  0  0  0  0  0  0  0  0  0
   -7.4351   19.0262  -32.4730 H   0  0  0  0  0  0  0  0  0  0  0  0
   -8.2176   20.3787  -33.3914 H   0  0  0  0  0  0  0  0  0  0  0  0
   -5.5874   20.2753  -32.0182 H   0  0  0  0  0  0  0  0  0  0  0  0
   -6.1946   21.3506  -33.3538 H   0  0  0  0  0  0  0  0  0  0  0  0
   -4.4663   21.1599  -29.7034 H   0  0  0  0  0  0  0  0  0  0  0  0
   -1.5435   21.6387  -29.6805 H   0  0  0  0  0  0  0  0  0  0  0  0
  1  2  2  0
  2  3  1  0
  3  4  2  0
  4  5  1  0
  5  6  2  0
  6  7  1  0
  7  8  2  0
  8  9  1  0
  9 10  2  0
  9 11  2  0
  9 12  1  0
 12 13  1  0
 13 14  2  0
 14 15  1  0
 15 16  2  0
 16 17  1  0
 16 18  1  0
 18 19  1  0
 19 20  2  0
 19 21  2  0
 19 22  1  0
 22 23  1  0
 23 24  1  0
 24 25  1  0
 25 26  1  0
 26 27  1  0
 18 28  2  0
  8 29  1  0
 29 30  2  0
 30 31  1  0
 31  2  1  0
 30  5  1  0
 28 13  1  0
 27 22  1  0
  3 32  1  0
  4 33  1  0
  6 34  1  0
  7 35  1  0
 12 36  1  0
 14 37  1  0
 15 38  1  0
 23 39  1  0
 23 40  1  0
 24 41  1  0
 24 42  1  0
 25 43  1  0
 25 44  1  0
 26 45  1  0
 26 46  1  0
 27 47  1  0
 27 48  1  0
 28 49  1  0
 29 50  1  0
M  CHG  1  17  -1
M  END
>  <UniqueID>  (28) 
26

>  <SMILES>  (28) 
O=c1ccc2ccc(S(=O)(=O)Nc3ccc([O-])c(S(=O)(=O)N4CCCCC4)c3)cc2o1

>  <Energy>  (28) 
63.52942014896819

>  <Genealogy>  (28) 
O=c1ccc2ccc(S(=O)(=O)Nc3ccc([O-])c(S(=O)(=O)N4CCCCC4)c3)cc2o1 (protonated)
O=c1ccc2ccc(S(=O)(=O)Nc3ccc([O-])c(S(=O)(=O)N4CCCCC4)c3)cc2o1 (3D coordinates assigned)
O=c1ccc2ccc(S(=O)(=O)Nc3ccc([O-])c(S(=O)(=O)N4CCCCC4)c3)cc2o1 (nonaromatic ring conformer: 63.52942014896819 kcal/mol)

>  <smiles>  (28) 
O=c1ccc2ccc(S(=O)(=O)Nc3ccc(O)c(S(=O)(=O)N4CCCCC4)c3)cc2o1

>  <score_type>  (28) 
oracle

>  <origin>  (28) 
adgpu

>  <m_score__min__energy>  (28) 
-13.960000000000001

>  <m_primary>  (28) 
energy

$$$$
28:0
     RDKit          3D

 50 52  0  0  0  0  0  0  0  0999 V2000
   -9.1600   20.5260  -32.5730 N   0  0  0  0  0  0  0  0  0  0  0  0
   -9.0290   21.9620  -31.6200 S   0  0  0  0  0  0  0  0  0  0  0  0
   -9.7090   21.7500  -30.2950 O   0  0  0  0  0  0  0  0  0  0  0  0
   -9.7070   23.0970  -32.3330 O   0  0  0  0  0  0  0  0  0  0  0  0
   -7.3300   22.3460  -31.3640 C   0  0  0  0  0  0  0  0  0  0  0  0
   -6.3810   22.0310  -32.3450 C   0  0  0  0  0  0  0  0  0  0  0  0
   -5.0320   22.3410  -32.1470 C   0  0  0  0  0  0  0  0  0  0  0  0
   -4.6140   22.9650  -30.9570 C   0  0  0  0  0  0  0  0  0  0  0  0
   -3.2360   23.3090  -30.7380 N   0  0  0  0  0  0  0  0  0  0  0  0
   -2.1900   22.3450  -30.5220 C   0  0  0  0  0  0  0  0  0  0  0  0
   -2.1730   21.1530  -31.2680 C   0  0  0  0  0  0  0  0  0  0  0  0
   -1.2050   20.1780  -31.0270 C   0  0  0  0  0  0  0  0  0  0  0  0
   -0.2490   20.3700  -30.0240 C   0  0  0  0  0  0  0  0  0  0  0  0
    0.9200   19.1070  -29.6490 S   0  0  0  0  0  0  0  0  0  0  0  0
    2.1030   19.6730  -28.9150 O   0  0  0  0  0  0  0  0  0  0  0  0
    0.2540   18.0740  -28.7840 O   0  0  0  0  0  0  0  0  0  0  0  0
    1.4680   18.3590  -31.1160 N   0  0  0  0  0  0  0  0  0  0  0  0
    1.9640   19.0660  -32.2610 C   0  0  0  0  0  0  0  0  0  0  0  0
    3.2880   18.8500  -32.6640 C   0  0  0  0  0  0  0  0  0  0  0  0
    3.7950   19.4880  -33.7990 C   0  0  0  0  0  0  0  0  0  0  0  0
    2.9820   20.3460  -34.5440 C   0  0  0  0  0  0  0  0  0  0  0  0
    1.6600   20.5820  -34.1460 C   0  0  0  0  0  0  0  0  0  0  0  0
    0.6440   21.6730  -35.0810 S   0  0  0  0  0  0  0  0  0  0  0  0
    0.2760   20.9500  -36.6070 N   0  0  0  0  0  0  0  0  0  0  0  0
   -0.6290   21.9440  -34.3280 O   0  0  0  0  0  0  0  0  0  0  0  0
    1.3560   22.9770  -35.3090 O   0  0  0  0  0  0  0  0  0  0  0  0
    1.1590   19.9560  -32.9960 C   0  0  0  0  0  0  0  0  0  0  0  0
   -0.2560   21.5530  -29.2760 C   0  0  0  0  0  0  0  0  0  0  0  0
   -1.2200   22.5440  -29.5160 C   0  0  0  0  0  0  0  0  0  0  0  0
   -1.1840   24.0300  -28.5570 S   0  0  0  0  0  0  0  0  0  0  0  0
   -2.1570   25.2420  -29.3150 N   0  0  0  0  0  0  0  0  0  0  0  0
    0.2230   24.5470  -28.4490 O   0  0  0  0  0  0  0  0  0  0  0  0
   -1.7110   23.7490  -27.1780 O   0  0  0  0  0  0  0  0  0  0  0  0
   -5.5730   23.3050  -29.9910 C   0  0  0  0  0  0  0  0  0  0  0  0
   -6.9220   22.9940  -30.1910 C   0  0  0  0  0  0  0  0  0  0  0  0
   -8.3720   20.5430  -33.2600 H   0  0  0  0  0  0  0  0  0  0  0  0
   -6.6985   21.5375  -33.2754 H   0  0  0  0  0  0  0  0  0  0  0  0
   -4.2941   22.0960  -32.9251 H   0  0  0  0  0  0  0  0  0  0  0  0
   -2.9870   24.3230  -30.6870 H   0  0  0  0  0  0  0  0  0  0  0  0
   -2.9301   20.9880  -32.0488 H   0  0  0  0  0  0  0  0  0  0  0  0
   -1.1934   19.2561  -31.6270 H   0  0  0  0  0  0  0  0  0  0  0  0
    3.9327   18.1738  -32.0833 H   0  0  0  0  0  0  0  0  0  0  0  0
    4.8367   19.3144  -34.1067 H   0  0  0  0  0  0  0  0  0  0  0  0
    3.3806   20.8367  -35.4442 H   0  0  0  0  0  0  0  0  0  0  0  0
   -0.5010   21.5040  -37.0280 H   0  0  0  0  0  0  0  0  0  0  0  0
    0.1300   20.1618  -32.6661 H   0  0  0  0  0  0  0  0  0  0  0  0
    0.5010   21.7072  -28.4930 H   0  0  0  0  0  0  0  0  0  0  0  0
   -1.5730   25.6760  -30.0660 H   0  0  0  0  0  0  0  0  0  0  0  0
   -5.2619   23.8197  -29.0700 H   0  0  0  0  0  0  0  0  0  0  0  0
   -7.6651   23.2592  -29.4245 H   0  0  0  0  0  0  0  0  0  0  0  0
  1  2  1  0
  2  3  2  0
  2  4  2  0
  2  5  1  0
  5  6  2  0
  6  7  1  0
  7  8  2  0
  8  9  1  0
  9 10  1  0
 10 11  2  0
 11 12  1  0
 12 13  2  0
 13 14  1  0
 14 15  2  0
 14 16  2  0
 14 17  1  0
 17 18  1  0
 18 19  2  0
 19 20  1  0
 20 21  2  0
 21 22  1  0
 22 23  1  0
 23 24  1  0
 23 25  2  0
 23 26  2  0
 22 27  2  0
 13 28  1  0
 28 29  2  0
 29 30  1  0
 30 31  1  0
 30 32  2  0
 30 33  2  0
  8 34  1  0
 34 35  2  0
 35  5  1  0
 29 10  1  0
 27 18  1  0
  1 36  1  0
  6 37  1  0
  7 38  1  0
  9 39  1  0
 11 40  1  0
 12 41  1  0
 19 42  1  0
 20 43  1  0
 21 44  1  0
 24 45  1  0
 27 46  1  0
 28 47  1  0
 31 48  1  0
 34 49  1  0
 35 50  1  0
M  CHG  4   1  -1  17  -1  24  -1  31  -1
M  END
>  <UniqueID>  (29) 
27

>  <SMILES>  (29) 
[NH-]S(=O)(=O)c1ccc(Nc2ccc(S(=O)(=O)[N-]c3cccc(S([NH-])(=O)=O)c3)cc2S([NH-])(=O)=O)cc1

>  <Energy>  (29) 
60.5988118296438

>  <Genealogy>  (29) 
[NH-]S(=O)(=O)c1ccc(Nc2ccc(S(=O)(=O)[N-]c3cccc(S([NH-])(=O)=O)c3)cc2S([NH-])(=O)=O)cc1 (protonated)
[NH-]S(=O)(=O)c1ccc(Nc2ccc(S(=O)(=O)[N-]c3cccc(S([NH-])(=O)=O)c3)cc2S([NH-])(=O)=O)cc1 (3D coordinates assigned)
[NH-]S(=O)(=O)c1ccc(Nc2ccc(S(=O)(=O)[N-]c3cccc(S([NH-])(=O)=O)c3)cc2S([NH-])(=O)=O)cc1 (optimized conformer: 60.5988118296438 kcal/mol)

>  <smiles>  (29) 
NS(=O)(=O)c1ccc(Nc2ccc(S(=O)(=O)Nc3cccc(S(N)(=O)=O)c3)cc2S(N)(=O)=O)cc1

>  <score_type>  (29) 
oracle

>  <origin>  (29) 
adgpu

>  <m_score__min__energy>  (29) 
-12.94

>  <m_primary>  (29) 
energy

$$$$
29:0
     RDKit          3D

 52 54  0  0  0  0  0  0  0  0999 V2000
    0.8400   20.2300  -28.2080 C   0  0  0  0  0  0  0  0  0  0  0  0
   -0.0530   20.9470  -29.1770 C   0  0  0  0  0  0  0  0  0  0  0  0
   -0.3960   20.3490  -30.3980 C   0  0  0  0  0  0  0  0  0  0  0  0
   -1.2570   21.0030  -31.2910 C   0  0  0  0  0  0  0  0  0  0  0  0
   -1.5740   20.3940  -32.6250 C   0  0  0  0  0  0  0  0  0  0  0  0
   -1.7700   22.2660  -30.9600 C   0  0  0  0  0  0  0  0  0  0  0  0
   -1.4660   22.8560  -29.7200 C   0  0  0  0  0  0  0  0  0  0  0  0
   -1.9600   24.1530  -29.3550 N   0  0  0  0  0  0  0  0  0  0  0  0
   -3.3340   24.5530  -29.3210 C   0  0  0  0  0  0  0  0  0  0  0  0
   -4.0290   24.3700  -28.2850 O   0  0  0  0  0  0  0  0  0  0  0  0
   -3.9060   25.1940  -30.4670 N   0  0  0  0  0  0  0  0  0  0  0  0
   -5.3410   25.4360  -30.5950 C   0  0  0  0  0  0  0  0  0  0  0  0
   -6.0540   24.1570  -30.9460 C   0  0  0  0  0  0  0  0  0  0  0  0
   -7.0720   23.6550  -30.1210 C   0  0  0  0  0  0  0  0  0  0  0  0
   -7.6780   22.4310  -30.4150 C   0  0  0  0  0  0  0  0  0  0  0  0
   -7.2640   21.6870  -31.5290 C   0  0  0  0  0  0  0  0  0  0  0  0
   -7.9740   20.1070  -31.8580 S   0  0  0  0  0  0  0  0  0  0  0  0
   -8.5310   20.1090  -33.2540 O   0  0  0  0  0  0  0  0  0  0  0  0
   -9.1160   19.8720  -30.9080 O   0  0  0  0  0  0  0  0  0  0  0  0
   -6.8100   18.8050  -31.7100 N   0  0  0  0  0  0  0  0  0  0  0  0
   -5.4330   19.2340  -32.0190 C   0  0  0  0  0  0  0  0  0  0  0  0
   -5.1290   19.2520  -33.5350 C   0  0  0  0  0  0  0  0  0  0  0  0
   -6.1510   18.6670  -34.3170 O   0  0  0  0  0  0  0  0  0  0  0  0
   -6.4990   17.4130  -33.7820 C   0  0  0  0  0  0  0  0  0  0  0  0
   -7.2220   17.5830  -32.4340 C   0  0  0  0  0  0  0  0  0  0  0  0
   -6.2650   22.1980  -32.3670 C   0  0  0  0  0  0  0  0  0  0  0  0
   -5.6630   23.4250  -32.0780 C   0  0  0  0  0  0  0  0  0  0  0  0
   -0.6000   22.1950  -28.8400 C   0  0  0  0  0  0  0  0  0  0  0  0
    0.5359   20.4742  -27.1794 H   0  0  0  0  0  0  0  0  0  0  0  0
    0.7571   19.1447  -28.3670 H   0  0  0  0  0  0  0  0  0  0  0  0
    1.8818   20.5454  -28.3670 H   0  0  0  0  0  0  0  0  0  0  0  0
    0.0127   19.3611  -30.6569 H   0  0  0  0  0  0  0  0  0  0  0  0
   -2.0772   19.4272  -32.4764 H   0  0  0  0  0  0  0  0  0  0  0  0
   -2.2353   21.0688  -33.1883 H   0  0  0  0  0  0  0  0  0  0  0  0
   -0.6419   20.2394  -33.1883 H   0  0  0  0  0  0  0  0  0  0  0  0
   -2.4143   22.7985  -31.6750 H   0  0  0  0  0  0  0  0  0  0  0  0
   -3.2830   25.4310  -31.2720 H   0  0  0  0  0  0  0  0  0  0  0  0
   -5.7314   25.8198  -29.6409 H   0  0  0  0  0  0  0  0  0  0  0  0
   -5.5112   26.1730  -31.3936 H   0  0  0  0  0  0  0  0  0  0  0  0
   -7.3943   24.2277  -29.2389 H   0  0  0  0  0  0  0  0  0  0  0  0
   -8.4832   22.0494  -29.7699 H   0  0  0  0  0  0  0  0  0  0  0  0
   -5.2845   20.2483  -31.6201 H   0  0  0  0  0  0  0  0  0  0  0  0
   -4.7509   18.5055  -31.5563 H   0  0  0  0  0  0  0  0  0  0  0  0
   -5.0009   20.2972  -33.8531 H   0  0  0  0  0  0  0  0  0  0  0  0
   -4.2175   18.6565  -33.6917 H   0  0  0  0  0  0  0  0  0  0  0  0
   -7.1639   16.8912  -34.4860 H   0  0  0  0  0  0  0  0  0  0  0  0
   -5.5814   16.8279  -33.6218 H   0  0  0  0  0  0  0  0  0  0  0  0
   -8.3049   17.6338  -32.6205 H   0  0  0  0  0  0  0  0  0  0  0  0
   -6.9549   16.7209  -31.8052 H   0  0  0  0  0  0  0  0  0  0  0  0
   -5.9531   21.6309  -33.2564 H   0  0  0  0  0  0  0  0  0  0  0  0
   -4.8787   23.8194  -32.7408 H   0  0  0  0  0  0  0  0  0  0  0  0
   -0.3460   22.6584  -27.8752 H   0  0  0  0  0  0  0  0  0  0  0  0
  1  2  1  0
  2  3  2  0
  3  4  1  0
  4  5  1  0
  4  6  2  0
  6  7  1  0
  7  8  1  0
  8  9  1  0
  9 10  2  0
  9 11  1  0
 11 12  1  0
 12 13  1  0
 13 14  2  0
 14 15  1  0
 15 16  2  0
 16 17  1  0
 17 18  2  0
 17 19  2  0
 17 20  1  0
 20 21  1  0
 21 22  1  0
 22 23  1  0
 23 24  1  0
 24 25  1  0
 16 26  1  0
 26 27  2  0
  7 28  2  0
 28  2  1  0
 27 13  1  0
 25 20  1  0
  1 29  1  0
  1 30  1  0
  1 31  1  0
  3 32  1  0
  5 33  1  0
  5 34  1  0
  5 35  1  0
  6 36  1  0
 11 37  1  0
 12 38  1  0
 12 39  1  0
 14 40  1  0
 15 41  1  0
 21 42  1  0
 21 43  1  0
 22 44  1  0
 22 45  1  0
 24 46  1  0
 24 47  1  0
 25 48  1  0
 25 49  1  0
 26 50  1  0
 27 51  1  0
 28 52  1  0
M  CHG  1   8  -1
M  END
>  <UniqueID>  (30) 
28

>  <SMILES>  (30) 
Cc1cc(C)cc([N-]C(=O)NCc2ccc(S(=O)(=O)N3CCOCC3)cc2)c1

>  <Energy>  (30) 
59.9963035650252

>  <Genealogy>  (30) 
Cc1cc(C)cc([N-]C(=O)NCc2ccc(S(=O)(=O)N3CCOCC3)cc2)c1 (protonated)
Cc1cc(C)cc([N-]C(=O)NCc2ccc(S(=O)(=O)N3CCOCC3)cc2)c1 (3D coordinates assigned)
Cc1cc(C)cc([N-]C(=O)NCc2ccc(S(=O)(=O)N3CCOCC3)cc2)c1 (nonaromatic ring conformer: 59.9963035650252 kcal/mol)

>  <smiles>  (30) 
Cc1cc(C)cc(NC(=O)NCc2ccc(S(=O)(=O)N3CCOCC3)cc2)c1

>  <score_type>  (30) 
oracle

>  <origin>  (30) 
adgpu

>  <m_score__min__energy>  (30) 
-10.83

>  <m_primary>  (30) 
energy

$$$$
30:0
     RDKit          3D

 56 59  0  0  0  0  0  0  0  0999 V2000
   -0.8310   21.4510  -31.9240 O   0  0  0  0  0  0  0  0  0  0  0  0
   -1.1480   21.0980  -33.0920 C   0  0  0  0  0  0  0  0  0  0  0  0
   -2.5120   21.2150  -33.5320 N   0  0  0  0  0  0  0  0  0  0  0  0
   -3.6050   21.5140  -32.6470 C   0  0  0  0  0  0  0  0  0  0  0  0
   -3.5840   22.6760  -31.8560 C   0  0  0  0  0  0  0  0  0  0  0  0
   -4.6160   22.9400  -30.9490 C   0  0  0  0  0  0  0  0  0  0  0  0
   -4.5690   24.4190  -29.9890 S   0  0  0  0  0  0  0  0  0  0  0  0
   -4.2970   25.6020  -30.8770 O   0  0  0  0  0  0  0  0  0  0  0  0
   -5.9160   24.6050  -29.3490 O   0  0  0  0  0  0  0  0  0  0  0  0
   -3.3440   24.2970  -28.7450 N   0  0  0  0  0  0  0  0  0  0  0  0
   -3.7990   23.4940  -27.5930 C   0  0  0  0  0  0  0  0  0  0  0  0
   -3.8190   21.9810  -27.8850 C   0  0  0  0  0  0  0  0  0  0  0  0
   -2.6350   21.5140  -28.7490 C   0  0  0  0  0  0  0  0  0  0  0  0
   -1.5090   22.5450  -28.7730 C   0  0  0  0  0  0  0  0  0  0  0  0
   -2.0270   23.8960  -29.2990 C   0  0  0  0  0  0  0  0  0  0  0  0
   -5.6760   22.0360  -30.8220 C   0  0  0  0  0  0  0  0  0  0  0  0
   -5.7000   20.8700  -31.5910 C   0  0  0  0  0  0  0  0  0  0  0  0
   -4.6700   20.6010  -32.5050 C   0  0  0  0  0  0  0  0  0  0  0  0
   -4.7210   19.4100  -33.3070 N   0  0  0  0  0  0  0  0  0  0  0  0
   -5.9960   18.9770  -33.8820 C   0  0  0  0  0  0  0  0  0  0  0  0
   -5.7330   18.1860  -35.1670 C   0  0  0  0  0  0  0  0  0  0  0  0
   -4.8040   17.1420  -34.9330 O   0  0  0  0  0  0  0  0  0  0  0  0
   -3.5460   17.6850  -34.5790 C   0  0  0  0  0  0  0  0  0  0  0  0
   -3.6320   18.4340  -33.2460 C   0  0  0  0  0  0  0  0  0  0  0  0
   -0.1060   20.5990  -34.0160 C   0  0  0  0  0  0  0  0  0  0  0  0
    1.1400   20.1600  -33.5340 C   0  0  0  0  0  0  0  0  0  0  0  0
    2.0960   19.6870  -34.4340 C   0  0  0  0  0  0  0  0  0  0  0  0
    1.8110   19.6560  -35.8000 C   0  0  0  0  0  0  0  0  0  0  0  0
    0.5640   20.0970  -36.2460 C   0  0  0  0  0  0  0  0  0  0  0  0
   -0.3560   20.5520  -35.3540 N   0  0  0  0  0  0  0  0  0  0  0  0
   -2.7100   21.1750  -34.5580 H   0  0  0  0  0  0  0  0  0  0  0  0
   -2.7480   23.3846  -31.9511 H   0  0  0  0  0  0  0  0  0  0  0  0
   -3.1208   23.6789  -26.7469 H   0  0  0  0  0  0  0  0  0  0  0  0
   -4.8311   23.7993  -27.3658 H   0  0  0  0  0  0  0  0  0  0  0  0
   -3.7879   21.4399  -26.9278 H   0  0  0  0  0  0  0  0  0  0  0  0
   -4.7389   21.7696  -28.4500 H   0  0  0  0  0  0  0  0  0  0  0  0
   -2.2453   20.5706  -28.3389 H   0  0  0  0  0  0  0  0  0  0  0  0
   -2.9961   21.3781  -29.7791 H   0  0  0  0  0  0  0  0  0  0  0  0
   -1.1189   22.6790  -27.7533 H   0  0  0  0  0  0  0  0  0  0  0  0
   -0.7113   22.1856  -29.4397 H   0  0  0  0  0  0  0  0  0  0  0  0
   -1.2922   24.6724  -29.0396 H   0  0  0  0  0  0  0  0  0  0  0  0
   -2.1606   23.7835  -30.3850 H   0  0  0  0  0  0  0  0  0  0  0  0
   -6.4926   22.2438  -30.1149 H   0  0  0  0  0  0  0  0  0  0  0  0
   -6.5314   20.1585  -31.4793 H   0  0  0  0  0  0  0  0  0  0  0  0
   -6.5260   18.3383  -33.1600 H   0  0  0  0  0  0  0  0  0  0  0  0
   -6.6126   19.8581  -34.1130 H   0  0  0  0  0  0  0  0  0  0  0  0
   -6.6792   17.7536  -35.5245 H   0  0  0  0  0  0  0  0  0  0  0  0
   -5.3148   18.8680  -35.9219 H   0  0  0  0  0  0  0  0  0  0  0  0
   -2.8140   16.8690  -34.4875 H   0  0  0  0  0  0  0  0  0  0  0  0
   -3.2350   18.3928  -35.3615 H   0  0  0  0  0  0  0  0  0  0  0  0
   -3.8261   17.7176  -32.4342 H   0  0  0  0  0  0  0  0  0  0  0  0
   -2.6820   18.9545  -33.0547 H   0  0  0  0  0  0  0  0  0  0  0  0
    1.3593   20.1892  -32.4565 H   0  0  0  0  0  0  0  0  0  0  0  0
    3.0729   19.3390  -34.0673 H   0  0  0  0  0  0  0  0  0  0  0  0
    2.5602   19.2884  -36.5166 H   0  0  0  0  0  0  0  0  0  0  0  0
    0.3254   20.0765  -37.3196 H   0  0  0  0  0  0  0  0  0  0  0  0
  1  2  2  0
  2  3  1  0
  3  4  1  0
  4  5  2  0
  5  6  1  0
  6  7  1  0
  7  8  2  0
  7  9  2  0
  7 10  1  0
 10 11  1  0
 11 12  1  0
 12 13  1  0
 13 14  1  0
 14 15  1  0
  6 16  2  0
 16 17  1  0
 17 18  2  0
 18 19  1  0
 19 20  1  0
 20 21  1  0
 21 22  1  0
 22 23  1  0
 23 24  1  0
  2 25  1  0
 25 26  2  0
 26 27  1  0
 27 28  2  0
 28 29  1  0
 29 30  2  0
 18  4  1  0
 24 19  1  0
 30 25  1  0
 15 10  1  0
  3 31  1  0
  5 32  1  0
 11 33  1  0
 11 34  1  0
 12 35  1  0
 12 36  1  0
 13 37  1  0
 13 38  1  0
 14 39  1  0
 14 40  1  0
 15 41  1  0
 15 42  1  0
 16 43  1  0
 17 44  1  0
 20 45  1  0
 20 46  1  0
 21 47  1  0
 21 48  1  0
 23 49  1  0
 23 50  1  0
 24 51  1  0
 24 52  1  0
 26 53  1  0
 27 54  1  0
 28 55  1  0
 29 56  1  0
M  END
>  <UniqueID>  (31) 
29

>  <SMILES>  (31) 
O=C(Nc1cc(S(=O)(=O)N2CCCCC2)ccc1N1CCOCC1)c1ccccn1

>  <Energy>  (31) 
74.79769082472701

>  <Genealogy>  (31) 
O=C(Nc1cc(S(=O)(=O)N2CCCCC2)ccc1N1CCOCC1)c1ccccn1 (3D coordinates assigned)
O=C(Nc1cc(S(=O)(=O)N2CCCCC2)ccc1N1CCOCC1)c1ccccn1 (nonaromatic ring conformer: 74.79769082472701 kcal/mol)

>  <smiles>  (31) 
O=C(Nc1cc(S(=O)(=O)N2CCCCC2)ccc1N1CCOCC1)c1ccccn1

>  <score_type>  (31) 
oracle

>  <origin>  (31) 
adgpu

>  <m_score__min__energy>  (31) 
-9.4299999999999997

>  <m_primary>  (31) 
energy

$$$$
31:0
     RDKit          3D

 50 53  0  0  0  0  0  0  0  0999 V2000
   -2.6338   12.5150  -32.3317 H   0  0  0  0  0  0  0  0  0  0  0  0
   -3.2770   13.3900  -32.5070 C   0  0  0  0  0  0  0  0  0  0  0  0
   -3.2250   14.1130  -33.6570 N   0  0  0  0  0  0  0  0  0  0  0  0
   -4.1040   15.1350  -33.6420 C   0  0  0  0  0  0  0  0  0  0  0  0
   -4.2270   15.9580  -34.6380 N   0  0  0  0  0  0  0  0  0  0  0  0
   -5.3400   17.2880  -34.6730 S   0  0  0  0  0  0  0  0  0  0  0  0
   -6.7210   16.8120  -34.3170 O   0  0  0  0  0  0  0  0  0  0  0  0
   -5.3650   17.9000  -36.0450 O   0  0  0  0  0  0  0  0  0  0  0  0
   -4.8180   18.4940  -33.5030 C   0  0  0  0  0  0  0  0  0  0  0  0
   -5.7700   19.3410  -32.8860 C   0  0  0  0  0  0  0  0  0  0  0  0
   -6.8344   19.2452  -33.1463 H   0  0  0  0  0  0  0  0  0  0  0  0
   -5.3670   20.3040  -31.9430 C   0  0  0  0  0  0  0  0  0  0  0  0
   -6.0989   20.9749  -31.4696 H   0  0  0  0  0  0  0  0  0  0  0  0
   -4.0070   20.3820  -31.6260 C   0  0  0  0  0  0  0  0  0  0  0  0
   -3.0910   19.5690  -32.2260 C   0  0  0  0  0  0  0  0  0  0  0  0
   -1.8510   19.8670  -31.8110 N   0  0  0  0  0  0  0  0  0  0  0  0
   -2.0510   20.8810  -30.9300 C   0  0  0  0  0  0  0  0  0  0  0  0
   -1.0340   21.4410  -30.3370 N   0  0  0  0  0  0  0  0  0  0  0  0
   -1.0230   22.4390  -29.3140 C   0  0  0  0  0  0  0  0  0  0  0  0
   -1.3460   23.7640  -29.6370 C   0  0  0  0  0  0  0  0  0  0  0  0
   -1.6698   24.0160  -30.6576 H   0  0  0  0  0  0  0  0  0  0  0  0
   -1.2580   24.7670  -28.6660 C   0  0  0  0  0  0  0  0  0  0  0  0
   -1.6010   26.0750  -28.9840 O   0  0  0  0  0  0  0  0  0  0  0  0
   -0.8220   24.4530  -27.3740 C   0  0  0  0  0  0  0  0  0  0  0  0
   -0.7640   25.2392  -26.6069 H   0  0  0  0  0  0  0  0  0  0  0  0
   -0.4600   23.1400  -27.0580 C   0  0  0  0  0  0  0  0  0  0  0  0
   -0.1084   22.8965  -26.0446 H   0  0  0  0  0  0  0  0  0  0  0  0
   -0.5440   22.1350  -28.0280 C   0  0  0  0  0  0  0  0  0  0  0  0
   -0.1580   20.8380  -27.7110 O   0  0  0  0  0  0  0  0  0  0  0  0
   -3.3750   21.2240  -30.7810 N   0  0  0  0  0  0  0  0  0  0  0  0
   -4.0030   22.3700  -30.1070 C   0  0  0  0  0  0  0  0  0  0  0  0
   -3.2395   22.9150  -29.5325 H   0  0  0  0  0  0  0  0  0  0  0  0
   -4.7906   21.9995  -29.4345 H   0  0  0  0  0  0  0  0  0  0  0  0
   -4.6330   23.3170  -31.1340 C   0  0  0  0  0  0  0  0  0  0  0  0
   -4.8669   22.7529  -32.0489 H   0  0  0  0  0  0  0  0  0  0  0  0
   -3.9189   24.1242  -31.3541 H   0  0  0  0  0  0  0  0  0  0  0  0
   -5.8770   23.9160  -30.6020 N   0  0  0  0  0  0  0  0  0  0  0  0
   -6.9940   23.6690  -31.5280 C   0  0  0  0  0  0  0  0  0  0  0  0
   -7.9094   23.4666  -30.9526 H   0  0  0  0  0  0  0  0  0  0  0  0
   -7.1476   24.5549  -32.1617 H   0  0  0  0  0  0  0  0  0  0  0  0
   -6.7598   22.8009  -32.1617 H   0  0  0  0  0  0  0  0  0  0  0  0
   -5.7230   25.3670  -30.4010 C   0  0  0  0  0  0  0  0  0  0  0  0
   -5.6996   25.5875  -29.3236 H   0  0  0  0  0  0  0  0  0  0  0  0
   -4.7841   25.7038  -30.8647 H   0  0  0  0  0  0  0  0  0  0  0  0
   -6.5703   25.8934  -30.8647 H   0  0  0  0  0  0  0  0  0  0  0  0
   -3.4540   18.6090  -33.1680 C   0  0  0  0  0  0  0  0  0  0  0  0
   -2.6989   17.9604  -33.6361 H   0  0  0  0  0  0  0  0  0  0  0  0
   -4.9820   15.1840  -32.2020 S   0  0  0  0  0  0  0  0  0  0  0  0
   -4.2010   13.8350  -31.5680 C   0  0  0  0  0  0  0  0  0  0  0  0
   -4.3887   13.3838  -30.5825 H   0  0  0  0  0  0  0  0  0  0  0  0
  1  2  1  0
  2  3  1  0
  3  4  1  0
  4  5  2  3
  5  6  1  0
  6  7  2  0
  6  8  2  0
  6  9  1  0
  9 10  2  0
 10 11  1  0
 10 12  1  0
 12 13  1  0
 12 14  2  0
 14 15  1  0
 15 16  1  0
 16 17  1  0
 17 18  2  0
 18 19  1  0
 19 20  2  0
 20 21  1  0
 20 22  1  0
 22 23  1  0
 22 24  2  0
 24 25  1  0
 24 26  1  0
 26 27  1  0
 26 28  2  0
 28 29  1  0
 17 30  1  0
 30 31  1  0
 31 32  1  0
 31 33  1  0
 31 34  1  0
 34 35  1  0
 34 36  1  0
 34 37  1  0
 37 38  1  0
 38 39  1  0
 38 40  1  0
 38 41  1  0
 37 42  1  0
 42 43  1  0
 42 44  1  0
 42 45  1  0
 15 46  2  0
 46 47  1  0
  4 48  1  0
 48 49  1  0
 49 50  1  0
 49  2  2  0
 46  9  1  0
 30 14  1  0
 28 19  1  0
M  CHG  4   3  -1  16  -1  23  -1  29  -1
M  END
>  <UniqueID>  (32) 
30

>  <SMILES>  (32) 
CN(C)CCn1/c(=N\c2cc([O-])ccc2[O-])[n-]c2cc(S(=O)(=O)N=c3[n-]ccs3)ccc21

>  <Energy>  (32) 
138.25190849528374

>  <Genealogy>  (32) 
CN(C)CCn1c(=Nc2cc([O-])ccc2[O-])[n-]c2cc(S(=O)(=O)N=c3[n-]ccs3)ccc21 (protonated)
CN(C)CCn1/c(=N\c2cc([O-])ccc2[O-])[n-]c2cc(S(=O)(=O)N=c3[n-]ccs3)ccc21 (cis-trans isomerization)
CN(C)CCn1/c(=N\c2cc([O-])ccc2[O-])[n-]c2cc(S(=O)(=O)N=c3[n-]ccs3)ccc21 (3D coordinates assigned)
CN(C)CCn1/c(=N\c2cc([O-])ccc2[O-])[n-]c2cc(S(=O)(=O)N=c3[n-]ccs3)ccc21 (optimized conformer: 138.25190849528374 kcal/mol)

>  <smiles>  (32) 
CN(C)CCn1c(=Nc2cc(O)ccc2O)[nH]c2cc(S(=O)(=O)N=c3[nH]ccs3)ccc21

>  <score_type>  (32) 
oracle

>  <origin>  (32) 
adgpu

>  <m_score__min__energy>  (32) 
-11.050000000000001

>  <m_primary>  (32) 
energy

$$$$
32:0
     RDKit          3D

 50 52  0  0  0  0  0  0  0  0999 V2000
   -5.6880   17.5090  -32.8190 C   0  0  0  0  0  0  0  0  0  0  0  0
   -6.5160   18.3250  -31.9170 N   0  0  0  0  0  0  0  0  0  0  0  0
   -6.0530   19.7350  -31.8810 C   0  0  0  0  0  0  0  0  0  0  0  0
   -6.8910   20.6540  -32.7880 C   0  0  0  0  0  0  0  0  0  0  0  0
   -8.3370   20.6190  -32.4580 N   0  0  0  0  0  0  0  0  0  0  0  0
   -8.8040   22.0170  -31.5200 S   0  0  0  0  0  0  0  0  0  0  0  0
   -9.6830   22.9170  -32.3440 O   0  0  0  0  0  0  0  0  0  0  0  0
   -9.5700   21.5820  -30.3010 O   0  0  0  0  0  0  0  0  0  0  0  0
   -7.3640   22.9130  -31.0460 C   0  0  0  0  0  0  0  0  0  0  0  0
   -6.7950   23.8290  -31.9380 C   0  0  0  0  0  0  0  0  0  0  0  0
   -5.6420   24.5350  -31.5810 C   0  0  0  0  0  0  0  0  0  0  0  0
   -5.0340   24.3200  -30.3380 C   0  0  0  0  0  0  0  0  0  0  0  0
   -3.8620   25.0780  -30.0050 N   0  0  0  0  0  0  0  0  0  0  0  0
   -2.5620   24.5530  -29.7030 C   0  0  0  0  0  0  0  0  0  0  0  0
   -1.6430   25.3200  -29.3100 O   0  0  0  0  0  0  0  0  0  0  0  0
   -2.3110   23.1000  -29.8510 C   0  0  0  0  0  0  0  0  0  0  0  0
   -2.7130   22.4820  -31.0490 C   0  0  0  0  0  0  0  0  0  0  0  0
   -2.4730   21.1260  -31.2690 C   0  0  0  0  0  0  0  0  0  0  0  0
   -1.8310   20.3650  -30.2960 C   0  0  0  0  0  0  0  0  0  0  0  0
   -1.4390   20.9520  -29.0930 C   0  0  0  0  0  0  0  0  0  0  0  0
   -1.6800   22.3150  -28.8470 C   0  0  0  0  0  0  0  0  0  0  0  0
   -1.2410   22.9740  -27.2590 S   0  0  0  0  0  0  0  0  0  0  0  0
   -2.1090   24.4370  -26.9420 N   0  0  0  0  0  0  0  0  0  0  0  0
   -1.5670   21.9720  -26.1880 O   0  0  0  0  0  0  0  0  0  0  0  0
    0.2300   23.2850  -27.2310 O   0  0  0  0  0  0  0  0  0  0  0  0
   -5.6190   23.4150  -29.4340 C   0  0  0  0  0  0  0  0  0  0  0  0
   -6.7730   22.7100  -29.7910 C   0  0  0  0  0  0  0  0  0  0  0  0
   -8.7600   19.3840  -31.7680 C   0  0  0  0  0  0  0  0  0  0  0  0
   -7.9510   18.1790  -32.2560 C   0  0  0  0  0  0  0  0  0  0  0  0
   -5.0289   16.8594  -32.2244 H   0  0  0  0  0  0  0  0  0  0  0  0
   -6.3385   16.8891  -33.4535 H   0  0  0  0  0  0  0  0  0  0  0  0
   -5.0776   18.1685  -33.4535 H   0  0  0  0  0  0  0  0  0  0  0  0
   -6.1217   20.1025  -30.8465 H   0  0  0  0  0  0  0  0  0  0  0  0
   -5.0169   19.7561  -32.2498 H   0  0  0  0  0  0  0  0  0  0  0  0
   -6.5288   21.6864  -32.6741 H   0  0  0  0  0  0  0  0  0  0  0  0
   -6.7770   20.2950  -33.8215 H   0  0  0  0  0  0  0  0  0  0  0  0
   -7.2562   23.9941  -32.9229 H   0  0  0  0  0  0  0  0  0  0  0  0
   -5.2095   25.2645  -32.2816 H   0  0  0  0  0  0  0  0  0  0  0  0
   -3.2230   23.0757  -31.8219 H   0  0  0  0  0  0  0  0  0  0  0  0
   -2.7912   20.6574  -32.2120 H   0  0  0  0  0  0  0  0  0  0  0  0
   -1.6324   19.2982  -30.4763 H   0  0  0  0  0  0  0  0  0  0  0  0
   -0.9358   20.3418  -28.3285 H   0  0  0  0  0  0  0  0  0  0  0  0
   -1.4580   25.2300  -27.1350 H   0  0  0  0  0  0  0  0  0  0  0  0
   -2.8710   24.5010  -27.6540 H   0  0  0  0  0  0  0  0  0  0  0  0
   -5.1673   23.2612  -28.4429 H   0  0  0  0  0  0  0  0  0  0  0  0
   -7.2184   21.9939  -29.0847 H   0  0  0  0  0  0  0  0  0  0  0  0
   -8.6065   19.5059  -30.6856 H   0  0  0  0  0  0  0  0  0  0  0  0
   -9.8228   19.2055  -31.9885 H   0  0  0  0  0  0  0  0  0  0  0  0
   -8.3415   17.2677  -31.7794 H   0  0  0  0  0  0  0  0  0  0  0  0
   -8.0460   18.1153  -33.3500 H   0  0  0  0  0  0  0  0  0  0  0  0
  1  2  1  0
  2  3  1  0
  3  4  1  0
  4  5  1  0
  5  6  1  0
  6  7  2  0
  6  8  2  0
  6  9  1  0
  9 10  2  0
 10 11  1  0
 11 12  2  0
 12 13  1  0
 13 14  1  0
 14 15  2  0
 14 16  1  0
 16 17  2  0
 17 18  1  0
 18 19  2  0
 19 20  1  0
 20 21  2  0
 21 22  1  0
 22 23  1  0
 22 24  2  0
 22 25  2  0
 12 26  1  0
 26 27  2  0
  5 28  1  0
 28 29  1  0
 29  2  1  0
 27  9  1  0
 21 16  1  0
  1 30  1  0
  1 31  1  0
  1 32  1  0
  3 33  1  0
  3 34  1  0
  4 35  1  0
  4 36  1  0
 10 37  1  0
 11 38  1  0
 17 39  1  0
 18 40  1  0
 19 41  1  0
 20 42  1  0
 23 43  1  0
 23 44  1  0
 26 45  1  0
 27 46  1  0
 28 47  1  0
 28 48  1  0
 29 49  1  0
 29 50  1  0
M  CHG  1  13  -1
M  END
>  <UniqueID>  (33) 
31

>  <SMILES>  (33) 
CN1CCN(S(=O)(=O)c2ccc([N-]C(=O)c3ccccc3S(N)(=O)=O)cc2)CC1

>  <Energy>  (33) 
70.68279984406574

>  <Genealogy>  (33) 
CN1CCN(S(=O)(=O)c2ccc([N-]C(=O)c3ccccc3S(N)(=O)=O)cc2)CC1 (protonated)
CN1CCN(S(=O)(=O)c2ccc([N-]C(=O)c3ccccc3S(N)(=O)=O)cc2)CC1 (3D coordinates assigned)
CN1CCN(S(=O)(=O)c2ccc([N-]C(=O)c3ccccc3S(N)(=O)=O)cc2)CC1 (nonaromatic ring conformer: 70.68279984406574 kcal/mol)

>  <smiles>  (33) 
CN1CCN(S(=O)(=O)c2ccc(NC(=O)c3ccccc3S(N)(=O)=O)cc2)CC1

>  <score_type>  (33) 
oracle

>  <origin>  (33) 
adgpu

>  <m_score__min__energy>  (33) 
-11.16

>  <m_primary>  (33) 
energy

$$$$
33:0
     RDKit          3D

 49 52  0  0  0  0  0  0  0  0999 V2000
   -1.5540   20.2330  -34.2750 C   0  0  0  0  0  0  0  0  0  0  0  0
   -2.9090   19.8310  -33.9000 N   0  0  0  0  0  0  0  0  0  0  0  0
   -3.7210   20.7480  -33.3690 N   0  0  0  0  0  0  0  0  0  0  0  0
   -4.9930   20.4730  -32.9840 C   0  0  0  0  0  0  0  0  0  0  0  0
   -5.7800   21.5650  -32.3740 C   0  0  0  0  0  0  0  0  0  0  0  0
   -7.1710   21.6350  -32.5570 C   0  0  0  0  0  0  0  0  0  0  0  0
   -7.9080   22.6590  -31.9570 C   0  0  0  0  0  0  0  0  0  0  0  0
   -7.2670   23.6090  -31.1580 C   0  0  0  0  0  0  0  0  0  0  0  0
   -5.8840   23.5330  -30.9450 C   0  0  0  0  0  0  0  0  0  0  0  0
   -5.0800   24.7500  -29.9570 S   0  0  0  0  0  0  0  0  0  0  0  0
   -6.0200   25.8940  -29.6910 O   0  0  0  0  0  0  0  0  0  0  0  0
   -3.8910   25.2770  -30.7120 O   0  0  0  0  0  0  0  0  0  0  0  0
   -4.5540   24.0410  -28.4480 N   0  0  0  0  0  0  0  0  0  0  0  0
   -3.2000   24.5410  -28.1060 C   0  0  0  0  0  0  0  0  0  0  0  0
   -2.4960   23.6240  -27.0990 C   0  0  0  0  0  0  0  0  0  0  0  0
   -2.2870   22.2170  -27.6860 C   0  0  0  0  0  0  0  0  0  0  0  0
   -3.3220   21.8660  -28.7690 C   0  0  0  0  0  0  0  0  0  0  0  0
   -4.6650   22.5560  -28.4950 C   0  0  0  0  0  0  0  0  0  0  0  0
   -5.1440   22.5070  -31.5510 C   0  0  0  0  0  0  0  0  0  0  0  0
   -5.5010   19.1700  -33.1760 C   0  0  0  0  0  0  0  0  0  0  0  0
   -6.8370   18.8250  -32.8740 C   0  0  0  0  0  0  0  0  0  0  0  0
   -7.2950   17.5220  -33.0740 C   0  0  0  0  0  0  0  0  0  0  0  0
   -6.4390   16.5470  -33.5860 C   0  0  0  0  0  0  0  0  0  0  0  0
   -5.1230   16.8750  -33.9150 C   0  0  0  0  0  0  0  0  0  0  0  0
   -4.6440   18.1860  -33.7230 C   0  0  0  0  0  0  0  0  0  0  0  0
   -3.3320   18.5430  -34.0800 C   0  0  0  0  0  0  0  0  0  0  0  0
   -2.5480   17.6820  -34.5700 O   0  0  0  0  0  0  0  0  0  0  0  0
   -0.9593   20.4094  -33.3666 H   0  0  0  0  0  0  0  0  0  0  0  0
   -1.0863   19.4349  -34.8702 H   0  0  0  0  0  0  0  0  0  0  0  0
   -1.5972   21.1570  -34.8702 H   0  0  0  0  0  0  0  0  0  0  0  0
   -7.6815   20.8813  -33.1746 H   0  0  0  0  0  0  0  0  0  0  0  0
   -8.9952   22.7174  -32.1140 H   0  0  0  0  0  0  0  0  0  0  0  0
   -7.8495   24.4190  -30.6948 H   0  0  0  0  0  0  0  0  0  0  0  0
   -5.2180   24.3870  -27.7150 H   0  0  0  0  0  0  0  0  0  0  0  0
   -2.5964   24.5926  -29.0241 H   0  0  0  0  0  0  0  0  0  0  0  0
   -3.3065   25.5357  -27.6487 H   0  0  0  0  0  0  0  0  0  0  0  0
   -1.5173   24.0557  -26.8426 H   0  0  0  0  0  0  0  0  0  0  0  0
   -3.1270   23.5391  -26.2020 H   0  0  0  0  0  0  0  0  0  0  0  0
   -1.2819   22.1667  -28.1302 H   0  0  0  0  0  0  0  0  0  0  0  0
   -2.4058   21.4937  -26.8658 H   0  0  0  0  0  0  0  0  0  0  0  0
   -2.9428   22.1942  -29.7480 H   0  0  0  0  0  0  0  0  0  0  0  0
   -3.4806   20.7775  -28.7606 H   0  0  0  0  0  0  0  0  0  0  0  0
   -5.3701   22.2817  -29.2935 H   0  0  0  0  0  0  0  0  0  0  0  0
   -5.0141   22.2193  -27.5077 H   0  0  0  0  0  0  0  0  0  0  0  0
   -4.0594   22.4405  -31.3802 H   0  0  0  0  0  0  0  0  0  0  0  0
   -7.5218   19.5894  -32.4781 H   0  0  0  0  0  0  0  0  0  0  0  0
   -8.3351   17.2629  -32.8269 H   0  0  0  0  0  0  0  0  0  0  0  0
   -6.8015   15.5186  -33.7306 H   0  0  0  0  0  0  0  0  0  0  0  0
   -4.4549   16.1044  -34.3272 H   0  0  0  0  0  0  0  0  0  0  0  0
  1  2  1  0
  2  3  1  0
  3  4  2  0
  4  5  1  0
  5  6  2  0
  6  7  1  0
  7  8  2  0
  8  9  1  0
  9 10  1  0
 10 11  2  0
 10 12  2  0
 10 13  1  0
 13 14  1  0
 14 15  1  0
 15 16  1  0
 16 17  1  0
 17 18  1  0
  9 19  2  0
  4 20  1  0
 20 21  2  0
 21 22  1  0
 22 23  2  0
 23 24  1  0
 24 25  2  0
 25 26  1  0
 26 27  2  0
 26  2  1  0
 19  5  1  0
 25 20  1  0
 18 13  1  0
  1 28  1  0
  1 29  1  0
  1 30  1  0
  6 31  1  0
  7 32  1  0
  8 33  1  0
 13 34  1  0
 14 35  1  0
 14 36  1  0
 15 37  1  0
 15 38  1  0
 16 39  1  0
 16 40  1  0
 17 41  1  0
 17 42  1  0
 18 43  1  0
 18 44  1  0
 19 45  1  0
 21 46  1  0
 22 47  1  0
 23 48  1  0
 24 49  1  0
M  CHG  1  13   1
M  END
>  <UniqueID>  (34) 
32

>  <SMILES>  (34) 
Cn1nc(-c2cccc(S(=O)(=O)[NH+]3CCCCC3)c2)c2ccccc2c1=O

>  <Energy>  (34) 
70.37359099350559

>  <Genealogy>  (34) 
Cn1nc(-c2cccc(S(=O)(=O)[NH+]3CCCCC3)c2)c2ccccc2c1=O (protonated)
Cn1nc(-c2cccc(S(=O)(=O)[NH+]3CCCCC3)c2)c2ccccc2c1=O (3D coordinates assigned)
Cn1nc(-c2cccc(S(=O)(=O)[NH+]3CCCCC3)c2)c2ccccc2c1=O (nonaromatic ring conformer: 70.37359099350559 kcal/mol)

>  <smiles>  (34) 
Cn1nc(-c2cccc(S(=O)(=O)N3CCCCC3)c2)c2ccccc2c1=O

>  <score_type>  (34) 
oracle

>  <origin>  (34) 
adgpu

>  <m_score__min__energy>  (34) 
-9.7599999999999998

>  <m_primary>  (34) 
energy

$$$$
34:0
     RDKit          3D

 49 52  0  0  0  0  0  0  0  0999 V2000
   -1.5670   25.6340  -28.9680 O   0  0  0  0  0  0  0  0  0  0  0  0
   -2.5260   24.8670  -29.2450 C   0  0  0  0  0  0  0  0  0  0  0  0
   -2.6830   23.5650  -28.5200 C   0  0  0  0  0  0  0  0  0  0  0  0
   -3.0650   22.2560  -29.7240 S   0  0  0  0  0  0  0  0  0  0  0  0
   -4.5670   23.0500  -30.3200 C   0  0  0  0  0  0  0  0  0  0  0  0
   -5.7000   22.2710  -30.5800 C   0  0  0  0  0  0  0  0  0  0  0  0
   -6.8330   22.8440  -31.1730 C   0  0  0  0  0  0  0  0  0  0  0  0
   -8.1980   21.8300  -31.6280 S   0  0  0  0  0  0  0  0  0  0  0  0
   -9.4000   22.6930  -31.8930 O   0  0  0  0  0  0  0  0  0  0  0  0
   -8.5300   20.8620  -30.5270 O   0  0  0  0  0  0  0  0  0  0  0  0
   -7.7780   20.9730  -33.0720 N   0  0  0  0  0  0  0  0  0  0  0  0
   -7.2600   19.6450  -32.9950 C   0  0  0  0  0  0  0  0  0  0  0  0
   -7.9930   18.6260  -32.3700 C   0  0  0  0  0  0  0  0  0  0  0  0
   -7.4330   17.3560  -32.2100 C   0  0  0  0  0  0  0  0  0  0  0  0
   -6.1330   17.1040  -32.6580 C   0  0  0  0  0  0  0  0  0  0  0  0
   -5.3950   18.1170  -33.2840 C   0  0  0  0  0  0  0  0  0  0  0  0
   -3.7140   17.8280  -33.7200 S   0  0  0  0  0  0  0  0  0  0  0  0
   -3.2910   16.4960  -33.1640 O   0  0  0  0  0  0  0  0  0  0  0  0
   -3.5680   17.7950  -35.2180 O   0  0  0  0  0  0  0  0  0  0  0  0
   -2.7190   19.0970  -33.0480 N   0  0  0  0  0  0  0  0  0  0  0  0
   -3.0910   20.3970  -33.6350 C   0  0  0  0  0  0  0  0  0  0  0  0
   -2.3730   21.5460  -32.9010 C   0  0  0  0  0  0  0  0  0  0  0  0
   -1.0890   21.0820  -32.1960 C   0  0  0  0  0  0  0  0  0  0  0  0
   -0.3730   20.0040  -33.0140 C   0  0  0  0  0  0  0  0  0  0  0  0
   -1.2940   18.7930  -33.2970 C   0  0  0  0  0  0  0  0  0  0  0  0
   -5.9700   19.3840  -33.4660 C   0  0  0  0  0  0  0  0  0  0  0  0
   -6.8240   24.2050  -31.5100 C   0  0  0  0  0  0  0  0  0  0  0  0
   -5.7060   24.9940  -31.2210 C   0  0  0  0  0  0  0  0  0  0  0  0
   -4.5840   24.4280  -30.6090 C   0  0  0  0  0  0  0  0  0  0  0  0
   -3.4970   25.2720  -30.2150 N   0  0  0  0  0  0  0  0  0  0  0  0
   -1.7480   23.3208  -27.9946 H   0  0  0  0  0  0  0  0  0  0  0  0
   -3.4997   23.6447  -27.7875 H   0  0  0  0  0  0  0  0  0  0  0  0
   -5.7013   21.2028  -30.3174 H   0  0  0  0  0  0  0  0  0  0  0  0
   -9.0110   18.8269  -32.0049 H   0  0  0  0  0  0  0  0  0  0  0  0
   -8.0150   16.5545  -31.7316 H   0  0  0  0  0  0  0  0  0  0  0  0
   -5.6883   16.1076  -32.5186 H   0  0  0  0  0  0  0  0  0  0  0  0
   -2.8037   20.4103  -34.6967 H   0  0  0  0  0  0  0  0  0  0  0  0
   -4.1777   20.5348  -33.5344 H   0  0  0  0  0  0  0  0  0  0  0  0
   -2.1119   22.3239  -33.6335 H   0  0  0  0  0  0  0  0  0  0  0  0
   -3.0576   21.9299  -32.1303 H   0  0  0  0  0  0  0  0  0  0  0  0
   -0.4167   21.9434  -32.0694 H   0  0  0  0  0  0  0  0  0  0  0  0
   -1.3599   20.6577  -31.2180 H   0  0  0  0  0  0  0  0  0  0  0  0
   -0.0513   20.4385  -33.9719 H   0  0  0  0  0  0  0  0  0  0  0  0
    0.4903   19.6492  -32.4319 H   0  0  0  0  0  0  0  0  0  0  0  0
   -1.1748   18.4973  -34.3498 H   0  0  0  0  0  0  0  0  0  0  0  0
   -1.0003   17.9821  -32.6142 H   0  0  0  0  0  0  0  0  0  0  0  0
   -5.4039   20.1742  -33.9809 H   0  0  0  0  0  0  0  0  0  0  0  0
   -7.6990   24.6535  -32.0032 H   0  0  0  0  0  0  0  0  0  0  0  0
   -5.7097   26.0640  -31.4763 H   0  0  0  0  0  0  0  0  0  0  0  0
  1  2  2  0
  2  3  1  0
  3  4  1  0
  4  5  1  0
  5  6  2  0
  6  7  1  0
  7  8  1  0
  8  9  2  0
  8 10  2  0
  8 11  1  0
 11 12  1  0
 12 13  2  0
 13 14  1  0
 14 15  2  0
 15 16  1  0
 16 17  1  0
 17 18  2  0
 17 19  2  0
 17 20  1  0
 20 21  1  0
 21 22  1  0
 22 23  1  0
 23 24  1  0
 24 25  1  0
 16 26  2  0
  7 27  2  0
 27 28  1  0
 28 29  2  0
 29 30  1  0
 30  2  1  0
 29  5  1  0
 26 12  1  0
 25 20  1  0
  3 31  1  0
  3 32  1  0
  6 33  1  0
 13 34  1  0
 14 35  1  0
 15 36  1  0
 21 37  1  0
 21 38  1  0
 22 39  1  0
 22 40  1  0
 23 41  1  0
 23 42  1  0
 24 43  1  0
 24 44  1  0
 25 45  1  0
 25 46  1  0
 26 47  1  0
 27 48  1  0
 28 49  1  0
M  CHG  2  11  -1  30  -1
M  END
>  <UniqueID>  (35) 
33

>  <SMILES>  (35) 
O=C1CSc2cc(S(=O)(=O)[N-]c3cccc(S(=O)(=O)N4CCCCC4)c3)ccc2[N-]1

>  <Energy>  (35) 
62.41941205927253

>  <Genealogy>  (35) 
O=C1CSc2cc(S(=O)(=O)[N-]c3cccc(S(=O)(=O)N4CCCCC4)c3)ccc2[N-]1 (protonated)
O=C1CSc2cc(S(=O)(=O)[N-]c3cccc(S(=O)(=O)N4CCCCC4)c3)ccc2[N-]1 (3D coordinates assigned)
O=C1CSc2cc(S(=O)(=O)[N-]c3cccc(S(=O)(=O)N4CCCCC4)c3)ccc2[N-]1 (nonaromatic ring conformer: 62.41941205927253 kcal/mol)

>  <smiles>  (35) 
O=C1CSc2cc(S(=O)(=O)Nc3cccc(S(=O)(=O)N4CCCCC4)c3)ccc2N1

>  <score_type>  (35) 
oracle

>  <origin>  (35) 
adgpu

>  <m_score__min__energy>  (35) 
-11.99

>  <m_primary>  (35) 
energy

$$$$
35:0
     RDKit          3D

 45 47  0  0  0  0  0  0  0  0999 V2000
    1.2610   20.8790  -36.3500 N   0  0  0  0  0  0  0  0  0  0  0  0
    0.9210   19.7870  -35.0540 S   0  0  0  0  0  0  0  0  0  0  0  0
    2.1760   19.5330  -34.2670 O   0  0  0  0  0  0  0  0  0  0  0  0
    0.4340   18.4820  -35.6180 O   0  0  0  0  0  0  0  0  0  0  0  0
   -0.3080   20.4830  -34.0030 C   0  0  0  0  0  0  0  0  0  0  0  0
   -1.6560   20.4510  -34.3830 C   0  0  0  0  0  0  0  0  0  0  0  0
   -2.6360   20.9910  -33.5460 C   0  0  0  0  0  0  0  0  0  0  0  0
   -2.2820   21.5830  -32.3280 C   0  0  0  0  0  0  0  0  0  0  0  0
   -3.3210   22.1060  -31.4890 N   0  0  0  0  0  0  0  0  0  0  0  0
   -4.5630   21.4590  -31.1710 C   0  0  0  0  0  0  0  0  0  0  0  0
   -4.5850   20.2220  -30.9320 O   0  0  0  0  0  0  0  0  0  0  0  0
   -5.7700   22.2400  -31.0590 N   0  0  0  0  0  0  0  0  0  0  0  0
   -5.7690   23.5280  -30.3520 C   0  0  0  0  0  0  0  0  0  0  0  0
   -4.5030   23.6780  -29.5460 C   0  0  0  0  0  0  0  0  0  0  0  0
   -4.2280   22.7760  -28.5050 C   0  0  0  0  0  0  0  0  0  0  0  0
   -3.0820   22.9290  -27.7200 C   0  0  0  0  0  0  0  0  0  0  0  0
   -2.1990   23.9890  -27.9620 C   0  0  0  0  0  0  0  0  0  0  0  0
   -1.0540   24.1460  -27.1820 O   0  0  0  0  0  0  0  0  0  0  0  0
   -2.4670   24.8970  -28.9940 C   0  0  0  0  0  0  0  0  0  0  0  0
   -1.5930   25.9510  -29.2340 O   0  0  0  0  0  0  0  0  0  0  0  0
   -3.6150   24.7480  -29.7830 C   0  0  0  0  0  0  0  0  0  0  0  0
   -3.8650   25.6610  -30.8020 O   0  0  0  0  0  0  0  0  0  0  0  0
   -7.0230   21.6860  -31.4980 C   0  0  0  0  0  0  0  0  0  0  0  0
   -7.0450   20.5430  -32.3160 C   0  0  0  0  0  0  0  0  0  0  0  0
   -8.2640   19.9950  -32.7260 C   0  0  0  0  0  0  0  0  0  0  0  0
   -9.4660   20.5800  -32.3230 C   0  0  0  0  0  0  0  0  0  0  0  0
   -9.4520   21.7150  -31.5070 C   0  0  0  0  0  0  0  0  0  0  0  0
   -8.2360   22.2670  -31.0940 C   0  0  0  0  0  0  0  0  0  0  0  0
   -0.9320   21.5870  -31.9330 C   0  0  0  0  0  0  0  0  0  0  0  0
    0.0480   21.0430  -32.7690 C   0  0  0  0  0  0  0  0  0  0  0  0
    0.6170   20.6330  -37.1340 H   0  0  0  0  0  0  0  0  0  0  0  0
   -1.9440   19.9992  -35.3437 H   0  0  0  0  0  0  0  0  0  0  0  0
   -3.6934   20.9506  -33.8465 H   0  0  0  0  0  0  0  0  0  0  0  0
   -5.8319   24.3453  -31.0855 H   0  0  0  0  0  0  0  0  0  0  0  0
   -6.6337   23.5658  -29.6731 H   0  0  0  0  0  0  0  0  0  0  0  0
   -4.9192   21.9437  -28.3063 H   0  0  0  0  0  0  0  0  0  0  0  0
   -2.8728   22.2150  -26.9098 H   0  0  0  0  0  0  0  0  0  0  0  0
   -0.4090   24.9130  -27.3370 H   0  0  0  0  0  0  0  0  0  0  0  0
   -6.1002   20.0784  -32.6345 H   0  0  0  0  0  0  0  0  0  0  0  0
   -8.2762   19.1013  -33.3673 H   0  0  0  0  0  0  0  0  0  0  0  0
  -10.4240   20.1478  -32.6476 H   0  0  0  0  0  0  0  0  0  0  0  0
  -10.3996   22.1745  -31.1894 H   0  0  0  0  0  0  0  0  0  0  0  0
   -8.2292   23.1592  -30.4506 H   0  0  0  0  0  0  0  0  0  0  0  0
   -0.6462   22.0197  -30.9629 H   0  0  0  0  0  0  0  0  0  0  0  0
    1.1026   21.0548  -32.4566 H   0  0  0  0  0  0  0  0  0  0  0  0
  1  2  1  0
  2  3  2  0
  2  4  2  0
  2  5  1  0
  5  6  2  0
  6  7  1  0
  7  8  2  0
  8  9  1  0
  9 10  1  0
 10 11  2  0
 10 12  1  0
 12 13  1  0
 13 14  1  0
 14 15  2  0
 15 16  1  0
 16 17  2  0
 17 18  1  0
 17 19  1  0
 19 20  1  0
 19 21  2  0
 21 22  1  0
 12 23  1  0
 23 24  2  0
 24 25  1  0
 25 26  2  0
 26 27  1  0
 27 28  2  0
  8 29  1  0
 29 30  2  0
 30  5  1  0
 21 14  1  0
 28 23  1  0
  1 31  1  0
  6 32  1  0
  7 33  1  0
 13 34  1  0
 13 35  1  0
 15 36  1  0
 16 37  1  0
 18 38  1  0
 24 39  1  0
 25 40  1  0
 26 41  1  0
 27 42  1  0
 28 43  1  0
 29 44  1  0
 30 45  1  0
M  CHG  4   1  -1   9  -1  20  -1  22  -1
M  END
>  <UniqueID>  (36) 
34

>  <SMILES>  (36) 
[NH-]S(=O)(=O)c1ccc([N-]C(=O)N(Cc2ccc(O)c([O-])c2[O-])c2ccccc2)cc1

>  <Energy>  (36) 
55.76752564644776

>  <Genealogy>  (36) 
[NH-]S(=O)(=O)c1ccc([N-]C(=O)N(Cc2ccc(O)c([O-])c2[O-])c2ccccc2)cc1 (protonated)
[NH-]S(=O)(=O)c1ccc([N-]C(=O)N(Cc2ccc(O)c([O-])c2[O-])c2ccccc2)cc1 (3D coordinates assigned)
[NH-]S(=O)(=O)c1ccc([N-]C(=O)N(Cc2ccc(O)c([O-])c2[O-])c2ccccc2)cc1 (optimized conformer: 55.76752564644776 kcal/mol)

>  <smiles>  (36) 
NS(=O)(=O)c1ccc(NC(=O)N(Cc2ccc(O)c(O)c2O)c2ccccc2)cc1

>  <score_type>  (36) 
oracle

>  <origin>  (36) 
adgpu

>  <m_score__min__energy>  (36) 
-14.31

>  <m_primary>  (36) 
energy

$$$$
36:0
     RDKit          3D

 66 69  0  0  0  0  0  0  0  0999 V2000
   -9.0770   23.4470  -32.1590 C   0  0  0  0  0  0  0  0  0  0  0  0
   -8.2770   22.1860  -32.0120 C   0  0  0  0  0  0  0  0  0  0  0  0
   -8.9280   20.9530  -31.8680 C   0  0  0  0  0  0  0  0  0  0  0  0
   -8.1860   19.7640  -31.7830 C   0  0  0  0  0  0  0  0  0  0  0  0
   -8.8830   18.4500  -31.5850 C   0  0  0  0  0  0  0  0  0  0  0  0
   -6.7840   19.8180  -31.8250 C   0  0  0  0  0  0  0  0  0  0  0  0
   -6.1270   21.0450  -31.9830 C   0  0  0  0  0  0  0  0  0  0  0  0
   -4.3670   21.1150  -32.0950 S   0  0  0  0  0  0  0  0  0  0  0  0
   -3.9620   21.3460  -33.5240 O   0  0  0  0  0  0  0  0  0  0  0  0
   -3.8330   19.7860  -31.6350 O   0  0  0  0  0  0  0  0  0  0  0  0
   -3.7170   22.4160  -31.0810 C   0  0  0  0  0  0  0  0  0  0  0  0
   -4.6000   23.4110  -30.6250 C   0  0  0  0  0  0  0  0  0  0  0  0
   -4.1710   24.3950  -29.7360 C   0  0  0  0  0  0  0  0  0  0  0  0
   -2.8510   24.4060  -29.2910 C   0  0  0  0  0  0  0  0  0  0  0  0
   -1.9520   23.4440  -29.7500 C   0  0  0  0  0  0  0  0  0  0  0  0
   -2.3590   22.4520  -30.6610 C   0  0  0  0  0  0  0  0  0  0  0  0
   -1.3310   21.5070  -31.1540 C   0  0  0  0  0  0  0  0  0  0  0  0
   -0.9150   20.5930  -30.3900 O   0  0  0  0  0  0  0  0  0  0  0  0
   -0.7850   21.6430  -32.4720 N   0  0  0  0  0  0  0  0  0  0  0  0
   -0.6910   20.5970  -33.4540 C   0  0  0  0  0  0  0  0  0  0  0  0
   -1.5370   19.4740  -33.3940 C   0  0  0  0  0  0  0  0  0  0  0  0
   -1.4060   18.4320  -34.3200 C   0  0  0  0  0  0  0  0  0  0  0  0
   -2.4970   17.0500  -34.2420 S   0  0  0  0  0  0  0  0  0  0  0  0
   -2.8690   16.6130  -35.6320 O   0  0  0  0  0  0  0  0  0  0  0  0
   -1.7860   15.9130  -33.5590 O   0  0  0  0  0  0  0  0  0  0  0  0
   -3.9320   17.4810  -33.3420 N   0  0  0  0  0  0  0  0  0  0  0  0
   -4.7910   18.4090  -34.1270 C   0  0  0  0  0  0  0  0  0  0  0  0
   -5.9480   17.6910  -34.8370 C   0  0  0  0  0  0  0  0  0  0  0  0
   -6.8590   16.9720  -33.8270 C   0  0  0  0  0  0  0  0  0  0  0  0
   -6.1010   16.5060  -32.5720 C   0  0  0  0  0  0  0  0  0  0  0  0
   -4.6220   16.2480  -32.8830 C   0  0  0  0  0  0  0  0  0  0  0  0
   -0.4160   18.5020  -35.3050 C   0  0  0  0  0  0  0  0  0  0  0  0
    0.4400   19.6010  -35.3640 C   0  0  0  0  0  0  0  0  0  0  0  0
    0.3090   20.6590  -34.4480 C   0  0  0  0  0  0  0  0  0  0  0  0
    1.2620   21.8190  -34.5190 C   0  0  0  0  0  0  0  0  0  0  0  0
   -6.8760   22.2250  -32.0880 C   0  0  0  0  0  0  0  0  0  0  0  0
   -9.3269   23.8409  -31.1628 H   0  0  0  0  0  0  0  0  0  0  0  0
   -8.4869   24.1934  -32.7110 H   0  0  0  0  0  0  0  0  0  0  0  0
  -10.0037   23.2311  -32.7110 H   0  0  0  0  0  0  0  0  0  0  0  0
  -10.0264   20.9167  -31.8213 H   0  0  0  0  0  0  0  0  0  0  0  0
   -8.9892   18.2498  -30.5086 H   0  0  0  0  0  0  0  0  0  0  0  0
   -9.8788   18.4893  -32.0506 H   0  0  0  0  0  0  0  0  0  0  0  0
   -8.2920   17.6476  -32.0506 H   0  0  0  0  0  0  0  0  0  0  0  0
   -6.1980   18.8916  -31.7333 H   0  0  0  0  0  0  0  0  0  0  0  0
   -5.6430   23.4127  -30.9745 H   0  0  0  0  0  0  0  0  0  0  0  0
   -4.8754   25.1637  -29.3854 H   0  0  0  0  0  0  0  0  0  0  0  0
   -2.5178   25.1738  -28.5773 H   0  0  0  0  0  0  0  0  0  0  0  0
   -0.9109   23.4609  -29.3952 H   0  0  0  0  0  0  0  0  0  0  0  0
   -2.3085   19.4143  -32.6122 H   0  0  0  0  0  0  0  0  0  0  0  0
   -3.6020   17.9960  -32.4910 H   0  0  0  0  0  0  0  0  0  0  0  0
   -5.2109   19.1620  -33.4439 H   0  0  0  0  0  0  0  0  0  0  0  0
   -4.1604   18.8684  -34.9024 H   0  0  0  0  0  0  0  0  0  0  0  0
   -6.5423   18.4309  -35.3931 H   0  0  0  0  0  0  0  0  0  0  0  0
   -5.5252   16.9405  -35.5211 H   0  0  0  0  0  0  0  0  0  0  0  0
   -7.6579   17.6628  -33.5195 H   0  0  0  0  0  0  0  0  0  0  0  0
   -7.2639   16.0772  -34.3225 H   0  0  0  0  0  0  0  0  0  0  0  0
   -6.1747   17.2844  -31.7983 H   0  0  0  0  0  0  0  0  0  0  0  0
   -6.5526   15.5666  -32.2204 H   0  0  0  0  0  0  0  0  0  0  0  0
   -4.1257   15.8799  -31.9730 H   0  0  0  0  0  0  0  0  0  0  0  0
   -4.5671   15.5041  -33.6915 H   0  0  0  0  0  0  0  0  0  0  0  0
   -0.3121   17.6868  -36.0362 H   0  0  0  0  0  0  0  0  0  0  0  0
    1.2246   19.6404  -36.1340 H   0  0  0  0  0  0  0  0  0  0  0  0
    1.5256   22.1399  -33.5004 H   0  0  0  0  0  0  0  0  0  0  0  0
    2.1729   21.5129  -35.0543 H   0  0  0  0  0  0  0  0  0  0  0  0
    0.7850   22.6532  -35.0543 H   0  0  0  0  0  0  0  0  0  0  0  0
   -6.3628   23.1874  -32.2308 H   0  0  0  0  0  0  0  0  0  0  0  0
  1  2  1  0
  2  3  2  0
  3  4  1  0
  4  5  1  0
  4  6  2  0
  6  7  1  0
  7  8  1  0
  8  9  2  0
  8 10  2  0
  8 11  1  0
 11 12  2  0
 12 13  1  0
 13 14  2  0
 14 15  1  0
 15 16  2  0
 16 17  1  0
 17 18  2  0
 17 19  1  0
 19 20  1  0
 20 21  2  0
 21 22  1  0
 22 23  1  0
 23 24  2  0
 23 25  2  0
 23 26  1  0
 26 27  1  0
 27 28  1  0
 28 29  1  0
 29 30  1  0
 30 31  1  0
 22 32  2  0
 32 33  1  0
 33 34  2  0
 34 35  1  0
  7 36  2  0
 36  2  1  0
 16 11  1  0
 34 20  1  0
 31 26  1  0
  1 37  1  0
  1 38  1  0
  1 39  1  0
  3 40  1  0
  5 41  1  0
  5 42  1  0
  5 43  1  0
  6 44  1  0
 12 45  1  0
 13 46  1  0
 14 47  1  0
 15 48  1  0
 21 49  1  0
 26 50  1  0
 27 51  1  0
 27 52  1  0
 28 53  1  0
 28 54  1  0
 29 55  1  0
 29 56  1  0
 30 57  1  0
 30 58  1  0
 31 59  1  0
 31 60  1  0
 32 61  1  0
 33 62  1  0
 35 63  1  0
 35 64  1  0
 35 65  1  0
 36 66  1  0
M  CHG  2  19  -1  26   1
M  END
>  <UniqueID>  (37) 
35

>  <SMILES>  (37) 
Cc1cc(C)cc(S(=O)(=O)c2ccccc2C(=O)[N-]c2cc(S(=O)(=O)[NH+]3CCCCC3)ccc2C)c1

>  <Energy>  (37) 
84.45307147752145

>  <Genealogy>  (37) 
Cc1cc(C)cc(S(=O)(=O)c2ccccc2C(=O)[N-]c2cc(S(=O)(=O)[NH+]3CCCCC3)ccc2C)c1 (protonated)
Cc1cc(C)cc(S(=O)(=O)c2ccccc2C(=O)[N-]c2cc(S(=O)(=O)[NH+]3CCCCC3)ccc2C)c1 (3D coordinates assigned)
Cc1cc(C)cc(S(=O)(=O)c2ccccc2C(=O)[N-]c2cc(S(=O)(=O)[NH+]3CCCCC3)ccc2C)c1 (nonaromatic ring conformer: 84.45307147752145 kcal/mol)

>  <smiles>  (37) 
Cc1cc(C)cc(S(=O)(=O)c2ccccc2C(=O)Nc2cc(S(=O)(=O)N3CCCCC3)ccc2C)c1

>  <score_type>  (37) 
oracle

>  <origin>  (37) 
adgpu

>  <m_score__min__energy>  (37) 
-11.74

>  <m_primary>  (37) 
energy

$$$$
37:0
     RDKit          3D

 72 75  0  0  0  0  0  0  0  0999 V2000
   -0.4960   17.0790  -26.3500 H   0  0  0  0  0  0  0  0  0  0  0  0
   -0.1920   17.5500  -27.1670 O   0  0  0  0  0  0  0  0  0  0  0  0
   -1.1250   18.5700  -27.4000 C   0  0  0  0  0  0  0  0  0  0  0  0
   -1.1060   19.2834  -26.5629 H   0  0  0  0  0  0  0  0  0  0  0  0
   -2.1318   18.1354  -27.4863 H   0  0  0  0  0  0  0  0  0  0  0  0
   -0.7740   19.2830  -28.6750 C   0  0  0  0  0  0  0  0  0  0  0  0
   -0.4850   18.5590  -29.8420 C   0  0  0  0  0  0  0  0  0  0  0  0
   -0.5048   17.4593  -29.8235 H   0  0  0  0  0  0  0  0  0  0  0  0
   -0.1720   19.2300  -31.0280 C   0  0  0  0  0  0  0  0  0  0  0  0
    0.0536   18.6551  -31.9383 H   0  0  0  0  0  0  0  0  0  0  0  0
   -0.1440   20.6320  -31.0640 C   0  0  0  0  0  0  0  0  0  0  0  0
    0.2290   21.3010  -32.2820 N   0  0  0  0  0  0  0  0  0  0  0  0
    0.9090   22.0920  -32.2230 H   0  0  0  0  0  0  0  0  0  0  0  0
   -0.1970   20.8860  -33.5930 C   0  0  0  0  0  0  0  0  0  0  0  0
    0.8050   20.7580  -34.6160 N   0  0  0  0  0  0  0  0  0  0  0  0
    1.8030   20.9410  -34.3690 H   0  0  0  0  0  0  0  0  0  0  0  0
    0.5150   20.4120  -35.9450 C   0  0  0  0  0  0  0  0  0  0  0  0
    0.2760   20.1280  -37.0420 N   0  0  0  0  0  0  0  0  0  0  0  0
   -1.4600   20.6420  -33.8550 N   0  0  0  0  0  0  0  0  0  0  0  0
   -1.7300   20.2570  -34.7870 H   0  0  0  0  0  0  0  0  0  0  0  0
   -2.5360   20.8720  -32.9290 C   0  0  0  0  0  0  0  0  0  0  0  0
   -2.5190   21.9860  -32.0740 C   0  0  0  0  0  0  0  0  0  0  0  0
   -1.6835   22.6997  -32.1248 H   0  0  0  0  0  0  0  0  0  0  0  0
   -3.5570   22.1960  -31.1570 C   0  0  0  0  0  0  0  0  0  0  0  0
   -3.5230   23.5950  -30.0780 S   0  0  0  0  0  0  0  0  0  0  0  0
   -4.1790   24.7560  -30.7730 O   0  0  0  0  0  0  0  0  0  0  0  0
   -2.0880   23.9670  -29.8320 O   0  0  0  0  0  0  0  0  0  0  0  0
   -4.2920   23.3060  -28.5250 N   0  0  0  0  0  0  0  0  0  0  0  0
   -4.6000   24.5470  -27.7800 C   0  0  0  0  0  0  0  0  0  0  0  0
   -5.5658   24.4173  -27.2697 H   0  0  0  0  0  0  0  0  0  0  0  0
   -4.6246   25.3684  -28.5112 H   0  0  0  0  0  0  0  0  0  0  0  0
   -3.5330   24.9060  -26.7250 C   0  0  0  0  0  0  0  0  0  0  0  0
   -3.8387   24.5027  -25.7483 H   0  0  0  0  0  0  0  0  0  0  0  0
   -3.4401   26.0007  -26.6692 H   0  0  0  0  0  0  0  0  0  0  0  0
   -2.2310   24.3350  -27.0990 N   0  0  0  0  0  0  0  0  0  0  0  0
   -1.1730   24.8210  -26.2010 C   0  0  0  0  0  0  0  0  0  0  0  0
   -1.4847   24.6778  -25.1559 H   0  0  0  0  0  0  0  0  0  0  0  0
   -0.2465   24.2582  -26.3877 H   0  0  0  0  0  0  0  0  0  0  0  0
   -0.9963   25.8905  -26.3877 H   0  0  0  0  0  0  0  0  0  0  0  0
   -2.2770   22.8590  -27.0940 C   0  0  0  0  0  0  0  0  0  0  0  0
   -2.1942   22.5062  -26.0554 H   0  0  0  0  0  0  0  0  0  0  0  0
   -1.4419   22.4946  -27.7104 H   0  0  0  0  0  0  0  0  0  0  0  0
   -3.5850   22.3110  -27.7010 C   0  0  0  0  0  0  0  0  0  0  0  0
   -4.2486   21.9978  -26.8816 H   0  0  0  0  0  0  0  0  0  0  0  0
   -3.3189   21.4677  -28.3553 H   0  0  0  0  0  0  0  0  0  0  0  0
   -4.6060   21.2710  -31.0800 C   0  0  0  0  0  0  0  0  0  0  0  0
   -5.4079   21.4126  -30.3405 H   0  0  0  0  0  0  0  0  0  0  0  0
   -4.6380   20.1700  -31.9380 C   0  0  0  0  0  0  0  0  0  0  0  0
   -5.4694   19.4523  -31.8772 H   0  0  0  0  0  0  0  0  0  0  0  0
   -3.6190   19.9760  -32.8730 C   0  0  0  0  0  0  0  0  0  0  0  0
   -3.6710   18.8720  -33.7280 O   0  0  0  0  0  0  0  0  0  0  0  0
   -3.8350   17.5540  -33.2790 C   0  0  0  0  0  0  0  0  0  0  0  0
   -2.7320   16.6960  -33.2980 C   0  0  0  0  0  0  0  0  0  0  0  0
   -1.7604   17.0633  -33.6600 H   0  0  0  0  0  0  0  0  0  0  0  0
   -2.8550   15.3740  -32.8600 C   0  0  0  0  0  0  0  0  0  0  0  0
   -1.9831   14.7039  -32.8863 H   0  0  0  0  0  0  0  0  0  0  0  0
   -4.0880   14.9000  -32.3870 C   0  0  0  0  0  0  0  0  0  0  0  0
   -4.2580   13.2420  -31.8180 S   0  0  0  0  0  0  0  0  0  0  0  0
   -5.0420   12.4470  -32.8240 O   0  0  0  0  0  0  0  0  0  0  0  0
   -4.9800   13.2140  -30.5000 O   0  0  0  0  0  0  0  0  0  0  0  0
   -2.6470   12.5160  -31.6020 C   0  0  0  0  0  0  0  0  0  0  0  0
   -2.4299   12.4182  -30.5281 H   0  0  0  0  0  0  0  0  0  0  0  0
   -2.6268   11.5218  -32.0722 H   0  0  0  0  0  0  0  0  0  0  0  0
   -1.8888   13.1595  -32.0722 H   0  0  0  0  0  0  0  0  0  0  0  0
   -5.1930   15.7590  -32.3560 C   0  0  0  0  0  0  0  0  0  0  0  0
   -6.1609   15.3941  -31.9819 H   0  0  0  0  0  0  0  0  0  0  0  0
   -5.0700   17.0790  -32.7990 C   0  0  0  0  0  0  0  0  0  0  0  0
   -5.9418   17.7493  -32.7724 H   0  0  0  0  0  0  0  0  0  0  0  0
   -0.4750   21.3560  -29.9050 C   0  0  0  0  0  0  0  0  0  0  0  0
   -0.4916   22.4555  -29.9319 H   0  0  0  0  0  0  0  0  0  0  0  0
   -0.7830   20.6840  -28.7190 C   0  0  0  0  0  0  0  0  0  0  0  0
   -1.0340   21.2579  -27.8147 H   0  0  0  0  0  0  0  0  0  0  0  0
  1  2  1  0
  2  3  1  0
  3  4  1  0
  3  5  1  0
  3  6  1  0
  6  7  2  0
  7  8  1  0
  7  9  1  0
  9 10  1  0
  9 11  2  0
 11 12  1  0
 12 13  1  0
 12 14  1  0
 14 15  1  0
 15 16  1  0
 15 17  1  0
 17 18  3  0
 14 19  2  0
 19 20  1  0
 19 21  1  0
 21 22  2  0
 22 23  1  0
 22 24  1  0
 24 25  1  0
 25 26  2  0
 25 27  2  0
 25 28  1  0
 28 29  1  0
 29 30  1  0
 29 31  1  0
 29 32  1  0
 32 33  1  0
 32 34  1  0
 32 35  1  0
 35 36  1  0
 36 37  1  0
 36 38  1  0
 36 39  1  0
 35 40  1  0
 40 41  1  0
 40 42  1  0
 40 43  1  0
 43 44  1  0
 43 45  1  0
 24 46  2  0
 46 47  1  0
 46 48  1  0
 48 49  1  0
 48 50  2  0
 50 51  1  0
 51 52  1  0
 52 53  2  0
 53 54  1  0
 53 55  1  0
 55 56  1  0
 55 57  2  0
 57 58  1  0
 58 59  2  0
 58 60  2  0
 58 61  1  0
 61 62  1  0
 61 63  1  0
 61 64  1  0
 57 65  1  0
 65 66  1  0
 65 67  2  0
 67 68  1  0
 11 69  1  0
 69 70  1  0
 69 71  2  0
 71 72  1  0
 71  6  1  0
 50 21  1  0
 67 52  1  0
 43 28  1  0
M  CHG  1  19   1
M  END
>  <UniqueID>  (38) 
36

>  <SMILES>  (38) 
CN1CCN(S(=O)(=O)c2ccc(Oc3ccc(S(C)(=O)=O)cc3)c(/[NH+]=C(/NC#N)Nc3ccc(CO)cc3)c2)CC1

>  <Energy>  (38) 
97.35225131793331

>  <Genealogy>  (38) 
CN1CCN(S(=O)(=O)c2ccc(Oc3ccc(S(C)(=O)=O)cc3)c([NH+]=C(NC#N)Nc3ccc(CO)cc3)c2)CC1 (protonated)
CN1CCN(S(=O)(=O)c2ccc(Oc3ccc(S(C)(=O)=O)cc3)c(/[NH+]=C(/NC#N)Nc3ccc(CO)cc3)c2)CC1 (cis-trans isomerization)
CN1CCN(S(=O)(=O)c2ccc(Oc3ccc(S(C)(=O)=O)cc3)c(/[NH+]=C(/NC#N)Nc3ccc(CO)cc3)c2)CC1 (3D coordinates assigned)
CN1CCN(S(=O)(=O)c2ccc(Oc3ccc(S(C)(=O)=O)cc3)c(/[NH+]=C(/NC#N)Nc3ccc(CO)cc3)c2)CC1 (nonaromatic ring conformer: 97.35225131793331 kcal/mol)

>  <smiles>  (38) 
CN1CCN(S(=O)(=O)c2ccc(Oc3ccc(S(C)(=O)=O)cc3)c(N=C(NC#N)Nc3ccc(CO)cc3)c2)CC1

>  <score_type>  (38) 
oracle

>  <origin>  (38) 
adgpu

>  <m_score__min__energy>  (38) 
-9.6799999999999997

>  <m_primary>  (38) 
energy

$$$$
38:0
     RDKit          3D

 54 57  0  0  0  0  0  0  0  0999 V2000
   -1.2170   17.3740  -34.8540 C   0  0  0  0  0  0  0  0  0  0  0  0
   -2.5760   17.7710  -34.3420 C   0  0  0  0  0  0  0  0  0  0  0  0
   -3.7170   17.2570  -34.9790 C   0  0  0  0  0  0  0  0  0  0  0  0
   -4.9970   17.5920  -34.5340 C   0  0  0  0  0  0  0  0  0  0  0  0
   -5.1700   18.4650  -33.4470 C   0  0  0  0  0  0  0  0  0  0  0  0
   -6.5330   18.8160  -32.9630 C   0  0  0  0  0  0  0  0  0  0  0  0
   -7.3550   17.8430  -32.3590 C   0  0  0  0  0  0  0  0  0  0  0  0
   -8.6390   18.1760  -31.9110 C   0  0  0  0  0  0  0  0  0  0  0  0
   -9.1190   19.4790  -32.0610 C   0  0  0  0  0  0  0  0  0  0  0  0
   -8.3160   20.4530  -32.6600 C   0  0  0  0  0  0  0  0  0  0  0  0
   -7.0310   20.1270  -33.1060 C   0  0  0  0  0  0  0  0  0  0  0  0
   -4.0310   18.9850  -32.8100 C   0  0  0  0  0  0  0  0  0  0  0  0
   -2.7370   18.6170  -33.2160 C   0  0  0  0  0  0  0  0  0  0  0  0
   -1.3530   19.2210  -32.2840 S   0  0  0  0  0  0  0  0  0  0  0  0
   -0.6370   20.2610  -33.0970 O   0  0  0  0  0  0  0  0  0  0  0  0
   -0.4000   18.1050  -31.9510 O   0  0  0  0  0  0  0  0  0  0  0  0
   -1.8900   19.9420  -30.8000 N   0  0  0  0  0  0  0  0  0  0  0  0
   -2.3740   21.2860  -30.6680 C   0  0  0  0  0  0  0  0  0  0  0  0
   -3.5130   21.7400  -31.3590 C   0  0  0  0  0  0  0  0  0  0  0  0
   -3.9130   23.0740  -31.2530 C   0  0  0  0  0  0  0  0  0  0  0  0
   -3.1880   23.9670  -30.4620 C   0  0  0  0  0  0  0  0  0  0  0  0
   -3.6160   25.2870  -30.3660 O   0  0  0  0  0  0  0  0  0  0  0  0
   -2.0490   23.5260  -29.7610 C   0  0  0  0  0  0  0  0  0  0  0  0
   -1.2530   24.4550  -28.9330 C   0  0  0  0  0  0  0  0  0  0  0  0
   -1.0790   25.6380  -29.3330 O   0  0  0  0  0  0  0  0  0  0  0  0
   -0.6670   24.0340  -27.6870 N   0  0  0  0  0  0  0  0  0  0  0  0
   -1.4360   23.2120  -26.7410 C   0  0  0  0  0  0  0  0  0  0  0  0
   -0.5090   22.2720  -25.9340 C   0  0  0  0  0  0  0  0  0  0  0  0
    0.8730   22.5500  -26.0970 O   0  0  0  0  0  0  0  0  0  0  0  0
    1.1090   23.9380  -25.9890 C   0  0  0  0  0  0  0  0  0  0  0  0
    0.5940   24.6390  -27.2470 C   0  0  0  0  0  0  0  0  0  0  0  0
   -1.6650   22.1770  -29.8550 C   0  0  0  0  0  0  0  0  0  0  0  0
   -0.5475   17.1784  -34.0034 H   0  0  0  0  0  0  0  0  0  0  0  0
   -1.3071   16.4646  -35.4663 H   0  0  0  0  0  0  0  0  0  0  0  0
   -0.8034   18.1889  -35.4663 H   0  0  0  0  0  0  0  0  0  0  0  0
   -3.6007   16.5818  -35.8396 H   0  0  0  0  0  0  0  0  0  0  0  0
   -5.8779   17.1687  -35.0389 H   0  0  0  0  0  0  0  0  0  0  0  0
   -6.9848   16.8142  -32.2387 H   0  0  0  0  0  0  0  0  0  0  0  0
   -9.2715   17.4093  -31.4396 H   0  0  0  0  0  0  0  0  0  0  0  0
  -10.1281   19.7381  -31.7080 H   0  0  0  0  0  0  0  0  0  0  0  0
   -8.6952   21.4784  -32.7811 H   0  0  0  0  0  0  0  0  0  0  0  0
   -6.4034   20.9006  -33.5725 H   0  0  0  0  0  0  0  0  0  0  0  0
   -4.1544   19.6936  -31.9777 H   0  0  0  0  0  0  0  0  0  0  0  0
   -4.0897   21.0424  -31.9842 H   0  0  0  0  0  0  0  0  0  0  0  0
   -4.8040   23.4228  -31.7957 H   0  0  0  0  0  0  0  0  0  0  0  0
   -1.9711   23.8734  -26.0437 H   0  0  0  0  0  0  0  0  0  0  0  0
   -2.1452   22.5952  -27.3124 H   0  0  0  0  0  0  0  0  0  0  0  0
   -0.7589   22.3709  -24.8673 H   0  0  0  0  0  0  0  0  0  0  0  0
   -0.6773   21.2535  -26.3140 H   0  0  0  0  0  0  0  0  0  0  0  0
    0.5827   24.3325  -25.1073 H   0  0  0  0  0  0  0  0  0  0  0  0
    2.1885   24.1204  -25.8819 H   0  0  0  0  0  0  0  0  0  0  0  0
    0.4281   25.7039  -27.0268 H   0  0  0  0  0  0  0  0  0  0  0  0
    1.3408   24.5314  -28.0475 H   0  0  0  0  0  0  0  0  0  0  0  0
   -0.7970   21.8177  -29.2827 H   0  0  0  0  0  0  0  0  0  0  0  0
  1  2  1  0
  2  3  2  0
  3  4  1  0
  4  5  2  0
  5  6  1  0
  6  7  2  0
  7  8  1  0
  8  9  2  0
  9 10  1  0
 10 11  2  0
  5 12  1  0
 12 13  2  0
 13 14  1  0
 14 15  2  0
 14 16  2  0
 14 17  1  0
 17 18  1  0
 18 19  2  0
 19 20  1  0
 20 21  2  0
 21 22  1  0
 21 23  1  0
 23 24  1  0
 24 25  2  0
 24 26  1  0
 26 27  1  0
 27 28  1  0
 28 29  1  0
 29 30  1  0
 30 31  1  0
 23 32  2  0
 13  2  1  0
 32 18  1  0
 11  6  1  0
 31 26  1  0
  1 33  1  0
  1 34  1  0
  1 35  1  0
  3 36  1  0
  4 37  1  0
  7 38  1  0
  8 39  1  0
  9 40  1  0
 10 41  1  0
 11 42  1  0
 12 43  1  0
 19 44  1  0
 20 45  1  0
 27 46  1  0
 27 47  1  0
 28 48  1  0
 28 49  1  0
 30 50  1  0
 30 51  1  0
 31 52  1  0
 31 53  1  0
 32 54  1  0
M  CHG  2  17  -1  22  -1
M  END
>  <UniqueID>  (39) 
37

>  <SMILES>  (39) 
Cc1ccc(-c2ccccc2)cc1S(=O)(=O)[N-]c1ccc([O-])c(C(=O)N2CCOCC2)c1

>  <Energy>  (39) 
77.86911401196404

>  <Genealogy>  (39) 
Cc1ccc(-c2ccccc2)cc1S(=O)(=O)[N-]c1ccc([O-])c(C(=O)N2CCOCC2)c1 (protonated)
Cc1ccc(-c2ccccc2)cc1S(=O)(=O)[N-]c1ccc([O-])c(C(=O)N2CCOCC2)c1 (3D coordinates assigned)
Cc1ccc(-c2ccccc2)cc1S(=O)(=O)[N-]c1ccc([O-])c(C(=O)N2CCOCC2)c1 (nonaromatic ring conformer: 77.86911401196404 kcal/mol)

>  <smiles>  (39) 
Cc1ccc(-c2ccccc2)cc1S(=O)(=O)Nc1ccc(O)c(C(=O)N2CCOCC2)c1

>  <score_type>  (39) 
oracle

>  <origin>  (39) 
adgpu

>  <m_score__min__energy>  (39) 
-12.880000000000001

>  <m_primary>  (39) 
energy

$$$$
39:0
     RDKit          3D

 50 52  0  0  0  0  0  0  0  0999 V2000
   -9.5220   21.8240  -31.3220 C   0  0  0  0  0  0  0  0  0  0  0  0
   -8.4860   20.9250  -31.9300 C   0  0  0  0  0  0  0  0  0  0  0  0
   -8.7660   19.5670  -32.1420 C   0  0  0  0  0  0  0  0  0  0  0  0
   -7.7880   18.7200  -32.6700 C   0  0  0  0  0  0  0  0  0  0  0  0
   -6.5200   19.2200  -32.9800 C   0  0  0  0  0  0  0  0  0  0  0  0
   -6.2220   20.5740  -32.7620 C   0  0  0  0  0  0  0  0  0  0  0  0
   -4.8500   21.1140  -33.0620 C   0  0  0  0  0  0  0  0  0  0  0  0
   -4.0940   21.2910  -31.8240 N   0  0  0  0  0  0  0  0  0  0  0  0
   -4.0700   22.5380  -31.1110 C   0  0  0  0  0  0  0  0  0  0  0  0
   -4.6560   23.5450  -31.5960 O   0  0  0  0  0  0  0  0  0  0  0  0
   -3.3510   22.6700  -29.8210 C   0  0  0  0  0  0  0  0  0  0  0  0
   -3.4870   21.6730  -28.8370 C   0  0  0  0  0  0  0  0  0  0  0  0
   -2.8230   21.7910  -27.6140 C   0  0  0  0  0  0  0  0  0  0  0  0
   -2.0100   22.8970  -27.3590 C   0  0  0  0  0  0  0  0  0  0  0  0
   -1.8450   23.8860  -28.3360 C   0  0  0  0  0  0  0  0  0  0  0  0
   -0.8310   25.2890  -28.0030 S   0  0  0  0  0  0  0  0  0  0  0  0
    0.6100   24.9030  -28.1940 O   0  0  0  0  0  0  0  0  0  0  0  0
   -1.1600   26.3950  -28.9700 O   0  0  0  0  0  0  0  0  0  0  0  0
   -1.0810   25.8290  -26.3620 N   0  0  0  0  0  0  0  0  0  0  0  0
   -0.8630   27.2890  -26.2750 C   0  0  0  0  0  0  0  0  0  0  0  0
   -0.7260   27.7840  -24.8180 C   0  0  0  0  0  0  0  0  0  0  0  0
   -1.2530   26.7500  -23.8200 C   0  0  0  0  0  0  0  0  0  0  0  0
   -0.5290   25.4040  -23.9870 C   0  0  0  0  0  0  0  0  0  0  0  0
   -0.1730   25.1060  -25.4550 C   0  0  0  0  0  0  0  0  0  0  0  0
   -2.5150   23.7730  -29.5620 C   0  0  0  0  0  0  0  0  0  0  0  0
   -7.2070   21.4200  -32.2260 C   0  0  0  0  0  0  0  0  0  0  0  0
   -9.4578   21.7683  -30.2253 H   0  0  0  0  0  0  0  0  0  0  0  0
   -9.3452   22.8598  -31.6475 H   0  0  0  0  0  0  0  0  0  0  0  0
  -10.5225   21.5031  -31.6475 H   0  0  0  0  0  0  0  0  0  0  0  0
   -9.7597   19.1671  -31.8916 H   0  0  0  0  0  0  0  0  0  0  0  0
   -8.0164   17.6578  -32.8420 H   0  0  0  0  0  0  0  0  0  0  0  0
   -5.7532   18.5500  -33.3962 H   0  0  0  0  0  0  0  0  0  0  0  0
   -4.3167   20.4078  -33.7153 H   0  0  0  0  0  0  0  0  0  0  0  0
   -4.9500   22.0881  -33.5632 H   0  0  0  0  0  0  0  0  0  0  0  0
   -3.4980   20.4950  -31.5050 H   0  0  0  0  0  0  0  0  0  0  0  0
   -4.1204   20.7951  -29.0324 H   0  0  0  0  0  0  0  0  0  0  0  0
   -2.9410   21.0096  -26.8488 H   0  0  0  0  0  0  0  0  0  0  0  0
   -1.4987   22.9914  -26.3896 H   0  0  0  0  0  0  0  0  0  0  0  0
    0.0584   27.5406  -26.8206 H   0  0  0  0  0  0  0  0  0  0  0  0
   -1.7423   27.7836  -26.7134 H   0  0  0  0  0  0  0  0  0  0  0  0
    0.3357   27.9771  -24.6049 H   0  0  0  0  0  0  0  0  0  0  0  0
   -1.3217   28.7023  -24.7090 H   0  0  0  0  0  0  0  0  0  0  0  0
   -1.0903   27.1215  -22.7975 H   0  0  0  0  0  0  0  0  0  0  0  0
   -2.3259   26.5965  -24.0082 H   0  0  0  0  0  0  0  0  0  0  0  0
    0.3987   25.4264  -23.3963 H   0  0  0  0  0  0  0  0  0  0  0  0
   -1.2094   24.6124  -23.6400 H   0  0  0  0  0  0  0  0  0  0  0  0
    0.8618   25.4248  -25.6486 H   0  0  0  0  0  0  0  0  0  0  0  0
   -0.2763   24.0256  -25.6343 H   0  0  0  0  0  0  0  0  0  0  0  0
   -2.3867   24.5521  -30.3278 H   0  0  0  0  0  0  0  0  0  0  0  0
   -6.9739   22.4783  -32.0370 H   0  0  0  0  0  0  0  0  0  0  0  0
  1  2  1  0
  2  3  2  0
  3  4  1  0
  4  5  2  0
  5  6  1  0
  6  7  1  0
  7  8  1  0
  8  9  1  0
  9 10  2  0
  9 11  1  0
 11 12  2  0
 12 13  1  0
 13 14  2  0
 14 15  1  0
 15 16  1  0
 16 17  2  0
 16 18  2  0
 16 19  1  0
 19 20  1  0
 20 21  1  0
 21 22  1  0
 22 23  1  0
 23 24  1  0
 15 25  2  0
  6 26  2  0
 26  2  1  0
 25 11  1  0
 24 19  1  0
  1 27  1  0
  1 28  1  0
  1 29  1  0
  3 30  1  0
  4 31  1  0
  5 32  1  0
  7 33  1  0
  7 34  1  0
  8 35  1  0
 12 36  1  0
 13 37  1  0
 14 38  1  0
 20 39  1  0
 20 40  1  0
 21 41  1  0
 21 42  1  0
 22 43  1  0
 22 44  1  0
 23 45  1  0
 23 46  1  0
 24 47  1  0
 24 48  1  0
 25 49  1  0
 26 50  1  0
M  END
>  <UniqueID>  (40) 
38

>  <SMILES>  (40) 
Cc1cccc(CNC(=O)c2cccc(S(=O)(=O)N3CCCCC3)c2)c1

>  <Energy>  (40) 
52.54506137465532

>  <Genealogy>  (40) 
Cc1cccc(CNC(=O)c2cccc(S(=O)(=O)N3CCCCC3)c2)c1 (3D coordinates assigned)
Cc1cccc(CNC(=O)c2cccc(S(=O)(=O)N3CCCCC3)c2)c1 (nonaromatic ring conformer: 52.54506137465532 kcal/mol)

>  <smiles>  (40) 
Cc1cccc(CNC(=O)c2cccc(S(=O)(=O)N3CCCCC3)c2)c1

>  <score_type>  (40) 
oracle

>  <origin>  (40) 
adgpu

>  <m_score__min__energy>  (40) 
-9.8699999999999992

>  <m_primary>  (40) 
energy

$$$$
40:0
     RDKit          3D

 41 44  0  0  0  0  0  0  0  0999 V2000
   -1.1780   21.8050  -26.6980 C   0  0  0  0  0  0  0  0  0  0  0  0
   -1.8050   22.7470  -27.6930 C   0  0  0  0  0  0  0  0  0  0  0  0
   -2.9850   22.3450  -28.3370 C   0  0  0  0  0  0  0  0  0  0  0  0
   -3.6170   23.1820  -29.2520 C   0  0  0  0  0  0  0  0  0  0  0  0
   -3.0920   24.4420  -29.5370 C   0  0  0  0  0  0  0  0  0  0  0  0
   -3.8200   25.3010  -30.4270 N   0  0  0  0  0  0  0  0  0  0  0  0
   -5.0390   24.9710  -31.1100 C   0  0  0  0  0  0  0  0  0  0  0  0
   -6.0520   25.6960  -30.9320 O   0  0  0  0  0  0  0  0  0  0  0  0
   -5.1430   23.8360  -31.9840 N   0  0  0  0  0  0  0  0  0  0  0  0
   -6.2240   22.8960  -32.0110 C   0  0  0  0  0  0  0  0  0  0  0  0
   -7.4910   23.2640  -31.5130 C   0  0  0  0  0  0  0  0  0  0  0  0
   -8.5490   22.3290  -31.4760 C   0  0  0  0  0  0  0  0  0  0  0  0
   -8.3630   21.0200  -31.9600 C   0  0  0  0  0  0  0  0  0  0  0  0
   -7.1110   20.7000  -32.4760 C   0  0  0  0  0  0  0  0  0  0  0  0
   -6.6150   19.5490  -33.0360 C   0  0  0  0  0  0  0  0  0  0  0  0
   -5.3290   19.7800  -33.3940 N   0  0  0  0  0  0  0  0  0  0  0  0
   -5.0030   21.0300  -33.0780 N   0  0  0  0  0  0  0  0  0  0  0  0
   -6.0830   21.5950  -32.5110 C   0  0  0  0  0  0  0  0  0  0  0  0
   -1.8790   24.8410  -28.9450 C   0  0  0  0  0  0  0  0  0  0  0  0
   -1.2950   26.0420  -29.3350 O   0  0  0  0  0  0  0  0  0  0  0  0
   -1.2540   24.0240  -27.9780 C   0  0  0  0  0  0  0  0  0  0  0  0
    0.2170   24.6010  -27.1510 S   0  0  0  0  0  0  0  0  0  0  0  0
    1.2780   24.8960  -28.1740 O   0  0  0  0  0  0  0  0  0  0  0  0
    0.7590   23.5290  -26.2470 O   0  0  0  0  0  0  0  0  0  0  0  0
   -0.0620   26.0800  -26.1730 C   0  0  0  0  0  0  0  0  0  0  0  0
   -1.5060   26.4460  -25.8650 C   0  0  0  0  0  0  0  0  0  0  0  0
   -0.6420   25.8000  -24.7960 C   0  0  0  0  0  0  0  0  0  0  0  0
   -1.4049   22.1459  -25.6771 H   0  0  0  0  0  0  0  0  0  0  0  0
   -1.5834   20.7931  -26.8453 H   0  0  0  0  0  0  0  0  0  0  0  0
   -0.0880   21.7884  -26.8453 H   0  0  0  0  0  0  0  0  0  0  0  0
   -3.4155   21.3571  -28.1162 H   0  0  0  0  0  0  0  0  0  0  0  0
   -4.5369   22.8473  -29.7537 H   0  0  0  0  0  0  0  0  0  0  0  0
   -7.6569   24.2890  -31.1499 H   0  0  0  0  0  0  0  0  0  0  0  0
   -9.5256   22.6257  -31.0660 H   0  0  0  0  0  0  0  0  0  0  0  0
   -9.1757   20.2792  -31.9313 H   0  0  0  0  0  0  0  0  0  0  0  0
   -7.1647   18.6057  -33.1703 H   0  0  0  0  0  0  0  0  0  0  0  0
    0.7927   26.6382  -26.5827 H   0  0  0  0  0  0  0  0  0  0  0  0
   -1.7978   27.5025  -25.7721 H   0  0  0  0  0  0  0  0  0  0  0  0
   -2.4806   26.2169  -26.3207 H   0  0  0  0  0  0  0  0  0  0  0  0
   -0.3083   26.3887  -23.9288 H   0  0  0  0  0  0  0  0  0  0  0  0
   -0.7322   24.9092  -24.1569 H   0  0  0  0  0  0  0  0  0  0  0  0
  1  2  1  0
  2  3  2  0
  3  4  1  0
  4  5  2  0
  5  6  1  0
  6  7  1  0
  7  8  2  0
  7  9  1  0
  9 10  1  0
 10 11  2  0
 11 12  1  0
 12 13  2  0
 13 14  1  0
 14 15  2  0
 15 16  1  0
 16 17  1  0
 17 18  2  0
  5 19  1  0
 19 20  1  0
 19 21  2  0
 21 22  1  0
 22 23  2  0
 22 24  2  0
 22 25  1  0
 25 26  1  0
 26 27  1  0
 21  2  1  0
 27 25  1  0
 18 10  1  0
 18 14  1  0
  1 28  1  0
  1 29  1  0
  1 30  1  0
  3 31  1  0
  4 32  1  0
 11 33  1  0
 12 34  1  0
 13 35  1  0
 15 36  1  0
 25 37  1  0
 26 38  1  0
 26 39  1  0
 27 40  1  0
 27 41  1  0
M  CHG  4   6  -1   9  -1  16  -1  20  -1
M  END
>  <UniqueID>  (41) 
39

>  <SMILES>  (41) 
Cc1ccc([N-]C(=O)[N-]c2cccc3c[n-]nc23)c([O-])c1S(=O)(=O)C1CC1

>  <Energy>  (41) 
356.65097788620835

>  <Genealogy>  (41) 
Cc1ccc([N-]C(=O)[N-]c2cccc3c[n-]nc23)c([O-])c1S(=O)(=O)C1CC1 (protonated)
Cc1ccc([N-]C(=O)[N-]c2cccc3c[n-]nc23)c([O-])c1S(=O)(=O)C1CC1 (3D coordinates assigned)
Cc1ccc([N-]C(=O)[N-]c2cccc3c[n-]nc23)c([O-])c1S(=O)(=O)C1CC1 (nonaromatic ring conformer: 356.65097788620835 kcal/mol)

>  <smiles>  (41) 
Cc1ccc(NC(=O)Nc2cccc3c[nH]nc23)c(O)c1S(=O)(=O)C1CC1

>  <score_type>  (41) 
oracle

>  <origin>  (41) 
adgpu

>  <m_score__min__energy>  (41) 
-14.75

>  <m_primary>  (41) 
energy

$$$$
41:0
     RDKit          3D

 63 66  0  0  0  0  0  0  0  0999 V2000
   -1.9770   26.0960  -25.5870 C   0  0  0  0  0  0  0  0  0  0  0  0
   -0.6120   26.4540  -25.5670 O   0  0  0  0  0  0  0  0  0  0  0  0
    0.0780   25.7510  -24.5460 C   0  0  0  0  0  0  0  0  0  0  0  0
    1.3890   25.2000  -25.1380 C   0  0  0  0  0  0  0  0  0  0  0  0
    1.1060   24.1520  -26.2240 C   0  0  0  0  0  0  0  0  0  0  0  0
    0.0510   23.2250  -25.8000 N   0  0  0  0  0  0  0  0  0  0  0  0
   -0.5440   22.3360  -26.7530 C   0  0  0  0  0  0  0  0  0  0  0  0
   -1.1740   21.2130  -26.3210 N   0  0  0  0  0  0  0  0  0  0  0  0
   -1.7900   20.3730  -27.1930 C   0  0  0  0  0  0  0  0  0  0  0  0
   -2.4430   19.1900  -26.7090 C   0  0  0  0  0  0  0  0  0  0  0  0
   -2.9700   18.2360  -26.3180 N   0  0  0  0  0  0  0  0  0  0  0  0
   -1.7900   20.6520  -28.5210 N   0  0  0  0  0  0  0  0  0  0  0  0
   -1.1890   21.7700  -29.0060 C   0  0  0  0  0  0  0  0  0  0  0  0
   -1.1920   22.0470  -30.7820 S   0  0  0  0  0  0  0  0  0  0  0  0
   -2.4940   20.8160  -31.0920 C   0  0  0  0  0  0  0  0  0  0  0  0
   -0.5590   22.6620  -28.1180 C   0  0  0  0  0  0  0  0  0  0  0  0
    0.0660   23.8700  -28.5690 N   0  0  0  0  0  0  0  0  0  0  0  0
   -0.5900   25.1390  -28.5920 C   0  0  0  0  0  0  0  0  0  0  0  0
   -0.1230   26.0820  -27.9020 O   0  0  0  0  0  0  0  0  0  0  0  0
   -1.8070   25.3060  -29.3310 N   0  0  0  0  0  0  0  0  0  0  0  0
   -2.9670   24.4680  -29.2470 C   0  0  0  0  0  0  0  0  0  0  0  0
   -3.3180   23.9240  -28.0060 C   0  0  0  0  0  0  0  0  0  0  0  0
   -4.4250   23.0810  -27.8910 C   0  0  0  0  0  0  0  0  0  0  0  0
   -5.1810   22.7590  -29.0210 C   0  0  0  0  0  0  0  0  0  0  0  0
   -4.8230   23.2670  -30.2760 C   0  0  0  0  0  0  0  0  0  0  0  0
   -5.7600   22.8410  -31.7140 S   0  0  0  0  0  0  0  0  0  0  0  0
   -6.3450   24.0930  -32.3060 O   0  0  0  0  0  0  0  0  0  0  0  0
   -4.8390   22.2310  -32.7340 O   0  0  0  0  0  0  0  0  0  0  0  0
   -7.0530   21.7130  -31.3720 N   0  0  0  0  0  0  0  0  0  0  0  0
   -7.0110   20.5470  -32.2520 C   0  0  0  0  0  0  0  0  0  0  0  0
   -8.4350   20.0110  -32.3270 C   0  0  0  0  0  0  0  0  0  0  0  0
   -9.3220   21.1560  -31.8580 C   0  0  0  0  0  0  0  0  0  0  0  0
   -8.3730   22.3090  -31.5770 C   0  0  0  0  0  0  0  0  0  0  0  0
   -3.7180   24.1250  -30.3860 C   0  0  0  0  0  0  0  0  0  0  0  0
   -0.4040   23.2070  -24.4090 C   0  0  0  0  0  0  0  0  0  0  0  0
   -0.8230   24.6190  -23.9730 C   0  0  0  0  0  0  0  0  0  0  0  0
   -2.3458   25.9993  -24.5552 H   0  0  0  0  0  0  0  0  0  0  0  0
   -2.5524   26.8736  -26.1107 H   0  0  0  0  0  0  0  0  0  0  0  0
   -2.0967   25.1361  -26.1107 H   0  0  0  0  0  0  0  0  0  0  0  0
    0.3218   26.4218  -23.7090 H   0  0  0  0  0  0  0  0  0  0  0  0
    1.9608   26.0296  -25.5793 H   0  0  0  0  0  0  0  0  0  0  0  0
    1.9635   24.7215  -24.3311 H   0  0  0  0  0  0  0  0  0  0  0  0
    0.7861   24.6644  -27.1433 H   0  0  0  0  0  0  0  0  0  0  0  0
    2.0262   23.5765  -26.4029 H   0  0  0  0  0  0  0  0  0  0  0  0
   -2.8850   20.4463  -30.1326 H   0  0  0  0  0  0  0  0  0  0  0  0
   -3.3093   21.2811  -31.6655 H   0  0  0  0  0  0  0  0  0  0  0  0
   -2.0753   19.9759  -31.6655 H   0  0  0  0  0  0  0  0  0  0  0  0
   -2.7178   24.1622  -27.1155 H   0  0  0  0  0  0  0  0  0  0  0  0
   -4.7024   22.6697  -26.9092 H   0  0  0  0  0  0  0  0  0  0  0  0
   -6.0599   22.1046  -28.9246 H   0  0  0  0  0  0  0  0  0  0  0  0
   -6.6615   20.8389  -33.2533 H   0  0  0  0  0  0  0  0  0  0  0  0
   -6.3180   19.7836  -31.8685 H   0  0  0  0  0  0  0  0  0  0  0  0
   -8.6859   19.7277  -33.3599 H   0  0  0  0  0  0  0  0  0  0  0  0
   -8.5669   19.1110  -31.7085 H   0  0  0  0  0  0  0  0  0  0  0  0
  -10.0420   21.4320  -32.6425 H   0  0  0  0  0  0  0  0  0  0  0  0
   -9.9094   20.8823  -30.9691 H   0  0  0  0  0  0  0  0  0  0  0  0
   -8.3501   23.0006  -32.4321 H   0  0  0  0  0  0  0  0  0  0  0  0
   -8.6930   22.8849  -30.6961 H   0  0  0  0  0  0  0  0  0  0  0  0
   -3.4374   24.5318  -31.3687 H   0  0  0  0  0  0  0  0  0  0  0  0
   -1.2638   22.5273  -24.3161 H   0  0  0  0  0  0  0  0  0  0  0  0
    0.4180   22.8603  -23.7655 H   0  0  0  0  0  0  0  0  0  0  0  0
   -1.8551   24.7936  -24.3112 H   0  0  0  0  0  0  0  0  0  0  0  0
   -0.7243   24.6568  -22.8781 H   0  0  0  0  0  0  0  0  0  0  0  0
  1  2  1  0
  2  3  1  0
  3  4  1  0
  4  5  1  0
  5  6  1  0
  6  7  1  0
  7  8  2  0
  8  9  1  0
  9 10  1  0
 10 11  3  0
  9 12  2  0
 12 13  1  0
 13 14  1  0
 14 15  1  0
 13 16  2  0
 16 17  1  0
 17 18  1  0
 18 19  2  0
 18 20  1  0
 20 21  1  0
 21 22  2  0
 22 23  1  0
 23 24  2  0
 24 25  1  0
 25 26  1  0
 26 27  2  0
 26 28  2  0
 26 29  1  0
 29 30  1  0
 30 31  1  0
 31 32  1  0
 32 33  1  0
 25 34  2  0
  6 35  1  0
 35 36  1  0
 36  3  1  0
 16  7  1  0
 34 21  1  0
 33 29  1  0
  1 37  1  0
  1 38  1  0
  1 39  1  0
  3 40  1  0
  4 41  1  0
  4 42  1  0
  5 43  1  0
  5 44  1  0
 15 45  1  0
 15 46  1  0
 15 47  1  0
 22 48  1  0
 23 49  1  0
 24 50  1  0
 30 51  1  0
 30 52  1  0
 31 53  1  0
 31 54  1  0
 32 55  1  0
 32 56  1  0
 33 57  1  0
 33 58  1  0
 34 59  1  0
 35 60  1  0
 35 61  1  0
 36 62  1  0
 36 63  1  0
M  CHG  2  17  -1  20  -1
M  END
>  <UniqueID>  (42) 
40

>  <SMILES>  (42) 
COC1CCN(c2nc(C#N)nc(SC)c2[N-]C(=O)[N-]c2cccc(S(=O)(=O)N3CCCC3)c2)CC1

>  <Energy>  (42) 
78.77671098371508

>  <Genealogy>  (42) 
COC1CCN(c2nc(C#N)nc(SC)c2[N-]C(=O)[N-]c2cccc(S(=O)(=O)N3CCCC3)c2)CC1 (protonated)
COC1CCN(c2nc(C#N)nc(SC)c2[N-]C(=O)[N-]c2cccc(S(=O)(=O)N3CCCC3)c2)CC1 (3D coordinates assigned)
COC1CCN(c2nc(C#N)nc(SC)c2[N-]C(=O)[N-]c2cccc(S(=O)(=O)N3CCCC3)c2)CC1 (nonaromatic ring conformer: 78.77671098371508 kcal/mol)

>  <smiles>  (42) 
COC1CCN(c2nc(C#N)nc(SC)c2NC(=O)Nc2cccc(S(=O)(=O)N3CCCC3)c2)CC1

>  <score_type>  (42) 
oracle

>  <origin>  (42) 
adgpu

>  <m_score__min__energy>  (42) 
-12.119999999999999

>  <m_primary>  (42) 
energy

$$$$
42:0
     RDKit          3D

 62 65  0  0  0  0  0  0  0  0999 V2000
    0.0370   25.5370  -24.3080 C   0  0  0  0  0  0  0  0  0  0  0  0
   -0.5180   25.2640  -25.6840 C   0  0  0  0  0  0  0  0  0  0  0  0
   -1.0840   24.0000  -25.9220 C   0  0  0  0  0  0  0  0  0  0  0  0
   -1.6500   23.6880  -27.1550 C   0  0  0  0  0  0  0  0  0  0  0  0
   -1.6840   24.6410  -28.1760 C   0  0  0  0  0  0  0  0  0  0  0  0
   -2.2990   24.3370  -29.4380 N   0  0  0  0  0  0  0  0  0  0  0  0
   -3.7090   24.1400  -29.6010 C   0  0  0  0  0  0  0  0  0  0  0  0
   -4.4860   24.2410  -28.6130 O   0  0  0  0  0  0  0  0  0  0  0  0
   -4.2220   23.8300  -30.9030 N   0  0  0  0  0  0  0  0  0  0  0  0
   -5.1170   22.7610  -31.2450 C   0  0  0  0  0  0  0  0  0  0  0  0
   -4.7330   21.7010  -32.0840 C   0  0  0  0  0  0  0  0  0  0  0  0
   -5.6500   20.7010  -32.4220 C   0  0  0  0  0  0  0  0  0  0  0  0
   -6.9620   20.7570  -31.9450 C   0  0  0  0  0  0  0  0  0  0  0  0
   -8.1000   19.4920  -32.3960 S   0  0  0  0  0  0  0  0  0  0  0  0
   -9.0240   20.0360  -33.4480 O   0  0  0  0  0  0  0  0  0  0  0  0
   -8.9160   19.0670  -31.2050 O   0  0  0  0  0  0  0  0  0  0  0  0
   -7.2150   18.1260  -33.0260 N   0  0  0  0  0  0  0  0  0  0  0  0
   -6.4230   18.5340  -34.2020 C   0  0  0  0  0  0  0  0  0  0  0  0
   -5.3780   17.4600  -34.5640 C   0  0  0  0  0  0  0  0  0  0  0  0
   -5.6960   16.2270  -33.9540 O   0  0  0  0  0  0  0  0  0  0  0  0
   -5.5910   16.3370  -32.5450 C   0  0  0  0  0  0  0  0  0  0  0  0
   -6.3380   17.5680  -31.9890 C   0  0  0  0  0  0  0  0  0  0  0  0
   -7.3570   21.8250  -31.1270 C   0  0  0  0  0  0  0  0  0  0  0  0
   -6.4380   22.8220  -30.7850 C   0  0  0  0  0  0  0  0  0  0  0  0
   -1.1570   25.9220  -27.9470 C   0  0  0  0  0  0  0  0  0  0  0  0
   -1.2400   26.8690  -28.9620 O   0  0  0  0  0  0  0  0  0  0  0  0
   -0.5430   26.2450  -26.7150 C   0  0  0  0  0  0  0  0  0  0  0  0
    0.2020   27.8620  -26.5220 S   0  0  0  0  0  0  0  0  0  0  0  0
   -0.1010   28.6940  -27.7380 O   0  0  0  0  0  0  0  0  0  0  0  0
   -0.3900   28.5840  -25.3470 O   0  0  0  0  0  0  0  0  0  0  0  0
    1.9390   27.7690  -26.3030 N   0  0  0  0  0  0  0  0  0  0  0  0
    2.5220   26.6980  -27.1330 C   0  0  0  0  0  0  0  0  0  0  0  0
    4.0390   26.8960  -27.2830 C   0  0  0  0  0  0  0  0  0  0  0  0
    4.4090   28.1290  -27.8890 O   0  0  0  0  0  0  0  0  0  0  0  0
    3.4110   29.1370  -27.7980 C   0  0  0  0  0  0  0  0  0  0  0  0
    2.6110   29.0740  -26.4840 C   0  0  0  0  0  0  0  0  0  0  0  0
   -0.6769   25.1858  -23.5484 H   0  0  0  0  0  0  0  0  0  0  0  0
    0.9927   25.0062  -24.1862 H   0  0  0  0  0  0  0  0  0  0  0  0
    0.1999   26.6180  -24.1862 H   0  0  0  0  0  0  0  0  0  0  0  0
   -1.0798   23.2454  -25.1216 H   0  0  0  0  0  0  0  0  0  0  0  0
   -2.0723   22.6868  -27.3261 H   0  0  0  0  0  0  0  0  0  0  0  0
   -1.6810   24.1060  -30.2490 H   0  0  0  0  0  0  0  0  0  0  0  0
   -3.7064   21.6578  -32.4766 H   0  0  0  0  0  0  0  0  0  0  0  0
   -5.3370   19.8663  -33.0665 H   0  0  0  0  0  0  0  0  0  0  0  0
   -7.0988   18.6811  -35.0574 H   0  0  0  0  0  0  0  0  0  0  0  0
   -5.8958   19.4691  -33.9621 H   0  0  0  0  0  0  0  0  0  0  0  0
   -5.3593   17.3282  -35.6559 H   0  0  0  0  0  0  0  0  0  0  0  0
   -4.3930   17.7895  -34.2018 H   0  0  0  0  0  0  0  0  0  0  0  0
   -6.0158   15.4310  -32.0882 H   0  0  0  0  0  0  0  0  0  0  0  0
   -4.5255   16.4541  -32.2982 H   0  0  0  0  0  0  0  0  0  0  0  0
   -6.9436   17.2669  -31.1214 H   0  0  0  0  0  0  0  0  0  0  0  0
   -5.6062   18.3300  -31.6828 H   0  0  0  0  0  0  0  0  0  0  0  0
   -8.3904   21.8787  -30.7540 H   0  0  0  0  0  0  0  0  0  0  0  0
   -6.7557   23.6614  -30.1491 H   0  0  0  0  0  0  0  0  0  0  0  0
    2.3296   25.7256  -26.6561 H   0  0  0  0  0  0  0  0  0  0  0  0
    2.0594   26.7303  -28.1305 H   0  0  0  0  0  0  0  0  0  0  0  0
    4.4931   26.8536  -26.2820 H   0  0  0  0  0  0  0  0  0  0  0  0
    4.3980   26.0966  -27.9480 H   0  0  0  0  0  0  0  0  0  0  0  0
    3.8990   30.1206  -27.8646 H   0  0  0  0  0  0  0  0  0  0  0  0
    2.7021   28.9739  -28.6232 H   0  0  0  0  0  0  0  0  0  0  0  0
    3.2992   29.2383  -25.6417 H   0  0  0  0  0  0  0  0  0  0  0  0
    1.8344   29.8520  -26.5230 H   0  0  0  0  0  0  0  0  0  0  0  0
  1  2  1  0
  2  3  2  0
  3  4  1  0
  4  5  2  0
  5  6  1  0
  6  7  1  0
  7  8  2  0
  7  9  1  0
  9 10  1  0
 10 11  2  0
 11 12  1  0
 12 13  2  0
 13 14  1  0
 14 15  2  0
 14 16  2  0
 14 17  1  0
 17 18  1  0
 18 19  1  0
 19 20  1  0
 20 21  1  0
 21 22  1  0
 13 23  1  0
 23 24  2  0
  5 25  1  0
 25 26  1  0
 25 27  2  0
 27 28  1  0
 28 29  2  0
 28 30  2  0
 28 31  1  0
 31 32  1  0
 32 33  1  0
 33 34  1  0
 34 35  1  0
 35 36  1  0
 27  2  1  0
 36 31  1  0
 24 10  1  0
 22 17  1  0
  1 37  1  0
  1 38  1  0
  1 39  1  0
  3 40  1  0
  4 41  1  0
  6 42  1  0
 11 43  1  0
 12 44  1  0
 18 45  1  0
 18 46  1  0
 19 47  1  0
 19 48  1  0
 21 49  1  0
 21 50  1  0
 22 51  1  0
 22 52  1  0
 23 53  1  0
 24 54  1  0
 32 55  1  0
 32 56  1  0
 33 57  1  0
 33 58  1  0
 35 59  1  0
 35 60  1  0
 36 61  1  0
 36 62  1  0
M  CHG  2   9  -1  26  -1
M  END
>  <UniqueID>  (43) 
41

>  <SMILES>  (43) 
Cc1ccc(NC(=O)[N-]c2ccc(S(=O)(=O)N3CCOCC3)cc2)c([O-])c1S(=O)(=O)N1CCOCC1

>  <Energy>  (43) 
96.77561455349448

>  <Genealogy>  (43) 
Cc1ccc(NC(=O)[N-]c2ccc(S(=O)(=O)N3CCOCC3)cc2)c([O-])c1S(=O)(=O)N1CCOCC1 (protonated)
Cc1ccc(NC(=O)[N-]c2ccc(S(=O)(=O)N3CCOCC3)cc2)c([O-])c1S(=O)(=O)N1CCOCC1 (3D coordinates assigned)
Cc1ccc(NC(=O)[N-]c2ccc(S(=O)(=O)N3CCOCC3)cc2)c([O-])c1S(=O)(=O)N1CCOCC1 (nonaromatic ring conformer: 96.77561455349448 kcal/mol)

>  <smiles>  (43) 
Cc1ccc(NC(=O)Nc2ccc(S(=O)(=O)N3CCOCC3)cc2)c(O)c1S(=O)(=O)N1CCOCC1

>  <score_type>  (43) 
oracle

>  <origin>  (43) 
adgpu

>  <m_score__min__energy>  (43) 
-13.91

>  <m_primary>  (43) 
energy

$$$$
43:0
     RDKit          3D

 46 48  0  0  0  0  0  0  0  0999 V2000
   -2.7300   19.9250  -34.1520 C   0  0  0  0  0  0  0  0  0  0  0  0
   -1.2910   19.6350  -34.1830 N   0  0  0  0  0  0  0  0  0  0  0  0
   -1.0310   18.2990  -33.6330 C   0  0  0  0  0  0  0  0  0  0  0  0
   -0.4220   20.8350  -33.2580 S   0  0  0  0  0  0  0  0  0  0  0  0
   -1.3840   21.8790  -32.7630 O   0  0  0  0  0  0  0  0  0  0  0  0
    0.5850   21.5150  -34.1440 O   0  0  0  0  0  0  0  0  0  0  0  0
    0.4080   20.1130  -31.8780 C   0  0  0  0  0  0  0  0  0  0  0  0
    1.4760   19.2270  -32.0780 C   0  0  0  0  0  0  0  0  0  0  0  0
    2.1330   18.6640  -30.9830 C   0  0  0  0  0  0  0  0  0  0  0  0
    3.1680   17.8100  -31.1810 F   0  0  0  0  0  0  0  0  0  0  0  0
    1.7280   18.9790  -29.6840 C   0  0  0  0  0  0  0  0  0  0  0  0
    0.6540   19.8550  -29.4640 C   0  0  0  0  0  0  0  0  0  0  0  0
    0.2660   20.1660  -28.1140 N   0  0  0  0  0  0  0  0  0  0  0  0
   -1.3750   20.4550  -27.6190 S   0  0  0  0  0  0  0  0  0  0  0  0
   -1.3890   20.7200  -26.1400 O   0  0  0  0  0  0  0  0  0  0  0  0
   -2.1820   19.2200  -27.9050 O   0  0  0  0  0  0  0  0  0  0  0  0
   -2.0680   21.8580  -28.4610 C   0  0  0  0  0  0  0  0  0  0  0  0
   -1.7270   23.1410  -28.0090 C   0  0  0  0  0  0  0  0  0  0  0  0
   -2.1830   24.2970  -28.6580 C   0  0  0  0  0  0  0  0  0  0  0  0
   -1.7640   25.6270  -28.1410 C   0  0  0  0  0  0  0  0  0  0  0  0
   -1.9240   25.9360  -26.9310 O   0  0  0  0  0  0  0  0  0  0  0  0
   -1.1820   26.5600  -28.9940 O   0  0  0  0  0  0  0  0  0  0  0  0
   -3.0220   24.1660  -29.7830 C   0  0  0  0  0  0  0  0  0  0  0  0
   -3.4810   25.2990  -30.4500 O   0  0  0  0  0  0  0  0  0  0  0  0
   -3.4050   22.8890  -30.2390 C   0  0  0  0  0  0  0  0  0  0  0  0
   -4.2560   22.7580  -31.3540 C   0  0  0  0  0  0  0  0  0  0  0  0
   -4.6500   21.4980  -31.8030 C   0  0  0  0  0  0  0  0  0  0  0  0
   -4.2080   20.3540  -31.1450 C   0  0  0  0  0  0  0  0  0  0  0  0
   -3.3630   20.4590  -30.0400 C   0  0  0  0  0  0  0  0  0  0  0  0
   -2.9370   21.7220  -29.5740 C   0  0  0  0  0  0  0  0  0  0  0  0
   -0.0010   20.4220  -30.5750 C   0  0  0  0  0  0  0  0  0  0  0  0
   -3.0679   19.9931  -33.1074 H   0  0  0  0  0  0  0  0  0  0  0  0
   -2.9227   20.8800  -34.6627 H   0  0  0  0  0  0  0  0  0  0  0  0
   -3.2775   19.1191  -34.6627 H   0  0  0  0  0  0  0  0  0  0  0  0
   -1.0403   18.3467  -32.5341 H   0  0  0  0  0  0  0  0  0  0  0  0
   -1.8106   17.6030  -33.9764 H   0  0  0  0  0  0  0  0  0  0  0  0
   -0.0473   17.9462  -33.9764 H   0  0  0  0  0  0  0  0  0  0  0  0
    1.7966   18.9752  -33.0997 H   0  0  0  0  0  0  0  0  0  0  0  0
    2.2554   18.5366  -28.8260 H   0  0  0  0  0  0  0  0  0  0  0  0
    0.9920   20.1610  -27.3630 H   0  0  0  0  0  0  0  0  0  0  0  0
   -1.0848   23.2430  -27.1218 H   0  0  0  0  0  0  0  0  0  0  0  0
   -4.6131   23.6583  -31.8754 H   0  0  0  0  0  0  0  0  0  0  0  0
   -5.3106   21.4081  -32.6779 H   0  0  0  0  0  0  0  0  0  0  0  0
   -4.5266   19.3621  -31.4980 H   0  0  0  0  0  0  0  0  0  0  0  0
   -3.0247   19.5474  -29.5258 H   0  0  0  0  0  0  0  0  0  0  0  0
   -0.8415   21.1139  -30.4174 H   0  0  0  0  0  0  0  0  0  0  0  0
  1  2  1  0
  2  3  1  0
  2  4  1  0
  4  5  2  0
  4  6  2  0
  4  7  1  0
  7  8  2  0
  8  9  1  0
  9 10  1  0
  9 11  2  0
 11 12  1  0
 12 13  1  0
 13 14  1  0
 14 15  2  0
 14 16  2  0
 14 17  1  0
 17 18  2  0
 18 19  1  0
 19 20  1  0
 20 21  2  0
 20 22  1  0
 19 23  2  0
 23 24  1  0
 23 25  1  0
 25 26  2  0
 26 27  1  0
 27 28  2  0
 28 29  1  0
 29 30  2  0
 12 31  2  0
 31  7  1  0
 30 17  1  0
 30 25  1  0
  1 32  1  0
  1 33  1  0
  1 34  1  0
  3 35  1  0
  3 36  1  0
  3 37  1  0
  8 38  1  0
 11 39  1  0
 13 40  1  0
 18 41  1  0
 26 42  1  0
 27 43  1  0
 28 44  1  0
 29 45  1  0
 31 46  1  0
M  CHG  2  22  -1  24  -1
M  END
>  <UniqueID>  (44) 
42

>  <SMILES>  (44) 
CN(C)S(=O)(=O)c1cc(F)cc(NS(=O)(=O)c2cc(C(=O)[O-])c([O-])c3ccccc23)c1

>  <Energy>  (44) 
57.94331157688453

>  <Genealogy>  (44) 
CN(C)S(=O)(=O)c1cc(F)cc(NS(=O)(=O)c2cc(C(=O)[O-])c([O-])c3ccccc23)c1 (protonated)
CN(C)S(=O)(=O)c1cc(F)cc(NS(=O)(=O)c2cc(C(=O)[O-])c([O-])c3ccccc23)c1 (3D coordinates assigned)
CN(C)S(=O)(=O)c1cc(F)cc(NS(=O)(=O)c2cc(C(=O)[O-])c([O-])c3ccccc23)c1 (optimized conformer: 57.94331157688453 kcal/mol)

>  <smiles>  (44) 
CN(C)S(=O)(=O)c1cc(F)cc(NS(=O)(=O)c2cc(C(=O)O)c(O)c3ccccc23)c1

>  <score_type>  (44) 
oracle

>  <origin>  (44) 
adgpu

>  <m_score__min__energy>  (44) 
-12.4

>  <m_primary>  (44) 
energy

$$$$
44:0
     RDKit          3D

 73 76  0  0  0  0  0  0  0  0999 V2000
   -1.2750   20.9380  -25.9290 C   0  0  0  0  0  0  0  0  0  0  0  0
   -1.4860   20.0260  -27.1400 C   0  0  0  0  0  0  0  0  0  0  0  0
   -2.9770   19.7260  -27.3380 C   0  0  0  0  0  0  0  0  0  0  0  0
   -0.8970   20.6220  -28.3620 N   0  0  0  0  0  0  0  0  0  0  0  0
   -1.1780   21.9930  -28.7080 C   0  0  0  0  0  0  0  0  0  0  0  0
   -0.3820   23.0240  -28.1940 C   0  0  0  0  0  0  0  0  0  0  0  0
    0.6740   22.7460  -27.3900 F   0  0  0  0  0  0  0  0  0  0  0  0
   -0.7050   24.3550  -28.4830 C   0  0  0  0  0  0  0  0  0  0  0  0
   -0.0480   25.4090  -27.8410 O   0  0  0  0  0  0  0  0  0  0  0  0
   -0.4130   25.8870  -26.5700 C   0  0  0  0  0  0  0  0  0  0  0  0
   -1.7680   25.9300  -26.2210 C   0  0  0  0  0  0  0  0  0  0  0  0
   -2.1600   26.3800  -24.9570 C   0  0  0  0  0  0  0  0  0  0  0  0
   -1.2020   26.7990  -24.0310 C   0  0  0  0  0  0  0  0  0  0  0  0
    0.1600   26.7810  -24.3650 C   0  0  0  0  0  0  0  0  0  0  0  0
    1.1750   27.2520  -23.3940 C   0  0  0  0  0  0  0  0  0  0  0  0
    1.1300   28.6000  -22.9150 N   0  0  0  0  0  0  0  0  0  0  0  0
    2.1100   26.4530  -22.9750 N   0  0  0  0  0  0  0  0  0  0  0  0
    0.5480   26.3050  -25.6280 C   0  0  0  0  0  0  0  0  0  0  0  0
   -1.7040   24.6290  -29.3560 N   0  0  0  0  0  0  0  0  0  0  0  0
   -2.4830   23.6580  -29.9020 C   0  0  0  0  0  0  0  0  0  0  0  0
   -3.4900   24.0560  -30.7990 O   0  0  0  0  0  0  0  0  0  0  0  0
   -4.7130   23.4050  -31.0330 C   0  0  0  0  0  0  0  0  0  0  0  0
   -4.7810   22.2790  -31.8690 C   0  0  0  0  0  0  0  0  0  0  0  0
   -5.9950   21.6330  -32.0910 C   0  0  0  0  0  0  0  0  0  0  0  0
   -7.1670   22.1160  -31.4960 C   0  0  0  0  0  0  0  0  0  0  0  0
   -8.6950   21.2870  -31.7760 S   0  0  0  0  0  0  0  0  0  0  0  0
   -9.2490   20.7850  -30.4730 O   0  0  0  0  0  0  0  0  0  0  0  0
   -9.6920   22.2360  -32.3730 O   0  0  0  0  0  0  0  0  0  0  0  0
   -8.4570   19.9670  -32.8720 N   0  0  0  0  0  0  0  0  0  0  0  0
   -7.7520   18.9200  -32.5760 C   0  0  0  0  0  0  0  0  0  0  0  0
   -7.5800   17.8940  -33.4350 N   0  0  0  0  0  0  0  0  0  0  0  0
   -6.8130   17.0340  -32.7370 C   0  0  0  0  0  0  0  0  0  0  0  0
   -6.5570   17.5810  -31.5030 C   0  0  0  0  0  0  0  0  0  0  0  0
   -5.8040   17.0020  -30.4900 O   0  0  0  0  0  0  0  0  0  0  0  0
   -7.1440   18.7460  -31.4240 O   0  0  0  0  0  0  0  0  0  0  0  0
   -7.1200   23.2680  -30.6990 C   0  0  0  0  0  0  0  0  0  0  0  0
   -5.8990   23.9330  -30.4740 C   0  0  0  0  0  0  0  0  0  0  0  0
   -5.8480   25.1680  -29.6020 C   0  0  0  0  0  0  0  0  0  0  0  0
   -7.1300   25.6060  -29.3220 F   0  0  0  0  0  0  0  0  0  0  0  0
   -5.2110   24.9240  -28.3970 F   0  0  0  0  0  0  0  0  0  0  0  0
   -5.1670   26.1650  -30.2740 F   0  0  0  0  0  0  0  0  0  0  0  0
   -2.2850   22.3170  -29.5080 C   0  0  0  0  0  0  0  0  0  0  0  0
   -3.1740   21.3510  -29.8410 F   0  0  0  0  0  0  0  0  0  0  0  0
   -0.1010   19.8120  -29.3130 C   0  0  0  0  0  0  0  0  0  0  0  0
   -0.7910   19.7060  -30.6800 C   0  0  0  0  0  0  0  0  0  0  0  0
    0.1980   18.4270  -28.7330 C   0  0  0  0  0  0  0  0  0  0  0  0
   -1.4094   20.3571  -25.0046 H   0  0  0  0  0  0  0  0  0  0  0  0
   -0.2569   21.3537  -25.9560 H   0  0  0  0  0  0  0  0  0  0  0  0
   -2.0070   21.7586  -25.9560 H   0  0  0  0  0  0  0  0  0  0  0  0
   -0.9683   19.0748  -26.9472 H   0  0  0  0  0  0  0  0  0  0  0  0
   -3.4647   19.6279  -26.3569 H   0  0  0  0  0  0  0  0  0  0  0  0
   -3.4450   20.5480  -27.8995 H   0  0  0  0  0  0  0  0  0  0  0  0
   -3.0907   18.7870  -27.8995 H   0  0  0  0  0  0  0  0  0  0  0  0
   -2.5294   25.6075  -26.9464 H   0  0  0  0  0  0  0  0  0  0  0  0
   -3.2270   26.4042  -24.6906 H   0  0  0  0  0  0  0  0  0  0  0  0
   -1.5171   27.1446  -23.0354 H   0  0  0  0  0  0  0  0  0  0  0  0
    1.9220   28.9960  -22.3610 H   0  0  0  0  0  0  0  0  0  0  0  0
    0.3150   29.2190  -23.1220 H   0  0  0  0  0  0  0  0  0  0  0  0
    2.2030   25.4830  -23.3490 H   0  0  0  0  0  0  0  0  0  0  0  0
    2.8120   26.7730  -22.2730 H   0  0  0  0  0  0  0  0  0  0  0  0
    1.6164   26.2578  -25.8854 H   0  0  0  0  0  0  0  0  0  0  0  0
   -3.8673   21.9036  -32.3530 H   0  0  0  0  0  0  0  0  0  0  0  0
   -6.0331   20.7419  -32.7348 H   0  0  0  0  0  0  0  0  0  0  0  0
   -6.4525   16.0583  -33.0948 H   0  0  0  0  0  0  0  0  0  0  0  0
   -6.0960   16.1310  -30.0680 H   0  0  0  0  0  0  0  0  0  0  0  0
   -8.0441   23.6558  -30.2456 H   0  0  0  0  0  0  0  0  0  0  0  0
    0.8572   20.3287  -29.4707 H   0  0  0  0  0  0  0  0  0  0  0  0
   -1.8687   19.5404  -30.5349 H   0  0  0  0  0  0  0  0  0  0  0  0
   -0.6357   20.6385  -31.2424 H   0  0  0  0  0  0  0  0  0  0  0  0
   -0.3630   18.8631  -31.2424 H   0  0  0  0  0  0  0  0  0  0  0  0
    0.1867   18.4793  -27.6343 H   0  0  0  0  0  0  0  0  0  0  0  0
   -0.5669   17.7138  -29.0740 H   0  0  0  0  0  0  0  0  0  0  0  0
    1.1890   18.0928  -29.0740 H   0  0  0  0  0  0  0  0  0  0  0  0
  1  2  1  0
  2  3  1  0
  2  4  1  0
  4  5  1  0
  5  6  2  0
  6  7  1  0
  6  8  1  0
  8  9  1  0
  9 10  1  0
 10 11  2  0
 11 12  1  0
 12 13  2  0
 13 14  1  0
 14 15  1  0
 15 16  1  0
 15 17  2  0
 14 18  2  0
  8 19  2  0
 19 20  1  0
 20 21  1  0
 21 22  1  0
 22 23  2  0
 23 24  1  0
 24 25  2  0
 25 26  1  0
 26 27  2  0
 26 28  2  0
 26 29  1  0
 29 30  2  3
 30 31  1  0
 31 32  1  0
 32 33  2  0
 33 34  1  0
 33 35  1  0
 25 36  1  0
 36 37  2  0
 37 38  1  0
 38 39  1  0
 38 40  1  0
 38 41  1  0
 20 42  2  0
 42 43  1  0
  4 44  1  0
 44 45  1  0
 44 46  1  0
 42  5  1  0
 18 10  1  0
 37 22  1  0
 35 30  1  0
  1 47  1  0
  1 48  1  0
  1 49  1  0
  2 50  1  0
  3 51  1  0
  3 52  1  0
  3 53  1  0
 11 54  1  0
 12 55  1  0
 13 56  1  0
 16 57  1  0
 16 58  1  0
 17 59  1  0
 17 60  1  0
 18 61  1  0
 23 62  1  0
 24 63  1  0
 32 64  1  0
 34 65  1  0
 36 66  1  0
 44 67  1  0
 45 68  1  0
 45 69  1  0
 45 70  1  0
 46 71  1  0
 46 72  1  0
 46 73  1  0
M  CHG  2  17   1  31  -1
M  END
>  <UniqueID>  (45) 
43

>  <SMILES>  (45) 
CC(C)N(c1c(F)c(Oc2cccc(C(N)=[NH2+])c2)nc(Oc2ccc(S(=O)(=O)N=c3[n-]cc(O)o3)cc2C(F)(F)F)c1F)C(C)C

>  <Energy>  (45) 
128.24098053344414

>  <Genealogy>  (45) 
CC(C)N(c1c(F)c(Oc2cccc(C(N)=[NH2+])c2)nc(Oc2ccc(S(=O)(=O)N=c3[n-]cc(O)o3)cc2C(F)(F)F)c1F)C(C)C (protonated)
CC(C)N(c1c(F)c(Oc2cccc(C(N)=[NH2+])c2)nc(Oc2ccc(S(=O)(=O)N=c3[n-]cc(O)o3)cc2C(F)(F)F)c1F)C(C)C (3D coordinates assigned)
CC(C)N(c1c(F)c(Oc2cccc(C(N)=[NH2+])c2)nc(Oc2ccc(S(=O)(=O)N=c3[n-]cc(O)o3)cc2C(F)(F)F)c1F)C(C)C (optimized conformer: 128.24098053344414 kcal/mol)

>  <smiles>  (45) 
CC(C)N(c1c(F)c(Oc2cccc(C(=N)N)c2)nc(Oc2ccc(S(=O)(=O)N=c3[nH]cc(O)o3)cc2C(F)(F)F)c1F)C(C)C

>  <score_type>  (45) 
oracle

>  <origin>  (45) 
adgpu

>  <m_score__min__energy>  (45) 
-11.9

>  <m_primary>  (45) 
energy

$$$$
45:0
     RDKit          3D

 38 40  0  0  0  0  0  0  0  0999 V2000
    3.4310   18.3570  -38.1500 C   0  0  0  0  0  0  0  0  0  0  0  0
    2.9260   19.5480  -37.4080 C   0  0  0  0  0  0  0  0  0  0  0  0
    1.8510   19.5670  -36.5460 C   0  0  0  0  0  0  0  0  0  0  0  0
    1.7460   20.8940  -36.1820 C   0  0  0  0  0  0  0  0  0  0  0  0
    0.7460   21.4640  -35.2670 C   0  0  0  0  0  0  0  0  0  0  0  0
    0.5850   22.7140  -35.2280 O   0  0  0  0  0  0  0  0  0  0  0  0
   -0.0660   20.6020  -34.4530 N   0  0  0  0  0  0  0  0  0  0  0  0
   -0.8920   21.0610  -33.3700 C   0  0  0  0  0  0  0  0  0  0  0  0
   -2.2670   21.2820  -33.5330 C   0  0  0  0  0  0  0  0  0  0  0  0
   -3.0160   21.7290  -32.4920 N   0  0  0  0  0  0  0  0  0  0  0  0
   -2.4810   21.9860  -31.2690 C   0  0  0  0  0  0  0  0  0  0  0  0
   -3.3350   22.4210  -30.2470 O   0  0  0  0  0  0  0  0  0  0  0  0
   -4.5490   23.0970  -30.4470 C   0  0  0  0  0  0  0  0  0  0  0  0
   -5.7260   22.3390  -30.4970 C   0  0  0  0  0  0  0  0  0  0  0  0
   -6.9620   22.9600  -30.7010 C   0  0  0  0  0  0  0  0  0  0  0  0
   -7.0330   24.3460  -30.8450 C   0  0  0  0  0  0  0  0  0  0  0  0
   -5.8700   25.1170  -30.7760 C   0  0  0  0  0  0  0  0  0  0  0  0
   -4.6280   24.5030  -30.5660 C   0  0  0  0  0  0  0  0  0  0  0  0
   -3.4930   25.2980  -30.4610 O   0  0  0  0  0  0  0  0  0  0  0  0
   -1.0900   21.8470  -31.0740 C   0  0  0  0  0  0  0  0  0  0  0  0
   -0.4310   22.1950  -29.7670 C   0  0  0  0  0  0  0  0  0  0  0  0
   -0.3080   21.3650  -32.1340 C   0  0  0  0  0  0  0  0  0  0  0  0
    2.6980   21.6150  -36.8070 N   0  0  0  0  0  0  0  0  0  0  0  0
    3.4150   20.7940  -37.5610 N   0  0  0  0  0  0  0  0  0  0  0  0
    3.7566   17.5891  -37.4328 H   0  0  0  0  0  0  0  0  0  0  0  0
    2.6276   17.9511  -38.7822 H   0  0  0  0  0  0  0  0  0  0  0  0
    4.2813   18.6523  -38.7822 H   0  0  0  0  0  0  0  0  0  0  0  0
    1.2239   18.7227  -36.2237 H   0  0  0  0  0  0  0  0  0  0  0  0
   -0.1280   19.5920  -34.7190 H   0  0  0  0  0  0  0  0  0  0  0  0
   -2.7408   21.0926  -34.5075 H   0  0  0  0  0  0  0  0  0  0  0  0
   -5.6775   21.2469  -30.3748 H   0  0  0  0  0  0  0  0  0  0  0  0
   -7.8796   22.3551  -30.7480 H   0  0  0  0  0  0  0  0  0  0  0  0
   -8.0054   24.8320  -31.0130 H   0  0  0  0  0  0  0  0  0  0  0  0
   -5.9294   26.2098  -30.8869 H   0  0  0  0  0  0  0  0  0  0  0  0
   -1.0671   21.8591  -28.9348 H   0  0  0  0  0  0  0  0  0  0  0  0
    0.5473   21.6960  -29.7053 H   0  0  0  0  0  0  0  0  0  0  0  0
   -0.2915   23.2844  -29.7053 H   0  0  0  0  0  0  0  0  0  0  0  0
    0.7739   21.2245  -31.9931 H   0  0  0  0  0  0  0  0  0  0  0  0
  1  2  1  0
  2  3  1  0
  3  4  2  0
  4  5  1  0
  5  6  2  0
  5  7  1  0
  7  8  1  0
  8  9  2  0
  9 10  1  0
 10 11  2  0
 11 12  1  0
 12 13  1  0
 13 14  2  0
 14 15  1  0
 15 16  2  0
 16 17  1  0
 17 18  2  0
 18 19  1  0
 11 20  1  0
 20 21  1  0
 20 22  2  0
  4 23  1  0
 23 24  1  0
 24  2  2  0
 22  8  1  0
 18 13  1  0
  1 25  1  0
  1 26  1  0
  1 27  1  0
  3 28  1  0
  7 29  1  0
  9 30  1  0
 14 31  1  0
 15 32  1  0
 16 33  1  0
 17 34  1  0
 21 35  1  0
 21 36  1  0
 21 37  1  0
 22 38  1  0
M  CHG  2  19  -1  23  -1
M  END
>  <UniqueID>  (46) 
44

>  <SMILES>  (46) 
Cc1cc(C(=O)Nc2cnc(Oc3ccccc3[O-])c(C)c2)[n-]n1

>  <Energy>  (46) 
81.65602148476735

>  <Genealogy>  (46) 
Cc1cc(C(=O)Nc2cnc(Oc3ccccc3[O-])c(C)c2)[n-]n1 (protonated)
Cc1cc(C(=O)Nc2cnc(Oc3ccccc3[O-])c(C)c2)[n-]n1 (3D coordinates assigned)
Cc1cc(C(=O)Nc2cnc(Oc3ccccc3[O-])c(C)c2)[n-]n1 (optimized conformer: 81.65602148476735 kcal/mol)

>  <smiles>  (46) 
Cc1cc(C(=O)Nc2cnc(Oc3ccccc3O)c(C)c2)[nH]n1

>  <score_type>  (46) 
oracle

>  <origin>  (46) 
adgpu

>  <m_score__min__energy>  (46) 
-10.800000000000001

>  <m_primary>  (46) 
energy

$$$$
46:0
     RDKit          3D

 62 65  0  0  0  0  0  0  0  0999 V2000
   -7.9770   19.1510  -31.8470 O   0  0  0  0  0  0  0  0  0  0  0  0
   -6.9700   19.8340  -32.1790 C   0  0  0  0  0  0  0  0  0  0  0  0
   -5.8840   19.2130  -32.8920 N   0  0  0  0  0  0  0  0  0  0  0  0
   -5.8260   17.8100  -33.2000 C   0  0  0  0  0  0  0  0  0  0  0  0
   -6.8520   17.1740  -33.9230 C   0  0  0  0  0  0  0  0  0  0  0  0
   -6.7810   15.8040  -34.1920 C   0  0  0  0  0  0  0  0  0  0  0  0
   -5.6910   15.0490  -33.7350 C   0  0  0  0  0  0  0  0  0  0  0  0
   -5.5890   13.3250  -34.1000 S   0  0  0  0  0  0  0  0  0  0  0  0
   -5.8050   12.5380  -32.8360 O   0  0  0  0  0  0  0  0  0  0  0  0
   -6.6770   12.9570  -35.0690 O   0  0  0  0  0  0  0  0  0  0  0  0
   -4.0360   12.9070  -34.7880 N   0  0  0  0  0  0  0  0  0  0  0  0
   -2.9770   12.9970  -33.7590 C   0  0  0  0  0  0  0  0  0  0  0  0
   -1.5850   13.0490  -34.3940 C   0  0  0  0  0  0  0  0  0  0  0  0
   -1.4240   14.2990  -35.2760 C   0  0  0  0  0  0  0  0  0  0  0  0
   -2.7660   14.8230  -35.8170 C   0  0  0  0  0  0  0  0  0  0  0  0
   -3.7640   13.6760  -36.0280 C   0  0  0  0  0  0  0  0  0  0  0  0
   -4.6860   15.6740  -32.9850 C   0  0  0  0  0  0  0  0  0  0  0  0
   -4.7570   17.0440  -32.7140 C   0  0  0  0  0  0  0  0  0  0  0  0
   -6.9350   21.2740  -31.8300 C   0  0  0  0  0  0  0  0  0  0  0  0
   -8.1020   22.0490  -31.9530 C   0  0  0  0  0  0  0  0  0  0  0  0
   -8.0890   23.4070  -31.6230 C   0  0  0  0  0  0  0  0  0  0  0  0
   -6.9120   24.0080  -31.1760 C   0  0  0  0  0  0  0  0  0  0  0  0
   -5.7350   23.2580  -31.0700 C   0  0  0  0  0  0  0  0  0  0  0  0
   -4.2560   24.0310  -30.5030 S   0  0  0  0  0  0  0  0  0  0  0  0
   -3.0670   23.4270  -31.1980 O   0  0  0  0  0  0  0  0  0  0  0  0
   -4.3190   25.4940  -30.8440 O   0  0  0  0  0  0  0  0  0  0  0  0
   -4.1250   23.8180  -28.7700 N   0  0  0  0  0  0  0  0  0  0  0  0
   -4.2070   22.3870  -28.3770 C   0  0  0  0  0  0  0  0  0  0  0  0
   -2.9390   21.8500  -27.6910 C   0  0  0  0  0  0  0  0  0  0  0  0
   -1.6900   22.3230  -28.4320 C   0  0  0  0  0  0  0  0  0  0  0  0
   -1.6240   23.8570  -28.5280 C   0  0  0  0  0  0  0  0  0  0  0  0
   -2.9670   24.5440  -28.2140 C   0  0  0  0  0  0  0  0  0  0  0  0
   -5.7480   21.8940  -31.3960 C   0  0  0  0  0  0  0  0  0  0  0  0
   -5.1090   19.8070  -33.2590 H   0  0  0  0  0  0  0  0  0  0  0  0
   -7.7141   17.7576  -34.2783 H   0  0  0  0  0  0  0  0  0  0  0  0
   -7.5835   15.3160  -34.7646 H   0  0  0  0  0  0  0  0  0  0  0  0
   -3.1331   13.9085  -33.1634 H   0  0  0  0  0  0  0  0  0  0  0  0
   -3.0346   12.1011  -33.1233 H   0  0  0  0  0  0  0  0  0  0  0  0
   -0.8273   13.0719  -33.5969 H   0  0  0  0  0  0  0  0  0  0  0  0
   -1.4559   12.1575  -35.0253 H   0  0  0  0  0  0  0  0  0  0  0  0
   -0.9519   15.0926  -34.6783 H   0  0  0  0  0  0  0  0  0  0  0  0
   -0.8053   14.0172  -36.1407 H   0  0  0  0  0  0  0  0  0  0  0  0
   -3.1887   15.5387  -35.0965 H   0  0  0  0  0  0  0  0  0  0  0  0
   -2.5849   15.3105  -36.7863 H   0  0  0  0  0  0  0  0  0  0  0  0
   -4.7116   14.0989  -36.3929 H   0  0  0  0  0  0  0  0  0  0  0  0
   -3.3171   12.9811  -36.7542 H   0  0  0  0  0  0  0  0  0  0  0  0
   -3.8374   15.0844  -32.6077 H   0  0  0  0  0  0  0  0  0  0  0  0
   -3.9688   17.5240  -32.1154 H   0  0  0  0  0  0  0  0  0  0  0  0
   -9.0317   21.5830  -32.3115 H   0  0  0  0  0  0  0  0  0  0  0  0
   -9.0087   24.0032  -31.7159 H   0  0  0  0  0  0  0  0  0  0  0  0
   -6.9090   25.0744  -30.9061 H   0  0  0  0  0  0  0  0  0  0  0  0
   -5.0521   22.2673  -27.6831 H   0  0  0  0  0  0  0  0  0  0  0  0
   -4.3339   21.8101  -29.3050 H   0  0  0  0  0  0  0  0  0  0  0  0
   -2.9054   22.2161  -26.6542 H   0  0  0  0  0  0  0  0  0  0  0  0
   -2.9657   20.7504  -27.7037 H   0  0  0  0  0  0  0  0  0  0  0  0
   -0.8004   21.9620  -27.8951 H   0  0  0  0  0  0  0  0  0  0  0  0
   -1.7281   21.9196  -29.4546 H   0  0  0  0  0  0  0  0  0  0  0  0
   -0.8704   24.2198  -27.8135 H   0  0  0  0  0  0  0  0  0  0  0  0
   -1.3637   24.1083  -29.5668 H   0  0  0  0  0  0  0  0  0  0  0  0
   -3.0828   24.6065  -27.1219 H   0  0  0  0  0  0  0  0  0  0  0  0
   -2.9461   25.5402  -28.6801 H   0  0  0  0  0  0  0  0  0  0  0  0
   -4.8234   21.3040  -31.3119 H   0  0  0  0  0  0  0  0  0  0  0  0
  1  2  2  0
  2  3  1  0
  3  4  1  0
  4  5  2  0
  5  6  1  0
  6  7  2  0
  7  8  1  0
  8  9  2  0
  8 10  2  0
  8 11  1  0
 11 12  1  0
 12 13  1  0
 13 14  1  0
 14 15  1  0
 15 16  1  0
  7 17  1  0
 17 18  2  0
  2 19  1  0
 19 20  2  0
 20 21  1  0
 21 22  2  0
 22 23  1  0
 23 24  1  0
 24 25  2  0
 24 26  2  0
 24 27  1  0
 27 28  1  0
 28 29  1  0
 29 30  1  0
 30 31  1  0
 31 32  1  0
 23 33  2  0
 18  4  1  0
 33 19  1  0
 16 11  1  0
 32 27  1  0
  3 34  1  0
  5 35  1  0
  6 36  1  0
 12 37  1  0
 12 38  1  0
 13 39  1  0
 13 40  1  0
 14 41  1  0
 14 42  1  0
 15 43  1  0
 15 44  1  0
 16 45  1  0
 16 46  1  0
 17 47  1  0
 18 48  1  0
 20 49  1  0
 21 50  1  0
 22 51  1  0
 28 52  1  0
 28 53  1  0
 29 54  1  0
 29 55  1  0
 30 56  1  0
 30 57  1  0
 31 58  1  0
 31 59  1  0
 32 60  1  0
 32 61  1  0
 33 62  1  0
M  END
>  <UniqueID>  (47) 
45

>  <SMILES>  (47) 
O=C(Nc1ccc(S(=O)(=O)N2CCCCC2)cc1)c1cccc(S(=O)(=O)N2CCCCC2)c1

>  <Energy>  (47) 
82.17898270657824

>  <Genealogy>  (47) 
O=C(Nc1ccc(S(=O)(=O)N2CCCCC2)cc1)c1cccc(S(=O)(=O)N2CCCCC2)c1 (3D coordinates assigned)
O=C(Nc1ccc(S(=O)(=O)N2CCCCC2)cc1)c1cccc(S(=O)(=O)N2CCCCC2)c1 (nonaromatic ring conformer: 82.17898270657824 kcal/mol)

>  <smiles>  (47) 
O=C(Nc1ccc(S(=O)(=O)N2CCCCC2)cc1)c1cccc(S(=O)(=O)N2CCCCC2)c1

>  <score_type>  (47) 
oracle

>  <origin>  (47) 
adgpu

>  <m_score__min__energy>  (47) 
-11.619999999999999

>  <m_primary>  (47) 
energy

$$$$
47:0
     RDKit          3D

 53 56  0  0  0  0  0  0  0  0999 V2000
    0.2850   26.7970  -23.5450 C   0  0  0  0  0  0  0  0  0  0  0  0
   -0.8650   26.0160  -24.0360 N   0  0  0  0  0  0  0  0  0  0  0  0
   -0.4930   24.5890  -24.2390 C   0  0  0  0  0  0  0  0  0  0  0  0
   -0.2040   24.2720  -25.7120 C   0  0  0  0  0  0  0  0  0  0  0  0
   -1.3960   24.5120  -26.5500 N   0  0  0  0  0  0  0  0  0  0  0  0
   -0.9400   24.6530  -28.2310 S   0  0  0  0  0  0  0  0  0  0  0  0
   -1.3130   26.0210  -28.7320 O   0  0  0  0  0  0  0  0  0  0  0  0
    0.5510   24.5030  -28.3620 O   0  0  0  0  0  0  0  0  0  0  0  0
   -1.7360   23.4320  -29.2260 C   0  0  0  0  0  0  0  0  0  0  0  0
   -2.8160   23.7820  -30.0470 C   0  0  0  0  0  0  0  0  0  0  0  0
   -3.4300   22.8200  -30.8520 C   0  0  0  0  0  0  0  0  0  0  0  0
   -2.9700   21.4890  -30.8480 C   0  0  0  0  0  0  0  0  0  0  0  0
   -3.5420   20.4870  -31.6480 O   0  0  0  0  0  0  0  0  0  0  0  0
   -3.9570   20.6520  -33.0030 C   0  0  0  0  0  0  0  0  0  0  0  0
   -4.7890   19.4760  -33.4320 C   0  0  0  0  0  0  0  0  0  0  0  0
   -4.3370   18.4130  -34.1840 C   0  0  0  0  0  0  0  0  0  0  0  0
   -5.3720   17.6860  -34.5360 O   0  0  0  0  0  0  0  0  0  0  0  0
   -6.4850   18.1920  -34.0870 N   0  0  0  0  0  0  0  0  0  0  0  0
   -6.1660   19.3030  -33.3950 C   0  0  0  0  0  0  0  0  0  0  0  0
   -7.1740   20.1790  -32.7730 C   0  0  0  0  0  0  0  0  0  0  0  0
   -6.8460   21.4780  -32.3490 C   0  0  0  0  0  0  0  0  0  0  0  0
   -7.8220   22.3000  -31.7790 C   0  0  0  0  0  0  0  0  0  0  0  0
   -9.1270   21.8280  -31.6160 C   0  0  0  0  0  0  0  0  0  0  0  0
   -9.4550   20.5280  -32.0070 C   0  0  0  0  0  0  0  0  0  0  0  0
   -8.4800   19.7010  -32.5740 C   0  0  0  0  0  0  0  0  0  0  0  0
   -1.9110   21.1400  -30.0040 C   0  0  0  0  0  0  0  0  0  0  0  0
   -1.2930   22.1020  -29.2020 C   0  0  0  0  0  0  0  0  0  0  0  0
   -2.2240   25.6590  -26.1050 C   0  0  0  0  0  0  0  0  0  0  0  0
   -1.4310   26.6580  -25.2490 C   0  0  0  0  0  0  0  0  0  0  0  0
    0.2853   26.7972  -22.4450 H   0  0  0  0  0  0  0  0  0  0  0  0
    1.2185   26.3453  -23.9118 H   0  0  0  0  0  0  0  0  0  0  0  0
    0.2093   27.8313  -23.9118 H   0  0  0  0  0  0  0  0  0  0  0  0
   -1.5970   26.0480  -23.2870 H   0  0  0  0  0  0  0  0  0  0  0  0
    0.4068   24.3691  -23.6457 H   0  0  0  0  0  0  0  0  0  0  0  0
   -1.3432   23.9685  -23.9194 H   0  0  0  0  0  0  0  0  0  0  0  0
    0.6175   24.9136  -26.0633 H   0  0  0  0  0  0  0  0  0  0  0  0
    0.0732   23.2106  -25.7936 H   0  0  0  0  0  0  0  0  0  0  0  0
   -3.1820   24.8193  -30.0576 H   0  0  0  0  0  0  0  0  0  0  0  0
   -4.2778   23.1036  -31.4929 H   0  0  0  0  0  0  0  0  0  0  0  0
   -4.5533   21.5721  -33.0920 H   0  0  0  0  0  0  0  0  0  0  0  0
   -3.0681   20.7201  -33.6474 H   0  0  0  0  0  0  0  0  0  0  0  0
   -3.2881   18.2086  -34.4447 H   0  0  0  0  0  0  0  0  0  0  0  0
   -5.8172   21.8492  -32.4662 H   0  0  0  0  0  0  0  0  0  0  0  0
   -7.5625   23.3197  -31.4583 H   0  0  0  0  0  0  0  0  0  0  0  0
   -9.8969   22.4811  -31.1792 H   0  0  0  0  0  0  0  0  0  0  0  0
  -10.4804   20.1544  -31.8690 H   0  0  0  0  0  0  0  0  0  0  0  0
   -8.7368   18.6719  -32.8654 H   0  0  0  0  0  0  0  0  0  0  0  0
   -1.5613   20.0976  -29.9715 H   0  0  0  0  0  0  0  0  0  0  0  0
   -0.4555   21.8151  -28.5490 H   0  0  0  0  0  0  0  0  0  0  0  0
   -2.6086   26.1822  -26.9928 H   0  0  0  0  0  0  0  0  0  0  0  0
   -3.0412   25.2616  -25.4851 H   0  0  0  0  0  0  0  0  0  0  0  0
   -0.6076   27.0686  -25.8518 H   0  0  0  0  0  0  0  0  0  0  0  0
   -2.1188   27.4534  -24.9259 H   0  0  0  0  0  0  0  0  0  0  0  0
  1  2  1  0
  2  3  1  0
  3  4  1  0
  4  5  1  0
  5  6  1  0
  6  7  2  0
  6  8  2  0
  6  9  1  0
  9 10  2  0
 10 11  1  0
 11 12  2  0
 12 13  1  0
 13 14  1  0
 14 15  1  0
 15 16  2  0
 16 17  1  0
 17 18  1  0
 18 19  2  0
 19 20  1  0
 20 21  2  0
 21 22  1  0
 22 23  2  0
 23 24  1  0
 24 25  2  0
 12 26  1  0
 26 27  2  0
  5 28  1  0
 28 29  1  0
 29  2  1  0
 27  9  1  0
 19 15  1  0
 25 20  1  0
  1 30  1  0
  1 31  1  0
  1 32  1  0
  2 33  1  0
  3 34  1  0
  3 35  1  0
  4 36  1  0
  4 37  1  0
 10 38  1  0
 11 39  1  0
 14 40  1  0
 14 41  1  0
 16 42  1  0
 21 43  1  0
 22 44  1  0
 23 45  1  0
 24 46  1  0
 25 47  1  0
 26 48  1  0
 27 49  1  0
 28 50  1  0
 28 51  1  0
 29 52  1  0
 29 53  1  0
M  CHG  1   2   1
M  END
>  <UniqueID>  (48) 
46

>  <SMILES>  (48) 
C[NH+]1CCN(S(=O)(=O)c2ccc(OCc3conc3-c3ccccc3)cc2)CC1

>  <Energy>  (48) 
98.28828677009966

>  <Genealogy>  (48) 
C[NH+]1CCN(S(=O)(=O)c2ccc(OCc3conc3-c3ccccc3)cc2)CC1 (protonated)
C[NH+]1CCN(S(=O)(=O)c2ccc(OCc3conc3-c3ccccc3)cc2)CC1 (3D coordinates assigned)
C[NH+]1CCN(S(=O)(=O)c2ccc(OCc3conc3-c3ccccc3)cc2)CC1 (nonaromatic ring conformer: 98.28828677009966 kcal/mol)

>  <smiles>  (48) 
CN1CCN(S(=O)(=O)c2ccc(OCc3conc3-c3ccccc3)cc2)CC1

>  <score_type>  (48) 
oracle

>  <origin>  (48) 
adgpu

>  <m_score__min__energy>  (48) 
-9.8300000000000001

>  <m_primary>  (48) 
energy

$$$$
48:0
     RDKit          3D

 41 43  0  0  0  0  0  0  0  0999 V2000
   -9.1756   21.0218  -32.2455 H   0  0  0  0  0  0  0  0  0  0  0  0
   -8.4610   20.1870  -32.2950 C   0  0  0  0  0  0  0  0  0  0  0  0
   -7.5900   20.1010  -33.3340 N   0  0  0  0  0  0  0  0  0  0  0  0
   -6.6950   19.0780  -33.4390 C   0  0  0  0  0  0  0  0  0  0  0  0
   -5.7330   19.0490  -34.5850 C   0  0  0  0  0  0  0  0  0  0  0  0
   -5.9271   19.9039  -35.2494 H   0  0  0  0  0  0  0  0  0  0  0  0
   -5.8596   18.1130  -35.1488 H   0  0  0  0  0  0  0  0  0  0  0  0
   -4.3690   19.1300  -34.0720 N   0  0  0  0  0  0  0  0  0  0  0  0
   -3.9230   20.0060  -33.2170 C   0  0  0  0  0  0  0  0  0  0  0  0
   -2.6180   19.9420  -32.8440 N   0  0  0  0  0  0  0  0  0  0  0  0
   -2.0890   20.8230  -31.9560 C   0  0  0  0  0  0  0  0  0  0  0  0
   -0.6420   20.7340  -31.5900 C   0  0  0  0  0  0  0  0  0  0  0  0
   -0.5405   20.7278  -30.4947 H   0  0  0  0  0  0  0  0  0  0  0  0
   -0.2156   19.8079  -32.0030 H   0  0  0  0  0  0  0  0  0  0  0  0
   -0.1053   21.6008  -32.0030 H   0  0  0  0  0  0  0  0  0  0  0  0
   -2.8940   21.8270  -31.4170 C   0  0  0  0  0  0  0  0  0  0  0  0
   -2.4781   22.5582  -30.7082 H   0  0  0  0  0  0  0  0  0  0  0  0
   -4.2420   21.8870  -31.7950 C   0  0  0  0  0  0  0  0  0  0  0  0
   -5.1260   22.9470  -31.2530 C   0  0  0  0  0  0  0  0  0  0  0  0
   -6.5190   22.7990  -31.3620 C   0  0  0  0  0  0  0  0  0  0  0  0
   -6.9362   21.8991  -31.8376 H   0  0  0  0  0  0  0  0  0  0  0  0
   -7.3780   23.7840  -30.8720 C   0  0  0  0  0  0  0  0  0  0  0  0
   -8.4670   23.6592  -30.9648 H   0  0  0  0  0  0  0  0  0  0  0  0
   -6.8570   24.9260  -30.2650 C   0  0  0  0  0  0  0  0  0  0  0  0
   -7.5358   25.7034  -29.8845 H   0  0  0  0  0  0  0  0  0  0  0  0
   -5.4760   25.0850  -30.1390 C   0  0  0  0  0  0  0  0  0  0  0  0
   -5.0719   25.9880  -29.6581 H   0  0  0  0  0  0  0  0  0  0  0  0
   -4.5950   24.0960  -30.6240 C   0  0  0  0  0  0  0  0  0  0  0  0
   -3.2030   24.2140  -30.4780 O   0  0  0  0  0  0  0  0  0  0  0  0
   -2.5060   24.1080  -29.2410 C   0  0  0  0  0  0  0  0  0  0  0  0
   -3.2173   24.2162  -28.4089 H   0  0  0  0  0  0  0  0  0  0  0  0
   -2.0162   23.1250  -29.1792 H   0  0  0  0  0  0  0  0  0  0  0  0
   -1.7461   24.9009  -29.1792 H   0  0  0  0  0  0  0  0  0  0  0  0
   -4.7300   20.9800  -32.6910 N   0  0  0  0  0  0  0  0  0  0  0  0
   -5.7370   21.0370  -32.9570 H   0  0  0  0  0  0  0  0  0  0  0  0
   -6.6480   18.0940  -32.4400 C   0  0  0  0  0  0  0  0  0  0  0  0
   -5.9182   17.2733  -32.5031 H   0  0  0  0  0  0  0  0  0  0  0  0
   -7.5360   18.1660  -31.3650 C   0  0  0  0  0  0  0  0  0  0  0  0
   -7.5148   17.3962  -30.5795 H   0  0  0  0  0  0  0  0  0  0  0  0
   -8.4510   19.2180  -31.2900 C   0  0  0  0  0  0  0  0  0  0  0  0
   -9.1562   19.2826  -30.4483 H   0  0  0  0  0  0  0  0  0  0  0  0
  1  2  1  0
  2  3  2  0
  3  4  1  0
  4  5  1  0
  5  6  1  0
  5  7  1  0
  5  8  1  0
  8  9  2  0
  9 10  1  0
 10 11  2  0
 11 12  1  0
 12 13  1  0
 12 14  1  0
 12 15  1  0
 11 16  1  0
 16 17  1  0
 16 18  2  0
 18 19  1  0
 19 20  2  0
 20 21  1  0
 20 22  1  0
 22 23  1  0
 22 24  2  0
 24 25  1  0
 24 26  1  0
 26 27  1  0
 26 28  2  0
 28 29  1  0
 29 30  1  0
 30 31  1  0
 30 32  1  0
 30 33  1  0
 18 34  1  0
 34 35  1  0
  4 36  2  0
 36 37  1  0
 36 38  1  0
 38 39  1  0
 38 40  2  0
 40 41  1  0
 40  2  1  0
 34  9  1  0
 28 19  1  0
M  END
>  <UniqueID>  (49) 
47

>  <SMILES>  (49) 
COc1ccccc1-c1cc(C)n/c(=N/Cc2ccccn2)[nH]1

>  <Energy>  (49) 
48.716915266659115

>  <Genealogy>  (49) 
COc1ccccc1-c1cc(C)n/c(=N/Cc2ccccn2)[nH]1 (cis-trans isomerization)
COc1ccccc1-c1cc(C)n/c(=N/Cc2ccccn2)[nH]1 (3D coordinates assigned)
COc1ccccc1-c1cc(C)n/c(=N/Cc2ccccn2)[nH]1 (optimized conformer: 48.716915266659115 kcal/mol)

>  <smiles>  (49) 
COc1ccccc1-c1cc(C)nc(=NCc2ccccn2)[nH]1

>  <score_type>  (49) 
oracle

>  <origin>  (49) 
adgpu

>  <m_score__min__energy>  (49) 
-7.5700000000000003

>  <m_primary>  (49) 
energy

$$$$
49:0
     RDKit          3D

 47 49  0  0  0  0  0  0  0  0999 V2000
   -1.3990   25.2010  -29.1320 O   0  0  0  0  0  0  0  0  0  0  0  0
   -2.6220   24.9240  -29.0200 C   0  0  0  0  0  0  0  0  0  0  0  0
   -3.1050   24.1500  -27.8570 C   0  0  0  0  0  0  0  0  0  0  0  0
   -2.8950   22.8400  -27.6590 C   0  0  0  0  0  0  0  0  0  0  0  0
   -2.0020   21.9870  -28.4700 C   0  0  0  0  0  0  0  0  0  0  0  0
   -2.4730   21.2670  -29.5810 C   0  0  0  0  0  0  0  0  0  0  0  0
   -1.5880   20.5110  -30.3500 C   0  0  0  0  0  0  0  0  0  0  0  0
   -0.2330   20.4960  -30.0160 C   0  0  0  0  0  0  0  0  0  0  0  0
    0.2140   21.2210  -28.9580 N   0  0  0  0  0  0  0  0  0  0  0  0
   -0.6270   21.9650  -28.1920 C   0  0  0  0  0  0  0  0  0  0  0  0
   -3.5110   25.2700  -30.0890 N   0  0  0  0  0  0  0  0  0  0  0  0
   -4.5930   24.4530  -30.5620 C   0  0  0  0  0  0  0  0  0  0  0  0
   -4.3400   23.2320  -31.2120 C   0  0  0  0  0  0  0  0  0  0  0  0
   -5.3960   22.4390  -31.6790 C   0  0  0  0  0  0  0  0  0  0  0  0
   -5.0570   20.9110  -32.4910 S   0  0  0  0  0  0  0  0  0  0  0  0
   -4.5420   19.9240  -31.4790 O   0  0  0  0  0  0  0  0  0  0  0  0
   -3.9620   21.1420  -33.4940 O   0  0  0  0  0  0  0  0  0  0  0  0
   -6.4400   20.2350  -33.3300 N   0  0  0  0  0  0  0  0  0  0  0  0
   -6.1050   19.2110  -34.3390 C   0  0  0  0  0  0  0  0  0  0  0  0
   -5.9770   17.8050  -33.7430 C   0  0  0  0  0  0  0  0  0  0  0  0
   -7.2410   17.4390  -32.9720 C   0  0  0  0  0  0  0  0  0  0  0  0
   -7.4970   18.4660  -31.8740 C   0  0  0  0  0  0  0  0  0  0  0  0
   -7.5740   19.8900  -32.4470 C   0  0  0  0  0  0  0  0  0  0  0  0
   -6.7170   22.8450  -31.4490 C   0  0  0  0  0  0  0  0  0  0  0  0
   -6.9760   24.0400  -30.7740 C   0  0  0  0  0  0  0  0  0  0  0  0
   -5.9230   24.8450  -30.3240 C   0  0  0  0  0  0  0  0  0  0  0  0
   -6.2220   26.0300  -29.6540 O   0  0  0  0  0  0  0  0  0  0  0  0
   -3.6826   24.6913  -27.0932 H   0  0  0  0  0  0  0  0  0  0  0  0
   -3.4309   22.3623  -26.8256 H   0  0  0  0  0  0  0  0  0  0  0  0
   -3.5405   21.2995  -29.8446 H   0  0  0  0  0  0  0  0  0  0  0  0
   -1.9544   19.9326  -31.2109 H   0  0  0  0  0  0  0  0  0  0  0  0
    0.4731   19.8969  -30.6097 H   0  0  0  0  0  0  0  0  0  0  0  0
   -0.2282   22.5518  -27.3514 H   0  0  0  0  0  0  0  0  0  0  0  0
   -3.3023   22.8962  -31.3552 H   0  0  0  0  0  0  0  0  0  0  0  0
   -6.8973   19.1979  -35.1020 H   0  0  0  0  0  0  0  0  0  0  0  0
   -5.1277   19.4777  -34.7677 H   0  0  0  0  0  0  0  0  0  0  0  0
   -5.8247   17.0791  -34.5554 H   0  0  0  0  0  0  0  0  0  0  0  0
   -5.1197   17.7855  -33.0540 H   0  0  0  0  0  0  0  0  0  0  0  0
   -8.0971   17.4226  -33.6625 H   0  0  0  0  0  0  0  0  0  0  0  0
   -7.1113   16.4466  -32.5156 H   0  0  0  0  0  0  0  0  0  0  0  0
   -8.4486   18.2283  -31.3761 H   0  0  0  0  0  0  0  0  0  0  0  0
   -6.6622   18.4246  -31.1589 H   0  0  0  0  0  0  0  0  0  0  0  0
   -8.5053   19.9823  -33.0250 H   0  0  0  0  0  0  0  0  0  0  0  0
   -7.5406   20.5832  -31.5936 H   0  0  0  0  0  0  0  0  0  0  0  0
   -7.5520   22.2213  -31.8008 H   0  0  0  0  0  0  0  0  0  0  0  0
   -8.0157   24.3510  -30.5946 H   0  0  0  0  0  0  0  0  0  0  0  0
   -5.5480   26.5020  -29.0610 H   0  0  0  0  0  0  0  0  0  0  0  0
  1  2  2  0
  2  3  1  0
  3  4  2  3
  4  5  1  0
  5  6  2  0
  6  7  1  0
  7  8  2  0
  8  9  1  0
  9 10  2  0
  2 11  1  0
 11 12  1  0
 12 13  2  0
 13 14  1  0
 14 15  1  0
 15 16  2  0
 15 17  2  0
 15 18  1  0
 18 19  1  0
 19 20  1  0
 20 21  1  0
 21 22  1  0
 22 23  1  0
 14 24  2  0
 24 25  1  0
 25 26  2  0
 26 27  1  0
 10  5  1  0
 26 12  1  0
 23 18  1  0
  3 28  1  0
  4 29  1  0
  6 30  1  0
  7 31  1  0
  8 32  1  0
 10 33  1  0
 13 34  1  0
 19 35  1  0
 19 36  1  0
 20 37  1  0
 20 38  1  0
 21 39  1  0
 21 40  1  0
 22 41  1  0
 22 42  1  0
 23 43  1  0
 23 44  1  0
 24 45  1  0
 25 46  1  0
 27 47  1  0
M  CHG  1  11  -1
M  END
>  <UniqueID>  (50) 
48

>  <SMILES>  (50) 
O=C(C=Cc1cccnc1)[N-]c1cc(S(=O)(=O)N2CCCCC2)ccc1O

>  <Energy>  (50) 
60.44318745889772

>  <Genealogy>  (50) 
O=C(C=Cc1cccnc1)[N-]c1cc(S(=O)(=O)N2CCCCC2)ccc1O (protonated)
O=C(C=Cc1cccnc1)[N-]c1cc(S(=O)(=O)N2CCCCC2)ccc1O (3D coordinates assigned)
O=C(C=Cc1cccnc1)[N-]c1cc(S(=O)(=O)N2CCCCC2)ccc1O (nonaromatic ring conformer: 60.44318745889772 kcal/mol)

>  <smiles>  (50) 
O=C(C=Cc1cccnc1)Nc1cc(S(=O)(=O)N2CCCCC2)ccc1O

>  <score_type>  (50) 
oracle

>  <origin>  (50) 
adgpu

>  <m_score__min__energy>  (50) 
-11.51

>  <m_primary>  (50) 
energy

$$$$
