0:0
     RDKit          3D

 43 45  0  0  0  0  0  0  0  0999 V2000
    1.2330   23.9510  -26.7880 C   0  0  0  0  0  0  0  0  0  0  0  0
   -0.0720   23.7100  -26.1720 N   0  0  0  0  0  0  0  0  0  0  0  0
   -0.4630   24.4730  -24.9870 C   0  0  0  0  0  0  0  0  0  0  0  0
   -1.0130   22.7900  -26.7550 C   0  0  0  0  0  0  0  0  0  0  0  0
   -1.0640   21.5150  -26.2850 N   0  0  0  0  0  0  0  0  0  0  0  0
   -1.9220   20.6030  -26.8030 C   0  0  0  0  0  0  0  0  0  0  0  0
   -2.7590   20.9540  -27.8110 N   0  0  0  0  0  0  0  0  0  0  0  0
   -2.7600   22.2110  -28.3280 C   0  0  0  0  0  0  0  0  0  0  0  0
   -3.6670   22.5190  -29.4040 N   0  0  0  0  0  0  0  0  0  0  0  0
   -4.6960   23.5580  -29.2450 C   0  0  0  0  0  0  0  0  0  0  0  0
   -6.0560   23.0430  -29.7350 C   0  0  0  0  0  0  0  0  0  0  0  0
   -5.9360   22.3110  -31.0050 N   0  0  0  0  0  0  0  0  0  0  0  0
   -7.0890   21.6400  -31.5480 C   0  0  0  0  0  0  0  0  0  0  0  0
   -6.9500   20.4010  -32.1980 C   0  0  0  0  0  0  0  0  0  0  0  0
   -8.0720   19.7440  -32.7130 C   0  0  0  0  0  0  0  0  0  0  0  0
   -9.3400   20.3160  -32.5830 C   0  0  0  0  0  0  0  0  0  0  0  0
   -9.4880   21.5450  -31.9360 C   0  0  0  0  0  0  0  0  0  0  0  0
   -8.3700   22.2040  -31.4170 C   0  0  0  0  0  0  0  0  0  0  0  0
   -4.6290   22.1990  -31.6630 C   0  0  0  0  0  0  0  0  0  0  0  0
   -3.5840   21.7370  -30.6460 C   0  0  0  0  0  0  0  0  0  0  0  0
   -1.8570   23.1670  -27.8200 C   0  0  0  0  0  0  0  0  0  0  0  0
   -1.7160   24.4610  -28.4500 C   0  0  0  0  0  0  0  0  0  0  0  0
   -1.6000   25.4960  -28.9540 N   0  0  0  0  0  0  0  0  0  0  0  0
    1.9894   24.0907  -26.0017 H   0  0  0  0  0  0  0  0  0  0  0  0
    1.5085   23.0885  -27.4127 H   0  0  0  0  0  0  0  0  0  0  0  0
    1.1823   24.8550  -27.4127 H   0  0  0  0  0  0  0  0  0  0  0  0
   -0.1778   23.9165  -24.0820 H   0  0  0  0  0  0  0  0  0  0  0  0
    0.0467   25.4478  -24.9939 H   0  0  0  0  0  0  0  0  0  0  0  0
   -1.5519   24.6286  -24.9939 H   0  0  0  0  0  0  0  0  0  0  0  0
   -1.9397   19.5774  -26.4058 H   0  0  0  0  0  0  0  0  0  0  0  0
   -4.7735   23.8318  -28.1825 H   0  0  0  0  0  0  0  0  0  0  0  0
   -4.4110   24.4369  -29.8419 H   0  0  0  0  0  0  0  0  0  0  0  0
   -6.4772   22.3696  -28.9740 H   0  0  0  0  0  0  0  0  0  0  0  0
   -6.7115   23.9107  -29.9004 H   0  0  0  0  0  0  0  0  0  0  0  0
   -5.9538   19.9462  -32.3020 H   0  0  0  0  0  0  0  0  0  0  0  0
   -7.9560   18.7754  -33.2212 H   0  0  0  0  0  0  0  0  0  0  0  0
  -10.2214   19.7987  -32.9900 H   0  0  0  0  0  0  0  0  0  0  0  0
  -10.4865   21.9952  -31.8347 H   0  0  0  0  0  0  0  0  0  0  0  0
   -8.4931   23.1689  -30.9034 H   0  0  0  0  0  0  0  0  0  0  0  0
   -4.6923   21.4673  -32.4819 H   0  0  0  0  0  0  0  0  0  0  0  0
   -4.3376   23.1790  -32.0687 H   0  0  0  0  0  0  0  0  0  0  0  0
   -3.7548   20.6755  -30.4135 H   0  0  0  0  0  0  0  0  0  0  0  0
   -2.5851   21.8832  -31.0829 H   0  0  0  0  0  0  0  0  0  0  0  0
  1  2  1  0
  2  3  1  0
  2  4  1  0
  4  5  2  0
  5  6  1  0
  6  7  2  0
  7  8  1  0
  8  9  1  0
  9 10  1  0
 10 11  1  0
 11 12  1  0
 12 13  1  0
 13 14  2  0
 14 15  1  0
 15 16  2  0
 16 17  1  0
 17 18  2  0
 12 19  1  0
 19 20  1  0
  8 21  2  0
 21 22  1  0
 22 23  3  0
 21  4  1  0
 20  9  1  0
 18 13  1  0
  1 24  1  0
  1 25  1  0
  1 26  1  0
  3 27  1  0
  3 28  1  0
  3 29  1  0
  6 30  1  0
 10 31  1  0
 10 32  1  0
 11 33  1  0
 11 34  1  0
 14 35  1  0
 15 36  1  0
 16 37  1  0
 17 38  1  0
 18 39  1  0
 19 40  1  0
 19 41  1  0
 20 42  1  0
 20 43  1  0
M  END
>  <UniqueID>  (1) 
1

>  <SMILES>  (1) 
CN(C)c1ncnc(N2CCN(c3ccccc3)CC2)c1C#N

>  <Energy>  (1) 
57.835859252829565

>  <Genealogy>  (1) 
CN(C)c1ncnc(N2CCN(c3ccccc3)CC2)c1C#N (3D coordinates assigned)
CN(C)c1ncnc(N2CCN(c3ccccc3)CC2)c1C#N (nonaromatic ring conformer: 57.835859252829565 kcal/mol)

>  <smiles>  (1) 
CN(C)c1ncnc(N2CCN(c3ccccc3)CC2)c1C#N

>  <score_type>  (1) 
oracle

>  <origin>  (1) 
adgpu

>  <m_score__min__energy>  (1) 
-7.1200000000000001

>  <m_primary>  (1) 
energy

$$$$
1:0
     RDKit          3D

 48 51  0  0  0  0  0  0  0  0999 V2000
    0.2560   24.7830  -28.5230 N   0  0  0  0  0  0  0  0  0  0  0  0
   -0.4570   25.1050  -27.4990 C   0  0  0  0  0  0  0  0  0  0  0  0
    0.1430   25.6490  -26.4330 N   0  0  0  0  0  0  0  0  0  0  0  0
   -0.4610   26.0290  -25.3070 C   0  0  0  0  0  0  0  0  0  0  0  0
   -1.8170   25.8370  -25.2560 N   0  0  0  0  0  0  0  0  0  0  0  0
   -2.4480   25.2940  -26.3050 C   0  0  0  0  0  0  0  0  0  0  0  0
   -4.2380   24.9050  -26.5560 S   0  0  0  0  0  0  0  0  0  0  0  0
   -3.9800   24.2530  -28.1980 C   0  0  0  0  0  0  0  0  0  0  0  0
   -5.0460   23.7230  -29.0540 C   0  0  0  0  0  0  0  0  0  0  0  0
   -5.4560   24.7240  -30.0940 C   0  0  0  0  0  0  0  0  0  0  0  0
   -6.8730   24.4880  -30.5840 C   0  0  0  0  0  0  0  0  0  0  0  0
   -6.9930   23.3020  -31.3460 N   0  0  0  0  0  0  0  0  0  0  0  0
   -7.8110   22.2630  -30.8540 C   0  0  0  0  0  0  0  0  0  0  0  0
   -7.9400   21.1870  -31.9410 C   0  0  0  0  0  0  0  0  0  0  0  0
   -6.6040   20.6730  -32.2680 N   0  0  0  0  0  0  0  0  0  0  0  0
   -6.4800   19.4360  -32.9230 C   0  0  0  0  0  0  0  0  0  0  0  0
   -7.0500   18.3090  -32.3800 C   0  0  0  0  0  0  0  0  0  0  0  0
   -6.9420   17.0630  -33.0100 C   0  0  0  0  0  0  0  0  0  0  0  0
   -6.2560   16.9160  -34.2050 C   0  0  0  0  0  0  0  0  0  0  0  0
   -5.6930   18.0580  -34.7300 C   0  0  0  0  0  0  0  0  0  0  0  0
   -5.7990   19.2990  -34.1090 C   0  0  0  0  0  0  0  0  0  0  0  0
   -5.4920   21.5160  -31.8770 C   0  0  0  0  0  0  0  0  0  0  0  0
   -5.9030   22.9540  -32.1870 C   0  0  0  0  0  0  0  0  0  0  0  0
   -2.6400   24.3690  -28.4250 C   0  0  0  0  0  0  0  0  0  0  0  0
   -1.8510   24.8890  -27.4880 C   0  0  0  0  0  0  0  0  0  0  0  0
    1.2720   24.9250  -28.5660 H   0  0  0  0  0  0  0  0  0  0  0  0
    1.1780   25.7920  -26.4850 H   0  0  0  0  0  0  0  0  0  0  0  0
    0.0964   26.4708  -24.4679 H   0  0  0  0  0  0  0  0  0  0  0  0
   -4.6845   22.8129  -29.5550 H   0  0  0  0  0  0  0  0  0  0  0  0
   -5.9191   23.4985  -28.4237 H   0  0  0  0  0  0  0  0  0  0  0  0
   -5.3939   25.7327  -29.6598 H   0  0  0  0  0  0  0  0  0  0  0  0
   -4.7776   24.6179  -30.9534 H   0  0  0  0  0  0  0  0  0  0  0  0
   -7.5402   24.4161  -29.7124 H   0  0  0  0  0  0  0  0  0  0  0  0
   -7.1463   25.3319  -31.2345 H   0  0  0  0  0  0  0  0  0  0  0  0
   -7.3550   21.8271  -29.9529 H   0  0  0  0  0  0  0  0  0  0  0  0
   -8.8047   22.6570  -30.5945 H   0  0  0  0  0  0  0  0  0  0  0  0
   -8.5712   20.3648  -31.5726 H   0  0  0  0  0  0  0  0  0  0  0  0
   -8.4006   21.6216  -32.8404 H   0  0  0  0  0  0  0  0  0  0  0  0
   -7.6019   18.3875  -31.4317 H   0  0  0  0  0  0  0  0  0  0  0  0
   -7.4115   16.1827  -32.5466 H   0  0  0  0  0  0  0  0  0  0  0  0
   -6.1661   15.9411  -34.7065 H   0  0  0  0  0  0  0  0  0  0  0  0
   -5.1379   17.9865  -35.6770 H   0  0  0  0  0  0  0  0  0  0  0  0
   -5.3323   20.1805  -34.5728 H   0  0  0  0  0  0  0  0  0  0  0  0
   -5.2898   21.4027  -30.8017 H   0  0  0  0  0  0  0  0  0  0  0  0
   -4.5757   21.2401  -32.4195 H   0  0  0  0  0  0  0  0  0  0  0  0
   -5.0570   23.6309  -31.9972 H   0  0  0  0  0  0  0  0  0  0  0  0
   -6.1983   23.0424  -33.2429 H   0  0  0  0  0  0  0  0  0  0  0  0
   -2.2122   24.0332  -29.3812 H   0  0  0  0  0  0  0  0  0  0  0  0
  1  2  2  3
  2  3  1  0
  3  4  1  0
  4  5  2  0
  5  6  1  0
  6  7  1  0
  7  8  1  0
  8  9  1  0
  9 10  1  0
 10 11  1  0
 11 12  1  0
 12 13  1  0
 13 14  1  0
 14 15  1  0
 15 16  1  0
 16 17  2  0
 17 18  1  0
 18 19  2  0
 19 20  1  0
 20 21  2  0
 15 22  1  0
 22 23  1  0
  8 24  2  0
 24 25  1  0
 25  2  1  0
 25  6  2  0
 23 12  1  0
 21 16  1  0
  1 26  1  0
  3 27  1  0
  4 28  1  0
  9 29  1  0
  9 30  1  0
 10 31  1  0
 10 32  1  0
 11 33  1  0
 11 34  1  0
 13 35  1  0
 13 36  1  0
 14 37  1  0
 14 38  1  0
 17 39  1  0
 18 40  1  0
 19 41  1  0
 20 42  1  0
 21 43  1  0
 22 44  1  0
 22 45  1  0
 23 46  1  0
 23 47  1  0
 24 48  1  0
M  END
>  <smiles>  (2) 
N=c1[nH]cnc2sc(CCCN3CCN(c4ccccc4)CC3)cc12

>  <score_type>  (2) 
oracle

>  <origin>  (2) 
adgpu

>  <m_score__min__energy>  (2) 
-8.6300000000000008

>  <m_primary>  (2) 
energy

$$$$
2:0
     RDKit          3D

 55 57  0  0  0  0  0  0  0  0999 V2000
   -2.8930   19.3540  -33.6120 C   0  0  0  0  0  0  0  0  0  0  0  0
   -2.3000   20.6320  -33.4080 O   0  0  0  0  0  0  0  0  0  0  0  0
   -1.9250   21.1410  -32.1550 C   0  0  0  0  0  0  0  0  0  0  0  0
   -0.8290   20.5610  -31.5050 C   0  0  0  0  0  0  0  0  0  0  0  0
   -0.4200   21.0270  -30.2530 C   0  0  0  0  0  0  0  0  0  0  0  0
   -1.1020   22.0800  -29.6400 C   0  0  0  0  0  0  0  0  0  0  0  0
   -2.1960   22.6810  -30.2800 C   0  0  0  0  0  0  0  0  0  0  0  0
   -2.9000   23.7570  -29.6390 N   0  0  0  0  0  0  0  0  0  0  0  0
   -2.4770   24.1670  -28.2970 C   0  0  0  0  0  0  0  0  0  0  0  0
   -3.9790   24.4310  -30.3240 C   0  0  0  0  0  0  0  0  0  0  0  0
   -3.8730   25.6570  -30.6040 O   0  0  0  0  0  0  0  0  0  0  0  0
   -5.2220   23.7250  -30.7050 C   0  0  0  0  0  0  0  0  0  0  0  0
   -5.8880   22.9190  -29.7690 C   0  0  0  0  0  0  0  0  0  0  0  0
   -7.0570   22.2390  -30.1250 C   0  0  0  0  0  0  0  0  0  0  0  0
   -7.5650   22.3440  -31.4250 C   0  0  0  0  0  0  0  0  0  0  0  0
   -9.0490   21.4950  -31.8530 S   0  0  0  0  0  0  0  0  0  0  0  0
   -9.8860   22.3970  -32.7180 O   0  0  0  0  0  0  0  0  0  0  0  0
   -9.8290   21.1640  -30.6100 O   0  0  0  0  0  0  0  0  0  0  0  0
   -8.6620   20.0280  -32.7210 N   0  0  1  0  0  0  0  0  0  0  0  0
   -7.3310   20.1350  -33.3810 C   0  0  0  0  0  0  0  0  0  0  0  0
   -6.2190   19.4220  -32.5990 C   0  0  0  0  0  0  0  0  0  0  0  0
   -6.5280   17.9140  -32.4530 C   0  0  1  0  0  0  0  0  0  0  0  0
   -5.7670   17.3280  -31.2560 C   0  0  0  0  0  0  0  0  0  0  0  0
   -8.0480   17.6380  -32.3440 C   0  0  0  0  0  0  0  0  0  0  0  0
   -8.8000   18.8640  -31.8110 C   0  0  0  0  0  0  0  0  0  0  0  0
   -6.8930   23.1330  -32.3690 C   0  0  0  0  0  0  0  0  0  0  0  0
   -5.7260   23.8140  -32.0140 C   0  0  0  0  0  0  0  0  0  0  0  0
   -2.6100   22.2030  -31.5340 C   0  0  0  0  0  0  0  0  0  0  0  0
   -3.1083   18.8900  -32.6382 H   0  0  0  0  0  0  0  0  0  0  0  0
   -3.8292   19.4703  -34.1777 H   0  0  0  0  0  0  0  0  0  0  0  0
   -2.1997   18.7142  -34.1777 H   0  0  0  0  0  0  0  0  0  0  0  0
   -0.2861   19.7325  -31.9834 H   0  0  0  0  0  0  0  0  0  0  0  0
    0.4410   20.5634  -29.7492 H   0  0  0  0  0  0  0  0  0  0  0  0
   -0.7802   22.4396  -28.6515 H   0  0  0  0  0  0  0  0  0  0  0  0
   -3.0531   23.6086  -27.5444 H   0  0  0  0  0  0  0  0  0  0  0  0
   -1.4051   23.9551  -28.1697 H   0  0  0  0  0  0  0  0  0  0  0  0
   -2.6553   25.2450  -28.1697 H   0  0  0  0  0  0  0  0  0  0  0  0
   -5.4881   22.8215  -28.7489 H   0  0  0  0  0  0  0  0  0  0  0  0
   -7.5790   21.6195  -29.3809 H   0  0  0  0  0  0  0  0  0  0  0  0
   -9.3840   19.9310  -33.4730 H   0  0  0  0  0  0  0  0  0  0  0  0
   -7.0689   21.1994  -33.4727 H   0  0  0  0  0  0  0  0  0  0  0  0
   -7.4091   19.6473  -34.3639 H   0  0  0  0  0  0  0  0  0  0  0  0
   -6.1371   19.8715  -31.5984 H   0  0  0  0  0  0  0  0  0  0  0  0
   -5.2734   19.5357  -33.1494 H   0  0  0  0  0  0  0  0  0  0  0  0
   -6.1820   17.4113  -33.3682 H   0  0  0  0  0  0  0  0  0  0  0  0
   -6.2261   17.6815  -30.3210 H   0  0  0  0  0  0  0  0  0  0  0  0
   -5.8127   16.2296  -31.2945 H   0  0  0  0  0  0  0  0  0  0  0  0
   -4.7168   17.6529  -31.2945 H   0  0  0  0  0  0  0  0  0  0  0  0
   -8.2105   16.7924  -31.6595 H   0  0  0  0  0  0  0  0  0  0  0  0
   -8.4315   17.4049  -33.3483 H   0  0  0  0  0  0  0  0  0  0  0  0
   -8.3927   19.1316  -30.8249 H   0  0  0  0  0  0  0  0  0  0  0  0
   -9.8674   18.6083  -31.7391 H   0  0  0  0  0  0  0  0  0  0  0  0
   -7.2860   23.2162  -33.3930 H   0  0  0  0  0  0  0  0  0  0  0  0
   -5.1987   24.4231  -32.7630 H   0  0  0  0  0  0  0  0  0  0  0  0
   -3.4755   22.6615  -32.0346 H   0  0  0  0  0  0  0  0  0  0  0  0
  1  2  1  0
  2  3  1  0
  3  4  2  0
  4  5  1  0
  5  6  2  0
  6  7  1  0
  7  8  1  0
  8  9  1  0
  8 10  1  0
 10 11  2  0
 10 12  1  0
 12 13  2  0
 13 14  1  0
 14 15  2  0
 15 16  1  0
 16 17  2  0
 16 18  2  0
 16 19  1  0
 19 20  1  0
 20 21  1  0
 21 22  1  0
 22 23  1  0
 22 24  1  0
 24 25  1  0
 15 26  1  0
 26 27  2  0
  7 28  2  0
 28  3  1  0
 27 12  1  0
 25 19  1  0
  1 29  1  0
  1 30  1  0
  1 31  1  0
  4 32  1  0
  5 33  1  0
  6 34  1  0
  9 35  1  0
  9 36  1  0
  9 37  1  0
 13 38  1  0
 14 39  1  0
 19 40  1  6
 20 41  1  0
 20 42  1  0
 21 43  1  0
 21 44  1  0
 22 45  1  6
 23 46  1  0
 23 47  1  0
 23 48  1  0
 24 49  1  0
 24 50  1  0
 25 51  1  0
 25 52  1  0
 26 53  1  0
 27 54  1  0
 28 55  1  0
M  CHG  1  19   1
M  END
>  <UniqueID>  (3) 
2

>  <SMILES>  (3) 
COc1cccc(N(C)C(=O)c2ccc(S(=O)(=O)[NH+]3CCC(C)CC3)cc2)c1

>  <Energy>  (3) 
70.47402588065643

>  <Genealogy>  (3) 
COc1cccc(N(C)C(=O)c2ccc(S(=O)(=O)[NH+]3CCC(C)CC3)cc2)c1 (protonated)
COc1cccc(N(C)C(=O)c2ccc(S(=O)(=O)[NH+]3CCC(C)CC3)cc2)c1 (3D coordinates assigned)
COc1cccc(N(C)C(=O)c2ccc(S(=O)(=O)[NH+]3CCC(C)CC3)cc2)c1 (nonaromatic ring conformer: 70.47402588065643 kcal/mol)

>  <smiles>  (3) 
COc1cccc(N(C)C(=O)c2ccc(S(=O)(=O)N3CCC(C)CC3)cc2)c1

>  <score_type>  (3) 
oracle

>  <origin>  (3) 
adgpu

>  <m_score__min__energy>  (3) 
-9.5299999999999994

>  <m_primary>  (3) 
energy

$$$$
3:0
     RDKit          3D

 54 57  0  0  0  0  0  0  0  0999 V2000
   -4.5999   17.8723  -35.4292 H   0  0  0  0  0  0  0  0  0  0  0  0
   -4.9190   18.3960  -34.5160 C   0  0  0  0  0  0  0  0  0  0  0  0
   -6.1980   18.8410  -34.4000 N   0  0  0  0  0  0  0  0  0  0  0  0
   -6.6440   19.4940  -33.2910 C   0  0  0  0  0  0  0  0  0  0  0  0
   -7.8920   19.8670  -33.2550 N   0  0  0  0  0  0  0  0  0  0  0  0
   -8.6940   20.6720  -31.9400 S   0  0  0  0  0  0  0  0  0  0  0  0
  -10.1030   21.0040  -32.3500 O   0  0  0  0  0  0  0  0  0  0  0  0
   -8.7350   19.7550  -30.7520 O   0  0  0  0  0  0  0  0  0  0  0  0
   -7.8040   22.1280  -31.5070 C   0  0  0  0  0  0  0  0  0  0  0  0
   -7.6020   22.4420  -30.1570 C   0  0  0  0  0  0  0  0  0  0  0  0
   -8.0651   21.8224  -29.3750 H   0  0  0  0  0  0  0  0  0  0  0  0
   -6.8140   23.5400  -29.8000 C   0  0  0  0  0  0  0  0  0  0  0  0
   -6.6680   23.7877  -28.7382 H   0  0  0  0  0  0  0  0  0  0  0  0
   -6.2080   24.3280  -30.7920 C   0  0  0  0  0  0  0  0  0  0  0  0
   -5.2930   25.4260  -30.4100 C   0  0  0  0  0  0  0  0  0  0  0  0
   -5.7720   26.5400  -30.0680 O   0  0  0  0  0  0  0  0  0  0  0  0
   -3.8670   25.2690  -30.4470 N   0  0  0  0  0  0  0  0  0  0  0  0
   -3.1490   24.0620  -30.1490 C   0  0  0  0  0  0  0  0  0  0  0  0
   -3.3960   22.8640  -30.8430 C   0  0  0  0  0  0  0  0  0  0  0  0
   -4.1767   22.8310  -31.6173 H   0  0  0  0  0  0  0  0  0  0  0  0
   -2.6550   21.7160  -30.5540 C   0  0  0  0  0  0  0  0  0  0  0  0
   -2.8415   20.7880  -31.1143 H   0  0  0  0  0  0  0  0  0  0  0  0
   -1.6740   21.7420  -29.5520 C   0  0  0  0  0  0  0  0  0  0  0  0
   -0.7050   20.3170  -29.1890 S   0  0  0  0  0  0  0  0  0  0  0  0
    0.5880   20.7550  -28.5630 O   0  0  0  0  0  0  0  0  0  0  0  0
   -1.4410   19.4340  -28.2210 O   0  0  0  0  0  0  0  0  0  0  0  0
   -0.3370   19.4190  -30.6270 N   0  0  0  0  0  0  0  0  0  0  0  0
   -0.0640   19.9870  -31.7600 C   0  0  0  0  0  0  0  0  0  0  0  0
   -0.0240   21.2840  -31.9590 O   0  0  0  0  0  0  0  0  0  0  0  0
    0.2490   21.5490  -33.2060 N   0  0  0  0  0  0  0  0  0  0  0  0
    0.3900   20.3650  -33.8400 C   0  0  0  0  0  0  0  0  0  0  0  0
    0.6580   20.2320  -35.3040 C   0  0  0  0  0  0  0  0  0  0  0  0
    1.6339   19.7477  -35.4556 H   0  0  0  0  0  0  0  0  0  0  0  0
   -0.1306   19.6207  -35.7671 H   0  0  0  0  0  0  0  0  0  0  0  0
    0.6679   21.2297  -35.7671 H   0  0  0  0  0  0  0  0  0  0  0  0
    0.2150   19.3320  -32.9370 C   0  0  0  0  0  0  0  0  0  0  0  0
    0.1730   17.8600  -33.2050 C   0  0  0  0  0  0  0  0  0  0  0  0
    0.1574   17.3138  -32.2503 H   0  0  0  0  0  0  0  0  0  0  0  0
   -0.7324   17.6178  -33.7808 H   0  0  0  0  0  0  0  0  0  0  0  0
    1.0631   17.5666  -33.7808 H   0  0  0  0  0  0  0  0  0  0  0  0
   -1.4580   22.9240  -28.8310 C   0  0  0  0  0  0  0  0  0  0  0  0
   -0.7032   22.9467  -28.0311 H   0  0  0  0  0  0  0  0  0  0  0  0
   -2.1970   24.0750  -29.1230 C   0  0  0  0  0  0  0  0  0  0  0  0
   -2.0292   24.9948  -28.5436 H   0  0  0  0  0  0  0  0  0  0  0  0
   -6.4570   24.0390  -32.1440 C   0  0  0  0  0  0  0  0  0  0  0  0
   -6.0277   24.6802  -32.9280 H   0  0  0  0  0  0  0  0  0  0  0  0
   -7.2460   22.9430  -32.4990 C   0  0  0  0  0  0  0  0  0  0  0  0
   -7.4295   22.7196  -33.5603 H   0  0  0  0  0  0  0  0  0  0  0  0
   -5.7450   19.7310  -32.2300 C   0  0  0  0  0  0  0  0  0  0  0  0
   -6.0794   20.2682  -31.3302 H   0  0  0  0  0  0  0  0  0  0  0  0
   -4.4280   19.2790  -32.3300 C   0  0  0  0  0  0  0  0  0  0  0  0
   -3.7206   19.4551  -31.5063 H   0  0  0  0  0  0  0  0  0  0  0  0
   -4.0110   18.6030  -33.4780 C   0  0  0  0  0  0  0  0  0  0  0  0
   -2.7060   18.1400  -33.5840 O   0  0  0  0  0  0  0  0  0  0  0  0
  1  2  1  0
  2  3  1  0
  3  4  1  0
  4  5  2  3
  5  6  1  0
  6  7  2  0
  6  8  2  0
  6  9  1  0
  9 10  2  0
 10 11  1  0
 10 12  1  0
 12 13  1  0
 12 14  2  0
 14 15  1  0
 15 16  2  0
 15 17  1  0
 17 18  1  0
 18 19  2  0
 19 20  1  0
 19 21  1  0
 21 22  1  0
 21 23  2  0
 23 24  1  0
 24 25  2  0
 24 26  2  0
 24 27  1  0
 27 28  2  0
 28 29  1  0
 29 30  1  0
 30 31  1  0
 31 32  1  0
 32 33  1  0
 32 34  1  0
 32 35  1  0
 31 36  2  0
 36 37  1  0
 37 38  1  0
 37 39  1  0
 37 40  1  0
 23 41  1  0
 41 42  1  0
 41 43  2  0
 43 44  1  0
 14 45  1  0
 45 46  1  0
 45 47  2  0
 47 48  1  0
  4 49  1  0
 49 50  1  0
 49 51  2  0
 51 52  1  0
 51 53  1  0
 53 54  1  0
 53  2  2  0
 47  9  1  0
 43 18  1  0
 36 28  1  0
M  CHG  4   3  -1  17  -1  30  -1  54  -1
M  END
>  <UniqueID>  (4) 
3

>  <SMILES>  (4) 
Cc1[n-]o/c(=N\S(=O)(=O)c2ccc([N-]C(=O)c3ccc(S(=O)(=O)N=c4ccc([O-])c[n-]4)cc3)cc2)c1C

>  <Energy>  (4) 
101.40347934930033

>  <Genealogy>  (4) 
Cc1[n-]oc(=NS(=O)(=O)c2ccc([N-]C(=O)c3ccc(S(=O)(=O)N=c4ccc([O-])c[n-]4)cc3)cc2)c1C (protonated)
Cc1[n-]o/c(=N\S(=O)(=O)c2ccc([N-]C(=O)c3ccc(S(=O)(=O)N=c4ccc([O-])c[n-]4)cc3)cc2)c1C (cis-trans isomerization)
Cc1[n-]o/c(=N\S(=O)(=O)c2ccc([N-]C(=O)c3ccc(S(=O)(=O)N=c4ccc([O-])c[n-]4)cc3)cc2)c1C (3D coordinates assigned)
Cc1[n-]o/c(=N\S(=O)(=O)c2ccc([N-]C(=O)c3ccc(S(=O)(=O)N=c4ccc([O-])c[n-]4)cc3)cc2)c1C (optimized conformer: 101.40347934930033 kcal/mol)

>  <smiles>  (4) 
Cc1[nH]oc(=NS(=O)(=O)c2ccc(NC(=O)c3ccc(S(=O)(=O)N=c4ccc(O)c[nH]4)cc3)cc2)c1C

>  <score_type>  (4) 
oracle

>  <origin>  (4) 
adgpu

>  <m_score__min__energy>  (4) 
-15.539999999999999

>  <m_primary>  (4) 
energy

$$$$
4:0
     RDKit          3D

 35 37  0  0  0  0  0  0  0  0999 V2000
   -1.2960   25.7920  -26.6630 C   0  0  0  0  0  0  0  0  0  0  0  0
   -0.7140   25.1030  -27.8930 C   0  0  0  0  0  0  0  0  0  0  0  0
   -1.5620   25.3190  -29.0650 N   0  0  0  0  0  0  0  0  0  0  0  0
   -2.7770   24.5780  -29.2540 C   0  0  0  0  0  0  0  0  0  0  0  0
   -3.2290   23.8630  -28.3220 O   0  0  0  0  0  0  0  0  0  0  0  0
   -3.5250   24.6870  -30.4700 N   0  0  0  0  0  0  0  0  0  0  0  0
   -4.8070   24.0960  -30.7260 C   0  0  0  0  0  0  0  0  0  0  0  0
   -6.0020   24.7830  -30.4530 C   0  0  0  0  0  0  0  0  0  0  0  0
   -7.2330   24.1910  -30.7420 C   0  0  0  0  0  0  0  0  0  0  0  0
   -7.2850   22.9200  -31.3180 C   0  0  0  0  0  0  0  0  0  0  0  0
   -6.0990   22.2300  -31.6230 C   0  0  0  0  0  0  0  0  0  0  0  0
   -6.1510   20.8880  -32.2470 C   0  0  0  0  0  0  0  0  0  0  0  0
   -5.4070   20.5490  -33.3350 N   0  0  0  0  0  0  0  0  0  0  0  0
   -5.7620   19.2750  -33.5500 C   0  0  0  0  0  0  0  0  0  0  0  0
   -5.3070   18.4180  -34.5500 C   0  0  0  0  0  0  0  0  0  0  0  0
   -5.8290   17.1110  -34.5770 C   0  0  0  0  0  0  0  0  0  0  0  0
   -6.7810   16.7010  -33.6160 C   0  0  0  0  0  0  0  0  0  0  0  0
   -7.2170   17.5970  -32.6200 C   0  0  0  0  0  0  0  0  0  0  0  0
   -6.6790   18.8810  -32.6250 C   0  0  0  0  0  0  0  0  0  0  0  0
   -6.9470   19.8870  -31.7810 N   0  0  0  0  0  0  0  0  0  0  0  0
   -4.8620   22.8330  -31.3300 C   0  0  0  0  0  0  0  0  0  0  0  0
   -0.8962   25.3187  -25.7541 H   0  0  0  0  0  0  0  0  0  0  0  0
   -1.0196   26.8567  -26.6739 H   0  0  0  0  0  0  0  0  0  0  0  0
   -2.3919   25.6975  -26.6739 H   0  0  0  0  0  0  0  0  0  0  0  0
    0.2877   25.5109  -28.0936 H   0  0  0  0  0  0  0  0  0  0  0  0
   -0.6575   24.0223  -27.6956 H   0  0  0  0  0  0  0  0  0  0  0  0
   -1.3000   26.0480  -29.7670 H   0  0  0  0  0  0  0  0  0  0  0  0
   -5.9675   25.7895  -30.0106 H   0  0  0  0  0  0  0  0  0  0  0  0
   -8.1658   24.7280  -30.5150 H   0  0  0  0  0  0  0  0  0  0  0  0
   -8.2589   22.4565  -31.5341 H   0  0  0  0  0  0  0  0  0  0  0  0
   -4.5663   18.7509  -35.2919 H   0  0  0  0  0  0  0  0  0  0  0  0
   -5.4940   16.4044  -35.3507 H   0  0  0  0  0  0  0  0  0  0  0  0
   -7.1833   15.6776  -33.6459 H   0  0  0  0  0  0  0  0  0  0  0  0
   -7.9566   17.2927  -31.8648 H   0  0  0  0  0  0  0  0  0  0  0  0
   -3.9281   22.3072  -31.5778 H   0  0  0  0  0  0  0  0  0  0  0  0
  1  2  1  0
  2  3  1  0
  3  4  1  0
  4  5  2  0
  4  6  1  0
  6  7  1  0
  7  8  2  0
  8  9  1  0
  9 10  2  0
 10 11  1  0
 11 12  1  0
 12 13  2  0
 13 14  1  0
 14 15  2  0
 15 16  1  0
 16 17  2  0
 17 18  1  0
 18 19  2  0
 19 20  1  0
 11 21  2  0
 21  7  1  0
 20 12  1  0
 19 14  1  0
  1 22  1  0
  1 23  1  0
  1 24  1  0
  2 25  1  0
  2 26  1  0
  3 27  1  0
  8 28  1  0
  9 29  1  0
 10 30  1  0
 15 31  1  0
 16 32  1  0
 17 33  1  0
 18 34  1  0
 21 35  1  0
M  CHG  2   6  -1  20  -1
M  END
>  <UniqueID>  (5) 
4

>  <SMILES>  (5) 
CCNC(=O)[N-]c1cccc(-c2nc3ccccc3[n-]2)c1

>  <Energy>  (5) 
71.77439368502664

>  <Genealogy>  (5) 
CCNC(=O)[N-]c1cccc(-c2nc3ccccc3[n-]2)c1 (protonated)
CCNC(=O)[N-]c1cccc(-c2nc3ccccc3[n-]2)c1 (3D coordinates assigned)
CCNC(=O)[N-]c1cccc(-c2nc3ccccc3[n-]2)c1 (optimized conformer: 71.77439368502664 kcal/mol)

>  <smiles>  (5) 
CCNC(=O)Nc1cccc(-c2nc3ccccc3[nH]2)c1

>  <score_type>  (5) 
oracle

>  <origin>  (5) 
adgpu

>  <m_score__min__energy>  (5) 
-9.7699999999999996

>  <m_primary>  (5) 
energy

$$$$
5:0
     RDKit          3D

 44 46  0  0  0  0  0  0  0  0999 V2000
   -8.8450   20.7830  -32.3980 C   0  0  0  0  0  0  0  0  0  0  0  0
   -7.9480   21.8270  -31.8020 C   0  0  0  0  0  0  0  0  0  0  0  0
   -7.2370   22.7090  -32.6300 C   0  0  0  0  0  0  0  0  0  0  0  0
   -6.4280   23.7020  -32.0720 C   0  0  0  0  0  0  0  0  0  0  0  0
   -6.3300   23.8310  -30.6800 C   0  0  0  0  0  0  0  0  0  0  0  0
   -5.2870   25.0700  -29.9890 S   0  0  0  0  0  0  0  0  0  0  0  0
   -5.3620   25.0540  -28.4880 O   0  0  0  0  0  0  0  0  0  0  0  0
   -5.7330   26.4160  -30.4860 O   0  0  0  0  0  0  0  0  0  0  0  0
   -3.6440   24.8000  -30.4760 N   0  0  0  0  0  0  0  0  0  0  0  0
   -2.9580   23.5430  -30.3970 C   0  0  0  0  0  0  0  0  0  0  0  0
   -2.2270   23.2500  -29.2390 C   0  0  0  0  0  0  0  0  0  0  0  0
   -1.5610   22.0290  -29.1120 C   0  0  0  0  0  0  0  0  0  0  0  0
   -1.6220   21.0870  -30.1410 C   0  0  0  0  0  0  0  0  0  0  0  0
   -2.3480   21.3660  -31.3070 C   0  0  0  0  0  0  0  0  0  0  0  0
   -2.4510   20.3640  -32.3780 C   0  0  0  0  0  0  0  0  0  0  0  0
   -1.7520   19.3200  -32.3130 O   0  0  0  0  0  0  0  0  0  0  0  0
   -3.2980   20.5660  -33.5170 N   0  0  0  0  0  0  0  0  0  0  0  0
   -4.7440   20.7720  -33.4590 C   0  0  0  0  0  0  0  0  0  0  0  0
   -5.4600   19.4680  -33.2220 C   0  0  0  0  0  0  0  0  0  0  0  0
   -5.8270   19.0730  -31.9270 C   0  0  0  0  0  0  0  0  0  0  0  0
   -6.5320   17.8830  -31.7330 C   0  0  0  0  0  0  0  0  0  0  0  0
   -6.8550   17.0930  -32.8370 C   0  0  0  0  0  0  0  0  0  0  0  0
   -6.4850   17.4830  -34.0860 N   0  0  0  0  0  0  0  0  0  0  0  0
   -5.8010   18.6390  -34.3010 C   0  0  0  0  0  0  0  0  0  0  0  0
   -3.0070   22.5960  -31.4370 C   0  0  0  0  0  0  0  0  0  0  0  0
   -7.0550   22.9670  -29.8510 C   0  0  0  0  0  0  0  0  0  0  0  0
   -7.8650   21.9720  -30.4080 C   0  0  0  0  0  0  0  0  0  0  0  0
   -9.3328   20.2152  -31.5920 H   0  0  0  0  0  0  0  0  0  0  0  0
   -9.6112   21.2694  -33.0195 H   0  0  0  0  0  0  0  0  0  0  0  0
   -8.2488   20.0988  -33.0195 H   0  0  0  0  0  0  0  0  0  0  0  0
   -7.3170   22.6182  -33.7233 H   0  0  0  0  0  0  0  0  0  0  0  0
   -5.8665   24.3844  -32.7270 H   0  0  0  0  0  0  0  0  0  0  0  0
   -2.1770   23.9867  -28.4237 H   0  0  0  0  0  0  0  0  0  0  0  0
   -0.9873   21.8089  -28.1996 H   0  0  0  0  0  0  0  0  0  0  0  0
   -1.0996   20.1247  -30.0363 H   0  0  0  0  0  0  0  0  0  0  0  0
   -4.9770   21.4660  -32.6379 H   0  0  0  0  0  0  0  0  0  0  0  0
   -5.0799   21.1897  -34.4196 H   0  0  0  0  0  0  0  0  0  0  0  0
   -5.5595   19.7006  -31.0641 H   0  0  0  0  0  0  0  0  0  0  0  0
   -6.8295   17.5718  -30.7207 H   0  0  0  0  0  0  0  0  0  0  0  0
   -7.4097   16.1535  -32.6967 H   0  0  0  0  0  0  0  0  0  0  0  0
   -5.5145   18.9245  -35.3239 H   0  0  0  0  0  0  0  0  0  0  0  0
   -3.5657   22.8226  -32.3571 H   0  0  0  0  0  0  0  0  0  0  0  0
   -6.9875   23.0709  -28.7580 H   0  0  0  0  0  0  0  0  0  0  0  0
   -8.4388   21.3010  -29.7518 H   0  0  0  0  0  0  0  0  0  0  0  0
  1  2  1  0
  2  3  2  0
  3  4  1  0
  4  5  2  0
  5  6  1  0
  6  7  2  0
  6  8  2  0
  6  9  1  0
  9 10  1  0
 10 11  2  0
 11 12  1  0
 12 13  2  0
 13 14  1  0
 14 15  1  0
 15 16  2  0
 15 17  1  0
 17 18  1  0
 18 19  1  0
 19 20  2  0
 20 21  1  0
 21 22  2  0
 22 23  1  0
 23 24  2  0
 14 25  2  0
  5 26  1  0
 26 27  2  0
 27  2  1  0
 25 10  1  0
 24 19  1  0
  1 28  1  0
  1 29  1  0
  1 30  1  0
  3 31  1  0
  4 32  1  0
 11 33  1  0
 12 34  1  0
 13 35  1  0
 18 36  1  0
 18 37  1  0
 20 38  1  0
 21 39  1  0
 22 40  1  0
 24 41  1  0
 25 42  1  0
 26 43  1  0
 27 44  1  0
M  CHG  2   9  -1  17  -1
M  END
>  <UniqueID>  (6) 
5

>  <SMILES>  (6) 
Cc1ccc(S(=O)(=O)[N-]c2cccc(C(=O)[N-]Cc3cccnc3)c2)cc1

>  <Energy>  (6) 
50.73710922298439

>  <Genealogy>  (6) 
Cc1ccc(S(=O)(=O)[N-]c2cccc(C(=O)[N-]Cc3cccnc3)c2)cc1 (protonated)
Cc1ccc(S(=O)(=O)[N-]c2cccc(C(=O)[N-]Cc3cccnc3)c2)cc1 (3D coordinates assigned)
Cc1ccc(S(=O)(=O)[N-]c2cccc(C(=O)[N-]Cc3cccnc3)c2)cc1 (optimized conformer: 50.73710922298439 kcal/mol)

>  <smiles>  (6) 
Cc1ccc(S(=O)(=O)Nc2cccc(C(=O)NCc3cccnc3)c2)cc1

>  <score_type>  (6) 
oracle

>  <origin>  (6) 
adgpu

>  <m_score__min__energy>  (6) 
-10.609999999999999

>  <m_primary>  (6) 
energy

$$$$
6:0
     RDKit          3D

 66 70  0  0  0  0  0  0  0  0999 V2000
   -0.8390   26.4390  -23.0410 C   0  0  0  0  0  0  0  0  0  0  0  0
   -0.5380   26.4990  -24.5090 C   0  0  0  0  0  0  0  0  0  0  0  0
   -0.6260   27.7190  -25.1970 C   0  0  0  0  0  0  0  0  0  0  0  0
   -0.3680   27.7780  -26.5740 C   0  0  0  0  0  0  0  0  0  0  0  0
   -0.4850   29.0810  -27.3090 C   0  0  0  0  0  0  0  0  0  0  0  0
   -0.0680   26.5990  -27.2720 C   0  0  0  0  0  0  0  0  0  0  0  0
   -0.0020   25.3740  -26.5980 C   0  0  0  0  0  0  0  0  0  0  0  0
    0.4030   23.9060  -27.4880 S   0  0  0  0  0  0  0  0  0  0  0  0
    1.6980   23.3780  -26.9340 O   0  0  0  0  0  0  0  0  0  0  0  0
    0.5920   24.2300  -28.9440 O   0  0  0  0  0  0  0  0  0  0  0  0
   -0.8740   22.6880  -27.3220 C   0  0  0  0  0  0  0  0  0  0  0  0
   -0.5180   21.3800  -26.9530 C   0  0  0  0  0  0  0  0  0  0  0  0
   -1.4820   20.3730  -26.8770 C   0  0  0  0  0  0  0  0  0  0  0  0
   -2.8150   20.6590  -27.1640 C   0  0  0  0  0  0  0  0  0  0  0  0
   -3.1910   21.9560  -27.5120 C   0  0  0  0  0  0  0  0  0  0  0  0
   -2.2360   22.9850  -27.5880 C   0  0  0  0  0  0  0  0  0  0  0  0
   -2.7000   24.3510  -27.9270 C   0  0  0  0  0  0  0  0  0  0  0  0
   -2.7420   25.2340  -27.0290 O   0  0  0  0  0  0  0  0  0  0  0  0
   -3.2040   24.6710  -29.2310 N   0  0  0  0  0  0  0  0  0  0  0  0
   -4.4270   24.1820  -29.8000 C   0  0  0  0  0  0  0  0  0  0  0  0
   -4.9830   24.7550  -30.9570 C   0  0  0  0  0  0  0  0  0  0  0  0
   -6.1670   24.2460  -31.4960 C   0  0  0  0  0  0  0  0  0  0  0  0
   -6.8190   23.1690  -30.8770 C   0  0  0  0  0  0  0  0  0  0  0  0
   -8.2830   22.4870  -31.5770 S   0  0  0  0  0  0  0  0  0  0  0  0
   -8.8540   23.4330  -32.5980 O   0  0  0  0  0  0  0  0  0  0  0  0
   -9.3170   22.2890  -30.5030 O   0  0  0  0  0  0  0  0  0  0  0  0
   -7.8900   20.9840  -32.3710 N   0  0  0  0  0  0  0  0  0  0  0  0
   -8.9810   20.0550  -32.6680 C   0  0  0  0  0  0  0  0  0  0  0  0
   -8.7020   18.7210  -31.9800 C   0  0  0  0  0  0  0  0  0  0  0  0
   -7.3860   18.1220  -32.4910 C   0  0  0  0  0  0  0  0  0  0  0  0
   -6.2650   19.1340  -32.5610 C   0  0  0  0  0  0  0  0  0  0  0  0
   -4.9490   18.6790  -32.7400 C   0  0  0  0  0  0  0  0  0  0  0  0
   -3.9040   19.5880  -32.9120 C   0  0  0  0  0  0  0  0  0  0  0  0
   -4.1660   20.9570  -32.9340 C   0  0  0  0  0  0  0  0  0  0  0  0
   -5.4710   21.4260  -32.7680 C   0  0  0  0  0  0  0  0  0  0  0  0
   -6.5320   20.5260  -32.5580 C   0  0  0  0  0  0  0  0  0  0  0  0
   -6.2820   22.6180  -29.7060 C   0  0  0  0  0  0  0  0  0  0  0  0
   -5.0970   23.1290  -29.1670 C   0  0  0  0  0  0  0  0  0  0  0  0
   -0.2350   25.3270  -25.2170 C   0  0  0  0  0  0  0  0  0  0  0  0
    0.0830   26.6228  -22.4699 H   0  0  0  0  0  0  0  0  0  0  0  0
   -1.5859   27.2059  -22.7882 H   0  0  0  0  0  0  0  0  0  0  0  0
   -1.2348   25.4443  -22.7882 H   0  0  0  0  0  0  0  0  0  0  0  0
   -0.8991   28.6349  -24.6525 H   0  0  0  0  0  0  0  0  0  0  0  0
   -0.5590   29.9053  -26.5844 H   0  0  0  0  0  0  0  0  0  0  0  0
    0.4037   29.2267  -27.9407 H   0  0  0  0  0  0  0  0  0  0  0  0
   -1.3854   29.0661  -27.9407 H   0  0  0  0  0  0  0  0  0  0  0  0
    0.1165   26.6373  -28.3557 H   0  0  0  0  0  0  0  0  0  0  0  0
    0.5317   21.1467  -26.7214 H   0  0  0  0  0  0  0  0  0  0  0  0
   -1.1887   19.3524  -26.5901 H   0  0  0  0  0  0  0  0  0  0  0  0
   -3.5711   19.8615  -27.1161 H   0  0  0  0  0  0  0  0  0  0  0  0
   -4.2465   22.1764  -27.7295 H   0  0  0  0  0  0  0  0  0  0  0  0
   -4.4836   25.6078  -31.4400 H   0  0  0  0  0  0  0  0  0  0  0  0
   -6.5895   24.6912  -32.4089 H   0  0  0  0  0  0  0  0  0  0  0  0
   -9.9296   20.4699  -32.2964 H   0  0  0  0  0  0  0  0  0  0  0  0
   -9.0533   19.9035  -33.7551 H   0  0  0  0  0  0  0  0  0  0  0  0
   -8.6300   18.8811  -30.8941 H   0  0  0  0  0  0  0  0  0  0  0  0
   -9.5229   18.0243  -32.2053 H   0  0  0  0  0  0  0  0  0  0  0  0
   -7.0837   17.3101  -31.8131 H   0  0  0  0  0  0  0  0  0  0  0  0
   -7.5650   17.7576  -33.5133 H   0  0  0  0  0  0  0  0  0  0  0  0
   -4.7401   17.5990  -32.7447 H   0  0  0  0  0  0  0  0  0  0  0  0
   -2.8728   19.2239  -33.0303 H   0  0  0  0  0  0  0  0  0  0  0  0
   -3.3420   21.6704  -33.0826 H   0  0  0  0  0  0  0  0  0  0  0  0
   -5.6709   22.5072  -32.8017 H   0  0  0  0  0  0  0  0  0  0  0  0
   -6.7941   21.7809  -29.2091 H   0  0  0  0  0  0  0  0  0  0  0  0
   -4.6890   22.7005  -28.2397 H   0  0  0  0  0  0  0  0  0  0  0  0
   -0.1799   24.3656  -24.6854 H   0  0  0  0  0  0  0  0  0  0  0  0
  1  2  1  0
  2  3  2  0
  3  4  1  0
  4  5  1  0
  4  6  2  0
  6  7  1  0
  7  8  1  0
  8  9  2  0
  8 10  2  0
  8 11  1  0
 11 12  2  0
 12 13  1  0
 13 14  2  0
 14 15  1  0
 15 16  2  0
 16 17  1  0
 17 18  2  0
 17 19  1  0
 19 20  1  0
 20 21  2  0
 21 22  1  0
 22 23  2  0
 23 24  1  0
 24 25  2  0
 24 26  2  0
 24 27  1  0
 27 28  1  0
 28 29  1  0
 29 30  1  0
 30 31  1  0
 31 32  2  0
 32 33  1  0
 33 34  2  0
 34 35  1  0
 35 36  2  0
 23 37  1  0
 37 38  2  0
  7 39  2  0
 39  2  1  0
 16 11  1  0
 38 20  1  0
 36 27  1  0
 36 31  1  0
  1 40  1  0
  1 41  1  0
  1 42  1  0
  3 43  1  0
  5 44  1  0
  5 45  1  0
  5 46  1  0
  6 47  1  0
 12 48  1  0
 13 49  1  0
 14 50  1  0
 15 51  1  0
 21 52  1  0
 22 53  1  0
 28 54  1  0
 28 55  1  0
 29 56  1  0
 29 57  1  0
 30 58  1  0
 30 59  1  0
 32 60  1  0
 33 61  1  0
 34 62  1  0
 35 63  1  0
 37 64  1  0
 38 65  1  0
 39 66  1  0
M  CHG  1  19  -1
M  END
>  <UniqueID>  (7) 
6

>  <SMILES>  (7) 
Cc1cc(C)cc(S(=O)(=O)c2ccccc2C(=O)[N-]c2ccc(S(=O)(=O)N3CCCc4ccccc43)cc2)c1

>  <Energy>  (7) 
86.98898682965645

>  <Genealogy>  (7) 
Cc1cc(C)cc(S(=O)(=O)c2ccccc2C(=O)[N-]c2ccc(S(=O)(=O)N3CCCc4ccccc43)cc2)c1 (protonated)
Cc1cc(C)cc(S(=O)(=O)c2ccccc2C(=O)[N-]c2ccc(S(=O)(=O)N3CCCc4ccccc43)cc2)c1 (3D coordinates assigned)
Cc1cc(C)cc(S(=O)(=O)c2ccccc2C(=O)[N-]c2ccc(S(=O)(=O)N3CCCc4ccccc43)cc2)c1 (nonaromatic ring conformer: 86.98898682965645 kcal/mol)

>  <smiles>  (7) 
Cc1cc(C)cc(S(=O)(=O)c2ccccc2C(=O)Nc2ccc(S(=O)(=O)N3CCCc4ccccc43)cc2)c1

>  <score_type>  (7) 
oracle

>  <origin>  (7) 
adgpu

>  <m_score__min__energy>  (7) 
-13.33

>  <m_primary>  (7) 
energy

$$$$
7:0
     RDKit          3D

 55 58  0  0  0  0  0  0  0  0999 V2000
   -6.0868   15.3223  -33.9385 H   0  0  0  0  0  0  0  0  0  0  0  0
   -6.0310   16.3790  -33.6380 C   0  0  0  0  0  0  0  0  0  0  0  0
   -4.8160   17.0620  -33.7250 C   0  0  0  0  0  0  0  0  0  0  0  0
   -3.9227   16.5447  -34.1050 H   0  0  0  0  0  0  0  0  0  0  0  0
   -4.7300   18.4110  -33.3280 C   0  0  0  0  0  0  0  0  0  0  0  0
   -3.5370   19.1530  -33.3570 O   0  0  0  0  0  0  0  0  0  0  0  0
   -3.4270   20.5770  -33.4170 C   0  0  0  0  0  0  0  0  0  0  0  0
   -3.1485   20.8790  -34.4374 H   0  0  0  0  0  0  0  0  0  0  0  0
   -4.3938   21.0273  -33.1477 H   0  0  0  0  0  0  0  0  0  0  0  0
   -2.3750   21.0480  -32.4530 C   0  0  0  0  0  0  0  0  0  0  0  0
   -1.0730   21.4410  -32.7110 C   0  0  0  0  0  0  0  0  0  0  0  0
   -0.4060   21.5120  -34.0440 C   0  0  0  0  0  0  0  0  0  0  0  0
    0.6791   21.6275  -33.9054 H   0  0  0  0  0  0  0  0  0  0  0  0
   -0.6076   20.5873  -34.6046 H   0  0  0  0  0  0  0  0  0  0  0  0
   -0.7978   22.3735  -34.6046 H   0  0  0  0  0  0  0  0  0  0  0  0
   -0.4990   21.8640  -31.5640 N   0  0  0  0  0  0  0  0  0  0  0  0
   -1.3890   21.7390  -30.6210 O   0  0  0  0  0  0  0  0  0  0  0  0
   -2.5210   21.2690  -31.0960 C   0  0  0  0  0  0  0  0  0  0  0  0
   -3.7520   21.0500  -30.2800 C   0  0  0  0  0  0  0  0  0  0  0  0
   -3.4963   21.0955  -29.2111 H   0  0  0  0  0  0  0  0  0  0  0  0
   -4.4907   21.8308  -30.5139 H   0  0  0  0  0  0  0  0  0  0  0  0
   -4.1760   20.0623  -30.5139 H   0  0  0  0  0  0  0  0  0  0  0  0
   -5.8900   19.0630  -32.8890 C   0  0  0  0  0  0  0  0  0  0  0  0
   -5.8403   20.1259  -32.6101 H   0  0  0  0  0  0  0  0  0  0  0  0
   -7.1170   18.3810  -32.7990 C   0  0  0  0  0  0  0  0  0  0  0  0
   -8.3290   19.0790  -32.3140 C   0  0  0  0  0  0  0  0  0  0  0  0
   -9.2420   18.4240  -31.7400 O   0  0  0  0  0  0  0  0  0  0  0  0
   -8.4960   20.4810  -32.5550 N   0  0  0  0  0  0  0  0  0  0  0  0
   -7.7140   21.5220  -31.9580 C   0  0  0  0  0  0  0  0  0  0  0  0
   -8.0250   22.0420  -30.6900 C   0  0  0  0  0  0  0  0  0  0  0  0
   -8.9086   21.6729  -30.1486 H   0  0  0  0  0  0  0  0  0  0  0  0
   -7.2160   23.0270  -30.1130 C   0  0  0  0  0  0  0  0  0  0  0  0
   -7.4627   23.4246  -29.1175 H   0  0  0  0  0  0  0  0  0  0  0  0
   -6.0950   23.5080  -30.7970 C   0  0  0  0  0  0  0  0  0  0  0  0
   -5.0660   24.7450  -30.0830 S   0  0  0  0  0  0  0  0  0  0  0  0
   -5.3490   26.0600  -30.7550 O   0  0  0  0  0  0  0  0  0  0  0  0
   -5.3610   24.8430  -28.6120 O   0  0  0  0  0  0  0  0  0  0  0  0
   -3.3990   24.3220  -30.3090 N   0  0  0  0  0  0  0  0  0  0  0  0
   -2.4820   24.4310  -29.3950 C   0  0  0  0  0  0  0  0  0  0  0  0
   -2.6470   24.8770  -28.0970 C   0  0  0  0  0  0  0  0  0  0  0  0
   -3.5672   25.2227  -27.6032 H   0  0  0  0  0  0  0  0  0  0  0  0
   -1.3720   24.7820  -27.5720 C   0  0  0  0  0  0  0  0  0  0  0  0
   -0.9710   25.1120  -26.1760 C   0  0  0  0  0  0  0  0  0  0  0  0
   -1.6228   24.5756  -25.4707 H   0  0  0  0  0  0  0  0  0  0  0  0
    0.0737   24.8086  -26.0131 H   0  0  0  0  0  0  0  0  0  0  0  0
   -1.0677   26.1956  -26.0131 H   0  0  0  0  0  0  0  0  0  0  0  0
   -0.5560   24.3180  -28.4910 O   0  0  0  0  0  0  0  0  0  0  0  0
   -1.1980   24.1020  -29.6000 N   0  0  0  0  0  0  0  0  0  0  0  0
   -0.7740   23.7330  -30.4780 H   0  0  0  0  0  0  0  0  0  0  0  0
   -5.7830   22.9880  -32.0640 C   0  0  0  0  0  0  0  0  0  0  0  0
   -4.9060   23.3655  -32.6102 H   0  0  0  0  0  0  0  0  0  0  0  0
   -6.5830   21.9920  -32.6340 C   0  0  0  0  0  0  0  0  0  0  0  0
   -6.3215   21.5764  -33.6183 H   0  0  0  0  0  0  0  0  0  0  0  0
   -7.1750   17.0290  -33.1720 C   0  0  0  0  0  0  0  0  0  0  0  0
   -8.1252   16.4799  -33.0968 H   0  0  0  0  0  0  0  0  0  0  0  0
  1  2  1  0
  2  3  2  0
  3  4  1  0
  3  5  1  0
  5  6  1  0
  6  7  1  0
  7  8  1  0
  7  9  1  0
  7 10  1  0
 10 11  1  0
 11 12  1  0
 12 13  1  0
 12 14  1  0
 12 15  1  0
 11 16  2  0
 16 17  1  0
 17 18  1  0
 18 19  1  0
 19 20  1  0
 19 21  1  0
 19 22  1  0
  5 23  2  0
 23 24  1  0
 23 25  1  0
 25 26  1  0
 26 27  2  0
 26 28  1  0
 28 29  1  0
 29 30  2  0
 30 31  1  0
 30 32  1  0
 32 33  1  0
 32 34  2  0
 34 35  1  0
 35 36  2  0
 35 37  2  0
 35 38  1  0
 38 39  2  0
 39 40  1  0
 40 41  1  0
 40 42  2  0
 42 43  1  0
 43 44  1  0
 43 45  1  0
 43 46  1  0
 42 47  1  0
 47 48  1  0
 48 49  1  0
 34 50  1  0
 50 51  1  0
 50 52  2  0
 52 53  1  0
 25 54  2  0
 54 55  1  0
 54  2  1  0
 18 10  2  0
 52 29  1  0
 48 39  1  0
M  CHG  1  28  -1
M  END
>  <UniqueID>  (8) 
7

>  <SMILES>  (8) 
Cc1c/c(=N\S(=O)(=O)c2ccc([N-]C(=O)c3cccc(OCc4c(C)noc4C)c3)cc2)[nH]o1

>  <Energy>  (8) 
130.54715771103648

>  <Genealogy>  (8) 
Cc1cc(=NS(=O)(=O)c2ccc([N-]C(=O)c3cccc(OCc4c(C)noc4C)c3)cc2)[nH]o1 (protonated)
Cc1c/c(=N\S(=O)(=O)c2ccc([N-]C(=O)c3cccc(OCc4c(C)noc4C)c3)cc2)[nH]o1 (cis-trans isomerization)
Cc1c/c(=N\S(=O)(=O)c2ccc([N-]C(=O)c3cccc(OCc4c(C)noc4C)c3)cc2)[nH]o1 (3D coordinates assigned)
Cc1c/c(=N\S(=O)(=O)c2ccc([N-]C(=O)c3cccc(OCc4c(C)noc4C)c3)cc2)[nH]o1 (optimized conformer: 130.54715771103648 kcal/mol)

>  <smiles>  (8) 
Cc1cc(=NS(=O)(=O)c2ccc(NC(=O)c3cccc(OCc4c(C)noc4C)c3)cc2)[nH]o1

>  <score_type>  (8) 
oracle

>  <origin>  (8) 
adgpu

>  <m_score__min__energy>  (8) 
-11.73

>  <m_primary>  (8) 
energy

$$$$
8:0
     RDKit          3D

 34 36  0  0  0  0  0  0  0  0999 V2000
   -4.5490   24.5520  -27.5280 N   0  0  0  0  0  0  0  0  0  0  0  0
   -3.1000   24.1260  -28.3680 S   0  0  0  0  0  0  0  0  0  0  0  0
   -2.3110   25.3700  -28.6680 O   0  0  0  0  0  0  0  0  0  0  0  0
   -2.2660   23.2230  -27.5050 O   0  0  0  0  0  0  0  0  0  0  0  0
   -3.5090   23.3030  -29.8700 C   0  0  0  0  0  0  0  0  0  0  0  0
   -2.6310   22.3590  -30.4170 C   0  0  0  0  0  0  0  0  0  0  0  0
   -2.9600   21.6920  -31.6010 C   0  0  0  0  0  0  0  0  0  0  0  0
   -4.1830   21.9530  -32.2480 C   0  0  0  0  0  0  0  0  0  0  0  0
   -4.5520   21.2790  -33.4650 N   0  0  0  0  0  0  0  0  0  0  0  0
   -5.0920   19.9480  -33.5080 C   0  0  0  0  0  0  0  0  0  0  0  0
   -4.3610   18.9470  -34.1570 C   0  0  0  0  0  0  0  0  0  0  0  0
   -4.8470   17.6380  -34.1850 C   0  0  0  0  0  0  0  0  0  0  0  0
   -4.1850   16.7310  -34.7540 O   0  0  0  0  0  0  0  0  0  0  0  0
   -6.0350   17.3390  -33.5990 N   0  0  0  0  0  0  0  0  0  0  0  0
   -6.7880   18.2860  -32.9810 C   0  0  0  0  0  0  0  0  0  0  0  0
   -8.0130   17.9300  -32.4050 C   0  0  0  0  0  0  0  0  0  0  0  0
   -8.8080   18.9000  -31.7890 C   0  0  0  0  0  0  0  0  0  0  0  0
   -8.3870   20.2330  -31.7540 C   0  0  0  0  0  0  0  0  0  0  0  0
   -9.4870   21.5560  -30.9250 Br  0  0  0  0  0  0  0  0  0  0  0  0
   -7.1650   20.6000  -32.3260 C   0  0  0  0  0  0  0  0  0  0  0  0
   -6.3420   19.6290  -32.9290 C   0  0  0  0  0  0  0  0  0  0  0  0
   -5.0560   22.9040  -31.6970 C   0  0  0  0  0  0  0  0  0  0  0  0
   -4.7240   23.5700  -30.5140 C   0  0  0  0  0  0  0  0  0  0  0  0
   -5.3470   24.1670  -28.0820 H   0  0  0  0  0  0  0  0  0  0  0  0
   -4.6290   25.5920  -27.5670 H   0  0  0  0  0  0  0  0  0  0  0  0
   -1.6780   22.1412  -29.9128 H   0  0  0  0  0  0  0  0  0  0  0  0
   -2.2598   20.9596  -32.0292 H   0  0  0  0  0  0  0  0  0  0  0  0
   -4.2920   21.7200  -34.3760 H   0  0  0  0  0  0  0  0  0  0  0  0
   -3.4053   19.1906  -34.6443 H   0  0  0  0  0  0  0  0  0  0  0  0
   -8.3508   16.8837  -32.4374 H   0  0  0  0  0  0  0  0  0  0  0  0
   -9.7665   18.6146  -31.3309 H   0  0  0  0  0  0  0  0  0  0  0  0
   -6.8449   21.6522  -32.3049 H   0  0  0  0  0  0  0  0  0  0  0  0
   -6.0085   23.1268  -32.2000 H   0  0  0  0  0  0  0  0  0  0  0  0
   -5.4198   24.3071  -30.0867 H   0  0  0  0  0  0  0  0  0  0  0  0
  1  2  1  0
  2  3  2  0
  2  4  2  0
  2  5  1  0
  5  6  2  0
  6  7  1  0
  7  8  2  0
  8  9  1  0
  9 10  1  0
 10 11  2  0
 11 12  1  0
 12 13  2  0
 12 14  1  0
 14 15  1  0
 15 16  2  0
 16 17  1  0
 17 18  2  0
 18 19  1  0
 18 20  1  0
 20 21  2  0
  8 22  1  0
 22 23  2  0
 23  5  1  0
 21 10  1  0
 21 15  1  0
  1 24  1  0
  1 25  1  0
  6 26  1  0
  7 27  1  0
  9 28  1  0
 11 29  1  0
 16 30  1  0
 17 31  1  0
 20 32  1  0
 22 33  1  0
 23 34  1  0
M  CHG  1  14  -1
M  END
>  <UniqueID>  (9) 
8

>  <SMILES>  (9) 
NS(=O)(=O)c1ccc(Nc2cc(=O)[n-]c3ccc(Br)cc23)cc1

>  <Energy>  (9) 
46.29403888692232

>  <Genealogy>  (9) 
NS(=O)(=O)c1ccc(Nc2cc(=O)[n-]c3ccc(Br)cc23)cc1 (protonated)
NS(=O)(=O)c1ccc(Nc2cc(=O)[n-]c3ccc(Br)cc23)cc1 (3D coordinates assigned)
NS(=O)(=O)c1ccc(Nc2cc(=O)[n-]c3ccc(Br)cc23)cc1 (optimized conformer: 46.29403888692232 kcal/mol)

>  <smiles>  (9) 
NS(=O)(=O)c1ccc(Nc2cc(=O)[nH]c3ccc(Br)cc23)cc1

>  <score_type>  (9) 
oracle

>  <origin>  (9) 
adgpu

>  <m_score__min__energy>  (9) 
-10.050000000000001

>  <m_primary>  (9) 
energy

$$$$
9:0
     RDKit          3D

 27 28  0  0  0  0  0  0  0  0999 V2000
   -0.1530   16.0000  -26.4570 H   0  0  0  0  0  0  0  0  0  0  0  0
    0.2670   16.2310  -27.3500 O   0  0  0  0  0  0  0  0  0  0  0  0
    0.9750   17.4150  -27.5390 C   0  0  0  0  0  0  0  0  0  0  0  0
    2.3450   17.4500  -27.2660 C   0  0  0  0  0  0  0  0  0  0  0  0
    2.8545   16.5469  -26.8990 H   0  0  0  0  0  0  0  0  0  0  0  0
    3.0690   18.6290  -27.4580 C   0  0  0  0  0  0  0  0  0  0  0  0
    4.4340   18.6520  -27.1990 O   0  0  0  0  0  0  0  0  0  0  0  0
    2.4240   19.7830  -27.9140 C   0  0  0  0  0  0  0  0  0  0  0  0
    3.0007   20.7068  -28.0692 H   0  0  0  0  0  0  0  0  0  0  0  0
    1.0380   19.7690  -28.1760 C   0  0  0  0  0  0  0  0  0  0  0  0
    0.3070   20.9610  -28.6730 C   0  0  0  0  0  0  0  0  0  0  0  0
    0.8722   21.7212  -29.2322 H   0  0  0  0  0  0  0  0  0  0  0  0
   -1.0060   21.1630  -28.4780 C   0  0  0  0  0  0  0  0  0  0  0  0
   -1.5707   20.4032  -27.9178 H   0  0  0  0  0  0  0  0  0  0  0  0
   -1.7380   22.3540  -28.9760 C   0  0  0  0  0  0  0  0  0  0  0  0
   -2.8890   22.1580  -29.7570 C   0  0  0  0  0  0  0  0  0  0  0  0
   -3.2296   21.1357  -29.9782 H   0  0  0  0  0  0  0  0  0  0  0  0
   -3.6060   23.2500  -30.2560 C   0  0  0  0  0  0  0  0  0  0  0  0
   -4.5099   23.0831  -30.8602 H   0  0  0  0  0  0  0  0  0  0  0  0
   -3.1770   24.5520  -29.9890 C   0  0  0  0  0  0  0  0  0  0  0  0
   -3.8960   25.6330  -30.4860 O   0  0  0  0  0  0  0  0  0  0  0  0
   -2.0230   24.7640  -29.2270 C   0  0  0  0  0  0  0  0  0  0  0  0
   -1.5840   26.0570  -28.9690 O   0  0  0  0  0  0  0  0  0  0  0  0
   -1.3030   23.6720  -28.7250 C   0  0  0  0  0  0  0  0  0  0  0  0
   -0.3929   23.8436  -28.1315 H   0  0  0  0  0  0  0  0  0  0  0  0
    0.3270   18.5710  -27.9970 C   0  0  0  0  0  0  0  0  0  0  0  0
   -0.7500   18.5393  -28.2185 H   0  0  0  0  0  0  0  0  0  0  0  0
  1  2  1  0
  2  3  1  0
  3  4  2  0
  4  5  1  0
  4  6  1  0
  6  7  1  0
  6  8  2  0
  8  9  1  0
  8 10  1  0
 10 11  1  0
 11 12  1  0
 11 13  2  0
 13 14  1  0
 13 15  1  0
 15 16  2  0
 16 17  1  0
 16 18  1  0
 18 19  1  0
 18 20  2  0
 20 21  1  0
 20 22  1  0
 22 23  1  0
 22 24  2  0
 24 25  1  0
 10 26  2  0
 26 27  1  0
 26  3  1  0
 24 15  1  0
M  CHG  3   7  -1  21  -1  23  -1
M  END
>  <UniqueID>  (10) 
9

>  <SMILES>  (10) 
[O-]c1cc(O)cc(/C=C/c2ccc([O-])c([O-])c2)c1

>  <Energy>  (10) 
33.115628639551296

>  <Genealogy>  (10) 
[O-]c1cc(O)cc(C=Cc2ccc([O-])c([O-])c2)c1 (protonated)
[O-]c1cc(O)cc(/C=C/c2ccc([O-])c([O-])c2)c1 (cis-trans isomerization)
[O-]c1cc(O)cc(/C=C/c2ccc([O-])c([O-])c2)c1 (3D coordinates assigned)
[O-]c1cc(O)cc(/C=C/c2ccc([O-])c([O-])c2)c1 (optimized conformer: 33.115628639551296 kcal/mol)

>  <smiles>  (10) 
Oc1cc(O)cc(C=Cc2ccc(O)c(O)c2)c1

>  <score_type>  (10) 
oracle

>  <origin>  (10) 
adgpu

>  <m_score__min__energy>  (10) 
-11.84

>  <m_primary>  (10) 
energy

$$$$
10:0
     RDKit          3D

 47 49  0  0  0  0  0  0  0  0999 V2000
   -0.8600   26.7910  -27.9020 C   0  0  0  0  0  0  0  0  0  0  0  0
   -1.4600   26.0420  -28.9540 O   0  0  0  0  0  0  0  0  0  0  0  0
   -1.6240   24.6490  -28.9440 C   0  0  0  0  0  0  0  0  0  0  0  0
   -0.7940   23.8050  -28.1760 C   0  0  0  0  0  0  0  0  0  0  0  0
   -0.9860   22.4230  -28.1940 C   0  0  0  0  0  0  0  0  0  0  0  0
   -2.0020   21.8670  -28.9680 C   0  0  0  0  0  0  0  0  0  0  0  0
   -2.8320   22.6910  -29.7300 C   0  0  0  0  0  0  0  0  0  0  0  0
   -2.6530   24.0870  -29.7200 C   0  0  0  0  0  0  0  0  0  0  0  0
   -3.5040   24.9590  -30.4770 N   0  0  0  0  0  0  0  0  0  0  0  0
   -5.2330   24.9980  -30.3490 S   0  0  0  0  0  0  0  0  0  0  0  0
   -5.6310   24.8380  -28.9090 O   0  0  0  0  0  0  0  0  0  0  0  0
   -5.7410   26.3170  -30.8580 O   0  0  0  0  0  0  0  0  0  0  0  0
   -5.8960   23.6590  -31.2770 C   0  0  0  0  0  0  0  0  0  0  0  0
   -5.0730   22.8700  -32.0930 C   0  0  0  0  0  0  0  0  0  0  0  0
   -5.5910   21.7280  -32.7150 C   0  0  0  0  0  0  0  0  0  0  0  0
   -6.9270   21.3590  -32.5170 C   0  0  0  0  0  0  0  0  0  0  0  0
   -7.3970   20.1270  -33.0790 N   0  0  0  0  0  0  0  0  0  0  0  0
   -6.9170   18.5610  -32.5120 S   0  0  0  0  0  0  0  0  0  0  0  0
   -7.9560   17.5470  -32.9040 O   0  0  0  0  0  0  0  0  0  0  0  0
   -6.8010   18.5840  -31.0140 O   0  0  0  0  0  0  0  0  0  0  0  0
   -5.3810   18.1210  -33.2580 C   0  0  0  0  0  0  0  0  0  0  0  0
   -4.1870   18.7480  -32.8680 C   0  0  0  0  0  0  0  0  0  0  0  0
   -2.9840   18.4360  -33.5100 C   0  0  0  0  0  0  0  0  0  0  0  0
   -2.9650   17.4990  -34.5550 C   0  0  0  0  0  0  0  0  0  0  0  0
   -1.6640   17.1360  -35.2080 C   0  0  0  0  0  0  0  0  0  0  0  0
   -4.1540   16.8570  -34.9270 C   0  0  0  0  0  0  0  0  0  0  0  0
   -5.3580   17.1730  -34.2880 C   0  0  0  0  0  0  0  0  0  0  0  0
   -7.7610   22.1860  -31.7430 C   0  0  0  0  0  0  0  0  0  0  0  0
   -7.2450   23.3250  -31.1250 C   0  0  0  0  0  0  0  0  0  0  0  0
   -1.1845   26.3859  -26.9322 H   0  0  0  0  0  0  0  0  0  0  0  0
    0.2350   26.7213  -27.9806 H   0  0  0  0  0  0  0  0  0  0  0  0
   -1.1670   27.8444  -27.9806 H   0  0  0  0  0  0  0  0  0  0  0  0
    0.0080   24.2384  -27.5604 H   0  0  0  0  0  0  0  0  0  0  0  0
   -0.3332   21.7708  -27.5953 H   0  0  0  0  0  0  0  0  0  0  0  0
   -2.1504   20.7771  -28.9787 H   0  0  0  0  0  0  0  0  0  0  0  0
   -3.6308   22.2466  -30.3420 H   0  0  0  0  0  0  0  0  0  0  0  0
   -4.0197   23.1485  -32.2445 H   0  0  0  0  0  0  0  0  0  0  0  0
   -4.9450   21.1172  -33.3628 H   0  0  0  0  0  0  0  0  0  0  0  0
   -4.1975   19.4878  -32.0540 H   0  0  0  0  0  0  0  0  0  0  0  0
   -2.0508   18.9260  -33.1952 H   0  0  0  0  0  0  0  0  0  0  0  0
   -0.9112   16.9260  -34.4339 H   0  0  0  0  0  0  0  0  0  0  0  0
   -1.8048   16.2428  -35.8344 H   0  0  0  0  0  0  0  0  0  0  0  0
   -1.3221   17.9730  -35.8344 H   0  0  0  0  0  0  0  0  0  0  0  0
   -4.1406   16.1006  -35.7256 H   0  0  0  0  0  0  0  0  0  0  0  0
   -6.2893   16.6751  -34.5958 H   0  0  0  0  0  0  0  0  0  0  0  0
   -8.8250   21.9333  -31.6246 H   0  0  0  0  0  0  0  0  0  0  0  0
   -7.9021   23.9629  -30.5156 H   0  0  0  0  0  0  0  0  0  0  0  0
  1  2  1  0
  2  3  1  0
  3  4  2  0
  4  5  1  0
  5  6  2  0
  6  7  1  0
  7  8  2  0
  8  9  1  0
  9 10  1  0
 10 11  2  0
 10 12  2  0
 10 13  1  0
 13 14  2  0
 14 15  1  0
 15 16  2  0
 16 17  1  0
 17 18  1  0
 18 19  2  0
 18 20  2  0
 18 21  1  0
 21 22  2  0
 22 23  1  0
 23 24  2  0
 24 25  1  0
 24 26  1  0
 26 27  2  0
 16 28  1  0
 28 29  2  0
  8  3  1  0
 29 13  1  0
 27 21  1  0
  1 30  1  0
  1 31  1  0
  1 32  1  0
  4 33  1  0
  5 34  1  0
  6 35  1  0
  7 36  1  0
 14 37  1  0
 15 38  1  0
 22 39  1  0
 23 40  1  0
 25 41  1  0
 25 42  1  0
 25 43  1  0
 26 44  1  0
 27 45  1  0
 28 46  1  0
 29 47  1  0
M  CHG  2   9  -1  17  -1
M  END
>  <UniqueID>  (11) 
10

>  <SMILES>  (11) 
COc1ccccc1[N-]S(=O)(=O)c1ccc([N-]S(=O)(=O)c2ccc(C)cc2)cc1

>  <Energy>  (11) 
52.91432174757985

>  <Genealogy>  (11) 
COc1ccccc1[N-]S(=O)(=O)c1ccc([N-]S(=O)(=O)c2ccc(C)cc2)cc1 (protonated)
COc1ccccc1[N-]S(=O)(=O)c1ccc([N-]S(=O)(=O)c2ccc(C)cc2)cc1 (3D coordinates assigned)
COc1ccccc1[N-]S(=O)(=O)c1ccc([N-]S(=O)(=O)c2ccc(C)cc2)cc1 (optimized conformer: 52.91432174757985 kcal/mol)

>  <smiles>  (11) 
COc1ccccc1NS(=O)(=O)c1ccc(NS(=O)(=O)c2ccc(C)cc2)cc1

>  <score_type>  (11) 
oracle

>  <origin>  (11) 
adgpu

>  <m_score__min__energy>  (11) 
-11.4

>  <m_primary>  (11) 
energy

$$$$
11:0
     RDKit          3D

 55 58  0  0  0  0  0  0  0  0999 V2000
   -2.4850   23.4360  -28.9090 C   0  0  0  0  0  0  0  0  0  0  0  0
   -3.5720   24.0790  -29.7000 C   0  0  0  0  0  0  0  0  0  0  0  0
   -4.7720   23.5000  -30.0550 C   0  0  0  0  0  0  0  0  0  0  0  0
   -5.3910   24.5020  -30.7810 C   0  0  0  0  0  0  0  0  0  0  0  0
   -6.5620   24.4460  -31.3420 N   0  0  0  0  0  0  0  0  0  0  0  0
   -7.6080   23.0630  -31.2870 S   0  0  0  0  0  0  0  0  0  0  0  0
   -7.8420   22.6490  -29.8610 O   0  0  0  0  0  0  0  0  0  0  0  0
   -8.9230   23.4000  -31.9310 O   0  0  0  0  0  0  0  0  0  0  0  0
   -6.8340   21.7360  -32.1470 C   0  0  0  0  0  0  0  0  0  0  0  0
   -5.5380   21.8700  -32.6600 C   0  0  0  0  0  0  0  0  0  0  0  0
   -4.9310   20.8030  -33.3300 C   0  0  0  0  0  0  0  0  0  0  0  0
   -5.6150   19.5830  -33.4960 C   0  0  0  0  0  0  0  0  0  0  0  0
   -5.0210   18.4640  -34.1800 N   0  0  0  0  0  0  0  0  0  0  0  0
   -4.3060   17.3880  -33.4910 C   0  0  0  0  0  0  0  0  0  0  0  0
   -3.1210   16.9280  -34.3070 C   0  0  0  0  0  0  0  0  0  0  0  0
   -3.2280   15.7320  -35.0340 C   0  0  0  0  0  0  0  0  0  0  0  0
   -2.1520   15.2620  -35.7820 C   0  0  0  0  0  0  0  0  0  0  0  0
   -0.9610   15.9840  -35.8280 C   0  0  0  0  0  0  0  0  0  0  0  0
   -0.8330   17.2030  -35.1410 C   0  0  0  0  0  0  0  0  0  0  0  0
    0.4090   17.9260  -35.2330 N   0  0  0  0  0  0  0  0  0  0  0  0
    0.6600   18.6400  -36.2240 O   0  0  0  0  0  0  0  0  0  0  0  0
    1.4010   17.7110  -34.3040 O   0  0  0  0  0  0  0  0  0  0  0  0
   -1.9260   17.6860  -34.3770 C   0  0  0  0  0  0  0  0  0  0  0  0
   -1.8090   18.8980  -33.6110 N   0  0  0  0  0  0  0  0  0  0  0  0
   -2.0040   20.2000  -34.2510 C   0  0  0  0  0  0  0  0  0  0  0  0
   -1.0290   21.2160  -33.6480 C   0  0  0  0  0  0  0  0  0  0  0  0
   -1.1120   21.2190  -32.2340 O   0  0  0  0  0  0  0  0  0  0  0  0
   -0.6880   19.9680  -31.7230 C   0  0  0  0  0  0  0  0  0  0  0  0
   -1.6430   18.8540  -32.1570 C   0  0  0  0  0  0  0  0  0  0  0  0
   -6.9140   19.4580  -32.9770 C   0  0  0  0  0  0  0  0  0  0  0  0
   -7.5190   20.5250  -32.3070 C   0  0  0  0  0  0  0  0  0  0  0  0
   -4.6030   25.5900  -30.8470 N   0  0  0  0  0  0  0  0  0  0  0  0
   -3.5180   25.2990  -30.1880 O   0  0  0  0  0  0  0  0  0  0  0  0
   -2.6913   23.5581  -27.8354 H   0  0  0  0  0  0  0  0  0  0  0  0
   -2.4379   22.3646  -29.1538 H   0  0  0  0  0  0  0  0  0  0  0  0
   -1.5234   23.9107  -29.1538 H   0  0  0  0  0  0  0  0  0  0  0  0
   -5.1445   22.4921  -29.8196 H   0  0  0  0  0  0  0  0  0  0  0  0
   -4.9950   22.8185  -32.5355 H   0  0  0  0  0  0  0  0  0  0  0  0
   -3.9127   20.9173  -33.7300 H   0  0  0  0  0  0  0  0  0  0  0  0
   -5.1020   18.4270  -35.2220 H   0  0  0  0  0  0  0  0  0  0  0  0
   -3.9527   17.7553  -32.5162 H   0  0  0  0  0  0  0  0  0  0  0  0
   -4.9917   16.5391  -33.3526 H   0  0  0  0  0  0  0  0  0  0  0  0
   -4.1686   15.1621  -35.0125 H   0  0  0  0  0  0  0  0  0  0  0  0
   -2.2423   14.3175  -36.3386 H   0  0  0  0  0  0  0  0  0  0  0  0
   -0.1115   15.5952  -36.4087 H   0  0  0  0  0  0  0  0  0  0  0  0
   -1.8175   20.1093  -35.3313 H   0  0  0  0  0  0  0  0  0  0  0  0
   -3.0370   20.5395  -34.0847 H   0  0  0  0  0  0  0  0  0  0  0  0
   -0.0039   20.9531  -33.9480 H   0  0  0  0  0  0  0  0  0  0  0  0
   -1.2927   22.2180  -34.0175 H   0  0  0  0  0  0  0  0  0  0  0  0
    0.3208   19.7466  -32.1016 H   0  0  0  0  0  0  0  0  0  0  0  0
   -0.6808   20.0192  -30.6242 H   0  0  0  0  0  0  0  0  0  0  0  0
   -1.2272   17.8787  -31.8640 H   0  0  0  0  0  0  0  0  0  0  0  0
   -2.6193   18.9952  -31.6703 H   0  0  0  0  0  0  0  0  0  0  0  0
   -7.4605   18.5112  -33.0990 H   0  0  0  0  0  0  0  0  0  0  0  0
   -8.5364   20.4132  -31.9041 H   0  0  0  0  0  0  0  0  0  0  0  0
  1  2  1  0
  2  3  2  0
  3  4  1  0
  4  5  2  3
  5  6  1  0
  6  7  2  0
  6  8  2  0
  6  9  1  0
  9 10  2  0
 10 11  1  0
 11 12  2  0
 12 13  1  0
 13 14  1  0
 14 15  1  0
 15 16  2  0
 16 17  1  0
 17 18  2  0
 18 19  1  0
 19 20  1  0
 20 21  2  0
 20 22  1  0
 19 23  2  0
 23 24  1  0
 24 25  1  0
 25 26  1  0
 26 27  1  0
 27 28  1  0
 28 29  1  0
 12 30  1  0
 30 31  2  0
  4 32  1  0
 32 33  1  0
 33  2  1  0
 31  9  1  0
 23 15  1  0
 29 24  1  0
  1 34  1  0
  1 35  1  0
  1 36  1  0
  3 37  1  0
 10 38  1  0
 11 39  1  0
 13 40  1  0
 14 41  1  0
 14 42  1  0
 16 43  1  0
 17 44  1  0
 18 45  1  0
 25 46  1  0
 25 47  1  0
 26 48  1  0
 26 49  1  0
 28 50  1  0
 28 51  1  0
 29 52  1  0
 29 53  1  0
 30 54  1  0
 31 55  1  0
M  CHG  3  20   1  22  -1  32  -1
M  END
>  <UniqueID>  (12) 
11

>  <SMILES>  (12) 
Cc1cc(=NS(=O)(=O)c2ccc(NCc3cccc([N+](=O)[O-])c3N3CCOCC3)cc2)[n-]o1

>  <Energy>  (12) 
101.80276109809533

>  <Genealogy>  (12) 
Cc1cc(=NS(=O)(=O)c2ccc(NCc3cccc([N+](=O)[O-])c3N3CCOCC3)cc2)[n-]o1 (protonated)
Cc1cc(=NS(=O)(=O)c2ccc(NCc3cccc([N+](=O)[O-])c3N3CCOCC3)cc2)[n-]o1 (3D coordinates assigned)
Cc1cc(=NS(=O)(=O)c2ccc(NCc3cccc([N+](=O)[O-])c3N3CCOCC3)cc2)[n-]o1 (nonaromatic ring conformer: 101.80276109809533 kcal/mol)

>  <smiles>  (12) 
Cc1cc(=NS(=O)(=O)c2ccc(NCc3cccc([N+](=O)[O-])c3N3CCOCC3)cc2)[nH]o1

>  <score_type>  (12) 
oracle

>  <origin>  (12) 
adgpu

>  <m_score__min__energy>  (12) 
-10.25

>  <m_primary>  (12) 
energy

$$$$
12:0
     RDKit          3D

 43 45  0  0  0  0  0  0  0  0999 V2000
   -9.2090   21.8470  -30.9560 C   0  0  0  0  0  0  0  0  0  0  0  0
   -8.5840   20.8180  -31.8440 C   0  0  0  0  0  0  0  0  0  0  0  0
   -9.2690   19.7810  -32.3640 N   0  0  0  0  0  0  0  0  0  0  0  0
   -8.4390   19.1030  -33.1030 O   0  0  0  0  0  0  0  0  0  0  0  0
   -7.2420   19.6410  -33.0900 C   0  0  0  0  0  0  0  0  0  0  0  0
   -6.0750   19.0960  -33.8470 C   0  0  0  0  0  0  0  0  0  0  0  0
   -7.2670   20.7620  -32.2770 C   0  0  0  0  0  0  0  0  0  0  0  0
   -6.1540   21.6900  -31.9850 C   0  0  0  0  0  0  0  0  0  0  0  0
   -6.2540   22.9010  -32.3210 O   0  0  0  0  0  0  0  0  0  0  0  0
   -4.9430   21.2150  -31.3760 N   0  0  0  0  0  0  0  0  0  0  0  0
   -4.0220   22.0580  -30.6630 C   0  0  0  0  0  0  0  0  0  0  0  0
   -2.6310   21.9030  -30.7970 C   0  0  0  0  0  0  0  0  0  0  0  0
   -1.7560   22.7500  -30.1090 C   0  0  0  0  0  0  0  0  0  0  0  0
   -2.2590   23.7730  -29.2960 C   0  0  0  0  0  0  0  0  0  0  0  0
   -1.1510   24.8200  -28.4130 S   0  0  0  0  0  0  0  0  0  0  0  0
   -1.2360   26.2210  -28.9540 O   0  0  0  0  0  0  0  0  0  0  0  0
    0.2540   24.3200  -28.5980 O   0  0  0  0  0  0  0  0  0  0  0  0
   -1.5600   24.7910  -26.7170 N   0  0  0  0  0  0  0  0  0  0  0  0
   -1.5460   26.1360  -26.1430 C   0  0  0  0  0  0  0  0  0  0  0  0
   -1.2330   25.9750  -24.6640 C   0  0  0  0  0  0  0  0  0  0  0  0
   -0.5960   24.6000  -24.5360 C   0  0  0  0  0  0  0  0  0  0  0  0
   -0.5770   24.0290  -25.9450 C   0  0  0  0  0  0  0  0  0  0  0  0
   -3.6440   23.9390  -29.1700 C   0  0  0  0  0  0  0  0  0  0  0  0
   -4.5190   23.0940  -29.8570 C   0  0  0  0  0  0  0  0  0  0  0  0
   -9.0426   21.5731  -29.9037 H   0  0  0  0  0  0  0  0  0  0  0  0
   -8.7543   22.8285  -31.1557 H   0  0  0  0  0  0  0  0  0  0  0  0
  -10.2896   21.8960  -31.1557 H   0  0  0  0  0  0  0  0  0  0  0  0
   -5.3125   18.7399  -33.1387 H   0  0  0  0  0  0  0  0  0  0  0  0
   -6.4067   18.2596  -34.4798 H   0  0  0  0  0  0  0  0  0  0  0  0
   -5.6466   19.8872  -34.4798 H   0  0  0  0  0  0  0  0  0  0  0  0
   -4.6650   20.2250  -31.5580 H   0  0  0  0  0  0  0  0  0  0  0  0
   -2.2288   21.1114  -31.4463 H   0  0  0  0  0  0  0  0  0  0  0  0
   -0.6691   22.6120  -30.2070 H   0  0  0  0  0  0  0  0  0  0  0  0
   -0.7727   26.7482  -26.6300 H   0  0  0  0  0  0  0  0  0  0  0  0
   -2.5125   26.6400  -26.2909 H   0  0  0  0  0  0  0  0  0  0  0  0
   -0.5338   26.7561  -24.3309 H   0  0  0  0  0  0  0  0  0  0  0  0
   -2.1350   26.0687  -24.0414 H   0  0  0  0  0  0  0  0  0  0  0  0
    0.4274   24.6855  -24.1419 H   0  0  0  0  0  0  0  0  0  0  0  0
   -1.1537   23.9547  -23.8414 H   0  0  0  0  0  0  0  0  0  0  0  0
    0.4238   24.1424  -26.3873 H   0  0  0  0  0  0  0  0  0  0  0  0
   -0.8195   22.9561  -25.9421 H   0  0  0  0  0  0  0  0  0  0  0  0
   -4.0442   24.7375  -28.5279 H   0  0  0  0  0  0  0  0  0  0  0  0
   -5.6052   23.2416  -29.7656 H   0  0  0  0  0  0  0  0  0  0  0  0
  1  2  1  0
  2  3  2  0
  3  4  1  0
  4  5  1  0
  5  6  1  0
  5  7  2  0
  7  8  1  0
  8  9  2  0
  8 10  1  0
 10 11  1  0
 11 12  2  0
 12 13  1  0
 13 14  2  0
 14 15  1  0
 15 16  2  0
 15 17  2  0
 15 18  1  0
 18 19  1  0
 19 20  1  0
 20 21  1  0
 21 22  1  0
 14 23  1  0
 23 24  2  0
  7  2  1  0
 24 11  1  0
 22 18  1  0
  1 25  1  0
  1 26  1  0
  1 27  1  0
  6 28  1  0
  6 29  1  0
  6 30  1  0
 10 31  1  0
 12 32  1  0
 13 33  1  0
 19 34  1  0
 19 35  1  0
 20 36  1  0
 20 37  1  0
 21 38  1  0
 21 39  1  0
 22 40  1  0
 22 41  1  0
 23 42  1  0
 24 43  1  0
M  END
>  <UniqueID>  (13) 
12

>  <SMILES>  (13) 
Cc1noc(C)c1C(=O)Nc1ccc(S(=O)(=O)N2CCCC2)cc1

>  <Energy>  (13) 
78.49222739266372

>  <Genealogy>  (13) 
Cc1noc(C)c1C(=O)Nc1ccc(S(=O)(=O)N2CCCC2)cc1 (3D coordinates assigned)
Cc1noc(C)c1C(=O)Nc1ccc(S(=O)(=O)N2CCCC2)cc1 (nonaromatic ring conformer: 78.49222739266372 kcal/mol)

>  <smiles>  (13) 
Cc1noc(C)c1C(=O)Nc1ccc(S(=O)(=O)N2CCCC2)cc1

>  <score_type>  (13) 
oracle

>  <origin>  (13) 
adgpu

>  <m_score__min__energy>  (13) 
-8.6600000000000001

>  <m_primary>  (13) 
energy

$$$$
13:0
     RDKit          3D

 42 44  0  0  0  0  0  0  0  0999 V2000
   -3.5228   19.2742  -30.8578 H   0  0  0  0  0  0  0  0  0  0  0  0
   -3.8730   20.1870  -31.3620 C   0  0  0  0  0  0  0  0  0  0  0  0
   -4.6340   20.0900  -32.4090 N   0  0  0  0  0  0  0  0  0  0  0  0
   -5.0560   18.8680  -32.9690 N   0  0  0  0  0  0  0  0  0  0  0  0
   -6.0220   18.0620  -32.4830 C   0  0  0  0  0  0  0  0  0  0  0  0
   -6.8890   18.3830  -31.3040 C   0  0  0  0  0  0  0  0  0  0  0  0
   -7.5362   17.5214  -31.0833 H   0  0  0  0  0  0  0  0  0  0  0  0
   -6.2493   18.6032  -30.4366 H   0  0  0  0  0  0  0  0  0  0  0  0
   -7.7450   19.5850  -31.6020 C   0  0  0  0  0  0  0  0  0  0  0  0
   -9.0480   19.4250  -32.1020 C   0  0  0  0  0  0  0  0  0  0  0  0
   -9.4341   18.4167  -32.3124 H   0  0  0  0  0  0  0  0  0  0  0  0
   -9.8550   20.5410  -32.3330 C   0  0  0  0  0  0  0  0  0  0  0  0
  -10.8751   20.4093  -32.7230 H   0  0  0  0  0  0  0  0  0  0  0  0
   -9.3700   21.8240  -32.0700 C   0  0  0  0  0  0  0  0  0  0  0  0
  -10.0126   22.6993  -32.2460 H   0  0  0  0  0  0  0  0  0  0  0  0
   -8.0660   22.0010  -31.5820 C   0  0  0  0  0  0  0  0  0  0  0  0
   -7.5610   23.3750  -31.2560 C   0  0  0  0  0  0  0  0  0  0  0  0
   -7.5153   23.4993  -30.1640 H   0  0  0  0  0  0  0  0  0  0  0  0
   -6.5556   23.5069  -31.6824 H   0  0  0  0  0  0  0  0  0  0  0  0
   -8.2417   24.1266  -31.6824 H   0  0  0  0  0  0  0  0  0  0  0  0
   -7.2640   20.8760  -31.3330 C   0  0  0  0  0  0  0  0  0  0  0  0
   -6.2513   21.0071  -30.9241 H   0  0  0  0  0  0  0  0  0  0  0  0
   -6.1550   16.9460  -33.2350 N   0  0  0  0  0  0  0  0  0  0  0  0
   -5.2480   17.0330  -34.1970 N   0  0  0  0  0  0  0  0  0  0  0  0
   -5.0880   16.3120  -34.9350 H   0  0  0  0  0  0  0  0  0  0  0  0
   -4.5820   18.1860  -34.0280 C   0  0  0  0  0  0  0  0  0  0  0  0
   -3.6180   18.5510  -34.7520 O   0  0  0  0  0  0  0  0  0  0  0  0
   -3.4720   21.5090  -30.8400 C   0  0  0  0  0  0  0  0  0  0  0  0
   -2.3330   21.6610  -30.0300 C   0  0  0  0  0  0  0  0  0  0  0  0
   -1.7192   20.7834  -29.7789 H   0  0  0  0  0  0  0  0  0  0  0  0
   -1.9770   22.9190  -29.5430 C   0  0  0  0  0  0  0  0  0  0  0  0
   -1.0851   23.0284  -28.9085 H   0  0  0  0  0  0  0  0  0  0  0  0
   -2.7490   24.0410  -29.8580 C   0  0  0  0  0  0  0  0  0  0  0  0
   -2.3810   25.2880  -29.3650 O   0  0  0  0  0  0  0  0  0  0  0  0
   -3.8860   23.9120  -30.6660 C   0  0  0  0  0  0  0  0  0  0  0  0
   -4.6330   25.0650  -30.9590 O   0  0  0  0  0  0  0  0  0  0  0  0
   -5.6390   25.6100  -30.1110 C   0  0  0  0  0  0  0  0  0  0  0  0
   -5.3550   25.4562  -29.0595 H   0  0  0  0  0  0  0  0  0  0  0  0
   -5.7417   26.6871  -30.3093 H   0  0  0  0  0  0  0  0  0  0  0  0
   -6.5973   25.1077  -30.3093 H   0  0  0  0  0  0  0  0  0  0  0  0
   -4.2430   22.6400  -31.1550 C   0  0  0  0  0  0  0  0  0  0  0  0
   -5.1346   22.5314  -31.7900 H   0  0  0  0  0  0  0  0  0  0  0  0
  1  2  1  0
  2  3  2  0
  3  4  1  0
  4  5  1  0
  5  6  1  0
  6  7  1  0
  6  8  1  0
  6  9  1  0
  9 10  2  0
 10 11  1  0
 10 12  1  0
 12 13  1  0
 12 14  2  0
 14 15  1  0
 14 16  1  0
 16 17  1  0
 17 18  1  0
 17 19  1  0
 17 20  1  0
 16 21  2  0
 21 22  1  0
  5 23  2  0
 23 24  1  0
 24 25  1  0
 24 26  1  0
 26 27  2  0
  2 28  1  0
 28 29  2  0
 29 30  1  0
 29 31  1  0
 31 32  1  0
 31 33  2  0
 33 34  1  0
 33 35  1  0
 35 36  1  0
 36 37  1  0
 37 38  1  0
 37 39  1  0
 37 40  1  0
 35 41  2  0
 41 42  1  0
 26  4  1  0
 41 28  1  0
 21  9  1  0
M  CHG  1  34  -1
M  END
>  <UniqueID>  (14) 
13

>  <SMILES>  (14) 
COc1cc(/C=N/n2c(Cc3cccc(C)c3)n[nH]c2=O)ccc1[O-]

>  <Energy>  (14) 
81.73792274453702

>  <Genealogy>  (14) 
COc1cc(C=Nn2c(Cc3cccc(C)c3)n[nH]c2=O)ccc1[O-] (protonated)
COc1cc(/C=N/n2c(Cc3cccc(C)c3)n[nH]c2=O)ccc1[O-] (cis-trans isomerization)
COc1cc(/C=N/n2c(Cc3cccc(C)c3)n[nH]c2=O)ccc1[O-] (3D coordinates assigned)
COc1cc(/C=N/n2c(Cc3cccc(C)c3)n[nH]c2=O)ccc1[O-] (optimized conformer: 81.73792274453702 kcal/mol)

>  <smiles>  (14) 
COc1cc(C=Nn2c(Cc3cccc(C)c3)n[nH]c2=O)ccc1O

>  <score_type>  (14) 
oracle

>  <origin>  (14) 
adgpu

>  <m_score__min__energy>  (14) 
-11.44

>  <m_primary>  (14) 
energy

$$$$
14:0
     RDKit          3D

 32 34  0  0  0  0  0  0  0  0999 V2000
   -5.1440   20.3652  -34.5714 H   0  0  0  0  0  0  0  0  0  0  0  0
   -5.7870   20.2380  -33.6880 C   0  0  0  0  0  0  0  0  0  0  0  0
   -6.5380   21.2400  -33.3280 N   0  0  0  0  0  0  0  0  0  0  0  0
   -7.3270   21.2790  -32.1610 N   0  0  0  0  0  0  0  0  0  0  0  0
   -7.1060   21.9250  -30.9900 C   0  0  0  0  0  0  0  0  0  0  0  0
   -5.9590   22.8020  -30.6840 C   0  0  0  0  0  0  0  0  0  0  0  0
   -6.1850   24.0910  -30.1750 C   0  0  0  0  0  0  0  0  0  0  0  0
   -7.2149   24.4496  -30.0312 H   0  0  0  0  0  0  0  0  0  0  0  0
   -5.1080   24.9210  -29.8500 C   0  0  0  0  0  0  0  0  0  0  0  0
   -5.2919   25.9253  -29.4407 H   0  0  0  0  0  0  0  0  0  0  0  0
   -3.7970   24.4750  -30.0450 C   0  0  0  0  0  0  0  0  0  0  0  0
   -2.7280   25.2990  -29.7170 O   0  0  0  0  0  0  0  0  0  0  0  0
   -3.5640   23.2030  -30.5730 C   0  0  0  0  0  0  0  0  0  0  0  0
   -2.5327   22.8560  -30.7342 H   0  0  0  0  0  0  0  0  0  0  0  0
   -4.6390   22.3700  -30.8970 C   0  0  0  0  0  0  0  0  0  0  0  0
   -4.4507   21.3724  -31.3204 H   0  0  0  0  0  0  0  0  0  0  0  0
   -8.1100   21.6890  -30.1150 N   0  0  0  0  0  0  0  0  0  0  0  0
   -8.9830   20.9140  -30.7420 N   0  0  0  0  0  0  0  0  0  0  0  0
   -9.8710   20.5580  -30.3250 H   0  0  0  0  0  0  0  0  0  0  0  0
   -8.5140   20.6810  -31.9800 C   0  0  0  0  0  0  0  0  0  0  0  0
   -9.2710   19.7440  -33.0900 S   0  0  0  0  0  0  0  0  0  0  0  0
   -5.7470   18.9410  -32.9810 C   0  0  0  0  0  0  0  0  0  0  0  0
   -5.3290   17.7640  -33.6260 C   0  0  0  0  0  0  0  0  0  0  0  0
   -5.0072   17.7996  -34.6773 H   0  0  0  0  0  0  0  0  0  0  0  0
   -5.3210   16.5470  -32.9350 C   0  0  0  0  0  0  0  0  0  0  0  0
   -5.0090   15.6255  -33.4482 H   0  0  0  0  0  0  0  0  0  0  0  0
   -5.7090   16.5020  -31.5940 C   0  0  0  0  0  0  0  0  0  0  0  0
   -5.7121   15.5432  -31.0548 H   0  0  0  0  0  0  0  0  0  0  0  0
   -6.0930   17.6730  -30.9370 C   0  0  0  0  0  0  0  0  0  0  0  0
   -6.3894   17.6372  -29.8783 H   0  0  0  0  0  0  0  0  0  0  0  0
   -6.1010   18.8910  -31.6240 C   0  0  0  0  0  0  0  0  0  0  0  0
   -6.3861   19.8142  -31.0982 H   0  0  0  0  0  0  0  0  0  0  0  0
  1  2  1  0
  2  3  2  0
  3  4  1  0
  4  5  1  0
  5  6  1  0
  6  7  2  0
  7  8  1  0
  7  9  1  0
  9 10  1  0
  9 11  2  0
 11 12  1  0
 11 13  1  0
 13 14  1  0
 13 15  2  0
 15 16  1  0
  5 17  2  0
 17 18  1  0
 18 19  1  0
 18 20  1  0
 20 21  2  0
  2 22  1  0
 22 23  2  0
 23 24  1  0
 23 25  1  0
 25 26  1  0
 25 27  2  0
 27 28  1  0
 27 29  1  0
 29 30  1  0
 29 31  2  0
 31 32  1  0
 20  4  1  0
 31 22  1  0
 15  6  1  0
M  CHG  1  12  -1
M  END
>  <UniqueID>  (15) 
14

>  <SMILES>  (15) 
[O-]c1ccc(-c2n[nH]c(=S)n2/N=C\c2ccccc2)cc1

>  <Energy>  (15) 
85.13084771274309

>  <Genealogy>  (15) 
[O-]c1ccc(-c2n[nH]c(=S)n2N=Cc2ccccc2)cc1 (protonated)
[O-]c1ccc(-c2n[nH]c(=S)n2/N=C\c2ccccc2)cc1 (cis-trans isomerization)
[O-]c1ccc(-c2n[nH]c(=S)n2/N=C\c2ccccc2)cc1 (3D coordinates assigned)
[O-]c1ccc(-c2n[nH]c(=S)n2/N=C\c2ccccc2)cc1 (optimized conformer: 85.13084771274309 kcal/mol)

>  <smiles>  (15) 
Oc1ccc(-c2n[nH]c(=S)n2N=Cc2ccccc2)cc1

>  <score_type>  (15) 
oracle

>  <origin>  (15) 
adgpu

>  <m_score__min__energy>  (15) 
-10.33

>  <m_primary>  (15) 
energy

$$$$
15:0
     RDKit          3D

 33 34  0  0  0  0  0  0  0  0999 V2000
   -6.8410   19.5730  -35.0240 H   0  0  0  0  0  0  0  0  0  0  0  0
   -6.1110   18.9190  -35.2790 O   0  0  0  0  0  0  0  0  0  0  0  0
   -5.4920   18.0930  -34.3610 N   0  0  0  0  0  0  0  0  0  0  0  0
   -4.5880   17.6570  -34.6490 H   0  0  0  0  0  0  0  0  0  0  0  0
   -6.0050   17.7880  -33.1990 C   0  0  0  0  0  0  0  0  0  0  0  0
   -7.2320   18.4310  -32.6860 C   0  0  0  0  0  0  0  0  0  0  0  0
   -8.2650   17.8000  -32.0140 C   0  0  0  0  0  0  0  0  0  0  0  0
   -8.2995   16.7287  -31.7666 H   0  0  0  0  0  0  0  0  0  0  0  0
   -9.2230   18.7000  -31.7090 N   0  0  0  0  0  0  0  0  0  0  0  0
   -8.8290   19.8800  -32.1640 N   0  0  0  0  0  0  0  0  0  0  0  0
   -9.5670   21.1180  -31.9600 C   0  0  0  0  0  0  0  0  0  0  0  0
   -9.6785   21.3050  -30.8818 H   0  0  0  0  0  0  0  0  0  0  0  0
   -9.0186   21.9522  -32.4220 H   0  0  0  0  0  0  0  0  0  0  0  0
  -10.5616   21.0324  -32.4220 H   0  0  0  0  0  0  0  0  0  0  0  0
   -7.6130   19.7640  -32.7280 C   0  0  0  0  0  0  0  0  0  0  0  0
   -6.9010   20.8470  -33.2630 O   0  0  0  0  0  0  0  0  0  0  0  0
   -6.2590   21.8330  -32.5030 C   0  0  0  0  0  0  0  0  0  0  0  0
   -6.9790   22.9760  -32.1350 C   0  0  0  0  0  0  0  0  0  0  0  0
   -8.0291   23.0836  -32.4445 H   0  0  0  0  0  0  0  0  0  0  0  0
   -6.3720   23.9810  -31.3770 C   0  0  0  0  0  0  0  0  0  0  0  0
   -6.9466   24.8747  -31.0920 H   0  0  0  0  0  0  0  0  0  0  0  0
   -5.0330   23.8550  -30.9780 C   0  0  0  0  0  0  0  0  0  0  0  0
   -4.3930   24.9170  -30.1340 C   0  0  0  0  0  0  0  0  0  0  0  0
   -4.5378   24.6768  -29.0704 H   0  0  0  0  0  0  0  0  0  0  0  0
   -3.3167   24.9629  -30.3563 H   0  0  0  0  0  0  0  0  0  0  0  0
   -4.8552   25.8901  -30.3563 H   0  0  0  0  0  0  0  0  0  0  0  0
   -4.3220   22.6930  -31.3120 C   0  0  0  0  0  0  0  0  0  0  0  0
   -3.2811   22.5726  -30.9772 H   0  0  0  0  0  0  0  0  0  0  0  0
   -4.9300   21.6880  -32.0680 C   0  0  0  0  0  0  0  0  0  0  0  0
   -4.3663   20.7788  -32.3242 H   0  0  0  0  0  0  0  0  0  0  0  0
   -5.3590   16.8060  -32.3820 N   0  0  0  0  0  0  0  0  0  0  0  0
   -4.4920   16.3230  -32.7050 H   0  0  0  0  0  0  0  0  0  0  0  0
   -5.7390   16.5670  -31.4380 H   0  0  0  0  0  0  0  0  0  0  0  0
  1  2  1  0
  2  3  1  0
  3  4  1  0
  3  5  2  0
  5  6  1  0
  6  7  1  0
  7  8  1  0
  7  9  2  0
  9 10  1  0
 10 11  1  0
 11 12  1  0
 11 13  1  0
 11 14  1  0
 10 15  1  0
 15 16  1  0
 16 17  1  0
 17 18  2  0
 18 19  1  0
 18 20  1  0
 20 21  1  0
 20 22  2  0
 22 23  1  0
 23 24  1  0
 23 25  1  0
 23 26  1  0
 22 27  1  0
 27 28  1  0
 27 29  2  0
 29 30  1  0
  5 31  1  0
 31 32  1  0
 31 33  1  0
 15  6  2  0
 29 17  1  0
M  CHG  1   3   1
M  END
>  <UniqueID>  (16) 
15

>  <SMILES>  (16) 
Cc1ccc(Oc2c(/C(N)=[NH+]\O)cnn2C)cc1

>  <Energy>  (16) 
73.05005325573865

>  <Genealogy>  (16) 
Cc1ccc(Oc2c(C(N)=[NH+]O)cnn2C)cc1 (protonated)
Cc1ccc(Oc2c(/C(N)=[NH+]\O)cnn2C)cc1 (cis-trans isomerization)
Cc1ccc(Oc2c(/C(N)=[NH+]\O)cnn2C)cc1 (3D coordinates assigned)
Cc1ccc(Oc2c(/C(N)=[NH+]\O)cnn2C)cc1 (optimized conformer: 73.05005325573865 kcal/mol)

>  <smiles>  (16) 
Cc1ccc(Oc2c(C(N)=NO)cnn2C)cc1

>  <score_type>  (16) 
oracle

>  <origin>  (16) 
adgpu

>  <m_score__min__energy>  (16) 
-6.6900000000000004

>  <m_primary>  (16) 
energy

$$$$
16:0
     RDKit          3D

 48 50  0  0  0  0  0  0  0  0999 V2000
   -8.4520   18.5820  -31.7110 C   0  0  0  0  0  0  0  0  0  0  0  0
   -8.8150   19.6400  -32.7480 C   0  0  0  0  0  0  0  0  0  0  0  0
   -7.6630   20.3940  -33.1270 O   0  0  0  0  0  0  0  0  0  0  0  0
   -7.1090   21.4600  -32.3970 C   0  0  0  0  0  0  0  0  0  0  0  0
   -5.7180   21.5080  -32.2520 C   0  0  0  0  0  0  0  0  0  0  0  0
   -5.1110   22.5610  -31.5610 C   0  0  0  0  0  0  0  0  0  0  0  0
   -5.8930   23.5780  -30.9990 C   0  0  0  0  0  0  0  0  0  0  0  0
   -5.1210   24.9490  -30.2070 S   0  0  0  0  0  0  0  0  0  0  0  0
   -5.6180   26.2170  -30.8430 O   0  0  0  0  0  0  0  0  0  0  0  0
   -5.5090   24.9630  -28.7560 O   0  0  0  0  0  0  0  0  0  0  0  0
   -3.3890   24.9080  -30.3300 N   0  0  0  0  0  0  0  0  0  0  0  0
   -2.5050   24.3390  -29.3570 C   0  0  0  0  0  0  0  0  0  0  0  0
   -2.6560   23.0130  -28.9170 C   0  0  0  0  0  0  0  0  0  0  0  0
   -1.7740   22.4690  -27.9730 C   0  0  0  0  0  0  0  0  0  0  0  0
   -2.0130   20.8210  -27.3780 S   0  0  0  0  0  0  0  0  0  0  0  0
   -1.6200   20.7650  -25.9290 O   0  0  0  0  0  0  0  0  0  0  0  0
   -3.4720   20.4760  -27.4770 O   0  0  0  0  0  0  0  0  0  0  0  0
   -1.0840   19.6330  -28.2610 N   0  0  0  0  0  0  0  0  0  0  0  0
    0.2270   20.1430  -28.6560 C   0  0  0  0  0  0  0  0  0  0  0  0
    1.1250   18.9280  -28.8250 C   0  0  0  0  0  0  0  0  0  0  0  0
    0.4450   17.8130  -28.0430 C   0  0  0  0  0  0  0  0  0  0  0  0
   -0.8150   18.4400  -27.4630 C   0  0  0  0  0  0  0  0  0  0  0  0
   -0.7190   23.2510  -27.4850 C   0  0  0  0  0  0  0  0  0  0  0  0
   -0.5380   24.5560  -27.9500 C   0  0  0  0  0  0  0  0  0  0  0  0
   -1.4240   25.0970  -28.8870 C   0  0  0  0  0  0  0  0  0  0  0  0
   -1.2320   26.3980  -29.3420 O   0  0  0  0  0  0  0  0  0  0  0  0
   -7.2880   23.5230  -31.1190 C   0  0  0  0  0  0  0  0  0  0  0  0
   -7.8950   22.4730  -31.8130 C   0  0  0  0  0  0  0  0  0  0  0  0
   -8.5936   18.9946  -30.7012 H   0  0  0  0  0  0  0  0  0  0  0  0
   -9.0999   17.7027  -31.8420 H   0  0  0  0  0  0  0  0  0  0  0  0
   -7.4008   18.2857  -31.8420 H   0  0  0  0  0  0  0  0  0  0  0  0
   -9.2310   19.1451  -33.6379 H   0  0  0  0  0  0  0  0  0  0  0  0
   -9.5560   20.3244  -32.3093 H   0  0  0  0  0  0  0  0  0  0  0  0
   -5.0968   20.7104  -32.6854 H   0  0  0  0  0  0  0  0  0  0  0  0
   -4.0162   22.5908  -31.4584 H   0  0  0  0  0  0  0  0  0  0  0  0
   -3.4741   22.3961  -29.3171 H   0  0  0  0  0  0  0  0  0  0  0  0
    0.1509   20.6951  -29.6044 H   0  0  0  0  0  0  0  0  0  0  0  0
    0.6298   20.8358  -27.9025 H   0  0  0  0  0  0  0  0  0  0  0  0
    1.2100   18.6567  -29.8876 H   0  0  0  0  0  0  0  0  0  0  0  0
    2.1457   19.1193  -28.4623 H   0  0  0  0  0  0  0  0  0  0  0  0
    0.1875   16.9766  -28.7094 H   0  0  0  0  0  0  0  0  0  0  0  0
    1.0987   17.4049  -27.2581 H   0  0  0  0  0  0  0  0  0  0  0  0
   -1.6577   17.7365  -27.5337 H   0  0  0  0  0  0  0  0  0  0  0  0
   -0.6837   18.6913  -26.4002 H   0  0  0  0  0  0  0  0  0  0  0  0
   -0.0311   22.8363  -26.7335 H   0  0  0  0  0  0  0  0  0  0  0  0
    0.3033   25.1593  -27.5782 H   0  0  0  0  0  0  0  0  0  0  0  0
   -7.9081   24.3099  -30.6648 H   0  0  0  0  0  0  0  0  0  0  0  0
   -8.9907   22.4372  -31.9037 H   0  0  0  0  0  0  0  0  0  0  0  0
  1  2  1  0
  2  3  1  0
  3  4  1  0
  4  5  2  0
  5  6  1  0
  6  7  2  0
  7  8  1  0
  8  9  2  0
  8 10  2  0
  8 11  1  0
 11 12  1  0
 12 13  2  0
 13 14  1  0
 14 15  1  0
 15 16  2  0
 15 17  2  0
 15 18  1  0
 18 19  1  0
 19 20  1  0
 20 21  1  0
 21 22  1  0
 14 23  2  0
 23 24  1  0
 24 25  2  0
 25 26  1  0
  7 27  1  0
 27 28  2  0
 28  4  1  0
 25 12  1  0
 22 18  1  0
  1 29  1  0
  1 30  1  0
  1 31  1  0
  2 32  1  0
  2 33  1  0
  5 34  1  0
  6 35  1  0
 13 36  1  0
 19 37  1  0
 19 38  1  0
 20 39  1  0
 20 40  1  0
 21 41  1  0
 21 42  1  0
 22 43  1  0
 22 44  1  0
 23 45  1  0
 24 46  1  0
 27 47  1  0
 28 48  1  0
M  CHG  2  11  -1  26  -1
M  END
>  <UniqueID>  (17) 
16

>  <SMILES>  (17) 
CCOc1ccc(S(=O)(=O)[N-]c2cc(S(=O)(=O)N3CCCC3)ccc2[O-])cc1

>  <Energy>  (17) 
54.69915401332101

>  <Genealogy>  (17) 
CCOc1ccc(S(=O)(=O)[N-]c2cc(S(=O)(=O)N3CCCC3)ccc2[O-])cc1 (protonated)
CCOc1ccc(S(=O)(=O)[N-]c2cc(S(=O)(=O)N3CCCC3)ccc2[O-])cc1 (3D coordinates assigned)
CCOc1ccc(S(=O)(=O)[N-]c2cc(S(=O)(=O)N3CCCC3)ccc2[O-])cc1 (nonaromatic ring conformer: 54.69915401332101 kcal/mol)

>  <smiles>  (17) 
CCOc1ccc(S(=O)(=O)Nc2cc(S(=O)(=O)N3CCCC3)ccc2O)cc1

>  <score_type>  (17) 
oracle

>  <origin>  (17) 
adgpu

>  <m_score__min__energy>  (17) 
-13.77

>  <m_primary>  (17) 
energy

$$$$
17:0
     RDKit          3D

 43 44  0  0  0  0  0  0  0  0999 V2000
    0.0810   25.1560  -27.4640 C   0  0  0  0  0  0  0  0  0  0  0  0
   -0.1240   24.5580  -28.7400 O   0  0  0  0  0  0  0  0  0  0  0  0
   -0.8970   23.4080  -28.9670 C   0  0  0  0  0  0  0  0  0  0  0  0
   -0.3200   22.1220  -29.0150 C   0  0  0  0  0  0  0  0  0  0  0  0
   -1.1130   20.9990  -29.2570 C   0  0  0  0  0  0  0  0  0  0  0  0
   -2.4860   21.1430  -29.4600 C   0  0  0  0  0  0  0  0  0  0  0  0
   -3.0710   22.4090  -29.4170 C   0  0  0  0  0  0  0  0  0  0  0  0
   -2.2890   23.5460  -29.1580 C   0  0  0  0  0  0  0  0  0  0  0  0
   -2.9300   24.9060  -29.1420 C   0  0  0  0  0  0  0  0  0  0  0  0
   -3.5050   25.1850  -30.4500 N   0  0  0  0  0  0  0  0  0  0  0  0
   -4.9140   25.1720  -30.7000 C   0  0  0  0  0  0  0  0  0  0  0  0
   -5.5980   26.2100  -30.4820 O   0  0  0  0  0  0  0  0  0  0  0  0
   -5.5690   23.9450  -31.2140 C   0  0  0  0  0  0  0  0  0  0  0  0
   -4.8360   23.0010  -31.9550 C   0  0  0  0  0  0  0  0  0  0  0  0
   -5.4540   21.8440  -32.4380 C   0  0  0  0  0  0  0  0  0  0  0  0
   -6.8120   21.6130  -32.1910 C   0  0  0  0  0  0  0  0  0  0  0  0
   -7.5700   20.1390  -32.7890 S   0  0  0  0  0  0  0  0  0  0  0  0
   -6.8690   19.7180  -34.0510 O   0  0  0  0  0  0  0  0  0  0  0  0
   -9.0170   20.3990  -33.1080 O   0  0  0  0  0  0  0  0  0  0  0  0
   -7.4370   18.8770  -31.5910 N   0  0  0  0  0  0  0  0  0  0  0  0
   -8.7750   18.3710  -31.2600 C   0  0  0  0  0  0  0  0  0  0  0  0
   -6.6060   17.7890  -32.1210 C   0  0  0  0  0  0  0  0  0  0  0  0
   -7.5470   22.5450  -31.4480 C   0  0  0  0  0  0  0  0  0  0  0  0
   -6.9320   23.7030  -30.9650 C   0  0  0  0  0  0  0  0  0  0  0  0
   -0.1676   24.4309  -26.6751 H   0  0  0  0  0  0  0  0  0  0  0  0
    1.1341   25.4583  -27.3656 H   0  0  0  0  0  0  0  0  0  0  0  0
   -0.5651   26.0408  -27.3656 H   0  0  0  0  0  0  0  0  0  0  0  0
    0.7626   22.0031  -28.8606 H   0  0  0  0  0  0  0  0  0  0  0  0
   -0.6550   19.9994  -29.2877 H   0  0  0  0  0  0  0  0  0  0  0  0
   -3.1082   20.2569  -29.6543 H   0  0  0  0  0  0  0  0  0  0  0  0
   -4.1524   22.5170  -29.5872 H   0  0  0  0  0  0  0  0  0  0  0  0
   -3.7230   24.9290  -28.3800 H   0  0  0  0  0  0  0  0  0  0  0  0
   -2.1719   25.6667  -28.9041 H   0  0  0  0  0  0  0  0  0  0  0  0
   -3.7685   23.1743  -32.1560 H   0  0  0  0  0  0  0  0  0  0  0  0
   -4.8702   21.1116  -33.0149 H   0  0  0  0  0  0  0  0  0  0  0  0
   -8.8904   18.3273  -30.1669 H   0  0  0  0  0  0  0  0  0  0  0  0
   -9.5362   19.0434  -31.6825 H   0  0  0  0  0  0  0  0  0  0  0  0
   -8.9008   17.3632  -31.6825 H   0  0  0  0  0  0  0  0  0  0  0  0
   -6.1712   17.2197  -31.2862 H   0  0  0  0  0  0  0  0  0  0  0  0
   -7.2258   17.1209  -32.7369 H   0  0  0  0  0  0  0  0  0  0  0  0
   -5.7983   18.2112  -32.7369 H   0  0  0  0  0  0  0  0  0  0  0  0
   -8.6127   22.3648  -31.2438 H   0  0  0  0  0  0  0  0  0  0  0  0
   -7.5185   24.4311  -30.3854 H   0  0  0  0  0  0  0  0  0  0  0  0
  1  2  1  0
  2  3  1  0
  3  4  2  0
  4  5  1  0
  5  6  2  0
  6  7  1  0
  7  8  2  0
  8  9  1  0
  9 10  1  0
 10 11  1  0
 11 12  2  0
 11 13  1  0
 13 14  2  0
 14 15  1  0
 15 16  2  0
 16 17  1  0
 17 18  2  0
 17 19  2  0
 17 20  1  0
 20 21  1  0
 20 22  1  0
 16 23  1  0
 23 24  2  0
  8  3  1  0
 24 13  1  0
  1 25  1  0
  1 26  1  0
  1 27  1  0
  4 28  1  0
  5 29  1  0
  6 30  1  0
  7 31  1  0
  9 32  1  0
  9 33  1  0
 14 34  1  0
 15 35  1  0
 21 36  1  0
 21 37  1  0
 21 38  1  0
 22 39  1  0
 22 40  1  0
 22 41  1  0
 23 42  1  0
 24 43  1  0
M  CHG  1  10  -1
M  END
>  <UniqueID>  (18) 
17

>  <SMILES>  (18) 
COc1ccccc1C[N-]C(=O)c1ccc(S(=O)(=O)N(C)C)cc1

>  <Energy>  (18) 
38.69315751269761

>  <Genealogy>  (18) 
COc1ccccc1C[N-]C(=O)c1ccc(S(=O)(=O)N(C)C)cc1 (protonated)
COc1ccccc1C[N-]C(=O)c1ccc(S(=O)(=O)N(C)C)cc1 (3D coordinates assigned)
COc1ccccc1C[N-]C(=O)c1ccc(S(=O)(=O)N(C)C)cc1 (optimized conformer: 38.69315751269761 kcal/mol)

>  <smiles>  (18) 
COc1ccccc1CNC(=O)c1ccc(S(=O)(=O)N(C)C)cc1

>  <score_type>  (18) 
oracle

>  <origin>  (18) 
adgpu

>  <m_score__min__energy>  (18) 
-10.26

>  <m_primary>  (18) 
energy

$$$$
18:0
     RDKit          3D

 45 47  0  0  0  0  0  0  0  0999 V2000
   -8.6650   20.8140  -32.3340 C   0  0  0  0  0  0  0  0  0  0  0  0
   -7.7810   21.7090  -31.5300 C   0  0  0  0  0  0  0  0  0  0  0  0
   -8.0890   21.9750  -30.3360 O   0  0  0  0  0  0  0  0  0  0  0  0
   -6.6400   22.3260  -32.1460 N   0  0  0  0  0  0  0  0  0  0  0  0
   -5.6270   23.0470  -31.4250 C   0  0  0  0  0  0  0  0  0  0  0  0
   -4.4090   22.4440  -31.0680 C   0  0  0  0  0  0  0  0  0  0  0  0
   -3.4320   23.1730  -30.3820 C   0  0  0  0  0  0  0  0  0  0  0  0
   -3.6490   24.5240  -30.0620 C   0  0  0  0  0  0  0  0  0  0  0  0
   -2.6920   25.2970  -29.3230 N   0  0  0  0  0  0  0  0  0  0  0  0
   -1.4170   24.8530  -28.8450 C   0  0  0  0  0  0  0  0  0  0  0  0
   -0.5250   24.5020  -29.6660 O   0  0  0  0  0  0  0  0  0  0  0  0
   -1.0990   24.8940  -27.3970 C   0  0  0  0  0  0  0  0  0  0  0  0
   -1.6250   25.9390  -26.6160 C   0  0  0  0  0  0  0  0  0  0  0  0
   -1.3650   26.0010  -25.2480 C   0  0  0  0  0  0  0  0  0  0  0  0
   -0.5740   25.0190  -24.6580 C   0  0  0  0  0  0  0  0  0  0  0  0
   -0.0520   24.0220  -25.4180 N   0  0  0  0  0  0  0  0  0  0  0  0
   -0.2810   23.9290  -26.7560 C   0  0  0  0  0  0  0  0  0  0  0  0
    0.5400   22.5980  -27.6450 S   0  0  0  0  0  0  0  0  0  0  0  0
   -0.7680   21.4240  -27.2910 C   0  0  0  0  0  0  0  0  0  0  0  0
   -1.6210   20.9920  -28.3140 C   0  0  0  0  0  0  0  0  0  0  0  0
   -2.6380   20.0750  -28.0390 C   0  0  0  0  0  0  0  0  0  0  0  0
   -2.8200   19.5910  -26.7330 C   0  0  0  0  0  0  0  0  0  0  0  0
   -3.8930   18.5880  -26.4300 C   0  0  0  0  0  0  0  0  0  0  0  0
   -1.9610   20.0250  -25.7110 C   0  0  0  0  0  0  0  0  0  0  0  0
   -0.9440   20.9430  -25.9880 C   0  0  0  0  0  0  0  0  0  0  0  0
   -4.8630   25.1230  -30.4170 C   0  0  0  0  0  0  0  0  0  0  0  0
   -5.8370   24.3970  -31.1070 C   0  0  0  0  0  0  0  0  0  0  0  0
   -9.2746   20.1968  -31.6576 H   0  0  0  0  0  0  0  0  0  0  0  0
   -9.3249   21.4240  -32.9684 H   0  0  0  0  0  0  0  0  0  0  0  0
   -8.0469   20.1617  -32.9684 H   0  0  0  0  0  0  0  0  0  0  0  0
   -6.5920   22.3220  -33.1910 H   0  0  0  0  0  0  0  0  0  0  0  0
   -4.2227   21.3920  -31.3297 H   0  0  0  0  0  0  0  0  0  0  0  0
   -2.4892   22.6864  -30.0916 H   0  0  0  0  0  0  0  0  0  0  0  0
   -2.2466   26.7136  -27.0887 H   0  0  0  0  0  0  0  0  0  0  0  0
   -1.7809   26.8182  -24.6403 H   0  0  0  0  0  0  0  0  0  0  0  0
   -0.3720   25.0507  -23.5772 H   0  0  0  0  0  0  0  0  0  0  0  0
   -1.4898   21.3757  -29.3365 H   0  0  0  0  0  0  0  0  0  0  0  0
   -3.2988   19.7306  -28.8481 H   0  0  0  0  0  0  0  0  0  0  0  0
   -4.0023   18.4859  -25.3402 H   0  0  0  0  0  0  0  0  0  0  0  0
   -4.8452   18.9274  -26.8638 H   0  0  0  0  0  0  0  0  0  0  0  0
   -3.6186   17.6151  -26.8638 H   0  0  0  0  0  0  0  0  0  0  0  0
   -2.0888   19.6411  -24.6881 H   0  0  0  0  0  0  0  0  0  0  0  0
   -0.2809   21.2881  -25.1810 H   0  0  0  0  0  0  0  0  0  0  0  0
   -5.0518   26.1735  -30.1507 H   0  0  0  0  0  0  0  0  0  0  0  0
   -6.7758   24.8878  -31.4032 H   0  0  0  0  0  0  0  0  0  0  0  0
  1  2  1  0
  2  3  2  0
  2  4  1  0
  4  5  1  0
  5  6  2  0
  6  7  1  0
  7  8  2  0
  8  9  1  0
  9 10  1  0
 10 11  2  0
 10 12  1  0
 12 13  2  0
 13 14  1  0
 14 15  2  0
 15 16  1  0
 16 17  2  0
 17 18  1  0
 18 19  1  0
 19 20  2  0
 20 21  1  0
 21 22  2  0
 22 23  1  0
 22 24  1  0
 24 25  2  0
  8 26  1  0
 26 27  2  0
 27  5  1  0
 17 12  1  0
 25 19  1  0
  1 28  1  0
  1 29  1  0
  1 30  1  0
  4 31  1  0
  6 32  1  0
  7 33  1  0
 13 34  1  0
 14 35  1  0
 15 36  1  0
 20 37  1  0
 21 38  1  0
 23 39  1  0
 23 40  1  0
 23 41  1  0
 24 42  1  0
 25 43  1  0
 26 44  1  0
 27 45  1  0
M  CHG  1   9  -1
M  END
>  <UniqueID>  (19) 
18

>  <SMILES>  (19) 
CC(=O)Nc1ccc([N-]C(=O)c2cccnc2Sc2ccc(C)cc2)cc1

>  <Energy>  (19) 
51.81716236685276

>  <Genealogy>  (19) 
CC(=O)Nc1ccc([N-]C(=O)c2cccnc2Sc2ccc(C)cc2)cc1 (protonated)
CC(=O)Nc1ccc([N-]C(=O)c2cccnc2Sc2ccc(C)cc2)cc1 (3D coordinates assigned)
CC(=O)Nc1ccc([N-]C(=O)c2cccnc2Sc2ccc(C)cc2)cc1 (optimized conformer: 51.81716236685276 kcal/mol)

>  <smiles>  (19) 
CC(=O)Nc1ccc(NC(=O)c2cccnc2Sc2ccc(C)cc2)cc1

>  <score_type>  (19) 
oracle

>  <origin>  (19) 
adgpu

>  <m_score__min__energy>  (19) 
-10.25

>  <m_primary>  (19) 
energy

$$$$
19:0
     RDKit          3D

 44 46  0  0  0  0  0  0  0  0999 V2000
   -4.8500   22.5550  -32.4050 C   0  0  0  0  0  0  0  0  0  0  0  0
   -5.3680   23.5810  -31.4380 C   0  0  0  0  0  0  0  0  0  0  0  0
   -4.6120   24.6880  -31.1980 N   0  0  0  0  0  0  0  0  0  0  0  0
   -5.0180   25.6760  -30.3580 C   0  0  0  0  0  0  0  0  0  0  0  0
   -6.2510   25.5820  -29.7140 C   0  0  0  0  0  0  0  0  0  0  0  0
   -7.0480   24.4580  -29.9300 C   0  0  0  0  0  0  0  0  0  0  0  0
   -6.6050   23.4300  -30.7720 C   0  0  0  0  0  0  0  0  0  0  0  0
   -7.4410   22.2820  -30.9700 N   0  0  0  0  0  0  0  0  0  0  0  0
   -8.6750   22.3410  -31.6980 C   0  0  0  0  0  0  0  0  0  0  0  0
   -9.0380   23.4130  -32.2560 O   0  0  0  0  0  0  0  0  0  0  0  0
   -9.5030   21.1050  -31.8700 C   0  0  0  0  0  0  0  0  0  0  0  0
   -8.6300   19.9660  -32.2890 C   0  0  0  0  0  0  0  0  0  0  0  0
   -8.7450   18.6500  -31.8530 C   0  0  0  0  0  0  0  0  0  0  0  0
   -7.7290   17.8180  -32.3360 C   0  0  0  0  0  0  0  0  0  0  0  0
   -6.8140   18.4890  -33.1360 C   0  0  0  0  0  0  0  0  0  0  0  0
   -5.3960   17.7750  -33.8910 S   0  0  0  0  0  0  0  0  0  0  0  0
   -5.7130   17.4710  -35.3290 O   0  0  0  0  0  0  0  0  0  0  0  0
   -5.0710   16.4810  -33.1960 O   0  0  0  0  0  0  0  0  0  0  0  0
   -4.0130   18.8390  -33.8130 N   0  0  0  0  0  0  0  0  0  0  0  0
   -3.8380   19.3580  -32.4490 C   0  0  0  0  0  0  0  0  0  0  0  0
   -2.6430   20.3370  -32.4150 C   0  0  0  0  0  0  0  0  0  0  0  0
   -1.8690   20.2910  -33.6020 O   0  0  0  0  0  0  0  0  0  0  0  0
   -1.5340   18.9500  -33.9060 C   0  0  0  0  0  0  0  0  0  0  0  0
   -2.7960   18.1350  -34.2550 C   0  0  0  0  0  0  0  0  0  0  0  0
   -7.2550   20.1060  -33.2520 S   0  0  0  0  0  0  0  0  0  0  0  0
   -4.4226   21.7085  -31.8475 H   0  0  0  0  0  0  0  0  0  0  0  0
   -5.6758   22.1978  -33.0378 H   0  0  0  0  0  0  0  0  0  0  0  0
   -4.0722   23.0073  -33.0378 H   0  0  0  0  0  0  0  0  0  0  0  0
   -4.3734   26.5506  -30.1860 H   0  0  0  0  0  0  0  0  0  0  0  0
   -6.5912   26.3849  -29.0434 H   0  0  0  0  0  0  0  0  0  0  0  0
   -8.0282   24.3785  -29.4372 H   0  0  0  0  0  0  0  0  0  0  0  0
   -7.0460   21.3420  -30.7390 H   0  0  0  0  0  0  0  0  0  0  0  0
   -9.9933   20.8581  -30.9168 H   0  0  0  0  0  0  0  0  0  0  0  0
  -10.2651   21.2825  -32.6431 H   0  0  0  0  0  0  0  0  0  0  0  0
   -9.5533   18.2988  -31.1948 H   0  0  0  0  0  0  0  0  0  0  0  0
   -7.6622   16.7444  -32.1059 H   0  0  0  0  0  0  0  0  0  0  0  0
   -4.7519   19.8853  -32.1381 H   0  0  0  0  0  0  0  0  0  0  0  0
   -3.6435   18.5210  -31.7623 H   0  0  0  0  0  0  0  0  0  0  0  0
   -3.0280   21.3591  -32.2844 H   0  0  0  0  0  0  0  0  0  0  0  0
   -1.9916   20.0402  -31.5798 H   0  0  0  0  0  0  0  0  0  0  0  0
   -0.8468   18.9359  -34.7648 H   0  0  0  0  0  0  0  0  0  0  0  0
   -1.0554   18.4980  -33.0247 H   0  0  0  0  0  0  0  0  0  0  0  0
   -2.8402   17.9876  -35.3442 H   0  0  0  0  0  0  0  0  0  0  0  0
   -2.7429   17.1650  -33.7390 H   0  0  0  0  0  0  0  0  0  0  0  0
  1  2  1  0
  2  3  2  0
  3  4  1  0
  4  5  2  0
  5  6  1  0
  6  7  2  0
  7  8  1  0
  8  9  1  0
  9 10  2  0
  9 11  1  0
 11 12  1  0
 12 13  2  0
 13 14  1  0
 14 15  2  0
 15 16  1  0
 16 17  2  0
 16 18  2  0
 16 19  1  0
 19 20  1  0
 20 21  1  0
 21 22  1  0
 22 23  1  0
 23 24  1  0
 15 25  1  0
  7  2  1  0
 25 12  1  0
 24 19  1  0
  1 26  1  0
  1 27  1  0
  1 28  1  0
  4 29  1  0
  5 30  1  0
  6 31  1  0
  8 32  1  0
 11 33  1  0
 11 34  1  0
 13 35  1  0
 14 36  1  0
 20 37  1  0
 20 38  1  0
 21 39  1  0
 21 40  1  0
 23 41  1  0
 23 42  1  0
 24 43  1  0
 24 44  1  0
M  END
>  <UniqueID>  (20) 
19

>  <SMILES>  (20) 
Cc1ncccc1NC(=O)Cc1ccc(S(=O)(=O)N2CCOCC2)s1

>  <Energy>  (20) 
80.84185189141058

>  <Genealogy>  (20) 
Cc1ncccc1NC(=O)Cc1ccc(S(=O)(=O)N2CCOCC2)s1 (3D coordinates assigned)
Cc1ncccc1NC(=O)Cc1ccc(S(=O)(=O)N2CCOCC2)s1 (nonaromatic ring conformer: 80.84185189141058 kcal/mol)

>  <smiles>  (20) 
Cc1ncccc1NC(=O)Cc1ccc(S(=O)(=O)N2CCOCC2)s1

>  <score_type>  (20) 
oracle

>  <origin>  (20) 
adgpu

>  <m_score__min__energy>  (20) 
-9.6300000000000008

>  <m_primary>  (20) 
energy

$$$$
20:0
     RDKit          3D

 50 52  0  0  0  0  0  0  0  0999 V2000
   -0.6240   18.1190  -27.1180 C   0  0  0  0  0  0  0  0  0  0  0  0
   -1.3070   19.4120  -27.4320 C   0  0  0  0  0  0  0  0  0  0  0  0
   -2.2080   19.8370  -26.6590 O   0  0  0  0  0  0  0  0  0  0  0  0
   -0.8700   20.2020  -28.5490 N   0  0  0  0  0  0  0  0  0  0  0  0
   -1.5470   21.3860  -29.0060 C   0  0  0  0  0  0  0  0  0  0  0  0
   -1.8290   21.5870  -30.3670 C   0  0  0  0  0  0  0  0  0  0  0  0
   -2.4840   22.7460  -30.7900 C   0  0  0  0  0  0  0  0  0  0  0  0
   -2.8450   23.7400  -29.8640 C   0  0  0  0  0  0  0  0  0  0  0  0
   -3.4960   24.9530  -30.2790 N   0  0  0  0  0  0  0  0  0  0  0  0
   -4.9060   25.2150  -30.2970 C   0  0  0  0  0  0  0  0  0  0  0  0
   -5.3600   26.2580  -30.8390 O   0  0  0  0  0  0  0  0  0  0  0  0
   -5.8500   24.3240  -29.5450 C   0  0  0  0  0  0  0  0  0  0  0  0
   -6.4100   23.2300  -30.4170 C   0  0  0  0  0  0  0  0  0  0  0  0
   -7.6170   22.6020  -30.0730 C   0  0  0  0  0  0  0  0  0  0  0  0
   -8.1260   21.5720  -30.8680 C   0  0  0  0  0  0  0  0  0  0  0  0
   -7.4410   21.1610  -32.0200 C   0  0  0  0  0  0  0  0  0  0  0  0
   -7.9730   20.0220  -32.8400 C   0  0  0  0  0  0  0  0  0  0  0  0
   -6.2370   21.7940  -32.3680 C   0  0  0  0  0  0  0  0  0  0  0  0
   -5.7340   22.8320  -31.5810 C   0  0  0  0  0  0  0  0  0  0  0  0
   -2.5840   23.5320  -28.4950 C   0  0  0  0  0  0  0  0  0  0  0  0
   -2.9910   24.5230  -27.4780 C   0  0  0  0  0  0  0  0  0  0  0  0
   -4.2080   24.5820  -27.1550 O   0  0  0  0  0  0  0  0  0  0  0  0
   -2.0200   25.4680  -26.8670 C   0  0  0  0  0  0  0  0  0  0  0  0
   -1.0030   26.0680  -27.6380 C   0  0  0  0  0  0  0  0  0  0  0  0
   -0.1320   26.9990  -27.0620 C   0  0  0  0  0  0  0  0  0  0  0  0
   -0.2670   27.3470  -25.7160 C   0  0  0  0  0  0  0  0  0  0  0  0
   -1.2600   26.7510  -24.9370 C   0  0  0  0  0  0  0  0  0  0  0  0
   -2.1320   25.8180  -25.5070 C   0  0  0  0  0  0  0  0  0  0  0  0
   -1.9110   22.3720  -28.0800 C   0  0  0  0  0  0  0  0  0  0  0  0
   -0.5583   17.9945  -26.0270 H   0  0  0  0  0  0  0  0  0  0  0  0
   -1.1999   17.2863  -27.5480 H   0  0  0  0  0  0  0  0  0  0  0  0
    0.3884   18.1252  -27.5480 H   0  0  0  0  0  0  0  0  0  0  0  0
    0.0520   19.9650  -28.9800 H   0  0  0  0  0  0  0  0  0  0  0  0
   -1.5322   20.8269  -31.1047 H   0  0  0  0  0  0  0  0  0  0  0  0
   -2.7191   22.8819  -31.8560 H   0  0  0  0  0  0  0  0  0  0  0  0
   -5.3108   23.8658  -28.7028 H   0  0  0  0  0  0  0  0  0  0  0  0
   -6.6900   24.9403  -29.1919 H   0  0  0  0  0  0  0  0  0  0  0  0
   -8.1644   22.9219  -29.1741 H   0  0  0  0  0  0  0  0  0  0  0  0
   -9.0697   21.0807  -30.5884 H   0  0  0  0  0  0  0  0  0  0  0  0
   -8.3427   19.2304  -32.1717 H   0  0  0  0  0  0  0  0  0  0  0  0
   -8.7968   20.3805  -33.4746 H   0  0  0  0  0  0  0  0  0  0  0  0
   -7.1693   19.6203  -33.4746 H   0  0  0  0  0  0  0  0  0  0  0  0
   -5.6876   21.4708  -33.2645 H   0  0  0  0  0  0  0  0  0  0  0  0
   -4.8036   23.3402  -31.8746 H   0  0  0  0  0  0  0  0  0  0  0  0
   -0.8938   25.8021  -28.6998 H   0  0  0  0  0  0  0  0  0  0  0  0
    0.6611   27.4581  -27.6705 H   0  0  0  0  0  0  0  0  0  0  0  0
    0.4094   28.0909  -25.2699 H   0  0  0  0  0  0  0  0  0  0  0  0
   -1.3568   27.0154  -23.8737 H   0  0  0  0  0  0  0  0  0  0  0  0
   -2.9129   25.3529  -24.8874 H   0  0  0  0  0  0  0  0  0  0  0  0
   -1.6669   22.2359  -27.0161 H   0  0  0  0  0  0  0  0  0  0  0  0
  1  2  1  0
  2  3  2  0
  2  4  1  0
  4  5  1  0
  5  6  2  0
  6  7  1  0
  7  8  2  0
  8  9  1  0
  9 10  1  0
 10 11  2  0
 10 12  1  0
 12 13  1  0
 13 14  2  0
 14 15  1  0
 15 16  2  0
 16 17  1  0
 16 18  1  0
 18 19  2  0
  8 20  1  0
 20 21  1  0
 21 22  2  0
 21 23  1  0
 23 24  2  0
 24 25  1  0
 25 26  2  0
 26 27  1  0
 27 28  2  0
 20 29  2  0
 29  5  1  0
 19 13  1  0
 28 23  1  0
  1 30  1  0
  1 31  1  0
  1 32  1  0
  4 33  1  0
  6 34  1  0
  7 35  1  0
 12 36  1  0
 12 37  1  0
 14 38  1  0
 15 39  1  0
 17 40  1  0
 17 41  1  0
 17 42  1  0
 18 43  1  0
 19 44  1  0
 24 45  1  0
 25 46  1  0
 26 47  1  0
 27 48  1  0
 28 49  1  0
 29 50  1  0
M  CHG  1   9  -1
M  END
>  <UniqueID>  (21) 
20

>  <SMILES>  (21) 
CC(=O)Nc1ccc([N-]C(=O)Cc2ccc(C)cc2)c(C(=O)c2ccccc2)c1

>  <Energy>  (21) 
59.31674675605203

>  <Genealogy>  (21) 
CC(=O)Nc1ccc([N-]C(=O)Cc2ccc(C)cc2)c(C(=O)c2ccccc2)c1 (protonated)
CC(=O)Nc1ccc([N-]C(=O)Cc2ccc(C)cc2)c(C(=O)c2ccccc2)c1 (3D coordinates assigned)
CC(=O)Nc1ccc([N-]C(=O)Cc2ccc(C)cc2)c(C(=O)c2ccccc2)c1 (optimized conformer: 59.31674675605203 kcal/mol)

>  <smiles>  (21) 
CC(=O)Nc1ccc(NC(=O)Cc2ccc(C)cc2)c(C(=O)c2ccccc2)c1

>  <score_type>  (21) 
oracle

>  <origin>  (21) 
adgpu

>  <m_score__min__energy>  (21) 
-11.390000000000001

>  <m_primary>  (21) 
energy

$$$$
21:0
     RDKit          3D

 50 53  0  0  0  0  0  0  0  0999 V2000
   -7.9035   17.9711  -32.3810 H   0  0  0  0  0  0  0  0  0  0  0  0
   -7.4440   18.9080  -32.0330 C   0  0  0  0  0  0  0  0  0  0  0  0
   -8.0693   19.6934  -31.5835 H   0  0  0  0  0  0  0  0  0  0  0  0
   -6.1190   19.0930  -32.1570 C   0  0  0  0  0  0  0  0  0  0  0  0
   -5.3950   20.2270  -31.7620 C   0  0  0  0  0  0  0  0  0  0  0  0
   -5.8970   21.3620  -31.2270 C   0  0  0  0  0  0  0  0  0  0  0  0
   -6.9894   21.4213  -31.1121 H   0  0  0  0  0  0  0  0  0  0  0  0
   -5.1080   22.5320  -30.7820 C   0  0  0  0  0  0  0  0  0  0  0  0
   -5.1530   23.7690  -31.3220 N   0  0  0  0  0  0  0  0  0  0  0  0
   -4.2450   24.4690  -30.6100 C   0  0  0  0  0  0  0  0  0  0  0  0
   -3.9900   25.6810  -30.8400 O   0  0  0  0  0  0  0  0  0  0  0  0
   -3.6220   23.7410  -29.6560 N   0  0  0  0  0  0  0  0  0  0  0  0
   -2.6060   24.1690  -28.7300 C   0  0  0  0  0  0  0  0  0  0  0  0
   -2.9580   24.6340  -27.4510 C   0  0  0  0  0  0  0  0  0  0  0  0
   -4.0167   24.6717  -27.1548 H   0  0  0  0  0  0  0  0  0  0  0  0
   -1.9690   25.0490  -26.5530 C   0  0  0  0  0  0  0  0  0  0  0  0
   -2.2520   25.4107  -25.5535 H   0  0  0  0  0  0  0  0  0  0  0  0
   -0.6230   25.0050  -26.9230 C   0  0  0  0  0  0  0  0  0  0  0  0
    0.1530   25.3322  -26.2153 H   0  0  0  0  0  0  0  0  0  0  0  0
   -0.2620   24.5450  -28.1930 C   0  0  0  0  0  0  0  0  0  0  0  0
    1.0780   24.5070  -28.5620 O   0  0  0  0  0  0  0  0  0  0  0  0
   -1.2480   24.1290  -29.0940 C   0  0  0  0  0  0  0  0  0  0  0  0
   -0.9597   23.7687  -30.0925 H   0  0  0  0  0  0  0  0  0  0  0  0
   -4.1680   22.5180  -29.7730 C   0  0  0  0  0  0  0  0  0  0  0  0
   -3.8470   21.4250  -28.9750 O   0  0  0  0  0  0  0  0  0  0  0  0
   -4.0610   19.9490  -32.0460 C   0  0  0  0  0  0  0  0  0  0  0  0
   -3.1999   20.6090  -31.8648 H   0  0  0  0  0  0  0  0  0  0  0  0
   -4.0280   18.6850  -32.5990 C   0  0  0  0  0  0  0  0  0  0  0  0
   -2.7800   17.9870  -33.0530 C   0  0  0  0  0  0  0  0  0  0  0  0
   -2.2011   17.6632  -32.1755 H   0  0  0  0  0  0  0  0  0  0  0  0
   -3.0504   17.1091  -33.6582 H   0  0  0  0  0  0  0  0  0  0  0  0
   -2.1735   18.6769  -33.6582 H   0  0  0  0  0  0  0  0  0  0  0  0
   -5.2710   18.1630  -32.6620 N   0  0  0  0  0  0  0  0  0  0  0  0
   -5.6110   16.8680  -33.1900 C   0  0  0  0  0  0  0  0  0  0  0  0
   -6.6870   16.7280  -34.0740 C   0  0  0  0  0  0  0  0  0  0  0  0
   -7.2793   17.6099  -34.3594 H   0  0  0  0  0  0  0  0  0  0  0  0
   -7.0120   15.4750  -34.5950 C   0  0  0  0  0  0  0  0  0  0  0  0
   -7.8608   15.3764  -35.2877 H   0  0  0  0  0  0  0  0  0  0  0  0
   -6.2650   14.3380  -34.2430 C   0  0  0  0  0  0  0  0  0  0  0  0
   -6.6380   13.0000  -34.8260 C   0  0  0  0  0  0  0  0  0  0  0  0
   -6.8366   12.2877  -34.0116 H   0  0  0  0  0  0  0  0  0  0  0  0
   -7.5401   13.1088  -35.4460 H   0  0  0  0  0  0  0  0  0  0  0  0
   -5.8097   12.6265  -35.4460 H   0  0  0  0  0  0  0  0  0  0  0  0
   -5.1670   14.4760  -33.3590 C   0  0  0  0  0  0  0  0  0  0  0  0
   -4.3360   13.2860  -32.9550 C   0  0  0  0  0  0  0  0  0  0  0  0
   -4.2930   13.2244  -31.8576 H   0  0  0  0  0  0  0  0  0  0  0  0
   -4.7905   12.3682  -33.3562 H   0  0  0  0  0  0  0  0  0  0  0  0
   -3.3178   13.3966  -33.3562 H   0  0  0  0  0  0  0  0  0  0  0  0
   -4.8550   15.7420  -32.8370 C   0  0  0  0  0  0  0  0  0  0  0  0
   -4.0081   15.8509  -32.1436 H   0  0  0  0  0  0  0  0  0  0  0  0
  1  2  1  0
  2  3  1  0
  2  4  2  0
  4  5  1  0
  5  6  2  0
  6  7  1  0
  6  8  1  0
  8  9  1  0
  9 10  1  0
 10 11  2  0
 10 12  1  0
 12 13  1  0
 13 14  2  0
 14 15  1  0
 14 16  1  0
 16 17  1  0
 16 18  2  0
 18 19  1  0
 18 20  1  0
 20 21  1  0
 20 22  2  0
 22 23  1  0
 12 24  1  0
 24 25  1  0
  5 26  1  0
 26 27  1  0
 26 28  2  0
 28 29  1  0
 29 30  1  0
 29 31  1  0
 29 32  1  0
 28 33  1  0
 33 34  1  0
 34 35  2  0
 35 36  1  0
 35 37  1  0
 37 38  1  0
 37 39  2  0
 39 40  1  0
 40 41  1  0
 40 42  1  0
 40 43  1  0
 39 44  1  0
 44 45  1  0
 45 46  1  0
 45 47  1  0
 45 48  1  0
 44 49  2  0
 49 50  1  0
 33  4  1  0
 49 34  1  0
 24  8  2  0
 22 13  1  0
M  CHG  3   9  -1  21  -1  25  -1
M  END
>  <UniqueID>  (22) 
21

>  <SMILES>  (22) 
C=c1/c(=C/c2[n-]c(=O)n(-c3cccc([O-])c3)c2[O-])cc(C)n1-c1ccc(C)c(C)c1

>  <Energy>  (22) 
131.00559392564278

>  <Genealogy>  (22) 
C=c1c(=Cc2[n-]c(=O)n(-c3cccc([O-])c3)c2[O-])cc(C)n1-c1ccc(C)c(C)c1 (protonated)
C=c1/c(=C/c2[n-]c(=O)n(-c3cccc([O-])c3)c2[O-])cc(C)n1-c1ccc(C)c(C)c1 (cis-trans isomerization)
C=c1/c(=C/c2[n-]c(=O)n(-c3cccc([O-])c3)c2[O-])cc(C)n1-c1ccc(C)c(C)c1 (3D coordinates assigned)
C=c1/c(=C/c2[n-]c(=O)n(-c3cccc([O-])c3)c2[O-])cc(C)n1-c1ccc(C)c(C)c1 (optimized conformer: 131.00559392564278 kcal/mol)

>  <smiles>  (22) 
C=c1c(=Cc2[nH]c(=O)n(-c3cccc(O)c3)c2O)cc(C)n1-c1ccc(C)c(C)c1

>  <score_type>  (22) 
oracle

>  <origin>  (22) 
adgpu

>  <m_score__min__energy>  (22) 
-11.02

>  <m_primary>  (22) 
energy

$$$$
22:0
     RDKit          3D

 34 35  0  0  0  0  0  0  0  0999 V2000
   -6.3220   15.7050  -34.0800 C   0  0  0  0  0  0  0  0  0  0  0  0
   -6.4270   17.0820  -33.4930 C   0  0  0  0  0  0  0  0  0  0  0  0
   -5.4050   18.0110  -33.6930 C   0  0  0  0  0  0  0  0  0  0  0  0
   -5.5030   19.3150  -33.1820 C   0  0  0  0  0  0  0  0  0  0  0  0
   -4.3570   20.2570  -33.4550 C   0  0  0  0  0  0  0  0  0  0  0  0
   -6.6390   19.6910  -32.4130 C   0  0  0  0  0  0  0  0  0  0  0  0
   -6.7000   21.3040  -31.6400 S   0  0  0  0  0  0  0  0  0  0  0  0
   -6.9190   22.3370  -32.7090 O   0  0  0  0  0  0  0  0  0  0  0  0
   -7.8020   21.4300  -30.6270 O   0  0  0  0  0  0  0  0  0  0  0  0
   -5.2030   21.6440  -30.8260 N   0  0  0  0  0  0  0  0  0  0  0  0
   -4.6810   22.8210  -30.6220 C   0  0  0  0  0  0  0  0  0  0  0  0
   -5.3000   24.0090  -31.0650 C   0  0  0  0  0  0  0  0  0  0  0  0
   -4.6950   25.2400  -30.8050 C   0  0  0  0  0  0  0  0  0  0  0  0
   -3.5180   25.2960  -30.1320 N   0  0  0  0  0  0  0  0  0  0  0  0
   -2.8960   24.1710  -29.6930 C   0  0  0  0  0  0  0  0  0  0  0  0
   -3.4630   22.9150  -29.9270 C   0  0  0  0  0  0  0  0  0  0  0  0
   -2.6360   21.4780  -29.3350 Cl  0  0  0  0  0  0  0  0  0  0  0  0
   -7.7150   18.7650  -32.2880 C   0  0  0  0  0  0  0  0  0  0  0  0
   -9.0070   19.1100  -31.5950 C   0  0  0  0  0  0  0  0  0  0  0  0
   -7.5860   17.4710  -32.8180 C   0  0  0  0  0  0  0  0  0  0  0  0
   -6.2655   14.9640  -33.2690 H   0  0  0  0  0  0  0  0  0  0  0  0
   -7.2073   15.5025  -34.7007 H   0  0  0  0  0  0  0  0  0  0  0  0
   -5.4162   15.6391  -34.7007 H   0  0  0  0  0  0  0  0  0  0  0  0
   -4.5091   17.7171  -34.2596 H   0  0  0  0  0  0  0  0  0  0  0  0
   -3.9334   20.6052  -32.5014 H   0  0  0  0  0  0  0  0  0  0  0  0
   -3.5806   19.7326  -34.0313 H   0  0  0  0  0  0  0  0  0  0  0  0
   -4.7212   21.1202  -34.0313 H   0  0  0  0  0  0  0  0  0  0  0  0
   -6.2534   23.9655  -31.6119 H   0  0  0  0  0  0  0  0  0  0  0  0
   -5.1746   26.1689  -31.1473 H   0  0  0  0  0  0  0  0  0  0  0  0
   -1.9420   24.2488  -29.1510 H   0  0  0  0  0  0  0  0  0  0  0  0
   -8.8605   19.0709  -30.5055 H   0  0  0  0  0  0  0  0  0  0  0  0
   -9.3203   20.1233  -31.8867 H   0  0  0  0  0  0  0  0  0  0  0  0
   -9.7838   18.3878  -31.8867 H   0  0  0  0  0  0  0  0  0  0  0  0
   -8.4106   16.7527  -32.6997 H   0  0  0  0  0  0  0  0  0  0  0  0
  1  2  1  0
  2  3  2  0
  3  4  1  0
  4  5  1  0
  4  6  2  0
  6  7  1  0
  7  8  2  0
  7  9  2  0
  7 10  1  0
 10 11  2  3
 11 12  1  0
 12 13  2  0
 13 14  1  0
 14 15  1  0
 15 16  2  0
 16 17  1  0
  6 18  1  0
 18 19  1  0
 18 20  2  0
 20  2  1  0
 16 11  1  0
  1 21  1  0
  1 22  1  0
  1 23  1  0
  3 24  1  0
  5 25  1  0
  5 26  1  0
  5 27  1  0
 12 28  1  0
 13 29  1  0
 15 30  1  0
 19 31  1  0
 19 32  1  0
 19 33  1  0
 20 34  1  0
M  CHG  1  14  -1
M  END
>  <UniqueID>  (23) 
22

>  <SMILES>  (23) 
Cc1cc(C)c(S(=O)(=O)N=c2cc[n-]cc2Cl)c(C)c1

>  <Energy>  (23) 
45.635892693010234

>  <Genealogy>  (23) 
Cc1cc(C)c(S(=O)(=O)N=c2cc[n-]cc2Cl)c(C)c1 (protonated)
Cc1cc(C)c(S(=O)(=O)N=c2cc[n-]cc2Cl)c(C)c1 (3D coordinates assigned)
Cc1cc(C)c(S(=O)(=O)N=c2cc[n-]cc2Cl)c(C)c1 (optimized conformer: 45.635892693010234 kcal/mol)

>  <smiles>  (23) 
Cc1cc(C)c(S(=O)(=O)N=c2cc[nH]cc2Cl)c(C)c1

>  <score_type>  (23) 
oracle

>  <origin>  (23) 
adgpu

>  <m_score__min__energy>  (23) 
-9.8200000000000003

>  <m_primary>  (23) 
energy

$$$$
23:0
     RDKit          3D

 62 65  0  0  0  0  0  0  0  0999 V2000
   -2.3850   19.2140  -25.7850 C   0  0  0  0  0  0  0  0  0  0  0  0
   -1.4620   19.9740  -26.5610 O   0  0  0  0  0  0  0  0  0  0  0  0
   -1.7470   20.5170  -27.8240 C   0  0  0  0  0  0  0  0  0  0  0  0
   -3.0210   20.4300  -28.4060 C   0  0  0  0  0  0  0  0  0  0  0  0
   -3.2630   20.9800  -29.6670 C   0  0  0  0  0  0  0  0  0  0  0  0
   -2.2500   21.6540  -30.3560 C   0  0  0  0  0  0  0  0  0  0  0  0
   -2.5660   22.2460  -31.6230 N   0  0  0  0  0  0  0  0  0  0  0  0
   -3.8840   21.7660  -32.6400 S   0  0  0  0  0  0  0  0  0  0  0  0
   -3.6690   20.3500  -33.0960 O   0  0  0  0  0  0  0  0  0  0  0  0
   -3.8920   22.6580  -33.8510 O   0  0  0  0  0  0  0  0  0  0  0  0
   -5.4350   21.8770  -31.7840 C   0  0  0  0  0  0  0  0  0  0  0  0
   -6.2620   20.7420  -31.7840 C   0  0  0  0  0  0  0  0  0  0  0  0
   -7.5420   20.7850  -31.2290 C   0  0  0  0  0  0  0  0  0  0  0  0
   -8.0080   21.9620  -30.6460 C   0  0  0  0  0  0  0  0  0  0  0  0
   -7.1970   23.0970  -30.6170 C   0  0  0  0  0  0  0  0  0  0  0  0
   -5.9020   23.0720  -31.1700 C   0  0  0  0  0  0  0  0  0  0  0  0
   -5.1250   24.3290  -31.1550 C   0  0  0  0  0  0  0  0  0  0  0  0
   -5.6640   25.3800  -31.5910 O   0  0  0  0  0  0  0  0  0  0  0  0
   -3.7730   24.3960  -30.6890 N   0  0  0  0  0  0  0  0  0  0  0  0
   -3.3380   24.4680  -29.3240 C   0  0  0  0  0  0  0  0  0  0  0  0
   -4.2990   24.4020  -28.3060 C   0  0  0  0  0  0  0  0  0  0  0  0
   -3.9150   24.4610  -26.9650 C   0  0  0  0  0  0  0  0  0  0  0  0
   -2.5620   24.5380  -26.6290 C   0  0  0  0  0  0  0  0  0  0  0  0
   -1.5860   24.5500  -27.6330 C   0  0  0  0  0  0  0  0  0  0  0  0
    0.1200   24.5850  -27.1870 S   0  0  0  0  0  0  0  0  0  0  0  0
    0.9630   24.2180  -28.3790 O   0  0  0  0  0  0  0  0  0  0  0  0
    0.3490   23.5560  -26.1140 O   0  0  0  0  0  0  0  0  0  0  0  0
    0.5750   26.1630  -26.5750 N   0  0  0  0  0  0  0  0  0  0  0  0
    1.0840   26.0980  -25.1910 C   0  0  0  0  0  0  0  0  0  0  0  0
   -0.0290   25.8330  -24.1630 C   0  0  0  0  0  0  0  0  0  0  0  0
   -1.3380   26.5890  -24.4720 C   0  0  0  0  0  0  0  0  0  0  0  0
   -1.1220   27.7140  -25.4820 C   0  0  0  0  0  0  0  0  0  0  0  0
   -0.4940   27.1710  -26.7860 C   0  0  0  0  0  0  0  0  0  0  0  0
   -1.9760   24.5280  -28.9830 C   0  0  0  0  0  0  0  0  0  0  0  0
   -0.9760   21.7630  -29.7720 C   0  0  0  0  0  0  0  0  0  0  0  0
   -0.7240   21.1830  -28.5240 C   0  0  0  0  0  0  0  0  0  0  0  0
    0.5630   21.2880  -27.9900 O   0  0  0  0  0  0  0  0  0  0  0  0
   -2.1866   19.3774  -24.7155 H   0  0  0  0  0  0  0  0  0  0  0  0
   -3.4113   19.5324  -26.0203 H   0  0  0  0  0  0  0  0  0  0  0  0
   -2.2695   18.1457  -26.0203 H   0  0  0  0  0  0  0  0  0  0  0  0
   -3.8350   19.9250  -27.8652 H   0  0  0  0  0  0  0  0  0  0  0  0
   -4.2596   20.8820  -30.1222 H   0  0  0  0  0  0  0  0  0  0  0  0
   -5.8955   19.8048  -32.2282 H   0  0  0  0  0  0  0  0  0  0  0  0
   -8.1823   19.8908  -31.2517 H   0  0  0  0  0  0  0  0  0  0  0  0
   -9.0165   21.9962  -30.2081 H   0  0  0  0  0  0  0  0  0  0  0  0
   -7.5736   24.0224  -30.1567 H   0  0  0  0  0  0  0  0  0  0  0  0
   -5.3634   24.3030  -28.5654 H   0  0  0  0  0  0  0  0  0  0  0  0
   -4.6784   24.4468  -26.1732 H   0  0  0  0  0  0  0  0  0  0  0  0
   -2.2618   24.5894  -25.5720 H   0  0  0  0  0  0  0  0  0  0  0  0
    1.8243   25.2870  -25.1257 H   0  0  0  0  0  0  0  0  0  0  0  0
    1.5304   27.0750  -24.9541 H   0  0  0  0  0  0  0  0  0  0  0  0
   -0.2434   24.7542  -24.1509 H   0  0  0  0  0  0  0  0  0  0  0  0
    0.3339   26.1945  -23.1895 H   0  0  0  0  0  0  0  0  0  0  0  0
   -2.0705   25.8784  -24.8826 H   0  0  0  0  0  0  0  0  0  0  0  0
   -1.7016   27.0372  -23.5356 H   0  0  0  0  0  0  0  0  0  0  0  0
   -2.0909   28.1795  -25.7154 H   0  0  0  0  0  0  0  0  0  0  0  0
   -0.4364   28.4538  -25.0430 H   0  0  0  0  0  0  0  0  0  0  0  0
   -1.2913   26.7074  -27.3854 H   0  0  0  0  0  0  0  0  0  0  0  0
   -0.0239   28.0282  -27.2902 H   0  0  0  0  0  0  0  0  0  0  0  0
   -1.2131   24.5578  -29.7749 H   0  0  0  0  0  0  0  0  0  0  0  0
   -0.1758   22.3052  -30.2971 H   0  0  0  0  0  0  0  0  0  0  0  0
    0.9300   22.1710  -27.6510 H   0  0  0  0  0  0  0  0  0  0  0  0
  1  2  1  0
  2  3  1  0
  3  4  2  0
  4  5  1  0
  5  6  2  0
  6  7  1  0
  7  8  1  0
  8  9  2  0
  8 10  2  0
  8 11  1  0
 11 12  2  0
 12 13  1  0
 13 14  2  0
 14 15  1  0
 15 16  2  0
 16 17  1  0
 17 18  2  0
 17 19  1  0
 19 20  1  0
 20 21  2  0
 21 22  1  0
 22 23  2  0
 23 24  1  0
 24 25  1  0
 25 26  2  0
 25 27  2  0
 25 28  1  0
 28 29  1  0
 29 30  1  0
 30 31  1  0
 31 32  1  0
 32 33  1  0
 24 34  2  0
  6 35  1  0
 35 36  2  0
 36 37  1  0
 36  3  1  0
 16 11  1  0
 34 20  1  0
 33 28  1  0
  1 38  1  0
  1 39  1  0
  1 40  1  0
  4 41  1  0
  5 42  1  0
 12 43  1  0
 13 44  1  0
 14 45  1  0
 15 46  1  0
 21 47  1  0
 22 48  1  0
 23 49  1  0
 29 50  1  0
 29 51  1  0
 30 52  1  0
 30 53  1  0
 31 54  1  0
 31 55  1  0
 32 56  1  0
 32 57  1  0
 33 58  1  0
 33 59  1  0
 34 60  1  0
 35 61  1  0
 37 62  1  0
M  CHG  2   7  -1  19  -1
M  END
>  <UniqueID>  (24) 
23

>  <SMILES>  (24) 
COc1ccc([N-]S(=O)(=O)c2ccccc2C(=O)[N-]c2cccc(S(=O)(=O)N3CCCCC3)c2)cc1O

>  <Energy>  (24) 
82.96748179840617

>  <Genealogy>  (24) 
COc1ccc([N-]S(=O)(=O)c2ccccc2C(=O)[N-]c2cccc(S(=O)(=O)N3CCCCC3)c2)cc1O (protonated)
COc1ccc([N-]S(=O)(=O)c2ccccc2C(=O)[N-]c2cccc(S(=O)(=O)N3CCCCC3)c2)cc1O (3D coordinates assigned)
COc1ccc([N-]S(=O)(=O)c2ccccc2C(=O)[N-]c2cccc(S(=O)(=O)N3CCCCC3)c2)cc1O (nonaromatic ring conformer: 82.96748179840617 kcal/mol)

>  <smiles>  (24) 
COc1ccc(NS(=O)(=O)c2ccccc2C(=O)Nc2cccc(S(=O)(=O)N3CCCCC3)c2)cc1O

>  <score_type>  (24) 
oracle

>  <origin>  (24) 
adgpu

>  <m_score__min__energy>  (24) 
-11.869999999999999

>  <m_primary>  (24) 
energy

$$$$
24:0
     RDKit          3D

 49 51  0  0  0  0  0  0  0  0999 V2000
   -9.0820   18.1880  -31.2990 C   0  0  0  0  0  0  0  0  0  0  0  0
   -7.8870   18.5590  -32.1370 C   0  0  0  0  0  0  0  0  0  0  0  0
   -6.7900   17.6810  -32.2230 C   0  0  0  0  0  0  0  0  0  0  0  0
   -5.6650   18.0210  -32.9800 C   0  0  0  0  0  0  0  0  0  0  0  0
   -5.6200   19.2410  -33.6540 C   0  0  0  0  0  0  0  0  0  0  0  0
   -6.7120   20.1130  -33.5990 C   0  0  0  0  0  0  0  0  0  0  0  0
   -7.8570   19.7800  -32.8470 C   0  0  0  0  0  0  0  0  0  0  0  0
   -8.9980   20.6570  -32.7820 N   0  0  0  0  0  0  0  0  0  0  0  0
   -9.1050   22.1010  -31.8280 S   0  0  0  0  0  0  0  0  0  0  0  0
   -9.8440   21.8040  -30.5530 O   0  0  0  0  0  0  0  0  0  0  0  0
   -9.8590   23.1540  -32.5940 O   0  0  0  0  0  0  0  0  0  0  0  0
   -7.4830   22.6530  -31.4340 C   0  0  0  0  0  0  0  0  0  0  0  0
   -7.0790   22.7850  -30.0960 C   0  0  0  0  0  0  0  0  0  0  0  0
   -5.8280   23.3270  -29.7930 C   0  0  0  0  0  0  0  0  0  0  0  0
   -4.9790   23.7600  -30.8230 C   0  0  0  0  0  0  0  0  0  0  0  0
   -3.7180   24.3730  -30.5320 N   0  0  0  0  0  0  0  0  0  0  0  0
   -2.9850   24.2320  -29.3060 C   0  0  0  0  0  0  0  0  0  0  0  0
   -3.5670   24.4900  -28.2200 O   0  0  0  0  0  0  0  0  0  0  0  0
   -1.5980   23.6450  -29.2660 C   0  0  0  0  0  0  0  0  0  0  0  0
   -0.7550   24.3850  -28.2680 C   0  0  0  0  0  0  0  0  0  0  0  0
   -0.6030   25.7560  -28.1820 C   0  0  0  0  0  0  0  0  0  0  0  0
   -1.2390   26.7020  -28.9770 O   0  0  0  0  0  0  0  0  0  0  0  0
    0.2530   26.0520  -27.1840 N   0  0  0  0  0  0  0  0  0  0  0  0
    0.6220   27.3780  -26.6980 C   0  0  0  0  0  0  0  0  0  0  0  0
    0.5890   24.8560  -26.6580 C   0  0  0  0  0  0  0  0  0  0  0  0
    1.3420   24.7210  -25.6540 O   0  0  0  0  0  0  0  0  0  0  0  0
    0.0160   23.8180  -27.3110 N   0  0  0  0  0  0  0  0  0  0  0  0
    0.0950   22.4020  -26.9570 C   0  0  0  0  0  0  0  0  0  0  0  0
   -5.3530   23.5580  -32.1590 C   0  0  0  0  0  0  0  0  0  0  0  0
   -6.6070   23.0220  -32.4640 C   0  0  0  0  0  0  0  0  0  0  0  0
   -8.8218   18.2688  -30.2333 H   0  0  0  0  0  0  0  0  0  0  0  0
   -9.9148   18.8699  -31.5258 H   0  0  0  0  0  0  0  0  0  0  0  0
   -9.3822   17.1544  -31.5258 H   0  0  0  0  0  0  0  0  0  0  0  0
   -6.8183   16.7192  -31.6900 H   0  0  0  0  0  0  0  0  0  0  0  0
   -4.8149   17.3259  -33.0440 H   0  0  0  0  0  0  0  0  0  0  0  0
   -4.7245   19.5178  -34.2296 H   0  0  0  0  0  0  0  0  0  0  0  0
   -6.6772   21.0662  -34.1468 H   0  0  0  0  0  0  0  0  0  0  0  0
   -7.7484   22.4612  -29.2854 H   0  0  0  0  0  0  0  0  0  0  0  0
   -5.5074   23.4147  -28.7444 H   0  0  0  0  0  0  0  0  0  0  0  0
   -1.6592   22.5855  -28.9766 H   0  0  0  0  0  0  0  0  0  0  0  0
   -1.1397   23.7342  -30.2620 H   0  0  0  0  0  0  0  0  0  0  0  0
    0.6221   27.3784  -25.5980 H   0  0  0  0  0  0  0  0  0  0  0  0
    1.6262   27.6366  -27.0649 H   0  0  0  0  0  0  0  0  0  0  0  0
   -0.1043   28.1182  -27.0649 H   0  0  0  0  0  0  0  0  0  0  0  0
    0.1008   22.2976  -25.8620 H   0  0  0  0  0  0  0  0  0  0  0  0
   -0.7749   21.8714  -27.3713 H   0  0  0  0  0  0  0  0  0  0  0  0
    1.0186   21.9714  -27.3713 H   0  0  0  0  0  0  0  0  0  0  0  0
   -4.6575   23.8221  -32.9693 H   0  0  0  0  0  0  0  0  0  0  0  0
   -6.9070   22.8895  -33.5140 H   0  0  0  0  0  0  0  0  0  0  0  0
  1  2  1  0
  2  3  2  0
  3  4  1  0
  4  5  2  0
  5  6  1  0
  6  7  2  0
  7  8  1  0
  8  9  1  0
  9 10  2  0
  9 11  2  0
  9 12  1  0
 12 13  2  0
 13 14  1  0
 14 15  2  0
 15 16  1  0
 16 17  1  0
 17 18  2  0
 17 19  1  0
 19 20  1  0
 20 21  2  0
 21 22  1  0
 21 23  1  0
 23 24  1  0
 23 25  1  0
 25 26  2  0
 25 27  1  0
 27 28  1  0
 15 29  1  0
 29 30  2  0
  7  2  1  0
 30 12  1  0
 27 20  1  0
  1 31  1  0
  1 32  1  0
  1 33  1  0
  3 34  1  0
  4 35  1  0
  5 36  1  0
  6 37  1  0
 13 38  1  0
 14 39  1  0
 19 40  1  0
 19 41  1  0
 24 42  1  0
 24 43  1  0
 24 44  1  0
 28 45  1  0
 28 46  1  0
 28 47  1  0
 29 48  1  0
 30 49  1  0
M  CHG  3   8  -1  16  -1  22  -1
M  END
>  <UniqueID>  (25) 
24

>  <SMILES>  (25) 
Cc1ccccc1[N-]S(=O)(=O)c1ccc([N-]C(=O)Cc2c([O-])n(C)c(=O)n2C)cc1

>  <Energy>  (25) 
90.91648817265924

>  <Genealogy>  (25) 
Cc1ccccc1[N-]S(=O)(=O)c1ccc([N-]C(=O)Cc2c([O-])n(C)c(=O)n2C)cc1 (protonated)
Cc1ccccc1[N-]S(=O)(=O)c1ccc([N-]C(=O)Cc2c([O-])n(C)c(=O)n2C)cc1 (3D coordinates assigned)
Cc1ccccc1[N-]S(=O)(=O)c1ccc([N-]C(=O)Cc2c([O-])n(C)c(=O)n2C)cc1 (optimized conformer: 90.91648817265924 kcal/mol)

>  <smiles>  (25) 
Cc1ccccc1NS(=O)(=O)c1ccc(NC(=O)Cc2c(O)n(C)c(=O)n2C)cc1

>  <score_type>  (25) 
oracle

>  <origin>  (25) 
adgpu

>  <m_score__min__energy>  (25) 
-12.65

>  <m_primary>  (25) 
energy

$$$$
25:0
     RDKit          3D

 46 49  0  0  0  0  0  0  0  0999 V2000
   -6.1570   19.4120  -34.4610 O   0  0  0  0  0  0  0  0  0  0  0  0
   -5.5360   19.4730  -33.3650 C   0  0  0  0  0  0  0  0  0  0  0  0
   -4.9140   18.2930  -32.8210 N   0  0  0  0  0  0  0  0  0  0  0  0
   -5.0160   16.9860  -33.4110 C   0  0  0  0  0  0  0  0  0  0  0  0
   -3.8410   16.2750  -33.7120 C   0  0  0  0  0  0  0  0  0  0  0  0
   -3.9080   14.9960  -34.2750 C   0  0  0  0  0  0  0  0  0  0  0  0
   -5.1510   14.4120  -34.5290 C   0  0  0  0  0  0  0  0  0  0  0  0
   -6.3270   15.0890  -34.1820 C   0  0  0  0  0  0  0  0  0  0  0  0
   -6.2640   16.3720  -33.6310 C   0  0  0  0  0  0  0  0  0  0  0  0
   -7.5600   14.4610  -34.3920 O   0  0  0  0  0  0  0  0  0  0  0  0
   -7.6360   13.0660  -34.6940 C   0  0  0  0  0  0  0  0  0  0  0  0
   -6.4870   12.6590  -35.6270 C   0  0  0  0  0  0  0  0  0  0  0  0
   -5.2420   13.1490  -35.1220 O   0  0  0  0  0  0  0  0  0  0  0  0
   -5.4480   20.7760  -32.6660 C   0  0  0  0  0  0  0  0  0  0  0  0
   -6.5740   21.6090  -32.5260 C   0  0  0  0  0  0  0  0  0  0  0  0
   -6.4740   22.8280  -31.8500 C   0  0  0  0  0  0  0  0  0  0  0  0
   -5.2530   23.2310  -31.2980 C   0  0  0  0  0  0  0  0  0  0  0  0
   -5.1470   24.7620  -30.4350 S   0  0  0  0  0  0  0  0  0  0  0  0
   -5.7630   25.8730  -31.2380 O   0  0  0  0  0  0  0  0  0  0  0  0
   -5.8830   24.6370  -29.1320 O   0  0  0  0  0  0  0  0  0  0  0  0
   -3.4860   25.1470  -30.1160 N   0  0  0  0  0  0  0  0  0  0  0  0
   -2.6600   24.5000  -29.1390 C   0  0  0  0  0  0  0  0  0  0  0  0
   -3.1050   23.3900  -28.3960 C   0  0  0  0  0  0  0  0  0  0  0  0
   -2.2670   22.7970  -27.4470 C   0  0  0  0  0  0  0  0  0  0  0  0
   -0.9810   23.3010  -27.2350 C   0  0  0  0  0  0  0  0  0  0  0  0
   -0.5320   24.4010  -27.9700 C   0  0  0  0  0  0  0  0  0  0  0  0
   -1.3700   24.9980  -28.9180 C   0  0  0  0  0  0  0  0  0  0  0  0
   -4.1290   22.4060  -31.4280 C   0  0  0  0  0  0  0  0  0  0  0  0
   -4.2280   21.1850  -32.1000 C   0  0  0  0  0  0  0  0  0  0  0  0
   -4.3060   18.3840  -31.9780 H   0  0  0  0  0  0  0  0  0  0  0  0
   -2.8607   16.7282  -33.5031 H   0  0  0  0  0  0  0  0  0  0  0  0
   -2.9835   14.4514  -34.5171 H   0  0  0  0  0  0  0  0  0  0  0  0
   -7.1910   16.9030  -33.3688 H   0  0  0  0  0  0  0  0  0  0  0  0
   -7.5671   12.4884  -33.7604 H   0  0  0  0  0  0  0  0  0  0  0  0
   -8.5934   12.8602  -35.1950 H   0  0  0  0  0  0  0  0  0  0  0  0
   -6.4451   11.5619  -35.6942 H   0  0  0  0  0  0  0  0  0  0  0  0
   -6.6644   13.0904  -36.6232 H   0  0  0  0  0  0  0  0  0  0  0  0
   -7.5395   21.2982  -32.9517 H   0  0  0  0  0  0  0  0  0  0  0  0
   -7.3591   23.4736  -31.7514 H   0  0  0  0  0  0  0  0  0  0  0  0
   -4.1153   22.9880  -28.5627 H   0  0  0  0  0  0  0  0  0  0  0  0
   -2.6205   21.9323  -26.8662 H   0  0  0  0  0  0  0  0  0  0  0  0
   -0.3223   22.8317  -26.4895 H   0  0  0  0  0  0  0  0  0  0  0  0
    0.4804   24.7977  -27.8034 H   0  0  0  0  0  0  0  0  0  0  0  0
   -1.0131   25.8646  -29.4938 H   0  0  0  0  0  0  0  0  0  0  0  0
   -3.1656   22.7200  -30.9999 H   0  0  0  0  0  0  0  0  0  0  0  0
   -3.3429   20.5377  -32.1870 H   0  0  0  0  0  0  0  0  0  0  0  0
  1  2  2  0
  2  3  1  0
  3  4  1  0
  4  5  2  0
  5  6  1  0
  6  7  2  0
  7  8  1  0
  8  9  2  0
  8 10  1  0
 10 11  1  0
 11 12  1  0
 12 13  1  0
  2 14  1  0
 14 15  2  0
 15 16  1  0
 16 17  2  0
 17 18  1  0
 18 19  2  0
 18 20  2  0
 18 21  1  0
 21 22  1  0
 22 23  2  0
 23 24  1  0
 24 25  2  0
 25 26  1  0
 26 27  2  0
 17 28  1  0
 28 29  2  0
  9  4  1  0
 29 14  1  0
 13  7  1  0
 27 22  1  0
  3 30  1  0
  5 31  1  0
  6 32  1  0
  9 33  1  0
 11 34  1  0
 11 35  1  0
 12 36  1  0
 12 37  1  0
 15 38  1  0
 16 39  1  0
 23 40  1  0
 24 41  1  0
 25 42  1  0
 26 43  1  0
 27 44  1  0
 28 45  1  0
 29 46  1  0
M  CHG  1  21  -1
M  END
>  <UniqueID>  (26) 
25

>  <SMILES>  (26) 
O=C(Nc1ccc2c(c1)OCCO2)c1ccc(S(=O)(=O)[N-]c2ccccc2)cc1

>  <Energy>  (26) 
61.12653228054721

>  <Genealogy>  (26) 
O=C(Nc1ccc2c(c1)OCCO2)c1ccc(S(=O)(=O)[N-]c2ccccc2)cc1 (protonated)
O=C(Nc1ccc2c(c1)OCCO2)c1ccc(S(=O)(=O)[N-]c2ccccc2)cc1 (3D coordinates assigned)
O=C(Nc1ccc2c(c1)OCCO2)c1ccc(S(=O)(=O)[N-]c2ccccc2)cc1 (nonaromatic ring conformer: 61.12653228054721 kcal/mol)

>  <smiles>  (26) 
O=C(Nc1ccc2c(c1)OCCO2)c1ccc(S(=O)(=O)Nc2ccccc2)cc1

>  <score_type>  (26) 
oracle

>  <origin>  (26) 
adgpu

>  <m_score__min__energy>  (26) 
-9.4800000000000004

>  <m_primary>  (26) 
energy

$$$$
26:0
     RDKit          3D

 46 49  0  0  0  0  0  0  0  0999 V2000
   -6.0070   18.0470  -34.2570 C   0  0  0  0  0  0  0  0  0  0  0  0
   -5.9260   19.1460  -33.2290 C   0  0  0  0  0  0  0  0  0  0  0  0
   -7.0710   19.6000  -32.5240 C   0  0  0  0  0  0  0  0  0  0  0  0
   -8.4370   18.9940  -32.7220 C   0  0  0  0  0  0  0  0  0  0  0  0
   -9.4740   20.0080  -32.5030 C   0  0  0  0  0  0  0  0  0  0  0  0
  -10.2910   20.8090  -32.3310 N   0  0  0  0  0  0  0  0  0  0  0  0
   -6.9010   20.6250  -31.5630 C   0  0  0  0  0  0  0  0  0  0  0  0
   -5.6780   21.1840  -31.3450 N   0  0  0  0  0  0  0  0  0  0  0  0
   -4.6220   20.7480  -32.0700 C   0  0  0  0  0  0  0  0  0  0  0  0
   -3.3070   21.1550  -31.9900 C   0  0  0  0  0  0  0  0  0  0  0  0
   -2.7320   22.1280  -31.0370 C   0  0  0  0  0  0  0  0  0  0  0  0
   -1.4310   21.9480  -30.5420 C   0  0  0  0  0  0  0  0  0  0  0  0
   -0.8820   22.8700  -29.6460 C   0  0  0  0  0  0  0  0  0  0  0  0
   -1.6220   23.9900  -29.2440 C   0  0  0  0  0  0  0  0  0  0  0  0
   -0.9400   25.1410  -28.1010 S   0  0  0  0  0  0  0  0  0  0  0  0
   -1.7020   24.9140  -26.5100 C   0  0  0  0  0  0  0  0  0  0  0  0
    0.5430   24.9270  -27.9830 O   0  0  0  0  0  0  0  0  0  0  0  0
   -1.1880   26.5420  -28.5820 O   0  0  0  0  0  0  0  0  0  0  0  0
   -2.9190   24.1760  -29.7400 C   0  0  0  0  0  0  0  0  0  0  0  0
   -3.4680   23.2550  -30.6360 C   0  0  0  0  0  0  0  0  0  0  0  0
   -2.6610   20.3340  -32.9260 C   0  0  0  0  0  0  0  0  0  0  0  0
   -1.2360   20.3600  -33.3160 C   0  0  0  0  0  0  0  0  0  0  0  0
   -0.8010   21.2450  -34.3140 C   0  0  0  0  0  0  0  0  0  0  0  0
    0.5500   21.2760  -34.6680 C   0  0  0  0  0  0  0  0  0  0  0  0
    1.4400   20.4650  -34.0380 N   0  0  0  0  0  0  0  0  0  0  0  0
    1.0520   19.6120  -33.0550 C   0  0  0  0  0  0  0  0  0  0  0  0
   -0.2890   19.5490  -32.6680 C   0  0  0  0  0  0  0  0  0  0  0  0
   -3.5590   19.4950  -33.4980 N   0  0  0  0  0  0  0  0  0  0  0  0
   -4.7410   19.7630  -32.9660 N   0  0  0  0  0  0  0  0  0  0  0  0
   -6.0787   17.0741  -33.7488 H   0  0  0  0  0  0  0  0  0  0  0  0
   -6.8964   18.1984  -34.8863 H   0  0  0  0  0  0  0  0  0  0  0  0
   -5.1050   18.0664  -34.8863 H   0  0  0  0  0  0  0  0  0  0  0  0
   -8.5179   18.6064  -33.7483 H   0  0  0  0  0  0  0  0  0  0  0  0
   -8.5759   18.1750  -32.0009 H   0  0  0  0  0  0  0  0  0  0  0  0
   -7.7684   20.9751  -30.9841 H   0  0  0  0  0  0  0  0  0  0  0  0
   -0.8401   21.0767  -30.8608 H   0  0  0  0  0  0  0  0  0  0  0  0
    0.1346   22.7157  -29.2551 H   0  0  0  0  0  0  0  0  0  0  0  0
   -0.9700   25.1321  -25.7184 H   0  0  0  0  0  0  0  0  0  0  0  0
   -2.5601   25.5955  -26.4138 H   0  0  0  0  0  0  0  0  0  0  0  0
   -2.0472   23.8740  -26.4138 H   0  0  0  0  0  0  0  0  0  0  0  0
   -3.5071   25.0499  -29.4230 H   0  0  0  0  0  0  0  0  0  0  0  0
   -4.4828   23.4136  -31.0297 H   0  0  0  0  0  0  0  0  0  0  0  0
   -1.5195   21.9105  -34.8148 H   0  0  0  0  0  0  0  0  0  0  0  0
    0.8943   21.9587  -35.4588 H   0  0  0  0  0  0  0  0  0  0  0  0
    1.7958   18.9688  -32.5620 H   0  0  0  0  0  0  0  0  0  0  0  0
   -0.6013   18.8692  -31.8616 H   0  0  0  0  0  0  0  0  0  0  0  0
  1  2  1  0
  2  3  2  0
  3  4  1  0
  4  5  1  0
  5  6  3  0
  3  7  1  0
  7  8  2  0
  8  9  1  0
  9 10  2  0
 10 11  1  0
 11 12  2  0
 12 13  1  0
 13 14  2  0
 14 15  1  0
 15 16  1  0
 15 17  2  0
 15 18  2  0
 14 19  1  0
 19 20  2  0
 10 21  1  0
 21 22  1  0
 22 23  2  0
 23 24  1  0
 24 25  2  0
 25 26  1  0
 26 27  2  0
 21 28  2  0
 28 29  1  0
 29  2  1  0
 29  9  1  0
 20 11  1  0
 27 22  1  0
  1 30  1  0
  1 31  1  0
  1 32  1  0
  4 33  1  0
  4 34  1  0
  7 35  1  0
 12 36  1  0
 13 37  1  0
 16 38  1  0
 16 39  1  0
 16 40  1  0
 19 41  1  0
 20 42  1  0
 23 43  1  0
 24 44  1  0
 26 45  1  0
 27 46  1  0
M  END
>  <UniqueID>  (27) 
26

>  <SMILES>  (27) 
Cc1c(CC#N)cnc2c(-c3ccc(S(C)(=O)=O)cc3)c(-c3ccncc3)nn12

>  <Energy>  (27) 
92.93065501035278

>  <Genealogy>  (27) 
Cc1c(CC#N)cnc2c(-c3ccc(S(C)(=O)=O)cc3)c(-c3ccncc3)nn12 (3D coordinates assigned)
Cc1c(CC#N)cnc2c(-c3ccc(S(C)(=O)=O)cc3)c(-c3ccncc3)nn12 (optimized conformer: 92.93065501035278 kcal/mol)

>  <smiles>  (27) 
Cc1c(CC#N)cnc2c(-c3ccc(S(C)(=O)=O)cc3)c(-c3ccncc3)nn12

>  <score_type>  (27) 
oracle

>  <origin>  (27) 
adgpu

>  <m_score__min__energy>  (27) 
-9.1899999999999995

>  <m_primary>  (27) 
energy

$$$$
27:0
     RDKit          3D

 30 31  0  0  0  0  0  0  0  0999 V2000
   -2.3960   19.8220  -27.1910 C   0  0  0  0  0  0  0  0  0  0  0  0
   -1.7250   20.8600  -28.5260 S   0  0  0  0  0  0  0  0  0  0  0  0
   -1.2890   22.2040  -27.4170 C   0  0  0  0  0  0  0  0  0  0  0  0
   -0.8210   21.9250  -26.1720 N   0  0  0  0  0  0  0  0  0  0  0  0
   -0.5780   23.4000  -25.4540 S   0  0  0  0  0  0  0  0  0  0  0  0
   -1.0560   24.4140  -26.6820 C   0  0  0  0  0  0  0  0  0  0  0  0
   -1.0160   26.2080  -26.6030 S   0  0  0  0  0  0  0  0  0  0  0  0
   -1.2360   26.2500  -24.8000 C   0  0  0  0  0  0  0  0  0  0  0  0
   -1.4320   23.5850  -27.7430 C   0  0  0  0  0  0  0  0  0  0  0  0
   -1.9210   24.0890  -29.0470 C   0  0  0  0  0  0  0  0  0  0  0  0
   -1.7830   25.3060  -29.3440 O   0  0  0  0  0  0  0  0  0  0  0  0
   -2.5930   23.2080  -29.9530 N   0  0  0  0  0  0  0  0  0  0  0  0
   -3.9820   23.2750  -30.3030 C   0  0  0  0  0  0  0  0  0  0  0  0
   -4.7170   22.0840  -30.3520 C   0  0  0  0  0  0  0  0  0  0  0  0
   -6.0730   22.1020  -30.6950 C   0  0  0  0  0  0  0  0  0  0  0  0
   -6.6990   23.3110  -31.0070 C   0  0  0  0  0  0  0  0  0  0  0  0
   -5.9670   24.5010  -30.9930 C   0  0  0  0  0  0  0  0  0  0  0  0
   -4.6050   24.4910  -30.6580 C   0  0  0  0  0  0  0  0  0  0  0  0
   -3.8690   25.6750  -30.7100 O   0  0  0  0  0  0  0  0  0  0  0  0
   -2.1181   20.2519  -26.2174 H   0  0  0  0  0  0  0  0  0  0  0  0
   -3.4921   19.7808  -27.2742 H   0  0  0  0  0  0  0  0  0  0  0  0
   -1.9835   18.8057  -27.2742 H   0  0  0  0  0  0  0  0  0  0  0  0
   -0.2695   26.0655  -24.3083 H   0  0  0  0  0  0  0  0  0  0  0  0
   -1.6174   27.2372  -24.5001 H   0  0  0  0  0  0  0  0  0  0  0  0
   -1.9543   25.4728  -24.5001 H   0  0  0  0  0  0  0  0  0  0  0  0
   -4.2248   21.1282  -30.1193 H   0  0  0  0  0  0  0  0  0  0  0  0
   -6.6465   21.1637  -30.7190 H   0  0  0  0  0  0  0  0  0  0  0  0
   -7.7685   23.3263  -31.2638 H   0  0  0  0  0  0  0  0  0  0  0  0
   -6.4613   25.4505  -31.2460 H   0  0  0  0  0  0  0  0  0  0  0  0
   -2.8610   25.6700  -30.8180 H   0  0  0  0  0  0  0  0  0  0  0  0
  1  2  1  0
  2  3  1  0
  3  4  2  0
  4  5  1  0
  5  6  1  0
  6  7  1  0
  7  8  1  0
  6  9  2  0
  9 10  1  0
 10 11  2  0
 10 12  1  0
 12 13  1  0
 13 14  2  0
 14 15  1  0
 15 16  2  0
 16 17  1  0
 17 18  2  0
 18 19  1  0
  9  3  1  0
 18 13  1  0
  1 20  1  0
  1 21  1  0
  1 22  1  0
  8 23  1  0
  8 24  1  0
  8 25  1  0
 14 26  1  0
 15 27  1  0
 16 28  1  0
 17 29  1  0
 19 30  1  0
M  CHG  1  12  -1
M  END
>  <UniqueID>  (28) 
27

>  <SMILES>  (28) 
CSc1nsc(SC)c1C(=O)[N-]c1ccccc1O

>  <Energy>  (28) 
62.20087435500687

>  <Genealogy>  (28) 
CSc1nsc(SC)c1C(=O)[N-]c1ccccc1O (protonated)
CSc1nsc(SC)c1C(=O)[N-]c1ccccc1O (3D coordinates assigned)
CSc1nsc(SC)c1C(=O)[N-]c1ccccc1O (optimized conformer: 62.20087435500687 kcal/mol)

>  <smiles>  (28) 
CSc1nsc(SC)c1C(=O)Nc1ccccc1O

>  <score_type>  (28) 
oracle

>  <origin>  (28) 
adgpu

>  <m_score__min__energy>  (28) 
-8.4199999999999999

>  <m_primary>  (28) 
energy

$$$$
28:0
     RDKit          3D

 52 54  0  0  0  0  0  0  0  0999 V2000
   -0.5110   25.5380  -24.2380 C   0  0  0  0  0  0  0  0  0  0  0  0
   -0.3920   25.3620  -25.6460 O   0  0  0  0  0  0  0  0  0  0  0  0
   -1.4630   25.0600  -26.5000 C   0  0  0  0  0  0  0  0  0  0  0  0
   -1.2830   24.7950  -27.8700 C   0  0  0  0  0  0  0  0  0  0  0  0
   -2.3830   24.4960  -28.6810 C   0  0  0  0  0  0  0  0  0  0  0  0
   -3.6740   24.4420  -28.1370 C   0  0  0  0  0  0  0  0  0  0  0  0
   -4.7890   24.1540  -28.9980 N   0  0  0  0  0  0  0  0  0  0  0  0
   -4.8950   24.5970  -30.3580 C   0  0  0  0  0  0  0  0  0  0  0  0
   -4.0720   25.4290  -30.8300 O   0  0  0  0  0  0  0  0  0  0  0  0
   -5.9600   24.1010  -31.1740 N   0  0  0  0  0  0  0  0  0  0  0  0
   -5.9420   22.8260  -31.8310 C   0  0  0  0  0  0  0  0  0  0  0  0
   -4.7410   22.1340  -32.0980 C   0  0  0  0  0  0  0  0  0  0  0  0
   -3.4580   22.7240  -31.8200 N   0  0  0  0  0  0  0  0  0  0  0  0
   -2.2830   21.9230  -31.4810 C   0  0  0  0  0  0  0  0  0  0  0  0
   -2.6650   20.7970  -30.5170 C   0  0  0  0  0  0  0  0  0  0  0  0
   -1.9770   20.9800  -29.1910 C   0  0  0  0  0  0  0  0  0  0  0  0
   -2.6410   20.6550  -27.9970 C   0  0  0  0  0  0  0  0  0  0  0  0
   -2.0130   20.8560  -26.7650 C   0  0  0  0  0  0  0  0  0  0  0  0
   -0.7230   21.3920  -26.7150 C   0  0  0  0  0  0  0  0  0  0  0  0
   -0.0610   21.7320  -27.8980 C   0  0  0  0  0  0  0  0  0  0  0  0
   -0.6860   21.5330  -29.1330 C   0  0  0  0  0  0  0  0  0  0  0  0
   -4.8010   20.9060  -32.6810 N   0  0  0  0  0  0  0  0  0  0  0  0
   -5.9840   20.3430  -33.0330 C   0  0  0  0  0  0  0  0  0  0  0  0
   -6.0060   19.0470  -33.6480 C   0  0  0  0  0  0  0  0  0  0  0  0
   -6.0230   18.0010  -34.1440 N   0  0  0  0  0  0  0  0  0  0  0  0
   -7.1430   21.0140  -32.8230 N   0  0  0  0  0  0  0  0  0  0  0  0
   -7.1490   22.2410  -32.2430 C   0  0  0  0  0  0  0  0  0  0  0  0
   -8.7190   23.0700  -31.9760 S   0  0  0  0  0  0  0  0  0  0  0  0
   -9.5040   21.5990  -31.2500 C   0  0  0  0  0  0  0  0  0  0  0  0
   -3.8540   24.7300  -26.7730 C   0  0  0  0  0  0  0  0  0  0  0  0
   -2.7540   25.0290  -25.9630 C   0  0  0  0  0  0  0  0  0  0  0  0
    0.0327   24.7338  -23.7207 H   0  0  0  0  0  0  0  0  0  0  0  0
   -0.0848   26.5111  -23.9528 H   0  0  0  0  0  0  0  0  0  0  0  0
   -1.5729   25.5050  -23.9528 H   0  0  0  0  0  0  0  0  0  0  0  0
   -0.2732   24.8230  -28.3052 H   0  0  0  0  0  0  0  0  0  0  0  0
   -2.2339   24.3018  -29.7534 H   0  0  0  0  0  0  0  0  0  0  0  0
   -5.6190   23.6730  -28.5860 H   0  0  0  0  0  0  0  0  0  0  0  0
   -3.3260   23.7570  -31.8960 H   0  0  0  0  0  0  0  0  0  0  0  0
   -1.8642   21.4869  -32.3999 H   0  0  0  0  0  0  0  0  0  0  0  0
   -1.5376   22.5704  -30.9961 H   0  0  0  0  0  0  0  0  0  0  0  0
   -3.7542   20.8061  -30.3636 H   0  0  0  0  0  0  0  0  0  0  0  0
   -2.3503   19.8363  -30.9507 H   0  0  0  0  0  0  0  0  0  0  0  0
   -3.6594   20.2406  -28.0317 H   0  0  0  0  0  0  0  0  0  0  0  0
   -2.5345   20.5920  -25.8332 H   0  0  0  0  0  0  0  0  0  0  0  0
   -0.2288   21.5462  -25.7444 H   0  0  0  0  0  0  0  0  0  0  0  0
    0.9529   22.1567  -27.8576 H   0  0  0  0  0  0  0  0  0  0  0  0
   -0.1658   21.8100  -30.0618 H   0  0  0  0  0  0  0  0  0  0  0  0
   -9.4673   21.6677  -30.1528 H   0  0  0  0  0  0  0  0  0  0  0  0
  -10.5521   21.5426  -31.5791 H   0  0  0  0  0  0  0  0  0  0  0  0
   -8.9674   20.6969  -31.5791 H   0  0  0  0  0  0  0  0  0  0  0  0
   -4.8654   24.7201  -26.3405 H   0  0  0  0  0  0  0  0  0  0  0  0
   -2.9054   25.2416  -24.8944 H   0  0  0  0  0  0  0  0  0  0  0  0
  1  2  1  0
  2  3  1  0
  3  4  2  0
  4  5  1  0
  5  6  2  0
  6  7  1  0
  7  8  1  0
  8  9  2  0
  8 10  1  0
 10 11  1  0
 11 12  1  0
 12 13  1  0
 13 14  1  0
 14 15  1  0
 15 16  1  0
 16 17  2  0
 17 18  1  0
 18 19  2  0
 19 20  1  0
 20 21  2  0
 12 22  2  0
 22 23  1  0
 23 24  1  0
 24 25  3  0
 23 26  2  0
 26 27  1  0
 27 28  1  0
 28 29  1  0
  6 30  1  0
 30 31  2  0
 31  3  1  0
 27 11  2  0
 21 16  1  0
  1 32  1  0
  1 33  1  0
  1 34  1  0
  4 35  1  0
  5 36  1  0
  7 37  1  0
 13 38  1  0
 14 39  1  0
 14 40  1  0
 15 41  1  0
 15 42  1  0
 17 43  1  0
 18 44  1  0
 19 45  1  0
 20 46  1  0
 21 47  1  0
 29 48  1  0
 29 49  1  0
 29 50  1  0
 30 51  1  0
 31 52  1  0
M  CHG  1  10  -1
M  END
>  <UniqueID>  (29) 
28

>  <SMILES>  (29) 
COc1ccc(NC(=O)[N-]c2c(NCCc3ccccc3)nc(C#N)nc2SC)cc1

>  <Energy>  (29) 
55.05384028655051

>  <Genealogy>  (29) 
COc1ccc(NC(=O)[N-]c2c(NCCc3ccccc3)nc(C#N)nc2SC)cc1 (protonated)
COc1ccc(NC(=O)[N-]c2c(NCCc3ccccc3)nc(C#N)nc2SC)cc1 (3D coordinates assigned)
COc1ccc(NC(=O)[N-]c2c(NCCc3ccccc3)nc(C#N)nc2SC)cc1 (optimized conformer: 55.05384028655051 kcal/mol)

>  <smiles>  (29) 
COc1ccc(NC(=O)Nc2c(NCCc3ccccc3)nc(C#N)nc2SC)cc1

>  <score_type>  (29) 
oracle

>  <origin>  (29) 
adgpu

>  <m_score__min__energy>  (29) 
-10.33

>  <m_primary>  (29) 
energy

$$$$
29:0
     RDKit          3D

 43 46  0  0  0  0  0  0  0  0999 V2000
   -7.4387   25.3118  -30.3090 H   0  0  0  0  0  0  0  0  0  0  0  0
   -6.4810   24.7870  -30.4410 C   0  0  0  0  0  0  0  0  0  0  0  0
   -5.2980   25.3720  -29.9850 C   0  0  0  0  0  0  0  0  0  0  0  0
   -5.3250   26.3531  -29.4882 H   0  0  0  0  0  0  0  0  0  0  0  0
   -4.0810   24.7110  -30.1600 C   0  0  0  0  0  0  0  0  0  0  0  0
   -2.9030   25.2970  -29.7120 O   0  0  0  0  0  0  0  0  0  0  0  0
   -4.0450   23.4600  -30.7840 C   0  0  0  0  0  0  0  0  0  0  0  0
   -3.0819   22.9471  -30.9235 H   0  0  0  0  0  0  0  0  0  0  0  0
   -5.2320   22.8520  -31.2350 C   0  0  0  0  0  0  0  0  0  0  0  0
   -5.1740   21.5240  -31.9010 C   0  0  0  0  0  0  0  0  0  0  0  0
   -6.2730   20.7250  -31.8810 N   0  0  0  0  0  0  0  0  0  0  0  0
   -6.3030   19.5050  -32.4770 C   0  0  0  0  0  0  0  0  0  0  0  0
   -7.4780   18.7470  -32.4300 C   0  0  0  0  0  0  0  0  0  0  0  0
   -8.3562   19.1304  -31.8898 H   0  0  0  0  0  0  0  0  0  0  0  0
   -7.5400   17.5080  -33.0650 C   0  0  0  0  0  0  0  0  0  0  0  0
   -8.4623   16.9106  -33.0161 H   0  0  0  0  0  0  0  0  0  0  0  0
   -6.4320   17.0250  -33.7630 C   0  0  0  0  0  0  0  0  0  0  0  0
   -6.4885   16.0525  -34.2740 H   0  0  0  0  0  0  0  0  0  0  0  0
   -5.2520   17.7700  -33.8160 C   0  0  0  0  0  0  0  0  0  0  0  0
   -4.3885   17.3855  -34.3786 H   0  0  0  0  0  0  0  0  0  0  0  0
   -5.1590   19.0130  -33.1530 C   0  0  0  0  0  0  0  0  0  0  0  0
   -3.9870   19.8140  -33.1690 C   0  0  0  0  0  0  0  0  0  0  0  0
   -2.7120   19.3730  -33.7790 C   0  0  0  0  0  0  0  0  0  0  0  0
   -2.3820   18.1570  -33.7380 O   0  0  0  0  0  0  0  0  0  0  0  0
   -1.8790   20.3430  -34.4370 N   0  0  0  0  0  0  0  0  0  0  0  0
   -0.5910   20.5340  -34.3350 C   0  0  0  0  0  0  0  0  0  0  0  0
    0.2240   19.8520  -33.4090 C   0  0  0  0  0  0  0  0  0  0  0  0
   -0.2179   19.1203  -32.7166 H   0  0  0  0  0  0  0  0  0  0  0  0
    1.5960   20.1110  -33.3760 C   0  0  0  0  0  0  0  0  0  0  0  0
    2.2363   19.5728  -32.6616 H   0  0  0  0  0  0  0  0  0  0  0  0
    2.1460   21.0240  -34.2210 N   0  0  0  0  0  0  0  0  0  0  0  0
    3.1770   21.1870  -34.1770 H   0  0  0  0  0  0  0  0  0  0  0  0
    1.3800   21.7320  -35.0990 C   0  0  0  0  0  0  0  0  0  0  0  0
    2.0150   22.7180  -36.0330 C   0  0  0  0  0  0  0  0  0  0  0  0
    2.5201   23.5023  -35.4502 H   0  0  0  0  0  0  0  0  0  0  0  0
    2.7505   22.2013  -36.6671 H   0  0  0  0  0  0  0  0  0  0  0  0
    1.2403   23.1738  -36.6671 H   0  0  0  0  0  0  0  0  0  0  0  0
    0.0010   21.4890  -35.1710 C   0  0  0  0  0  0  0  0  0  0  0  0
   -0.6179   22.0503  -35.8865 H   0  0  0  0  0  0  0  0  0  0  0  0
   -4.0180   21.0790  -32.5610 C   0  0  0  0  0  0  0  0  0  0  0  0
   -3.1296   21.7263  -32.6022 H   0  0  0  0  0  0  0  0  0  0  0  0
   -6.4520   23.5360  -31.0650 C   0  0  0  0  0  0  0  0  0  0  0  0
   -7.3874   23.0831  -31.4254 H   0  0  0  0  0  0  0  0  0  0  0  0
  1  2  1  0
  2  3  2  0
  3  4  1  0
  3  5  1  0
  5  6  1  0
  5  7  2  0
  7  8  1  0
  7  9  1  0
  9 10  1  0
 10 11  2  0
 11 12  1  0
 12 13  2  0
 13 14  1  0
 13 15  1  0
 15 16  1  0
 15 17  2  0
 17 18  1  0
 17 19  1  0
 19 20  1  0
 19 21  2  0
 21 22  1  0
 22 23  1  0
 23 24  2  0
 23 25  1  0
 25 26  2  0
 26 27  1  0
 27 28  1  0
 27 29  2  0
 29 30  1  0
 29 31  1  0
 31 32  1  0
 31 33  1  0
 33 34  1  0
 34 35  1  0
 34 36  1  0
 34 37  1  0
 33 38  2  0
 38 39  1  0
 22 40  2  0
 40 41  1  0
  9 42  2  0
 42 43  1  0
 42  2  1  0
 40 10  1  0
 21 12  1  0
 38 26  1  0
M  CHG  1   6  -1
M  END
>  <UniqueID>  (30) 
29

>  <SMILES>  (30) 
Cc1c/c(=N/C(=O)c2cc(-c3cccc([O-])c3)nc3ccccc23)cc[nH]1

>  <Energy>  (30) 
69.01020076208971

>  <Genealogy>  (30) 
Cc1cc(=NC(=O)c2cc(-c3cccc([O-])c3)nc3ccccc23)cc[nH]1 (protonated)
Cc1c/c(=N/C(=O)c2cc(-c3cccc([O-])c3)nc3ccccc23)cc[nH]1 (cis-trans isomerization)
Cc1c/c(=N/C(=O)c2cc(-c3cccc([O-])c3)nc3ccccc23)cc[nH]1 (3D coordinates assigned)
Cc1c/c(=N/C(=O)c2cc(-c3cccc([O-])c3)nc3ccccc23)cc[nH]1 (optimized conformer: 69.01020076208971 kcal/mol)

>  <smiles>  (30) 
Cc1cc(=NC(=O)c2cc(-c3cccc(O)c3)nc3ccccc23)cc[nH]1

>  <score_type>  (30) 
oracle

>  <origin>  (30) 
adgpu

>  <m_score__min__energy>  (30) 
-12.16

>  <m_primary>  (30) 
energy

$$$$
30:0
     RDKit          3D

 39 41  0  0  1  0  0  0  0  0999 V2000
   -9.8380   20.8290  -32.3350 C   0  0  0  0  0  0  0  0  0  0  0  0
   -8.3720   20.7950  -32.1810 C   0  0  0  0  0  0  0  0  0  0  0  0
   -7.7980   21.6080  -31.2270 C   0  0  0  0  0  0  0  0  0  0  0  0
   -6.4170   21.5430  -31.1160 C   0  0  0  0  0  0  0  0  0  0  0  0
   -5.8780   22.3060  -30.2220 N   0  0  0  0  0  0  0  0  0  0  0  0
   -4.4690   22.3110  -30.0330 C   0  0  0  0  0  0  0  0  0  0  0  0
   -3.8510   21.0820  -29.9270 C   0  0  0  0  0  0  0  0  0  0  0  0
   -2.4710   21.0020  -29.7400 C   0  0  0  0  0  0  0  0  0  0  0  0
   -1.7530   22.1820  -29.6670 C   0  0  0  0  0  0  0  0  0  0  0  0
   -2.3560   23.4280  -29.7730 C   0  0  0  0  0  0  0  0  0  0  0  0
   -3.7220   23.4680  -29.9560 C   0  0  0  0  0  0  0  0  0  0  0  0
   -4.3900   24.7590  -30.0710 C   0  0  0  0  0  0  0  0  0  0  0  0
   -5.5400   25.0520  -29.2880 N   0  0  0  0  0  0  0  0  0  0  0  0
   -3.9770   25.6430  -30.8560 O   0  0  0  0  0  0  0  0  0  0  0  0
   -5.6620   20.7530  -31.8720 N   0  0  0  0  0  0  0  0  0  0  0  0
   -6.2380   19.9660  -32.7980 C   0  0  0  0  0  0  0  0  0  0  0  0
   -5.3850   19.1090  -33.6140 C   0  0  0  0  0  0  0  0  0  0  0  0
   -4.0110   19.0970  -33.5230 C   0  0  0  0  0  0  0  0  0  0  0  0
   -3.2320   18.2720  -34.3120 C   0  0  0  0  0  0  0  0  0  0  0  0
   -3.8240   17.4220  -35.2290 C   0  0  0  0  0  0  0  0  0  0  0  0
   -5.2000   17.4120  -35.3430 C   0  0  0  0  0  0  0  0  0  0  0  0
   -5.9480   18.2470  -34.5410 C   0  0  0  0  0  0  0  0  0  0  0  0
   -7.5740   20.0090  -32.9270 N   0  0  0  0  0  0  0  0  0  0  0  0
  -10.3108   20.8400  -31.3419 H   0  0  0  0  0  0  0  0  0  0  0  0
  -10.1276   21.7341  -32.8890 H   0  0  0  0  0  0  0  0  0  0  0  0
  -10.1692   19.9383  -32.8890 H   0  0  0  0  0  0  0  0  0  0  0  0
   -8.4014   22.2710  -30.5896 H   0  0  0  0  0  0  0  0  0  0  0  0
   -4.4492   20.1611  -29.9902 H   0  0  0  0  0  0  0  0  0  0  0  0
   -1.9678   20.0277  -29.6530 H   0  0  0  0  0  0  0  0  0  0  0  0
   -0.6641   22.1313  -29.5195 H   0  0  0  0  0  0  0  0  0  0  0  0
   -1.7635   24.3529  -29.7130 H   0  0  0  0  0  0  0  0  0  0  0  0
   -6.2440   24.3080  -29.0400 H   0  0  0  0  0  0  0  0  0  0  0  0
   -5.7260   26.0010  -28.9360 H   0  0  0  0  0  0  0  0  0  0  0  0
   -3.5185   19.7643  -32.8004 H   0  0  0  0  0  0  0  0  0  0  0  0
   -2.1369   18.2913  -34.2105 H   0  0  0  0  0  0  0  0  0  0  0  0
   -3.2073   16.7635  -35.8583 H   0  0  0  0  0  0  0  0  0  0  0  0
   -5.6936   16.7454  -36.0655 H   0  0  0  0  0  0  0  0  0  0  0  0
   -7.0432   18.2281  -34.6417 H   0  0  0  0  0  0  0  0  0  0  0  0
   -8.0570   19.4110  -33.6360 H   0  0  0  0  0  0  0  0  0  0  0  0
  1  2  1  0
  2  3  2  0
  3  4  1  0
  4  5  2  0
  5  6  1  0
  6  7  2  0
  7  8  1  0
  8  9  2  0
  9 10  1  0
 10 11  2  0
 11 12  1  0
 12 13  1  0
 12 14  2  0
  4 15  1  0
 15 16  2  0
 16 17  1  0
 17 18  2  0
 18 19  1  0
 19 20  2  0
 20 21  1  0
 21 22  2  0
 16 23  1  0
 23  2  1  0
 11  6  1  0
 22 17  1  0
  1 24  1  0
  1 25  1  0
  1 26  1  0
  3 27  1  0
  7 28  1  0
  8 29  1  0
  9 30  1  0
 10 31  1  0
 13 32  1  0
 13 33  1  0
 18 34  1  0
 19 35  1  0
 20 36  1  0
 21 37  1  0
 22 38  1  0
 23 39  1  0
M  END
>  <smiles>  (31) 
Cc1cc(=Nc2ccccc2C(N)=O)nc(-c2ccccc2)[nH]1

>  <score_type>  (31) 
oracle

>  <origin>  (31) 
adgpu

>  <m_score__min__energy>  (31) 
-8.9900000000000002

>  <m_primary>  (31) 
energy

$$$$
31:0
     RDKit          3D

 44 46  0  0  0  0  0  0  0  0999 V2000
   -6.8120   25.2980  -29.9120 C   0  0  0  0  0  0  0  0  0  0  0  0
   -5.7090   24.4610  -30.4680 C   0  0  0  0  0  0  0  0  0  0  0  0
   -4.4910   24.3570  -29.8990 N   0  0  0  0  0  0  0  0  0  0  0  0
   -3.7790   23.5040  -30.6230 N   0  0  0  0  0  0  0  0  0  0  0  0
   -2.4380   23.0660  -30.2560 C   0  0  0  0  0  0  0  0  0  0  0  0
   -4.5230   23.0370  -31.6490 C   0  0  0  0  0  0  0  0  0  0  0  0
   -4.1170   21.9240  -32.5670 C   0  0  0  0  0  0  0  0  0  0  0  0
   -5.7670   23.6280  -31.5700 C   0  0  0  0  0  0  0  0  0  0  0  0
   -6.9170   23.3030  -32.3560 N   0  0  0  0  0  0  0  0  0  0  0  0
   -8.0630   22.1460  -31.7700 S   0  0  0  0  0  0  0  0  0  0  0  0
   -8.1400   22.2150  -30.2700 O   0  0  0  0  0  0  0  0  0  0  0  0
   -9.4210   22.4580  -32.3330 O   0  0  0  0  0  0  0  0  0  0  0  0
   -7.5770   20.5420  -32.3050 C   0  0  0  0  0  0  0  0  0  0  0  0
   -8.0240   19.3990  -31.6340 C   0  0  0  0  0  0  0  0  0  0  0  0
   -7.5680   18.1360  -32.0190 C   0  0  0  0  0  0  0  0  0  0  0  0
   -6.6530   17.9990  -33.0770 C   0  0  0  0  0  0  0  0  0  0  0  0
   -6.1760   16.6990  -33.4750 N   0  0  0  0  0  0  0  0  0  0  0  0
   -6.9670   15.7140  -34.1960 C   0  0  0  0  0  0  0  0  0  0  0  0
   -6.1160   14.4290  -34.2300 C   0  0  0  0  0  0  0  0  0  0  0  0
   -4.6930   14.8240  -33.8100 C   0  0  0  0  0  0  0  0  0  0  0  0
   -4.8610   16.1990  -33.2990 C   0  0  0  0  0  0  0  0  0  0  0  0
   -3.9150   16.8790  -32.8190 O   0  0  0  0  0  0  0  0  0  0  0  0
   -6.2230   19.1510  -33.7570 C   0  0  0  0  0  0  0  0  0  0  0  0
   -6.6760   20.4130  -33.3670 C   0  0  0  0  0  0  0  0  0  0  0  0
   -6.7752   25.2701  -28.8130 H   0  0  0  0  0  0  0  0  0  0  0  0
   -6.6941   26.3360  -30.2566 H   0  0  0  0  0  0  0  0  0  0  0  0
   -7.7799   24.9050  -30.2566 H   0  0  0  0  0  0  0  0  0  0  0  0
   -2.3489   23.0369  -29.1600 H   0  0  0  0  0  0  0  0  0  0  0  0
   -2.2554   22.0615  -30.6655 H   0  0  0  0  0  0  0  0  0  0  0  0
   -1.6977   23.7690  -30.6655 H   0  0  0  0  0  0  0  0  0  0  0  0
   -3.8000   21.0550  -31.9718 H   0  0  0  0  0  0  0  0  0  0  0  0
   -4.9703   21.6423  -33.2015 H   0  0  0  0  0  0  0  0  0  0  0  0
   -3.2828   22.2579  -33.2015 H   0  0  0  0  0  0  0  0  0  0  0  0
   -6.8530   23.4250  -33.3920 H   0  0  0  0  0  0  0  0  0  0  0  0
   -8.7362   19.4949  -30.8012 H   0  0  0  0  0  0  0  0  0  0  0  0
   -7.9280   17.2414  -31.4898 H   0  0  0  0  0  0  0  0  0  0  0  0
   -7.9171   15.5296  -33.6731 H   0  0  0  0  0  0  0  0  0  0  0  0
   -7.2151   16.0602  -35.2102 H   0  0  0  0  0  0  0  0  0  0  0  0
   -6.5246   13.6862  -33.5291 H   0  0  0  0  0  0  0  0  0  0  0  0
   -6.1196   13.9814  -35.2348 H   0  0  0  0  0  0  0  0  0  0  0  0
   -4.3138   14.1547  -33.0238 H   0  0  0  0  0  0  0  0  0  0  0  0
   -3.9660   14.7555  -34.6326 H   0  0  0  0  0  0  0  0  0  0  0  0
   -5.5250   19.0581  -34.6021 H   0  0  0  0  0  0  0  0  0  0  0  0
   -6.3227   21.3096  -33.8973 H   0  0  0  0  0  0  0  0  0  0  0  0
  1  2  1  0
  2  3  2  0
  3  4  1  0
  4  5  1  0
  4  6  1  0
  6  7  1  0
  6  8  2  0
  8  9  1  0
  9 10  1  0
 10 11  2  0
 10 12  2  0
 10 13  1  0
 13 14  2  0
 14 15  1  0
 15 16  2  0
 16 17  1  0
 17 18  1  0
 18 19  1  0
 19 20  1  0
 20 21  1  0
 21 22  2  0
 16 23  1  0
 23 24  2  0
  8  2  1  0
 24 13  1  0
 21 17  1  0
  1 25  1  0
  1 26  1  0
  1 27  1  0
  5 28  1  0
  5 29  1  0
  5 30  1  0
  7 31  1  0
  7 32  1  0
  7 33  1  0
  9 34  1  0
 14 35  1  0
 15 36  1  0
 18 37  1  0
 18 38  1  0
 19 39  1  0
 19 40  1  0
 20 41  1  0
 20 42  1  0
 23 43  1  0
 24 44  1  0
M  END
>  <UniqueID>  (32) 
30

>  <SMILES>  (32) 
Cc1nn(C)c(C)c1NS(=O)(=O)c1ccc(N2CCCC2=O)cc1

>  <Energy>  (32) 
88.90896051779632

>  <Genealogy>  (32) 
Cc1nn(C)c(C)c1NS(=O)(=O)c1ccc(N2CCCC2=O)cc1 (3D coordinates assigned)
Cc1nn(C)c(C)c1NS(=O)(=O)c1ccc(N2CCCC2=O)cc1 (nonaromatic ring conformer: 88.90896051779632 kcal/mol)

>  <smiles>  (32) 
Cc1nn(C)c(C)c1NS(=O)(=O)c1ccc(N2CCCC2=O)cc1

>  <score_type>  (32) 
oracle

>  <origin>  (32) 
adgpu

>  <m_score__min__energy>  (32) 
-8.9399999999999995

>  <m_primary>  (32) 
energy

$$$$
32:0
     RDKit          3D

 53 55  0  0  0  0  0  0  0  0999 V2000
   -3.1700   20.2219  -25.9833 H   0  0  0  0  0  0  0  0  0  0  0  0
   -2.3110   20.0480  -26.6480 C   0  0  0  0  0  0  0  0  0  0  0  0
   -1.9480   18.7450  -26.9890 C   0  0  0  0  0  0  0  0  0  0  0  0
   -2.5210   17.8934  -26.5934 H   0  0  0  0  0  0  0  0  0  0  0  0
   -0.8580   18.5210  -27.8320 C   0  0  0  0  0  0  0  0  0  0  0  0
   -0.5751   17.4916  -28.0971 H   0  0  0  0  0  0  0  0  0  0  0  0
   -0.1200   19.6010  -28.3440 C   0  0  0  0  0  0  0  0  0  0  0  0
    1.0450   19.3370  -29.2760 C   0  0  0  0  0  0  0  0  0  0  0  0
    1.6207   20.2667  -29.3950 H   0  0  0  0  0  0  0  0  0  0  0  0
    1.6583   18.5395  -28.8312 H   0  0  0  0  0  0  0  0  0  0  0  0
    0.6010   18.8760  -30.6140 N   0  0  2  0  0  0  0  0  0  0  0  0
   -0.3340   19.3020  -30.8250 H   0  0  0  0  0  0  0  0  0  0  0  0
    0.4630   17.4050  -30.6400 C   0  0  0  0  0  0  0  0  0  0  0  0
    0.4271   17.0218  -29.6095 H   0  0  0  0  0  0  0  0  0  0  0  0
   -0.4646   17.1330  -31.1649 H   0  0  0  0  0  0  0  0  0  0  0  0
    1.3238   16.9652  -31.1649 H   0  0  0  0  0  0  0  0  0  0  0  0
    1.5670   19.3280  -31.6430 C   0  0  0  0  0  0  0  0  0  0  0  0
    2.2601   20.0503  -31.1871 H   0  0  0  0  0  0  0  0  0  0  0  0
    2.1044   18.4442  -32.0174 H   0  0  0  0  0  0  0  0  0  0  0  0
    0.8800   19.9830  -32.8080 C   0  0  0  0  0  0  0  0  0  0  0  0
    1.5690   20.5230  -33.7150 O   0  0  0  0  0  0  0  0  0  0  0  0
   -0.5500   19.9580  -32.8900 N   0  0  0  0  0  0  0  0  0  0  0  0
   -1.4510   20.8740  -32.2540 C   0  0  0  0  0  0  0  0  0  0  0  0
   -1.0600   21.6610  -31.1540 C   0  0  0  0  0  0  0  0  0  0  0  0
   -0.0297   21.5984  -30.7739 H   0  0  0  0  0  0  0  0  0  0  0  0
   -1.9770   22.5220  -30.5430 C   0  0  0  0  0  0  0  0  0  0  0  0
   -1.6625   23.1413  -29.6900 H   0  0  0  0  0  0  0  0  0  0  0  0
   -3.2950   22.5990  -31.0130 C   0  0  0  0  0  0  0  0  0  0  0  0
   -4.4630   23.6780  -30.2590 S   0  0  0  0  0  0  0  0  0  0  0  0
   -5.8520   23.1160  -30.3950 O   0  0  0  0  0  0  0  0  0  0  0  0
   -4.3980   25.0190  -30.9330 O   0  0  0  0  0  0  0  0  0  0  0  0
   -4.0710   23.8380  -28.5770 N   0  0  0  0  0  0  0  0  0  0  0  0
   -3.0800   24.5500  -28.1320 C   0  0  0  0  0  0  0  0  0  0  0  0
   -2.2650   25.2320  -28.9830 N   0  0  0  0  0  0  0  0  0  0  0  0
   -1.2440   25.9660  -28.5360 N   0  0  0  0  0  0  0  0  0  0  0  0
   -0.9710   26.0630  -27.2090 C   0  0  0  0  0  0  0  0  0  0  0  0
    0.3800   27.0370  -26.6630 Cl  0  0  0  0  0  0  0  0  0  0  0  0
   -1.7730   25.3850  -26.2910 C   0  0  0  0  0  0  0  0  0  0  0  0
   -1.5660   25.4533  -25.2128 H   0  0  0  0  0  0  0  0  0  0  0  0
   -2.8400   24.6200  -26.7580 C   0  0  0  0  0  0  0  0  0  0  0  0
   -3.4861   24.0773  -26.0523 H   0  0  0  0  0  0  0  0  0  0  0  0
   -3.6900   21.8010  -32.0940 C   0  0  0  0  0  0  0  0  0  0  0  0
   -4.7244   21.8535  -32.4645 H   0  0  0  0  0  0  0  0  0  0  0  0
   -2.7750   20.9380  -32.7040 C   0  0  0  0  0  0  0  0  0  0  0  0
   -3.0977   20.3047  -33.5435 H   0  0  0  0  0  0  0  0  0  0  0  0
   -0.4850   20.9210  -28.0010 C   0  0  0  0  0  0  0  0  0  0  0  0
    0.2650   21.9910  -28.5200 O   0  0  0  0  0  0  0  0  0  0  0  0
    0.5420   23.1990  -27.8180 C   0  0  0  0  0  0  0  0  0  0  0  0
    0.4991   23.0118  -26.7349 H   0  0  0  0  0  0  0  0  0  0  0  0
    1.5459   23.5583  -28.0885 H   0  0  0  0  0  0  0  0  0  0  0  0
   -0.2050   23.9598  -28.0885 H   0  0  0  0  0  0  0  0  0  0  0  0
   -1.5870   21.1320  -27.1480 C   0  0  0  0  0  0  0  0  0  0  0  0
   -1.8784   22.1569  -26.8746 H   0  0  0  0  0  0  0  0  0  0  0  0
  1  2  1  0
  2  3  2  0
  3  4  1  0
  3  5  1  0
  5  6  1  0
  5  7  2  0
  7  8  1  0
  8  9  1  0
  8 10  1  0
  8 11  1  0
 11 12  1  6
 11 13  1  0
 13 14  1  0
 13 15  1  0
 13 16  1  0
 11 17  1  0
 17 18  1  0
 17 19  1  0
 17 20  1  0
 20 21  2  0
 20 22  1  0
 22 23  1  0
 23 24  2  0
 24 25  1  0
 24 26  1  0
 26 27  1  0
 26 28  2  0
 28 29  1  0
 29 30  2  0
 29 31  2  0
 29 32  1  0
 32 33  2  0
 33 34  1  0
 34 35  1  0
 35 36  2  0
 36 37  1  0
 36 38  1  0
 38 39  1  0
 38 40  2  0
 40 41  1  0
 28 42  1  0
 42 43  1  0
 42 44  2  0
 44 45  1  0
  7 46  1  0
 46 47  1  0
 47 48  1  0
 48 49  1  0
 48 50  1  0
 48 51  1  0
 46 52  2  0
 52 53  1  0
 52  2  1  0
 44 23  1  0
 40 33  1  0
M  CHG  3  11   1  22  -1  34  -1
M  END
>  <UniqueID>  (33) 
31

>  <SMILES>  (33) 
COc1ccccc1C[N@H+](C)CC(=O)[N-]c1ccc(S(=O)(=O)/N=c2/ccc(Cl)n[n-]2)cc1

>  <Energy>  (33) 
64.92517742586962

>  <Genealogy>  (33) 
COc1ccccc1C[NH+](C)CC(=O)[N-]c1ccc(S(=O)(=O)N=c2ccc(Cl)n[n-]2)cc1 (protonated)
COc1ccccc1C[N@H+](C)CC(=O)[N-]c1ccc(S(=O)(=O)N=c2ccc(Cl)n[n-]2)cc1 (chirality)
COc1ccccc1C[N@H+](C)CC(=O)[N-]c1ccc(S(=O)(=O)/N=c2/ccc(Cl)n[n-]2)cc1 (cis-trans isomerization)
COc1ccccc1C[N@H+](C)CC(=O)[N-]c1ccc(S(=O)(=O)/N=c2/ccc(Cl)n[n-]2)cc1 (3D coordinates assigned)
COc1ccccc1C[N@H+](C)CC(=O)[N-]c1ccc(S(=O)(=O)/N=c2/ccc(Cl)n[n-]2)cc1 (optimized conformer: 64.92517742586962 kcal/mol)

>  <smiles>  (33) 
COc1ccccc1CN(C)CC(=O)Nc1ccc(S(=O)(=O)N=c2ccc(Cl)n[nH]2)cc1

>  <score_type>  (33) 
oracle

>  <origin>  (33) 
adgpu

>  <m_score__min__energy>  (33) 
-10.08

>  <m_primary>  (33) 
energy

$$$$
33:0
     RDKit          3D

 40 43  0  0  0  0  0  0  0  0999 V2000
   -6.4150   25.6500  -29.6500 O   0  0  0  0  0  0  0  0  0  0  0  0
   -5.2230   24.8220  -30.0360 S   0  0  0  0  0  0  0  0  0  0  0  0
   -4.2680   25.6700  -30.8300 O   0  0  0  0  0  0  0  0  0  0  0  0
   -4.4230   24.2690  -28.6000 N   0  0  0  0  0  0  0  0  0  0  0  0
   -3.1460   24.3850  -28.4110 C   0  0  0  0  0  0  0  0  0  0  0  0
   -2.2990   24.9450  -29.3020 N   0  0  0  0  0  0  0  0  0  0  0  0
   -1.0170   24.9240  -28.8470 C   0  0  0  0  0  0  0  0  0  0  0  0
   -0.8470   24.3480  -27.5920 C   0  0  0  0  0  0  0  0  0  0  0  0
   -2.3540   23.8460  -27.0340 S   0  0  0  0  0  0  0  0  0  0  0  0
   -5.7650   23.4450  -30.9900 C   0  0  0  0  0  0  0  0  0  0  0  0
   -7.1070   23.3360  -31.3810 C   0  0  0  0  0  0  0  0  0  0  0  0
   -7.5290   22.2450  -32.1480 C   0  0  0  0  0  0  0  0  0  0  0  0
   -6.6160   21.2600  -32.5420 C   0  0  0  0  0  0  0  0  0  0  0  0
   -7.0780   20.1780  -33.3040 O   0  0  0  0  0  0  0  0  0  0  0  0
   -6.5850   18.8670  -33.2370 C   0  0  0  0  0  0  0  0  0  0  0  0
   -6.1050   18.1940  -34.3740 C   0  0  0  0  0  0  0  0  0  0  0  0
   -5.6350   16.8820  -34.2710 C   0  0  0  0  0  0  0  0  0  0  0  0
   -5.6490   16.2090  -33.0350 C   0  0  0  0  0  0  0  0  0  0  0  0
   -5.1570   14.8560  -32.9460 N   0  0  0  0  0  0  0  0  0  0  0  0
   -5.3980   13.8380  -33.8000 C   0  0  0  0  0  0  0  0  0  0  0  0
   -4.7290   12.7200  -33.3510 C   0  0  0  0  0  0  0  0  0  0  0  0
   -4.0870   13.1310  -32.2030 C   0  0  0  0  0  0  0  0  0  0  0  0
   -4.3590   14.4300  -31.9760 N   0  0  0  0  0  0  0  0  0  0  0  0
   -6.1460   16.8850  -31.9030 C   0  0  0  0  0  0  0  0  0  0  0  0
   -6.6150   18.1980  -32.0100 C   0  0  0  0  0  0  0  0  0  0  0  0
   -5.2760   21.3570  -32.1240 C   0  0  0  0  0  0  0  0  0  0  0  0
   -4.8550   22.4450  -31.3560 C   0  0  0  0  0  0  0  0  0  0  0  0
   -0.1771   25.3322  -29.4283 H   0  0  0  0  0  0  0  0  0  0  0  0
    0.1077   24.2393  -27.0565 H   0  0  0  0  0  0  0  0  0  0  0  0
   -7.8297   24.1102  -31.0839 H   0  0  0  0  0  0  0  0  0  0  0  0
   -8.5852   22.1606  -32.4434 H   0  0  0  0  0  0  0  0  0  0  0  0
   -6.0993   18.7025  -35.3494 H   0  0  0  0  0  0  0  0  0  0  0  0
   -5.2501   16.3699  -35.1652 H   0  0  0  0  0  0  0  0  0  0  0  0
   -6.0237   13.8922  -34.7031 H   0  0  0  0  0  0  0  0  0  0  0  0
   -4.7113   11.7197  -33.8083 H   0  0  0  0  0  0  0  0  0  0  0  0
   -3.4504   12.4957  -31.5696 H   0  0  0  0  0  0  0  0  0  0  0  0
   -6.1652   16.3761  -30.9280 H   0  0  0  0  0  0  0  0  0  0  0  0
   -7.0113   18.7092  -31.1203 H   0  0  0  0  0  0  0  0  0  0  0  0
   -4.5570   20.5727  -32.4032 H   0  0  0  0  0  0  0  0  0  0  0  0
   -3.8046   22.5169  -31.0373 H   0  0  0  0  0  0  0  0  0  0  0  0
  1  2  2  0
  2  3  2  0
  2  4  1  0
  4  5  2  3
  5  6  1  0
  6  7  1  0
  7  8  2  0
  8  9  1  0
  2 10  1  0
 10 11  2  0
 11 12  1  0
 12 13  2  0
 13 14  1  0
 14 15  1  0
 15 16  2  0
 16 17  1  0
 17 18  2  0
 18 19  1  0
 19 20  1  0
 20 21  2  0
 21 22  1  0
 22 23  2  0
 18 24  1  0
 24 25  2  0
 13 26  1  0
 26 27  2  0
  9  5  1  0
 27 10  1  0
 25 15  1  0
 23 19  1  0
  7 28  1  0
  8 29  1  0
 11 30  1  0
 12 31  1  0
 16 32  1  0
 17 33  1  0
 20 34  1  0
 21 35  1  0
 22 36  1  0
 24 37  1  0
 25 38  1  0
 26 39  1  0
 27 40  1  0
M  CHG  1   6  -1
M  END
>  <UniqueID>  (34) 
32

>  <SMILES>  (34) 
O=S(=O)(N=c1[n-]ccs1)c1ccc(Oc2ccc(-n3cccn3)cc2)cc1

>  <Energy>  (34) 
115.74344193331792

>  <Genealogy>  (34) 
O=S(=O)(N=c1[n-]ccs1)c1ccc(Oc2ccc(-n3cccn3)cc2)cc1 (protonated)
O=S(=O)(N=c1[n-]ccs1)c1ccc(Oc2ccc(-n3cccn3)cc2)cc1 (3D coordinates assigned)
O=S(=O)(N=c1[n-]ccs1)c1ccc(Oc2ccc(-n3cccn3)cc2)cc1 (optimized conformer: 115.74344193331792 kcal/mol)

>  <smiles>  (34) 
O=S(=O)(N=c1[nH]ccs1)c1ccc(Oc2ccc(-n3cccn3)cc2)cc1

>  <score_type>  (34) 
oracle

>  <origin>  (34) 
adgpu

>  <m_score__min__energy>  (34) 
-10.5

>  <m_primary>  (34) 
energy

$$$$
34:0
     RDKit          3D

 40 43  0  0  0  0  0  0  0  0999 V2000
   -6.4920   16.7870  -34.2160 C   0  0  0  0  0  0  0  0  0  0  0  0
   -5.9870   18.1470  -33.8660 C   0  0  0  0  0  0  0  0  0  0  0  0
   -5.0930   18.4430  -32.8590 C   0  0  0  0  0  0  0  0  0  0  0  0
   -5.0090   19.8230  -32.8950 C   0  0  0  0  0  0  0  0  0  0  0  0
   -4.1850   20.7000  -32.0320 C   0  0  0  0  0  0  0  0  0  0  0  0
   -2.7820   20.7120  -32.1260 C   0  0  0  0  0  0  0  0  0  0  0  0
   -2.0240   21.5490  -31.3020 C   0  0  0  0  0  0  0  0  0  0  0  0
   -2.6530   22.3930  -30.3760 C   0  0  0  0  0  0  0  0  0  0  0  0
   -1.8700   23.2410  -29.5200 N   0  0  0  0  0  0  0  0  0  0  0  0
   -2.0830   24.5560  -29.2840 C   0  0  0  0  0  0  0  0  0  0  0  0
   -3.1120   25.2980  -29.8530 O   0  0  0  0  0  0  0  0  0  0  0  0
   -1.1250   25.0540  -28.4260 C   0  0  0  0  0  0  0  0  0  0  0  0
   -0.2650   24.0140  -28.1550 C   0  0  0  0  0  0  0  0  0  0  0  0
   -0.7630   22.9070  -28.8130 C   0  0  0  0  0  0  0  0  0  0  0  0
   -0.2250   21.6250  -28.7230 O   0  0  0  0  0  0  0  0  0  0  0  0
    0.8820   24.1070  -27.1950 C   0  0  0  0  0  0  0  0  0  0  0  0
    1.2770   25.5820  -26.9750 C   0  0  0  0  0  0  0  0  0  0  0  0
    0.0400   26.4780  -26.7420 C   0  0  0  0  0  0  0  0  0  0  0  0
   -0.9170   26.4590  -27.9510 C   0  0  0  0  0  0  0  0  0  0  0  0
   -4.0520   22.3770  -30.2740 C   0  0  0  0  0  0  0  0  0  0  0  0
   -4.8120   21.5420  -31.0970 C   0  0  0  0  0  0  0  0  0  0  0  0
   -5.8070   20.2640  -33.8430 O   0  0  0  0  0  0  0  0  0  0  0  0
   -6.4170   19.2830  -34.4440 N   0  0  0  0  0  0  0  0  0  0  0  0
   -6.7007   16.2248  -33.2938 H   0  0  0  0  0  0  0  0  0  0  0  0
   -7.4157   16.8795  -34.8061 H   0  0  0  0  0  0  0  0  0  0  0  0
   -5.7318   16.2542  -34.8061 H   0  0  0  0  0  0  0  0  0  0  0  0
   -4.5705   17.7468  -32.1865 H   0  0  0  0  0  0  0  0  0  0  0  0
   -2.2776   20.0583  -32.8528 H   0  0  0  0  0  0  0  0  0  0  0  0
   -0.9268   21.5454  -31.3807 H   0  0  0  0  0  0  0  0  0  0  0  0
    0.6620   21.3860  -29.1480 H   0  0  0  0  0  0  0  0  0  0  0  0
    0.5870   23.6628  -26.2329 H   0  0  0  0  0  0  0  0  0  0  0  0
    1.7430   23.5641  -27.6121 H   0  0  0  0  0  0  0  0  0  0  0  0
    1.9347   25.6472  -26.0957 H   0  0  0  0  0  0  0  0  0  0  0  0
    1.7912   25.9372  -27.8802 H   0  0  0  0  0  0  0  0  0  0  0  0
   -0.5000   26.1157  -25.8548 H   0  0  0  0  0  0  0  0  0  0  0  0
    0.3886   27.5113  -26.5982 H   0  0  0  0  0  0  0  0  0  0  0  0
   -1.8851   26.8891  -27.6545 H   0  0  0  0  0  0  0  0  0  0  0  0
   -0.4759   27.0512  -28.7663 H   0  0  0  0  0  0  0  0  0  0  0  0
   -4.5539   23.0260  -29.5413 H   0  0  0  0  0  0  0  0  0  0  0  0
   -5.9088   21.5435  -31.0127 H   0  0  0  0  0  0  0  0  0  0  0  0
  1  2  1  0
  2  3  1  0
  3  4  2  0
  4  5  1  0
  5  6  2  0
  6  7  1  0
  7  8  2  0
  8  9  1  0
  9 10  1  0
 10 11  1  0
 10 12  2  0
 12 13  1  0
 13 14  2  0
 14 15  1  0
 13 16  1  0
 16 17  1  0
 17 18  1  0
 18 19  1  0
  8 20  1  0
 20 21  2  0
  4 22  1  0
 22 23  1  0
 23  2  2  0
 21  5  1  0
 14  9  1  0
 19 12  1  0
  1 24  1  0
  1 25  1  0
  1 26  1  0
  3 27  1  0
  6 28  1  0
  7 29  1  0
 15 30  1  0
 16 31  1  0
 16 32  1  0
 17 33  1  0
 17 34  1  0
 18 35  1  0
 18 36  1  0
 19 37  1  0
 19 38  1  0
 20 39  1  0
 21 40  1  0
M  CHG  1  11  -1
M  END
>  <UniqueID>  (35) 
33

>  <SMILES>  (35) 
Cc1cc(-c2ccc(-n3c([O-])c4c(c3O)CCCC4)cc2)on1

>  <Energy>  (35) 
107.31808959645919

>  <Genealogy>  (35) 
Cc1cc(-c2ccc(-n3c([O-])c4c(c3O)CCCC4)cc2)on1 (protonated)
Cc1cc(-c2ccc(-n3c([O-])c4c(c3O)CCCC4)cc2)on1 (3D coordinates assigned)
Cc1cc(-c2ccc(-n3c([O-])c4c(c3O)CCCC4)cc2)on1 (nonaromatic ring conformer: 107.31808959645919 kcal/mol)

>  <smiles>  (35) 
Cc1cc(-c2ccc(-n3c(O)c4c(c3O)CCCC4)cc2)on1

>  <score_type>  (35) 
oracle

>  <origin>  (35) 
adgpu

>  <m_score__min__energy>  (35) 
-9.4100000000000001

>  <m_primary>  (35) 
energy

$$$$
35:0
     RDKit          3D

 26 27  0  0  0  0  0  0  0  0999 V2000
   -5.7890   16.9980  -34.5620 N   0  0  0  0  0  0  0  0  0  0  0  0
   -6.4600   17.6080  -33.8430 C   0  0  0  0  0  0  0  0  0  0  0  0
   -7.2940   18.3640  -32.9510 C   0  0  0  0  0  0  0  0  0  0  0  0
   -8.1120   17.8490  -31.9670 C   0  0  0  0  0  0  0  0  0  0  0  0
   -8.7310   18.8580  -31.3260 N   0  0  0  0  0  0  0  0  0  0  0  0
   -8.3110   20.0000  -31.9020 C   0  0  0  0  0  0  0  0  0  0  0  0
   -8.8130   21.5980  -31.3860 S   0  0  0  0  0  0  0  0  0  0  0  0
   -9.8160   22.1520  -32.3580 O   0  0  0  0  0  0  0  0  0  0  0  0
   -9.4650   21.5100  -30.0340 O   0  0  0  0  0  0  0  0  0  0  0  0
   -7.4040   22.6480  -31.3050 C   0  0  0  0  0  0  0  0  0  0  0  0
   -6.4330   22.6020  -32.3140 C   0  0  0  0  0  0  0  0  0  0  0  0
   -5.3040   23.4230  -32.2400 C   0  0  0  0  0  0  0  0  0  0  0  0
   -5.1360   24.2890  -31.1550 C   0  0  0  0  0  0  0  0  0  0  0  0
   -6.0980   24.3350  -30.1360 C   0  0  0  0  0  0  0  0  0  0  0  0
   -5.9240   25.2160  -29.0230 N   0  0  0  0  0  0  0  0  0  0  0  0
   -7.2300   23.5100  -30.2130 C   0  0  0  0  0  0  0  0  0  0  0  0
   -7.4110   19.7380  -32.9160 C   0  0  0  0  0  0  0  0  0  0  0  0
   -8.2388   16.7799  -31.7412 H   0  0  0  0  0  0  0  0  0  0  0  0
   -9.4010   18.7680  -30.5310 H   0  0  0  0  0  0  0  0  0  0  0  0
   -6.5594   21.9183  -33.1664 H   0  0  0  0  0  0  0  0  0  0  0  0
   -4.5464   23.3877  -33.0367 H   0  0  0  0  0  0  0  0  0  0  0  0
   -4.2475   24.9353  -31.1008 H   0  0  0  0  0  0  0  0  0  0  0  0
   -6.0970   24.8860  -28.0480 H   0  0  0  0  0  0  0  0  0  0  0  0
   -5.6200   26.2050  -29.1660 H   0  0  0  0  0  0  0  0  0  0  0  0
   -7.9845   23.5395  -29.4131 H   0  0  0  0  0  0  0  0  0  0  0  0
   -6.8974   20.4685  -33.5583 H   0  0  0  0  0  0  0  0  0  0  0  0
  1  2  3  0
  2  3  1  0
  3  4  2  0
  4  5  1  0
  5  6  1  0
  6  7  1  0
  7  8  2  0
  7  9  2  0
  7 10  1  0
 10 11  2  0
 11 12  1  0
 12 13  2  0
 13 14  1  0
 14 15  1  0
 14 16  2  0
  6 17  2  0
 17  3  1  0
 16 10  1  0
  4 18  1  0
  5 19  1  0
 11 20  1  0
 12 21  1  0
 13 22  1  0
 15 23  1  0
 15 24  1  0
 16 25  1  0
 17 26  1  0
M  END
>  <UniqueID>  (36) 
34

>  <SMILES>  (36) 
N#Cc1c[nH]c(S(=O)(=O)c2cccc(N)c2)c1

>  <Energy>  (36) 
52.13598632981287

>  <Genealogy>  (36) 
N#Cc1c[nH]c(S(=O)(=O)c2cccc(N)c2)c1 (3D coordinates assigned)
N#Cc1c[nH]c(S(=O)(=O)c2cccc(N)c2)c1 (optimized conformer: 52.13598632981287 kcal/mol)

>  <smiles>  (36) 
N#Cc1c[nH]c(S(=O)(=O)c2cccc(N)c2)c1

>  <score_type>  (36) 
oracle

>  <origin>  (36) 
adgpu

>  <m_score__min__energy>  (36) 
-7.1900000000000004

>  <m_primary>  (36) 
energy

$$$$
36:0
     RDKit          3D

 45 49  0  0  0  0  0  0  0  0999 V2000
   -1.2400   26.1840  -28.9770 O   0  0  0  0  0  0  0  0  0  0  0  0
   -1.3610   25.1320  -28.2950 C   0  0  0  0  0  0  0  0  0  0  0  0
   -0.5540   24.7910  -27.1290 C   0  0  0  0  0  0  0  0  0  0  0  0
    0.5240   25.4530  -26.5440 C   0  0  0  0  0  0  0  0  0  0  0  0
    1.1050   24.8830  -25.3980 C   0  0  0  0  0  0  0  0  0  0  0  0
    0.6010   23.6770  -24.8630 C   0  0  0  0  0  0  0  0  0  0  0  0
   -0.4920   23.0310  -25.4690 C   0  0  0  0  0  0  0  0  0  0  0  0
   -1.0500   23.6160  -26.6050 C   0  0  0  0  0  0  0  0  0  0  0  0
   -2.1720   23.1990  -27.4370 C   0  0  0  0  0  0  0  0  0  0  0  0
   -2.8690   22.1650  -27.2570 O   0  0  0  0  0  0  0  0  0  0  0  0
   -2.3670   24.1310  -28.5070 N   0  0  0  0  0  0  0  0  0  0  0  0
   -3.4270   24.1110  -29.4790 C   0  0  0  0  0  0  0  0  0  0  0  0
   -3.9700   22.9020  -29.9400 C   0  0  0  0  0  0  0  0  0  0  0  0
   -5.0080   22.9400  -30.8860 C   0  0  0  0  0  0  0  0  0  0  0  0
   -5.6250   21.6980  -31.4190 C   0  0  0  0  0  0  0  0  0  0  0  0
   -4.8760   20.5150  -31.5790 C   0  0  0  0  0  0  0  0  0  0  0  0
   -5.4800   19.3550  -32.0750 C   0  0  0  0  0  0  0  0  0  0  0  0
   -6.8380   19.3560  -32.4070 C   0  0  0  0  0  0  0  0  0  0  0  0
   -7.6100   17.8650  -33.0340 S   0  0  0  0  0  0  0  0  0  0  0  0
   -6.0650   17.2250  -33.6820 C   0  0  0  0  0  0  0  0  0  0  0  0
   -5.4290   16.1510  -33.0470 C   0  0  0  0  0  0  0  0  0  0  0  0
   -4.2270   15.6490  -33.5560 C   0  0  0  0  0  0  0  0  0  0  0  0
   -3.6590   16.2200  -34.6980 C   0  0  0  0  0  0  0  0  0  0  0  0
   -4.2900   17.2950  -35.3320 C   0  0  0  0  0  0  0  0  0  0  0  0
   -5.4910   17.7990  -34.8240 C   0  0  0  0  0  0  0  0  0  0  0  0
   -7.5930   20.5220  -32.2460 C   0  0  0  0  0  0  0  0  0  0  0  0
   -6.9930   21.6840  -31.7500 C   0  0  0  0  0  0  0  0  0  0  0  0
   -5.4490   24.1470  -31.3330 N   0  0  0  0  0  0  0  0  0  0  0  0
   -4.9220   25.3090  -30.8720 C   0  0  0  0  0  0  0  0  0  0  0  0
   -3.9250   25.2840  -29.9520 N   0  0  0  0  0  0  0  0  0  0  0  0
    0.9085   26.3931  -26.9663 H   0  0  0  0  0  0  0  0  0  0  0  0
    1.9587   25.3800  -24.9142 H   0  0  0  0  0  0  0  0  0  0  0  0
    1.0659   23.2401  -23.9669 H   0  0  0  0  0  0  0  0  0  0  0  0
   -0.8942   22.0928  -25.0590 H   0  0  0  0  0  0  0  0  0  0  0  0
   -3.5891   21.9400  -29.5667 H   0  0  0  0  0  0  0  0  0  0  0  0
   -3.8090   20.5038  -31.3120 H   0  0  0  0  0  0  0  0  0  0  0  0
   -4.8846   18.4391  -32.2042 H   0  0  0  0  0  0  0  0  0  0  0  0
   -5.8751   15.7020  -32.1474 H   0  0  0  0  0  0  0  0  0  0  0  0
   -3.7286   14.8046  -33.0574 H   0  0  0  0  0  0  0  0  0  0  0  0
   -2.7145   15.8234  -35.0987 H   0  0  0  0  0  0  0  0  0  0  0  0
   -3.8413   17.7440  -36.2304 H   0  0  0  0  0  0  0  0  0  0  0  0
   -5.9855   18.6466  -35.3211 H   0  0  0  0  0  0  0  0  0  0  0  0
   -8.6609   20.5253  -32.5100 H   0  0  0  0  0  0  0  0  0  0  0  0
   -7.5954   22.5948  -31.6174 H   0  0  0  0  0  0  0  0  0  0  0  0
   -5.3030   26.2715  -31.2441 H   0  0  0  0  0  0  0  0  0  0  0  0
  1  2  2  0
  2  3  1  0
  3  4  2  0
  4  5  1  0
  5  6  2  0
  6  7  1  0
  7  8  2  0
  8  9  1  0
  9 10  2  0
  9 11  1  0
 11 12  1  0
 12 13  2  0
 13 14  1  0
 14 15  1  0
 15 16  2  0
 16 17  1  0
 17 18  2  0
 18 19  1  0
 19 20  1  0
 20 21  2  0
 21 22  1  0
 22 23  2  0
 23 24  1  0
 24 25  2  0
 18 26  1  0
 26 27  2  0
 14 28  2  0
 28 29  1  0
 29 30  2  0
 11  2  1  0
 30 12  1  0
  8  3  1  0
 27 15  1  0
 25 20  1  0
  4 31  1  0
  5 32  1  0
  6 33  1  0
  7 34  1  0
 13 35  1  0
 16 36  1  0
 17 37  1  0
 21 38  1  0
 22 39  1  0
 23 40  1  0
 24 41  1  0
 25 42  1  0
 26 43  1  0
 27 44  1  0
 29 45  1  0
M  END
>  <UniqueID>  (37) 
35

>  <SMILES>  (37) 
O=C1c2ccccc2C(=O)N1c1cc(-c2ccc(Sc3ccccc3)cc2)ncn1

>  <Energy>  (37) 
88.36592243629322

>  <Genealogy>  (37) 
O=C1c2ccccc2C(=O)N1c1cc(-c2ccc(Sc3ccccc3)cc2)ncn1 (3D coordinates assigned)
O=C1c2ccccc2C(=O)N1c1cc(-c2ccc(Sc3ccccc3)cc2)ncn1 (nonaromatic ring conformer: 88.36592243629322 kcal/mol)

>  <smiles>  (37) 
O=C1c2ccccc2C(=O)N1c1cc(-c2ccc(Sc3ccccc3)cc2)ncn1

>  <score_type>  (37) 
oracle

>  <origin>  (37) 
adgpu

>  <m_score__min__energy>  (37) 
-9.8300000000000001

>  <m_primary>  (37) 
energy

$$$$
37:0
     RDKit          3D

 30 31  0  0  0  0  0  0  0  0999 V2000
   -0.2990   26.7430  -28.2350 H   0  0  0  0  0  0  0  0  0  0  0  0
   -1.2350   26.4690  -28.6100 N   0  0  0  0  0  0  0  0  0  0  0  0
   -1.4990   25.2470  -28.9460 C   0  0  0  0  0  0  0  0  0  0  0  0
   -0.5470   24.2860  -28.8120 N   0  0  0  0  0  0  0  0  0  0  0  0
   -0.8010   22.9970  -29.1530 C   0  0  0  0  0  0  0  0  0  0  0  0
    0.0970   22.1250  -29.0220 O   0  0  0  0  0  0  0  0  0  0  0  0
   -2.0550   22.6440  -29.6500 C   0  0  0  0  0  0  0  0  0  0  0  0
   -2.2734   21.6028  -29.9298 H   0  0  0  0  0  0  0  0  0  0  0  0
   -3.0340   23.6410  -29.7870 C   0  0  0  0  0  0  0  0  0  0  0  0
   -4.3790   23.3080  -30.3210 C   0  0  0  0  0  0  0  0  0  0  0  0
   -4.6120   22.0690  -30.9350 C   0  0  0  0  0  0  0  0  0  0  0  0
   -3.7920   21.3408  -31.0199 H   0  0  0  0  0  0  0  0  0  0  0  0
   -5.8750   21.7500  -31.4400 C   0  0  0  0  0  0  0  0  0  0  0  0
   -6.0377   20.7727  -31.9178 H   0  0  0  0  0  0  0  0  0  0  0  0
   -6.9440   22.6650  -31.3450 C   0  0  0  0  0  0  0  0  0  0  0  0
   -8.2570   22.3350  -31.8700 N   0  0  0  0  0  0  0  0  0  0  0  0
   -8.7010   20.9370  -31.9480 C   0  0  0  0  0  0  0  0  0  0  0  0
   -8.8285   20.5355  -30.9318 H   0  0  0  0  0  0  0  0  0  0  0  0
   -9.6595   20.8861  -32.4853 H   0  0  0  0  0  0  0  0  0  0  0  0
   -7.9475   20.3424  -32.4853 H   0  0  0  0  0  0  0  0  0  0  0  0
   -9.1630   23.3930  -32.3320 C   0  0  0  0  0  0  0  0  0  0  0  0
   -9.6017   23.9053  -31.4631 H   0  0  0  0  0  0  0  0  0  0  0  0
   -8.6010   24.1175  -32.9396 H   0  0  0  0  0  0  0  0  0  0  0  0
   -9.9654   22.9492  -32.9396 H   0  0  0  0  0  0  0  0  0  0  0  0
   -6.7020   23.9090  -30.7270 C   0  0  0  0  0  0  0  0  0  0  0  0
   -7.5188   24.6408  -30.6414 H   0  0  0  0  0  0  0  0  0  0  0  0
   -5.4380   24.2240  -30.2220 C   0  0  0  0  0  0  0  0  0  0  0  0
   -5.2710   25.1996  -29.7420 H   0  0  0  0  0  0  0  0  0  0  0  0
   -2.7310   24.9240  -29.4310 N   0  0  0  0  0  0  0  0  0  0  0  0
   -3.4560   25.6730  -29.5070 H   0  0  0  0  0  0  0  0  0  0  0  0
  1  2  1  0
  2  3  2  0
  3  4  1  0
  4  5  1  0
  5  6  2  0
  5  7  1  0
  7  8  1  0
  7  9  2  0
  9 10  1  0
 10 11  2  0
 11 12  1  0
 11 13  1  0
 13 14  1  0
 13 15  2  0
 15 16  1  0
 16 17  1  0
 17 18  1  0
 17 19  1  0
 17 20  1  0
 16 21  1  0
 21 22  1  0
 21 23  1  0
 21 24  1  0
 15 25  1  0
 25 26  1  0
 25 27  2  0
 27 28  1  0
  9 29  1  0
 29 30  1  0
 29  3  1  0
 27 10  1  0
M  CHG  1   4  -1
M  END
>  <UniqueID>  (38) 
36

>  <SMILES>  (38) 
[H]/N=c1\[n-]c(=O)cc(-c2ccc(N(C)C)cc2)[nH]1

>  <Energy>  (38) 
37.38217123889752

>  <Genealogy>  (38) 
CN(C)c1ccc(-c2cc(=O)[n-]c(=N)[nH]2)cc1 (protonated)
[H]/N=c1\[n-]c(=O)cc(-c2ccc(N(C)C)cc2)[nH]1 (cis-trans isomerization)
[H]/N=c1\[n-]c(=O)cc(-c2ccc(N(C)C)cc2)[nH]1 (3D coordinates assigned)
[H]/N=c1\[n-]c(=O)cc(-c2ccc(N(C)C)cc2)[nH]1 (optimized conformer: 37.38217123889752 kcal/mol)

>  <smiles>  (38) 
CN(C)c1ccc(-c2cc(=O)[nH]c(=N)[nH]2)cc1

>  <score_type>  (38) 
oracle

>  <origin>  (38) 
adgpu

>  <m_score__min__energy>  (38) 
-7.6699999999999999

>  <m_primary>  (38) 
energy

$$$$
38:0
     RDKit          3D

 38 40  0  0  0  0  0  0  0  0999 V2000
   -0.1036   22.0165  -33.6610 H   0  0  0  0  0  0  0  0  0  0  0  0
   -0.0340   21.2360  -34.4330 C   0  0  0  0  0  0  0  0  0  0  0  0
   -0.9640   20.3320  -34.5150 N   0  0  0  0  0  0  0  0  0  0  0  0
   -2.1020   20.2820  -33.6470 C   0  0  0  0  0  0  0  0  0  0  0  0
   -2.0600   20.6180  -32.3390 N   0  0  0  0  0  0  0  0  0  0  0  0
   -3.3260   20.4210  -31.9320 C   0  0  0  0  0  0  0  0  0  0  0  0
   -3.8170   20.7240  -30.5520 C   0  0  0  0  0  0  0  0  0  0  0  0
   -3.5010   19.9219  -29.8688 H   0  0  0  0  0  0  0  0  0  0  0  0
   -4.9148   20.7914  -30.5665 H   0  0  0  0  0  0  0  0  0  0  0  0
   -3.2490   22.0330  -30.0790 C   0  0  0  0  0  0  0  0  0  0  0  0
   -2.0990   22.0570  -29.2750 C   0  0  0  0  0  0  0  0  0  0  0  0
   -1.6281   21.1124  -28.9652 H   0  0  0  0  0  0  0  0  0  0  0  0
   -1.5490   23.2750  -28.8660 C   0  0  0  0  0  0  0  0  0  0  0  0
   -0.6522   23.2840  -28.2291 H   0  0  0  0  0  0  0  0  0  0  0  0
   -2.1370   24.4910  -29.2650 C   0  0  0  0  0  0  0  0  0  0  0  0
   -1.6190   25.7360  -28.8760 O   0  0  0  0  0  0  0  0  0  0  0  0
   -1.1260   26.0310  -27.5730 C   0  0  0  0  0  0  0  0  0  0  0  0
   -1.8134   25.6197  -26.8191 H   0  0  0  0  0  0  0  0  0  0  0  0
   -0.1307   25.5799  -27.4467 H   0  0  0  0  0  0  0  0  0  0  0  0
   -1.0531   27.1213  -27.4467 H   0  0  0  0  0  0  0  0  0  0  0  0
   -3.2780   24.4640  -30.0790 C   0  0  0  0  0  0  0  0  0  0  0  0
   -3.8690   25.6540  -30.4880 O   0  0  0  0  0  0  0  0  0  0  0  0
   -3.8280   23.2450  -30.4870 C   0  0  0  0  0  0  0  0  0  0  0  0
   -4.7195   23.2356  -31.1314 H   0  0  0  0  0  0  0  0  0  0  0  0
   -4.0960   19.9970  -32.9900 C   0  0  0  0  0  0  0  0  0  0  0  0
   -5.1721   19.7728  -32.9480 H   0  0  0  0  0  0  0  0  0  0  0  0
   -3.3200   19.9010  -34.0840 N   0  0  0  0  0  0  0  0  0  0  0  0
    1.1150   21.2310  -35.3610 C   0  0  0  0  0  0  0  0  0  0  0  0
    1.6540   20.0060  -35.7840 C   0  0  0  0  0  0  0  0  0  0  0  0
    1.2182   19.0628  -35.4229 H   0  0  0  0  0  0  0  0  0  0  0  0
    2.7420   19.9780  -36.6620 C   0  0  0  0  0  0  0  0  0  0  0  0
    3.1592   19.0137  -36.9877 H   0  0  0  0  0  0  0  0  0  0  0  0
    3.3010   21.1720  -37.1270 C   0  0  0  0  0  0  0  0  0  0  0  0
    4.3830   21.1350  -37.9990 O   0  0  0  0  0  0  0  0  0  0  0  0
    2.7710   22.3980  -36.7120 C   0  0  0  0  0  0  0  0  0  0  0  0
    3.3240   23.5890  -37.1710 O   0  0  0  0  0  0  0  0  0  0  0  0
    1.6830   22.4310  -35.8330 C   0  0  0  0  0  0  0  0  0  0  0  0
    1.2694   23.3975  -35.5091 H   0  0  0  0  0  0  0  0  0  0  0  0
  1  2  1  0
  2  3  2  0
  3  4  1  0
  4  5  2  0
  5  6  1  0
  6  7  1  0
  7  8  1  0
  7  9  1  0
  7 10  1  0
 10 11  2  0
 11 12  1  0
 11 13  1  0
 13 14  1  0
 13 15  2  0
 15 16  1  0
 16 17  1  0
 17 18  1  0
 17 19  1  0
 17 20  1  0
 15 21  1  0
 21 22  1  0
 21 23  2  0
 23 24  1  0
  6 25  2  0
 25 26  1  0
 25 27  1  0
  2 28  1  0
 28 29  2  0
 29 30  1  0
 29 31  1  0
 31 32  1  0
 31 33  2  0
 33 34  1  0
 33 35  1  0
 35 36  1  0
 35 37  2  0
 37 38  1  0
 27  4  1  0
 37 28  1  0
 23 10  1  0
M  CHG  4  22  -1  27  -1  34  -1  36  -1
M  END
>  <UniqueID>  (39) 
37

>  <SMILES>  (39) 
COc1ccc(Cc2c[n-]c(/N=C/c3ccc([O-])c([O-])c3)n2)cc1[O-]

>  <Energy>  (39) 
66.0404933069785

>  <Genealogy>  (39) 
COc1ccc(Cc2c[n-]c(N=Cc3ccc([O-])c([O-])c3)n2)cc1[O-] (protonated)
COc1ccc(Cc2c[n-]c(/N=C/c3ccc([O-])c([O-])c3)n2)cc1[O-] (cis-trans isomerization)
COc1ccc(Cc2c[n-]c(/N=C/c3ccc([O-])c([O-])c3)n2)cc1[O-] (3D coordinates assigned)
COc1ccc(Cc2c[n-]c(/N=C/c3ccc([O-])c([O-])c3)n2)cc1[O-] (optimized conformer: 66.0404933069785 kcal/mol)

>  <smiles>  (39) 
COc1ccc(Cc2c[nH]c(N=Cc3ccc(O)c(O)c3)n2)cc1O

>  <score_type>  (39) 
oracle

>  <origin>  (39) 
adgpu

>  <m_score__min__energy>  (39) 
-12.720000000000001

>  <m_primary>  (39) 
energy

$$$$
39:0
     RDKit          3D

 39 41  0  0  1  0  0  0  0  0999 V2000
   -8.0380   20.3190  -33.1030 N   0  0  0  0  0  0  0  0  0  0  0  0
   -8.3800   21.5330  -31.9120 S   0  0  0  0  0  0  0  0  0  0  0  0
   -9.4990   22.4010  -32.3760 O   0  0  0  0  0  0  0  0  0  0  0  0
   -8.8810   20.7850  -30.6920 O   0  0  0  0  0  0  0  0  0  0  0  0
   -6.9390   22.4420  -31.5230 C   0  0  0  0  0  0  0  0  0  0  0  0
   -5.6980   22.0280  -31.9930 C   0  0  0  0  0  0  0  0  0  0  0  0
   -4.5670   22.7810  -31.6620 C   0  0  0  0  0  0  0  0  0  0  0  0
   -4.6890   23.9330  -30.8680 C   0  0  0  0  0  0  0  0  0  0  0  0
   -3.5760   24.6870  -30.4580 N   0  0  0  0  0  0  0  0  0  0  0  0
   -2.9110   24.4870  -29.4030 C   0  0  0  0  0  0  0  0  0  0  0  0
   -1.8610   25.3060  -29.1500 N   0  0  0  0  0  0  0  0  0  0  0  0
   -1.1130   25.1420  -28.0380 C   0  0  0  0  0  0  0  0  0  0  0  0
   -0.1350   25.9280  -27.8340 N   0  0  0  0  0  0  0  0  0  0  0  0
    0.7340   25.8710  -26.7090 C   0  0  0  0  0  0  0  0  0  0  0  0
    1.7720   24.9740  -26.5930 C   0  0  0  0  0  0  0  0  0  0  0  0
    2.6060   24.9420  -25.4820 C   0  0  0  0  0  0  0  0  0  0  0  0
    2.3800   25.8470  -24.4570 C   0  0  0  0  0  0  0  0  0  0  0  0
    3.1900   25.8150  -23.3790 F   0  0  0  0  0  0  0  0  0  0  0  0
    1.3410   26.7500  -24.5650 C   0  0  0  0  0  0  0  0  0  0  0  0
    1.1150   27.8690  -23.2220 Cl  0  0  0  0  0  0  0  0  0  0  0  0
    0.5230   26.7720  -25.6690 C   0  0  0  0  0  0  0  0  0  0  0  0
   -1.3700   24.1820  -27.1520 N   0  0  0  0  0  0  0  0  0  0  0  0
   -2.4130   23.3680  -27.4000 C   0  0  0  0  0  0  0  0  0  0  0  0
   -3.1940   23.4970  -28.5090 C   0  0  0  0  0  0  0  0  0  0  0  0
   -4.6380   22.2980  -28.7650 Br  0  0  0  0  0  0  0  0  0  0  0  0
   -5.9580   24.3260  -30.4100 C   0  0  0  0  0  0  0  0  0  0  0  0
   -7.0910   23.5740  -30.7400 C   0  0  0  0  0  0  0  0  0  0  0  0
   -7.1890   20.5760  -33.6580 H   0  0  0  0  0  0  0  0  0  0  0  0
   -8.8730   20.2050  -33.7200 H   0  0  0  0  0  0  0  0  0  0  0  0
   -5.6072   21.1246  -32.6140 H   0  0  0  0  0  0  0  0  0  0  0  0
   -3.5766   22.4694  -32.0254 H   0  0  0  0  0  0  0  0  0  0  0  0
   -1.6160   26.0760  -29.8150 H   0  0  0  0  0  0  0  0  0  0  0  0
    1.9473   24.2572  -27.4088 H   0  0  0  0  0  0  0  0  0  0  0  0
    3.4280   24.2139  -25.4174 H   0  0  0  0  0  0  0  0  0  0  0  0
   -0.2982   27.5013  -25.7309 H   0  0  0  0  0  0  0  0  0  0  0  0
   -0.7910   24.0750  -26.3160 H   0  0  0  0  0  0  0  0  0  0  0  0
   -2.6435   22.5687  -26.6803 H   0  0  0  0  0  0  0  0  0  0  0  0
   -6.0612   25.2284  -29.7895 H   0  0  0  0  0  0  0  0  0  0  0  0
   -8.0864   23.8772  -30.3832 H   0  0  0  0  0  0  0  0  0  0  0  0
  1  2  1  0
  2  3  2  0
  2  4  2  0
  2  5  1  0
  5  6  2  0
  6  7  1  0
  7  8  2  0
  8  9  1  0
  9 10  2  0
 10 11  1  0
 11 12  1  0
 12 13  2  0
 13 14  1  0
 14 15  2  0
 15 16  1  0
 16 17  2  0
 17 18  1  0
 17 19  1  0
 19 20  1  0
 19 21  2  0
 12 22  1  0
 22 23  1  0
 23 24  2  0
 24 25  1  0
  8 26  1  0
 26 27  2  0
 27  5  1  0
 24 10  1  0
 21 14  1  0
  1 28  1  0
  1 29  1  0
  6 30  1  0
  7 31  1  0
 11 32  1  0
 15 33  1  0
 16 34  1  0
 21 35  1  0
 22 36  1  0
 23 37  1  0
 26 38  1  0
 27 39  1  0
M  END
>  <smiles>  (40) 
NS(=O)(=O)c1ccc(N=c2[nH]c(=Nc3ccc(F)c(Cl)c3)[nH]cc2Br)cc1

>  <score_type>  (40) 
oracle

>  <origin>  (40) 
adgpu

>  <m_score__min__energy>  (40) 
-9.3100000000000005

>  <m_primary>  (40) 
energy

$$$$
40:0
     RDKit          3D

 52 55  0  0  0  0  0  0  0  0999 V2000
   -0.8550   24.4810  -24.1480 N   0  0  0  0  0  0  0  0  0  0  0  0
   -0.6330   25.8840  -24.3400 C   0  0  0  0  0  0  0  0  0  0  0  0
    0.2050   26.5710  -23.4470 C   0  0  0  0  0  0  0  0  0  0  0  0
    0.5060   27.9190  -23.6540 C   0  0  0  0  0  0  0  0  0  0  0  0
   -0.0200   28.5930  -24.7580 C   0  0  0  0  0  0  0  0  0  0  0  0
   -0.8630   27.9230  -25.6480 C   0  0  0  0  0  0  0  0  0  0  0  0
   -1.1970   26.5770  -25.4380 C   0  0  0  0  0  0  0  0  0  0  0  0
   -2.0950   25.9350  -26.3540 N   0  0  0  0  0  0  0  0  0  0  0  0
   -1.7390   24.7390  -27.0670 C   0  0  0  0  0  0  0  0  0  0  0  0
   -0.6800   24.1250  -26.7620 O   0  0  0  0  0  0  0  0  0  0  0  0
   -2.6080   24.2040  -28.1430 C   0  0  0  0  0  0  0  0  0  0  0  0
   -2.0450   23.7660  -29.3540 C   0  0  0  0  0  0  0  0  0  0  0  0
   -2.8560   23.2660  -30.3750 C   0  0  0  0  0  0  0  0  0  0  0  0
   -4.2490   23.2040  -30.2120 C   0  0  0  0  0  0  0  0  0  0  0  0
   -5.0840   22.6760  -31.2600 N   0  0  0  0  0  0  0  0  0  0  0  0
   -4.6130   22.6490  -32.6530 C   0  0  0  0  0  0  0  0  0  0  0  0
   -4.7120   21.2220  -33.2060 C   0  0  0  0  0  0  0  0  0  0  0  0
   -5.9770   20.5810  -32.8140 N   0  0  0  0  0  0  0  0  0  0  0  0
   -6.1610   19.1710  -33.0470 C   0  0  0  0  0  0  0  0  0  0  0  0
   -5.4650   18.5220  -34.0810 C   0  0  0  0  0  0  0  0  0  0  0  0
   -5.6350   17.1510  -34.2960 C   0  0  0  0  0  0  0  0  0  0  0  0
   -6.4970   16.4150  -33.4790 C   0  0  0  0  0  0  0  0  0  0  0  0
   -7.1880   17.0490  -32.4430 C   0  0  0  0  0  0  0  0  0  0  0  0
   -7.0200   18.4200  -32.2240 C   0  0  0  0  0  0  0  0  0  0  0  0
   -7.0100   21.3690  -32.1250 C   0  0  0  0  0  0  0  0  0  0  0  0
   -6.3930   22.0930  -30.9230 C   0  0  0  0  0  0  0  0  0  0  0  0
   -4.8150   23.6430  -29.0050 C   0  0  0  0  0  0  0  0  0  0  0  0
   -4.0040   24.1440  -27.9830 C   0  0  0  0  0  0  0  0  0  0  0  0
   -1.5050   23.9560  -24.7750 H   0  0  0  0  0  0  0  0  0  0  0  0
   -0.4460   23.9660  -23.3380 H   0  0  0  0  0  0  0  0  0  0  0  0
    0.6272   26.0440  -22.5787 H   0  0  0  0  0  0  0  0  0  0  0  0
    1.1587   28.4507  -22.9460 H   0  0  0  0  0  0  0  0  0  0  0  0
    0.2293   29.6510  -24.9268 H   0  0  0  0  0  0  0  0  0  0  0  0
   -1.2683   28.4556  -26.5210 H   0  0  0  0  0  0  0  0  0  0  0  0
   -3.1050   26.2020  -26.3070 H   0  0  0  0  0  0  0  0  0  0  0  0
   -0.9558   23.8175  -29.4989 H   0  0  0  0  0  0  0  0  0  0  0  0
   -2.4001   22.9182  -31.3137 H   0  0  0  0  0  0  0  0  0  0  0  0
   -5.2353   23.3210  -33.2622 H   0  0  0  0  0  0  0  0  0  0  0  0
   -3.5650   22.9811  -32.6891 H   0  0  0  0  0  0  0  0  0  0  0  0
   -4.6546   21.2588  -34.3039 H   0  0  0  0  0  0  0  0  0  0  0  0
   -3.8816   20.6316  -32.7913 H   0  0  0  0  0  0  0  0  0  0  0  0
   -4.7825   19.0960  -34.7250 H   0  0  0  0  0  0  0  0  0  0  0  0
   -5.0892   16.6510  -35.1097 H   0  0  0  0  0  0  0  0  0  0  0  0
   -6.6316   15.3369  -33.6512 H   0  0  0  0  0  0  0  0  0  0  0  0
   -7.8651   16.4689  -31.7988 H   0  0  0  0  0  0  0  0  0  0  0  0
   -7.5623   18.9137  -31.4041 H   0  0  0  0  0  0  0  0  0  0  0  0
   -7.4300   22.1096  -32.8216 H   0  0  0  0  0  0  0  0  0  0  0  0
   -7.8072   20.6968  -31.7749 H   0  0  0  0  0  0  0  0  0  0  0  0
   -7.0714   22.8977  -30.6033 H   0  0  0  0  0  0  0  0  0  0  0  0
   -6.2477   21.3604  -30.1154 H   0  0  0  0  0  0  0  0  0  0  0  0
   -5.9045   23.5924  -28.8624 H   0  0  0  0  0  0  0  0  0  0  0  0
   -4.4612   24.4942  -27.0458 H   0  0  0  0  0  0  0  0  0  0  0  0
  1  2  1  0
  2  3  2  0
  3  4  1  0
  4  5  2  0
  5  6  1  0
  6  7  2  0
  7  8  1  0
  8  9  1  0
  9 10  2  0
  9 11  1  0
 11 12  2  0
 12 13  1  0
 13 14  2  0
 14 15  1  0
 15 16  1  0
 16 17  1  0
 17 18  1  0
 18 19  1  0
 19 20  2  0
 20 21  1  0
 21 22  2  0
 22 23  1  0
 23 24  2  0
 18 25  1  0
 25 26  1  0
 14 27  1  0
 27 28  2  0
  7  2  1  0
 28 11  1  0
 26 15  1  0
 24 19  1  0
  1 29  1  0
  1 30  1  0
  3 31  1  0
  4 32  1  0
  5 33  1  0
  6 34  1  0
  8 35  1  0
 12 36  1  0
 13 37  1  0
 16 38  1  0
 16 39  1  0
 17 40  1  0
 17 41  1  0
 20 42  1  0
 21 43  1  0
 22 44  1  0
 23 45  1  0
 24 46  1  0
 25 47  1  0
 25 48  1  0
 26 49  1  0
 26 50  1  0
 27 51  1  0
 28 52  1  0
M  END
>  <UniqueID>  (41) 
38

>  <SMILES>  (41) 
Nc1ccccc1NC(=O)c1ccc(N2CCN(c3ccccc3)CC2)cc1

>  <Energy>  (41) 
72.41135298557687

>  <Genealogy>  (41) 
Nc1ccccc1NC(=O)c1ccc(N2CCN(c3ccccc3)CC2)cc1 (3D coordinates assigned)
Nc1ccccc1NC(=O)c1ccc(N2CCN(c3ccccc3)CC2)cc1 (nonaromatic ring conformer: 72.41135298557687 kcal/mol)

>  <smiles>  (41) 
Nc1ccccc1NC(=O)c1ccc(N2CCN(c3ccccc3)CC2)cc1

>  <score_type>  (41) 
oracle

>  <origin>  (41) 
adgpu

>  <m_score__min__energy>  (41) 
-9.5

>  <m_primary>  (41) 
energy

$$$$
41:0
     RDKit          3D

 38 40  0  0  0  0  0  0  0  0999 V2000
   -4.1760   25.6640  -31.6270 H   0  0  0  0  0  0  0  0  0  0  0  0
   -3.8790   25.6880  -30.6590 O   0  0  0  0  0  0  0  0  0  0  0  0
   -3.5270   24.5190  -29.9960 C   0  0  0  0  0  0  0  0  0  0  0  0
   -3.4580   23.3200  -30.6370 N   0  0  0  0  0  0  0  0  0  0  0  0
   -3.1030   22.3320  -29.7860 C   0  0  0  0  0  0  0  0  0  0  0  0
   -2.9240   21.0920  -30.1320 N   0  0  0  0  0  0  0  0  0  0  0  0
   -3.1550   20.5230  -31.4310 C   0  0  0  0  0  0  0  0  0  0  0  0
   -2.2550   20.7010  -32.4980 C   0  0  0  0  0  0  0  0  0  0  0  0
   -1.3274   21.2717  -32.3435 H   0  0  0  0  0  0  0  0  0  0  0  0
   -2.5360   20.1550  -33.7530 C   0  0  0  0  0  0  0  0  0  0  0  0
   -1.8201   20.2815  -34.5785 H   0  0  0  0  0  0  0  0  0  0  0  0
   -3.7230   19.4490  -33.9630 C   0  0  0  0  0  0  0  0  0  0  0  0
   -3.9342   19.0116  -34.9499 H   0  0  0  0  0  0  0  0  0  0  0  0
   -4.6450   19.2970  -32.9190 C   0  0  0  0  0  0  0  0  0  0  0  0
   -6.1650   18.4410  -33.1940 S   0  0  0  0  0  0  0  0  0  0  0  0
   -6.3510   17.4060  -32.1180 O   0  0  0  0  0  0  0  0  0  0  0  0
   -6.1010   17.7290  -34.5160 O   0  0  0  0  0  0  0  0  0  0  0  0
   -7.5280   19.5350  -33.1850 N   0  0  0  0  0  0  0  0  0  0  0  0
   -8.6860   18.9620  -32.4520 C   0  0  0  0  0  0  0  0  0  0  0  0
   -9.5990   19.1517  -33.0354 H   0  0  0  0  0  0  0  0  0  0  0  0
   -8.4962   17.8859  -32.3257 H   0  0  0  0  0  0  0  0  0  0  0  0
   -8.8660   19.5650  -31.0510 C   0  0  0  0  0  0  0  0  0  0  0  0
   -9.7506   19.1144  -30.5772 H   0  0  0  0  0  0  0  0  0  0  0  0
   -7.9613   19.3543  -30.4618 H   0  0  0  0  0  0  0  0  0  0  0  0
   -9.0570   21.0900  -31.1230 C   0  0  0  0  0  0  0  0  0  0  0  0
  -10.1308   21.3055  -31.2259 H   0  0  0  0  0  0  0  0  0  0  0  0
   -8.6418   21.5203  -30.1997 H   0  0  0  0  0  0  0  0  0  0  0  0
   -8.3110   21.7280  -32.3090 C   0  0  0  0  0  0  0  0  0  0  0  0
   -9.0007   21.8170  -33.1613 H   0  0  0  0  0  0  0  0  0  0  0  0
   -7.9475   22.7193  -32.0005 H   0  0  0  0  0  0  0  0  0  0  0  0
   -7.1080   20.8770  -32.7260 C   0  0  0  0  0  0  0  0  0  0  0  0
   -6.5770   21.3850  -33.5445 H   0  0  0  0  0  0  0  0  0  0  0  0
   -6.4520   20.7537  -31.8516 H   0  0  0  0  0  0  0  0  0  0  0  0
   -4.3560   19.8390  -31.6580 C   0  0  0  0  0  0  0  0  0  0  0  0
   -5.0806   19.7256  -30.8382 H   0  0  0  0  0  0  0  0  0  0  0  0
   -2.8440   22.9050  -28.2280 S   0  0  0  0  0  0  0  0  0  0  0  0
   -3.2190   24.4940  -28.6400 C   0  0  0  0  0  0  0  0  0  0  0  0
   -3.2202   25.3576  -27.9587 H   0  0  0  0  0  0  0  0  0  0  0  0
  1  2  1  0
  2  3  1  0
  3  4  1  0
  4  5  1  0
  5  6  2  0
  6  7  1  0
  7  8  2  0
  8  9  1  0
  8 10  1  0
 10 11  1  0
 10 12  2  0
 12 13  1  0
 12 14  1  0
 14 15  1  0
 15 16  2  0
 15 17  2  0
 15 18  1  0
 18 19  1  0
 19 20  1  0
 19 21  1  0
 19 22  1  0
 22 23  1  0
 22 24  1  0
 22 25  1  0
 25 26  1  0
 25 27  1  0
 25 28  1  0
 28 29  1  0
 28 30  1  0
 28 31  1  0
 31 32  1  0
 31 33  1  0
 14 34  2  0
 34 35  1  0
  5 36  1  0
 36 37  1  0
 37 38  1  0
 37  3  2  0
 34  7  1  0
 31 18  1  0
M  CHG  1   4  -1
M  END
>  <UniqueID>  (42) 
39

>  <SMILES>  (42) 
O=S(=O)(c1cccc(/N=c2\[n-]c(O)cs2)c1)N1CCCCC1

>  <Energy>  (42) 
78.73654741393526

>  <Genealogy>  (42) 
O=S(=O)(c1cccc(N=c2[n-]c(O)cs2)c1)N1CCCCC1 (protonated)
O=S(=O)(c1cccc(/N=c2\[n-]c(O)cs2)c1)N1CCCCC1 (cis-trans isomerization)
O=S(=O)(c1cccc(/N=c2\[n-]c(O)cs2)c1)N1CCCCC1 (3D coordinates assigned)
O=S(=O)(c1cccc(/N=c2\[n-]c(O)cs2)c1)N1CCCCC1 (nonaromatic ring conformer: 78.73654741393526 kcal/mol)

>  <smiles>  (42) 
O=S(=O)(c1cccc(N=c2[nH]c(O)cs2)c1)N1CCCCC1

>  <score_type>  (42) 
oracle

>  <origin>  (42) 
adgpu

>  <m_score__min__energy>  (42) 
-9.6300000000000008

>  <m_primary>  (42) 
energy

$$$$
42:0
     RDKit          3D

 59 62  0  0  0  0  0  0  0  0999 V2000
    0.1480   20.6430  -32.0450 N   0  0  0  0  0  0  0  0  0  0  0  0
   -0.9610   19.9890  -32.2040 C   0  0  0  0  0  0  0  0  0  0  0  0
   -0.9530   18.6300  -32.6580 N   0  0  0  0  0  0  0  0  0  0  0  0
   -1.9580   24.0990  -28.1440 C   0  0  0  0  0  0  0  0  0  0  0  0
   -2.3190   24.6990  -29.3360 C   0  0  0  0  0  0  0  0  0  0  0  0
   -4.0880   21.0930  -30.4460 C   0  0  0  0  0  0  0  0  0  0  0  0
   -4.5960   22.0420  -31.3310 C   0  0  0  0  0  0  0  0  0  0  0  0
   -5.8200   22.7050  -31.0340 N   0  0  0  0  0  0  0  0  0  0  0  0
   -5.8630   23.5590  -29.8370 C   0  0  0  0  0  0  0  0  0  0  0  0
   -4.5330   23.7090  -29.2020 C   0  0  0  0  0  0  0  0  0  0  0  0
   -3.5890   24.4890  -29.8300 C   0  0  0  0  0  0  0  0  0  0  0  0
   -8.3770   18.5990  -32.3810 C   0  0  0  0  0  0  0  0  0  0  0  0
   -7.2120   19.0090  -32.9850 C   0  0  0  0  0  0  0  0  0  0  0  0
   -0.6150   24.3530  -27.6600 C   0  0  0  0  0  0  0  0  0  0  0  0
    0.3180   24.3840  -28.5340 O   0  0  0  0  0  0  0  0  0  0  0  0
   -0.2810   24.5630  -26.2990 N   0  0  0  0  0  0  0  0  0  0  0  0
   -0.4120   23.6570  -25.3830 C   0  0  0  0  0  0  0  0  0  0  0  0
   -0.8790   22.3820  -25.5460 N   0  0  0  0  0  0  0  0  0  0  0  0
   -0.8300   21.8350  -24.3180 N   0  0  0  0  0  0  0  0  0  0  0  0
   -0.3630   22.7310  -23.4800 N   0  0  0  0  0  0  0  0  0  0  0  0
   -0.0950   23.8660  -24.0970 N   0  0  0  0  0  0  0  0  0  0  0  0
   -2.9010   20.4360  -30.7460 C   0  0  0  0  0  0  0  0  0  0  0  0
   -4.1750   23.1090  -28.0160 C   0  0  0  0  0  0  0  0  0  0  0  0
   -6.9870   22.5980  -31.8420 C   0  0  0  0  0  0  0  0  0  0  0  0
   -7.5030   21.2200  -32.0190 C   0  0  0  0  0  0  0  0  0  0  0  0
   -6.7780   20.3150  -32.8030 C   0  0  0  0  0  0  0  0  0  0  0  0
   -2.2050   20.6950  -31.9060 C   0  0  0  0  0  0  0  0  0  0  0  0
   -6.4210   18.0730  -33.8150 C   0  0  0  0  0  0  0  0  0  0  0  0
   -5.8490   18.6060  -35.0220 N   0  0  0  0  0  0  0  0  0  0  0  0
   -6.2540   16.8740  -33.4910 O   0  0  0  0  0  0  0  0  0  0  0  0
   -2.7130   21.6470  -32.7980 C   0  0  0  0  0  0  0  0  0  0  0  0
   -9.1260   19.4580  -31.5980 C   0  0  0  0  0  0  0  0  0  0  0  0
   -8.6590   20.7580  -31.4390 C   0  0  0  0  0  0  0  0  0  0  0  0
   -9.4290   21.5930  -30.6520 O   0  0  0  0  0  0  0  0  0  0  0  0
   -3.9040   22.3070  -32.4960 C   0  0  0  0  0  0  0  0  0  0  0  0
   -2.8870   23.3250  -27.5180 C   0  0  0  0  0  0  0  0  0  0  0  0
    0.2010   21.6330  -31.7180 H   0  0  0  0  0  0  0  0  0  0  0  0
   -1.6470   17.9350  -32.2940 H   0  0  0  0  0  0  0  0  0  0  0  0
   -0.2340   18.3200  -33.3740 H   0  0  0  0  0  0  0  0  0  0  0  0
   -1.6048   25.3335  -29.8813 H   0  0  0  0  0  0  0  0  0  0  0  0
   -4.6247   20.8649  -29.5133 H   0  0  0  0  0  0  0  0  0  0  0  0
   -6.2305   24.5546  -30.1264 H   0  0  0  0  0  0  0  0  0  0  0  0
   -6.5311   23.0792  -29.1066 H   0  0  0  0  0  0  0  0  0  0  0  0
   -3.8631   24.9721  -30.7795 H   0  0  0  0  0  0  0  0  0  0  0  0
   -8.7211   17.5640  -32.5239 H   0  0  0  0  0  0  0  0  0  0  0  0
   -0.2340   22.5380  -22.4530 H   0  0  0  0  0  0  0  0  0  0  0  0
    0.2830   24.7080  -23.6170 H   0  0  0  0  0  0  0  0  0  0  0  0
   -2.5073   19.6904  -30.0395 H   0  0  0  0  0  0  0  0  0  0  0  0
   -4.8880   22.4726  -27.4713 H   0  0  0  0  0  0  0  0  0  0  0  0
   -7.7802   23.2021  -31.3773 H   0  0  0  0  0  0  0  0  0  0  0  0
   -6.7000   22.9495  -32.8440 H   0  0  0  0  0  0  0  0  0  0  0  0
   -5.8458   20.6453  -33.2845 H   0  0  0  0  0  0  0  0  0  0  0  0
   -6.5660   18.8060  -35.7780 H   0  0  0  0  0  0  0  0  0  0  0  0
   -4.8310   18.7750  -35.1390 H   0  0  0  0  0  0  0  0  0  0  0  0
   -2.1762   21.8730  -33.7311 H   0  0  0  0  0  0  0  0  0  0  0  0
  -10.0580   19.1248  -31.1180 H   0  0  0  0  0  0  0  0  0  0  0  0
   -9.1720   21.7500  -29.6710 H   0  0  0  0  0  0  0  0  0  0  0  0
   -4.2999   23.0536  -33.2001 H   0  0  0  0  0  0  0  0  0  0  0  0
   -2.6088   22.8436  -26.5689 H   0  0  0  0  0  0  0  0  0  0  0  0
  1  2  2  3
  2  3  1  0
  2  4  1  0
  4  5  2  0
  5  6  1  0
  6  7  2  0
  7  8  1  0
  8  9  1  0
  9 10  1  0
 10 11  2  0
 11 12  1  0
 12 13  2  0
 13 14  1  0
 14 15  2  0
 14 16  1  0
 16 17  2  3
 17 18  1  0
 18 19  2  0
 19 20  1  0
 20 21  1  0
 13 22  1  0
 22 23  2  0
  8 24  1  0
 24 25  1  0
 25 26  2  0
 26 27  1  0
 27 28  1  0
 28 29  1  0
 28 30  2  0
 27 31  2  0
 31 32  1  0
 32 33  2  0
 33 34  1  0
  7 35  1  0
 35 36  2  0
 36  4  1  0
 23 10  1  0
 33 25  1  0
 21 17  1  0
  1 37  1  0
  3 38  1  0
  3 39  1  0
  5 40  1  0
  6 41  1  0
  9 42  1  0
  9 43  1  0
 11 44  1  0
 12 45  1  0
 20 46  1  0
 21 47  1  0
 22 48  1  0
 23 49  1  0
 24 50  1  0
 24 51  1  0
 26 52  1  0
 29 53  1  0
 29 54  1  0
 31 55  1  0
 32 56  1  0
 34 57  1  0
 35 58  1  0
 36 59  1  0
M  END
>  <smiles>  (43) 
N=C(N)c1ccc(N(Cc2ccc(C(=O)N=c3nn[nH][nH]3)cc2)Cc2cc(C(N)=O)ccc2O)cc1

>  <score_type>  (43) 
oracle

>  <origin>  (43) 
adgpu

>  <m_score__min__energy>  (43) 
-10.15

>  <m_primary>  (43) 
energy

$$$$
43:0
     RDKit          3D

 35 37  0  0  0  0  0  0  0  0999 V2000
  -10.9810   21.6050  -32.4330 H   0  0  0  0  0  0  0  0  0  0  0  0
  -10.1220   21.0190  -32.3320 N   0  0  0  0  0  0  0  0  0  0  0  0
   -8.9970   21.5260  -31.9400 C   0  0  0  0  0  0  0  0  0  0  0  0
   -8.9230   22.8520  -31.6480 N   0  0  0  0  0  0  0  0  0  0  0  0
   -7.7740   23.4370  -31.2210 C   0  0  0  0  0  0  0  0  0  0  0  0
   -7.7588   24.5137  -30.9962 H   0  0  0  0  0  0  0  0  0  0  0  0
   -6.6050   22.6740  -31.0650 C   0  0  0  0  0  0  0  0  0  0  0  0
   -5.3430   23.3010  -30.5950 C   0  0  0  0  0  0  0  0  0  0  0  0
   -4.9970   24.6070  -30.9850 C   0  0  0  0  0  0  0  0  0  0  0  0
   -5.6655   25.1747  -31.6490 H   0  0  0  0  0  0  0  0  0  0  0  0
   -3.8410   25.1720  -30.5460 N   0  0  0  0  0  0  0  0  0  0  0  0
   -2.9830   24.5070  -29.7260 C   0  0  0  0  0  0  0  0  0  0  0  0
   -1.8900   25.0760  -29.3290 N   0  0  0  0  0  0  0  0  0  0  0  0
   -1.6420   26.0480  -29.6250 H   0  0  0  0  0  0  0  0  0  0  0  0
   -3.2840   23.2070  -29.3110 C   0  0  0  0  0  0  0  0  0  0  0  0
   -2.5961   22.6630  -28.6470 H   0  0  0  0  0  0  0  0  0  0  0  0
   -4.4660   22.6050  -29.7470 C   0  0  0  0  0  0  0  0  0  0  0  0
   -4.7112   21.5821  -29.4252 H   0  0  0  0  0  0  0  0  0  0  0  0
   -6.6610   21.3030  -31.3630 C   0  0  0  0  0  0  0  0  0  0  0  0
   -5.7600   20.6830  -31.2459 H   0  0  0  0  0  0  0  0  0  0  0  0
   -7.8530   20.7170  -31.8080 C   0  0  0  0  0  0  0  0  0  0  0  0
   -7.9080   18.9840  -32.1540 S   0  0  0  0  0  0  0  0  0  0  0  0
   -7.9580   18.2180  -30.8620 O   0  0  0  0  0  0  0  0  0  0  0  0
   -9.1380   18.6440  -32.9480 O   0  0  0  0  0  0  0  0  0  0  0  0
   -6.4820   18.5400  -33.0830 C   0  0  0  0  0  0  0  0  0  0  0  0
   -6.4810   17.3520  -33.8290 C   0  0  0  0  0  0  0  0  0  0  0  0
   -7.3654   16.6980  -33.8203 H   0  0  0  0  0  0  0  0  0  0  0  0
   -5.3580   16.9970  -34.5840 C   0  0  0  0  0  0  0  0  0  0  0  0
   -5.3595   16.0636  -35.1661 H   0  0  0  0  0  0  0  0  0  0  0  0
   -4.2340   17.8280  -34.5990 C   0  0  0  0  0  0  0  0  0  0  0  0
   -3.3508   17.5476  -35.1918 H   0  0  0  0  0  0  0  0  0  0  0  0
   -4.2320   19.0150  -33.8610 C   0  0  0  0  0  0  0  0  0  0  0  0
   -3.3471   19.6683  -33.8747 H   0  0  0  0  0  0  0  0  0  0  0  0
   -5.3530   19.3740  -33.1050 C   0  0  0  0  0  0  0  0  0  0  0  0
   -5.3498   20.3102  -32.5275 H   0  0  0  0  0  0  0  0  0  0  0  0
  1  2  1  0
  2  3  2  3
  3  4  1  0
  4  5  1  0
  5  6  1  0
  5  7  2  0
  7  8  1  0
  8  9  2  0
  9 10  1  0
  9 11  1  0
 11 12  1  0
 12 13  2  0
 13 14  1  0
 12 15  1  0
 15 16  1  0
 15 17  2  0
 17 18  1  0
  7 19  1  0
 19 20  1  0
 19 21  2  0
 21 22  1  0
 22 23  2  0
 22 24  2  0
 22 25  1  0
 25 26  2  0
 26 27  1  0
 26 28  1  0
 28 29  1  0
 28 30  2  0
 30 31  1  0
 30 32  1  0
 32 33  1  0
 32 34  2  0
 34 35  1  0
 21  3  1  0
 34 25  1  0
 17  8  1  0
M  CHG  2   4  -1  11  -1
M  END
>  <UniqueID>  (44) 
40

>  <SMILES>  (44) 
[H]/N=c1/ccc(-c2c[n-]c(=N)c(S(=O)(=O)c3ccccc3)c2)c[n-]1

>  <Energy>  (44) 
47.39065227191057

>  <Genealogy>  (44) 
N=c1ccc(-c2c[n-]c(=N)c(S(=O)(=O)c3ccccc3)c2)c[n-]1 (protonated)
[H]/N=c1/ccc(-c2c[n-]c(=N)c(S(=O)(=O)c3ccccc3)c2)c[n-]1 (cis-trans isomerization)
[H]/N=c1/ccc(-c2c[n-]c(=N)c(S(=O)(=O)c3ccccc3)c2)c[n-]1 (3D coordinates assigned)
[H]/N=c1/ccc(-c2c[n-]c(=N)c(S(=O)(=O)c3ccccc3)c2)c[n-]1 (optimized conformer: 47.39065227191057 kcal/mol)

>  <smiles>  (44) 
N=c1ccc(-c2c[nH]c(=N)c(S(=O)(=O)c3ccccc3)c2)c[nH]1

>  <score_type>  (44) 
oracle

>  <origin>  (44) 
adgpu

>  <m_score__min__energy>  (44) 
-11.18

>  <m_primary>  (44) 
energy

$$$$
44:0
     RDKit          3D

 38 39  0  0  0  0  0  0  0  0999 V2000
   -2.3450   22.5720  -31.5740 C   0  0  0  0  0  0  0  0  0  0  0  0
   -3.0570   22.9390  -30.5020 C   0  0  0  0  0  0  0  0  0  0  0  0
   -4.4900   23.3140  -30.6380 C   0  0  0  0  0  0  0  0  0  0  0  0
   -5.4720   22.3150  -30.5250 C   0  0  0  0  0  0  0  0  0  0  0  0
   -6.8330   22.6290  -30.6520 C   0  0  0  0  0  0  0  0  0  0  0  0
   -7.8720   21.5580  -30.4990 C   0  0  0  0  0  0  0  0  0  0  0  0
   -7.2170   23.9610  -30.8540 C   0  0  0  0  0  0  0  0  0  0  0  0
   -6.2510   24.9640  -30.9530 C   0  0  0  0  0  0  0  0  0  0  0  0
   -4.8890   24.6530  -30.8390 C   0  0  0  0  0  0  0  0  0  0  0  0
   -3.9400   25.6730  -30.8980 O   0  0  0  0  0  0  0  0  0  0  0  0
   -2.4270   22.9420  -29.1580 C   0  0  0  0  0  0  0  0  0  0  0  0
   -2.3720   21.7520  -28.4110 C   0  0  0  0  0  0  0  0  0  0  0  0
   -2.9450   20.5900  -28.9210 O   0  0  0  0  0  0  0  0  0  0  0  0
   -1.7560   21.7330  -27.1480 C   0  0  0  0  0  0  0  0  0  0  0  0
   -1.7320   20.4620  -26.3380 C   0  0  0  0  0  0  0  0  0  0  0  0
   -1.2270   22.9220  -26.6140 C   0  0  0  0  0  0  0  0  0  0  0  0
   -0.6460   22.9090  -25.3480 O   0  0  0  0  0  0  0  0  0  0  0  0
   -1.2650   24.1200  -27.3560 C   0  0  0  0  0  0  0  0  0  0  0  0
   -0.6790   25.3590  -26.7830 C   0  0  0  0  0  0  0  0  0  0  0  0
   -1.1520   25.9280  -25.4800 C   0  0  0  0  0  0  0  0  0  0  0  0
    0.2500   25.9500  -27.3970 O   0  0  0  0  0  0  0  0  0  0  0  0
   -1.8680   24.1230  -28.6300 C   0  0  0  0  0  0  0  0  0  0  0  0
   -1.9230   25.2990  -29.3760 O   0  0  0  0  0  0  0  0  0  0  0  0
   -1.2859   22.2965  -31.4628 H   0  0  0  0  0  0  0  0  0  0  0  0
   -2.8189   22.5458  -32.5664 H   0  0  0  0  0  0  0  0  0  0  0  0
   -5.1696   21.2746  -30.3347 H   0  0  0  0  0  0  0  0  0  0  0  0
   -8.0523   21.3721  -29.4299 H   0  0  0  0  0  0  0  0  0  0  0  0
   -8.8075   21.8836  -30.9774 H   0  0  0  0  0  0  0  0  0  0  0  0
   -7.5182   20.6329  -30.9774 H   0  0  0  0  0  0  0  0  0  0  0  0
   -8.2836   24.2176  -30.9349 H   0  0  0  0  0  0  0  0  0  0  0  0
   -6.5609   26.0059  -31.1217 H   0  0  0  0  0  0  0  0  0  0  0  0
   -3.1010   25.6520  -30.3310 H   0  0  0  0  0  0  0  0  0  0  0  0
   -1.7367   20.7100  -25.2663 H   0  0  0  0  0  0  0  0  0  0  0  0
   -2.6189   19.8573  -26.5783 H   0  0  0  0  0  0  0  0  0  0  0  0
   -0.8229   19.8912  -26.5783 H   0  0  0  0  0  0  0  0  0  0  0  0
   -0.6912   25.3737  -24.6490 H   0  0  0  0  0  0  0  0  0  0  0  0
   -0.8653   26.9881  -25.4172 H   0  0  0  0  0  0  0  0  0  0  0  0
   -2.2467   25.8398  -25.4172 H   0  0  0  0  0  0  0  0  0  0  0  0
  1  2  2  0
  2  3  1  0
  3  4  2  0
  4  5  1  0
  5  6  1  0
  5  7  2  0
  7  8  1  0
  8  9  2  0
  9 10  1  0
  2 11  1  0
 11 12  2  0
 12 13  1  0
 12 14  1  0
 14 15  1  0
 14 16  2  0
 16 17  1  0
 16 18  1  0
 18 19  1  0
 19 20  1  0
 19 21  2  0
 18 22  2  0
 22 23  1  0
  9  3  1  0
 22 11  1  0
  1 24  1  0
  1 25  1  0
  4 26  1  0
  6 27  1  0
  6 28  1  0
  6 29  1  0
  7 30  1  0
  8 31  1  0
 10 32  1  0
 15 33  1  0
 15 34  1  0
 15 35  1  0
 20 36  1  0
 20 37  1  0
 20 38  1  0
M  CHG  3  13  -1  17  -1  23  -1
M  END
>  <UniqueID>  (45) 
41

>  <SMILES>  (45) 
C=C(c1cc(C)ccc1O)c1c([O-])c(C)c([O-])c(C(C)=O)c1[O-]

>  <Energy>  (45) 
55.20658329541073

>  <Genealogy>  (45) 
C=C(c1cc(C)ccc1O)c1c([O-])c(C)c([O-])c(C(C)=O)c1[O-] (protonated)
C=C(c1cc(C)ccc1O)c1c([O-])c(C)c([O-])c(C(C)=O)c1[O-] (3D coordinates assigned)
C=C(c1cc(C)ccc1O)c1c([O-])c(C)c([O-])c(C(C)=O)c1[O-] (optimized conformer: 55.20658329541073 kcal/mol)

>  <smiles>  (45) 
C=C(c1cc(C)ccc1O)c1c(O)c(C)c(O)c(C(C)=O)c1O

>  <score_type>  (45) 
oracle

>  <origin>  (45) 
adgpu

>  <m_score__min__energy>  (45) 
-11.199999999999999

>  <m_primary>  (45) 
energy

$$$$
45:0
     RDKit          3D

 40 42  0  0  0  0  0  0  0  0999 V2000
   -1.4332   19.7988  -32.5343 H   0  0  0  0  0  0  0  0  0  0  0  0
   -1.7850   18.9760  -33.1740 C   0  0  0  0  0  0  0  0  0  0  0  0
   -3.0650   18.4460  -32.9900 C   0  0  0  0  0  0  0  0  0  0  0  0
   -3.7201   18.8550  -32.2068 H   0  0  0  0  0  0  0  0  0  0  0  0
   -3.5170   17.3950  -33.8000 C   0  0  0  0  0  0  0  0  0  0  0  0
   -5.1250   16.7220  -33.5490 S   0  0  0  0  0  0  0  0  0  0  0  0
   -5.2470   15.4520  -34.3430 O   0  0  0  0  0  0  0  0  0  0  0  0
   -5.3530   16.4140  -32.0960 O   0  0  0  0  0  0  0  0  0  0  0  0
   -6.3310   17.8500  -34.0850 N   0  0  0  0  0  0  0  0  0  0  0  0
   -6.8340   17.6170  -34.9710 H   0  0  0  0  0  0  0  0  0  0  0  0
   -6.5970   19.1090  -33.4410 C   0  0  0  0  0  0  0  0  0  0  0  0
   -7.8720   19.3480  -32.9070 C   0  0  0  0  0  0  0  0  0  0  0  0
   -8.6472   18.5709  -32.9796 H   0  0  0  0  0  0  0  0  0  0  0  0
   -8.1670   20.5630  -32.2840 C   0  0  0  0  0  0  0  0  0  0  0  0
   -9.1729   20.7390  -31.8751 H   0  0  0  0  0  0  0  0  0  0  0  0
   -7.1870   21.5580  -32.1780 C   0  0  0  0  0  0  0  0  0  0  0  0
   -7.5720   23.0930  -31.4090 S   0  0  0  0  0  0  0  0  0  0  0  0
   -7.7250   22.8930  -29.9270 O   0  0  0  0  0  0  0  0  0  0  0  0
   -8.8610   23.6200  -31.9740 O   0  0  0  0  0  0  0  0  0  0  0  0
   -6.2840   24.2130  -31.7210 N   0  0  0  0  0  0  0  0  0  0  0  0
   -5.2920   24.4310  -30.9120 C   0  0  0  0  0  0  0  0  0  0  0  0
   -4.3090   25.3070  -31.1870 N   0  0  0  0  0  0  0  0  0  0  0  0
   -3.4910   25.2710  -30.1740 O   0  0  0  0  0  0  0  0  0  0  0  0
   -3.9040   24.4190  -29.2620 C   0  0  0  0  0  0  0  0  0  0  0  0
   -3.1780   24.1220  -27.9930 C   0  0  0  0  0  0  0  0  0  0  0  0
   -3.8161   24.3830  -27.1358 H   0  0  0  0  0  0  0  0  0  0  0  0
   -2.9314   23.0507  -27.9538 H   0  0  0  0  0  0  0  0  0  0  0  0
   -2.2513   24.7133  -27.9538 H   0  0  0  0  0  0  0  0  0  0  0  0
   -5.0770   23.8310  -29.6850 C   0  0  0  0  0  0  0  0  0  0  0  0
   -5.6892   23.0734  -29.1738 H   0  0  0  0  0  0  0  0  0  0  0  0
   -5.9110   21.3280  -32.7090 C   0  0  0  0  0  0  0  0  0  0  0  0
   -5.1393   22.1085  -32.6370 H   0  0  0  0  0  0  0  0  0  0  0  0
   -5.6140   20.1110  -33.3300 C   0  0  0  0  0  0  0  0  0  0  0  0
   -4.6062   19.9353  -33.7343 H   0  0  0  0  0  0  0  0  0  0  0  0
   -2.6800   16.8830  -34.8020 C   0  0  0  0  0  0  0  0  0  0  0  0
   -3.0313   16.0624  -35.4448 H   0  0  0  0  0  0  0  0  0  0  0  0
   -1.4000   17.4140  -34.9850 C   0  0  0  0  0  0  0  0  0  0  0  0
   -0.7445   17.0085  -35.7698 H   0  0  0  0  0  0  0  0  0  0  0  0
   -0.9510   18.4600  -34.1720 C   0  0  0  0  0  0  0  0  0  0  0  0
    0.8000   19.1820  -34.4230 Br  0  0  0  0  0  0  0  0  0  0  0  0
  1  2  1  0
  2  3  2  0
  3  4  1  0
  3  5  1  0
  5  6  1  0
  6  7  2  0
  6  8  2  0
  6  9  1  0
  9 10  1  0
  9 11  1  0
 11 12  2  0
 12 13  1  0
 12 14  1  0
 14 15  1  0
 14 16  2  0
 16 17  1  0
 17 18  2  0
 17 19  2  0
 17 20  1  0
 20 21  2  0
 21 22  1  0
 22 23  1  0
 23 24  1  0
 24 25  1  0
 25 26  1  0
 25 27  1  0
 25 28  1  0
 24 29  2  0
 29 30  1  0
 16 31  1  0
 31 32  1  0
 31 33  2  0
 33 34  1  0
  5 35  2  0
 35 36  1  0
 35 37  1  0
 37 38  1  0
 37 39  2  0
 39 40  1  0
 39  2  1  0
 33 11  1  0
 29 21  1  0
M  CHG  1  22  -1
M  END
>  <UniqueID>  (46) 
42

>  <SMILES>  (46) 
Cc1c/c(=N\S(=O)(=O)c2ccc(NS(=O)(=O)c3ccc(Br)cc3)cc2)[n-]o1

>  <Energy>  (46) 
78.92924114637715

>  <Genealogy>  (46) 
Cc1cc(=NS(=O)(=O)c2ccc(NS(=O)(=O)c3ccc(Br)cc3)cc2)[n-]o1 (protonated)
Cc1c/c(=N\S(=O)(=O)c2ccc(NS(=O)(=O)c3ccc(Br)cc3)cc2)[n-]o1 (cis-trans isomerization)
Cc1c/c(=N\S(=O)(=O)c2ccc(NS(=O)(=O)c3ccc(Br)cc3)cc2)[n-]o1 (3D coordinates assigned)
Cc1c/c(=N\S(=O)(=O)c2ccc(NS(=O)(=O)c3ccc(Br)cc3)cc2)[n-]o1 (optimized conformer: 78.92924114637715 kcal/mol)

>  <smiles>  (46) 
Cc1cc(=NS(=O)(=O)c2ccc(NS(=O)(=O)c3ccc(Br)cc3)cc2)[nH]o1

>  <score_type>  (46) 
oracle

>  <origin>  (46) 
adgpu

>  <m_score__min__energy>  (46) 
-11.039999999999999

>  <m_primary>  (46) 
energy

$$$$
46:0
     RDKit          3D

 40 42  0  0  0  0  0  0  0  0999 V2000
   -3.6200   18.5060  -33.2520 O   0  0  0  0  0  0  0  0  0  0  0  0
   -3.2820   19.7170  -33.3400 C   0  0  0  0  0  0  0  0  0  0  0  0
   -4.2780   20.7270  -33.5620 N   0  0  0  0  0  0  0  0  0  0  0  0
   -5.0950   21.3570  -32.5650 C   0  0  0  0  0  0  0  0  0  0  0  0
   -6.2760   20.7230  -32.1690 C   0  0  0  0  0  0  0  0  0  0  0  0
   -7.1110   21.3110  -31.2170 C   0  0  0  0  0  0  0  0  0  0  0  0
   -6.7820   22.5530  -30.6580 C   0  0  0  0  0  0  0  0  0  0  0  0
   -7.6220   23.1370  -29.7100 O   0  0  0  0  0  0  0  0  0  0  0  0
   -5.6070   23.2110  -31.0630 C   0  0  0  0  0  0  0  0  0  0  0  0
   -5.1930   24.7850  -30.3820 S   0  0  0  0  0  0  0  0  0  0  0  0
   -5.7160   24.8620  -28.9750 O   0  0  0  0  0  0  0  0  0  0  0  0
   -5.8040   25.8810  -31.2100 O   0  0  0  0  0  0  0  0  0  0  0  0
   -3.4690   24.9620  -30.3870 N   0  0  0  0  0  0  0  0  0  0  0  0
   -2.5580   24.2360  -29.5510 C   0  0  0  0  0  0  0  0  0  0  0  0
   -2.7540   22.8760  -29.2410 C   0  0  0  0  0  0  0  0  0  0  0  0
   -1.8450   22.2030  -28.4190 C   0  0  0  0  0  0  0  0  0  0  0  0
   -0.7360   22.8760  -27.9010 C   0  0  0  0  0  0  0  0  0  0  0  0
   -0.5340   24.2250  -28.2030 C   0  0  0  0  0  0  0  0  0  0  0  0
   -1.4410   24.9040  -29.0250 C   0  0  0  0  0  0  0  0  0  0  0  0
   -1.2260   26.2460  -29.3180 O   0  0  0  0  0  0  0  0  0  0  0  0
   -4.7740   22.6160  -32.0240 C   0  0  0  0  0  0  0  0  0  0  0  0
   -1.8510   20.0910  -33.2700 C   0  0  0  0  0  0  0  0  0  0  0  0
   -1.0010   19.5050  -32.3180 C   0  0  0  0  0  0  0  0  0  0  0  0
    0.3450   19.8680  -32.2600 C   0  0  0  0  0  0  0  0  0  0  0  0
    0.8360   20.8190  -33.1560 C   0  0  0  0  0  0  0  0  0  0  0  0
    0.0090   21.3860  -34.0760 N   0  0  0  0  0  0  0  0  0  0  0  0
    0.5140   22.3220  -34.9480 O   0  0  0  0  0  0  0  0  0  0  0  0
   -1.3080   21.0460  -34.1500 C   0  0  0  0  0  0  0  0  0  0  0  0
   -6.5496   19.7535  -32.6107 H   0  0  0  0  0  0  0  0  0  0  0  0
   -8.0317   20.7967  -30.9042 H   0  0  0  0  0  0  0  0  0  0  0  0
   -7.2690   23.7820  -29.0130 H   0  0  0  0  0  0  0  0  0  0  0  0
   -3.6254   22.3415  -29.6471 H   0  0  0  0  0  0  0  0  0  0  0  0
   -2.0035   21.1411  -28.1797 H   0  0  0  0  0  0  0  0  0  0  0  0
   -0.0218   22.3439  -27.2554 H   0  0  0  0  0  0  0  0  0  0  0  0
    0.3392   24.7544  -27.7942 H   0  0  0  0  0  0  0  0  0  0  0  0
   -3.8643   23.1375  -32.3563 H   0  0  0  0  0  0  0  0  0  0  0  0
   -1.3977   18.7572  -31.6156 H   0  0  0  0  0  0  0  0  0  0  0  0
    1.0125   19.4093  -31.5156 H   0  0  0  0  0  0  0  0  0  0  0  0
    1.8958   21.1113  -33.1183 H   0  0  0  0  0  0  0  0  0  0  0  0
   -1.9526   21.5217  -34.9038 H   0  0  0  0  0  0  0  0  0  0  0  0
  1  2  2  0
  2  3  1  0
  3  4  1  0
  4  5  2  0
  5  6  1  0
  6  7  2  0
  7  8  1  0
  7  9  1  0
  9 10  1  0
 10 11  2  0
 10 12  2  0
 10 13  1  0
 13 14  1  0
 14 15  2  0
 15 16  1  0
 16 17  2  0
 17 18  1  0
 18 19  2  0
 19 20  1  0
  9 21  2  0
  2 22  1  0
 22 23  2  0
 23 24  1  0
 24 25  2  0
 25 26  1  0
 26 27  1  0
 26 28  2  0
 21  4  1  0
 28 22  1  0
 19 14  1  0
  5 29  1  0
  6 30  1  0
  8 31  1  0
 15 32  1  0
 16 33  1  0
 17 34  1  0
 18 35  1  0
 21 36  1  0
 23 37  1  0
 24 38  1  0
 25 39  1  0
 28 40  1  0
M  CHG  5   3  -1  13  -1  20  -1  26   1  27  -1
M  END
>  <UniqueID>  (47) 
43

>  <SMILES>  (47) 
O=C([N-]c1ccc(O)c(S(=O)(=O)[N-]c2ccccc2[O-])c1)c1ccc[n+]([O-])c1

>  <Energy>  (47) 
52.25208463691313

>  <Genealogy>  (47) 
O=C([N-]c1ccc(O)c(S(=O)(=O)[N-]c2ccccc2[O-])c1)c1ccc[n+]([O-])c1 (protonated)
O=C([N-]c1ccc(O)c(S(=O)(=O)[N-]c2ccccc2[O-])c1)c1ccc[n+]([O-])c1 (3D coordinates assigned)
O=C([N-]c1ccc(O)c(S(=O)(=O)[N-]c2ccccc2[O-])c1)c1ccc[n+]([O-])c1 (optimized conformer: 52.25208463691313 kcal/mol)

>  <smiles>  (47) 
O=C(Nc1ccc(O)c(S(=O)(=O)Nc2ccccc2O)c1)c1ccc[n+]([O-])c1

>  <score_type>  (47) 
oracle

>  <origin>  (47) 
adgpu

>  <m_score__min__energy>  (47) 
-13.130000000000001

>  <m_primary>  (47) 
energy

$$$$
47:0
     RDKit          3D

 43 45  0  0  0  0  0  0  0  0999 V2000
    0.4400   20.6730  -29.7970 O   0  0  0  0  0  0  0  0  0  0  0  0
   -0.5180   21.1520  -30.4580 C   0  0  0  0  0  0  0  0  0  0  0  0
   -0.6070   20.8480  -31.8570 N   0  0  0  0  0  0  0  0  0  0  0  0
   -1.7390   20.2560  -32.5090 C   0  0  0  0  0  0  0  0  0  0  0  0
   -3.0070   20.8160  -32.3150 C   0  0  0  0  0  0  0  0  0  0  0  0
   -4.1310   20.2410  -32.9140 C   0  0  0  0  0  0  0  0  0  0  0  0
   -3.9940   19.1160  -33.7380 C   0  0  0  0  0  0  0  0  0  0  0  0
   -5.4230   18.3510  -34.4260 S   0  0  0  0  0  0  0  0  0  0  0  0
   -6.4530   19.4030  -34.7300 O   0  0  0  0  0  0  0  0  0  0  0  0
   -5.0710   17.6410  -35.7030 O   0  0  0  0  0  0  0  0  0  0  0  0
   -6.0730   17.2270  -33.2730 N   0  0  0  0  0  0  0  0  0  0  0  0
   -6.1410   17.8520  -31.9530 C   0  0  0  0  0  0  0  0  0  0  0  0
   -7.1920   18.9220  -31.9660 C   0  0  0  0  0  0  0  0  0  0  0  0
   -8.4970   18.6290  -32.3950 C   0  0  0  0  0  0  0  0  0  0  0  0
   -9.4680   19.6360  -32.4330 C   0  0  0  0  0  0  0  0  0  0  0  0
   -9.1420   20.9400  -32.0450 C   0  0  0  0  0  0  0  0  0  0  0  0
   -7.8440   21.2420  -31.6280 C   0  0  0  0  0  0  0  0  0  0  0  0
   -6.8680   20.2390  -31.5960 C   0  0  0  0  0  0  0  0  0  0  0  0
   -2.7210   18.5750  -33.9630 C   0  0  0  0  0  0  0  0  0  0  0  0
   -1.5980   19.1440  -33.3580 C   0  0  0  0  0  0  0  0  0  0  0  0
   -1.4850   22.0560  -29.7880 C   0  0  0  0  0  0  0  0  0  0  0  0
   -2.6120   21.5250  -29.1370 C   0  0  0  0  0  0  0  0  0  0  0  0
   -3.5230   22.3700  -28.4930 C   0  0  0  0  0  0  0  0  0  0  0  0
   -3.3170   23.7520  -28.4810 C   0  0  0  0  0  0  0  0  0  0  0  0
   -4.2390   24.5720  -27.8300 O   0  0  0  0  0  0  0  0  0  0  0  0
   -2.1870   24.2920  -29.1200 C   0  0  0  0  0  0  0  0  0  0  0  0
   -1.9600   25.6640  -29.1100 O   0  0  0  0  0  0  0  0  0  0  0  0
   -1.2760   23.4470  -29.7650 C   0  0  0  0  0  0  0  0  0  0  0  0
   -3.1193   21.7129  -31.6881 H   0  0  0  0  0  0  0  0  0  0  0  0
   -5.1271   20.6732  -32.7380 H   0  0  0  0  0  0  0  0  0  0  0  0
   -6.3984   17.0929  -31.1996 H   0  0  0  0  0  0  0  0  0  0  0  0
   -5.1657   18.2958  -31.7042 H   0  0  0  0  0  0  0  0  0  0  0  0
   -8.7565   17.6051  -32.7020 H   0  0  0  0  0  0  0  0  0  0  0  0
  -10.4891   19.4019  -32.7684 H   0  0  0  0  0  0  0  0  0  0  0  0
   -9.9089   21.7282  -32.0684 H   0  0  0  0  0  0  0  0  0  0  0  0
   -7.5884   22.2680  -31.3247 H   0  0  0  0  0  0  0  0  0  0  0  0
   -5.8429   20.4824  -31.2799 H   0  0  0  0  0  0  0  0  0  0  0  0
   -2.6058   17.6991  -34.6184 H   0  0  0  0  0  0  0  0  0  0  0  0
   -0.6002   18.7209  -33.5463 H   0  0  0  0  0  0  0  0  0  0  0  0
   -2.7791   20.4378  -29.1337 H   0  0  0  0  0  0  0  0  0  0  0  0
   -4.4057   21.9440  -27.9937 H   0  0  0  0  0  0  0  0  0  0  0  0
   -4.0920   25.5690  -27.7250 H   0  0  0  0  0  0  0  0  0  0  0  0
   -0.3900   23.8740  -30.2576 H   0  0  0  0  0  0  0  0  0  0  0  0
  1  2  2  0
  2  3  1  0
  3  4  1  0
  4  5  2  0
  5  6  1  0
  6  7  2  0
  7  8  1  0
  8  9  2  0
  8 10  2  0
  8 11  1  0
 11 12  1  0
 12 13  1  0
 13 14  2  0
 14 15  1  0
 15 16  2  0
 16 17  1  0
 17 18  2  0
  7 19  1  0
 19 20  2  0
  2 21  1  0
 21 22  2  0
 22 23  1  0
 23 24  2  0
 24 25  1  0
 24 26  1  0
 26 27  1  0
 26 28  2  0
 20  4  1  0
 28 21  1  0
 18 13  1  0
  5 29  1  0
  6 30  1  0
 12 31  1  0
 12 32  1  0
 14 33  1  0
 15 34  1  0
 16 35  1  0
 17 36  1  0
 18 37  1  0
 19 38  1  0
 20 39  1  0
 22 40  1  0
 23 41  1  0
 25 42  1  0
 28 43  1  0
M  CHG  3   3  -1  11  -1  27  -1
M  END
>  <UniqueID>  (48) 
44

>  <SMILES>  (48) 
O=C([N-]c1ccc(S(=O)(=O)[N-]Cc2ccccc2)cc1)c1ccc(O)c([O-])c1

>  <Energy>  (48) 
50.17293575245405

>  <Genealogy>  (48) 
O=C([N-]c1ccc(S(=O)(=O)[N-]Cc2ccccc2)cc1)c1ccc(O)c([O-])c1 (protonated)
O=C([N-]c1ccc(S(=O)(=O)[N-]Cc2ccccc2)cc1)c1ccc(O)c([O-])c1 (3D coordinates assigned)
O=C([N-]c1ccc(S(=O)(=O)[N-]Cc2ccccc2)cc1)c1ccc(O)c([O-])c1 (optimized conformer: 50.17293575245405 kcal/mol)

>  <smiles>  (48) 
O=C(Nc1ccc(S(=O)(=O)NCc2ccccc2)cc1)c1ccc(O)c(O)c1

>  <score_type>  (48) 
oracle

>  <origin>  (48) 
adgpu

>  <m_score__min__energy>  (48) 
-11.4

>  <m_primary>  (48) 
energy

$$$$
48:0
     RDKit          3D

 57 59  0  0  0  0  0  0  0  0999 V2000
    0.1000   23.4290  -24.6470 C   0  0  0  0  0  0  0  0  0  0  0  0
   -0.6610   23.8780  -25.8660 C   0  0  0  0  0  0  0  0  0  0  0  0
   -0.7100   25.2570  -26.1420 C   0  0  0  0  0  0  0  0  0  0  0  0
   -1.3820   25.7350  -27.2650 C   0  0  0  0  0  0  0  0  0  0  0  0
   -2.0090   24.8450  -28.1490 C   0  0  0  0  0  0  0  0  0  0  0  0
   -2.6830   25.2990  -29.3300 N   0  0  0  0  0  0  0  0  0  0  0  0
   -3.4090   24.4910  -30.2630 C   0  0  0  0  0  0  0  0  0  0  0  0
   -2.8720   23.4810  -30.7920 O   0  0  0  0  0  0  0  0  0  0  0  0
   -4.8200   24.7990  -30.5510 C   0  0  0  0  0  0  0  0  0  0  0  0
   -5.4650   25.5430  -29.7640 O   0  0  0  0  0  0  0  0  0  0  0  0
   -5.4960   24.2240  -31.6750 N   0  0  0  0  0  0  0  0  0  0  0  0
   -5.9400   22.8600  -31.7600 C   0  0  0  0  0  0  0  0  0  0  0  0
   -5.0280   21.7940  -31.7410 C   0  0  0  0  0  0  0  0  0  0  0  0
   -5.4780   20.4790  -31.8750 C   0  0  0  0  0  0  0  0  0  0  0  0
   -6.8480   20.2110  -32.0220 C   0  0  0  0  0  0  0  0  0  0  0  0
   -7.4170   18.5480  -32.1740 S   0  0  0  0  0  0  0  0  0  0  0  0
   -6.8700   17.7300  -31.0370 O   0  0  0  0  0  0  0  0  0  0  0  0
   -8.9160   18.5360  -32.0710 O   0  0  0  0  0  0  0  0  0  0  0  0
   -6.9360   17.8200  -33.6900 N   0  0  0  0  0  0  0  0  0  0  0  0
   -6.0560   18.7110  -34.4550 C   0  0  0  0  0  0  0  0  0  0  0  0
   -4.6190   18.2440  -34.2700 C   0  0  0  0  0  0  0  0  0  0  0  0
   -4.6990   16.9260  -33.5280 C   0  0  0  0  0  0  0  0  0  0  0  0
   -6.1770   16.5860  -33.4670 C   0  0  0  0  0  0  0  0  0  0  0  0
   -7.7590   21.2750  -32.0540 C   0  0  0  0  0  0  0  0  0  0  0  0
   -7.3040   22.5920  -31.9330 C   0  0  0  0  0  0  0  0  0  0  0  0
   -2.0050   23.4800  -27.8570 C   0  0  0  0  0  0  0  0  0  0  0  0
   -1.3250   22.9710  -26.7390 C   0  0  0  0  0  0  0  0  0  0  0  0
   -1.3090   21.2030  -26.5250 S   0  0  0  0  0  0  0  0  0  0  0  0
   -1.2360   20.9100  -25.0580 O   0  0  0  0  0  0  0  0  0  0  0  0
   -0.0970   20.5920  -27.1570 O   0  0  0  0  0  0  0  0  0  0  0  0
   -2.7210   20.4390  -27.2220 N   0  0  0  0  0  0  0  0  0  0  0  0
   -2.6490   20.4450  -28.6870 C   0  0  0  0  0  0  0  0  0  0  0  0
   -2.8630   19.0640  -26.7260 C   0  0  0  0  0  0  0  0  0  0  0  0
   -0.4379   23.7464  -23.7415 H   0  0  0  0  0  0  0  0  0  0  0  0
    0.1905   22.3328  -24.6544 H   0  0  0  0  0  0  0  0  0  0  0  0
    1.1033   23.8798  -24.6544 H   0  0  0  0  0  0  0  0  0  0  0  0
   -0.2122   25.9655  -25.4636 H   0  0  0  0  0  0  0  0  0  0  0  0
   -1.4210   26.8170  -27.4594 H   0  0  0  0  0  0  0  0  0  0  0  0
   -3.9533   21.9951  -31.6200 H   0  0  0  0  0  0  0  0  0  0  0  0
   -4.7557   19.6494  -31.8653 H   0  0  0  0  0  0  0  0  0  0  0  0
   -6.3246   18.6725  -35.5210 H   0  0  0  0  0  0  0  0  0  0  0  0
   -6.1653   19.7461  -34.0991 H   0  0  0  0  0  0  0  0  0  0  0  0
   -4.1343   18.1033  -35.2474 H   0  0  0  0  0  0  0  0  0  0  0  0
   -4.0242   18.9834  -33.7137 H   0  0  0  0  0  0  0  0  0  0  0  0
   -4.1466   16.1448  -34.0707 H   0  0  0  0  0  0  0  0  0  0  0  0
   -4.2535   16.9941  -32.5246 H   0  0  0  0  0  0  0  0  0  0  0  0
   -6.4232   15.8504  -34.2469 H   0  0  0  0  0  0  0  0  0  0  0  0
   -6.4294   16.1543  -32.4872 H   0  0  0  0  0  0  0  0  0  0  0  0
   -8.8338   21.0742  -32.1745 H   0  0  0  0  0  0  0  0  0  0  0  0
   -8.0227   23.4237  -31.9740 H   0  0  0  0  0  0  0  0  0  0  0  0
   -2.5469   22.7874  -28.5178 H   0  0  0  0  0  0  0  0  0  0  0  0
   -1.5987   20.5325  -29.0021 H   0  0  0  0  0  0  0  0  0  0  0  0
   -3.0725   19.5084  -29.0788 H   0  0  0  0  0  0  0  0  0  0  0  0
   -3.2217   21.2985  -29.0788 H   0  0  0  0  0  0  0  0  0  0  0  0
   -2.8625   19.0691  -25.6260 H   0  0  0  0  0  0  0  0  0  0  0  0
   -3.8098   18.6388  -27.0902 H   0  0  0  0  0  0  0  0  0  0  0  0
   -2.0231   18.4542  -27.0902 H   0  0  0  0  0  0  0  0  0  0  0  0
  1  2  1  0
  2  3  2  0
  3  4  1  0
  4  5  2  0
  5  6  1  0
  6  7  1  0
  7  8  2  0
  7  9  1  0
  9 10  2  0
  9 11  1  0
 11 12  1  0
 12 13  2  0
 13 14  1  0
 14 15  2  0
 15 16  1  0
 16 17  2  0
 16 18  2  0
 16 19  1  0
 19 20  1  0
 20 21  1  0
 21 22  1  0
 22 23  1  0
 15 24  1  0
 24 25  2  0
  5 26  1  0
 26 27  2  0
 27 28  1  0
 28 29  2  0
 28 30  2  0
 28 31  1  0
 31 32  1  0
 31 33  1  0
 27  2  1  0
 25 12  1  0
 23 19  1  0
  1 34  1  0
  1 35  1  0
  1 36  1  0
  3 37  1  0
  4 38  1  0
 13 39  1  0
 14 40  1  0
 20 41  1  0
 20 42  1  0
 21 43  1  0
 21 44  1  0
 22 45  1  0
 22 46  1  0
 23 47  1  0
 23 48  1  0
 24 49  1  0
 25 50  1  0
 26 51  1  0
 32 52  1  0
 32 53  1  0
 32 54  1  0
 33 55  1  0
 33 56  1  0
 33 57  1  0
M  CHG  2   6  -1  11  -1
M  END
>  <UniqueID>  (49) 
45

>  <SMILES>  (49) 
Cc1ccc([N-]C(=O)C(=O)[N-]c2ccc(S(=O)(=O)N3CCCC3)cc2)cc1S(=O)(=O)N(C)C

>  <Energy>  (49) 
68.33462226425503

>  <Genealogy>  (49) 
Cc1ccc([N-]C(=O)C(=O)[N-]c2ccc(S(=O)(=O)N3CCCC3)cc2)cc1S(=O)(=O)N(C)C (protonated)
Cc1ccc([N-]C(=O)C(=O)[N-]c2ccc(S(=O)(=O)N3CCCC3)cc2)cc1S(=O)(=O)N(C)C (3D coordinates assigned)
Cc1ccc([N-]C(=O)C(=O)[N-]c2ccc(S(=O)(=O)N3CCCC3)cc2)cc1S(=O)(=O)N(C)C (nonaromatic ring conformer: 68.33462226425503 kcal/mol)

>  <smiles>  (49) 
Cc1ccc(NC(=O)C(=O)Nc2ccc(S(=O)(=O)N3CCCC3)cc2)cc1S(=O)(=O)N(C)C

>  <score_type>  (49) 
oracle

>  <origin>  (49) 
adgpu

>  <m_score__min__energy>  (49) 
-12.33

>  <m_primary>  (49) 
energy

$$$$
