0:0
     RDKit          3D

 27 28  0  0  0  0  0  0  0  0999 V2000
   -8.7680   22.0010  -31.6420 C   0  0  0  0  0  0  0  0  0  0  0  0
   -7.4390   22.6000  -31.6240 N   0  0  0  0  0  0  0  0  0  0  0  0
   -7.1190   23.8160  -31.1350 C   0  0  0  0  0  0  0  0  0  0  0  0
   -5.7470   24.0150  -31.2090 C   0  0  0  0  0  0  0  0  0  0  0  0
   -5.0430   25.2340  -30.7590 C   0  0  0  0  0  0  0  0  0  0  0  0
   -5.7020   26.2950  -30.5900 O   0  0  0  0  0  0  0  0  0  0  0  0
   -3.6440   25.2000  -30.4580 N   0  0  0  0  0  0  0  0  0  0  0  0
   -3.0060   24.4350  -29.4250 C   0  0  0  0  0  0  0  0  0  0  0  0
   -3.5800   23.2560  -28.9110 C   0  0  0  0  0  0  0  0  0  0  0  0
   -2.9410   22.5500  -27.8870 C   0  0  0  0  0  0  0  0  0  0  0  0
   -1.7370   23.0190  -27.3580 C   0  0  0  0  0  0  0  0  0  0  0  0
   -1.1210   22.3330  -26.3630 F   0  0  0  0  0  0  0  0  0  0  0  0
   -1.1730   24.2000  -27.8450 C   0  0  0  0  0  0  0  0  0  0  0  0
   -1.8070   24.9110  -28.8700 C   0  0  0  0  0  0  0  0  0  0  0  0
   -1.2390   26.0890  -29.3410 O   0  0  0  0  0  0  0  0  0  0  0  0
   -5.2230   22.8490  -31.7620 C   0  0  0  0  0  0  0  0  0  0  0  0
   -3.8950   22.5410  -32.0480 O   0  0  0  0  0  0  0  0  0  0  0  0
   -6.2880   22.0090  -31.9900 C   0  0  0  0  0  0  0  0  0  0  0  0
   -6.2010   20.7260  -32.5180 O   0  0  0  0  0  0  0  0  0  0  0  0
   -9.1139   21.8451  -30.6095 H   0  0  0  0  0  0  0  0  0  0  0  0
   -9.4655   22.6718  -32.1650 H   0  0  0  0  0  0  0  0  0  0  0  0
   -8.7274   21.0342  -32.1650 H   0  0  0  0  0  0  0  0  0  0  0  0
   -7.8404   24.5441  -30.7357 H   0  0  0  0  0  0  0  0  0  0  0  0
   -4.5345   22.8892  -29.3166 H   0  0  0  0  0  0  0  0  0  0  0  0
   -3.3878   21.6233  -27.4975 H   0  0  0  0  0  0  0  0  0  0  0  0
   -0.2283   24.5722  -27.4219 H   0  0  0  0  0  0  0  0  0  0  0  0
   -3.1170   23.0750  -31.6890 H   0  0  0  0  0  0  0  0  0  0  0  0
  1  2  1  0
  2  3  1  0
  3  4  2  0
  4  5  1  0
  5  6  2  0
  5  7  1  0
  7  8  1  0
  8  9  2  0
  9 10  1  0
 10 11  2  0
 11 12  1  0
 11 13  1  0
 13 14  2  0
 14 15  1  0
  4 16  1  0
 16 17  1  0
 16 18  2  0
 18 19  1  0
 18  2  1  0
 14  8  1  0
  1 20  1  0
  1 21  1  0
  1 22  1  0
  3 23  1  0
  9 24  1  0
 10 25  1  0
 13 26  1  0
 17 27  1  0
M  CHG  3   7  -1  15  -1  19  -1
M  END
>  <UniqueID>  (1) 
1

>  <SMILES>  (1) 
Cn1cc(C(=O)[N-]c2ccc(F)cc2[O-])c(O)c1[O-]

>  <Energy>  (1) 
60.31105280714934

>  <Genealogy>  (1) 
Cn1cc(C(=O)[N-]c2ccc(F)cc2[O-])c(O)c1[O-] (protonated)
Cn1cc(C(=O)[N-]c2ccc(F)cc2[O-])c(O)c1[O-] (3D coordinates assigned)
Cn1cc(C(=O)[N-]c2ccc(F)cc2[O-])c(O)c1[O-] (optimized conformer: 60.31105280714934 kcal/mol)

>  <smiles>  (1) 
Cn1cc(C(=O)Nc2ccc(F)cc2O)c(O)c1O

>  <score_type>  (1) 
oracle

>  <origin>  (1) 
adgpu

>  <m_score__min__energy>  (1) 
-10.960000000000001

>  <m_primary>  (1) 
energy

$$$$
1:0
     RDKit          3D

 54 56  0  0  0  0  0  0  0  0999 V2000
   -2.7750   21.4530  -33.4400 C   0  0  0  0  0  0  0  0  0  0  0  0
   -2.7530   22.2540  -32.2660 O   0  0  0  0  0  0  0  0  0  0  0  0
   -2.5790   21.7590  -30.9660 C   0  0  0  0  0  0  0  0  0  0  0  0
   -1.7440   20.6560  -30.6990 C   0  0  0  0  0  0  0  0  0  0  0  0
   -1.5980   20.1800  -29.3960 C   0  0  0  0  0  0  0  0  0  0  0  0
   -2.2780   20.8000  -28.3410 C   0  0  0  0  0  0  0  0  0  0  0  0
   -2.1140   20.3100  -26.9960 C   0  0  0  0  0  0  0  0  0  0  0  0
   -1.9730   19.9090  -25.9160 N   0  0  0  0  0  0  0  0  0  0  0  0
   -3.1080   21.8980  -28.5950 C   0  0  0  0  0  0  0  0  0  0  0  0
   -3.2600   22.3800  -29.9040 C   0  0  0  0  0  0  0  0  0  0  0  0
   -4.3290   23.7480  -30.2240 S   0  0  0  0  0  0  0  0  0  0  0  0
   -5.2270   24.0220  -29.0520 O   0  0  0  0  0  0  0  0  0  0  0  0
   -3.4890   24.9630  -30.4930 O   0  0  0  0  0  0  0  0  0  0  0  0
   -5.2920   23.3970  -31.6230 N   0  0  0  0  0  0  0  0  0  0  0  0
   -6.1420   22.2490  -31.7300 C   0  0  0  0  0  0  0  0  0  0  0  0
   -5.9320   21.2740  -32.7210 C   0  0  0  0  0  0  0  0  0  0  0  0
   -6.7840   20.1640  -32.8210 C   0  0  0  0  0  0  0  0  0  0  0  0
   -6.5170   19.1330  -33.8490 C   0  0  0  0  0  0  0  0  0  0  0  0
   -6.4910   19.4860  -35.0660 O   0  0  0  0  0  0  0  0  0  0  0  0
   -6.2130   17.7660  -33.4910 N   0  0  0  0  0  0  0  0  0  0  0  0
   -5.8150   17.4030  -32.1230 C   0  0  0  0  0  0  0  0  0  0  0  0
   -4.9270   16.1520  -32.1150 C   0  0  0  0  0  0  0  0  0  0  0  0
   -4.0080   16.1120  -33.2720 N   0  0  0  0  0  0  0  0  0  0  0  0
   -2.6650   17.2340  -33.1230 S   0  0  0  0  0  0  0  0  0  0  0  0
   -1.9170   17.6660  -34.6870 C   0  0  0  0  0  0  0  0  0  0  0  0
   -3.1310   18.4990  -32.4580 O   0  0  0  0  0  0  0  0  0  0  0  0
   -1.6110   16.6030  -32.2570 O   0  0  0  0  0  0  0  0  0  0  0  0
   -4.6800   16.1810  -34.5940 C   0  0  0  0  0  0  0  0  0  0  0  0
   -6.1180   16.7280  -34.5260 C   0  0  0  0  0  0  0  0  0  0  0  0
   -7.8800   20.0580  -31.9530 C   0  0  0  0  0  0  0  0  0  0  0  0
   -8.0880   21.0190  -30.9650 C   0  0  0  0  0  0  0  0  0  0  0  0
   -7.2140   22.1090  -30.8400 C   0  0  0  0  0  0  0  0  0  0  0  0
   -7.4210   23.0660  -29.8460 O   0  0  0  0  0  0  0  0  0  0  0  0
   -2.8042   20.3901  -33.1582 H   0  0  0  0  0  0  0  0  0  0  0  0
   -3.6667   21.6992  -34.0352 H   0  0  0  0  0  0  0  0  0  0  0  0
   -1.8711   21.6498  -34.0352 H   0  0  0  0  0  0  0  0  0  0  0  0
   -1.2039   20.1672  -31.5232 H   0  0  0  0  0  0  0  0  0  0  0  0
   -0.9473   19.3157  -29.1970 H   0  0  0  0  0  0  0  0  0  0  0  0
   -3.6428   22.3845  -27.7660 H   0  0  0  0  0  0  0  0  0  0  0  0
   -5.0927   21.3825  -33.4237 H   0  0  0  0  0  0  0  0  0  0  0  0
   -5.2583   18.2406  -31.6775 H   0  0  0  0  0  0  0  0  0  0  0  0
   -6.7240   17.1876  -31.5422 H   0  0  0  0  0  0  0  0  0  0  0  0
   -4.3321   16.1458  -31.1898 H   0  0  0  0  0  0  0  0  0  0  0  0
   -5.5836   15.2715  -32.1748 H   0  0  0  0  0  0  0  0  0  0  0  0
   -0.9774   18.2087  -34.5066 H   0  0  0  0  0  0  0  0  0  0  0  0
   -1.7074   16.7499  -35.2587 H   0  0  0  0  0  0  0  0  0  0  0  0
   -2.6057   18.3054  -35.2587 H   0  0  0  0  0  0  0  0  0  0  0  0
   -4.0892   16.8364  -35.2508 H   0  0  0  0  0  0  0  0  0  0  0  0
   -4.7437   15.1521  -34.9779 H   0  0  0  0  0  0  0  0  0  0  0  0
   -6.3899   17.1596  -35.5006 H   0  0  0  0  0  0  0  0  0  0  0  0
   -6.8052   15.9061  -34.2768 H   0  0  0  0  0  0  0  0  0  0  0  0
   -8.5780   19.2136  -32.0520 H   0  0  0  0  0  0  0  0  0  0  0  0
   -8.9426   20.9220  -30.2793 H   0  0  0  0  0  0  0  0  0  0  0  0
   -6.7100   23.7500  -29.6150 H   0  0  0  0  0  0  0  0  0  0  0  0
  1  2  1  0
  2  3  1  0
  3  4  2  0
  4  5  1  0
  5  6  2  0
  6  7  1  0
  7  8  3  0
  6  9  1  0
  9 10  2  0
 10 11  1  0
 11 12  2  0
 11 13  2  0
 11 14  1  0
 14 15  1  0
 15 16  2  0
 16 17  1  0
 17 18  1  0
 18 19  2  0
 18 20  1  0
 20 21  1  0
 21 22  1  0
 22 23  1  0
 23 24  1  0
 24 25  1  0
 24 26  2  0
 24 27  2  0
 23 28  1  0
 28 29  1  0
 17 30  2  0
 30 31  1  0
 31 32  2  0
 32 33  1  0
 10  3  1  0
 32 15  1  0
 29 20  1  0
  1 34  1  0
  1 35  1  0
  1 36  1  0
  4 37  1  0
  5 38  1  0
  9 39  1  0
 16 40  1  0
 21 41  1  0
 21 42  1  0
 22 43  1  0
 22 44  1  0
 25 45  1  0
 25 46  1  0
 25 47  1  0
 28 48  1  0
 28 49  1  0
 29 50  1  0
 29 51  1  0
 30 52  1  0
 31 53  1  0
 33 54  1  0
M  CHG  1  14  -1
M  END
>  <UniqueID>  (2) 
2

>  <SMILES>  (2) 
COc1ccc(C#N)cc1S(=O)(=O)[N-]c1cc(C(=O)N2CCN(S(C)(=O)=O)CC2)ccc1O

>  <Energy>  (2) 
66.1834120679311

>  <Genealogy>  (2) 
COc1ccc(C#N)cc1S(=O)(=O)[N-]c1cc(C(=O)N2CCN(S(C)(=O)=O)CC2)ccc1O (protonated)
COc1ccc(C#N)cc1S(=O)(=O)[N-]c1cc(C(=O)N2CCN(S(C)(=O)=O)CC2)ccc1O (3D coordinates assigned)
COc1ccc(C#N)cc1S(=O)(=O)[N-]c1cc(C(=O)N2CCN(S(C)(=O)=O)CC2)ccc1O (nonaromatic ring conformer: 66.1834120679311 kcal/mol)

>  <smiles>  (2) 
COc1ccc(C#N)cc1S(=O)(=O)Nc1cc(C(=O)N2CCN(S(C)(=O)=O)CC2)ccc1O

>  <score_type>  (2) 
oracle

>  <origin>  (2) 
adgpu

>  <m_score__min__energy>  (2) 
-10.720000000000001

>  <m_primary>  (2) 
energy

$$$$
2:0
     RDKit          3D

 43 46  0  0  0  0  0  0  0  0999 V2000
   -5.6310   26.2880  -30.4720 O   0  0  0  0  0  0  0  0  0  0  0  0
   -5.0610   25.1870  -30.6890 C   0  0  0  0  0  0  0  0  0  0  0  0
   -3.6490   25.0810  -30.4680 N   0  0  0  0  0  0  0  0  0  0  0  0
   -3.0650   24.5570  -29.2710 C   0  0  0  0  0  0  0  0  0  0  0  0
   -3.5890   23.5080  -28.5330 C   0  0  0  0  0  0  0  0  0  0  0  0
   -2.7830   23.1580  -27.4420 C   0  0  0  0  0  0  0  0  0  0  0  0
   -1.6490   23.9540  -27.3250 C   0  0  0  0  0  0  0  0  0  0  0  0
   -0.3550   23.7310  -26.1560 S   0  0  0  0  0  0  0  0  0  0  0  0
    0.9630   23.7570  -26.8780 O   0  0  0  0  0  0  0  0  0  0  0  0
   -0.5110   22.3870  -25.5010 O   0  0  0  0  0  0  0  0  0  0  0  0
   -0.3530   24.9950  -24.9470 N   0  0  0  0  0  0  0  0  0  0  0  0
    0.9670   25.6380  -24.8750 C   0  0  0  0  0  0  0  0  0  0  0  0
    1.0080   26.6280  -23.6930 C   0  0  0  0  0  0  0  0  0  0  0  0
   -0.3410   27.0300  -23.2600 N   0  0  0  0  0  0  0  0  0  0  0  0
   -1.2100   27.2820  -24.4130 C   0  0  0  0  0  0  0  0  0  0  0  0
   -1.4100   25.9890  -25.2280 C   0  0  0  0  0  0  0  0  0  0  0  0
   -1.6340   25.0920  -28.5610 S   0  0  0  0  0  0  0  0  0  0  0  0
   -5.8660   24.0290  -31.1230 C   0  0  0  0  0  0  0  0  0  0  0  0
   -7.2220   23.8390  -30.8510 C   0  0  0  0  0  0  0  0  0  0  0  0
   -7.5330   22.6260  -31.4250 C   0  0  0  0  0  0  0  0  0  0  0  0
   -8.7320   21.9200  -31.4530 C   0  0  0  0  0  0  0  0  0  0  0  0
   -8.7440   20.6760  -32.1090 C   0  0  0  0  0  0  0  0  0  0  0  0
   -7.5700   20.1770  -32.7190 C   0  0  0  0  0  0  0  0  0  0  0  0
   -6.3750   20.9180  -32.6770 C   0  0  0  0  0  0  0  0  0  0  0  0
   -6.3940   22.1470  -32.0170 C   0  0  0  0  0  0  0  0  0  0  0  0
   -5.3690   22.9990  -31.8500 N   0  0  0  0  0  0  0  0  0  0  0  0
   -4.5359   23.0043  -28.7774 H   0  0  0  0  0  0  0  0  0  0  0  0
   -3.0226   22.3379  -26.7492 H   0  0  0  0  0  0  0  0  0  0  0  0
    1.7398   24.8683  -24.7324 H   0  0  0  0  0  0  0  0  0  0  0  0
    1.1535   26.1852  -25.8108 H   0  0  0  0  0  0  0  0  0  0  0  0
    1.5241   26.1497  -22.8475 H   0  0  0  0  0  0  0  0  0  0  0  0
    1.5401   27.5313  -24.0260 H   0  0  0  0  0  0  0  0  0  0  0  0
   -0.2550   27.9210  -22.7160 H   0  0  0  0  0  0  0  0  0  0  0  0
   -2.1872   27.6418  -24.0586 H   0  0  0  0  0  0  0  0  0  0  0  0
   -0.7387   28.0398  -25.0561 H   0  0  0  0  0  0  0  0  0  0  0  0
   -2.3865   25.5530  -24.9704 H   0  0  0  0  0  0  0  0  0  0  0  0
   -1.3620   26.2469  -26.2963 H   0  0  0  0  0  0  0  0  0  0  0  0
   -7.8952   24.5112  -30.2988 H   0  0  0  0  0  0  0  0  0  0  0  0
   -9.6395   22.3213  -30.9782 H   0  0  0  0  0  0  0  0  0  0  0  0
   -9.6725   20.0875  -32.1478 H   0  0  0  0  0  0  0  0  0  0  0  0
   -7.5913   19.2030  -33.2297 H   0  0  0  0  0  0  0  0  0  0  0  0
   -5.4558   20.5408  -33.1490 H   0  0  0  0  0  0  0  0  0  0  0  0
   -4.3880   22.8790  -32.1880 H   0  0  0  0  0  0  0  0  0  0  0  0
  1  2  2  0
  2  3  1  0
  3  4  1  0
  4  5  2  0
  5  6  1  0
  6  7  2  0
  7  8  1  0
  8  9  2  0
  8 10  2  0
  8 11  1  0
 11 12  1  0
 12 13  1  0
 13 14  1  0
 14 15  1  0
 15 16  1  0
  7 17  1  0
  2 18  1  0
 18 19  2  0
 19 20  1  0
 20 21  2  0
 21 22  1  0
 22 23  2  0
 23 24  1  0
 24 25  2  0
 25 26  1  0
 17  4  1  0
 26 18  1  0
 16 11  1  0
 25 20  1  0
  5 27  1  0
  6 28  1  0
 12 29  1  0
 12 30  1  0
 13 31  1  0
 13 32  1  0
 14 33  1  0
 15 34  1  0
 15 35  1  0
 16 36  1  0
 16 37  1  0
 19 38  1  0
 21 39  1  0
 22 40  1  0
 23 41  1  0
 24 42  1  0
 26 43  1  0
M  CHG  1   3  -1
M  END
>  <UniqueID>  (3) 
3

>  <SMILES>  (3) 
O=C([N-]c1ccc(S(=O)(=O)N2CCNCC2)s1)c1cc2ccccc2[nH]1

>  <Energy>  (3) 
112.40975690701566

>  <Genealogy>  (3) 
O=C([N-]c1ccc(S(=O)(=O)N2CCNCC2)s1)c1cc2ccccc2[nH]1 (protonated)
O=C([N-]c1ccc(S(=O)(=O)N2CCNCC2)s1)c1cc2ccccc2[nH]1 (3D coordinates assigned)
O=C([N-]c1ccc(S(=O)(=O)N2CCNCC2)s1)c1cc2ccccc2[nH]1 (nonaromatic ring conformer: 112.40975690701566 kcal/mol)

>  <smiles>  (3) 
O=C(Nc1ccc(S(=O)(=O)N2CCNCC2)s1)c1cc2ccccc2[nH]1

>  <score_type>  (3) 
oracle

>  <origin>  (3) 
adgpu

>  <m_score__min__energy>  (3) 
-11.33

>  <m_primary>  (3) 
energy

$$$$
3:0
     RDKit          3D

 52 55  0  0  0  0  0  0  0  0999 V2000
   -5.9700   25.0490  -29.7520 O   0  0  0  0  0  0  0  0  0  0  0  0
   -4.8050   24.5250  -30.5430 S   0  0  0  0  0  0  0  0  0  0  0  0
   -3.8720   25.6680  -30.8320 O   0  0  0  0  0  0  0  0  0  0  0  0
   -5.3870   23.8510  -32.0320 N   0  0  0  0  0  0  0  0  0  0  0  0
   -6.3030   22.7520  -32.1420 C   0  0  0  0  0  0  0  0  0  0  0  0
   -5.9010   21.4970  -32.6380 C   0  0  0  0  0  0  0  0  0  0  0  0
   -6.8110   20.4340  -32.7020 C   0  0  0  0  0  0  0  0  0  0  0  0
   -8.1400   20.6280  -32.2940 C   0  0  0  0  0  0  0  0  0  0  0  0
   -8.5520   21.8810  -31.8210 C   0  0  0  0  0  0  0  0  0  0  0  0
   -7.6350   22.9370  -31.7360 C   0  0  0  0  0  0  0  0  0  0  0  0
   -8.0400   24.1770  -31.2380 O   0  0  0  0  0  0  0  0  0  0  0  0
   -9.1020   19.4790  -32.4190 C   0  0  0  0  0  0  0  0  0  0  0  0
   -8.4410   18.1870  -31.9180 C   0  0  0  0  0  0  0  0  0  0  0  0
   -7.0380   17.9200  -32.5250 C   0  0  0  0  0  0  0  0  0  0  0  0
   -6.4170   19.1060  -33.2910 C   0  0  0  0  0  0  0  0  0  0  0  0
   -3.9990   23.2710  -29.6030 C   0  0  0  0  0  0  0  0  0  0  0  0
   -3.7560   23.4820  -28.2400 C   0  0  0  0  0  0  0  0  0  0  0  0
   -3.1400   22.4890  -27.4740 C   0  0  0  0  0  0  0  0  0  0  0  0
   -2.7650   21.2730  -28.0630 C   0  0  0  0  0  0  0  0  0  0  0  0
   -2.0020   20.0120  -27.0870 S   0  0  0  0  0  0  0  0  0  0  0  0
   -1.2890   20.6520  -25.9300 O   0  0  0  0  0  0  0  0  0  0  0  0
   -3.0710   19.1110  -26.5330 O   0  0  0  0  0  0  0  0  0  0  0  0
   -0.8570   19.0500  -27.9920 N   0  0  0  0  0  0  0  0  0  0  0  0
    0.3470   19.8050  -28.3250 C   0  0  0  0  0  0  0  0  0  0  0  0
    1.4440   18.7770  -28.5440 C   0  0  0  0  0  0  0  0  0  0  0  0
    0.9710   17.5260  -27.8150 C   0  0  0  0  0  0  0  0  0  0  0  0
   -0.3900   17.8870  -27.2410 C   0  0  0  0  0  0  0  0  0  0  0  0
   -3.0210   21.0580  -29.4250 C   0  0  0  0  0  0  0  0  0  0  0  0
   -3.6260   22.0550  -30.1940 C   0  0  0  0  0  0  0  0  0  0  0  0
   -4.8651   21.3503  -32.9776 H   0  0  0  0  0  0  0  0  0  0  0  0
   -9.5974   22.0359  -31.5158 H   0  0  0  0  0  0  0  0  0  0  0  0
   -7.3730   24.9160  -31.0440 H   0  0  0  0  0  0  0  0  0  0  0  0
   -9.9988   19.6870  -31.8169 H   0  0  0  0  0  0  0  0  0  0  0  0
   -9.3835   19.3557  -33.4752 H   0  0  0  0  0  0  0  0  0  0  0  0
   -8.3383   18.2523  -30.8248 H   0  0  0  0  0  0  0  0  0  0  0  0
   -9.0880   17.3552  -32.2334 H   0  0  0  0  0  0  0  0  0  0  0  0
   -6.3574   17.6516  -31.7036 H   0  0  0  0  0  0  0  0  0  0  0  0
   -7.1732   17.1166  -33.2641 H   0  0  0  0  0  0  0  0  0  0  0  0
   -5.3213   19.0147  -33.2569 H   0  0  0  0  0  0  0  0  0  0  0  0
   -6.7903   19.0719  -34.3252 H   0  0  0  0  0  0  0  0  0  0  0  0
   -4.0510   24.4323  -27.7711 H   0  0  0  0  0  0  0  0  0  0  0  0
   -2.9485   22.6618  -26.4047 H   0  0  0  0  0  0  0  0  0  0  0  0
    0.1873   20.3933  -29.2406 H   0  0  0  0  0  0  0  0  0  0  0  0
    0.6125   20.5105  -27.5239 H   0  0  0  0  0  0  0  0  0  0  0  0
    1.5723   18.5726  -29.6172 H   0  0  0  0  0  0  0  0  0  0  0  0
    2.4168   19.1279  -28.1692 H   0  0  0  0  0  0  0  0  0  0  0  0
    0.8824   16.6823  -28.5152 H   0  0  0  0  0  0  0  0  0  0  0  0
    1.6777   17.2161  -27.0311 H   0  0  0  0  0  0  0  0  0  0  0  0
   -1.0902   17.0477  -27.3646 H   0  0  0  0  0  0  0  0  0  0  0  0
   -0.3245   18.1061  -26.1650 H   0  0  0  0  0  0  0  0  0  0  0  0
   -2.7442   20.1002  -29.8897 H   0  0  0  0  0  0  0  0  0  0  0  0
   -3.8102   21.8860  -31.2652 H   0  0  0  0  0  0  0  0  0  0  0  0
  1  2  2  0
  2  3  2  0
  2  4  1  0
  4  5  1  0
  5  6  2  0
  6  7  1  0
  7  8  2  0
  8  9  1  0
  9 10  2  0
 10 11  1  0
  8 12  1  0
 12 13  1  0
 13 14  1  0
 14 15  1  0
  2 16  1  0
 16 17  2  0
 17 18  1  0
 18 19  2  0
 19 20  1  0
 20 21  2  0
 20 22  2  0
 20 23  1  0
 23 24  1  0
 24 25  1  0
 25 26  1  0
 26 27  1  0
 19 28  1  0
 28 29  2  0
 10  5  1  0
 29 16  1  0
 15  7  1  0
 27 23  1  0
  6 30  1  0
  9 31  1  0
 11 32  1  0
 12 33  1  0
 12 34  1  0
 13 35  1  0
 13 36  1  0
 14 37  1  0
 14 38  1  0
 15 39  1  0
 15 40  1  0
 17 41  1  0
 18 42  1  0
 24 43  1  0
 24 44  1  0
 25 45  1  0
 25 46  1  0
 26 47  1  0
 26 48  1  0
 27 49  1  0
 27 50  1  0
 28 51  1  0
 29 52  1  0
M  CHG  1   4  -1
M  END
>  <UniqueID>  (4) 
4

>  <SMILES>  (4) 
O=S(=O)([N-]c1cc2c(cc1O)CCCC2)c1ccc(S(=O)(=O)N2CCCC2)cc1

>  <Energy>  (4) 
62.56707935453367

>  <Genealogy>  (4) 
O=S(=O)([N-]c1cc2c(cc1O)CCCC2)c1ccc(S(=O)(=O)N2CCCC2)cc1 (protonated)
O=S(=O)([N-]c1cc2c(cc1O)CCCC2)c1ccc(S(=O)(=O)N2CCCC2)cc1 (3D coordinates assigned)
O=S(=O)([N-]c1cc2c(cc1O)CCCC2)c1ccc(S(=O)(=O)N2CCCC2)cc1 (nonaromatic ring conformer: 62.56707935453367 kcal/mol)

>  <smiles>  (4) 
O=S(=O)(Nc1cc2c(cc1O)CCCC2)c1ccc(S(=O)(=O)N2CCCC2)cc1

>  <score_type>  (4) 
oracle

>  <origin>  (4) 
adgpu

>  <m_score__min__energy>  (4) 
-13.32

>  <m_primary>  (4) 
energy

$$$$
4:0
     RDKit          3D

 46 49  0  0  0  0  0  0  0  0999 V2000
   -6.8290   16.5330  -33.5600 C   0  0  0  0  0  0  0  0  0  0  0  0
   -6.7770   17.9560  -33.1180 C   0  0  0  0  0  0  0  0  0  0  0  0
   -5.6170   18.6470  -32.9830 N   0  0  0  0  0  0  0  0  0  0  0  0
   -5.8510   19.9130  -32.5520 C   0  0  0  0  0  0  0  0  0  0  0  0
   -4.8550   20.8620  -32.3130 C   0  0  0  0  0  0  0  0  0  0  0  0
   -5.2280   22.1540  -31.8780 C   0  0  0  0  0  0  0  0  0  0  0  0
   -4.2580   23.1790  -31.6170 N   0  0  0  0  0  0  0  0  0  0  0  0
   -4.1980   24.1410  -30.1760 S   0  0  0  0  0  0  0  0  0  0  0  0
   -3.9420   25.5740  -30.5480 O   0  0  0  0  0  0  0  0  0  0  0  0
   -5.5270   24.0530  -29.4780 O   0  0  0  0  0  0  0  0  0  0  0  0
   -2.8760   23.5750  -29.1490 C   0  0  0  0  0  0  0  0  0  0  0  0
   -2.9440   22.2730  -28.6290 C   0  0  0  0  0  0  0  0  0  0  0  0
   -1.9290   21.7840  -27.7990 C   0  0  0  0  0  0  0  0  0  0  0  0
   -2.0350   20.1440  -27.1640 S   0  0  0  0  0  0  0  0  0  0  0  0
   -3.4880   19.7740  -27.0460 O   0  0  0  0  0  0  0  0  0  0  0  0
   -1.4110   20.0790  -25.7960 O   0  0  0  0  0  0  0  0  0  0  0  0
   -1.2300   19.0360  -28.2550 N   0  0  0  0  0  0  0  0  0  0  0  0
   -0.5530   19.7700  -29.3290 C   0  0  0  0  0  0  0  0  0  0  0  0
    0.8720   20.0340  -28.8820 C   0  0  0  0  0  0  0  0  0  0  0  0
    1.1690   18.9500  -27.8650 C   0  0  0  0  0  0  0  0  0  0  0  0
   -0.1730   18.2930  -27.5540 C   0  0  0  0  0  0  0  0  0  0  0  0
   -0.8310   22.5990  -27.4940 C   0  0  0  0  0  0  0  0  0  0  0  0
   -0.7550   23.8960  -28.0090 C   0  0  0  0  0  0  0  0  0  0  0  0
   -1.7690   24.3860  -28.8380 C   0  0  0  0  0  0  0  0  0  0  0  0
   -1.6610   25.6770  -29.3420 O   0  0  0  0  0  0  0  0  0  0  0  0
   -6.5960   22.4620  -31.7010 C   0  0  0  0  0  0  0  0  0  0  0  0
   -7.5860   21.4930  -31.9330 C   0  0  0  0  0  0  0  0  0  0  0  0
   -7.1830   20.2310  -32.3550 C   0  0  0  0  0  0  0  0  0  0  0  0
   -8.1320   18.8920  -32.7180 S   0  0  0  0  0  0  0  0  0  0  0  0
   -6.8530   15.8758  -32.6782 H   0  0  0  0  0  0  0  0  0  0  0  0
   -7.7337   16.3695  -34.1639 H   0  0  0  0  0  0  0  0  0  0  0  0
   -5.9386   16.3039  -34.1639 H   0  0  0  0  0  0  0  0  0  0  0  0
   -3.7951   20.6077  -32.4612 H   0  0  0  0  0  0  0  0  0  0  0  0
   -3.8027   21.6314  -28.8761 H   0  0  0  0  0  0  0  0  0  0  0  0
   -0.5511   19.1686  -30.2500 H   0  0  0  0  0  0  0  0  0  0  0  0
   -1.0732   20.7171  -29.5349 H   0  0  0  0  0  0  0  0  0  0  0  0
    1.5640   19.9651  -29.7343 H   0  0  0  0  0  0  0  0  0  0  0  0
    0.9934   21.0424  -28.4597 H   0  0  0  0  0  0  0  0  0  0  0  0
    1.8686   18.2122  -28.2848 H   0  0  0  0  0  0  0  0  0  0  0  0
    1.6378   19.3620  -26.9592 H   0  0  0  0  0  0  0  0  0  0  0  0
   -0.1632   17.2483  -27.8982 H   0  0  0  0  0  0  0  0  0  0  0  0
   -0.3576   18.3081  -26.4697 H   0  0  0  0  0  0  0  0  0  0  0  0
   -0.0269   22.2172  -26.8477 H   0  0  0  0  0  0  0  0  0  0  0  0
    0.1061   24.5341  -27.7612 H   0  0  0  0  0  0  0  0  0  0  0  0
   -6.8887   23.4719  -31.3779 H   0  0  0  0  0  0  0  0  0  0  0  0
   -8.6508   21.7261  -31.7849 H   0  0  0  0  0  0  0  0  0  0  0  0
  1  2  1  0
  2  3  2  0
  3  4  1  0
  4  5  2  0
  5  6  1  0
  6  7  1  0
  7  8  1  0
  8  9  2  0
  8 10  2  0
  8 11  1  0
 11 12  2  0
 12 13  1  0
 13 14  1  0
 14 15  2  0
 14 16  2  0
 14 17  1  0
 17 18  1  0
 18 19  1  0
 19 20  1  0
 20 21  1  0
 13 22  2  0
 22 23  1  0
 23 24  2  0
 24 25  1  0
  6 26  2  0
 26 27  1  0
 27 28  2  0
 28 29  1  0
 29  2  1  0
 28  4  1  0
 24 11  1  0
 21 17  1  0
  1 30  1  0
  1 31  1  0
  1 32  1  0
  5 33  1  0
 12 34  1  0
 18 35  1  0
 18 36  1  0
 19 37  1  0
 19 38  1  0
 20 39  1  0
 20 40  1  0
 21 41  1  0
 21 42  1  0
 22 43  1  0
 23 44  1  0
 26 45  1  0
 27 46  1  0
M  CHG  2   7  -1  25  -1
M  END
>  <UniqueID>  (5) 
5

>  <SMILES>  (5) 
Cc1nc2cc([N-]S(=O)(=O)c3cc(S(=O)(=O)N4CCCC4)ccc3[O-])ccc2s1

>  <Energy>  (5) 
87.33722093522947

>  <Genealogy>  (5) 
Cc1nc2cc([N-]S(=O)(=O)c3cc(S(=O)(=O)N4CCCC4)ccc3[O-])ccc2s1 (protonated)
Cc1nc2cc([N-]S(=O)(=O)c3cc(S(=O)(=O)N4CCCC4)ccc3[O-])ccc2s1 (3D coordinates assigned)
Cc1nc2cc([N-]S(=O)(=O)c3cc(S(=O)(=O)N4CCCC4)ccc3[O-])ccc2s1 (nonaromatic ring conformer: 87.33722093522947 kcal/mol)

>  <smiles>  (5) 
Cc1nc2cc(NS(=O)(=O)c3cc(S(=O)(=O)N4CCCC4)ccc3O)ccc2s1

>  <score_type>  (5) 
oracle

>  <origin>  (5) 
adgpu

>  <m_score__min__energy>  (5) 
-13.859999999999999

>  <m_primary>  (5) 
energy

$$$$
5:0
     RDKit          3D

 59 62  0  0  0  0  0  0  0  0999 V2000
   -4.2080   22.6060  -27.7630 O   0  0  0  0  0  0  0  0  0  0  0  0
   -3.8860   23.2280  -28.8120 C   0  0  0  0  0  0  0  0  0  0  0  0
   -2.5220   23.6350  -29.0240 N   0  0  0  0  0  0  0  0  0  0  0  0
   -1.4400   23.3220  -28.1300 C   0  0  0  0  0  0  0  0  0  0  0  0
   -1.4270   22.0800  -27.4790 C   0  0  0  0  0  0  0  0  0  0  0  0
   -0.4010   21.7600  -26.5870 C   0  0  0  0  0  0  0  0  0  0  0  0
    0.6100   22.6860  -26.3210 C   0  0  0  0  0  0  0  0  0  0  0  0
    0.5930   23.9440  -26.9380 C   0  0  0  0  0  0  0  0  0  0  0  0
    1.8440   25.1340  -26.5630 S   0  0  0  0  0  0  0  0  0  0  0  0
    2.9870   24.4490  -25.8680 O   0  0  0  0  0  0  0  0  0  0  0  0
    2.3670   25.7220  -27.8450 O   0  0  0  0  0  0  0  0  0  0  0  0
    1.2270   26.4170  -25.5480 N   0  0  0  0  0  0  0  0  0  0  0  0
   -0.0880   26.9130  -26.0280 C   0  0  0  0  0  0  0  0  0  0  0  0
   -1.2660   26.3940  -25.1900 C   0  0  0  0  0  0  0  0  0  0  0  0
   -1.1170   26.7970  -23.7130 C   0  0  0  0  0  0  0  0  0  0  0  0
    0.3540   26.9000  -23.2690 C   0  0  0  0  0  0  0  0  0  0  0  0
    1.2510   26.0040  -24.1270 C   0  0  0  0  0  0  0  0  0  0  0  0
   -0.4330   24.2590  -27.8420 C   0  0  0  0  0  0  0  0  0  0  0  0
   -4.9290   23.5240  -29.8160 C   0  0  0  0  0  0  0  0  0  0  0  0
   -6.0140   22.6430  -29.9560 C   0  0  0  0  0  0  0  0  0  0  0  0
   -7.0160   22.8880  -30.9040 C   0  0  0  0  0  0  0  0  0  0  0  0
   -8.3800   21.7850  -31.0630 S   0  0  0  0  0  0  0  0  0  0  0  0
   -9.2280   22.1930  -32.2380 O   0  0  0  0  0  0  0  0  0  0  0  0
   -9.2220   21.8580  -29.8200 O   0  0  0  0  0  0  0  0  0  0  0  0
   -7.7850   20.1580  -31.2690 N   0  0  0  0  0  0  0  0  0  0  0  0
   -6.5990   20.1300  -32.1230 C   0  0  0  0  0  0  0  0  0  0  0  0
   -6.5660   18.7560  -32.7740 C   0  0  0  0  0  0  0  0  0  0  0  0
   -7.9890   18.2270  -32.6660 C   0  0  0  0  0  0  0  0  0  0  0  0
   -8.7690   19.3130  -31.9440 C   0  0  0  0  0  0  0  0  0  0  0  0
   -6.9460   24.0340  -31.7050 C   0  0  0  0  0  0  0  0  0  0  0  0
   -5.8820   24.9270  -31.5600 C   0  0  0  0  0  0  0  0  0  0  0  0
   -4.8790   24.6840  -30.6150 C   0  0  0  0  0  0  0  0  0  0  0  0
   -3.8630   25.6210  -30.4580 O   0  0  0  0  0  0  0  0  0  0  0  0
   -2.2980   24.2280  -29.8550 H   0  0  0  0  0  0  0  0  0  0  0  0
   -2.2299   21.3533  -27.6721 H   0  0  0  0  0  0  0  0  0  0  0  0
   -0.3892   20.7771  -26.0932 H   0  0  0  0  0  0  0  0  0  0  0  0
    1.4218   22.4272  -25.6253 H   0  0  0  0  0  0  0  0  0  0  0  0
   -0.0849   28.0122  -25.9859 H   0  0  0  0  0  0  0  0  0  0  0  0
   -0.2253   26.5425  -27.0546 H   0  0  0  0  0  0  0  0  0  0  0  0
   -2.2014   26.8171  -25.5849 H   0  0  0  0  0  0  0  0  0  0  0  0
   -1.2810   25.2959  -25.2520 H   0  0  0  0  0  0  0  0  0  0  0  0
   -1.5982   27.7750  -23.5651 H   0  0  0  0  0  0  0  0  0  0  0  0
   -1.5926   26.0128  -23.1057 H   0  0  0  0  0  0  0  0  0  0  0  0
    0.6874   27.9435  -23.3686 H   0  0  0  0  0  0  0  0  0  0  0  0
    0.4277   26.5697  -22.2224 H   0  0  0  0  0  0  0  0  0  0  0  0
    2.2835   26.0683  -23.7531 H   0  0  0  0  0  0  0  0  0  0  0  0
    0.8749   24.9725  -24.0602 H   0  0  0  0  0  0  0  0  0  0  0  0
   -0.4492   25.2456  -28.3283 H   0  0  0  0  0  0  0  0  0  0  0  0
   -6.0776   21.7515  -29.3147 H   0  0  0  0  0  0  0  0  0  0  0  0
   -6.6665   20.9132  -32.8924 H   0  0  0  0  0  0  0  0  0  0  0  0
   -5.6850   20.3150  -31.5395 H   0  0  0  0  0  0  0  0  0  0  0  0
   -6.2637   18.8363  -33.8286 H   0  0  0  0  0  0  0  0  0  0  0  0
   -5.8415   18.0877  -32.2856 H   0  0  0  0  0  0  0  0  0  0  0  0
   -8.4110   18.0504  -33.6664 H   0  0  0  0  0  0  0  0  0  0  0  0
   -8.0295   17.2680  -32.1287 H   0  0  0  0  0  0  0  0  0  0  0  0
   -9.3480   19.9077  -32.6659 H   0  0  0  0  0  0  0  0  0  0  0  0
   -9.4784   18.8789  -31.2241 H   0  0  0  0  0  0  0  0  0  0  0  0
   -7.7307   24.2316  -32.4502 H   0  0  0  0  0  0  0  0  0  0  0  0
   -5.8322   25.8260  -32.1919 H   0  0  0  0  0  0  0  0  0  0  0  0
  1  2  2  0
  2  3  1  0
  3  4  1  0
  4  5  2  0
  5  6  1  0
  6  7  2  0
  7  8  1  0
  8  9  1  0
  9 10  2  0
  9 11  2  0
  9 12  1  0
 12 13  1  0
 13 14  1  0
 14 15  1  0
 15 16  1  0
 16 17  1  0
  8 18  2  0
  2 19  1  0
 19 20  2  0
 20 21  1  0
 21 22  1  0
 22 23  2  0
 22 24  2  0
 22 25  1  0
 25 26  1  0
 26 27  1  0
 27 28  1  0
 28 29  1  0
 21 30  2  0
 30 31  1  0
 31 32  2  0
 32 33  1  0
 18  4  1  0
 32 19  1  0
 17 12  1  0
 29 25  1  0
  3 34  1  0
  5 35  1  0
  6 36  1  0
  7 37  1  0
 13 38  1  0
 13 39  1  0
 14 40  1  0
 14 41  1  0
 15 42  1  0
 15 43  1  0
 16 44  1  0
 16 45  1  0
 17 46  1  0
 17 47  1  0
 18 48  1  0
 20 49  1  0
 26 50  1  0
 26 51  1  0
 27 52  1  0
 27 53  1  0
 28 54  1  0
 28 55  1  0
 29 56  1  0
 29 57  1  0
 30 58  1  0
 31 59  1  0
M  CHG  1  33  -1
M  END
>  <UniqueID>  (6) 
6

>  <SMILES>  (6) 
O=C(Nc1cccc(S(=O)(=O)N2CCCCC2)c1)c1cc(S(=O)(=O)N2CCCC2)ccc1[O-]

>  <Energy>  (6) 
74.5529922370304

>  <Genealogy>  (6) 
O=C(Nc1cccc(S(=O)(=O)N2CCCCC2)c1)c1cc(S(=O)(=O)N2CCCC2)ccc1[O-] (protonated)
O=C(Nc1cccc(S(=O)(=O)N2CCCCC2)c1)c1cc(S(=O)(=O)N2CCCC2)ccc1[O-] (3D coordinates assigned)
O=C(Nc1cccc(S(=O)(=O)N2CCCCC2)c1)c1cc(S(=O)(=O)N2CCCC2)ccc1[O-] (nonaromatic ring conformer: 74.5529922370304 kcal/mol)

>  <smiles>  (6) 
O=C(Nc1cccc(S(=O)(=O)N2CCCCC2)c1)c1cc(S(=O)(=O)N2CCCC2)ccc1O

>  <score_type>  (6) 
oracle

>  <origin>  (6) 
adgpu

>  <m_score__min__energy>  (6) 
-14.07

>  <m_primary>  (6) 
energy

$$$$
6:0
     RDKit          3D

 42 44  0  0  0  0  0  0  0  0999 V2000
   -4.4060   25.4440  -30.8800 O   0  0  0  0  0  0  0  0  0  0  0  0
   -5.4410   24.9480  -29.9120 S   0  0  0  0  0  0  0  0  0  0  0  0
   -6.4040   26.0560  -29.6060 O   0  0  0  0  0  0  0  0  0  0  0  0
   -4.6520   24.4540  -28.4470 N   0  0  0  0  0  0  0  0  0  0  0  0
   -3.4940   23.6050  -28.3850 C   0  0  0  0  0  0  0  0  0  0  0  0
   -3.5750   22.2700  -27.9450 C   0  0  0  0  0  0  0  0  0  0  0  0
   -2.4210   21.4840  -27.8490 C   0  0  0  0  0  0  0  0  0  0  0  0
   -2.5280   19.8350  -27.2630 Cl  0  0  0  0  0  0  0  0  0  0  0  0
   -1.1800   22.0150  -28.2090 C   0  0  0  0  0  0  0  0  0  0  0  0
   -1.0930   23.3320  -28.6700 C   0  0  0  0  0  0  0  0  0  0  0  0
   -2.2470   24.1280  -28.7580 C   0  0  0  0  0  0  0  0  0  0  0  0
   -2.1570   25.4440  -29.2090 O   0  0  0  0  0  0  0  0  0  0  0  0
   -6.3290   23.5900  -30.5930 C   0  0  0  0  0  0  0  0  0  0  0  0
   -7.0910   22.7670  -29.7520 C   0  0  0  0  0  0  0  0  0  0  0  0
   -7.7140   21.6240  -30.2620 C   0  0  0  0  0  0  0  0  0  0  0  0
   -7.5850   21.3010  -31.6210 C   0  0  0  0  0  0  0  0  0  0  0  0
   -8.2790   19.8170  -32.2640 S   0  0  0  0  0  0  0  0  0  0  0  0
   -9.0980   19.1260  -31.2090 O   0  0  0  0  0  0  0  0  0  0  0  0
   -9.1690   20.1580  -33.4260 O   0  0  0  0  0  0  0  0  0  0  0  0
   -6.9850   18.7780  -32.8010 N   0  0  0  0  0  0  0  0  0  0  0  0
   -6.4260   19.2350  -34.0720 C   0  0  0  0  0  0  0  0  0  0  0  0
   -4.9860   18.7470  -34.1110 C   0  0  0  0  0  0  0  0  0  0  0  0
   -4.6250   18.4400  -32.6640 C   0  0  0  0  0  0  0  0  0  0  0  0
   -5.8660   18.7860  -31.8590 C   0  0  0  0  0  0  0  0  0  0  0  0
   -6.8480   22.1400  -32.4670 C   0  0  0  0  0  0  0  0  0  0  0  0
   -6.2230   23.2810  -31.9570 C   0  0  0  0  0  0  0  0  0  0  0  0
   -4.5517   21.8420  -27.6749 H   0  0  0  0  0  0  0  0  0  0  0  0
   -0.2728   21.3979  -28.1299 H   0  0  0  0  0  0  0  0  0  0  0  0
   -0.1176   23.7463  -28.9648 H   0  0  0  0  0  0  0  0  0  0  0  0
   -2.9820   26.0160  -29.3400 H   0  0  0  0  0  0  0  0  0  0  0  0
   -7.1991   23.0214  -28.6873 H   0  0  0  0  0  0  0  0  0  0  0  0
   -8.3057   20.9776  -29.5972 H   0  0  0  0  0  0  0  0  0  0  0  0
   -6.9944   18.8093  -34.9121 H   0  0  0  0  0  0  0  0  0  0  0  0
   -6.4772   20.3304  -34.1580 H   0  0  0  0  0  0  0  0  0  0  0  0
   -4.9031   17.8409  -34.7291 H   0  0  0  0  0  0  0  0  0  0  0  0
   -4.3115   19.4961  -34.5513 H   0  0  0  0  0  0  0  0  0  0  0  0
   -4.3743   17.3754  -32.5470 H   0  0  0  0  0  0  0  0  0  0  0  0
   -3.7469   19.0123  -32.3302 H   0  0  0  0  0  0  0  0  0  0  0  0
   -6.0281   18.0375  -31.0694 H   0  0  0  0  0  0  0  0  0  0  0  0
   -5.7636   19.7659  -31.3699 H   0  0  0  0  0  0  0  0  0  0  0  0
   -6.7610   21.8996  -33.5369 H   0  0  0  0  0  0  0  0  0  0  0  0
   -5.6473   23.9375  -32.6260 H   0  0  0  0  0  0  0  0  0  0  0  0
  1  2  2  0
  2  3  2  0
  2  4  1  0
  4  5  1  0
  5  6  2  0
  6  7  1  0
  7  8  1  0
  7  9  2  0
  9 10  1  0
 10 11  2  0
 11 12  1  0
  2 13  1  0
 13 14  2  0
 14 15  1  0
 15 16  2  0
 16 17  1  0
 17 18  2  0
 17 19  2  0
 17 20  1  0
 20 21  1  0
 21 22  1  0
 22 23  1  0
 23 24  1  0
 16 25  1  0
 25 26  2  0
 11  5  1  0
 26 13  1  0
 24 20  1  0
  6 27  1  0
  9 28  1  0
 10 29  1  0
 12 30  1  0
 14 31  1  0
 15 32  1  0
 21 33  1  0
 21 34  1  0
 22 35  1  0
 22 36  1  0
 23 37  1  0
 23 38  1  0
 24 39  1  0
 24 40  1  0
 25 41  1  0
 26 42  1  0
M  CHG  1   4  -1
M  END
>  <UniqueID>  (7) 
7

>  <SMILES>  (7) 
O=S(=O)([N-]c1cc(Cl)ccc1O)c1ccc(S(=O)(=O)N2CCCC2)cc1

>  <Energy>  (7) 
46.16240972594416

>  <Genealogy>  (7) 
O=S(=O)([N-]c1cc(Cl)ccc1O)c1ccc(S(=O)(=O)N2CCCC2)cc1 (protonated)
O=S(=O)([N-]c1cc(Cl)ccc1O)c1ccc(S(=O)(=O)N2CCCC2)cc1 (3D coordinates assigned)
O=S(=O)([N-]c1cc(Cl)ccc1O)c1ccc(S(=O)(=O)N2CCCC2)cc1 (nonaromatic ring conformer: 46.16240972594416 kcal/mol)

>  <smiles>  (7) 
O=S(=O)(Nc1cc(Cl)ccc1O)c1ccc(S(=O)(=O)N2CCCC2)cc1

>  <score_type>  (7) 
oracle

>  <origin>  (7) 
adgpu

>  <m_score__min__energy>  (7) 
-12.75

>  <m_primary>  (7) 
energy

$$$$
7:0
     RDKit          3D

 48 51  0  0  0  0  0  0  0  0999 V2000
   -6.4250   25.3660  -30.8640 O   0  0  0  0  0  0  0  0  0  0  0  0
   -5.1810   24.6630  -30.4010 S   0  0  0  0  0  0  0  0  0  0  0  0
   -5.2540   24.4220  -28.9190 O   0  0  0  0  0  0  0  0  0  0  0  0
   -3.8590   25.6520  -30.7170 O   0  0  0  0  0  0  0  0  0  0  0  0
   -5.0170   23.1150  -31.2510 C   0  0  0  0  0  0  0  0  0  0  0  0
   -3.7290   22.6790  -31.5720 C   0  0  0  0  0  0  0  0  0  0  0  0
   -3.5220   21.4670  -32.2270 C   0  0  0  0  0  0  0  0  0  0  0  0
   -1.8360   20.9540  -32.5830 S   0  0  0  0  0  0  0  0  0  0  0  0
   -1.3190   21.1610  -30.8770 C   0  0  0  0  0  0  0  0  0  0  0  0
   -1.1450   20.0430  -30.0550 C   0  0  0  0  0  0  0  0  0  0  0  0
   -0.7530   20.2070  -28.7240 C   0  0  0  0  0  0  0  0  0  0  0  0
   -0.5350   21.4880  -28.2100 C   0  0  0  0  0  0  0  0  0  0  0  0
   -0.7090   22.6140  -29.0280 C   0  0  0  0  0  0  0  0  0  0  0  0
   -0.4150   24.2300  -28.3930 S   0  0  0  0  0  0  0  0  0  0  0  0
    1.0660   24.4760  -28.3350 O   0  0  0  0  0  0  0  0  0  0  0  0
   -1.0350   25.2520  -29.3050 O   0  0  0  0  0  0  0  0  0  0  0  0
   -1.0890   24.3500  -26.7870 N   0  0  0  0  0  0  0  0  0  0  0  0
   -2.0370   25.4580  -26.6900 C   0  0  0  0  0  0  0  0  0  0  0  0
   -2.0330   25.9070  -25.2380 C   0  0  0  0  0  0  0  0  0  0  0  0
   -0.7370   25.3670  -24.6520 C   0  0  0  0  0  0  0  0  0  0  0  0
   -0.0530   24.6340  -25.7960 C   0  0  0  0  0  0  0  0  0  0  0  0
   -1.0900   22.4450  -30.3660 C   0  0  0  0  0  0  0  0  0  0  0  0
   -4.6050   20.6610  -32.5980 C   0  0  0  0  0  0  0  0  0  0  0  0
   -4.3180   19.4670  -33.2710 O   0  0  0  0  0  0  0  0  0  0  0  0
   -5.9280   21.0740  -32.2850 C   0  0  0  0  0  0  0  0  0  0  0  0
   -7.0520   20.2890  -32.6250 C   0  0  0  0  0  0  0  0  0  0  0  0
   -8.3430   20.7130  -32.3070 C   0  0  0  0  0  0  0  0  0  0  0  0
   -8.5420   21.9190  -31.6460 C   0  0  0  0  0  0  0  0  0  0  0  0
   -7.4530   22.7140  -31.2960 C   0  0  0  0  0  0  0  0  0  0  0  0
   -6.1340   22.3140  -31.6040 C   0  0  0  0  0  0  0  0  0  0  0  0
   -2.8640   23.3031  -31.3031 H   0  0  0  0  0  0  0  0  0  0  0  0
   -1.3169   19.0335  -30.4568 H   0  0  0  0  0  0  0  0  0  0  0  0
   -0.6157   19.3262  -28.0796 H   0  0  0  0  0  0  0  0  0  0  0  0
   -0.2263   21.6136  -27.1617 H   0  0  0  0  0  0  0  0  0  0  0  0
   -1.7226   26.2848  -27.3438 H   0  0  0  0  0  0  0  0  0  0  0  0
   -3.0437   25.1476  -27.0065 H   0  0  0  0  0  0  0  0  0  0  0  0
   -2.0561   27.0049  -25.1746 H   0  0  0  0  0  0  0  0  0  0  0  0
   -2.9139   25.5371  -24.6929 H   0  0  0  0  0  0  0  0  0  0  0  0
   -0.1050   26.1914  -24.2902 H   0  0  0  0  0  0  0  0  0  0  0  0
   -0.9203   24.7052  -23.7927 H   0  0  0  0  0  0  0  0  0  0  0  0
    0.7314   25.2665  -26.2372 H   0  0  0  0  0  0  0  0  0  0  0  0
    0.4253   23.7078  -25.4448 H   0  0  0  0  0  0  0  0  0  0  0  0
   -1.2096   23.3235  -31.0171 H   0  0  0  0  0  0  0  0  0  0  0  0
   -3.4010   19.1820  -33.5820 H   0  0  0  0  0  0  0  0  0  0  0  0
   -6.9079   19.3315  -33.1470 H   0  0  0  0  0  0  0  0  0  0  0  0
   -9.2070   20.0897  -32.5808 H   0  0  0  0  0  0  0  0  0  0  0  0
   -9.5624   22.2468  -31.3984 H   0  0  0  0  0  0  0  0  0  0  0  0
   -7.6227   23.6665  -30.7725 H   0  0  0  0  0  0  0  0  0  0  0  0
  1  2  2  0
  2  3  2  0
  2  4  1  0
  2  5  1  0
  5  6  2  0
  6  7  1  0
  7  8  1  0
  8  9  1  0
  9 10  2  0
 10 11  1  0
 11 12  2  0
 12 13  1  0
 13 14  1  0
 14 15  2  0
 14 16  2  0
 14 17  1  0
 17 18  1  0
 18 19  1  0
 19 20  1  0
 20 21  1  0
 13 22  2  0
  7 23  2  0
 23 24  1  0
 23 25  1  0
 25 26  2  0
 26 27  1  0
 27 28  2  0
 28 29  1  0
 29 30  2  0
 30  5  1  0
 22  9  1  0
 30 25  1  0
 21 17  1  0
  6 31  1  0
 10 32  1  0
 11 33  1  0
 12 34  1  0
 18 35  1  0
 18 36  1  0
 19 37  1  0
 19 38  1  0
 20 39  1  0
 20 40  1  0
 21 41  1  0
 21 42  1  0
 22 43  1  0
 24 44  1  0
 26 45  1  0
 27 46  1  0
 28 47  1  0
 29 48  1  0
M  CHG  1   4  -1
M  END
>  <UniqueID>  (8) 
8

>  <SMILES>  (8) 
O=S(=O)([O-])c1cc(Sc2cccc(S(=O)(=O)N3CCCC3)c2)c(O)c2ccccc12

>  <Energy>  (8) 
57.73270654987863

>  <Genealogy>  (8) 
O=S(=O)([O-])c1cc(Sc2cccc(S(=O)(=O)N3CCCC3)c2)c(O)c2ccccc12 (protonated)
O=S(=O)([O-])c1cc(Sc2cccc(S(=O)(=O)N3CCCC3)c2)c(O)c2ccccc12 (3D coordinates assigned)
O=S(=O)([O-])c1cc(Sc2cccc(S(=O)(=O)N3CCCC3)c2)c(O)c2ccccc12 (nonaromatic ring conformer: 57.73270654987863 kcal/mol)

>  <smiles>  (8) 
O=S(=O)(O)c1cc(Sc2cccc(S(=O)(=O)N3CCCC3)c2)c(O)c2ccccc12

>  <score_type>  (8) 
oracle

>  <origin>  (8) 
adgpu

>  <m_score__min__energy>  (8) 
-12.970000000000001

>  <m_primary>  (8) 
energy

$$$$
8:0
     RDKit          3D

 67 71  0  0  0  0  0  0  0  0999 V2000
   -1.9900   25.1210  -27.8810 C   0  0  0  0  0  0  0  0  0  0  0  0
   -2.6610   24.3560  -28.9750 C   0  0  0  0  0  0  0  0  0  0  0  0
   -3.1540   24.9220  -30.0980 N   0  0  0  0  0  0  0  0  0  0  0  0
   -3.6630   23.9620  -30.8170 O   0  0  0  0  0  0  0  0  0  0  0  0
   -3.5180   22.8050  -30.2140 C   0  0  0  0  0  0  0  0  0  0  0  0
   -3.9440   21.6710  -30.6760 N   0  0  0  0  0  0  0  0  0  0  0  0
   -4.7660   21.5390  -32.1960 S   0  0  0  0  0  0  0  0  0  0  0  0
   -4.5860   22.8300  -32.9440 O   0  0  0  0  0  0  0  0  0  0  0  0
   -4.1500   20.4210  -32.9860 O   0  0  0  0  0  0  0  0  0  0  0  0
   -6.4850   21.1890  -31.9390 C   0  0  0  0  0  0  0  0  0  0  0  0
   -7.2550   22.1080  -31.2070 C   0  0  0  0  0  0  0  0  0  0  0  0
   -8.6240   21.9020  -31.0230 C   0  0  0  0  0  0  0  0  0  0  0  0
   -9.2400   20.7740  -31.5640 C   0  0  0  0  0  0  0  0  0  0  0  0
   -8.4870   19.8420  -32.2790 C   0  0  0  0  0  0  0  0  0  0  0  0
   -7.1070   20.0290  -32.4630 C   0  0  0  0  0  0  0  0  0  0  0  0
   -6.3510   18.9910  -33.1910 C   0  0  0  0  0  0  0  0  0  0  0  0
   -6.1010   19.1360  -34.5610 C   0  0  0  0  0  0  0  0  0  0  0  0
   -5.3840   18.1560  -35.2520 C   0  0  0  0  0  0  0  0  0  0  0  0
   -4.9240   17.0120  -34.5850 C   0  0  0  0  0  0  0  0  0  0  0  0
   -4.2160   16.0330  -35.2830 O   0  0  0  0  0  0  0  0  0  0  0  0
   -5.1940   16.8480  -33.2140 C   0  0  0  0  0  0  0  0  0  0  0  0
   -4.7230   15.6450  -32.4980 C   0  0  0  0  0  0  0  0  0  0  0  0
   -5.0110   15.5040  -31.2810 O   0  0  0  0  0  0  0  0  0  0  0  0
   -3.9150   14.6500  -33.1390 N   0  0  0  0  0  0  0  0  0  0  0  0
   -2.4690   14.7400  -33.3460 C   0  0  2  0  0  0  0  0  0  0  0  0
   -1.7270   14.1660  -32.1500 C   0  0  0  0  0  0  0  0  0  0  0  0
   -0.5930   15.1380  -31.9080 C   0  0  0  0  0  0  0  0  0  0  0  0
   -1.0880   16.4520  -32.3270 N   0  0  0  0  0  0  0  0  0  0  0  0
   -0.0010   17.3770  -32.6970 C   0  0  0  0  0  0  0  0  0  0  0  0
   -0.5010   18.7970  -32.6860 C   0  0  0  0  0  0  0  0  0  0  0  0
   -0.9310   19.4130  -33.8740 C   0  0  0  0  0  0  0  0  0  0  0  0
   -1.3610   20.7440  -33.8600 C   0  0  0  0  0  0  0  0  0  0  0  0
   -1.3570   21.4700  -32.6650 C   0  0  0  0  0  0  0  0  0  0  0  0
   -0.9200   20.8660  -31.4820 C   0  0  0  0  0  0  0  0  0  0  0  0
   -0.4900   19.5360  -31.4910 C   0  0  0  0  0  0  0  0  0  0  0  0
   -1.9980   16.1970  -33.4510 C   0  0  0  0  0  0  0  0  0  0  0  0
   -5.9020   17.8430  -32.5220 C   0  0  0  0  0  0  0  0  0  0  0  0
   -2.8570   22.9880  -29.0200 C   0  0  0  0  0  0  0  0  0  0  0  0
   -2.5410   21.9710  -27.9710 C   0  0  0  0  0  0  0  0  0  0  0  0
   -2.3261   24.7378  -26.9062 H   0  0  0  0  0  0  0  0  0  0  0  0
   -0.8997   25.0019  -27.9657 H   0  0  0  0  0  0  0  0  0  0  0  0
   -2.2502   26.1864  -27.9657 H   0  0  0  0  0  0  0  0  0  0  0  0
   -6.7751   22.9984  -30.7746 H   0  0  0  0  0  0  0  0  0  0  0  0
   -9.2171   22.6304  -30.4506 H   0  0  0  0  0  0  0  0  0  0  0  0
  -10.3203   20.6188  -31.4270 H   0  0  0  0  0  0  0  0  0  0  0  0
   -8.9781   18.9533  -32.7021 H   0  0  0  0  0  0  0  0  0  0  0  0
   -6.4702   20.0241  -35.0948 H   0  0  0  0  0  0  0  0  0  0  0  0
   -5.1793   18.2828  -36.3253 H   0  0  0  0  0  0  0  0  0  0  0  0
   -4.0210   15.1280  -34.8740 H   0  0  0  0  0  0  0  0  0  0  0  0
   -2.2605   14.1889  -34.2749 H   0  0  0  0  0  0  0  0  0  0  0  0
   -2.3872   14.1119  -31.2718 H   0  0  0  0  0  0  0  0  0  0  0  0
   -1.3694   13.1416  -32.3309 H   0  0  0  0  0  0  0  0  0  0  0  0
   -0.3245   15.1535  -30.8414 H   0  0  0  0  0  0  0  0  0  0  0  0
    0.3090   14.8509  -32.4683 H   0  0  0  0  0  0  0  0  0  0  0  0
    0.8232   17.2763  -31.9755 H   0  0  0  0  0  0  0  0  0  0  0  0
    0.3531   17.1288  -33.7084 H   0  0  0  0  0  0  0  0  0  0  0  0
   -0.9294   18.8469  -34.8172 H   0  0  0  0  0  0  0  0  0  0  0  0
   -1.7029   21.2204  -34.7907 H   0  0  0  0  0  0  0  0  0  0  0  0
   -1.6975   22.5159  -32.6555 H   0  0  0  0  0  0  0  0  0  0  0  0
   -0.9146   21.4385  -30.5427 H   0  0  0  0  0  0  0  0  0  0  0  0
   -0.1418   19.0663  -30.5593 H   0  0  0  0  0  0  0  0  0  0  0  0
   -2.8621   16.8754  -33.3953 H   0  0  0  0  0  0  0  0  0  0  0  0
   -1.4859   16.3692  -34.4092 H   0  0  0  0  0  0  0  0  0  0  0  0
   -6.1060   17.7216  -31.4479 H   0  0  0  0  0  0  0  0  0  0  0  0
   -2.6794   22.4165  -26.9748 H   0  0  0  0  0  0  0  0  0  0  0  0
   -3.2132   21.1075  -28.0831 H   0  0  0  0  0  0  0  0  0  0  0  0
   -1.4978   21.6405  -28.0831 H   0  0  0  0  0  0  0  0  0  0  0  0
  1  2  1  0
  2  3  1  0
  3  4  1  0
  4  5  1  0
  5  6  2  3
  6  7  1  0
  7  8  2  0
  7  9  2  0
  7 10  1  0
 10 11  2  0
 11 12  1  0
 12 13  2  0
 13 14  1  0
 14 15  2  0
 15 16  1  0
 16 17  2  0
 17 18  1  0
 18 19  2  0
 19 20  1  0
 19 21  1  0
 21 22  1  0
 22 23  2  0
 22 24  1  0
 24 25  1  0
 25 26  1  0
 26 27  1  0
 27 28  1  0
 28 29  1  0
 29 30  1  0
 30 31  2  0
 31 32  1  0
 32 33  2  0
 33 34  1  0
 34 35  2  0
 28 36  1  0
 21 37  2  0
  5 38  1  0
 38 39  1  0
 38  2  2  0
 15 10  1  0
 37 16  1  0
 36 25  1  0
 35 30  1  0
  1 40  1  0
  1 41  1  0
  1 42  1  0
 11 43  1  0
 12 44  1  0
 13 45  1  0
 14 46  1  0
 17 47  1  0
 18 48  1  0
 20 49  1  0
 25 50  1  6
 26 51  1  0
 26 52  1  0
 27 53  1  0
 27 54  1  0
 29 55  1  0
 29 56  1  0
 31 57  1  0
 32 58  1  0
 33 59  1  0
 34 60  1  0
 35 61  1  0
 36 62  1  0
 36 63  1  0
 37 64  1  0
 39 65  1  0
 39 66  1  0
 39 67  1  0
M  CHG  2   3  -1  24  -1
M  END
>  <UniqueID>  (9) 
9

>  <SMILES>  (9) 
Cc1[n-]oc(=NS(=O)(=O)c2ccccc2-c2ccc(O)c(C(=O)[N-][C@@H]3CCN(Cc4ccccc4)C3)c2)c1C

>  <Energy>  (9) 
119.1069869943823

>  <Genealogy>  (9) 
Cc1[n-]oc(=NS(=O)(=O)c2ccccc2-c2ccc(O)c(C(=O)[N-]C3CCN(Cc4ccccc4)C3)c2)c1C (protonated)
Cc1[n-]oc(=NS(=O)(=O)c2ccccc2-c2ccc(O)c(C(=O)[N-][C@@H]3CCN(Cc4ccccc4)C3)c2)c1C (chirality)
Cc1[n-]oc(=NS(=O)(=O)c2ccccc2-c2ccc(O)c(C(=O)[N-][C@@H]3CCN(Cc4ccccc4)C3)c2)c1C (3D coordinates assigned)
Cc1[n-]oc(=NS(=O)(=O)c2ccccc2-c2ccc(O)c(C(=O)[N-][C@@H]3CCN(Cc4ccccc4)C3)c2)c1C (nonaromatic ring conformer: 119.1069869943823 kcal/mol)

>  <smiles>  (9) 
Cc1[nH]oc(=NS(=O)(=O)c2ccccc2-c2ccc(O)c(C(=O)NC3CCN(Cc4ccccc4)C3)c2)c1C

>  <score_type>  (9) 
oracle

>  <origin>  (9) 
adgpu

>  <m_score__min__energy>  (9) 
-14.029999999999999

>  <m_primary>  (9) 
energy

$$$$
9:0
     RDKit          3D

 46 49  0  0  0  0  0  0  0  0999 V2000
    0.4521   23.9003  -36.5478 H   0  0  0  0  0  0  0  0  0  0  0  0
    0.8100   23.0810  -35.9070 C   0  0  0  0  0  0  0  0  0  0  0  0
    2.1440   22.8930  -35.7280 N   0  0  0  0  0  0  0  0  0  0  0  0
    2.6220   21.8950  -34.9390 C   0  0  0  0  0  0  0  0  0  0  0  0
    3.7072   21.7706  -34.8089 H   0  0  0  0  0  0  0  0  0  0  0  0
    1.7390   21.0270  -34.2930 C   0  0  0  0  0  0  0  0  0  0  0  0
    2.1256   20.2253  -33.6466 H   0  0  0  0  0  0  0  0  0  0  0  0
    0.3550   21.1830  -34.4730 C   0  0  0  0  0  0  0  0  0  0  0  0
   -0.6120   20.2910  -33.7950 C   0  0  0  0  0  0  0  0  0  0  0  0
   -0.3340   19.0670  -33.6750 O   0  0  0  0  0  0  0  0  0  0  0  0
   -1.8840   20.7860  -33.2340 C   0  0  0  0  0  0  0  0  0  0  0  0
   -3.0670   20.1640  -33.4190 N   0  0  0  0  0  0  0  0  0  0  0  0
   -3.9920   20.8340  -32.7490 N   0  0  0  0  0  0  0  0  0  0  0  0
   -5.3690   20.4220  -32.7120 C   0  0  0  0  0  0  0  0  0  0  0  0
   -6.2910   21.2380  -32.1270 N   0  0  0  0  0  0  0  0  0  0  0  0
   -7.6060   20.9050  -32.0430 C   0  0  0  0  0  0  0  0  0  0  0  0
   -8.3163   21.5929  -31.5611 H   0  0  0  0  0  0  0  0  0  0  0  0
   -8.0590   19.6890  -32.5680 C   0  0  0  0  0  0  0  0  0  0  0  0
   -9.5000   19.2930  -32.4430 C   0  0  0  0  0  0  0  0  0  0  0  0
   -9.7690   19.2191  -31.3790 H   0  0  0  0  0  0  0  0  0  0  0  0
  -10.1320   20.0508  -32.9292 H   0  0  0  0  0  0  0  0  0  0  0  0
   -9.6560   18.3187  -32.9292 H   0  0  0  0  0  0  0  0  0  0  0  0
   -7.1260   18.8130  -33.1390 C   0  0  0  0  0  0  0  0  0  0  0  0
   -7.4549   17.8383  -33.5287 H   0  0  0  0  0  0  0  0  0  0  0  0
   -5.7810   19.1750  -33.2140 C   0  0  0  0  0  0  0  0  0  0  0  0
   -5.0474   18.4893  -33.6630 H   0  0  0  0  0  0  0  0  0  0  0  0
   -3.4010   21.8600  -32.0960 C   0  0  0  0  0  0  0  0  0  0  0  0
   -4.0320   22.6720  -31.2950 N   0  0  0  0  0  0  0  0  0  0  0  0
   -3.4450   23.7160  -30.5020 C   0  0  0  0  0  0  0  0  0  0  0  0
   -3.7220   24.9110  -30.7830 O   0  0  0  0  0  0  0  0  0  0  0  0
   -2.6030   23.4210  -29.3160 C   0  0  0  0  0  0  0  0  0  0  0  0
   -2.6660   22.1530  -28.7080 C   0  0  0  0  0  0  0  0  0  0  0  0
   -3.3474   21.3888  -29.1101 H   0  0  0  0  0  0  0  0  0  0  0  0
   -1.8690   21.8560  -27.5960 C   0  0  0  0  0  0  0  0  0  0  0  0
   -1.9330   20.5520  -26.9900 C   0  0  0  0  0  0  0  0  0  0  0  0
   -1.9850   19.5030  -26.5040 N   0  0  0  0  0  0  0  0  0  0  0  0
   -1.0110   22.8300  -27.0730 C   0  0  0  0  0  0  0  0  0  0  0  0
   -0.3844   22.5987  -26.1990 H   0  0  0  0  0  0  0  0  0  0  0  0
   -0.9500   24.0950  -27.6600 C   0  0  0  0  0  0  0  0  0  0  0  0
   -0.2787   24.8598  -27.2423 H   0  0  0  0  0  0  0  0  0  0  0  0
   -1.7380   24.3960  -28.7770 C   0  0  0  0  0  0  0  0  0  0  0  0
   -1.6400   25.6590  -29.3510 O   0  0  0  0  0  0  0  0  0  0  0  0
   -2.0490   21.8740  -32.3930 C   0  0  0  0  0  0  0  0  0  0  0  0
   -1.2846   22.5833  -32.0430 H   0  0  0  0  0  0  0  0  0  0  0  0
   -0.1070   22.2360  -35.2790 C   0  0  0  0  0  0  0  0  0  0  0  0
   -1.1870   22.3945  -35.4150 H   0  0  0  0  0  0  0  0  0  0  0  0
  1  2  1  0
  2  3  2  0
  3  4  1  0
  4  5  1  0
  4  6  2  0
  6  7  1  0
  6  8  1  0
  8  9  1  0
  9 10  2  0
  9 11  1  0
 11 12  1  0
 12 13  1  0
 13 14  1  0
 14 15  2  0
 15 16  1  0
 16 17  1  0
 16 18  2  0
 18 19  1  0
 19 20  1  0
 19 21  1  0
 19 22  1  0
 18 23  1  0
 23 24  1  0
 23 25  2  0
 25 26  1  0
 13 27  1  0
 27 28  2  0
 28 29  1  0
 29 30  2  0
 29 31  1  0
 31 32  2  0
 32 33  1  0
 32 34  1  0
 34 35  1  0
 35 36  3  0
 34 37  2  0
 37 38  1  0
 37 39  1  0
 39 40  1  0
 39 41  2  0
 41 42  1  0
 27 43  1  0
 43 44  1  0
  8 45  2  0
 45 46  1  0
 45  2  1  0
 43 11  2  0
 25 14  1  0
 41 31  1  0
M  CHG  2  12  -1  42  -1
M  END
>  <UniqueID>  (10) 
10

>  <SMILES>  (10) 
Cc1ccc(-n2[n-]c(C(=O)c3ccncc3)c/c2=N\C(=O)c2cc(C#N)ccc2[O-])nc1

>  <Energy>  (10) 
99.55277106237865

>  <Genealogy>  (10) 
Cc1ccc(-n2[n-]c(C(=O)c3ccncc3)cc2=NC(=O)c2cc(C#N)ccc2[O-])nc1 (protonated)
Cc1ccc(-n2[n-]c(C(=O)c3ccncc3)c/c2=N\C(=O)c2cc(C#N)ccc2[O-])nc1 (cis-trans isomerization)
Cc1ccc(-n2[n-]c(C(=O)c3ccncc3)c/c2=N\C(=O)c2cc(C#N)ccc2[O-])nc1 (3D coordinates assigned)
Cc1ccc(-n2[n-]c(C(=O)c3ccncc3)c/c2=N\C(=O)c2cc(C#N)ccc2[O-])nc1 (optimized conformer: 99.55277106237865 kcal/mol)

>  <smiles>  (10) 
Cc1ccc(-n2[nH]c(C(=O)c3ccncc3)cc2=NC(=O)c2cc(C#N)ccc2O)nc1

>  <score_type>  (10) 
oracle

>  <origin>  (10) 
adgpu

>  <m_score__min__energy>  (10) 
-13

>  <m_primary>  (10) 
energy

$$$$
10:0
     RDKit          3D

 24 25  0  0  0  0  0  0  0  0999 V2000
   -7.7770   23.2170  -32.3510 C   0  0  0  0  0  0  0  0  0  0  0  0
   -6.4580   22.8530  -31.7340 C   0  0  0  0  0  0  0  0  0  0  0  0
   -5.6870   23.8460  -31.3000 O   0  0  0  0  0  0  0  0  0  0  0  0
   -4.4980   23.6550  -30.7380 C   0  0  0  0  0  0  0  0  0  0  0  0
   -3.7480   24.7580  -30.3070 C   0  0  0  0  0  0  0  0  0  0  0  0
   -4.2480   26.0460  -30.4690 O   0  0  0  0  0  0  0  0  0  0  0  0
   -2.4960   24.5640  -29.7120 C   0  0  0  0  0  0  0  0  0  0  0  0
   -1.7500   25.6570  -29.2830 O   0  0  0  0  0  0  0  0  0  0  0  0
   -1.9910   23.2720  -29.5470 C   0  0  0  0  0  0  0  0  0  0  0  0
   -2.7310   22.1660  -29.9740 C   0  0  0  0  0  0  0  0  0  0  0  0
   -3.9910   22.3490  -30.5740 C   0  0  0  0  0  0  0  0  0  0  0  0
   -4.7700   21.2690  -31.0190 C   0  0  0  0  0  0  0  0  0  0  0  0
   -4.3530   20.0860  -30.8800 O   0  0  0  0  0  0  0  0  0  0  0  0
   -6.0220   21.5110  -31.6190 C   0  0  0  0  0  0  0  0  0  0  0  0
   -6.8750   20.3450  -32.0730 C   0  0  0  0  0  0  0  0  0  0  0  0
   -6.1140   19.5260  -33.5090 S   0  0  0  0  0  0  0  0  0  0  0  0
   -8.5102   23.4193  -31.5563 H   0  0  0  0  0  0  0  0  0  0  0  0
   -7.6548   24.1150  -32.9744 H   0  0  0  0  0  0  0  0  0  0  0  0
   -8.1327   22.3834  -32.9744 H   0  0  0  0  0  0  0  0  0  0  0  0
   -1.0065   23.1245  -29.0789 H   0  0  0  0  0  0  0  0  0  0  0  0
   -2.3282   21.1511  -29.8410 H   0  0  0  0  0  0  0  0  0  0  0  0
   -6.9679   19.6213  -31.2498 H   0  0  0  0  0  0  0  0  0  0  0  0
   -7.8687   20.7194  -32.3601 H   0  0  0  0  0  0  0  0  0  0  0  0
   -4.8520   19.4230  -32.8950 H   0  0  0  0  0  0  0  0  0  0  0  0
  1  2  1  0
  2  3  1  0
  3  4  1  0
  4  5  2  0
  5  6  1  0
  5  7  1  0
  7  8  1  0
  7  9  2  0
  9 10  1  0
 10 11  2  0
 11 12  1  0
 12 13  2  0
 12 14  1  0
 14 15  1  0
 15 16  1  0
 14  2  2  0
 11  4  1  0
  1 17  1  0
  1 18  1  0
  1 19  1  0
  9 20  1  0
 10 21  1  0
 15 22  1  0
 15 23  1  0
 16 24  1  0
M  CHG  2   6  -1   8  -1
M  END
>  <UniqueID>  (11) 
11

>  <SMILES>  (11) 
Cc1oc2c([O-])c([O-])ccc2c(=O)c1CS

>  <Energy>  (11) 
29.84588263772587

>  <Genealogy>  (11) 
Cc1oc2c([O-])c([O-])ccc2c(=O)c1CS (protonated)
Cc1oc2c([O-])c([O-])ccc2c(=O)c1CS (3D coordinates assigned)
Cc1oc2c([O-])c([O-])ccc2c(=O)c1CS (optimized conformer: 29.84588263772587 kcal/mol)

>  <smiles>  (11) 
Cc1oc2c(O)c(O)ccc2c(=O)c1CS

>  <score_type>  (11) 
oracle

>  <origin>  (11) 
adgpu

>  <m_score__min__energy>  (11) 
-11.470000000000001

>  <m_primary>  (11) 
energy

$$$$
11:0
     RDKit          3D

 48 51  0  0  0  0  0  0  0  0999 V2000
    0.3660   19.2490  -32.8150 N   0  0  0  0  0  0  0  0  0  0  0  0
    0.1420   20.6510  -32.9870 C   0  0  0  0  0  0  0  0  0  0  0  0
    1.0090   21.3350  -33.5960 O   0  0  0  0  0  0  0  0  0  0  0  0
   -1.0880   21.3080  -32.4810 C   0  0  0  0  0  0  0  0  0  0  0  0
   -2.2440   21.3420  -33.2820 C   0  0  0  0  0  0  0  0  0  0  0  0
   -3.4100   21.9590  -32.8220 C   0  0  0  0  0  0  0  0  0  0  0  0
   -3.4430   22.5650  -31.5560 C   0  0  0  0  0  0  0  0  0  0  0  0
   -4.6820   23.2110  -31.0580 C   0  0  0  0  0  0  0  0  0  0  0  0
   -5.8910   22.4940  -31.0680 C   0  0  0  0  0  0  0  0  0  0  0  0
   -7.0770   23.0830  -30.6000 C   0  0  0  0  0  0  0  0  0  0  0  0
   -8.3630   22.2980  -30.6050 C   0  0  0  0  0  0  0  0  0  0  0  0
   -8.6950   21.8240  -31.9510 N   0  0  0  0  0  0  0  0  0  0  0  0
   -8.7430   20.0850  -32.0240 S   0  0  0  0  0  0  0  0  0  0  0  0
   -9.0780   19.5480  -30.6610 O   0  0  0  0  0  0  0  0  0  0  0  0
   -9.8220   19.6550  -32.9800 O   0  0  0  0  0  0  0  0  0  0  0  0
   -7.1880   19.4240  -32.5240 C   0  0  0  0  0  0  0  0  0  0  0  0
   -6.4510   20.0240  -33.5550 C   0  0  0  0  0  0  0  0  0  0  0  0
   -5.2080   19.5040  -33.9250 C   0  0  0  0  0  0  0  0  0  0  0  0
   -4.6840   18.3760  -33.2710 C   0  0  0  0  0  0  0  0  0  0  0  0
   -3.3670   17.8280  -33.6600 C   0  0  0  0  0  0  0  0  0  0  0  0
   -3.0800   17.3620  -34.8920 N   0  0  0  0  0  0  0  0  0  0  0  0
   -1.7950   16.9820  -34.7580 C   0  0  0  0  0  0  0  0  0  0  0  0
   -1.3260   17.2010  -33.5170 N   0  0  0  0  0  0  0  0  0  0  0  0
   -2.3150   17.7350  -32.8240 N   0  0  0  0  0  0  0  0  0  0  0  0
   -5.4270   17.7790  -32.2390 C   0  0  0  0  0  0  0  0  0  0  0  0
   -6.6700   18.3010  -31.8690 C   0  0  0  0  0  0  0  0  0  0  0  0
   -7.0510   24.4030  -30.1280 C   0  0  0  0  0  0  0  0  0  0  0  0
   -5.8540   25.1190  -30.1070 C   0  0  0  0  0  0  0  0  0  0  0  0
   -4.6700   24.5310  -30.5620 C   0  0  0  0  0  0  0  0  0  0  0  0
   -3.4860   25.2590  -30.4970 O   0  0  0  0  0  0  0  0  0  0  0  0
   -2.2900   22.5370  -30.7570 C   0  0  0  0  0  0  0  0  0  0  0  0
   -1.1220   21.9200  -31.2160 C   0  0  0  0  0  0  0  0  0  0  0  0
    1.2680   18.8240  -33.1270 H   0  0  0  0  0  0  0  0  0  0  0  0
   -0.3810   18.6110  -32.4640 H   0  0  0  0  0  0  0  0  0  0  0  0
   -2.2297   20.8786  -34.2795 H   0  0  0  0  0  0  0  0  0  0  0  0
   -4.3086   21.9701  -33.4563 H   0  0  0  0  0  0  0  0  0  0  0  0
   -5.9084   21.4612  -31.4462 H   0  0  0  0  0  0  0  0  0  0  0  0
   -8.2556   21.4310  -29.9366 H   0  0  0  0  0  0  0  0  0  0  0  0
   -9.1728   22.9582  -30.2610 H   0  0  0  0  0  0  0  0  0  0  0  0
   -6.8526   20.9067  -34.0741 H   0  0  0  0  0  0  0  0  0  0  0  0
   -4.6355   19.9811  -34.7341 H   0  0  0  0  0  0  0  0  0  0  0  0
   -1.1976   16.5428  -35.5706 H   0  0  0  0  0  0  0  0  0  0  0  0
   -5.0284   16.8955  -31.7189 H   0  0  0  0  0  0  0  0  0  0  0  0
   -7.2437   17.8267  -31.0591 H   0  0  0  0  0  0  0  0  0  0  0  0
   -7.9784   24.8760  -29.7728 H   0  0  0  0  0  0  0  0  0  0  0  0
   -5.8416   26.1524  -29.7302 H   0  0  0  0  0  0  0  0  0  0  0  0
   -2.3049   23.0043  -29.7613 H   0  0  0  0  0  0  0  0  0  0  0  0
   -0.2229   21.9135  -30.5823 H   0  0  0  0  0  0  0  0  0  0  0  0
  1  2  1  0
  2  3  2  0
  2  4  1  0
  4  5  2  0
  5  6  1  0
  6  7  2  0
  7  8  1  0
  8  9  2  0
  9 10  1  0
 10 11  1  0
 11 12  1  0
 12 13  1  0
 13 14  2  0
 13 15  2  0
 13 16  1  0
 16 17  2  0
 17 18  1  0
 18 19  2  0
 19 20  1  0
 20 21  1  0
 21 22  2  0
 22 23  1  0
 23 24  1  0
 19 25  1  0
 25 26  2  0
 10 27  2  0
 27 28  1  0
 28 29  2  0
 29 30  1  0
  7 31  1  0
 31 32  2  0
 32  4  1  0
 29  8  1  0
 26 16  1  0
 24 20  2  0
  1 33  1  0
  1 34  1  0
  5 35  1  0
  6 36  1  0
  9 37  1  0
 11 38  1  0
 11 39  1  0
 17 40  1  0
 18 41  1  0
 22 42  1  0
 25 43  1  0
 26 44  1  0
 27 45  1  0
 28 46  1  0
 31 47  1  0
 32 48  1  0
M  CHG  3  12  -1  23  -1  30  -1
M  END
>  <UniqueID>  (12) 
12

>  <SMILES>  (12) 
NC(=O)c1ccc(-c2cc(C[N-]S(=O)(=O)c3ccc(-c4nc[n-]n4)cc3)ccc2[O-])cc1

>  <Energy>  (12) 
91.19436036743396

>  <Genealogy>  (12) 
NC(=O)c1ccc(-c2cc(C[N-]S(=O)(=O)c3ccc(-c4nc[n-]n4)cc3)ccc2[O-])cc1 (protonated)
NC(=O)c1ccc(-c2cc(C[N-]S(=O)(=O)c3ccc(-c4nc[n-]n4)cc3)ccc2[O-])cc1 (3D coordinates assigned)
NC(=O)c1ccc(-c2cc(C[N-]S(=O)(=O)c3ccc(-c4nc[n-]n4)cc3)ccc2[O-])cc1 (optimized conformer: 91.19436036743396 kcal/mol)

>  <smiles>  (12) 
NC(=O)c1ccc(-c2cc(CNS(=O)(=O)c3ccc(-c4nc[nH]n4)cc3)ccc2O)cc1

>  <score_type>  (12) 
oracle

>  <origin>  (12) 
adgpu

>  <m_score__min__energy>  (12) 
-12.800000000000001

>  <m_primary>  (12) 
energy

$$$$
12:0
     RDKit          3D

 59 63  0  0  0  0  0  0  0  0999 V2000
    0.0540   17.0630  -27.1330 C   0  0  0  0  0  0  0  0  0  0  0  0
   -0.2400   18.3550  -27.8360 C   0  0  0  0  0  0  0  0  0  0  0  0
   -0.6510   19.4740  -27.1090 C   0  0  0  0  0  0  0  0  0  0  0  0
   -0.8990   20.6810  -27.7580 C   0  0  0  0  0  0  0  0  0  0  0  0
   -0.7260   20.8090  -29.1480 C   0  0  0  0  0  0  0  0  0  0  0  0
   -1.0760   22.3940  -29.8710 S   0  0  0  0  0  0  0  0  0  0  0  0
   -1.3030   22.2220  -31.3470 O   0  0  0  0  0  0  0  0  0  0  0  0
    0.1010   23.3120  -29.6910 O   0  0  0  0  0  0  0  0  0  0  0  0
   -2.4550   23.1710  -29.1010 C   0  0  0  0  0  0  0  0  0  0  0  0
   -2.4320   23.4240  -27.7230 C   0  0  0  0  0  0  0  0  0  0  0  0
   -3.5110   24.0660  -27.1090 C   0  0  0  0  0  0  0  0  0  0  0  0
   -4.6160   24.4610  -27.8670 C   0  0  0  0  0  0  0  0  0  0  0  0
   -4.6370   24.2330  -29.2500 C   0  0  0  0  0  0  0  0  0  0  0  0
   -6.0240   24.7190  -30.2190 S   0  0  0  0  0  0  0  0  0  0  0  0
   -7.1030   25.2780  -29.3340 O   0  0  0  0  0  0  0  0  0  0  0  0
   -5.6130   25.7900  -31.1910 O   0  0  0  0  0  0  0  0  0  0  0  0
   -6.6280   23.3190  -31.0940 C   0  0  0  0  0  0  0  0  0  0  0  0
   -5.7870   22.6470  -32.0080 C   0  0  0  0  0  0  0  0  0  0  0  0
   -6.2540   21.5000  -32.6640 C   0  0  0  0  0  0  0  0  0  0  0  0
   -7.5100   21.0730  -32.3900 N   0  0  0  0  0  0  0  0  0  0  0  0
   -8.1830   20.0140  -32.8560 C   0  0  0  0  0  0  0  0  0  0  0  0
   -9.4270   20.0220  -32.2460 C   0  0  0  0  0  0  0  0  0  0  0  0
   -9.5290   21.0800  -31.4040 N   0  0  0  0  0  0  0  0  0  0  0  0
   -8.3330   21.6910  -31.5280 C   0  0  0  0  0  0  0  0  0  0  0  0
   -7.9280   22.8370  -30.8490 C   0  0  0  0  0  0  0  0  0  0  0  0
   -3.5550   23.5890  -29.8630 C   0  0  0  0  0  0  0  0  0  0  0  0
   -0.2720   19.6800  -29.8900 C   0  0  0  0  0  0  0  0  0  0  0  0
   -0.0370   19.6660  -31.6530 S   0  0  0  0  0  0  0  0  0  0  0  0
    0.4990   20.9770  -32.1490 O   0  0  0  0  0  0  0  0  0  0  0  0
    0.9560   18.5950  -32.0090 O   0  0  0  0  0  0  0  0  0  0  0  0
   -1.5590   19.2940  -32.4420 C   0  0  0  0  0  0  0  0  0  0  0  0
   -1.5820   18.5310  -33.6140 C   0  0  0  0  0  0  0  0  0  0  0  0
   -2.8050   18.2420  -34.2180 C   0  0  0  0  0  0  0  0  0  0  0  0
   -4.0020   18.6940  -33.6420 C   0  0  0  0  0  0  0  0  0  0  0  0
   -5.3240   18.4510  -34.3240 C   0  0  0  0  0  0  0  0  0  0  0  0
   -5.9610   19.6490  -34.5970 F   0  0  0  0  0  0  0  0  0  0  0  0
   -6.1560   17.6920  -33.5180 F   0  0  0  0  0  0  0  0  0  0  0  0
   -5.1060   17.7750  -35.5100 F   0  0  0  0  0  0  0  0  0  0  0  0
   -3.9300   19.4620  -32.4680 C   0  0  0  0  0  0  0  0  0  0  0  0
   -2.7260   19.7330  -31.8990 N   0  0  0  0  0  0  0  0  0  0  0  0
   -0.0400   18.4690  -29.2160 C   0  0  0  0  0  0  0  0  0  0  0  0
    0.0180   17.2211  -26.0450 H   0  0  0  0  0  0  0  0  0  0  0  0
   -0.6960   16.3109  -27.4192 H   0  0  0  0  0  0  0  0  0  0  0  0
    1.0555   16.7095  -27.4192 H   0  0  0  0  0  0  0  0  0  0  0  0
   -0.7795   19.4019  -26.0189 H   0  0  0  0  0  0  0  0  0  0  0  0
   -1.2361   21.5496  -27.1732 H   0  0  0  0  0  0  0  0  0  0  0  0
   -1.5627   23.1166  -27.1231 H   0  0  0  0  0  0  0  0  0  0  0  0
   -3.4901   24.2607  -26.0266 H   0  0  0  0  0  0  0  0  0  0  0  0
   -5.4706   24.9515  -27.3781 H   0  0  0  0  0  0  0  0  0  0  0  0
   -4.7715   23.0216  -32.2039 H   0  0  0  0  0  0  0  0  0  0  0  0
   -5.6180   20.9612  -33.3818 H   0  0  0  0  0  0  0  0  0  0  0  0
   -7.8174   19.2765  -33.5856 H   0  0  0  0  0  0  0  0  0  0  0  0
  -10.2179   19.2774  -32.4197 H   0  0  0  0  0  0  0  0  0  0  0  0
   -8.6009   23.3485  -30.1450 H   0  0  0  0  0  0  0  0  0  0  0  0
   -3.5683   23.4102  -30.9483 H   0  0  0  0  0  0  0  0  0  0  0  0
   -0.6441   18.1624  -34.0550 H   0  0  0  0  0  0  0  0  0  0  0  0
   -2.8316   17.6575  -35.1495 H   0  0  0  0  0  0  0  0  0  0  0  0
   -4.8522   19.8457  -32.0072 H   0  0  0  0  0  0  0  0  0  0  0  0
    0.3057   17.5932  -29.7847 H   0  0  0  0  0  0  0  0  0  0  0  0
  1  2  1  0
  2  3  2  0
  3  4  1  0
  4  5  2  0
  5  6  1  0
  6  7  2  0
  6  8  2  0
  6  9  1  0
  9 10  2  0
 10 11  1  0
 11 12  2  0
 12 13  1  0
 13 14  1  0
 14 15  2  0
 14 16  2  0
 14 17  1  0
 17 18  1  0
 18 19  2  0
 19 20  1  0
 20 21  1  0
 21 22  2  0
 22 23  1  0
 23 24  2  0
 24 25  1  0
 13 26  2  0
  5 27  1  0
 27 28  1  0
 28 29  2  0
 28 30  2  0
 28 31  1  0
 31 32  2  0
 32 33  1  0
 33 34  2  0
 34 35  1  0
 35 36  1  0
 35 37  1  0
 35 38  1  0
 34 39  1  0
 39 40  2  0
 27 41  2  0
 41  2  1  0
 26  9  1  0
 40 31  1  0
 25 17  2  0
 24 20  1  0
  1 42  1  0
  1 43  1  0
  1 44  1  0
  3 45  1  0
  4 46  1  0
 10 47  1  0
 11 48  1  0
 12 49  1  0
 18 50  1  0
 19 51  1  0
 21 52  1  0
 22 53  1  0
 25 54  1  0
 26 55  1  0
 32 56  1  0
 33 57  1  0
 39 58  1  0
 41 59  1  0
M  END
>  <UniqueID>  (13) 
13

>  <SMILES>  (13) 
Cc1ccc(S(=O)(=O)c2cccc(S(=O)(=O)c3ccn4ccnc4c3)c2)c(S(=O)(=O)c2ccc(C(F)(F)F)cn2)c1

>  <Energy>  (13) 
102.05677730650018

>  <Genealogy>  (13) 
Cc1ccc(S(=O)(=O)c2cccc(S(=O)(=O)c3ccn4ccnc4c3)c2)c(S(=O)(=O)c2ccc(C(F)(F)F)cn2)c1 (3D coordinates assigned)
Cc1ccc(S(=O)(=O)c2cccc(S(=O)(=O)c3ccn4ccnc4c3)c2)c(S(=O)(=O)c2ccc(C(F)(F)F)cn2)c1 (optimized conformer: 102.05677730650018 kcal/mol)

>  <smiles>  (13) 
Cc1ccc(S(=O)(=O)c2cccc(S(=O)(=O)c3ccn4ccnc4c3)c2)c(S(=O)(=O)c2ccc(C(F)(F)F)cn2)c1

>  <score_type>  (13) 
oracle

>  <origin>  (13) 
adgpu

>  <m_score__min__energy>  (13) 
-11.18

>  <m_primary>  (13) 
energy

$$$$
13:0
     RDKit          3D

 47 51  0  0  0  0  0  0  0  0999 V2000
   -6.9950   14.3500  -34.3390 C   0  0  0  0  0  0  0  0  0  0  0  0
   -6.6110   15.7840  -34.2110 C   0  0  0  0  0  0  0  0  0  0  0  0
   -7.1410   16.6270  -33.3040 N   0  0  0  0  0  0  0  0  0  0  0  0
   -6.4630   17.7650  -33.5710 C   0  0  0  0  0  0  0  0  0  0  0  0
   -6.6670   19.0330  -32.8410 C   0  0  0  0  0  0  0  0  0  0  0  0
   -7.9510   19.3760  -32.3480 C   0  0  0  0  0  0  0  0  0  0  0  0
   -8.1590   20.5840  -31.6620 C   0  0  0  0  0  0  0  0  0  0  0  0
   -7.0790   21.4430  -31.4680 C   0  0  0  0  0  0  0  0  0  0  0  0
   -7.1160   22.6840  -30.8240 C   0  0  0  0  0  0  0  0  0  0  0  0
   -5.8680   23.3010  -30.8060 C   0  0  0  0  0  0  0  0  0  0  0  0
   -5.5470   24.9110  -30.1910 S   0  0  0  0  0  0  0  0  0  0  0  0
   -6.8470   25.6210  -29.9400 O   0  0  0  0  0  0  0  0  0  0  0  0
   -4.7700   25.6760  -31.2250 O   0  0  0  0  0  0  0  0  0  0  0  0
   -4.6340   24.8480  -28.7180 N   0  0  0  0  0  0  0  0  0  0  0  0
   -3.5370   23.9400  -28.5720 C   0  0  0  0  0  0  0  0  0  0  0  0
   -3.7580   22.6270  -28.1330 C   0  0  0  0  0  0  0  0  0  0  0  0
   -2.6850   21.7450  -27.9470 C   0  0  0  0  0  0  0  0  0  0  0  0
   -1.3780   22.1600  -28.2710 C   0  0  0  0  0  0  0  0  0  0  0  0
   -1.1610   23.4670  -28.7320 C   0  0  0  0  0  0  0  0  0  0  0  0
   -2.2330   24.3520  -28.8870 C   0  0  0  0  0  0  0  0  0  0  0  0
   -1.9950   25.6460  -29.3380 O   0  0  0  0  0  0  0  0  0  0  0  0
   -0.1950   21.2480  -28.0330 C   0  0  0  0  0  0  0  0  0  0  0  0
   -0.5850   19.8320  -27.9590 N   0  0  0  0  0  0  0  0  0  0  0  0
   -1.6820   19.6420  -27.0020 C   0  0  0  0  0  0  0  0  0  0  0  0
   -2.9590   20.3370  -27.4890 C   0  0  0  0  0  0  0  0  0  0  0  0
   -4.7280   22.3260  -31.5860 S   0  0  0  0  0  0  0  0  0  0  0  0
   -5.8220   21.1050  -31.9470 C   0  0  0  0  0  0  0  0  0  0  0  0
   -5.5880   19.9170  -32.6350 C   0  0  0  0  0  0  0  0  0  0  0  0
   -5.5750   17.6090  -34.5740 N   0  0  0  0  0  0  0  0  0  0  0  0
   -5.6960   16.3700  -34.9400 O   0  0  0  0  0  0  0  0  0  0  0  0
   -7.1125   13.9111  -33.3372 H   0  0  0  0  0  0  0  0  0  0  0  0
   -7.9455   14.2725  -34.8871 H   0  0  0  0  0  0  0  0  0  0  0  0
   -6.2104   13.8078  -34.8871 H   0  0  0  0  0  0  0  0  0  0  0  0
   -8.7948   18.6878  -32.5045 H   0  0  0  0  0  0  0  0  0  0  0  0
   -9.1579   20.8476  -31.2842 H   0  0  0  0  0  0  0  0  0  0  0  0
   -8.0242   23.1211  -30.3835 H   0  0  0  0  0  0  0  0  0  0  0  0
   -5.1100   25.1980  -27.8550 H   0  0  0  0  0  0  0  0  0  0  0  0
   -4.7843   22.2856  -27.9325 H   0  0  0  0  0  0  0  0  0  0  0  0
   -0.1402   23.7983  -28.9734 H   0  0  0  0  0  0  0  0  0  0  0  0
    0.5205   21.3747  -28.8588 H   0  0  0  0  0  0  0  0  0  0  0  0
    0.2521   21.5238  -27.0665 H   0  0  0  0  0  0  0  0  0  0  0  0
   -0.9000   19.5170  -28.9080 H   0  0  0  0  0  0  0  0  0  0  0  0
   -1.8786   18.5657  -26.8885 H   0  0  0  0  0  0  0  0  0  0  0  0
   -1.3878   20.0825  -26.0379 H   0  0  0  0  0  0  0  0  0  0  0  0
   -3.3789   19.7640  -28.3289 H   0  0  0  0  0  0  0  0  0  0  0  0
   -3.6680   20.3808  -26.6491 H   0  0  0  0  0  0  0  0  0  0  0  0
   -4.5829   19.6735  -33.0097 H   0  0  0  0  0  0  0  0  0  0  0  0
  1  2  1  0
  2  3  2  0
  3  4  1  0
  4  5  1  0
  5  6  2  0
  6  7  1  0
  7  8  2  0
  8  9  1  0
  9 10  2  0
 10 11  1  0
 11 12  2  0
 11 13  2  0
 11 14  1  0
 14 15  1  0
 15 16  2  0
 16 17  1  0
 17 18  2  0
 18 19  1  0
 19 20  2  0
 20 21  1  0
 18 22  1  0
 22 23  1  0
 23 24  1  0
 24 25  1  0
 10 26  1  0
 26 27  1  0
 27 28  2  0
  4 29  2  0
 29 30  1  0
 30  2  1  0
 28  5  1  0
 27  8  1  0
 20 15  1  0
 25 17  1  0
  1 31  1  0
  1 32  1  0
  1 33  1  0
  6 34  1  0
  7 35  1  0
  9 36  1  0
 14 37  1  0
 16 38  1  0
 19 39  1  0
 22 40  1  0
 22 41  1  0
 23 42  1  0
 24 43  1  0
 24 44  1  0
 25 45  1  0
 25 46  1  0
 28 47  1  0
M  CHG  1  21  -1
M  END
>  <UniqueID>  (14) 
14

>  <SMILES>  (14) 
Cc1nc(-c2ccc3cc(S(=O)(=O)Nc4cc5c(cc4[O-])CNCC5)sc3c2)no1

>  <Energy>  (14) 
123.0316526718448

>  <Genealogy>  (14) 
Cc1nc(-c2ccc3cc(S(=O)(=O)Nc4cc5c(cc4[O-])CNCC5)sc3c2)no1 (protonated)
Cc1nc(-c2ccc3cc(S(=O)(=O)Nc4cc5c(cc4[O-])CNCC5)sc3c2)no1 (3D coordinates assigned)
Cc1nc(-c2ccc3cc(S(=O)(=O)Nc4cc5c(cc4[O-])CNCC5)sc3c2)no1 (nonaromatic ring conformer: 123.0316526718448 kcal/mol)

>  <smiles>  (14) 
Cc1nc(-c2ccc3cc(S(=O)(=O)Nc4cc5c(cc4O)CNCC5)sc3c2)no1

>  <score_type>  (14) 
oracle

>  <origin>  (14) 
adgpu

>  <m_score__min__energy>  (14) 
-14.31

>  <m_primary>  (14) 
energy

$$$$
14:0
     RDKit          3D

 53 56  0  0  0  0  0  0  0  0999 V2000
   -5.8730   25.7800  -30.7930 O   0  0  0  0  0  0  0  0  0  0  0  0
   -4.9670   24.9080  -30.8430 C   0  0  0  0  0  0  0  0  0  0  0  0
   -3.6520   25.2590  -30.3900 N   0  0  0  0  0  0  0  0  0  0  0  0
   -2.8800   24.5450  -29.4170 C   0  0  0  0  0  0  0  0  0  0  0  0
   -3.2980   23.4370  -28.7130 C   0  0  0  0  0  0  0  0  0  0  0  0
   -2.3120   23.0620  -27.8730 N   0  0  0  0  0  0  0  0  0  0  0  0
   -1.3070   23.9150  -28.0230 N   0  0  0  0  0  0  0  0  0  0  0  0
   -0.0220   23.7890  -27.3440 C   0  0  0  0  0  0  0  0  0  0  0  0
   -0.1910   23.9120  -25.8270 C   0  0  0  0  0  0  0  0  0  0  0  0
    0.4540   25.1570  -25.3430 N   0  0  0  0  0  0  0  0  0  0  0  0
   -0.3270   25.8180  -24.2800 C   0  0  0  0  0  0  0  0  0  0  0  0
   -1.6170   26.4640  -24.8440 C   0  0  0  0  0  0  0  0  0  0  0  0
   -1.5840   26.6370  -26.2500 O   0  0  0  0  0  0  0  0  0  0  0  0
   -0.3320   27.1590  -26.6430 C   0  0  0  0  0  0  0  0  0  0  0  0
    0.7750   26.1070  -26.4360 C   0  0  0  0  0  0  0  0  0  0  0  0
   -1.6170   24.8410  -28.9510 C   0  0  0  0  0  0  0  0  0  0  0  0
   -5.2970   23.5510  -31.3340 C   0  0  0  0  0  0  0  0  0  0  0  0
   -6.6280   23.1060  -31.3360 C   0  0  0  0  0  0  0  0  0  0  0  0
   -6.9350   21.8700  -31.8130 N   0  0  0  0  0  0  0  0  0  0  0  0
   -5.9840   21.0220  -32.2860 C   0  0  0  0  0  0  0  0  0  0  0  0
   -6.3800   19.7430  -32.7930 N   0  0  0  0  0  0  0  0  0  0  0  0
   -6.1300   19.4110  -34.1940 C   0  0  0  0  0  0  0  0  0  0  0  0
   -6.0260   17.8920  -34.3520 C   0  0  0  0  0  0  0  0  0  0  0  0
   -7.1440   17.2480  -33.7680 O   0  0  0  0  0  0  0  0  0  0  0  0
   -7.1410   17.4560  -32.3680 C   0  0  0  0  0  0  0  0  0  0  0  0
   -7.3420   18.9390  -32.0380 C   0  0  0  0  0  0  0  0  0  0  0  0
   -4.6350   21.4130  -32.2760 C   0  0  0  0  0  0  0  0  0  0  0  0
   -3.3670   20.3500  -32.8640 Cl  0  0  0  0  0  0  0  0  0  0  0  0
   -4.2970   22.6790  -31.7890 C   0  0  0  0  0  0  0  0  0  0  0  0
   -4.2740   22.9407  -28.8186 H   0  0  0  0  0  0  0  0  0  0  0  0
    0.4149   22.8073  -27.5792 H   0  0  0  0  0  0  0  0  0  0  0  0
    0.6392   24.5969  -27.6905 H   0  0  0  0  0  0  0  0  0  0  0  0
   -1.2628   23.9378  -25.5810 H   0  0  0  0  0  0  0  0  0  0  0  0
    0.2833   23.0472  -25.3400 H   0  0  0  0  0  0  0  0  0  0  0  0
   -0.6032   25.0706  -23.5216 H   0  0  0  0  0  0  0  0  0  0  0  0
    0.2929   26.6121  -23.8383 H   0  0  0  0  0  0  0  0  0  0  0  0
   -2.4711   25.8187  -24.5908 H   0  0  0  0  0  0  0  0  0  0  0  0
   -1.7073   27.4632  -24.3930 H   0  0  0  0  0  0  0  0  0  0  0  0
   -0.3729   27.4383  -27.7062 H   0  0  0  0  0  0  0  0  0  0  0  0
   -0.1045   28.0432  -26.0295 H   0  0  0  0  0  0  0  0  0  0  0  0
    0.9034   25.5406  -27.3702 H   0  0  0  0  0  0  0  0  0  0  0  0
    1.6965   26.6396  -26.1581 H   0  0  0  0  0  0  0  0  0  0  0  0
   -0.9808   25.6774  -29.2762 H   0  0  0  0  0  0  0  0  0  0  0  0
   -7.4251   23.7588  -30.9507 H   0  0  0  0  0  0  0  0  0  0  0  0
   -6.9580   19.7874  -34.8126 H   0  0  0  0  0  0  0  0  0  0  0  0
   -5.1873   19.8769  -34.5168 H   0  0  0  0  0  0  0  0  0  0  0  0
   -5.9848   17.6427  -35.4226 H   0  0  0  0  0  0  0  0  0  0  0  0
   -5.1142   17.5461  -33.8430 H   0  0  0  0  0  0  0  0  0  0  0  0
   -7.9556   16.8720  -31.9149 H   0  0  0  0  0  0  0  0  0  0  0  0
   -6.1693   17.1337  -31.9656 H   0  0  0  0  0  0  0  0  0  0  0  0
   -8.3645   19.2397  -32.3104 H   0  0  0  0  0  0  0  0  0  0  0  0
   -7.1868   19.0986  -30.9608 H   0  0  0  0  0  0  0  0  0  0  0  0
   -3.2429   22.9925  -31.7625 H   0  0  0  0  0  0  0  0  0  0  0  0
  1  2  2  0
  2  3  1  0
  3  4  1  0
  4  5  1  0
  5  6  2  0
  6  7  1  0
  7  8  1  0
  8  9  1  0
  9 10  1  0
 10 11  1  0
 11 12  1  0
 12 13  1  0
 13 14  1  0
 14 15  1  0
  7 16  1  0
  2 17  1  0
 17 18  2  0
 18 19  1  0
 19 20  2  0
 20 21  1  0
 21 22  1  0
 22 23  1  0
 23 24  1  0
 24 25  1  0
 25 26  1  0
 20 27  1  0
 27 28  1  0
 27 29  2  0
 16  4  2  0
 29 17  1  0
 15 10  1  0
 26 21  1  0
  5 30  1  0
  8 31  1  0
  8 32  1  0
  9 33  1  0
  9 34  1  0
 11 35  1  0
 11 36  1  0
 12 37  1  0
 12 38  1  0
 14 39  1  0
 14 40  1  0
 15 41  1  0
 15 42  1  0
 16 43  1  0
 18 44  1  0
 22 45  1  0
 22 46  1  0
 23 47  1  0
 23 48  1  0
 25 49  1  0
 25 50  1  0
 26 51  1  0
 26 52  1  0
 29 53  1  0
M  CHG  1   3  -1
M  END
>  <UniqueID>  (15) 
15

>  <SMILES>  (15) 
O=C([N-]c1cnn(CCN2CCOCC2)c1)c1cnc(N2CCOCC2)c(Cl)c1

>  <Energy>  (15) 
107.67765727109546

>  <Genealogy>  (15) 
O=C([N-]c1cnn(CCN2CCOCC2)c1)c1cnc(N2CCOCC2)c(Cl)c1 (protonated)
O=C([N-]c1cnn(CCN2CCOCC2)c1)c1cnc(N2CCOCC2)c(Cl)c1 (3D coordinates assigned)
O=C([N-]c1cnn(CCN2CCOCC2)c1)c1cnc(N2CCOCC2)c(Cl)c1 (nonaromatic ring conformer: 107.67765727109546 kcal/mol)

>  <smiles>  (15) 
O=C(Nc1cnn(CCN2CCOCC2)c1)c1cnc(N2CCOCC2)c(Cl)c1

>  <score_type>  (15) 
oracle

>  <origin>  (15) 
adgpu

>  <m_score__min__energy>  (15) 
-10.34

>  <m_primary>  (15) 
energy

$$$$
15:0
     RDKit          3D

 72 77  0  0  0  0  0  0  0  0999 V2000
    1.4880   13.1130  -27.6410 N   0  0  0  0  0  0  0  0  0  0  0  0
    1.4510   14.2380  -27.9110 C   0  0  0  0  0  0  0  0  0  0  0  0
    1.4060   15.6370  -28.2480 C   0  0  0  0  0  0  0  0  0  0  0  0
    1.7810   16.5980  -27.3010 C   0  0  0  0  0  0  0  0  0  0  0  0
    1.7400   17.9570  -27.6290 C   0  0  0  0  0  0  0  0  0  0  0  0
    1.3380   18.3690  -28.9070 C   0  0  0  0  0  0  0  0  0  0  0  0
    1.2850   19.7730  -29.1940 N   0  0  0  0  0  0  0  0  0  0  0  0
    0.6260   20.3890  -30.3080 C   0  0  0  0  0  0  0  0  0  0  0  0
    1.0030   20.1490  -31.4850 O   0  0  0  0  0  0  0  0  0  0  0  0
   -0.4530   21.3570  -30.0570 C   0  0  0  0  0  0  0  0  0  0  0  0
   -0.4320   22.2310  -29.0310 N   0  0  0  0  0  0  0  0  0  0  0  0
   -1.5440   22.9470  -29.0760 N   0  0  0  0  0  0  0  0  0  0  0  0
   -1.8790   23.9370  -28.0870 C   0  0  0  0  0  0  0  0  0  0  0  0
   -3.0960   23.8760  -27.3860 C   0  0  0  0  0  0  0  0  0  0  0  0
   -3.4040   24.8380  -26.4200 C   0  0  0  0  0  0  0  0  0  0  0  0
   -2.5050   25.8750  -26.1540 C   0  0  0  0  0  0  0  0  0  0  0  0
   -1.3030   25.9560  -26.8610 C   0  0  0  0  0  0  0  0  0  0  0  0
   -0.9920   24.9960  -27.8280 C   0  0  0  0  0  0  0  0  0  0  0  0
   -2.2980   22.5460  -30.1260 C   0  0  0  0  0  0  0  0  0  0  0  0
   -3.7120   22.9160  -30.3370 C   0  0  0  0  0  0  0  0  0  0  0  0
   -4.6820   21.9170  -30.5000 C   0  0  0  0  0  0  0  0  0  0  0  0
   -6.0180   22.2620  -30.7220 C   0  0  0  0  0  0  0  0  0  0  0  0
   -6.3950   23.6100  -30.7920 C   0  0  0  0  0  0  0  0  0  0  0  0
   -7.7220   23.9650  -31.0210 O   0  0  0  0  0  0  0  0  0  0  0  0
   -5.4290   24.6080  -30.6360 C   0  0  0  0  0  0  0  0  0  0  0  0
   -4.0910   24.2690  -30.4100 C   0  0  0  0  0  0  0  0  0  0  0  0
   -3.1450   25.2770  -30.2590 O   0  0  0  0  0  0  0  0  0  0  0  0
   -1.6280   21.5230  -30.7810 C   0  0  0  0  0  0  0  0  0  0  0  0
   -2.1710   20.6430  -31.8360 C   0  0  0  0  0  0  0  0  0  0  0  0
   -1.9500   19.2590  -31.7820 C   0  0  0  0  0  0  0  0  0  0  0  0
   -2.4770   18.4210  -32.7680 C   0  0  0  0  0  0  0  0  0  0  0  0
   -3.2420   18.9570  -33.8170 C   0  0  0  0  0  0  0  0  0  0  0  0
   -3.8210   18.0590  -34.8820 C   0  0  0  0  0  0  0  0  0  0  0  0
   -5.2350   17.7340  -34.5950 N   0  0  0  0  0  0  0  0  0  0  0  0
   -6.1030   18.9390  -34.7000 C   0  0  0  0  0  0  0  0  0  0  0  0
   -6.4540   19.5410  -33.3310 C   0  0  0  0  0  0  0  0  0  0  0  0
   -7.1970   18.5230  -32.4500 C   0  0  0  0  0  0  0  0  0  0  0  0
   -6.8010   17.0700  -32.7610 C   0  0  0  0  0  0  0  0  0  0  0  0
   -5.3720   16.9990  -33.3100 C   0  0  0  0  0  0  0  0  0  0  0  0
   -3.4690   20.3410  -33.8650 C   0  0  0  0  0  0  0  0  0  0  0  0
   -2.9310   21.1790  -32.8860 C   0  0  0  0  0  0  0  0  0  0  0  0
    0.9370   17.3990  -29.8460 C   0  0  0  0  0  0  0  0  0  0  0  0
    0.9780   16.0410  -29.5180 C   0  0  0  0  0  0  0  0  0  0  0  0
    2.1079   16.2839  -26.2988 H   0  0  0  0  0  0  0  0  0  0  0  0
    2.0255   18.7084  -26.8781 H   0  0  0  0  0  0  0  0  0  0  0  0
   -3.8099   23.0666  -27.5989 H   0  0  0  0  0  0  0  0  0  0  0  0
   -4.3541   24.7791  -25.8688 H   0  0  0  0  0  0  0  0  0  0  0  0
   -2.7442   26.6272  -25.3879 H   0  0  0  0  0  0  0  0  0  0  0  0
   -0.5999   26.7768  -26.6563 H   0  0  0  0  0  0  0  0  0  0  0  0
   -0.0486   25.0696  -28.3890 H   0  0  0  0  0  0  0  0  0  0  0  0
   -4.3904   20.8574  -30.4530 H   0  0  0  0  0  0  0  0  0  0  0  0
   -6.7755   21.4735  -30.8421 H   0  0  0  0  0  0  0  0  0  0  0  0
   -8.0340   24.9260  -30.9420 H   0  0  0  0  0  0  0  0  0  0  0  0
   -5.7228   25.6666  -30.6913 H   0  0  0  0  0  0  0  0  0  0  0  0
   -1.3587   18.8311  -30.9591 H   0  0  0  0  0  0  0  0  0  0  0  0
   -2.2921   17.3376  -32.7226 H   0  0  0  0  0  0  0  0  0  0  0  0
   -3.7602   18.5698  -35.8543 H   0  0  0  0  0  0  0  0  0  0  0  0
   -3.2444   17.1224  -34.8999 H   0  0  0  0  0  0  0  0  0  0  0  0
   -5.5767   19.7005  -35.2943 H   0  0  0  0  0  0  0  0  0  0  0  0
   -7.0446   18.6284  -35.1764 H   0  0  0  0  0  0  0  0  0  0  0  0
   -5.5262   19.8446  -32.8240 H   0  0  0  0  0  0  0  0  0  0  0  0
   -7.1108   20.4089  -33.4902 H   0  0  0  0  0  0  0  0  0  0  0  0
   -6.9641   18.7335  -31.3958 H   0  0  0  0  0  0  0  0  0  0  0  0
   -8.2724   18.6263  -32.6569 H   0  0  0  0  0  0  0  0  0  0  0  0
   -6.8624   16.4744  -31.8382 H   0  0  0  0  0  0  0  0  0  0  0  0
   -7.4899   16.6726  -33.5209 H   0  0  0  0  0  0  0  0  0  0  0  0
   -4.6854   17.4406  -32.5727 H   0  0  0  0  0  0  0  0  0  0  0  0
   -5.1295   15.9420  -33.4942 H   0  0  0  0  0  0  0  0  0  0  0  0
   -4.0741   20.7681  -34.6783 H   0  0  0  0  0  0  0  0  0  0  0  0
   -3.1040   22.2640  -32.9385 H   0  0  0  0  0  0  0  0  0  0  0  0
    0.5900   17.7115  -30.8419 H   0  0  0  0  0  0  0  0  0  0  0  0
    0.6732   15.2879  -30.2596 H   0  0  0  0  0  0  0  0  0  0  0  0
  1  2  3  0
  2  3  1  0
  3  4  2  0
  4  5  1  0
  5  6  2  0
  6  7  1  0
  7  8  1  0
  8  9  2  0
  8 10  1  0
 10 11  2  0
 11 12  1  0
 12 13  1  0
 13 14  2  0
 14 15  1  0
 15 16  2  0
 16 17  1  0
 17 18  2  0
 12 19  1  0
 19 20  1  0
 20 21  2  0
 21 22  1  0
 22 23  2  0
 23 24  1  0
 23 25  1  0
 25 26  2  0
 26 27  1  0
 19 28  2  0
 28 29  1  0
 29 30  2  0
 30 31  1  0
 31 32  2  0
 32 33  1  0
 33 34  1  0
 34 35  1  0
 35 36  1  0
 36 37  1  0
 37 38  1  0
 38 39  1  0
 32 40  1  0
 40 41  2  0
  6 42  1  0
 42 43  2  0
 43  3  1  0
 28 10  1  0
 41 29  1  0
 18 13  1  0
 26 20  1  0
 39 34  1  0
  4 44  1  0
  5 45  1  0
 14 46  1  0
 15 47  1  0
 16 48  1  0
 17 49  1  0
 18 50  1  0
 21 51  1  0
 22 52  1  0
 24 53  1  0
 25 54  1  0
 30 55  1  0
 31 56  1  0
 33 57  1  0
 33 58  1  0
 35 59  1  0
 35 60  1  0
 36 61  1  0
 36 62  1  0
 37 63  1  0
 37 64  1  0
 38 65  1  0
 38 66  1  0
 39 67  1  0
 39 68  1  0
 40 69  1  0
 41 70  1  0
 42 71  1  0
 43 72  1  0
M  CHG  2   7  -1  27  -1
M  END
>  <UniqueID>  (16) 
16

>  <SMILES>  (16) 
N#Cc1ccc([N-]C(=O)c2nn(-c3ccccc3)c(-c3ccc(O)cc3[O-])c2-c2ccc(CN3CCCCC3)cc2)cc1

>  <Energy>  (16) 
136.7635805255888

>  <Genealogy>  (16) 
N#Cc1ccc([N-]C(=O)c2nn(-c3ccccc3)c(-c3ccc(O)cc3[O-])c2-c2ccc(CN3CCCCC3)cc2)cc1 (protonated)
N#Cc1ccc([N-]C(=O)c2nn(-c3ccccc3)c(-c3ccc(O)cc3[O-])c2-c2ccc(CN3CCCCC3)cc2)cc1 (3D coordinates assigned)
N#Cc1ccc([N-]C(=O)c2nn(-c3ccccc3)c(-c3ccc(O)cc3[O-])c2-c2ccc(CN3CCCCC3)cc2)cc1 (nonaromatic ring conformer: 136.7635805255888 kcal/mol)

>  <smiles>  (16) 
N#Cc1ccc(NC(=O)c2nn(-c3ccccc3)c(-c3ccc(O)cc3O)c2-c2ccc(CN3CCCCC3)cc2)cc1

>  <score_type>  (16) 
oracle

>  <origin>  (16) 
adgpu

>  <m_score__min__energy>  (16) 
-12.74

>  <m_primary>  (16) 
energy

$$$$
16:0
     RDKit          3D

 61 64  0  0  0  0  0  0  0  0999 V2000
   -0.6150   20.4880  -28.9480 C   0  0  0  0  0  0  0  0  0  0  0  0
   -0.8380   20.1040  -30.3810 C   0  0  0  0  0  0  0  0  0  0  0  0
   -0.3650   18.8800  -30.8710 C   0  0  0  0  0  0  0  0  0  0  0  0
   -0.6190   18.5080  -32.1920 C   0  0  0  0  0  0  0  0  0  0  0  0
   -1.3710   19.3380  -33.0450 C   0  0  0  0  0  0  0  0  0  0  0  0
   -1.6690   18.8600  -34.4570 C   0  0  0  0  0  0  0  0  0  0  0  0
   -2.9590   18.1410  -34.5470 N   0  0  0  0  0  0  0  0  0  0  0  0
   -4.0370   18.7350  -33.7230 C   0  0  1  0  0  0  0  0  0  0  0  0
   -5.3600   18.8360  -34.5510 C   0  0  0  0  0  0  0  0  0  0  0  0
   -6.6340   18.9600  -33.6630 C   0  0  1  0  0  0  0  0  0  0  0  0
   -7.2740   17.5870  -33.4330 C   0  0  0  0  0  0  0  0  0  0  0  0
   -6.5780   17.0480  -32.1810 C   0  0  0  0  0  0  0  0  0  0  0  0
   -5.6300   18.1740  -31.7450 C   0  0  1  0  0  0  0  0  0  0  0  0
   -4.2180   17.9800  -32.3630 C   0  0  0  0  0  0  0  0  0  0  0  0
   -6.2270   19.3640  -32.3290 N   0  0  0  0  0  0  0  0  0  0  0  0
   -5.9190   20.7290  -31.9760 C   0  0  0  0  0  0  0  0  0  0  0  0
   -6.6980   21.8000  -32.4400 C   0  0  0  0  0  0  0  0  0  0  0  0
   -6.4150   23.0960  -32.0100 C   0  0  0  0  0  0  0  0  0  0  0  0
   -7.1970   24.1220  -32.4280 F   0  0  0  0  0  0  0  0  0  0  0  0
   -5.3470   23.3260  -31.1270 C   0  0  0  0  0  0  0  0  0  0  0  0
   -5.0360   24.6840  -30.6480 C   0  0  0  0  0  0  0  0  0  0  0  0
   -5.9810   25.4640  -30.3500 O   0  0  0  0  0  0  0  0  0  0  0  0
   -3.6880   25.1510  -30.5160 N   0  0  0  0  0  0  0  0  0  0  0  0
   -2.5570   24.6000  -29.3160 S   0  0  0  0  0  0  0  0  0  0  0  0
   -3.4150   24.0680  -27.8490 C   0  0  0  0  0  0  0  0  0  0  0  0
   -1.5900   25.6980  -28.9680 O   0  0  0  0  0  0  0  0  0  0  0  0
   -1.7860   23.4390  -29.8810 O   0  0  0  0  0  0  0  0  0  0  0  0
   -4.5620   22.2380  -30.7280 C   0  0  0  0  0  0  0  0  0  0  0  0
   -4.8680   20.9840  -31.1440 N   0  0  0  0  0  0  0  0  0  0  0  0
   -1.8460   20.5830  -32.5550 C   0  0  0  0  0  0  0  0  0  0  0  0
   -2.5870   21.5500  -33.4360 C   0  0  0  0  0  0  0  0  0  0  0  0
   -1.5780   20.9470  -31.2220 C   0  0  0  0  0  0  0  0  0  0  0  0
   -1.0580   19.7252  -28.2908 H   0  0  0  0  0  0  0  0  0  0  0  0
    0.4649   20.5591  -28.7512 H   0  0  0  0  0  0  0  0  0  0  0  0
   -1.0884   21.4612  -28.7512 H   0  0  0  0  0  0  0  0  0  0  0  0
    0.2081   18.2103  -30.2130 H   0  0  0  0  0  0  0  0  0  0  0  0
   -0.2263   17.5533  -32.5718 H   0  0  0  0  0  0  0  0  0  0  0  0
   -1.7032   19.7326  -35.1258 H   0  0  0  0  0  0  0  0  0  0  0  0
   -0.8728   18.1597  -34.7498 H   0  0  0  0  0  0  0  0  0  0  0  0
   -3.2650   18.1210  -35.5480 H   0  0  0  0  0  0  0  0  0  0  0  0
   -2.8070   17.1490  -34.2430 H   0  0  0  0  0  0  0  0  0  0  0  0
   -3.7444   19.7599  -33.4510 H   0  0  0  0  0  0  0  0  0  0  0  0
   -5.2991   19.7220  -35.2000 H   0  0  0  0  0  0  0  0  0  0  0  0
   -5.4548   17.9049  -35.1290 H   0  0  0  0  0  0  0  0  0  0  0  0
   -7.3177   19.6609  -34.1643 H   0  0  0  0  0  0  0  0  0  0  0  0
   -8.3566   17.6854  -33.2647 H   0  0  0  0  0  0  0  0  0  0  0  0
   -7.1561   16.9189  -34.2989 H   0  0  0  0  0  0  0  0  0  0  0  0
   -7.3129   16.8325  -31.3914 H   0  0  0  0  0  0  0  0  0  0  0  0
   -6.0433   16.1066  -32.3755 H   0  0  0  0  0  0  0  0  0  0  0  0
   -5.5097   18.2142  -30.6523 H   0  0  0  0  0  0  0  0  0  0  0  0
   -3.4688   18.3561  -31.6508 H   0  0  0  0  0  0  0  0  0  0  0  0
   -4.0909   16.9059  -32.5632 H   0  0  0  0  0  0  0  0  0  0  0  0
   -7.5275   21.6182  -33.1392 H   0  0  0  0  0  0  0  0  0  0  0  0
   -2.8656   24.4087  -26.9590 H   0  0  0  0  0  0  0  0  0  0  0  0
   -4.4280   24.4967  -27.8409 H   0  0  0  0  0  0  0  0  0  0  0  0
   -3.4814   22.9700  -27.8409 H   0  0  0  0  0  0  0  0  0  0  0  0
   -3.6927   22.4009  -30.0739 H   0  0  0  0  0  0  0  0  0  0  0  0
   -3.1374   22.2682  -32.8105 H   0  0  0  0  0  0  0  0  0  0  0  0
   -1.8700   22.0909  -34.0711 H   0  0  0  0  0  0  0  0  0  0  0  0
   -3.2958   20.9984  -34.0711 H   0  0  0  0  0  0  0  0  0  0  0  0
   -1.9541   21.9055  -30.8350 H   0  0  0  0  0  0  0  0  0  0  0  0
  1  2  1  0
  2  3  2  0
  3  4  1  0
  4  5  2  0
  5  6  1  0
  6  7  1  0
  7  8  1  0
  8  9  1  0
  9 10  1  0
 10 11  1  0
 11 12  1  0
 12 13  1  0
 13 14  1  0
 13 15  1  0
 15 16  1  0
 16 17  2  0
 17 18  1  0
 18 19  1  0
 18 20  2  0
 20 21  1  0
 21 22  2  0
 21 23  1  0
 23 24  1  0
 24 25  1  0
 24 26  2  0
 24 27  2  0
 20 28  1  0
 28 29  2  0
  5 30  1  0
 30 31  1  0
 30 32  2  0
 32  2  1  0
 14  8  1  0
 29 16  1  0
 15 10  1  0
  1 33  1  0
  1 34  1  0
  1 35  1  0
  3 36  1  0
  4 37  1  0
  6 38  1  0
  6 39  1  0
  7 40  1  0
  7 41  1  0
  8 42  1  1
  9 43  1  0
  9 44  1  0
 10 45  1  6
 11 46  1  0
 11 47  1  0
 12 48  1  0
 12 49  1  0
 13 50  1  1
 14 51  1  0
 14 52  1  0
 17 53  1  0
 25 54  1  0
 25 55  1  0
 25 56  1  0
 28 57  1  0
 31 58  1  0
 31 59  1  0
 31 60  1  0
 32 61  1  0
M  CHG  2   7   1  23  -1
M  END
>  <UniqueID>  (17) 
17

>  <SMILES>  (17) 
Cc1ccc(C[NH2+]C2C[C@H]3CC[C@@H](C2)N3c2cc(F)c(C(=O)[N-]S(C)(=O)=O)cn2)c(C)c1

>  <Energy>  (17) 
90.53828732746416

>  <Genealogy>  (17) 
Cc1ccc(C[NH2+]C2CC3CCC(C2)N3c2cc(F)c(C(=O)[N-]S(C)(=O)=O)cn2)c(C)c1 (protonated)
Cc1ccc(C[NH2+]C2C[C@H]3CC[C@@H](C2)N3c2cc(F)c(C(=O)[N-]S(C)(=O)=O)cn2)c(C)c1 (chirality)
Cc1ccc(C[NH2+]C2C[C@H]3CC[C@@H](C2)N3c2cc(F)c(C(=O)[N-]S(C)(=O)=O)cn2)c(C)c1 (3D coordinates assigned)
Cc1ccc(C[NH2+]C2C[C@H]3CC[C@@H](C2)N3c2cc(F)c(C(=O)[N-]S(C)(=O)=O)cn2)c(C)c1 (nonaromatic ring conformer: 90.53828732746416 kcal/mol)

>  <smiles>  (17) 
Cc1ccc(CNC2CC3CCC(C2)N3c2cc(F)c(C(=O)NS(C)(=O)=O)cn2)c(C)c1

>  <score_type>  (17) 
oracle

>  <origin>  (17) 
adgpu

>  <m_score__min__energy>  (17) 
-10.390000000000001

>  <m_primary>  (17) 
energy

$$$$
17:0
     RDKit          3D

 85 90  0  0  0  0  0  0  0  0999 V2000
   -1.6080   20.4350  -34.9700 O   0  0  0  0  0  0  0  0  0  0  0  0
   -2.2590   19.8490  -34.0630 C   0  0  0  0  0  0  0  0  0  0  0  0
   -2.8770   18.5870  -34.3350 N   0  0  0  0  0  0  0  0  0  0  0  0
   -3.2610   17.6270  -33.3060 C   0  0  0  0  0  0  0  0  0  0  0  0
   -3.9620   16.3990  -33.9040 C   0  0  0  0  0  0  0  0  0  0  0  0
   -5.4380   16.5550  -33.9110 N   0  0  0  0  0  0  0  0  0  0  0  0
   -5.8800   17.4980  -34.9650 C   0  0  0  0  0  0  0  0  0  0  0  0
   -6.0660   18.9220  -34.4090 C   0  0  0  0  0  0  0  0  0  0  0  0
   -7.0060   19.0210  -33.3460 O   0  0  0  0  0  0  0  0  0  0  0  0
   -7.2330   17.7910  -32.6720 C   0  0  0  0  0  0  0  0  0  0  0  0
   -5.9670   16.9220  -32.5740 C   0  0  0  0  0  0  0  0  0  0  0  0
   -2.4020   20.4710  -32.7270 C   0  0  0  0  0  0  0  0  0  0  0  0
   -1.5070   20.1500  -31.6930 C   0  0  0  0  0  0  0  0  0  0  0  0
   -1.6460   20.7280  -30.4170 C   0  0  0  0  0  0  0  0  0  0  0  0
   -0.7570   20.4320  -29.3720 O   0  0  0  0  0  0  0  0  0  0  0  0
   -0.6490   21.1790  -28.1900 C   0  0  0  0  0  0  0  0  0  0  0  0
   -1.3610   20.8210  -27.0320 C   0  0  0  0  0  0  0  0  0  0  0  0
   -1.1860   21.5420  -25.8490 C   0  0  0  0  0  0  0  0  0  0  0  0
   -0.3060   22.6340  -25.8090 C   0  0  0  0  0  0  0  0  0  0  0  0
    0.0460   23.4370  -24.2780 S   0  0  0  0  0  0  0  0  0  0  0  0
    1.5360   23.5540  -24.1030 O   0  0  0  0  0  0  0  0  0  0  0  0
   -0.4890   22.6070  -23.1410 O   0  0  0  0  0  0  0  0  0  0  0  0
   -0.6840   25.0270  -24.2280 N   0  0  0  0  0  0  0  0  0  0  0  0
   -1.5750   25.2570  -25.3930 C   0  0  0  0  0  0  0  0  0  0  0  0
   -0.9120   26.0670  -26.5100 C   0  0  0  0  0  0  0  0  0  0  0  0
   -0.4570   27.3730  -25.9430 C   0  0  0  0  0  0  0  0  0  0  0  0
   -0.5800   28.5670  -26.6670 C   0  0  0  0  0  0  0  0  0  0  0  0
   -0.1530   29.7720  -26.1080 C   0  0  0  0  0  0  0  0  0  0  0  0
    0.4320   29.7830  -24.8380 C   0  0  0  0  0  0  0  0  0  0  0  0
    0.5730   28.5920  -24.1180 C   0  0  0  0  0  0  0  0  0  0  0  0
    0.1050   27.3840  -24.6580 C   0  0  0  0  0  0  0  0  0  0  0  0
    0.3270   26.0800  -23.9310 C   0  0  0  0  0  0  0  0  0  0  0  0
    0.3570   23.0270  -26.9800 C   0  0  0  0  0  0  0  0  0  0  0  0
    0.1790   22.3060  -28.1670 C   0  0  0  0  0  0  0  0  0  0  0  0
   -2.6690   21.6540  -30.1910 C   0  0  0  0  0  0  0  0  0  0  0  0
   -3.5650   21.9850  -31.2140 C   0  0  0  0  0  0  0  0  0  0  0  0
   -4.8420   23.1700  -30.9260 S   0  0  0  0  0  0  0  0  0  0  0  0
   -5.2710   23.0930  -29.4860 O   0  0  0  0  0  0  0  0  0  0  0  0
   -4.3010   24.5520  -31.1750 O   0  0  0  0  0  0  0  0  0  0  0  0
   -6.2190   22.8860  -31.9680 N   0  0  0  0  0  0  0  0  0  0  0  0
   -6.5490   21.4410  -32.0590 C   0  0  0  0  0  0  0  0  0  0  0  0
   -7.7660   21.0510  -31.2100 C   0  0  0  0  0  0  0  0  0  0  0  0
   -9.0160   21.8460  -31.6240 C   0  0  0  0  0  0  0  0  0  0  0  0
   -8.6770   23.2470  -32.1590 C   0  0  0  0  0  0  0  0  0  0  0  0
   -7.3520   23.7540  -31.5780 C   0  0  0  0  0  0  0  0  0  0  0  0
   -3.4380   21.3820  -32.4740 C   0  0  0  0  0  0  0  0  0  0  0  0
   -2.3575   17.2965  -32.7726 H   0  0  0  0  0  0  0  0  0  0  0  0
   -3.9653   18.1229  -32.6219 H   0  0  0  0  0  0  0  0  0  0  0  0
   -3.6140   16.2589  -34.9381 H   0  0  0  0  0  0  0  0  0  0  0  0
   -3.7136   15.5269  -33.2813 H   0  0  0  0  0  0  0  0  0  0  0  0
   -5.1231   17.5222  -35.7628 H   0  0  0  0  0  0  0  0  0  0  0  0
   -6.8488   17.1508  -35.3535 H   0  0  0  0  0  0  0  0  0  0  0  0
   -5.0922   19.2773  -34.0410 H   0  0  0  0  0  0  0  0  0  0  0  0
   -6.4615   19.5316  -35.2348 H   0  0  0  0  0  0  0  0  0  0  0  0
   -7.5896   18.0085  -31.6544 H   0  0  0  0  0  0  0  0  0  0  0  0
   -7.9773   17.2273  -33.2535 H   0  0  0  0  0  0  0  0  0  0  0  0
   -5.1936   17.4820  -32.0279 H   0  0  0  0  0  0  0  0  0  0  0  0
   -6.2330   15.9933  -32.0480 H   0  0  0  0  0  0  0  0  0  0  0  0
   -0.6889   19.4395  -31.8824 H   0  0  0  0  0  0  0  0  0  0  0  0
   -2.0580   19.9704  -27.0578 H   0  0  0  0  0  0  0  0  0  0  0  0
   -1.7407   21.2525  -24.9443 H   0  0  0  0  0  0  0  0  0  0  0  0
   -1.8760   24.2807  -25.8008 H   0  0  0  0  0  0  0  0  0  0  0  0
   -2.4368   25.8393  -25.0349 H   0  0  0  0  0  0  0  0  0  0  0  0
   -0.0481   25.5137  -26.9069 H   0  0  0  0  0  0  0  0  0  0  0  0
   -1.6286   26.2398  -27.3265 H   0  0  0  0  0  0  0  0  0  0  0  0
   -1.0140   28.5540  -27.6777 H   0  0  0  0  0  0  0  0  0  0  0  0
   -0.2764   30.7121  -26.6656 H   0  0  0  0  0  0  0  0  0  0  0  0
    0.7824   30.7310  -24.4038 H   0  0  0  0  0  0  0  0  0  0  0  0
    1.0512   28.6022  -23.1274 H   0  0  0  0  0  0  0  0  0  0  0  0
    1.3178   25.6941  -24.2126 H   0  0  0  0  0  0  0  0  0  0  0  0
    0.2410   26.3021  -22.8571 H   0  0  0  0  0  0  0  0  0  0  0  0
    1.0195   23.9050  -26.9663 H   0  0  0  0  0  0  0  0  0  0  0  0
    0.6925   22.6272  -29.0852 H   0  0  0  0  0  0  0  0  0  0  0  0
   -2.7703   22.1256  -29.2024 H   0  0  0  0  0  0  0  0  0  0  0  0
   -6.7611   21.1951  -33.1100 H   0  0  0  0  0  0  0  0  0  0  0  0
   -5.6847   20.8805  -31.6733 H   0  0  0  0  0  0  0  0  0  0  0  0
   -7.9649   19.9771  -31.3413 H   0  0  0  0  0  0  0  0  0  0  0  0
   -7.5423   21.2803  -30.1577 H   0  0  0  0  0  0  0  0  0  0  0  0
   -9.5442   21.2871  -32.4106 H   0  0  0  0  0  0  0  0  0  0  0  0
   -9.6404   21.9744  -30.7276 H   0  0  0  0  0  0  0  0  0  0  0  0
   -8.5952   23.2029  -33.2551 H   0  0  0  0  0  0  0  0  0  0  0  0
   -9.4777   23.9389  -31.8586 H   0  0  0  0  0  0  0  0  0  0  0  0
   -7.1658   24.7725  -31.9494 H   0  0  0  0  0  0  0  0  0  0  0  0
   -7.4312   23.7444  -30.4809 H   0  0  0  0  0  0  0  0  0  0  0  0
   -4.1568   21.6256  -33.2703 H   0  0  0  0  0  0  0  0  0  0  0  0
  1  2  2  0
  2  3  1  0
  3  4  1  0
  4  5  1  0
  5  6  1  0
  6  7  1  0
  7  8  1  0
  8  9  1  0
  9 10  1  0
 10 11  1  0
  2 12  1  0
 12 13  2  0
 13 14  1  0
 14 15  1  0
 15 16  1  0
 16 17  2  0
 17 18  1  0
 18 19  2  0
 19 20  1  0
 20 21  2  0
 20 22  2  0
 20 23  1  0
 23 24  1  0
 24 25  1  0
 25 26  1  0
 26 27  2  0
 27 28  1  0
 28 29  2  0
 29 30  1  0
 30 31  2  0
 31 32  1  0
 19 33  1  0
 33 34  2  0
 14 35  2  0
 35 36  1  0
 36 37  1  0
 37 38  2  0
 37 39  2  0
 37 40  1  0
 40 41  1  0
 41 42  1  0
 42 43  1  0
 43 44  1  0
 44 45  1  0
 36 46  2  0
 11  6  1  0
 46 12  1  0
 34 16  1  0
 45 40  1  0
 32 23  1  0
 31 26  1  0
  4 47  1  0
  4 48  1  0
  5 49  1  0
  5 50  1  0
  7 51  1  0
  7 52  1  0
  8 53  1  0
  8 54  1  0
 10 55  1  0
 10 56  1  0
 11 57  1  0
 11 58  1  0
 13 59  1  0
 17 60  1  0
 18 61  1  0
 24 62  1  0
 24 63  1  0
 25 64  1  0
 25 65  1  0
 27 66  1  0
 28 67  1  0
 29 68  1  0
 30 69  1  0
 32 70  1  0
 32 71  1  0
 33 72  1  0
 34 73  1  0
 35 74  1  0
 41 75  1  0
 41 76  1  0
 42 77  1  0
 42 78  1  0
 43 79  1  0
 43 80  1  0
 44 81  1  0
 44 82  1  0
 45 83  1  0
 45 84  1  0
 46 85  1  0
M  CHG  1   3  -1
M  END
>  <UniqueID>  (18) 
18

>  <SMILES>  (18) 
O=C([N-]CCN1CCOCC1)c1cc(Oc2ccc(S(=O)(=O)N3CCc4ccccc4C3)cc2)cc(S(=O)(=O)N2CCCCC2)c1

>  <Energy>  (18) 
119.44911118172875

>  <Genealogy>  (18) 
O=C([N-]CCN1CCOCC1)c1cc(Oc2ccc(S(=O)(=O)N3CCc4ccccc4C3)cc2)cc(S(=O)(=O)N2CCCCC2)c1 (protonated)
O=C([N-]CCN1CCOCC1)c1cc(Oc2ccc(S(=O)(=O)N3CCc4ccccc4C3)cc2)cc(S(=O)(=O)N2CCCCC2)c1 (3D coordinates assigned)
O=C([N-]CCN1CCOCC1)c1cc(Oc2ccc(S(=O)(=O)N3CCc4ccccc4C3)cc2)cc(S(=O)(=O)N2CCCCC2)c1 (nonaromatic ring conformer: 119.44911118172875 kcal/mol)

>  <smiles>  (18) 
O=C(NCCN1CCOCC1)c1cc(Oc2ccc(S(=O)(=O)N3CCc4ccccc4C3)cc2)cc(S(=O)(=O)N2CCCCC2)c1

>  <score_type>  (18) 
oracle

>  <origin>  (18) 
adgpu

>  <m_score__min__energy>  (18) 
-13.640000000000001

>  <m_primary>  (18) 
energy

$$$$
18:0
     RDKit          3D

 47 49  0  0  0  0  0  0  0  0999 V2000
   -6.0100   18.4470  -34.4590 C   0  0  0  0  0  0  0  0  0  0  0  0
   -6.9070   18.2840  -33.2710 C   0  0  0  0  0  0  0  0  0  0  0  0
   -7.2680   17.1240  -32.9330 O   0  0  0  0  0  0  0  0  0  0  0  0
   -7.4090   19.4250  -32.5520 N   0  0  0  0  0  0  0  0  0  0  0  0
   -8.8590   19.6680  -32.6310 C   0  0  0  0  0  0  0  0  0  0  0  0
   -9.3130   20.7870  -31.6900 C   0  0  0  0  0  0  0  0  0  0  0  0
   -8.4480   22.0300  -31.8860 C   0  0  0  0  0  0  0  0  0  0  0  0
   -7.0020   21.6960  -31.6470 C   0  0  0  0  0  0  0  0  0  0  0  0
   -6.1360   22.6650  -31.1180 C   0  0  0  0  0  0  0  0  0  0  0  0
   -4.7950   22.3530  -30.8670 C   0  0  0  0  0  0  0  0  0  0  0  0
   -3.7080   23.5510  -30.1680 S   0  0  0  0  0  0  0  0  0  0  0  0
   -4.1840   24.9370  -30.5120 O   0  0  0  0  0  0  0  0  0  0  0  0
   -2.3430   23.3500  -30.7640 O   0  0  0  0  0  0  0  0  0  0  0  0
   -3.6460   23.3500  -28.4300 N   0  0  0  0  0  0  0  0  0  0  0  0
   -4.2560   24.5230  -27.7900 C   0  0  0  0  0  0  0  0  0  0  0  0
   -2.2490   23.1950  -27.9760 C   0  0  0  0  0  0  0  0  0  0  0  0
   -1.7820   24.4310  -27.2500 C   0  0  0  0  0  0  0  0  0  0  0  0
   -1.6240   24.4110  -25.8530 C   0  0  0  0  0  0  0  0  0  0  0  0
   -1.1950   25.5550  -25.1740 C   0  0  0  0  0  0  0  0  0  0  0  0
   -0.9150   26.7270  -25.8820 C   0  0  0  0  0  0  0  0  0  0  0  0
   -1.0620   26.7550  -27.2720 C   0  0  0  0  0  0  0  0  0  0  0  0
   -1.4910   25.6140  -27.9580 C   0  0  0  0  0  0  0  0  0  0  0  0
   -1.6260   25.6620  -29.3420 O   0  0  0  0  0  0  0  0  0  0  0  0
   -4.3230   21.0650  -31.1330 C   0  0  0  0  0  0  0  0  0  0  0  0
   -5.1740   20.1010  -31.6780 C   0  0  0  0  0  0  0  0  0  0  0  0
   -6.5140   20.4130  -31.9780 C   0  0  0  0  0  0  0  0  0  0  0  0
   -4.9809   18.6340  -34.1185 H   0  0  0  0  0  0  0  0  0  0  0  0
   -6.0345   17.5297  -35.0656 H   0  0  0  0  0  0  0  0  0  0  0  0
   -6.3557   19.2970  -35.0656 H   0  0  0  0  0  0  0  0  0  0  0  0
   -9.1149   19.9485  -33.6634 H   0  0  0  0  0  0  0  0  0  0  0  0
   -9.3720   18.7438  -32.3267 H   0  0  0  0  0  0  0  0  0  0  0  0
  -10.3623   21.0379  -31.9047 H   0  0  0  0  0  0  0  0  0  0  0  0
   -9.2123   20.4422  -30.6503 H   0  0  0  0  0  0  0  0  0  0  0  0
   -8.5707   22.4002  -32.9146 H   0  0  0  0  0  0  0  0  0  0  0  0
   -8.7619   22.8037  -31.1698 H   0  0  0  0  0  0  0  0  0  0  0  0
   -6.5130   23.6750  -30.8995 H   0  0  0  0  0  0  0  0  0  0  0  0
   -4.1998   24.4149  -26.6968 H   0  0  0  0  0  0  0  0  0  0  0  0
   -3.7157   25.4306  -28.0970 H   0  0  0  0  0  0  0  0  0  0  0  0
   -5.3093   24.6019  -28.0970 H   0  0  0  0  0  0  0  0  0  0  0  0
   -2.1840   22.3318  -27.2972 H   0  0  0  0  0  0  0  0  0  0  0  0
   -1.6074   23.0392  -28.8559 H   0  0  0  0  0  0  0  0  0  0  0  0
   -1.8392   23.4900  -25.2913 H   0  0  0  0  0  0  0  0  0  0  0  0
   -1.0776   25.5328  -24.0805 H   0  0  0  0  0  0  0  0  0  0  0  0
   -0.5792   27.6269  -25.3459 H   0  0  0  0  0  0  0  0  0  0  0  0
   -0.8395   27.6776  -27.8282 H   0  0  0  0  0  0  0  0  0  0  0  0
   -3.2762   20.8091  -30.9121 H   0  0  0  0  0  0  0  0  0  0  0  0
   -4.7937   19.0878  -31.8749 H   0  0  0  0  0  0  0  0  0  0  0  0
  1  2  1  0
  2  3  2  0
  2  4  1  0
  4  5  1  0
  5  6  1  0
  6  7  1  0
  7  8  1  0
  8  9  2  0
  9 10  1  0
 10 11  1  0
 11 12  2  0
 11 13  2  0
 11 14  1  0
 14 15  1  0
 14 16  1  0
 16 17  1  0
 17 18  2  0
 18 19  1  0
 19 20  2  0
 20 21  1  0
 21 22  2  0
 22 23  1  0
 10 24  2  0
 24 25  1  0
 25 26  2  0
 26  4  1  0
 26  8  1  0
 22 17  1  0
  1 27  1  0
  1 28  1  0
  1 29  1  0
  5 30  1  0
  5 31  1  0
  6 32  1  0
  6 33  1  0
  7 34  1  0
  7 35  1  0
  9 36  1  0
 15 37  1  0
 15 38  1  0
 15 39  1  0
 16 40  1  0
 16 41  1  0
 18 42  1  0
 19 43  1  0
 20 44  1  0
 21 45  1  0
 24 46  1  0
 25 47  1  0
M  CHG  1  23  -1
M  END
>  <UniqueID>  (19) 
19

>  <SMILES>  (19) 
CC(=O)N1CCCc2cc(S(=O)(=O)N(C)Cc3ccccc3[O-])ccc21

>  <Energy>  (19) 
53.29137094172319

>  <Genealogy>  (19) 
CC(=O)N1CCCc2cc(S(=O)(=O)N(C)Cc3ccccc3[O-])ccc21 (protonated)
CC(=O)N1CCCc2cc(S(=O)(=O)N(C)Cc3ccccc3[O-])ccc21 (3D coordinates assigned)
CC(=O)N1CCCc2cc(S(=O)(=O)N(C)Cc3ccccc3[O-])ccc21 (nonaromatic ring conformer: 53.29137094172319 kcal/mol)

>  <smiles>  (19) 
CC(=O)N1CCCc2cc(S(=O)(=O)N(C)Cc3ccccc3O)ccc21

>  <score_type>  (19) 
oracle

>  <origin>  (19) 
adgpu

>  <m_score__min__energy>  (19) 
-13.300000000000001

>  <m_primary>  (19) 
energy

$$$$
19:0
     RDKit          3D

 45 48  0  0  0  0  0  0  0  0999 V2000
   -5.0432   22.6718  -32.9222 H   0  0  0  0  0  0  0  0  0  0  0  0
   -4.2170   22.6760  -32.1960 C   0  0  0  0  0  0  0  0  0  0  0  0
   -4.1640   23.6310  -31.2340 N   0  0  0  0  0  0  0  0  0  0  0  0
   -3.1620   23.6610  -30.3170 C   0  0  0  0  0  0  0  0  0  0  0  0
   -3.1620   24.6150  -29.4280 N   0  0  0  0  0  0  0  0  0  0  0  0
   -2.2600   24.7720  -28.3230 C   0  0  0  0  0  0  0  0  0  0  0  0
   -0.8680   24.7220  -28.5050 C   0  0  0  0  0  0  0  0  0  0  0  0
   -0.4519   24.6060  -29.5166 H   0  0  0  0  0  0  0  0  0  0  0  0
   -0.0090   24.8190  -27.4060 C   0  0  0  0  0  0  0  0  0  0  0  0
    1.0802   24.8035  -27.5589 H   0  0  0  0  0  0  0  0  0  0  0  0
   -0.5310   24.9360  -26.1090 C   0  0  0  0  0  0  0  0  0  0  0  0
    0.4000   25.0530  -24.9390 C   0  0  0  0  0  0  0  0  0  0  0  0
   -0.1751   24.9807  -24.0041 H   0  0  0  0  0  0  0  0  0  0  0  0
    1.1410   24.2409  -24.9774 H   0  0  0  0  0  0  0  0  0  0  0  0
    0.9170   26.0232  -24.9774 H   0  0  0  0  0  0  0  0  0  0  0  0
   -1.9230   24.9560  -25.9250 C   0  0  0  0  0  0  0  0  0  0  0  0
   -2.3407   25.0483  -24.9116 H   0  0  0  0  0  0  0  0  0  0  0  0
   -2.7800   24.8590  -27.0260 C   0  0  0  0  0  0  0  0  0  0  0  0
   -3.8691   24.8510  -26.8720 H   0  0  0  0  0  0  0  0  0  0  0  0
   -2.1670   22.7230  -30.3780 N   0  0  0  0  0  0  0  0  0  0  0  0
   -1.3470   22.7500  -29.7330 H   0  0  0  0  0  0  0  0  0  0  0  0
   -2.1860   21.7490  -31.3260 C   0  0  0  0  0  0  0  0  0  0  0  0
   -1.3828   20.9980  -31.3551 H   0  0  0  0  0  0  0  0  0  0  0  0
   -3.2210   21.6970  -32.2640 C   0  0  0  0  0  0  0  0  0  0  0  0
   -3.2220   20.6630  -33.3570 C   0  0  0  0  0  0  0  0  0  0  0  0
   -3.9952   20.9221  -34.0953 H   0  0  0  0  0  0  0  0  0  0  0  0
   -2.2268   20.6506  -33.8255 H   0  0  0  0  0  0  0  0  0  0  0  0
   -3.5690   18.9950  -32.6900 S   0  0  0  0  0  0  0  0  0  0  0  0
   -5.3530   19.2170  -32.6330 C   0  0  0  0  0  0  0  0  0  0  0  0
   -5.8440   20.4330  -32.2700 N   0  0  0  0  0  0  0  0  0  0  0  0
   -7.1770   20.6720  -32.1700 C   0  0  0  0  0  0  0  0  0  0  0  0
   -7.6360   21.9340  -31.7740 C   0  0  0  0  0  0  0  0  0  0  0  0
   -6.9170   22.7353  -31.5480 H   0  0  0  0  0  0  0  0  0  0  0  0
   -9.0090   22.1750  -31.6660 C   0  0  0  0  0  0  0  0  0  0  0  0
   -9.3688   23.1671  -31.3558 H   0  0  0  0  0  0  0  0  0  0  0  0
   -9.9260   21.1590  -31.9510 C   0  0  0  0  0  0  0  0  0  0  0  0
  -11.0050   21.3552  -31.8658 H   0  0  0  0  0  0  0  0  0  0  0  0
   -9.4770   19.8940  -32.3440 C   0  0  0  0  0  0  0  0  0  0  0  0
  -10.2016   19.0964  -32.5649 H   0  0  0  0  0  0  0  0  0  0  0  0
   -8.1010   19.6440  -32.4560 C   0  0  0  0  0  0  0  0  0  0  0  0
   -7.6180   18.3880  -32.8420 C   0  0  0  0  0  0  0  0  0  0  0  0
   -8.3227   17.5756  -33.0732 H   0  0  0  0  0  0  0  0  0  0  0  0
   -6.2390   18.1650  -32.9340 C   0  0  0  0  0  0  0  0  0  0  0  0
   -5.7550   16.8640  -33.3230 C   0  0  0  0  0  0  0  0  0  0  0  0
   -5.3670   15.8200  -33.6350 N   0  0  0  0  0  0  0  0  0  0  0  0
  1  2  1  0
  2  3  2  0
  3  4  1  0
  4  5  2  0
  5  6  1  0
  6  7  2  0
  7  8  1  0
  7  9  1  0
  9 10  1  0
  9 11  2  0
 11 12  1  0
 12 13  1  0
 12 14  1  0
 12 15  1  0
 11 16  1  0
 16 17  1  0
 16 18  2  0
 18 19  1  0
  4 20  1  0
 20 21  1  0
 20 22  1  0
 22 23  1  0
 22 24  2  0
 24 25  1  0
 25 26  1  0
 25 27  1  0
 25 28  1  0
 28 29  1  0
 29 30  2  0
 30 31  1  0
 31 32  2  0
 32 33  1  0
 32 34  1  0
 34 35  1  0
 34 36  2  0
 36 37  1  0
 36 38  1  0
 38 39  1  0
 38 40  2  0
 40 41  1  0
 41 42  1  0
 41 43  2  0
 43 44  1  0
 44 45  3  0
 24  2  1  0
 43 29  1  0
 18  6  1  0
 40 31  1  0
M  END
>  <UniqueID>  (20) 
20

>  <SMILES>  (20) 
Cc1ccc(/N=c2/ncc(CSc3nc4ccccc4cc3C#N)c[nH]2)cc1

>  <Energy>  (20) 
56.142903721985334

>  <Genealogy>  (20) 
Cc1ccc(/N=c2/ncc(CSc3nc4ccccc4cc3C#N)c[nH]2)cc1 (cis-trans isomerization)
Cc1ccc(/N=c2/ncc(CSc3nc4ccccc4cc3C#N)c[nH]2)cc1 (3D coordinates assigned)
Cc1ccc(/N=c2/ncc(CSc3nc4ccccc4cc3C#N)c[nH]2)cc1 (optimized conformer: 56.142903721985334 kcal/mol)

>  <smiles>  (20) 
Cc1ccc(N=c2ncc(CSc3nc4ccccc4cc3C#N)c[nH]2)cc1

>  <score_type>  (20) 
oracle

>  <origin>  (20) 
adgpu

>  <m_score__min__energy>  (20) 
-10.289999999999999

>  <m_primary>  (20) 
energy

$$$$
20:0
     RDKit          3D

 52 55  0  0  0  0  0  0  0  0999 V2000
   -0.4079   23.3510  -25.8617 H   0  0  0  0  0  0  0  0  0  0  0  0
   -0.9870   23.6750  -26.7390 C   0  0  0  0  0  0  0  0  0  0  0  0
   -1.9380   22.8210  -27.3020 C   0  0  0  0  0  0  0  0  0  0  0  0
   -2.0988   21.8201  -26.8750 H   0  0  0  0  0  0  0  0  0  0  0  0
   -2.6860   23.2370  -28.4080 C   0  0  0  0  0  0  0  0  0  0  0  0
   -3.4242   22.5564  -28.8574 H   0  0  0  0  0  0  0  0  0  0  0  0
   -2.4990   24.5170  -28.9460 C   0  0  0  0  0  0  0  0  0  0  0  0
   -3.2670   24.9100  -30.0910 N   0  0  0  0  0  0  0  0  0  0  0  0
   -4.4490   24.4580  -30.3880 C   0  0  0  0  0  0  0  0  0  0  0  0
   -5.1310   24.8860  -31.4710 N   0  0  0  0  0  0  0  0  0  0  0  0
   -6.2940   24.2590  -31.6360 N   0  0  0  0  0  0  0  0  0  0  0  0
   -6.5390   23.3310  -30.6840 C   0  0  0  0  0  0  0  0  0  0  0  0
   -8.0090   22.3030  -30.6720 S   0  0  0  0  0  0  0  0  0  0  0  0
   -7.7400   21.5480  -32.3210 C   0  0  0  0  0  0  0  0  0  0  0  0
   -7.8582   22.3253  -33.0903 H   0  0  0  0  0  0  0  0  0  0  0  0
   -8.4789   20.7432  -32.4492 H   0  0  0  0  0  0  0  0  0  0  0  0
   -6.3730   20.9440  -32.4500 C   0  0  0  0  0  0  0  0  0  0  0  0
   -6.2310   19.7110  -32.2360 O   0  0  0  0  0  0  0  0  0  0  0  0
   -5.2400   21.7780  -32.7450 N   0  0  0  0  0  0  0  0  0  0  0  0
   -5.4340   22.7790  -32.9730 H   0  0  0  0  0  0  0  0  0  0  0  0
   -3.8930   21.4290  -32.3820 C   0  0  0  0  0  0  0  0  0  0  0  0
   -3.6310   20.9780  -31.0800 C   0  0  0  0  0  0  0  0  0  0  0  0
   -4.4451   20.9367  -30.3413 H   0  0  0  0  0  0  0  0  0  0  0  0
   -2.3420   20.5810  -30.7160 C   0  0  0  0  0  0  0  0  0  0  0  0
   -2.1440   20.2294  -29.6927 H   0  0  0  0  0  0  0  0  0  0  0  0
   -1.3040   20.6300  -31.6500 C   0  0  0  0  0  0  0  0  0  0  0  0
   -0.2937   20.3017  -31.3646 H   0  0  0  0  0  0  0  0  0  0  0  0
   -1.5460   21.0960  -32.9490 C   0  0  0  0  0  0  0  0  0  0  0  0
   -0.2460   21.1270  -34.1400 S   0  0  0  0  0  0  0  0  0  0  0  0
    1.0760   21.1990  -33.4290 O   0  0  0  0  0  0  0  0  0  0  0  0
   -0.3840   22.3680  -34.9790 O   0  0  0  0  0  0  0  0  0  0  0  0
   -0.2600   19.7140  -35.1760 N   0  0  0  0  0  0  0  0  0  0  0  0
   -1.0510   18.5930  -34.6210 C   0  0  0  0  0  0  0  0  0  0  0  0
   -1.6578   18.9713  -33.7851 H   0  0  0  0  0  0  0  0  0  0  0  0
   -1.6772   18.1959  -35.4335 H   0  0  0  0  0  0  0  0  0  0  0  0
   -0.1750   17.4420  -34.1090 C   0  0  0  0  0  0  0  0  0  0  0  0
   -0.7248   16.8794  -33.3401 H   0  0  0  0  0  0  0  0  0  0  0  0
    0.0759   16.7769  -34.9484 H   0  0  0  0  0  0  0  0  0  0  0  0
    1.0120   17.9540  -33.5530 O   0  0  0  0  0  0  0  0  0  0  0  0
    1.8450   18.4520  -34.5830 C   0  0  0  0  0  0  0  0  0  0  0  0
    2.6410   19.0572  -34.1247 H   0  0  0  0  0  0  0  0  0  0  0  0
    2.2420   17.5819  -35.1264 H   0  0  0  0  0  0  0  0  0  0  0  0
    1.0950   19.3300  -35.6160 C   0  0  0  0  0  0  0  0  0  0  0  0
    1.6799   20.2458  -35.7870 H   0  0  0  0  0  0  0  0  0  0  0  0
    0.9845   18.7336  -36.5337 H   0  0  0  0  0  0  0  0  0  0  0  0
   -2.8330   21.5220  -33.3030 C   0  0  0  0  0  0  0  0  0  0  0  0
   -3.0160   21.9318  -34.3073 H   0  0  0  0  0  0  0  0  0  0  0  0
   -5.2860   23.2390  -29.5640 S   0  0  0  0  0  0  0  0  0  0  0  0
   -1.5120   25.3610  -28.4000 C   0  0  0  0  0  0  0  0  0  0  0  0
   -1.2470   26.6010  -28.9690 O   0  0  0  0  0  0  0  0  0  0  0  0
   -0.7710   24.9410  -27.2900 C   0  0  0  0  0  0  0  0  0  0  0  0
   -0.0162   25.6092  -26.8498 H   0  0  0  0  0  0  0  0  0  0  0  0
  1  2  1  0
  2  3  2  0
  3  4  1  0
  3  5  1  0
  5  6  1  0
  5  7  2  0
  7  8  1  0
  8  9  2  0
  9 10  1  0
 10 11  1  0
 11 12  2  0
 12 13  1  0
 13 14  1  0
 14 15  1  0
 14 16  1  0
 14 17  1  0
 17 18  2  0
 17 19  1  0
 19 20  1  0
 19 21  1  0
 21 22  2  0
 22 23  1  0
 22 24  1  0
 24 25  1  0
 24 26  2  0
 26 27  1  0
 26 28  1  0
 28 29  1  0
 29 30  2  0
 29 31  2  0
 29 32  1  0
 32 33  1  0
 33 34  1  0
 33 35  1  0
 33 36  1  0
 36 37  1  0
 36 38  1  0
 36 39  1  0
 39 40  1  0
 40 41  1  0
 40 42  1  0
 40 43  1  0
 43 44  1  0
 43 45  1  0
 28 46  2  0
 46 47  1  0
 12 48  1  0
  7 49  1  0
 49 50  1  0
 49 51  2  0
 51 52  1  0
 51  2  1  0
 48  9  1  0
 46 21  1  0
 43 32  1  0
M  CHG  2  10  -1  50  -1
M  END
>  <UniqueID>  (21) 
21

>  <SMILES>  (21) 
O=C(CSc1n[n-]/c(=N/c2ccccc2[O-])s1)Nc1cccc(S(=O)(=O)N2CCOCC2)c1

>  <Energy>  (21) 
106.34204189066382

>  <Genealogy>  (21) 
O=C(CSc1n[n-]c(=Nc2ccccc2[O-])s1)Nc1cccc(S(=O)(=O)N2CCOCC2)c1 (protonated)
O=C(CSc1n[n-]/c(=N/c2ccccc2[O-])s1)Nc1cccc(S(=O)(=O)N2CCOCC2)c1 (cis-trans isomerization)
O=C(CSc1n[n-]/c(=N/c2ccccc2[O-])s1)Nc1cccc(S(=O)(=O)N2CCOCC2)c1 (3D coordinates assigned)
O=C(CSc1n[n-]/c(=N/c2ccccc2[O-])s1)Nc1cccc(S(=O)(=O)N2CCOCC2)c1 (nonaromatic ring conformer: 106.34204189066382 kcal/mol)

>  <smiles>  (21) 
O=C(CSc1n[nH]c(=Nc2ccccc2O)s1)Nc1cccc(S(=O)(=O)N2CCOCC2)c1

>  <score_type>  (21) 
oracle

>  <origin>  (21) 
adgpu

>  <m_score__min__energy>  (21) 
-13.92

>  <m_primary>  (21) 
energy

$$$$
21:0
     RDKit          3D

 54 57  0  0  0  0  0  0  0  0999 V2000
    0.6060   17.1370  -27.5920 C   0  0  0  0  0  0  0  0  0  0  0  0
   -0.4820   17.8450  -27.0070 O   0  0  0  0  0  0  0  0  0  0  0  0
   -0.9580   19.0840  -27.4630 C   0  0  0  0  0  0  0  0  0  0  0  0
   -0.1400   19.8400  -28.3090 C   0  0  0  0  0  0  0  0  0  0  0  0
   -0.5650   21.0840  -28.7840 C   0  0  0  0  0  0  0  0  0  0  0  0
   -1.8230   21.5950  -28.4180 C   0  0  0  0  0  0  0  0  0  0  0  0
   -2.2730   22.9150  -28.9170 C   0  0  0  0  0  0  0  0  0  0  0  0
   -1.5940   24.1170  -28.8220 C   0  0  0  0  0  0  0  0  0  0  0  0
   -2.3250   25.0760  -29.3380 O   0  0  0  0  0  0  0  0  0  0  0  0
   -3.4530   24.5590  -29.7700 C   0  0  0  0  0  0  0  0  0  0  0  0
   -4.5450   25.3570  -30.4060 C   0  0  0  0  0  0  0  0  0  0  0  0
   -5.3860   24.4910  -31.2190 N   0  0  0  0  0  0  0  0  0  0  0  0
   -6.4870   23.7450  -30.6940 C   0  0  0  0  0  0  0  0  0  0  0  0
   -6.4730   23.3370  -29.5000 O   0  0  0  0  0  0  0  0  0  0  0  0
   -7.6450   23.4140  -31.5840 C   0  0  0  0  0  0  0  0  0  0  0  0
   -7.2360   22.4250  -32.6830 C   0  0  0  0  0  0  0  0  0  0  0  0
   -7.6560   21.0140  -32.3600 C   0  0  0  0  0  0  0  0  0  0  0  0
   -8.9020   20.6910  -31.9600 N   0  0  0  0  0  0  0  0  0  0  0  0
   -8.9310   19.3770  -31.7900 N   0  0  0  0  0  0  0  0  0  0  0  0
   -7.7060   18.9120  -32.0990 C   0  0  0  0  0  0  0  0  0  0  0  0
   -7.3480   17.4600  -32.0540 C   0  0  0  0  0  0  0  0  0  0  0  0
   -6.8730   19.9150  -32.4570 N   0  0  0  0  0  0  0  0  0  0  0  0
   -5.5130   19.8100  -32.9170 C   0  0  0  0  0  0  0  0  0  0  0  0
   -5.1460   18.8050  -33.8260 C   0  0  0  0  0  0  0  0  0  0  0  0
   -3.8150   18.6720  -34.2320 C   0  0  0  0  0  0  0  0  0  0  0  0
   -2.8370   19.5270  -33.7180 C   0  0  0  0  0  0  0  0  0  0  0  0
   -3.1910   20.5250  -32.8040 C   0  0  0  0  0  0  0  0  0  0  0  0
   -1.9550   21.5560  -32.1140 Cl  0  0  0  0  0  0  0  0  0  0  0  0
   -4.5260   20.6760  -32.4160 C   0  0  0  0  0  0  0  0  0  0  0  0
   -3.4720   23.1980  -29.5430 C   0  0  0  0  0  0  0  0  0  0  0  0
   -2.6480   20.8300  -27.5770 C   0  0  0  0  0  0  0  0  0  0  0  0
   -2.2210   19.5870  -27.1000 C   0  0  0  0  0  0  0  0  0  0  0  0
    1.2433   16.7223  -26.7971 H   0  0  0  0  0  0  0  0  0  0  0  0
    0.2177   16.3181  -28.2154 H   0  0  0  0  0  0  0  0  0  0  0  0
    1.1975   17.8237  -28.2154 H   0  0  0  0  0  0  0  0  0  0  0  0
    0.8464   19.4522  -28.6031 H   0  0  0  0  0  0  0  0  0  0  0  0
    0.0891   21.6673  -29.4487 H   0  0  0  0  0  0  0  0  0  0  0  0
   -0.5947   24.2481  -28.3814 H   0  0  0  0  0  0  0  0  0  0  0  0
   -5.1567   25.8270  -29.6219 H   0  0  0  0  0  0  0  0  0  0  0  0
   -4.0994   26.1323  -31.0466 H   0  0  0  0  0  0  0  0  0  0  0  0
   -8.4463   22.9658  -30.9782 H   0  0  0  0  0  0  0  0  0  0  0  0
   -7.9926   24.3416  -32.0623 H   0  0  0  0  0  0  0  0  0  0  0  0
   -7.7100   22.7288  -33.6280 H   0  0  0  0  0  0  0  0  0  0  0  0
   -6.1391   22.4422  -32.7635 H   0  0  0  0  0  0  0  0  0  0  0  0
   -7.2677   17.1344  -31.0064 H   0  0  0  0  0  0  0  0  0  0  0  0
   -8.1286   16.8740  -32.5613 H   0  0  0  0  0  0  0  0  0  0  0  0
   -6.3845   17.3040  -32.5613 H   0  0  0  0  0  0  0  0  0  0  0  0
   -5.9097   18.1187  -34.2207 H   0  0  0  0  0  0  0  0  0  0  0  0
   -3.5373   17.8930  -34.9573 H   0  0  0  0  0  0  0  0  0  0  0  0
   -1.7887   19.4154  -34.0320 H   0  0  0  0  0  0  0  0  0  0  0  0
   -4.8050   21.4766  -31.7152 H   0  0  0  0  0  0  0  0  0  0  0  0
   -4.2715   22.4892  -29.8047 H   0  0  0  0  0  0  0  0  0  0  0  0
   -3.6390   21.2123  -27.2911 H   0  0  0  0  0  0  0  0  0  0  0  0
   -2.8750   19.0000  -26.4384 H   0  0  0  0  0  0  0  0  0  0  0  0
  1  2  1  0
  2  3  1  0
  3  4  2  0
  4  5  1  0
  5  6  2  0
  6  7  1  0
  7  8  2  0
  8  9  1  0
  9 10  1  0
 10 11  1  0
 11 12  1  0
 12 13  1  0
 13 14  2  0
 13 15  1  0
 15 16  1  0
 16 17  1  0
 17 18  2  0
 18 19  1  0
 19 20  2  0
 20 21  1  0
 20 22  1  0
 22 23  1  0
 23 24  2  0
 24 25  1  0
 25 26  2  0
 26 27  1  0
 27 28  1  0
 27 29  2  0
 10 30  2  0
  6 31  1  0
 31 32  2  0
 32  3  1  0
 30  7  1  0
 22 17  1  0
 29 23  1  0
  1 33  1  0
  1 34  1  0
  1 35  1  0
  4 36  1  0
  5 37  1  0
  8 38  1  0
 11 39  1  0
 11 40  1  0
 15 41  1  0
 15 42  1  0
 16 43  1  0
 16 44  1  0
 21 45  1  0
 21 46  1  0
 21 47  1  0
 24 48  1  0
 25 49  1  0
 26 50  1  0
 29 51  1  0
 30 52  1  0
 31 53  1  0
 32 54  1  0
M  CHG  1  12  -1
M  END
>  <UniqueID>  (22) 
22

>  <SMILES>  (22) 
COc1ccc(-c2coc(C[N-]C(=O)CCc3nnc(C)n3-c3cccc(Cl)c3)c2)cc1

>  <Energy>  (22) 
115.52831891305232

>  <Genealogy>  (22) 
COc1ccc(-c2coc(C[N-]C(=O)CCc3nnc(C)n3-c3cccc(Cl)c3)c2)cc1 (protonated)
COc1ccc(-c2coc(C[N-]C(=O)CCc3nnc(C)n3-c3cccc(Cl)c3)c2)cc1 (3D coordinates assigned)
COc1ccc(-c2coc(C[N-]C(=O)CCc3nnc(C)n3-c3cccc(Cl)c3)c2)cc1 (optimized conformer: 115.52831891305232 kcal/mol)

>  <smiles>  (22) 
COc1ccc(-c2coc(CNC(=O)CCc3nnc(C)n3-c3cccc(Cl)c3)c2)cc1

>  <score_type>  (22) 
oracle

>  <origin>  (22) 
adgpu

>  <m_score__min__energy>  (22) 
-11.23

>  <m_primary>  (22) 
energy

$$$$
22:0
     RDKit          3D

 24 25  0  0  0  0  0  0  0  0999 V2000
   -8.2750   19.2590  -32.7700 N   0  0  0  0  0  0  0  0  0  0  0  0
   -7.3460   19.9310  -32.6140 C   0  0  0  0  0  0  0  0  0  0  0  0
   -6.1900   20.7670  -32.4190 C   0  0  0  0  0  0  0  0  0  0  0  0
   -4.9400   20.3590  -32.9010 C   0  0  0  0  0  0  0  0  0  0  0  0
   -3.8190   21.1730  -32.7170 C   0  0  0  0  0  0  0  0  0  0  0  0
   -3.9430   22.3960  -32.0490 C   0  0  0  0  0  0  0  0  0  0  0  0
   -5.1890   22.8060  -31.5560 C   0  0  0  0  0  0  0  0  0  0  0  0
   -5.3490   24.3520  -30.7290 S   0  0  0  0  0  0  0  0  0  0  0  0
   -6.1360   25.3000  -31.5910 O   0  0  0  0  0  0  0  0  0  0  0  0
   -6.0720   24.1520  -29.4270 O   0  0  0  0  0  0  0  0  0  0  0  0
   -3.7660   24.9950  -30.4340 N   0  0  0  0  0  0  0  0  0  0  0  0
   -2.9470   24.5390  -29.5360 C   0  0  0  0  0  0  0  0  0  0  0  0
   -1.7230   25.0730  -29.3420 N   0  0  0  0  0  0  0  0  0  0  0  0
   -1.0460   24.4340  -28.3510 C   0  0  0  0  0  0  0  0  0  0  0  0
   -1.7430   23.3890  -27.7590 C   0  0  0  0  0  0  0  0  0  0  0  0
   -1.2570   22.5570  -26.6940 C   0  0  0  0  0  0  0  0  0  0  0  0
   -0.8660   21.8870  -25.8350 N   0  0  0  0  0  0  0  0  0  0  0  0
   -3.2510   23.2490  -28.4870 S   0  0  0  0  0  0  0  0  0  0  0  0
   -6.3140   21.9910  -31.7500 C   0  0  0  0  0  0  0  0  0  0  0  0
   -4.8404   19.3969  -33.4249 H   0  0  0  0  0  0  0  0  0  0  0  0
   -2.8382   20.8518  -33.0977 H   0  0  0  0  0  0  0  0  0  0  0  0
   -3.0601   23.0374  -31.9104 H   0  0  0  0  0  0  0  0  0  0  0  0
   -0.0297   24.7212  -28.0435 H   0  0  0  0  0  0  0  0  0  0  0  0
   -7.2965   22.3142  -31.3756 H   0  0  0  0  0  0  0  0  0  0  0  0
  1  2  3  0
  2  3  1  0
  3  4  2  0
  4  5  1  0
  5  6  2  0
  6  7  1  0
  7  8  1  0
  8  9  2  0
  8 10  2  0
  8 11  1  0
 11 12  2  3
 12 13  1  0
 13 14  1  0
 14 15  2  0
 15 16  1  0
 16 17  3  0
 15 18  1  0
  7 19  2  0
 19  3  1  0
 18 12  1  0
  4 20  1  0
  5 21  1  0
  6 22  1  0
 14 23  1  0
 19 24  1  0
M  CHG  1  13  -1
M  END
>  <UniqueID>  (23) 
23

>  <SMILES>  (23) 
N#Cc1cccc(S(=O)(=O)N=c2[n-]cc(C#N)s2)c1

>  <Energy>  (23) 
57.91807290545214

>  <Genealogy>  (23) 
N#Cc1cccc(S(=O)(=O)N=c2[n-]cc(C#N)s2)c1 (protonated)
N#Cc1cccc(S(=O)(=O)N=c2[n-]cc(C#N)s2)c1 (3D coordinates assigned)
N#Cc1cccc(S(=O)(=O)N=c2[n-]cc(C#N)s2)c1 (optimized conformer: 57.91807290545214 kcal/mol)

>  <smiles>  (23) 
N#Cc1cccc(S(=O)(=O)N=c2[nH]cc(C#N)s2)c1

>  <score_type>  (23) 
oracle

>  <origin>  (23) 
adgpu

>  <m_score__min__energy>  (23) 
-8.9499999999999993

>  <m_primary>  (23) 
energy

$$$$
23:0
     RDKit          3D

 50 53  0  0  0  0  0  0  0  0999 V2000
   -4.2190   25.1710  -30.9920 O   0  0  0  0  0  0  0  0  0  0  0  0
   -5.3770   24.6870  -30.1630 S   0  0  0  0  0  0  0  0  0  0  0  0
   -6.3330   25.8340  -29.9720 O   0  0  0  0  0  0  0  0  0  0  0  0
   -4.7890   24.1830  -28.6100 N   0  0  0  0  0  0  0  0  0  0  0  0
   -3.6210   23.3690  -28.4430 C   0  0  0  0  0  0  0  0  0  0  0  0
   -3.7210   22.0870  -27.8810 C   0  0  0  0  0  0  0  0  0  0  0  0
   -2.5800   21.3000  -27.7060 C   0  0  0  0  0  0  0  0  0  0  0  0
   -1.3240   21.7800  -28.1200 C   0  0  0  0  0  0  0  0  0  0  0  0
   -1.2160   23.0750  -28.6470 C   0  0  0  0  0  0  0  0  0  0  0  0
   -2.3560   23.8720  -28.8050 C   0  0  0  0  0  0  0  0  0  0  0  0
   -2.2090   25.1540  -29.3370 O   0  0  0  0  0  0  0  0  0  0  0  0
   -0.0880   20.9310  -27.9360 C   0  0  0  0  0  0  0  0  0  0  0  0
   -0.4360   19.4410  -27.7980 C   0  0  0  0  0  0  0  0  0  0  0  0
   -1.5570   19.2500  -26.7720 C   0  0  0  0  0  0  0  0  0  0  0  0
   -2.6990   20.0250  -27.1370 O   0  0  0  0  0  0  0  0  0  0  0  0
   -6.2260   23.3840  -30.9950 C   0  0  0  0  0  0  0  0  0  0  0  0
   -7.6270   23.3080  -30.9530 C   0  0  0  0  0  0  0  0  0  0  0  0
   -8.2930   22.2770  -31.6190 C   0  0  0  0  0  0  0  0  0  0  0  0
   -7.5670   21.3190  -32.3340 C   0  0  0  0  0  0  0  0  0  0  0  0
   -6.1670   21.3910  -32.3870 C   0  0  0  0  0  0  0  0  0  0  0  0
   -5.2520   20.1690  -33.2710 S   0  0  0  0  0  0  0  0  0  0  0  0
   -6.0350   19.7470  -34.4850 O   0  0  0  0  0  0  0  0  0  0  0  0
   -3.9420   20.7520  -33.7300 O   0  0  0  0  0  0  0  0  0  0  0  0
   -4.9830   18.7840  -32.2420 N   0  0  0  0  0  0  0  0  0  0  0  0
   -4.7550   17.5710  -33.0270 C   0  0  0  0  0  0  0  0  0  0  0  0
   -5.2510   16.4010  -32.1880 C   0  0  0  0  0  0  0  0  0  0  0  0
   -6.1230   17.0160  -31.1060 C   0  0  0  0  0  0  0  0  0  0  0  0
   -6.1580   18.5020  -31.4170 C   0  0  0  0  0  0  0  0  0  0  0  0
   -5.5000   22.4230  -31.7130 C   0  0  0  0  0  0  0  0  0  0  0  0
   -4.7042   21.6992  -27.5763 H   0  0  0  0  0  0  0  0  0  0  0  0
   -0.2301   23.4667  -28.9378 H   0  0  0  0  0  0  0  0  0  0  0  0
   -2.9910   25.6760  -29.7170 H   0  0  0  0  0  0  0  0  0  0  0  0
    0.5688   21.0641  -28.8083 H   0  0  0  0  0  0  0  0  0  0  0  0
    0.4137   21.2525  -27.0114 H   0  0  0  0  0  0  0  0  0  0  0  0
   -0.7666   19.0537  -28.7730 H   0  0  0  0  0  0  0  0  0  0  0  0
    0.4566   18.8949  -27.4587 H   0  0  0  0  0  0  0  0  0  0  0  0
   -1.8369   18.1869  -26.7338 H   0  0  0  0  0  0  0  0  0  0  0  0
   -1.1999   19.5810  -25.7856 H   0  0  0  0  0  0  0  0  0  0  0  0
   -8.2013   24.0619  -30.3945 H   0  0  0  0  0  0  0  0  0  0  0  0
   -9.3908   22.2182  -31.5812 H   0  0  0  0  0  0  0  0  0  0  0  0
   -8.0949   20.5073  -32.8559 H   0  0  0  0  0  0  0  0  0  0  0  0
   -5.3142   17.6220  -33.9729 H   0  0  0  0  0  0  0  0  0  0  0  0
   -3.6889   17.4555  -33.2722 H   0  0  0  0  0  0  0  0  0  0  0  0
   -5.8387   15.7066  -32.8065 H   0  0  0  0  0  0  0  0  0  0  0  0
   -4.4177   15.8239  -31.7607 H   0  0  0  0  0  0  0  0  0  0  0  0
   -7.1370   16.5911  -31.1404 H   0  0  0  0  0  0  0  0  0  0  0  0
   -5.7287   16.8167  -30.0986 H   0  0  0  0  0  0  0  0  0  0  0  0
   -7.0770   18.7532  -31.9668 H   0  0  0  0  0  0  0  0  0  0  0  0
   -6.1480   19.1008  -30.4943 H   0  0  0  0  0  0  0  0  0  0  0  0
   -4.4020   22.4794  -31.7474 H   0  0  0  0  0  0  0  0  0  0  0  0
  1  2  2  0
  2  3  2  0
  2  4  1  0
  4  5  1  0
  5  6  2  0
  6  7  1  0
  7  8  2  0
  8  9  1  0
  9 10  2  0
 10 11  1  0
  8 12  1  0
 12 13  1  0
 13 14  1  0
 14 15  1  0
  2 16  1  0
 16 17  2  0
 17 18  1  0
 18 19  2  0
 19 20  1  0
 20 21  1  0
 21 22  2  0
 21 23  2  0
 21 24  1  0
 24 25  1  0
 25 26  1  0
 26 27  1  0
 27 28  1  0
 20 29  2  0
 10  5  1  0
 29 16  1  0
 15  7  1  0
 28 24  1  0
  6 30  1  0
  9 31  1  0
 11 32  1  0
 12 33  1  0
 12 34  1  0
 13 35  1  0
 13 36  1  0
 14 37  1  0
 14 38  1  0
 17 39  1  0
 18 40  1  0
 19 41  1  0
 25 42  1  0
 25 43  1  0
 26 44  1  0
 26 45  1  0
 27 46  1  0
 27 47  1  0
 28 48  1  0
 28 49  1  0
 29 50  1  0
M  CHG  1   4  -1
M  END
>  <UniqueID>  (24) 
24

>  <SMILES>  (24) 
O=S(=O)([N-]c1cc2c(cc1O)CCCO2)c1cccc(S(=O)(=O)N2CCCC2)c1

>  <Energy>  (24) 
60.24556251962655

>  <Genealogy>  (24) 
O=S(=O)([N-]c1cc2c(cc1O)CCCO2)c1cccc(S(=O)(=O)N2CCCC2)c1 (protonated)
O=S(=O)([N-]c1cc2c(cc1O)CCCO2)c1cccc(S(=O)(=O)N2CCCC2)c1 (3D coordinates assigned)
O=S(=O)([N-]c1cc2c(cc1O)CCCO2)c1cccc(S(=O)(=O)N2CCCC2)c1 (nonaromatic ring conformer: 60.24556251962655 kcal/mol)

>  <smiles>  (24) 
O=S(=O)(Nc1cc2c(cc1O)CCCO2)c1cccc(S(=O)(=O)N2CCCC2)c1

>  <score_type>  (24) 
oracle

>  <origin>  (24) 
adgpu

>  <m_score__min__energy>  (24) 
-12.16

>  <m_primary>  (24) 
energy

$$$$
24:0
     RDKit          3D

 55 58  0  0  0  0  0  0  0  0999 V2000
   -9.8420   21.2560  -31.5670 C   0  0  0  0  0  0  0  0  0  0  0  0
   -8.4120   21.1180  -31.9930 C   0  0  0  0  0  0  0  0  0  0  0  0
   -7.5260   22.2160  -31.8730 C   0  0  0  0  0  0  0  0  0  0  0  0
   -6.1630   22.0920  -32.2180 C   0  0  0  0  0  0  0  0  0  0  0  0
   -5.2550   23.1990  -32.1210 N   0  0  0  0  0  0  0  0  0  0  0  0
   -4.9320   23.9900  -30.6140 S   0  0  0  0  0  0  0  0  0  0  0  0
   -6.2300   24.2750  -29.9110 O   0  0  0  0  0  0  0  0  0  0  0  0
   -4.2200   25.2870  -30.8750 O   0  0  0  0  0  0  0  0  0  0  0  0
   -3.9580   22.9330  -29.5970 C   0  0  0  0  0  0  0  0  0  0  0  0
   -3.8340   21.5680  -29.8910 C   0  0  0  0  0  0  0  0  0  0  0  0
   -3.0980   20.7300  -29.0470 C   0  0  0  0  0  0  0  0  0  0  0  0
   -2.4840   21.2500  -27.8960 C   0  0  0  0  0  0  0  0  0  0  0  0
   -1.6200   20.1830  -26.7850 S   0  0  0  0  0  0  0  0  0  0  0  0
   -1.3060   20.9260  -25.5160 O   0  0  0  0  0  0  0  0  0  0  0  0
   -2.5020   19.0170  -26.4350 O   0  0  0  0  0  0  0  0  0  0  0  0
   -0.1340   19.5960  -27.4950 N   0  0  0  0  0  0  0  0  0  0  0  0
   -0.2260   18.1400  -27.7530 C   0  0  0  0  0  0  0  0  0  0  0  0
    0.8410   17.6770  -28.7490 C   0  0  0  0  0  0  0  0  0  0  0  0
    0.6530   18.3580  -30.1180 C   0  0  0  0  0  0  0  0  0  0  0  0
   -0.0350   19.7310  -30.0100 C   0  0  0  0  0  0  0  0  0  0  0  0
    0.2740   20.4120  -28.6660 C   0  0  0  0  0  0  0  0  0  0  0  0
   -2.5940   22.6190  -27.6120 C   0  0  0  0  0  0  0  0  0  0  0  0
   -3.3290   23.4560  -28.4590 C   0  0  0  0  0  0  0  0  0  0  0  0
   -5.7250   20.8370  -32.6590 C   0  0  0  0  0  0  0  0  0  0  0  0
   -4.4770   20.4110  -33.0800 C   0  0  0  0  0  0  0  0  0  0  0  0
   -4.6360   19.0720  -33.4250 C   0  0  0  0  0  0  0  0  0  0  0  0
   -5.9170   18.6820  -33.2250 N   0  0  0  0  0  0  0  0  0  0  0  0
   -6.4710   17.3610  -33.5020 C   0  0  0  0  0  0  0  0  0  0  0  0
   -6.5760   19.7650  -32.7660 C   0  0  0  0  0  0  0  0  0  0  0  0
   -7.9300   19.8700  -32.4410 C   0  0  0  0  0  0  0  0  0  0  0  0
   -9.8984   21.2614  -30.4685 H   0  0  0  0  0  0  0  0  0  0  0  0
  -10.2524   22.1979  -31.9599 H   0  0  0  0  0  0  0  0  0  0  0  0
  -10.4249   20.4099  -31.9599 H   0  0  0  0  0  0  0  0  0  0  0  0
   -7.9059   23.1806  -31.5052 H   0  0  0  0  0  0  0  0  0  0  0  0
   -4.9230   23.6700  -32.9890 H   0  0  0  0  0  0  0  0  0  0  0  0
   -4.3172   21.1545  -30.7885 H   0  0  0  0  0  0  0  0  0  0  0  0
   -2.9998   19.6607  -29.2854 H   0  0  0  0  0  0  0  0  0  0  0  0
   -0.0880   17.5997  -26.8048 H   0  0  0  0  0  0  0  0  0  0  0  0
   -1.2154   17.9282  -28.1846 H   0  0  0  0  0  0  0  0  0  0  0  0
    1.8357   17.9317  -28.3544 H   0  0  0  0  0  0  0  0  0  0  0  0
    0.7458   16.5894  -28.8833 H   0  0  0  0  0  0  0  0  0  0  0  0
    1.6412   18.4952  -30.5813 H   0  0  0  0  0  0  0  0  0  0  0  0
    0.0051   17.7089  -30.7254 H   0  0  0  0  0  0  0  0  0  0  0  0
    0.3218   20.3749  -30.8274 H   0  0  0  0  0  0  0  0  0  0  0  0
   -1.1223   19.5786  -30.0778 H   0  0  0  0  0  0  0  0  0  0  0  0
    1.3572   20.5940  -28.6061 H   0  0  0  0  0  0  0  0  0  0  0  0
   -0.3022   21.3483  -28.6314 H   0  0  0  0  0  0  0  0  0  0  0  0
   -2.1013   23.0358  -26.7212 H   0  0  0  0  0  0  0  0  0  0  0  0
   -3.4134   24.5287  -28.2307 H   0  0  0  0  0  0  0  0  0  0  0  0
   -3.5532   21.0060  -33.1312 H   0  0  0  0  0  0  0  0  0  0  0  0
   -3.8343   18.4225  -33.8062 H   0  0  0  0  0  0  0  0  0  0  0  0
   -6.6864   16.8474  -32.5534 H   0  0  0  0  0  0  0  0  0  0  0  0
   -7.4004   17.4672  -34.0807 H   0  0  0  0  0  0  0  0  0  0  0  0
   -5.7439   16.7724  -34.0807 H   0  0  0  0  0  0  0  0  0  0  0  0
   -8.6020   19.0039  -32.5317 H   0  0  0  0  0  0  0  0  0  0  0  0
  1  2  1  0
  2  3  2  0
  3  4  1  0
  4  5  1  0
  5  6  1  0
  6  7  2  0
  6  8  2  0
  6  9  1  0
  9 10  2  0
 10 11  1  0
 11 12  2  0
 12 13  1  0
 13 14  2  0
 13 15  2  0
 13 16  1  0
 16 17  1  0
 17 18  1  0
 18 19  1  0
 19 20  1  0
 20 21  1  0
 12 22  1  0
 22 23  2  0
  4 24  2  0
 24 25  1  0
 25 26  2  0
 26 27  1  0
 27 28  1  0
 27 29  1  0
 29 30  2  0
 30  2  1  0
 23  9  1  0
 29 24  1  0
 21 16  1  0
  1 31  1  0
  1 32  1  0
  1 33  1  0
  3 34  1  0
  5 35  1  0
 10 36  1  0
 11 37  1  0
 17 38  1  0
 17 39  1  0
 18 40  1  0
 18 41  1  0
 19 42  1  0
 19 43  1  0
 20 44  1  0
 20 45  1  0
 21 46  1  0
 21 47  1  0
 22 48  1  0
 23 49  1  0
 25 50  1  0
 26 51  1  0
 28 52  1  0
 28 53  1  0
 28 54  1  0
 30 55  1  0
M  END
>  <UniqueID>  (25) 
25

>  <SMILES>  (25) 
Cc1cc(NS(=O)(=O)c2ccc(S(=O)(=O)N3CCCCC3)cc2)c2ccn(C)c2c1

>  <Energy>  (25) 
93.64189137154699

>  <Genealogy>  (25) 
Cc1cc(NS(=O)(=O)c2ccc(S(=O)(=O)N3CCCCC3)cc2)c2ccn(C)c2c1 (3D coordinates assigned)
Cc1cc(NS(=O)(=O)c2ccc(S(=O)(=O)N3CCCCC3)cc2)c2ccn(C)c2c1 (nonaromatic ring conformer: 93.64189137154699 kcal/mol)

>  <smiles>  (25) 
Cc1cc(NS(=O)(=O)c2ccc(S(=O)(=O)N3CCCCC3)cc2)c2ccn(C)c2c1

>  <score_type>  (25) 
oracle

>  <origin>  (25) 
adgpu

>  <m_score__min__energy>  (25) 
-11.41

>  <m_primary>  (25) 
energy

$$$$
25:0
     RDKit          3D

 63 67  0  0  0  0  0  0  0  0999 V2000
   -1.1330   20.1920  -34.6870 C   0  0  0  0  0  0  0  0  0  0  0  0
   -1.7840   19.3210  -33.5800 C   0  0  1  0  0  0  0  0  0  0  0  0
   -3.0700   18.6830  -34.1620 C   0  0  0  0  0  0  0  0  0  0  0  0
   -3.6110   17.5210  -33.3320 C   0  0  0  0  0  0  0  0  0  0  0  0
   -2.5520   16.4220  -33.1340 C   0  0  1  0  0  0  0  0  0  0  0  0
   -2.0860   15.6930  -34.3900 C   0  0  0  0  0  0  0  0  0  0  0  0
   -2.8050   15.6920  -35.6050 C   0  0  0  0  0  0  0  0  0  0  0  0
   -2.3250   14.9880  -36.7120 C   0  0  0  0  0  0  0  0  0  0  0  0
   -1.1500   14.2430  -36.6150 C   0  0  0  0  0  0  0  0  0  0  0  0
   -0.6740   13.5470  -37.7190 O   0  0  0  0  0  0  0  0  0  0  0  0
   -0.4620   14.1810  -35.4000 C   0  0  0  0  0  0  0  0  0  0  0  0
   -0.9320   14.8910  -34.2860 C   0  0  0  0  0  0  0  0  0  0  0  0
   -0.3140   14.6670  -32.9320 C   0  0  0  0  0  0  0  0  0  0  0  0
   -0.2340   15.9520  -32.0890 C   0  0  0  0  0  0  0  0  0  0  0  0
   -1.3450   17.0140  -32.3680 C   0  0  1  0  0  0  0  0  0  0  0  0
   -0.7350   18.2860  -33.0570 C   0  0  2  0  0  0  0  0  0  0  0  0
    0.0340   19.1040  -31.9960 C   0  0  0  0  0  0  0  0  0  0  0  0
   -0.9900   20.0660  -31.5110 C   0  0  0  0  0  0  0  0  0  0  0  0
   -2.0110   20.1680  -32.3500 C   0  0  0  0  0  0  0  0  0  0  0  0
   -3.2300   20.9490  -32.0280 C   0  0  0  0  0  0  0  0  0  0  0  0
   -3.8170   21.7590  -33.0140 C   0  0  0  0  0  0  0  0  0  0  0  0
   -4.9550   22.5160  -32.7250 C   0  0  0  0  0  0  0  0  0  0  0  0
   -5.5220   22.4790  -31.4430 C   0  0  0  0  0  0  0  0  0  0  0  0
   -6.7200   23.2760  -31.1260 C   0  0  0  0  0  0  0  0  0  0  0  0
   -7.8440   22.8750  -31.5280 O   0  0  0  0  0  0  0  0  0  0  0  0
   -6.6530   24.4880  -30.3620 N   0  0  0  0  0  0  0  0  0  0  0  0
   -5.4340   25.2110  -30.0040 C   0  0  0  0  0  0  0  0  0  0  0  0
   -4.6920   24.5350  -28.8450 C   0  0  0  0  0  0  0  0  0  0  0  0
   -2.9890   24.1740  -29.2500 S   0  0  0  0  0  0  0  0  0  0  0  0
   -2.0300   25.5840  -28.9640 N   0  0  0  0  0  0  0  0  0  0  0  0
   -2.8770   23.7870  -30.7000 O   0  0  0  0  0  0  0  0  0  0  0  0
   -2.4850   23.0480  -28.3900 O   0  0  0  0  0  0  0  0  0  0  0  0
   -4.9580   21.6450  -30.4660 C   0  0  0  0  0  0  0  0  0  0  0  0
   -3.8160   20.8920  -30.7530 C   0  0  0  0  0  0  0  0  0  0  0  0
   -0.5362   20.9904  -34.2218 H   0  0  0  0  0  0  0  0  0  0  0  0
   -0.4812   19.5638  -35.3120 H   0  0  0  0  0  0  0  0  0  0  0  0
   -1.9200   20.6392  -35.3120 H   0  0  0  0  0  0  0  0  0  0  0  0
   -3.8470   19.4595  -34.2196 H   0  0  0  0  0  0  0  0  0  0  0  0
   -2.8074   18.2764  -35.1498 H   0  0  0  0  0  0  0  0  0  0  0  0
   -3.9200   17.9001  -32.3467 H   0  0  0  0  0  0  0  0  0  0  0  0
   -4.4640   17.0825  -33.8706 H   0  0  0  0  0  0  0  0  0  0  0  0
   -3.0570   15.6360  -32.5533 H   0  0  0  0  0  0  0  0  0  0  0  0
   -3.7501   16.2497  -35.6805 H   0  0  0  0  0  0  0  0  0  0  0  0
   -2.8758   15.0214  -37.6636 H   0  0  0  0  0  0  0  0  0  0  0  0
    0.4511   13.5732  -35.3174 H   0  0  0  0  0  0  0  0  0  0  0  0
   -0.9200   13.9276  -32.3878 H   0  0  0  0  0  0  0  0  0  0  0  0
    0.7153   14.3143  -33.0937 H   0  0  0  0  0  0  0  0  0  0  0  0
   -0.2985   15.6656  -31.0289 H   0  0  0  0  0  0  0  0  0  0  0  0
    0.7166   16.4326  -32.3635 H   0  0  0  0  0  0  0  0  0  0  0  0
   -1.7548   17.3374  -31.3998 H   0  0  0  0  0  0  0  0  0  0  0  0
   -0.1424   17.8837  -33.8919 H   0  0  0  0  0  0  0  0  0  0  0  0
    0.3885   18.4583  -31.1791 H   0  0  0  0  0  0  0  0  0  0  0  0
    0.9351   19.5933  -32.3943 H   0  0  0  0  0  0  0  0  0  0  0  0
   -0.9100   20.6266  -30.5680 H   0  0  0  0  0  0  0  0  0  0  0  0
   -3.3772   21.7976  -34.0215 H   0  0  0  0  0  0  0  0  0  0  0  0
   -5.4082   23.1437  -33.5064 H   0  0  0  0  0  0  0  0  0  0  0  0
   -4.7699   25.2456  -30.8803 H   0  0  0  0  0  0  0  0  0  0  0  0
   -5.7184   26.2243  -29.6839 H   0  0  0  0  0  0  0  0  0  0  0  0
   -4.7140   25.2043  -27.9723 H   0  0  0  0  0  0  0  0  0  0  0  0
   -5.1972   23.5813  -28.6321 H   0  0  0  0  0  0  0  0  0  0  0  0
   -1.3870   25.6870  -29.7800 H   0  0  0  0  0  0  0  0  0  0  0  0
   -5.4172   21.5833  -29.4683 H   0  0  0  0  0  0  0  0  0  0  0  0
   -3.3738   20.2512  -29.9759 H   0  0  0  0  0  0  0  0  0  0  0  0
  2  1  1  6
  2  3  1  0
  3  4  1  0
  4  5  1  0
  5  6  1  0
  6  7  2  0
  7  8  1  0
  8  9  2  0
  9 10  1  0
  9 11  1  0
 11 12  2  0
 12 13  1  0
 13 14  1  0
 14 15  1  0
 15 16  1  0
 16 17  1  0
 17 18  1  0
 18 19  2  0
 19 20  1  0
 20 21  2  0
 21 22  1  0
 22 23  2  0
 23 24  1  0
 24 25  2  0
 24 26  1  0
 26 27  1  0
 27 28  1  0
 28 29  1  0
 29 30  1  0
 29 31  2  0
 29 32  2  0
 23 33  1  0
 33 34  2  0
 16  2  1  0
 34 20  1  0
 19  2  1  0
 15  5  1  0
 12  6  1  0
  1 35  1  0
  1 36  1  0
  1 37  1  0
  3 38  1  0
  3 39  1  0
  4 40  1  0
  4 41  1  0
  5 42  1  1
  7 43  1  0
  8 44  1  0
 11 45  1  0
 13 46  1  0
 13 47  1  0
 14 48  1  0
 14 49  1  0
 15 50  1  1
 16 51  1  6
 17 52  1  0
 17 53  1  0
 18 54  1  0
 21 55  1  0
 22 56  1  0
 27 57  1  0
 27 58  1  0
 28 59  1  0
 28 60  1  0
 30 61  1  0
 33 62  1  0
 34 63  1  0
M  CHG  3  10  -1  26  -1  30  -1
M  END
>  <UniqueID>  (26) 
26

>  <SMILES>  (26) 
C[C@@]12CC[C@H]3c4ccc([O-])cc4CCC3C1CC=C2c1ccc(C(=O)[N-]CCS([NH-])(=O)=O)cc1

>  <Energy>  (26) 
91.55044908176293

>  <Genealogy>  (26) 
CC12CCC3c4ccc([O-])cc4CCC3C1CC=C2c1ccc(C(=O)[N-]CCS([NH-])(=O)=O)cc1 (protonated)
C[C@@]12CC[C@H]3c4ccc([O-])cc4CCC3C1CC=C2c1ccc(C(=O)[N-]CCS([NH-])(=O)=O)cc1 (chirality)
C[C@@]12CC[C@H]3c4ccc([O-])cc4CCC3C1CC=C2c1ccc(C(=O)[N-]CCS([NH-])(=O)=O)cc1 (3D coordinates assigned)
C[C@@]12CC[C@H]3c4ccc([O-])cc4CCC3C1CC=C2c1ccc(C(=O)[N-]CCS([NH-])(=O)=O)cc1 (nonaromatic ring conformer: 91.55044908176293 kcal/mol)

>  <smiles>  (26) 
CC12CCC3c4ccc(O)cc4CCC3C1CC=C2c1ccc(C(=O)NCCS(N)(=O)=O)cc1

>  <score_type>  (26) 
oracle

>  <origin>  (26) 
adgpu

>  <m_score__min__energy>  (26) 
-11.84

>  <m_primary>  (26) 
energy

$$$$
26:0
     RDKit          3D

 46 49  0  0  0  0  0  0  0  0999 V2000
   -0.9240   19.3320  -29.3640 C   0  0  0  0  0  0  0  0  0  0  0  0
   -0.8410   19.6280  -27.9230 N   0  0  0  0  0  0  0  0  0  0  0  0
    0.4100   20.3170  -27.5530 C   0  0  0  0  0  0  0  0  0  0  0  0
    0.5210   21.7190  -28.1770 C   0  0  0  0  0  0  0  0  0  0  0  0
   -0.7790   22.4790  -28.1300 C   0  0  0  0  0  0  0  0  0  0  0  0
   -0.7870   23.8370  -28.4820 C   0  0  0  0  0  0  0  0  0  0  0  0
   -1.9920   24.5390  -28.5770 C   0  0  0  0  0  0  0  0  0  0  0  0
   -1.9740   25.8730  -28.9680 O   0  0  0  0  0  0  0  0  0  0  0  0
   -3.2100   23.8910  -28.3100 C   0  0  0  0  0  0  0  0  0  0  0  0
   -4.4540   24.5770  -28.5250 N   0  0  0  0  0  0  0  0  0  0  0  0
   -5.0810   24.8710  -30.1190 S   0  0  0  0  0  0  0  0  0  0  0  0
   -3.9720   25.3440  -31.0140 O   0  0  0  0  0  0  0  0  0  0  0  0
   -6.1390   25.9360  -30.0360 O   0  0  0  0  0  0  0  0  0  0  0  0
   -5.7550   23.3850  -30.7880 C   0  0  0  0  0  0  0  0  0  0  0  0
   -4.9520   22.5140  -31.5540 C   0  0  0  0  0  0  0  0  0  0  0  0
   -5.5230   21.4020  -32.1900 C   0  0  0  0  0  0  0  0  0  0  0  0
   -6.8950   21.1800  -32.0560 C   0  0  0  0  0  0  0  0  0  0  0  0
   -7.6770   22.0150  -31.3010 C   0  0  0  0  0  0  0  0  0  0  0  0
   -7.1300   23.1190  -30.6440 C   0  0  0  0  0  0  0  0  0  0  0  0
   -9.1010   21.6150  -31.3200 C   0  0  0  0  0  0  0  0  0  0  0  0
   -9.1340   20.4010  -32.2670 C   0  0  0  0  0  0  0  0  0  0  0  0
   -7.6810   20.0900  -32.6750 C   0  0  0  0  0  0  0  0  0  0  0  0
   -3.1950   22.5500  -27.8970 C   0  0  0  0  0  0  0  0  0  0  0  0
   -1.9960   21.8280  -27.8510 C   0  0  0  0  0  0  0  0  0  0  0  0
   -2.0220   20.3730  -27.4440 C   0  0  0  0  0  0  0  0  0  0  0  0
   -1.2185   18.2817  -29.5062 H   0  0  0  0  0  0  0  0  0  0  0  0
   -1.6725   19.9891  -29.8308 H   0  0  0  0  0  0  0  0  0  0  0  0
    0.0571   19.5041  -29.8308 H   0  0  0  0  0  0  0  0  0  0  0  0
    0.4475   20.4149  -26.4580 H   0  0  0  0  0  0  0  0  0  0  0  0
    1.2473   19.7150  -27.9358 H   0  0  0  0  0  0  0  0  0  0  0  0
    1.2831   22.2902  -27.6266 H   0  0  0  0  0  0  0  0  0  0  0  0
    0.7944   21.5920  -29.2349 H   0  0  0  0  0  0  0  0  0  0  0  0
    0.1627   24.3536  -28.6849 H   0  0  0  0  0  0  0  0  0  0  0  0
   -4.8890   25.1090  -27.7380 H   0  0  0  0  0  0  0  0  0  0  0  0
   -3.8737   22.7078  -31.6529 H   0  0  0  0  0  0  0  0  0  0  0  0
   -4.9007   20.7166  -32.7841 H   0  0  0  0  0  0  0  0  0  0  0  0
   -7.7632   23.7705  -30.0238 H   0  0  0  0  0  0  0  0  0  0  0  0
   -9.4419   21.3344  -30.3125 H   0  0  0  0  0  0  0  0  0  0  0  0
   -9.7648   22.4277  -31.6500 H   0  0  0  0  0  0  0  0  0  0  0  0
   -9.5725   19.5342  -31.7508 H   0  0  0  0  0  0  0  0  0  0  0  0
   -9.7465   20.6192  -33.1542 H   0  0  0  0  0  0  0  0  0  0  0  0
   -7.3663   19.1108  -32.2851 H   0  0  0  0  0  0  0  0  0  0  0  0
   -7.5489   20.0392  -33.7659 H   0  0  0  0  0  0  0  0  0  0  0  0
   -4.1360   22.0602  -27.6060 H   0  0  0  0  0  0  0  0  0  0  0  0
   -2.0536   20.3149  -26.3460 H   0  0  0  0  0  0  0  0  0  0  0  0
   -2.9121   19.9154  -27.9005 H   0  0  0  0  0  0  0  0  0  0  0  0
  1  2  1  0
  2  3  1  0
  3  4  1  0
  4  5  1  0
  5  6  2  0
  6  7  1  0
  7  8  1  0
  7  9  2  0
  9 10  1  0
 10 11  1  0
 11 12  2  0
 11 13  2  0
 11 14  1  0
 14 15  2  0
 15 16  1  0
 16 17  2  0
 17 18  1  0
 18 19  2  0
 18 20  1  0
 20 21  1  0
 21 22  1  0
  9 23  1  0
 23 24  2  0
 24 25  1  0
 25  2  1  0
 24  5  1  0
 19 14  1  0
 22 17  1  0
  1 26  1  0
  1 27  1  0
  1 28  1  0
  3 29  1  0
  3 30  1  0
  4 31  1  0
  4 32  1  0
  6 33  1  0
 10 34  1  0
 15 35  1  0
 16 36  1  0
 19 37  1  0
 20 38  1  0
 20 39  1  0
 21 40  1  0
 21 41  1  0
 22 42  1  0
 22 43  1  0
 23 44  1  0
 25 45  1  0
 25 46  1  0
M  CHG  1   8  -1
M  END
>  <UniqueID>  (27) 
27

>  <SMILES>  (27) 
CN1CCc2cc([O-])c(NS(=O)(=O)c3ccc4c(c3)CCC4)cc2C1

>  <Energy>  (27) 
62.54220687215263

>  <Genealogy>  (27) 
CN1CCc2cc([O-])c(NS(=O)(=O)c3ccc4c(c3)CCC4)cc2C1 (protonated)
CN1CCc2cc([O-])c(NS(=O)(=O)c3ccc4c(c3)CCC4)cc2C1 (3D coordinates assigned)
CN1CCc2cc([O-])c(NS(=O)(=O)c3ccc4c(c3)CCC4)cc2C1 (nonaromatic ring conformer: 62.54220687215263 kcal/mol)

>  <smiles>  (27) 
CN1CCc2cc(O)c(NS(=O)(=O)c3ccc4c(c3)CCC4)cc2C1

>  <score_type>  (27) 
oracle

>  <origin>  (27) 
adgpu

>  <m_score__min__energy>  (27) 
-13.119999999999999

>  <m_primary>  (27) 
energy

$$$$
27:0
     RDKit          3D

 33 34  0  0  0  0  0  0  0  0999 V2000
   -8.7670   22.1360  -29.7960 H   0  0  0  0  0  0  0  0  0  0  0  0
   -7.8640   22.1700  -29.3410 O   0  0  0  0  0  0  0  0  0  0  0  0
   -6.8340   23.0100  -29.7690 C   0  0  0  0  0  0  0  0  0  0  0  0
   -5.6600   23.0620  -29.0100 C   0  0  0  0  0  0  0  0  0  0  0  0
   -5.5518   22.4084  -28.1318 H   0  0  0  0  0  0  0  0  0  0  0  0
   -4.6140   23.9410  -29.3560 C   0  0  0  0  0  0  0  0  0  0  0  0
   -3.4000   24.0040  -28.5790 N   0  0  0  0  0  0  0  0  0  0  0  0
   -3.1090   24.9250  -28.1800 H   0  0  0  0  0  0  0  0  0  0  0  0
   -2.5480   22.8390  -28.3250 C   0  0  0  0  0  0  0  0  0  0  0  0
   -3.0173   22.2123  -27.5523 H   0  0  0  0  0  0  0  0  0  0  0  0
   -1.5623   23.1936  -27.9892 H   0  0  0  0  0  0  0  0  0  0  0  0
   -2.3590   22.0100  -29.5920 C   0  0  0  0  0  0  0  0  0  0  0  0
   -2.1222   20.9712  -29.3185 H   0  0  0  0  0  0  0  0  0  0  0  0
   -3.2850   22.0310  -30.1854 H   0  0  0  0  0  0  0  0  0  0  0  0
   -1.5336   22.4302  -30.1854 H   0  0  0  0  0  0  0  0  0  0  0  0
   -4.7720   24.7750  -30.4780 C   0  0  0  0  0  0  0  0  0  0  0  0
   -3.7710   25.6680  -30.8440 O   0  0  0  0  0  0  0  0  0  0  0  0
   -5.9400   24.7150  -31.2450 C   0  0  0  0  0  0  0  0  0  0  0  0
   -6.0580   25.3832  -32.1108 H   0  0  0  0  0  0  0  0  0  0  0  0
   -6.9590   23.8140  -30.9220 C   0  0  0  0  0  0  0  0  0  0  0  0
   -8.1200   23.7610  -31.7630 N   0  0  0  0  0  0  0  0  0  0  0  0
   -8.6290   22.6950  -32.3150 C   0  0  0  0  0  0  0  0  0  0  0  0
   -9.5698   22.8035  -32.8745 H   0  0  0  0  0  0  0  0  0  0  0  0
   -8.0200   21.3470  -32.2360 C   0  0  0  0  0  0  0  0  0  0  0  0
   -8.7900   20.2790  -31.7520 C   0  0  0  0  0  0  0  0  0  0  0  0
   -9.8264   20.4476  -31.4242 H   0  0  0  0  0  0  0  0  0  0  0  0
   -8.2320   19.0000  -31.6890 C   0  0  0  0  0  0  0  0  0  0  0  0
   -8.8250   18.1619  -31.2941 H   0  0  0  0  0  0  0  0  0  0  0  0
   -6.9590   18.7880  -32.1140 N   0  0  0  0  0  0  0  0  0  0  0  0
   -6.1970   19.8000  -32.6120 C   0  0  0  0  0  0  0  0  0  0  0  0
   -5.1703   19.5982  -32.9513 H   0  0  0  0  0  0  0  0  0  0  0  0
   -6.7160   21.0940  -32.6930 C   0  0  0  0  0  0  0  0  0  0  0  0
   -6.1079   21.9094  -33.1117 H   0  0  0  0  0  0  0  0  0  0  0  0
  1  2  1  0
  2  3  1  0
  3  4  2  0
  4  5  1  0
  4  6  1  0
  6  7  1  0
  7  8  1  0
  7  9  1  0
  9 10  1  0
  9 11  1  0
  9 12  1  0
 12 13  1  0
 12 14  1  0
 12 15  1  0
  6 16  2  0
 16 17  1  0
 16 18  1  0
 18 19  1  0
 18 20  2  0
 20 21  1  0
 21 22  2  0
 22 23  1  0
 22 24  1  0
 24 25  2  0
 25 26  1  0
 25 27  1  0
 27 28  1  0
 27 29  2  0
 29 30  1  0
 30 31  1  0
 30 32  2  0
 32 33  1  0
 20  3  1  0
 32 24  1  0
M  CHG  1  17  -1
M  END
>  <UniqueID>  (28) 
28

>  <SMILES>  (28) 
CCNc1cc(O)c(/N=C\c2ccncc2)cc1[O-]

>  <Energy>  (28) 
44.88726282113858

>  <Genealogy>  (28) 
CCNc1cc(O)c(N=Cc2ccncc2)cc1[O-] (protonated)
CCNc1cc(O)c(/N=C\c2ccncc2)cc1[O-] (cis-trans isomerization)
CCNc1cc(O)c(/N=C\c2ccncc2)cc1[O-] (3D coordinates assigned)
CCNc1cc(O)c(/N=C\c2ccncc2)cc1[O-] (optimized conformer: 44.88726282113858 kcal/mol)

>  <smiles>  (28) 
CCNc1cc(O)c(N=Cc2ccncc2)cc1O

>  <score_type>  (28) 
oracle

>  <origin>  (28) 
adgpu

>  <m_score__min__energy>  (28) 
-8.6099999999999994

>  <m_primary>  (28) 
energy

$$$$
28:0
     RDKit          3D

 50 52  0  0  0  0  0  0  0  0999 V2000
   -2.5680   19.6690  -32.8630 C   0  0  0  0  0  0  0  0  0  0  0  0
   -4.3290   19.9120  -32.7720 S   0  0  0  0  0  0  0  0  0  0  0  0
   -4.6810   20.4280  -31.4030 O   0  0  0  0  0  0  0  0  0  0  0  0
   -4.7550   20.9300  -33.7930 O   0  0  0  0  0  0  0  0  0  0  0  0
   -5.1570   18.3800  -33.0810 C   0  0  0  0  0  0  0  0  0  0  0  0
   -4.4380   17.1770  -32.9910 C   0  0  0  0  0  0  0  0  0  0  0  0
   -5.0730   15.9440  -33.1960 C   0  0  0  0  0  0  0  0  0  0  0  0
   -4.3100   14.6830  -33.0900 C   0  0  0  0  0  0  0  0  0  0  0  0
   -4.2450   14.1030  -31.9750 O   0  0  0  0  0  0  0  0  0  0  0  0
   -3.6690   14.0920  -34.2360 N   0  0  0  0  0  0  0  0  0  0  0  0
   -2.8910   14.9350  -35.1620 C   0  0  0  0  0  0  0  0  0  0  0  0
   -2.7430   14.2970  -36.5620 C   0  0  0  0  0  0  0  0  0  0  0  0
   -3.3530   13.0240  -36.6760 O   0  0  0  0  0  0  0  0  0  0  0  0
   -2.9200   12.1930  -35.6210 C   0  0  0  0  0  0  0  0  0  0  0  0
   -3.6020   12.6280  -34.3260 C   0  0  0  0  0  0  0  0  0  0  0  0
   -6.4330   15.9210  -33.5320 C   0  0  0  0  0  0  0  0  0  0  0  0
   -7.1560   17.1130  -33.6270 C   0  0  0  0  0  0  0  0  0  0  0  0
   -6.5300   18.3500  -33.3980 C   0  0  0  0  0  0  0  0  0  0  0  0
   -7.2610   19.5830  -33.4850 N   0  0  0  0  0  0  0  0  0  0  0  0
   -8.1790   20.2830  -32.1910 S   0  0  0  0  0  0  0  0  0  0  0  0
   -9.5550   20.6250  -32.6880 O   0  0  0  0  0  0  0  0  0  0  0  0
   -8.2960   19.2880  -31.0690 O   0  0  0  0  0  0  0  0  0  0  0  0
   -7.3880   21.7590  -31.6460 C   0  0  0  0  0  0  0  0  0  0  0  0
   -7.4580   22.1240  -30.2960 C   0  0  0  0  0  0  0  0  0  0  0  0
   -6.8630   23.3090  -29.8540 C   0  0  0  0  0  0  0  0  0  0  0  0
   -6.1860   24.1470  -30.7580 C   0  0  0  0  0  0  0  0  0  0  0  0
   -5.5620   25.4100  -30.2970 C   0  0  0  0  0  0  0  0  0  0  0  0
   -4.1740   25.6610  -30.5220 N   0  0  0  0  0  0  0  0  0  0  0  0
   -6.2530   26.2770  -29.6950 O   0  0  0  0  0  0  0  0  0  0  0  0
   -6.1130   23.7700  -32.1120 C   0  0  0  0  0  0  0  0  0  0  0  0
   -6.7100   22.5840  -32.5510 C   0  0  0  0  0  0  0  0  0  0  0  0
   -2.1527   19.6117  -31.8460 H   0  0  0  0  0  0  0  0  0  0  0  0
   -2.3543   18.7329  -33.3996 H   0  0  0  0  0  0  0  0  0  0  0  0
   -2.1087   20.5123  -33.3996 H   0  0  0  0  0  0  0  0  0  0  0  0
   -3.3635   17.2025  -32.7568 H   0  0  0  0  0  0  0  0  0  0  0  0
   -3.3998   15.9045  -35.2683 H   0  0  0  0  0  0  0  0  0  0  0  0
   -1.8820   15.0515  -34.7398 H   0  0  0  0  0  0  0  0  0  0  0  0
   -3.2034   14.9698  -37.3005 H   0  0  0  0  0  0  0  0  0  0  0  0
   -1.6665   14.1540  -36.7374 H   0  0  0  0  0  0  0  0  0  0  0  0
   -3.1845   11.1486  -35.8431 H   0  0  0  0  0  0  0  0  0  0  0  0
   -1.8288   12.2760  -35.5096 H   0  0  0  0  0  0  0  0  0  0  0  0
   -4.6226   12.2184  -34.3012 H   0  0  0  0  0  0  0  0  0  0  0  0
   -3.0158   12.2498  -33.4755 H   0  0  0  0  0  0  0  0  0  0  0  0
   -6.9339   14.9602  -33.7219 H   0  0  0  0  0  0  0  0  0  0  0  0
   -8.2253   17.0827  -33.8835 H   0  0  0  0  0  0  0  0  0  0  0  0
   -7.9837   21.4752  -29.5800 H   0  0  0  0  0  0  0  0  0  0  0  0
   -6.9247   23.5880  -28.7918 H   0  0  0  0  0  0  0  0  0  0  0  0
   -3.4950   25.6710  -29.7270 H   0  0  0  0  0  0  0  0  0  0  0  0
   -5.5826   24.4128  -32.8300 H   0  0  0  0  0  0  0  0  0  0  0  0
   -6.6465   22.2984  -33.6114 H   0  0  0  0  0  0  0  0  0  0  0  0
  1  2  1  0
  2  3  2  0
  2  4  2  0
  2  5  1  0
  5  6  2  0
  6  7  1  0
  7  8  1  0
  8  9  2  0
  8 10  1  0
 10 11  1  0
 11 12  1  0
 12 13  1  0
 13 14  1  0
 14 15  1  0
  7 16  2  0
 16 17  1  0
 17 18  2  0
 18 19  1  0
 19 20  1  0
 20 21  2  0
 20 22  2  0
 20 23  1  0
 23 24  2  0
 24 25  1  0
 25 26  2  0
 26 27  1  0
 27 28  1  0
 27 29  2  0
 26 30  1  0
 30 31  2  0
 18  5  1  0
 31 23  1  0
 15 10  1  0
  1 32  1  0
  1 33  1  0
  1 34  1  0
  6 35  1  0
 11 36  1  0
 11 37  1  0
 12 38  1  0
 12 39  1  0
 14 40  1  0
 14 41  1  0
 15 42  1  0
 15 43  1  0
 16 44  1  0
 17 45  1  0
 24 46  1  0
 25 47  1  0
 28 48  1  0
 30 49  1  0
 31 50  1  0
M  CHG  2  19  -1  28  -1
M  END
>  <UniqueID>  (29) 
29

>  <SMILES>  (29) 
CS(=O)(=O)c1cc(C(=O)N2CCOCC2)ccc1[N-]S(=O)(=O)c1ccc(C([NH-])=O)cc1

>  <Energy>  (29) 
63.831356049687024

>  <Genealogy>  (29) 
CS(=O)(=O)c1cc(C(=O)N2CCOCC2)ccc1[N-]S(=O)(=O)c1ccc(C([NH-])=O)cc1 (protonated)
CS(=O)(=O)c1cc(C(=O)N2CCOCC2)ccc1[N-]S(=O)(=O)c1ccc(C([NH-])=O)cc1 (3D coordinates assigned)
CS(=O)(=O)c1cc(C(=O)N2CCOCC2)ccc1[N-]S(=O)(=O)c1ccc(C([NH-])=O)cc1 (nonaromatic ring conformer: 63.831356049687024 kcal/mol)

>  <smiles>  (29) 
CS(=O)(=O)c1cc(C(=O)N2CCOCC2)ccc1NS(=O)(=O)c1ccc(C(N)=O)cc1

>  <score_type>  (29) 
oracle

>  <origin>  (29) 
adgpu

>  <m_score__min__energy>  (29) 
-11.59

>  <m_primary>  (29) 
energy

$$$$
29:0
     RDKit          3D

 58 61  0  0  0  0  0  0  0  0999 V2000
   -3.9330   25.6790  -30.8450 O   0  0  0  0  0  0  0  0  0  0  0  0
   -4.0580   24.5550  -30.2650 C   0  0  0  0  0  0  0  0  0  0  0  0
   -3.6260   24.3970  -28.8960 N   0  0  0  0  0  0  0  0  0  0  0  0
   -2.8830   23.2570  -28.4390 C   0  0  0  0  0  0  0  0  0  0  0  0
   -3.4820   21.9900  -28.4600 C   0  0  0  0  0  0  0  0  0  0  0  0
   -2.7880   20.8730  -28.0030 C   0  0  0  0  0  0  0  0  0  0  0  0
   -1.4790   21.0130  -27.5110 C   0  0  0  0  0  0  0  0  0  0  0  0
   -0.7750   19.9090  -27.0250 O   0  0  0  0  0  0  0  0  0  0  0  0
   -0.8700   22.2710  -27.5050 C   0  0  0  0  0  0  0  0  0  0  0  0
   -1.5620   23.4010  -27.9640 C   0  0  0  0  0  0  0  0  0  0  0  0
   -0.7530   24.9770  -27.9420 S   0  0  0  0  0  0  0  0  0  0  0  0
   -1.2340   25.7750  -29.1260 O   0  0  0  0  0  0  0  0  0  0  0  0
    0.7280   24.7940  -28.0990 O   0  0  0  0  0  0  0  0  0  0  0  0
   -1.0550   25.8600  -26.4590 N   0  0  0  0  0  0  0  0  0  0  0  0
   -0.4870   27.2180  -26.5310 C   0  0  0  0  0  0  0  0  0  0  0  0
   -0.7320   27.9840  -25.2120 C   0  0  0  0  0  0  0  0  0  0  0  0
   -1.2840   27.1620  -24.2050 O   0  0  0  0  0  0  0  0  0  0  0  0
   -0.4910   26.0040  -24.0390 C   0  0  0  0  0  0  0  0  0  0  0  0
   -0.5200   25.1240  -25.3010 C   0  0  0  0  0  0  0  0  0  0  0  0
   -4.7610   23.4650  -30.9540 C   0  0  0  0  0  0  0  0  0  0  0  0
   -6.1070   23.1970  -30.6420 C   0  0  0  0  0  0  0  0  0  0  0  0
   -6.7580   22.1090  -31.2280 C   0  0  0  0  0  0  0  0  0  0  0  0
   -6.0710   21.2670  -32.1100 C   0  0  0  0  0  0  0  0  0  0  0  0
   -6.8750   19.8770  -32.8290 S   0  0  0  0  0  0  0  0  0  0  0  0
   -8.2960   19.8530  -32.3460 O   0  0  0  0  0  0  0  0  0  0  0  0
   -6.8690   20.0090  -34.3260 O   0  0  0  0  0  0  0  0  0  0  0  0
   -6.0670   18.4060  -32.3390 N   0  0  0  0  0  0  0  0  0  0  0  0
   -4.6630   18.3570  -32.7900 C   0  0  0  0  0  0  0  0  0  0  0  0
   -4.5370   17.8780  -34.2480 C   0  0  0  0  0  0  0  0  0  0  0  0
   -5.1710   16.6320  -34.4250 O   0  0  0  0  0  0  0  0  0  0  0  0
   -6.5530   16.7740  -34.1790 C   0  0  0  0  0  0  0  0  0  0  0  0
   -6.8200   17.1960  -32.7220 C   0  0  0  0  0  0  0  0  0  0  0  0
   -4.7240   21.5340  -32.4210 C   0  0  0  0  0  0  0  0  0  0  0  0
   -4.0690   22.6350  -31.8520 C   0  0  0  0  0  0  0  0  0  0  0  0
   -4.5080   21.8774  -28.8404 H   0  0  0  0  0  0  0  0  0  0  0  0
   -3.2639   19.8815  -28.0270 H   0  0  0  0  0  0  0  0  0  0  0  0
   -1.2340   19.1800  -26.4860 H   0  0  0  0  0  0  0  0  0  0  0  0
    0.1613   22.3756  -27.1369 H   0  0  0  0  0  0  0  0  0  0  0  0
    0.5958   27.1472  -26.7115 H   0  0  0  0  0  0  0  0  0  0  0  0
   -0.9764   27.7626  -27.3519 H   0  0  0  0  0  0  0  0  0  0  0  0
    0.2274   28.3854  -24.8535 H   0  0  0  0  0  0  0  0  0  0  0  0
   -1.4534   28.7878  -25.4207 H   0  0  0  0  0  0  0  0  0  0  0  0
    0.5470   26.3061  -23.8360 H   0  0  0  0  0  0  0  0  0  0  0  0
   -0.8968   25.4215  -23.1988 H   0  0  0  0  0  0  0  0  0  0  0  0
    0.5038   24.7929  -25.5297 H   0  0  0  0  0  0  0  0  0  0  0  0
   -1.1755   24.2624  -25.1064 H   0  0  0  0  0  0  0  0  0  0  0  0
   -6.6469   23.8451  -29.9359 H   0  0  0  0  0  0  0  0  0  0  0  0
   -7.8151   21.9131  -30.9953 H   0  0  0  0  0  0  0  0  0  0  0  0
   -4.2296   19.3648  -32.7095 H   0  0  0  0  0  0  0  0  0  0  0  0
   -4.1279   17.6390  -32.1511 H   0  0  0  0  0  0  0  0  0  0  0  0
   -5.0066   18.6185  -34.9121 H   0  0  0  0  0  0  0  0  0  0  0  0
   -3.4698   17.7666  -34.4901 H   0  0  0  0  0  0  0  0  0  0  0  0
   -6.9606   17.5403  -34.8547 H   0  0  0  0  0  0  0  0  0  0  0  0
   -7.0392   15.8030  -34.3546 H   0  0  0  0  0  0  0  0  0  0  0  0
   -7.8950   17.3970  -32.6039 H   0  0  0  0  0  0  0  0  0  0  0  0
   -6.4890   16.3748  -32.0693 H   0  0  0  0  0  0  0  0  0  0  0  0
   -4.1822   20.8745  -33.1149 H   0  0  0  0  0  0  0  0  0  0  0  0
   -3.0203   22.8477  -32.1068 H   0  0  0  0  0  0  0  0  0  0  0  0
  1  2  2  0
  2  3  1  0
  3  4  1  0
  4  5  2  0
  5  6  1  0
  6  7  2  0
  7  8  1  0
  7  9  1  0
  9 10  2  0
 10 11  1  0
 11 12  2  0
 11 13  2  0
 11 14  1  0
 14 15  1  0
 15 16  1  0
 16 17  1  0
 17 18  1  0
 18 19  1  0
  2 20  1  0
 20 21  2  0
 21 22  1  0
 22 23  2  0
 23 24  1  0
 24 25  2  0
 24 26  2  0
 24 27  1  0
 27 28  1  0
 28 29  1  0
 29 30  1  0
 30 31  1  0
 31 32  1  0
 23 33  1  0
 33 34  2  0
 10  4  1  0
 19 14  1  0
 34 20  1  0
 32 27  1  0
  5 35  1  0
  6 36  1  0
  8 37  1  0
  9 38  1  0
 15 39  1  0
 15 40  1  0
 16 41  1  0
 16 42  1  0
 18 43  1  0
 18 44  1  0
 19 45  1  0
 19 46  1  0
 21 47  1  0
 22 48  1  0
 28 49  1  0
 28 50  1  0
 29 51  1  0
 29 52  1  0
 31 53  1  0
 31 54  1  0
 32 55  1  0
 32 56  1  0
 33 57  1  0
 34 58  1  0
M  CHG  1   3  -1
M  END
>  <UniqueID>  (30) 
30

>  <SMILES>  (30) 
O=C([N-]c1ccc(O)cc1S(=O)(=O)N1CCOCC1)c1ccc(S(=O)(=O)N2CCOCC2)cc1

>  <Energy>  (30) 
87.52112192356061

>  <Genealogy>  (30) 
O=C([N-]c1ccc(O)cc1S(=O)(=O)N1CCOCC1)c1ccc(S(=O)(=O)N2CCOCC2)cc1 (protonated)
O=C([N-]c1ccc(O)cc1S(=O)(=O)N1CCOCC1)c1ccc(S(=O)(=O)N2CCOCC2)cc1 (3D coordinates assigned)
O=C([N-]c1ccc(O)cc1S(=O)(=O)N1CCOCC1)c1ccc(S(=O)(=O)N2CCOCC2)cc1 (nonaromatic ring conformer: 87.52112192356061 kcal/mol)

>  <smiles>  (30) 
O=C(Nc1ccc(O)cc1S(=O)(=O)N1CCOCC1)c1ccc(S(=O)(=O)N2CCOCC2)cc1

>  <score_type>  (30) 
oracle

>  <origin>  (30) 
adgpu

>  <m_score__min__energy>  (30) 
-12.039999999999999

>  <m_primary>  (30) 
energy

$$$$
30:0
     RDKit          3D

 40 42  0  0  0  0  0  0  0  0999 V2000
   -8.5470   22.5220  -31.2340 C   0  0  0  0  0  0  0  0  0  0  0  0
   -7.1120   22.2760  -31.5770 C   0  0  0  0  0  0  0  0  0  0  0  0
   -6.1230   23.1660  -31.1650 C   0  0  0  0  0  0  0  0  0  0  0  0
   -4.7780   22.9010  -31.4500 C   0  0  0  0  0  0  0  0  0  0  0  0
   -3.7780   23.8120  -30.8580 C   0  0  0  0  0  0  0  0  0  0  0  0
   -4.0310   25.0450  -30.7790 O   0  0  0  0  0  0  0  0  0  0  0  0
   -2.5400   23.2850  -30.3630 N   0  0  0  0  0  0  0  0  0  0  0  0
   -2.1240   23.2170  -28.9910 C   0  0  0  0  0  0  0  0  0  0  0  0
   -2.0860   21.9990  -28.2870 C   0  0  0  0  0  0  0  0  0  0  0  0
   -1.6540   21.9650  -26.9580 C   0  0  0  0  0  0  0  0  0  0  0  0
   -1.6110   20.4430  -26.0860 Cl  0  0  0  0  0  0  0  0  0  0  0  0
   -1.2440   23.1420  -26.3250 C   0  0  0  0  0  0  0  0  0  0  0  0
   -1.2560   24.3510  -27.0240 C   0  0  0  0  0  0  0  0  0  0  0  0
   -1.6880   24.3920  -28.3570 C   0  0  0  0  0  0  0  0  0  0  0  0
   -1.6950   25.5990  -29.0570 O   0  0  0  0  0  0  0  0  0  0  0  0
   -4.4400   21.7410  -32.2090 C   0  0  0  0  0  0  0  0  0  0  0  0
   -3.1350   21.4380  -32.6530 C   0  0  0  0  0  0  0  0  0  0  0  0
   -2.2010   22.2750  -32.5050 O   0  0  0  0  0  0  0  0  0  0  0  0
   -2.8770   20.2480  -33.2800 N   0  0  0  0  0  0  0  0  0  0  0  0
   -1.4990   19.9240  -33.6970 C   0  0  0  0  0  0  0  0  0  0  0  0
   -3.9020   19.3940  -33.5950 C   0  0  0  0  0  0  0  0  0  0  0  0
   -3.6490   18.3090  -34.1940 O   0  0  0  0  0  0  0  0  0  0  0  0
   -5.1970   19.7090  -33.2770 N   0  0  0  0  0  0  0  0  0  0  0  0
   -6.2910   18.7820  -33.6240 C   0  0  0  0  0  0  0  0  0  0  0  0
   -5.4760   20.8530  -32.5770 C   0  0  0  0  0  0  0  0  0  0  0  0
   -6.7650   21.1480  -32.2450 N   0  0  0  0  0  0  0  0  0  0  0  0
   -8.6644   22.5421  -30.1405 H   0  0  0  0  0  0  0  0  0  0  0  0
   -8.8642   23.4876  -31.6546 H   0  0  0  0  0  0  0  0  0  0  0  0
   -9.1677   21.7172  -31.6546 H   0  0  0  0  0  0  0  0  0  0  0  0
   -6.3988   24.0779  -30.6152 H   0  0  0  0  0  0  0  0  0  0  0  0
   -2.3978   21.0691  -28.7850 H   0  0  0  0  0  0  0  0  0  0  0  0
   -0.9120   23.1159  -25.2766 H   0  0  0  0  0  0  0  0  0  0  0  0
   -0.9252   25.2747  -26.5266 H   0  0  0  0  0  0  0  0  0  0  0  0
   -2.1060   25.6750  -29.9790 H   0  0  0  0  0  0  0  0  0  0  0  0
   -0.8713   19.7764  -32.8058 H   0  0  0  0  0  0  0  0  0  0  0  0
   -1.5048   19.0027  -34.2980 H   0  0  0  0  0  0  0  0  0  0  0  0
   -1.0937   20.7513  -34.2980 H   0  0  0  0  0  0  0  0  0  0  0  0
   -6.7490   18.3939  -32.7022 H   0  0  0  0  0  0  0  0  0  0  0  0
   -7.0505   19.3157  -34.2142 H   0  0  0  0  0  0  0  0  0  0  0  0
   -5.8892   17.9452  -34.2142 H   0  0  0  0  0  0  0  0  0  0  0  0
  1  2  1  0
  2  3  2  0
  3  4  1  0
  4  5  1  0
  5  6  2  0
  5  7  1  0
  7  8  1  0
  8  9  2  0
  9 10  1  0
 10 11  1  0
 10 12  2  0
 12 13  1  0
 13 14  2  0
 14 15  1  0
  4 16  2  0
 16 17  1  0
 17 18  2  0
 17 19  1  0
 19 20  1  0
 19 21  1  0
 21 22  2  0
 21 23  1  0
 23 24  1  0
 23 25  1  0
 25 26  2  0
 26  2  1  0
 14  8  1  0
 25 16  1  0
  1 27  1  0
  1 28  1  0
  1 29  1  0
  3 30  1  0
  9 31  1  0
 12 32  1  0
 13 33  1  0
 15 34  1  0
 20 35  1  0
 20 36  1  0
 20 37  1  0
 24 38  1  0
 24 39  1  0
 24 40  1  0
M  CHG  1   7  -1
M  END
>  <UniqueID>  (31) 
31

>  <SMILES>  (31) 
Cc1cc(C(=O)[N-]c2cc(Cl)ccc2O)c2c(=O)n(C)c(=O)n(C)c2n1

>  <Energy>  (31) 
66.84303153703792

>  <Genealogy>  (31) 
Cc1cc(C(=O)[N-]c2cc(Cl)ccc2O)c2c(=O)n(C)c(=O)n(C)c2n1 (protonated)
Cc1cc(C(=O)[N-]c2cc(Cl)ccc2O)c2c(=O)n(C)c(=O)n(C)c2n1 (3D coordinates assigned)
Cc1cc(C(=O)[N-]c2cc(Cl)ccc2O)c2c(=O)n(C)c(=O)n(C)c2n1 (optimized conformer: 66.84303153703792 kcal/mol)

>  <smiles>  (31) 
Cc1cc(C(=O)Nc2cc(Cl)ccc2O)c2c(=O)n(C)c(=O)n(C)c2n1

>  <score_type>  (31) 
oracle

>  <origin>  (31) 
adgpu

>  <m_score__min__energy>  (31) 
-10.630000000000001

>  <m_primary>  (31) 
energy

$$$$
31:0
     RDKit          3D

 60 64  0  0  1  0  0  0  0  0999 V2000
   -5.8730   20.2110  -31.2230 C   0  0  0  0  0  0  0  0  0  0  0  0
   -6.4930   19.3650  -32.3160 C   0  0  0  0  0  0  0  0  0  0  0  0
   -6.0180   19.8560  -33.6350 C   0  0  0  0  0  0  0  0  0  0  0  0
   -5.8540   18.8420  -34.7130 C   0  0  0  0  0  0  0  0  0  0  0  0
   -5.6410   17.5060  -34.3430 N   0  0  0  0  0  0  0  0  0  0  0  0
   -4.0900   16.8620  -34.4550 S   0  0  0  0  0  0  0  0  0  0  0  0
   -3.8840   15.6340  -33.6080 O   0  0  0  0  0  0  0  0  0  0  0  0
   -3.8750   16.4440  -35.9080 O   0  0  0  0  0  0  0  0  0  0  0  0
   -2.7940   17.9740  -34.1020 C   0  0  0  0  0  0  0  0  0  0  0  0
   -2.9760   19.0260  -33.2310 C   0  0  0  0  0  0  0  0  0  0  0  0
   -1.9330   19.8590  -33.0070 C   0  0  0  0  0  0  0  0  0  0  0  0
   -2.1070   20.9630  -32.0990 C   0  0  0  0  0  0  0  0  0  0  0  0
   -1.4090   21.4760  -31.0570 C   0  0  0  0  0  0  0  0  0  0  0  0
   -1.9170   22.5590  -30.4340 C   0  0  0  0  0  0  0  0  0  0  0  0
   -1.3660   23.2330  -29.3580 N   0  0  0  0  0  0  0  0  0  0  0  0
   -1.9630   24.2860  -28.8330 C   0  0  0  0  0  0  0  0  0  0  0  0
   -3.1250   24.8230  -29.2480 N   0  0  0  0  0  0  0  0  0  0  0  0
   -3.7020   24.1820  -30.3140 C   0  0  0  0  0  0  0  0  0  0  0  0
   -4.7890   24.5650  -30.8150 N   0  0  0  0  0  0  0  0  0  0  0  0
   -5.5620   24.0770  -31.8920 C   0  0  0  0  0  0  0  0  0  0  0  0
   -6.7590   23.2970  -31.4530 C   0  0  0  0  0  0  0  0  0  0  0  0
   -7.7020   22.8040  -32.3460 C   0  0  0  0  0  0  0  0  0  0  0  0
   -8.8090   22.0880  -31.9610 C   0  0  0  0  0  0  0  0  0  0  0  0
   -9.0400   21.8200  -30.6320 C   0  0  0  0  0  0  0  0  0  0  0  0
   -8.1300   22.2920  -29.7140 C   0  0  0  0  0  0  0  0  0  0  0  0
   -7.0090   23.0170  -30.1160 C   0  0  0  0  0  0  0  0  0  0  0  0
   -3.0880   23.0690  -30.8810 C   0  0  0  0  0  0  0  0  0  0  0  0
   -3.5630   22.0950  -32.1830 S   0  0  0  0  0  0  0  0  0  0  0  0
   -0.7390   19.6380  -33.6480 C   0  0  0  0  0  0  0  0  0  0  0  0
   -0.5230   18.5980  -34.5250 C   0  0  0  0  0  0  0  0  0  0  0  0
   -1.5830   17.7460  -34.7550 C   0  0  0  0  0  0  0  0  0  0  0  0
   -1.4380   16.6710  -35.6300 O   0  0  0  0  0  0  0  0  0  0  0  0
   -6.3680   17.0440  -33.2300 C   0  0  0  0  0  0  0  0  0  0  0  0
   -6.1190   17.9270  -32.0420 C   0  0  0  0  0  0  0  0  0  0  0  0
   -6.1653   19.8122  -30.2404 H   0  0  0  0  0  0  0  0  0  0  0  0
   -4.7773   20.1866  -31.3175 H   0  0  0  0  0  0  0  0  0  0  0  0
   -6.2262   21.2485  -31.3175 H   0  0  0  0  0  0  0  0  0  0  0  0
   -7.5906   19.4355  -32.3328 H   0  0  0  0  0  0  0  0  0  0  0  0
   -6.7410   20.6049  -33.9906 H   0  0  0  0  0  0  0  0  0  0  0  0
   -5.0051   20.2424  -33.4489 H   0  0  0  0  0  0  0  0  0  0  0  0
   -6.7667   18.8684  -35.3264 H   0  0  0  0  0  0  0  0  0  0  0  0
   -4.9232   19.1344  -35.2211 H   0  0  0  0  0  0  0  0  0  0  0  0
   -3.9429   19.1846  -32.7311 H   0  0  0  0  0  0  0  0  0  0  0  0
   -0.4605   21.0246  -30.7304 H   0  0  0  0  0  0  0  0  0  0  0  0
   -1.4658   24.7687  -27.9787 H   0  0  0  0  0  0  0  0  0  0  0  0
   -3.5740   25.6550  -28.8160 H   0  0  0  0  0  0  0  0  0  0  0  0
   -5.9037   24.9327  -32.4928 H   0  0  0  0  0  0  0  0  0  0  0  0
   -4.9219   23.3946  -32.4704 H   0  0  0  0  0  0  0  0  0  0  0  0
   -7.5542   22.9974  -33.4187 H   0  0  0  0  0  0  0  0  0  0  0  0
   -9.5164   21.7260  -32.7216 H   0  0  0  0  0  0  0  0  0  0  0  0
   -9.9233   21.2471  -30.3133 H   0  0  0  0  0  0  0  0  0  0  0  0
   -8.2899   22.0938  -28.6439 H   0  0  0  0  0  0  0  0  0  0  0  0
   -6.3031   23.3771  -29.3531 H   0  0  0  0  0  0  0  0  0  0  0  0
    0.0922   20.3308  -33.4499 H   0  0  0  0  0  0  0  0  0  0  0  0
    0.4493   18.4537  -35.0188 H   0  0  0  0  0  0  0  0  0  0  0  0
   -2.2390   16.0840  -35.8840 H   0  0  0  0  0  0  0  0  0  0  0  0
   -7.4416   17.0518  -33.4692 H   0  0  0  0  0  0  0  0  0  0  0  0
   -6.0428   16.0210  -32.9898 H   0  0  0  0  0  0  0  0  0  0  0  0
   -6.7174   17.5598  -31.1952 H   0  0  0  0  0  0  0  0  0  0  0  0
   -5.0434   17.8937  -31.8140 H   0  0  0  0  0  0  0  0  0  0  0  0
  1  2  1  0
  2  3  1  0
  3  4  1  0
  4  5  1  0
  5  6  1  0
  6  7  2  0
  6  8  2  0
  6  9  1  0
  9 10  2  0
 10 11  1  0
 11 12  1  0
 12 13  2  0
 13 14  1  0
 14 15  1  0
 15 16  2  0
 16 17  1  0
 17 18  1  0
 18 19  2  0
 19 20  1  0
 20 21  1  0
 21 22  2  0
 22 23  1  0
 23 24  2  0
 24 25  1  0
 25 26  2  0
 18 27  1  0
 27 28  1  0
 11 29  2  0
 29 30  1  0
 30 31  2  0
 31 32  1  0
  5 33  1  0
 33 34  1  0
 34  2  1  0
 31  9  1  0
 28 12  1  0
 27 14  2  0
 26 21  1  0
  1 35  1  0
  1 36  1  0
  1 37  1  0
  2 38  1  0
  3 39  1  0
  3 40  1  0
  4 41  1  0
  4 42  1  0
 10 43  1  0
 13 44  1  0
 16 45  1  0
 17 46  1  0
 20 47  1  0
 20 48  1  0
 22 49  1  0
 23 50  1  0
 24 51  1  0
 25 52  1  0
 26 53  1  0
 29 54  1  0
 30 55  1  0
 32 56  1  0
 33 57  1  0
 33 58  1  0
 34 59  1  0
 34 60  1  0
M  END
>  <smiles>  (32) 
CC1CCN(S(=O)(=O)c2cc(-c3cc4nc[nH]c(=NCc5ccccc5)c4s3)ccc2O)CC1

>  <score_type>  (32) 
oracle

>  <origin>  (32) 
adgpu

>  <m_score__min__energy>  (32) 
-10.9

>  <m_primary>  (32) 
energy

$$$$
32:0
     RDKit          3D

 48 51  0  0  0  0  0  0  0  0999 V2000
   -5.9770   25.1980  -29.3050 O   0  0  0  0  0  0  0  0  0  0  0  0
   -5.2680   25.0050  -30.3300 C   0  0  0  0  0  0  0  0  0  0  0  0
   -5.9150   24.5550  -31.6020 C   0  0  0  0  0  0  0  0  0  0  0  0
   -6.0480   23.1000  -31.6180 N   0  0  0  0  0  0  0  0  0  0  0  0
   -7.2510   22.3590  -31.4000 C   0  0  0  0  0  0  0  0  0  0  0  0
   -8.2930   22.8360  -30.8760 O   0  0  0  0  0  0  0  0  0  0  0  0
   -7.0980   20.9970  -31.8970 C   0  0  0  0  0  0  0  0  0  0  0  0
   -7.9880   19.9240  -31.9010 C   0  0  0  0  0  0  0  0  0  0  0  0
   -7.5600   18.7160  -32.4800 C   0  0  0  0  0  0  0  0  0  0  0  0
   -6.2690   18.6080  -33.0400 C   0  0  0  0  0  0  0  0  0  0  0  0
   -5.3920   19.7080  -33.0270 C   0  0  0  0  0  0  0  0  0  0  0  0
   -5.8370   20.8910  -32.4430 C   0  0  0  0  0  0  0  0  0  0  0  0
   -5.1820   22.1850  -32.2940 C   0  0  0  0  0  0  0  0  0  0  0  0
   -4.0340   22.4800  -32.7190 O   0  0  0  0  0  0  0  0  0  0  0  0
   -3.8640   25.2970  -30.3140 N   0  0  0  0  0  0  0  0  0  0  0  0
   -2.8330   24.4780  -29.7460 C   0  0  0  0  0  0  0  0  0  0  0  0
   -2.0020   25.0290  -28.7620 C   0  0  0  0  0  0  0  0  0  0  0  0
   -0.9730   24.2710  -28.1990 C   0  0  0  0  0  0  0  0  0  0  0  0
   -0.7540   22.9600  -28.6280 C   0  0  0  0  0  0  0  0  0  0  0  0
   -1.5590   22.4030  -29.6290 C   0  0  0  0  0  0  0  0  0  0  0  0
   -1.2680   20.7470  -30.1570 S   0  0  0  0  0  0  0  0  0  0  0  0
   -2.1810   20.3980  -31.3020 O   0  0  0  0  0  0  0  0  0  0  0  0
    0.1580   20.6350  -30.6220 O   0  0  0  0  0  0  0  0  0  0  0  0
   -1.5430   19.6550  -28.8240 N   0  0  0  0  0  0  0  0  0  0  0  0
   -0.2600   19.1220  -28.3380 C   0  0  0  0  0  0  0  0  0  0  0  0
   -0.4820   18.2360  -27.0930 C   0  0  0  0  0  0  0  0  0  0  0  0
   -1.8520   18.1550  -26.7430 O   0  0  0  0  0  0  0  0  0  0  0  0
   -2.3540   19.4540  -26.4910 C   0  0  0  0  0  0  0  0  0  0  0  0
   -2.2440   20.3560  -27.7370 C   0  0  0  0  0  0  0  0  0  0  0  0
   -2.5940   23.1650  -30.1930 C   0  0  0  0  0  0  0  0  0  0  0  0
   -6.9127   25.0112  -31.6824 H   0  0  0  0  0  0  0  0  0  0  0  0
   -5.2882   24.8657  -32.4509 H   0  0  0  0  0  0  0  0  0  0  0  0
   -8.9934   20.0192  -31.4650 H   0  0  0  0  0  0  0  0  0  0  0  0
   -8.2365   17.8488  -32.4966 H   0  0  0  0  0  0  0  0  0  0  0  0
   -5.9463   17.6574  -33.4897 H   0  0  0  0  0  0  0  0  0  0  0  0
   -4.3855   19.6356  -33.4648 H   0  0  0  0  0  0  0  0  0  0  0  0
   -2.1610   26.0657  -28.4305 H   0  0  0  0  0  0  0  0  0  0  0  0
   -0.3342   24.7070  -27.4168 H   0  0  0  0  0  0  0  0  0  0  0  0
    0.0533   22.3634  -28.1781 H   0  0  0  0  0  0  0  0  0  0  0  0
    0.2068   18.5208  -29.1321 H   0  0  0  0  0  0  0  0  0  0  0  0
    0.3952   19.9625  -28.0655 H   0  0  0  0  0  0  0  0  0  0  0  0
   -0.1082   17.2235  -27.3052 H   0  0  0  0  0  0  0  0  0  0  0  0
    0.0603   18.6888  -26.2498 H   0  0  0  0  0  0  0  0  0  0  0  0
   -3.4114   19.3775  -26.1978 H   0  0  0  0  0  0  0  0  0  0  0  0
   -1.7550   19.9044  -25.6859 H   0  0  0  0  0  0  0  0  0  0  0  0
   -3.2543   20.6294  -28.0756 H   0  0  0  0  0  0  0  0  0  0  0  0
   -1.6740   21.2587  -27.4719 H   0  0  0  0  0  0  0  0  0  0  0  0
   -3.2209   22.7343  -30.9876 H   0  0  0  0  0  0  0  0  0  0  0  0
  1  2  2  0
  2  3  1  0
  3  4  1  0
  4  5  1  0
  5  6  2  0
  5  7  1  0
  7  8  2  0
  8  9  1  0
  9 10  2  0
 10 11  1  0
 11 12  2  0
 12 13  1  0
 13 14  2  0
  2 15  1  0
 15 16  1  0
 16 17  2  0
 17 18  1  0
 18 19  2  0
 19 20  1  0
 20 21  1  0
 21 22  2  0
 21 23  2  0
 21 24  1  0
 24 25  1  0
 25 26  1  0
 26 27  1  0
 27 28  1  0
 28 29  1  0
 20 30  2  0
 13  4  1  0
 30 16  1  0
 12  7  1  0
 29 24  1  0
  3 31  1  0
  3 32  1  0
  8 33  1  0
  9 34  1  0
 10 35  1  0
 11 36  1  0
 17 37  1  0
 18 38  1  0
 19 39  1  0
 25 40  1  0
 25 41  1  0
 26 42  1  0
 26 43  1  0
 28 44  1  0
 28 45  1  0
 29 46  1  0
 29 47  1  0
 30 48  1  0
M  CHG  1  15  -1
M  END
>  <UniqueID>  (33) 
32

>  <SMILES>  (33) 
O=C(CN1C(=O)c2ccccc2C1=O)[N-]c1cccc(S(=O)(=O)N2CCOCC2)c1

>  <Energy>  (33) 
91.63604030976444

>  <Genealogy>  (33) 
O=C(CN1C(=O)c2ccccc2C1=O)[N-]c1cccc(S(=O)(=O)N2CCOCC2)c1 (protonated)
O=C(CN1C(=O)c2ccccc2C1=O)[N-]c1cccc(S(=O)(=O)N2CCOCC2)c1 (3D coordinates assigned)
O=C(CN1C(=O)c2ccccc2C1=O)[N-]c1cccc(S(=O)(=O)N2CCOCC2)c1 (nonaromatic ring conformer: 91.63604030976444 kcal/mol)

>  <smiles>  (33) 
O=C(CN1C(=O)c2ccccc2C1=O)Nc1cccc(S(=O)(=O)N2CCOCC2)c1

>  <score_type>  (33) 
oracle

>  <origin>  (33) 
adgpu

>  <m_score__min__energy>  (33) 
-11.529999999999999

>  <m_primary>  (33) 
energy

$$$$
33:0
     RDKit          3D

 46 49  0  0  0  0  0  0  0  0999 V2000
   -0.5110   19.5890  -28.4100 C   0  0  0  0  0  0  0  0  0  0  0  0
   -0.7290   20.4250  -27.2170 N   0  0  0  0  0  0  0  0  0  0  0  0
    0.2040   21.5650  -27.1440 C   0  0  0  0  0  0  0  0  0  0  0  0
   -0.0050   22.5710  -28.2860 C   0  0  0  0  0  0  0  0  0  0  0  0
   -1.4620   22.8600  -28.5360 C   0  0  0  0  0  0  0  0  0  0  0  0
   -1.8130   23.9390  -29.3570 C   0  0  0  0  0  0  0  0  0  0  0  0
   -3.1540   24.2090  -29.6420 C   0  0  0  0  0  0  0  0  0  0  0  0
   -3.4690   25.3000  -30.4450 O   0  0  0  0  0  0  0  0  0  0  0  0
   -4.1700   23.3960  -29.1120 C   0  0  0  0  0  0  0  0  0  0  0  0
   -5.5500   23.7050  -29.3820 N   0  0  0  0  0  0  0  0  0  0  0  0
   -6.2260   23.7210  -30.9810 S   0  0  0  0  0  0  0  0  0  0  0  0
   -5.5750   24.8170  -31.7770 O   0  0  0  0  0  0  0  0  0  0  0  0
   -7.7020   23.9870  -30.8950 O   0  0  0  0  0  0  0  0  0  0  0  0
   -5.9770   22.1580  -31.7530 C   0  0  0  0  0  0  0  0  0  0  0  0
   -4.7540   21.8640  -32.3960 C   0  0  0  0  0  0  0  0  0  0  0  0
   -4.5330   20.6040  -32.9780 C   0  0  0  0  0  0  0  0  0  0  0  0
   -5.5520   19.6510  -32.9020 C   0  0  0  0  0  0  0  0  0  0  0  0
   -6.7530   19.9460  -32.2790 C   0  0  0  0  0  0  0  0  0  0  0  0
   -6.9970   21.1880  -31.7020 C   0  0  0  0  0  0  0  0  0  0  0  0
   -7.6070   18.7760  -32.3910 C   0  0  0  0  0  0  0  0  0  0  0  0
   -8.7820   18.6460  -31.9580 O   0  0  0  0  0  0  0  0  0  0  0  0
   -6.8250   17.7910  -33.1230 C   0  0  0  0  0  0  0  0  0  0  0  0
   -7.2270   16.6510  -33.4750 O   0  0  0  0  0  0  0  0  0  0  0  0
   -5.5270   18.3150  -33.4180 N   0  0  0  0  0  0  0  0  0  0  0  0
   -4.6100   17.7930  -34.4250 C   0  0  0  0  0  0  0  0  0  0  0  0
   -3.8130   22.2920  -28.3170 C   0  0  0  0  0  0  0  0  0  0  0  0
   -2.4690   22.0120  -28.0330 C   0  0  0  0  0  0  0  0  0  0  0  0
   -2.1320   20.8690  -27.1030 C   0  0  0  0  0  0  0  0  0  0  0  0
   -0.2448   18.5681  -28.0987 H   0  0  0  0  0  0  0  0  0  0  0  0
   -1.4318   19.5607  -29.0111 H   0  0  0  0  0  0  0  0  0  0  0  0
    0.3064   20.0139  -29.0111 H   0  0  0  0  0  0  0  0  0  0  0  0
    0.0533   22.0832  -26.1855 H   0  0  0  0  0  0  0  0  0  0  0  0
    1.2255   21.1667  -27.2325 H   0  0  0  0  0  0  0  0  0  0  0  0
    0.5023   23.5117  -28.0256 H   0  0  0  0  0  0  0  0  0  0  0  0
    0.4119   22.1293  -29.2031 H   0  0  0  0  0  0  0  0  0  0  0  0
   -1.0259   24.5797  -29.7813 H   0  0  0  0  0  0  0  0  0  0  0  0
   -6.2220   23.7960  -28.5870 H   0  0  0  0  0  0  0  0  0  0  0  0
   -3.9658   22.6299  -32.4417 H   0  0  0  0  0  0  0  0  0  0  0  0
   -3.5820   20.3739  -33.4806 H   0  0  0  0  0  0  0  0  0  0  0  0
   -7.9607   21.4067  -31.2188 H   0  0  0  0  0  0  0  0  0  0  0  0
   -3.7572   17.3076  -33.9279 H   0  0  0  0  0  0  0  0  0  0  0  0
   -5.1349   17.0583  -35.0533 H   0  0  0  0  0  0  0  0  0  0  0  0
   -4.2463   18.6194  -35.0533 H   0  0  0  0  0  0  0  0  0  0  0  0
   -4.5999   21.6387  -27.9121 H   0  0  0  0  0  0  0  0  0  0  0  0
   -2.3133   21.1945  -26.0680 H   0  0  0  0  0  0  0  0  0  0  0  0
   -2.7696   20.0179  -27.3844 H   0  0  0  0  0  0  0  0  0  0  0  0
  1  2  1  0
  2  3  1  0
  3  4  1  0
  4  5  1  0
  5  6  2  0
  6  7  1  0
  7  8  1  0
  7  9  2  0
  9 10  1  0
 10 11  1  0
 11 12  2  0
 11 13  2  0
 11 14  1  0
 14 15  2  0
 15 16  1  0
 16 17  2  0
 17 18  1  0
 18 19  2  0
 18 20  1  0
 20 21  2  0
 20 22  1  0
 22 23  2  0
 22 24  1  0
 24 25  1  0
  9 26  1  0
 26 27  2  0
 27 28  1  0
 28  2  1  0
 27  5  1  0
 19 14  1  0
 24 17  1  0
  1 29  1  0
  1 30  1  0
  1 31  1  0
  3 32  1  0
  3 33  1  0
  4 34  1  0
  4 35  1  0
  6 36  1  0
 10 37  1  0
 15 38  1  0
 16 39  1  0
 19 40  1  0
 25 41  1  0
 25 42  1  0
 25 43  1  0
 26 44  1  0
 28 45  1  0
 28 46  1  0
M  CHG  1   8  -1
M  END
>  <UniqueID>  (34) 
33

>  <SMILES>  (34) 
CN1CCc2cc([O-])c(NS(=O)(=O)c3ccc4c(c3)C(=O)C(=O)N4C)cc2C1

>  <Energy>  (34) 
88.60058081279048

>  <Genealogy>  (34) 
CN1CCc2cc([O-])c(NS(=O)(=O)c3ccc4c(c3)C(=O)C(=O)N4C)cc2C1 (protonated)
CN1CCc2cc([O-])c(NS(=O)(=O)c3ccc4c(c3)C(=O)C(=O)N4C)cc2C1 (3D coordinates assigned)
CN1CCc2cc([O-])c(NS(=O)(=O)c3ccc4c(c3)C(=O)C(=O)N4C)cc2C1 (nonaromatic ring conformer: 88.60058081279048 kcal/mol)

>  <smiles>  (34) 
CN1CCc2cc(O)c(NS(=O)(=O)c3ccc4c(c3)C(=O)C(=O)N4C)cc2C1

>  <score_type>  (34) 
oracle

>  <origin>  (34) 
adgpu

>  <m_score__min__energy>  (34) 
-13.56

>  <m_primary>  (34) 
energy

$$$$
34:0
     RDKit          3D

 59 62  0  0  0  0  0  0  0  0999 V2000
   -9.4880   18.5170  -32.4640 O   0  0  0  0  0  0  0  0  0  0  0  0
   -8.5190   19.3190  -32.5410 C   0  0  0  0  0  0  0  0  0  0  0  0
   -8.7290   20.7130  -32.2890 N   0  0  0  0  0  0  0  0  0  0  0  0
   -7.7890   21.5940  -31.6550 C   0  0  0  0  0  0  0  0  0  0  0  0
   -6.6920   22.1390  -32.3530 C   0  0  0  0  0  0  0  0  0  0  0  0
   -5.8690   23.0950  -31.7450 C   0  0  0  0  0  0  0  0  0  0  0  0
   -6.1470   23.5360  -30.4430 C   0  0  0  0  0  0  0  0  0  0  0  0
   -5.1960   24.8440  -29.7370 S   0  0  0  0  0  0  0  0  0  0  0  0
   -6.1090   25.7590  -28.9630 O   0  0  0  0  0  0  0  0  0  0  0  0
   -4.5600   25.6460  -30.8420 O   0  0  0  0  0  0  0  0  0  0  0  0
   -3.9580   24.2310  -28.6610 N   0  0  0  0  0  0  0  0  0  0  0  0
   -4.1120   22.7860  -28.4600 C   0  0  0  0  0  0  0  0  0  0  0  0
   -3.0370   22.2720  -27.4750 C   0  0  0  0  0  0  0  0  0  0  0  0
   -2.0510   23.2510  -27.1930 O   0  0  0  0  0  0  0  0  0  0  0  0
   -1.5300   23.7660  -28.3990 C   0  0  0  0  0  0  0  0  0  0  0  0
   -2.6110   24.5340  -29.1890 C   0  0  0  0  0  0  0  0  0  0  0  0
   -7.2280   22.9810  -29.7380 C   0  0  0  0  0  0  0  0  0  0  0  0
   -8.0440   22.0160  -30.3410 C   0  0  0  0  0  0  0  0  0  0  0  0
   -7.1610   18.8250  -32.8680 C   0  0  0  0  0  0  0  0  0  0  0  0
   -6.4880   19.2840  -34.0200 C   0  0  0  0  0  0  0  0  0  0  0  0
   -5.1650   18.9110  -34.2660 C   0  0  0  0  0  0  0  0  0  0  0  0
   -4.4860   18.0770  -33.3650 C   0  0  0  0  0  0  0  0  0  0  0  0
   -2.7740   17.7190  -33.6050 S   0  0  0  0  0  0  0  0  0  0  0  0
   -2.5530   17.3020  -35.0350 O   0  0  0  0  0  0  0  0  0  0  0  0
   -2.3740   16.5690  -32.7190 O   0  0  0  0  0  0  0  0  0  0  0  0
   -1.7700   19.1120  -33.2560 N   0  0  0  0  0  0  0  0  0  0  0  0
   -2.1770   20.3080  -34.0270 C   0  0  0  0  0  0  0  0  0  0  0  0
   -3.2290   21.1920  -33.3190 C   0  0  0  0  0  0  0  0  0  0  0  0
   -3.0250   21.3240  -31.8000 C   0  0  0  0  0  0  0  0  0  0  0  0
   -1.6750   20.7700  -31.3580 C   0  0  0  0  0  0  0  0  0  0  0  0
   -1.5550   19.3060  -31.8030 C   0  0  0  0  0  0  0  0  0  0  0  0
   -5.1620   17.5840  -32.2360 C   0  0  0  0  0  0  0  0  0  0  0  0
   -6.4870   17.9550  -31.9870 C   0  0  0  0  0  0  0  0  0  0  0  0
   -6.4813   21.8112  -33.3817 H   0  0  0  0  0  0  0  0  0  0  0  0
   -5.0034   23.5006  -32.2893 H   0  0  0  0  0  0  0  0  0  0  0  0
   -5.1112   22.5798  -28.0489 H   0  0  0  0  0  0  0  0  0  0  0  0
   -3.9926   22.2723  -29.4253 H   0  0  0  0  0  0  0  0  0  0  0  0
   -3.5286   21.9843  -26.5340 H   0  0  0  0  0  0  0  0  0  0  0  0
   -2.5336   21.4143  -27.9450 H   0  0  0  0  0  0  0  0  0  0  0  0
   -0.6998   24.4498  -28.1685 H   0  0  0  0  0  0  0  0  0  0  0  0
   -1.1789   22.9249  -29.0149 H   0  0  0  0  0  0  0  0  0  0  0  0
   -2.4233   25.6143  -29.1012 H   0  0  0  0  0  0  0  0  0  0  0  0
   -2.5662   24.2234  -30.2433 H   0  0  0  0  0  0  0  0  0  0  0  0
   -7.4343   23.3060  -28.7076 H   0  0  0  0  0  0  0  0  0  0  0  0
   -8.8887   21.5867  -29.7823 H   0  0  0  0  0  0  0  0  0  0  0  0
   -7.0101   19.9415  -34.7307 H   0  0  0  0  0  0  0  0  0  0  0  0
   -4.6531   19.2726  -35.1700 H   0  0  0  0  0  0  0  0  0  0  0  0
   -1.2817   20.9195  -34.2129 H   0  0  0  0  0  0  0  0  0  0  0  0
   -2.6440   19.9424  -34.9534 H   0  0  0  0  0  0  0  0  0  0  0  0
   -3.1872   22.1984  -33.7611 H   0  0  0  0  0  0  0  0  0  0  0  0
   -4.2027   20.7014  -33.4649 H   0  0  0  0  0  0  0  0  0  0  0  0
   -3.0805   22.3876  -31.5247 H   0  0  0  0  0  0  0  0  0  0  0  0
   -3.8130   20.7432  -31.2982 H   0  0  0  0  0  0  0  0  0  0  0  0
   -0.8680   21.3604  -31.8165 H   0  0  0  0  0  0  0  0  0  0  0  0
   -1.5941   20.8291  -30.2626 H   0  0  0  0  0  0  0  0  0  0  0  0
   -0.5471   18.9460  -31.5488 H   0  0  0  0  0  0  0  0  0  0  0  0
   -2.3424   18.7428  -31.2807 H   0  0  0  0  0  0  0  0  0  0  0  0
   -4.6458   16.9022  -31.5441 H   0  0  0  0  0  0  0  0  0  0  0  0
   -7.0063   17.5659  -31.0988 H   0  0  0  0  0  0  0  0  0  0  0  0
  1  2  2  0
  2  3  1  0
  3  4  1  0
  4  5  2  0
  5  6  1  0
  6  7  2  0
  7  8  1  0
  8  9  2  0
  8 10  2  0
  8 11  1  0
 11 12  1  0
 12 13  1  0
 13 14  1  0
 14 15  1  0
 15 16  1  0
  7 17  1  0
 17 18  2  0
  2 19  1  0
 19 20  2  0
 20 21  1  0
 21 22  2  0
 22 23  1  0
 23 24  2  0
 23 25  2  0
 23 26  1  0
 26 27  1  0
 27 28  1  0
 28 29  1  0
 29 30  1  0
 30 31  1  0
 22 32  1  0
 32 33  2  0
 18  4  1  0
 33 19  1  0
 16 11  1  0
 31 26  1  0
  5 34  1  0
  6 35  1  0
 12 36  1  0
 12 37  1  0
 13 38  1  0
 13 39  1  0
 15 40  1  0
 15 41  1  0
 16 42  1  0
 16 43  1  0
 17 44  1  0
 18 45  1  0
 20 46  1  0
 21 47  1  0
 27 48  1  0
 27 49  1  0
 28 50  1  0
 28 51  1  0
 29 52  1  0
 29 53  1  0
 30 54  1  0
 30 55  1  0
 31 56  1  0
 31 57  1  0
 32 58  1  0
 33 59  1  0
M  CHG  1   3  -1
M  END
>  <UniqueID>  (35) 
34

>  <SMILES>  (35) 
O=C([N-]c1ccc(S(=O)(=O)N2CCOCC2)cc1)c1ccc(S(=O)(=O)N2CCCCC2)cc1

>  <Energy>  (35) 
82.82532837522268

>  <Genealogy>  (35) 
O=C([N-]c1ccc(S(=O)(=O)N2CCOCC2)cc1)c1ccc(S(=O)(=O)N2CCCCC2)cc1 (protonated)
O=C([N-]c1ccc(S(=O)(=O)N2CCOCC2)cc1)c1ccc(S(=O)(=O)N2CCCCC2)cc1 (3D coordinates assigned)
O=C([N-]c1ccc(S(=O)(=O)N2CCOCC2)cc1)c1ccc(S(=O)(=O)N2CCCCC2)cc1 (nonaromatic ring conformer: 82.82532837522268 kcal/mol)

>  <smiles>  (35) 
O=C(Nc1ccc(S(=O)(=O)N2CCOCC2)cc1)c1ccc(S(=O)(=O)N2CCCCC2)cc1

>  <score_type>  (35) 
oracle

>  <origin>  (35) 
adgpu

>  <m_score__min__energy>  (35) 
-12.82

>  <m_primary>  (35) 
energy

$$$$
35:0
     RDKit          3D

 33 34  0  0  0  0  0  0  0  0999 V2000
   -2.6250   22.3000  -29.4980 C   0  0  0  0  0  0  0  0  0  0  0  0
   -3.5010   22.4590  -30.6620 N   0  0  0  0  0  0  0  0  0  0  0  0
   -3.1650   21.8350  -31.9250 C   0  0  0  0  0  0  0  0  0  0  0  0
   -1.6040   21.5460  -32.3480 S   0  0  0  0  0  0  0  0  0  0  0  0
   -4.4410   21.4400  -33.1350 S   0  0  0  0  0  0  0  0  0  0  0  0
   -4.8470   19.7950  -32.4500 C   0  0  0  0  0  0  0  0  0  0  0  0
   -6.3330   19.5900  -32.3700 C   0  0  0  0  0  0  0  0  0  0  0  0
   -6.8600   18.3660  -31.9270 C   0  0  0  0  0  0  0  0  0  0  0  0
   -8.2450   18.1870  -31.8410 C   0  0  0  0  0  0  0  0  0  0  0  0
   -9.1090   19.2290  -32.1870 C   0  0  0  0  0  0  0  0  0  0  0  0
   -8.5910   20.4510  -32.6220 C   0  0  0  0  0  0  0  0  0  0  0  0
   -7.2080   20.6340  -32.7140 C   0  0  0  0  0  0  0  0  0  0  0  0
   -4.7200   23.2050  -30.4990 C   0  0  0  0  0  0  0  0  0  0  0  0
   -5.9500   22.5320  -30.4130 C   0  0  0  0  0  0  0  0  0  0  0  0
   -7.1360   23.2500  -30.2360 C   0  0  0  0  0  0  0  0  0  0  0  0
   -7.1020   24.6440  -30.1380 C   0  0  0  0  0  0  0  0  0  0  0  0
   -5.8820   25.3210  -30.2110 C   0  0  0  0  0  0  0  0  0  0  0  0
   -4.6910   24.6070  -30.3880 C   0  0  0  0  0  0  0  0  0  0  0  0
   -3.4850   25.2930  -30.4570 O   0  0  0  0  0  0  0  0  0  0  0  0
   -3.2163   22.4073  -28.5767 H   0  0  0  0  0  0  0  0  0  0  0  0
   -2.1610   21.3030  -29.5218 H   0  0  0  0  0  0  0  0  0  0  0  0
   -1.8402   23.0704  -29.5218 H   0  0  0  0  0  0  0  0  0  0  0  0
   -4.4125   19.0196  -33.0980 H   0  0  0  0  0  0  0  0  0  0  0  0
   -4.4317   19.7295  -31.4335 H   0  0  0  0  0  0  0  0  0  0  0  0
   -6.1823   17.5460  -31.6470 H   0  0  0  0  0  0  0  0  0  0  0  0
   -8.6542   17.2244  -31.5005 H   0  0  0  0  0  0  0  0  0  0  0  0
  -10.1975   19.0870  -32.1168 H   0  0  0  0  0  0  0  0  0  0  0  0
   -9.2725   21.2710  -32.8927 H   0  0  0  0  0  0  0  0  0  0  0  0
   -6.8039   21.5980  -33.0566 H   0  0  0  0  0  0  0  0  0  0  0  0
   -5.9799   21.4348  -30.4853 H   0  0  0  0  0  0  0  0  0  0  0  0
   -8.0967   22.7178  -30.1738 H   0  0  0  0  0  0  0  0  0  0  0  0
   -8.0365   25.2084  -30.0033 H   0  0  0  0  0  0  0  0  0  0  0  0
   -5.8573   26.4177  -30.1292 H   0  0  0  0  0  0  0  0  0  0  0  0
  1  2  1  0
  2  3  1  0
  3  4  2  0
  3  5  1  0
  5  6  1  0
  6  7  1  0
  7  8  2  0
  8  9  1  0
  9 10  2  0
 10 11  1  0
 11 12  2  0
  2 13  1  0
 13 14  2  0
 14 15  1  0
 15 16  2  0
 16 17  1  0
 17 18  2  0
 18 19  1  0
 12  7  1  0
 18 13  1  0
  1 20  1  0
  1 21  1  0
  1 22  1  0
  6 23  1  0
  6 24  1  0
  8 25  1  0
  9 26  1  0
 10 27  1  0
 11 28  1  0
 12 29  1  0
 14 30  1  0
 15 31  1  0
 16 32  1  0
 17 33  1  0
M  CHG  1  19  -1
M  END
>  <UniqueID>  (36) 
35

>  <SMILES>  (36) 
CN(C(=S)SCc1ccccc1)c1ccccc1[O-]

>  <Energy>  (36) 
35.74186682966179

>  <Genealogy>  (36) 
CN(C(=S)SCc1ccccc1)c1ccccc1[O-] (protonated)
CN(C(=S)SCc1ccccc1)c1ccccc1[O-] (3D coordinates assigned)
CN(C(=S)SCc1ccccc1)c1ccccc1[O-] (optimized conformer: 35.74186682966179 kcal/mol)

>  <smiles>  (36) 
CN(C(=S)SCc1ccccc1)c1ccccc1O

>  <score_type>  (36) 
oracle

>  <origin>  (36) 
adgpu

>  <m_score__min__energy>  (36) 
-10.84

>  <m_primary>  (36) 
energy

$$$$
36:0
     RDKit          3D

 55 58  0  0  0  0  0  0  0  0999 V2000
   -0.1080   27.1520  -22.9040 C   0  0  0  0  0  0  0  0  0  0  0  0
   -0.4960   26.9590  -24.3350 C   0  0  0  0  0  0  0  0  0  0  0  0
   -0.9050   27.9470  -25.0060 O   0  0  0  0  0  0  0  0  0  0  0  0
   -0.3950   25.6560  -24.9320 N   0  0  0  0  0  0  0  0  0  0  0  0
   -0.9760   25.3030  -26.1990 C   0  0  0  0  0  0  0  0  0  0  0  0
   -0.6550   26.0030  -27.3740 C   0  0  0  0  0  0  0  0  0  0  0  0
   -1.2760   25.6800  -28.5840 C   0  0  0  0  0  0  0  0  0  0  0  0
   -2.2480   24.6720  -28.6310 C   0  0  0  0  0  0  0  0  0  0  0  0
   -2.9020   24.3350  -29.8600 N   0  0  0  0  0  0  0  0  0  0  0  0
   -4.1880   24.8070  -30.2890 C   0  0  0  0  0  0  0  0  0  0  0  0
   -4.3460   26.0450  -30.4700 O   0  0  0  0  0  0  0  0  0  0  0  0
   -5.2920   23.8880  -30.6380 C   0  0  0  0  0  0  0  0  0  0  0  0
   -6.5980   24.2690  -30.9090 C   0  0  0  0  0  0  0  0  0  0  0  0
   -7.2140   23.1060  -31.3330 C   0  0  0  0  0  0  0  0  0  0  0  0
   -8.5500   23.0350  -32.0050 C   0  0  0  0  0  0  0  0  0  0  0  0
   -6.3140   22.0990  -31.2820 N   0  0  0  0  0  0  0  0  0  0  0  0
   -6.4770   20.7730  -31.7990 C   0  0  0  0  0  0  0  0  0  0  0  0
   -7.6940   20.1120  -31.5770 C   0  0  0  0  0  0  0  0  0  0  0  0
   -7.9130   18.8360  -32.0990 C   0  0  0  0  0  0  0  0  0  0  0  0
   -9.1210   18.1890  -31.8700 O   0  0  0  0  0  0  0  0  0  0  0  0
   -6.9180   18.2140  -32.8550 C   0  0  0  0  0  0  0  0  0  0  0  0
   -5.7050   18.8650  -33.0910 C   0  0  0  0  0  0  0  0  0  0  0  0
   -5.4680   20.1480  -32.5690 C   0  0  0  0  0  0  0  0  0  0  0  0
   -3.9350   20.9580  -32.9410 S   0  0  0  0  0  0  0  0  0  0  0  0
   -3.2250   20.2450  -34.0570 O   0  0  0  0  0  0  0  0  0  0  0  0
   -4.1980   22.3700  -33.3940 O   0  0  0  0  0  0  0  0  0  0  0  0
   -2.9080   21.0250  -31.5130 C   0  0  0  0  0  0  0  0  0  0  0  0
   -1.6600   21.6630  -31.5550 C   0  0  0  0  0  0  0  0  0  0  0  0
   -0.8790   21.7550  -30.3980 C   0  0  0  0  0  0  0  0  0  0  0  0
   -1.3380   21.2100  -29.1970 C   0  0  0  0  0  0  0  0  0  0  0  0
   -2.5780   20.5690  -29.1520 C   0  0  0  0  0  0  0  0  0  0  0  0
   -3.3590   20.4740  -30.3080 C   0  0  0  0  0  0  0  0  0  0  0  0
   -5.1420   22.5720  -30.8950 N   0  0  0  0  0  0  0  0  0  0  0  0
   -2.5530   23.9540  -27.4700 C   0  0  0  0  0  0  0  0  0  0  0  0
   -1.9370   24.2820  -26.2560 C   0  0  0  0  0  0  0  0  0  0  0  0
   -0.9016   26.7573  -22.2525 H   0  0  0  0  0  0  0  0  0  0  0  0
    0.8315   26.6162  -22.7034 H   0  0  0  0  0  0  0  0  0  0  0  0
    0.0315   28.2245  -22.7034 H   0  0  0  0  0  0  0  0  0  0  0  0
    0.1900   24.9380  -24.4400 H   0  0  0  0  0  0  0  0  0  0  0  0
    0.0905   26.8112  -27.3416 H   0  0  0  0  0  0  0  0  0  0  0  0
   -1.0006   26.2191  -29.5024 H   0  0  0  0  0  0  0  0  0  0  0  0
   -7.0430   25.2700  -30.8092 H   0  0  0  0  0  0  0  0  0  0  0  0
   -9.3420   22.9929  -31.2428 H   0  0  0  0  0  0  0  0  0  0  0  0
   -8.6924   23.9268  -32.6330 H   0  0  0  0  0  0  0  0  0  0  0  0
   -8.5971   22.1331  -32.6330 H   0  0  0  0  0  0  0  0  0  0  0  0
   -8.4820   20.6029  -30.9870 H   0  0  0  0  0  0  0  0  0  0  0  0
   -7.0897   17.2082  -33.2661 H   0  0  0  0  0  0  0  0  0  0  0  0
   -4.9280   18.3688  -33.6910 H   0  0  0  0  0  0  0  0  0  0  0  0
   -1.2944   22.0920  -32.4996 H   0  0  0  0  0  0  0  0  0  0  0  0
    0.0987   22.2577  -30.4344 H   0  0  0  0  0  0  0  0  0  0  0  0
   -0.7237   21.2855  -28.2876 H   0  0  0  0  0  0  0  0  0  0  0  0
   -2.9404   20.1387  -28.2068 H   0  0  0  0  0  0  0  0  0  0  0  0
   -4.3327   19.9637  -30.2702 H   0  0  0  0  0  0  0  0  0  0  0  0
   -3.2793   23.1288  -27.5108 H   0  0  0  0  0  0  0  0  0  0  0  0
   -2.2083   23.7355  -25.3407 H   0  0  0  0  0  0  0  0  0  0  0  0
  1  2  1  0
  2  3  2  0
  2  4  1  0
  4  5  1  0
  5  6  2  0
  6  7  1  0
  7  8  2  0
  8  9  1  0
  9 10  1  0
 10 11  2  0
 10 12  1  0
 12 13  1  0
 13 14  2  0
 14 15  1  0
 14 16  1  0
 16 17  1  0
 17 18  2  0
 18 19  1  0
 19 20  1  0
 19 21  2  0
 21 22  1  0
 22 23  2  0
 23 24  1  0
 24 25  2  0
 24 26  2  0
 24 27  1  0
 27 28  2  0
 28 29  1  0
 29 30  2  0
 30 31  1  0
 31 32  2  0
 16 33  1  0
  8 34  1  0
 34 35  2  0
 35  5  1  0
 33 12  2  0
 23 17  1  0
 32 27  1  0
  1 36  1  0
  1 37  1  0
  1 38  1  0
  4 39  1  0
  6 40  1  0
  7 41  1  0
 13 42  1  0
 15 43  1  0
 15 44  1  0
 15 45  1  0
 18 46  1  0
 21 47  1  0
 22 48  1  0
 28 49  1  0
 29 50  1  0
 30 51  1  0
 31 52  1  0
 32 53  1  0
 34 54  1  0
 35 55  1  0
M  CHG  2   9  -1  20  -1
M  END
>  <UniqueID>  (37) 
36

>  <SMILES>  (37) 
CC(=O)Nc1ccc([N-]C(=O)c2cc(C)n(-c3cc([O-])ccc3S(=O)(=O)c3ccccc3)n2)cc1

>  <Energy>  (37) 
103.1374172768731

>  <Genealogy>  (37) 
CC(=O)Nc1ccc([N-]C(=O)c2cc(C)n(-c3cc([O-])ccc3S(=O)(=O)c3ccccc3)n2)cc1 (protonated)
CC(=O)Nc1ccc([N-]C(=O)c2cc(C)n(-c3cc([O-])ccc3S(=O)(=O)c3ccccc3)n2)cc1 (3D coordinates assigned)
CC(=O)Nc1ccc([N-]C(=O)c2cc(C)n(-c3cc([O-])ccc3S(=O)(=O)c3ccccc3)n2)cc1 (optimized conformer: 103.1374172768731 kcal/mol)

>  <smiles>  (37) 
CC(=O)Nc1ccc(NC(=O)c2cc(C)n(-c3cc(O)ccc3S(=O)(=O)c3ccccc3)n2)cc1

>  <score_type>  (37) 
oracle

>  <origin>  (37) 
adgpu

>  <m_score__min__energy>  (37) 
-12.68

>  <m_primary>  (37) 
energy

$$$$
37:0
     RDKit          3D

 35 37  0  0  0  0  0  0  0  0999 V2000
   -4.7120   16.7510  -33.5030 N   0  0  0  0  0  0  0  0  0  0  0  0
   -5.1210   18.3860  -33.8920 S   0  0  0  0  0  0  0  0  0  0  0  0
   -3.9150   19.2510  -33.6520 O   0  0  0  0  0  0  0  0  0  0  0  0
   -5.5160   18.4560  -35.3400 O   0  0  0  0  0  0  0  0  0  0  0  0
   -6.4600   18.9520  -32.8870 C   0  0  0  0  0  0  0  0  0  0  0  0
   -6.4550   20.2780  -32.4230 C   0  0  0  0  0  0  0  0  0  0  0  0
   -7.5270   20.7770  -31.6640 C   0  0  0  0  0  0  0  0  0  0  0  0
   -7.5550   22.1360  -31.1990 N   0  0  0  0  0  0  0  0  0  0  0  0
   -6.7420   23.2170  -31.6790 C   0  0  0  0  0  0  0  0  0  0  0  0
   -7.1110   23.8320  -32.7150 O   0  0  0  0  0  0  0  0  0  0  0  0
   -5.4600   23.5870  -31.0300 C   0  0  0  0  0  0  0  0  0  0  0  0
   -4.5720   22.5910  -30.5980 C   0  0  0  0  0  0  0  0  0  0  0  0
   -3.3820   22.9490  -29.9620 C   0  0  0  0  0  0  0  0  0  0  0  0
   -2.4790   21.9810  -29.4980 C   0  0  0  0  0  0  0  0  0  0  0  0
   -1.2980   22.3770  -28.8640 C   0  0  0  0  0  0  0  0  0  0  0  0
   -1.0130   23.7350  -28.6900 C   0  0  0  0  0  0  0  0  0  0  0  0
   -1.9100   24.7070  -29.1500 C   0  0  0  0  0  0  0  0  0  0  0  0
   -1.6170   26.0540  -28.9720 O   0  0  0  0  0  0  0  0  0  0  0  0
   -3.0960   24.3200  -29.7860 C   0  0  0  0  0  0  0  0  0  0  0  0
   -3.9500   25.2400  -30.2230 O   0  0  0  0  0  0  0  0  0  0  0  0
   -5.0960   24.9350  -30.8260 C   0  0  0  0  0  0  0  0  0  0  0  0
   -5.8570   25.8670  -31.1960 O   0  0  0  0  0  0  0  0  0  0  0  0
   -8.5770   19.9230  -31.3160 C   0  0  0  0  0  0  0  0  0  0  0  0
   -8.5830   18.5990  -31.7550 C   0  0  0  0  0  0  0  0  0  0  0  0
   -7.5390   18.1050  -32.5430 C   0  0  0  0  0  0  0  0  0  0  0  0
   -7.6050   16.7730  -32.9590 O   0  0  0  0  0  0  0  0  0  0  0  0
   -5.4990   16.3650  -32.9360 H   0  0  0  0  0  0  0  0  0  0  0  0
   -5.6025   20.9328  -32.6564 H   0  0  0  0  0  0  0  0  0  0  0  0
   -4.8128   21.5300  -30.7600 H   0  0  0  0  0  0  0  0  0  0  0  0
   -2.7000   20.9119  -29.6329 H   0  0  0  0  0  0  0  0  0  0  0  0
   -0.5900   21.6176  -28.5005 H   0  0  0  0  0  0  0  0  0  0  0  0
   -0.0818   24.0405  -28.1905 H   0  0  0  0  0  0  0  0  0  0  0  0
   -9.4028   20.2967  -30.6928 H   0  0  0  0  0  0  0  0  0  0  0  0
   -9.4171   17.9372  -31.4786 H   0  0  0  0  0  0  0  0  0  0  0  0
   -6.8100   16.2620  -33.3190 H   0  0  0  0  0  0  0  0  0  0  0  0
  1  2  1  0
  2  3  2  0
  2  4  2  0
  2  5  1  0
  5  6  2  0
  6  7  1  0
  7  8  1  0
  8  9  1  0
  9 10  2  0
  9 11  1  0
 11 12  2  0
 12 13  1  0
 13 14  2  0
 14 15  1  0
 15 16  2  0
 16 17  1  0
 17 18  1  0
 17 19  2  0
 19 20  1  0
 20 21  1  0
 21 22  2  0
  7 23  2  0
 23 24  1  0
 24 25  2  0
 25 26  1  0
 25  5  1  0
 21 11  1  0
 19 13  1  0
  1 27  1  0
  6 28  1  0
 12 29  1  0
 14 30  1  0
 15 31  1  0
 16 32  1  0
 23 33  1  0
 24 34  1  0
 26 35  1  0
M  CHG  3   1  -1   8  -1  18  -1
M  END
>  <UniqueID>  (38) 
37

>  <SMILES>  (38) 
[NH-]S(=O)(=O)c1cc([N-]C(=O)c2cc3cccc([O-])c3oc2=O)ccc1O

>  <Energy>  (38) 
51.20147283664975

>  <Genealogy>  (38) 
[NH-]S(=O)(=O)c1cc([N-]C(=O)c2cc3cccc([O-])c3oc2=O)ccc1O (protonated)
[NH-]S(=O)(=O)c1cc([N-]C(=O)c2cc3cccc([O-])c3oc2=O)ccc1O (3D coordinates assigned)
[NH-]S(=O)(=O)c1cc([N-]C(=O)c2cc3cccc([O-])c3oc2=O)ccc1O (optimized conformer: 51.20147283664975 kcal/mol)

>  <smiles>  (38) 
NS(=O)(=O)c1cc(NC(=O)c2cc3cccc(O)c3oc2=O)ccc1O

>  <score_type>  (38) 
oracle

>  <origin>  (38) 
adgpu

>  <m_score__min__energy>  (38) 
-11.289999999999999

>  <m_primary>  (38) 
energy

$$$$
38:0
     RDKit          3D

 55 57  0  0  0  0  0  0  0  0999 V2000
   -3.8960   25.4160  -30.8280 O   0  0  0  0  0  0  0  0  0  0  0  0
   -4.2290   24.0270  -30.3600 S   0  0  0  0  0  0  0  0  0  0  0  0
   -4.3470   23.1200  -31.5560 O   0  0  0  0  0  0  0  0  0  0  0  0
   -5.7470   24.0720  -29.5140 N   0  0  0  0  0  0  0  0  0  0  0  0
   -6.6250   23.0020  -29.9960 C   0  0  0  0  0  0  0  0  0  0  0  0
   -7.4420   23.4830  -31.2010 C   0  0  0  0  0  0  0  0  0  0  0  0
   -7.2380   22.5820  -32.4260 C   0  0  0  0  0  0  0  0  0  0  0  0
   -7.4410   21.1590  -32.0790 N   0  0  0  0  0  0  0  0  0  0  0  0
   -8.8340   20.7580  -32.3530 C   0  0  0  0  0  0  0  0  0  0  0  0
   -9.0560   19.2880  -31.9340 C   0  0  0  0  0  0  0  0  0  0  0  0
   -7.8410   18.6070  -31.6690 O   0  0  0  0  0  0  0  0  0  0  0  0
   -6.9410   18.8040  -32.7390 C   0  0  0  0  0  0  0  0  0  0  0  0
   -6.5050   20.2800  -32.8170 C   0  0  0  0  0  0  0  0  0  0  0  0
   -2.9250   23.4610  -29.3110 C   0  0  0  0  0  0  0  0  0  0  0  0
   -2.9170   22.1380  -28.8340 C   0  0  0  0  0  0  0  0  0  0  0  0
   -1.9130   21.7090  -27.9530 C   0  0  0  0  0  0  0  0  0  0  0  0
   -1.9160   20.0590  -27.3260 S   0  0  0  0  0  0  0  0  0  0  0  0
   -3.3380   19.6230  -27.1030 O   0  0  0  0  0  0  0  0  0  0  0  0
   -1.2220   20.0480  -25.9910 O   0  0  0  0  0  0  0  0  0  0  0  0
   -1.1140   18.9240  -28.3930 N   0  0  0  0  0  0  0  0  0  0  0  0
   -0.8010   19.4990  -29.7190 C   0  0  0  0  0  0  0  0  0  0  0  0
    0.6700   19.9240  -29.8590 C   0  0  0  0  0  0  0  0  0  0  0  0
    1.2130   20.2450  -28.6000 O   0  0  0  0  0  0  0  0  0  0  0  0
    1.3430   19.0670  -27.8320 C   0  0  0  0  0  0  0  0  0  0  0  0
    0.0300   18.2520  -27.7490 C   0  0  0  0  0  0  0  0  0  0  0  0
   -0.9180   22.6080  -27.5450 C   0  0  0  0  0  0  0  0  0  0  0  0
   -0.9180   23.9200  -28.0190 C   0  0  0  0  0  0  0  0  0  0  0  0
   -1.9190   24.3530  -28.8930 C   0  0  0  0  0  0  0  0  0  0  0  0
   -1.9110   25.6710  -29.3350 O   0  0  0  0  0  0  0  0  0  0  0  0
   -6.1960   24.9880  -29.7470 H   0  0  0  0  0  0  0  0  0  0  0  0
   -6.0132   22.1380  -30.2946 H   0  0  0  0  0  0  0  0  0  0  0  0
   -7.3149   22.7157  -29.1885 H   0  0  0  0  0  0  0  0  0  0  0  0
   -8.5085   23.4809  -30.9315 H   0  0  0  0  0  0  0  0  0  0  0  0
   -7.1013   24.4959  -31.4619 H   0  0  0  0  0  0  0  0  0  0  0  0
   -7.9585   22.8679  -33.2064 H   0  0  0  0  0  0  0  0  0  0  0  0
   -6.2068   22.7103  -32.7867 H   0  0  0  0  0  0  0  0  0  0  0  0
   -9.5175   21.4055  -31.7842 H   0  0  0  0  0  0  0  0  0  0  0  0
   -9.0322   20.8589  -33.4303 H   0  0  0  0  0  0  0  0  0  0  0  0
   -9.6752   19.2705  -31.0250 H   0  0  0  0  0  0  0  0  0  0  0  0
   -9.5502   18.7739  -32.7716 H   0  0  0  0  0  0  0  0  0  0  0  0
   -6.0534   18.1726  -32.5856 H   0  0  0  0  0  0  0  0  0  0  0  0
   -7.4434   18.5327  -33.6792 H   0  0  0  0  0  0  0  0  0  0  0  0
   -5.5003   20.3801  -32.3804 H   0  0  0  0  0  0  0  0  0  0  0  0
   -6.5032   20.5854  -33.8738 H   0  0  0  0  0  0  0  0  0  0  0  0
   -3.7017   21.4363  -29.1532 H   0  0  0  0  0  0  0  0  0  0  0  0
   -1.0226   18.7452  -30.4888 H   0  0  0  0  0  0  0  0  0  0  0  0
   -1.4168   20.4026  -29.8388 H   0  0  0  0  0  0  0  0  0  0  0  0
    1.2451   19.0971  -30.3010 H   0  0  0  0  0  0  0  0  0  0  0  0
    0.7235   20.8119  -30.5062 H   0  0  0  0  0  0  0  0  0  0  0  0
    2.1196   18.4352  -28.2877 H   0  0  0  0  0  0  0  0  0  0  0  0
    1.6084   19.3690  -26.8081 H   0  0  0  0  0  0  0  0  0  0  0  0
    0.1889   17.2822  -28.2432 H   0  0  0  0  0  0  0  0  0  0  0  0
   -0.2164   18.1378  -26.6831 H   0  0  0  0  0  0  0  0  0  0  0  0
   -0.1338   22.2775  -26.8480 H   0  0  0  0  0  0  0  0  0  0  0  0
   -0.1271   24.6165  -27.7037 H   0  0  0  0  0  0  0  0  0  0  0  0
  1  2  2  0
  2  3  2  0
  2  4  1  0
  4  5  1  0
  5  6  1  0
  6  7  1  0
  7  8  1  0
  8  9  1  0
  9 10  1  0
 10 11  1  0
 11 12  1  0
 12 13  1  0
  2 14  1  0
 14 15  2  0
 15 16  1  0
 16 17  1  0
 17 18  2  0
 17 19  2  0
 17 20  1  0
 20 21  1  0
 21 22  1  0
 22 23  1  0
 23 24  1  0
 24 25  1  0
 16 26  2  0
 26 27  1  0
 27 28  2  0
 28 29  1  0
 13  8  1  0
 28 14  1  0
 25 20  1  0
  4 30  1  0
  5 31  1  0
  5 32  1  0
  6 33  1  0
  6 34  1  0
  7 35  1  0
  7 36  1  0
  9 37  1  0
  9 38  1  0
 10 39  1  0
 10 40  1  0
 12 41  1  0
 12 42  1  0
 13 43  1  0
 13 44  1  0
 15 45  1  0
 21 46  1  0
 21 47  1  0
 22 48  1  0
 22 49  1  0
 24 50  1  0
 24 51  1  0
 25 52  1  0
 25 53  1  0
 26 54  1  0
 27 55  1  0
M  CHG  1  29  -1
M  END
>  <UniqueID>  (39) 
38

>  <SMILES>  (39) 
O=S(=O)(NCCCN1CCOCC1)c1cc(S(=O)(=O)N2CCOCC2)ccc1[O-]

>  <Energy>  (39) 
67.80913557514566

>  <Genealogy>  (39) 
O=S(=O)(NCCCN1CCOCC1)c1cc(S(=O)(=O)N2CCOCC2)ccc1[O-] (protonated)
O=S(=O)(NCCCN1CCOCC1)c1cc(S(=O)(=O)N2CCOCC2)ccc1[O-] (3D coordinates assigned)
O=S(=O)(NCCCN1CCOCC1)c1cc(S(=O)(=O)N2CCOCC2)ccc1[O-] (nonaromatic ring conformer: 67.80913557514566 kcal/mol)

>  <smiles>  (39) 
O=S(=O)(NCCCN1CCOCC1)c1cc(S(=O)(=O)N2CCOCC2)ccc1O

>  <score_type>  (39) 
oracle

>  <origin>  (39) 
adgpu

>  <m_score__min__energy>  (39) 
-12.460000000000001

>  <m_primary>  (39) 
energy

$$$$
39:0
     RDKit          3D

 51 55  0  0  0  0  0  0  0  0999 V2000
   -4.1480   25.6790  -30.8980 O   0  0  0  0  0  0  0  0  0  0  0  0
   -4.1210   24.5120  -30.4280 C   0  0  0  0  0  0  0  0  0  0  0  0
   -4.5850   23.4260  -31.2360 N   0  0  0  0  0  0  0  0  0  0  0  0
   -3.8030   22.2960  -31.6380 C   0  0  0  0  0  0  0  0  0  0  0  0
   -2.4470   22.1660  -31.4500 C   0  0  0  0  0  0  0  0  0  0  0  0
   -2.1070   20.9140  -31.8050 N   0  0  0  0  0  0  0  0  0  0  0  0
   -0.5100   20.2570  -31.8100 S   0  0  0  0  0  0  0  0  0  0  0  0
    0.2810   20.8180  -30.6610 O   0  0  0  0  0  0  0  0  0  0  0  0
   -0.5810   18.7620  -31.6700 O   0  0  0  0  0  0  0  0  0  0  0  0
    0.2740   20.7070  -33.3200 C   0  0  0  0  0  0  0  0  0  0  0  0
   -0.3810   21.5250  -34.2510 C   0  0  0  0  0  0  0  0  0  0  0  0
    0.2860   21.8960  -35.4220 C   0  0  0  0  0  0  0  0  0  0  0  0
    1.5620   21.4730  -35.6530 N   0  0  0  0  0  0  0  0  0  0  0  0
    2.2010   21.8510  -36.8100 O   0  0  0  0  0  0  0  0  0  0  0  0
    2.2190   20.6840  -34.7540 C   0  0  0  0  0  0  0  0  0  0  0  0
    1.5880   20.2900  -33.5720 C   0  0  0  0  0  0  0  0  0  0  0  0
   -3.1770   20.2310  -32.1790 N   0  0  0  0  0  0  0  0  0  0  0  0
   -4.2360   21.0610  -32.1130 C   0  0  0  0  0  0  0  0  0  0  0  0
   -5.6280   20.6060  -32.2840 C   0  0  0  0  0  0  0  0  0  0  0  0
   -6.6390   21.4960  -31.8790 C   0  0  0  0  0  0  0  0  0  0  0  0
   -7.9860   21.1810  -32.0630 C   0  0  0  0  0  0  0  0  0  0  0  0
   -9.2280   22.3160  -31.5660 Cl  0  0  0  0  0  0  0  0  0  0  0  0
   -8.3420   19.9700  -32.6520 C   0  0  0  0  0  0  0  0  0  0  0  0
   -7.3550   19.0730  -33.0580 C   0  0  0  0  0  0  0  0  0  0  0  0
   -5.9930   19.3610  -32.8820 C   0  0  0  0  0  0  0  0  0  0  0  0
   -5.0990   18.3940  -33.3840 O   0  0  0  0  0  0  0  0  0  0  0  0
   -4.2990   18.4610  -34.5590 C   0  0  0  0  0  0  0  0  0  0  0  0
   -4.7000   17.4610  -35.4230 F   0  0  0  0  0  0  0  0  0  0  0  0
   -2.9700   18.2530  -34.2360 F   0  0  0  0  0  0  0  0  0  0  0  0
   -3.6560   24.2960  -29.0480 C   0  0  0  0  0  0  0  0  0  0  0  0
   -4.4220   24.1860  -27.8860 C   0  0  0  0  0  0  0  0  0  0  0  0
   -3.6150   23.9580  -26.8200 N   0  0  0  0  0  0  0  0  0  0  0  0
   -2.3760   23.9250  -27.2820 N   0  0  0  0  0  0  0  0  0  0  0  0
   -1.2470   23.6770  -26.5760 C   0  0  0  0  0  0  0  0  0  0  0  0
   -0.0330   23.6370  -27.2760 C   0  0  0  0  0  0  0  0  0  0  0  0
   -0.0460   23.8500  -28.6710 C   0  0  0  0  0  0  0  0  0  0  0  0
   -1.2200   24.0910  -29.3240 N   0  0  0  0  0  0  0  0  0  0  0  0
   -2.3670   24.1310  -28.6030 C   0  0  0  0  0  0  0  0  0  0  0  0
   -1.7647   22.9441  -31.0772 H   0  0  0  0  0  0  0  0  0  0  0  0
   -1.4080   21.8709  -34.0622 H   0  0  0  0  0  0  0  0  0  0  0  0
   -0.2212   22.5329  -36.1617 H   0  0  0  0  0  0  0  0  0  0  0  0
    3.2488   20.3573  -34.9610 H   0  0  0  0  0  0  0  0  0  0  0  0
    2.1181   19.6575  -32.8447 H   0  0  0  0  0  0  0  0  0  0  0  0
   -6.3643   22.4529  -31.4111 H   0  0  0  0  0  0  0  0  0  0  0  0
   -9.4036   19.7210  -32.7970 H   0  0  0  0  0  0  0  0  0  0  0  0
   -7.6495   18.1216  -33.5251 H   0  0  0  0  0  0  0  0  0  0  0  0
   -4.4152   19.4508  -35.0247 H   0  0  0  0  0  0  0  0  0  0  0  0
   -5.5178   24.2716  -27.8416 H   0  0  0  0  0  0  0  0  0  0  0  0
   -1.2815   23.5124  -25.4889 H   0  0  0  0  0  0  0  0  0  0  0  0
    0.9122   23.4432  -26.7477 H   0  0  0  0  0  0  0  0  0  0  0  0
    0.8972   23.8216  -29.2363 H   0  0  0  0  0  0  0  0  0  0  0  0
  1  2  2  0
  2  3  1  0
  3  4  1  0
  4  5  2  0
  5  6  1  0
  6  7  1  0
  7  8  2  0
  7  9  2  0
  7 10  1  0
 10 11  2  0
 11 12  1  0
 12 13  2  0
 13 14  1  0
 13 15  1  0
 15 16  2  0
  6 17  1  0
 17 18  2  0
 18 19  1  0
 19 20  2  0
 20 21  1  0
 21 22  1  0
 21 23  2  0
 23 24  1  0
 24 25  2  0
 25 26  1  0
 26 27  1  0
 27 28  1  0
 27 29  1  0
  2 30  1  0
 30 31  1  0
 31 32  2  0
 32 33  1  0
 33 34  1  0
 34 35  2  0
 35 36  1  0
 36 37  2  0
 37 38  1  0
 18  4  1  0
 25 19  1  0
 38 30  2  0
 16 10  1  0
 38 33  1  0
  5 39  1  0
 11 40  1  0
 12 41  1  0
 15 42  1  0
 16 43  1  0
 20 44  1  0
 23 45  1  0
 24 46  1  0
 27 47  1  0
 31 48  1  0
 34 49  1  0
 35 50  1  0
 36 51  1  0
M  CHG  3   3  -1  13   1  14  -1
M  END
>  <UniqueID>  (40) 
39

>  <SMILES>  (40) 
O=C([N-]c1cn(S(=O)(=O)c2cc[n+]([O-])cc2)nc1-c1cc(Cl)ccc1OC(F)F)c1cnn2cccnc12

>  <Energy>  (40) 
142.6139574934028

>  <Genealogy>  (40) 
O=C([N-]c1cn(S(=O)(=O)c2cc[n+]([O-])cc2)nc1-c1cc(Cl)ccc1OC(F)F)c1cnn2cccnc12 (protonated)
O=C([N-]c1cn(S(=O)(=O)c2cc[n+]([O-])cc2)nc1-c1cc(Cl)ccc1OC(F)F)c1cnn2cccnc12 (3D coordinates assigned)
O=C([N-]c1cn(S(=O)(=O)c2cc[n+]([O-])cc2)nc1-c1cc(Cl)ccc1OC(F)F)c1cnn2cccnc12 (optimized conformer: 142.6139574934028 kcal/mol)

>  <smiles>  (40) 
O=C(Nc1cn(S(=O)(=O)c2cc[n+]([O-])cc2)nc1-c1cc(Cl)ccc1OC(F)F)c1cnn2cccnc12

>  <score_type>  (40) 
oracle

>  <origin>  (40) 
adgpu

>  <m_score__min__energy>  (40) 
-10.93

>  <m_primary>  (40) 
energy

$$$$
40:0
     RDKit          3D

 53 56  0  0  0  0  0  0  0  0999 V2000
   -3.5460   16.1400  -35.0220 C   0  0  0  0  0  0  0  0  0  0  0  0
   -4.6720   16.2400  -34.1560 O   0  0  0  0  0  0  0  0  0  0  0  0
   -5.1570   17.4480  -33.6300 C   0  0  0  0  0  0  0  0  0  0  0  0
   -4.4000   18.6350  -33.6450 C   0  0  0  0  0  0  0  0  0  0  0  0
   -4.9300   19.8150  -33.1170 C   0  0  0  0  0  0  0  0  0  0  0  0
   -6.2180   19.8300  -32.5560 C   0  0  0  0  0  0  0  0  0  0  0  0
   -6.7990   21.0890  -32.0370 C   0  0  0  0  0  0  0  0  0  0  0  0
   -8.1450   21.4130  -32.2790 C   0  0  0  0  0  0  0  0  0  0  0  0
   -8.6670   22.6340  -31.8410 C   0  0  0  0  0  0  0  0  0  0  0  0
   -7.8450   23.5560  -31.1890 C   0  0  0  0  0  0  0  0  0  0  0  0
   -6.5000   23.2500  -30.9480 C   0  0  0  0  0  0  0  0  0  0  0  0
   -5.4320   24.4820  -30.2780 S   0  0  0  0  0  0  0  0  0  0  0  0
   -6.1560   25.7920  -30.1310 O   0  0  0  0  0  0  0  0  0  0  0  0
   -4.2660   24.6740  -31.2050 O   0  0  0  0  0  0  0  0  0  0  0  0
   -4.8590   23.9670  -28.7200 N   0  0  0  0  0  0  0  0  0  0  0  0
   -3.5880   23.3150  -28.5520 C   0  0  0  0  0  0  0  0  0  0  0  0
   -3.5150   22.0000  -28.0650 C   0  0  0  0  0  0  0  0  0  0  0  0
   -2.2900   21.3240  -28.0020 C   0  0  0  0  0  0  0  0  0  0  0  0
   -1.1080   21.9820  -28.3990 C   0  0  0  0  0  0  0  0  0  0  0  0
   -1.1700   23.3200  -28.8140 C   0  0  0  0  0  0  0  0  0  0  0  0
   -2.4000   23.9810  -28.9040 C   0  0  0  0  0  0  0  0  0  0  0  0
   -2.4360   25.2930  -29.3640 O   0  0  0  0  0  0  0  0  0  0  0  0
    0.2280   21.2950  -28.3010 C   0  0  0  0  0  0  0  0  0  0  0  0
    0.0760   19.7730  -28.2330 C   0  0  0  0  0  0  0  0  0  0  0  0
   -0.9300   19.4180  -27.2140 N   0  0  0  0  0  0  0  0  0  0  0  0
   -0.9300   17.9640  -26.9930 C   0  0  0  0  0  0  0  0  0  0  0  0
   -2.2720   19.8570  -27.6500 C   0  0  0  0  0  0  0  0  0  0  0  0
   -5.9870   22.0070  -31.3480 C   0  0  0  0  0  0  0  0  0  0  0  0
   -6.9700   18.6420  -32.5410 C   0  0  0  0  0  0  0  0  0  0  0  0
   -6.4420   17.4640  -33.0760 C   0  0  0  0  0  0  0  0  0  0  0  0
   -2.6279   16.0585  -34.4217 H   0  0  0  0  0  0  0  0  0  0  0  0
   -3.6496   15.2475  -35.6566 H   0  0  0  0  0  0  0  0  0  0  0  0
   -3.4907   17.0368  -35.6566 H   0  0  0  0  0  0  0  0  0  0  0  0
   -3.3872   18.6334  -34.0742 H   0  0  0  0  0  0  0  0  0  0  0  0
   -4.3342   20.7394  -33.1407 H   0  0  0  0  0  0  0  0  0  0  0  0
   -8.7910   20.7026  -32.8156 H   0  0  0  0  0  0  0  0  0  0  0  0
   -9.7281   22.8691  -32.0104 H   0  0  0  0  0  0  0  0  0  0  0  0
   -8.2548   24.5238  -30.8644 H   0  0  0  0  0  0  0  0  0  0  0  0
   -5.3680   24.3290  -27.8840 H   0  0  0  0  0  0  0  0  0  0  0  0
   -4.4320   21.4941  -27.7285 H   0  0  0  0  0  0  0  0  0  0  0  0
   -0.2436   23.8546  -29.0710 H   0  0  0  0  0  0  0  0  0  0  0  0
    0.8285   21.5545  -29.1853 H   0  0  0  0  0  0  0  0  0  0  0  0
    0.7215   21.6329  -27.3778 H   0  0  0  0  0  0  0  0  0  0  0  0
   -0.2475   19.3938  -29.2136 H   0  0  0  0  0  0  0  0  0  0  0  0
    1.0424   19.3225  -27.9628 H   0  0  0  0  0  0  0  0  0  0  0  0
    0.1071   17.6015  -26.9379 H   0  0  0  0  0  0  0  0  0  0  0  0
   -1.4485   17.7365  -26.0500 H   0  0  0  0  0  0  0  0  0  0  0  0
   -1.4485   17.4665  -27.8258 H   0  0  0  0  0  0  0  0  0  0  0  0
   -2.5683   19.2741  -28.5346 H   0  0  0  0  0  0  0  0  0  0  0  0
   -2.9739   19.6943  -26.8188 H   0  0  0  0  0  0  0  0  0  0  0  0
   -4.9421   21.7488  -31.1210 H   0  0  0  0  0  0  0  0  0  0  0  0
   -7.9801   18.6399  -32.1055 H   0  0  0  0  0  0  0  0  0  0  0  0
   -7.0413   16.5417  -33.0616 H   0  0  0  0  0  0  0  0  0  0  0  0
  1  2  1  0
  2  3  1  0
  3  4  2  0
  4  5  1  0
  5  6  2  0
  6  7  1  0
  7  8  2  0
  8  9  1  0
  9 10  2  0
 10 11  1  0
 11 12  1  0
 12 13  2  0
 12 14  2  0
 12 15  1  0
 15 16  1  0
 16 17  2  0
 17 18  1  0
 18 19  2  0
 19 20  1  0
 20 21  2  0
 21 22  1  0
 19 23  1  0
 23 24  1  0
 24 25  1  0
 25 26  1  0
 25 27  1  0
 11 28  2  0
  6 29  1  0
 29 30  2  0
 30  3  1  0
 28  7  1  0
 21 16  1  0
 27 18  1  0
  1 31  1  0
  1 32  1  0
  1 33  1  0
  4 34  1  0
  5 35  1  0
  8 36  1  0
  9 37  1  0
 10 38  1  0
 15 39  1  0
 17 40  1  0
 20 41  1  0
 23 42  1  0
 23 43  1  0
 24 44  1  0
 24 45  1  0
 26 46  1  0
 26 47  1  0
 26 48  1  0
 27 49  1  0
 27 50  1  0
 28 51  1  0
 29 52  1  0
 30 53  1  0
M  CHG  1  22  -1
M  END
>  <UniqueID>  (41) 
40

>  <SMILES>  (41) 
COc1ccc(-c2cccc(S(=O)(=O)Nc3cc4c(cc3[O-])CCN(C)C4)c2)cc1

>  <Energy>  (41) 
65.58053404578062

>  <Genealogy>  (41) 
COc1ccc(-c2cccc(S(=O)(=O)Nc3cc4c(cc3[O-])CCN(C)C4)c2)cc1 (protonated)
COc1ccc(-c2cccc(S(=O)(=O)Nc3cc4c(cc3[O-])CCN(C)C4)c2)cc1 (3D coordinates assigned)
COc1ccc(-c2cccc(S(=O)(=O)Nc3cc4c(cc3[O-])CCN(C)C4)c2)cc1 (nonaromatic ring conformer: 65.58053404578062 kcal/mol)

>  <smiles>  (41) 
COc1ccc(-c2cccc(S(=O)(=O)Nc3cc4c(cc3O)CCN(C)C4)c2)cc1

>  <score_type>  (41) 
oracle

>  <origin>  (41) 
adgpu

>  <m_score__min__energy>  (41) 
-13.94

>  <m_primary>  (41) 
energy

$$$$
41:0
     RDKit          3D

 53 56  0  0  0  0  0  0  0  0999 V2000
   -4.4770   16.2310  -34.9580 C   0  0  0  0  0  0  0  0  0  0  0  0
   -5.7150   16.3690  -34.1290 C   0  0  0  0  0  0  0  0  0  0  0  0
   -6.5320   15.4120  -34.1210 O   0  0  0  0  0  0  0  0  0  0  0  0
   -5.9810   17.5550  -33.3460 N   0  0  0  0  0  0  0  0  0  0  0  0
   -7.3650   17.8390  -32.9270 C   0  0  0  0  0  0  0  0  0  0  0  0
   -7.3870   18.5960  -31.5970 C   0  0  0  0  0  0  0  0  0  0  0  0
   -6.4650   19.7310  -31.6670 N   0  0  0  0  0  0  0  0  0  0  0  0
   -6.9600   21.0730  -31.8520 C   0  0  0  0  0  0  0  0  0  0  0  0
   -8.0810   21.2550  -32.4000 O   0  0  0  0  0  0  0  0  0  0  0  0
   -6.1650   22.2500  -31.4290 C   0  0  0  0  0  0  0  0  0  0  0  0
   -6.7780   23.5060  -31.3070 C   0  0  0  0  0  0  0  0  0  0  0  0
   -6.0160   24.6370  -30.9890 C   0  0  0  0  0  0  0  0  0  0  0  0
   -4.6400   24.5250  -30.7770 C   0  0  0  0  0  0  0  0  0  0  0  0
   -3.8940   25.6690  -30.4800 O   0  0  0  0  0  0  0  0  0  0  0  0
   -4.0180   23.2670  -30.8530 C   0  0  0  0  0  0  0  0  0  0  0  0
   -2.6020   23.1820  -30.6410 N   0  0  0  0  0  0  0  0  0  0  0  0
   -1.8030   23.2590  -29.1070 S   0  0  0  0  0  0  0  0  0  0  0  0
   -2.6980   23.9540  -28.1300 O   0  0  0  0  0  0  0  0  0  0  0  0
   -0.5260   24.0400  -29.2070 O   0  0  0  0  0  0  0  0  0  0  0  0
   -1.4900   21.6290  -28.5370 C   0  0  0  0  0  0  0  0  0  0  0  0
   -2.0960   21.1620  -27.3620 C   0  0  0  0  0  0  0  0  0  0  0  0
   -1.8090   19.8790  -26.8830 C   0  0  0  0  0  0  0  0  0  0  0  0
   -0.9000   19.0700  -27.5650 C   0  0  0  0  0  0  0  0  0  0  0  0
   -0.3100   19.5240  -28.7500 C   0  0  0  0  0  0  0  0  0  0  0  0
   -0.5950   20.8030  -29.2310 C   0  0  0  0  0  0  0  0  0  0  0  0
    0.5750   18.6820  -29.4360 O   0  0  0  0  0  0  0  0  0  0  0  0
    0.6960   17.2950  -29.0960 C   0  0  0  0  0  0  0  0  0  0  0  0
    0.5890   17.1140  -27.5780 C   0  0  0  0  0  0  0  0  0  0  0  0
   -0.5560   17.8060  -27.0750 O   0  0  0  0  0  0  0  0  0  0  0  0
   -4.7880   22.1280  -31.1750 C   0  0  0  0  0  0  0  0  0  0  0  0
   -5.0710   19.4020  -31.9670 C   0  0  0  0  0  0  0  0  0  0  0  0
   -5.0020   18.6560  -33.3020 C   0  0  0  0  0  0  0  0  0  0  0  0
   -3.6026   16.1335  -34.2978 H   0  0  0  0  0  0  0  0  0  0  0  0
   -4.5586   15.3364  -35.5928 H   0  0  0  0  0  0  0  0  0  0  0  0
   -4.3597   17.1216  -35.5928 H   0  0  0  0  0  0  0  0  0  0  0  0
   -7.8567   18.4505  -33.6979 H   0  0  0  0  0  0  0  0  0  0  0  0
   -7.8966   16.8847  -32.7978 H   0  0  0  0  0  0  0  0  0  0  0  0
   -8.4054   18.9623  -31.4002 H   0  0  0  0  0  0  0  0  0  0  0  0
   -7.0773   17.9211  -30.7855 H   0  0  0  0  0  0  0  0  0  0  0  0
   -7.8627   23.6029  -31.4619 H   0  0  0  0  0  0  0  0  0  0  0  0
   -6.5039   25.6193  -30.9057 H   0  0  0  0  0  0  0  0  0  0  0  0
   -2.7996   21.8066  -26.8148 H   0  0  0  0  0  0  0  0  0  0  0  0
   -2.2992   19.5090  -25.9704 H   0  0  0  0  0  0  0  0  0  0  0  0
   -0.1174   21.1626  -30.1544 H   0  0  0  0  0  0  0  0  0  0  0  0
   -0.1085   16.7283  -29.5876 H   0  0  0  0  0  0  0  0  0  0  0  0
    1.6750   16.9252  -29.4347 H   0  0  0  0  0  0  0  0  0  0  0  0
    0.4964   16.0427  -27.3460 H   0  0  0  0  0  0  0  0  0  0  0  0
    1.4924   17.5257  -27.1042 H   0  0  0  0  0  0  0  0  0  0  0  0
   -4.3076   21.1399  -31.2273 H   0  0  0  0  0  0  0  0  0  0  0  0
   -4.4811   20.3281  -32.0329 H   0  0  0  0  0  0  0  0  0  0  0  0
   -4.6630   18.7653  -31.1681 H   0  0  0  0  0  0  0  0  0  0  0  0
   -5.2169   19.3607  -34.1188 H   0  0  0  0  0  0  0  0  0  0  0  0
   -3.9934   18.2313  -33.4131 H   0  0  0  0  0  0  0  0  0  0  0  0
  1  2  1  0
  2  3  2  0
  2  4  1  0
  4  5  1  0
  5  6  1  0
  6  7  1  0
  7  8  1  0
  8  9  2  0
  8 10  1  0
 10 11  2  0
 11 12  1  0
 12 13  2  0
 13 14  1  0
 13 15  1  0
 15 16  1  0
 16 17  1  0
 17 18  2  0
 17 19  2  0
 17 20  1  0
 20 21  2  0
 21 22  1  0
 22 23  2  0
 23 24  1  0
 24 25  2  0
 24 26  1  0
 26 27  1  0
 27 28  1  0
 28 29  1  0
 15 30  2  0
  7 31  1  0
 31 32  1  0
 32  4  1  0
 30 10  1  0
 25 20  1  0
 29 23  1  0
  1 33  1  0
  1 34  1  0
  1 35  1  0
  5 36  1  0
  5 37  1  0
  6 38  1  0
  6 39  1  0
 11 40  1  0
 12 41  1  0
 21 42  1  0
 22 43  1  0
 25 44  1  0
 27 45  1  0
 27 46  1  0
 28 47  1  0
 28 48  1  0
 30 49  1  0
 31 50  1  0
 31 51  1  0
 32 52  1  0
 32 53  1  0
M  CHG  2  14  -1  16  -1
M  END
>  <UniqueID>  (42) 
41

>  <SMILES>  (42) 
CC(=O)N1CCN(C(=O)c2ccc([O-])c([N-]S(=O)(=O)c3ccc4c(c3)OCCO4)c2)CC1

>  <Energy>  (42) 
68.12560942675402

>  <Genealogy>  (42) 
CC(=O)N1CCN(C(=O)c2ccc([O-])c([N-]S(=O)(=O)c3ccc4c(c3)OCCO4)c2)CC1 (protonated)
CC(=O)N1CCN(C(=O)c2ccc([O-])c([N-]S(=O)(=O)c3ccc4c(c3)OCCO4)c2)CC1 (3D coordinates assigned)
CC(=O)N1CCN(C(=O)c2ccc([O-])c([N-]S(=O)(=O)c3ccc4c(c3)OCCO4)c2)CC1 (nonaromatic ring conformer: 68.12560942675402 kcal/mol)

>  <smiles>  (42) 
CC(=O)N1CCN(C(=O)c2ccc(O)c(NS(=O)(=O)c3ccc4c(c3)OCCO4)c2)CC1

>  <score_type>  (42) 
oracle

>  <origin>  (42) 
adgpu

>  <m_score__min__energy>  (42) 
-13.51

>  <m_primary>  (42) 
energy

$$$$
42:0
     RDKit          3D

 43 45  0  0  0  0  0  0  0  0999 V2000
   -2.2340   20.6560  -31.4630 C   0  0  0  0  0  0  0  0  0  0  0  0
   -2.7950   21.1270  -32.7410 N   0  0  0  0  0  0  0  0  0  0  0  0
   -1.8760   20.7850  -33.8360 C   0  0  0  0  0  0  0  0  0  0  0  0
   -4.1200   20.5250  -32.9860 C   0  0  0  0  0  0  0  0  0  0  0  0
   -5.2140   21.3910  -32.4030 C   0  0  0  0  0  0  0  0  0  0  0  0
   -4.8610   22.5870  -31.7620 C   0  0  0  0  0  0  0  0  0  0  0  0
   -5.8460   23.4090  -31.2010 C   0  0  0  0  0  0  0  0  0  0  0  0
   -5.4140   24.9280  -30.4210 S   0  0  0  0  0  0  0  0  0  0  0  0
   -6.0250   25.0230  -29.0470 O   0  0  0  0  0  0  0  0  0  0  0  0
   -5.9250   26.0660  -31.2600 O   0  0  0  0  0  0  0  0  0  0  0  0
   -3.6890   25.0390  -30.2910 N   0  0  0  0  0  0  0  0  0  0  0  0
   -2.8800   24.2370  -29.4170 C   0  0  0  0  0  0  0  0  0  0  0  0
   -3.2790   22.9480  -29.0130 C   0  0  0  0  0  0  0  0  0  0  0  0
   -2.4620   22.1870  -28.1680 C   0  0  0  0  0  0  0  0  0  0  0  0
   -2.8530   20.9430  -27.7830 N   0  0  0  0  0  0  0  0  0  0  0  0
   -2.0820   20.1750  -26.9690 C   0  0  0  0  0  0  0  0  0  0  0  0
   -0.8540   20.6540  -26.5030 C   0  0  0  0  0  0  0  0  0  0  0  0
   -0.4260   21.9280  -26.8790 C   0  0  0  0  0  0  0  0  0  0  0  0
   -1.2300   22.7110  -27.7180 C   0  0  0  0  0  0  0  0  0  0  0  0
   -0.8360   23.9970  -28.1160 C   0  0  0  0  0  0  0  0  0  0  0  0
   -1.6600   24.7570  -28.9560 C   0  0  0  0  0  0  0  0  0  0  0  0
   -1.2570   26.0310  -29.3370 O   0  0  0  0  0  0  0  0  0  0  0  0
   -7.1900   23.0310  -31.2760 C   0  0  0  0  0  0  0  0  0  0  0  0
   -7.5570   21.8370  -31.9000 C   0  0  0  0  0  0  0  0  0  0  0  0
   -9.4190   21.3920  -31.9590 Br  0  0  0  0  0  0  0  0  0  0  0  0
   -6.5690   21.0040  -32.4640 C   0  0  0  0  0  0  0  0  0  0  0  0
   -6.9120   19.7970  -33.0770 O   0  0  0  0  0  0  0  0  0  0  0  0
   -2.7835   21.1173  -30.6292 H   0  0  0  0  0  0  0  0  0  0  0  0
   -2.3273   19.5616  -31.4027 H   0  0  0  0  0  0  0  0  0  0  0  0
   -1.1723   20.9373  -31.4027 H   0  0  0  0  0  0  0  0  0  0  0  0
   -0.9227   20.4302  -33.4173 H   0  0  0  0  0  0  0  0  0  0  0  0
   -2.3220   19.9927  -34.4551 H   0  0  0  0  0  0  0  0  0  0  0  0
   -1.6955   21.6762  -34.4551 H   0  0  0  0  0  0  0  0  0  0  0  0
   -4.2769   20.4254  -34.0702 H   0  0  0  0  0  0  0  0  0  0  0  0
   -4.1552   19.5368  -32.5041 H   0  0  0  0  0  0  0  0  0  0  0  0
   -3.8030   22.8816  -31.6994 H   0  0  0  0  0  0  0  0  0  0  0  0
   -4.2374   22.5370  -29.3631 H   0  0  0  0  0  0  0  0  0  0  0  0
   -2.4256   19.1721  -26.6755 H   0  0  0  0  0  0  0  0  0  0  0  0
   -0.2299   20.0315  -25.8450 H   0  0  0  0  0  0  0  0  0  0  0  0
    0.5382   22.3157  -26.5184 H   0  0  0  0  0  0  0  0  0  0  0  0
    0.1223   24.4097  -27.7677 H   0  0  0  0  0  0  0  0  0  0  0  0
   -7.9643   23.6793  -30.8400 H   0  0  0  0  0  0  0  0  0  0  0  0
   -7.5160   19.7400  -33.8860 H   0  0  0  0  0  0  0  0  0  0  0  0
  1  2  1  0
  2  3  1  0
  2  4  1  0
  4  5  1  0
  5  6  2  0
  6  7  1  0
  7  8  1  0
  8  9  2  0
  8 10  2  0
  8 11  1  0
 11 12  1  0
 12 13  2  0
 13 14  1  0
 14 15  2  0
 15 16  1  0
 16 17  2  0
 17 18  1  0
 18 19  2  0
 19 20  1  0
 20 21  2  0
 21 22  1  0
  7 23  2  0
 23 24  1  0
 24 25  1  0
 24 26  2  0
 26 27  1  0
 26  5  1  0
 21 12  1  0
 19 14  1  0
  1 28  1  0
  1 29  1  0
  1 30  1  0
  3 31  1  0
  3 32  1  0
  3 33  1  0
  4 34  1  0
  4 35  1  0
  6 36  1  0
 13 37  1  0
 16 38  1  0
 17 39  1  0
 18 40  1  0
 20 41  1  0
 23 42  1  0
 27 43  1  0
M  CHG  2  11  -1  22  -1
M  END
>  <UniqueID>  (43) 
42

>  <SMILES>  (43) 
CN(C)Cc1cc(S(=O)(=O)[N-]c2cc3ncccc3cc2[O-])cc(Br)c1O

>  <Energy>  (43) 
53.25590855242561

>  <Genealogy>  (43) 
CN(C)Cc1cc(S(=O)(=O)[N-]c2cc3ncccc3cc2[O-])cc(Br)c1O (protonated)
CN(C)Cc1cc(S(=O)(=O)[N-]c2cc3ncccc3cc2[O-])cc(Br)c1O (3D coordinates assigned)
CN(C)Cc1cc(S(=O)(=O)[N-]c2cc3ncccc3cc2[O-])cc(Br)c1O (optimized conformer: 53.25590855242561 kcal/mol)

>  <smiles>  (43) 
CN(C)Cc1cc(S(=O)(=O)Nc2cc3ncccc3cc2O)cc(Br)c1O

>  <score_type>  (43) 
oracle

>  <origin>  (43) 
adgpu

>  <m_score__min__energy>  (43) 
-13.66

>  <m_primary>  (43) 
energy

$$$$
43:0
     RDKit          3D

 49 51  0  0  0  0  0  0  0  0999 V2000
   -3.9620   21.9500  -33.4510 C   0  0  0  0  0  0  0  0  0  0  0  0
   -3.6370   20.6440  -32.7300 C   0  0  0  0  0  0  0  0  0  0  0  0
   -2.1460   20.4850  -32.5630 C   0  0  0  0  0  0  0  0  0  0  0  0
   -1.3320   20.3730  -33.7020 C   0  0  0  0  0  0  0  0  0  0  0  0
    0.0520   20.2420  -33.5730 C   0  0  0  0  0  0  0  0  0  0  0  0
    0.6370   20.2290  -32.3080 C   0  0  0  0  0  0  0  0  0  0  0  0
   -0.1570   20.3550  -31.1660 C   0  0  0  0  0  0  0  0  0  0  0  0
   -1.5550   20.4920  -31.2800 C   0  0  0  0  0  0  0  0  0  0  0  0
   -2.3850   20.6290  -30.1550 O   0  0  0  0  0  0  0  0  0  0  0  0
   -2.6010   22.0730  -29.2600 S   0  0  0  0  0  0  0  0  0  0  0  0
   -2.8230   21.7220  -27.8160 O   0  0  0  0  0  0  0  0  0  0  0  0
   -1.3610   22.9120  -29.3820 O   0  0  0  0  0  0  0  0  0  0  0  0
   -3.9760   22.9830  -29.8910 C   0  0  0  0  0  0  0  0  0  0  0  0
   -5.1490   22.3020  -30.2490 C   0  0  0  0  0  0  0  0  0  0  0  0
   -6.2590   23.0040  -30.7380 C   0  0  0  0  0  0  0  0  0  0  0  0
   -7.7340   22.1360  -31.1660 S   0  0  0  0  0  0  0  0  0  0  0  0
   -8.4250   22.8610  -32.2880 O   0  0  0  0  0  0  0  0  0  0  0  0
   -8.6590   22.1240  -29.9830 O   0  0  0  0  0  0  0  0  0  0  0  0
   -7.4050   20.4900  -31.6500 N   0  0  0  0  0  0  0  0  0  0  0  0
   -8.6190   19.6680  -31.5420 C   0  0  0  0  0  0  0  0  0  0  0  0
   -8.3410   18.2350  -32.0440 C   0  0  0  0  0  0  0  0  0  0  0  0
   -6.9940   18.0730  -32.4500 O   0  0  0  0  0  0  0  0  0  0  0  0
   -6.6940   18.9900  -33.4860 C   0  0  0  0  0  0  0  0  0  0  0  0
   -6.8890   20.4520  -33.0270 C   0  0  0  0  0  0  0  0  0  0  0  0
   -6.1880   24.3950  -30.8820 C   0  0  0  0  0  0  0  0  0  0  0  0
   -5.0180   25.0780  -30.5440 C   0  0  0  0  0  0  0  0  0  0  0  0
   -3.9080   24.3790  -30.0480 C   0  0  0  0  0  0  0  0  0  0  0  0
   -2.7420   25.0670  -29.7150 O   0  0  0  0  0  0  0  0  0  0  0  0
   -4.1583   22.7389  -32.7100 H   0  0  0  0  0  0  0  0  0  0  0  0
   -3.1094   22.2429  -34.0812 H   0  0  0  0  0  0  0  0  0  0  0  0
   -4.8525   21.8091  -34.0812 H   0  0  0  0  0  0  0  0  0  0  0  0
   -4.1129   20.6507  -31.7383 H   0  0  0  0  0  0  0  0  0  0  0  0
   -4.0177   19.8042  -33.3298 H   0  0  0  0  0  0  0  0  0  0  0  0
   -1.7881   20.3886  -34.7029 H   0  0  0  0  0  0  0  0  0  0  0  0
    0.6812   20.1490  -34.4705 H   0  0  0  0  0  0  0  0  0  0  0  0
    1.7270   20.1192  -32.2088 H   0  0  0  0  0  0  0  0  0  0  0  0
    0.3119   20.3473  -30.1710 H   0  0  0  0  0  0  0  0  0  0  0  0
   -5.1980   21.2080  -30.1451 H   0  0  0  0  0  0  0  0  0  0  0  0
   -8.9384   19.6286  -30.4901 H   0  0  0  0  0  0  0  0  0  0  0  0
   -9.4113   20.1164  -32.1594 H   0  0  0  0  0  0  0  0  0  0  0  0
   -8.5561   17.5250  -31.2318 H   0  0  0  0  0  0  0  0  0  0  0  0
   -8.9861   18.0461  -32.9148 H   0  0  0  0  0  0  0  0  0  0  0  0
   -5.6476   18.8496  -33.7948 H   0  0  0  0  0  0  0  0  0  0  0  0
   -7.3806   18.7985  -34.3238 H   0  0  0  0  0  0  0  0  0  0  0  0
   -5.9232   20.9769  -33.0673 H   0  0  0  0  0  0  0  0  0  0  0  0
   -7.6127   20.9431  -33.6941 H   0  0  0  0  0  0  0  0  0  0  0  0
   -7.0570   24.9516  -31.2627 H   0  0  0  0  0  0  0  0  0  0  0  0
   -4.9667   26.1699  -30.6674 H   0  0  0  0  0  0  0  0  0  0  0  0
   -1.8310   24.6210  -29.7550 H   0  0  0  0  0  0  0  0  0  0  0  0
  1  2  1  0
  2  3  1  0
  3  4  2  0
  4  5  1  0
  5  6  2  0
  6  7  1  0
  7  8  2  0
  8  9  1  0
  9 10  1  0
 10 11  2  0
 10 12  2  0
 10 13  1  0
 13 14  2  0
 14 15  1  0
 15 16  1  0
 16 17  2  0
 16 18  2  0
 16 19  1  0
 19 20  1  0
 20 21  1  0
 21 22  1  0
 22 23  1  0
 23 24  1  0
 15 25  2  0
 25 26  1  0
 26 27  2  0
 27 28  1  0
  8  3  1  0
 27 13  1  0
 24 19  1  0
  1 29  1  0
  1 30  1  0
  1 31  1  0
  2 32  1  0
  2 33  1  0
  4 34  1  0
  5 35  1  0
  6 36  1  0
  7 37  1  0
 14 38  1  0
 20 39  1  0
 20 40  1  0
 21 41  1  0
 21 42  1  0
 23 43  1  0
 23 44  1  0
 24 45  1  0
 24 46  1  0
 25 47  1  0
 26 48  1  0
 28 49  1  0
M  END
>  <UniqueID>  (44) 
43

>  <SMILES>  (44) 
CCc1ccccc1OS(=O)(=O)c1cc(S(=O)(=O)N2CCOCC2)ccc1O

>  <Energy>  (44) 
53.988111725382204

>  <Genealogy>  (44) 
CCc1ccccc1OS(=O)(=O)c1cc(S(=O)(=O)N2CCOCC2)ccc1O (3D coordinates assigned)
CCc1ccccc1OS(=O)(=O)c1cc(S(=O)(=O)N2CCOCC2)ccc1O (nonaromatic ring conformer: 53.988111725382204 kcal/mol)

>  <smiles>  (44) 
CCc1ccccc1OS(=O)(=O)c1cc(S(=O)(=O)N2CCOCC2)ccc1O

>  <score_type>  (44) 
oracle

>  <origin>  (44) 
adgpu

>  <m_score__min__energy>  (44) 
-9.8699999999999992

>  <m_primary>  (44) 
energy

$$$$
44:0
     RDKit          3D

 51 54  0  0  0  0  0  0  0  0999 V2000
   -1.8090   24.6780  -27.2320 O   0  0  0  0  0  0  0  0  0  0  0  0
   -2.2820   23.9500  -28.4600 S   0  0  0  0  0  0  0  0  0  0  0  0
   -2.0250   24.8260  -29.6550 O   0  0  0  0  0  0  0  0  0  0  0  0
   -3.9880   23.6480  -28.3480 N   0  0  0  0  0  0  0  0  0  0  0  0
   -4.9980   23.8230  -29.3570 C   0  0  0  0  0  0  0  0  0  0  0  0
   -6.0970   22.9540  -29.3220 C   0  0  0  0  0  0  0  0  0  0  0  0
   -7.1140   23.0440  -30.2770 C   0  0  0  0  0  0  0  0  0  0  0  0
   -7.0370   24.0000  -31.2890 C   0  0  0  0  0  0  0  0  0  0  0  0
   -5.9450   24.8680  -31.3450 C   0  0  0  0  0  0  0  0  0  0  0  0
   -4.9290   24.7920  -30.3850 C   0  0  0  0  0  0  0  0  0  0  0  0
   -3.8700   25.6820  -30.4850 O   0  0  0  0  0  0  0  0  0  0  0  0
   -1.4170   22.4350  -28.6930 C   0  0  0  0  0  0  0  0  0  0  0  0
   -0.8720   21.7420  -27.6030 C   0  0  0  0  0  0  0  0  0  0  0  0
   -0.1880   20.5410  -27.8080 C   0  0  0  0  0  0  0  0  0  0  0  0
   -0.0310   20.0340  -29.1010 C   0  0  0  0  0  0  0  0  0  0  0  0
   -0.5580   20.7300  -30.1990 C   0  0  0  0  0  0  0  0  0  0  0  0
   -0.3560   20.1100  -31.8350 S   0  0  0  0  0  0  0  0  0  0  0  0
   -0.5950   18.6250  -31.8630 O   0  0  0  0  0  0  0  0  0  0  0  0
    1.0560   20.3730  -32.2790 O   0  0  0  0  0  0  0  0  0  0  0  0
   -1.4480   20.8770  -32.9400 N   0  0  0  0  0  0  0  0  0  0  0  0
   -2.8680   20.7990  -32.7920 C   0  0  0  0  0  0  0  0  0  0  0  0
   -3.5540   19.6330  -33.1550 C   0  0  0  0  0  0  0  0  0  0  0  0
   -4.9450   19.5410  -33.0040 C   0  0  0  0  0  0  0  0  0  0  0  0
   -5.6670   20.6520  -32.5110 C   0  0  0  0  0  0  0  0  0  0  0  0
   -4.9690   21.8040  -32.1130 C   0  0  0  0  0  0  0  0  0  0  0  0
   -3.5790   21.8820  -32.2460 C   0  0  0  0  0  0  0  0  0  0  0  0
   -2.9270   23.0470  -31.8410 O   0  0  0  0  0  0  0  0  0  0  0  0
   -7.1610   20.5920  -32.2910 C   0  0  0  0  0  0  0  0  0  0  0  0
   -7.8280   19.4490  -33.0650 C   0  0  0  0  0  0  0  0  0  0  0  0
   -7.0500   18.1480  -32.8690 C   0  0  0  0  0  0  0  0  0  0  0  0
   -5.6420   18.2820  -33.4560 C   0  0  0  0  0  0  0  0  0  0  0  0
   -1.2530   21.9270  -29.9890 C   0  0  0  0  0  0  0  0  0  0  0  0
   -6.1602   22.1908  -28.5324 H   0  0  0  0  0  0  0  0  0  0  0  0
   -7.9748   22.3607  -30.2300 H   0  0  0  0  0  0  0  0  0  0  0  0
   -7.8356   24.0702  -32.0422 H   0  0  0  0  0  0  0  0  0  0  0  0
   -5.8825   25.6165  -32.1487 H   0  0  0  0  0  0  0  0  0  0  0  0
   -0.9830   22.1442  -26.5852 H   0  0  0  0  0  0  0  0  0  0  0  0
    0.2280   19.9931  -26.9496 H   0  0  0  0  0  0  0  0  0  0  0  0
    0.5069   19.0874  -29.2579 H   0  0  0  0  0  0  0  0  0  0  0  0
   -2.9944   18.7787  -33.5637 H   0  0  0  0  0  0  0  0  0  0  0  0
   -5.5227   22.6558  -31.6913 H   0  0  0  0  0  0  0  0  0  0  0  0
   -3.2230   23.5790  -31.0330 H   0  0  0  0  0  0  0  0  0  0  0  0
   -7.3531   20.4490  -31.2174 H   0  0  0  0  0  0  0  0  0  0  0  0
   -7.5890   21.5362  -32.6588 H   0  0  0  0  0  0  0  0  0  0  0  0
   -8.8565   19.3150  -32.6988 H   0  0  0  0  0  0  0  0  0  0  0  0
   -7.8380   19.7011  -34.1357 H   0  0  0  0  0  0  0  0  0  0  0  0
   -6.9762   17.9269  -31.7940 H   0  0  0  0  0  0  0  0  0  0  0  0
   -7.5782   17.3321  -33.3841 H   0  0  0  0  0  0  0  0  0  0  0  0
   -5.0439   17.4147  -33.1396 H   0  0  0  0  0  0  0  0  0  0  0  0
   -5.7394   18.3286  -34.5507 H   0  0  0  0  0  0  0  0  0  0  0  0
   -1.6732   22.4725  -30.8468 H   0  0  0  0  0  0  0  0  0  0  0  0
  1  2  2  0
  2  3  2  0
  2  4  1  0
  4  5  1  0
  5  6  2  0
  6  7  1  0
  7  8  2  0
  8  9  1  0
  9 10  2  0
 10 11  1  0
  2 12  1  0
 12 13  2  0
 13 14  1  0
 14 15  2  0
 15 16  1  0
 16 17  1  0
 17 18  2  0
 17 19  2  0
 17 20  1  0
 20 21  1  0
 21 22  2  0
 22 23  1  0
 23 24  2  0
 24 25  1  0
 25 26  2  0
 26 27  1  0
 24 28  1  0
 28 29  1  0
 29 30  1  0
 30 31  1  0
 16 32  2  0
 10  5  1  0
 32 12  1  0
 26 21  1  0
 31 23  1  0
  6 33  1  0
  7 34  1  0
  8 35  1  0
  9 36  1  0
 13 37  1  0
 14 38  1  0
 15 39  1  0
 22 40  1  0
 25 41  1  0
 27 42  1  0
 28 43  1  0
 28 44  1  0
 29 45  1  0
 29 46  1  0
 30 47  1  0
 30 48  1  0
 31 49  1  0
 31 50  1  0
 32 51  1  0
M  CHG  3   4  -1  11  -1  20  -1
M  END
>  <UniqueID>  (45) 
44

>  <SMILES>  (45) 
O=S(=O)([N-]c1ccccc1[O-])c1cccc(S(=O)(=O)[N-]c2cc3c(cc2O)CCCC3)c1

>  <Energy>  (45) 
67.11191424922109

>  <Genealogy>  (45) 
O=S(=O)([N-]c1ccccc1[O-])c1cccc(S(=O)(=O)[N-]c2cc3c(cc2O)CCCC3)c1 (protonated)
O=S(=O)([N-]c1ccccc1[O-])c1cccc(S(=O)(=O)[N-]c2cc3c(cc2O)CCCC3)c1 (3D coordinates assigned)
O=S(=O)([N-]c1ccccc1[O-])c1cccc(S(=O)(=O)[N-]c2cc3c(cc2O)CCCC3)c1 (nonaromatic ring conformer: 67.11191424922109 kcal/mol)

>  <smiles>  (45) 
O=S(=O)(Nc1ccccc1O)c1cccc(S(=O)(=O)Nc2cc3c(cc2O)CCCC3)c1

>  <score_type>  (45) 
oracle

>  <origin>  (45) 
adgpu

>  <m_score__min__energy>  (45) 
-14.029999999999999

>  <m_primary>  (45) 
energy

$$$$
45:0
     RDKit          3D

 40 42  0  0  0  0  0  0  0  0999 V2000
   -7.9580   19.6120  -32.2080 C   0  0  0  0  0  0  0  0  0  0  0  0
   -7.3820   21.0030  -32.1250 C   0  0  0  0  0  0  0  0  0  0  0  0
   -8.2430   22.0480  -31.7620 C   0  0  0  0  0  0  0  0  0  0  0  0
   -7.7730   23.3510  -31.6460 C   0  0  0  0  0  0  0  0  0  0  0  0
   -6.4290   23.6410  -31.8700 C   0  0  0  0  0  0  0  0  0  0  0  0
   -5.9870   24.9930  -31.6890 N   0  0  0  0  0  0  0  0  0  0  0  0
   -5.2820   25.4900  -30.5440 C   0  0  0  0  0  0  0  0  0  0  0  0
   -5.9150   26.0250  -29.5940 O   0  0  0  0  0  0  0  0  0  0  0  0
   -3.8710   25.2930  -30.4140 N   0  0  0  0  0  0  0  0  0  0  0  0
   -3.2320   24.2710  -29.6380 C   0  0  0  0  0  0  0  0  0  0  0  0
   -1.8640   24.3300  -29.3110 C   0  0  0  0  0  0  0  0  0  0  0  0
   -1.2830   23.3260  -28.5300 C   0  0  0  0  0  0  0  0  0  0  0  0
   -2.0610   22.2660  -28.0570 C   0  0  0  0  0  0  0  0  0  0  0  0
   -1.2650   20.8970  -26.9890 Br  0  0  0  0  0  0  0  0  0  0  0  0
   -3.4260   22.2160  -28.3570 C   0  0  0  0  0  0  0  0  0  0  0  0
   -4.0100   23.2190  -29.1360 C   0  0  0  0  0  0  0  0  0  0  0  0
   -5.5300   22.6000  -32.1790 C   0  0  0  0  0  0  0  0  0  0  0  0
   -4.1630   22.8910  -32.1970 O   0  0  0  0  0  0  0  0  0  0  0  0
   -6.0160   21.2840  -32.4040 C   0  0  0  0  0  0  0  0  0  0  0  0
   -4.9250   20.0210  -33.0350 S   0  0  0  0  0  0  0  0  0  0  0  0
   -5.5590   19.3350  -34.2130 O   0  0  0  0  0  0  0  0  0  0  0  0
   -4.6740   18.9670  -31.9940 O   0  0  0  0  0  0  0  0  0  0  0  0
   -3.3630   20.7810  -33.4760 C   0  0  0  0  0  0  0  0  0  0  0  0
   -2.2840   20.6170  -32.4200 C   0  0  0  0  0  0  0  0  0  0  0  0
   -2.1980   19.8340  -33.7180 C   0  0  0  0  0  0  0  0  0  0  0  0
   -8.1199   19.2210  -31.1927 H   0  0  0  0  0  0  0  0  0  0  0  0
   -8.9170   19.6437  -32.7459 H   0  0  0  0  0  0  0  0  0  0  0  0
   -7.2573   18.9565  -32.7459 H   0  0  0  0  0  0  0  0  0  0  0  0
   -9.3041   21.8341  -31.5664 H   0  0  0  0  0  0  0  0  0  0  0  0
   -8.4679   24.1596  -31.3752 H   0  0  0  0  0  0  0  0  0  0  0  0
   -1.2500   25.1687  -29.6711 H   0  0  0  0  0  0  0  0  0  0  0  0
   -0.2110   23.3708  -28.2874 H   0  0  0  0  0  0  0  0  0  0  0  0
   -4.0411   21.3860  -27.9793 H   0  0  0  0  0  0  0  0  0  0  0  0
   -5.0871   23.1823  -29.3564 H   0  0  0  0  0  0  0  0  0  0  0  0
   -3.7800   23.7970  -31.9670 H   0  0  0  0  0  0  0  0  0  0  0  0
   -3.8007   21.6165  -34.0420 H   0  0  0  0  0  0  0  0  0  0  0  0
   -1.5769   21.4367  -32.2246 H   0  0  0  0  0  0  0  0  0  0  0  0
   -2.2754   20.3544  -31.3518 H   0  0  0  0  0  0  0  0  0  0  0  0
   -1.4292   20.0868  -34.4630 H   0  0  0  0  0  0  0  0  0  0  0  0
   -2.1017   18.7700  -33.9799 H   0  0  0  0  0  0  0  0  0  0  0  0
  1  2  1  0
  2  3  2  0
  3  4  1  0
  4  5  2  0
  5  6  1  0
  6  7  1  0
  7  8  2  0
  7  9  1  0
  9 10  1  0
 10 11  2  0
 11 12  1  0
 12 13  2  0
 13 14  1  0
 13 15  1  0
 15 16  2  0
  5 17  1  0
 17 18  1  0
 17 19  2  0
 19 20  1  0
 20 21  2  0
 20 22  2  0
 20 23  1  0
 23 24  1  0
 24 25  1  0
 19  2  1  0
 25 23  1  0
 16 10  1  0
  1 26  1  0
  1 27  1  0
  1 28  1  0
  3 29  1  0
  4 30  1  0
 11 31  1  0
 12 32  1  0
 15 33  1  0
 16 34  1  0
 18 35  1  0
 23 36  1  0
 24 37  1  0
 24 38  1  0
 25 39  1  0
 25 40  1  0
M  CHG  2   6  -1   9  -1
M  END
>  <UniqueID>  (46) 
45

>  <SMILES>  (46) 
Cc1ccc([N-]C(=O)[N-]c2ccc(Br)cc2)c(O)c1S(=O)(=O)C1CC1

>  <Energy>  (46) 
319.24588784672534

>  <Genealogy>  (46) 
Cc1ccc([N-]C(=O)[N-]c2ccc(Br)cc2)c(O)c1S(=O)(=O)C1CC1 (protonated)
Cc1ccc([N-]C(=O)[N-]c2ccc(Br)cc2)c(O)c1S(=O)(=O)C1CC1 (3D coordinates assigned)
Cc1ccc([N-]C(=O)[N-]c2ccc(Br)cc2)c(O)c1S(=O)(=O)C1CC1 (nonaromatic ring conformer: 319.24588784672534 kcal/mol)

>  <smiles>  (46) 
Cc1ccc(NC(=O)Nc2ccc(Br)cc2)c(O)c1S(=O)(=O)C1CC1

>  <score_type>  (46) 
oracle

>  <origin>  (46) 
adgpu

>  <m_score__min__energy>  (46) 
-12.41

>  <m_primary>  (46) 
energy

$$$$
46:0
     RDKit          3D

 51 53  0  0  0  0  0  0  0  0999 V2000
   -3.9310   20.4830  -31.0510 C   0  0  0  0  0  0  0  0  0  0  0  0
   -3.2580   21.0900  -32.2130 N   0  0  0  0  0  0  0  0  0  0  0  0
   -2.1220   21.9410  -31.8090 C   0  0  0  0  0  0  0  0  0  0  0  0
   -0.9270   21.1220  -31.2700 C   0  0  0  0  0  0  0  0  0  0  0  0
   -0.9700   19.7140  -31.7120 N   0  0  0  0  0  0  0  0  0  0  0  0
    0.6020   18.9810  -31.5240 S   0  0  0  0  0  0  0  0  0  0  0  0
    1.6740   20.0340  -31.6030 O   0  0  0  0  0  0  0  0  0  0  0  0
    0.8300   17.9780  -32.6210 O   0  0  0  0  0  0  0  0  0  0  0  0
    0.6780   18.1490  -29.9740 C   0  0  0  0  0  0  0  0  0  0  0  0
    1.7260   17.2640  -29.6850 C   0  0  0  0  0  0  0  0  0  0  0  0
    1.7860   16.6330  -28.4390 C   0  0  0  0  0  0  0  0  0  0  0  0
    0.8110   16.8940  -27.4720 C   0  0  0  0  0  0  0  0  0  0  0  0
   -0.2260   17.8030  -27.7440 C   0  0  0  0  0  0  0  0  0  0  0  0
   -1.2510   18.0780  -26.7800 N   0  0  0  0  0  0  0  0  0  0  0  0
   -2.2900   19.0560  -26.9110 C   0  0  0  0  0  0  0  0  0  0  0  0
   -3.4730   18.6660  -27.0980 O   0  0  0  0  0  0  0  0  0  0  0  0
   -1.9960   20.5340  -26.8960 C   0  0  0  0  0  0  0  0  0  0  0  0
   -3.1150   21.3220  -27.5860 C   0  0  0  0  0  0  0  0  0  0  0  0
   -2.6010   22.6500  -28.0740 C   0  0  0  0  0  0  0  0  0  0  0  0
   -1.4580   23.2240  -27.4920 C   0  0  0  0  0  0  0  0  0  0  0  0
   -1.0000   24.4730  -27.9220 C   0  0  0  0  0  0  0  0  0  0  0  0
   -1.6850   25.1650  -28.9260 C   0  0  0  0  0  0  0  0  0  0  0  0
   -1.2250   26.4060  -29.3490 O   0  0  0  0  0  0  0  0  0  0  0  0
   -2.8330   24.6050  -29.5000 C   0  0  0  0  0  0  0  0  0  0  0  0
   -3.5220   25.2920  -30.4940 O   0  0  0  0  0  0  0  0  0  0  0  0
   -3.2930   23.3550  -29.0720 C   0  0  0  0  0  0  0  0  0  0  0  0
   -0.2990   18.4070  -29.0040 C   0  0  0  0  0  0  0  0  0  0  0  0
   -1.4080   19.6180  -33.1090 C   0  0  0  0  0  0  0  0  0  0  0  0
   -2.8730   20.0830  -33.2310 C   0  0  0  0  0  0  0  0  0  0  0  0
   -3.4912   20.8797  -30.1241 H   0  0  0  0  0  0  0  0  0  0  0  0
   -5.0036   20.7251  -31.0808 H   0  0  0  0  0  0  0  0  0  0  0  0
   -3.8005   19.3912  -31.0808 H   0  0  0  0  0  0  0  0  0  0  0  0
   -1.7871   22.5194  -32.6827 H   0  0  0  0  0  0  0  0  0  0  0  0
   -2.4695   22.5966  -30.9969 H   0  0  0  0  0  0  0  0  0  0  0  0
    0.0065   21.5781  -31.6312 H   0  0  0  0  0  0  0  0  0  0  0  0
   -0.9792   21.1323  -30.1713 H   0  0  0  0  0  0  0  0  0  0  0  0
    2.5018   17.0659  -30.4393 H   0  0  0  0  0  0  0  0  0  0  0  0
    2.6024   15.9294  -28.2190 H   0  0  0  0  0  0  0  0  0  0  0  0
    0.8553   16.3872  -26.4967 H   0  0  0  0  0  0  0  0  0  0  0  0
   -1.9072   20.8728  -25.8533 H   0  0  0  0  0  0  0  0  0  0  0  0
   -1.0558   20.7105  -27.4391 H   0  0  0  0  0  0  0  0  0  0  0  0
   -3.4909   20.7426  -28.4421 H   0  0  0  0  0  0  0  0  0  0  0  0
   -3.9246   21.4980  -26.8624 H   0  0  0  0  0  0  0  0  0  0  0  0
   -0.9215   22.6885  -26.6949 H   0  0  0  0  0  0  0  0  0  0  0  0
   -0.0988   24.9125  -27.4696 H   0  0  0  0  0  0  0  0  0  0  0  0
   -4.2004   22.9227  -29.5190 H   0  0  0  0  0  0  0  0  0  0  0  0
   -1.1301   19.0897  -29.2346 H   0  0  0  0  0  0  0  0  0  0  0  0
   -0.7689   20.2565  -33.7366 H   0  0  0  0  0  0  0  0  0  0  0  0
   -1.3301   18.5727  -33.4427 H   0  0  0  0  0  0  0  0  0  0  0  0
   -3.0172   20.5231  -34.2287 H   0  0  0  0  0  0  0  0  0  0  0  0
   -3.5085   19.1996  -33.0704 H   0  0  0  0  0  0  0  0  0  0  0  0
  1  2  1  0
  2  3  1  0
  3  4  1  0
  4  5  1  0
  5  6  1  0
  6  7  2  0
  6  8  2  0
  6  9  1  0
  9 10  2  0
 10 11  1  0
 11 12  2  0
 12 13  1  0
 13 14  1  0
 14 15  1  0
 15 16  2  0
 15 17  1  0
 17 18  1  0
 18 19  1  0
 19 20  2  0
 20 21  1  0
 21 22  2  0
 22 23  1  0
 22 24  1  0
 24 25  1  0
 24 26  2  0
 13 27  2  0
  5 28  1  0
 28 29  1  0
 29  2  1  0
 27  9  1  0
 26 19  1  0
  1 30  1  0
  1 31  1  0
  1 32  1  0
  3 33  1  0
  3 34  1  0
  4 35  1  0
  4 36  1  0
 10 37  1  0
 11 38  1  0
 12 39  1  0
 17 40  1  0
 17 41  1  0
 18 42  1  0
 18 43  1  0
 20 44  1  0
 21 45  1  0
 26 46  1  0
 27 47  1  0
 28 48  1  0
 28 49  1  0
 29 50  1  0
 29 51  1  0
M  CHG  3  14  -1  23  -1  25  -1
M  END
>  <UniqueID>  (47) 
46

>  <SMILES>  (47) 
CN1CCN(S(=O)(=O)c2cccc([N-]C(=O)CCc3ccc([O-])c([O-])c3)c2)CC1

>  <Energy>  (47) 
62.475219558556795

>  <Genealogy>  (47) 
CN1CCN(S(=O)(=O)c2cccc([N-]C(=O)CCc3ccc([O-])c([O-])c3)c2)CC1 (protonated)
CN1CCN(S(=O)(=O)c2cccc([N-]C(=O)CCc3ccc([O-])c([O-])c3)c2)CC1 (3D coordinates assigned)
CN1CCN(S(=O)(=O)c2cccc([N-]C(=O)CCc3ccc([O-])c([O-])c3)c2)CC1 (nonaromatic ring conformer: 62.475219558556795 kcal/mol)

>  <smiles>  (47) 
CN1CCN(S(=O)(=O)c2cccc(NC(=O)CCc3ccc(O)c(O)c3)c2)CC1

>  <score_type>  (47) 
oracle

>  <origin>  (47) 
adgpu

>  <m_score__min__energy>  (47) 
-14.789999999999999

>  <m_primary>  (47) 
energy

$$$$
47:0
     RDKit          3D

 48 51  0  0  0  0  0  0  0  0999 V2000
   -4.3920   25.7310  -30.5670 O   0  0  0  0  0  0  0  0  0  0  0  0
   -4.5610   24.4830  -30.6420 C   0  0  0  0  0  0  0  0  0  0  0  0
   -5.9360   23.9310  -30.8380 C   0  0  0  0  0  0  0  0  0  0  0  0
   -5.8620   22.6640  -31.6330 C   0  0  0  0  0  0  0  0  0  0  0  0
   -4.8570   22.3020  -32.5240 C   0  0  0  0  0  0  0  0  0  0  0  0
   -5.1660   21.1370  -33.1370 N   0  0  0  0  0  0  0  0  0  0  0  0
   -6.3640   20.7670  -32.6500 C   0  0  0  0  0  0  0  0  0  0  0  0
   -7.1100   19.6430  -33.0040 C   0  0  0  0  0  0  0  0  0  0  0  0
   -8.3620   19.4640  -32.3870 C   0  0  0  0  0  0  0  0  0  0  0  0
   -8.8360   20.4040  -31.4450 C   0  0  0  0  0  0  0  0  0  0  0  0
   -8.0620   21.5290  -31.1090 C   0  0  0  0  0  0  0  0  0  0  0  0
   -6.8240   21.6770  -31.7330 C   0  0  0  0  0  0  0  0  0  0  0  0
   -3.4510   23.5890  -30.5200 N   0  0  0  0  0  0  0  0  0  0  0  0
   -2.7520   23.3100  -29.3000 C   0  0  0  0  0  0  0  0  0  0  0  0
   -2.7550   21.9980  -28.8110 C   0  0  0  0  0  0  0  0  0  0  0  0
   -2.0870   21.6780  -27.6200 C   0  0  0  0  0  0  0  0  0  0  0  0
   -2.0810   20.0150  -27.0210 S   0  0  0  0  0  0  0  0  0  0  0  0
   -1.6210   20.0120  -25.5910 O   0  0  0  0  0  0  0  0  0  0  0  0
   -3.4840   19.4770  -27.0600 O   0  0  0  0  0  0  0  0  0  0  0  0
   -1.0430   18.9610  -27.9540 N   0  0  0  0  0  0  0  0  0  0  0  0
   -0.4550   17.9040  -27.1330 C   0  0  0  0  0  0  0  0  0  0  0  0
    0.8320   17.4880  -27.8300 C   0  0  0  0  0  0  0  0  0  0  0  0
    1.1850   18.6490  -28.7500 C   0  0  0  0  0  0  0  0  0  0  0  0
    0.0860   19.6790  -28.5370 C   0  0  0  0  0  0  0  0  0  0  0  0
   -1.4440   22.6910  -26.8970 C   0  0  0  0  0  0  0  0  0  0  0  0
   -1.4660   24.0090  -27.3590 C   0  0  0  0  0  0  0  0  0  0  0  0
   -2.1300   24.3300  -28.5520 C   0  0  0  0  0  0  0  0  0  0  0  0
   -2.1980   25.6580  -28.9710 O   0  0  0  0  0  0  0  0  0  0  0  0
   -6.3893   23.7218  -29.8578 H   0  0  0  0  0  0  0  0  0  0  0  0
   -6.5500   24.6657  -31.3794 H   0  0  0  0  0  0  0  0  0  0  0  0
   -3.9399   22.8819  -32.7045 H   0  0  0  0  0  0  0  0  0  0  0  0
   -4.5970   20.6380  -33.8570 H   0  0  0  0  0  0  0  0  0  0  0  0
   -6.7319   18.9198  -33.7416 H   0  0  0  0  0  0  0  0  0  0  0  0
   -8.9754   18.5866  -32.6398 H   0  0  0  0  0  0  0  0  0  0  0  0
   -9.8174   20.2549  -30.9710 H   0  0  0  0  0  0  0  0  0  0  0  0
   -8.4215   22.2680  -30.3778 H   0  0  0  0  0  0  0  0  0  0  0  0
   -3.2863   21.2109  -29.3661 H   0  0  0  0  0  0  0  0  0  0  0  0
   -0.2363   18.2828  -26.1237 H   0  0  0  0  0  0  0  0  0  0  0  0
   -1.1435   17.0531  -27.0235 H   0  0  0  0  0  0  0  0  0  0  0  0
    1.6326   17.3227  -27.0939 H   0  0  0  0  0  0  0  0  0  0  0  0
    0.7111   16.5466  -28.3861 H   0  0  0  0  0  0  0  0  0  0  0  0
    2.1649   19.0699  -28.4805 H   0  0  0  0  0  0  0  0  0  0  0  0
    1.2524   18.3330  -29.8015 H   0  0  0  0  0  0  0  0  0  0  0  0
    0.4307   20.4672  -27.8515 H   0  0  0  0  0  0  0  0  0  0  0  0
   -0.1952   20.1642  -29.4833 H   0  0  0  0  0  0  0  0  0  0  0  0
   -0.9194   22.4474  -25.9613 H   0  0  0  0  0  0  0  0  0  0  0  0
   -0.9602   24.7990  -26.7845 H   0  0  0  0  0  0  0  0  0  0  0  0
   -3.0510   26.0540  -29.3460 H   0  0  0  0  0  0  0  0  0  0  0  0
  1  2  2  0
  2  3  1  0
  3  4  1  0
  4  5  2  0
  5  6  1  0
  6  7  1  0
  7  8  2  0
  8  9  1  0
  9 10  2  0
 10 11  1  0
 11 12  2  0
  2 13  1  0
 13 14  1  0
 14 15  2  0
 15 16  1  0
 16 17  1  0
 17 18  2  0
 17 19  2  0
 17 20  1  0
 20 21  1  0
 21 22  1  0
 22 23  1  0
 23 24  1  0
 16 25  2  0
 25 26  1  0
 26 27  2  0
 27 28  1  0
 12  4  1  0
 27 14  1  0
 12  7  1  0
 24 20  1  0
  3 29  1  0
  3 30  1  0
  5 31  1  0
  6 32  1  0
  8 33  1  0
  9 34  1  0
 10 35  1  0
 11 36  1  0
 15 37  1  0
 21 38  1  0
 21 39  1  0
 22 40  1  0
 22 41  1  0
 23 42  1  0
 23 43  1  0
 24 44  1  0
 24 45  1  0
 25 46  1  0
 26 47  1  0
 28 48  1  0
M  CHG  1  13  -1
M  END
>  <UniqueID>  (48) 
47

>  <SMILES>  (48) 
O=C(Cc1c[nH]c2ccccc12)[N-]c1cc(S(=O)(=O)N2CCCC2)ccc1O

>  <Energy>  (48) 
87.00494315525206

>  <Genealogy>  (48) 
O=C(Cc1c[nH]c2ccccc12)[N-]c1cc(S(=O)(=O)N2CCCC2)ccc1O (protonated)
O=C(Cc1c[nH]c2ccccc12)[N-]c1cc(S(=O)(=O)N2CCCC2)ccc1O (3D coordinates assigned)
O=C(Cc1c[nH]c2ccccc12)[N-]c1cc(S(=O)(=O)N2CCCC2)ccc1O (nonaromatic ring conformer: 87.00494315525206 kcal/mol)

>  <smiles>  (48) 
O=C(Cc1c[nH]c2ccccc12)Nc1cc(S(=O)(=O)N2CCCC2)ccc1O

>  <score_type>  (48) 
oracle

>  <origin>  (48) 
adgpu

>  <m_score__min__energy>  (48) 
-11.57

>  <m_primary>  (48) 
energy

$$$$
48:0
     RDKit          3D

 56 58  0  0  0  0  0  0  0  0999 V2000
   -1.6080   18.6620  -27.0900 C   0  0  0  0  0  0  0  0  0  0  0  0
   -2.6770   19.6980  -26.7650 C   0  0  0  0  0  0  0  0  0  0  0  0
   -2.3500   20.9980  -27.3580 N   0  0  0  0  0  0  0  0  0  0  0  0
   -3.1710   21.5370  -28.3990 C   0  0  0  0  0  0  0  0  0  0  0  0
   -3.1130   20.9940  -29.6860 C   0  0  0  0  0  0  0  0  0  0  0  0
   -3.8900   21.5370  -30.7130 C   0  0  0  0  0  0  0  0  0  0  0  0
   -4.7260   22.6350  -30.4590 C   0  0  0  0  0  0  0  0  0  0  0  0
   -5.5500   23.1930  -31.5500 C   0  0  0  0  0  0  0  0  0  0  0  0
   -5.2480   24.3460  -31.9650 O   0  0  0  0  0  0  0  0  0  0  0  0
   -6.6200   22.4500  -32.2100 N   0  0  0  0  0  0  0  0  0  0  0  0
   -7.8250   22.2980  -31.3490 C   0  0  0  0  0  0  0  0  0  0  0  0
   -9.0050   21.5730  -32.0410 C   0  0  0  0  0  0  0  0  0  0  0  0
   -8.7190   20.1160  -32.4480 C   0  0  0  0  0  0  0  0  0  0  0  0
   -7.6230   19.4030  -31.6440 C   0  0  0  0  0  0  0  0  0  0  0  0
   -6.2090   19.9550  -31.8840 C   0  0  0  0  0  0  0  0  0  0  0  0
   -6.2160   21.1680  -32.8400 C   0  0  0  0  0  0  0  0  0  0  0  0
   -4.8250   23.1400  -29.1550 C   0  0  0  0  0  0  0  0  0  0  0  0
   -4.0380   22.6030  -28.1330 C   0  0  0  0  0  0  0  0  0  0  0  0
   -0.9030   21.8470  -26.9050 S   0  0  0  0  0  0  0  0  0  0  0  0
   -0.8630   21.9840  -25.4090 O   0  0  0  0  0  0  0  0  0  0  0  0
    0.3070   21.0750  -27.3510 O   0  0  0  0  0  0  0  0  0  0  0  0
   -0.8680   23.4290  -27.6790 C   0  0  0  0  0  0  0  0  0  0  0  0
   -1.0310   24.6770  -27.1110 C   0  0  0  0  0  0  0  0  0  0  0  0
   -1.2660   24.9920  -25.6690 C   0  0  0  0  0  0  0  0  0  0  0  0
   -0.9670   25.6150  -28.0760 N   0  0  0  0  0  0  0  0  0  0  0  0
   -0.7660   24.9920  -29.2030 O   0  0  0  0  0  0  0  0  0  0  0  0
   -0.6980   23.6940  -29.0210 C   0  0  0  0  0  0  0  0  0  0  0  0
   -0.4870   22.7020  -30.1160 C   0  0  0  0  0  0  0  0  0  0  0  0
   -1.1919   18.2588  -26.1550 H   0  0  0  0  0  0  0  0  0  0  0  0
   -2.0552   17.8447  -27.6748 H   0  0  0  0  0  0  0  0  0  0  0  0
   -0.8051   19.1346  -27.6748 H   0  0  0  0  0  0  0  0  0  0  0  0
   -3.6431   19.3544  -27.1632 H   0  0  0  0  0  0  0  0  0  0  0  0
   -2.7287   19.8156  -25.6725 H   0  0  0  0  0  0  0  0  0  0  0  0
   -2.4542   20.1373  -29.8908 H   0  0  0  0  0  0  0  0  0  0  0  0
   -3.8461   21.1027  -31.7227 H   0  0  0  0  0  0  0  0  0  0  0  0
   -6.9190   23.0650  -33.0040 H   0  0  0  0  0  0  0  0  0  0  0  0
   -7.5415   21.7226  -30.4554 H   0  0  0  0  0  0  0  0  0  0  0  0
   -8.1730   23.3128  -31.1060 H   0  0  0  0  0  0  0  0  0  0  0  0
   -9.8599   21.5733  -31.3488 H   0  0  0  0  0  0  0  0  0  0  0  0
   -9.2012   22.1220  -32.9738 H   0  0  0  0  0  0  0  0  0  0  0  0
   -9.6508   19.5433  -32.3308 H   0  0  0  0  0  0  0  0  0  0  0  0
   -8.3501   20.1609  -33.4833 H   0  0  0  0  0  0  0  0  0  0  0  0
   -7.8570   19.5060  -30.5741 H   0  0  0  0  0  0  0  0  0  0  0  0
   -7.6153   18.3551  -31.9783 H   0  0  0  0  0  0  0  0  0  0  0  0
   -5.7805   20.2654  -30.9196 H   0  0  0  0  0  0  0  0  0  0  0  0
   -5.6081   19.1595  -32.3488 H   0  0  0  0  0  0  0  0  0  0  0  0
   -5.2011   21.2903  -33.2462 H   0  0  0  0  0  0  0  0  0  0  0  0
   -6.9675   20.9507  -33.6133 H   0  0  0  0  0  0  0  0  0  0  0  0
   -5.5238   23.9608  -28.9359 H   0  0  0  0  0  0  0  0  0  0  0  0
   -4.1000   23.0192  -27.1166 H   0  0  0  0  0  0  0  0  0  0  0  0
   -0.7253   24.2673  -25.0425 H   0  0  0  0  0  0  0  0  0  0  0  0
   -0.9029   26.0073  -25.4516 H   0  0  0  0  0  0  0  0  0  0  0  0
   -2.3427   24.9332  -25.4516 H   0  0  0  0  0  0  0  0  0  0  0  0
   -0.2769   21.7141  -29.6803 H   0  0  0  0  0  0  0  0  0  0  0  0
   -1.3928   22.6435  -30.7374 H   0  0  0  0  0  0  0  0  0  0  0  0
    0.3642   23.0173  -30.7374 H   0  0  0  0  0  0  0  0  0  0  0  0
  1  2  1  0
  2  3  1  0
  3  4  1  0
  4  5  2  0
  5  6  1  0
  6  7  2  0
  7  8  1  0
  8  9  2  0
  8 10  1  0
 10 11  1  0
 11 12  1  0
 12 13  1  0
 13 14  1  0
 14 15  1  0
 15 16  1  0
  7 17  1  0
 17 18  2  0
  3 19  1  0
 19 20  2  0
 19 21  2  0
 19 22  1  0
 22 23  1  0
 23 24  1  0
 23 25  2  0
 25 26  1  0
 26 27  1  0
 27 28  1  0
 18  4  1  0
 27 22  2  0
 16 10  1  0
  1 29  1  0
  1 30  1  0
  1 31  1  0
  2 32  1  0
  2 33  1  0
  5 34  1  0
  6 35  1  0
 10 36  1  0
 11 37  1  0
 11 38  1  0
 12 39  1  0
 12 40  1  0
 13 41  1  0
 13 42  1  0
 14 43  1  0
 14 44  1  0
 15 45  1  0
 15 46  1  0
 16 47  1  0
 16 48  1  0
 17 49  1  0
 18 50  1  0
 24 51  1  0
 24 52  1  0
 24 53  1  0
 28 54  1  0
 28 55  1  0
 28 56  1  0
M  CHG  1  10   1
M  END
>  <UniqueID>  (49) 
48

>  <SMILES>  (49) 
CCN(c1ccc(C(=O)[NH+]2CCCCCC2)cc1)S(=O)(=O)c1c(C)noc1C

>  <Energy>  (49) 
109.51591553039036

>  <Genealogy>  (49) 
CCN(c1ccc(C(=O)[NH+]2CCCCCC2)cc1)S(=O)(=O)c1c(C)noc1C (protonated)
CCN(c1ccc(C(=O)[NH+]2CCCCCC2)cc1)S(=O)(=O)c1c(C)noc1C (3D coordinates assigned)
CCN(c1ccc(C(=O)[NH+]2CCCCCC2)cc1)S(=O)(=O)c1c(C)noc1C (nonaromatic ring conformer: 109.51591553039036 kcal/mol)

>  <smiles>  (49) 
CCN(c1ccc(C(=O)N2CCCCCC2)cc1)S(=O)(=O)c1c(C)noc1C

>  <score_type>  (49) 
oracle

>  <origin>  (49) 
adgpu

>  <m_score__min__energy>  (49) 
-6.79

>  <m_primary>  (49) 
energy

$$$$
49:0
     RDKit          3D

 60 63  0  0  0  0  0  0  0  0999 V2000
   -7.3170   22.6230  -30.6900 C   0  0  0  0  0  0  0  0  0  0  0  0
   -6.0300   22.1860  -31.3400 C   0  0  0  0  0  0  0  0  0  0  0  0
   -6.0040   20.9610  -32.0230 C   0  0  0  0  0  0  0  0  0  0  0  0
   -4.8370   20.5020  -32.6540 C   0  0  0  0  0  0  0  0  0  0  0  0
   -4.8730   19.1670  -33.3540 C   0  0  0  0  0  0  0  0  0  0  0  0
   -3.6560   21.2750  -32.5720 C   0  0  0  0  0  0  0  0  0  0  0  0
   -2.1320   20.7450  -33.3100 S   0  0  0  0  0  0  0  0  0  0  0  0
   -2.4360   19.7720  -34.4130 O   0  0  0  0  0  0  0  0  0  0  0  0
   -1.3950   21.9160  -33.8980 O   0  0  0  0  0  0  0  0  0  0  0  0
   -1.0970   20.0080  -32.0910 C   0  0  0  0  0  0  0  0  0  0  0  0
   -0.8770   18.6220  -32.0800 C   0  0  0  0  0  0  0  0  0  0  0  0
   -0.0680   18.0490  -31.0930 C   0  0  0  0  0  0  0  0  0  0  0  0
    0.5280   18.8560  -30.1190 C   0  0  0  0  0  0  0  0  0  0  0  0
    0.3160   20.2380  -30.1300 C   0  0  0  0  0  0  0  0  0  0  0  0
   -0.4940   20.8130  -31.1140 C   0  0  0  0  0  0  0  0  0  0  0  0
   -3.6810   22.4940  -31.8810 C   0  0  0  0  0  0  0  0  0  0  0  0
   -4.8470   22.9580  -31.2560 C   0  0  0  0  0  0  0  0  0  0  0  0
   -4.7860   24.5180  -30.4140 S   0  0  0  0  0  0  0  0  0  0  0  0
   -5.5070   24.4110  -29.1000 O   0  0  0  0  0  0  0  0  0  0  0  0
   -5.4810   25.5720  -31.2250 O   0  0  0  0  0  0  0  0  0  0  0  0
   -3.1270   24.9260  -30.0930 N   0  0  0  0  0  0  0  0  0  0  0  0
   -2.2490   24.2720  -29.1680 C   0  0  0  0  0  0  0  0  0  0  0  0
   -1.1820   25.0000  -28.6330 C   0  0  0  0  0  0  0  0  0  0  0  0
   -0.3150   24.4100  -27.7130 C   0  0  0  0  0  0  0  0  0  0  0  0
   -0.4930   23.0770  -27.3240 C   0  0  0  0  0  0  0  0  0  0  0  0
    0.3540   22.5160  -26.3690 O   0  0  0  0  0  0  0  0  0  0  0  0
   -1.5390   22.3150  -27.8870 C   0  0  0  0  0  0  0  0  0  0  0  0
   -1.7370   20.9340  -27.5200 N   0  0  0  0  0  0  0  0  0  0  0  0
   -0.5950   20.1140  -27.0970 C   0  0  0  0  0  0  0  0  0  0  0  0
   -0.9100   18.6260  -27.2990 C   0  0  0  0  0  0  0  0  0  0  0  0
   -2.1480   18.1960  -26.6170 N   0  0  0  0  0  0  0  0  0  0  0  0
   -3.1460   19.2630  -26.3990 C   0  0  0  0  0  0  0  0  0  0  0  0
   -3.0850   20.3530  -27.4740 C   0  0  0  0  0  0  0  0  0  0  0  0
   -2.4030   22.9220  -28.8170 C   0  0  0  0  0  0  0  0  0  0  0  0
   -7.2065   22.5855  -29.5962 H   0  0  0  0  0  0  0  0  0  0  0  0
   -7.5533   23.6517  -30.9996 H   0  0  0  0  0  0  0  0  0  0  0  0
   -8.1308   21.9508  -30.9996 H   0  0  0  0  0  0  0  0  0  0  0  0
   -6.9163   20.3478  -32.0650 H   0  0  0  0  0  0  0  0  0  0  0  0
   -4.8947   18.3611  -32.6057 H   0  0  0  0  0  0  0  0  0  0  0  0
   -5.7731   19.1072  -33.9835 H   0  0  0  0  0  0  0  0  0  0  0  0
   -3.9774   19.0588  -33.9835 H   0  0  0  0  0  0  0  0  0  0  0  0
   -1.3410   17.9857  -32.8480 H   0  0  0  0  0  0  0  0  0  0  0  0
    0.0995   16.9619  -31.0831 H   0  0  0  0  0  0  0  0  0  0  0  0
    1.1639   18.4035  -29.3438 H   0  0  0  0  0  0  0  0  0  0  0  0
    0.7864   20.8728  -29.3646 H   0  0  0  0  0  0  0  0  0  0  0  0
   -0.6588   21.9006  -31.1217 H   0  0  0  0  0  0  0  0  0  0  0  0
   -2.7649   23.1005  -31.8278 H   0  0  0  0  0  0  0  0  0  0  0  0
   -1.0251   26.0447  -28.9395 H   0  0  0  0  0  0  0  0  0  0  0  0
    0.5142   24.9962  -27.2903 H   0  0  0  0  0  0  0  0  0  0  0  0
    0.4300   22.8990  -25.4340 H   0  0  0  0  0  0  0  0  0  0  0  0
    0.2877   20.3834  -27.6955 H   0  0  0  0  0  0  0  0  0  0  0  0
   -0.3952   20.2980  -26.0311 H   0  0  0  0  0  0  0  0  0  0  0  0
   -1.0200   18.4350  -28.3767 H   0  0  0  0  0  0  0  0  0  0  0  0
   -0.0793   18.0533  -26.8608 H   0  0  0  0  0  0  0  0  0  0  0  0
   -1.8930   17.7980  -25.6830 H   0  0  0  0  0  0  0  0  0  0  0  0
   -4.1501   18.8140  -26.4087 H   0  0  0  0  0  0  0  0  0  0  0  0
   -2.9233   19.7358  -25.4311 H   0  0  0  0  0  0  0  0  0  0  0  0
   -3.3265   19.9137  -28.4531 H   0  0  0  0  0  0  0  0  0  0  0  0
   -3.8117   21.1423  -27.2314 H   0  0  0  0  0  0  0  0  0  0  0  0
   -3.2096   22.3307  -29.2749 H   0  0  0  0  0  0  0  0  0  0  0  0
  1  2  1  0
  2  3  2  0
  3  4  1  0
  4  5  1  0
  4  6  2  0
  6  7  1  0
  7  8  2  0
  7  9  2  0
  7 10  1  0
 10 11  2  0
 11 12  1  0
 12 13  2  0
 13 14  1  0
 14 15  2  0
  6 16  1  0
 16 17  2  0
 17 18  1  0
 18 19  2  0
 18 20  2  0
 18 21  1  0
 21 22  1  0
 22 23  2  0
 23 24  1  0
 24 25  2  0
 25 26  1  0
 25 27  1  0
 27 28  1  0
 28 29  1  0
 29 30  1  0
 30 31  1  0
 31 32  1  0
 32 33  1  0
 27 34  2  0
 17  2  1  0
 34 22  1  0
 15 10  1  0
 33 28  1  0
  1 35  1  0
  1 36  1  0
  1 37  1  0
  3 38  1  0
  5 39  1  0
  5 40  1  0
  5 41  1  0
 11 42  1  0
 12 43  1  0
 13 44  1  0
 14 45  1  0
 15 46  1  0
 16 47  1  0
 23 48  1  0
 24 49  1  0
 26 50  1  0
 29 51  1  0
 29 52  1  0
 30 53  1  0
 30 54  1  0
 31 55  1  0
 32 56  1  0
 32 57  1  0
 33 58  1  0
 33 59  1  0
 34 60  1  0
M  CHG  1  21  -1
M  END
>  <UniqueID>  (50) 
49

>  <SMILES>  (50) 
Cc1cc(C)c(S(=O)(=O)c2ccccc2)cc1S(=O)(=O)[N-]c1ccc(O)c(N2CCNCC2)c1

>  <Energy>  (50) 
84.24034183815967

>  <Genealogy>  (50) 
Cc1cc(C)c(S(=O)(=O)c2ccccc2)cc1S(=O)(=O)[N-]c1ccc(O)c(N2CCNCC2)c1 (protonated)
Cc1cc(C)c(S(=O)(=O)c2ccccc2)cc1S(=O)(=O)[N-]c1ccc(O)c(N2CCNCC2)c1 (3D coordinates assigned)
Cc1cc(C)c(S(=O)(=O)c2ccccc2)cc1S(=O)(=O)[N-]c1ccc(O)c(N2CCNCC2)c1 (nonaromatic ring conformer: 84.24034183815967 kcal/mol)

>  <smiles>  (50) 
Cc1cc(C)c(S(=O)(=O)c2ccccc2)cc1S(=O)(=O)Nc1ccc(O)c(N2CCNCC2)c1

>  <score_type>  (50) 
oracle

>  <origin>  (50) 
adgpu

>  <m_score__min__energy>  (50) 
-11.130000000000001

>  <m_primary>  (50) 
energy

$$$$
