0:0
     RDKit          3D

 35 37  0  0  0  0  0  0  0  0999 V2000
   -6.0740   17.4350  -34.5760 C   0  0  0  0  0  0  0  0  0  0  0  0
   -6.1110   18.7290  -33.8270 C   0  0  0  0  0  0  0  0  0  0  0  0
   -7.2320   19.0860  -33.0760 C   0  0  0  0  0  0  0  0  0  0  0  0
   -7.2280   20.2870  -32.3720 C   0  0  0  0  0  0  0  0  0  0  0  0
   -6.0970   21.1180  -32.4310 C   0  0  0  0  0  0  0  0  0  0  0  0
   -6.0310   22.4130  -31.7060 C   0  0  0  0  0  0  0  0  0  0  0  0
   -7.2140   23.0120  -31.2350 C   0  0  0  0  0  0  0  0  0  0  0  0
   -7.1680   24.2290  -30.5510 C   0  0  0  0  0  0  0  0  0  0  0  0
   -5.9430   24.8550  -30.3120 C   0  0  0  0  0  0  0  0  0  0  0  0
   -4.7520   24.2610  -30.7390 C   0  0  0  0  0  0  0  0  0  0  0  0
   -3.5110   24.9310  -30.4700 N   0  0  0  0  0  0  0  0  0  0  0  0
   -2.4830   24.4840  -29.5740 C   0  0  0  0  0  0  0  0  0  0  0  0
   -1.9690   25.3180  -28.7840 O   0  0  0  0  0  0  0  0  0  0  0  0
   -2.0500   23.0680  -29.5180 C   0  0  0  0  0  0  0  0  0  0  0  0
   -1.1700   22.5380  -30.4780 C   0  0  0  0  0  0  0  0  0  0  0  0
   -0.7820   21.2370  -30.4080 N   0  0  0  0  0  0  0  0  0  0  0  0
   -1.2250   20.4090  -29.4260 C   0  0  0  0  0  0  0  0  0  0  0  0
   -2.1120   20.8850  -28.4570 C   0  0  0  0  0  0  0  0  0  0  0  0
   -2.7440   19.7290  -27.0760 Br  0  0  0  0  0  0  0  0  0  0  0  0
   -2.5290   22.2180  -28.5090 C   0  0  0  0  0  0  0  0  0  0  0  0
   -4.8000   23.0510  -31.4550 C   0  0  0  0  0  0  0  0  0  0  0  0
   -5.0260   20.7070  -33.1670 N   0  0  0  0  0  0  0  0  0  0  0  0
   -5.0320   19.5550  -33.8400 N   0  0  0  0  0  0  0  0  0  0  0  0
   -6.0501   16.5986  -33.8620 H   0  0  0  0  0  0  0  0  0  0  0  0
   -6.9701   17.3517  -35.2085 H   0  0  0  0  0  0  0  0  0  0  0  0
   -5.1746   17.4030  -35.2085 H   0  0  0  0  0  0  0  0  0  0  0  0
   -8.1103   18.4247  -33.0407 H   0  0  0  0  0  0  0  0  0  0  0  0
   -8.1030   20.5827  -31.7746 H   0  0  0  0  0  0  0  0  0  0  0  0
   -8.1819   22.5183  -31.4067 H   0  0  0  0  0  0  0  0  0  0  0  0
   -8.0999   24.6958  -30.1995 H   0  0  0  0  0  0  0  0  0  0  0  0
   -5.9151   25.8202  -29.7852 H   0  0  0  0  0  0  0  0  0  0  0  0
   -0.7939   23.1788  -31.2891 H   0  0  0  0  0  0  0  0  0  0  0  0
   -0.8851   19.3633  -29.3938 H   0  0  0  0  0  0  0  0  0  0  0  0
   -3.2344   22.6019  -27.7573 H   0  0  0  0  0  0  0  0  0  0  0  0
   -3.8672   22.5984  -31.8226 H   0  0  0  0  0  0  0  0  0  0  0  0
  1  2  1  0
  2  3  2  0
  3  4  1  0
  4  5  2  0
  5  6  1  0
  6  7  2  0
  7  8  1  0
  8  9  2  0
  9 10  1  0
 10 11  1  0
 11 12  1  0
 12 13  2  0
 12 14  1  0
 14 15  2  0
 15 16  1  0
 16 17  2  0
 17 18  1  0
 18 19  1  0
 18 20  2  0
 10 21  2  0
  5 22  1  0
 22 23  2  0
 23  2  1  0
 21  6  1  0
 20 14  1  0
  1 24  1  0
  1 25  1  0
  1 26  1  0
  3 27  1  0
  4 28  1  0
  7 29  1  0
  8 30  1  0
  9 31  1  0
 15 32  1  0
 17 33  1  0
 20 34  1  0
 21 35  1  0
M  CHG  1  11  -1
M  END
>  <UniqueID>  (1) 
1

>  <SMILES>  (1) 
Cc1ccc(-c2cccc([N-]C(=O)c3cncc(Br)c3)c2)nn1

>  <Energy>  (1) 
49.03696791906569

>  <Genealogy>  (1) 
Cc1ccc(-c2cccc([N-]C(=O)c3cncc(Br)c3)c2)nn1 (protonated)
Cc1ccc(-c2cccc([N-]C(=O)c3cncc(Br)c3)c2)nn1 (3D coordinates assigned)
Cc1ccc(-c2cccc([N-]C(=O)c3cncc(Br)c3)c2)nn1 (optimized conformer: 49.03696791906569 kcal/mol)

>  <smiles>  (1) 
Cc1ccc(-c2cccc(NC(=O)c3cncc(Br)c3)c2)nn1

>  <score_type>  (1) 
oracle

>  <origin>  (1) 
adgpu

>  <m_score__min__energy>  (1) 
-10.449999999999999

>  <m_primary>  (1) 
energy

$$$$
1:0
     RDKit          3D

 44 46  0  0  0  0  0  0  0  0999 V2000
   -3.9300   26.2130  -31.1920 H   0  0  0  0  0  0  0  0  0  0  0  0
   -3.8580   25.2920  -30.7050 N   0  0  0  0  0  0  0  0  0  0  0  0
   -5.3210   25.0810  -29.8080 S   0  0  0  0  0  0  0  0  0  0  0  0
   -6.1110   26.3590  -29.8320 O   0  0  0  0  0  0  0  0  0  0  0  0
   -4.9710   24.7400  -28.3860 O   0  0  0  0  0  0  0  0  0  0  0  0
   -6.2780   23.7860  -30.5180 C   0  0  0  0  0  0  0  0  0  0  0  0
   -7.1170   23.0030  -29.7140 C   0  0  0  0  0  0  0  0  0  0  0  0
   -7.1746   23.1949  -28.6324 H   0  0  0  0  0  0  0  0  0  0  0  0
   -7.8810   21.9790  -30.2810 C   0  0  0  0  0  0  0  0  0  0  0  0
   -8.5398   21.3703  -29.6442 H   0  0  0  0  0  0  0  0  0  0  0  0
   -7.8110   21.7240  -31.6610 C   0  0  0  0  0  0  0  0  0  0  0  0
   -8.6370   20.6250  -32.2800 C   0  0  0  0  0  0  0  0  0  0  0  0
   -9.6108   21.0352  -32.5855 H   0  0  0  0  0  0  0  0  0  0  0  0
   -8.7722   19.8262  -31.5360 H   0  0  0  0  0  0  0  0  0  0  0  0
   -7.9650   20.0620  -33.4530 N   0  0  0  0  0  0  0  0  0  0  0  0
   -6.9050   19.3020  -33.4670 C   0  0  0  0  0  0  0  0  0  0  0  0
   -6.2540   18.8900  -32.2900 C   0  0  0  0  0  0  0  0  0  0  0  0
   -6.6354   19.2026  -31.3067 H   0  0  0  0  0  0  0  0  0  0  0  0
   -5.1240   18.0840  -32.3800 C   0  0  0  0  0  0  0  0  0  0  0  0
   -4.6017   17.7582  -31.4684 H   0  0  0  0  0  0  0  0  0  0  0  0
   -4.6570   17.6910  -33.6380 C   0  0  0  0  0  0  0  0  0  0  0  0
   -3.4450   16.8460  -33.7770 C   0  0  0  0  0  0  0  0  0  0  0  0
   -2.2730   17.4170  -34.3070 C   0  0  0  0  0  0  0  0  0  0  0  0
   -2.2643   18.4817  -34.5835 H   0  0  0  0  0  0  0  0  0  0  0  0
   -1.1220   16.6490  -34.4860 C   0  0  0  0  0  0  0  0  0  0  0  0
   -0.2139   17.1114  -34.9003 H   0  0  0  0  0  0  0  0  0  0  0  0
   -1.1180   15.2940  -34.1410 C   0  0  0  0  0  0  0  0  0  0  0  0
    0.0610   14.5080  -34.3350 N   0  0  0  0  0  0  0  0  0  0  0  0
    0.9660   14.7810  -33.8890 H   0  0  0  0  0  0  0  0  0  0  0  0
    0.0390   13.6460  -34.9250 H   0  0  0  0  0  0  0  0  0  0  0  0
   -2.2730   14.7130  -33.6070 C   0  0  0  0  0  0  0  0  0  0  0  0
   -2.2704   13.6455  -33.3416 H   0  0  0  0  0  0  0  0  0  0  0  0
   -3.4370   15.4750  -33.4050 C   0  0  0  0  0  0  0  0  0  0  0  0
   -4.6460   14.8080  -32.8030 C   0  0  0  0  0  0  0  0  0  0  0  0
   -4.5774   14.8459  -31.7058 H   0  0  0  0  0  0  0  0  0  0  0  0
   -5.5556   15.3319  -33.1318 H   0  0  0  0  0  0  0  0  0  0  0  0
   -4.6879   13.7591  -33.1318 H   0  0  0  0  0  0  0  0  0  0  0  0
   -5.3220   18.1160  -34.7440 N   0  0  0  0  0  0  0  0  0  0  0  0
   -6.4070   18.8890  -34.6660 N   0  0  0  0  0  0  0  0  0  0  0  0
   -6.8740   19.1830  -35.5530 H   0  0  0  0  0  0  0  0  0  0  0  0
   -6.9850   22.5240  -32.4660 C   0  0  0  0  0  0  0  0  0  0  0  0
   -6.9378   22.3443  -33.5502 H   0  0  0  0  0  0  0  0  0  0  0  0
   -6.2220   23.5480  -31.8970 C   0  0  0  0  0  0  0  0  0  0  0  0
   -5.5755   24.1689  -32.5346 H   0  0  0  0  0  0  0  0  0  0  0  0
  1  2  1  0
  2  3  1  0
  3  4  2  0
  3  5  2  0
  3  6  1  0
  6  7  2  0
  7  8  1  0
  7  9  1  0
  9 10  1  0
  9 11  2  0
 11 12  1  0
 12 13  1  0
 12 14  1  0
 12 15  1  0
 15 16  2  0
 16 17  1  0
 17 18  1  0
 17 19  2  0
 19 20  1  0
 19 21  1  0
 21 22  1  0
 22 23  2  0
 23 24  1  0
 23 25  1  0
 25 26  1  0
 25 27  2  0
 27 28  1  0
 28 29  1  0
 28 30  1  0
 27 31  1  0
 31 32  1  0
 31 33  2  0
 33 34  1  0
 34 35  1  0
 34 36  1  0
 34 37  1  0
 21 38  2  0
 38 39  1  0
 39 40  1  0
 11 41  1  0
 41 42  1  0
 41 43  2  0
 43 44  1  0
 43  6  1  0
 39 16  1  0
 33 22  1  0
M  CHG  1   2  -1
M  END
>  <UniqueID>  (2) 
2

>  <SMILES>  (2) 
Cc1cc(N)ccc1-c1cc/c(=N\Cc2ccc(S([NH-])(=O)=O)cc2)[nH]n1

>  <Energy>  (2) 
53.636101262996455

>  <Genealogy>  (2) 
Cc1cc(N)ccc1-c1ccc(=NCc2ccc(S([NH-])(=O)=O)cc2)[nH]n1 (protonated)
Cc1cc(N)ccc1-c1cc/c(=N\Cc2ccc(S([NH-])(=O)=O)cc2)[nH]n1 (cis-trans isomerization)
Cc1cc(N)ccc1-c1cc/c(=N\Cc2ccc(S([NH-])(=O)=O)cc2)[nH]n1 (3D coordinates assigned)
Cc1cc(N)ccc1-c1cc/c(=N\Cc2ccc(S([NH-])(=O)=O)cc2)[nH]n1 (optimized conformer: 53.636101262996455 kcal/mol)

>  <smiles>  (2) 
Cc1cc(N)ccc1-c1ccc(=NCc2ccc(S(N)(=O)=O)cc2)[nH]n1

>  <score_type>  (2) 
oracle

>  <origin>  (2) 
adgpu

>  <m_score__min__energy>  (2) 
-10.91

>  <m_primary>  (2) 
energy

$$$$
2:0
     RDKit          3D

 44 47  0  0  0  0  0  0  0  0999 V2000
   -3.3714   24.0136  -25.9334 H   0  0  0  0  0  0  0  0  0  0  0  0
   -3.0880   24.0660  -26.9950 C   0  0  0  0  0  0  0  0  0  0  0  0
   -2.3300   25.1430  -27.4640 C   0  0  0  0  0  0  0  0  0  0  0  0
   -2.0094   25.9334  -26.7694 H   0  0  0  0  0  0  0  0  0  0  0  0
   -1.9790   25.2160  -28.8160 C   0  0  0  0  0  0  0  0  0  0  0  0
   -1.2370   26.2940  -29.2850 O   0  0  0  0  0  0  0  0  0  0  0  0
   -2.3770   24.2050  -29.6990 C   0  0  0  0  0  0  0  0  0  0  0  0
   -2.1164   24.2736  -30.7655 H   0  0  0  0  0  0  0  0  0  0  0  0
   -3.1060   23.1070  -29.2270 C   0  0  0  0  0  0  0  0  0  0  0  0
   -3.5630   22.1110  -30.1490 N   0  0  0  0  0  0  0  0  0  0  0  0
   -4.6070   22.1230  -30.9410 C   0  0  0  0  0  0  0  0  0  0  0  0
   -5.6320   23.1130  -30.8850 C   0  0  0  0  0  0  0  0  0  0  0  0
   -5.7260   24.1170  -29.8520 C   0  0  0  0  0  0  0  0  0  0  0  0
   -5.8120   24.9230  -29.0240 N   0  0  0  0  0  0  0  0  0  0  0  0
   -6.6820   23.0670  -31.8090 C   0  0  0  0  0  0  0  0  0  0  0  0
   -7.4618   23.8424  -31.7824 H   0  0  0  0  0  0  0  0  0  0  0  0
   -6.7520   22.0800  -32.7370 N   0  0  0  0  0  0  0  0  0  0  0  0
   -7.5580   22.0860  -33.4030 H   0  0  0  0  0  0  0  0  0  0  0  0
   -5.8230   21.0880  -32.7980 C   0  0  0  0  0  0  0  0  0  0  0  0
   -5.9460   20.0710  -33.7570 C   0  0  0  0  0  0  0  0  0  0  0  0
   -6.8016   20.0772  -34.4483 H   0  0  0  0  0  0  0  0  0  0  0  0
   -4.9960   19.0510  -33.8450 C   0  0  0  0  0  0  0  0  0  0  0  0
   -5.1710   18.0500  -34.8110 O   0  0  0  0  0  0  0  0  0  0  0  0
   -4.9810   16.6740  -34.6010 C   0  0  0  0  0  0  0  0  0  0  0  0
   -3.9000   15.9870  -35.1850 C   0  0  0  0  0  0  0  0  0  0  0  0
   -3.1794   16.5332  -35.8114 H   0  0  0  0  0  0  0  0  0  0  0  0
   -3.7370   14.6170  -34.9740 C   0  0  0  0  0  0  0  0  0  0  0  0
   -2.8841   14.0894  -35.4259 H   0  0  0  0  0  0  0  0  0  0  0  0
   -4.6550   13.9150  -34.1900 C   0  0  0  0  0  0  0  0  0  0  0  0
   -4.5206   12.8366  -34.0198 H   0  0  0  0  0  0  0  0  0  0  0  0
   -5.7430   14.5800  -33.6220 C   0  0  0  0  0  0  0  0  0  0  0  0
   -6.4652   14.0227  -33.0073 H   0  0  0  0  0  0  0  0  0  0  0  0
   -5.9200   15.9590  -33.8320 C   0  0  0  0  0  0  0  0  0  0  0  0
   -7.0890   16.6730  -33.2120 C   0  0  0  0  0  0  0  0  0  0  0  0
   -7.0091   16.6242  -32.1160 H   0  0  0  0  0  0  0  0  0  0  0  0
   -7.0884   17.7251  -33.5332 H   0  0  0  0  0  0  0  0  0  0  0  0
   -8.0247   16.1921  -33.5332 H   0  0  0  0  0  0  0  0  0  0  0  0
   -3.9240   19.0300  -32.9410 C   0  0  0  0  0  0  0  0  0  0  0  0
   -3.1854   18.2162  -32.9881 H   0  0  0  0  0  0  0  0  0  0  0  0
   -3.7880   20.0360  -31.9810 C   0  0  0  0  0  0  0  0  0  0  0  0
   -2.9365   20.0127  -31.2850 H   0  0  0  0  0  0  0  0  0  0  0  0
   -4.7320   21.0820  -31.8950 C   0  0  0  0  0  0  0  0  0  0  0  0
   -3.4860   23.0550  -27.8760 C   0  0  0  0  0  0  0  0  0  0  0  0
   -4.0979   22.2175  -27.5098 H   0  0  0  0  0  0  0  0  0  0  0  0
  1  2  1  0
  2  3  2  0
  3  4  1  0
  3  5  1  0
  5  6  1  0
  5  7  2  0
  7  8  1  0
  7  9  1  0
  9 10  1  0
 10 11  2  0
 11 12  1  0
 12 13  1  0
 13 14  3  0
 12 15  2  0
 15 16  1  0
 15 17  1  0
 17 18  1  0
 17 19  1  0
 19 20  2  0
 20 21  1  0
 20 22  1  0
 22 23  1  0
 23 24  1  0
 24 25  2  0
 25 26  1  0
 25 27  1  0
 27 28  1  0
 27 29  2  0
 29 30  1  0
 29 31  1  0
 31 32  1  0
 31 33  2  0
 33 34  1  0
 34 35  1  0
 34 36  1  0
 34 37  1  0
 22 38  2  0
 38 39  1  0
 38 40  1  0
 40 41  1  0
 40 42  2  0
  9 43  2  0
 43 44  1  0
 43  2  1  0
 42 11  1  0
 42 19  1  0
 33 24  1  0
M  CHG  1   6  -1
M  END
>  <UniqueID>  (3) 
3

>  <SMILES>  (3) 
Cc1ccccc1Oc1ccc2/c(=N/c3cccc([O-])c3)c(C#N)c[nH]c2c1

>  <Energy>  (3) 
75.67962326938105

>  <Genealogy>  (3) 
Cc1ccccc1Oc1ccc2c(=Nc3cccc([O-])c3)c(C#N)c[nH]c2c1 (protonated)
Cc1ccccc1Oc1ccc2/c(=N/c3cccc([O-])c3)c(C#N)c[nH]c2c1 (cis-trans isomerization)
Cc1ccccc1Oc1ccc2/c(=N/c3cccc([O-])c3)c(C#N)c[nH]c2c1 (3D coordinates assigned)
Cc1ccccc1Oc1ccc2/c(=N/c3cccc([O-])c3)c(C#N)c[nH]c2c1 (optimized conformer: 75.67962326938105 kcal/mol)

>  <smiles>  (3) 
Cc1ccccc1Oc1ccc2c(=Nc3cccc(O)c3)c(C#N)c[nH]c2c1

>  <score_type>  (3) 
oracle

>  <origin>  (3) 
adgpu

>  <m_score__min__energy>  (3) 
-11.15

>  <m_primary>  (3) 
energy

$$$$
3:0
     RDKit          3D

 39 41  0  0  0  0  0  0  0  0999 V2000
   -5.9740   16.1100  -33.2530 C   0  0  0  0  0  0  0  0  0  0  0  0
   -6.5080   17.4130  -32.7640 C   0  0  0  0  0  0  0  0  0  0  0  0
   -6.8470   18.5010  -33.5490 C   0  0  0  0  0  0  0  0  0  0  0  0
   -7.2530   19.4360  -32.6230 C   0  0  0  0  0  0  0  0  0  0  0  0
   -7.6600   20.6340  -32.9140 N   0  0  0  0  0  0  0  0  0  0  0  0
   -8.1560   21.8080  -31.7370 S   0  0  0  0  0  0  0  0  0  0  0  0
   -8.7190   21.0940  -30.5390 O   0  0  0  0  0  0  0  0  0  0  0  0
   -9.2230   22.6820  -32.3320 O   0  0  0  0  0  0  0  0  0  0  0  0
   -6.7880   22.8140  -31.2700 C   0  0  0  0  0  0  0  0  0  0  0  0
   -6.9940   24.0240  -30.5970 C   0  0  0  0  0  0  0  0  0  0  0  0
   -5.9030   24.8160  -30.2250 C   0  0  0  0  0  0  0  0  0  0  0  0
   -4.5960   24.4040  -30.5100 C   0  0  0  0  0  0  0  0  0  0  0  0
   -3.5060   25.2560  -30.1270 N   0  0  0  0  0  0  0  0  0  0  0  0
   -2.3680   24.8870  -29.3360 C   0  0  0  0  0  0  0  0  0  0  0  0
   -1.5370   25.7660  -28.9770 O   0  0  0  0  0  0  0  0  0  0  0  0
   -2.1370   23.4660  -28.9860 C   0  0  0  0  0  0  0  0  0  0  0  0
   -2.6690   22.9270  -27.8000 C   0  0  0  0  0  0  0  0  0  0  0  0
   -2.4510   21.5860  -27.4710 C   0  0  0  0  0  0  0  0  0  0  0  0
   -1.7020   20.7680  -28.3200 C   0  0  0  0  0  0  0  0  0  0  0  0
   -1.1690   21.2890  -29.5020 C   0  0  0  0  0  0  0  0  0  0  0  0
   -0.1450   20.1680  -30.6610 Br  0  0  0  0  0  0  0  0  0  0  0  0
   -1.3830   22.6320  -29.8350 C   0  0  0  0  0  0  0  0  0  0  0  0
   -4.3920   23.2020  -31.2140 C   0  0  0  0  0  0  0  0  0  0  0  0
   -5.4830   22.4110  -31.5850 C   0  0  0  0  0  0  0  0  0  0  0  0
   -7.1530   18.9240  -31.3800 N   0  0  0  0  0  0  0  0  0  0  0  0
   -6.7010   17.7110  -31.4980 O   0  0  0  0  0  0  0  0  0  0  0  0
   -5.7136   15.4747  -32.3936 H   0  0  0  0  0  0  0  0  0  0  0  0
   -6.7382   15.6063  -33.8631 H   0  0  0  0  0  0  0  0  0  0  0  0
   -5.0761   16.2875  -33.8631 H   0  0  0  0  0  0  0  0  0  0  0  0
   -6.8030   18.5958  -34.6440 H   0  0  0  0  0  0  0  0  0  0  0  0
   -8.0166   24.3528  -30.3601 H   0  0  0  0  0  0  0  0  0  0  0  0
   -6.0733   25.7700  -29.7045 H   0  0  0  0  0  0  0  0  0  0  0  0
   -3.2605   23.5653  -27.1272 H   0  0  0  0  0  0  0  0  0  0  0  0
   -2.8703   21.1740  -26.5413 H   0  0  0  0  0  0  0  0  0  0  0  0
   -1.5316   19.7133  -28.0581 H   0  0  0  0  0  0  0  0  0  0  0  0
   -0.9597   23.0385  -30.7654 H   0  0  0  0  0  0  0  0  0  0  0  0
   -3.3711   22.8845  -31.4728 H   0  0  0  0  0  0  0  0  0  0  0  0
   -5.3167   21.4681  -32.1266 H   0  0  0  0  0  0  0  0  0  0  0  0
   -7.3830   19.3830  -30.4710 H   0  0  0  0  0  0  0  0  0  0  0  0
  1  2  1  0
  2  3  2  0
  3  4  1  0
  4  5  2  3
  5  6  1  0
  6  7  2  0
  6  8  2  0
  6  9  1  0
  9 10  2  0
 10 11  1  0
 11 12  2  0
 12 13  1  0
 13 14  1  0
 14 15  2  0
 14 16  1  0
 16 17  2  0
 17 18  1  0
 18 19  2  0
 19 20  1  0
 20 21  1  0
 20 22  2  0
 12 23  1  0
 23 24  2  0
  4 25  1  0
 25 26  1  0
 26  2  1  0
 24  9  1  0
 22 16  1  0
  1 27  1  0
  1 28  1  0
  1 29  1  0
  3 30  1  0
 10 31  1  0
 11 32  1  0
 17 33  1  0
 18 34  1  0
 19 35  1  0
 22 36  1  0
 23 37  1  0
 24 38  1  0
 25 39  1  0
M  CHG  1  13  -1
M  END
>  <UniqueID>  (4) 
4

>  <SMILES>  (4) 
Cc1cc(=NS(=O)(=O)c2ccc([N-]C(=O)c3cccc(Br)c3)cc2)[nH]o1

>  <Energy>  (4) 
79.47996220357973

>  <Genealogy>  (4) 
Cc1cc(=NS(=O)(=O)c2ccc([N-]C(=O)c3cccc(Br)c3)cc2)[nH]o1 (protonated)
Cc1cc(=NS(=O)(=O)c2ccc([N-]C(=O)c3cccc(Br)c3)cc2)[nH]o1 (3D coordinates assigned)
Cc1cc(=NS(=O)(=O)c2ccc([N-]C(=O)c3cccc(Br)c3)cc2)[nH]o1 (optimized conformer: 79.47996220357973 kcal/mol)

>  <smiles>  (4) 
Cc1cc(=NS(=O)(=O)c2ccc(NC(=O)c3cccc(Br)c3)cc2)[nH]o1

>  <score_type>  (4) 
oracle

>  <origin>  (4) 
adgpu

>  <m_score__min__energy>  (4) 
-11.050000000000001

>  <m_primary>  (4) 
energy

$$$$
4:0
     RDKit          3D

 61 64  0  0  0  0  0  0  0  0999 V2000
   -6.1254   26.4337  -31.1877 H   0  0  0  0  0  0  0  0  0  0  0  0
   -5.6200   25.5770  -30.7180 C   0  0  0  0  0  0  0  0  0  0  0  0
   -4.2820   25.6270  -30.4780 N   0  0  0  0  0  0  0  0  0  0  0  0
   -3.6080   24.5930  -29.9030 C   0  0  0  0  0  0  0  0  0  0  0  0
   -2.3280   24.7220  -29.7060 N   0  0  0  0  0  0  0  0  0  0  0  0
   -1.2680   23.5590  -28.9710 S   0  0  0  0  0  0  0  0  0  0  0  0
    0.0810   24.1840  -28.7400 O   0  0  0  0  0  0  0  0  0  0  0  0
   -1.8360   23.1410  -27.6450 O   0  0  0  0  0  0  0  0  0  0  0  0
   -1.1410   22.1390  -30.0080 C   0  0  0  0  0  0  0  0  0  0  0  0
   -0.2890   21.0790  -29.6660 C   0  0  0  0  0  0  0  0  0  0  0  0
    0.2582   21.0992  -28.7120 H   0  0  0  0  0  0  0  0  0  0  0  0
   -0.1350   19.9970  -30.5370 C   0  0  0  0  0  0  0  0  0  0  0  0
    0.5264   19.1621  -30.2624 H   0  0  0  0  0  0  0  0  0  0  0  0
   -0.8220   19.9720  -31.7620 C   0  0  0  0  0  0  0  0  0  0  0  0
   -0.6490   18.8870  -32.6800 N   0  0  0  0  0  0  0  0  0  0  0  0
   -0.8280   17.5000  -32.3600 C   0  0  0  0  0  0  0  0  0  0  0  0
   -0.0410   16.9650  -31.5370 O   0  0  0  0  0  0  0  0  0  0  0  0
   -2.0250   16.7220  -32.8510 C   0  0  0  0  0  0  0  0  0  0  0  0
   -2.7776   16.6820  -32.0498 H   0  0  0  0  0  0  0  0  0  0  0  0
   -1.6889   15.7113  -33.1257 H   0  0  0  0  0  0  0  0  0  0  0  0
   -2.6300   17.3490  -34.0470 N   0  0  0  0  0  0  0  0  0  0  0  0
   -3.4400   16.3770  -34.8140 C   0  0  0  0  0  0  0  0  0  0  0  0
   -2.9326   15.4011  -34.7990 H   0  0  0  0  0  0  0  0  0  0  0  0
   -3.5427   16.7551  -35.8419 H   0  0  0  0  0  0  0  0  0  0  0  0
   -4.8500   16.2130  -34.2240 C   0  0  0  0  0  0  0  0  0  0  0  0
   -4.7610   15.7668  -33.2225 H   0  0  0  0  0  0  0  0  0  0  0  0
   -5.4210   15.5709  -34.9108 H   0  0  0  0  0  0  0  0  0  0  0  0
   -5.5870   17.5050  -34.1050 N   0  0  0  0  0  0  0  0  0  0  0  0
   -6.3280   17.4820  -34.8450 H   0  0  0  0  0  0  0  0  0  0  0  0
   -6.2440   17.6370  -32.8140 C   0  0  0  0  0  0  0  0  0  0  0  0
   -6.0670   16.7550  -31.9250 O   0  0  0  0  0  0  0  0  0  0  0  0
   -7.0840   18.8180  -32.4810 C   0  0  0  0  0  0  0  0  0  0  0  0
   -6.4720   20.0570  -32.2220 C   0  0  0  0  0  0  0  0  0  0  0  0
   -5.3753   20.1382  -32.2470 H   0  0  0  0  0  0  0  0  0  0  0  0
   -7.2430   21.1870  -31.9330 C   0  0  0  0  0  0  0  0  0  0  0  0
   -6.7493   22.1476  -31.7242 H   0  0  0  0  0  0  0  0  0  0  0  0
   -8.6420   21.1020  -31.9080 C   0  0  0  0  0  0  0  0  0  0  0  0
   -9.4810   22.3150  -31.6370 C   0  0  0  0  0  0  0  0  0  0  0  0
   -9.5795   22.4574  -30.5507 H   0  0  0  0  0  0  0  0  0  0  0  0
   -9.0008   23.1996  -32.0807 H   0  0  0  0  0  0  0  0  0  0  0  0
  -10.4781   22.1778  -32.0807 H   0  0  0  0  0  0  0  0  0  0  0  0
   -9.2590   19.8730  -32.1810 C   0  0  0  0  0  0  0  0  0  0  0  0
  -10.3566   19.8004  -32.1764 H   0  0  0  0  0  0  0  0  0  0  0  0
   -8.4900   18.7390  -32.4590 C   0  0  0  0  0  0  0  0  0  0  0  0
   -8.9864   17.7786  -32.6619 H   0  0  0  0  0  0  0  0  0  0  0  0
   -4.7500   18.6970  -34.3790 C   0  0  0  0  0  0  0  0  0  0  0  0
   -5.2661   19.5887  -33.9937 H   0  0  0  0  0  0  0  0  0  0  0  0
   -4.5989   18.7615  -35.4667 H   0  0  0  0  0  0  0  0  0  0  0  0
   -3.3660   18.5990  -33.7140 C   0  0  0  0  0  0  0  0  0  0  0  0
   -3.5009   18.6426  -32.6232 H   0  0  0  0  0  0  0  0  0  0  0  0
   -2.7653   19.4375  -34.0962 H   0  0  0  0  0  0  0  0  0  0  0  0
   -1.7170   21.0010  -32.0720 C   0  0  0  0  0  0  0  0  0  0  0  0
   -2.3061   20.9548  -32.9998 H   0  0  0  0  0  0  0  0  0  0  0  0
   -1.8650   22.0890  -31.2050 C   0  0  0  0  0  0  0  0  0  0  0  0
   -2.5523   22.9076  -31.4647 H   0  0  0  0  0  0  0  0  0  0  0  0
   -4.3190   23.4280  -29.5440 C   0  0  0  0  0  0  0  0  0  0  0  0
   -3.7942   22.5775  -29.0844 H   0  0  0  0  0  0  0  0  0  0  0  0
   -5.6940   23.3640  -29.7770 C   0  0  0  0  0  0  0  0  0  0  0  0
   -6.2583   22.4635  -29.4931 H   0  0  0  0  0  0  0  0  0  0  0  0
   -6.3530   24.4420  -30.3700 C   0  0  0  0  0  0  0  0  0  0  0  0
   -7.4355   24.3974  -30.5604 H   0  0  0  0  0  0  0  0  0  0  0  0
  1  2  1  0
  2  3  1  0
  3  4  1  0
  4  5  2  0
  5  6  1  0
  6  7  2  0
  6  8  2  0
  6  9  1  0
  9 10  2  0
 10 11  1  0
 10 12  1  0
 12 13  1  0
 12 14  2  0
 14 15  1  0
 15 16  1  0
 16 17  2  0
 16 18  1  0
 18 19  1  0
 18 20  1  0
 18 21  1  0
 21 22  1  0
 22 23  1  0
 22 24  1  0
 22 25  1  0
 25 26  1  0
 25 27  1  0
 25 28  1  0
 28 29  1  0
 28 30  1  0
 30 31  2  0
 30 32  1  0
 32 33  2  0
 33 34  1  0
 33 35  1  0
 35 36  1  0
 35 37  2  0
 37 38  1  0
 38 39  1  0
 38 40  1  0
 38 41  1  0
 37 42  1  0
 42 43  1  0
 42 44  2  0
 44 45  1  0
 28 46  1  0
 46 47  1  0
 46 48  1  0
 46 49  1  0
 49 50  1  0
 49 51  1  0
 14 52  1  0
 52 53  1  0
 52 54  2  0
 54 55  1  0
  4 56  1  0
 56 57  1  0
 56 58  2  0
 58 59  1  0
 58 60  1  0
 60 61  1  0
 60  2  2  0
 54  9  1  0
 49 21  1  0
 44 32  1  0
M  CHG  3   3  -1  15  -1  28   1
M  END
>  <UniqueID>  (5) 
5

>  <SMILES>  (5) 
Cc1ccc(C(=O)[NH+]2CCN(CC(=O)[N-]c3ccc(S(=O)(=O)/N=c4\cccc[n-]4)cc3)CC2)cc1

>  <Energy>  (5) 
94.32417365372994

>  <Genealogy>  (5) 
Cc1ccc(C(=O)[NH+]2CCN(CC(=O)[N-]c3ccc(S(=O)(=O)N=c4cccc[n-]4)cc3)CC2)cc1 (protonated)
Cc1ccc(C(=O)[NH+]2CCN(CC(=O)[N-]c3ccc(S(=O)(=O)/N=c4\cccc[n-]4)cc3)CC2)cc1 (cis-trans isomerization)
Cc1ccc(C(=O)[NH+]2CCN(CC(=O)[N-]c3ccc(S(=O)(=O)/N=c4\cccc[n-]4)cc3)CC2)cc1 (3D coordinates assigned)
Cc1ccc(C(=O)[NH+]2CCN(CC(=O)[N-]c3ccc(S(=O)(=O)/N=c4\cccc[n-]4)cc3)CC2)cc1 (nonaromatic ring conformer: 94.32417365372994 kcal/mol)

>  <smiles>  (5) 
Cc1ccc(C(=O)N2CCN(CC(=O)Nc3ccc(S(=O)(=O)N=c4cccc[nH]4)cc3)CC2)cc1

>  <score_type>  (5) 
oracle

>  <origin>  (5) 
adgpu

>  <m_score__min__energy>  (5) 
-11.890000000000001

>  <m_primary>  (5) 
energy

$$$$
5:0
     RDKit          3D

 39 41  0  0  0  0  0  0  0  0999 V2000
   -4.3580   25.1340  -30.8420 O   0  0  0  0  0  0  0  0  0  0  0  0
   -4.6180   23.9070  -30.9730 C   0  0  0  0  0  0  0  0  0  0  0  0
   -6.0320   23.4630  -31.0700 C   0  0  0  0  0  0  0  0  0  0  0  0
   -6.6300   22.7120  -30.0390 C   0  0  0  0  0  0  0  0  0  0  0  0
   -7.9600   22.2920  -30.1470 C   0  0  0  0  0  0  0  0  0  0  0  0
   -8.7050   22.6100  -31.2840 C   0  0  0  0  0  0  0  0  0  0  0  0
   -8.1220   23.3460  -32.3180 C   0  0  0  0  0  0  0  0  0  0  0  0
   -6.7920   23.7680  -32.2150 C   0  0  0  0  0  0  0  0  0  0  0  0
   -3.4980   22.9410  -30.9970 C   0  0  0  0  0  0  0  0  0  0  0  0
   -2.4740   23.0630  -30.0440 C   0  0  0  0  0  0  0  0  0  0  0  0
   -1.4080   22.1610  -30.0290 C   0  0  0  0  0  0  0  0  0  0  0  0
   -1.3540   21.1280  -30.9660 C   0  0  0  0  0  0  0  0  0  0  0  0
   -2.3660   20.9930  -31.9160 C   0  0  0  0  0  0  0  0  0  0  0  0
   -3.4500   21.8870  -31.9380 C   0  0  0  0  0  0  0  0  0  0  0  0
   -4.4930   21.7230  -32.9150 N   0  0  0  0  0  0  0  0  0  0  0  0
   -5.2340   20.5020  -33.0920 C   0  0  0  0  0  0  0  0  0  0  0  0
   -4.6800   19.4030  -33.7700 C   0  0  0  0  0  0  0  0  0  0  0  0
   -5.4160   18.2260  -33.9240 C   0  0  0  0  0  0  0  0  0  0  0  0
   -6.7010   18.1260  -33.3870 C   0  0  0  0  0  0  0  0  0  0  0  0
   -7.2550   19.1970  -32.6650 C   0  0  0  0  0  0  0  0  0  0  0  0
   -8.6570   19.1060  -32.1180 C   0  0  0  0  0  0  0  0  0  0  0  0
   -9.0360   17.7840  -31.9560 F   0  0  0  0  0  0  0  0  0  0  0  0
   -9.5300   19.7190  -32.9990 F   0  0  0  0  0  0  0  0  0  0  0  0
   -8.7440   19.7340  -30.8880 F   0  0  0  0  0  0  0  0  0  0  0  0
   -6.5180   20.3880  -32.5380 C   0  0  0  0  0  0  0  0  0  0  0  0
   -6.0470   22.4540  -29.1426 H   0  0  0  0  0  0  0  0  0  0  0  0
   -8.4196   21.7101  -29.3345 H   0  0  0  0  0  0  0  0  0  0  0  0
   -9.7514   22.2808  -31.3656 H   0  0  0  0  0  0  0  0  0  0  0  0
   -8.7092   23.5942  -33.2144 H   0  0  0  0  0  0  0  0  0  0  0  0
   -6.3367   24.3426  -33.0351 H   0  0  0  0  0  0  0  0  0  0  0  0
   -2.5118   23.8755  -29.3034 H   0  0  0  0  0  0  0  0  0  0  0  0
   -0.6106   22.2647  -29.2784 H   0  0  0  0  0  0  0  0  0  0  0  0
   -0.5125   20.4197  -30.9551 H   0  0  0  0  0  0  0  0  0  0  0  0
   -2.3153   20.1795  -32.6547 H   0  0  0  0  0  0  0  0  0  0  0  0
   -4.6980   22.5210  -33.5570 H   0  0  0  0  0  0  0  0  0  0  0  0
   -3.6620   19.4699  -34.1814 H   0  0  0  0  0  0  0  0  0  0  0  0
   -4.9821   17.3753  -34.4699 H   0  0  0  0  0  0  0  0  0  0  0  0
   -7.2831   17.2036  -33.5299 H   0  0  0  0  0  0  0  0  0  0  0  0
   -6.9538   21.2411  -31.9974 H   0  0  0  0  0  0  0  0  0  0  0  0
  1  2  2  0
  2  3  1  0
  3  4  2  0
  4  5  1  0
  5  6  2  0
  6  7  1  0
  7  8  2  0
  2  9  1  0
  9 10  2  0
 10 11  1  0
 11 12  2  0
 12 13  1  0
 13 14  2  0
 14 15  1  0
 15 16  1  0
 16 17  2  0
 17 18  1  0
 18 19  2  0
 19 20  1  0
 20 21  1  0
 21 22  1  0
 21 23  1  0
 21 24  1  0
 20 25  2  0
  8  3  1  0
 14  9  1  0
 25 16  1  0
  4 26  1  0
  5 27  1  0
  6 28  1  0
  7 29  1  0
  8 30  1  0
 10 31  1  0
 11 32  1  0
 12 33  1  0
 13 34  1  0
 15 35  1  0
 17 36  1  0
 18 37  1  0
 19 38  1  0
 25 39  1  0
M  END
>  <UniqueID>  (6) 
6

>  <SMILES>  (6) 
O=C(c1ccccc1)c1ccccc1Nc1cccc(C(F)(F)F)c1

>  <Energy>  (6) 
56.750890909018445

>  <Genealogy>  (6) 
O=C(c1ccccc1)c1ccccc1Nc1cccc(C(F)(F)F)c1 (3D coordinates assigned)
O=C(c1ccccc1)c1ccccc1Nc1cccc(C(F)(F)F)c1 (optimized conformer: 56.750890909018445 kcal/mol)

>  <smiles>  (6) 
O=C(c1ccccc1)c1ccccc1Nc1cccc(C(F)(F)F)c1

>  <score_type>  (6) 
oracle

>  <origin>  (6) 
adgpu

>  <m_score__min__energy>  (6) 
-8.9299999999999997

>  <m_primary>  (6) 
energy

$$$$
6:0
     RDKit          3D

 55 57  0  0  0  0  0  0  0  0999 V2000
   -7.4832   25.5050  -30.1571 H   0  0  0  0  0  0  0  0  0  0  0  0
   -6.8210   24.7060  -30.5220 C   0  0  0  0  0  0  0  0  0  0  0  0
   -5.4000   24.7700  -30.1120 C   0  0  0  0  0  0  0  0  0  0  0  0
   -4.5510   25.3850  -30.8130 O   0  0  0  0  0  0  0  0  0  0  0  0
   -4.9990   24.1460  -28.8840 N   0  0  0  0  0  0  0  0  0  0  0  0
   -5.6650   23.4800  -28.4290 H   0  0  0  0  0  0  0  0  0  0  0  0
   -3.6440   24.1600  -28.4120 C   0  0  0  0  0  0  0  0  0  0  0  0
   -3.3890   24.6080  -27.1060 C   0  0  0  0  0  0  0  0  0  0  0  0
   -4.2212   24.9555  -26.4762 H   0  0  0  0  0  0  0  0  0  0  0  0
   -2.0870   24.6160  -26.6000 C   0  0  0  0  0  0  0  0  0  0  0  0
   -1.8988   24.9607  -25.5725 H   0  0  0  0  0  0  0  0  0  0  0  0
   -1.0250   24.1870  -27.3970 C   0  0  0  0  0  0  0  0  0  0  0  0
   -0.0016   24.1834  -26.9938 H   0  0  0  0  0  0  0  0  0  0  0  0
   -1.2610   23.7620  -28.7070 C   0  0  0  0  0  0  0  0  0  0  0  0
   -0.4199   23.4261  -29.3313 H   0  0  0  0  0  0  0  0  0  0  0  0
   -2.5620   23.7600  -29.2330 C   0  0  0  0  0  0  0  0  0  0  0  0
   -2.7590   23.4050  -30.6070 N   0  0  0  0  0  0  0  0  0  0  0  0
   -3.0920   24.1160  -31.2960 H   0  0  0  0  0  0  0  0  0  0  0  0
   -2.6550   22.4220  -30.9410 H   0  0  0  0  0  0  0  0  0  0  0  0
   -7.3750   23.7610  -31.2990 C   0  0  0  0  0  0  0  0  0  0  0  0
   -8.4224   23.9052  -31.6025 H   0  0  0  0  0  0  0  0  0  0  0  0
   -6.6890   22.5420  -31.7790 C   0  0  0  0  0  0  0  0  0  0  0  0
   -5.3300   22.6120  -32.0950 C   0  0  0  0  0  0  0  0  0  0  0  0
   -4.7865   23.5611  -31.9774 H   0  0  0  0  0  0  0  0  0  0  0  0
   -4.6640   21.4830  -32.5580 C   0  0  0  0  0  0  0  0  0  0  0  0
   -3.5924   21.5328  -32.8011 H   0  0  0  0  0  0  0  0  0  0  0  0
   -5.3640   20.2870  -32.7120 C   0  0  0  0  0  0  0  0  0  0  0  0
   -4.8337   19.3871  -33.0569 H   0  0  0  0  0  0  0  0  0  0  0  0
   -6.7030   20.2200  -32.4390 N   0  0  0  0  0  0  0  0  0  0  0  0
   -7.3770   18.9160  -32.5590 C   0  0  0  0  0  0  0  0  0  0  0  0
   -8.2572   19.0186  -33.2107 H   0  0  0  0  0  0  0  0  0  0  0  0
   -7.6919   18.5769  -31.5611 H   0  0  0  0  0  0  0  0  0  0  0  0
   -6.4310   17.9050  -33.1520 C   0  0  0  0  0  0  0  0  0  0  0  0
   -5.9750   18.0470  -34.4680 C   0  0  0  0  0  0  0  0  0  0  0  0
   -6.3421   18.8790  -35.0868 H   0  0  0  0  0  0  0  0  0  0  0  0
   -5.0570   17.1390  -35.0000 C   0  0  0  0  0  0  0  0  0  0  0  0
   -4.7203   17.2499  -36.0413 H   0  0  0  0  0  0  0  0  0  0  0  0
   -4.5590   16.0820  -34.2130 C   0  0  0  0  0  0  0  0  0  0  0  0
   -3.6390   15.1510  -34.7230 O   0  0  0  0  0  0  0  0  0  0  0  0
   -3.0700   15.2060  -36.0270 C   0  0  0  0  0  0  0  0  0  0  0  0
   -1.9780   15.3116  -35.9464 H   0  0  0  0  0  0  0  0  0  0  0  0
   -3.3098   14.2805  -36.5710 H   0  0  0  0  0  0  0  0  0  0  0  0
   -3.4826   16.0684  -36.5710 H   0  0  0  0  0  0  0  0  0  0  0  0
   -4.9930   15.9530  -32.8790 C   0  0  0  0  0  0  0  0  0  0  0  0
   -4.4860   14.8370  -32.0020 C   0  0  0  0  0  0  0  0  0  0  0  0
   -4.8409   14.9979  -30.9733 H   0  0  0  0  0  0  0  0  0  0  0  0
   -3.3865   14.8372  -32.0338 H   0  0  0  0  0  0  0  0  0  0  0  0
   -4.9870   13.4850  -32.4970 C   0  0  0  0  0  0  0  0  0  0  0  0
   -5.2245   12.8440  -31.6352 H   0  0  0  0  0  0  0  0  0  0  0  0
   -5.8912   13.6298  -33.1065 H   0  0  0  0  0  0  0  0  0  0  0  0
   -4.2068   13.0056  -33.1065 H   0  0  0  0  0  0  0  0  0  0  0  0
   -5.9380   16.8560  -32.3630 C   0  0  0  0  0  0  0  0  0  0  0  0
   -6.2948   16.7386  -31.3291 H   0  0  0  0  0  0  0  0  0  0  0  0
   -7.3790   21.3310  -31.9960 C   0  0  0  0  0  0  0  0  0  0  0  0
   -8.6230   21.2800  -31.7880 O   0  0  0  0  0  0  0  0  0  0  0  0
  1  2  1  0
  2  3  1  0
  3  4  2  0
  3  5  1  0
  5  6  1  0
  5  7  1  0
  7  8  2  0
  8  9  1  0
  8 10  1  0
 10 11  1  0
 10 12  2  0
 12 13  1  0
 12 14  1  0
 14 15  1  0
 14 16  2  0
 16 17  1  0
 17 18  1  0
 17 19  1  0
  2 20  2  0
 20 21  1  0
 20 22  1  0
 22 23  2  0
 23 24  1  0
 23 25  1  0
 25 26  1  0
 25 27  2  0
 27 28  1  0
 27 29  1  0
 29 30  1  0
 30 31  1  0
 30 32  1  0
 30 33  1  0
 33 34  2  0
 34 35  1  0
 34 36  1  0
 36 37  1  0
 36 38  2  0
 38 39  1  0
 39 40  1  0
 40 41  1  0
 40 42  1  0
 40 43  1  0
 38 44  1  0
 44 45  1  0
 45 46  1  0
 45 47  1  0
 45 48  1  0
 48 49  1  0
 48 50  1  0
 48 51  1  0
 44 52  2  0
 52 53  1  0
 29 54  1  0
 54 55  2  0
 16  7  1  0
 54 22  1  0
 52 33  1  0
M  END
>  <UniqueID>  (7) 
7

>  <SMILES>  (7) 
CCc1cc(Cn2cccc(/C=C\C(=O)Nc3ccccc3N)c2=O)ccc1OC

>  <Energy>  (7) 
65.36531607878452

>  <Genealogy>  (7) 
CCc1cc(Cn2cccc(/C=C\C(=O)Nc3ccccc3N)c2=O)ccc1OC (cis-trans isomerization)
CCc1cc(Cn2cccc(/C=C\C(=O)Nc3ccccc3N)c2=O)ccc1OC (3D coordinates assigned)
CCc1cc(Cn2cccc(/C=C\C(=O)Nc3ccccc3N)c2=O)ccc1OC (optimized conformer: 65.36531607878452 kcal/mol)

>  <smiles>  (7) 
CCc1cc(Cn2cccc(C=CC(=O)Nc3ccccc3N)c2=O)ccc1OC

>  <score_type>  (7) 
oracle

>  <origin>  (7) 
adgpu

>  <m_score__min__energy>  (7) 
-9.1699999999999999

>  <m_primary>  (7) 
energy

$$$$
7:0
     RDKit          3D

 43 45  0  0  0  0  0  0  0  0999 V2000
   -9.7250   21.8560  -31.6250 C   0  0  0  0  0  0  0  0  0  0  0  0
   -8.2650   21.7020  -31.6680 N   0  0  0  0  0  0  0  0  0  0  0  0
   -7.4750   22.8070  -31.7640 C   0  0  0  0  0  0  0  0  0  0  0  0
   -6.0910   22.6930  -31.7690 C   0  0  0  0  0  0  0  0  0  0  0  0
   -5.2950   23.8830  -31.8740 N   0  0  0  0  0  0  0  0  0  0  0  0
   -4.4920   24.4380  -30.8260 C   0  0  0  0  0  0  0  0  0  0  0  0
   -4.2790   25.6810  -30.7820 O   0  0  0  0  0  0  0  0  0  0  0  0
   -3.8620   23.5590  -29.8860 N   0  0  0  0  0  0  0  0  0  0  0  0
   -3.2040   23.9960  -28.6850 C   0  0  0  0  0  0  0  0  0  0  0  0
   -1.8000   24.0050  -28.5760 C   0  0  0  0  0  0  0  0  0  0  0  0
   -1.1860   24.4580  -27.4050 C   0  0  0  0  0  0  0  0  0  0  0  0
   -1.9640   24.9180  -26.3360 C   0  0  0  0  0  0  0  0  0  0  0  0
   -1.1910   25.4860  -24.8680 Cl  0  0  0  0  0  0  0  0  0  0  0  0
   -3.3580   24.9320  -26.4450 C   0  0  0  0  0  0  0  0  0  0  0  0
   -3.9750   24.4810  -27.6170 C   0  0  0  0  0  0  0  0  0  0  0  0
   -5.5280   21.4080  -31.7330 C   0  0  0  0  0  0  0  0  0  0  0  0
   -4.2770   21.2740  -31.8340 O   0  0  0  0  0  0  0  0  0  0  0  0
   -6.3340   20.3030  -31.6180 N   0  0  0  0  0  0  0  0  0  0  0  0
   -5.7300   18.9590  -31.5030 C   0  0  0  0  0  0  0  0  0  0  0  0
   -5.3220   18.4510  -32.8620 C   0  0  0  0  0  0  0  0  0  0  0  0
   -4.1500   17.6890  -33.0140 C   0  0  0  0  0  0  0  0  0  0  0  0
   -3.7920   17.1880  -34.2700 C   0  0  0  0  0  0  0  0  0  0  0  0
   -4.6010   17.4400  -35.3800 C   0  0  0  0  0  0  0  0  0  0  0  0
   -5.7700   18.1930  -35.2370 C   0  0  0  0  0  0  0  0  0  0  0  0
   -6.1310   18.6950  -33.9830 C   0  0  0  0  0  0  0  0  0  0  0  0
   -7.7000   20.4570  -31.5730 C   0  0  0  0  0  0  0  0  0  0  0  0
   -8.4460   19.4440  -31.4500 O   0  0  0  0  0  0  0  0  0  0  0  0
  -10.0593   21.8913  -30.5776 H   0  0  0  0  0  0  0  0  0  0  0  0
  -10.0104   22.7892  -32.1326 H   0  0  0  0  0  0  0  0  0  0  0  0
  -10.1988   21.0028  -32.1326 H   0  0  0  0  0  0  0  0  0  0  0  0
   -7.9386   23.8017  -31.8385 H   0  0  0  0  0  0  0  0  0  0  0  0
   -3.8210   22.5430  -30.1310 H   0  0  0  0  0  0  0  0  0  0  0  0
   -1.1835   23.6538  -29.4166 H   0  0  0  0  0  0  0  0  0  0  0  0
   -0.0891   24.4531  -27.3232 H   0  0  0  0  0  0  0  0  0  0  0  0
   -3.9706   25.2982  -25.6079 H   0  0  0  0  0  0  0  0  0  0  0  0
   -5.0714   24.5067  -27.7020 H   0  0  0  0  0  0  0  0  0  0  0  0
   -4.8430   19.0140  -30.8548 H   0  0  0  0  0  0  0  0  0  0  0  0
   -6.4703   18.2697  -31.0708 H   0  0  0  0  0  0  0  0  0  0  0  0
   -3.5119   17.4860  -32.1413 H   0  0  0  0  0  0  0  0  0  0  0  0
   -2.8725   16.5950  -34.3834 H   0  0  0  0  0  0  0  0  0  0  0  0
   -4.3182   17.0458  -36.3673 H   0  0  0  0  0  0  0  0  0  0  0  0
   -6.4066   18.3908  -36.1120 H   0  0  0  0  0  0  0  0  0  0  0  0
   -7.0536   19.2841  -33.8743 H   0  0  0  0  0  0  0  0  0  0  0  0
  1  2  1  0
  2  3  1  0
  3  4  2  0
  4  5  1  0
  5  6  1  0
  6  7  2  0
  6  8  1  0
  8  9  1  0
  9 10  2  0
 10 11  1  0
 11 12  2  0
 12 13  1  0
 12 14  1  0
 14 15  2  0
  4 16  1  0
 16 17  2  0
 16 18  1  0
 18 19  1  0
 19 20  1  0
 20 21  2  0
 21 22  1  0
 22 23  2  0
 23 24  1  0
 24 25  2  0
 18 26  1  0
 26 27  2  0
 26  2  1  0
 15  9  1  0
 25 20  1  0
  1 28  1  0
  1 29  1  0
  1 30  1  0
  3 31  1  0
  8 32  1  0
 10 33  1  0
 11 34  1  0
 14 35  1  0
 15 36  1  0
 19 37  1  0
 19 38  1  0
 21 39  1  0
 22 40  1  0
 23 41  1  0
 24 42  1  0
 25 43  1  0
M  CHG  1   5  -1
M  END
>  <UniqueID>  (8) 
8

>  <SMILES>  (8) 
Cn1cc([N-]C(=O)Nc2ccc(Cl)cc2)c(=O)n(Cc2ccccc2)c1=O

>  <Energy>  (8) 
59.1390733424728

>  <Genealogy>  (8) 
Cn1cc([N-]C(=O)Nc2ccc(Cl)cc2)c(=O)n(Cc2ccccc2)c1=O (protonated)
Cn1cc([N-]C(=O)Nc2ccc(Cl)cc2)c(=O)n(Cc2ccccc2)c1=O (3D coordinates assigned)
Cn1cc([N-]C(=O)Nc2ccc(Cl)cc2)c(=O)n(Cc2ccccc2)c1=O (optimized conformer: 59.1390733424728 kcal/mol)

>  <smiles>  (8) 
Cn1cc(NC(=O)Nc2ccc(Cl)cc2)c(=O)n(Cc2ccccc2)c1=O

>  <score_type>  (8) 
oracle

>  <origin>  (8) 
adgpu

>  <m_score__min__energy>  (8) 
-10.09

>  <m_primary>  (8) 
energy

$$$$
8:0
     RDKit          3D

 64 69  0  0  0  0  0  0  0  0999 V2000
    1.5460   19.6130  -30.7770 O   0  0  0  0  0  0  0  0  0  0  0  0
    0.3020   19.5850  -30.9880 C   0  0  0  0  0  0  0  0  0  0  0  0
   -0.5510   20.5220  -30.3170 N   0  0  0  0  0  0  0  0  0  0  0  0
   -1.4580   21.2870  -30.8570 C   0  0  0  0  0  0  0  0  0  0  0  0
   -2.4110   21.9620  -30.1310 C   0  0  0  0  0  0  0  0  0  0  0  0
   -3.2220   22.5520  -31.0930 C   0  0  0  0  0  0  0  0  0  0  0  0
   -4.4420   23.3730  -30.8520 C   0  0  0  0  0  0  0  0  0  0  0  0
   -5.7230   22.8350  -31.0960 C   0  0  0  0  0  0  0  0  0  0  0  0
   -6.8720   23.6030  -30.8850 C   0  0  0  0  0  0  0  0  0  0  0  0
   -6.7640   24.9130  -30.4200 C   0  0  0  0  0  0  0  0  0  0  0  0
   -5.5070   25.4610  -30.1690 C   0  0  0  0  0  0  0  0  0  0  0  0
   -4.3480   24.7050  -30.3810 C   0  0  0  0  0  0  0  0  0  0  0  0
   -3.1160   25.2920  -30.1180 O   0  0  0  0  0  0  0  0  0  0  0  0
   -2.7340   22.2660  -32.3210 N   0  0  0  0  0  0  0  0  0  0  0  0
   -1.6630   21.5020  -32.1800 N   0  0  0  0  0  0  0  0  0  0  0  0
   -0.7940   21.2170  -33.2860 C   0  0  0  0  0  0  0  0  0  0  0  0
    0.5640   21.5630  -33.2160 C   0  0  0  0  0  0  0  0  0  0  0  0
    1.4160   21.2860  -34.2890 C   0  0  0  0  0  0  0  0  0  0  0  0
    0.9210   20.6430  -35.4280 C   0  0  0  0  0  0  0  0  0  0  0  0
   -0.4250   20.2690  -35.4920 C   0  0  0  0  0  0  0  0  0  0  0  0
   -1.2780   20.5450  -34.4220 C   0  0  0  0  0  0  0  0  0  0  0  0
   -0.2580   18.6330  -31.9740 C   0  0  0  0  0  0  0  0  0  0  0  0
   -1.6290   18.3150  -31.9690 C   0  0  0  0  0  0  0  0  0  0  0  0
   -2.1490   17.4070  -32.8960 C   0  0  0  0  0  0  0  0  0  0  0  0
   -1.3100   16.8050  -33.8430 C   0  0  0  0  0  0  0  0  0  0  0  0
   -1.9840   15.6750  -35.0160 S   0  0  0  0  0  0  0  0  0  0  0  0
   -1.6840   14.2730  -34.5570 O   0  0  0  0  0  0  0  0  0  0  0  0
   -1.3540   15.8920  -36.3650 O   0  0  0  0  0  0  0  0  0  0  0  0
   -3.7140   15.9000  -35.1450 N   0  0  0  0  0  0  0  0  0  0  0  0
   -4.3940   15.1910  -34.0320 C   0  0  0  0  0  0  0  0  0  0  0  0
   -5.7950   15.7420  -33.7520 C   0  0  0  0  0  0  0  0  0  0  0  0
   -5.6630   17.1920  -33.4080 C   0  0  0  0  0  0  0  0  0  0  0  0
   -6.4150   17.7780  -32.3790 C   0  0  0  0  0  0  0  0  0  0  0  0
   -6.2490   19.1360  -32.0800 C   0  0  0  0  0  0  0  0  0  0  0  0
   -5.3480   19.9120  -32.8140 C   0  0  0  0  0  0  0  0  0  0  0  0
   -4.6100   19.3320  -33.8520 C   0  0  0  0  0  0  0  0  0  0  0  0
   -4.7560   17.9660  -34.1440 C   0  0  0  0  0  0  0  0  0  0  0  0
   -4.0460   17.3410  -35.3230 C   0  0  0  0  0  0  0  0  0  0  0  0
    0.0550   17.1160  -33.8540 C   0  0  0  0  0  0  0  0  0  0  0  0
    0.5780   18.0230  -32.9270 C   0  0  0  0  0  0  0  0  0  0  0  0
   -2.5091   22.0215  -29.0370 H   0  0  0  0  0  0  0  0  0  0  0  0
   -5.8189   21.8001  -31.4562 H   0  0  0  0  0  0  0  0  0  0  0  0
   -7.8640   23.1725  -31.0864 H   0  0  0  0  0  0  0  0  0  0  0  0
   -7.6700   25.5136  -30.2513 H   0  0  0  0  0  0  0  0  0  0  0  0
   -5.4253   26.4947  -29.8018 H   0  0  0  0  0  0  0  0  0  0  0  0
    0.9592   22.0536  -32.3143 H   0  0  0  0  0  0  0  0  0  0  0  0
    2.4764   21.5739  -34.2375 H   0  0  0  0  0  0  0  0  0  0  0  0
    1.5910   20.4312  -36.2743 H   0  0  0  0  0  0  0  0  0  0  0  0
   -0.8116   19.7572  -36.3856 H   0  0  0  0  0  0  0  0  0  0  0  0
   -2.3326   20.2356  -34.4679 H   0  0  0  0  0  0  0  0  0  0  0  0
   -2.2959   18.7841  -31.2306 H   0  0  0  0  0  0  0  0  0  0  0  0
   -3.2217   17.1640  -32.8819 H   0  0  0  0  0  0  0  0  0  0  0  0
   -4.4799   14.1259  -34.2930 H   0  0  0  0  0  0  0  0  0  0  0  0
   -3.7902   15.3387  -33.1245 H   0  0  0  0  0  0  0  0  0  0  0  0
   -6.4266   15.6265  -34.6452 H   0  0  0  0  0  0  0  0  0  0  0  0
   -6.2614   15.1936  -32.9203 H   0  0  0  0  0  0  0  0  0  0  0  0
   -7.1338   17.1719  -31.8080 H   0  0  0  0  0  0  0  0  0  0  0  0
   -6.8295   19.5931  -31.2651 H   0  0  0  0  0  0  0  0  0  0  0  0
   -5.2189   20.9782  -32.5760 H   0  0  0  0  0  0  0  0  0  0  0  0
   -3.9138   19.9475  -34.4407 H   0  0  0  0  0  0  0  0  0  0  0  0
   -4.6939   17.4387  -36.2066 H   0  0  0  0  0  0  0  0  0  0  0  0
   -3.0897   17.8733  -35.4331 H   0  0  0  0  0  0  0  0  0  0  0  0
    0.7184   16.6452  -34.5944 H   0  0  0  0  0  0  0  0  0  0  0  0
    1.6517   18.2614  -32.9431 H   0  0  0  0  0  0  0  0  0  0  0  0
  1  2  2  0
  2  3  1  0
  3  4  2  3
  4  5  1  0
  5  6  2  0
  6  7  1  0
  7  8  2  0
  8  9  1  0
  9 10  2  0
 10 11  1  0
 11 12  2  0
 12 13  1  0
  6 14  1  0
 14 15  1  0
 15 16  1  0
 16 17  2  0
 17 18  1  0
 18 19  2  0
 19 20  1  0
 20 21  2  0
  2 22  1  0
 22 23  2  0
 23 24  1  0
 24 25  2  0
 25 26  1  0
 26 27  2  0
 26 28  2  0
 26 29  1  0
 29 30  1  0
 30 31  1  0
 31 32  1  0
 32 33  2  0
 33 34  1  0
 34 35  2  0
 35 36  1  0
 36 37  2  0
 37 38  1  0
 25 39  1  0
 39 40  2  0
 15  4  1  0
 21 16  1  0
 40 22  1  0
 12  7  1  0
 38 29  1  0
 37 32  1  0
  5 41  1  0
  8 42  1  0
  9 43  1  0
 10 44  1  0
 11 45  1  0
 17 46  1  0
 18 47  1  0
 19 48  1  0
 20 49  1  0
 21 50  1  0
 23 51  1  0
 24 52  1  0
 30 53  1  0
 30 54  1  0
 31 55  1  0
 31 56  1  0
 33 57  1  0
 34 58  1  0
 35 59  1  0
 36 60  1  0
 38 61  1  0
 38 62  1  0
 39 63  1  0
 40 64  1  0
M  CHG  2  13  -1  14  -1
M  END
>  <UniqueID>  (9) 
9

>  <SMILES>  (9) 
O=C(N=c1cc(-c2ccccc2[O-])[n-]n1-c1ccccc1)c1ccc(S(=O)(=O)N2CCc3ccccc3C2)cc1

>  <Energy>  (9) 
132.39435877298786

>  <Genealogy>  (9) 
O=C(N=c1cc(-c2ccccc2[O-])[n-]n1-c1ccccc1)c1ccc(S(=O)(=O)N2CCc3ccccc3C2)cc1 (protonated)
O=C(N=c1cc(-c2ccccc2[O-])[n-]n1-c1ccccc1)c1ccc(S(=O)(=O)N2CCc3ccccc3C2)cc1 (3D coordinates assigned)
O=C(N=c1cc(-c2ccccc2[O-])[n-]n1-c1ccccc1)c1ccc(S(=O)(=O)N2CCc3ccccc3C2)cc1 (nonaromatic ring conformer: 132.39435877298786 kcal/mol)

>  <smiles>  (9) 
O=C(N=c1cc(-c2ccccc2O)[nH]n1-c1ccccc1)c1ccc(S(=O)(=O)N2CCc3ccccc3C2)cc1

>  <score_type>  (9) 
oracle

>  <origin>  (9) 
adgpu

>  <m_score__min__energy>  (9) 
-13.640000000000001

>  <m_primary>  (9) 
energy

$$$$
9:0
     RDKit          3D

 44 46  0  0  0  0  0  0  0  0999 V2000
   -0.8520   26.8790  -23.4230 C   0  0  0  0  0  0  0  0  0  0  0  0
   -1.0150   26.5150  -24.8690 C   0  0  0  0  0  0  0  0  0  0  0  0
   -0.2660   27.1770  -25.8540 C   0  0  0  0  0  0  0  0  0  0  0  0
   -0.4470   26.8660  -27.2050 C   0  0  0  0  0  0  0  0  0  0  0  0
   -1.3760   25.8830  -27.5880 C   0  0  0  0  0  0  0  0  0  0  0  0
   -1.6110   25.5690  -28.9670 N   0  0  0  0  0  0  0  0  0  0  0  0
   -2.4900   24.5510  -29.4580 C   0  0  0  0  0  0  0  0  0  0  0  0
   -2.0560   23.3720  -29.5460 O   0  0  0  0  0  0  0  0  0  0  0  0
   -3.8310   24.8700  -29.8730 N   0  0  0  0  0  0  0  0  0  0  0  0
   -4.7820   23.8990  -30.3390 C   0  0  0  0  0  0  0  0  0  0  0  0
   -5.9800   23.6520  -29.6460 C   0  0  0  0  0  0  0  0  0  0  0  0
   -6.8760   22.6840  -30.1070 C   0  0  0  0  0  0  0  0  0  0  0  0
   -6.5810   21.9390  -31.2580 C   0  0  0  0  0  0  0  0  0  0  0  0
   -7.5330   20.9160  -31.7470 C   0  0  0  0  0  0  0  0  0  0  0  0
   -8.8580   21.2720  -32.0750 C   0  0  0  0  0  0  0  0  0  0  0  0
   -9.3620   22.6800  -31.9350 C   0  0  0  0  0  0  0  0  0  0  0  0
   -9.7080   20.3180  -32.5340 N   0  0  0  0  0  0  0  0  0  0  0  0
   -9.3240   19.0540  -32.6970 N   0  0  0  0  0  0  0  0  0  0  0  0
   -8.0640   18.6470  -32.4060 C   0  0  0  0  0  0  0  0  0  0  0  0
   -7.7490   17.4410  -32.5930 O   0  0  0  0  0  0  0  0  0  0  0  0
   -7.1310   19.5710  -31.9030 C   0  0  0  0  0  0  0  0  0  0  0  0
   -5.7190   19.1370  -31.5790 C   0  0  0  0  0  0  0  0  0  0  0  0
   -5.3760   22.1660  -31.9380 C   0  0  0  0  0  0  0  0  0  0  0  0
   -4.4790   23.1330  -31.4750 C   0  0  0  0  0  0  0  0  0  0  0  0
   -2.1540   25.2570  -26.6080 C   0  0  0  0  0  0  0  0  0  0  0  0
   -1.9750   25.5670  -25.2550 C   0  0  0  0  0  0  0  0  0  0  0  0
   -1.2208   26.0555  -22.7938 H   0  0  0  0  0  0  0  0  0  0  0  0
    0.2119   27.0571  -23.2074 H   0  0  0  0  0  0  0  0  0  0  0  0
   -1.4276   27.7913  -23.2074 H   0  0  0  0  0  0  0  0  0  0  0  0
    0.4666   27.9438  -25.5619 H   0  0  0  0  0  0  0  0  0  0  0  0
    0.1401   27.3928  -27.9716 H   0  0  0  0  0  0  0  0  0  0  0  0
   -4.1670   25.8520  -29.7630 H   0  0  0  0  0  0  0  0  0  0  0  0
   -6.2133   24.2240  -28.7358 H   0  0  0  0  0  0  0  0  0  0  0  0
   -7.8164   22.5056  -29.5650 H   0  0  0  0  0  0  0  0  0  0  0  0
   -9.4525   22.9327  -30.8682 H   0  0  0  0  0  0  0  0  0  0  0  0
   -8.6557   23.3719  -32.4171 H   0  0  0  0  0  0  0  0  0  0  0  0
  -10.3469   22.7665  -32.4171 H   0  0  0  0  0  0  0  0  0  0  0  0
   -5.5890   19.0971  -30.4874 H   0  0  0  0  0  0  0  0  0  0  0  0
   -5.5343   18.1406  -32.0070 H   0  0  0  0  0  0  0  0  0  0  0  0
   -5.0066   19.8576  -32.0070 H   0  0  0  0  0  0  0  0  0  0  0  0
   -5.1358   21.5815  -32.8384 H   0  0  0  0  0  0  0  0  0  0  0  0
   -3.5288   23.2946  -32.0050 H   0  0  0  0  0  0  0  0  0  0  0  0
   -2.9116   24.5160  -26.9030 H   0  0  0  0  0  0  0  0  0  0  0  0
   -2.5887   25.0660  -24.4918 H   0  0  0  0  0  0  0  0  0  0  0  0
  1  2  1  0
  2  3  2  0
  3  4  1  0
  4  5  2  0
  5  6  1  0
  6  7  1  0
  7  8  2  0
  7  9  1  0
  9 10  1  0
 10 11  2  0
 11 12  1  0
 12 13  2  0
 13 14  1  0
 14 15  1  0
 15 16  1  0
 15 17  2  0
 17 18  1  0
 18 19  1  0
 19 20  2  0
 19 21  1  0
 21 22  1  0
 13 23  1  0
 23 24  2  0
  5 25  1  0
 25 26  2  0
 26  2  1  0
 24 10  1  0
 21 14  2  0
  1 27  1  0
  1 28  1  0
  1 29  1  0
  3 30  1  0
  4 31  1  0
  9 32  1  0
 11 33  1  0
 12 34  1  0
 16 35  1  0
 16 36  1  0
 16 37  1  0
 22 38  1  0
 22 39  1  0
 22 40  1  0
 23 41  1  0
 24 42  1  0
 25 43  1  0
 26 44  1  0
M  CHG  2   6  -1  18  -1
M  END
>  <UniqueID>  (10) 
10

>  <SMILES>  (10) 
Cc1ccc([N-]C(=O)Nc2ccc(-c3c(C)n[n-]c(=O)c3C)cc2)cc1

>  <Energy>  (10) 
63.928485167192534

>  <Genealogy>  (10) 
Cc1ccc([N-]C(=O)Nc2ccc(-c3c(C)n[n-]c(=O)c3C)cc2)cc1 (protonated)
Cc1ccc([N-]C(=O)Nc2ccc(-c3c(C)n[n-]c(=O)c3C)cc2)cc1 (3D coordinates assigned)
Cc1ccc([N-]C(=O)Nc2ccc(-c3c(C)n[n-]c(=O)c3C)cc2)cc1 (optimized conformer: 63.928485167192534 kcal/mol)

>  <smiles>  (10) 
Cc1ccc(NC(=O)Nc2ccc(-c3c(C)n[nH]c(=O)c3C)cc2)cc1

>  <score_type>  (10) 
oracle

>  <origin>  (10) 
adgpu

>  <m_score__min__energy>  (10) 
-10.81

>  <m_primary>  (10) 
energy

$$$$
10:0
     RDKit          3D

 47 50  0  0  0  0  0  0  0  0999 V2000
    3.0984   19.8195  -33.2455 H   0  0  0  0  0  0  0  0  0  0  0  0
    2.0260   20.0140  -33.0970 C   0  0  0  0  0  0  0  0  0  0  0  0
    1.4430   19.7300  -31.9030 N   0  0  0  0  0  0  0  0  0  0  0  0
    0.1210   19.9580  -31.6790 C   0  0  0  0  0  0  0  0  0  0  0  0
   -0.3175   19.7171  -30.6994 H   0  0  0  0  0  0  0  0  0  0  0  0
   -0.6880   20.5000  -32.6930 C   0  0  0  0  0  0  0  0  0  0  0  0
   -2.1350   20.7500  -32.4620 C   0  0  0  0  0  0  0  0  0  0  0  0
   -2.9340   21.3230  -33.4680 C   0  0  0  0  0  0  0  0  0  0  0  0
   -2.4821   21.6002  -34.4318 H   0  0  0  0  0  0  0  0  0  0  0  0
   -4.2970   21.5430  -33.2530 C   0  0  0  0  0  0  0  0  0  0  0  0
   -4.9128   21.9829  -34.0513 H   0  0  0  0  0  0  0  0  0  0  0  0
   -4.8840   21.2060  -32.0250 C   0  0  0  0  0  0  0  0  0  0  0  0
   -6.3280   21.4370  -31.8070 C   0  0  0  0  0  0  0  0  0  0  0  0
   -7.2350   20.4930  -32.3170 C   0  0  0  0  0  0  0  0  0  0  0  0
   -6.8589   19.6195  -32.8697 H   0  0  0  0  0  0  0  0  0  0  0  0
   -8.6090   20.6530  -32.1290 C   0  0  0  0  0  0  0  0  0  0  0  0
   -9.3095   19.9081  -32.5344 H   0  0  0  0  0  0  0  0  0  0  0  0
   -9.0940   21.7560  -31.4280 C   0  0  0  0  0  0  0  0  0  0  0  0
  -10.1763   21.8753  -31.2720 H   0  0  0  0  0  0  0  0  0  0  0  0
   -8.2080   22.7090  -30.9240 C   0  0  0  0  0  0  0  0  0  0  0  0
   -8.5988   23.5773  -30.3733 H   0  0  0  0  0  0  0  0  0  0  0  0
   -6.8230   22.5720  -31.1120 C   0  0  0  0  0  0  0  0  0  0  0  0
   -5.7590   23.8580  -30.5110 S   0  0  0  0  0  0  0  0  0  0  0  0
   -5.0460   24.5210  -31.6580 O   0  0  0  0  0  0  0  0  0  0  0  0
   -6.5850   24.8870  -29.7940 O   0  0  0  0  0  0  0  0  0  0  0  0
   -4.5720   23.2170  -29.4250 N   0  0  0  0  0  0  0  0  0  0  0  0
   -3.4480   23.8190  -29.1900 C   0  0  0  0  0  0  0  0  0  0  0  0
   -3.0840   24.9620  -29.7240 O   0  0  0  0  0  0  0  0  0  0  0  0
   -1.8920   25.2980  -29.3190 N   0  0  0  0  0  0  0  0  0  0  0  0
   -1.4690   24.3270  -28.4830 C   0  0  0  0  0  0  0  0  0  0  0  0
   -0.1300   24.3150  -27.8230 C   0  0  0  0  0  0  0  0  0  0  0  0
   -0.2596   24.3162  -26.7307 H   0  0  0  0  0  0  0  0  0  0  0  0
    0.4201   23.4119  -28.1260 H   0  0  0  0  0  0  0  0  0  0  0  0
    0.4362   25.2081  -28.1260 H   0  0  0  0  0  0  0  0  0  0  0  0
   -2.4440   23.3540  -28.3730 C   0  0  0  0  0  0  0  0  0  0  0  0
   -2.3960   22.0850  -27.5820 C   0  0  0  0  0  0  0  0  0  0  0  0
   -2.4050   22.3219  -26.5079 H   0  0  0  0  0  0  0  0  0  0  0  0
   -3.2714   21.4661  -27.8283 H   0  0  0  0  0  0  0  0  0  0  0  0
   -1.4764   21.5340  -27.8283 H   0  0  0  0  0  0  0  0  0  0  0  0
   -4.0970   20.6220  -31.0240 C   0  0  0  0  0  0  0  0  0  0  0  0
   -4.5549   20.3350  -30.0659 H   0  0  0  0  0  0  0  0  0  0  0  0
   -2.7330   20.4020  -31.2360 C   0  0  0  0  0  0  0  0  0  0  0  0
   -2.1221   19.9535  -30.4387 H   0  0  0  0  0  0  0  0  0  0  0  0
   -0.0950   20.7910  -33.9330 C   0  0  0  0  0  0  0  0  0  0  0  0
   -0.7047   21.2085  -34.7479 H   0  0  0  0  0  0  0  0  0  0  0  0
    1.2650   20.5520  -34.1340 C   0  0  0  0  0  0  0  0  0  0  0  0
    1.7325   20.7859  -35.1018 H   0  0  0  0  0  0  0  0  0  0  0  0
  1  2  1  0
  2  3  2  0
  3  4  1  0
  4  5  1  0
  4  6  2  0
  6  7  1  0
  7  8  2  0
  8  9  1  0
  8 10  1  0
 10 11  1  0
 10 12  2  0
 12 13  1  0
 13 14  2  0
 14 15  1  0
 14 16  1  0
 16 17  1  0
 16 18  2  0
 18 19  1  0
 18 20  1  0
 20 21  1  0
 20 22  2  0
 22 23  1  0
 23 24  2  0
 23 25  2  0
 23 26  1  0
 26 27  2  0
 27 28  1  0
 28 29  1  0
 29 30  1  0
 30 31  1  0
 31 32  1  0
 31 33  1  0
 31 34  1  0
 30 35  2  0
 35 36  1  0
 36 37  1  0
 36 38  1  0
 36 39  1  0
 12 40  1  0
 40 41  1  0
 40 42  2  0
 42 43  1  0
  6 44  1  0
 44 45  1  0
 44 46  2  0
 46 47  1  0
 46  2  1  0
 42  7  1  0
 22 13  1  0
 35 27  1  0
M  CHG  1  29  -1
M  END
>  <UniqueID>  (11) 
11

>  <SMILES>  (11) 
Cc1[n-]o/c(=N\S(=O)(=O)c2ccccc2-c2ccc(-c3cccnc3)cc2)c1C

>  <Energy>  (11) 
94.95291026110118

>  <Genealogy>  (11) 
Cc1[n-]oc(=NS(=O)(=O)c2ccccc2-c2ccc(-c3cccnc3)cc2)c1C (protonated)
Cc1[n-]o/c(=N\S(=O)(=O)c2ccccc2-c2ccc(-c3cccnc3)cc2)c1C (cis-trans isomerization)
Cc1[n-]o/c(=N\S(=O)(=O)c2ccccc2-c2ccc(-c3cccnc3)cc2)c1C (3D coordinates assigned)
Cc1[n-]o/c(=N\S(=O)(=O)c2ccccc2-c2ccc(-c3cccnc3)cc2)c1C (optimized conformer: 94.95291026110118 kcal/mol)

>  <smiles>  (11) 
Cc1[nH]oc(=NS(=O)(=O)c2ccccc2-c2ccc(-c3cccnc3)cc2)c1C

>  <score_type>  (11) 
oracle

>  <origin>  (11) 
adgpu

>  <m_score__min__energy>  (11) 
-12.35

>  <m_primary>  (11) 
energy

$$$$
11:0
     RDKit          3D

 63 67  0  0  0  0  0  0  0  0999 V2000
   -5.4742   12.9567  -34.9743 H   0  0  0  0  0  0  0  0  0  0  0  0
   -5.2080   13.9670  -34.6300 C   0  0  0  0  0  0  0  0  0  0  0  0
   -4.0020   14.4940  -34.9510 N   0  0  0  0  0  0  0  0  0  0  0  0
   -3.6100   15.7170  -34.5080 C   0  0  0  0  0  0  0  0  0  0  0  0
   -2.3270   16.1770  -34.8230 C   0  0  0  0  0  0  0  0  0  0  0  0
   -1.6844   15.5905  -35.4961 H   0  0  0  0  0  0  0  0  0  0  0  0
   -1.8600   17.3760  -34.2870 C   0  0  0  0  0  0  0  0  0  0  0  0
   -0.8606   17.7474  -34.5576 H   0  0  0  0  0  0  0  0  0  0  0  0
   -2.6600   18.1040  -33.4080 C   0  0  0  0  0  0  0  0  0  0  0  0
   -2.2768   19.0325  -32.9596 H   0  0  0  0  0  0  0  0  0  0  0  0
   -3.9470   17.6590  -33.0940 C   0  0  0  0  0  0  0  0  0  0  0  0
   -4.5528   18.2184  -32.3660 H   0  0  0  0  0  0  0  0  0  0  0  0
   -4.4800   16.4980  -33.7010 C   0  0  0  0  0  0  0  0  0  0  0  0
   -5.8050   16.0070  -33.4680 C   0  0  0  0  0  0  0  0  0  0  0  0
   -6.7910   16.7030  -32.9620 N   0  0  0  0  0  0  0  0  0  0  0  0
   -6.9200   18.1200  -32.7800 C   0  0  0  0  0  0  0  0  0  0  0  0
   -7.5000   18.6100  -31.6070 C   0  0  0  0  0  0  0  0  0  0  0  0
   -7.8019   17.9109  -30.8132 H   0  0  0  0  0  0  0  0  0  0  0  0
   -7.6990   19.9830  -31.4360 C   0  0  0  0  0  0  0  0  0  0  0  0
   -8.1401   20.3576  -30.5005 H   0  0  0  0  0  0  0  0  0  0  0  0
   -7.3400   20.8900  -32.4500 C   0  0  0  0  0  0  0  0  0  0  0  0
   -7.5080   22.3480  -32.2510 C   0  0  0  0  0  0  0  0  0  0  0  0
   -8.6440   22.8080  -31.9670 O   0  0  0  0  0  0  0  0  0  0  0  0
   -6.3670   23.2160  -32.3470 N   0  0  0  0  0  0  0  0  0  0  0  0
   -5.2550   23.3620  -31.4440 C   0  0  0  0  0  0  0  0  0  0  0  0
   -5.2970   24.2240  -30.3360 C   0  0  0  0  0  0  0  0  0  0  0  0
   -6.1652   24.8832  -30.1886 H   0  0  0  0  0  0  0  0  0  0  0  0
   -4.2460   24.2490  -29.4230 C   0  0  0  0  0  0  0  0  0  0  0  0
   -4.3046   24.9056  -28.5424 H   0  0  0  0  0  0  0  0  0  0  0  0
   -3.1180   23.4480  -29.6150 C   0  0  0  0  0  0  0  0  0  0  0  0
   -2.1380   23.3940  -28.5710 N   0  0  0  0  0  0  0  0  0  0  0  0
   -1.5060   22.5620  -28.5370 H   0  0  0  0  0  0  0  0  0  0  0  0
   -1.8880   24.5030  -27.6870 C   0  0  0  0  0  0  0  0  0  0  0  0
   -0.8670   25.4140  -27.9920 C   0  0  0  0  0  0  0  0  0  0  0  0
   -0.2767   25.2846  -28.9111 H   0  0  0  0  0  0  0  0  0  0  0  0
   -0.5930   26.4870  -27.1360 C   0  0  0  0  0  0  0  0  0  0  0  0
    0.2110   27.1941  -27.3882 H   0  0  0  0  0  0  0  0  0  0  0  0
   -1.3330   26.6680  -25.9620 C   0  0  0  0  0  0  0  0  0  0  0  0
   -1.0070   27.7480  -25.1270 O   0  0  0  0  0  0  0  0  0  0  0  0
   -0.2010   27.6520  -23.9540 C   0  0  0  0  0  0  0  0  0  0  0  0
    0.0111   28.6634  -23.5771 H   0  0  0  0  0  0  0  0  0  0  0  0
    0.9770   27.0020  -24.2660 F   0  0  0  0  0  0  0  0  0  0  0  0
   -0.8680   26.9290  -22.9810 F   0  0  0  0  0  0  0  0  0  0  0  0
   -2.3760   25.7690  -25.6640 C   0  0  0  0  0  0  0  0  0  0  0  0
   -2.9730   25.9069  -24.7505 H   0  0  0  0  0  0  0  0  0  0  0  0
   -2.6560   24.7030  -26.5230 C   0  0  0  0  0  0  0  0  0  0  0  0
   -3.4819   24.0152  -26.2887 H   0  0  0  0  0  0  0  0  0  0  0  0
   -2.9960   22.6650  -30.7880 C   0  0  0  0  0  0  0  0  0  0  0  0
   -1.4870   21.7800  -31.1390 S   0  0  0  0  0  0  0  0  0  0  0  0
   -0.3440   22.3540  -30.3530 O   0  0  0  0  0  0  0  0  0  0  0  0
   -1.1470   21.9110  -32.5960 O   0  0  0  0  0  0  0  0  0  0  0  0
   -1.6680   20.0580  -30.7320 C   0  0  0  0  0  0  0  0  0  0  0  0
   -1.6805   19.9390  -29.6385 H   0  0  0  0  0  0  0  0  0  0  0  0
   -2.6109   19.6789  -31.1529 H   0  0  0  0  0  0  0  0  0  0  0  0
   -0.8245   19.4911  -31.1529 H   0  0  0  0  0  0  0  0  0  0  0  0
   -4.0890   22.6100  -31.6870 C   0  0  0  0  0  0  0  0  0  0  0  0
   -4.0590   21.5470  -33.0990 Cl  0  0  0  0  0  0  0  0  0  0  0  0
   -6.8050   20.3870  -33.6510 C   0  0  0  0  0  0  0  0  0  0  0  0
   -6.5394   21.0795  -34.4633 H   0  0  0  0  0  0  0  0  0  0  0  0
   -6.6090   19.0120  -33.8180 C   0  0  0  0  0  0  0  0  0  0  0  0
   -6.2090   18.6278  -34.7680 H   0  0  0  0  0  0  0  0  0  0  0  0
   -6.1110   14.7000  -33.8660 C   0  0  0  0  0  0  0  0  0  0  0  0
   -7.0710   14.2499  -33.5730 H   0  0  0  0  0  0  0  0  0  0  0  0
  1  2  1  0
  2  3  1  0
  3  4  1  0
  4  5  2  0
  5  6  1  0
  5  7  1  0
  7  8  1  0
  7  9  2  0
  9 10  1  0
  9 11  1  0
 11 12  1  0
 11 13  2  0
 13 14  1  0
 14 15  2  0
 15 16  1  0
 16 17  2  0
 17 18  1  0
 17 19  1  0
 19 20  1  0
 19 21  2  0
 21 22  1  0
 22 23  2  0
 22 24  1  0
 24 25  1  0
 25 26  2  0
 26 27  1  0
 26 28  1  0
 28 29  1  0
 28 30  2  0
 30 31  1  0
 31 32  1  0
 31 33  1  0
 33 34  2  0
 34 35  1  0
 34 36  1  0
 36 37  1  0
 36 38  2  0
 38 39  1  0
 39 40  1  0
 40 41  1  0
 40 42  1  0
 40 43  1  0
 38 44  1  0
 44 45  1  0
 44 46  2  0
 46 47  1  0
 30 48  1  0
 48 49  1  0
 49 50  2  0
 49 51  2  0
 49 52  1  0
 52 53  1  0
 52 54  1  0
 52 55  1  0
 48 56  2  0
 56 57  1  0
 21 58  1  0
 58 59  1  0
 58 60  2  0
 60 61  1  0
 14 62  1  0
 62 63  1  0
 62  2  2  0
 13  4  1  0
 60 16  1  0
 56 25  1  0
 46 33  1  0
M  CHG  2   3  -1  24  -1
M  END
>  <UniqueID>  (12) 
12

>  <SMILES>  (12) 
CS(=O)(=O)c1c(Nc2ccc(OC(F)F)cc2)ccc([N-]C(=O)c2ccc(/N=c3/cc[n-]c4ccccc34)cc2)c1Cl

>  <Energy>  (12) 
108.09030438312058

>  <Genealogy>  (12) 
CS(=O)(=O)c1c(Nc2ccc(OC(F)F)cc2)ccc([N-]C(=O)c2ccc(N=c3cc[n-]c4ccccc34)cc2)c1Cl (protonated)
CS(=O)(=O)c1c(Nc2ccc(OC(F)F)cc2)ccc([N-]C(=O)c2ccc(/N=c3/cc[n-]c4ccccc34)cc2)c1Cl (cis-trans isomerization)
CS(=O)(=O)c1c(Nc2ccc(OC(F)F)cc2)ccc([N-]C(=O)c2ccc(/N=c3/cc[n-]c4ccccc34)cc2)c1Cl (3D coordinates assigned)
CS(=O)(=O)c1c(Nc2ccc(OC(F)F)cc2)ccc([N-]C(=O)c2ccc(/N=c3/cc[n-]c4ccccc34)cc2)c1Cl (optimized conformer: 108.09030438312058 kcal/mol)

>  <smiles>  (12) 
CS(=O)(=O)c1c(Nc2ccc(OC(F)F)cc2)ccc(NC(=O)c2ccc(N=c3cc[nH]c4ccccc34)cc2)c1Cl

>  <score_type>  (12) 
oracle

>  <origin>  (12) 
adgpu

>  <m_score__min__energy>  (12) 
-10.99

>  <m_primary>  (12) 
energy

$$$$
12:0
     RDKit          3D

 48 49  0  0  0  0  0  0  0  0999 V2000
   -5.6310   14.5990  -33.8410 C   0  0  0  0  0  0  0  0  0  0  0  0
   -6.6480   15.6730  -34.2090 C   0  0  0  0  0  0  0  0  0  0  0  0
   -6.0170   17.0010  -34.2080 N   0  0  0  0  0  0  0  0  0  0  0  0
   -4.8100   17.2510  -35.0100 C   0  0  0  0  0  0  0  0  0  0  0  0
   -3.6340   17.6120  -34.1070 C   0  0  0  0  0  0  0  0  0  0  0  0
   -6.5820   18.0630  -33.4160 C   0  0  0  0  0  0  0  0  0  0  0  0
   -7.2430   17.7740  -32.2120 C   0  0  0  0  0  0  0  0  0  0  0  0
   -7.7730   18.8060  -31.4320 C   0  0  0  0  0  0  0  0  0  0  0  0
   -7.6450   20.1420  -31.8430 C   0  0  0  0  0  0  0  0  0  0  0  0
   -8.1780   21.2620  -30.9870 C   0  0  0  0  0  0  0  0  0  0  0  0
   -7.5160   22.5260  -31.3150 N   0  0  0  0  0  0  0  0  0  0  0  0
   -6.1280   22.8040  -31.0460 C   0  0  0  0  0  0  0  0  0  0  0  0
   -5.2330   21.7360  -30.8880 C   0  0  0  0  0  0  0  0  0  0  0  0
   -3.8900   21.9750  -30.5890 C   0  0  0  0  0  0  0  0  0  0  0  0
   -3.4140   23.2820  -30.4300 C   0  0  0  0  0  0  0  0  0  0  0  0
   -2.0310   23.4590  -30.0910 N   0  0  0  0  0  0  0  0  0  0  0  0
   -1.4170   24.3650  -28.7450 S   0  0  0  0  0  0  0  0  0  0  0  0
   -2.1890   23.8250  -27.2320 C   0  0  0  0  0  0  0  0  0  0  0  0
    0.0600   24.1140  -28.6320 O   0  0  0  0  0  0  0  0  0  0  0  0
   -1.6450   25.8340  -28.9570 O   0  0  0  0  0  0  0  0  0  0  0  0
   -4.2960   24.3630  -30.6430 C   0  0  0  0  0  0  0  0  0  0  0  0
   -3.8530   25.6780  -30.5970 O   0  0  0  0  0  0  0  0  0  0  0  0
   -5.6420   24.1200  -30.9390 C   0  0  0  0  0  0  0  0  0  0  0  0
   -7.0040   20.4280  -33.0590 C   0  0  0  0  0  0  0  0  0  0  0  0
   -6.4720   19.3960  -33.8370 C   0  0  0  0  0  0  0  0  0  0  0  0
   -5.5585   14.5225  -32.7461 H   0  0  0  0  0  0  0  0  0  0  0  0
   -5.9524   13.6322  -34.2557 H   0  0  0  0  0  0  0  0  0  0  0  0
   -4.6481   14.8673  -34.2557 H   0  0  0  0  0  0  0  0  0  0  0  0
   -7.0491   15.4635  -35.2116 H   0  0  0  0  0  0  0  0  0  0  0  0
   -7.4596   15.6640  -33.4666 H   0  0  0  0  0  0  0  0  0  0  0  0
   -4.5619   16.3453  -35.5828 H   0  0  0  0  0  0  0  0  0  0  0  0
   -5.0045   18.0905  -35.6937 H   0  0  0  0  0  0  0  0  0  0  0  0
   -3.9381   17.5186  -33.0540 H   0  0  0  0  0  0  0  0  0  0  0  0
   -2.7945   16.9302  -34.3080 H   0  0  0  0  0  0  0  0  0  0  0  0
   -3.3217   18.6474  -34.3080 H   0  0  0  0  0  0  0  0  0  0  0  0
   -7.3445   16.7301  -31.8805 H   0  0  0  0  0  0  0  0  0  0  0  0
   -8.2928   18.5699  -30.4917 H   0  0  0  0  0  0  0  0  0  0  0  0
   -9.2593   21.3654  -31.1604 H   0  0  0  0  0  0  0  0  0  0  0  0
   -7.9810   21.0239  -29.9313 H   0  0  0  0  0  0  0  0  0  0  0  0
   -8.0680   23.2270  -31.8570 H   0  0  0  0  0  0  0  0  0  0  0  0
   -5.5916   20.7022  -31.0004 H   0  0  0  0  0  0  0  0  0  0  0  0
   -3.1984   21.1269  -30.4772 H   0  0  0  0  0  0  0  0  0  0  0  0
   -1.6264   24.2185  -26.3726 H   0  0  0  0  0  0  0  0  0  0  0  0
   -3.2233   24.1976  -27.1948 H   0  0  0  0  0  0  0  0  0  0  0  0
   -2.1937   22.7256  -27.1948 H   0  0  0  0  0  0  0  0  0  0  0  0
   -6.3274   24.9670  -31.0896 H   0  0  0  0  0  0  0  0  0  0  0  0
   -6.9201   21.4700  -33.4012 H   0  0  0  0  0  0  0  0  0  0  0  0
   -5.9645   19.6306  -34.7843 H   0  0  0  0  0  0  0  0  0  0  0  0
  1  2  1  0
  2  3  1  0
  3  4  1  0
  4  5  1  0
  3  6  1  0
  6  7  2  0
  7  8  1  0
  8  9  2  0
  9 10  1  0
 10 11  1  0
 11 12  1  0
 12 13  2  0
 13 14  1  0
 14 15  2  0
 15 16  1  0
 16 17  1  0
 17 18  1  0
 17 19  2  0
 17 20  2  0
 15 21  1  0
 21 22  1  0
 21 23  2  0
  9 24  1  0
 24 25  2  0
 25  6  1  0
 23 12  1  0
  1 26  1  0
  1 27  1  0
  1 28  1  0
  2 29  1  0
  2 30  1  0
  4 31  1  0
  4 32  1  0
  5 33  1  0
  5 34  1  0
  5 35  1  0
  7 36  1  0
  8 37  1  0
 10 38  1  0
 10 39  1  0
 11 40  1  0
 13 41  1  0
 14 42  1  0
 18 43  1  0
 18 44  1  0
 18 45  1  0
 23 46  1  0
 24 47  1  0
 25 48  1  0
M  CHG  2  16  -1  22  -1
M  END
>  <UniqueID>  (13) 
13

>  <SMILES>  (13) 
CCN(CC)c1ccc(CNc2ccc([N-]S(C)(=O)=O)c([O-])c2)cc1

>  <Energy>  (13) 
46.82690269288079

>  <Genealogy>  (13) 
CCN(CC)c1ccc(CNc2ccc([N-]S(C)(=O)=O)c([O-])c2)cc1 (protonated)
CCN(CC)c1ccc(CNc2ccc([N-]S(C)(=O)=O)c([O-])c2)cc1 (3D coordinates assigned)
CCN(CC)c1ccc(CNc2ccc([N-]S(C)(=O)=O)c([O-])c2)cc1 (optimized conformer: 46.82690269288079 kcal/mol)

>  <smiles>  (13) 
CCN(CC)c1ccc(CNc2ccc(NS(C)(=O)=O)c(O)c2)cc1

>  <score_type>  (13) 
oracle

>  <origin>  (13) 
adgpu

>  <m_score__min__energy>  (13) 
-12.449999999999999

>  <m_primary>  (13) 
energy

$$$$
13:0
     RDKit          3D

 35 38  0  0  0  0  0  0  0  0999 V2000
   -7.1380   15.0960  -34.2430 N   0  0  0  0  0  0  0  0  0  0  0  0
   -6.7940   16.1560  -33.9330 C   0  0  0  0  0  0  0  0  0  0  0  0
   -6.3670   17.4770  -33.5500 C   0  0  0  0  0  0  0  0  0  0  0  0
   -7.1840   18.4490  -33.0160 C   0  0  0  0  0  0  0  0  0  0  0  0
   -6.4850   19.5940  -32.8540 N   0  0  0  0  0  0  0  0  0  0  0  0
   -6.9870   20.8380  -32.3280 C   0  0  0  0  0  0  0  0  0  0  0  0
   -8.3680   21.0330  -32.1490 C   0  0  0  0  0  0  0  0  0  0  0  0
   -8.8540   22.2380  -31.6410 C   0  0  0  0  0  0  0  0  0  0  0  0
   -7.9710   23.2660  -31.3040 C   0  0  0  0  0  0  0  0  0  0  0  0
   -6.5870   23.0960  -31.4730 C   0  0  0  0  0  0  0  0  0  0  0  0
   -5.6520   24.1830  -31.1130 C   0  0  0  0  0  0  0  0  0  0  0  0
   -4.3110   24.0880  -31.1740 N   0  0  0  0  0  0  0  0  0  0  0  0
   -3.8710   25.2690  -30.7710 N   0  0  0  0  0  0  0  0  0  0  0  0
   -4.8960   26.0520  -30.4760 N   0  0  0  0  0  0  0  0  0  0  0  0
   -6.0290   25.4010  -30.6800 N   0  0  0  0  0  0  0  0  0  0  0  0
   -6.1040   21.8800  -31.9850 C   0  0  0  0  0  0  0  0  0  0  0  0
   -5.2270   19.3560  -33.2900 C   0  0  0  0  0  0  0  0  0  0  0  0
   -5.1140   18.0470  -33.7280 C   0  0  0  0  0  0  0  0  0  0  0  0
   -3.8960   17.4240  -34.2990 C   0  0  0  0  0  0  0  0  0  0  0  0
   -3.9620   16.1850  -34.9620 C   0  0  0  0  0  0  0  0  0  0  0  0
   -2.8060   15.6020  -35.4900 C   0  0  0  0  0  0  0  0  0  0  0  0
   -2.8990   14.0550  -36.3120 Cl  0  0  0  0  0  0  0  0  0  0  0  0
   -1.5730   16.2480  -35.3570 C   0  0  0  0  0  0  0  0  0  0  0  0
   -1.4940   17.4740  -34.6920 C   0  0  0  0  0  0  0  0  0  0  0  0
    0.0550   18.2820  -34.5230 Cl  0  0  0  0  0  0  0  0  0  0  0  0
   -2.6480   18.0580  -34.1610 C   0  0  0  0  0  0  0  0  0  0  0  0
   -8.2452   18.3136  -32.7601 H   0  0  0  0  0  0  0  0  0  0  0  0
   -9.0710   20.2288  -32.4117 H   0  0  0  0  0  0  0  0  0  0  0  0
   -9.9365   22.3788  -31.5054 H   0  0  0  0  0  0  0  0  0  0  0  0
   -8.3612   24.2136  -30.9042 H   0  0  0  0  0  0  0  0  0  0  0  0
   -5.0213   21.7400  -32.1198 H   0  0  0  0  0  0  0  0  0  0  0  0
   -4.4120   20.0948  -33.2959 H   0  0  0  0  0  0  0  0  0  0  0  0
   -4.9293   15.6715  -35.0657 H   0  0  0  0  0  0  0  0  0  0  0  0
   -0.6647   15.7905  -35.7762 H   0  0  0  0  0  0  0  0  0  0  0  0
   -2.5795   19.0198  -33.6317 H   0  0  0  0  0  0  0  0  0  0  0  0
  1  2  3  0
  2  3  1  0
  3  4  2  0
  4  5  1  0
  5  6  1  0
  6  7  2  0
  7  8  1  0
  8  9  2  0
  9 10  1  0
 10 11  1  0
 11 12  1  0
 12 13  2  0
 13 14  1  0
 14 15  1  0
 10 16  2  0
  5 17  1  0
 17 18  2  0
 18 19  1  0
 19 20  2  0
 20 21  1  0
 21 22  1  0
 21 23  2  0
 23 24  1  0
 24 25  1  0
 24 26  2  0
 18  3  1  0
 26 19  1  0
 16  6  1  0
 15 11  2  0
  4 27  1  0
  7 28  1  0
  8 29  1  0
  9 30  1  0
 16 31  1  0
 17 32  1  0
 20 33  1  0
 23 34  1  0
 26 35  1  0
M  CHG  1  14  -1
M  END
>  <UniqueID>  (14) 
14

>  <SMILES>  (14) 
N#Cc1cn(-c2cccc(-c3nn[n-]n3)c2)cc1-c1cc(Cl)cc(Cl)c1

>  <Energy>  (14) 
112.03166439520304

>  <Genealogy>  (14) 
N#Cc1cn(-c2cccc(-c3nn[n-]n3)c2)cc1-c1cc(Cl)cc(Cl)c1 (protonated)
N#Cc1cn(-c2cccc(-c3nn[n-]n3)c2)cc1-c1cc(Cl)cc(Cl)c1 (3D coordinates assigned)
N#Cc1cn(-c2cccc(-c3nn[n-]n3)c2)cc1-c1cc(Cl)cc(Cl)c1 (optimized conformer: 112.03166439520304 kcal/mol)

>  <smiles>  (14) 
N#Cc1cn(-c2cccc(-c3nn[nH]n3)c2)cc1-c1cc(Cl)cc(Cl)c1

>  <score_type>  (14) 
oracle

>  <origin>  (14) 
adgpu

>  <m_score__min__energy>  (14) 
-10.91

>  <m_primary>  (14) 
energy

$$$$
14:0
     RDKit          3D

 39 40  0  0  0  0  0  0  0  0999 V2000
   -3.6460   25.0870  -30.8120 N   0  0  0  0  0  0  0  0  0  0  0  0
   -5.1060   24.9300  -29.9020 S   0  0  0  0  0  0  0  0  0  0  0  0
   -5.8220   26.2500  -29.8680 O   0  0  0  0  0  0  0  0  0  0  0  0
   -4.7780   24.5210  -28.4920 O   0  0  0  0  0  0  0  0  0  0  0  0
   -6.1320   23.7120  -30.6510 C   0  0  0  0  0  0  0  0  0  0  0  0
   -5.6170   22.4440  -30.9520 C   0  0  0  0  0  0  0  0  0  0  0  0
   -6.4290   21.4810  -31.5600 C   0  0  0  0  0  0  0  0  0  0  0  0
   -7.7650   21.7760  -31.8720 C   0  0  0  0  0  0  0  0  0  0  0  0
   -8.6370   20.7580  -32.5550 C   0  0  0  0  0  0  0  0  0  0  0  0
   -7.8100   19.7620  -33.2320 N   0  0  0  0  0  0  0  0  0  0  0  0
   -7.3900   18.5480  -32.5890 C   0  0  0  0  0  0  0  0  0  0  0  0
   -7.9320   18.2000  -31.5040 O   0  0  0  0  0  0  0  0  0  0  0  0
   -6.3400   17.6900  -33.1880 C   0  0  0  0  0  0  0  0  0  0  0  0
   -5.0530   18.1950  -33.4370 C   0  0  0  0  0  0  0  0  0  0  0  0
   -4.0550   17.3770  -33.9950 C   0  0  0  0  0  0  0  0  0  0  0  0
   -2.6590   17.9120  -34.1950 C   0  0  0  0  0  0  0  0  0  0  0  0
   -1.8460   17.5710  -33.1290 F   0  0  0  0  0  0  0  0  0  0  0  0
   -2.7100   19.2890  -34.3010 F   0  0  0  0  0  0  0  0  0  0  0  0
   -2.0970   17.3920  -35.3490 F   0  0  0  0  0  0  0  0  0  0  0  0
   -4.3440   16.0300  -34.2630 C   0  0  0  0  0  0  0  0  0  0  0  0
   -5.6300   15.5110  -34.0370 C   0  0  0  0  0  0  0  0  0  0  0  0
   -5.9190   14.0520  -34.2920 C   0  0  0  0  0  0  0  0  0  0  0  0
   -5.0950   13.5560  -35.2870 F   0  0  0  0  0  0  0  0  0  0  0  0
   -7.2370   13.9130  -34.6860 F   0  0  0  0  0  0  0  0  0  0  0  0
   -5.7090   13.3050  -33.1460 F   0  0  0  0  0  0  0  0  0  0  0  0
   -6.6150   16.3420  -33.4780 C   0  0  0  0  0  0  0  0  0  0  0  0
   -8.2740   23.0520  -31.5810 C   0  0  0  0  0  0  0  0  0  0  0  0
   -7.4620   24.0140  -30.9740 C   0  0  0  0  0  0  0  0  0  0  0  0
   -3.6410   26.0480  -31.2190 H   0  0  0  0  0  0  0  0  0  0  0  0
   -4.5710   22.2053  -30.7094 H   0  0  0  0  0  0  0  0  0  0  0  0
   -6.0185   20.4878  -31.7947 H   0  0  0  0  0  0  0  0  0  0  0  0
   -9.2682   20.2581  -31.8055 H   0  0  0  0  0  0  0  0  0  0  0  0
   -9.2694   21.2661  -33.2980 H   0  0  0  0  0  0  0  0  0  0  0  0
   -7.5530   19.9350  -34.2290 H   0  0  0  0  0  0  0  0  0  0  0  0
   -4.8234   19.2426  -33.1925 H   0  0  0  0  0  0  0  0  0  0  0  0
   -3.5540   15.3725  -34.6548 H   0  0  0  0  0  0  0  0  0  0  0  0
   -7.6136   15.9331  -33.2646 H   0  0  0  0  0  0  0  0  0  0  0  0
   -9.3169   23.2956  -31.8320 H   0  0  0  0  0  0  0  0  0  0  0  0
   -7.8680   25.0113  -30.7490 H   0  0  0  0  0  0  0  0  0  0  0  0
  1  2  1  0
  2  3  2  0
  2  4  2  0
  2  5  1  0
  5  6  2  0
  6  7  1  0
  7  8  2  0
  8  9  1  0
  9 10  1  0
 10 11  1  0
 11 12  2  0
 11 13  1  0
 13 14  2  0
 14 15  1  0
 15 16  1  0
 16 17  1  0
 16 18  1  0
 16 19  1  0
 15 20  2  0
 20 21  1  0
 21 22  1  0
 22 23  1  0
 22 24  1  0
 22 25  1  0
 21 26  2  0
  8 27  1  0
 27 28  2  0
 28  5  1  0
 26 13  1  0
  1 29  1  0
  6 30  1  0
  7 31  1  0
  9 32  1  0
  9 33  1  0
 10 34  1  0
 14 35  1  0
 20 36  1  0
 26 37  1  0
 27 38  1  0
 28 39  1  0
M  CHG  1   1  -1
M  END
>  <UniqueID>  (15) 
15

>  <SMILES>  (15) 
[NH-]S(=O)(=O)c1ccc(CNC(=O)c2cc(C(F)(F)F)cc(C(F)(F)F)c2)cc1

>  <Energy>  (15) 
40.1841534839694

>  <Genealogy>  (15) 
[NH-]S(=O)(=O)c1ccc(CNC(=O)c2cc(C(F)(F)F)cc(C(F)(F)F)c2)cc1 (protonated)
[NH-]S(=O)(=O)c1ccc(CNC(=O)c2cc(C(F)(F)F)cc(C(F)(F)F)c2)cc1 (3D coordinates assigned)
[NH-]S(=O)(=O)c1ccc(CNC(=O)c2cc(C(F)(F)F)cc(C(F)(F)F)c2)cc1 (optimized conformer: 40.1841534839694 kcal/mol)

>  <smiles>  (15) 
NS(=O)(=O)c1ccc(CNC(=O)c2cc(C(F)(F)F)cc(C(F)(F)F)c2)cc1

>  <score_type>  (15) 
oracle

>  <origin>  (15) 
adgpu

>  <m_score__min__energy>  (15) 
-10.51

>  <m_primary>  (15) 
energy

$$$$
15:0
     RDKit          3D

 51 53  0  0  1  0  0  0  0  0999 V2000
    4.5620   24.2780  -22.0190 C   0  0  0  0  0  0  0  0  0  0  0  0
    5.1060   25.5040  -22.7450 C   0  0  0  0  0  0  0  0  0  0  0  0
    4.1650   25.8260  -23.8960 C   0  0  0  0  0  0  0  0  0  0  0  0
    2.9170   24.9920  -23.6670 C   0  0  0  0  0  0  0  0  0  0  0  0
    2.1000   25.0690  -24.9060 C   0  0  0  0  0  0  0  0  0  0  0  0
    2.5030   24.5410  -26.1140 C   0  0  0  0  0  0  0  0  0  0  0  0
    1.6840   24.6520  -27.2310 C   0  0  0  0  0  0  0  0  0  0  0  0
    0.4690   25.2930  -27.1300 C   0  0  0  0  0  0  0  0  0  0  0  0
   -0.4280   25.4510  -28.2220 N   0  0  0  0  0  0  0  0  0  0  0  0
   -1.4530   24.6800  -28.3730 C   0  0  0  0  0  0  0  0  0  0  0  0
   -1.7320   23.6620  -27.4840 C   0  0  0  0  0  0  0  0  0  0  0  0
   -2.8540   22.9020  -27.7460 C   0  0  0  0  0  0  0  0  0  0  0  0
   -3.6540   23.1210  -28.8090 N   0  0  0  0  0  0  0  0  0  0  0  0
   -3.3470   24.1200  -29.6510 C   0  0  0  0  0  0  0  0  0  0  0  0
   -4.0460   24.4120  -30.6970 N   0  0  0  0  0  0  0  0  0  0  0  0
   -5.2010   23.6640  -31.0060 C   0  0  0  0  0  0  0  0  0  0  0  0
   -6.4880   24.1560  -30.9210 C   0  0  0  0  0  0  0  0  0  0  0  0
   -7.5760   23.3400  -31.2490 C   0  0  0  0  0  0  0  0  0  0  0  0
   -7.3810   22.0270  -31.6630 C   0  0  0  0  0  0  0  0  0  0  0  0
   -8.7480   20.9880  -32.0790 S   0  0  0  0  0  0  0  0  0  0  0  0
   -8.4530   20.0420  -33.4670 N   0  0  0  0  0  0  0  0  0  0  0  0
   -9.9270   21.8650  -32.2830 O   0  0  0  0  0  0  0  0  0  0  0  0
   -9.0760   20.0630  -30.9440 O   0  0  0  0  0  0  0  0  0  0  0  0
   -6.0890   21.5480  -31.7430 C   0  0  0  0  0  0  0  0  0  0  0  0
   -5.0100   22.3470  -31.4220 C   0  0  0  0  0  0  0  0  0  0  0  0
   -2.2580   24.8880  -29.4310 N   0  0  0  0  0  0  0  0  0  0  0  0
    0.0420   25.8350  -25.9150 C   0  0  0  0  0  0  0  0  0  0  0  0
    0.8870   25.7010  -24.8320 C   0  0  0  0  0  0  0  0  0  0  0  0
    4.6314   24.4345  -20.9324 H   0  0  0  0  0  0  0  0  0  0  0  0
    3.5101   24.1219  -22.3005 H   0  0  0  0  0  0  0  0  0  0  0  0
    5.1521   23.3934  -22.3005 H   0  0  0  0  0  0  0  0  0  0  0  0
    5.1538   26.3572  -22.0523 H   0  0  0  0  0  0  0  0  0  0  0  0
    6.1190   25.3046  -23.1245 H   0  0  0  0  0  0  0  0  0  0  0  0
    3.9137   26.8969  -23.8952 H   0  0  0  0  0  0  0  0  0  0  0  0
    4.6271   25.5985  -24.8680 H   0  0  0  0  0  0  0  0  0  0  0  0
    3.1946   23.9472  -23.4636 H   0  0  0  0  0  0  0  0  0  0  0  0
    2.3501   25.3688  -22.8029 H   0  0  0  0  0  0  0  0  0  0  0  0
    3.4744   24.0311  -26.1938 H   0  0  0  0  0  0  0  0  0  0  0  0
    2.0053   24.2288  -28.1941 H   0  0  0  0  0  0  0  0  0  0  0  0
   -1.0925   23.4661  -26.6107 H   0  0  0  0  0  0  0  0  0  0  0  0
   -3.1065   22.0820  -27.0576 H   0  0  0  0  0  0  0  0  0  0  0  0
   -4.4880   22.5610  -29.0100 H   0  0  0  0  0  0  0  0  0  0  0  0
   -6.6585   25.1925  -30.5945 H   0  0  0  0  0  0  0  0  0  0  0  0
   -8.5976   23.7418  -31.1786 H   0  0  0  0  0  0  0  0  0  0  0  0
   -9.2650   19.5510  -33.8600 H   0  0  0  0  0  0  0  0  0  0  0  0
   -7.7780   20.4360  -34.1320 H   0  0  0  0  0  0  0  0  0  0  0  0
   -5.9161   20.5115  -32.0682 H   0  0  0  0  0  0  0  0  0  0  0  0
   -3.9903   21.9410  -31.4951 H   0  0  0  0  0  0  0  0  0  0  0  0
   -2.0130   25.6770  -30.0930 H   0  0  0  0  0  0  0  0  0  0  0  0
   -0.9273   26.3472  -25.8254 H   0  0  0  0  0  0  0  0  0  0  0  0
    0.5720   26.1209  -23.8653 H   0  0  0  0  0  0  0  0  0  0  0  0
  1  2  1  0
  2  3  1  0
  3  4  1  0
  4  5  1  0
  5  6  2  0
  6  7  1  0
  7  8  2  0
  8  9  1  0
  9 10  2  0
 10 11  1  0
 11 12  2  0
 12 13  1  0
 13 14  1  0
 14 15  2  0
 15 16  1  0
 16 17  2  0
 17 18  1  0
 18 19  2  0
 19 20  1  0
 20 21  1  0
 20 22  2  0
 20 23  2  0
 19 24  1  0
 24 25  2  0
 14 26  1  0
  8 27  1  0
 27 28  2  0
 28  5  1  0
 26 10  1  0
 25 16  1  0
  1 29  1  0
  1 30  1  0
  1 31  1  0
  2 32  1  0
  2 33  1  0
  3 34  1  0
  3 35  1  0
  4 36  1  0
  4 37  1  0
  6 38  1  0
  7 39  1  0
 11 40  1  0
 12 41  1  0
 13 42  1  0
 17 43  1  0
 18 44  1  0
 21 45  1  0
 21 46  1  0
 24 47  1  0
 25 48  1  0
 26 49  1  0
 27 50  1  0
 28 51  1  0
M  END
>  <smiles>  (16) 
CCCCc1ccc(N=c2cc[nH]c(=Nc3ccc(S(N)(=O)=O)cc3)[nH]2)cc1

>  <score_type>  (16) 
oracle

>  <origin>  (16) 
adgpu

>  <m_score__min__energy>  (16) 
-9.9800000000000004

>  <m_primary>  (16) 
energy

$$$$
16:0
     RDKit          3D

 31 33  0  0  0  0  0  0  0  0999 V2000
   -6.2550   23.8010  -32.7020 O   0  0  0  0  0  0  0  0  0  0  0  0
   -5.4960   23.8950  -31.7010 C   0  0  0  0  0  0  0  0  0  0  0  0
   -5.2620   25.2420  -31.0900 C   0  0  0  0  0  0  0  0  0  0  0  0
   -3.9820   25.2960  -30.4660 O   0  0  0  0  0  0  0  0  0  0  0  0
   -3.4420   24.2010  -29.7890 C   0  0  0  0  0  0  0  0  0  0  0  0
   -2.4260   24.4120  -28.8520 C   0  0  0  0  0  0  0  0  0  0  0  0
   -1.9000   23.3390  -28.1340 C   0  0  0  0  0  0  0  0  0  0  0  0
   -2.3880   22.0490  -28.3500 C   0  0  0  0  0  0  0  0  0  0  0  0
   -1.7430   20.7060  -27.4240 Cl  0  0  0  0  0  0  0  0  0  0  0  0
   -3.3880   21.8260  -29.3030 C   0  0  0  0  0  0  0  0  0  0  0  0
   -3.9150   22.8990  -30.0580 C   0  0  0  0  0  0  0  0  0  0  0  0
   -4.9030   22.7160  -31.1090 N   0  0  0  0  0  0  0  0  0  0  0  0
   -5.2210   21.4040  -31.7040 C   0  0  0  0  0  0  0  0  0  0  0  0
   -6.7130   21.1740  -31.7460 C   0  0  0  0  0  0  0  0  0  0  0  0
   -7.5490   21.8250  -30.8200 C   0  0  0  0  0  0  0  0  0  0  0  0
   -8.9320   21.6200  -30.8480 C   0  0  0  0  0  0  0  0  0  0  0  0
   -9.4940   20.7670  -31.7990 C   0  0  0  0  0  0  0  0  0  0  0  0
   -8.6760   20.1180  -32.7260 C   0  0  0  0  0  0  0  0  0  0  0  0
   -7.2920   20.3180  -32.7040 C   0  0  0  0  0  0  0  0  0  0  0  0
   -6.5220   19.6740  -33.6150 F   0  0  0  0  0  0  0  0  0  0  0  0
   -5.3130   26.0092  -31.8766 H   0  0  0  0  0  0  0  0  0  0  0  0
   -6.0348   25.4244  -30.3287 H   0  0  0  0  0  0  0  0  0  0  0  0
   -2.0404   25.4279  -28.6808 H   0  0  0  0  0  0  0  0  0  0  0  0
   -1.1007   23.5088  -27.3975 H   0  0  0  0  0  0  0  0  0  0  0  0
   -3.7676   20.8066  -29.4663 H   0  0  0  0  0  0  0  0  0  0  0  0
   -4.8229   21.3682  -32.7288 H   0  0  0  0  0  0  0  0  0  0  0  0
   -4.7635   20.6188  -31.0841 H   0  0  0  0  0  0  0  0  0  0  0  0
   -7.1117   22.4996  -30.0692 H   0  0  0  0  0  0  0  0  0  0  0  0
   -9.5779   22.1318  -30.1194 H   0  0  0  0  0  0  0  0  0  0  0  0
  -10.5820   20.6059  -31.8183 H   0  0  0  0  0  0  0  0  0  0  0  0
   -9.1214   19.4475  -33.4757 H   0  0  0  0  0  0  0  0  0  0  0  0
  1  2  2  0
  2  3  1  0
  3  4  1  0
  4  5  1  0
  5  6  2  0
  6  7  1  0
  7  8  2  0
  8  9  1  0
  8 10  1  0
 10 11  2  0
 11 12  1  0
 12 13  1  0
 13 14  1  0
 14 15  2  0
 15 16  1  0
 16 17  2  0
 17 18  1  0
 18 19  2  0
 19 20  1  0
 12  2  1  0
 19 14  1  0
 11  5  1  0
  3 21  1  0
  3 22  1  0
  6 23  1  0
  7 24  1  0
 10 25  1  0
 13 26  1  0
 13 27  1  0
 15 28  1  0
 16 29  1  0
 17 30  1  0
 18 31  1  0
M  END
>  <UniqueID>  (17) 
16

>  <SMILES>  (17) 
O=C1COc2ccc(Cl)cc2N1Cc1ccccc1F

>  <Energy>  (17) 
40.38641507304376

>  <Genealogy>  (17) 
O=C1COc2ccc(Cl)cc2N1Cc1ccccc1F (3D coordinates assigned)
O=C1COc2ccc(Cl)cc2N1Cc1ccccc1F (nonaromatic ring conformer: 40.38641507304376 kcal/mol)

>  <smiles>  (17) 
O=C1COc2ccc(Cl)cc2N1Cc1ccccc1F

>  <score_type>  (17) 
oracle

>  <origin>  (17) 
adgpu

>  <m_score__min__energy>  (17) 
-7.5700000000000003

>  <m_primary>  (17) 
energy

$$$$
17:0
     RDKit          3D

 58 60  0  0  0  0  0  0  0  0999 V2000
   -0.7060   19.5830  -27.4790 C   0  0  0  0  0  0  0  0  0  0  0  0
   -1.1090   20.9530  -27.9590 C   0  0  0  0  0  0  0  0  0  0  0  0
   -1.7360   21.8390  -27.0670 C   0  0  0  0  0  0  0  0  0  0  0  0
   -2.1100   23.1180  -27.4810 C   0  0  0  0  0  0  0  0  0  0  0  0
   -1.8610   23.5420  -28.7930 C   0  0  0  0  0  0  0  0  0  0  0  0
   -2.2240   24.9180  -29.2100 C   0  0  0  0  0  0  0  0  0  0  0  0
   -1.4350   25.8670  -28.9610 O   0  0  0  0  0  0  0  0  0  0  0  0
   -3.4700   25.2130  -29.8610 N   0  0  0  0  0  0  0  0  0  0  0  0
   -4.4310   24.2510  -30.3190 C   0  0  0  0  0  0  0  0  0  0  0  0
   -5.7380   24.3130  -29.8270 C   0  0  0  0  0  0  0  0  0  0  0  0
   -6.6880   23.3720  -30.2240 C   0  0  0  0  0  0  0  0  0  0  0  0
   -6.3430   22.3620  -31.1290 C   0  0  0  0  0  0  0  0  0  0  0  0
   -7.2710   21.4400  -31.4870 N   0  0  0  0  0  0  0  0  0  0  0  0
   -7.0070   20.4210  -32.3500 C   0  0  0  0  0  0  0  0  0  0  0  0
   -8.0480   19.4600  -32.6590 N   0  0  0  0  0  0  0  0  0  0  0  0
   -9.4630   19.8520  -32.6770 C   0  0  0  0  0  0  0  0  0  0  0  0
   -7.6950   18.0830  -33.0450 C   0  0  0  0  0  0  0  0  0  0  0  0
   -6.6810   17.4880  -32.0600 C   0  0  0  0  0  0  0  0  0  0  0  0
   -5.4180   17.1400  -32.7500 N   0  0  0  0  0  0  0  0  0  0  0  0
   -5.5800   17.2360  -34.2090 C   0  0  0  0  0  0  0  0  0  0  0  0
   -4.9740   15.7830  -32.3900 C   0  0  0  0  0  0  0  0  0  0  0  0
   -5.7170   20.3240  -32.9060 C   0  0  0  0  0  0  0  0  0  0  0  0
   -4.7230   21.2550  -32.5640 C   0  0  0  0  0  0  0  0  0  0  0  0
   -3.3450   21.1070  -33.1570 C   0  0  0  0  0  0  0  0  0  0  0  0
   -5.0360   22.2960  -31.6590 C   0  0  0  0  0  0  0  0  0  0  0  0
   -4.0910   23.2650  -31.2630 C   0  0  0  0  0  0  0  0  0  0  0  0
   -1.2650   22.6500  -29.6980 C   0  0  0  0  0  0  0  0  0  0  0  0
   -0.8730   21.3630  -29.2920 C   0  0  0  0  0  0  0  0  0  0  0  0
   -0.2030   20.4480  -30.2830 C   0  0  0  0  0  0  0  0  0  0  0  0
   -0.7012   19.5666  -26.3791 H   0  0  0  0  0  0  0  0  0  0  0  0
   -1.4229   18.8376  -27.8537 H   0  0  0  0  0  0  0  0  0  0  0  0
    0.3003   19.3445  -27.8537 H   0  0  0  0  0  0  0  0  0  0  0  0
   -1.9339   21.5215  -26.0326 H   0  0  0  0  0  0  0  0  0  0  0  0
   -2.6041   23.7985  -26.7719 H   0  0  0  0  0  0  0  0  0  0  0  0
   -6.0192   25.1092  -29.1220 H   0  0  0  0  0  0  0  0  0  0  0  0
   -7.7115   23.4240  -29.8244 H   0  0  0  0  0  0  0  0  0  0  0  0
   -9.8286   19.9533  -31.6445 H   0  0  0  0  0  0  0  0  0  0  0  0
   -9.5704   20.8137  -33.2000 H   0  0  0  0  0  0  0  0  0  0  0  0
  -10.0500   19.0826  -33.2000 H   0  0  0  0  0  0  0  0  0  0  0  0
   -8.6041   17.4637  -33.0458 H   0  0  0  0  0  0  0  0  0  0  0  0
   -7.2451   18.1009  -34.0486 H   0  0  0  0  0  0  0  0  0  0  0  0
   -6.4696   18.2250  -31.2712 H   0  0  0  0  0  0  0  0  0  0  0  0
   -7.1083   16.5725  -31.6248 H   0  0  0  0  0  0  0  0  0  0  0  0
   -6.5052   17.7843  -34.4399 H   0  0  0  0  0  0  0  0  0  0  0  0
   -4.7201   17.7704  -34.6390 H   0  0  0  0  0  0  0  0  0  0  0  0
   -5.6358   16.2251  -34.6390 H   0  0  0  0  0  0  0  0  0  0  0  0
   -4.9423   15.6861  -31.2947 H   0  0  0  0  0  0  0  0  0  0  0  0
   -5.6776   15.0453  -32.8032 H   0  0  0  0  0  0  0  0  0  0  0  0
   -3.9704   15.6039  -32.8032 H   0  0  0  0  0  0  0  0  0  0  0  0
   -5.4864   19.5135  -33.6130 H   0  0  0  0  0  0  0  0  0  0  0  0
   -2.6042   21.0274  -32.3478 H   0  0  0  0  0  0  0  0  0  0  0  0
   -3.3085   20.1998  -33.7780 H   0  0  0  0  0  0  0  0  0  0  0  0
   -3.1167   21.9858  -33.7780 H   0  0  0  0  0  0  0  0  0  0  0  0
   -3.0798   23.2497  -31.6958 H   0  0  0  0  0  0  0  0  0  0  0  0
   -1.1024   22.9628  -30.7400 H   0  0  0  0  0  0  0  0  0  0  0  0
    0.3633   19.6746  -29.7433 H   0  0  0  0  0  0  0  0  0  0  0  0
   -0.9661   19.9699  -30.9147 H   0  0  0  0  0  0  0  0  0  0  0  0
    0.4832   21.0311  -30.9147 H   0  0  0  0  0  0  0  0  0  0  0  0
  1  2  1  0
  2  3  2  0
  3  4  1  0
  4  5  2  0
  5  6  1  0
  6  7  2  0
  6  8  1  0
  8  9  1  0
  9 10  2  0
 10 11  1  0
 11 12  2  0
 12 13  1  0
 13 14  2  0
 14 15  1  0
 15 16  1  0
 15 17  1  0
 17 18  1  0
 18 19  1  0
 19 20  1  0
 19 21  1  0
 14 22  1  0
 22 23  2  0
 23 24  1  0
 23 25  1  0
 25 26  2  0
  5 27  1  0
 27 28  2  0
 28 29  1  0
 28  2  1  0
 26  9  1  0
 25 12  1  0
  1 30  1  0
  1 31  1  0
  1 32  1  0
  3 33  1  0
  4 34  1  0
 10 35  1  0
 11 36  1  0
 16 37  1  0
 16 38  1  0
 16 39  1  0
 17 40  1  0
 17 41  1  0
 18 42  1  0
 18 43  1  0
 20 44  1  0
 20 45  1  0
 20 46  1  0
 21 47  1  0
 21 48  1  0
 21 49  1  0
 22 50  1  0
 24 51  1  0
 24 52  1  0
 24 53  1  0
 26 54  1  0
 27 55  1  0
 29 56  1  0
 29 57  1  0
 29 58  1  0
M  CHG  1   8  -1
M  END
>  <UniqueID>  (18) 
17

>  <SMILES>  (18) 
Cc1ccc(C(=O)[N-]c2ccc3nc(N(C)CCN(C)C)cc(C)c3c2)cc1C

>  <Energy>  (18) 
67.48183641973455

>  <Genealogy>  (18) 
Cc1ccc(C(=O)[N-]c2ccc3nc(N(C)CCN(C)C)cc(C)c3c2)cc1C (protonated)
Cc1ccc(C(=O)[N-]c2ccc3nc(N(C)CCN(C)C)cc(C)c3c2)cc1C (3D coordinates assigned)
Cc1ccc(C(=O)[N-]c2ccc3nc(N(C)CCN(C)C)cc(C)c3c2)cc1C (optimized conformer: 67.48183641973455 kcal/mol)

>  <smiles>  (18) 
Cc1ccc(C(=O)Nc2ccc3nc(N(C)CCN(C)C)cc(C)c3c2)cc1C

>  <score_type>  (18) 
oracle

>  <origin>  (18) 
adgpu

>  <m_score__min__energy>  (18) 
-11.09

>  <m_primary>  (18) 
energy

$$$$
18:0
     RDKit          3D

 67 71  0  0  1  0  0  0  0  0999 V2000
   -4.6180   25.0760  -31.1450 O   0  0  0  0  0  0  0  0  0  0  0  0
   -4.9580   23.8070  -30.4170 S   0  0  0  0  0  0  0  0  0  0  0  0
   -6.3450   23.9520  -29.8700 O   0  0  0  0  0  0  0  0  0  0  0  0
   -4.9200   22.4200  -31.4810 C   0  0  0  0  0  0  0  0  0  0  0  0
   -4.1910   22.4940  -32.6380 C   0  0  0  0  0  0  0  0  0  0  0  0
   -4.1410   21.4290  -33.4920 C   0  0  0  0  0  0  0  0  0  0  0  0
   -4.7910   20.2240  -33.2820 C   0  0  0  0  0  0  0  0  0  0  0  0
   -4.7070   19.0670  -34.0080 N   0  0  0  0  0  0  0  0  0  0  0  0
   -3.8640   18.1650  -33.9730 C   0  0  0  0  0  0  0  0  0  0  0  0
   -4.0510   17.1050  -34.8390 N   0  0  0  0  0  0  0  0  0  0  0  0
   -3.2450   16.0580  -34.8690 C   0  0  0  0  0  0  0  0  0  0  0  0
   -3.3940   14.9360  -35.7380 N   0  0  0  0  0  0  0  0  0  0  0  0
   -4.2030   13.8500  -35.2830 C   0  0  0  0  0  0  0  0  0  0  0  0
   -4.0260   12.6150  -36.1380 C   0  0  0  0  0  0  0  0  0  0  0  0
   -4.0470   12.9580  -37.6140 C   0  0  0  0  0  0  0  0  0  0  0  0
   -2.8430   13.8220  -37.8880 C   0  0  0  0  0  0  0  0  0  0  0  0
   -2.7150   15.0100  -37.0120 C   0  0  0  0  0  0  0  0  0  0  0  0
   -2.2050   16.0350  -34.0170 N   0  0  0  0  0  0  0  0  0  0  0  0
   -1.9820   17.0590  -33.1470 C   0  0  0  0  0  0  0  0  0  0  0  0
   -2.8030   18.1700  -33.0900 C   0  0  0  0  0  0  0  0  0  0  0  0
   -2.7190   19.3890  -32.2530 C   0  0  0  0  0  0  0  0  0  0  0  0
   -1.2460   19.9000  -32.4070 C   0  0  0  0  0  0  0  0  0  0  0  0
   -0.3080   19.0000  -31.8690 N   0  0  0  0  0  0  0  0  0  0  0  0
    0.2960   19.1370  -30.5960 C   0  0  0  0  0  0  0  0  0  0  0  0
   -0.6310   19.2490  -29.5820 N   0  0  0  0  0  0  0  0  0  0  0  0
   -0.2450   19.3910  -28.3190 C   0  0  0  0  0  0  0  0  0  0  0  0
    1.0830   19.4320  -27.9620 C   0  0  0  0  0  0  0  0  0  0  0  0
    1.9990   19.3200  -28.9840 C   0  0  0  0  0  0  0  0  0  0  0  0
    1.6180   19.1700  -30.3210 C   0  0  0  0  0  0  0  0  0  0  0  0
    2.6980   19.0500  -31.3120 C   0  0  0  0  0  0  0  0  0  0  0  0
    3.0330   17.7590  -31.6250 F   0  0  0  0  0  0  0  0  0  0  0  0
    2.4050   19.7840  -32.4560 F   0  0  0  0  0  0  0  0  0  0  0  0
    3.8400   19.6780  -30.7980 F   0  0  0  0  0  0  0  0  0  0  0  0
    0.2200   17.8070  -32.5790 C   0  0  0  0  0  0  0  0  0  0  0  0
   -0.8040   16.6920  -32.3190 C   0  0  0  0  0  0  0  0  0  0  0  0
   -5.5480   20.1610  -32.0670 C   0  0  0  0  0  0  0  0  0  0  0  0
   -5.5850   21.2460  -31.2220 C   0  0  0  0  0  0  0  0  0  0  0  0
   -3.8500   23.5720  -29.0370 C   0  0  0  0  0  0  0  0  0  0  0  0
   -2.8590   24.5330  -29.0270 F   0  0  0  0  0  0  0  0  0  0  0  0
   -3.2460   22.3380  -29.1000 F   0  0  0  0  0  0  0  0  0  0  0  0
   -4.5290   23.6530  -27.8430 F   0  0  0  0  0  0  0  0  0  0  0  0
   -3.6427   23.4161  -32.8810 H   0  0  0  0  0  0  0  0  0  0  0  0
   -3.5435   21.5357  -34.4094 H   0  0  0  0  0  0  0  0  0  0  0  0
   -4.8630   17.1080  -35.5110 H   0  0  0  0  0  0  0  0  0  0  0  0
   -3.9228   13.6080  -34.2472 H   0  0  0  0  0  0  0  0  0  0  0  0
   -5.2563   14.1603  -35.3480 H   0  0  0  0  0  0  0  0  0  0  0  0
   -3.0620   12.1452  -35.8932 H   0  0  0  0  0  0  0  0  0  0  0  0
   -4.8588   11.9271  -35.9301 H   0  0  0  0  0  0  0  0  0  0  0  0
   -3.9956   12.0384  -38.2154 H   0  0  0  0  0  0  0  0  0  0  0  0
   -4.9749   13.4860  -37.8790 H   0  0  0  0  0  0  0  0  0  0  0  0
   -1.9424   13.2038  -37.7590 H   0  0  0  0  0  0  0  0  0  0  0  0
   -2.9652   14.2055  -38.9117 H   0  0  0  0  0  0  0  0  0  0  0  0
   -1.6446   15.1678  -36.8138 H   0  0  0  0  0  0  0  0  0  0  0  0
   -3.1989   15.8334  -37.5577 H   0  0  0  0  0  0  0  0  0  0  0  0
   -3.4293   20.1498  -32.6090 H   0  0  0  0  0  0  0  0  0  0  0  0
   -2.9720   19.1818  -31.2027 H   0  0  0  0  0  0  0  0  0  0  0  0
   -1.0299   20.0383  -33.4767 H   0  0  0  0  0  0  0  0  0  0  0  0
   -1.1593   20.8464  -31.8531 H   0  0  0  0  0  0  0  0  0  0  0  0
   -1.0108   19.4785  -27.5342 H   0  0  0  0  0  0  0  0  0  0  0  0
    1.3969   19.5483  -26.9142 H   0  0  0  0  0  0  0  0  0  0  0  0
    3.0710   19.3497  -28.7394 H   0  0  0  0  0  0  0  0  0  0  0  0
    0.3056   18.0073  -33.6572 H   0  0  0  0  0  0  0  0  0  0  0  0
    1.2243   17.5311  -32.2249 H   0  0  0  0  0  0  0  0  0  0  0  0
   -0.4015   15.7162  -32.6285 H   0  0  0  0  0  0  0  0  0  0  0  0
   -1.0577   16.6012  -31.2525 H   0  0  0  0  0  0  0  0  0  0  0  0
   -6.0997   19.2448  -31.8098 H   0  0  0  0  0  0  0  0  0  0  0  0
   -6.1742   21.1701  -30.2962 H   0  0  0  0  0  0  0  0  0  0  0  0
  1  2  2  0
  2  3  2  0
  2  4  1  0
  4  5  2  0
  5  6  1  0
  6  7  2  0
  7  8  1  0
  8  9  2  0
  9 10  1  0
 10 11  1  0
 11 12  1  0
 12 13  1  0
 13 14  1  0
 14 15  1  0
 15 16  1  0
 16 17  1  0
 11 18  2  0
 18 19  1  0
 19 20  2  0
 20 21  1  0
 21 22  1  0
 22 23  1  0
 23 24  1  0
 24 25  2  0
 25 26  1  0
 26 27  2  0
 27 28  1  0
 28 29  2  0
 29 30  1  0
 30 31  1  0
 30 32  1  0
 30 33  1  0
 23 34  1  0
 34 35  1  0
  7 36  1  0
 36 37  2  0
  2 38  1  0
 38 39  1  0
 38 40  1  0
 38 41  1  0
 37  4  1  0
 20  9  1  0
 29 24  1  0
 17 12  1  0
 35 19  1  0
  5 42  1  0
  6 43  1  0
 10 44  1  0
 13 45  1  0
 13 46  1  0
 14 47  1  0
 14 48  1  0
 15 49  1  0
 15 50  1  0
 16 51  1  0
 16 52  1  0
 17 53  1  0
 17 54  1  0
 21 55  1  0
 21 56  1  0
 22 57  1  0
 22 58  1  0
 26 59  1  0
 27 60  1  0
 28 61  1  0
 34 62  1  0
 34 63  1  0
 35 64  1  0
 35 65  1  0
 36 66  1  0
 37 67  1  0
M  END
>  <smiles>  (19) 
O=S(=O)(c1ccc(N=c2[nH]c(N3CCCCC3)nc3c2CCN(c2ncccc2C(F)(F)F)CC3)cc1)C(F)(F)F

>  <score_type>  (19) 
oracle

>  <origin>  (19) 
adgpu

>  <m_score__min__energy>  (19) 
-7.1600000000000001

>  <m_primary>  (19) 
energy

$$$$
19:0
     RDKit          3D

 40 41  0  0  0  0  0  0  0  0999 V2000
   -6.0490   19.0290  -33.8940 C   0  0  0  0  0  0  0  0  0  0  0  0
   -6.9470   19.9850  -33.3380 O   0  0  0  0  0  0  0  0  0  0  0  0
   -6.5600   21.1070  -32.5850 C   0  0  0  0  0  0  0  0  0  0  0  0
   -5.2100   21.4980  -32.4920 C   0  0  0  0  0  0  0  0  0  0  0  0
   -4.8310   22.6230  -31.7390 C   0  0  0  0  0  0  0  0  0  0  0  0
   -3.4900   23.0280  -31.6350 O   0  0  0  0  0  0  0  0  0  0  0  0
   -2.4080   22.1750  -31.2780 C   0  0  0  0  0  0  0  0  0  0  0  0
   -5.8170   23.3680  -31.0740 C   0  0  0  0  0  0  0  0  0  0  0  0
   -5.3780   24.8150  -30.1590 S   0  0  0  0  0  0  0  0  0  0  0  0
   -4.2500   25.5500  -30.8280 O   0  0  0  0  0  0  0  0  0  0  0  0
   -6.5740   25.7200  -30.0870 O   0  0  0  0  0  0  0  0  0  0  0  0
   -4.8890   24.3790  -28.5510 N   0  0  0  0  0  0  0  0  0  0  0  0
   -3.7010   23.6190  -28.2670 C   0  0  0  0  0  0  0  0  0  0  0  0
   -2.4500   24.2460  -28.3480 C   0  0  0  0  0  0  0  0  0  0  0  0
   -1.2820   23.5390  -28.0550 C   0  0  0  0  0  0  0  0  0  0  0  0
   -1.3430   22.1880  -27.6780 C   0  0  0  0  0  0  0  0  0  0  0  0
   -0.0770   21.4410  -27.3590 C   0  0  0  0  0  0  0  0  0  0  0  0
   -2.5960   21.5490  -27.6090 C   0  0  0  0  0  0  0  0  0  0  0  0
   -2.7410   19.8550  -27.1510 Cl  0  0  0  0  0  0  0  0  0  0  0  0
   -3.7630   22.2610  -27.9090 C   0  0  0  0  0  0  0  0  0  0  0  0
   -7.1590   22.9810  -31.1570 C   0  0  0  0  0  0  0  0  0  0  0  0
   -7.5440   21.8600  -31.9060 C   0  0  0  0  0  0  0  0  0  0  0  0
   -8.9830   21.5130  -31.9560 C   0  0  0  0  0  0  0  0  0  0  0  0
   -9.8590   22.3570  -32.2820 O   0  0  0  0  0  0  0  0  0  0  0  0
   -5.5408   18.4879  -33.0823 H   0  0  0  0  0  0  0  0  0  0  0  0
   -6.6111   18.3155  -34.5145 H   0  0  0  0  0  0  0  0  0  0  0  0
   -5.3018   19.5454  -34.5145 H   0  0  0  0  0  0  0  0  0  0  0  0
   -4.4399   20.9137  -33.0170 H   0  0  0  0  0  0  0  0  0  0  0  0
   -2.3335   22.1163  -30.1821 H   0  0  0  0  0  0  0  0  0  0  0  0
   -2.5832   21.1694  -31.6880 H   0  0  0  0  0  0  0  0  0  0  0  0
   -1.4711   22.5800  -31.6880 H   0  0  0  0  0  0  0  0  0  0  0  0
   -5.5780   24.5490  -27.7840 H   0  0  0  0  0  0  0  0  0  0  0  0
   -2.3878   25.3034  -28.6447 H   0  0  0  0  0  0  0  0  0  0  0  0
   -0.3071   24.0442  -28.1200 H   0  0  0  0  0  0  0  0  0  0  0  0
    0.0422   21.3707  -26.2677 H   0  0  0  0  0  0  0  0  0  0  0  0
   -0.1301   20.4295  -27.7880 H   0  0  0  0  0  0  0  0  0  0  0  0
    0.7827   21.9765  -27.7880 H   0  0  0  0  0  0  0  0  0  0  0  0
   -4.7378   21.7533  -27.8642 H   0  0  0  0  0  0  0  0  0  0  0  0
   -7.9245   23.5658  -30.6260 H   0  0  0  0  0  0  0  0  0  0  0  0
   -9.2953   20.4895  -31.7013 H   0  0  0  0  0  0  0  0  0  0  0  0
  1  2  1  0
  2  3  1  0
  3  4  2  0
  4  5  1  0
  5  6  1  0
  6  7  1  0
  5  8  2  0
  8  9  1  0
  9 10  2  0
  9 11  2  0
  9 12  1  0
 12 13  1  0
 13 14  2  0
 14 15  1  0
 15 16  2  0
 16 17  1  0
 16 18  1  0
 18 19  1  0
 18 20  2  0
  8 21  1  0
 21 22  2  0
 22 23  1  0
 23 24  2  0
 22  3  1  0
 20 13  1  0
  1 25  1  0
  1 26  1  0
  1 27  1  0
  4 28  1  0
  7 29  1  0
  7 30  1  0
  7 31  1  0
 12 32  1  0
 14 33  1  0
 15 34  1  0
 17 35  1  0
 17 36  1  0
 17 37  1  0
 20 38  1  0
 21 39  1  0
 23 40  1  0
M  END
>  <UniqueID>  (20) 
18

>  <SMILES>  (20) 
COc1cc(OC)c(S(=O)(=O)Nc2ccc(C)c(Cl)c2)cc1C=O

>  <Energy>  (20) 
43.40703553085182

>  <Genealogy>  (20) 
COc1cc(OC)c(S(=O)(=O)Nc2ccc(C)c(Cl)c2)cc1C=O (3D coordinates assigned)
COc1cc(OC)c(S(=O)(=O)Nc2ccc(C)c(Cl)c2)cc1C=O (optimized conformer: 43.40703553085182 kcal/mol)

>  <smiles>  (20) 
COc1cc(OC)c(S(=O)(=O)Nc2ccc(C)c(Cl)c2)cc1C=O

>  <score_type>  (20) 
oracle

>  <origin>  (20) 
adgpu

>  <m_score__min__energy>  (20) 
-8.4600000000000009

>  <m_primary>  (20) 
energy

$$$$
20:0
     RDKit          3D

 53 56  0  0  0  0  0  0  0  0999 V2000
   -2.2290   25.4050  -28.5710 O   0  0  0  0  0  0  0  0  0  0  0  0
   -2.5920   24.5540  -29.4270 C   0  0  0  0  0  0  0  0  0  0  0  0
   -3.5110   24.9470  -30.4570 N   0  0  0  0  0  0  0  0  0  0  0  0
   -4.6730   24.1970  -30.8460 C   0  0  0  0  0  0  0  0  0  0  0  0
   -5.9460   24.6870  -30.5340 C   0  0  0  0  0  0  0  0  0  0  0  0
   -7.0870   23.9400  -30.8470 C   0  0  0  0  0  0  0  0  0  0  0  0
   -6.9620   22.7010  -31.4930 C   0  0  0  0  0  0  0  0  0  0  0  0
   -8.3800   21.7120  -31.8110 S   0  0  0  0  0  0  0  0  0  0  0  0
   -9.5230   22.5650  -32.2810 O   0  0  0  0  0  0  0  0  0  0  0  0
   -8.7540   21.0090  -30.5380 O   0  0  0  0  0  0  0  0  0  0  0  0
   -7.9830   20.5640  -33.0500 N   0  0  0  0  0  0  0  0  0  0  0  0
   -7.0920   19.4510  -32.9190 C   0  0  0  0  0  0  0  0  0  0  0  0
   -6.0470   19.2130  -33.8290 C   0  0  0  0  0  0  0  0  0  0  0  0
   -5.2360   18.0820  -33.6860 C   0  0  0  0  0  0  0  0  0  0  0  0
   -5.4490   17.1950  -32.6250 C   0  0  0  0  0  0  0  0  0  0  0  0
   -6.4640   17.4430  -31.7010 C   0  0  0  0  0  0  0  0  0  0  0  0
   -7.2810   18.5680  -31.8460 C   0  0  0  0  0  0  0  0  0  0  0  0
   -5.6940   22.2320  -31.8470 C   0  0  0  0  0  0  0  0  0  0  0  0
   -4.5560   22.9810  -31.5410 C   0  0  0  0  0  0  0  0  0  0  0  0
   -2.0890   23.1650  -29.3330 C   0  0  0  0  0  0  0  0  0  0  0  0
   -0.9850   22.7610  -30.1030 C   0  0  0  0  0  0  0  0  0  0  0  0
   -0.4520   21.4790  -29.9560 C   0  0  0  0  0  0  0  0  0  0  0  0
   -1.0100   20.5850  -29.0300 C   0  0  0  0  0  0  0  0  0  0  0  0
   -0.2700   19.0140  -28.7430 S   0  0  0  0  0  0  0  0  0  0  0  0
    1.0780   19.2200  -28.1120 O   0  0  0  0  0  0  0  0  0  0  0  0
   -1.1120   18.1810  -27.8200 O   0  0  0  0  0  0  0  0  0  0  0  0
   -0.0670   18.1790  -30.2480 N   0  0  0  0  0  0  0  0  0  0  0  0
   -0.2810   18.7380  -31.5510 C   0  0  0  0  0  0  0  0  0  0  0  0
   -1.5990   18.8920  -32.0070 C   0  0  0  0  0  0  0  0  0  0  0  0
   -1.8540   19.4570  -33.2610 C   0  0  0  0  0  0  0  0  0  0  0  0
   -0.7920   19.8560  -34.0770 C   0  0  0  0  0  0  0  0  0  0  0  0
    0.5240   19.6850  -33.6420 C   0  0  0  0  0  0  0  0  0  0  0  0
    0.7830   19.1420  -32.3780 C   0  0  0  0  0  0  0  0  0  0  0  0
   -2.1360   20.9700  -28.2900 C   0  0  0  0  0  0  0  0  0  0  0  0
   -2.6810   22.2510  -28.4480 C   0  0  0  0  0  0  0  0  0  0  0  0
   -6.0503   25.6644  -30.0402 H   0  0  0  0  0  0  0  0  0  0  0  0
   -8.0838   24.3250  -30.5860 H   0  0  0  0  0  0  0  0  0  0  0  0
   -5.8668   19.9171  -34.6547 H   0  0  0  0  0  0  0  0  0  0  0  0
   -4.4295   17.8897  -34.4089 H   0  0  0  0  0  0  0  0  0  0  0  0
   -4.8157   16.3018  -32.5196 H   0  0  0  0  0  0  0  0  0  0  0  0
   -6.6215   16.7536  -30.8585 H   0  0  0  0  0  0  0  0  0  0  0  0
   -8.0780   18.7621  -31.1131 H   0  0  0  0  0  0  0  0  0  0  0  0
   -5.5921   21.2690  -32.3688 H   0  0  0  0  0  0  0  0  0  0  0  0
   -3.5633   22.6177  -31.8453 H   0  0  0  0  0  0  0  0  0  0  0  0
   -0.5380   23.4592  -30.8260 H   0  0  0  0  0  0  0  0  0  0  0  0
    0.4079   21.1690  -30.5680 H   0  0  0  0  0  0  0  0  0  0  0  0
   -2.4375   18.5662  -31.3740 H   0  0  0  0  0  0  0  0  0  0  0  0
   -2.8907   19.5873  -33.6049 H   0  0  0  0  0  0  0  0  0  0  0  0
   -0.9925   20.3044  -35.0612 H   0  0  0  0  0  0  0  0  0  0  0  0
    1.3596   19.9779  -34.2946 H   0  0  0  0  0  0  0  0  0  0  0  0
    1.8208   19.0309  -32.0306 H   0  0  0  0  0  0  0  0  0  0  0  0
   -2.5939   20.2635  -27.5821 H   0  0  0  0  0  0  0  0  0  0  0  0
   -3.5752   22.5410  -27.8768 H   0  0  0  0  0  0  0  0  0  0  0  0
  1  2  2  0
  2  3  1  0
  3  4  1  0
  4  5  2  0
  5  6  1  0
  6  7  2  0
  7  8  1  0
  8  9  2  0
  8 10  2  0
  8 11  1  0
 11 12  1  0
 12 13  2  0
 13 14  1  0
 14 15  2  0
 15 16  1  0
 16 17  2  0
  7 18  1  0
 18 19  2  0
  2 20  1  0
 20 21  2  0
 21 22  1  0
 22 23  2  0
 23 24  1  0
 24 25  2  0
 24 26  2  0
 24 27  1  0
 27 28  1  0
 28 29  2  0
 29 30  1  0
 30 31  2  0
 31 32  1  0
 32 33  2  0
 23 34  1  0
 34 35  2  0
 19  4  1  0
 35 20  1  0
 17 12  1  0
 33 28  1  0
  5 36  1  0
  6 37  1  0
 13 38  1  0
 14 39  1  0
 15 40  1  0
 16 41  1  0
 17 42  1  0
 18 43  1  0
 19 44  1  0
 21 45  1  0
 22 46  1  0
 29 47  1  0
 30 48  1  0
 31 49  1  0
 32 50  1  0
 33 51  1  0
 34 52  1  0
 35 53  1  0
M  CHG  3   3  -1  11  -1  27  -1
M  END
>  <UniqueID>  (21) 
19

>  <SMILES>  (21) 
O=C([N-]c1ccc(S(=O)(=O)[N-]c2ccccc2)cc1)c1ccc(S(=O)(=O)[N-]c2ccccc2)cc1

>  <Energy>  (21) 
69.86483834113784

>  <Genealogy>  (21) 
O=C([N-]c1ccc(S(=O)(=O)[N-]c2ccccc2)cc1)c1ccc(S(=O)(=O)[N-]c2ccccc2)cc1 (protonated)
O=C([N-]c1ccc(S(=O)(=O)[N-]c2ccccc2)cc1)c1ccc(S(=O)(=O)[N-]c2ccccc2)cc1 (3D coordinates assigned)
O=C([N-]c1ccc(S(=O)(=O)[N-]c2ccccc2)cc1)c1ccc(S(=O)(=O)[N-]c2ccccc2)cc1 (optimized conformer: 69.86483834113784 kcal/mol)

>  <smiles>  (21) 
O=C(Nc1ccc(S(=O)(=O)Nc2ccccc2)cc1)c1ccc(S(=O)(=O)Nc2ccccc2)cc1

>  <score_type>  (21) 
oracle

>  <origin>  (21) 
adgpu

>  <m_score__min__energy>  (21) 
-12.380000000000001

>  <m_primary>  (21) 
energy

$$$$
21:0
     RDKit          3D

 42 43  0  0  0  0  0  0  0  0999 V2000
   -3.7210   18.5600  -25.6220 C   0  0  0  0  0  0  0  0  0  0  0  0
   -3.1340   18.9560  -26.9770 C   0  0  0  0  0  0  0  0  0  0  0  0
   -1.6140   18.7610  -27.0400 C   0  0  0  0  0  0  0  0  0  0  0  0
   -0.9200   19.8740  -26.3850 N   0  0  0  0  0  0  0  0  0  0  0  0
   -0.1330   20.8620  -27.5820 S   0  0  0  0  0  0  0  0  0  0  0  0
    0.5600   22.0110  -26.9040 O   0  0  0  0  0  0  0  0  0  0  0  0
    0.8890   20.0370  -28.3120 O   0  0  0  0  0  0  0  0  0  0  0  0
   -1.3190   21.4580  -28.7400 C   0  0  0  0  0  0  0  0  0  0  0  0
   -1.9290   20.5880  -29.6470 C   0  0  0  0  0  0  0  0  0  0  0  0
   -2.8540   21.0730  -30.5700 C   0  0  0  0  0  0  0  0  0  0  0  0
   -3.1830   22.4400  -30.6090 C   0  0  0  0  0  0  0  0  0  0  0  0
   -4.1860   22.9030  -31.5310 N   0  0  0  0  0  0  0  0  0  0  0  0
   -4.7600   22.0530  -32.5740 C   0  0  0  0  0  0  0  0  0  0  0  0
   -6.2350   21.8680  -32.3410 C   0  0  0  0  0  0  0  0  0  0  0  0
   -6.8330   20.6180  -32.5530 C   0  0  0  0  0  0  0  0  0  0  0  0
   -8.1930   20.4410  -32.2900 C   0  0  0  0  0  0  0  0  0  0  0  0
   -8.9420   21.5170  -31.8100 C   0  0  0  0  0  0  0  0  0  0  0  0
   -8.3480   22.7210  -31.6000 N   0  0  0  0  0  0  0  0  0  0  0  0
   -7.0250   22.9190  -31.8490 C   0  0  0  0  0  0  0  0  0  0  0  0
   -2.5580   23.3310  -29.6980 C   0  0  0  0  0  0  0  0  0  0  0  0
   -2.7940   24.7950  -29.7250 C   0  0  0  0  0  0  0  0  0  0  0  0
   -3.6870   25.2940  -30.4590 O   0  0  0  0  0  0  0  0  0  0  0  0
   -1.9930   25.6460  -28.9710 O   0  0  0  0  0  0  0  0  0  0  0  0
   -1.6390   22.8190  -28.7620 C   0  0  0  0  0  0  0  0  0  0  0  0
   -3.0998   18.9791  -24.8167 H   0  0  0  0  0  0  0  0  0  0  0  0
   -4.7451   18.9526  -25.5372 H   0  0  0  0  0  0  0  0  0  0  0  0
   -3.7405   17.4634  -25.5372 H   0  0  0  0  0  0  0  0  0  0  0  0
   -3.6013   18.3379  -27.7578 H   0  0  0  0  0  0  0  0  0  0  0  0
   -3.3397   20.0257  -27.1298 H   0  0  0  0  0  0  0  0  0  0  0  0
   -1.3493   17.8218  -26.5322 H   0  0  0  0  0  0  0  0  0  0  0  0
   -1.3060   18.7249  -28.0954 H   0  0  0  0  0  0  0  0  0  0  0  0
   -1.6360   20.4860  -25.9290 H   0  0  0  0  0  0  0  0  0  0  0  0
   -1.6786   19.5170  -29.6327 H   0  0  0  0  0  0  0  0  0  0  0  0
   -3.3324   20.3785  -31.2763 H   0  0  0  0  0  0  0  0  0  0  0  0
   -4.4800   23.9050  -31.5010 H   0  0  0  0  0  0  0  0  0  0  0  0
   -4.6037   22.5258  -33.5548 H   0  0  0  0  0  0  0  0  0  0  0  0
   -4.2666   21.0702  -32.5477 H   0  0  0  0  0  0  0  0  0  0  0  0
   -6.2310   19.7765  -32.9265 H   0  0  0  0  0  0  0  0  0  0  0  0
   -8.6692   19.4640  -32.4593 H   0  0  0  0  0  0  0  0  0  0  0  0
  -10.0146   21.3900  -31.6015 H   0  0  0  0  0  0  0  0  0  0  0  0
   -6.5734   23.9049  -31.6643 H   0  0  0  0  0  0  0  0  0  0  0  0
   -1.1663   23.4991  -28.0381 H   0  0  0  0  0  0  0  0  0  0  0  0
  1  2  1  0
  2  3  1  0
  3  4  1  0
  4  5  1  0
  5  6  2  0
  5  7  2  0
  5  8  1  0
  8  9  2  0
  9 10  1  0
 10 11  2  0
 11 12  1  0
 12 13  1  0
 13 14  1  0
 14 15  2  0
 15 16  1  0
 16 17  2  0
 17 18  1  0
 18 19  2  0
 11 20  1  0
 20 21  1  0
 21 22  2  0
 21 23  1  0
 20 24  2  0
 24  8  1  0
 19 14  1  0
  1 25  1  0
  1 26  1  0
  1 27  1  0
  2 28  1  0
  2 29  1  0
  3 30  1  0
  3 31  1  0
  4 32  1  0
  9 33  1  0
 10 34  1  0
 12 35  1  0
 13 36  1  0
 13 37  1  0
 15 38  1  0
 16 39  1  0
 17 40  1  0
 19 41  1  0
 24 42  1  0
M  CHG  1  23  -1
M  END
>  <UniqueID>  (22) 
20

>  <SMILES>  (22) 
CCCNS(=O)(=O)c1ccc(NCc2cccnc2)c(C(=O)[O-])c1

>  <Energy>  (22) 
40.87270095985149

>  <Genealogy>  (22) 
CCCNS(=O)(=O)c1ccc(NCc2cccnc2)c(C(=O)[O-])c1 (protonated)
CCCNS(=O)(=O)c1ccc(NCc2cccnc2)c(C(=O)[O-])c1 (3D coordinates assigned)
CCCNS(=O)(=O)c1ccc(NCc2cccnc2)c(C(=O)[O-])c1 (optimized conformer: 40.87270095985149 kcal/mol)

>  <smiles>  (22) 
CCCNS(=O)(=O)c1ccc(NCc2cccnc2)c(C(=O)O)c1

>  <score_type>  (22) 
oracle

>  <origin>  (22) 
adgpu

>  <m_score__min__energy>  (22) 
-9.8800000000000008

>  <m_primary>  (22) 
energy

$$$$
22:0
     RDKit          3D

 32 34  0  0  0  0  0  0  0  0999 V2000
   -6.5351   17.5492  -33.7012 H   0  0  0  0  0  0  0  0  0  0  0  0
   -7.2510   18.1330  -33.1040 C   0  0  0  0  0  0  0  0  0  0  0  0
   -8.2080   17.4960  -32.3790 N   0  0  0  0  0  0  0  0  0  0  0  0
   -9.1130   18.1840  -31.6340 C   0  0  0  0  0  0  0  0  0  0  0  0
   -9.8786   17.6411  -31.0603 H   0  0  0  0  0  0  0  0  0  0  0  0
   -9.0720   19.5800  -31.5960 C   0  0  0  0  0  0  0  0  0  0  0  0
   -9.8097   20.1400  -31.0026 H   0  0  0  0  0  0  0  0  0  0  0  0
   -8.0820   20.2630  -32.3210 C   0  0  0  0  0  0  0  0  0  0  0  0
   -8.0010   21.6630  -32.3360 O   0  0  0  0  0  0  0  0  0  0  0  0
   -6.9040   22.4200  -31.8970 C   0  0  0  0  0  0  0  0  0  0  0  0
   -5.6170   22.0140  -32.2640 C   0  0  0  0  0  0  0  0  0  0  0  0
   -5.4851   21.1218  -32.8937 H   0  0  0  0  0  0  0  0  0  0  0  0
   -4.4970   22.7330  -31.8370 C   0  0  0  0  0  0  0  0  0  0  0  0
   -3.4891   22.4011  -32.1268 H   0  0  0  0  0  0  0  0  0  0  0  0
   -4.6550   23.8810  -31.0370 C   0  0  0  0  0  0  0  0  0  0  0  0
   -3.5290   24.6280  -30.5450 N   0  0  0  0  0  0  0  0  0  0  0  0
   -2.9120   24.4590  -29.4090 C   0  0  0  0  0  0  0  0  0  0  0  0
   -3.2460   23.4360  -28.5720 N   0  0  0  0  0  0  0  0  0  0  0  0
   -2.5900   23.2420  -27.4000 C   0  0  0  0  0  0  0  0  0  0  0  0
   -2.8797   22.4138  -26.7365 H   0  0  0  0  0  0  0  0  0  0  0  0
   -1.5480   24.0950  -27.0390 C   0  0  0  0  0  0  0  0  0  0  0  0
   -0.6840   23.8650  -25.5310 Cl  0  0  0  0  0  0  0  0  0  0  0  0
   -1.2080   25.1310  -27.9080 C   0  0  0  0  0  0  0  0  0  0  0  0
   -0.3886   25.8180  -27.6498 H   0  0  0  0  0  0  0  0  0  0  0  0
   -1.8880   25.2930  -29.0740 N   0  0  0  0  0  0  0  0  0  0  0  0
   -1.6160   26.0720  -29.7150 H   0  0  0  0  0  0  0  0  0  0  0  0
   -5.9400   24.2560  -30.6280 C   0  0  0  0  0  0  0  0  0  0  0  0
   -6.0701   25.1232  -29.9639 H   0  0  0  0  0  0  0  0  0  0  0  0
   -7.0590   23.5370  -31.0570 C   0  0  0  0  0  0  0  0  0  0  0  0
   -8.0648   23.8460  -30.7363 H   0  0  0  0  0  0  0  0  0  0  0  0
   -7.1750   19.5280  -33.0920 C   0  0  0  0  0  0  0  0  0  0  0  0
   -6.4066   20.0454  -33.6852 H   0  0  0  0  0  0  0  0  0  0  0  0
  1  2  1  0
  2  3  2  0
  3  4  1  0
  4  5  1  0
  4  6  2  0
  6  7  1  0
  6  8  1  0
  8  9  1  0
  9 10  1  0
 10 11  2  0
 11 12  1  0
 11 13  1  0
 13 14  1  0
 13 15  2  0
 15 16  1  0
 16 17  2  0
 17 18  1  0
 18 19  2  0
 19 20  1  0
 19 21  1  0
 21 22  1  0
 21 23  2  0
 23 24  1  0
 23 25  1  0
 25 26  1  0
 15 27  1  0
 27 28  1  0
 27 29  2  0
 29 30  1  0
  8 31  2  0
 31 32  1  0
 31  2  1  0
 29 10  1  0
 25 17  1  0
M  END
>  <UniqueID>  (23) 
21

>  <SMILES>  (23) 
Clc1cn/c(=N\c2ccc(Oc3ccncc3)cc2)[nH]c1

>  <Energy>  (23) 
49.24617797398369

>  <Genealogy>  (23) 
Clc1cn/c(=N\c2ccc(Oc3ccncc3)cc2)[nH]c1 (cis-trans isomerization)
Clc1cn/c(=N\c2ccc(Oc3ccncc3)cc2)[nH]c1 (3D coordinates assigned)
Clc1cn/c(=N\c2ccc(Oc3ccncc3)cc2)[nH]c1 (optimized conformer: 49.24617797398369 kcal/mol)

>  <smiles>  (23) 
Clc1cnc(=Nc2ccc(Oc3ccncc3)cc2)[nH]c1

>  <score_type>  (23) 
oracle

>  <origin>  (23) 
adgpu

>  <m_score__min__energy>  (23) 
-8.0399999999999991

>  <m_primary>  (23) 
energy

$$$$
23:0
     RDKit          3D

 37 39  0  0  0  0  0  0  0  0999 V2000
   -5.7440   24.8840  -29.0300 O   0  0  0  0  0  0  0  0  0  0  0  0
   -4.9720   24.7880  -30.3150 S   0  0  0  0  0  0  0  0  0  0  0  0
   -5.3890   25.9100  -31.2240 O   0  0  0  0  0  0  0  0  0  0  0  0
   -3.2780   24.9380  -29.9710 N   0  0  0  0  0  0  0  0  0  0  0  0
   -2.4980   23.9970  -29.2210 C   0  0  0  0  0  0  0  0  0  0  0  0
   -1.5350   23.1710  -29.8330 C   0  0  0  0  0  0  0  0  0  0  0  0
   -0.8010   22.2600  -29.0700 C   0  0  0  0  0  0  0  0  0  0  0  0
   -1.0140   22.1650  -27.6940 C   0  0  0  0  0  0  0  0  0  0  0  0
   -1.9630   22.9820  -27.0760 C   0  0  0  0  0  0  0  0  0  0  0  0
   -2.7070   23.8980  -27.8350 C   0  0  0  0  0  0  0  0  0  0  0  0
   -3.6560   24.7120  -27.2190 O   0  0  0  0  0  0  0  0  0  0  0  0
   -5.3000   23.2280  -31.0630 C   0  0  0  0  0  0  0  0  0  0  0  0
   -6.5870   22.6810  -31.0050 C   0  0  0  0  0  0  0  0  0  0  0  0
   -6.8500   21.4370  -31.5840 C   0  0  0  0  0  0  0  0  0  0  0  0
   -5.8300   20.7220  -32.2360 C   0  0  0  0  0  0  0  0  0  0  0  0
   -6.1070   19.3990  -32.8500 C   0  0  0  0  0  0  0  0  0  0  0  0
   -6.9470   18.4710  -32.2040 C   0  0  0  0  0  0  0  0  0  0  0  0
   -7.2040   17.2250  -32.7840 C   0  0  0  0  0  0  0  0  0  0  0  0
   -6.6290   16.8910  -34.0120 C   0  0  0  0  0  0  0  0  0  0  0  0
   -5.7950   17.8030  -34.6630 C   0  0  0  0  0  0  0  0  0  0  0  0
   -5.5330   19.0490  -34.0860 C   0  0  0  0  0  0  0  0  0  0  0  0
   -4.5400   21.2820  -32.2960 C   0  0  0  0  0  0  0  0  0  0  0  0
   -4.2800   22.5260  -31.7140 C   0  0  0  0  0  0  0  0  0  0  0  0
   -1.3603   23.2438  -30.9166 H   0  0  0  0  0  0  0  0  0  0  0  0
   -0.0530   21.6156  -29.5550 H   0  0  0  0  0  0  0  0  0  0  0  0
   -0.4342   21.4464  -27.0961 H   0  0  0  0  0  0  0  0  0  0  0  0
   -2.1277   22.9072  -25.9910 H   0  0  0  0  0  0  0  0  0  0  0  0
   -4.2470   25.3360  -27.7550 H   0  0  0  0  0  0  0  0  0  0  0  0
   -7.3946   23.2327  -30.5016 H   0  0  0  0  0  0  0  0  0  0  0  0
   -7.8637   21.0134  -31.5293 H   0  0  0  0  0  0  0  0  0  0  0  0
   -7.4038   18.7282  -31.2369 H   0  0  0  0  0  0  0  0  0  0  0  0
   -7.8606   16.5062  -32.2719 H   0  0  0  0  0  0  0  0  0  0  0  0
   -6.8328   15.9102  -34.4664 H   0  0  0  0  0  0  0  0  0  0  0  0
   -5.3437   17.5403  -35.6312 H   0  0  0  0  0  0  0  0  0  0  0  0
   -4.8729   19.7615  -34.6023 H   0  0  0  0  0  0  0  0  0  0  0  0
   -3.7310   20.7370  -32.8044 H   0  0  0  0  0  0  0  0  0  0  0  0
   -3.2686   22.9550  -31.7681 H   0  0  0  0  0  0  0  0  0  0  0  0
  1  2  2  0
  2  3  2  0
  2  4  1  0
  4  5  1  0
  5  6  2  0
  6  7  1  0
  7  8  2  0
  8  9  1  0
  9 10  2  0
 10 11  1  0
  2 12  1  0
 12 13  2  0
 13 14  1  0
 14 15  2  0
 15 16  1  0
 16 17  2  0
 17 18  1  0
 18 19  2  0
 19 20  1  0
 20 21  2  0
 15 22  1  0
 22 23  2  0
 10  5  1  0
 23 12  1  0
 21 16  1  0
  6 24  1  0
  7 25  1  0
  8 26  1  0
  9 27  1  0
 11 28  1  0
 13 29  1  0
 14 30  1  0
 17 31  1  0
 18 32  1  0
 19 33  1  0
 20 34  1  0
 21 35  1  0
 22 36  1  0
 23 37  1  0
M  CHG  1   4  -1
M  END
>  <UniqueID>  (24) 
22

>  <SMILES>  (24) 
O=S(=O)([N-]c1ccccc1O)c1ccc(-c2ccccc2)cc1

>  <Energy>  (24) 
48.07276745526946

>  <Genealogy>  (24) 
O=S(=O)([N-]c1ccccc1O)c1ccc(-c2ccccc2)cc1 (protonated)
O=S(=O)([N-]c1ccccc1O)c1ccc(-c2ccccc2)cc1 (3D coordinates assigned)
O=S(=O)([N-]c1ccccc1O)c1ccc(-c2ccccc2)cc1 (optimized conformer: 48.07276745526946 kcal/mol)

>  <smiles>  (24) 
O=S(=O)(Nc1ccccc1O)c1ccc(-c2ccccc2)cc1

>  <score_type>  (24) 
oracle

>  <origin>  (24) 
adgpu

>  <m_score__min__energy>  (24) 
-11.449999999999999

>  <m_primary>  (24) 
energy

$$$$
24:0
     RDKit          3D

 51 53  0  0  0  0  0  0  0  0999 V2000
   -8.4100   19.9530  -31.7680 C   0  0  0  0  0  0  0  0  0  0  0  0
   -7.1960   19.2230  -31.6250 O   0  0  0  0  0  0  0  0  0  0  0  0
   -6.6060   18.4430  -32.6330 C   0  0  0  0  0  0  0  0  0  0  0  0
   -7.2190   17.2670  -33.1120 C   0  0  0  0  0  0  0  0  0  0  0  0
   -6.5930   16.4810  -34.0890 C   0  0  0  0  0  0  0  0  0  0  0  0
   -7.2330   15.2070  -34.5590 C   0  0  0  0  0  0  0  0  0  0  0  0
   -5.3290   16.8500  -34.5660 C   0  0  0  0  0  0  0  0  0  0  0  0
   -4.7170   18.0150  -34.1070 C   0  0  0  0  0  0  0  0  0  0  0  0
   -5.3550   18.8320  -33.1590 C   0  0  0  0  0  0  0  0  0  0  0  0
   -4.6780   20.0680  -32.7080 C   0  0  0  0  0  0  0  0  0  0  0  0
   -3.7590   20.5550  -33.4200 O   0  0  0  0  0  0  0  0  0  0  0  0
   -5.0620   20.7060  -31.4770 N   0  0  0  0  0  0  0  0  0  0  0  0
   -4.4290   21.8820  -30.9480 C   0  0  0  0  0  0  0  0  0  0  0  0
   -5.1570   23.0520  -30.6830 C   0  0  0  0  0  0  0  0  0  0  0  0
   -4.5190   24.1780  -30.1610 C   0  0  0  0  0  0  0  0  0  0  0  0
   -3.1430   24.1490  -29.8730 C   0  0  0  0  0  0  0  0  0  0  0  0
   -2.4520   25.2890  -29.3400 N   0  0  0  0  0  0  0  0  0  0  0  0
   -1.3160   25.2680  -28.0290 S   0  0  0  0  0  0  0  0  0  0  0  0
   -1.8710   24.1570  -26.7540 C   0  0  0  0  0  0  0  0  0  0  0  0
    0.0410   24.8600  -28.5290 O   0  0  0  0  0  0  0  0  0  0  0  0
   -1.2230   26.6530  -27.4530 O   0  0  0  0  0  0  0  0  0  0  0  0
   -2.4170   22.9670  -30.0910 C   0  0  0  0  0  0  0  0  0  0  0  0
   -1.0440   22.9500  -29.8020 O   0  0  0  0  0  0  0  0  0  0  0  0
   -0.3020   21.8160  -29.4370 C   0  0  0  0  0  0  0  0  0  0  0  0
   -0.0910   20.8150  -30.3930 C   0  0  0  0  0  0  0  0  0  0  0  0
    0.6560   19.6770  -30.0720 C   0  0  0  0  0  0  0  0  0  0  0  0
    1.2060   19.5380  -28.7950 C   0  0  0  0  0  0  0  0  0  0  0  0
    1.0180   20.5420  -27.8400 C   0  0  0  0  0  0  0  0  0  0  0  0
    0.2720   21.6800  -28.1590 C   0  0  0  0  0  0  0  0  0  0  0  0
   -3.0630   21.8430  -30.6370 C   0  0  0  0  0  0  0  0  0  0  0  0
   -8.8119   20.1947  -30.7730 H   0  0  0  0  0  0  0  0  0  0  0  0
   -8.2152   20.8839  -32.3208 H   0  0  0  0  0  0  0  0  0  0  0  0
   -9.1408   19.3445  -32.3208 H   0  0  0  0  0  0  0  0  0  0  0  0
   -8.1988   16.9633  -32.7147 H   0  0  0  0  0  0  0  0  0  0  0  0
   -7.5351   14.6057  -33.6888 H   0  0  0  0  0  0  0  0  0  0  0  0
   -8.1190   15.4441  -35.1663 H   0  0  0  0  0  0  0  0  0  0  0  0
   -6.5139   14.6377  -35.1663 H   0  0  0  0  0  0  0  0  0  0  0  0
   -4.8170   16.2176  -35.3062 H   0  0  0  0  0  0  0  0  0  0  0  0
   -3.7254   18.2973  -34.4905 H   0  0  0  0  0  0  0  0  0  0  0  0
   -5.8010   20.2570  -30.8900 H   0  0  0  0  0  0  0  0  0  0  0  0
   -6.2373   23.0818  -30.8880 H   0  0  0  0  0  0  0  0  0  0  0  0
   -5.0968   25.0950  -29.9734 H   0  0  0  0  0  0  0  0  0  0  0  0
   -1.6533   24.5927  -25.7677 H   0  0  0  0  0  0  0  0  0  0  0  0
   -2.9548   23.9972  -26.8532 H   0  0  0  0  0  0  0  0  0  0  0  0
   -1.3479   23.1945  -26.8532 H   0  0  0  0  0  0  0  0  0  0  0  0
   -0.5151   20.9242  -31.4021 H   0  0  0  0  0  0  0  0  0  0  0  0
    0.8107   18.8907  -30.8255 H   0  0  0  0  0  0  0  0  0  0  0  0
    1.7867   18.6390  -28.5410 H   0  0  0  0  0  0  0  0  0  0  0  0
    1.4575   20.4361  -26.8372 H   0  0  0  0  0  0  0  0  0  0  0  0
    0.1329   22.4722  -27.4086 H   0  0  0  0  0  0  0  0  0  0  0  0
   -2.4894   20.9228  -30.8220 H   0  0  0  0  0  0  0  0  0  0  0  0
  1  2  1  0
  2  3  1  0
  3  4  2  0
  4  5  1  0
  5  6  1  0
  5  7  2  0
  7  8  1  0
  8  9  2  0
  9 10  1  0
 10 11  2  0
 10 12  1  0
 12 13  1  0
 13 14  2  0
 14 15  1  0
 15 16  2  0
 16 17  1  0
 17 18  1  0
 18 19  1  0
 18 20  2  0
 18 21  2  0
 16 22  1  0
 22 23  1  0
 23 24  1  0
 24 25  2  0
 25 26  1  0
 26 27  2  0
 27 28  1  0
 28 29  2  0
 22 30  2  0
  9  3  1  0
 30 13  1  0
 29 24  1  0
  1 31  1  0
  1 32  1  0
  1 33  1  0
  4 34  1  0
  6 35  1  0
  6 36  1  0
  6 37  1  0
  7 38  1  0
  8 39  1  0
 12 40  1  0
 14 41  1  0
 15 42  1  0
 19 43  1  0
 19 44  1  0
 19 45  1  0
 25 46  1  0
 26 47  1  0
 27 48  1  0
 28 49  1  0
 29 50  1  0
 30 51  1  0
M  CHG  1  17  -1
M  END
>  <UniqueID>  (25) 
23

>  <SMILES>  (25) 
COc1cc(C)ccc1C(=O)Nc1ccc([N-]S(C)(=O)=O)c(Oc2ccccc2)c1

>  <Energy>  (25) 
66.24272536667839

>  <Genealogy>  (25) 
COc1cc(C)ccc1C(=O)Nc1ccc([N-]S(C)(=O)=O)c(Oc2ccccc2)c1 (protonated)
COc1cc(C)ccc1C(=O)Nc1ccc([N-]S(C)(=O)=O)c(Oc2ccccc2)c1 (3D coordinates assigned)
COc1cc(C)ccc1C(=O)Nc1ccc([N-]S(C)(=O)=O)c(Oc2ccccc2)c1 (optimized conformer: 66.24272536667839 kcal/mol)

>  <smiles>  (25) 
COc1cc(C)ccc1C(=O)Nc1ccc(NS(C)(=O)=O)c(Oc2ccccc2)c1

>  <score_type>  (25) 
oracle

>  <origin>  (25) 
adgpu

>  <m_score__min__energy>  (25) 
-9.5

>  <m_primary>  (25) 
energy

$$$$
25:0
     RDKit          3D

 56 58  0  0  0  0  0  0  0  0999 V2000
   -2.9910   14.1430  -33.8130 C   0  0  0  0  0  0  0  0  0  0  0  0
   -2.0630   14.4680  -34.9810 C   0  0  0  0  0  0  0  0  0  0  0  0
   -1.8420   15.9780  -35.1110 C   0  0  0  0  0  0  0  0  0  0  0  0
   -2.8360   16.7200  -34.3360 N   0  0  0  0  0  0  0  0  0  0  0  0
   -4.0650   17.1650  -34.9320 C   0  0  0  0  0  0  0  0  0  0  0  0
   -4.2270   17.0530  -36.1790 O   0  0  0  0  0  0  0  0  0  0  0  0
   -5.1400   17.7710  -34.1100 C   0  0  0  0  0  0  0  0  0  0  0  0
   -6.3100   17.0440  -33.8420 C   0  0  0  0  0  0  0  0  0  0  0  0
   -7.3310   17.6010  -33.0720 C   0  0  0  0  0  0  0  0  0  0  0  0
   -7.2030   18.8980  -32.5410 C   0  0  0  0  0  0  0  0  0  0  0  0
   -8.2340   19.4950  -31.7950 O   0  0  0  0  0  0  0  0  0  0  0  0
   -9.4950   19.8880  -32.3260 C   0  0  0  0  0  0  0  0  0  0  0  0
   -6.0180   19.6260  -32.7800 C   0  0  0  0  0  0  0  0  0  0  0  0
   -5.8280   20.9850  -32.2160 C   0  0  0  0  0  0  0  0  0  0  0  0
   -4.5620   21.5930  -32.2230 C   0  0  0  0  0  0  0  0  0  0  0  0
   -4.3890   22.8750  -31.6950 C   0  0  0  0  0  0  0  0  0  0  0  0
   -5.4810   23.5700  -31.1530 C   0  0  0  0  0  0  0  0  0  0  0  0
   -5.2860   24.9410  -30.5620 C   0  0  0  0  0  0  0  0  0  0  0  0
   -3.8670   25.2940  -30.4890 N   0  0  0  0  0  0  0  0  0  0  0  0
   -3.1180   24.6500  -29.0550 S   0  0  0  0  0  0  0  0  0  0  0  0
   -2.0040   25.5610  -28.6200 O   0  0  0  0  0  0  0  0  0  0  0  0
   -4.1400   24.5920  -27.9550 O   0  0  0  0  0  0  0  0  0  0  0  0
   -2.5020   23.0220  -29.3350 C   0  0  0  0  0  0  0  0  0  0  0  0
   -3.1290   21.9070  -28.7600 C   0  0  0  0  0  0  0  0  0  0  0  0
   -2.6150   20.6240  -28.9740 C   0  0  0  0  0  0  0  0  0  0  0  0
   -1.4770   20.4490  -29.7670 C   0  0  0  0  0  0  0  0  0  0  0  0
   -0.8490   21.5570  -30.3420 C   0  0  0  0  0  0  0  0  0  0  0  0
   -1.3590   22.8410  -30.1270 C   0  0  0  0  0  0  0  0  0  0  0  0
   -6.7510   22.9720  -31.1610 C   0  0  0  0  0  0  0  0  0  0  0  0
   -6.9230   21.6900  -31.6890 C   0  0  0  0  0  0  0  0  0  0  0  0
   -4.9990   19.0570  -33.5640 C   0  0  0  0  0  0  0  0  0  0  0  0
   -2.4651   14.3272  -32.8646 H   0  0  0  0  0  0  0  0  0  0  0  0
   -3.8851   14.7815  -33.8664 H   0  0  0  0  0  0  0  0  0  0  0  0
   -3.2914   13.0862  -33.8664 H   0  0  0  0  0  0  0  0  0  0  0  0
   -1.0929   13.9766  -34.8157 H   0  0  0  0  0  0  0  0  0  0  0  0
   -2.5300   14.1038  -35.9080 H   0  0  0  0  0  0  0  0  0  0  0  0
   -0.8368   16.2280  -34.7407 H   0  0  0  0  0  0  0  0  0  0  0  0
   -1.9421   16.2578  -36.1701 H   0  0  0  0  0  0  0  0  0  0  0  0
   -2.6280   16.9680  -33.3410 H   0  0  0  0  0  0  0  0  0  0  0  0
   -6.4229   16.0258  -34.2427 H   0  0  0  0  0  0  0  0  0  0  0  0
   -8.2452   17.0208  -32.8779 H   0  0  0  0  0  0  0  0  0  0  0  0
  -10.1891   20.1043  -31.5005 H   0  0  0  0  0  0  0  0  0  0  0  0
   -9.3679   20.7891  -32.9439 H   0  0  0  0  0  0  0  0  0  0  0  0
   -9.9024   19.0742  -32.9439 H   0  0  0  0  0  0  0  0  0  0  0  0
   -3.7006   21.0562  -32.6471 H   0  0  0  0  0  0  0  0  0  0  0  0
   -3.3928   23.3414  -31.7042 H   0  0  0  0  0  0  0  0  0  0  0  0
   -5.8066   25.6789  -31.1901 H   0  0  0  0  0  0  0  0  0  0  0  0
   -5.6955   24.9395  -29.5411 H   0  0  0  0  0  0  0  0  0  0  0  0
   -4.0271   22.0419  -28.1393 H   0  0  0  0  0  0  0  0  0  0  0  0
   -3.1065   19.7519  -28.5180 H   0  0  0  0  0  0  0  0  0  0  0  0
   -1.0760   19.4391  -29.9383 H   0  0  0  0  0  0  0  0  0  0  0  0
    0.0474   21.4189  -30.9644 H   0  0  0  0  0  0  0  0  0  0  0  0
   -0.8623   23.7115  -30.5803 H   0  0  0  0  0  0  0  0  0  0  0  0
   -7.6146   23.5152  -30.7497 H   0  0  0  0  0  0  0  0  0  0  0  0
   -7.9221   21.2297  -31.6921 H   0  0  0  0  0  0  0  0  0  0  0  0
   -4.0777   19.6277  -33.7524 H   0  0  0  0  0  0  0  0  0  0  0  0
  1  2  1  0
  2  3  1  0
  3  4  1  0
  4  5  1  0
  5  6  2  0
  5  7  1  0
  7  8  2  0
  8  9  1  0
  9 10  2  0
 10 11  1  0
 11 12  1  0
 10 13  1  0
 13 14  1  0
 14 15  2  0
 15 16  1  0
 16 17  2  0
 17 18  1  0
 18 19  1  0
 19 20  1  0
 20 21  2  0
 20 22  2  0
 20 23  1  0
 23 24  2  0
 24 25  1  0
 25 26  2  0
 26 27  1  0
 27 28  2  0
 17 29  1  0
 29 30  2  0
 13 31  2  0
 31  7  1  0
 30 14  1  0
 28 23  1  0
  1 32  1  0
  1 33  1  0
  1 34  1  0
  2 35  1  0
  2 36  1  0
  3 37  1  0
  3 38  1  0
  4 39  1  0
  8 40  1  0
  9 41  1  0
 12 42  1  0
 12 43  1  0
 12 44  1  0
 15 45  1  0
 16 46  1  0
 18 47  1  0
 18 48  1  0
 24 49  1  0
 25 50  1  0
 26 51  1  0
 27 52  1  0
 28 53  1  0
 29 54  1  0
 30 55  1  0
 31 56  1  0
M  CHG  1  19  -1
M  END
>  <UniqueID>  (26) 
24

>  <SMILES>  (26) 
CCCNC(=O)c1ccc(OC)c(-c2ccc(C[N-]S(=O)(=O)c3ccccc3)cc2)c1

>  <Energy>  (26) 
57.65837737363049

>  <Genealogy>  (26) 
CCCNC(=O)c1ccc(OC)c(-c2ccc(C[N-]S(=O)(=O)c3ccccc3)cc2)c1 (protonated)
CCCNC(=O)c1ccc(OC)c(-c2ccc(C[N-]S(=O)(=O)c3ccccc3)cc2)c1 (3D coordinates assigned)
CCCNC(=O)c1ccc(OC)c(-c2ccc(C[N-]S(=O)(=O)c3ccccc3)cc2)c1 (optimized conformer: 57.65837737363049 kcal/mol)

>  <smiles>  (26) 
CCCNC(=O)c1ccc(OC)c(-c2ccc(CNS(=O)(=O)c3ccccc3)cc2)c1

>  <score_type>  (26) 
oracle

>  <origin>  (26) 
adgpu

>  <m_score__min__energy>  (26) 
-10.15

>  <m_primary>  (26) 
energy

$$$$
26:0
     RDKit          3D

 28 30  0  0  0  0  0  0  0  0999 V2000
   -3.8620   25.6880  -30.2690 O   0  0  0  0  0  0  0  0  0  0  0  0
   -4.3360   24.5090  -30.8310 C   0  0  0  0  0  0  0  0  0  0  0  0
   -5.6390   24.4460  -31.3300 C   0  0  0  0  0  0  0  0  0  0  0  0
   -6.1170   23.2600  -31.8970 C   0  0  0  0  0  0  0  0  0  0  0  0
   -5.2920   22.1240  -31.9710 C   0  0  0  0  0  0  0  0  0  0  0  0
   -5.7950   20.8690  -32.5690 C   0  0  0  0  0  0  0  0  0  0  0  0
   -7.0720   20.6830  -32.9630 N   0  0  0  0  0  0  0  0  0  0  0  0
   -7.1060   19.4710  -33.4260 O   0  0  0  0  0  0  0  0  0  0  0  0
   -5.9180   18.9260  -33.3290 C   0  0  0  0  0  0  0  0  0  0  0  0
   -5.5970   17.5510  -33.7630 C   0  0  0  0  0  0  0  0  0  0  0  0
   -6.4360   16.4780  -33.4160 C   0  0  0  0  0  0  0  0  0  0  0  0
   -6.1260   15.1790  -33.8290 C   0  0  0  0  0  0  0  0  0  0  0  0
   -4.9780   14.9390  -34.5890 C   0  0  0  0  0  0  0  0  0  0  0  0
   -4.1350   16.0010  -34.9410 C   0  0  0  0  0  0  0  0  0  0  0  0
   -2.9880   15.7760  -35.6980 O   0  0  0  0  0  0  0  0  0  0  0  0
   -4.4450   17.3030  -34.5280 C   0  0  0  0  0  0  0  0  0  0  0  0
   -5.0290   19.7780  -32.7840 N   0  0  0  0  0  0  0  0  0  0  0  0
   -3.9800   22.1970  -31.4660 C   0  0  0  0  0  0  0  0  0  0  0  0
   -3.5070   23.3850  -30.8990 C   0  0  0  0  0  0  0  0  0  0  0  0
   -6.2905   25.3307  -31.2770 H   0  0  0  0  0  0  0  0  0  0  0  0
   -7.1445   23.2159  -32.2873 H   0  0  0  0  0  0  0  0  0  0  0  0
   -7.3402   16.6612  -32.8170 H   0  0  0  0  0  0  0  0  0  0  0  0
   -6.7873   14.3437  -33.5551 H   0  0  0  0  0  0  0  0  0  0  0  0
   -4.7362   13.9154  -34.9110 H   0  0  0  0  0  0  0  0  0  0  0  0
   -2.7660   16.3480  -36.5050 H   0  0  0  0  0  0  0  0  0  0  0  0
   -3.7824   18.1365  -34.8043 H   0  0  0  0  0  0  0  0  0  0  0  0
   -3.3237   21.3157  -31.5175 H   0  0  0  0  0  0  0  0  0  0  0  0
   -2.4809   23.4351  -30.5058 H   0  0  0  0  0  0  0  0  0  0  0  0
  1  2  1  0
  2  3  2  0
  3  4  1  0
  4  5  2  0
  5  6  1  0
  6  7  2  0
  7  8  1  0
  8  9  1  0
  9 10  1  0
 10 11  2  0
 11 12  1  0
 12 13  2  0
 13 14  1  0
 14 15  1  0
 14 16  2  0
  9 17  2  0
  5 18  1  0
 18 19  2  0
 19  2  1  0
 17  6  1  0
 16 10  1  0
  3 20  1  0
  4 21  1  0
 11 22  1  0
 12 23  1  0
 13 24  1  0
 15 25  1  0
 16 26  1  0
 18 27  1  0
 19 28  1  0
M  CHG  1   1  -1
M  END
>  <UniqueID>  (27) 
25

>  <SMILES>  (27) 
[O-]c1ccc(-c2noc(-c3cccc(O)c3)n2)cc1

>  <Energy>  (27) 
64.305818357506

>  <Genealogy>  (27) 
[O-]c1ccc(-c2noc(-c3cccc(O)c3)n2)cc1 (protonated)
[O-]c1ccc(-c2noc(-c3cccc(O)c3)n2)cc1 (3D coordinates assigned)
[O-]c1ccc(-c2noc(-c3cccc(O)c3)n2)cc1 (optimized conformer: 64.305818357506 kcal/mol)

>  <smiles>  (27) 
Oc1ccc(-c2noc(-c3cccc(O)c3)n2)cc1

>  <score_type>  (27) 
oracle

>  <origin>  (27) 
adgpu

>  <m_score__min__energy>  (27) 
-9.0199999999999996

>  <m_primary>  (27) 
energy

$$$$
27:0
     RDKit          3D

 28 29  0  0  0  0  0  0  0  0999 V2000
   -3.8880   25.1530  -30.0840 N   0  0  0  0  0  0  0  0  0  0  0  0
   -5.1670   25.1600  -30.7230 C   0  0  0  0  0  0  0  0  0  0  0  0
   -5.7400   26.2630  -30.9330 O   0  0  0  0  0  0  0  0  0  0  0  0
   -5.8090   23.9050  -31.1740 C   0  0  0  0  0  0  0  0  0  0  0  0
   -7.2100   23.7960  -31.1120 C   0  0  0  0  0  0  0  0  0  0  0  0
   -7.8520   22.6260  -31.5220 C   0  0  0  0  0  0  0  0  0  0  0  0
   -7.1040   21.5480  -31.9950 C   0  0  0  0  0  0  0  0  0  0  0  0
   -5.7120   21.6320  -32.0440 C   0  0  0  0  0  0  0  0  0  0  0  0
   -5.0520   22.7940  -31.6150 C   0  0  0  0  0  0  0  0  0  0  0  0
   -3.6200   22.8530  -31.6260 N   0  0  0  0  0  0  0  0  0  0  0  0
   -2.7540   22.3550  -30.5990 C   0  0  0  0  0  0  0  0  0  0  0  0
   -3.2630   21.7640  -29.6090 O   0  0  0  0  0  0  0  0  0  0  0  0
   -1.2540   22.4510  -30.6970 C   0  0  0  0  0  0  0  0  0  0  0  0
   -0.4600   22.3690  -29.0520 S   0  0  0  0  0  0  0  0  0  0  0  0
   -0.6860   24.1060  -28.6870 C   0  0  0  0  0  0  0  0  0  0  0  0
    0.0850   24.7930  -27.8220 N   0  0  0  0  0  0  0  0  0  0  0  0
   -0.4570   26.0230  -27.8880 C   0  0  0  0  0  0  0  0  0  0  0  0
   -1.4940   26.0800  -28.7460 N   0  0  0  0  0  0  0  0  0  0  0  0
   -1.6380   24.8680  -29.2510 N   0  0  0  0  0  0  0  0  0  0  0  0
   -3.4790   26.0420  -29.7200 H   0  0  0  0  0  0  0  0  0  0  0  0
   -3.3060   24.2870  -30.0530 H   0  0  0  0  0  0  0  0  0  0  0  0
   -7.8058   24.6411  -30.7367 H   0  0  0  0  0  0  0  0  0  0  0  0
   -8.9485   22.5543  -31.4720 H   0  0  0  0  0  0  0  0  0  0  0  0
   -7.6116   20.6312  -32.3295 H   0  0  0  0  0  0  0  0  0  0  0  0
   -5.1271   20.7805  -32.4220 H   0  0  0  0  0  0  0  0  0  0  0  0
   -0.8834   21.6186  -31.3133 H   0  0  0  0  0  0  0  0  0  0  0  0
   -1.0022   23.4210  -31.1505 H   0  0  0  0  0  0  0  0  0  0  0  0
   -0.0945   26.8840  -27.3073 H   0  0  0  0  0  0  0  0  0  0  0  0
  1  2  1  0
  2  3  2  0
  2  4  1  0
  4  5  2  0
  5  6  1  0
  6  7  2  0
  7  8  1  0
  8  9  2  0
  9 10  1  0
 10 11  1  0
 11 12  2  0
 11 13  1  0
 13 14  1  0
 14 15  1  0
 15 16  1  0
 16 17  2  0
 17 18  1  0
 18 19  1  0
  9  4  1  0
 19 15  2  0
  1 20  1  0
  1 21  1  0
  5 22  1  0
  6 23  1  0
  7 24  1  0
  8 25  1  0
 13 26  1  0
 13 27  1  0
 17 28  1  0
M  CHG  2  10  -1  18  -1
M  END
>  <UniqueID>  (28) 
26

>  <SMILES>  (28) 
NC(=O)c1ccccc1[N-]C(=O)CSc1nc[n-]n1

>  <Energy>  (28) 
64.696241776031

>  <Genealogy>  (28) 
NC(=O)c1ccccc1[N-]C(=O)CSc1nc[n-]n1 (protonated)
NC(=O)c1ccccc1[N-]C(=O)CSc1nc[n-]n1 (3D coordinates assigned)
NC(=O)c1ccccc1[N-]C(=O)CSc1nc[n-]n1 (optimized conformer: 64.696241776031 kcal/mol)

>  <smiles>  (28) 
NC(=O)c1ccccc1NC(=O)CSc1nc[nH]n1

>  <score_type>  (28) 
oracle

>  <origin>  (28) 
adgpu

>  <m_score__min__energy>  (28) 
-9.6500000000000004

>  <m_primary>  (28) 
energy

$$$$
28:0
     RDKit          3D

 54 57  0  0  0  0  0  0  0  0999 V2000
   -6.2460   15.9140  -33.6080 C   0  0  0  0  0  0  0  0  0  0  0  0
   -6.2820   17.1730  -34.2720 O   0  0  0  0  0  0  0  0  0  0  0  0
   -6.2990   18.4130  -33.6140 C   0  0  0  0  0  0  0  0  0  0  0  0
   -7.3300   18.6660  -32.7000 C   0  0  0  0  0  0  0  0  0  0  0  0
   -7.3850   19.8800  -32.0080 C   0  0  0  0  0  0  0  0  0  0  0  0
   -6.4110   20.8650  -32.2310 C   0  0  0  0  0  0  0  0  0  0  0  0
   -6.4360   22.0960  -31.4930 N   0  0  0  0  0  0  0  0  0  0  0  0
   -5.4470   23.0110  -31.4680 C   0  0  0  0  0  0  0  0  0  0  0  0
   -5.8240   24.0820  -30.6810 C   0  0  0  0  0  0  0  0  0  0  0  0
   -5.0330   25.3050  -30.4560 C   0  0  0  0  0  0  0  0  0  0  0  0
   -5.6310   26.3960  -30.2680 O   0  0  0  0  0  0  0  0  0  0  0  0
   -3.5990   25.2940  -30.4750 N   0  0  0  0  0  0  0  0  0  0  0  0
   -2.7500   24.5480  -29.5850 C   0  0  0  0  0  0  0  0  0  0  0  0
   -1.9780   25.2420  -28.6470 C   0  0  0  0  0  0  0  0  0  0  0  0
   -1.1420   24.5450  -27.7710 C   0  0  0  0  0  0  0  0  0  0  0  0
   -1.0810   23.1510  -27.8200 C   0  0  0  0  0  0  0  0  0  0  0  0
   -1.8640   22.4400  -28.7400 C   0  0  0  0  0  0  0  0  0  0  0  0
   -1.7600   20.6770  -28.8380 S   0  0  0  0  0  0  0  0  0  0  0  0
   -3.0500   20.0780  -28.3490 O   0  0  0  0  0  0  0  0  0  0  0  0
   -0.6570   20.2080  -27.9270 O   0  0  0  0  0  0  0  0  0  0  0  0
   -1.4720   20.1120  -30.4700 N   0  0  0  0  0  0  0  0  0  0  0  0
   -0.1730   20.5930  -30.9770 C   0  0  0  0  0  0  0  0  0  0  0  0
   -0.1200   20.5030  -32.5110 C   0  0  0  0  0  0  0  0  0  0  0  0
   -1.1340   21.2460  -33.1800 O   0  0  0  0  0  0  0  0  0  0  0  0
   -2.2600   21.5430  -32.3660 C   0  0  0  0  0  0  0  0  0  0  0  0
   -2.6030   20.4170  -31.3730 C   0  0  0  0  0  0  0  0  0  0  0  0
   -2.7050   23.1430  -29.6130 C   0  0  0  0  0  0  0  0  0  0  0  0
   -7.0970   23.8160  -30.2060 C   0  0  0  0  0  0  0  0  0  0  0  0
   -7.4400   22.5890  -30.7350 C   0  0  0  0  0  0  0  0  0  0  0  0
   -8.6800   21.9810  -30.5550 O   0  0  0  0  0  0  0  0  0  0  0  0
   -5.3770   20.6140  -33.1460 C   0  0  0  0  0  0  0  0  0  0  0  0
   -5.3220   19.4010  -33.8370 C   0  0  0  0  0  0  0  0  0  0  0  0
   -6.2506   16.0732  -32.5196 H   0  0  0  0  0  0  0  0  0  0  0  0
   -7.1276   15.3224  -33.8957 H   0  0  0  0  0  0  0  0  0  0  0  0
   -5.3320   15.3737  -33.8957 H   0  0  0  0  0  0  0  0  0  0  0  0
   -8.1030   17.9032  -32.5251 H   0  0  0  0  0  0  0  0  0  0  0  0
   -8.1947   20.0633  -31.2863 H   0  0  0  0  0  0  0  0  0  0  0  0
   -4.4855   22.9191  -31.9943 H   0  0  0  0  0  0  0  0  0  0  0  0
   -2.0294   26.3398  -28.5991 H   0  0  0  0  0  0  0  0  0  0  0  0
   -0.5305   25.0957  -27.0411 H   0  0  0  0  0  0  0  0  0  0  0  0
   -0.4151   22.6079  -27.1332 H   0  0  0  0  0  0  0  0  0  0  0  0
   -0.0319   21.6404  -30.6719 H   0  0  0  0  0  0  0  0  0  0  0  0
    0.6250   19.9622  -30.5584 H   0  0  0  0  0  0  0  0  0  0  0  0
    0.8585   20.8795  -32.8440 H   0  0  0  0  0  0  0  0  0  0  0  0
   -0.2838   19.4463  -32.7690 H   0  0  0  0  0  0  0  0  0  0  0  0
   -2.0476   22.4595  -31.7960 H   0  0  0  0  0  0  0  0  0  0  0  0
   -3.1248   21.6643  -33.0349 H   0  0  0  0  0  0  0  0  0  0  0  0
   -3.4671   20.7282  -30.7676 H   0  0  0  0  0  0  0  0  0  0  0  0
   -2.8297   19.5099  -31.9525 H   0  0  0  0  0  0  0  0  0  0  0  0
   -3.3351   22.5911  -30.3260 H   0  0  0  0  0  0  0  0  0  0  0  0
   -7.7068   24.4499  -29.5455 H   0  0  0  0  0  0  0  0  0  0  0  0
   -9.1330   21.9400  -29.6520 H   0  0  0  0  0  0  0  0  0  0  0  0
   -4.6046   21.3775  -33.3203 H   0  0  0  0  0  0  0  0  0  0  0  0
   -4.5119   19.2175  -34.5582 H   0  0  0  0  0  0  0  0  0  0  0  0
  1  2  1  0
  2  3  1  0
  3  4  2  0
  4  5  1  0
  5  6  2  0
  6  7  1  0
  7  8  1  0
  8  9  2  0
  9 10  1  0
 10 11  2  0
 10 12  1  0
 12 13  1  0
 13 14  2  0
 14 15  1  0
 15 16  2  0
 16 17  1  0
 17 18  1  0
 18 19  2  0
 18 20  2  0
 18 21  1  0
 21 22  1  0
 22 23  1  0
 23 24  1  0
 24 25  1  0
 25 26  1  0
 17 27  2  0
  9 28  1  0
 28 29  2  0
 29 30  1  0
  6 31  1  0
 31 32  2  0
 32  3  1  0
 29  7  1  0
 27 13  1  0
 26 21  1  0
  1 33  1  0
  1 34  1  0
  1 35  1  0
  4 36  1  0
  5 37  1  0
  8 38  1  0
 14 39  1  0
 15 40  1  0
 16 41  1  0
 22 42  1  0
 22 43  1  0
 23 44  1  0
 23 45  1  0
 25 46  1  0
 25 47  1  0
 26 48  1  0
 26 49  1  0
 27 50  1  0
 28 51  1  0
 30 52  1  0
 31 53  1  0
 32 54  1  0
M  CHG  1  12  -1
M  END
>  <UniqueID>  (29) 
27

>  <SMILES>  (29) 
COc1ccc(-n2cc(C(=O)[N-]c3cccc(S(=O)(=O)N4CCOCC4)c3)cc2O)cc1

>  <Energy>  (29) 
106.40288713592328

>  <Genealogy>  (29) 
COc1ccc(-n2cc(C(=O)[N-]c3cccc(S(=O)(=O)N4CCOCC4)c3)cc2O)cc1 (protonated)
COc1ccc(-n2cc(C(=O)[N-]c3cccc(S(=O)(=O)N4CCOCC4)c3)cc2O)cc1 (3D coordinates assigned)
COc1ccc(-n2cc(C(=O)[N-]c3cccc(S(=O)(=O)N4CCOCC4)c3)cc2O)cc1 (nonaromatic ring conformer: 106.40288713592328 kcal/mol)

>  <smiles>  (29) 
COc1ccc(-n2cc(C(=O)Nc3cccc(S(=O)(=O)N4CCOCC4)c3)cc2O)cc1

>  <score_type>  (29) 
oracle

>  <origin>  (29) 
adgpu

>  <m_score__min__energy>  (29) 
-11.109999999999999

>  <m_primary>  (29) 
energy

$$$$
29:0
     RDKit          3D

 30 31  0  0  0  0  0  0  0  0999 V2000
   -6.0490   18.5130  -34.3710 C   0  0  0  0  0  0  0  0  0  0  0  0
   -6.3880   19.6540  -33.4580 C   0  0  0  0  0  0  0  0  0  0  0  0
   -7.7170   19.8630  -33.0600 C   0  0  0  0  0  0  0  0  0  0  0  0
   -8.0520   20.9610  -32.2540 C   0  0  0  0  0  0  0  0  0  0  0  0
   -9.4710   21.1640  -31.8080 C   0  0  0  0  0  0  0  0  0  0  0  0
   -7.0450   21.8360  -31.8210 C   0  0  0  0  0  0  0  0  0  0  0  0
   -5.7070   21.6350  -32.2100 C   0  0  0  0  0  0  0  0  0  0  0  0
   -4.6670   22.5460  -31.8160 N   0  0  0  0  0  0  0  0  0  0  0  0
   -3.4630   22.1450  -31.1420 C   0  0  0  0  0  0  0  0  0  0  0  0
   -3.0330   20.9670  -31.2780 O   0  0  0  0  0  0  0  0  0  0  0  0
   -2.6800   23.1150  -30.3330 C   0  0  0  0  0  0  0  0  0  0  0  0
   -1.4470   22.7320  -29.7820 C   0  0  0  0  0  0  0  0  0  0  0  0
   -0.7220   23.6130  -29.0460 N   0  0  0  0  0  0  0  0  0  0  0  0
   -1.1720   24.8720  -28.8200 C   0  0  0  0  0  0  0  0  0  0  0  0
   -0.4830   25.6730  -28.1360 O   0  0  0  0  0  0  0  0  0  0  0  0
   -2.3670   25.2680  -29.3280 N   0  0  0  0  0  0  0  0  0  0  0  0
   -3.1310   24.4240  -30.0700 C   0  0  0  0  0  0  0  0  0  0  0  0
   -4.2480   24.8250  -30.4910 O   0  0  0  0  0  0  0  0  0  0  0  0
   -5.3930   20.5550  -33.0500 C   0  0  0  0  0  0  0  0  0  0  0  0
   -5.7864   17.6291  -33.7713 H   0  0  0  0  0  0  0  0  0  0  0  0
   -6.9170   18.2808  -35.0056 H   0  0  0  0  0  0  0  0  0  0  0  0
   -5.1951   18.7924  -35.0056 H   0  0  0  0  0  0  0  0  0  0  0  0
   -8.5009   19.1617  -33.3819 H   0  0  0  0  0  0  0  0  0  0  0  0
   -9.5126   21.1699  -30.7088 H   0  0  0  0  0  0  0  0  0  0  0  0
   -9.8429   22.1245  -32.1942 H   0  0  0  0  0  0  0  0  0  0  0  0
  -10.0973   20.3463  -32.1942 H   0  0  0  0  0  0  0  0  0  0  0  0
   -7.3027   22.6861  -31.1723 H   0  0  0  0  0  0  0  0  0  0  0  0
   -4.7440   23.5430  -32.1230 H   0  0  0  0  0  0  0  0  0  0  0  0
   -1.0664   21.7133  -29.9473 H   0  0  0  0  0  0  0  0  0  0  0  0
   -4.3570   20.4138  -33.3916 H   0  0  0  0  0  0  0  0  0  0  0  0
  1  2  1  0
  2  3  2  0
  3  4  1  0
  4  5  1  0
  4  6  2  0
  6  7  1  0
  7  8  1  0
  8  9  1  0
  9 10  2  0
  9 11  1  0
 11 12  2  0
 12 13  1  0
 13 14  1  0
 14 15  2  0
 14 16  1  0
 16 17  1  0
 17 18  2  0
  7 19  2  0
 19  2  1  0
 17 11  1  0
  1 20  1  0
  1 21  1  0
  1 22  1  0
  3 23  1  0
  5 24  1  0
  5 25  1  0
  5 26  1  0
  6 27  1  0
  8 28  1  0
 12 29  1  0
 19 30  1  0
M  CHG  2  13  -1  16  -1
M  END
>  <UniqueID>  (30) 
28

>  <SMILES>  (30) 
Cc1cc(C)cc(NC(=O)c2c[n-]c(=O)[n-]c2=O)c1

>  <Energy>  (30) 
37.75980647972053

>  <Genealogy>  (30) 
Cc1cc(C)cc(NC(=O)c2c[n-]c(=O)[n-]c2=O)c1 (protonated)
Cc1cc(C)cc(NC(=O)c2c[n-]c(=O)[n-]c2=O)c1 (3D coordinates assigned)
Cc1cc(C)cc(NC(=O)c2c[n-]c(=O)[n-]c2=O)c1 (optimized conformer: 37.75980647972053 kcal/mol)

>  <smiles>  (30) 
Cc1cc(C)cc(NC(=O)c2c[nH]c(=O)[nH]c2=O)c1

>  <score_type>  (30) 
oracle

>  <origin>  (30) 
adgpu

>  <m_score__min__energy>  (30) 
-9.8200000000000003

>  <m_primary>  (30) 
energy

$$$$
30:0
     RDKit          3D

 43 46  0  0  0  0  0  0  0  0999 V2000
   -7.1000   22.6460  -31.9650 C   0  0  0  0  0  0  0  0  0  0  0  0
   -6.1350   23.1220  -30.9210 C   0  0  0  0  0  0  0  0  0  0  0  0
   -6.3010   24.3830  -30.3260 C   0  0  0  0  0  0  0  0  0  0  0  0
   -5.3800   24.8440  -29.3800 C   0  0  0  0  0  0  0  0  0  0  0  0
   -4.2780   24.0530  -29.0300 C   0  0  0  0  0  0  0  0  0  0  0  0
   -3.3300   24.5280  -28.0580 C   0  0  0  0  0  0  0  0  0  0  0  0
   -2.5350   24.9260  -27.2430 C   0  0  0  0  0  0  0  0  0  0  0  0
   -1.5870   25.4010  -26.2700 C   0  0  0  0  0  0  0  0  0  0  0  0
   -1.9780   26.3310  -25.3050 C   0  0  0  0  0  0  0  0  0  0  0  0
   -1.0600   26.7900  -24.3560 C   0  0  0  0  0  0  0  0  0  0  0  0
    0.2890   26.3630  -24.3840 C   0  0  0  0  0  0  0  0  0  0  0  0
    1.2380   26.7560  -23.3430 N   0  0  1  0  0  0  0  0  0  0  0  0
    2.6650   26.5220  -23.6830 C   0  0  0  0  0  0  0  0  0  0  0  0
    3.3480   27.8570  -23.3500 C   0  0  2  0  0  0  0  0  0  0  0  0
    2.5240   28.3270  -22.1810 C   0  0  0  0  0  0  0  0  0  0  0  0
    1.2450   28.1920  -22.9600 C   0  0  1  0  0  0  0  0  0  0  0  0
    1.5980   29.0830  -24.1750 C   0  0  0  0  0  0  0  0  0  0  0  0
    3.0180   28.7950  -24.4300 N   0  0  0  0  0  0  0  0  0  0  0  0
    0.6430   25.3680  -25.3230 C   0  0  0  0  0  0  0  0  0  0  0  0
   -0.2780   24.9110  -26.2700 C   0  0  0  0  0  0  0  0  0  0  0  0
   -4.0970   22.8020  -29.6340 C   0  0  0  0  0  0  0  0  0  0  0  0
   -5.0180   22.3410  -30.5800 C   0  0  0  0  0  0  0  0  0  0  0  0
   -7.9837   22.2101  -31.4760 H   0  0  0  0  0  0  0  0  0  0  0  0
   -7.4095   23.4948  -32.5925 H   0  0  0  0  0  0  0  0  0  0  0  0
   -6.6149   21.8838  -32.5925 H   0  0  0  0  0  0  0  0  0  0  0  0
   -7.1596   25.0113  -30.6053 H   0  0  0  0  0  0  0  0  0  0  0  0
   -5.5210   25.8286  -28.9103 H   0  0  0  0  0  0  0  0  0  0  0  0
   -3.0127   26.7041  -25.2914 H   0  0  0  0  0  0  0  0  0  0  0  0
   -1.3906   27.4926  -23.5769 H   0  0  0  0  0  0  0  0  0  0  0  0
    0.9950   26.1940  -22.4910 H   0  0  0  0  0  0  0  0  0  0  0  0
    3.0834   25.7061  -23.0753 H   0  0  0  0  0  0  0  0  0  0  0  0
    2.8076   26.2226  -24.7318 H   0  0  0  0  0  0  0  0  0  0  0  0
    4.4343   27.7837  -23.1929 H   0  0  0  0  0  0  0  0  0  0  0  0
    2.5800   27.6624  -21.3063 H   0  0  0  0  0  0  0  0  0  0  0  0
    2.7652   29.2883  -21.7039 H   0  0  0  0  0  0  0  0  0  0  0  0
    0.2865   28.4603  -22.4917 H   0  0  0  0  0  0  0  0  0  0  0  0
    0.9827   28.8162  -25.0469 H   0  0  0  0  0  0  0  0  0  0  0  0
    1.4110   30.1502  -23.9847 H   0  0  0  0  0  0  0  0  0  0  0  0
    3.5740   29.6730  -24.2850 H   0  0  0  0  0  0  0  0  0  0  0  0
    1.6590   24.9466  -25.3085 H   0  0  0  0  0  0  0  0  0  0  0  0
    0.0282   24.1639  -27.0171 H   0  0  0  0  0  0  0  0  0  0  0  0
   -3.2296   22.1818  -29.3639 H   0  0  0  0  0  0  0  0  0  0  0  0
   -4.8672   21.3625  -31.0593 H   0  0  0  0  0  0  0  0  0  0  0  0
  1  2  1  0
  2  3  2  0
  3  4  1  0
  4  5  2  0
  5  6  1  0
  6  7  3  0
  7  8  1  0
  8  9  2  0
  9 10  1  0
 10 11  2  0
 11 12  1  0
 12 13  1  0
 13 14  1  0
 14 15  1  0
 15 16  1  0
 16 17  1  0
 17 18  1  0
 11 19  1  0
 19 20  2  0
  5 21  1  0
 21 22  2  0
 22  2  1  0
 20  8  1  0
 16 12  1  0
 18 14  1  0
  1 23  1  0
  1 24  1  0
  1 25  1  0
  3 26  1  0
  4 27  1  0
  9 28  1  0
 10 29  1  0
 12 30  1  1
 13 31  1  0
 13 32  1  0
 14 33  1  1
 15 34  1  0
 15 35  1  0
 16 36  1  1
 17 37  1  0
 17 38  1  0
 18 39  1  0
 19 40  1  0
 20 41  1  0
 21 42  1  0
 22 43  1  0
M  CHG  1  12   1
M  END
>  <UniqueID>  (31) 
29

>  <SMILES>  (31) 
Cc1ccc(C#Cc2ccc([N@H+]3C[C@@H]4CC3CN4)cc2)cc1

>  <Energy>  (31) 
80.18965395304113

>  <Genealogy>  (31) 
Cc1ccc(C#Cc2ccc([NH+]3CC4CC3CN4)cc2)cc1 (protonated)
Cc1ccc(C#Cc2ccc([N@H+]3C[C@@H]4CC3CN4)cc2)cc1 (chirality)
Cc1ccc(C#Cc2ccc([N@H+]3C[C@@H]4CC3CN4)cc2)cc1 (3D coordinates assigned)
Cc1ccc(C#Cc2ccc([N@H+]3C[C@@H]4CC3CN4)cc2)cc1 (nonaromatic ring conformer: 80.18965395304113 kcal/mol)

>  <smiles>  (31) 
Cc1ccc(C#Cc2ccc(N3CC4CC3CN4)cc2)cc1

>  <score_type>  (31) 
oracle

>  <origin>  (31) 
adgpu

>  <m_score__min__energy>  (31) 
-7.4500000000000002

>  <m_primary>  (31) 
energy

$$$$
31:0
     RDKit          3D

 42 45  0  0  0  0  0  0  0  0999 V2000
   -3.7500   25.0330  -30.8080 O   0  0  0  0  0  0  0  0  0  0  0  0
   -4.9630   24.7910  -30.5710 C   0  0  0  0  0  0  0  0  0  0  0  0
   -5.8000   25.7310  -29.9340 C   0  0  0  0  0  0  0  0  0  0  0  0
   -7.0940   25.2620  -29.7160 C   0  0  0  0  0  0  0  0  0  0  0  0
   -7.1100   23.7080  -30.3290 S   0  0  0  0  0  0  0  0  0  0  0  0
   -5.5440   23.5990  -30.8770 N   0  0  0  0  0  0  0  0  0  0  0  0
   -4.9480   22.4510  -31.5050 C   0  0  0  0  0  0  0  0  0  0  0  0
   -4.4880   22.5290  -32.8300 C   0  0  0  0  0  0  0  0  0  0  0  0
   -3.9480   21.4050  -33.4590 C   0  0  0  0  0  0  0  0  0  0  0  0
   -3.8670   20.1820  -32.7770 C   0  0  0  0  0  0  0  0  0  0  0  0
   -3.3050   18.7340  -33.6230 S   0  0  0  0  0  0  0  0  0  0  0  0
   -2.6780   17.7970  -32.6260 O   0  0  0  0  0  0  0  0  0  0  0  0
   -2.2340   19.1510  -34.5930 O   0  0  0  0  0  0  0  0  0  0  0  0
   -4.5760   17.9020  -34.5110 N   0  0  1  0  0  0  0  0  0  0  0  0
   -4.9790   16.6210  -33.8980 C   0  0  0  0  0  0  0  0  0  0  0  0
   -5.6930   16.7970  -32.5500 C   0  0  0  0  0  0  0  0  0  0  0  0
   -6.6310   17.9750  -32.5280 C   0  0  0  0  0  0  0  0  0  0  0  0
   -7.4510   18.1720  -31.4050 C   0  0  0  0  0  0  0  0  0  0  0  0
   -8.2770   19.2940  -31.3200 C   0  0  0  0  0  0  0  0  0  0  0  0
   -8.2960   20.2290  -32.3570 C   0  0  0  0  0  0  0  0  0  0  0  0
   -7.4840   20.0450  -33.4780 C   0  0  0  0  0  0  0  0  0  0  0  0
   -6.6290   18.9350  -33.5620 C   0  0  0  0  0  0  0  0  0  0  0  0
   -5.7460   18.7640  -34.7740 C   0  0  0  0  0  0  0  0  0  0  0  0
   -4.2590   20.1190  -31.4330 C   0  0  0  0  0  0  0  0  0  0  0  0
   -4.8050   21.2410  -30.8050 C   0  0  0  0  0  0  0  0  0  0  0  0
   -5.4641   26.7359  -29.6383 H   0  0  0  0  0  0  0  0  0  0  0  0
   -7.9275   25.8004  -29.2413 H   0  0  0  0  0  0  0  0  0  0  0  0
   -4.5535   23.4818  -33.3758 H   0  0  0  0  0  0  0  0  0  0  0  0
   -3.5844   21.4792  -34.4945 H   0  0  0  0  0  0  0  0  0  0  0  0
   -4.1600   17.6670  -35.4440 H   0  0  0  0  0  0  0  0  0  0  0  0
   -5.6586   16.1007  -34.5889 H   0  0  0  0  0  0  0  0  0  0  0  0
   -4.0615   16.0439  -33.7105 H   0  0  0  0  0  0  0  0  0  0  0  0
   -6.2709   15.8853  -32.3382 H   0  0  0  0  0  0  0  0  0  0  0  0
   -4.9189   16.9797  -31.7901 H   0  0  0  0  0  0  0  0  0  0  0  0
   -7.4423   17.4370  -30.5867 H   0  0  0  0  0  0  0  0  0  0  0  0
   -8.9136   19.4418  -30.4352 H   0  0  0  0  0  0  0  0  0  0  0  0
   -8.9506   21.1105  -32.2908 H   0  0  0  0  0  0  0  0  0  0  0  0
   -7.5146   20.7747  -34.3006 H   0  0  0  0  0  0  0  0  0  0  0  0
   -6.3409   18.3127  -35.5817 H   0  0  0  0  0  0  0  0  0  0  0  0
   -5.3690   19.7590  -35.0529 H   0  0  0  0  0  0  0  0  0  0  0  0
   -4.1362   19.1819  -30.8701 H   0  0  0  0  0  0  0  0  0  0  0  0
   -5.1254   21.1768  -29.7547 H   0  0  0  0  0  0  0  0  0  0  0  0
  1  2  2  0
  2  3  1  0
  3  4  2  0
  4  5  1  0
  5  6  1  0
  6  7  1  0
  7  8  2  0
  8  9  1  0
  9 10  2  0
 10 11  1  0
 11 12  2  0
 11 13  2  0
 11 14  1  0
 14 15  1  0
 15 16  1  0
 16 17  1  0
 17 18  2  0
 18 19  1  0
 19 20  2  0
 20 21  1  0
 21 22  2  0
 22 23  1  0
 10 24  1  0
 24 25  2  0
  6  2  1  0
 25  7  1  0
 23 14  1  0
 22 17  1  0
  3 26  1  0
  4 27  1  0
  8 28  1  0
  9 29  1  0
 14 30  1  6
 15 31  1  0
 15 32  1  0
 16 33  1  0
 16 34  1  0
 18 35  1  0
 19 36  1  0
 20 37  1  0
 21 38  1  0
 23 39  1  0
 23 40  1  0
 24 41  1  0
 25 42  1  0
M  CHG  1  14   1
M  END
>  <UniqueID>  (32) 
30

>  <SMILES>  (32) 
O=c1ccsn1-c1ccc(S(=O)(=O)[N@H+]2CCc3ccccc3C2)cc1

>  <Energy>  (32) 
86.40720694788872

>  <Genealogy>  (32) 
O=c1ccsn1-c1ccc(S(=O)(=O)[NH+]2CCc3ccccc3C2)cc1 (protonated)
O=c1ccsn1-c1ccc(S(=O)(=O)[N@H+]2CCc3ccccc3C2)cc1 (chirality)
O=c1ccsn1-c1ccc(S(=O)(=O)[N@H+]2CCc3ccccc3C2)cc1 (3D coordinates assigned)
O=c1ccsn1-c1ccc(S(=O)(=O)[N@H+]2CCc3ccccc3C2)cc1 (nonaromatic ring conformer: 86.40720694788872 kcal/mol)

>  <smiles>  (32) 
O=c1ccsn1-c1ccc(S(=O)(=O)N2CCc3ccccc3C2)cc1

>  <score_type>  (32) 
oracle

>  <origin>  (32) 
adgpu

>  <m_score__min__energy>  (32) 
-8.6300000000000008

>  <m_primary>  (32) 
energy

$$$$
32:0
     RDKit          3D

 43 44  0  0  0  0  0  0  0  0999 V2000
   -6.8630   23.8110  -30.5030 C   0  0  0  0  0  0  0  0  0  0  0  0
   -6.0200   24.6440  -29.8860 C   0  0  0  0  0  0  0  0  0  0  0  0
   -5.2550   25.6870  -30.6430 C   0  0  0  0  0  0  0  0  0  0  0  0
   -3.8600   25.2810  -30.7680 N   0  0  0  0  0  0  0  0  0  0  0  0
   -3.3150   24.0590  -30.2530 C   0  0  0  0  0  0  0  0  0  0  0  0
   -2.6560   24.0940  -29.1810 O   0  0  0  0  0  0  0  0  0  0  0  0
   -3.4650   22.7720  -30.9600 C   0  0  0  0  0  0  0  0  0  0  0  0
   -4.1790   22.6920  -32.1660 C   0  0  0  0  0  0  0  0  0  0  0  0
   -4.3200   21.4660  -32.8230 C   0  0  0  0  0  0  0  0  0  0  0  0
   -3.7610   20.3040  -32.2760 C   0  0  0  0  0  0  0  0  0  0  0  0
   -3.9060   18.7600  -33.1100 S   0  0  0  0  0  0  0  0  0  0  0  0
   -2.6830   17.9200  -32.8610 O   0  0  0  0  0  0  0  0  0  0  0  0
   -4.0130   18.9940  -34.5910 O   0  0  0  0  0  0  0  0  0  0  0  0
   -5.3180   17.9170  -32.5410 N   0  0  0  0  0  0  0  0  0  0  0  0
   -5.2310   16.4810  -32.2520 C   0  0  0  0  0  0  0  0  0  0  0  0
   -5.6490   15.6610  -33.4680 C   0  0  0  0  0  0  0  0  0  0  0  0
   -6.5630   18.6240  -32.3960 C   0  0  0  0  0  0  0  0  0  0  0  0
   -6.8400   19.7450  -33.1970 C   0  0  0  0  0  0  0  0  0  0  0  0
   -8.0540   20.4270  -33.0640 C   0  0  0  0  0  0  0  0  0  0  0  0
   -9.0010   19.9940  -32.1330 C   0  0  0  0  0  0  0  0  0  0  0  0
   -8.7370   18.8790  -31.3340 C   0  0  0  0  0  0  0  0  0  0  0  0
   -7.5250   18.1950  -31.4650 C   0  0  0  0  0  0  0  0  0  0  0  0
   -3.0710   20.3760  -31.0590 C   0  0  0  0  0  0  0  0  0  0  0  0
   -2.9300   21.6010  -30.4010 C   0  0  0  0  0  0  0  0  0  0  0  0
   -7.4119   23.0546  -29.9229 H   0  0  0  0  0  0  0  0  0  0  0  0
   -7.0081   23.8816  -31.5911 H   0  0  0  0  0  0  0  0  0  0  0  0
   -5.8843   24.5624  -28.7975 H   0  0  0  0  0  0  0  0  0  0  0  0
   -5.6924   25.8054  -31.6453 H   0  0  0  0  0  0  0  0  0  0  0  0
   -5.3086   26.6426  -30.1007 H   0  0  0  0  0  0  0  0  0  0  0  0
   -4.6298   23.5985  -32.5962 H   0  0  0  0  0  0  0  0  0  0  0  0
   -4.8720   21.4137  -33.7730 H   0  0  0  0  0  0  0  0  0  0  0  0
   -4.1942   16.2284  -31.9850 H   0  0  0  0  0  0  0  0  0  0  0  0
   -5.9077   16.2463  -31.4171 H   0  0  0  0  0  0  0  0  0  0  0  0
   -6.1250   14.7271  -33.1345 H   0  0  0  0  0  0  0  0  0  0  0  0
   -6.3619   16.2401  -34.0733 H   0  0  0  0  0  0  0  0  0  0  0  0
   -4.7615   15.4243  -34.0733 H   0  0  0  0  0  0  0  0  0  0  0  0
   -6.0978   20.0881  -33.9328 H   0  0  0  0  0  0  0  0  0  0  0  0
   -8.2630   21.3049  -33.6930 H   0  0  0  0  0  0  0  0  0  0  0  0
   -9.9552   20.5313  -32.0289 H   0  0  0  0  0  0  0  0  0  0  0  0
   -9.4835   18.5390  -30.6011 H   0  0  0  0  0  0  0  0  0  0  0  0
   -7.3228   17.3157  -30.8358 H   0  0  0  0  0  0  0  0  0  0  0  0
   -2.6385   19.4650  -30.6196 H   0  0  0  0  0  0  0  0  0  0  0  0
   -2.3969   21.6476  -29.4399 H   0  0  0  0  0  0  0  0  0  0  0  0
  1  2  2  0
  2  3  1  0
  3  4  1  0
  4  5  1  0
  5  6  2  0
  5  7  1  0
  7  8  2  0
  8  9  1  0
  9 10  2  0
 10 11  1  0
 11 12  2  0
 11 13  2  0
 11 14  1  0
 14 15  1  0
 15 16  1  0
 14 17  1  0
 17 18  2  0
 18 19  1  0
 19 20  2  0
 20 21  1  0
 21 22  2  0
 10 23  1  0
 23 24  2  0
 24  7  1  0
 22 17  1  0
  1 25  1  0
  1 26  1  0
  2 27  1  0
  3 28  1  0
  3 29  1  0
  8 30  1  0
  9 31  1  0
 15 32  1  0
 15 33  1  0
 16 34  1  0
 16 35  1  0
 16 36  1  0
 18 37  1  0
 19 38  1  0
 20 39  1  0
 21 40  1  0
 22 41  1  0
 23 42  1  0
 24 43  1  0
M  CHG  1   4  -1
M  END
>  <UniqueID>  (33) 
31

>  <SMILES>  (33) 
C=CC[N-]C(=O)c1ccc(S(=O)(=O)N(CC)c2ccccc2)cc1

>  <Energy>  (33) 
45.107431875703995

>  <Genealogy>  (33) 
C=CC[N-]C(=O)c1ccc(S(=O)(=O)N(CC)c2ccccc2)cc1 (protonated)
C=CC[N-]C(=O)c1ccc(S(=O)(=O)N(CC)c2ccccc2)cc1 (3D coordinates assigned)
C=CC[N-]C(=O)c1ccc(S(=O)(=O)N(CC)c2ccccc2)cc1 (optimized conformer: 45.107431875703995 kcal/mol)

>  <smiles>  (33) 
C=CCNC(=O)c1ccc(S(=O)(=O)N(CC)c2ccccc2)cc1

>  <score_type>  (33) 
oracle

>  <origin>  (33) 
adgpu

>  <m_score__min__energy>  (33) 
-9.6199999999999992

>  <m_primary>  (33) 
energy

$$$$
33:0
     RDKit          3D

 46 48  0  0  0  0  0  0  0  0999 V2000
   -5.2860   17.9920  -34.6200 C   0  0  0  0  0  0  0  0  0  0  0  0
   -5.6930   18.0600  -33.2580 O   0  0  0  0  0  0  0  0  0  0  0  0
   -6.8010   18.7870  -32.7950 C   0  0  0  0  0  0  0  0  0  0  0  0
   -7.9800   18.1550  -32.3510 C   0  0  0  0  0  0  0  0  0  0  0  0
   -9.0600   18.9170  -31.8970 C   0  0  0  0  0  0  0  0  0  0  0  0
   -8.9770   20.3110  -31.8810 C   0  0  0  0  0  0  0  0  0  0  0  0
   -7.8150   20.9470  -32.3220 C   0  0  0  0  0  0  0  0  0  0  0  0
   -6.7310   20.1910  -32.7830 C   0  0  0  0  0  0  0  0  0  0  0  0
   -5.5640   20.8580  -33.2680 N   0  0  0  0  0  0  0  0  0  0  0  0
   -4.2690   21.2630  -32.1950 S   0  0  0  0  0  0  0  0  0  0  0  0
   -2.9830   21.3020  -32.9710 O   0  0  0  0  0  0  0  0  0  0  0  0
   -4.1530   20.2150  -31.1240 O   0  0  0  0  0  0  0  0  0  0  0  0
   -4.5680   22.8370  -31.4650 C   0  0  0  0  0  0  0  0  0  0  0  0
   -5.8420   23.4180  -31.5240 C   0  0  0  0  0  0  0  0  0  0  0  0
   -6.0910   24.6290  -30.8720 C   0  0  0  0  0  0  0  0  0  0  0  0
   -5.0710   25.2660  -30.1590 C   0  0  0  0  0  0  0  0  0  0  0  0
   -3.7840   24.7000  -30.1070 C   0  0  0  0  0  0  0  0  0  0  0  0
   -2.7220   25.2890  -29.3440 N   0  0  0  0  0  0  0  0  0  0  0  0
   -1.6280   24.6020  -28.7220 C   0  0  0  0  0  0  0  0  0  0  0  0
   -0.9260   23.7950  -29.3900 O   0  0  0  0  0  0  0  0  0  0  0  0
   -1.3540   24.8000  -27.2780 C   0  0  0  0  0  0  0  0  0  0  0  0
   -1.5760   26.0510  -26.6730 C   0  0  0  0  0  0  0  0  0  0  0  0
   -1.3230   26.2330  -25.3120 C   0  0  0  0  0  0  0  0  0  0  0  0
   -0.8410   25.1760  -24.5380 C   0  0  0  0  0  0  0  0  0  0  0  0
   -0.5940   23.9280  -25.1260 C   0  0  0  0  0  0  0  0  0  0  0  0
   -0.1120   22.7810  -24.2880 C   0  0  0  0  0  0  0  0  0  0  0  0
   -0.8660   23.7400  -26.4910 C   0  0  0  0  0  0  0  0  0  0  0  0
   -3.5460   23.4810  -30.7530 C   0  0  0  0  0  0  0  0  0  0  0  0
   -4.2022   17.8109  -34.6702 H   0  0  0  0  0  0  0  0  0  0  0  0
   -5.8186   17.1704  -35.1213 H   0  0  0  0  0  0  0  0  0  0  0  0
   -5.5226   18.9421  -35.1213 H   0  0  0  0  0  0  0  0  0  0  0  0
   -8.0504   17.0573  -32.3619 H   0  0  0  0  0  0  0  0  0  0  0  0
   -9.9773   18.4178  -31.5516 H   0  0  0  0  0  0  0  0  0  0  0  0
   -9.8276   20.9082  -31.5207 H   0  0  0  0  0  0  0  0  0  0  0  0
   -7.7512   22.0450  -32.3071 H   0  0  0  0  0  0  0  0  0  0  0  0
   -6.6472   22.9202  -32.0843 H   0  0  0  0  0  0  0  0  0  0  0  0
   -7.0922   25.0821  -30.9200 H   0  0  0  0  0  0  0  0  0  0  0  0
   -5.2753   26.2125  -29.6371 H   0  0  0  0  0  0  0  0  0  0  0  0
   -1.9513   26.8909  -27.2762 H   0  0  0  0  0  0  0  0  0  0  0  0
   -1.5043   27.2136  -24.8476 H   0  0  0  0  0  0  0  0  0  0  0  0
   -0.6546   25.3230  -23.4639 H   0  0  0  0  0  0  0  0  0  0  0  0
   -0.2186   23.0348  -23.2230 H   0  0  0  0  0  0  0  0  0  0  0  0
   -0.7100   21.8856  -24.5132 H   0  0  0  0  0  0  0  0  0  0  0  0
    0.9461   22.5815  -24.5132 H   0  0  0  0  0  0  0  0  0  0  0  0
   -0.6960   22.7547  -26.9495 H   0  0  0  0  0  0  0  0  0  0  0  0
   -2.5469   23.0237  -30.7015 H   0  0  0  0  0  0  0  0  0  0  0  0
  1  2  1  0
  2  3  1  0
  3  4  2  0
  4  5  1  0
  5  6  2  0
  6  7  1  0
  7  8  2  0
  8  9  1  0
  9 10  1  0
 10 11  2  0
 10 12  2  0
 10 13  1  0
 13 14  2  0
 14 15  1  0
 15 16  2  0
 16 17  1  0
 17 18  1  0
 18 19  1  0
 19 20  2  0
 19 21  1  0
 21 22  2  0
 22 23  1  0
 23 24  2  0
 24 25  1  0
 25 26  1  0
 25 27  2  0
 17 28  2  0
  8  3  1  0
 28 13  1  0
 27 21  1  0
  1 29  1  0
  1 30  1  0
  1 31  1  0
  4 32  1  0
  5 33  1  0
  6 34  1  0
  7 35  1  0
 14 36  1  0
 15 37  1  0
 16 38  1  0
 22 39  1  0
 23 40  1  0
 24 41  1  0
 26 42  1  0
 26 43  1  0
 26 44  1  0
 27 45  1  0
 28 46  1  0
M  CHG  2   9  -1  18  -1
M  END
>  <UniqueID>  (34) 
32

>  <SMILES>  (34) 
COc1ccccc1[N-]S(=O)(=O)c1cccc([N-]C(=O)c2cccc(C)c2)c1

>  <Energy>  (34) 
59.21281481229234

>  <Genealogy>  (34) 
COc1ccccc1[N-]S(=O)(=O)c1cccc([N-]C(=O)c2cccc(C)c2)c1 (protonated)
COc1ccccc1[N-]S(=O)(=O)c1cccc([N-]C(=O)c2cccc(C)c2)c1 (3D coordinates assigned)
COc1ccccc1[N-]S(=O)(=O)c1cccc([N-]C(=O)c2cccc(C)c2)c1 (optimized conformer: 59.21281481229234 kcal/mol)

>  <smiles>  (34) 
COc1ccccc1NS(=O)(=O)c1cccc(NC(=O)c2cccc(C)c2)c1

>  <score_type>  (34) 
oracle

>  <origin>  (34) 
adgpu

>  <m_score__min__energy>  (34) 
-10.91

>  <m_primary>  (34) 
energy

$$$$
34:0
     RDKit          3D

 55 59  0  0  0  0  0  0  0  0999 V2000
    4.1251   23.9999  -37.2157 H   0  0  0  0  0  0  0  0  0  0  0  0
    3.0950   23.9580  -36.8320 C   0  0  0  0  0  0  0  0  0  0  0  0
    2.2650   25.0200  -37.0020 N   0  0  0  0  0  0  0  0  0  0  0  0
    0.9800   25.0220  -36.5460 C   0  0  0  0  0  0  0  0  0  0  0  0
    0.1460   26.1860  -36.7600 N   0  0  0  0  0  0  0  0  0  0  0  0
   -0.4710   26.4270  -38.0720 C   0  0  0  0  0  0  0  0  0  0  0  0
    0.2995   26.3404  -38.8523 H   0  0  0  0  0  0  0  0  0  0  0  0
   -1.2645   25.6810  -38.2262 H   0  0  0  0  0  0  0  0  0  0  0  0
   -1.0970   27.8220  -38.1410 C   0  0  0  0  0  0  0  0  0  0  0  0
   -0.2990   28.5791  -38.1416 H   0  0  0  0  0  0  0  0  0  0  0  0
   -1.6920   27.9039  -39.0625 H   0  0  0  0  0  0  0  0  0  0  0  0
   -1.9730   28.0410  -36.9830 N   0  0  0  0  0  0  0  0  0  0  0  0
   -2.3900   28.9970  -37.0620 H   0  0  0  0  0  0  0  0  0  0  0  0
   -2.7620   27.3530  -37.0250 H   0  0  0  0  0  0  0  0  0  0  0  0
   -1.2830   27.9170  -35.6790 C   0  0  0  0  0  0  0  0  0  0  0  0
   -1.1624   28.9257  -35.2570 H   0  0  0  0  0  0  0  0  0  0  0  0
   -1.9087   27.2613  -35.0556 H   0  0  0  0  0  0  0  0  0  0  0  0
    0.1100   27.2550  -35.7510 C   0  0  0  0  0  0  0  0  0  0  0  0
    0.8562   28.0195  -36.0132 H   0  0  0  0  0  0  0  0  0  0  0  0
    0.3329   26.8114  -34.7694 H   0  0  0  0  0  0  0  0  0  0  0  0
    0.4960   23.8840  -35.8740 C   0  0  0  0  0  0  0  0  0  0  0  0
   -0.5369   23.8673  -35.4960 H   0  0  0  0  0  0  0  0  0  0  0  0
    1.3310   22.7680  -35.6850 C   0  0  0  0  0  0  0  0  0  0  0  0
    0.8310   21.5610  -34.9770 C   0  0  0  0  0  0  0  0  0  0  0  0
    1.7290   20.5880  -34.5010 C   0  0  0  0  0  0  0  0  0  0  0  0
    2.8092   20.7135  -34.6668 H   0  0  0  0  0  0  0  0  0  0  0  0
    1.2580   19.4650  -33.8200 C   0  0  0  0  0  0  0  0  0  0  0  0
    1.9688   18.7153  -33.4423 H   0  0  0  0  0  0  0  0  0  0  0  0
   -0.1120   19.2890  -33.6160 C   0  0  0  0  0  0  0  0  0  0  0  0
   -0.4755   18.4111  -33.0617 H   0  0  0  0  0  0  0  0  0  0  0  0
   -1.0230   20.2250  -34.1140 C   0  0  0  0  0  0  0  0  0  0  0  0
   -2.4230   20.0470  -33.8500 N   0  0  0  0  0  0  0  0  0  0  0  0
   -3.1830   20.7510  -33.0500 C   0  0  0  0  0  0  0  0  0  0  0  0
   -2.7170   21.9230  -32.4180 C   0  0  0  0  0  0  0  0  0  0  0  0
   -1.6852   22.2654  -32.5858 H   0  0  0  0  0  0  0  0  0  0  0  0
   -3.5640   22.6470  -31.5810 C   0  0  0  0  0  0  0  0  0  0  0  0
   -3.1933   23.5534  -31.0801 H   0  0  0  0  0  0  0  0  0  0  0  0
   -4.8430   22.2410  -31.3800 N   0  0  0  0  0  0  0  0  0  0  0  0
   -5.3440   21.1310  -31.9830 C   0  0  0  0  0  0  0  0  0  0  0  0
   -6.6720   20.7590  -31.7490 C   0  0  0  0  0  0  0  0  0  0  0  0
   -7.2944   21.3590  -31.0688 H   0  0  0  0  0  0  0  0  0  0  0  0
   -7.2180   19.6260  -32.3750 C   0  0  0  0  0  0  0  0  0  0  0  0
   -8.6360   19.2020  -32.0810 C   0  0  0  0  0  0  0  0  0  0  0  0
   -9.0720   19.7480  -30.8860 F   0  0  0  0  0  0  0  0  0  0  0  0
   -9.4610   19.6350  -33.1020 F   0  0  0  0  0  0  0  0  0  0  0  0
   -8.7240   17.8240  -31.9830 F   0  0  0  0  0  0  0  0  0  0  0  0
   -6.4000   18.8430  -33.2050 C   0  0  0  0  0  0  0  0  0  0  0  0
   -6.8086   17.9350  -33.6724 H   0  0  0  0  0  0  0  0  0  0  0  0
   -5.0720   19.2060  -33.4430 C   0  0  0  0  0  0  0  0  0  0  0  0
   -4.4478   18.5884  -34.1055 H   0  0  0  0  0  0  0  0  0  0  0  0
   -4.5260   20.3570  -32.8410 C   0  0  0  0  0  0  0  0  0  0  0  0
   -0.5470   21.3760  -34.7660 C   0  0  0  0  0  0  0  0  0  0  0  0
   -1.2589   22.1388  -35.1143 H   0  0  0  0  0  0  0  0  0  0  0  0
    2.6450   22.8160  -36.1730 C   0  0  0  0  0  0  0  0  0  0  0  0
    3.3171   21.9560  -36.0361 H   0  0  0  0  0  0  0  0  0  0  0  0
  1  2  1  0
  2  3  2  0
  3  4  1  0
  4  5  1  0
  5  6  1  0
  6  7  1  0
  6  8  1  0
  6  9  1  0
  9 10  1  0
  9 11  1  0
  9 12  1  0
 12 13  1  0
 12 14  1  0
 12 15  1  0
 15 16  1  0
 15 17  1  0
 15 18  1  0
 18 19  1  0
 18 20  1  0
  4 21  2  0
 21 22  1  0
 21 23  1  0
 23 24  1  0
 24 25  2  0
 25 26  1  0
 25 27  1  0
 27 28  1  0
 27 29  2  0
 29 30  1  0
 29 31  1  0
 31 32  1  0
 32 33  2  0
 33 34  1  0
 34 35  1  0
 34 36  2  0
 36 37  1  0
 36 38  1  0
 38 39  1  0
 39 40  2  0
 40 41  1  0
 40 42  1  0
 42 43  1  0
 43 44  1  0
 43 45  1  0
 43 46  1  0
 42 47  2  0
 47 48  1  0
 47 49  1  0
 49 50  1  0
 49 51  2  0
 31 52  2  0
 52 53  1  0
 23 54  2  0
 54 55  1  0
 54  2  1  0
 18  5  1  0
 52 24  1  0
 51 33  1  0
 51 39  1  0
M  CHG  2  12   1  38  -1
M  END
>  <UniqueID>  (35) 
33

>  <SMILES>  (35) 
FC(F)(F)c1ccc2/c(=N/c3cccc(-c4ccnc(N5CC[NH2+]CC5)c4)c3)cc[n-]c2c1

>  <Energy>  (35) 
87.9654823209117

>  <Genealogy>  (35) 
FC(F)(F)c1ccc2c(=Nc3cccc(-c4ccnc(N5CC[NH2+]CC5)c4)c3)cc[n-]c2c1 (protonated)
FC(F)(F)c1ccc2/c(=N/c3cccc(-c4ccnc(N5CC[NH2+]CC5)c4)c3)cc[n-]c2c1 (cis-trans isomerization)
FC(F)(F)c1ccc2/c(=N/c3cccc(-c4ccnc(N5CC[NH2+]CC5)c4)c3)cc[n-]c2c1 (3D coordinates assigned)
FC(F)(F)c1ccc2/c(=N/c3cccc(-c4ccnc(N5CC[NH2+]CC5)c4)c3)cc[n-]c2c1 (nonaromatic ring conformer: 87.9654823209117 kcal/mol)

>  <smiles>  (35) 
FC(F)(F)c1ccc2c(=Nc3cccc(-c4ccnc(N5CCNCC5)c4)c3)cc[nH]c2c1

>  <score_type>  (35) 
oracle

>  <origin>  (35) 
adgpu

>  <m_score__min__energy>  (35) 
-9.6199999999999992

>  <m_primary>  (35) 
energy

$$$$
35:0
     RDKit          3D

 45 47  0  0  0  0  0  0  0  0999 V2000
   -4.2220   24.5110  -27.3580 C   0  0  0  0  0  0  0  0  0  0  0  0
   -3.2110   23.6910  -28.1110 C   0  0  0  0  0  0  0  0  0  0  0  0
   -2.6250   22.5690  -27.5000 C   0  0  0  0  0  0  0  0  0  0  0  0
   -1.6980   21.7890  -28.1940 C   0  0  0  0  0  0  0  0  0  0  0  0
   -1.3580   22.1130  -29.5080 C   0  0  0  0  0  0  0  0  0  0  0  0
   -1.9360   23.2220  -30.1300 C   0  0  0  0  0  0  0  0  0  0  0  0
   -2.8550   24.0300  -29.4340 C   0  0  0  0  0  0  0  0  0  0  0  0
   -3.4900   25.1520  -30.0680 N   0  0  0  0  0  0  0  0  0  0  0  0
   -4.8550   25.2340  -30.5020 C   0  0  0  0  0  0  0  0  0  0  0  0
   -5.4970   26.3120  -30.3670 O   0  0  0  0  0  0  0  0  0  0  0  0
   -5.5260   24.0380  -31.0620 C   0  0  0  0  0  0  0  0  0  0  0  0
   -6.9250   23.9120  -31.0040 C   0  0  0  0  0  0  0  0  0  0  0  0
   -7.5580   22.7910  -31.5450 C   0  0  0  0  0  0  0  0  0  0  0  0
   -6.8070   21.7790  -32.1470 C   0  0  0  0  0  0  0  0  0  0  0  0
   -7.4500   20.7120  -32.6840 F   0  0  0  0  0  0  0  0  0  0  0  0
   -5.4080   21.8830  -32.2060 C   0  0  0  0  0  0  0  0  0  0  0  0
   -4.4290   20.6360  -32.9840 S   0  0  0  0  0  0  0  0  0  0  0  0
   -5.1730   20.0270  -34.1390 O   0  0  0  0  0  0  0  0  0  0  0  0
   -4.1400   19.5480  -31.9880 O   0  0  0  0  0  0  0  0  0  0  0  0
   -2.9270   21.3080  -33.5420 N   0  0  0  0  0  0  0  0  0  0  0  0
   -1.8070   20.5730  -32.9560 C   0  0  0  0  0  0  0  0  0  0  0  0
   -0.5320   20.9740  -33.6290 C   0  0  0  0  0  0  0  0  0  0  0  0
   -0.4530   21.9270  -34.5780 N   0  0  0  0  0  0  0  0  0  0  0  0
    0.8220   22.0160  -34.9300 N   0  0  0  0  0  0  0  0  0  0  0  0
    1.5040   21.1220  -34.1880 C   0  0  0  0  0  0  0  0  0  0  0  0
    0.6820   20.4620  -33.3540 N   0  0  0  0  0  0  0  0  0  0  0  0
    1.0290   19.3960  -32.4190 C   0  0  0  0  0  0  0  0  0  0  0  0
   -4.7760   23.0140  -31.6690 C   0  0  0  0  0  0  0  0  0  0  0  0
   -4.0652   24.3838  -26.2767 H   0  0  0  0  0  0  0  0  0  0  0  0
   -4.1044   25.5720  -27.6233 H   0  0  0  0  0  0  0  0  0  0  0  0
   -5.2359   24.1769  -27.6233 H   0  0  0  0  0  0  0  0  0  0  0  0
   -2.8986   22.3037  -26.4681 H   0  0  0  0  0  0  0  0  0  0  0  0
   -1.2356   20.9190  -27.7049 H   0  0  0  0  0  0  0  0  0  0  0  0
   -0.6327   21.4932  -30.0555 H   0  0  0  0  0  0  0  0  0  0  0  0
   -1.6716   23.4654  -31.1696 H   0  0  0  0  0  0  0  0  0  0  0  0
   -7.5253   24.7020  -30.5291 H   0  0  0  0  0  0  0  0  0  0  0  0
   -8.6535   22.7046  -31.4968 H   0  0  0  0  0  0  0  0  0  0  0  0
   -2.9000   21.1710  -34.5800 H   0  0  0  0  0  0  0  0  0  0  0  0
   -1.7412   20.8023  -31.8822 H   0  0  0  0  0  0  0  0  0  0  0  0
   -1.9678   19.4937  -33.0946 H   0  0  0  0  0  0  0  0  0  0  0  0
    2.5891   20.9544  -34.2556 H   0  0  0  0  0  0  0  0  0  0  0  0
    0.9105   19.7599  -31.3877 H   0  0  0  0  0  0  0  0  0  0  0  0
    0.3649   18.5344  -32.5824 H   0  0  0  0  0  0  0  0  0  0  0  0
    2.0730   19.0904  -32.5824 H   0  0  0  0  0  0  0  0  0  0  0  0
   -3.6808   23.1015  -31.7230 H   0  0  0  0  0  0  0  0  0  0  0  0
  1  2  1  0
  2  3  2  0
  3  4  1  0
  4  5  2  0
  5  6  1  0
  6  7  2  0
  7  8  1  0
  8  9  1  0
  9 10  2  0
  9 11  1  0
 11 12  2  0
 12 13  1  0
 13 14  2  0
 14 15  1  0
 14 16  1  0
 16 17  1  0
 17 18  2  0
 17 19  2  0
 17 20  1  0
 20 21  1  0
 21 22  1  0
 22 23  2  0
 23 24  1  0
 24 25  2  0
 25 26  1  0
 26 27  1  0
 16 28  2  0
  7  2  1  0
 28 11  1  0
 26 22  1  0
  1 29  1  0
  1 30  1  0
  1 31  1  0
  3 32  1  0
  4 33  1  0
  5 34  1  0
  6 35  1  0
 12 36  1  0
 13 37  1  0
 20 38  1  0
 21 39  1  0
 21 40  1  0
 25 41  1  0
 27 42  1  0
 27 43  1  0
 27 44  1  0
 28 45  1  0
M  CHG  1   8  -1
M  END
>  <UniqueID>  (36) 
34

>  <SMILES>  (36) 
Cc1ccccc1[N-]C(=O)c1ccc(F)c(S(=O)(=O)NCc2nncn2C)c1

>  <Energy>  (36) 
82.29458385978138

>  <Genealogy>  (36) 
Cc1ccccc1[N-]C(=O)c1ccc(F)c(S(=O)(=O)NCc2nncn2C)c1 (protonated)
Cc1ccccc1[N-]C(=O)c1ccc(F)c(S(=O)(=O)NCc2nncn2C)c1 (3D coordinates assigned)
Cc1ccccc1[N-]C(=O)c1ccc(F)c(S(=O)(=O)NCc2nncn2C)c1 (optimized conformer: 82.29458385978138 kcal/mol)

>  <smiles>  (36) 
Cc1ccccc1NC(=O)c1ccc(F)c(S(=O)(=O)NCc2nncn2C)c1

>  <score_type>  (36) 
oracle

>  <origin>  (36) 
adgpu

>  <m_score__min__energy>  (36) 
-10.300000000000001

>  <m_primary>  (36) 
energy

$$$$
36:0
     RDKit          3D

 35 37  0  0  0  0  0  0  0  0999 V2000
   -1.5540   26.3280  -28.2740 H   0  0  0  0  0  0  0  0  0  0  0  0
   -1.6090   25.6730  -29.0860 N   0  0  0  0  0  0  0  0  0  0  0  0
   -1.2260   24.4430  -28.9880 C   0  0  0  0  0  0  0  0  0  0  0  0
   -1.3080   23.6240  -30.0680 N   0  0  0  0  0  0  0  0  0  0  0  0
   -0.9020   22.3270  -30.0060 C   0  0  0  0  0  0  0  0  0  0  0  0
   -1.0260   21.4850  -31.2160 C   0  0  0  0  0  0  0  0  0  0  0  0
    0.1510   21.2210  -31.9360 C   0  0  0  0  0  0  0  0  0  0  0  0
    1.0786   21.7477  -31.6673 H   0  0  0  0  0  0  0  0  0  0  0  0
    0.1640   20.2980  -32.9910 C   0  0  0  0  0  0  0  0  0  0  0  0
    1.3990   20.0130  -33.7610 C   0  0  0  0  0  0  0  0  0  0  0  0
    1.6970   20.7360  -34.7490 O   0  0  0  0  0  0  0  0  0  0  0  0
    2.2600   18.9230  -33.4200 N   0  0  0  0  0  0  0  0  0  0  0  0
    3.1550   18.7850  -33.9400 H   0  0  0  0  0  0  0  0  0  0  0  0
    1.9820   18.1980  -32.7230 H   0  0  0  0  0  0  0  0  0  0  0  0
   -1.0290   19.6400  -33.3070 C   0  0  0  0  0  0  0  0  0  0  0  0
   -1.0469   18.9035  -34.1238 H   0  0  0  0  0  0  0  0  0  0  0  0
   -2.1640   19.9040  -32.6130 N   0  0  0  0  0  0  0  0  0  0  0  0
   -2.2240   20.8080  -31.5990 C   0  0  0  0  0  0  0  0  0  0  0  0
   -3.3940   21.0020  -31.0480 N   0  0  0  0  0  0  0  0  0  0  0  0
   -3.7940   21.9990  -30.1000 C   0  0  0  0  0  0  0  0  0  0  0  0
   -3.5680   21.7840  -28.7340 C   0  0  0  0  0  0  0  0  0  0  0  0
   -3.0826   20.8560  -28.3975 H   0  0  0  0  0  0  0  0  0  0  0  0
   -3.9580   22.7460  -27.7980 C   0  0  0  0  0  0  0  0  0  0  0  0
   -3.7593   22.5842  -26.7283 H   0  0  0  0  0  0  0  0  0  0  0  0
   -4.6000   23.9130  -28.2200 C   0  0  0  0  0  0  0  0  0  0  0  0
   -4.8922   24.6759  -27.4834 H   0  0  0  0  0  0  0  0  0  0  0  0
   -4.8720   24.1130  -29.5780 C   0  0  0  0  0  0  0  0  0  0  0  0
   -5.6910   25.5760  -30.0960 Cl  0  0  0  0  0  0  0  0  0  0  0  0
   -4.4890   23.1470  -30.5170 C   0  0  0  0  0  0  0  0  0  0  0  0
   -4.7870   23.3200  -31.8300 F   0  0  0  0  0  0  0  0  0  0  0  0
   -0.4130   21.8130  -28.7900 C   0  0  0  0  0  0  0  0  0  0  0  0
    0.1350   20.1430  -28.6420 Cl  0  0  0  0  0  0  0  0  0  0  0  0
   -0.3330   22.6780  -27.6920 C   0  0  0  0  0  0  0  0  0  0  0  0
    0.1170   22.2690  -26.5880 O   0  0  0  0  0  0  0  0  0  0  0  0
   -0.7370   23.9680  -27.8130 N   0  0  0  0  0  0  0  0  0  0  0  0
  1  2  1  0
  2  3  2  3
  3  4  1  0
  4  5  1  0
  5  6  1  0
  6  7  2  0
  7  8  1  0
  7  9  1  0
  9 10  1  0
 10 11  2  0
 10 12  1  0
 12 13  1  0
 12 14  1  0
  9 15  2  0
 15 16  1  0
 15 17  1  0
 17 18  1  0
 18 19  2  0
 19 20  1  0
 20 21  2  0
 21 22  1  0
 21 23  1  0
 23 24  1  0
 23 25  2  0
 25 26  1  0
 25 27  1  0
 27 28  1  0
 27 29  2  0
 29 30  1  0
  5 31  2  0
 31 32  1  0
 31 33  1  0
 33 34  2  0
 33 35  1  0
 35  3  1  0
 18  6  1  0
 29 20  1  0
M  CHG  3   4  -1  17  -1  35  -1
M  END
>  <UniqueID>  (37) 
35

>  <SMILES>  (37) 
N=c1[n-]c(-c2cc(C(N)=O)c[n-]/c2=N/c2cccc(Cl)c2F)c(Cl)c(=O)[n-]1

>  <Energy>  (37) 
62.24088346820618

>  <Genealogy>  (37) 
N=c1[n-]c(-c2cc(C(N)=O)c[n-]c2=Nc2cccc(Cl)c2F)c(Cl)c(=O)[n-]1 (protonated)
N=c1[n-]c(-c2cc(C(N)=O)c[n-]/c2=N/c2cccc(Cl)c2F)c(Cl)c(=O)[n-]1 (cis-trans isomerization)
N=c1[n-]c(-c2cc(C(N)=O)c[n-]/c2=N/c2cccc(Cl)c2F)c(Cl)c(=O)[n-]1 (3D coordinates assigned)
N=c1[n-]c(-c2cc(C(N)=O)c[n-]/c2=N/c2cccc(Cl)c2F)c(Cl)c(=O)[n-]1 (optimized conformer: 62.24088346820618 kcal/mol)

>  <smiles>  (37) 
N=c1[nH]c(-c2cc(C(N)=O)c[nH]c2=Nc2cccc(Cl)c2F)c(Cl)c(=O)[nH]1

>  <score_type>  (37) 
oracle

>  <origin>  (37) 
adgpu

>  <m_score__min__energy>  (37) 
-10.26

>  <m_primary>  (37) 
energy

$$$$
37:0
     RDKit          3D

 50 53  0  0  0  0  0  0  0  0999 V2000
   -9.6320   20.8130  -31.8680 C   0  0  0  0  0  0  0  0  0  0  0  0
   -8.3160   21.5340  -31.8740 C   0  0  0  0  0  0  0  0  0  0  0  0
   -7.2060   20.9560  -32.5010 C   0  0  0  0  0  0  0  0  0  0  0  0
   -5.9600   21.5990  -32.4850 C   0  0  0  0  0  0  0  0  0  0  0  0
   -4.7750   20.9380  -33.1350 C   0  0  0  0  0  0  0  0  0  0  0  0
   -5.8190   22.8330  -31.8160 C   0  0  0  0  0  0  0  0  0  0  0  0
   -4.5410   23.4840  -31.8010 N   0  0  0  0  0  0  0  0  0  0  0  0
   -3.9250   24.0210  -30.6240 C   0  0  0  0  0  0  0  0  0  0  0  0
   -3.8940   25.2700  -30.4670 O   0  0  0  0  0  0  0  0  0  0  0  0
   -3.3620   23.1340  -29.5540 C   0  0  0  0  0  0  0  0  0  0  0  0
   -3.8450   21.4050  -29.8770 S   0  0  0  0  0  0  0  0  0  0  0  0
   -2.2550   20.9540  -30.5900 C   0  0  0  0  0  0  0  0  0  0  0  0
   -2.1290   20.9970  -31.9480 N   0  0  0  0  0  0  0  0  0  0  0  0
   -0.9440   20.6870  -32.5250 C   0  0  0  0  0  0  0  0  0  0  0  0
   -0.6870   20.7020  -33.8970 C   0  0  0  0  0  0  0  0  0  0  0  0
    0.6280   20.3430  -34.1930 C   0  0  0  0  0  0  0  0  0  0  0  0
    1.4520   20.0150  -32.7490 S   0  0  0  0  0  0  0  0  0  0  0  0
    0.1350   20.3290  -31.7540 C   0  0  0  0  0  0  0  0  0  0  0  0
    0.0230   20.2760  -30.3730 C   0  0  0  0  0  0  0  0  0  0  0  0
    1.0170   19.9480  -29.6670 O   0  0  0  0  0  0  0  0  0  0  0  0
   -1.1850   20.5870  -29.7980 N   0  0  0  0  0  0  0  0  0  0  0  0
   -1.3230   20.5370  -28.3670 C   0  0  0  0  0  0  0  0  0  0  0  0
   -1.8980   19.4080  -27.7640 C   0  0  0  0  0  0  0  0  0  0  0  0
   -2.0260   19.3410  -26.3750 C   0  0  0  0  0  0  0  0  0  0  0  0
   -1.5880   20.4030  -25.5790 C   0  0  0  0  0  0  0  0  0  0  0  0
   -1.0230   21.5360  -26.1730 C   0  0  0  0  0  0  0  0  0  0  0  0
   -0.8910   21.6100  -27.5640 C   0  0  0  0  0  0  0  0  0  0  0  0
   -0.1890   23.0510  -28.2850 Cl  0  0  0  0  0  0  0  0  0  0  0  0
   -6.9240   23.3900  -31.1300 C   0  0  0  0  0  0  0  0  0  0  0  0
   -6.8150   24.6690  -30.3420 C   0  0  0  0  0  0  0  0  0  0  0  0
   -8.1670   22.7430  -31.1830 C   0  0  0  0  0  0  0  0  0  0  0  0
   -9.9499   20.6388  -30.8295 H   0  0  0  0  0  0  0  0  0  0  0  0
  -10.3869   21.4235  -32.3851 H   0  0  0  0  0  0  0  0  0  0  0  0
   -9.5238   19.8482  -32.3851 H   0  0  0  0  0  0  0  0  0  0  0  0
   -7.3122   19.9874  -33.0115 H   0  0  0  0  0  0  0  0  0  0  0  0
   -4.0949   20.5586  -32.3581 H   0  0  0  0  0  0  0  0  0  0  0  0
   -5.1194   20.1017  -33.7611 H   0  0  0  0  0  0  0  0  0  0  0  0
   -4.2443   21.6704  -33.7611 H   0  0  0  0  0  0  0  0  0  0  0  0
   -2.2649   23.2135  -29.5521 H   0  0  0  0  0  0  0  0  0  0  0  0
   -3.7552   23.4468  -28.5754 H   0  0  0  0  0  0  0  0  0  0  0  0
   -1.4360   20.9667  -34.6579 H   0  0  0  0  0  0  0  0  0  0  0  0
    1.0609   20.2825  -35.2024 H   0  0  0  0  0  0  0  0  0  0  0  0
   -2.2492   18.5727  -28.3876 H   0  0  0  0  0  0  0  0  0  0  0  0
   -2.4721   18.4512  -25.9068 H   0  0  0  0  0  0  0  0  0  0  0  0
   -1.6877   20.3477  -24.4849 H   0  0  0  0  0  0  0  0  0  0  0  0
   -0.6813   22.3717  -25.5446 H   0  0  0  0  0  0  0  0  0  0  0  0
   -6.8345   24.4397  -29.2663 H   0  0  0  0  0  0  0  0  0  0  0  0
   -5.8705   25.1744  -30.5921 H   0  0  0  0  0  0  0  0  0  0  0  0
   -7.6603   25.3269  -30.5921 H   0  0  0  0  0  0  0  0  0  0  0  0
   -9.0348   23.1901  -30.6761 H   0  0  0  0  0  0  0  0  0  0  0  0
  1  2  1  0
  2  3  2  0
  3  4  1  0
  4  5  1  0
  4  6  2  0
  6  7  1  0
  7  8  1  0
  8  9  2  0
  8 10  1  0
 10 11  1  0
 11 12  1  0
 12 13  2  0
 13 14  1  0
 14 15  1  0
 15 16  2  0
 16 17  1  0
 17 18  1  0
 18 19  1  0
 19 20  2  0
 19 21  1  0
 21 22  1  0
 22 23  2  0
 23 24  1  0
 24 25  2  0
 25 26  1  0
 26 27  2  0
 27 28  1  0
  6 29  1  0
 29 30  1  0
 29 31  2  0
 31  2  1  0
 21 12  1  0
 27 22  1  0
 18 14  2  0
  1 32  1  0
  1 33  1  0
  1 34  1  0
  3 35  1  0
  5 36  1  0
  5 37  1  0
  5 38  1  0
 10 39  1  0
 10 40  1  0
 15 41  1  0
 16 42  1  0
 23 43  1  0
 24 44  1  0
 25 45  1  0
 26 46  1  0
 30 47  1  0
 30 48  1  0
 30 49  1  0
 31 50  1  0
M  CHG  1   7  -1
M  END
>  <UniqueID>  (38) 
36

>  <SMILES>  (38) 
Cc1cc(C)c([N-]C(=O)CSc2nc3ccsc3c(=O)n2-c2ccccc2Cl)c(C)c1

>  <Energy>  (38) 
95.73753776196065

>  <Genealogy>  (38) 
Cc1cc(C)c([N-]C(=O)CSc2nc3ccsc3c(=O)n2-c2ccccc2Cl)c(C)c1 (protonated)
Cc1cc(C)c([N-]C(=O)CSc2nc3ccsc3c(=O)n2-c2ccccc2Cl)c(C)c1 (3D coordinates assigned)
Cc1cc(C)c([N-]C(=O)CSc2nc3ccsc3c(=O)n2-c2ccccc2Cl)c(C)c1 (optimized conformer: 95.73753776196065 kcal/mol)

>  <smiles>  (38) 
Cc1cc(C)c(NC(=O)CSc2nc3ccsc3c(=O)n2-c2ccccc2Cl)c(C)c1

>  <score_type>  (38) 
oracle

>  <origin>  (38) 
adgpu

>  <m_score__min__energy>  (38) 
-11.140000000000001

>  <m_primary>  (38) 
energy

$$$$
38:0
     RDKit          3D

 46 48  0  0  0  0  0  0  0  0999 V2000
   -8.8060   21.1160  -32.0880 C   0  0  0  0  0  0  0  0  0  0  0  0
   -7.8120   20.1060  -32.5990 C   0  0  0  0  0  0  0  0  0  0  0  0
   -6.6980   20.5500  -33.3300 C   0  0  0  0  0  0  0  0  0  0  0  0
   -5.7370   19.6440  -33.7850 C   0  0  0  0  0  0  0  0  0  0  0  0
   -5.8600   18.2810  -33.4960 C   0  0  0  0  0  0  0  0  0  0  0  0
   -4.6520   17.1310  -34.0740 S   0  0  0  0  0  0  0  0  0  0  0  0
   -4.4010   17.3310  -35.5420 O   0  0  0  0  0  0  0  0  0  0  0  0
   -5.1610   15.7330  -33.8670 O   0  0  0  0  0  0  0  0  0  0  0  0
   -3.1840   17.3250  -33.1730 N   0  0  0  0  0  0  0  0  0  0  0  0
   -2.4200   18.5350  -33.1780 C   0  0  0  0  0  0  0  0  0  0  0  0
   -2.5590   19.4240  -32.1060 C   0  0  0  0  0  0  0  0  0  0  0  0
   -1.8730   20.6470  -32.1070 C   0  0  0  0  0  0  0  0  0  0  0  0
   -2.1120   21.8160  -30.8140 S   0  0  0  0  0  0  0  0  0  0  0  0
   -2.7310   21.1720  -29.6050 O   0  0  0  0  0  0  0  0  0  0  0  0
   -0.7780   22.3880  -30.4220 O   0  0  0  0  0  0  0  0  0  0  0  0
   -3.1370   23.0950  -31.3780 N   0  0  0  0  0  0  0  0  0  0  0  0
   -4.4710   23.3550  -30.9190 C   0  0  0  0  0  0  0  0  0  0  0  0
   -5.4510   22.3440  -30.8610 C   0  0  0  0  0  0  0  0  0  0  0  0
   -6.7350   22.6350  -30.3900 C   0  0  0  0  0  0  0  0  0  0  0  0
   -7.0550   23.9300  -29.9760 C   0  0  0  0  0  0  0  0  0  0  0  0
   -6.0960   24.9420  -30.0480 C   0  0  0  0  0  0  0  0  0  0  0  0
   -4.8080   24.6580  -30.5170 C   0  0  0  0  0  0  0  0  0  0  0  0
   -3.8640   25.6790  -30.5920 O   0  0  0  0  0  0  0  0  0  0  0  0
   -1.0210   20.9630  -33.1720 C   0  0  0  0  0  0  0  0  0  0  0  0
   -0.8460   20.0590  -34.2210 C   0  0  0  0  0  0  0  0  0  0  0  0
   -1.5360   18.8440  -34.2260 C   0  0  0  0  0  0  0  0  0  0  0  0
   -1.3130   17.9670  -35.2350 F   0  0  0  0  0  0  0  0  0  0  0  0
   -6.9620   17.8290  -32.7600 C   0  0  0  0  0  0  0  0  0  0  0  0
   -7.9450   18.7270  -32.3110 C   0  0  0  0  0  0  0  0  0  0  0  0
   -9.1310   18.2000  -31.5490 C   0  0  0  0  0  0  0  0  0  0  0  0
   -8.8012   21.1111  -30.9880 H   0  0  0  0  0  0  0  0  0  0  0  0
   -8.5312   22.1172  -32.4514 H   0  0  0  0  0  0  0  0  0  0  0  0
   -9.8115   20.8572  -32.4514 H   0  0  0  0  0  0  0  0  0  0  0  0
   -6.5810   21.6221  -33.5465 H   0  0  0  0  0  0  0  0  0  0  0  0
   -4.8799   20.0040  -34.3730 H   0  0  0  0  0  0  0  0  0  0  0  0
   -3.2095   19.1621  -31.2585 H   0  0  0  0  0  0  0  0  0  0  0  0
   -5.2051   21.3227  -31.1873 H   0  0  0  0  0  0  0  0  0  0  0  0
   -7.4955   21.8415  -30.3454 H   0  0  0  0  0  0  0  0  0  0  0  0
   -8.0621   24.1524  -29.5934 H   0  0  0  0  0  0  0  0  0  0  0  0
   -6.3531   25.9649  -29.7355 H   0  0  0  0  0  0  0  0  0  0  0  0
   -0.4885   21.9255  -33.1821 H   0  0  0  0  0  0  0  0  0  0  0  0
   -0.1622   20.3041  -35.0470 H   0  0  0  0  0  0  0  0  0  0  0  0
   -7.0594   16.7576  -32.5304 H   0  0  0  0  0  0  0  0  0  0  0  0
   -8.9401   18.2848  -30.4690 H   0  0  0  0  0  0  0  0  0  0  0  0
  -10.0246   18.7858  -31.8105 H   0  0  0  0  0  0  0  0  0  0  0  0
   -9.2952   17.1442  -31.8105 H   0  0  0  0  0  0  0  0  0  0  0  0
  1  2  1  0
  2  3  2  0
  3  4  1  0
  4  5  2  0
  5  6  1  0
  6  7  2  0
  6  8  2  0
  6  9  1  0
  9 10  1  0
 10 11  2  0
 11 12  1  0
 12 13  1  0
 13 14  2  0
 13 15  2  0
 13 16  1  0
 16 17  1  0
 17 18  2  0
 18 19  1  0
 19 20  2  0
 20 21  1  0
 21 22  2  0
 22 23  1  0
 12 24  2  0
 24 25  1  0
 25 26  2  0
 26 27  1  0
  5 28  1  0
 28 29  2  0
 29 30  1  0
 29  2  1  0
 26 10  1  0
 22 17  1  0
  1 31  1  0
  1 32  1  0
  1 33  1  0
  3 34  1  0
  4 35  1  0
 11 36  1  0
 18 37  1  0
 19 38  1  0
 20 39  1  0
 21 40  1  0
 24 41  1  0
 25 42  1  0
 28 43  1  0
 30 44  1  0
 30 45  1  0
 30 46  1  0
M  CHG  3   9  -1  16  -1  23  -1
M  END
>  <UniqueID>  (39) 
37

>  <SMILES>  (39) 
Cc1ccc(S(=O)(=O)[N-]c2cc(S(=O)(=O)[N-]c3ccccc3[O-])ccc2F)cc1C

>  <Energy>  (39) 
56.762774812108724

>  <Genealogy>  (39) 
Cc1ccc(S(=O)(=O)[N-]c2cc(S(=O)(=O)[N-]c3ccccc3[O-])ccc2F)cc1C (protonated)
Cc1ccc(S(=O)(=O)[N-]c2cc(S(=O)(=O)[N-]c3ccccc3[O-])ccc2F)cc1C (3D coordinates assigned)
Cc1ccc(S(=O)(=O)[N-]c2cc(S(=O)(=O)[N-]c3ccccc3[O-])ccc2F)cc1C (optimized conformer: 56.762774812108724 kcal/mol)

>  <smiles>  (39) 
Cc1ccc(S(=O)(=O)Nc2cc(S(=O)(=O)Nc3ccccc3O)ccc2F)cc1C

>  <score_type>  (39) 
oracle

>  <origin>  (39) 
adgpu

>  <m_score__min__energy>  (39) 
-14.220000000000001

>  <m_primary>  (39) 
energy

$$$$
39:0
     RDKit          3D

 55 58  0  0  0  0  0  0  0  0999 V2000
   -5.6618   16.7306  -31.3230 H   0  0  0  0  0  0  0  0  0  0  0  0
   -5.4170   17.0360  -32.3510 C   0  0  0  0  0  0  0  0  0  0  0  0
   -4.1870   16.7640  -32.8670 N   0  0  0  0  0  0  0  0  0  0  0  0
   -3.8420   17.1200  -34.1390 C   0  0  0  0  0  0  0  0  0  0  0  0
   -2.4610   16.8150  -34.6370 C   0  0  0  0  0  0  0  0  0  0  0  0
   -2.5037   16.6112  -35.7171 H   0  0  0  0  0  0  0  0  0  0  0  0
   -2.0769   15.9369  -34.0971 H   0  0  0  0  0  0  0  0  0  0  0  0
   -1.5550   17.9530  -34.3950 N   0  0  0  0  0  0  0  0  0  0  0  0
   -1.8700   18.9440  -33.3880 C   0  0  0  0  0  0  0  0  0  0  0  0
   -2.9450   19.7650  -33.5340 N   0  0  0  0  0  0  0  0  0  0  0  0
   -3.2250   20.7210  -32.6120 C   0  0  0  0  0  0  0  0  0  0  0  0
   -4.2440   21.5090  -32.8080 N   0  0  0  0  0  0  0  0  0  0  0  0
   -4.7280   22.5740  -31.9670 C   0  0  0  0  0  0  0  0  0  0  0  0
   -6.1120   22.7380  -31.8420 C   0  0  0  0  0  0  0  0  0  0  0  0
   -6.7918   22.0644  -32.3843 H   0  0  0  0  0  0  0  0  0  0  0  0
   -6.6380   23.7490  -31.0350 C   0  0  0  0  0  0  0  0  0  0  0  0
   -7.7277   23.8754  -30.9544 H   0  0  0  0  0  0  0  0  0  0  0  0
   -5.7840   24.6000  -30.3300 C   0  0  0  0  0  0  0  0  0  0  0  0
   -6.2021   25.4118  -29.7167 H   0  0  0  0  0  0  0  0  0  0  0  0
   -4.3930   24.4220  -30.4020 C   0  0  0  0  0  0  0  0  0  0  0  0
   -3.4800   25.2990  -29.7230 N   0  0  0  0  0  0  0  0  0  0  0  0
   -2.3100   24.9230  -28.9840 C   0  0  0  0  0  0  0  0  0  0  0  0
   -1.3000   25.6720  -29.0260 O   0  0  0  0  0  0  0  0  0  0  0  0
   -2.2300   23.6430  -28.2110 C   0  0  0  0  0  0  0  0  0  0  0  0
   -2.2438   23.8639  -27.1335 H   0  0  0  0  0  0  0  0  0  0  0  0
   -3.0901   23.0064  -28.4658 H   0  0  0  0  0  0  0  0  0  0  0  0
   -1.2973   23.1184  -28.4658 H   0  0  0  0  0  0  0  0  0  0  0  0
   -3.8680   23.4070  -31.2170 C   0  0  0  0  0  0  0  0  0  0  0  0
   -2.7794   23.2591  -31.2722 H   0  0  0  0  0  0  0  0  0  0  0  0
   -2.4080   20.8650  -31.5340 N   0  0  0  0  0  0  0  0  0  0  0  0
   -1.3380   20.0440  -31.3700 C   0  0  0  0  0  0  0  0  0  0  0  0
   -0.4780   20.1720  -30.1560 C   0  0  0  0  0  0  0  0  0  0  0  0
   -1.1008   20.0793  -29.2540 H   0  0  0  0  0  0  0  0  0  0  0  0
    0.2824   19.3771  -30.1598 H   0  0  0  0  0  0  0  0  0  0  0  0
    0.0179   21.1539  -30.1598 H   0  0  0  0  0  0  0  0  0  0  0  0
   -1.0730   19.0870  -32.2950 N   0  0  0  0  0  0  0  0  0  0  0  0
   -0.4630   18.1940  -35.3550 C   0  0  0  0  0  0  0  0  0  0  0  0
    0.2581   17.3660  -35.2886 H   0  0  0  0  0  0  0  0  0  0  0  0
   -0.9018   18.2577  -36.3617 H   0  0  0  0  0  0  0  0  0  0  0  0
    0.2560   19.4910  -35.0750 C   0  0  0  0  0  0  0  0  0  0  0  0
   -0.3750   20.7220  -35.3260 C   0  0  0  0  0  0  0  0  0  0  0  0
   -1.4020   20.7413  -35.7195 H   0  0  0  0  0  0  0  0  0  0  0  0
    0.2800   21.8890  -35.0840 N   0  0  0  0  0  0  0  0  0  0  0  0
    1.5520   21.9070  -34.6000 C   0  0  0  0  0  0  0  0  0  0  0  0
    2.0532   22.8672  -34.4078 H   0  0  0  0  0  0  0  0  0  0  0  0
    2.2220   20.7070  -34.3470 C   0  0  0  0  0  0  0  0  0  0  0  0
    3.2504   20.7169  -33.9568 H   0  0  0  0  0  0  0  0  0  0  0  0
    1.5740   19.4960  -34.5940 C   0  0  0  0  0  0  0  0  0  0  0  0
    2.0965   18.5454  -34.4116 H   0  0  0  0  0  0  0  0  0  0  0  0
   -4.7730   17.7930  -34.9490 C   0  0  0  0  0  0  0  0  0  0  0  0
   -4.5070   18.0877  -35.9749 H   0  0  0  0  0  0  0  0  0  0  0  0
   -6.0420   18.0840  -34.4360 C   0  0  0  0  0  0  0  0  0  0  0  0
   -6.7806   18.6101  -35.0586 H   0  0  0  0  0  0  0  0  0  0  0  0
   -6.3700   17.7040  -33.1280 C   0  0  0  0  0  0  0  0  0  0  0  0
   -7.3652   17.9282  -32.7165 H   0  0  0  0  0  0  0  0  0  0  0  0
  1  2  1  0
  2  3  2  0
  3  4  1  0
  4  5  1  0
  5  6  1  0
  5  7  1  0
  5  8  1  0
  8  9  1  0
  9 10  2  0
 10 11  1  0
 11 12  2  0
 12 13  1  0
 13 14  2  0
 14 15  1  0
 14 16  1  0
 16 17  1  0
 16 18  2  0
 18 19  1  0
 18 20  1  0
 20 21  1  0
 21 22  1  0
 22 23  2  0
 22 24  1  0
 24 25  1  0
 24 26  1  0
 24 27  1  0
 20 28  2  0
 28 29  1  0
 11 30  1  0
 30 31  2  0
 31 32  1  0
 32 33  1  0
 32 34  1  0
 32 35  1  0
 31 36  1  0
  8 37  1  0
 37 38  1  0
 37 39  1  0
 37 40  1  0
 40 41  2  0
 41 42  1  0
 41 43  1  0
 43 44  2  0
 44 45  1  0
 44 46  1  0
 46 47  1  0
 46 48  2  0
 48 49  1  0
  4 50  2  0
 50 51  1  0
 50 52  1  0
 52 53  1  0
 52 54  2  0
 54 55  1  0
 54  2  1  0
 36  9  1  0
 48 40  1  0
 28 13  1  0
M  CHG  2  21  -1  36  -1
M  END
>  <UniqueID>  (40) 
38

>  <SMILES>  (40) 
CC(=O)[N-]c1cccc(/N=c2\nc(C)[n-]c(N(Cc3cccnc3)Cc3ccccn3)n2)c1

>  <Energy>  (40) 
67.97737700054788

>  <Genealogy>  (40) 
CC(=O)[N-]c1cccc(N=c2nc(C)[n-]c(N(Cc3cccnc3)Cc3ccccn3)n2)c1 (protonated)
CC(=O)[N-]c1cccc(/N=c2\nc(C)[n-]c(N(Cc3cccnc3)Cc3ccccn3)n2)c1 (cis-trans isomerization)
CC(=O)[N-]c1cccc(/N=c2\nc(C)[n-]c(N(Cc3cccnc3)Cc3ccccn3)n2)c1 (3D coordinates assigned)
CC(=O)[N-]c1cccc(/N=c2\nc(C)[n-]c(N(Cc3cccnc3)Cc3ccccn3)n2)c1 (optimized conformer: 67.97737700054788 kcal/mol)

>  <smiles>  (40) 
CC(=O)Nc1cccc(N=c2nc(C)[nH]c(N(Cc3cccnc3)Cc3ccccn3)n2)c1

>  <score_type>  (40) 
oracle

>  <origin>  (40) 
adgpu

>  <m_score__min__energy>  (40) 
-10.59

>  <m_primary>  (40) 
energy

$$$$
40:0
     RDKit          3D

 34 35  0  0  0  0  0  0  0  0999 V2000
   -5.3590   26.4330  -30.4680 O   0  0  0  0  0  0  0  0  0  0  0  0
   -4.9060   25.2590  -30.5430 C   0  0  0  0  0  0  0  0  0  0  0  0
   -5.8430   24.1130  -30.7600 C   0  0  0  0  0  0  0  0  0  0  0  0
   -5.8770   23.7560  -32.1300 O   0  0  0  0  0  0  0  0  0  0  0  0
   -5.5480   22.3900  -32.3080 C   0  0  0  0  0  0  0  0  0  0  0  0
   -6.7930   21.5440  -32.3060 C   0  0  0  0  0  0  0  0  0  0  0  0
   -6.7310   20.2000  -32.7080 C   0  0  0  0  0  0  0  0  0  0  0  0
   -7.8880   19.4140  -32.7210 C   0  0  0  0  0  0  0  0  0  0  0  0
   -9.1140   19.9670  -32.3380 C   0  0  0  0  0  0  0  0  0  0  0  0
   -9.1850   21.3070  -31.9430 C   0  0  0  0  0  0  0  0  0  0  0  0
   -8.0290   22.0940  -31.9280 C   0  0  0  0  0  0  0  0  0  0  0  0
   -3.4980   25.0180  -30.4560 N   0  0  0  0  0  0  0  0  0  0  0  0
   -2.9150   23.8770  -29.7600 C   0  0  0  0  0  0  0  0  0  0  0  0
   -1.8710   24.3400  -28.7820 C   0  0  0  0  0  0  0  0  0  0  0  0
   -2.2370   24.9140  -27.5550 C   0  0  0  0  0  0  0  0  0  0  0  0
   -1.2520   25.3180  -26.6520 C   0  0  0  0  0  0  0  0  0  0  0  0
    0.0930   25.1440  -26.9840 C   0  0  0  0  0  0  0  0  0  0  0  0
    0.4330   24.5810  -28.1730 N   0  0  0  0  0  0  0  0  0  0  0  0
   -0.5080   24.1780  -29.0690 C   0  0  0  0  0  0  0  0  0  0  0  0
   -5.5031   23.2499  -30.1688 H   0  0  0  0  0  0  0  0  0  0  0  0
   -6.8531   24.4131  -30.4442 H   0  0  0  0  0  0  0  0  0  0  0  0
   -5.0269   22.2652  -33.2687 H   0  0  0  0  0  0  0  0  0  0  0  0
   -4.8984   22.0694  -31.4802 H   0  0  0  0  0  0  0  0  0  0  0  0
   -5.7688   19.7635  -33.0139 H   0  0  0  0  0  0  0  0  0  0  0  0
   -7.8335   18.3605  -33.0326 H   0  0  0  0  0  0  0  0  0  0  0  0
  -10.0231   19.3478  -32.3474 H   0  0  0  0  0  0  0  0  0  0  0  0
  -10.1502   21.7418  -31.6441 H   0  0  0  0  0  0  0  0  0  0  0  0
   -8.0879   23.1480  -31.6189 H   0  0  0  0  0  0  0  0  0  0  0  0
   -3.7069   23.3393  -29.2180 H   0  0  0  0  0  0  0  0  0  0  0  0
   -2.4438   23.2106  -30.4975 H   0  0  0  0  0  0  0  0  0  0  0  0
   -3.3000   25.0456  -27.3047 H   0  0  0  0  0  0  0  0  0  0  0  0
   -1.5326   25.7688  -25.6887 H   0  0  0  0  0  0  0  0  0  0  0  0
    0.8780   25.4629  -26.2825 H   0  0  0  0  0  0  0  0  0  0  0  0
   -0.1987   23.7236  -30.0218 H   0  0  0  0  0  0  0  0  0  0  0  0
  1  2  2  0
  2  3  1  0
  3  4  1  0
  4  5  1  0
  5  6  1  0
  6  7  2  0
  7  8  1  0
  8  9  2  0
  9 10  1  0
 10 11  2  0
  2 12  1  0
 12 13  1  0
 13 14  1  0
 14 15  2  0
 15 16  1  0
 16 17  2  0
 17 18  1  0
 18 19  2  0
 11  6  1  0
 19 14  1  0
  3 20  1  0
  3 21  1  0
  5 22  1  0
  5 23  1  0
  7 24  1  0
  8 25  1  0
  9 26  1  0
 10 27  1  0
 11 28  1  0
 13 29  1  0
 13 30  1  0
 15 31  1  0
 16 32  1  0
 17 33  1  0
 19 34  1  0
M  CHG  1  12  -1
M  END
>  <UniqueID>  (41) 
39

>  <SMILES>  (41) 
O=C(COCc1ccccc1)[N-]Cc1cccnc1

>  <Energy>  (41) 
34.37013819610652

>  <Genealogy>  (41) 
O=C(COCc1ccccc1)[N-]Cc1cccnc1 (protonated)
O=C(COCc1ccccc1)[N-]Cc1cccnc1 (3D coordinates assigned)
O=C(COCc1ccccc1)[N-]Cc1cccnc1 (optimized conformer: 34.37013819610652 kcal/mol)

>  <smiles>  (41) 
O=C(COCc1ccccc1)NCc1cccnc1

>  <score_type>  (41) 
oracle

>  <origin>  (41) 
adgpu

>  <m_score__min__energy>  (41) 
-8.9199999999999999

>  <m_primary>  (41) 
energy

$$$$
41:0
     RDKit          3D

 54 57  0  0  0  0  0  0  0  0999 V2000
   -9.0960   19.8790  -32.3830 C   0  0  0  0  0  0  0  0  0  0  0  0
   -7.9340   20.8140  -32.3120 C   0  0  0  0  0  0  0  0  0  0  0  0
   -6.9860   20.6820  -33.1340 O   0  0  0  0  0  0  0  0  0  0  0  0
   -7.9500   21.9050  -31.3810 N   0  0  0  0  0  0  0  0  0  0  0  0
   -6.8180   22.7510  -31.1100 C   0  0  0  0  0  0  0  0  0  0  0  0
   -7.0130   23.9690  -30.4420 C   0  0  0  0  0  0  0  0  0  0  0  0
   -5.9270   24.7990  -30.1470 C   0  0  0  0  0  0  0  0  0  0  0  0
   -4.6250   24.4190  -30.5150 C   0  0  0  0  0  0  0  0  0  0  0  0
   -3.4860   25.2370  -30.2110 N   0  0  0  0  0  0  0  0  0  0  0  0
   -2.4360   24.9210  -29.2850 C   0  0  0  0  0  0  0  0  0  0  0  0
   -1.9370   25.8540  -28.6020 O   0  0  0  0  0  0  0  0  0  0  0  0
   -1.9670   23.5320  -29.0670 C   0  0  0  0  0  0  0  0  0  0  0  0
   -0.7280   23.1170  -29.5860 C   0  0  0  0  0  0  0  0  0  0  0  0
   -0.2730   21.8120  -29.3790 C   0  0  0  0  0  0  0  0  0  0  0  0
   -1.0470   20.9040  -28.6450 C   0  0  0  0  0  0  0  0  0  0  0  0
   -0.4430   19.2700  -28.3690 S   0  0  0  0  0  0  0  0  0  0  0  0
    0.7820   19.3070  -27.4990 O   0  0  0  0  0  0  0  0  0  0  0  0
   -1.5240   18.5050  -27.6580 O   0  0  0  0  0  0  0  0  0  0  0  0
   -0.0510   18.4930  -29.8810 N   0  0  0  0  0  0  0  0  0  0  0  0
    0.8890   17.3700  -29.9050 C   0  0  0  0  0  0  0  0  0  0  0  0
    2.0360   17.7030  -30.8570 C   0  0  0  0  0  0  0  0  0  0  0  0
    1.5020   17.9340  -32.2770 C   0  0  0  0  0  0  0  0  0  0  0  0
    0.2600   18.7980  -32.3110 C   0  0  0  0  0  0  0  0  0  0  0  0
   -0.1800   19.3110  -33.5410 C   0  0  0  0  0  0  0  0  0  0  0  0
   -1.3650   20.0440  -33.6170 C   0  0  0  0  0  0  0  0  0  0  0  0
   -2.1360   20.2510  -32.4720 C   0  0  0  0  0  0  0  0  0  0  0  0
   -1.7170   19.7360  -31.2430 C   0  0  0  0  0  0  0  0  0  0  0  0
   -0.5100   19.0190  -31.1440 C   0  0  0  0  0  0  0  0  0  0  0  0
   -2.2730   21.3160  -28.1080 C   0  0  0  0  0  0  0  0  0  0  0  0
   -2.7290   22.6210  -28.3120 C   0  0  0  0  0  0  0  0  0  0  0  0
   -4.4240   23.1820  -31.1370 C   0  0  0  0  0  0  0  0  0  0  0  0
   -5.5080   22.3530  -31.4360 C   0  0  0  0  0  0  0  0  0  0  0  0
   -9.4198   19.6185  -31.3645 H   0  0  0  0  0  0  0  0  0  0  0  0
   -9.9252   20.3646  -32.9184 H   0  0  0  0  0  0  0  0  0  0  0  0
   -8.7991   18.9651  -32.9184 H   0  0  0  0  0  0  0  0  0  0  0  0
   -8.8630   22.1490  -30.9350 H   0  0  0  0  0  0  0  0  0  0  0  0
   -8.0283   24.2736  -30.1479 H   0  0  0  0  0  0  0  0  0  0  0  0
   -6.0924   25.7530  -29.6249 H   0  0  0  0  0  0  0  0  0  0  0  0
   -0.1119   23.8251  -30.1595 H   0  0  0  0  0  0  0  0  0  0  0  0
    0.6959   21.4968  -29.7937 H   0  0  0  0  0  0  0  0  0  0  0  0
    1.2866   17.2000  -28.8936 H   0  0  0  0  0  0  0  0  0  0  0  0
    0.3735   16.4606  -30.2474 H   0  0  0  0  0  0  0  0  0  0  0  0
    2.5439   18.6142  -30.5080 H   0  0  0  0  0  0  0  0  0  0  0  0
    2.7422   16.8598  -30.8739 H   0  0  0  0  0  0  0  0  0  0  0  0
    2.2869   18.4257  -32.8705 H   0  0  0  0  0  0  0  0  0  0  0  0
    1.2292   16.9511  -32.6887 H   0  0  0  0  0  0  0  0  0  0  0  0
    0.4128   19.1342  -34.4506 H   0  0  0  0  0  0  0  0  0  0  0  0
   -1.6923   20.4596  -34.5814 H   0  0  0  0  0  0  0  0  0  0  0  0
   -3.0748   20.8205  -32.5376 H   0  0  0  0  0  0  0  0  0  0  0  0
   -2.3347   19.8919  -30.3463 H   0  0  0  0  0  0  0  0  0  0  0  0
   -2.8797   20.6092  -27.5230 H   0  0  0  0  0  0  0  0  0  0  0  0
   -3.6895   22.9382  -27.8798 H   0  0  0  0  0  0  0  0  0  0  0  0
   -3.4039   22.8595  -31.3927 H   0  0  0  0  0  0  0  0  0  0  0  0
   -5.3368   21.3845  -31.9286 H   0  0  0  0  0  0  0  0  0  0  0  0
  1  2  1  0
  2  3  2  0
  2  4  1  0
  4  5  1  0
  5  6  2  0
  6  7  1  0
  7  8  2  0
  8  9  1  0
  9 10  1  0
 10 11  2  0
 10 12  1  0
 12 13  2  0
 13 14  1  0
 14 15  2  0
 15 16  1  0
 16 17  2  0
 16 18  2  0
 16 19  1  0
 19 20  1  0
 20 21  1  0
 21 22  1  0
 22 23  1  0
 23 24  2  0
 24 25  1  0
 25 26  2  0
 26 27  1  0
 27 28  2  0
 15 29  1  0
 29 30  2  0
  8 31  1  0
 31 32  2  0
 32  5  1  0
 30 12  1  0
 28 19  1  0
 28 23  1  0
  1 33  1  0
  1 34  1  0
  1 35  1  0
  4 36  1  0
  6 37  1  0
  7 38  1  0
 13 39  1  0
 14 40  1  0
 20 41  1  0
 20 42  1  0
 21 43  1  0
 21 44  1  0
 22 45  1  0
 22 46  1  0
 24 47  1  0
 25 48  1  0
 26 49  1  0
 27 50  1  0
 29 51  1  0
 30 52  1  0
 31 53  1  0
 32 54  1  0
M  CHG  1   9  -1
M  END
>  <UniqueID>  (42) 
40

>  <SMILES>  (42) 
CC(=O)Nc1ccc([N-]C(=O)c2ccc(S(=O)(=O)N3CCCc4ccccc43)cc2)cc1

>  <Energy>  (42) 
70.12168859261067

>  <Genealogy>  (42) 
CC(=O)Nc1ccc([N-]C(=O)c2ccc(S(=O)(=O)N3CCCc4ccccc43)cc2)cc1 (protonated)
CC(=O)Nc1ccc([N-]C(=O)c2ccc(S(=O)(=O)N3CCCc4ccccc43)cc2)cc1 (3D coordinates assigned)
CC(=O)Nc1ccc([N-]C(=O)c2ccc(S(=O)(=O)N3CCCc4ccccc43)cc2)cc1 (nonaromatic ring conformer: 70.12168859261067 kcal/mol)

>  <smiles>  (42) 
CC(=O)Nc1ccc(NC(=O)c2ccc(S(=O)(=O)N3CCCc4ccccc43)cc2)cc1

>  <score_type>  (42) 
oracle

>  <origin>  (42) 
adgpu

>  <m_score__min__energy>  (42) 
-11.470000000000001

>  <m_primary>  (42) 
energy

$$$$
42:0
     RDKit          3D

 57 60  0  0  0  0  0  0  0  0999 V2000
   -5.7380   26.3700  -30.8440 O   0  0  0  0  0  0  0  0  0  0  0  0
   -5.1470   25.2570  -30.8230 C   0  0  0  0  0  0  0  0  0  0  0  0
   -3.7950   25.1700  -30.3520 N   0  0  0  0  0  0  0  0  0  0  0  0
   -3.2190   24.0950  -29.5950 C   0  0  0  0  0  0  0  0  0  0  0  0
   -4.0020   23.2360  -28.8010 C   0  0  0  0  0  0  0  0  0  0  0  0
   -3.4030   22.1840  -28.1000 C   0  0  0  0  0  0  0  0  0  0  0  0
   -2.0230   21.9640  -28.1990 C   0  0  0  0  0  0  0  0  0  0  0  0
   -1.2710   20.6500  -27.3000 S   0  0  0  0  0  0  0  0  0  0  0  0
   -0.1730   21.2070  -26.4350 O   0  0  0  0  0  0  0  0  0  0  0  0
   -2.2940   19.9960  -26.4100 O   0  0  0  0  0  0  0  0  0  0  0  0
   -0.6000   19.4910  -28.4170 N   0  0  0  0  0  0  0  0  0  0  0  0
   -0.4810   18.1590  -27.8180 C   0  0  0  0  0  0  0  0  0  0  0  0
    0.6600   17.4570  -28.5400 C   0  0  0  0  0  0  0  0  0  0  0  0
    1.4650   18.5640  -29.2040 C   0  0  0  0  0  0  0  0  0  0  0  0
    0.7540   19.8600  -28.8390 C   0  0  0  0  0  0  0  0  0  0  0  0
   -1.2450   22.8080  -29.0010 C   0  0  0  0  0  0  0  0  0  0  0  0
   -1.8420   23.8610  -29.7010 C   0  0  0  0  0  0  0  0  0  0  0  0
   -5.8350   24.0470  -31.3310 C   0  0  0  0  0  0  0  0  0  0  0  0
   -7.2370   24.0030  -31.4090 C   0  0  0  0  0  0  0  0  0  0  0  0
   -7.8840   22.8600  -31.8850 C   0  0  0  0  0  0  0  0  0  0  0  0
   -7.1450   21.7480  -32.2900 C   0  0  0  0  0  0  0  0  0  0  0  0
   -7.8010   20.6520  -32.7460 F   0  0  0  0  0  0  0  0  0  0  0  0
   -5.7420   21.7740  -32.2270 C   0  0  0  0  0  0  0  0  0  0  0  0
   -4.7800   20.3870  -32.7520 S   0  0  0  0  0  0  0  0  0  0  0  0
   -5.5120   19.6670  -33.8510 O   0  0  0  0  0  0  0  0  0  0  0  0
   -4.6370   19.4300  -31.6010 O   0  0  0  0  0  0  0  0  0  0  0  0
   -3.1860   20.8420  -33.3200 N   0  0  0  0  0  0  0  0  0  0  0  0
   -2.4680   21.7260  -32.3780 C   0  0  0  0  0  0  0  0  0  0  0  0
   -1.4330   20.9770  -31.5230 C   0  0  0  0  0  0  0  0  0  0  0  0
   -1.7980   19.6260  -31.3680 O   0  0  0  0  0  0  0  0  0  0  0  0
   -1.6690   18.9570  -32.6070 C   0  0  0  0  0  0  0  0  0  0  0  0
   -2.3910   19.6830  -33.7670 C   0  0  0  0  0  0  0  0  0  0  0  0
   -5.0950   22.9210  -31.7400 C   0  0  0  0  0  0  0  0  0  0  0  0
   -5.0886   23.3925  -28.7315 H   0  0  0  0  0  0  0  0  0  0  0  0
   -4.0183   21.5266  -27.4682 H   0  0  0  0  0  0  0  0  0  0  0  0
   -1.2220   19.4380  -29.2580 H   0  0  0  0  0  0  0  0  0  0  0  0
   -0.2554   18.2444  -26.7448 H   0  0  0  0  0  0  0  0  0  0  0  0
   -1.4198   17.5944  -27.9173 H   0  0  0  0  0  0  0  0  0  0  0  0
    1.2854   16.9039  -27.8237 H   0  0  0  0  0  0  0  0  0  0  0  0
    0.2895   16.7262  -29.2739 H   0  0  0  0  0  0  0  0  0  0  0  0
    2.4966   18.5709  -28.8223 H   0  0  0  0  0  0  0  0  0  0  0  0
    1.5271   18.4258  -30.2935 H   0  0  0  0  0  0  0  0  0  0  0  0
    1.2832   20.3647  -28.0173 H   0  0  0  0  0  0  0  0  0  0  0  0
    0.7281   20.5522  -29.6935 H   0  0  0  0  0  0  0  0  0  0  0  0
   -0.1605   22.6421  -29.0806 H   0  0  0  0  0  0  0  0  0  0  0  0
   -1.2256   24.5106  -30.3398 H   0  0  0  0  0  0  0  0  0  0  0  0
   -7.8293   24.8744  -31.0931 H   0  0  0  0  0  0  0  0  0  0  0  0
   -8.9823   22.8366  -31.9408 H   0  0  0  0  0  0  0  0  0  0  0  0
   -1.9484   22.5051  -32.9550 H   0  0  0  0  0  0  0  0  0  0  0  0
   -3.2149   22.1528  -31.6924 H   0  0  0  0  0  0  0  0  0  0  0  0
   -0.4509   21.0313  -32.0155 H   0  0  0  0  0  0  0  0  0  0  0  0
   -1.3889   21.4471  -30.5295 H   0  0  0  0  0  0  0  0  0  0  0  0
   -0.5998   18.8802  -32.8537 H   0  0  0  0  0  0  0  0  0  0  0  0
   -2.1383   17.9683  -32.4963 H   0  0  0  0  0  0  0  0  0  0  0  0
   -1.6349   20.0334  -34.4850 H   0  0  0  0  0  0  0  0  0  0  0  0
   -3.0881   18.9630  -34.2205 H   0  0  0  0  0  0  0  0  0  0  0  0
   -3.9970   22.9402  -31.6772 H   0  0  0  0  0  0  0  0  0  0  0  0
  1  2  2  0
  2  3  1  0
  3  4  1  0
  4  5  2  0
  5  6  1  0
  6  7  2  0
  7  8  1  0
  8  9  2  0
  8 10  2  0
  8 11  1  0
 11 12  1  0
 12 13  1  0
 13 14  1  0
 14 15  1  0
  7 16  1  0
 16 17  2  0
  2 18  1  0
 18 19  2  0
 19 20  1  0
 20 21  2  0
 21 22  1  0
 21 23  1  0
 23 24  1  0
 24 25  2  0
 24 26  2  0
 24 27  1  0
 27 28  1  0
 28 29  1  0
 29 30  1  0
 30 31  1  0
 31 32  1  0
 23 33  2  0
 17  4  1  0
 33 18  1  0
 15 11  1  0
 32 27  1  0
  5 34  1  0
  6 35  1  0
 11 36  1  0
 12 37  1  0
 12 38  1  0
 13 39  1  0
 13 40  1  0
 14 41  1  0
 14 42  1  0
 15 43  1  0
 15 44  1  0
 16 45  1  0
 17 46  1  0
 19 47  1  0
 20 48  1  0
 28 49  1  0
 28 50  1  0
 29 51  1  0
 29 52  1  0
 31 53  1  0
 31 54  1  0
 32 55  1  0
 32 56  1  0
 33 57  1  0
M  CHG  2   3  -1  11   1
M  END
>  <UniqueID>  (43) 
41

>  <SMILES>  (43) 
O=C([N-]c1ccc(S(=O)(=O)[NH+]2CCCC2)cc1)c1ccc(F)c(S(=O)(=O)N2CCOCC2)c1

>  <Energy>  (43) 
75.36086336029418

>  <Genealogy>  (43) 
O=C([N-]c1ccc(S(=O)(=O)[NH+]2CCCC2)cc1)c1ccc(F)c(S(=O)(=O)N2CCOCC2)c1 (protonated)
O=C([N-]c1ccc(S(=O)(=O)[NH+]2CCCC2)cc1)c1ccc(F)c(S(=O)(=O)N2CCOCC2)c1 (3D coordinates assigned)
O=C([N-]c1ccc(S(=O)(=O)[NH+]2CCCC2)cc1)c1ccc(F)c(S(=O)(=O)N2CCOCC2)c1 (nonaromatic ring conformer: 75.36086336029418 kcal/mol)

>  <smiles>  (43) 
O=C(Nc1ccc(S(=O)(=O)N2CCCC2)cc1)c1ccc(F)c(S(=O)(=O)N2CCOCC2)c1

>  <score_type>  (43) 
oracle

>  <origin>  (43) 
adgpu

>  <m_score__min__energy>  (43) 
-12.31

>  <m_primary>  (43) 
energy

$$$$
43:0
     RDKit          3D

 45 47  0  0  0  0  0  0  0  0999 V2000
   -9.2480   22.7210  -32.1520 C   0  0  0  0  0  0  0  0  0  0  0  0
   -9.1200   21.6070  -31.2050 N   0  0  0  0  0  0  0  0  0  0  0  0
   -8.2760   22.0030  -30.0710 C   0  0  0  0  0  0  0  0  0  0  0  0
   -8.4220   20.2200  -32.0060 S   0  0  0  0  0  0  0  0  0  0  0  0
   -9.0560   20.0460  -33.3580 O   0  0  0  0  0  0  0  0  0  0  0  0
   -8.7070   18.9850  -31.1970 O   0  0  0  0  0  0  0  0  0  0  0  0
   -6.6780   20.3990  -32.2010 C   0  0  0  0  0  0  0  0  0  0  0  0
   -5.8700   19.2710  -32.3860 C   0  0  0  0  0  0  0  0  0  0  0  0
   -4.4840   19.4060  -32.4770 C   0  0  0  0  0  0  0  0  0  0  0  0
   -3.8810   20.6720  -32.3890 C   0  0  0  0  0  0  0  0  0  0  0  0
   -2.4460   20.7800  -32.4110 N   0  0  0  0  0  0  0  0  0  0  0  0
   -1.6140   20.5050  -31.3850 C   0  0  0  0  0  0  0  0  0  0  0  0
   -0.3080   20.7360  -31.7650 C   0  0  0  0  0  0  0  0  0  0  0  0
   -0.3480   21.1610  -33.0780 C   0  0  0  0  0  0  0  0  0  0  0  0
   -1.6770   21.1740  -33.4480 C   0  0  0  0  0  0  0  0  0  0  0  0
   -4.6990   21.8090  -32.2090 C   0  0  0  0  0  0  0  0  0  0  0  0
   -4.1210   23.0930  -31.9760 N   0  0  0  0  0  0  0  0  0  0  0  0
   -4.1580   23.7810  -30.3910 S   0  0  0  0  0  0  0  0  0  0  0  0
   -5.5210   23.5950  -29.7850 O   0  0  0  0  0  0  0  0  0  0  0  0
   -3.8660   25.2530  -30.4850 O   0  0  0  0  0  0  0  0  0  0  0  0
   -2.9400   22.9940  -29.3940 C   0  0  0  0  0  0  0  0  0  0  0  0
   -1.6230   23.4740  -29.3620 C   0  0  0  0  0  0  0  0  0  0  0  0
   -0.6480   22.7970  -28.6240 C   0  0  0  0  0  0  0  0  0  0  0  0
   -0.9790   21.6330  -27.9240 C   0  0  0  0  0  0  0  0  0  0  0  0
   -0.0210   20.9760  -27.2230 F   0  0  0  0  0  0  0  0  0  0  0  0
   -2.2910   21.1460  -27.9570 C   0  0  0  0  0  0  0  0  0  0  0  0
   -2.7160   19.6720  -27.1050 Cl  0  0  0  0  0  0  0  0  0  0  0  0
   -3.2690   21.8280  -28.6860 C   0  0  0  0  0  0  0  0  0  0  0  0
   -6.0890   21.6650  -32.1220 C   0  0  0  0  0  0  0  0  0  0  0  0
   -9.3564   23.6641  -31.5962 H   0  0  0  0  0  0  0  0  0  0  0  0
   -8.3495   22.7694  -32.7847 H   0  0  0  0  0  0  0  0  0  0  0  0
  -10.1341   22.5644  -32.7847 H   0  0  0  0  0  0  0  0  0  0  0  0
   -8.7905   21.7616  -29.1292 H   0  0  0  0  0  0  0  0  0  0  0  0
   -7.3211   21.4590  -30.1171 H   0  0  0  0  0  0  0  0  0  0  0  0
   -8.0841   23.0851  -30.1171 H   0  0  0  0  0  0  0  0  0  0  0  0
   -6.3294   18.2742  -32.4599 H   0  0  0  0  0  0  0  0  0  0  0  0
   -3.8577   18.5129  -32.6190 H   0  0  0  0  0  0  0  0  0  0  0  0
   -1.9300   20.1495  -30.3931 H   0  0  0  0  0  0  0  0  0  0  0  0
    0.5901   20.6068  -31.1431 H   0  0  0  0  0  0  0  0  0  0  0  0
    0.5120   21.4357  -33.7065 H   0  0  0  0  0  0  0  0  0  0  0  0
   -2.0539   21.4625  -34.4403 H   0  0  0  0  0  0  0  0  0  0  0  0
   -1.3567   24.3847  -29.9185 H   0  0  0  0  0  0  0  0  0  0  0  0
    0.3823   23.1810  -28.5939 H   0  0  0  0  0  0  0  0  0  0  0  0
   -4.3015   21.4490  -28.7049 H   0  0  0  0  0  0  0  0  0  0  0  0
   -6.7227   22.5545  -31.9905 H   0  0  0  0  0  0  0  0  0  0  0  0
  1  2  1  0
  2  3  1  0
  2  4  1  0
  4  5  2  0
  4  6  2  0
  4  7  1  0
  7  8  2  0
  8  9  1  0
  9 10  2  0
 10 11  1  0
 11 12  1  0
 12 13  2  0
 13 14  1  0
 14 15  2  0
 10 16  1  0
 16 17  1  0
 17 18  1  0
 18 19  2  0
 18 20  2  0
 18 21  1  0
 21 22  2  0
 22 23  1  0
 23 24  2  0
 24 25  1  0
 24 26  1  0
 26 27  1  0
 26 28  2  0
 16 29  2  0
 29  7  1  0
 15 11  1  0
 28 21  1  0
  1 30  1  0
  1 31  1  0
  1 32  1  0
  3 33  1  0
  3 34  1  0
  3 35  1  0
  8 36  1  0
  9 37  1  0
 12 38  1  0
 13 39  1  0
 14 40  1  0
 15 41  1  0
 22 42  1  0
 23 43  1  0
 28 44  1  0
 29 45  1  0
M  CHG  1  17  -1
M  END
>  <UniqueID>  (44) 
42

>  <SMILES>  (44) 
CN(C)S(=O)(=O)c1ccc(-n2cccc2)c([N-]S(=O)(=O)c2ccc(F)c(Cl)c2)c1

>  <Energy>  (44) 
79.81434612233251

>  <Genealogy>  (44) 
CN(C)S(=O)(=O)c1ccc(-n2cccc2)c([N-]S(=O)(=O)c2ccc(F)c(Cl)c2)c1 (protonated)
CN(C)S(=O)(=O)c1ccc(-n2cccc2)c([N-]S(=O)(=O)c2ccc(F)c(Cl)c2)c1 (3D coordinates assigned)
CN(C)S(=O)(=O)c1ccc(-n2cccc2)c([N-]S(=O)(=O)c2ccc(F)c(Cl)c2)c1 (optimized conformer: 79.81434612233251 kcal/mol)

>  <smiles>  (44) 
CN(C)S(=O)(=O)c1ccc(-n2cccc2)c(NS(=O)(=O)c2ccc(F)c(Cl)c2)c1

>  <score_type>  (44) 
oracle

>  <origin>  (44) 
adgpu

>  <m_score__min__energy>  (44) 
-10.130000000000001

>  <m_primary>  (44) 
energy

$$$$
44:0
     RDKit          3D

 47 50  0  0  0  0  0  0  0  0999 V2000
   -3.4940   25.2950  -29.9270 O   0  0  0  0  0  0  0  0  0  0  0  0
   -3.7430   24.1890  -30.4760 C   0  0  0  0  0  0  0  0  0  0  0  0
   -3.0040   22.9630  -30.0460 C   0  0  0  0  0  0  0  0  0  0  0  0
   -3.7000   22.2460  -28.5160 S   0  0  0  0  0  0  0  0  0  0  0  0
   -3.3480   23.6720  -27.4780 C   0  0  0  0  0  0  0  0  0  0  0  0
   -4.2750   24.2640  -26.7040 N   0  0  0  0  0  0  0  0  0  0  0  0
   -3.6860   25.2960  -26.1190 N   0  0  0  0  0  0  0  0  0  0  0  0
   -2.4140   25.3300  -26.5610 C   0  0  0  0  0  0  0  0  0  0  0  0
   -1.4530   26.3680  -26.1360 C   0  0  0  0  0  0  0  0  0  0  0  0
   -0.8350   27.1770  -27.0990 C   0  0  0  0  0  0  0  0  0  0  0  0
    0.0630   28.1660  -26.6930 C   0  0  0  0  0  0  0  0  0  0  0  0
    0.3480   28.3290  -25.3750 N   0  0  0  0  0  0  0  0  0  0  0  0
   -0.2200   27.5460  -24.4210 C   0  0  0  0  0  0  0  0  0  0  0  0
   -1.1260   26.5460  -24.7830 C   0  0  0  0  0  0  0  0  0  0  0  0
   -2.1560   24.3010  -27.4040 N   0  0  0  0  0  0  0  0  0  0  0  0
   -0.9340   23.9820  -28.1600 C   0  0  0  0  0  0  0  0  0  0  0  0
    0.3090   24.2260  -27.3570 C   0  0  0  0  0  0  0  0  0  0  0  0
    0.5710   23.7520  -26.0890 C   0  0  0  0  0  0  0  0  0  0  0  0
    1.8290   24.2110  -25.7680 C   0  0  0  0  0  0  0  0  0  0  0  0
    2.2610   24.9310  -26.8630 C   0  0  0  0  0  0  0  0  0  0  0  0
    1.3360   24.9190  -27.7950 O   0  0  0  0  0  0  0  0  0  0  0  0
   -4.6960   24.0930  -31.5420 N   0  0  0  0  0  0  0  0  0  0  0  0
   -5.5480   22.9750  -31.8350 C   0  0  0  0  0  0  0  0  0  0  0  0
   -6.9100   22.9710  -31.4810 C   0  0  0  0  0  0  0  0  0  0  0  0
   -7.7250   21.8650  -31.7800 C   0  0  0  0  0  0  0  0  0  0  0  0
   -9.1970   21.8960  -31.4480 C   0  0  0  0  0  0  0  0  0  0  0  0
   -9.7480   23.0670  -31.9370 F   0  0  0  0  0  0  0  0  0  0  0  0
   -9.8540   20.8180  -32.0150 F   0  0  0  0  0  0  0  0  0  0  0  0
   -9.3850   21.8460  -30.0770 F   0  0  0  0  0  0  0  0  0  0  0  0
   -7.1710   20.7740  -32.4700 C   0  0  0  0  0  0  0  0  0  0  0  0
   -5.8150   20.7630  -32.8000 C   0  0  0  0  0  0  0  0  0  0  0  0
   -5.0010   21.8510  -32.4750 C   0  0  0  0  0  0  0  0  0  0  0  0
   -3.3030   21.8140  -32.9290 Cl  0  0  0  0  0  0  0  0  0  0  0  0
   -3.0629   22.2130  -30.8485 H   0  0  0  0  0  0  0  0  0  0  0  0
   -1.9610   23.2482  -29.8439 H   0  0  0  0  0  0  0  0  0  0  0  0
   -1.0558   27.0339  -28.1671 H   0  0  0  0  0  0  0  0  0  0  0  0
    0.5407   28.8146  -27.4421 H   0  0  0  0  0  0  0  0  0  0  0  0
    0.0339   27.6996  -23.3618 H   0  0  0  0  0  0  0  0  0  0  0  0
   -1.5793   25.9035  -24.0138 H   0  0  0  0  0  0  0  0  0  0  0  0
   -0.9647   22.9219  -28.4520 H   0  0  0  0  0  0  0  0  0  0  0  0
   -0.9010   24.6393  -29.0414 H   0  0  0  0  0  0  0  0  0  0  0  0
   -0.0892   23.1342  -25.4626 H   0  0  0  0  0  0  0  0  0  0  0  0
    2.3775   24.0388  -24.8302 H   0  0  0  0  0  0  0  0  0  0  0  0
    3.2336   25.4385  -26.9431 H   0  0  0  0  0  0  0  0  0  0  0  0
   -7.3412   23.8417  -30.9653 H   0  0  0  0  0  0  0  0  0  0  0  0
   -7.8094   19.9237  -32.7518 H   0  0  0  0  0  0  0  0  0  0  0  0
   -5.3850   19.8934  -33.3185 H   0  0  0  0  0  0  0  0  0  0  0  0
  1  2  2  0
  2  3  1  0
  3  4  1  0
  4  5  1  0
  5  6  2  0
  6  7  1  0
  7  8  2  0
  8  9  1  0
  9 10  2  0
 10 11  1  0
 11 12  2  0
 12 13  1  0
 13 14  2  0
  8 15  1  0
 15 16  1  0
 16 17  1  0
 17 18  2  0
 18 19  1  0
 19 20  2  0
 20 21  1  0
  2 22  1  0
 22 23  1  0
 23 24  2  0
 24 25  1  0
 25 26  1  0
 26 27  1  0
 26 28  1  0
 26 29  1  0
 25 30  2  0
 30 31  1  0
 31 32  2  0
 32 33  1  0
 15  5  1  0
 21 17  1  0
 32 23  1  0
 14  9  1  0
  3 34  1  0
  3 35  1  0
 10 36  1  0
 11 37  1  0
 13 38  1  0
 14 39  1  0
 16 40  1  0
 16 41  1  0
 18 42  1  0
 19 43  1  0
 20 44  1  0
 24 45  1  0
 30 46  1  0
 31 47  1  0
M  CHG  1  22  -1
M  END
>  <UniqueID>  (45) 
43

>  <SMILES>  (45) 
O=C(CSc1nnc(-c2ccncc2)n1Cc1ccco1)[N-]c1cc(C(F)(F)F)ccc1Cl

>  <Energy>  (45) 
113.78783996672492

>  <Genealogy>  (45) 
O=C(CSc1nnc(-c2ccncc2)n1Cc1ccco1)[N-]c1cc(C(F)(F)F)ccc1Cl (protonated)
O=C(CSc1nnc(-c2ccncc2)n1Cc1ccco1)[N-]c1cc(C(F)(F)F)ccc1Cl (3D coordinates assigned)
O=C(CSc1nnc(-c2ccncc2)n1Cc1ccco1)[N-]c1cc(C(F)(F)F)ccc1Cl (optimized conformer: 113.78783996672492 kcal/mol)

>  <smiles>  (45) 
O=C(CSc1nnc(-c2ccncc2)n1Cc1ccco1)Nc1cc(C(F)(F)F)ccc1Cl

>  <score_type>  (45) 
oracle

>  <origin>  (45) 
adgpu

>  <m_score__min__energy>  (45) 
-10.449999999999999

>  <m_primary>  (45) 
energy

$$$$
45:0
     RDKit          3D

 38 40  0  0  0  0  0  0  0  0999 V2000
   -6.1210   25.6790  -29.6790 C   0  0  0  0  0  0  0  0  0  0  0  0
   -5.9590   24.4100  -30.4680 C   0  0  0  0  0  0  0  0  0  0  0  0
   -7.0930   23.6700  -30.8430 C   0  0  0  0  0  0  0  0  0  0  0  0
   -6.9560   22.4900  -31.5780 C   0  0  0  0  0  0  0  0  0  0  0  0
   -5.6880   22.0370  -31.9450 C   0  0  0  0  0  0  0  0  0  0  0  0
   -5.5180   20.5470  -32.8550 Cl  0  0  0  0  0  0  0  0  0  0  0  0
   -4.5520   22.7650  -31.5800 C   0  0  0  0  0  0  0  0  0  0  0  0
   -4.6760   23.9600  -30.8450 C   0  0  0  0  0  0  0  0  0  0  0  0
   -3.5240   24.7310  -30.4690 N   0  0  0  0  0  0  0  0  0  0  0  0
   -2.7110   24.6430  -28.9400 S   0  0  0  0  0  0  0  0  0  0  0  0
   -3.6980   24.9180  -27.8400 O   0  0  0  0  0  0  0  0  0  0  0  0
   -1.6280   25.6830  -28.8950 O   0  0  0  0  0  0  0  0  0  0  0  0
   -1.9810   23.0520  -28.7440 C   0  0  0  0  0  0  0  0  0  0  0  0
   -1.7880   22.2140  -29.8510 C   0  0  0  0  0  0  0  0  0  0  0  0
   -1.1870   20.9630  -29.6880 C   0  0  0  0  0  0  0  0  0  0  0  0
   -0.7670   20.5350  -28.4160 C   0  0  0  0  0  0  0  0  0  0  0  0
   -0.1720   19.2360  -28.2310 N   0  0  0  0  0  0  0  0  0  0  0  0
    0.9170   18.9320  -28.9430 N   0  0  0  0  0  0  0  0  0  0  0  0
    1.5400   17.7330  -28.8220 C   0  0  0  0  0  0  0  0  0  0  0  0
    1.0230   16.7980  -27.9320 C   0  0  0  0  0  0  0  0  0  0  0  0
    1.5820   15.6770  -27.7920 O   0  0  0  0  0  0  0  0  0  0  0  0
   -0.0920   17.1020  -27.2200 N   0  0  0  0  0  0  0  0  0  0  0  0
   -0.7000   18.3090  -27.3680 C   0  0  0  0  0  0  0  0  0  0  0  0
   -1.7580   18.5530  -26.7240 O   0  0  0  0  0  0  0  0  0  0  0  0
   -0.9830   21.3710  -27.3080 C   0  0  0  0  0  0  0  0  0  0  0  0
   -1.5810   22.6230  -27.4730 C   0  0  0  0  0  0  0  0  0  0  0  0
   -6.0916   25.4485  -28.6038 H   0  0  0  0  0  0  0  0  0  0  0  0
   -5.3041   26.3723  -29.9279 H   0  0  0  0  0  0  0  0  0  0  0  0
   -7.0859   26.1449  -29.9279 H   0  0  0  0  0  0  0  0  0  0  0  0
   -8.0949   24.0220  -30.5560 H   0  0  0  0  0  0  0  0  0  0  0  0
   -7.8490   21.9169  -31.8680 H   0  0  0  0  0  0  0  0  0  0  0  0
   -3.5545   22.4022  -31.8687 H   0  0  0  0  0  0  0  0  0  0  0  0
   -2.1104   22.5419  -30.8503 H   0  0  0  0  0  0  0  0  0  0  0  0
   -1.0415   20.3088  -30.5603 H   0  0  0  0  0  0  0  0  0  0  0  0
    2.4369   17.5048  -29.4165 H   0  0  0  0  0  0  0  0  0  0  0  0
   -0.4920   16.3970  -26.5590 H   0  0  0  0  0  0  0  0  0  0  0  0
   -0.6796   21.0380  -26.3045 H   0  0  0  0  0  0  0  0  0  0  0  0
   -1.7381   23.2742  -26.6005 H   0  0  0  0  0  0  0  0  0  0  0  0
  1  2  1  0
  2  3  2  0
  3  4  1  0
  4  5  2  0
  5  6  1  0
  5  7  1  0
  7  8  2  0
  8  9  1  0
  9 10  1  0
 10 11  2  0
 10 12  2  0
 10 13  1  0
 13 14  2  0
 14 15  1  0
 15 16  2  0
 16 17  1  0
 17 18  1  0
 18 19  2  0
 19 20  1  0
 20 21  2  0
 20 22  1  0
 22 23  1  0
 23 24  2  0
 16 25  1  0
 25 26  2  0
  8  2  1  0
 26 13  1  0
 23 17  1  0
  1 27  1  0
  1 28  1  0
  1 29  1  0
  3 30  1  0
  4 31  1  0
  7 32  1  0
 14 33  1  0
 15 34  1  0
 19 35  1  0
 22 36  1  0
 25 37  1  0
 26 38  1  0
M  CHG  1   9  -1
M  END
>  <UniqueID>  (46) 
44

>  <SMILES>  (46) 
Cc1ccc(Cl)cc1[N-]S(=O)(=O)c1ccc(-n2ncc(=O)[nH]c2=O)cc1

>  <Energy>  (46) 
52.15792231051814

>  <Genealogy>  (46) 
Cc1ccc(Cl)cc1[N-]S(=O)(=O)c1ccc(-n2ncc(=O)[nH]c2=O)cc1 (protonated)
Cc1ccc(Cl)cc1[N-]S(=O)(=O)c1ccc(-n2ncc(=O)[nH]c2=O)cc1 (3D coordinates assigned)
Cc1ccc(Cl)cc1[N-]S(=O)(=O)c1ccc(-n2ncc(=O)[nH]c2=O)cc1 (optimized conformer: 52.15792231051814 kcal/mol)

>  <smiles>  (46) 
Cc1ccc(Cl)cc1NS(=O)(=O)c1ccc(-n2ncc(=O)[nH]c2=O)cc1

>  <score_type>  (46) 
oracle

>  <origin>  (46) 
adgpu

>  <m_score__min__energy>  (46) 
-10.130000000000001

>  <m_primary>  (46) 
energy

$$$$
46:0
     RDKit          3D

 42 45  0  0  0  0  0  0  0  0999 V2000
   -3.0400   17.7400  -34.8160 O   0  0  0  0  0  0  0  0  0  0  0  0
   -4.1030   17.7040  -34.1380 C   0  0  0  0  0  0  0  0  0  0  0  0
   -4.9310   16.4730  -34.1600 C   0  0  0  0  0  0  0  0  0  0  0  0
   -6.3340   16.5760  -34.1980 C   0  0  0  0  0  0  0  0  0  0  0  0
   -7.1270   15.4250  -34.2300 C   0  0  0  0  0  0  0  0  0  0  0  0
   -6.5300   14.1620  -34.2350 C   0  0  0  0  0  0  0  0  0  0  0  0
   -5.1380   14.0480  -34.2150 C   0  0  0  0  0  0  0  0  0  0  0  0
   -4.3400   15.1960  -34.1830 C   0  0  0  0  0  0  0  0  0  0  0  0
   -4.4970   18.9010  -33.3700 C   0  0  0  0  0  0  0  0  0  0  0  0
   -3.6370   19.7300  -32.6730 C   0  0  0  0  0  0  0  0  0  0  0  0
   -4.4490   20.7320  -32.1780 C   0  0  0  0  0  0  0  0  0  0  0  0
   -3.9660   21.9260  -31.4490 C   0  0  0  0  0  0  0  0  0  0  0  0
   -2.5940   22.1190  -31.2150 C   0  0  0  0  0  0  0  0  0  0  0  0
   -2.1490   23.2440  -30.5160 C   0  0  0  0  0  0  0  0  0  0  0  0
   -3.0680   24.1790  -30.0310 C   0  0  0  0  0  0  0  0  0  0  0  0
   -2.6160   25.2960  -29.3370 O   0  0  0  0  0  0  0  0  0  0  0  0
   -4.4390   23.9880  -30.2410 C   0  0  0  0  0  0  0  0  0  0  0  0
   -5.3500   24.9220  -29.7500 O   0  0  0  0  0  0  0  0  0  0  0  0
   -4.8860   22.8600  -30.9430 C   0  0  0  0  0  0  0  0  0  0  0  0
   -5.7240   20.4870  -32.5660 N   0  0  0  0  0  0  0  0  0  0  0  0
   -6.9150   21.2120  -32.2180 C   0  0  0  0  0  0  0  0  0  0  0  0
   -7.9380   20.6050  -31.4680 C   0  0  0  0  0  0  0  0  0  0  0  0
   -9.0990   21.3160  -31.1510 C   0  0  0  0  0  0  0  0  0  0  0  0
   -9.2560   22.6320  -31.5930 C   0  0  0  0  0  0  0  0  0  0  0  0
   -8.2550   23.2360  -32.3590 C   0  0  0  0  0  0  0  0  0  0  0  0
   -7.0910   22.5280  -32.6760 C   0  0  0  0  0  0  0  0  0  0  0  0
   -5.7530   19.3830  -33.2980 N   0  0  0  0  0  0  0  0  0  0  0  0
   -6.8095   17.5679  -34.2026 H   0  0  0  0  0  0  0  0  0  0  0  0
   -8.2232   15.5141  -34.2513 H   0  0  0  0  0  0  0  0  0  0  0  0
   -7.1559   13.2576  -34.2547 H   0  0  0  0  0  0  0  0  0  0  0  0
   -4.6685   13.0533  -34.2244 H   0  0  0  0  0  0  0  0  0  0  0  0
   -3.2442   15.1003  -34.1758 H   0  0  0  0  0  0  0  0  0  0  0  0
   -2.5507   19.6169  -32.5422 H   0  0  0  0  0  0  0  0  0  0  0  0
   -1.8667   21.3808  -31.5839 H   0  0  0  0  0  0  0  0  0  0  0  0
   -1.0725   23.3943  -30.3469 H   0  0  0  0  0  0  0  0  0  0  0  0
   -5.0580   25.6810  -29.1460 H   0  0  0  0  0  0  0  0  0  0  0  0
   -5.9638   22.7050  -31.0988 H   0  0  0  0  0  0  0  0  0  0  0  0
   -7.8240   19.5648  -31.1289 H   0  0  0  0  0  0  0  0  0  0  0  0
   -9.8896   20.8390  -30.5531 H   0  0  0  0  0  0  0  0  0  0  0  0
  -10.1674   23.1928  -31.3382 H   0  0  0  0  0  0  0  0  0  0  0  0
   -8.3827   24.2696  -32.7131 H   0  0  0  0  0  0  0  0  0  0  0  0
   -6.3099   23.0041  -33.2868 H   0  0  0  0  0  0  0  0  0  0  0  0
  1  2  2  0
  2  3  1  0
  3  4  2  0
  4  5  1  0
  5  6  2  0
  6  7  1  0
  7  8  2  0
  2  9  1  0
  9 10  1  0
 10 11  2  0
 11 12  1  0
 12 13  2  0
 13 14  1  0
 14 15  2  0
 15 16  1  0
 15 17  1  0
 17 18  1  0
 17 19  2  0
 11 20  1  0
 20 21  1  0
 21 22  2  0
 22 23  1  0
 23 24  2  0
 24 25  1  0
 25 26  2  0
 20 27  1  0
  8  3  1  0
 27  9  2  0
 19 12  1  0
 26 21  1  0
  4 28  1  0
  5 29  1  0
  6 30  1  0
  7 31  1  0
  8 32  1  0
 10 33  1  0
 13 34  1  0
 14 35  1  0
 18 36  1  0
 19 37  1  0
 22 38  1  0
 23 39  1  0
 24 40  1  0
 25 41  1  0
 26 42  1  0
M  CHG  1  16  -1
M  END
>  <UniqueID>  (47) 
45

>  <SMILES>  (47) 
O=C(c1ccccc1)c1cc(-c2ccc([O-])c(O)c2)n(-c2ccccc2)n1

>  <Energy>  (47) 
89.37390075644382

>  <Genealogy>  (47) 
O=C(c1ccccc1)c1cc(-c2ccc([O-])c(O)c2)n(-c2ccccc2)n1 (protonated)
O=C(c1ccccc1)c1cc(-c2ccc([O-])c(O)c2)n(-c2ccccc2)n1 (3D coordinates assigned)
O=C(c1ccccc1)c1cc(-c2ccc([O-])c(O)c2)n(-c2ccccc2)n1 (optimized conformer: 89.37390075644382 kcal/mol)

>  <smiles>  (47) 
O=C(c1ccccc1)c1cc(-c2ccc(O)c(O)c2)n(-c2ccccc2)n1

>  <score_type>  (47) 
oracle

>  <origin>  (47) 
adgpu

>  <m_score__min__energy>  (47) 
-10.880000000000001

>  <m_primary>  (47) 
energy

$$$$
47:0
     RDKit          3D

 58 62  0  0  0  0  0  0  0  0999 V2000
   -1.5340   25.2980  -28.6700 O   0  0  0  0  0  0  0  0  0  0  0  0
   -2.5760   24.7810  -28.1760 C   0  0  0  0  0  0  0  0  0  0  0  0
   -2.6930   24.6980  -26.7400 N   0  0  0  0  0  0  0  0  0  0  0  0
   -1.5900   25.0470  -25.8940 C   0  0  0  0  0  0  0  0  0  0  0  0
   -1.6540   26.2760  -25.2170 C   0  0  0  0  0  0  0  0  0  0  0  0
   -0.5830   26.7260  -24.4560 C   0  0  0  0  0  0  0  0  0  0  0  0
    0.5690   25.9470  -24.3450 C   0  0  0  0  0  0  0  0  0  0  0  0
    0.6490   24.7130  -24.9940 C   0  0  0  0  0  0  0  0  0  0  0  0
   -0.4230   24.2250  -25.7880 C   0  0  0  0  0  0  0  0  0  0  0  0
   -0.3220   22.9110  -26.4290 N   0  0  0  0  0  0  0  0  0  0  0  0
   -1.1380   21.7780  -25.9020 C   0  0  0  0  0  0  0  0  0  0  0  0
   -1.0910   20.5100  -26.7800 C   0  0  0  0  0  0  0  0  0  0  0  0
    0.1320   20.3630  -27.4700 O   0  0  0  0  0  0  0  0  0  0  0  0
    0.2840   21.4520  -28.3520 C   0  0  0  0  0  0  0  0  0  0  0  0
    0.6200   22.6990  -27.5470 C   0  0  0  0  0  0  0  0  0  0  0  0
   -3.6460   24.3140  -29.1010 C   0  0  0  0  0  0  0  0  0  0  0  0
   -5.0200   24.5110  -28.8250 C   0  0  0  0  0  0  0  0  0  0  0  0
   -5.9950   24.0510  -29.7130 C   0  0  0  0  0  0  0  0  0  0  0  0
   -5.6190   23.3810  -30.8860 C   0  0  0  0  0  0  0  0  0  0  0  0
   -6.8610   22.8060  -31.9850 S   0  0  0  0  0  0  0  0  0  0  0  0
   -8.1690   22.6190  -31.2660 O   0  0  0  0  0  0  0  0  0  0  0  0
   -7.0570   23.8210  -33.0760 O   0  0  0  0  0  0  0  0  0  0  0  0
   -6.3460   21.3030  -32.6730 N   0  0  0  0  0  0  0  0  0  0  0  0
   -4.9940   21.0780  -33.1790 C   0  0  0  0  0  0  0  0  0  0  0  0
   -4.8830   19.5530  -33.4160 C   0  0  0  0  0  0  0  0  0  0  0  0
   -6.1830   19.0300  -32.9050 C   0  0  0  0  0  0  0  0  0  0  0  0
   -6.6080   17.7040  -32.8350 C   0  0  0  0  0  0  0  0  0  0  0  0
   -7.9070   17.4370  -32.3470 C   0  0  0  0  0  0  0  0  0  0  0  0
   -8.7370   18.4970  -31.9310 C   0  0  0  0  0  0  0  0  0  0  0  0
   -8.2720   19.8250  -31.9910 C   0  0  0  0  0  0  0  0  0  0  0  0
   -6.9850   20.0550  -32.4940 C   0  0  0  0  0  0  0  0  0  0  0  0
   -4.2580   23.1920  -31.1800 C   0  0  0  0  0  0  0  0  0  0  0  0
   -3.2810   23.6500  -30.2990 C   0  0  0  0  0  0  0  0  0  0  0  0
   -3.5620   24.3700  -26.2700 H   0  0  0  0  0  0  0  0  0  0  0  0
   -2.5639   26.8898  -25.2905 H   0  0  0  0  0  0  0  0  0  0  0  0
   -0.6430   27.6962  -23.9410 H   0  0  0  0  0  0  0  0  0  0  0  0
    1.4175   26.3061  -23.7440 H   0  0  0  0  0  0  0  0  0  0  0  0
    1.5607   24.1066  -24.8882 H   0  0  0  0  0  0  0  0  0  0  0  0
   -0.7646   21.5192  -24.9002 H   0  0  0  0  0  0  0  0  0  0  0  0
   -2.1841   22.1179  -25.8890 H   0  0  0  0  0  0  0  0  0  0  0  0
   -1.2376   19.6311  -26.1350 H   0  0  0  0  0  0  0  0  0  0  0  0
   -1.8861   20.6021  -27.5346 H   0  0  0  0  0  0  0  0  0  0  0  0
    1.0975   21.2409  -29.0617 H   0  0  0  0  0  0  0  0  0  0  0  0
   -0.6503   21.6109  -28.9104 H   0  0  0  0  0  0  0  0  0  0  0  0
    1.6363   22.5944  -27.1392 H   0  0  0  0  0  0  0  0  0  0  0  0
    0.5465   23.5659  -28.2201 H   0  0  0  0  0  0  0  0  0  0  0  0
   -5.3225   25.0305  -27.9038 H   0  0  0  0  0  0  0  0  0  0  0  0
   -7.0600   24.2146  -29.4917 H   0  0  0  0  0  0  0  0  0  0  0  0
   -4.8415   21.6245  -34.1214 H   0  0  0  0  0  0  0  0  0  0  0  0
   -4.2314   21.4351  -32.4712 H   0  0  0  0  0  0  0  0  0  0  0  0
   -4.7613   19.3285  -34.4859 H   0  0  0  0  0  0  0  0  0  0  0  0
   -4.0122   19.1025  -32.9173 H   0  0  0  0  0  0  0  0  0  0  0  0
   -5.9470   16.8841  -33.1525 H   0  0  0  0  0  0  0  0  0  0  0  0
   -8.2707   16.4003  -32.2918 H   0  0  0  0  0  0  0  0  0  0  0  0
   -9.7504   18.2867  -31.5585 H   0  0  0  0  0  0  0  0  0  0  0  0
   -8.9029   20.6598  -31.6518 H   0  0  0  0  0  0  0  0  0  0  0  0
   -3.9633   22.6810  -32.1084 H   0  0  0  0  0  0  0  0  0  0  0  0
   -2.2178   23.4952  -30.5348 H   0  0  0  0  0  0  0  0  0  0  0  0
  1  2  2  0
  2  3  1  0
  3  4  1  0
  4  5  2  0
  5  6  1  0
  6  7  2  0
  7  8  1  0
  8  9  2  0
  9 10  1  0
 10 11  1  0
 11 12  1  0
 12 13  1  0
 13 14  1  0
 14 15  1  0
  2 16  1  0
 16 17  2  0
 17 18  1  0
 18 19  2  0
 19 20  1  0
 20 21  2  0
 20 22  2  0
 20 23  1  0
 23 24  1  0
 24 25  1  0
 25 26  1  0
 26 27  2  0
 27 28  1  0
 28 29  2  0
 29 30  1  0
 30 31  2  0
 19 32  1  0
 32 33  2  0
  9  4  1  0
 15 10  1  0
 33 16  1  0
 31 23  1  0
 31 26  1  0
  3 34  1  0
  5 35  1  0
  6 36  1  0
  7 37  1  0
  8 38  1  0
 11 39  1  0
 11 40  1  0
 12 41  1  0
 12 42  1  0
 14 43  1  0
 14 44  1  0
 15 45  1  0
 15 46  1  0
 17 47  1  0
 18 48  1  0
 24 49  1  0
 24 50  1  0
 25 51  1  0
 25 52  1  0
 27 53  1  0
 28 54  1  0
 29 55  1  0
 30 56  1  0
 32 57  1  0
 33 58  1  0
M  END
>  <UniqueID>  (48) 
46

>  <SMILES>  (48) 
O=C(Nc1ccccc1N1CCOCC1)c1ccc(S(=O)(=O)N2CCc3ccccc32)cc1

>  <Energy>  (48) 
100.5106501080506

>  <Genealogy>  (48) 
O=C(Nc1ccccc1N1CCOCC1)c1ccc(S(=O)(=O)N2CCc3ccccc32)cc1 (3D coordinates assigned)
O=C(Nc1ccccc1N1CCOCC1)c1ccc(S(=O)(=O)N2CCc3ccccc32)cc1 (nonaromatic ring conformer: 100.5106501080506 kcal/mol)

>  <smiles>  (48) 
O=C(Nc1ccccc1N1CCOCC1)c1ccc(S(=O)(=O)N2CCc3ccccc32)cc1

>  <score_type>  (48) 
oracle

>  <origin>  (48) 
adgpu

>  <m_score__min__energy>  (48) 
-10.26

>  <m_primary>  (48) 
energy

$$$$
48:0
     RDKit          3D

 39 41  0  0  0  0  0  0  0  0999 V2000
   -1.2450   20.9130  -26.0650 C   0  0  0  0  0  0  0  0  0  0  0  0
   -1.2030   22.3750  -26.1150 N   0  0  0  0  0  0  0  0  0  0  0  0
   -1.8260   23.0910  -27.1980 C   0  0  0  0  0  0  0  0  0  0  0  0
   -3.1760   22.8650  -27.5240 C   0  0  0  0  0  0  0  0  0  0  0  0
   -3.7820   23.5680  -28.5680 C   0  0  0  0  0  0  0  0  0  0  0  0
   -3.0430   24.5010  -29.3170 C   0  0  0  0  0  0  0  0  0  0  0  0
   -3.6370   25.2760  -30.3690 N   0  0  0  0  0  0  0  0  0  0  0  0
   -5.0340   25.3730  -30.6720 C   0  0  0  0  0  0  0  0  0  0  0  0
   -5.6530   26.4590  -30.5120 O   0  0  0  0  0  0  0  0  0  0  0  0
   -5.7580   24.1770  -31.1170 C   0  0  0  0  0  0  0  0  0  0  0  0
   -7.1010   23.8990  -30.8640 C   0  0  0  0  0  0  0  0  0  0  0  0
   -7.3150   22.6870  -31.4770 C   0  0  0  0  0  0  0  0  0  0  0  0
   -8.4620   21.9010  -31.5680 C   0  0  0  0  0  0  0  0  0  0  0  0
   -8.3660   20.6840  -32.2670 C   0  0  0  0  0  0  0  0  0  0  0  0
   -7.1440   20.2920  -32.8590 C   0  0  0  0  0  0  0  0  0  0  0  0
   -6.0070   21.1140  -32.7550 C   0  0  0  0  0  0  0  0  0  0  0  0
   -6.1310   22.3090  -32.0490 C   0  0  0  0  0  0  0  0  0  0  0  0
   -5.2060   23.2100  -31.8270 O   0  0  0  0  0  0  0  0  0  0  0  0
   -1.7070   24.7430  -28.9790 C   0  0  0  0  0  0  0  0  0  0  0  0
   -1.0990   24.0360  -27.9380 C   0  0  0  0  0  0  0  0  0  0  0  0
   -0.1800   23.2200  -24.9900 S   0  0  0  0  0  0  0  0  0  0  0  0
   -0.8620   24.8260  -24.6330 C   0  0  0  0  0  0  0  0  0  0  0  0
   -0.0500   22.4220  -23.7250 O   0  0  0  0  0  0  0  0  0  0  0  0
    1.1840   23.4170  -25.5890 O   0  0  0  0  0  0  0  0  0  0  0  0
   -1.2545   20.5821  -25.0160 H   0  0  0  0  0  0  0  0  0  0  0  0
   -2.1538   20.5548  -26.5707 H   0  0  0  0  0  0  0  0  0  0  0  0
   -0.3583   20.5032  -26.5707 H   0  0  0  0  0  0  0  0  0  0  0  0
   -3.7592   22.1284  -26.9519 H   0  0  0  0  0  0  0  0  0  0  0  0
   -4.8415   23.3911  -28.8052 H   0  0  0  0  0  0  0  0  0  0  0  0
   -7.8236   24.5095  -30.3026 H   0  0  0  0  0  0  0  0  0  0  0  0
   -9.4093   22.2209  -31.1094 H   0  0  0  0  0  0  0  0  0  0  0  0
   -9.2483   20.0328  -32.3534 H   0  0  0  0  0  0  0  0  0  0  0  0
   -7.0815   19.3387  -33.4042 H   0  0  0  0  0  0  0  0  0  0  0  0
   -5.0515   20.8230  -33.2158 H   0  0  0  0  0  0  0  0  0  0  0  0
   -1.1307   25.4956  -29.5370 H   0  0  0  0  0  0  0  0  0  0  0  0
   -0.0420   24.2218  -27.6968 H   0  0  0  0  0  0  0  0  0  0  0  0
   -0.9212   24.9653  -23.5435 H   0  0  0  0  0  0  0  0  0  0  0  0
   -0.2163   25.6034  -25.0675 H   0  0  0  0  0  0  0  0  0  0  0  0
   -1.8697   24.9013  -25.0675 H   0  0  0  0  0  0  0  0  0  0  0  0
  1  2  1  0
  2  3  1  0
  3  4  2  0
  4  5  1  0
  5  6  2  0
  6  7  1  0
  7  8  1  0
  8  9  2  0
  8 10  1  0
 10 11  2  0
 11 12  1  0
 12 13  2  0
 13 14  1  0
 14 15  2  0
 15 16  1  0
 16 17  2  0
 17 18  1  0
  6 19  1  0
 19 20  2  0
  2 21  1  0
 21 22  1  0
 21 23  2  0
 21 24  2  0
 20  3  1  0
 18 10  1  0
 17 12  1  0
  1 25  1  0
  1 26  1  0
  1 27  1  0
  4 28  1  0
  5 29  1  0
 11 30  1  0
 13 31  1  0
 14 32  1  0
 15 33  1  0
 16 34  1  0
 19 35  1  0
 20 36  1  0
 22 37  1  0
 22 38  1  0
 22 39  1  0
M  CHG  1   7  -1
M  END
>  <UniqueID>  (49) 
47

>  <SMILES>  (49) 
CN(c1ccc([N-]C(=O)c2cc3ccccc3o2)cc1)S(C)(=O)=O

>  <Energy>  (49) 
77.8413442851304

>  <Genealogy>  (49) 
CN(c1ccc([N-]C(=O)c2cc3ccccc3o2)cc1)S(C)(=O)=O (protonated)
CN(c1ccc([N-]C(=O)c2cc3ccccc3o2)cc1)S(C)(=O)=O (3D coordinates assigned)
CN(c1ccc([N-]C(=O)c2cc3ccccc3o2)cc1)S(C)(=O)=O (optimized conformer: 77.8413442851304 kcal/mol)

>  <smiles>  (49) 
CN(c1ccc(NC(=O)c2cc3ccccc3o2)cc1)S(C)(=O)=O

>  <score_type>  (49) 
oracle

>  <origin>  (49) 
adgpu

>  <m_score__min__energy>  (49) 
-10.1

>  <m_primary>  (49) 
energy

$$$$
49:0
     RDKit          3D

 35 37  0  0  0  0  0  0  0  0999 V2000
   -3.1068   23.3951  -26.0785 H   0  0  0  0  0  0  0  0  0  0  0  0
   -2.7730   24.0410  -26.9040 C   0  0  0  0  0  0  0  0  0  0  0  0
   -1.7050   24.9130  -26.7060 C   0  0  0  0  0  0  0  0  0  0  0  0
   -0.9080   24.9510  -25.1360 Cl  0  0  0  0  0  0  0  0  0  0  0  0
   -1.2750   25.7150  -27.7720 C   0  0  0  0  0  0  0  0  0  0  0  0
   -0.1150   26.6520  -27.6270 C   0  0  0  0  0  0  0  0  0  0  0  0
    0.0908   26.8182  -26.5593 H   0  0  0  0  0  0  0  0  0  0  0  0
    0.7723   26.2142  -28.1076 H   0  0  0  0  0  0  0  0  0  0  0  0
   -0.3564   27.6115  -28.1076 H   0  0  0  0  0  0  0  0  0  0  0  0
   -1.9310   25.6520  -28.9610 N   0  0  0  0  0  0  0  0  0  0  0  0
   -3.0020   24.8430  -29.1840 C   0  0  0  0  0  0  0  0  0  0  0  0
   -3.5650   24.9210  -30.3600 N   0  0  0  0  0  0  0  0  0  0  0  0
   -4.7990   24.3760  -30.8510 C   0  0  0  0  0  0  0  0  0  0  0  0
   -5.8640   24.9850  -30.5660 O   0  0  0  0  0  0  0  0  0  0  0  0
   -4.8650   23.0310  -31.5120 C   0  0  0  0  0  0  0  0  0  0  0  0
   -6.1040   22.3820  -31.7900 C   0  0  0  0  0  0  0  0  0  0  0  0
   -7.4520   22.9530  -31.4110 C   0  0  0  0  0  0  0  0  0  0  0  0
   -8.4710   22.0760  -31.7340 F   0  0  0  0  0  0  0  0  0  0  0  0
   -7.5070   23.1840  -30.0470 F   0  0  0  0  0  0  0  0  0  0  0  0
   -7.6480   24.1570  -32.0610 F   0  0  0  0  0  0  0  0  0  0  0  0
   -6.1010   21.1700  -32.4080 N   0  0  0  0  0  0  0  0  0  0  0  0
   -4.9650   20.5350  -32.7860 C   0  0  0  0  0  0  0  0  0  0  0  0
   -5.0450   19.2950  -33.4300 C   0  0  0  0  0  0  0  0  0  0  0  0
   -6.0276   18.8437  -33.6319 H   0  0  0  0  0  0  0  0  0  0  0  0
   -3.8790   18.6290  -33.8170 C   0  0  0  0  0  0  0  0  0  0  0  0
   -3.9446   17.6554  -34.3247 H   0  0  0  0  0  0  0  0  0  0  0  0
   -2.6290   19.2000  -33.5590 C   0  0  0  0  0  0  0  0  0  0  0  0
   -1.1680   18.3590  -34.0470 Cl  0  0  0  0  0  0  0  0  0  0  0  0
   -2.5420   20.4380  -32.9150 C   0  0  0  0  0  0  0  0  0  0  0  0
   -1.5561   20.8824  -32.7134 H   0  0  0  0  0  0  0  0  0  0  0  0
   -3.7120   21.1190  -32.5230 C   0  0  0  0  0  0  0  0  0  0  0  0
   -3.6660   22.3630  -31.8680 C   0  0  0  0  0  0  0  0  0  0  0  0
   -2.5460   22.8660  -31.5790 O   0  0  0  0  0  0  0  0  0  0  0  0
   -3.4270   23.9760  -28.1400 C   0  0  0  0  0  0  0  0  0  0  0  0
   -4.5990   22.6780  -28.3230 Cl  0  0  0  0  0  0  0  0  0  0  0  0
  1  2  1  0
  2  3  1  0
  3  4  1  0
  3  5  2  0
  5  6  1  0
  6  7  1  0
  6  8  1  0
  6  9  1  0
  5 10  1  0
 10 11  1  0
 11 12  2  0
 12 13  1  0
 13 14  2  0
 13 15  1  0
 15 16  2  0
 16 17  1  0
 17 18  1  0
 17 19  1  0
 17 20  1  0
 16 21  1  0
 21 22  1  0
 22 23  2  0
 23 24  1  0
 23 25  1  0
 25 26  1  0
 25 27  2  0
 27 28  1  0
 27 29  1  0
 29 30  1  0
 29 31  2  0
 31 32  1  0
 32 33  2  0
 11 34  1  0
 34 35  1  0
 34  2  2  0
 32 15  1  0
 31 22  1  0
M  CHG  2  10  -1  21  -1
M  END
>  <UniqueID>  (50) 
48

>  <SMILES>  (50) 
Cc1[n-]/c(=N/C(=O)c2c(C(F)(F)F)[n-]c3ccc(Cl)cc3c2=O)c(Cl)cc1Cl

>  <Energy>  (50) 
67.11358684359006

>  <Genealogy>  (50) 
Cc1[n-]c(=NC(=O)c2c(C(F)(F)F)[n-]c3ccc(Cl)cc3c2=O)c(Cl)cc1Cl (protonated)
Cc1[n-]/c(=N/C(=O)c2c(C(F)(F)F)[n-]c3ccc(Cl)cc3c2=O)c(Cl)cc1Cl (cis-trans isomerization)
Cc1[n-]/c(=N/C(=O)c2c(C(F)(F)F)[n-]c3ccc(Cl)cc3c2=O)c(Cl)cc1Cl (3D coordinates assigned)
Cc1[n-]/c(=N/C(=O)c2c(C(F)(F)F)[n-]c3ccc(Cl)cc3c2=O)c(Cl)cc1Cl (optimized conformer: 67.11358684359006 kcal/mol)

>  <smiles>  (50) 
Cc1[nH]c(=NC(=O)c2c(C(F)(F)F)[nH]c3ccc(Cl)cc3c2=O)c(Cl)cc1Cl

>  <score_type>  (50) 
oracle

>  <origin>  (50) 
adgpu

>  <m_score__min__energy>  (50) 
-9.7300000000000004

>  <m_primary>  (50) 
energy

$$$$
