0:0
     RDKit          3D

 46 49  0  0  0  0  0  0  0  0999 V2000
   -1.4510   21.5400  -35.0710 H   0  0  0  0  0  0  0  0  0  0  0  0
   -1.4260   20.6680  -34.5580 O   0  0  0  0  0  0  0  0  0  0  0  0
   -2.3590   20.3780  -33.5660 C   0  0  0  0  0  0  0  0  0  0  0  0
   -3.6500   20.1140  -33.8220 N   0  0  0  0  0  0  0  0  0  0  0  0
   -4.1750   19.9290  -32.5900 C   0  0  0  0  0  0  0  0  0  0  0  0
   -5.4200   19.6210  -32.3710 N   0  0  0  0  0  0  0  0  0  0  0  0
   -6.4550   19.5080  -33.3610 C   0  0  0  0  0  0  0  0  0  0  0  0
   -7.8390   19.5160  -32.9920 N   0  0  0  0  0  0  0  0  0  0  0  0
   -8.5850   19.5060  -33.7230 H   0  0  0  0  0  0  0  0  0  0  0  0
   -8.1330   19.4200  -31.9960 H   0  0  0  0  0  0  0  0  0  0  0  0
   -6.1220   19.3150  -34.5990 N   0  0  0  0  0  0  0  0  0  0  0  0
   -5.1170   19.2760  -34.8800 H   0  0  0  0  0  0  0  0  0  0  0  0
   -6.8490   19.1970  -35.3400 H   0  0  0  0  0  0  0  0  0  0  0  0
   -3.2850   20.0500  -31.5820 N   0  0  0  0  0  0  0  0  0  0  0  0
   -2.1250   20.3250  -32.2090 C   0  0  0  0  0  0  0  0  0  0  0  0
   -0.8290   20.6300  -31.5130 C   0  0  0  0  0  0  0  0  0  0  0  0
   -0.2106   19.7205  -31.4937 H   0  0  0  0  0  0  0  0  0  0  0  0
   -0.3218   21.4357  -32.0640 H   0  0  0  0  0  0  0  0  0  0  0  0
   -1.0590   21.0940  -30.1040 C   0  0  0  0  0  0  0  0  0  0  0  0
   -0.6890   20.4270  -28.9400 C   0  0  0  0  0  0  0  0  0  0  0  0
   -0.1145   19.4895  -28.9091 H   0  0  0  0  0  0  0  0  0  0  0  0
   -1.1360   21.0950  -27.8520 N   0  0  0  0  0  0  0  0  0  0  0  0
   -1.0090   20.8170  -26.8530 H   0  0  0  0  0  0  0  0  0  0  0  0
   -1.7980   22.1670  -28.3200 C   0  0  0  0  0  0  0  0  0  0  0  0
   -2.4600   23.1410  -27.5770 C   0  0  0  0  0  0  0  0  0  0  0  0
   -2.4658   23.1090  -26.4775 H   0  0  0  0  0  0  0  0  0  0  0  0
   -3.1210   24.1670  -28.2760 C   0  0  0  0  0  0  0  0  0  0  0  0
   -3.6428   24.9582  -27.7177 H   0  0  0  0  0  0  0  0  0  0  0  0
   -3.1210   24.1910  -29.6970 C   0  0  0  0  0  0  0  0  0  0  0  0
   -3.7890   25.2290  -30.4280 N   0  0  0  0  0  0  0  0  0  0  0  0
   -5.2090   25.3940  -30.5460 C   0  0  0  0  0  0  0  0  0  0  0  0
   -5.6880   26.5570  -30.4710 O   0  0  0  0  0  0  0  0  0  0  0  0
   -6.1140   24.2500  -30.8060 C   0  0  0  0  0  0  0  0  0  0  0  0
   -6.3770   23.8210  -32.1200 C   0  0  0  0  0  0  0  0  0  0  0  0
   -5.9047   24.3377  -32.9685 H   0  0  0  0  0  0  0  0  0  0  0  0
   -7.2350   22.7420  -32.3540 C   0  0  0  0  0  0  0  0  0  0  0  0
   -7.4283   22.4070  -33.3837 H   0  0  0  0  0  0  0  0  0  0  0  0
   -7.8470   22.0890  -31.2810 C   0  0  0  0  0  0  0  0  0  0  0  0
   -8.5187   21.2377  -31.4659 H   0  0  0  0  0  0  0  0  0  0  0  0
   -7.6060   22.5170  -29.9740 C   0  0  0  0  0  0  0  0  0  0  0  0
   -8.0922   22.0051  -29.1305 H   0  0  0  0  0  0  0  0  0  0  0  0
   -6.7480   23.5950  -29.7350 C   0  0  0  0  0  0  0  0  0  0  0  0
   -6.5679   23.9326  -28.7037 H   0  0  0  0  0  0  0  0  0  0  0  0
   -2.4230   23.1990  -30.4130 C   0  0  0  0  0  0  0  0  0  0  0  0
   -2.3903   23.2124  -31.5124 H   0  0  0  0  0  0  0  0  0  0  0  0
   -1.7750   22.2000  -29.6890 C   0  0  0  0  0  0  0  0  0  0  0  0
  1  2  1  0
  2  3  1  0
  3  4  1  0
  4  5  1  0
  5  6  2  0
  6  7  1  0
  7  8  1  0
  8  9  1  0
  8 10  1  0
  7 11  2  0
 11 12  1  0
 11 13  1  0
  5 14  1  0
 14 15  1  0
 15 16  1  0
 16 17  1  0
 16 18  1  0
 16 19  1  0
 19 20  2  0
 20 21  1  0
 20 22  1  0
 22 23  1  0
 22 24  1  0
 24 25  2  0
 25 26  1  0
 25 27  1  0
 27 28  1  0
 27 29  2  0
 29 30  1  0
 30 31  1  0
 31 32  2  0
 31 33  1  0
 33 34  2  0
 34 35  1  0
 34 36  1  0
 36 37  1  0
 36 38  2  0
 38 39  1  0
 38 40  1  0
 40 41  1  0
 40 42  2  0
 42 43  1  0
 29 44  1  0
 44 45  1  0
 44 46  2  0
 15  3  2  0
 46 19  1  0
 46 24  1  0
 42 33  1  0
M  CHG  4   4  -1  11   1  14  -1  30  -1
M  END
>  <UniqueID>  (1) 
1

>  <SMILES>  (1) 
NC(=[NH2+])/N=c1\[n-]c(O)c(Cc2c[nH]c3ccc([N-]C(=O)c4ccccc4)cc23)[n-]1

>  <Energy>  (1) 
119.33157051121792

>  <Genealogy>  (1) 
NC(=[NH2+])N=c1[n-]c(O)c(Cc2c[nH]c3ccc([N-]C(=O)c4ccccc4)cc23)[n-]1 (protonated)
NC(=[NH2+])/N=c1\[n-]c(O)c(Cc2c[nH]c3ccc([N-]C(=O)c4ccccc4)cc23)[n-]1 (cis-trans isomerization)
NC(=[NH2+])/N=c1\[n-]c(O)c(Cc2c[nH]c3ccc([N-]C(=O)c4ccccc4)cc23)[n-]1 (3D coordinates assigned)
NC(=[NH2+])/N=c1\[n-]c(O)c(Cc2c[nH]c3ccc([N-]C(=O)c4ccccc4)cc23)[n-]1 (optimized conformer: 119.33157051121792 kcal/mol)

>  <smiles>  (1) 
N=C(N)N=c1[nH]c(O)c(Cc2c[nH]c3ccc(NC(=O)c4ccccc4)cc23)[nH]1

>  <score_type>  (1) 
oracle

>  <origin>  (1) 
adgpu

>  <m_score__min__energy>  (1) 
-10.34

>  <m_primary>  (1) 
energy

$$$$
1:0
     RDKit          3D

 53 56  0  0  0  0  0  0  0  0999 V2000
   -2.1770   20.7150  -34.1980 N   0  0  0  0  0  0  0  0  0  0  0  0
   -3.0360   20.2710  -33.1770 N   0  0  0  0  0  0  0  0  0  0  0  0
   -4.0680   19.4110  -33.2770 C   0  0  0  0  0  0  0  0  0  0  0  0
   -4.5500   19.1780  -31.9970 C   0  0  0  0  0  0  0  0  0  0  0  0
   -3.8360   19.9000  -31.1050 N   0  0  0  0  0  0  0  0  0  0  0  0
   -2.9220   20.5490  -31.8630 C   0  0  0  0  0  0  0  0  0  0  0  0
   -1.9700   21.2940  -31.3790 N   0  0  0  0  0  0  0  0  0  0  0  0
   -1.7610   21.5970  -29.9880 C   0  0  0  0  0  0  0  0  0  0  0  0
   -0.7590   21.1330  -29.3780 O   0  0  0  0  0  0  0  0  0  0  0  0
   -2.6980   22.5000  -29.2830 C   0  0  0  0  0  0  0  0  0  0  0  0
   -2.4580   22.8810  -27.9490 C   0  0  0  0  0  0  0  0  0  0  0  0
   -3.2790   23.8250  -27.3290 C   0  0  0  0  0  0  0  0  0  0  0  0
   -4.3390   24.4080  -28.0290 C   0  0  0  0  0  0  0  0  0  0  0  0
   -4.6090   24.0200  -29.3490 C   0  0  0  0  0  0  0  0  0  0  0  0
   -5.9310   24.7710  -30.2480 S   0  0  0  0  0  0  0  0  0  0  0  0
   -5.3580   25.7210  -31.2670 O   0  0  0  0  0  0  0  0  0  0  0  0
   -6.7790   25.5700  -29.2930 O   0  0  0  0  0  0  0  0  0  0  0  0
   -6.9190   23.5900  -31.0790 N   0  0  0  0  0  0  0  0  0  0  0  0
   -7.4600   22.6020  -30.1360 C   0  0  0  0  0  0  0  0  0  0  0  0
   -8.3900   21.6230  -30.8860 C   0  0  0  0  0  0  0  0  0  0  0  0
   -8.2260   21.6790  -32.2960 O   0  0  0  0  0  0  0  0  0  0  0  0
   -6.8520   21.6450  -32.6270 C   0  0  0  0  0  0  0  0  0  0  0  0
   -6.1490   22.9310  -32.1530 C   0  0  0  0  0  0  0  0  0  0  0  0
   -3.8050   23.0460  -29.9570 C   0  0  0  0  0  0  0  0  0  0  0  0
   -5.6430   18.2220  -31.5880 C   0  0  0  0  0  0  0  0  0  0  0  0
   -6.9810   18.3650  -32.3550 C   0  0  0  0  0  0  0  0  0  0  0  0
   -6.9120   17.9080  -33.8260 C   0  0  0  0  0  0  0  0  0  0  0  0
   -6.0440   18.8230  -34.7210 C   0  0  0  0  0  0  0  0  0  0  0  0
   -4.5220   18.6930  -34.5160 C   0  0  0  0  0  0  0  0  0  0  0  0
   -1.9790   21.7330  -34.3130 H   0  0  0  0  0  0  0  0  0  0  0  0
   -1.7770   20.0620  -34.9030 H   0  0  0  0  0  0  0  0  0  0  0  0
   -1.6208   22.4334  -27.3933 H   0  0  0  0  0  0  0  0  0  0  0  0
   -3.0905   24.1115  -26.2838 H   0  0  0  0  0  0  0  0  0  0  0  0
   -4.9627   25.1729  -27.5433 H   0  0  0  0  0  0  0  0  0  0  0  0
   -6.6317   22.0415  -29.6781 H   0  0  0  0  0  0  0  0  0  0  0  0
   -8.0320   23.1206  -29.3525 H   0  0  0  0  0  0  0  0  0  0  0  0
   -8.1702   20.5999  -30.5469 H   0  0  0  0  0  0  0  0  0  0  0  0
   -9.4269   21.9133  -30.6613 H   0  0  0  0  0  0  0  0  0  0  0  0
   -6.3841   20.7766  -32.1402 H   0  0  0  0  0  0  0  0  0  0  0  0
   -6.7519   21.5679  -33.7197 H   0  0  0  0  0  0  0  0  0  0  0  0
   -5.1487   22.6752  -31.7735 H   0  0  0  0  0  0  0  0  0  0  0  0
   -6.0727   23.6229  -33.0047 H   0  0  0  0  0  0  0  0  0  0  0  0
   -4.0431   22.7041  -30.9750 H   0  0  0  0  0  0  0  0  0  0  0  0
   -5.2721   17.1981  -31.7431 H   0  0  0  0  0  0  0  0  0  0  0  0
   -5.8718   18.4589  -30.5385 H   0  0  0  0  0  0  0  0  0  0  0  0
   -7.7415   17.7597  -31.8399 H   0  0  0  0  0  0  0  0  0  0  0  0
   -7.2290   19.4366  -32.3657 H   0  0  0  0  0  0  0  0  0  0  0  0
   -6.4900   16.8926  -33.8548 H   0  0  0  0  0  0  0  0  0  0  0  0
   -7.9369   17.9480  -34.2235 H   0  0  0  0  0  0  0  0  0  0  0  0
   -6.2673   18.5823  -35.7709 H   0  0  0  0  0  0  0  0  0  0  0  0
   -6.3015   19.8551  -34.4411 H   0  0  0  0  0  0  0  0  0  0  0  0
   -4.2635   17.6276  -34.4262 H   0  0  0  0  0  0  0  0  0  0  0  0
   -4.0180   19.1477  -35.3816 H   0  0  0  0  0  0  0  0  0  0  0  0
  1  2  1  0
  2  3  1  0
  3  4  2  0
  4  5  1  0
  5  6  1  0
  6  7  2  3
  7  8  1  0
  8  9  2  0
  8 10  1  0
 10 11  2  0
 11 12  1  0
 12 13  2  0
 13 14  1  0
 14 15  1  0
 15 16  2  0
 15 17  2  0
 15 18  1  0
 18 19  1  0
 19 20  1  0
 20 21  1  0
 21 22  1  0
 22 23  1  0
 14 24  2  0
  4 25  1  0
 25 26  1  0
 26 27  1  0
 27 28  1  0
 28 29  1  0
  6  2  1  0
 24 10  1  0
 29  3  1  0
 23 18  1  0
  1 30  1  0
  1 31  1  0
 11 32  1  0
 12 33  1  0
 13 34  1  0
 19 35  1  0
 19 36  1  0
 20 37  1  0
 20 38  1  0
 22 39  1  0
 22 40  1  0
 23 41  1  0
 23 42  1  0
 24 43  1  0
 25 44  1  0
 25 45  1  0
 26 46  1  0
 26 47  1  0
 27 48  1  0
 27 49  1  0
 28 50  1  0
 28 51  1  0
 29 52  1  0
 29 53  1  0
M  CHG  1   5  -1
M  END
>  <UniqueID>  (2) 
2

>  <SMILES>  (2) 
Nn1c2c([n-]c1=NC(=O)c1cccc(S(=O)(=O)N3CCOCC3)c1)CCCCC2

>  <Energy>  (2) 
103.03189574887811

>  <Genealogy>  (2) 
Nn1c2c([n-]c1=NC(=O)c1cccc(S(=O)(=O)N3CCOCC3)c1)CCCCC2 (protonated)
Nn1c2c([n-]c1=NC(=O)c1cccc(S(=O)(=O)N3CCOCC3)c1)CCCCC2 (3D coordinates assigned)
Nn1c2c([n-]c1=NC(=O)c1cccc(S(=O)(=O)N3CCOCC3)c1)CCCCC2 (nonaromatic ring conformer: 103.03189574887811 kcal/mol)

>  <smiles>  (2) 
Nn1c2c([nH]c1=NC(=O)c1cccc(S(=O)(=O)N3CCOCC3)c1)CCCCC2

>  <score_type>  (2) 
oracle

>  <origin>  (2) 
adgpu

>  <m_score__min__energy>  (2) 
-8.2699999999999996

>  <m_primary>  (2) 
energy

$$$$
2:0
     RDKit          3D

 85 90  0  0  0  0  0  0  0  0999 V2000
   -3.1950   14.1270  -33.1090 C   0  0  0  0  0  0  0  0  0  0  0  0
   -1.8960   14.0650  -32.3620 C   0  0  0  0  0  0  0  0  0  0  0  0
   -1.5870   12.9910  -31.7790 O   0  0  0  0  0  0  0  0  0  0  0  0
   -1.0110   15.2040  -32.2820 N   0  0  0  0  0  0  0  0  0  0  0  0
   -1.0710   16.3150  -33.2450 C   0  0  0  0  0  0  0  0  0  0  0  0
   -1.0480   17.6490  -32.4980 C   0  0  0  0  0  0  0  0  0  0  0  0
    0.0350   17.6920  -31.5000 N   0  0  0  0  0  0  0  0  0  0  0  0
    0.4720   18.9650  -30.9830 C   0  0  0  0  0  0  0  0  0  0  0  0
    1.6970   19.1590  -30.7510 O   0  0  0  0  0  0  0  0  0  0  0  0
   -0.4850   20.0650  -30.7440 C   0  0  0  0  0  0  0  0  0  0  0  0
   -0.9890   20.8190  -31.8170 C   0  0  0  0  0  0  0  0  0  0  0  0
   -1.8730   21.8760  -31.5800 C   0  0  0  0  0  0  0  0  0  0  0  0
   -2.2520   22.1910  -30.2750 C   0  0  0  0  0  0  0  0  0  0  0  0
   -1.7560   21.4520  -29.1940 C   0  0  0  0  0  0  0  0  0  0  0  0
   -2.1630   21.8040  -27.9010 O   0  0  0  0  0  0  0  0  0  0  0  0
   -2.1150   23.0840  -27.3180 C   0  0  0  0  0  0  0  0  0  0  0  0
   -0.9760   23.4070  -26.5730 C   0  0  0  0  0  0  0  0  0  0  0  0
   -0.8640   24.6360  -25.8820 C   0  0  0  0  0  0  0  0  0  0  0  0
   -1.9450   25.5480  -25.9710 C   0  0  0  0  0  0  0  0  0  0  0  0
   -1.8650   26.7730  -25.3040 C   0  0  0  0  0  0  0  0  0  0  0  0
   -0.7340   27.0850  -24.5630 C   0  0  0  0  0  0  0  0  0  0  0  0
    0.3230   26.1750  -24.4880 C   0  0  0  0  0  0  0  0  0  0  0  0
    1.3420   26.4960  -23.8140 O   0  0  0  0  0  0  0  0  0  0  0  0
    0.2560   24.9610  -25.1340 N   0  0  0  0  0  0  0  0  0  0  0  0
    1.3850   24.0140  -25.0260 C   0  0  0  0  0  0  0  0  0  0  0  0
   -3.0910   25.2250  -26.7130 C   0  0  0  0  0  0  0  0  0  0  0  0
   -3.1870   24.0000  -27.3790 C   0  0  0  0  0  0  0  0  0  0  0  0
   -4.3780   23.6870  -28.1040 N   0  0  0  0  0  0  0  0  0  0  0  0
   -4.8100   24.4600  -29.5880 S   0  0  0  0  0  0  0  0  0  0  0  0
   -3.5720   24.9870  -30.2580 O   0  0  0  0  0  0  0  0  0  0  0  0
   -5.7410   25.6100  -29.3280 O   0  0  0  0  0  0  0  0  0  0  0  0
   -5.5850   23.2590  -30.6090 C   0  0  0  0  0  0  0  0  0  0  0  0
   -6.7880   22.6560  -30.2130 C   0  0  0  0  0  0  0  0  0  0  0  0
   -7.3490   21.6380  -30.9870 C   0  0  0  0  0  0  0  0  0  0  0  0
   -6.7100   21.2080  -32.1580 C   0  0  0  0  0  0  0  0  0  0  0  0
   -7.3870   19.8920  -33.1140 S   0  0  0  0  0  0  0  0  0  0  0  0
   -8.8870   20.0100  -33.1470 O   0  0  0  0  0  0  0  0  0  0  0  0
   -6.8670   20.0040  -34.5210 O   0  0  0  0  0  0  0  0  0  0  0  0
   -6.9120   18.3620  -32.4100 N   0  0  0  0  0  0  0  0  0  0  0  0
   -7.0630   17.2510  -33.3840 C   0  0  0  0  0  0  0  0  0  0  0  0
   -5.8380   16.3300  -33.4710 C   0  0  0  0  0  0  0  0  0  0  0  0
   -4.5760   17.1550  -33.7360 C   0  0  0  0  0  0  0  0  0  0  0  0
   -4.4250   18.3370  -32.7590 C   0  0  0  0  0  0  0  0  0  0  0  0
   -5.5870   18.4480  -31.7580 C   0  0  0  0  0  0  0  0  0  0  0  0
   -5.5030   21.8040  -32.5470 C   0  0  0  0  0  0  0  0  0  0  0  0
   -4.9440   22.8280  -31.7780 C   0  0  0  0  0  0  0  0  0  0  0  0
   -0.9060   20.3590  -29.4360 C   0  0  0  0  0  0  0  0  0  0  0  0
    0.8650   16.4990  -31.2710 C   0  0  0  0  0  0  0  0  0  0  0  0
   -0.0020   15.2360  -31.2090 C   0  0  0  0  0  0  0  0  0  0  0  0
   -4.0286   14.1668  -32.3923 H   0  0  0  0  0  0  0  0  0  0  0  0
   -3.2118   15.0270  -33.7413 H   0  0  0  0  0  0  0  0  0  0  0  0
   -3.2974   13.2327  -33.7413 H   0  0  0  0  0  0  0  0  0  0  0  0
   -0.2048   16.2598  -33.9208 H   0  0  0  0  0  0  0  0  0  0  0  0
   -2.0009   16.2409  -33.8279 H   0  0  0  0  0  0  0  0  0  0  0  0
   -0.8976   18.4621  -33.2235 H   0  0  0  0  0  0  0  0  0  0  0  0
   -2.0067   17.7655  -31.9713 H   0  0  0  0  0  0  0  0  0  0  0  0
   -0.6872   20.5770  -32.8467 H   0  0  0  0  0  0  0  0  0  0  0  0
   -2.2700   22.4598  -32.4235 H   0  0  0  0  0  0  0  0  0  0  0  0
   -2.9452   23.0256  -30.0939 H   0  0  0  0  0  0  0  0  0  0  0  0
   -0.1461   22.6867  -26.5233 H   0  0  0  0  0  0  0  0  0  0  0  0
   -2.6975   27.4893  -25.3662 H   0  0  0  0  0  0  0  0  0  0  0  0
   -0.6699   28.0480  -24.0352 H   0  0  0  0  0  0  0  0  0  0  0  0
    1.6071   23.8277  -23.9649 H   0  0  0  0  0  0  0  0  0  0  0  0
    1.1170   23.0665  -25.5164 H   0  0  0  0  0  0  0  0  0  0  0  0
    2.2714   24.4428  -25.5164 H   0  0  0  0  0  0  0  0  0  0  0  0
   -3.9223   25.9430  -26.7712 H   0  0  0  0  0  0  0  0  0  0  0  0
   -7.2902   22.9855  -29.2915 H   0  0  0  0  0  0  0  0  0  0  0  0
   -8.2958   21.1719  -30.6765 H   0  0  0  0  0  0  0  0  0  0  0  0
   -7.9315   16.6451  -33.0865 H   0  0  0  0  0  0  0  0  0  0  0  0
   -7.1885   17.7103  -34.3756 H   0  0  0  0  0  0  0  0  0  0  0  0
   -5.7240   15.7858  -32.5218 H   0  0  0  0  0  0  0  0  0  0  0  0
   -5.9817   15.6175  -34.2966 H   0  0  0  0  0  0  0  0  0  0  0  0
   -3.6986   16.4994  -33.6341 H   0  0  0  0  0  0  0  0  0  0  0  0
   -4.6564   17.5702  -34.7515 H   0  0  0  0  0  0  0  0  0  0  0  0
   -3.4893   18.2073  -32.1954 H   0  0  0  0  0  0  0  0  0  0  0  0
   -4.4216   19.2588  -33.3593 H   0  0  0  0  0  0  0  0  0  0  0  0
   -5.5009   17.6308  -31.0267 H   0  0  0  0  0  0  0  0  0  0  0  0
   -5.5172   19.4342  -31.2758 H   0  0  0  0  0  0  0  0  0  0  0  0
   -4.9937   21.4645  -33.4610 H   0  0  0  0  0  0  0  0  0  0  0  0
   -3.9992   23.2965  -32.0909 H   0  0  0  0  0  0  0  0  0  0  0  0
   -0.5690   19.7312  -28.5980 H   0  0  0  0  0  0  0  0  0  0  0  0
    1.5885   16.3997  -32.0936 H   0  0  0  0  0  0  0  0  0  0  0  0
    1.3899   16.6137  -30.3111 H   0  0  0  0  0  0  0  0  0  0  0  0
    0.6482   14.3541  -31.3069 H   0  0  0  0  0  0  0  0  0  0  0  0
   -0.5320   15.2356  -30.2451 H   0  0  0  0  0  0  0  0  0  0  0  0
  1  2  1  0
  2  3  2  0
  2  4  1  0
  4  5  1  0
  5  6  1  0
  6  7  1  0
  7  8  1  0
  8  9  2  0
  8 10  1  0
 10 11  2  0
 11 12  1  0
 12 13  2  0
 13 14  1  0
 14 15  1  0
 15 16  1  0
 16 17  2  0
 17 18  1  0
 18 19  2  0
 19 20  1  0
 20 21  2  0
 21 22  1  0
 22 23  2  0
 22 24  1  0
 24 25  1  0
 19 26  1  0
 26 27  2  0
 27 28  1  0
 28 29  1  0
 29 30  2  0
 29 31  2  0
 29 32  1  0
 32 33  2  0
 33 34  1  0
 34 35  2  0
 35 36  1  0
 36 37  2  0
 36 38  2  0
 36 39  1  0
 39 40  1  0
 40 41  1  0
 41 42  1  0
 42 43  1  0
 43 44  1  0
 35 45  1  0
 45 46  2  0
 14 47  2  0
  7 48  1  0
 48 49  1  0
 49  4  1  0
 47 10  1  0
 27 16  1  0
 46 32  1  0
 24 18  1  0
 44 39  1  0
  1 50  1  0
  1 51  1  0
  1 52  1  0
  5 53  1  0
  5 54  1  0
  6 55  1  0
  6 56  1  0
 11 57  1  0
 12 58  1  0
 13 59  1  0
 17 60  1  0
 20 61  1  0
 21 62  1  0
 25 63  1  0
 25 64  1  0
 25 65  1  0
 26 66  1  0
 33 67  1  0
 34 68  1  0
 40 69  1  0
 40 70  1  0
 41 71  1  0
 41 72  1  0
 42 73  1  0
 42 74  1  0
 43 75  1  0
 43 76  1  0
 44 77  1  0
 44 78  1  0
 45 79  1  0
 46 80  1  0
 47 81  1  0
 48 82  1  0
 48 83  1  0
 49 84  1  0
 49 85  1  0
M  CHG  1  28  -1
M  END
>  <UniqueID>  (3) 
3

>  <SMILES>  (3) 
CC(=O)N1CCN(C(=O)c2cccc(Oc3cc4c(ccc(=O)n4C)cc3[N-]S(=O)(=O)c3ccc(S(=O)(=O)N4CCCCC4)cc3)c2)CC1

>  <Energy>  (3) 
125.60361440542651

>  <Genealogy>  (3) 
CC(=O)N1CCN(C(=O)c2cccc(Oc3cc4c(ccc(=O)n4C)cc3[N-]S(=O)(=O)c3ccc(S(=O)(=O)N4CCCCC4)cc3)c2)CC1 (protonated)
CC(=O)N1CCN(C(=O)c2cccc(Oc3cc4c(ccc(=O)n4C)cc3[N-]S(=O)(=O)c3ccc(S(=O)(=O)N4CCCCC4)cc3)c2)CC1 (3D coordinates assigned)
CC(=O)N1CCN(C(=O)c2cccc(Oc3cc4c(ccc(=O)n4C)cc3[N-]S(=O)(=O)c3ccc(S(=O)(=O)N4CCCCC4)cc3)c2)CC1 (nonaromatic ring conformer: 125.60361440542651 kcal/mol)

>  <smiles>  (3) 
CC(=O)N1CCN(C(=O)c2cccc(Oc3cc4c(ccc(=O)n4C)cc3NS(=O)(=O)c3ccc(S(=O)(=O)N4CCCCC4)cc3)c2)CC1

>  <score_type>  (3) 
oracle

>  <origin>  (3) 
adgpu

>  <m_score__min__energy>  (3) 
-13.25

>  <m_primary>  (3) 
energy

$$$$
3:0
     RDKit          3D

 52 54  0  0  0  0  0  0  0  0999 V2000
   -8.9070   21.1050  -30.8290 C   0  0  0  0  0  0  0  0  0  0  0  0
   -8.3130   21.5650  -32.0980 N   0  0  0  0  0  0  0  0  0  0  0  0
   -8.4580   23.0300  -32.2900 C   0  0  0  0  0  0  0  0  0  0  0  0
   -7.2060   23.8270  -31.8730 C   0  0  0  0  0  0  0  0  0  0  0  0
   -6.5040   23.1270  -30.7870 N   0  0  0  0  0  0  0  0  0  0  0  0
   -5.2190   24.1250  -30.1530 S   0  0  0  0  0  0  0  0  0  0  0  0
   -4.7490   25.0820  -31.2130 O   0  0  0  0  0  0  0  0  0  0  0  0
   -5.7110   24.9210  -28.9750 O   0  0  0  0  0  0  0  0  0  0  0  0
   -3.8640   23.1100  -29.6640 C   0  0  0  0  0  0  0  0  0  0  0  0
   -3.9500   22.3210  -28.5090 C   0  0  0  0  0  0  0  0  0  0  0  0
   -2.8800   21.5010  -28.1370 C   0  0  0  0  0  0  0  0  0  0  0  0
   -1.7140   21.4600  -28.9200 C   0  0  0  0  0  0  0  0  0  0  0  0
   -0.5470   20.6060  -28.4960 C   0  0  0  0  0  0  0  0  0  0  0  0
    0.2870   21.2960  -27.4160 C   0  0  0  0  0  0  0  0  0  0  0  0
   -0.5610   21.6870  -26.2940 N   0  0  0  0  0  0  0  0  0  0  0  0
   -0.3230   22.8630  -25.5130 C   0  0  0  0  0  0  0  0  0  0  0  0
    0.1580   22.7470  -24.3520 O   0  0  0  0  0  0  0  0  0  0  0  0
   -0.6370   24.2070  -26.0730 C   0  0  0  0  0  0  0  0  0  0  0  0
   -0.9760   24.3300  -27.4360 C   0  0  0  0  0  0  0  0  0  0  0  0
   -1.2680   25.5820  -27.9910 C   0  0  0  0  0  0  0  0  0  0  0  0
   -1.6030   25.6850  -29.3360 O   0  0  0  0  0  0  0  0  0  0  0  0
   -1.2240   26.7270  -27.1960 C   0  0  0  0  0  0  0  0  0  0  0  0
   -0.8970   26.6250  -25.8440 C   0  0  0  0  0  0  0  0  0  0  0  0
   -0.6060   25.3750  -25.2720 C   0  0  0  0  0  0  0  0  0  0  0  0
   -0.2930   25.3010  -23.9140 O   0  0  0  0  0  0  0  0  0  0  0  0
   -1.6300   22.2580  -30.0720 C   0  0  0  0  0  0  0  0  0  0  0  0
   -2.7040   23.0700  -30.4470 C   0  0  0  0  0  0  0  0  0  0  0  0
   -5.9580   21.8380  -31.2540 C   0  0  0  0  0  0  0  0  0  0  0  0
   -6.9100   21.1200  -32.2400 C   0  0  0  0  0  0  0  0  0  0  0  0
   -8.3491   21.5370  -29.9851 H   0  0  0  0  0  0  0  0  0  0  0  0
   -9.9574   21.4275  -30.7777 H   0  0  0  0  0  0  0  0  0  0  0  0
   -8.8576   20.0073  -30.7777 H   0  0  0  0  0  0  0  0  0  0  0  0
   -8.6572   23.2245  -33.3542 H   0  0  0  0  0  0  0  0  0  0  0  0
   -9.2852   23.3625  -31.6457 H   0  0  0  0  0  0  0  0  0  0  0  0
   -6.5329   23.9268  -32.7373 H   0  0  0  0  0  0  0  0  0  0  0  0
   -7.5122   24.8236  -31.5222 H   0  0  0  0  0  0  0  0  0  0  0  0
   -4.8613   22.3467  -27.8935 H   0  0  0  0  0  0  0  0  0  0  0  0
   -2.9514   20.8858  -27.2279 H   0  0  0  0  0  0  0  0  0  0  0  0
   -0.9266   19.6525  -28.1002 H   0  0  0  0  0  0  0  0  0  0  0  0
    0.0947   20.4371  -29.3733 H   0  0  0  0  0  0  0  0  0  0  0  0
    1.0639   20.6035  -27.0597 H   0  0  0  0  0  0  0  0  0  0  0  0
    0.7523   22.1963  -27.8438 H   0  0  0  0  0  0  0  0  0  0  0  0
   -1.0115   23.4322  -28.0706 H   0  0  0  0  0  0  0  0  0  0  0  0
   -1.4472   27.7105  -27.6352 H   0  0  0  0  0  0  0  0  0  0  0  0
   -0.8667   27.5306  -25.2203 H   0  0  0  0  0  0  0  0  0  0  0  0
    0.2610   24.5440  -23.5360 H   0  0  0  0  0  0  0  0  0  0  0  0
   -0.7149   22.2441  -30.6822 H   0  0  0  0  0  0  0  0  0  0  0  0
   -2.6377   23.6796  -31.3602 H   0  0  0  0  0  0  0  0  0  0  0  0
   -4.9986   22.0225  -31.7595 H   0  0  0  0  0  0  0  0  0  0  0  0
   -5.8307   21.1883  -30.3756 H   0  0  0  0  0  0  0  0  0  0  0  0
   -6.5762   21.3280  -33.2673 H   0  0  0  0  0  0  0  0  0  0  0  0
   -6.8761   20.0441  -32.0138 H   0  0  0  0  0  0  0  0  0  0  0  0
  1  2  1  0
  2  3  1  0
  3  4  1  0
  4  5  1  0
  5  6  1  0
  6  7  2  0
  6  8  2  0
  6  9  1  0
  9 10  2  0
 10 11  1  0
 11 12  2  0
 12 13  1  0
 13 14  1  0
 14 15  1  0
 15 16  1  0
 16 17  2  0
 16 18  1  0
 18 19  2  0
 19 20  1  0
 20 21  1  0
 20 22  2  0
 22 23  1  0
 23 24  2  0
 24 25  1  0
 12 26  1  0
 26 27  2  0
  5 28  1  0
 28 29  1  0
 29  2  1  0
 27  9  1  0
 24 18  1  0
  1 30  1  0
  1 31  1  0
  1 32  1  0
  3 33  1  0
  3 34  1  0
  4 35  1  0
  4 36  1  0
 10 37  1  0
 11 38  1  0
 13 39  1  0
 13 40  1  0
 14 41  1  0
 14 42  1  0
 19 43  1  0
 22 44  1  0
 23 45  1  0
 25 46  1  0
 26 47  1  0
 27 48  1  0
 28 49  1  0
 28 50  1  0
 29 51  1  0
 29 52  1  0
M  CHG  2  15  -1  21  -1
M  END
>  <UniqueID>  (4) 
4

>  <SMILES>  (4) 
CN1CCN(S(=O)(=O)c2ccc(CC[N-]C(=O)c3cc([O-])ccc3O)cc2)CC1

>  <Energy>  (4) 
58.84065162090903

>  <Genealogy>  (4) 
CN1CCN(S(=O)(=O)c2ccc(CC[N-]C(=O)c3cc([O-])ccc3O)cc2)CC1 (protonated)
CN1CCN(S(=O)(=O)c2ccc(CC[N-]C(=O)c3cc([O-])ccc3O)cc2)CC1 (3D coordinates assigned)
CN1CCN(S(=O)(=O)c2ccc(CC[N-]C(=O)c3cc([O-])ccc3O)cc2)CC1 (nonaromatic ring conformer: 58.84065162090903 kcal/mol)

>  <smiles>  (4) 
CN1CCN(S(=O)(=O)c2ccc(CCNC(=O)c3cc(O)ccc3O)cc2)CC1

>  <score_type>  (4) 
oracle

>  <origin>  (4) 
adgpu

>  <m_score__min__energy>  (4) 
-12.4

>  <m_primary>  (4) 
energy

$$$$
4:0
     RDKit          3D

 39 42  0  0  0  0  0  0  0  0999 V2000
   -5.8320   25.0770  -29.0260 O   0  0  0  0  0  0  0  0  0  0  0  0
   -5.2930   24.9460  -30.4230 S   0  0  0  0  0  0  0  0  0  0  0  0
   -5.7480   26.1320  -31.2250 O   0  0  0  0  0  0  0  0  0  0  0  0
   -3.5600   24.9280  -30.3670 N   0  0  0  0  0  0  0  0  0  0  0  0
   -2.7670   24.2180  -29.4050 C   0  0  0  0  0  0  0  0  0  0  0  0
   -3.1220   22.9350  -28.9480 C   0  0  0  0  0  0  0  0  0  0  0  0
   -2.3100   22.2550  -28.0270 C   0  0  0  0  0  0  0  0  0  0  0  0
   -1.1630   22.8870  -27.5090 C   0  0  0  0  0  0  0  0  0  0  0  0
   -0.8120   24.1660  -27.9660 C   0  0  0  0  0  0  0  0  0  0  0  0
   -1.6060   24.8260  -28.9080 C   0  0  0  0  0  0  0  0  0  0  0  0
   -1.2350   26.0890  -29.3510 O   0  0  0  0  0  0  0  0  0  0  0  0
   -0.2450   22.1630  -26.5500 C   0  0  0  0  0  0  0  0  0  0  0  0
   -0.9200   21.0530  -25.8610 N   0  0  0  0  0  0  0  0  0  0  0  0
   -1.5770   20.1650  -26.8290 C   0  0  0  0  0  0  0  0  0  0  0  0
   -2.7250   20.8890  -27.5430 C   0  0  0  0  0  0  0  0  0  0  0  0
   -5.8860   23.4780  -31.1940 C   0  0  0  0  0  0  0  0  0  0  0  0
   -5.0020   22.6920  -31.9750 C   0  0  0  0  0  0  0  0  0  0  0  0
   -5.4570   21.5230  -32.6130 C   0  0  0  0  0  0  0  0  0  0  0  0
   -6.7950   21.1680  -32.4500 C   0  0  0  0  0  0  0  0  0  0  0  0
   -7.4150   20.1030  -32.9900 N   0  0  0  0  0  0  0  0  0  0  0  0
   -8.6920   20.2190  -32.5510 C   0  0  0  0  0  0  0  0  0  0  0  0
   -9.6940   19.3140  -32.8810 O   0  0  0  0  0  0  0  0  0  0  0  0
   -8.8850   21.3330  -31.7450 C   0  0  0  0  0  0  0  0  0  0  0  0
   -7.6500   21.9280  -31.6950 C   0  0  0  0  0  0  0  0  0  0  0  0
   -7.2350   23.0900  -31.0500 C   0  0  0  0  0  0  0  0  0  0  0  0
   -4.0440   22.4610  -29.3159 H   0  0  0  0  0  0  0  0  0  0  0  0
    0.0954   24.6534  -27.5799 H   0  0  0  0  0  0  0  0  0  0  0  0
    0.6100   21.7616  -27.1138 H   0  0  0  0  0  0  0  0  0  0  0  0
    0.0803   22.8847  -25.7863 H   0  0  0  0  0  0  0  0  0  0  0  0
   -1.6410   21.4470  -25.2100 H   0  0  0  0  0  0  0  0  0  0  0  0
   -0.8387   19.8364  -27.5753 H   0  0  0  0  0  0  0  0  0  0  0  0
   -1.9886   19.2993  -26.2893 H   0  0  0  0  0  0  0  0  0  0  0  0
   -3.0434   20.2867  -28.4067 H   0  0  0  0  0  0  0  0  0  0  0  0
   -3.5484   21.0162  -26.8248 H   0  0  0  0  0  0  0  0  0  0  0  0
   -3.9511   22.9984  -32.0834 H   0  0  0  0  0  0  0  0  0  0  0  0
   -4.7775   20.9083  -33.2217 H   0  0  0  0  0  0  0  0  0  0  0  0
   -9.8600   19.0560  -33.8480 H   0  0  0  0  0  0  0  0  0  0  0  0
   -9.8147   21.6627  -31.2583 H   0  0  0  0  0  0  0  0  0  0  0  0
   -7.9361   23.6863  -30.4476 H   0  0  0  0  0  0  0  0  0  0  0  0
  1  2  2  0
  2  3  2  0
  2  4  1  0
  4  5  1  0
  5  6  2  0
  6  7  1  0
  7  8  2  0
  8  9  1  0
  9 10  2  0
 10 11  1  0
  8 12  1  0
 12 13  1  0
 13 14  1  0
 14 15  1  0
  2 16  1  0
 16 17  2  0
 17 18  1  0
 18 19  2  0
 19 20  1  0
 20 21  1  0
 21 22  1  0
 21 23  2  0
 23 24  1  0
 24 25  2  0
 10  5  1  0
 25 16  1  0
 15  7  1  0
 24 19  1  0
  6 26  1  0
  9 27  1  0
 12 28  1  0
 12 29  1  0
 13 30  1  0
 14 31  1  0
 14 32  1  0
 15 33  1  0
 15 34  1  0
 17 35  1  0
 18 36  1  0
 22 37  1  0
 23 38  1  0
 25 39  1  0
M  CHG  3   4  -1  11  -1  20  -1
M  END
>  <UniqueID>  (5) 
5

>  <SMILES>  (5) 
O=S(=O)([N-]c1cc2c(cc1[O-])CNCC2)c1ccc2[n-]c(O)cc2c1

>  <Energy>  (5) 
79.13220389741663

>  <Genealogy>  (5) 
O=S(=O)([N-]c1cc2c(cc1[O-])CNCC2)c1ccc2[n-]c(O)cc2c1 (protonated)
O=S(=O)([N-]c1cc2c(cc1[O-])CNCC2)c1ccc2[n-]c(O)cc2c1 (3D coordinates assigned)
O=S(=O)([N-]c1cc2c(cc1[O-])CNCC2)c1ccc2[n-]c(O)cc2c1 (nonaromatic ring conformer: 79.13220389741663 kcal/mol)

>  <smiles>  (5) 
O=S(=O)(Nc1cc2c(cc1O)CNCC2)c1ccc2[nH]c(O)cc2c1

>  <score_type>  (5) 
oracle

>  <origin>  (5) 
adgpu

>  <m_score__min__energy>  (5) 
-13.67

>  <m_primary>  (5) 
energy

$$$$
5:0
     RDKit          3D

 54 57  0  0  0  0  0  0  0  0999 V2000
   -8.1110   20.5870  -32.0880 C   0  0  0  0  0  0  0  0  0  0  0  0
   -8.8360   21.5890  -31.2890 N   0  0  0  0  0  0  0  0  0  0  0  0
   -9.1890   22.7920  -32.0680 C   0  0  0  0  0  0  0  0  0  0  0  0
   -7.9510   23.5780  -32.5250 C   0  0  0  0  0  0  0  0  0  0  0  0
   -6.9250   23.7170  -31.4300 C   0  0  0  0  0  0  0  0  0  0  0  0
   -5.8700   24.6230  -31.5960 C   0  0  0  0  0  0  0  0  0  0  0  0
   -4.8800   24.7490  -30.6170 C   0  0  0  0  0  0  0  0  0  0  0  0
   -3.8560   25.6710  -30.8030 O   0  0  0  0  0  0  0  0  0  0  0  0
   -4.9270   23.9590  -29.4540 C   0  0  0  0  0  0  0  0  0  0  0  0
   -3.9220   24.1210  -28.4360 N   0  0  0  0  0  0  0  0  0  0  0  0
   -2.2850   23.5770  -28.6240 S   0  0  0  0  0  0  0  0  0  0  0  0
   -1.8070   22.9780  -27.3320 O   0  0  0  0  0  0  0  0  0  0  0  0
   -1.4140   24.7510  -28.9740 O   0  0  0  0  0  0  0  0  0  0  0  0
   -2.2070   22.3430  -29.8810 C   0  0  0  0  0  0  0  0  0  0  0  0
   -3.2150   21.3750  -29.9660 C   0  0  0  0  0  0  0  0  0  0  0  0
   -3.1910   20.4220  -30.9880 C   0  0  0  0  0  0  0  0  0  0  0  0
   -2.1520   20.4230  -31.9290 C   0  0  0  0  0  0  0  0  0  0  0  0
   -2.1330   19.2320  -33.2350 S   0  0  0  0  0  0  0  0  0  0  0  0
   -0.9790   19.5300  -34.1520 O   0  0  0  0  0  0  0  0  0  0  0  0
   -1.9170   17.8650  -32.6460 O   0  0  0  0  0  0  0  0  0  0  0  0
   -3.6100   19.2210  -34.1660 N   0  0  0  0  0  0  0  0  0  0  0  0
   -4.0930   17.8630  -34.4170 C   0  0  0  0  0  0  0  0  0  0  0  0
   -5.5950   17.9740  -34.6300 C   0  0  0  0  0  0  0  0  0  0  0  0
   -5.9910   19.3130  -34.0250 C   0  0  0  0  0  0  0  0  0  0  0  0
   -4.7020   19.9000  -33.4730 C   0  0  0  0  0  0  0  0  0  0  0  0
   -1.1450   21.3950  -31.8440 C   0  0  0  0  0  0  0  0  0  0  0  0
   -1.1700   22.3480  -30.8210 C   0  0  0  0  0  0  0  0  0  0  0  0
   -5.9670   23.0250  -29.3080 C   0  0  0  0  0  0  0  0  0  0  0  0
   -6.9600   22.8920  -30.2900 C   0  0  0  0  0  0  0  0  0  0  0  0
   -8.1110   21.9410  -30.0520 C   0  0  0  0  0  0  0  0  0  0  0  0
   -7.6006   19.8815  -31.4158 H   0  0  0  0  0  0  0  0  0  0  0  0
   -8.8231   20.0390  -32.7225 H   0  0  0  0  0  0  0  0  0  0  0  0
   -7.3678   21.0919  -32.7225 H   0  0  0  0  0  0  0  0  0  0  0  0
   -9.7589   22.4828  -32.9566 H   0  0  0  0  0  0  0  0  0  0  0  0
   -9.7829   23.4506  -31.4172 H   0  0  0  0  0  0  0  0  0  0  0  0
   -7.4920   23.0519  -33.3750 H   0  0  0  0  0  0  0  0  0  0  0  0
   -8.2799   24.5888  -32.8080 H   0  0  0  0  0  0  0  0  0  0  0  0
   -5.8199   25.2409  -32.5047 H   0  0  0  0  0  0  0  0  0  0  0  0
   -4.2000   24.4550  -27.4870 H   0  0  0  0  0  0  0  0  0  0  0  0
   -4.0287   21.3645  -29.2258 H   0  0  0  0  0  0  0  0  0  0  0  0
   -3.9899   19.6688  -31.0542 H   0  0  0  0  0  0  0  0  0  0  0  0
   -3.6112   17.4476  -35.3144 H   0  0  0  0  0  0  0  0  0  0  0  0
   -3.8578   17.1942  -33.5759 H   0  0  0  0  0  0  0  0  0  0  0  0
   -5.8342   17.9508  -35.7034 H   0  0  0  0  0  0  0  0  0  0  0  0
   -6.1372   17.1381  -34.1639 H   0  0  0  0  0  0  0  0  0  0  0  0
   -6.4163   19.9732  -34.7952 H   0  0  0  0  0  0  0  0  0  0  0  0
   -6.7577   19.1999  -33.2444 H   0  0  0  0  0  0  0  0  0  0  0  0
   -4.6623   20.9818  -33.6683 H   0  0  0  0  0  0  0  0  0  0  0  0
   -4.6331   19.7579  -32.3844 H   0  0  0  0  0  0  0  0  0  0  0  0
   -0.3321   21.4079  -32.5850 H   0  0  0  0  0  0  0  0  0  0  0  0
   -0.3730   23.1032  -30.7549 H   0  0  0  0  0  0  0  0  0  0  0  0
   -6.0029   22.3893  -28.4110 H   0  0  0  0  0  0  0  0  0  0  0  0
   -7.7155   21.0179  -29.6032 H   0  0  0  0  0  0  0  0  0  0  0  0
   -8.8245   22.4492  -29.3867 H   0  0  0  0  0  0  0  0  0  0  0  0
  1  2  1  0
  2  3  1  0
  3  4  1  0
  4  5  1  0
  5  6  2  0
  6  7  1  0
  7  8  1  0
  7  9  2  0
  9 10  1  0
 10 11  1  0
 11 12  2  0
 11 13  2  0
 11 14  1  0
 14 15  2  0
 15 16  1  0
 16 17  2  0
 17 18  1  0
 18 19  2  0
 18 20  2  0
 18 21  1  0
 21 22  1  0
 22 23  1  0
 23 24  1  0
 24 25  1  0
 17 26  1  0
 26 27  2  0
  9 28  1  0
 28 29  2  0
 29 30  1  0
 30  2  1  0
 29  5  1  0
 27 14  1  0
 25 21  1  0
  1 31  1  0
  1 32  1  0
  1 33  1  0
  3 34  1  0
  3 35  1  0
  4 36  1  0
  4 37  1  0
  6 38  1  0
 10 39  1  0
 15 40  1  0
 16 41  1  0
 22 42  1  0
 22 43  1  0
 23 44  1  0
 23 45  1  0
 24 46  1  0
 24 47  1  0
 25 48  1  0
 25 49  1  0
 26 50  1  0
 27 51  1  0
 28 52  1  0
 30 53  1  0
 30 54  1  0
M  CHG  1   8  -1
M  END
>  <UniqueID>  (6) 
6

>  <SMILES>  (6) 
CN1CCc2cc([O-])c(NS(=O)(=O)c3ccc(S(=O)(=O)N4CCCC4)cc3)cc2C1

>  <Energy>  (6) 
65.32535781999448

>  <Genealogy>  (6) 
CN1CCc2cc([O-])c(NS(=O)(=O)c3ccc(S(=O)(=O)N4CCCC4)cc3)cc2C1 (protonated)
CN1CCc2cc([O-])c(NS(=O)(=O)c3ccc(S(=O)(=O)N4CCCC4)cc3)cc2C1 (3D coordinates assigned)
CN1CCc2cc([O-])c(NS(=O)(=O)c3ccc(S(=O)(=O)N4CCCC4)cc3)cc2C1 (nonaromatic ring conformer: 65.32535781999448 kcal/mol)

>  <smiles>  (6) 
CN1CCc2cc(O)c(NS(=O)(=O)c3ccc(S(=O)(=O)N4CCCC4)cc3)cc2C1

>  <score_type>  (6) 
oracle

>  <origin>  (6) 
adgpu

>  <m_score__min__energy>  (6) 
-14.56

>  <m_primary>  (6) 
energy

$$$$
6:0
     RDKit          3D

 59 62  0  0  0  0  0  0  0  0999 V2000
   -2.7840   19.7350  -34.5290 O   0  0  0  0  0  0  0  0  0  0  0  0
   -3.1110   19.3290  -33.1190 S   0  0  0  0  0  0  0  0  0  0  0  0
   -2.6280   17.9220  -32.9050 O   0  0  0  0  0  0  0  0  0  0  0  0
   -4.8510   19.3460  -32.8480 C   0  0  0  0  0  0  0  0  0  0  0  0
   -5.6040   20.5010  -33.0940 C   0  0  0  0  0  0  0  0  0  0  0  0
   -6.9810   20.5070  -32.8490 C   0  0  0  0  0  0  0  0  0  0  0  0
   -7.6270   19.3500  -32.3780 C   0  0  0  0  0  0  0  0  0  0  0  0
   -9.0980   19.3760  -32.0490 C   0  0  0  0  0  0  0  0  0  0  0  0
   -9.4180   20.5200  -31.3420 F   0  0  0  0  0  0  0  0  0  0  0  0
   -9.8250   19.3550  -33.2240 F   0  0  0  0  0  0  0  0  0  0  0  0
   -9.4500   18.2780  -31.2820 F   0  0  0  0  0  0  0  0  0  0  0  0
   -6.8640   18.1960  -32.1300 C   0  0  0  0  0  0  0  0  0  0  0  0
   -5.4880   18.1910  -32.3760 C   0  0  0  0  0  0  0  0  0  0  0  0
   -2.3020   20.4350  -31.9960 C   0  0  0  0  0  0  0  0  0  0  0  0
   -3.0300   21.5120  -31.4650 C   0  0  0  0  0  0  0  0  0  0  0  0
   -2.4220   22.4290  -30.5970 C   0  0  0  0  0  0  0  0  0  0  0  0
   -3.3390   23.7730  -29.9210 S   0  0  0  0  0  0  0  0  0  0  0  0
   -2.4000   24.9290  -29.7060 O   0  0  0  0  0  0  0  0  0  0  0  0
   -4.4040   24.2000  -30.8930 O   0  0  0  0  0  0  0  0  0  0  0  0
   -4.0520   23.2770  -28.3980 N   0  0  0  0  0  0  0  0  0  0  0  0
   -4.4740   24.4450  -27.5840 C   0  0  0  0  0  0  0  0  0  0  0  0
   -3.4380   24.8220  -26.5070 C   0  0  0  0  0  0  0  0  0  0  0  0
   -2.1340   24.5300  -26.9540 O   0  0  0  0  0  0  0  0  0  0  0  0
   -1.9470   23.1280  -27.0390 C   0  0  0  0  0  0  0  0  0  0  0  0
   -3.1540   22.3750  -27.6490 C   0  0  0  0  0  0  0  0  0  0  0  0
   -1.0810   22.2630  -30.2450 C   0  0  0  0  0  0  0  0  0  0  0  0
   -0.3470   21.1960  -30.7630 C   0  0  0  0  0  0  0  0  0  0  0  0
   -0.9410   20.2760  -31.6390 C   0  0  0  0  0  0  0  0  0  0  0  0
   -0.1520   19.1850  -32.1390 N   0  0  0  0  0  0  0  0  0  0  0  0
    0.4030   19.2380  -33.4930 C   0  0  0  0  0  0  0  0  0  0  0  0
    0.0160   17.9610  -34.2480 C   0  0  0  0  0  0  0  0  0  0  0  0
    0.3680   16.7150  -33.5310 N   0  0  0  0  0  0  0  0  0  0  0  0
    0.7630   16.8940  -32.1220 C   0  0  0  0  0  0  0  0  0  0  0  0
   -0.1250   17.9150  -31.4030 C   0  0  0  0  0  0  0  0  0  0  0  0
   -5.1114   21.4053  -33.4807 H   0  0  0  0  0  0  0  0  0  0  0  0
   -7.5630   21.4235  -33.0260 H   0  0  0  0  0  0  0  0  0  0  0  0
   -7.3527   17.2911  -31.7399 H   0  0  0  0  0  0  0  0  0  0  0  0
   -4.9030   17.2765  -32.1983 H   0  0  0  0  0  0  0  0  0  0  0  0
   -4.0894   21.6373  -31.7334 H   0  0  0  0  0  0  0  0  0  0  0  0
   -4.9100   22.7290  -28.6450 H   0  0  0  0  0  0  0  0  0  0  0  0
   -4.6171   25.3069  -28.2523 H   0  0  0  0  0  0  0  0  0  0  0  0
   -5.4066   24.1723  -27.0683 H   0  0  0  0  0  0  0  0  0  0  0  0
   -3.5146   25.8980  -26.2918 H   0  0  0  0  0  0  0  0  0  0  0  0
   -3.6416   24.2382  -25.5972 H   0  0  0  0  0  0  0  0  0  0  0  0
   -1.0636   22.9328  -27.6648 H   0  0  0  0  0  0  0  0  0  0  0  0
   -1.8232   22.7573  -26.0108 H   0  0  0  0  0  0  0  0  0  0  0  0
   -2.7791   21.5997  -28.3333 H   0  0  0  0  0  0  0  0  0  0  0  0
   -3.7303   21.9338  -26.8224 H   0  0  0  0  0  0  0  0  0  0  0  0
   -0.6021   22.9756  -29.5573 H   0  0  0  0  0  0  0  0  0  0  0  0
    0.7094   21.0748  -30.4813 H   0  0  0  0  0  0  0  0  0  0  0  0
   -0.0003   20.1143  -34.0217 H   0  0  0  0  0  0  0  0  0  0  0  0
    1.4988   19.3176  -33.4399 H   0  0  0  0  0  0  0  0  0  0  0  0
   -1.0715   17.9713  -34.4127 H   0  0  0  0  0  0  0  0  0  0  0  0
    0.5837   17.9606  -35.1902 H   0  0  0  0  0  0  0  0  0  0  0  0
   -0.4570   16.0710  -33.5590 H   0  0  0  0  0  0  0  0  0  0  0  0
    0.6825   15.9265  -31.6048 H   0  0  0  0  0  0  0  0  0  0  0  0
    1.7967   17.2697  -32.1037 H   0  0  0  0  0  0  0  0  0  0  0  0
   -1.1480   17.5171  -31.3309 H   0  0  0  0  0  0  0  0  0  0  0  0
    0.2845   18.0960  -30.3982 H   0  0  0  0  0  0  0  0  0  0  0  0
  1  2  2  0
  2  3  2  0
  2  4  1  0
  4  5  2  0
  5  6  1  0
  6  7  2  0
  7  8  1  0
  8  9  1  0
  8 10  1  0
  8 11  1  0
  7 12  1  0
 12 13  2  0
  2 14  1  0
 14 15  2  0
 15 16  1  0
 16 17  1  0
 17 18  2  0
 17 19  2  0
 17 20  1  0
 20 21  1  0
 21 22  1  0
 22 23  1  0
 23 24  1  0
 24 25  1  0
 16 26  2  0
 26 27  1  0
 27 28  2  0
 28 29  1  0
 29 30  1  0
 30 31  1  0
 31 32  1  0
 32 33  1  0
 33 34  1  0
 13  4  1  0
 28 14  1  0
 34 29  1  0
 25 20  1  0
  5 35  1  0
  6 36  1  0
 12 37  1  0
 13 38  1  0
 15 39  1  0
 20 40  1  0
 21 41  1  0
 21 42  1  0
 22 43  1  0
 22 44  1  0
 24 45  1  0
 24 46  1  0
 25 47  1  0
 25 48  1  0
 26 49  1  0
 27 50  1  0
 30 51  1  0
 30 52  1  0
 31 53  1  0
 31 54  1  0
 32 55  1  0
 33 56  1  0
 33 57  1  0
 34 58  1  0
 34 59  1  0
M  CHG  1  20   1
M  END
>  <UniqueID>  (7) 
7

>  <SMILES>  (7) 
O=S(=O)(c1ccc(C(F)(F)F)cc1)c1cc(S(=O)(=O)[NH+]2CCOCC2)ccc1N1CCNCC1

>  <Energy>  (7) 
82.18220184863064

>  <Genealogy>  (7) 
O=S(=O)(c1ccc(C(F)(F)F)cc1)c1cc(S(=O)(=O)[NH+]2CCOCC2)ccc1N1CCNCC1 (protonated)
O=S(=O)(c1ccc(C(F)(F)F)cc1)c1cc(S(=O)(=O)[NH+]2CCOCC2)ccc1N1CCNCC1 (3D coordinates assigned)
O=S(=O)(c1ccc(C(F)(F)F)cc1)c1cc(S(=O)(=O)[NH+]2CCOCC2)ccc1N1CCNCC1 (nonaromatic ring conformer: 82.18220184863064 kcal/mol)

>  <smiles>  (7) 
O=S(=O)(c1ccc(C(F)(F)F)cc1)c1cc(S(=O)(=O)N2CCOCC2)ccc1N1CCNCC1

>  <score_type>  (7) 
oracle

>  <origin>  (7) 
adgpu

>  <m_score__min__energy>  (7) 
-8.3800000000000008

>  <m_primary>  (7) 
energy

$$$$
7:0
     RDKit          3D

 42 44  0  0  0  0  0  0  0  0999 V2000
   -0.3680   23.6270  -28.8720 C   0  0  0  0  0  0  0  0  0  0  0  0
   -1.1820   24.7890  -28.3230 C   0  0  0  0  0  0  0  0  0  0  0  0
   -2.1390   25.2380  -29.3330 N   0  0  0  0  0  0  0  0  0  0  0  0
   -3.2690   24.6620  -29.6300 C   0  0  0  0  0  0  0  0  0  0  0  0
   -3.7120   23.4890  -28.9850 C   0  0  0  0  0  0  0  0  0  0  0  0
   -4.9340   22.9240  -29.3520 C   0  0  0  0  0  0  0  0  0  0  0  0
   -5.7110   23.5230  -30.3470 C   0  0  0  0  0  0  0  0  0  0  0  0
   -7.2390   22.8010  -30.8380 S   0  0  0  0  0  0  0  0  0  0  0  0
   -8.0150   22.3720  -29.6230 O   0  0  0  0  0  0  0  0  0  0  0  0
   -8.0660   23.8090  -31.5880 O   0  0  0  0  0  0  0  0  0  0  0  0
   -6.9100   21.4110  -31.8630 C   0  0  0  0  0  0  0  0  0  0  0  0
   -7.8660   20.3950  -31.9960 C   0  0  0  0  0  0  0  0  0  0  0  0
   -7.5950   19.2750  -32.7860 C   0  0  0  0  0  0  0  0  0  0  0  0
   -6.3550   19.1500  -33.4370 C   0  0  0  0  0  0  0  0  0  0  0  0
   -6.0490   18.0180  -34.2640 N   0  0  0  0  0  0  0  0  0  0  0  0
   -4.7580   17.4170  -34.4260 C   0  0  0  0  0  0  0  0  0  0  0  0
   -3.8400   18.0880  -34.9650 O   0  0  0  0  0  0  0  0  0  0  0  0
   -4.4620   16.0590  -33.9270 C   0  0  0  0  0  0  0  0  0  0  0  0
   -4.8600   15.5550  -32.7020 C   0  0  0  0  0  0  0  0  0  0  0  0
   -4.3990   14.2570  -32.6600 C   0  0  0  0  0  0  0  0  0  0  0  0
   -4.6270   13.0220  -31.2260 Br  0  0  0  0  0  0  0  0  0  0  0  0
   -3.7530   14.0150  -33.8540 C   0  0  0  0  0  0  0  0  0  0  0  0
   -3.7980   15.1150  -34.6260 N   0  0  0  0  0  0  0  0  0  0  0  0
   -5.4110   20.1760  -33.3170 C   0  0  0  0  0  0  0  0  0  0  0  0
   -5.6810   21.2960  -32.5250 C   0  0  0  0  0  0  0  0  0  0  0  0
   -5.2380   24.6800  -30.9720 C   0  0  0  0  0  0  0  0  0  0  0  0
   -4.0440   25.2160  -30.6010 N   0  0  0  0  0  0  0  0  0  0  0  0
    0.0429   23.0404  -28.0371 H   0  0  0  0  0  0  0  0  0  0  0  0
   -1.0148   22.9849  -29.4879 H   0  0  0  0  0  0  0  0  0  0  0  0
    0.4564   24.0155  -29.4879 H   0  0  0  0  0  0  0  0  0  0  0  0
   -1.7249   24.4630  -27.4236 H   0  0  0  0  0  0  0  0  0  0  0  0
   -0.5069   25.6183  -28.0653 H   0  0  0  0  0  0  0  0  0  0  0  0
   -3.0994   23.0232  -28.1991 H   0  0  0  0  0  0  0  0  0  0  0  0
   -5.2859   22.0065  -28.8577 H   0  0  0  0  0  0  0  0  0  0  0  0
   -8.8322   20.4795  -31.4771 H   0  0  0  0  0  0  0  0  0  0  0  0
   -8.3549   18.4877  -32.8992 H   0  0  0  0  0  0  0  0  0  0  0  0
   -5.4280   16.0822  -31.9213 H   0  0  0  0  0  0  0  0  0  0  0  0
   -3.2732   13.0653  -34.1329 H   0  0  0  0  0  0  0  0  0  0  0  0
   -3.4120   15.1980  -35.5920 H   0  0  0  0  0  0  0  0  0  0  0  0
   -4.4511   20.1009  -33.8488 H   0  0  0  0  0  0  0  0  0  0  0  0
   -4.9260   22.0893  -32.4214 H   0  0  0  0  0  0  0  0  0  0  0  0
   -5.8320   25.1579  -31.7650 H   0  0  0  0  0  0  0  0  0  0  0  0
  1  2  1  0
  2  3  1  0
  3  4  2  3
  4  5  1  0
  5  6  2  0
  6  7  1  0
  7  8  1  0
  8  9  2  0
  8 10  2  0
  8 11  1  0
 11 12  2  0
 12 13  1  0
 13 14  2  0
 14 15  1  0
 15 16  1  0
 16 17  2  0
 16 18  1  0
 18 19  2  0
 19 20  1  0
 20 21  1  0
 20 22  2  0
 22 23  1  0
 14 24  1  0
 24 25  2  0
  7 26  2  0
 26 27  1  0
 27  4  1  0
 25 11  1  0
 23 18  1  0
  1 28  1  0
  1 29  1  0
  1 30  1  0
  2 31  1  0
  2 32  1  0
  5 33  1  0
  6 34  1  0
 12 35  1  0
 13 36  1  0
 19 37  1  0
 22 38  1  0
 23 39  1  0
 24 40  1  0
 25 41  1  0
 26 42  1  0
M  CHG  2  15  -1  27  -1
M  END
>  <UniqueID>  (8) 
8

>  <SMILES>  (8) 
CCN=c1ccc(S(=O)(=O)c2ccc([N-]C(=O)c3cc(Br)c[nH]3)cc2)c[n-]1

>  <Energy>  (8) 
75.43012819071767

>  <Genealogy>  (8) 
CCN=c1ccc(S(=O)(=O)c2ccc([N-]C(=O)c3cc(Br)c[nH]3)cc2)c[n-]1 (protonated)
CCN=c1ccc(S(=O)(=O)c2ccc([N-]C(=O)c3cc(Br)c[nH]3)cc2)c[n-]1 (3D coordinates assigned)
CCN=c1ccc(S(=O)(=O)c2ccc([N-]C(=O)c3cc(Br)c[nH]3)cc2)c[n-]1 (optimized conformer: 75.43012819071767 kcal/mol)

>  <smiles>  (8) 
CCN=c1ccc(S(=O)(=O)c2ccc(NC(=O)c3cc(Br)c[nH]3)cc2)c[nH]1

>  <score_type>  (8) 
oracle

>  <origin>  (8) 
adgpu

>  <m_score__min__energy>  (8) 
-11.56

>  <m_primary>  (8) 
energy

$$$$
8:0
     RDKit          3D

 54 56  0  0  0  0  0  0  0  0999 V2000
   -7.6730   18.7970  -32.5800 C   0  0  0  0  0  0  0  0  0  0  0  0
   -6.8170   20.0000  -32.3290 C   0  0  0  0  0  0  0  0  0  0  0  0
   -5.4740   19.9010  -32.5160 N   0  0  0  0  0  0  0  0  0  0  0  0
   -4.6500   20.9520  -32.2790 C   0  0  0  0  0  0  0  0  0  0  0  0
   -2.9240   20.7970  -32.5460 S   0  0  0  0  0  0  0  0  0  0  0  0
   -2.4700   19.0790  -32.6020 C   0  0  0  0  0  0  0  0  0  0  0  0
   -2.1840   21.4740  -31.4250 O   0  0  0  0  0  0  0  0  0  0  0  0
   -2.5570   21.4600  -33.8430 O   0  0  0  0  0  0  0  0  0  0  0  0
   -5.1610   22.1270  -31.8310 N   0  0  0  0  0  0  0  0  0  0  0  0
   -6.4950   22.2850  -31.6270 C   0  0  0  0  0  0  0  0  0  0  0  0
   -7.0750   23.8670  -30.9900 S   0  0  0  0  0  0  0  0  0  0  0  0
   -5.7450   24.1150  -29.7480 C   0  0  0  0  0  0  0  0  0  0  0  0
   -4.8050   25.2130  -30.1320 C   0  0  0  0  0  0  0  0  0  0  0  0
   -5.2580   26.3410  -30.4690 O   0  0  0  0  0  0  0  0  0  0  0  0
   -3.4080   24.9110  -30.2330 N   0  0  0  0  0  0  0  0  0  0  0  0
   -2.5090   24.5360  -29.1810 C   0  0  0  0  0  0  0  0  0  0  0  0
   -1.6040   25.4410  -28.5990 C   0  0  0  0  0  0  0  0  0  0  0  0
   -0.7510   25.0140  -27.5740 C   0  0  0  0  0  0  0  0  0  0  0  0
   -0.7980   23.6920  -27.1230 C   0  0  0  0  0  0  0  0  0  0  0  0
   -1.7120   22.7910  -27.6880 C   0  0  0  0  0  0  0  0  0  0  0  0
   -1.7930   21.1170  -27.1520 S   0  0  0  0  0  0  0  0  0  0  0  0
   -3.1440   20.5340  -27.4600 O   0  0  0  0  0  0  0  0  0  0  0  0
   -1.5680   21.0790  -25.6670 O   0  0  0  0  0  0  0  0  0  0  0  0
   -0.5490   20.2040  -27.9680 N   0  0  0  0  0  0  0  0  0  0  0  0
   -0.7720   20.2400  -29.4240 C   0  0  0  0  0  0  0  0  0  0  0  0
    0.4330   19.6340  -30.1690 C   0  0  0  0  0  0  0  0  0  0  0  0
    1.2300   18.6550  -29.2910 C   0  0  0  0  0  0  0  0  0  0  0  0
    0.3010   17.8700  -28.3610 C   0  0  0  0  0  0  0  0  0  0  0  0
   -0.5370   18.8130  -27.4660 C   0  0  0  0  0  0  0  0  0  0  0  0
   -2.5700   23.2230  -28.7050 C   0  0  0  0  0  0  0  0  0  0  0  0
   -7.3700   21.2180  -31.8910 C   0  0  0  0  0  0  0  0  0  0  0  0
   -9.1080   21.3940  -31.6520 Cl  0  0  0  0  0  0  0  0  0  0  0  0
   -7.9833   18.3609  -31.6190 H   0  0  0  0  0  0  0  0  0  0  0  0
   -8.5640   19.0940  -33.1527 H   0  0  0  0  0  0  0  0  0  0  0  0
   -7.1004   18.0526  -33.1527 H   0  0  0  0  0  0  0  0  0  0  0  0
   -2.3680   18.6931  -31.5770 H   0  0  0  0  0  0  0  0  0  0  0  0
   -3.2489   18.5110  -33.1318 H   0  0  0  0  0  0  0  0  0  0  0  0
   -1.5122   18.9699  -33.1318 H   0  0  0  0  0  0  0  0  0  0  0  0
   -6.2063   24.3665  -28.7816 H   0  0  0  0  0  0  0  0  0  0  0  0
   -5.1648   23.1825  -29.6866 H   0  0  0  0  0  0  0  0  0  0  0  0
   -1.5661   26.4833  -28.9485 H   0  0  0  0  0  0  0  0  0  0  0  0
   -0.0409   25.7220  -27.1218 H   0  0  0  0  0  0  0  0  0  0  0  0
   -0.1183   23.3584  -26.3251 H   0  0  0  0  0  0  0  0  0  0  0  0
   -1.6757   19.6616  -29.6663 H   0  0  0  0  0  0  0  0  0  0  0  0
   -0.8960   21.2865  -29.7394 H   0  0  0  0  0  0  0  0  0  0  0  0
    0.0665   19.0960  -31.0557 H   0  0  0  0  0  0  0  0  0  0  0  0
    1.1050   20.4587  -30.4487 H   0  0  0  0  0  0  0  0  0  0  0  0
    1.7705   17.9492  -29.9388 H   0  0  0  0  0  0  0  0  0  0  0  0
    1.9360   19.2318  -28.6754 H   0  0  0  0  0  0  0  0  0  0  0  0
   -0.3799   17.2574  -28.9703 H   0  0  0  0  0  0  0  0  0  0  0  0
    0.9209   17.2372  -27.7089 H   0  0  0  0  0  0  0  0  0  0  0  0
   -1.5716   18.4408  -27.4321 H   0  0  0  0  0  0  0  0  0  0  0  0
   -0.0785   18.8214  -26.4661 H   0  0  0  0  0  0  0  0  0  0  0  0
   -3.3006   22.5219  -29.1348 H   0  0  0  0  0  0  0  0  0  0  0  0
  1  2  1  0
  2  3  2  0
  3  4  1  0
  4  5  1  0
  5  6  1  0
  5  7  2  0
  5  8  2  0
  4  9  2  0
  9 10  1  0
 10 11  1  0
 11 12  1  0
 12 13  1  0
 13 14  2  0
 13 15  1  0
 15 16  1  0
 16 17  2  0
 17 18  1  0
 18 19  2  0
 19 20  1  0
 20 21  1  0
 21 22  2  0
 21 23  2  0
 21 24  1  0
 24 25  1  0
 25 26  1  0
 26 27  1  0
 27 28  1  0
 28 29  1  0
 20 30  2  0
 10 31  2  0
 31 32  1  0
 31  2  1  0
 30 16  1  0
 29 24  1  0
  1 33  1  0
  1 34  1  0
  1 35  1  0
  6 36  1  0
  6 37  1  0
  6 38  1  0
 12 39  1  0
 12 40  1  0
 17 41  1  0
 18 42  1  0
 19 43  1  0
 25 44  1  0
 25 45  1  0
 26 46  1  0
 26 47  1  0
 27 48  1  0
 27 49  1  0
 28 50  1  0
 28 51  1  0
 29 52  1  0
 29 53  1  0
 30 54  1  0
M  CHG  1  15  -1
M  END
>  <UniqueID>  (9) 
9

>  <SMILES>  (9) 
Cc1nc(S(C)(=O)=O)nc(SCC(=O)[N-]c2cccc(S(=O)(=O)N3CCCCC3)c2)c1Cl

>  <Energy>  (9) 
50.36653556198604

>  <Genealogy>  (9) 
Cc1nc(S(C)(=O)=O)nc(SCC(=O)[N-]c2cccc(S(=O)(=O)N3CCCCC3)c2)c1Cl (protonated)
Cc1nc(S(C)(=O)=O)nc(SCC(=O)[N-]c2cccc(S(=O)(=O)N3CCCCC3)c2)c1Cl (3D coordinates assigned)
Cc1nc(S(C)(=O)=O)nc(SCC(=O)[N-]c2cccc(S(=O)(=O)N3CCCCC3)c2)c1Cl (nonaromatic ring conformer: 50.36653556198604 kcal/mol)

>  <smiles>  (9) 
Cc1nc(S(C)(=O)=O)nc(SCC(=O)Nc2cccc(S(=O)(=O)N3CCCCC3)c2)c1Cl

>  <score_type>  (9) 
oracle

>  <origin>  (9) 
adgpu

>  <m_score__min__energy>  (9) 
-12

>  <m_primary>  (9) 
energy

$$$$
9:0
     RDKit          3D

 59 62  0  0  0  0  0  0  0  0999 V2000
   -6.4640   24.6430  -29.9700 O   0  0  0  0  0  0  0  0  0  0  0  0
   -4.9940   24.5290  -30.2490 S   0  0  0  0  0  0  0  0  0  0  0  0
   -4.5810   25.7270  -31.0600 O   0  0  0  0  0  0  0  0  0  0  0  0
   -4.0900   24.5130  -28.7690 N   0  0  0  0  0  0  0  0  0  0  0  0
   -2.8850   23.7720  -28.5300 C   0  0  0  0  0  0  0  0  0  0  0  0
   -2.8980   22.4750  -27.9970 C   0  0  0  0  0  0  0  0  0  0  0  0
   -1.7020   21.7790  -27.7760 C   0  0  0  0  0  0  0  0  0  0  0  0
   -1.7330   20.1530  -27.0840 S   0  0  0  0  0  0  0  0  0  0  0  0
   -3.0620   19.5080  -27.4030 O   0  0  0  0  0  0  0  0  0  0  0  0
   -1.6080   20.2390  -25.5820 O   0  0  0  0  0  0  0  0  0  0  0  0
   -0.4340   19.1720  -27.7070 N   0  0  0  0  0  0  0  0  0  0  0  0
   -0.5320   17.8020  -27.1910 C   0  0  0  0  0  0  0  0  0  0  0  0
    0.7510   17.0230  -27.5190 C   0  0  0  0  0  0  0  0  0  0  0  0
    1.4790   17.5830  -28.7520 C   0  0  0  0  0  0  0  0  0  0  0  0
    0.4830   18.1040  -29.7890 C   0  0  0  0  0  0  0  0  0  0  0  0
   -0.4470   19.1810  -29.1860 C   0  0  0  0  0  0  0  0  0  0  0  0
   -0.4820   22.3880  -28.0900 C   0  0  0  0  0  0  0  0  0  0  0  0
   -0.4590   23.6800  -28.6140 C   0  0  0  0  0  0  0  0  0  0  0  0
   -1.6530   24.3760  -28.8290 C   0  0  0  0  0  0  0  0  0  0  0  0
   -1.6110   25.6680  -29.3510 O   0  0  0  0  0  0  0  0  0  0  0  0
   -4.6460   23.0620  -31.1640 C   0  0  0  0  0  0  0  0  0  0  0  0
   -3.3630   22.4960  -31.1130 C   0  0  0  0  0  0  0  0  0  0  0  0
   -3.0850   21.3110  -31.8040 C   0  0  0  0  0  0  0  0  0  0  0  0
   -4.0910   20.6700  -32.5480 C   0  0  0  0  0  0  0  0  0  0  0  0
   -3.7480   19.1450  -33.3790 S   0  0  0  0  0  0  0  0  0  0  0  0
   -2.9130   19.4370  -34.6010 O   0  0  0  0  0  0  0  0  0  0  0  0
   -2.9430   18.2560  -32.4690 O   0  0  0  0  0  0  0  0  0  0  0  0
   -5.1930   18.3010  -33.8790 N   0  0  0  0  0  0  0  0  0  0  0  0
   -4.9170   16.9180  -34.2670 C   0  0  0  0  0  0  0  0  0  0  0  0
   -6.2360   16.1760  -34.1270 C   0  0  0  0  0  0  0  0  0  0  0  0
   -7.0320   16.9800  -33.1080 C   0  0  0  0  0  0  0  0  0  0  0  0
   -6.1740   18.2020  -32.7980 C   0  0  0  0  0  0  0  0  0  0  0  0
   -5.3760   21.2330  -32.5960 C   0  0  0  0  0  0  0  0  0  0  0  0
   -5.6490   22.4310  -31.9180 C   0  0  0  0  0  0  0  0  0  0  0  0
   -3.8581   21.9985  -27.7495 H   0  0  0  0  0  0  0  0  0  0  0  0
   -0.6705   17.8328  -26.1002 H   0  0  0  0  0  0  0  0  0  0  0  0
   -1.3895   17.2995  -27.6623 H   0  0  0  0  0  0  0  0  0  0  0  0
    1.4283   17.0779  -26.6540 H   0  0  0  0  0  0  0  0  0  0  0  0
    0.4646   15.9847  -27.7421 H   0  0  0  0  0  0  0  0  0  0  0  0
    2.1354   18.4079  -28.4379 H   0  0  0  0  0  0  0  0  0  0  0  0
    2.0675   16.7734  -29.2083 H   0  0  0  0  0  0  0  0  0  0  0  0
    1.0391   18.5420  -30.6309 H   0  0  0  0  0  0  0  0  0  0  0  0
   -0.1373   17.2610  -30.1274 H   0  0  0  0  0  0  0  0  0  0  0  0
   -0.1163   20.1699  -29.5363 H   0  0  0  0  0  0  0  0  0  0  0  0
   -1.4734   18.9602  -29.5141 H   0  0  0  0  0  0  0  0  0  0  0  0
    0.4608   21.8465  -27.9232 H   0  0  0  0  0  0  0  0  0  0  0  0
    0.5028   24.1541  -28.8594 H   0  0  0  0  0  0  0  0  0  0  0  0
   -2.5716   22.9862  -30.5269 H   0  0  0  0  0  0  0  0  0  0  0  0
   -2.0741   20.8790  -31.7647 H   0  0  0  0  0  0  0  0  0  0  0  0
   -4.5626   16.8758  -35.3075 H   0  0  0  0  0  0  0  0  0  0  0  0
   -4.1328   16.4706  -33.6386 H   0  0  0  0  0  0  0  0  0  0  0  0
   -6.7647   16.1415  -35.0910 H   0  0  0  0  0  0  0  0  0  0  0  0
   -6.0923   15.1325  -33.8100 H   0  0  0  0  0  0  0  0  0  0  0  0
   -8.0001   17.2866  -33.5309 H   0  0  0  0  0  0  0  0  0  0  0  0
   -7.2503   16.3930  -32.2037 H   0  0  0  0  0  0  0  0  0  0  0  0
   -6.7981   19.1072  -32.7662 H   0  0  0  0  0  0  0  0  0  0  0  0
   -5.6814   18.1063  -31.8191 H   0  0  0  0  0  0  0  0  0  0  0  0
   -6.1721   20.7332  -33.1673 H   0  0  0  0  0  0  0  0  0  0  0  0
   -6.6525   22.8776  -31.9773 H   0  0  0  0  0  0  0  0  0  0  0  0
  1  2  2  0
  2  3  2  0
  2  4  1  0
  4  5  1  0
  5  6  2  0
  6  7  1  0
  7  8  1  0
  8  9  2  0
  8 10  2  0
  8 11  1  0
 11 12  1  0
 12 13  1  0
 13 14  1  0
 14 15  1  0
 15 16  1  0
  7 17  2  0
 17 18  1  0
 18 19  2  0
 19 20  1  0
  2 21  1  0
 21 22  2  0
 22 23  1  0
 23 24  2  0
 24 25  1  0
 25 26  2  0
 25 27  2  0
 25 28  1  0
 28 29  1  0
 29 30  1  0
 30 31  1  0
 31 32  1  0
 24 33  1  0
 33 34  2  0
 19  5  1  0
 34 21  1  0
 16 11  1  0
 32 28  1  0
  6 35  1  0
 12 36  1  0
 12 37  1  0
 13 38  1  0
 13 39  1  0
 14 40  1  0
 14 41  1  0
 15 42  1  0
 15 43  1  0
 16 44  1  0
 16 45  1  0
 17 46  1  0
 18 47  1  0
 22 48  1  0
 23 49  1  0
 29 50  1  0
 29 51  1  0
 30 52  1  0
 30 53  1  0
 31 54  1  0
 31 55  1  0
 32 56  1  0
 32 57  1  0
 33 58  1  0
 34 59  1  0
M  CHG  2   4  -1  20  -1
M  END
>  <UniqueID>  (10) 
10

>  <SMILES>  (10) 
O=S(=O)([N-]c1cc(S(=O)(=O)N2CCCCC2)ccc1[O-])c1ccc(S(=O)(=O)N2CCCC2)cc1

>  <Energy>  (10) 
68.66291296869719

>  <Genealogy>  (10) 
O=S(=O)([N-]c1cc(S(=O)(=O)N2CCCCC2)ccc1[O-])c1ccc(S(=O)(=O)N2CCCC2)cc1 (protonated)
O=S(=O)([N-]c1cc(S(=O)(=O)N2CCCCC2)ccc1[O-])c1ccc(S(=O)(=O)N2CCCC2)cc1 (3D coordinates assigned)
O=S(=O)([N-]c1cc(S(=O)(=O)N2CCCCC2)ccc1[O-])c1ccc(S(=O)(=O)N2CCCC2)cc1 (nonaromatic ring conformer: 68.66291296869719 kcal/mol)

>  <smiles>  (10) 
O=S(=O)(Nc1cc(S(=O)(=O)N2CCCCC2)ccc1O)c1ccc(S(=O)(=O)N2CCCC2)cc1

>  <score_type>  (10) 
oracle

>  <origin>  (10) 
adgpu

>  <m_score__min__energy>  (10) 
-16.239999999999998

>  <m_primary>  (10) 
energy

$$$$
10:0
     RDKit          3D

 59 63  0  0  0  0  0  0  0  0999 V2000
   -6.1550   25.7810  -29.3520 C   0  0  0  0  0  0  0  0  0  0  0  0
   -5.4550   24.9350  -30.3740 C   0  0  0  0  0  0  0  0  0  0  0  0
   -4.3640   25.3560  -30.8590 O   0  0  0  0  0  0  0  0  0  0  0  0
   -6.0090   23.6300  -30.8250 C   0  0  0  0  0  0  0  0  0  0  0  0
   -5.3230   22.8250  -31.7540 C   0  0  0  0  0  0  0  0  0  0  0  0
   -5.8600   21.6040  -32.1690 C   0  0  0  0  0  0  0  0  0  0  0  0
   -7.0990   21.1710  -31.6880 C   0  0  0  0  0  0  0  0  0  0  0  0
   -7.6060   19.8980  -32.1230 N   0  0  0  0  0  0  0  0  0  0  0  0
   -6.9130   18.9210  -32.6330 C   0  0  0  0  0  0  0  0  0  0  0  0
   -7.4970   17.7680  -33.0370 N   0  0  0  0  0  0  0  0  0  0  0  0
   -6.5680   16.8820  -33.4800 C   0  0  0  0  0  0  0  0  0  0  0  0
   -6.8590   15.6060  -33.9610 C   0  0  0  0  0  0  0  0  0  0  0  0
   -5.8010   14.7820  -34.3790 C   0  0  0  0  0  0  0  0  0  0  0  0
   -4.4600   15.2360  -34.3050 C   0  0  0  0  0  0  0  0  0  0  0  0
   -3.3630   14.4230  -34.7490 N   0  0  0  0  0  0  0  0  0  0  0  0
   -2.1470   14.1920  -34.0280 C   0  0  0  0  0  0  0  0  0  0  0  0
   -1.8460   13.0250  -33.6590 O   0  0  0  0  0  0  0  0  0  0  0  0
   -1.2720   15.3310  -33.6690 C   0  0  0  0  0  0  0  0  0  0  0  0
   -0.8920   15.5490  -32.3320 C   0  0  0  0  0  0  0  0  0  0  0  0
   -0.0620   16.6220  -31.9940 C   0  0  0  0  0  0  0  0  0  0  0  0
    0.4180   17.4840  -32.9870 C   0  0  0  0  0  0  0  0  0  0  0  0
    1.4770   18.8330  -32.5620 S   0  0  0  0  0  0  0  0  0  0  0  0
    2.5080   19.0010  -33.6440 O   0  0  0  0  0  0  0  0  0  0  0  0
    2.1950   18.5090  -31.2800 O   0  0  0  0  0  0  0  0  0  0  0  0
    0.6050   20.3360  -32.3560 N   0  0  0  0  0  0  0  0  0  0  0  0
   -0.4010   20.5480  -33.3990 C   0  0  0  0  0  0  0  0  0  0  0  0
   -1.4590   21.4650  -32.8020 C   0  0  0  0  0  0  0  0  0  0  0  0
   -1.2770   21.3630  -31.2910 C   0  0  0  0  0  0  0  0  0  0  0  0
   -0.1230   20.3920  -31.0850 C   0  0  0  0  0  0  0  0  0  0  0  0
    0.0360   17.2790  -34.3200 C   0  0  0  0  0  0  0  0  0  0  0  0
   -0.8040   16.2130  -34.6590 C   0  0  0  0  0  0  0  0  0  0  0  0
   -4.1890   16.5330  -33.8370 C   0  0  0  0  0  0  0  0  0  0  0  0
   -5.2550   17.3250  -33.4250 C   0  0  0  0  0  0  0  0  0  0  0  0
   -5.2200   18.8780  -32.7930 S   0  0  0  0  0  0  0  0  0  0  0  0
   -7.7720   21.9480  -30.7320 C   0  0  0  0  0  0  0  0  0  0  0  0
   -7.2380   23.1700  -30.3130 C   0  0  0  0  0  0  0  0  0  0  0  0
   -5.8757   25.4434  -28.3430 H   0  0  0  0  0  0  0  0  0  0  0  0
   -5.8593   26.8325  -29.4818 H   0  0  0  0  0  0  0  0  0  0  0  0
   -7.2433   25.6874  -29.4818 H   0  0  0  0  0  0  0  0  0  0  0  0
   -4.3558   23.1603  -32.1566 H   0  0  0  0  0  0  0  0  0  0  0  0
   -5.3027   20.9775  -32.8809 H   0  0  0  0  0  0  0  0  0  0  0  0
   -7.8988   15.2509  -34.0122 H   0  0  0  0  0  0  0  0  0  0  0  0
   -6.0149   13.7753  -34.7673 H   0  0  0  0  0  0  0  0  0  0  0  0
   -1.2512   14.8690  -31.5455 H   0  0  0  0  0  0  0  0  0  0  0  0
    0.2152   16.7897  -30.9428 H   0  0  0  0  0  0  0  0  0  0  0  0
    1.2980   21.1230  -32.3850 H   0  0  0  0  0  0  0  0  0  0  0  0
    0.0586   21.0212  -34.2792 H   0  0  0  0  0  0  0  0  0  0  0  0
   -0.8410   19.5943  -33.7258 H   0  0  0  0  0  0  0  0  0  0  0  0
   -1.3053   22.5007  -33.1392 H   0  0  0  0  0  0  0  0  0  0  0  0
   -2.4738   21.1755  -33.1124 H   0  0  0  0  0  0  0  0  0  0  0  0
   -1.0316   22.3475  -30.8660 H   0  0  0  0  0  0  0  0  0  0  0  0
   -2.1945   21.0182  -30.7918 H   0  0  0  0  0  0  0  0  0  0  0  0
    0.5386   20.7525  -30.2836 H   0  0  0  0  0  0  0  0  0  0  0  0
   -0.4879   19.3968  -30.7911 H   0  0  0  0  0  0  0  0  0  0  0  0
    0.3988   17.9602  -35.1039 H   0  0  0  0  0  0  0  0  0  0  0  0
   -1.1006   16.0637  -35.7077 H   0  0  0  0  0  0  0  0  0  0  0  0
   -3.1574   16.9129  -33.7975 H   0  0  0  0  0  0  0  0  0  0  0  0
   -8.7242   21.5935  -30.3105 H   0  0  0  0  0  0  0  0  0  0  0  0
   -7.7829   23.7784  -29.5762 H   0  0  0  0  0  0  0  0  0  0  0  0
  1  2  1  0
  2  3  2  0
  2  4  1  0
  4  5  2  0
  5  6  1  0
  6  7  2  0
  7  8  1  0
  8  9  2  3
  9 10  1  0
 10 11  1  0
 11 12  2  0
 12 13  1  0
 13 14  2  0
 14 15  1  0
 15 16  1  0
 16 17  2  0
 16 18  1  0
 18 19  2  0
 19 20  1  0
 20 21  2  0
 21 22  1  0
 22 23  2  0
 22 24  2  0
 22 25  1  0
 25 26  1  0
 26 27  1  0
 27 28  1  0
 28 29  1  0
 21 30  1  0
 30 31  2  0
 14 32  1  0
 32 33  2  0
 33 34  1  0
  7 35  1  0
 35 36  2  0
 36  4  1  0
 34  9  1  0
 33 11  1  0
 31 18  1  0
 29 25  1  0
  1 37  1  0
  1 38  1  0
  1 39  1  0
  5 40  1  0
  6 41  1  0
 12 42  1  0
 13 43  1  0
 19 44  1  0
 20 45  1  0
 25 46  1  0
 26 47  1  0
 26 48  1  0
 27 49  1  0
 27 50  1  0
 28 51  1  0
 28 52  1  0
 29 53  1  0
 29 54  1  0
 30 55  1  0
 31 56  1  0
 32 57  1  0
 35 58  1  0
 36 59  1  0
M  CHG  3  10  -1  15  -1  25   1
M  END
>  <UniqueID>  (11) 
11

>  <SMILES>  (11) 
CC(=O)c1ccc(N=c2[n-]c3ccc([N-]C(=O)c4ccc(S(=O)(=O)[NH+]5CCCC5)cc4)cc3s2)cc1

>  <Energy>  (11) 
112.7464225200173

>  <Genealogy>  (11) 
CC(=O)c1ccc(N=c2[n-]c3ccc([N-]C(=O)c4ccc(S(=O)(=O)[NH+]5CCCC5)cc4)cc3s2)cc1 (protonated)
CC(=O)c1ccc(N=c2[n-]c3ccc([N-]C(=O)c4ccc(S(=O)(=O)[NH+]5CCCC5)cc4)cc3s2)cc1 (3D coordinates assigned)
CC(=O)c1ccc(N=c2[n-]c3ccc([N-]C(=O)c4ccc(S(=O)(=O)[NH+]5CCCC5)cc4)cc3s2)cc1 (nonaromatic ring conformer: 112.7464225200173 kcal/mol)

>  <smiles>  (11) 
CC(=O)c1ccc(N=c2[nH]c3ccc(NC(=O)c4ccc(S(=O)(=O)N5CCCC5)cc4)cc3s2)cc1

>  <score_type>  (11) 
oracle

>  <origin>  (11) 
adgpu

>  <m_score__min__energy>  (11) 
-12.33

>  <m_primary>  (11) 
energy

$$$$
11:0
     RDKit          3D

 41 44  0  0  0  0  0  0  0  0999 V2000
    0.0665   25.3164  -25.0623 H   0  0  0  0  0  0  0  0  0  0  0  0
   -0.2930   24.9390  -26.0310 C   0  0  0  0  0  0  0  0  0  0  0  0
   -0.4810   23.5680  -26.2190 C   0  0  0  0  0  0  0  0  0  0  0  0
   -0.2605   22.8660  -25.4014 H   0  0  0  0  0  0  0  0  0  0  0  0
   -0.9490   23.0870  -27.4450 C   0  0  0  0  0  0  0  0  0  0  0  0
   -1.0809   22.0052  -27.5944 H   0  0  0  0  0  0  0  0  0  0  0  0
   -1.2510   23.9770  -28.4850 C   0  0  0  0  0  0  0  0  0  0  0  0
   -1.7080   23.4530  -29.7390 N   0  0  0  0  0  0  0  0  0  0  0  0
   -2.9450   23.4520  -30.1420 C   0  0  0  0  0  0  0  0  0  0  0  0
   -4.2860   23.9640  -29.2480 S   0  0  0  0  0  0  0  0  0  0  0  0
   -5.3120   23.5290  -30.5130 C   0  0  0  0  0  0  0  0  0  0  0  0
   -7.0960   23.6880  -30.4800 S   0  0  0  0  0  0  0  0  0  0  0  0
   -7.3240   23.2340  -32.2360 C   0  0  0  0  0  0  0  0  0  0  0  0
   -6.5010   23.6611  -32.8278 H   0  0  0  0  0  0  0  0  0  0  0  0
   -8.2910   23.6313  -32.5782 H   0  0  0  0  0  0  0  0  0  0  0  0
   -7.3310   21.7440  -32.4090 C   0  0  0  0  0  0  0  0  0  0  0  0
   -6.2770   21.1350  -33.0070 N   0  0  0  0  0  0  0  0  0  0  0  0
   -6.2630   19.7960  -33.2300 C   0  0  0  0  0  0  0  0  0  0  0  0
   -5.1540   19.2240  -33.8610 C   0  0  0  0  0  0  0  0  0  0  0  0
   -4.3060   19.8541  -34.1675 H   0  0  0  0  0  0  0  0  0  0  0  0
   -5.1290   17.8540  -34.0990 C   0  0  0  0  0  0  0  0  0  0  0  0
   -4.2642   17.3992  -34.6043 H   0  0  0  0  0  0  0  0  0  0  0  0
   -6.2030   17.0550  -33.6960 C   0  0  0  0  0  0  0  0  0  0  0  0
   -6.2040   15.5830  -33.9840 C   0  0  0  0  0  0  0  0  0  0  0  0
   -6.2044   15.0240  -33.0366 H   0  0  0  0  0  0  0  0  0  0  0  0
   -7.1023   15.3233  -34.5633 H   0  0  0  0  0  0  0  0  0  0  0  0
   -5.3060   15.3221  -34.5633 H   0  0  0  0  0  0  0  0  0  0  0  0
   -7.3090   17.6620  -33.0830 C   0  0  0  0  0  0  0  0  0  0  0  0
   -8.1699   17.0456  -32.7849 H   0  0  0  0  0  0  0  0  0  0  0  0
   -7.3320   19.0140  -32.8500 N   0  0  0  0  0  0  0  0  0  0  0  0
   -8.4160   19.6050  -32.2450 C   0  0  0  0  0  0  0  0  0  0  0  0
   -9.4150   18.9210  -31.8880 O   0  0  0  0  0  0  0  0  0  0  0  0
   -8.4310   20.9820  -32.0180 C   0  0  0  0  0  0  0  0  0  0  0  0
   -9.2980   21.4590  -31.5376 H   0  0  0  0  0  0  0  0  0  0  0  0
   -4.6290   23.0120  -31.5590 N   0  0  0  0  0  0  0  0  0  0  0  0
   -3.3160   22.9670  -31.3460 N   0  0  0  0  0  0  0  0  0  0  0  0
   -2.6480   22.5850  -32.0530 H   0  0  0  0  0  0  0  0  0  0  0  0
   -1.0250   25.3560  -28.3040 C   0  0  0  0  0  0  0  0  0  0  0  0
   -1.2370   26.2520  -29.3450 O   0  0  0  0  0  0  0  0  0  0  0  0
   -0.5610   25.8320  -27.0720 C   0  0  0  0  0  0  0  0  0  0  0  0
   -0.4071   26.9109  -26.9231 H   0  0  0  0  0  0  0  0  0  0  0  0
  1  2  1  0
  2  3  2  0
  3  4  1  0
  3  5  1  0
  5  6  1  0
  5  7  2  0
  7  8  1  0
  8  9  2  0
  9 10  1  0
 10 11  1  0
 11 12  1  0
 12 13  1  0
 13 14  1  0
 13 15  1  0
 13 16  1  0
 16 17  1  0
 17 18  2  0
 18 19  1  0
 19 20  1  0
 19 21  2  0
 21 22  1  0
 21 23  1  0
 23 24  1  0
 24 25  1  0
 24 26  1  0
 24 27  1  0
 23 28  2  0
 28 29  1  0
 28 30  1  0
 30 31  1  0
 31 32  2  0
 31 33  1  0
 33 34  1  0
 11 35  2  0
 35 36  1  0
 36 37  1  0
  7 38  1  0
 38 39  1  0
 38 40  2  0
 40 41  1  0
 40  2  1  0
 36  9  1  0
 33 16  2  0
 30 18  1  0
M  CHG  1  39  -1
M  END
>  <UniqueID>  (12) 
12

>  <SMILES>  (12) 
Cc1ccc2nc(CSc3n[nH]/c(=N/c4ccccc4[O-])s3)cc(=O)n2c1

>  <Energy>  (12) 
87.78386103057532

>  <Genealogy>  (12) 
Cc1ccc2nc(CSc3n[nH]c(=Nc4ccccc4[O-])s3)cc(=O)n2c1 (protonated)
Cc1ccc2nc(CSc3n[nH]/c(=N/c4ccccc4[O-])s3)cc(=O)n2c1 (cis-trans isomerization)
Cc1ccc2nc(CSc3n[nH]/c(=N/c4ccccc4[O-])s3)cc(=O)n2c1 (3D coordinates assigned)
Cc1ccc2nc(CSc3n[nH]/c(=N/c4ccccc4[O-])s3)cc(=O)n2c1 (optimized conformer: 87.78386103057532 kcal/mol)

>  <smiles>  (12) 
Cc1ccc2nc(CSc3n[nH]c(=Nc4ccccc4O)s3)cc(=O)n2c1

>  <score_type>  (12) 
oracle

>  <origin>  (12) 
adgpu

>  <m_score__min__energy>  (12) 
-12.93

>  <m_primary>  (12) 
energy

$$$$
12:0
     RDKit          3D

 53 56  0  0  0  0  0  0  0  0999 V2000
   -9.5020   19.2120  -32.5360 C   0  0  0  0  0  0  0  0  0  0  0  0
   -8.0700   18.8070  -32.3590 C   0  0  0  0  0  0  0  0  0  0  0  0
   -7.8030   17.7940  -31.6590 O   0  0  0  0  0  0  0  0  0  0  0  0
   -6.9990   19.5780  -32.9360 N   0  0  0  0  0  0  0  0  0  0  0  0
   -6.1800   18.9740  -33.9920 C   0  0  0  0  0  0  0  0  0  0  0  0
   -4.7030   19.0920  -33.6170 C   0  0  0  0  0  0  0  0  0  0  0  0
   -4.3060   20.5620  -33.4400 C   0  0  0  0  0  0  0  0  0  0  0  0
   -5.2950   21.3380  -32.6010 C   0  0  0  0  0  0  0  0  0  0  0  0
   -4.9110   22.5730  -32.0600 C   0  0  0  0  0  0  0  0  0  0  0  0
   -5.8260   23.3520  -31.3460 C   0  0  0  0  0  0  0  0  0  0  0  0
   -5.2720   24.8140  -30.5320 S   0  0  0  0  0  0  0  0  0  0  0  0
   -5.8630   26.0080  -31.2230 O   0  0  0  0  0  0  0  0  0  0  0  0
   -5.6980   24.8170  -29.0900 O   0  0  0  0  0  0  0  0  0  0  0  0
   -3.5390   24.8920  -30.6150 N   0  0  0  0  0  0  0  0  0  0  0  0
   -2.6970   24.1030  -29.7560 C   0  0  0  0  0  0  0  0  0  0  0  0
   -2.8190   22.7040  -29.7190 C   0  0  0  0  0  0  0  0  0  0  0  0
   -1.9360   21.9250  -28.9580 C   0  0  0  0  0  0  0  0  0  0  0  0
   -0.9620   22.5580  -28.1610 C   0  0  0  0  0  0  0  0  0  0  0  0
   -0.8600   23.9560  -28.1740 C   0  0  0  0  0  0  0  0  0  0  0  0
   -1.7200   24.7250  -28.9630 C   0  0  0  0  0  0  0  0  0  0  0  0
   -1.5820   26.1090  -28.9700 O   0  0  0  0  0  0  0  0  0  0  0  0
    0.0480   21.7480  -27.3780 C   0  0  0  0  0  0  0  0  0  0  0  0
   -0.3930   20.3630  -27.1220 N   0  0  0  0  0  0  0  0  0  0  0  0
   -1.3670   20.2900  -26.0180 C   0  0  0  0  0  0  0  0  0  0  0  0
   -0.8800   19.7140  -28.3540 C   0  0  0  0  0  0  0  0  0  0  0  0
   -2.1020   20.4290  -28.9490 C   0  0  0  0  0  0  0  0  0  0  0  0
   -7.1500   22.9190  -31.2120 C   0  0  0  0  0  0  0  0  0  0  0  0
   -7.5460   21.6950  -31.7550 C   0  0  0  0  0  0  0  0  0  0  0  0
   -6.6190   20.8760  -32.4240 C   0  0  0  0  0  0  0  0  0  0  0  0
   -9.9702   19.3444  -31.5495 H   0  0  0  0  0  0  0  0  0  0  0  0
   -9.5490   20.1587  -33.0942 H   0  0  0  0  0  0  0  0  0  0  0  0
  -10.0379   18.4302  -33.0942 H   0  0  0  0  0  0  0  0  0  0  0  0
   -6.4473   17.9127  -34.1023 H   0  0  0  0  0  0  0  0  0  0  0  0
   -6.3612   19.4968  -34.9427 H   0  0  0  0  0  0  0  0  0  0  0  0
   -4.5255   18.5537  -32.6743 H   0  0  0  0  0  0  0  0  0  0  0  0
   -4.0966   18.6561  -34.4246 H   0  0  0  0  0  0  0  0  0  0  0  0
   -3.3213   20.6039  -32.9514 H   0  0  0  0  0  0  0  0  0  0  0  0
   -4.2854   21.0224  -34.4388 H   0  0  0  0  0  0  0  0  0  0  0  0
   -3.8806   22.9322  -32.1986 H   0  0  0  0  0  0  0  0  0  0  0  0
   -3.1250   25.3660  -31.4480 H   0  0  0  0  0  0  0  0  0  0  0  0
   -3.6177   22.2133  -30.2946 H   0  0  0  0  0  0  0  0  0  0  0  0
   -0.0961   24.4524  -27.5576 H   0  0  0  0  0  0  0  0  0  0  0  0
    0.9884   21.7162  -27.9477 H   0  0  0  0  0  0  0  0  0  0  0  0
    0.1743   22.2376  -26.4011 H   0  0  0  0  0  0  0  0  0  0  0  0
   -0.8347   20.3299  -25.0562 H   0  0  0  0  0  0  0  0  0  0  0  0
   -2.0637   21.1384  -26.0870 H   0  0  0  0  0  0  0  0  0  0  0  0
   -1.9294   19.3472  -26.0870 H   0  0  0  0  0  0  0  0  0  0  0  0
   -0.0708   19.7184  -29.0991 H   0  0  0  0  0  0  0  0  0  0  0  0
   -1.1843   18.6891  -28.0952 H   0  0  0  0  0  0  0  0  0  0  0  0
   -2.2468   20.0823  -29.9828 H   0  0  0  0  0  0  0  0  0  0  0  0
   -2.9728   20.1893  -28.3210 H   0  0  0  0  0  0  0  0  0  0  0  0
   -7.8804   23.5443  -30.6777 H   0  0  0  0  0  0  0  0  0  0  0  0
   -8.5920   21.3686  -31.6586 H   0  0  0  0  0  0  0  0  0  0  0  0
  1  2  1  0
  2  3  2  0
  2  4  1  0
  4  5  1  0
  5  6  1  0
  6  7  1  0
  7  8  1  0
  8  9  2  0
  9 10  1  0
 10 11  1  0
 11 12  2  0
 11 13  2  0
 11 14  1  0
 14 15  1  0
 15 16  2  0
 16 17  1  0
 17 18  2  0
 18 19  1  0
 19 20  2  0
 20 21  1  0
 18 22  1  0
 22 23  1  0
 23 24  1  0
 23 25  1  0
 25 26  1  0
 10 27  2  0
 27 28  1  0
 28 29  2  0
 29  4  1  0
 29  8  1  0
 20 15  1  0
 26 17  1  0
  1 30  1  0
  1 31  1  0
  1 32  1  0
  5 33  1  0
  5 34  1  0
  6 35  1  0
  6 36  1  0
  7 37  1  0
  7 38  1  0
  9 39  1  0
 14 40  1  0
 16 41  1  0
 19 42  1  0
 22 43  1  0
 22 44  1  0
 24 45  1  0
 24 46  1  0
 24 47  1  0
 25 48  1  0
 25 49  1  0
 26 50  1  0
 26 51  1  0
 27 52  1  0
 28 53  1  0
M  CHG  1  21  -1
M  END
>  <UniqueID>  (13) 
13

>  <SMILES>  (13) 
CC(=O)N1CCCc2cc(S(=O)(=O)Nc3cc4c(cc3[O-])CN(C)CC4)ccc21

>  <Energy>  (13) 
67.65218315832983

>  <Genealogy>  (13) 
CC(=O)N1CCCc2cc(S(=O)(=O)Nc3cc4c(cc3[O-])CN(C)CC4)ccc21 (protonated)
CC(=O)N1CCCc2cc(S(=O)(=O)Nc3cc4c(cc3[O-])CN(C)CC4)ccc21 (3D coordinates assigned)
CC(=O)N1CCCc2cc(S(=O)(=O)Nc3cc4c(cc3[O-])CN(C)CC4)ccc21 (nonaromatic ring conformer: 67.65218315832983 kcal/mol)

>  <smiles>  (13) 
CC(=O)N1CCCc2cc(S(=O)(=O)Nc3cc4c(cc3O)CN(C)CC4)ccc21

>  <score_type>  (13) 
oracle

>  <origin>  (13) 
adgpu

>  <m_score__min__energy>  (13) 
-13.710000000000001

>  <m_primary>  (13) 
energy

$$$$
13:0
     RDKit          3D

 44 45  0  0  0  0  0  0  0  0999 V2000
    2.1150   23.0230  -37.2070 H   0  0  0  0  0  0  0  0  0  0  0  0
    1.3910   22.9260  -36.4580 N   0  0  0  0  0  0  0  0  0  0  0  0
    1.0760   21.2360  -36.2800 S   0  0  0  0  0  0  0  0  0  0  0  0
    2.3110   20.4590  -36.6400 O   0  0  0  0  0  0  0  0  0  0  0  0
   -0.0360   20.8310  -37.2070 O   0  0  0  0  0  0  0  0  0  0  0  0
    0.6170   20.8950  -34.6150 C   0  0  0  0  0  0  0  0  0  0  0  0
    1.4290   20.0870  -33.8080 C   0  0  0  0  0  0  0  0  0  0  0  0
    2.3548   19.6569  -34.2178 H   0  0  0  0  0  0  0  0  0  0  0  0
    1.0660   19.8260  -32.4840 C   0  0  0  0  0  0  0  0  0  0  0  0
    1.6989   19.1758  -31.8621 H   0  0  0  0  0  0  0  0  0  0  0  0
   -0.0990   20.3870  -31.9430 C   0  0  0  0  0  0  0  0  0  0  0  0
   -0.4510   20.0720  -30.5890 N   0  0  0  0  0  0  0  0  0  0  0  0
   -0.2140   20.9000  -29.4430 C   0  0  0  0  0  0  0  0  0  0  0  0
    0.7860   20.7010  -28.7020 O   0  0  0  0  0  0  0  0  0  0  0  0
   -1.2130   21.9520  -29.0720 C   0  0  0  0  0  0  0  0  0  0  0  0
   -0.7279   22.6967  -28.4239 H   0  0  0  0  0  0  0  0  0  0  0  0
   -2.0503   21.4711  -28.5451 H   0  0  0  0  0  0  0  0  0  0  0  0
   -1.7210   22.6050  -30.2350 O   0  0  0  0  0  0  0  0  0  0  0  0
   -3.0560   22.9840  -30.4830 C   0  0  0  0  0  0  0  0  0  0  0  0
   -3.5610   24.2860  -30.2510 C   0  0  0  0  0  0  0  0  0  0  0  0
   -2.7670   25.2970  -29.7270 O   0  0  0  0  0  0  0  0  0  0  0  0
   -4.8960   24.5830  -30.5410 C   0  0  0  0  0  0  0  0  0  0  0  0
   -5.2746   25.6019  -30.3723 H   0  0  0  0  0  0  0  0  0  0  0  0
   -5.7600   23.5970  -31.0450 C   0  0  0  0  0  0  0  0  0  0  0  0
   -7.1800   23.8730  -31.3750 C   0  0  0  0  0  0  0  0  0  0  0  0
   -7.6013   24.8437  -31.0747 H   0  0  0  0  0  0  0  0  0  0  0  0
   -7.9790   23.0120  -32.0160 C   0  0  0  0  0  0  0  0  0  0  0  0
   -7.5881   22.0295  -32.3190 H   0  0  0  0  0  0  0  0  0  0  0  0
   -9.3980   23.3710  -32.3250 C   0  0  0  0  0  0  0  0  0  0  0  0
   -9.9535   23.5115  -31.3860 H   0  0  0  0  0  0  0  0  0  0  0  0
   -9.4217   24.3034  -32.9081 H   0  0  0  0  0  0  0  0  0  0  0  0
   -9.8623   22.5620  -32.9081 H   0  0  0  0  0  0  0  0  0  0  0  0
   -5.2570   22.3090  -31.2740 C   0  0  0  0  0  0  0  0  0  0  0  0
   -5.9206   21.5320  -31.6812 H   0  0  0  0  0  0  0  0  0  0  0  0
   -3.9140   21.9960  -30.9900 C   0  0  0  0  0  0  0  0  0  0  0  0
   -3.3900   20.7110  -31.2050 O   0  0  0  0  0  0  0  0  0  0  0  0
   -3.8440   19.8090  -32.2110 C   0  0  0  0  0  0  0  0  0  0  0  0
   -4.2899   18.9232  -31.7351 H   0  0  0  0  0  0  0  0  0  0  0  0
   -4.5985   20.3077  -32.8371 H   0  0  0  0  0  0  0  0  0  0  0  0
   -2.9940   19.5001  -32.8371 H   0  0  0  0  0  0  0  0  0  0  0  0
   -0.9200   21.1850  -32.7590 C   0  0  0  0  0  0  0  0  0  0  0  0
   -1.8513   21.6071  -32.3534 H   0  0  0  0  0  0  0  0  0  0  0  0
   -0.5570   21.4440  -34.0840 C   0  0  0  0  0  0  0  0  0  0  0  0
   -1.1962   22.0817  -34.7122 H   0  0  0  0  0  0  0  0  0  0  0  0
  1  2  1  0
  2  3  1  0
  3  4  2  0
  3  5  2  0
  3  6  1  0
  6  7  2  0
  7  8  1  0
  7  9  1  0
  9 10  1  0
  9 11  2  0
 11 12  1  0
 12 13  1  0
 13 14  2  0
 13 15  1  0
 15 16  1  0
 15 17  1  0
 15 18  1  0
 18 19  1  0
 19 20  2  0
 20 21  1  0
 20 22  1  0
 22 23  1  0
 22 24  2  0
 24 25  1  0
 25 26  1  0
 25 27  2  0
 27 28  1  0
 27 29  1  0
 29 30  1  0
 29 31  1  0
 29 32  1  0
 24 33  1  0
 33 34  1  0
 33 35  2  0
 35 36  1  0
 36 37  1  0
 37 38  1  0
 37 39  1  0
 37 40  1  0
 11 41  1  0
 41 42  1  0
 41 43  2  0
 43 44  1  0
 43  6  1  0
 35 19  1  0
M  CHG  3   2  -1  12  -1  21  -1
M  END
>  <UniqueID>  (14) 
14

>  <SMILES>  (14) 
C/C=C/c1cc([O-])c(OCC(=O)[N-]c2ccc(S([NH-])(=O)=O)cc2)c(OC)c1

>  <Energy>  (14) 
48.276703236943504

>  <Genealogy>  (14) 
CC=Cc1cc([O-])c(OCC(=O)[N-]c2ccc(S([NH-])(=O)=O)cc2)c(OC)c1 (protonated)
C/C=C/c1cc([O-])c(OCC(=O)[N-]c2ccc(S([NH-])(=O)=O)cc2)c(OC)c1 (cis-trans isomerization)
C/C=C/c1cc([O-])c(OCC(=O)[N-]c2ccc(S([NH-])(=O)=O)cc2)c(OC)c1 (3D coordinates assigned)
C/C=C/c1cc([O-])c(OCC(=O)[N-]c2ccc(S([NH-])(=O)=O)cc2)c(OC)c1 (optimized conformer: 48.276703236943504 kcal/mol)

>  <smiles>  (14) 
CC=Cc1cc(O)c(OCC(=O)Nc2ccc(S(N)(=O)=O)cc2)c(OC)c1

>  <score_type>  (14) 
oracle

>  <origin>  (14) 
adgpu

>  <m_score__min__energy>  (14) 
-10.859999999999999

>  <m_primary>  (14) 
energy

$$$$
14:0
     RDKit          3D

 46 48  0  0  1  0  0  0  0  0999 V2000
    1.2940   21.6940  -27.4450 C   0  0  0  0  0  0  0  0  0  0  0  0
    0.7410   22.7420  -26.5920 N   0  0  0  0  0  0  0  0  0  0  0  0
    0.9370   24.1100  -26.8200 C   0  0  0  0  0  0  0  0  0  0  0  0
    1.6140   24.5190  -27.7990 O   0  0  0  0  0  0  0  0  0  0  0  0
    0.3750   25.1590  -25.9450 C   0  0  0  0  0  0  0  0  0  0  0  0
    0.8060   25.2940  -24.6390 C   0  0  0  0  0  0  0  0  0  0  0  0
    0.2960   26.2870  -23.7950 C   0  0  0  0  0  0  0  0  0  0  0  0
   -0.6590   27.1500  -24.2800 C   0  0  0  0  0  0  0  0  0  0  0  0
   -1.0920   27.0210  -25.5770 C   0  0  0  0  0  0  0  0  0  0  0  0
   -0.5820   26.0280  -26.4220 C   0  0  0  0  0  0  0  0  0  0  0  0
   -1.0720   25.9570  -27.7530 N   0  0  0  0  0  0  0  0  0  0  0  0
   -2.0350   25.1610  -28.0690 C   0  0  0  0  0  0  0  0  0  0  0  0
   -2.6460   24.3290  -27.1260 C   0  0  0  0  0  0  0  0  0  0  0  0
   -3.6820   23.4840  -27.4560 C   0  0  0  0  0  0  0  0  0  0  0  0
   -4.1350   23.4450  -28.7340 N   0  0  0  0  0  0  0  0  0  0  0  0
   -3.5460   24.2440  -29.6410 C   0  0  0  0  0  0  0  0  0  0  0  0
   -4.0140   24.1730  -30.8550 N   0  0  0  0  0  0  0  0  0  0  0  0
   -5.0910   23.2780  -31.1390 C   0  0  0  0  0  0  0  0  0  0  0  0
   -6.3500   23.8750  -31.2320 C   0  0  0  0  0  0  0  0  0  0  0  0
   -7.4620   23.1200  -31.5030 C   0  0  0  0  0  0  0  0  0  0  0  0
   -7.2940   21.7430  -31.6830 C   0  0  0  0  0  0  0  0  0  0  0  0
   -8.7540   20.8410  -32.0320 S   0  0  0  0  0  0  0  0  0  0  0  0
   -8.5350   19.8050  -33.4110 N   0  0  0  0  0  0  0  0  0  0  0  0
   -9.8800   21.8030  -32.2320 O   0  0  0  0  0  0  0  0  0  0  0  0
   -9.1030   19.9570  -30.8630 O   0  0  0  0  0  0  0  0  0  0  0  0
   -6.0520   21.1690  -31.5890 C   0  0  0  0  0  0  0  0  0  0  0  0
   -4.9240   21.9260  -31.3150 C   0  0  0  0  0  0  0  0  0  0  0  0
   -2.5330   25.0700  -29.3170 N   0  0  0  0  0  0  0  0  0  0  0  0
    1.7156   20.8949  -26.8175 H   0  0  0  0  0  0  0  0  0  0  0  0
    0.4972   21.2796  -28.0801 H   0  0  0  0  0  0  0  0  0  0  0  0
    2.0858   22.1179  -28.0801 H   0  0  0  0  0  0  0  0  0  0  0  0
    0.1760   22.4110  -25.7810 H   0  0  0  0  0  0  0  0  0  0  0  0
    1.5698   24.6030  -24.2528 H   0  0  0  0  0  0  0  0  0  0  0  0
    0.6537   26.3761  -22.7586 H   0  0  0  0  0  0  0  0  0  0  0  0
   -1.0730   27.9379  -23.6336 H   0  0  0  0  0  0  0  0  0  0  0  0
   -1.8563   27.7131  -25.9603 H   0  0  0  0  0  0  0  0  0  0  0  0
   -2.2874   24.3501  -26.0863 H   0  0  0  0  0  0  0  0  0  0  0  0
   -4.1398   22.8440  -26.6873 H   0  0  0  0  0  0  0  0  0  0  0  0
   -4.9130   22.7940  -28.9320 H   0  0  0  0  0  0  0  0  0  0  0  0
   -6.4505   24.9607  -31.0865 H   0  0  0  0  0  0  0  0  0  0  0  0
   -8.4569   23.5835  -31.5767 H   0  0  0  0  0  0  0  0  0  0  0  0
   -9.4880   19.6020  -33.8330 H   0  0  0  0  0  0  0  0  0  0  0  0
   -7.9880   20.2920  -34.1560 H   0  0  0  0  0  0  0  0  0  0  0  0
   -5.9489   20.0835  -31.7343 H   0  0  0  0  0  0  0  0  0  0  0  0
   -3.9300   21.4606  -31.2411 H   0  0  0  0  0  0  0  0  0  0  0  0
   -2.1160   25.6670  -30.0660 H   0  0  0  0  0  0  0  0  0  0  0  0
  1  2  1  0
  2  3  1  0
  3  4  2  0
  3  5  1  0
  5  6  2  0
  6  7  1  0
  7  8  2  0
  8  9  1  0
  9 10  2  0
 10 11  1  0
 11 12  2  0
 12 13  1  0
 13 14  2  0
 14 15  1  0
 15 16  1  0
 16 17  2  0
 17 18  1  0
 18 19  2  0
 19 20  1  0
 20 21  2  0
 21 22  1  0
 22 23  1  0
 22 24  2  0
 22 25  2  0
 21 26  1  0
 26 27  2  0
 16 28  1  0
 10  5  1  0
 28 12  1  0
 27 18  1  0
  1 29  1  0
  1 30  1  0
  1 31  1  0
  2 32  1  0
  6 33  1  0
  7 34  1  0
  8 35  1  0
  9 36  1  0
 13 37  1  0
 14 38  1  0
 15 39  1  0
 19 40  1  0
 20 41  1  0
 23 42  1  0
 23 43  1  0
 26 44  1  0
 27 45  1  0
 28 46  1  0
M  END
>  <smiles>  (15) 
CNC(=O)c1ccccc1N=c1cc[nH]c(=Nc2ccc(S(N)(=O)=O)cc2)[nH]1

>  <score_type>  (15) 
oracle

>  <origin>  (15) 
adgpu

>  <m_score__min__energy>  (15) 
-10.57

>  <m_primary>  (15) 
energy

$$$$
15:0
     RDKit          3D

 53 56  0  0  0  0  0  0  0  0999 V2000
   -1.6310   17.5520  -34.5230 O   0  0  0  0  0  0  0  0  0  0  0  0
   -2.5720   18.3050  -34.1650 C   0  0  0  0  0  0  0  0  0  0  0  0
   -3.8860   18.1900  -34.8900 C   0  0  0  0  0  0  0  0  0  0  0  0
   -4.8550   17.4370  -34.0960 N   0  0  0  0  0  0  0  0  0  0  0  0
   -6.1380   17.1970  -34.4090 C   0  0  0  0  0  0  0  0  0  0  0  0
   -6.6590   16.3530  -33.4540 C   0  0  0  0  0  0  0  0  0  0  0  0
   -5.7030   16.0500  -32.5490 N   0  0  0  0  0  0  0  0  0  0  0  0
   -4.6140   16.7220  -32.9770 C   0  0  0  0  0  0  0  0  0  0  0  0
   -2.3580   19.2630  -33.0460 C   0  0  0  0  0  0  0  0  0  0  0  0
   -1.3460   19.0640  -32.0870 C   0  0  0  0  0  0  0  0  0  0  0  0
   -1.1610   19.9750  -31.0410 C   0  0  0  0  0  0  0  0  0  0  0  0
   -2.0090   21.0820  -30.9180 C   0  0  0  0  0  0  0  0  0  0  0  0
   -1.8310   22.2160  -29.5820 S   0  0  0  0  0  0  0  0  0  0  0  0
   -1.1750   23.4670  -30.0890 O   0  0  0  0  0  0  0  0  0  0  0  0
   -0.9840   21.6290  -28.4880 O   0  0  0  0  0  0  0  0  0  0  0  0
   -3.4040   22.6080  -28.9690 N   0  0  0  0  0  0  0  0  0  0  0  0
   -4.4080   23.2590  -29.7550 C   0  0  0  0  0  0  0  0  0  0  0  0
   -5.5730   22.5780  -30.1470 C   0  0  0  0  0  0  0  0  0  0  0  0
   -6.5430   23.2230  -30.9280 C   0  0  0  0  0  0  0  0  0  0  0  0
   -8.0090   22.3620  -31.4100 S   0  0  0  0  0  0  0  0  0  0  0  0
   -8.6360   21.7370  -30.1910 O   0  0  0  0  0  0  0  0  0  0  0  0
   -8.9940   23.3430  -31.9820 O   0  0  0  0  0  0  0  0  0  0  0  0
   -7.6890   21.1210  -32.6080 N   0  0  0  0  0  0  0  0  0  0  0  0
   -8.7780   20.1420  -32.6640 C   0  0  0  0  0  0  0  0  0  0  0  0
   -8.3540   18.9050  -31.8810 C   0  0  0  0  0  0  0  0  0  0  0  0
   -6.8820   19.0820  -31.5830 C   0  0  0  0  0  0  0  0  0  0  0  0
   -6.4720   20.3690  -32.2780 C   0  0  0  0  0  0  0  0  0  0  0  0
   -6.3480   24.5590  -31.3100 C   0  0  0  0  0  0  0  0  0  0  0  0
   -5.2000   25.2450  -30.9020 C   0  0  0  0  0  0  0  0  0  0  0  0
   -4.2340   24.5990  -30.1220 C   0  0  0  0  0  0  0  0  0  0  0  0
   -3.0960   25.2980  -29.7210 O   0  0  0  0  0  0  0  0  0  0  0  0
   -3.0170   21.2930  -31.8710 C   0  0  0  0  0  0  0  0  0  0  0  0
   -3.1880   20.3970  -32.9270 C   0  0  0  0  0  0  0  0  0  0  0  0
   -4.2820   19.1985  -35.0801 H   0  0  0  0  0  0  0  0  0  0  0  0
   -3.7191   17.6580  -35.8382 H   0  0  0  0  0  0  0  0  0  0  0  0
   -6.6785   17.6034  -35.2765 H   0  0  0  0  0  0  0  0  0  0  0  0
   -7.6945   15.9824  -33.4315 H   0  0  0  0  0  0  0  0  0  0  0  0
   -3.6382   16.6906  -32.4702 H   0  0  0  0  0  0  0  0  0  0  0  0
   -0.6931   18.1818  -32.1611 H   0  0  0  0  0  0  0  0  0  0  0  0
   -0.3489   19.8212  -30.3151 H   0  0  0  0  0  0  0  0  0  0  0  0
   -5.7250   21.5329  -29.8395 H   0  0  0  0  0  0  0  0  0  0  0  0
   -9.6867   20.5712  -32.2168 H   0  0  0  0  0  0  0  0  0  0  0  0
   -8.9908   19.8730  -33.7092 H   0  0  0  0  0  0  0  0  0  0  0  0
   -8.9269   18.8307  -30.9449 H   0  0  0  0  0  0  0  0  0  0  0  0
   -8.5406   17.9839  -32.4526 H   0  0  0  0  0  0  0  0  0  0  0  0
   -6.7176   19.1630  -30.4984 H   0  0  0  0  0  0  0  0  0  0  0  0
   -6.2909   18.2244  -31.9366 H   0  0  0  0  0  0  0  0  0  0  0  0
   -5.8351   20.9666  -31.6092 H   0  0  0  0  0  0  0  0  0  0  0  0
   -5.9059   20.1423  -33.1935 H   0  0  0  0  0  0  0  0  0  0  0  0
   -7.0997   25.0676  -31.9316 H   0  0  0  0  0  0  0  0  0  0  0  0
   -5.0556   26.2954  -31.1949 H   0  0  0  0  0  0  0  0  0  0  0  0
   -3.6760   22.1695  -31.7852 H   0  0  0  0  0  0  0  0  0  0  0  0
   -3.9765   20.5766  -33.6726 H   0  0  0  0  0  0  0  0  0  0  0  0
  1  2  2  0
  2  3  1  0
  3  4  1  0
  4  5  1  0
  5  6  2  0
  6  7  1  0
  7  8  2  0
  2  9  1  0
  9 10  2  0
 10 11  1  0
 11 12  2  0
 12 13  1  0
 13 14  2  0
 13 15  2  0
 13 16  1  0
 16 17  1  0
 17 18  2  0
 18 19  1  0
 19 20  1  0
 20 21  2  0
 20 22  2  0
 20 23  1  0
 23 24  1  0
 24 25  1  0
 25 26  1  0
 26 27  1  0
 19 28  2  0
 28 29  1  0
 29 30  2  0
 30 31  1  0
 12 32  1  0
 32 33  2  0
  8  4  1  0
 33  9  1  0
 30 17  1  0
 27 23  1  0
  3 34  1  0
  3 35  1  0
  5 36  1  0
  6 37  1  0
  8 38  1  0
 10 39  1  0
 11 40  1  0
 18 41  1  0
 24 42  1  0
 24 43  1  0
 25 44  1  0
 25 45  1  0
 26 46  1  0
 26 47  1  0
 27 48  1  0
 27 49  1  0
 28 50  1  0
 29 51  1  0
 32 52  1  0
 33 53  1  0
M  CHG  2  16  -1  31  -1
M  END
>  <UniqueID>  (16) 
15

>  <SMILES>  (16) 
O=C(Cn1ccnc1)c1ccc(S(=O)(=O)[N-]c2cc(S(=O)(=O)N3CCCC3)ccc2[O-])cc1

>  <Energy>  (16) 
91.02633598444604

>  <Genealogy>  (16) 
O=C(Cn1ccnc1)c1ccc(S(=O)(=O)[N-]c2cc(S(=O)(=O)N3CCCC3)ccc2[O-])cc1 (protonated)
O=C(Cn1ccnc1)c1ccc(S(=O)(=O)[N-]c2cc(S(=O)(=O)N3CCCC3)ccc2[O-])cc1 (3D coordinates assigned)
O=C(Cn1ccnc1)c1ccc(S(=O)(=O)[N-]c2cc(S(=O)(=O)N3CCCC3)ccc2[O-])cc1 (nonaromatic ring conformer: 91.02633598444604 kcal/mol)

>  <smiles>  (16) 
O=C(Cn1ccnc1)c1ccc(S(=O)(=O)Nc2cc(S(=O)(=O)N3CCCC3)ccc2O)cc1

>  <score_type>  (16) 
oracle

>  <origin>  (16) 
adgpu

>  <m_score__min__energy>  (16) 
-14.84

>  <m_primary>  (16) 
energy

$$$$
16:0
     RDKit          3D

 45 47  0  0  0  0  0  0  0  0999 V2000
   -2.4640   20.0290  -27.0860 C   0  0  0  0  0  0  0  0  0  0  0  0
   -2.4230   21.3690  -27.7720 C   0  0  0  0  0  0  0  0  0  0  0  0
   -1.1990   21.9340  -28.1640 C   0  0  0  0  0  0  0  0  0  0  0  0
   -1.1560   23.2250  -28.7000 C   0  0  0  0  0  0  0  0  0  0  0  0
   -2.3350   23.9740  -28.8290 C   0  0  0  0  0  0  0  0  0  0  0  0
   -2.2870   25.2680  -29.3470 O   0  0  0  0  0  0  0  0  0  0  0  0
   -3.5670   23.4220  -28.4410 C   0  0  0  0  0  0  0  0  0  0  0  0
   -4.7540   24.2190  -28.5680 N   0  0  0  0  0  0  0  0  0  0  0  0
   -5.5440   24.6220  -30.0630 S   0  0  0  0  0  0  0  0  0  0  0  0
   -4.5310   25.2340  -30.9960 O   0  0  0  0  0  0  0  0  0  0  0  0
   -6.6160   25.6410  -29.7910 O   0  0  0  0  0  0  0  0  0  0  0  0
   -6.2920   23.2060  -30.8000 C   0  0  0  0  0  0  0  0  0  0  0  0
   -7.6730   23.1840  -31.0360 C   0  0  0  0  0  0  0  0  0  0  0  0
   -8.2800   22.0280  -31.5350 C   0  0  0  0  0  0  0  0  0  0  0  0
   -7.5180   20.8750  -31.7750 C   0  0  0  0  0  0  0  0  0  0  0  0
   -8.2910   19.3780  -32.3130 S   0  0  0  0  0  0  0  0  0  0  0  0
   -8.7420   18.5880  -31.1130 O   0  0  0  0  0  0  0  0  0  0  0  0
   -9.5130   19.7300  -33.1230 O   0  0  0  0  0  0  0  0  0  0  0  0
   -7.2350   18.3910  -33.2970 N   0  0  0  0  0  0  0  0  0  0  0  0
   -6.3500   17.5410  -32.4960 C   0  0  0  0  0  0  0  0  0  0  0  0
   -5.0750   17.3340  -33.3120 C   0  0  0  0  0  0  0  0  0  0  0  0
   -5.1770   18.3060  -34.4790 C   0  0  0  0  0  0  0  0  0  0  0  0
   -6.3480   19.2060  -34.1280 C   0  0  0  0  0  0  0  0  0  0  0  0
   -6.1320   20.9100  -31.5700 C   0  0  0  0  0  0  0  0  0  0  0  0
   -5.5190   22.0710  -31.0900 C   0  0  0  0  0  0  0  0  0  0  0  0
   -3.6030   22.1170  -27.9100 C   0  0  0  0  0  0  0  0  0  0  0  0
   -2.4595   20.1749  -25.9957 H   0  0  0  0  0  0  0  0  0  0  0  0
   -3.3789   19.4941  -27.3806 H   0  0  0  0  0  0  0  0  0  0  0  0
   -1.5835   19.4392  -27.3806 H   0  0  0  0  0  0  0  0  0  0  0  0
   -0.2688   21.3582  -28.0489 H   0  0  0  0  0  0  0  0  0  0  0  0
   -0.1954   23.6541  -29.0212 H   0  0  0  0  0  0  0  0  0  0  0  0
   -3.1130   25.7200  -29.7180 H   0  0  0  0  0  0  0  0  0  0  0  0
   -8.2801   24.0775  -30.8283 H   0  0  0  0  0  0  0  0  0  0  0  0
   -9.3606   22.0224  -31.7405 H   0  0  0  0  0  0  0  0  0  0  0  0
   -6.1126   18.0349  -31.5422 H   0  0  0  0  0  0  0  0  0  0  0  0
   -6.8307   16.5787  -32.2659 H   0  0  0  0  0  0  0  0  0  0  0  0
   -4.1875   17.5576  -32.7018 H   0  0  0  0  0  0  0  0  0  0  0  0
   -4.9742   16.2937  -33.6549 H   0  0  0  0  0  0  0  0  0  0  0  0
   -4.2520   18.8931  -34.5771 H   0  0  0  0  0  0  0  0  0  0  0  0
   -5.3214   17.7900  -35.4397 H   0  0  0  0  0  0  0  0  0  0  0  0
   -6.0008   20.0875  -33.5691 H   0  0  0  0  0  0  0  0  0  0  0  0
   -6.8603   19.5771  -35.0279 H   0  0  0  0  0  0  0  0  0  0  0  0
   -5.5237   20.0197  -31.7878 H   0  0  0  0  0  0  0  0  0  0  0  0
   -4.4296   22.0951  -30.9394 H   0  0  0  0  0  0  0  0  0  0  0  0
   -4.5643   21.6806  -27.6009 H   0  0  0  0  0  0  0  0  0  0  0  0
  1  2  1  0
  2  3  2  0
  3  4  1  0
  4  5  2  0
  5  6  1  0
  5  7  1  0
  7  8  1  0
  8  9  1  0
  9 10  2  0
  9 11  2  0
  9 12  1  0
 12 13  2  0
 13 14  1  0
 14 15  2  0
 15 16  1  0
 16 17  2  0
 16 18  2  0
 16 19  1  0
 19 20  1  0
 20 21  1  0
 21 22  1  0
 22 23  1  0
 15 24  1  0
 24 25  2  0
  7 26  2  0
 26  2  1  0
 25 12  1  0
 23 19  1  0
  1 27  1  0
  1 28  1  0
  1 29  1  0
  3 30  1  0
  4 31  1  0
  6 32  1  0
 13 33  1  0
 14 34  1  0
 20 35  1  0
 20 36  1  0
 21 37  1  0
 21 38  1  0
 22 39  1  0
 22 40  1  0
 23 41  1  0
 23 42  1  0
 24 43  1  0
 25 44  1  0
 26 45  1  0
M  CHG  1   8  -1
M  END
>  <UniqueID>  (17) 
16

>  <SMILES>  (17) 
Cc1ccc(O)c([N-]S(=O)(=O)c2ccc(S(=O)(=O)N3CCCC3)cc2)c1

>  <Energy>  (17) 
50.71929822489485

>  <Genealogy>  (17) 
Cc1ccc(O)c([N-]S(=O)(=O)c2ccc(S(=O)(=O)N3CCCC3)cc2)c1 (protonated)
Cc1ccc(O)c([N-]S(=O)(=O)c2ccc(S(=O)(=O)N3CCCC3)cc2)c1 (3D coordinates assigned)
Cc1ccc(O)c([N-]S(=O)(=O)c2ccc(S(=O)(=O)N3CCCC3)cc2)c1 (nonaromatic ring conformer: 50.71929822489485 kcal/mol)

>  <smiles>  (17) 
Cc1ccc(O)c(NS(=O)(=O)c2ccc(S(=O)(=O)N3CCCC3)cc2)c1

>  <score_type>  (17) 
oracle

>  <origin>  (17) 
adgpu

>  <m_score__min__energy>  (17) 
-12.609999999999999

>  <m_primary>  (17) 
energy

$$$$
17:0
     RDKit          3D

 53 56  0  0  0  0  0  0  0  0999 V2000
    2.3940   18.8020  -30.9420 C   0  0  0  0  0  0  0  0  0  0  0  0
    0.8700   19.1210  -31.8080 S   0  0  0  0  0  0  0  0  0  0  0  0
    0.0690   17.8550  -31.9140 O   0  0  0  0  0  0  0  0  0  0  0  0
    0.0870   20.1150  -30.9990 O   0  0  0  0  0  0  0  0  0  0  0  0
    1.1810   19.7770  -33.4270 C   0  0  0  0  0  0  0  0  0  0  0  0
    2.5110   19.9920  -33.8250 C   0  0  0  0  0  0  0  0  0  0  0  0
    2.8070   20.4690  -35.1040 C   0  0  0  0  0  0  0  0  0  0  0  0
    1.7770   20.7350  -36.0060 C   0  0  0  0  0  0  0  0  0  0  0  0
    0.4490   20.5330  -35.6280 C   0  0  0  0  0  0  0  0  0  0  0  0
    0.1350   20.0650  -34.3410 C   0  0  0  0  0  0  0  0  0  0  0  0
   -1.2860   19.8850  -33.9940 C   0  0  0  0  0  0  0  0  0  0  0  0
   -2.0440   20.9660  -33.5220 C   0  0  0  0  0  0  0  0  0  0  0  0
   -3.3900   20.7920  -33.1930 C   0  0  0  0  0  0  0  0  0  0  0  0
   -4.0000   19.5340  -33.3330 C   0  0  0  0  0  0  0  0  0  0  0  0
   -5.3830   19.3610  -32.9810 N   0  0  0  0  0  0  0  0  0  0  0  0
   -6.3030   18.4570  -33.6480 C   0  0  0  0  0  0  0  0  0  0  0  0
   -7.6010   18.5040  -32.8240 C   0  0  0  0  0  0  0  0  0  0  0  0
   -7.5330   19.7740  -31.9540 C   0  0  2  0  0  0  0  0  0  0  0  0
   -8.3700   20.8200  -32.5520 N   0  0  0  0  0  0  0  0  0  0  0  0
   -8.6780   22.1310  -31.4490 S   0  0  0  0  0  0  0  0  0  0  0  0
   -9.1790   21.5630  -30.1530 O   0  0  0  0  0  0  0  0  0  0  0  0
   -9.7460   23.0270  -32.0090 O   0  0  0  0  0  0  0  0  0  0  0  0
   -7.2180   23.0650  -31.1240 C   0  0  0  0  0  0  0  0  0  0  0  0
   -6.8430   23.3730  -29.8100 C   0  0  0  0  0  0  0  0  0  0  0  0
   -5.6990   24.1370  -29.5720 C   0  0  0  0  0  0  0  0  0  0  0  0
   -4.9390   24.5930  -30.6600 C   0  0  0  0  0  0  0  0  0  0  0  0
   -3.8760   25.3100  -30.4730 N   0  0  0  0  0  0  0  0  0  0  0  0
   -5.3250   24.2880  -31.9280 N   0  0  0  0  0  0  0  0  0  0  0  0
   -6.4350   23.5440  -32.1820 C   0  0  0  0  0  0  0  0  0  0  0  0
   -6.0970   20.1360  -32.0330 C   0  0  0  0  0  0  0  0  0  0  0  0
   -5.5610   21.0420  -31.3400 O   0  0  0  0  0  0  0  0  0  0  0  0
   -3.2490   18.4610  -33.8440 C   0  0  0  0  0  0  0  0  0  0  0  0
   -3.8270   17.2530  -34.0610 F   0  0  0  0  0  0  0  0  0  0  0  0
   -1.9020   18.6390  -34.1770 C   0  0  0  0  0  0  0  0  0  0  0  0
    2.2142   18.8396  -29.8574 H   0  0  0  0  0  0  0  0  0  0  0  0
    2.7703   17.8056  -31.2169 H   0  0  0  0  0  0  0  0  0  0  0  0
    3.1384   19.5638  -31.2169 H   0  0  0  0  0  0  0  0  0  0  0  0
    3.3294   19.7821  -33.1207 H   0  0  0  0  0  0  0  0  0  0  0  0
    3.8533   20.6350  -35.4001 H   0  0  0  0  0  0  0  0  0  0  0  0
    2.0115   21.1040  -37.0154 H   0  0  0  0  0  0  0  0  0  0  0  0
   -0.3593   20.7421  -36.3442 H   0  0  0  0  0  0  0  0  0  0  0  0
   -1.5764   21.9554  -33.4104 H   0  0  0  0  0  0  0  0  0  0  0  0
   -3.9765   21.6454  -32.8218 H   0  0  0  0  0  0  0  0  0  0  0  0
   -6.4905   18.7919  -34.6789 H   0  0  0  0  0  0  0  0  0  0  0  0
   -5.8972   17.4364  -33.7097 H   0  0  0  0  0  0  0  0  0  0  0  0
   -8.4726   18.5503  -33.4935 H   0  0  0  0  0  0  0  0  0  0  0  0
   -7.7040   17.6041  -32.1998 H   0  0  0  0  0  0  0  0  0  0  0  0
   -7.8889   19.6402  -30.9218 H   0  0  0  0  0  0  0  0  0  0  0  0
   -7.4497   23.0130  -28.9660 H   0  0  0  0  0  0  0  0  0  0  0  0
   -5.3965   24.3790  -28.5425 H   0  0  0  0  0  0  0  0  0  0  0  0
   -3.5380   25.5740  -29.5190 H   0  0  0  0  0  0  0  0  0  0  0  0
   -6.7184   23.3180  -33.2206 H   0  0  0  0  0  0  0  0  0  0  0  0
   -1.3232   17.7970  -34.5845 H   0  0  0  0  0  0  0  0  0  0  0  0
  1  2  1  0
  2  3  2  0
  2  4  2  0
  2  5  1  0
  5  6  2  0
  6  7  1  0
  7  8  2  0
  8  9  1  0
  9 10  2  0
 10 11  1  0
 11 12  2  0
 12 13  1  0
 13 14  2  0
 14 15  1  0
 15 16  1  0
 16 17  1  0
 17 18  1  0
 18 19  1  0
 19 20  1  0
 20 21  2  0
 20 22  2  0
 20 23  1  0
 23 24  1  0
 24 25  2  0
 25 26  1  0
 26 27  2  3
 26 28  1  0
 28 29  1  0
 18 30  1  0
 30 31  2  0
 14 32  1  0
 32 33  1  0
 32 34  2  0
 10  5  1  0
 34 11  1  0
 30 15  1  0
 29 23  2  0
  1 35  1  0
  1 36  1  0
  1 37  1  0
  6 38  1  0
  7 39  1  0
  8 40  1  0
  9 41  1  0
 12 42  1  0
 13 43  1  0
 16 44  1  0
 16 45  1  0
 17 46  1  0
 17 47  1  0
 18 48  1  1
 24 49  1  0
 25 50  1  0
 27 51  1  0
 29 52  1  0
 34 53  1  0
M  CHG  2  19  -1  28  -1
M  END
>  <UniqueID>  (18) 
17

>  <SMILES>  (18) 
CS(=O)(=O)c1ccccc1-c1ccc(N2CC[C@H]([N-]S(=O)(=O)c3ccc(=N)[n-]c3)C2=O)c(F)c1

>  <Energy>  (18) 
76.62744475114198

>  <Genealogy>  (18) 
CS(=O)(=O)c1ccccc1-c1ccc(N2CCC([N-]S(=O)(=O)c3ccc(=N)[n-]c3)C2=O)c(F)c1 (protonated)
CS(=O)(=O)c1ccccc1-c1ccc(N2CC[C@H]([N-]S(=O)(=O)c3ccc(=N)[n-]c3)C2=O)c(F)c1 (chirality)
CS(=O)(=O)c1ccccc1-c1ccc(N2CC[C@H]([N-]S(=O)(=O)c3ccc(=N)[n-]c3)C2=O)c(F)c1 (3D coordinates assigned)
CS(=O)(=O)c1ccccc1-c1ccc(N2CC[C@H]([N-]S(=O)(=O)c3ccc(=N)[n-]c3)C2=O)c(F)c1 (nonaromatic ring conformer: 76.62744475114198 kcal/mol)

>  <smiles>  (18) 
CS(=O)(=O)c1ccccc1-c1ccc(N2CCC(NS(=O)(=O)c3ccc(=N)[nH]c3)C2=O)c(F)c1

>  <score_type>  (18) 
oracle

>  <origin>  (18) 
adgpu

>  <m_score__min__energy>  (18) 
-11.68

>  <m_primary>  (18) 
energy

$$$$
18:0
     RDKit          3D

 34 36  0  0  0  0  0  0  0  0999 V2000
   -7.9240   23.3920  -31.3800 C   0  0  0  0  0  0  0  0  0  0  0  0
   -6.6720   22.6560  -31.7820 C   0  0  0  0  0  0  0  0  0  0  0  0
   -6.7990   21.4800  -32.5450 C   0  0  0  0  0  0  0  0  0  0  0  0
   -5.6670   20.7820  -32.9640 C   0  0  0  0  0  0  0  0  0  0  0  0
   -5.7860   19.6430  -33.6980 N   0  0  0  0  0  0  0  0  0  0  0  0
   -4.6910   18.9540  -34.1130 C   0  0  0  0  0  0  0  0  0  0  0  0
   -4.8340   17.9030  -34.7930 O   0  0  0  0  0  0  0  0  0  0  0  0
   -3.4130   19.4250  -33.7790 C   0  0  0  0  0  0  0  0  0  0  0  0
   -2.3810   18.8060  -34.1520 O   0  0  0  0  0  0  0  0  0  0  0  0
   -3.2910   20.5630  -33.0450 N   0  0  0  0  0  0  0  0  0  0  0  0
   -4.3850   21.2540  -32.6290 C   0  0  0  0  0  0  0  0  0  0  0  0
   -4.2450   22.4240  -31.8830 C   0  0  0  0  0  0  0  0  0  0  0  0
   -5.3780   23.1430  -31.4620 C   0  0  0  0  0  0  0  0  0  0  0  0
   -5.1430   24.6450  -30.5530 S   0  0  0  0  0  0  0  0  0  0  0  0
   -5.7010   25.7910  -31.3470 O   0  0  0  0  0  0  0  0  0  0  0  0
   -5.8560   24.5900  -29.2300 O   0  0  0  0  0  0  0  0  0  0  0  0
   -3.4540   24.9180  -30.2650 N   0  0  0  0  0  0  0  0  0  0  0  0
   -2.7210   24.4470  -29.1250 C   0  0  0  0  0  0  0  0  0  0  0  0
   -3.0810   23.2710  -28.4410 C   0  0  0  0  0  0  0  0  0  0  0  0
   -2.3370   22.8390  -27.3400 C   0  0  0  0  0  0  0  0  0  0  0  0
   -1.2310   23.5770  -26.9050 C   0  0  0  0  0  0  0  0  0  0  0  0
   -0.4640   23.1300  -25.7720 C   0  0  0  0  0  0  0  0  0  0  0  0
    0.1510   22.7680  -24.8600 N   0  0  0  0  0  0  0  0  0  0  0  0
   -0.8710   24.7520  -27.5780 C   0  0  0  0  0  0  0  0  0  0  0  0
   -1.6120   25.1830  -28.6850 C   0  0  0  0  0  0  0  0  0  0  0  0
   -1.2380   26.3480  -29.3450 O   0  0  0  0  0  0  0  0  0  0  0  0
   -7.9901   23.4309  -30.2827 H   0  0  0  0  0  0  0  0  0  0  0  0
   -7.8927   24.4155  -31.7819 H   0  0  0  0  0  0  0  0  0  0  0  0
   -8.8031   22.8669  -31.7819 H   0  0  0  0  0  0  0  0  0  0  0  0
   -7.7992   21.1087  -32.8128 H   0  0  0  0  0  0  0  0  0  0  0  0
   -3.2402   22.7874  -31.6218 H   0  0  0  0  0  0  0  0  0  0  0  0
   -3.9526   22.6889  -28.7748 H   0  0  0  0  0  0  0  0  0  0  0  0
   -2.6217   21.9160  -26.8138 H   0  0  0  0  0  0  0  0  0  0  0  0
   -0.0045   25.3370  -27.2360 H   0  0  0  0  0  0  0  0  0  0  0  0
  1  2  1  0
  2  3  2  0
  3  4  1  0
  4  5  1  0
  5  6  1  0
  6  7  2  0
  6  8  1  0
  8  9  2  0
  8 10  1  0
 10 11  1  0
 11 12  1  0
 12 13  2  0
 13 14  1  0
 14 15  2  0
 14 16  2  0
 14 17  1  0
 17 18  1  0
 18 19  2  0
 19 20  1  0
 20 21  2  0
 21 22  1  0
 22 23  3  0
 21 24  1  0
 24 25  2  0
 25 26  1  0
 13  2  1  0
 25 18  1  0
 11  4  2  0
  1 27  1  0
  1 28  1  0
  1 29  1  0
  3 30  1  0
 12 31  1  0
 19 32  1  0
 20 33  1  0
 24 34  1  0
M  CHG  4   5  -1  10  -1  17  -1  26  -1
M  END
>  <UniqueID>  (19) 
18

>  <SMILES>  (19) 
Cc1cc2[n-]c(=O)c(=O)[n-]c2cc1S(=O)(=O)[N-]c1ccc(C#N)cc1[O-]

>  <Energy>  (19) 
45.30739934082579

>  <Genealogy>  (19) 
Cc1cc2[n-]c(=O)c(=O)[n-]c2cc1S(=O)(=O)[N-]c1ccc(C#N)cc1[O-] (protonated)
Cc1cc2[n-]c(=O)c(=O)[n-]c2cc1S(=O)(=O)[N-]c1ccc(C#N)cc1[O-] (3D coordinates assigned)
Cc1cc2[n-]c(=O)c(=O)[n-]c2cc1S(=O)(=O)[N-]c1ccc(C#N)cc1[O-] (optimized conformer: 45.30739934082579 kcal/mol)

>  <smiles>  (19) 
Cc1cc2[nH]c(=O)c(=O)[nH]c2cc1S(=O)(=O)Nc1ccc(C#N)cc1O

>  <score_type>  (19) 
oracle

>  <origin>  (19) 
adgpu

>  <m_score__min__energy>  (19) 
-13.16

>  <m_primary>  (19) 
energy

$$$$
19:0
     RDKit          3D

 49 51  0  0  0  0  0  0  0  0999 V2000
   -6.1120   25.5670  -29.7240 C   0  0  0  0  0  0  0  0  0  0  0  0
   -5.0830   25.0070  -30.6570 C   0  0  0  0  0  0  0  0  0  0  0  0
   -5.4600   24.4990  -31.7460 O   0  0  0  0  0  0  0  0  0  0  0  0
   -3.6860   24.9960  -30.3340 N   0  0  0  0  0  0  0  0  0  0  0  0
   -2.9260   23.8700  -29.8730 C   0  0  0  0  0  0  0  0  0  0  0  0
   -2.6640   23.6680  -28.5120 C   0  0  0  0  0  0  0  0  0  0  0  0
   -1.8980   22.5780  -28.0970 C   0  0  0  0  0  0  0  0  0  0  0  0
   -1.3610   21.6790  -29.0350 C   0  0  0  0  0  0  0  0  0  0  0  0
   -0.5580   20.5050  -28.5400 C   0  0  0  0  0  0  0  0  0  0  0  0
   -1.6110   21.8870  -30.4130 C   0  0  0  0  0  0  0  0  0  0  0  0
   -0.9680   20.7940  -31.6510 S   0  0  0  0  0  0  0  0  0  0  0  0
    0.3880   20.3060  -31.2310 O   0  0  0  0  0  0  0  0  0  0  0  0
   -0.8770   21.5470  -32.9490 O   0  0  0  0  0  0  0  0  0  0  0  0
   -2.0310   19.4380  -31.8480 N   0  0  0  0  0  0  0  0  0  0  0  0
   -3.3440   19.4760  -32.4170 C   0  0  0  0  0  0  0  0  0  0  0  0
   -3.8500   18.8530  -33.5570 C   0  0  0  0  0  0  0  0  0  0  0  0
   -3.1220   17.8970  -34.4600 C   0  0  0  0  0  0  0  0  0  0  0  0
   -5.1670   19.1730  -33.6650 N   0  0  0  0  0  0  0  0  0  0  0  0
   -6.0920   18.6520  -34.6770 C   0  0  0  0  0  0  0  0  0  0  0  0
   -5.5050   19.9560  -32.6420 N   0  0  0  0  0  0  0  0  0  0  0  0
   -6.7990   20.5380  -32.4080 C   0  0  0  0  0  0  0  0  0  0  0  0
   -7.9340   19.7180  -32.3120 C   0  0  0  0  0  0  0  0  0  0  0  0
   -9.1890   20.2830  -32.0670 C   0  0  0  0  0  0  0  0  0  0  0  0
   -9.3160   21.6660  -31.9060 C   0  0  0  0  0  0  0  0  0  0  0  0
   -8.1860   22.4860  -31.9890 C   0  0  0  0  0  0  0  0  0  0  0  0
   -6.9300   21.9240  -32.2360 C   0  0  0  0  0  0  0  0  0  0  0  0
   -4.4170   20.1380  -31.8700 C   0  0  0  0  0  0  0  0  0  0  0  0
   -4.3940   20.8330  -30.8190 O   0  0  0  0  0  0  0  0  0  0  0  0
   -2.3770   22.9950  -30.8160 C   0  0  0  0  0  0  0  0  0  0  0  0
   -5.7964   25.3953  -28.6843 H   0  0  0  0  0  0  0  0  0  0  0  0
   -6.2184   26.6474  -29.9012 H   0  0  0  0  0  0  0  0  0  0  0  0
   -7.0770   25.0696  -29.9012 H   0  0  0  0  0  0  0  0  0  0  0  0
   -3.0638   24.3717  -27.7670 H   0  0  0  0  0  0  0  0  0  0  0  0
   -1.7123   22.4204  -27.0243 H   0  0  0  0  0  0  0  0  0  0  0  0
   -0.5549   20.5005  -27.4400 H   0  0  0  0  0  0  0  0  0  0  0  0
   -1.0076   19.5714  -28.9092 H   0  0  0  0  0  0  0  0  0  0  0  0
    0.4750   20.5855  -28.9092 H   0  0  0  0  0  0  0  0  0  0  0  0
   -2.5670   17.1681  -33.8512 H   0  0  0  0  0  0  0  0  0  0  0  0
   -3.8477   17.3675  -35.0948 H   0  0  0  0  0  0  0  0  0  0  0  0
   -2.4186   18.4558  -35.0948 H   0  0  0  0  0  0  0  0  0  0  0  0
   -6.9467   18.1706  -34.1793 H   0  0  0  0  0  0  0  0  0  0  0  0
   -6.4523   19.4799  -35.3053 H   0  0  0  0  0  0  0  0  0  0  0  0
   -5.5707   17.9148  -35.3053 H   0  0  0  0  0  0  0  0  0  0  0  0
   -7.8359   18.6287  -32.4298 H   0  0  0  0  0  0  0  0  0  0  0  0
  -10.0779   19.6385  -32.0008 H   0  0  0  0  0  0  0  0  0  0  0  0
  -10.3044   22.1091  -31.7141 H   0  0  0  0  0  0  0  0  0  0  0  0
   -8.2856   23.5738  -31.8598 H   0  0  0  0  0  0  0  0  0  0  0  0
   -6.0420   22.5704  -32.2956 H   0  0  0  0  0  0  0  0  0  0  0  0
   -2.5468   23.1762  -31.8876 H   0  0  0  0  0  0  0  0  0  0  0  0
  1  2  1  0
  2  3  2  0
  2  4  1  0
  4  5  1  0
  5  6  2  0
  6  7  1  0
  7  8  2  0
  8  9  1  0
  8 10  1  0
 10 11  1  0
 11 12  2  0
 11 13  2  0
 11 14  1  0
 14 15  1  0
 15 16  2  0
 16 17  1  0
 16 18  1  0
 18 19  1  0
 18 20  1  0
 20 21  1  0
 21 22  2  0
 22 23  1  0
 23 24  2  0
 24 25  1  0
 25 26  2  0
 20 27  1  0
 27 28  2  0
 10 29  2  0
 29  5  1  0
 27 15  1  0
 26 21  1  0
  1 30  1  0
  1 31  1  0
  1 32  1  0
  6 33  1  0
  7 34  1  0
  9 35  1  0
  9 36  1  0
  9 37  1  0
 17 38  1  0
 17 39  1  0
 17 40  1  0
 19 41  1  0
 19 42  1  0
 19 43  1  0
 22 44  1  0
 23 45  1  0
 24 46  1  0
 25 47  1  0
 26 48  1  0
 29 49  1  0
M  CHG  2   4  -1  14  -1
M  END
>  <UniqueID>  (20) 
19

>  <SMILES>  (20) 
CC(=O)[N-]c1ccc(C)c(S(=O)(=O)[N-]c2c(C)n(C)n(-c3ccccc3)c2=O)c1

>  <Energy>  (20) 
105.06647013216792

>  <Genealogy>  (20) 
CC(=O)[N-]c1ccc(C)c(S(=O)(=O)[N-]c2c(C)n(C)n(-c3ccccc3)c2=O)c1 (protonated)
CC(=O)[N-]c1ccc(C)c(S(=O)(=O)[N-]c2c(C)n(C)n(-c3ccccc3)c2=O)c1 (3D coordinates assigned)
CC(=O)[N-]c1ccc(C)c(S(=O)(=O)[N-]c2c(C)n(C)n(-c3ccccc3)c2=O)c1 (optimized conformer: 105.06647013216792 kcal/mol)

>  <smiles>  (20) 
CC(=O)Nc1ccc(C)c(S(=O)(=O)Nc2c(C)n(C)n(-c3ccccc3)c2=O)c1

>  <score_type>  (20) 
oracle

>  <origin>  (20) 
adgpu

>  <m_score__min__energy>  (20) 
-11.06

>  <m_primary>  (20) 
energy

$$$$
20:0
     RDKit          3D

 47 49  0  0  0  0  0  0  0  0999 V2000
   -5.1440   17.8680  -33.2700 C   0  0  0  0  0  0  0  0  0  0  0  0
   -6.3090   18.5530  -32.6200 C   0  0  0  0  0  0  0  0  0  0  0  0
   -7.4530   17.8210  -32.2710 C   0  0  0  0  0  0  0  0  0  0  0  0
   -8.5250   18.4530  -31.6360 C   0  0  0  0  0  0  0  0  0  0  0  0
   -8.4590   19.8140  -31.3340 C   0  0  0  0  0  0  0  0  0  0  0  0
   -7.3120   20.5610  -31.6600 C   0  0  0  0  0  0  0  0  0  0  0  0
   -7.2420   21.9650  -31.3420 N   0  0  0  0  0  0  0  0  0  0  0  0
   -7.2110   22.3790  -29.9340 C   0  0  0  0  0  0  0  0  0  0  0  0
   -7.0560   23.9000  -29.8110 C   0  0  0  0  0  0  0  0  0  0  0  0
   -6.1150   24.4410  -30.8080 N   0  0  0  0  0  0  0  0  0  0  0  0
   -4.4640   23.8960  -30.5670 S   0  0  0  0  0  0  0  0  0  0  0  0
   -3.5710   25.1050  -30.5470 O   0  0  0  0  0  0  0  0  0  0  0  0
   -4.0450   23.0220  -31.7160 O   0  0  0  0  0  0  0  0  0  0  0  0
   -4.2410   23.0470  -28.9950 C   0  0  0  0  0  0  0  0  0  0  0  0
   -3.5280   23.8970  -27.9640 C   0  0  0  0  0  0  0  0  0  0  0  0
   -4.3040   24.5710  -27.0000 C   0  0  0  0  0  0  0  0  0  0  0  0
   -3.6990   25.2910  -25.9700 C   0  0  0  0  0  0  0  0  0  0  0  0
   -2.3110   25.3610  -25.8870 C   0  0  0  0  0  0  0  0  0  0  0  0
   -1.5220   24.7280  -26.8470 C   0  0  0  0  0  0  0  0  0  0  0  0
   -2.1100   24.0110  -27.9060 C   0  0  0  0  0  0  0  0  0  0  0  0
   -1.2530   23.4090  -28.8930 N   0  0  0  0  0  0  0  0  0  0  0  0
   -0.5360   24.1280  -29.6170 O   0  0  0  0  0  0  0  0  0  0  0  0
   -1.3590   22.0700  -29.1900 O   0  0  0  0  0  0  0  0  0  0  0  0
   -6.5600   24.2050  -32.2010 C   0  0  0  0  0  0  0  0  0  0  0  0
   -7.4740   22.9730  -32.3830 C   0  0  0  0  0  0  0  0  0  0  0  0
   -6.2370   19.9170  -32.2990 C   0  0  0  0  0  0  0  0  0  0  0  0
   -4.4717   17.4727  -32.4943 H   0  0  0  0  0  0  0  0  0  0  0  0
   -5.5081   17.0402  -33.8962 H   0  0  0  0  0  0  0  0  0  0  0  0
   -4.5977   18.5887  -33.8962 H   0  0  0  0  0  0  0  0  0  0  0  0
   -7.5065   16.7460  -32.4979 H   0  0  0  0  0  0  0  0  0  0  0  0
   -9.4239   17.8761  -31.3732 H   0  0  0  0  0  0  0  0  0  0  0  0
   -9.3089   20.3057  -30.8381 H   0  0  0  0  0  0  0  0  0  0  0  0
   -8.1493   22.0727  -29.4484 H   0  0  0  0  0  0  0  0  0  0  0  0
   -6.3498   21.8987  -29.4466 H   0  0  0  0  0  0  0  0  0  0  0  0
   -8.0393   24.3704  -29.9587 H   0  0  0  0  0  0  0  0  0  0  0  0
   -6.6557   24.1212  -28.8106 H   0  0  0  0  0  0  0  0  0  0  0  0
   -5.2305   22.7725  -28.6005 H   0  0  0  0  0  0  0  0  0  0  0  0
   -3.6162   22.1614  -29.1830 H   0  0  0  0  0  0  0  0  0  0  0  0
   -5.4015   24.5287  -27.0606 H   0  0  0  0  0  0  0  0  0  0  0  0
   -4.3200   25.8048  -25.2214 H   0  0  0  0  0  0  0  0  0  0  0  0
   -1.8366   25.9157  -25.0640 H   0  0  0  0  0  0  0  0  0  0  0  0
   -0.4261   24.7898  -26.7757 H   0  0  0  0  0  0  0  0  0  0  0  0
   -7.1110   25.0944  -32.5407 H   0  0  0  0  0  0  0  0  0  0  0  0
   -5.6518   24.0097  -32.7900 H   0  0  0  0  0  0  0  0  0  0  0  0
   -8.5238   23.2982  -32.3363 H   0  0  0  0  0  0  0  0  0  0  0  0
   -7.2447   22.5176  -33.3577 H   0  0  0  0  0  0  0  0  0  0  0  0
   -5.3310   20.4883  -32.5495 H   0  0  0  0  0  0  0  0  0  0  0  0
  1  2  1  0
  2  3  2  0
  3  4  1  0
  4  5  2  0
  5  6  1  0
  6  7  1  0
  7  8  1  0
  8  9  1  0
  9 10  1  0
 10 11  1  0
 11 12  2  0
 11 13  2  0
 11 14  1  0
 14 15  1  0
 15 16  2  0
 16 17  1  0
 17 18  2  0
 18 19  1  0
 19 20  2  0
 20 21  1  0
 21 22  2  0
 21 23  1  0
 10 24  1  0
 24 25  1  0
  6 26  2  0
 26  2  1  0
 25  7  1  0
 20 15  1  0
  1 27  1  0
  1 28  1  0
  1 29  1  0
  3 30  1  0
  4 31  1  0
  5 32  1  0
  8 33  1  0
  8 34  1  0
  9 35  1  0
  9 36  1  0
 14 37  1  0
 14 38  1  0
 16 39  1  0
 17 40  1  0
 18 41  1  0
 19 42  1  0
 24 43  1  0
 24 44  1  0
 25 45  1  0
 25 46  1  0
 26 47  1  0
M  CHG  2  21   1  23  -1
M  END
>  <UniqueID>  (21) 
20

>  <SMILES>  (21) 
Cc1cccc(N2CCN(S(=O)(=O)Cc3ccccc3[N+](=O)[O-])CC2)c1

>  <Energy>  (21) 
60.66400521027497

>  <Genealogy>  (21) 
Cc1cccc(N2CCN(S(=O)(=O)Cc3ccccc3[N+](=O)[O-])CC2)c1 (3D coordinates assigned)
Cc1cccc(N2CCN(S(=O)(=O)Cc3ccccc3[N+](=O)[O-])CC2)c1 (nonaromatic ring conformer: 60.66400521027497 kcal/mol)

>  <smiles>  (21) 
Cc1cccc(N2CCN(S(=O)(=O)Cc3ccccc3[N+](=O)[O-])CC2)c1

>  <score_type>  (21) 
oracle

>  <origin>  (21) 
adgpu

>  <m_score__min__energy>  (21) 
-9.9900000000000002

>  <m_primary>  (21) 
energy

$$$$
21:0
     RDKit          3D

 63 67  0  0  0  0  0  0  0  0999 V2000
   -1.4880   25.8660  -25.2590 C   0  0  0  0  0  0  0  0  0  0  0  0
   -2.7630   25.5610  -25.8150 O   0  0  0  0  0  0  0  0  0  0  0  0
   -2.9590   24.8150  -26.9860 C   0  0  0  0  0  0  0  0  0  0  0  0
   -2.0090   24.9200  -28.0080 C   0  0  0  0  0  0  0  0  0  0  0  0
   -2.1630   24.2040  -29.1980 C   0  0  0  0  0  0  0  0  0  0  0  0
   -3.2900   23.3850  -29.3890 C   0  0  0  0  0  0  0  0  0  0  0  0
   -3.4980   22.6430  -30.5990 N   0  0  0  0  0  0  0  0  0  0  0  0
   -2.4870   22.1860  -31.5060 C   0  0  0  0  0  0  0  0  0  0  0  0
   -1.2680   22.2530  -31.1920 O   0  0  0  0  0  0  0  0  0  0  0  0
   -2.8830   21.6620  -32.7790 N   0  0  0  0  0  0  0  0  0  0  0  0
   -3.7000   20.5020  -33.0070 C   0  0  0  0  0  0  0  0  0  0  0  0
   -5.0750   20.4970  -32.6650 C   0  0  0  0  0  0  0  0  0  0  0  0
   -5.8090   19.3480  -32.9410 C   0  0  0  0  0  0  0  0  0  0  0  0
   -7.1290   19.0080  -32.7570 C   0  0  0  0  0  0  0  0  0  0  0  0
   -8.3920   20.0070  -32.0600 S   0  0  0  0  0  0  0  0  0  0  0  0
   -8.9650   19.3140  -30.8540 O   0  0  0  0  0  0  0  0  0  0  0  0
   -9.4980   20.1980  -33.0630 O   0  0  0  0  0  0  0  0  0  0  0  0
   -7.7140   21.5620  -31.5880 C   0  0  0  0  0  0  0  0  0  0  0  0
   -7.6310   21.9180  -30.2340 C   0  0  0  0  0  0  0  0  0  0  0  0
   -7.0910   23.1550  -29.8680 C   0  0  0  0  0  0  0  0  0  0  0  0
   -6.6340   24.0430  -30.8520 C   0  0  0  0  0  0  0  0  0  0  0  0
   -6.0710   25.3120  -30.4700 C   0  0  0  0  0  0  0  0  0  0  0  0
   -5.6170   26.3330  -30.1600 N   0  0  0  0  0  0  0  0  0  0  0  0
   -6.7270   23.6920  -32.2050 C   0  0  0  0  0  0  0  0  0  0  0  0
   -7.2680   22.4560  -32.5710 C   0  0  0  0  0  0  0  0  0  0  0  0
   -7.3130   17.7400  -33.1930 N   0  0  0  0  0  0  0  0  0  0  0  0
   -6.1590   17.3090  -33.6330 O   0  0  0  0  0  0  0  0  0  0  0  0
   -5.2460   18.2400  -33.4970 C   0  0  0  0  0  0  0  0  0  0  0  0
   -3.8980   18.1870  -33.8240 C   0  0  0  0  0  0  0  0  0  0  0  0
   -3.1040   19.3300  -33.5650 C   0  0  0  0  0  0  0  0  0  0  0  0
   -1.6970   19.2960  -33.8700 N   0  0  0  0  0  0  0  0  0  0  0  0
   -1.0680   20.3950  -34.6070 C   0  0  0  0  0  0  0  0  0  0  0  0
    0.2510   20.7630  -33.9190 C   0  0  0  0  0  0  0  0  0  0  0  0
    1.1690   19.6020  -33.7440 N   0  0  0  0  0  0  0  0  0  0  0  0
    1.8500   19.6550  -32.4380 C   0  0  0  0  0  0  0  0  0  0  0  0
    0.5510   18.2740  -33.9760 C   0  0  0  0  0  0  0  0  0  0  0  0
   -0.8730   18.1770  -33.4060 C   0  0  0  0  0  0  0  0  0  0  0  0
   -4.2260   23.2570  -28.3560 C   0  0  0  0  0  0  0  0  0  0  0  0
   -4.0700   23.9690  -27.1640 C   0  0  0  0  0  0  0  0  0  0  0  0
   -1.5535   25.8503  -24.1611 H   0  0  0  0  0  0  0  0  0  0  0  0
   -0.7538   25.1181  -25.5932 H   0  0  0  0  0  0  0  0  0  0  0  0
   -1.1717   26.8651  -25.5932 H   0  0  0  0  0  0  0  0  0  0  0  0
   -1.1333   25.5719  -27.8734 H   0  0  0  0  0  0  0  0  0  0  0  0
   -1.4008   24.2812  -29.9873 H   0  0  0  0  0  0  0  0  0  0  0  0
   -5.5468   21.3733  -32.1964 H   0  0  0  0  0  0  0  0  0  0  0  0
   -7.9907   21.2242  -29.4599 H   0  0  0  0  0  0  0  0  0  0  0  0
   -7.0246   23.4320  -28.8055 H   0  0  0  0  0  0  0  0  0  0  0  0
   -6.3743   24.3890  -32.9795 H   0  0  0  0  0  0  0  0  0  0  0  0
   -7.3439   22.1841  -33.6342 H   0  0  0  0  0  0  0  0  0  0  0  0
   -3.4594   17.2829  -34.2715 H   0  0  0  0  0  0  0  0  0  0  0  0
   -0.8692   20.0795  -35.6419 H   0  0  0  0  0  0  0  0  0  0  0  0
   -1.7381   21.2673  -34.6192 H   0  0  0  0  0  0  0  0  0  0  0  0
    0.7620   21.5234  -34.5278 H   0  0  0  0  0  0  0  0  0  0  0  0
    0.0015   21.1352  -32.9144 H   0  0  0  0  0  0  0  0  0  0  0  0
    1.1032   19.5969  -31.6324 H   0  0  0  0  0  0  0  0  0  0  0  0
    2.5472   18.8084  -32.3534 H   0  0  0  0  0  0  0  0  0  0  0  0
    2.4078   20.5993  -32.3534 H   0  0  0  0  0  0  0  0  0  0  0  0
    0.5101   18.0889  -35.0595 H   0  0  0  0  0  0  0  0  0  0  0  0
    1.1684   17.5244  -33.4594 H   0  0  0  0  0  0  0  0  0  0  0  0
   -1.3297   17.2321  -33.7355 H   0  0  0  0  0  0  0  0  0  0  0  0
   -0.8162   18.2127  -32.3080 H   0  0  0  0  0  0  0  0  0  0  0  0
   -5.0916   22.5903  -28.4838 H   0  0  0  0  0  0  0  0  0  0  0  0
   -4.8170   23.8683  -26.3628 H   0  0  0  0  0  0  0  0  0  0  0  0
  1  2  1  0
  2  3  1  0
  3  4  2  0
  4  5  1  0
  5  6  2  0
  6  7  1  0
  7  8  1  0
  8  9  2  0
  8 10  1  0
 10 11  1  0
 11 12  2  0
 12 13  1  0
 13 14  1  0
 14 15  1  0
 15 16  2  0
 15 17  2  0
 15 18  1  0
 18 19  2  0
 19 20  1  0
 20 21  2  0
 21 22  1  0
 22 23  3  0
 21 24  1  0
 24 25  2  0
 14 26  2  0
 26 27  1  0
 27 28  1  0
 28 29  1  0
 29 30  2  0
 30 31  1  0
 31 32  1  0
 32 33  1  0
 33 34  1  0
 34 35  1  0
 34 36  1  0
 36 37  1  0
  6 38  1  0
 38 39  2  0
 39  3  1  0
 30 11  1  0
 37 31  1  0
 28 13  2  0
 25 18  1  0
  1 40  1  0
  1 41  1  0
  1 42  1  0
  4 43  1  0
  5 44  1  0
 12 45  1  0
 19 46  1  0
 20 47  1  0
 24 48  1  0
 25 49  1  0
 29 50  1  0
 32 51  1  0
 32 52  1  0
 33 53  1  0
 33 54  1  0
 35 55  1  0
 35 56  1  0
 35 57  1  0
 36 58  1  0
 36 59  1  0
 37 60  1  0
 37 61  1  0
 38 62  1  0
 39 63  1  0
M  CHG  2   7  -1  10  -1
M  END
>  <UniqueID>  (22) 
21

>  <SMILES>  (22) 
COc1ccc([N-]C(=O)[N-]c2cc3c(S(=O)(=O)c4ccc(C#N)cc4)noc3cc2N2CCN(C)CC2)cc1

>  <Energy>  (22) 
126.62143390884545

>  <Genealogy>  (22) 
COc1ccc([N-]C(=O)[N-]c2cc3c(S(=O)(=O)c4ccc(C#N)cc4)noc3cc2N2CCN(C)CC2)cc1 (protonated)
COc1ccc([N-]C(=O)[N-]c2cc3c(S(=O)(=O)c4ccc(C#N)cc4)noc3cc2N2CCN(C)CC2)cc1 (3D coordinates assigned)
COc1ccc([N-]C(=O)[N-]c2cc3c(S(=O)(=O)c4ccc(C#N)cc4)noc3cc2N2CCN(C)CC2)cc1 (nonaromatic ring conformer: 126.62143390884545 kcal/mol)

>  <smiles>  (22) 
COc1ccc(NC(=O)Nc2cc3c(S(=O)(=O)c4ccc(C#N)cc4)noc3cc2N2CCN(C)CC2)cc1

>  <score_type>  (22) 
oracle

>  <origin>  (22) 
adgpu

>  <m_score__min__energy>  (22) 
-12.199999999999999

>  <m_primary>  (22) 
energy

$$$$
22:0
     RDKit          3D

 57 60  0  0  0  0  0  0  0  0999 V2000
   -4.3140   25.2990  -30.7050 O   0  0  0  0  0  0  0  0  0  0  0  0
   -4.2290   24.0500  -30.8360 C   0  0  0  0  0  0  0  0  0  0  0  0
   -4.8750   23.4110  -31.9440 N   0  0  0  0  0  0  0  0  0  0  0  0
   -6.1230   22.7210  -31.8100 C   0  0  0  0  0  0  0  0  0  0  0  0
   -7.3310   23.4340  -31.7300 C   0  0  0  0  0  0  0  0  0  0  0  0
   -8.5470   22.7510  -31.6760 C   0  0  0  0  0  0  0  0  0  0  0  0
   -8.5680   21.3550  -31.7240 C   0  0  0  0  0  0  0  0  0  0  0  0
   -7.3680   20.6350  -31.8090 C   0  0  0  0  0  0  0  0  0  0  0  0
   -7.3880   18.8870  -32.0210 S   0  0  0  0  0  0  0  0  0  0  0  0
   -6.5940   18.2550  -30.9120 O   0  0  0  0  0  0  0  0  0  0  0  0
   -8.8010   18.3750  -31.9540 O   0  0  0  0  0  0  0  0  0  0  0  0
   -6.6790   18.4880  -33.5670 N   0  0  0  0  0  0  0  0  0  0  0  0
   -5.2700   18.9320  -33.6020 C   0  0  0  0  0  0  0  0  0  0  0  0
   -4.4900   18.1790  -34.6930 C   0  0  0  0  0  0  0  0  0  0  0  0
   -4.4720   16.7650  -34.5290 O   0  0  0  0  0  0  0  0  0  0  0  0
   -5.5170   16.2690  -33.7050 C   0  0  0  0  0  0  0  0  0  0  0  0
   -6.8360   17.0430  -33.8740 C   0  0  0  0  0  0  0  0  0  0  0  0
   -6.1460   21.3210  -31.8260 C   0  0  0  0  0  0  0  0  0  0  0  0
   -3.4840   23.2530  -29.8410 C   0  0  0  0  0  0  0  0  0  0  0  0
   -2.3980   22.4620  -30.2490 C   0  0  0  0  0  0  0  0  0  0  0  0
   -1.6140   21.7980  -29.3050 C   0  0  0  0  0  0  0  0  0  0  0  0
   -1.8930   21.9320  -27.9400 C   0  0  0  0  0  0  0  0  0  0  0  0
   -0.7970   21.2350  -26.7470 S   0  0  0  0  0  0  0  0  0  0  0  0
   -0.0300   20.1080  -27.3830 O   0  0  0  0  0  0  0  0  0  0  0  0
   -1.5970   20.6670  -25.6080 O   0  0  0  0  0  0  0  0  0  0  0  0
    0.3220   22.4290  -26.1220 N   0  0  0  0  0  0  0  0  0  0  0  0
    0.5420   23.5180  -27.0820 C   0  0  0  0  0  0  0  0  0  0  0  0
   -0.3070   24.7120  -26.6670 C   0  0  0  0  0  0  0  0  0  0  0  0
   -0.8560   24.3760  -25.2960 C   0  0  0  0  0  0  0  0  0  0  0  0
   -0.2050   23.0580  -24.9060 C   0  0  0  0  0  0  0  0  0  0  0  0
   -3.0070   22.6800  -27.5310 C   0  0  0  0  0  0  0  0  0  0  0  0
   -3.8060   23.3290  -28.4780 C   0  0  0  0  0  0  0  0  0  0  0  0
   -7.3184   24.5337  -31.7099 H   0  0  0  0  0  0  0  0  0  0  0  0
   -9.4895   23.3124  -31.5956 H   0  0  0  0  0  0  0  0  0  0  0  0
   -9.5284   20.8194  -31.6950 H   0  0  0  0  0  0  0  0  0  0  0  0
   -7.2080   19.0320  -34.2900 H   0  0  0  0  0  0  0  0  0  0  0  0
   -5.2365   20.0109  -33.8136 H   0  0  0  0  0  0  0  0  0  0  0  0
   -4.8079   18.7200  -32.6265 H   0  0  0  0  0  0  0  0  0  0  0  0
   -4.9503   18.4073  -35.6656 H   0  0  0  0  0  0  0  0  0  0  0  0
   -3.4457   18.5177  -34.6248 H   0  0  0  0  0  0  0  0  0  0  0  0
   -5.6945   15.2141  -33.9613 H   0  0  0  0  0  0  0  0  0  0  0  0
   -5.1967   16.3899  -32.6596 H   0  0  0  0  0  0  0  0  0  0  0  0
   -7.1791   16.9365  -34.9137 H   0  0  0  0  0  0  0  0  0  0  0  0
   -7.5676   16.6240  -33.1675 H   0  0  0  0  0  0  0  0  0  0  0  0
   -5.2016   20.7576  -31.8520 H   0  0  0  0  0  0  0  0  0  0  0  0
   -2.1639   22.3652  -31.3194 H   0  0  0  0  0  0  0  0  0  0  0  0
   -0.7747   21.1678  -29.6343 H   0  0  0  0  0  0  0  0  0  0  0  0
    1.6048   23.8017  -27.0831 H   0  0  0  0  0  0  0  0  0  0  0  0
    0.2593   23.1898  -28.0931 H   0  0  0  0  0  0  0  0  0  0  0  0
    0.3096   25.6217  -26.6196 H   0  0  0  0  0  0  0  0  0  0  0  0
   -1.1145   24.9033  -27.3891 H   0  0  0  0  0  0  0  0  0  0  0  0
   -0.5928   25.1627  -24.5737 H   0  0  0  0  0  0  0  0  0  0  0  0
   -1.9534   24.3009  -25.3044 H   0  0  0  0  0  0  0  0  0  0  0  0
    0.6155   23.2434  -24.1972 H   0  0  0  0  0  0  0  0  0  0  0  0
   -0.9422   22.3977  -24.4259 H   0  0  0  0  0  0  0  0  0  0  0  0
   -3.2531   22.7564  -26.4616 H   0  0  0  0  0  0  0  0  0  0  0  0
   -4.6884   23.8999  -28.1533 H   0  0  0  0  0  0  0  0  0  0  0  0
  1  2  2  0
  2  3  1  0
  3  4  1  0
  4  5  2  0
  5  6  1  0
  6  7  2  0
  7  8  1  0
  8  9  1  0
  9 10  2  0
  9 11  2  0
  9 12  1  0
 12 13  1  0
 13 14  1  0
 14 15  1  0
 15 16  1  0
 16 17  1  0
  8 18  2  0
  2 19  1  0
 19 20  2  0
 20 21  1  0
 21 22  2  0
 22 23  1  0
 23 24  2  0
 23 25  2  0
 23 26  1  0
 26 27  1  0
 27 28  1  0
 28 29  1  0
 29 30  1  0
 22 31  1  0
 31 32  2  0
 18  4  1  0
 32 19  1  0
 17 12  1  0
 30 26  1  0
  5 33  1  0
  6 34  1  0
  7 35  1  0
 12 36  1  0
 13 37  1  0
 13 38  1  0
 14 39  1  0
 14 40  1  0
 16 41  1  0
 16 42  1  0
 17 43  1  0
 17 44  1  0
 18 45  1  0
 20 46  1  0
 21 47  1  0
 27 48  1  0
 27 49  1  0
 28 50  1  0
 28 51  1  0
 29 52  1  0
 29 53  1  0
 30 54  1  0
 30 55  1  0
 31 56  1  0
 32 57  1  0
M  CHG  2   3  -1  12   1
M  END
>  <UniqueID>  (23) 
22

>  <SMILES>  (23) 
O=C([N-]c1cccc(S(=O)(=O)[NH+]2CCOCC2)c1)c1ccc(S(=O)(=O)N2CCCC2)cc1

>  <Energy>  (23) 
76.51683546449733

>  <Genealogy>  (23) 
O=C([N-]c1cccc(S(=O)(=O)[NH+]2CCOCC2)c1)c1ccc(S(=O)(=O)N2CCCC2)cc1 (protonated)
O=C([N-]c1cccc(S(=O)(=O)[NH+]2CCOCC2)c1)c1ccc(S(=O)(=O)N2CCCC2)cc1 (3D coordinates assigned)
O=C([N-]c1cccc(S(=O)(=O)[NH+]2CCOCC2)c1)c1ccc(S(=O)(=O)N2CCCC2)cc1 (nonaromatic ring conformer: 76.51683546449733 kcal/mol)

>  <smiles>  (23) 
O=C(Nc1cccc(S(=O)(=O)N2CCOCC2)c1)c1ccc(S(=O)(=O)N2CCCC2)cc1

>  <score_type>  (23) 
oracle

>  <origin>  (23) 
adgpu

>  <m_score__min__energy>  (23) 
-12.470000000000001

>  <m_primary>  (23) 
energy

$$$$
23:0
     RDKit          3D

 55 57  0  0  0  0  0  0  0  0999 V2000
    1.4830   24.9850  -27.3130 C   0  0  0  0  0  0  0  0  0  0  0  0
    0.7560   24.2110  -28.2600 O   0  0  0  0  0  0  0  0  0  0  0  0
    0.0070   23.0650  -27.9460 C   0  0  0  0  0  0  0  0  0  0  0  0
    0.6110   21.8030  -27.7780 C   0  0  0  0  0  0  0  0  0  0  0  0
   -0.1660   20.6810  -27.4850 C   0  0  0  0  0  0  0  0  0  0  0  0
   -1.5510   20.8020  -27.3530 C   0  0  0  0  0  0  0  0  0  0  0  0
   -2.5260   19.3870  -27.0090 Cl  0  0  0  0  0  0  0  0  0  0  0  0
   -2.1600   22.0490  -27.5100 C   0  0  0  0  0  0  0  0  0  0  0  0
   -1.3890   23.1830  -27.8080 C   0  0  0  0  0  0  0  0  0  0  0  0
   -2.1800   24.7410  -28.0610 S   0  0  0  0  0  0  0  0  0  0  0  0
   -2.3390   25.4720  -26.7580 O   0  0  0  0  0  0  0  0  0  0  0  0
   -1.3130   25.5660  -28.9690 O   0  0  0  0  0  0  0  0  0  0  0  0
   -3.7350   24.5320  -28.8040 N   0  0  0  0  0  0  0  0  0  0  0  0
   -3.9700   24.4020  -30.2120 C   0  0  0  0  0  0  0  0  0  0  0  0
   -4.2410   25.4310  -30.8830 O   0  0  0  0  0  0  0  0  0  0  0  0
   -3.8660   23.1040  -30.9020 C   0  0  0  0  0  0  0  0  0  0  0  0
   -2.6180   22.4600  -30.9250 C   0  0  0  0  0  0  0  0  0  0  0  0
   -2.4810   21.2040  -31.5150 C   0  0  0  0  0  0  0  0  0  0  0  0
   -3.5840   20.5850  -32.1020 C   0  0  0  0  0  0  0  0  0  0  0  0
   -4.8220   21.2290  -32.1220 C   0  0  0  0  0  0  0  0  0  0  0  0
   -4.9780   22.5000  -31.5390 C   0  0  0  0  0  0  0  0  0  0  0  0
   -6.2980   23.2260  -31.7010 C   0  0  0  0  0  0  0  0  0  0  0  0
   -7.4410   22.5060  -30.9700 C   0  0  0  0  0  0  0  0  0  0  0  0
   -8.7840   22.6330  -31.7010 C   0  0  0  0  0  0  0  0  0  0  0  0
   -9.1200   21.4030  -32.3410 O   0  0  0  0  0  0  0  0  0  0  0  0
   -8.3230   20.2450  -32.3380 C   0  0  0  0  0  0  0  0  0  0  0  0
   -8.3870   19.2790  -31.3140 C   0  0  0  0  0  0  0  0  0  0  0  0
   -7.5750   18.1450  -31.3650 C   0  0  0  0  0  0  0  0  0  0  0  0
   -6.6920   17.9530  -32.4310 C   0  0  0  0  0  0  0  0  0  0  0  0
   -5.7030   16.4950  -32.4530 Cl  0  0  0  0  0  0  0  0  0  0  0  0
   -6.6110   18.9150  -33.4580 C   0  0  0  0  0  0  0  0  0  0  0  0
   -5.6770   18.7250  -34.6220 C   0  0  0  0  0  0  0  0  0  0  0  0
   -7.4370   20.0500  -33.4040 C   0  0  0  0  0  0  0  0  0  0  0  0
    1.1978   24.6813  -26.2949 H   0  0  0  0  0  0  0  0  0  0  0  0
    2.5613   24.8211  -27.4560 H   0  0  0  0  0  0  0  0  0  0  0  0
    1.2520   26.0509  -27.4560 H   0  0  0  0  0  0  0  0  0  0  0  0
    1.7017   21.7014  -27.8784 H   0  0  0  0  0  0  0  0  0  0  0  0
    0.3137   19.6993  -27.3578 H   0  0  0  0  0  0  0  0  0  0  0  0
   -3.2504   22.1428  -27.3994 H   0  0  0  0  0  0  0  0  0  0  0  0
   -1.7423   22.9500  -30.4743 H   0  0  0  0  0  0  0  0  0  0  0  0
   -1.5025   20.7014  -31.5174 H   0  0  0  0  0  0  0  0  0  0  0  0
   -3.4781   19.5862  -32.5506 H   0  0  0  0  0  0  0  0  0  0  0  0
   -5.6838   20.7384  -32.5980 H   0  0  0  0  0  0  0  0  0  0  0  0
   -6.1978   24.2418  -31.2911 H   0  0  0  0  0  0  0  0  0  0  0  0
   -6.5427   23.2534  -32.7731 H   0  0  0  0  0  0  0  0  0  0  0  0
   -7.1868   21.4393  -30.8837 H   0  0  0  0  0  0  0  0  0  0  0  0
   -7.5539   22.9784  -29.9830 H   0  0  0  0  0  0  0  0  0  0  0  0
   -9.5691   22.8900  -30.9747 H   0  0  0  0  0  0  0  0  0  0  0  0
   -8.7020   23.4214  -32.4637 H   0  0  0  0  0  0  0  0  0  0  0  0
   -9.0797   19.4193  -30.4711 H   0  0  0  0  0  0  0  0  0  0  0  0
   -7.6305   17.3970  -30.5604 H   0  0  0  0  0  0  0  0  0  0  0  0
   -4.6631   18.5187  -34.2487 H   0  0  0  0  0  0  0  0  0  0  0  0
   -6.0216   17.8786  -35.2342 H   0  0  0  0  0  0  0  0  0  0  0  0
   -5.6635   19.6388  -35.2342 H   0  0  0  0  0  0  0  0  0  0  0  0
   -7.3868   20.7960  -34.2108 H   0  0  0  0  0  0  0  0  0  0  0  0
  1  2  1  0
  2  3  1  0
  3  4  2  0
  4  5  1  0
  5  6  2  0
  6  7  1  0
  6  8  1  0
  8  9  2  0
  9 10  1  0
 10 11  2  0
 10 12  2  0
 10 13  1  0
 13 14  1  0
 14 15  2  0
 14 16  1  0
 16 17  2  0
 17 18  1  0
 18 19  2  0
 19 20  1  0
 20 21  2  0
 21 22  1  0
 22 23  1  0
 23 24  1  0
 24 25  1  0
 25 26  1  0
 26 27  2  0
 27 28  1  0
 28 29  2  0
 29 30  1  0
 29 31  1  0
 31 32  1  0
 31 33  2  0
  9  3  1  0
 21 16  1  0
 33 26  1  0
  1 34  1  0
  1 35  1  0
  1 36  1  0
  4 37  1  0
  5 38  1  0
  8 39  1  0
 17 40  1  0
 18 41  1  0
 19 42  1  0
 20 43  1  0
 22 44  1  0
 22 45  1  0
 23 46  1  0
 23 47  1  0
 24 48  1  0
 24 49  1  0
 27 50  1  0
 28 51  1  0
 32 52  1  0
 32 53  1  0
 32 54  1  0
 33 55  1  0
M  CHG  1  13  -1
M  END
>  <UniqueID>  (24) 
23

>  <SMILES>  (24) 
COc1ccc(Cl)cc1S(=O)(=O)[N-]C(=O)c1ccccc1CCCOc1ccc(Cl)c(C)c1

>  <Energy>  (24) 
59.76505812401985

>  <Genealogy>  (24) 
COc1ccc(Cl)cc1S(=O)(=O)[N-]C(=O)c1ccccc1CCCOc1ccc(Cl)c(C)c1 (protonated)
COc1ccc(Cl)cc1S(=O)(=O)[N-]C(=O)c1ccccc1CCCOc1ccc(Cl)c(C)c1 (3D coordinates assigned)
COc1ccc(Cl)cc1S(=O)(=O)[N-]C(=O)c1ccccc1CCCOc1ccc(Cl)c(C)c1 (optimized conformer: 59.76505812401985 kcal/mol)

>  <smiles>  (24) 
COc1ccc(Cl)cc1S(=O)(=O)NC(=O)c1ccccc1CCCOc1ccc(Cl)c(C)c1

>  <score_type>  (24) 
oracle

>  <origin>  (24) 
adgpu

>  <m_score__min__energy>  (24) 
-12.119999999999999

>  <m_primary>  (24) 
energy

$$$$
24:0
     RDKit          3D

 35 36  0  0  0  0  0  0  0  0999 V2000
   -5.6700   18.5970  -34.5330 C   0  0  0  0  0  0  0  0  0  0  0  0
   -5.2910   18.9750  -33.1030 C   0  0  0  0  0  0  0  0  0  0  0  0
   -5.1330   20.4910  -32.9090 C   0  0  0  0  0  0  0  0  0  0  0  0
   -6.3890   21.1290  -32.3450 C   0  0  0  0  0  0  0  0  0  0  0  0
   -7.5180   20.3010  -32.1980 C   0  0  0  0  0  0  0  0  0  0  0  0
   -8.7030   20.7910  -31.6470 C   0  0  0  0  0  0  0  0  0  0  0  0
   -8.7780   22.1130  -31.2220 C   0  0  0  0  0  0  0  0  0  0  0  0
   -7.6720   22.9520  -31.3510 C   0  0  0  0  0  0  0  0  0  0  0  0
   -6.4690   22.4860  -31.9140 C   0  0  0  0  0  0  0  0  0  0  0  0
   -5.3230   23.4740  -32.0150 C   0  0  0  0  0  0  0  0  0  0  0  0
   -4.3480   23.2870  -30.8840 C   0  0  0  0  0  0  0  0  0  0  0  0
   -4.1320   22.0380  -30.3910 N   0  0  0  0  0  0  0  0  0  0  0  0
   -3.2810   21.8130  -29.3570 C   0  0  0  0  0  0  0  0  0  0  0  0
   -3.1090   20.6390  -28.9330 O   0  0  0  0  0  0  0  0  0  0  0  0
   -2.6050   22.8970  -28.7740 C   0  0  0  0  0  0  0  0  0  0  0  0
   -1.6570   22.7020  -27.6310 C   0  0  0  0  0  0  0  0  0  0  0  0
   -2.8250   24.1480  -29.2610 N   0  0  0  0  0  0  0  0  0  0  0  0
   -3.6760   24.3710  -30.2950 C   0  0  0  0  0  0  0  0  0  0  0  0
   -3.8700   25.6690  -30.7520 O   0  0  0  0  0  0  0  0  0  0  0  0
   -6.4487   17.8203  -34.5128 H   0  0  0  0  0  0  0  0  0  0  0  0
   -6.0514   19.4851  -35.0582 H   0  0  0  0  0  0  0  0  0  0  0  0
   -4.7829   18.2132  -35.0582 H   0  0  0  0  0  0  0  0  0  0  0  0
   -6.0776   18.6140  -32.4240 H   0  0  0  0  0  0  0  0  0  0  0  0
   -4.3181   18.5104  -32.8848 H   0  0  0  0  0  0  0  0  0  0  0  0
   -4.2996   20.6747  -32.2149 H   0  0  0  0  0  0  0  0  0  0  0  0
   -4.9386   20.9398  -33.8943 H   0  0  0  0  0  0  0  0  0  0  0  0
   -7.4654   19.2513  -32.5225 H   0  0  0  0  0  0  0  0  0  0  0  0
   -9.5778   20.1314  -31.5489 H   0  0  0  0  0  0  0  0  0  0  0  0
   -9.7109   22.4971  -30.7836 H   0  0  0  0  0  0  0  0  0  0  0  0
   -7.7406   23.9947  -31.0073 H   0  0  0  0  0  0  0  0  0  0  0  0
   -4.7994   23.3210  -32.9702 H   0  0  0  0  0  0  0  0  0  0  0  0
   -5.7332   24.4931  -31.9590 H   0  0  0  0  0  0  0  0  0  0  0  0
   -2.2002   22.8137  -26.6810 H   0  0  0  0  0  0  0  0  0  0  0  0
   -1.2183   21.6948  -27.6863 H   0  0  0  0  0  0  0  0  0  0  0  0
   -0.8563   23.4543  -27.6863 H   0  0  0  0  0  0  0  0  0  0  0  0
  1  2  1  0
  2  3  1  0
  3  4  1  0
  4  5  2  0
  5  6  1  0
  6  7  2  0
  7  8  1  0
  8  9  2  0
  9 10  1  0
 10 11  1  0
 11 12  1  0
 12 13  1  0
 13 14  2  0
 13 15  1  0
 15 16  1  0
 15 17  2  0
 17 18  1  0
 18 19  1  0
  9  4  1  0
 18 11  2  0
  1 20  1  0
  1 21  1  0
  1 22  1  0
  2 23  1  0
  2 24  1  0
  3 25  1  0
  3 26  1  0
  5 27  1  0
  6 28  1  0
  7 29  1  0
  8 30  1  0
 10 31  1  0
 10 32  1  0
 16 33  1  0
 16 34  1  0
 16 35  1  0
M  CHG  2  12  -1  19  -1
M  END
>  <UniqueID>  (25) 
24

>  <SMILES>  (25) 
CCCc1ccccc1Cc1[n-]c(=O)c(C)nc1[O-]

>  <Energy>  (25) 
35.215142821042086

>  <Genealogy>  (25) 
CCCc1ccccc1Cc1[n-]c(=O)c(C)nc1[O-] (protonated)
CCCc1ccccc1Cc1[n-]c(=O)c(C)nc1[O-] (3D coordinates assigned)
CCCc1ccccc1Cc1[n-]c(=O)c(C)nc1[O-] (optimized conformer: 35.215142821042086 kcal/mol)

>  <smiles>  (25) 
CCCc1ccccc1Cc1[nH]c(=O)c(C)nc1O

>  <score_type>  (25) 
oracle

>  <origin>  (25) 
adgpu

>  <m_score__min__energy>  (25) 
-10.18

>  <m_primary>  (25) 
energy

$$$$
25:0
     RDKit          3D

 48 51  0  0  0  0  0  0  0  0999 V2000
    1.3200   20.9530  -27.9300 C   0  0  0  0  0  0  0  0  0  0  0  0
    0.1520   20.1140  -27.4810 C   0  0  0  0  0  0  0  0  0  0  0  0
    0.2050   18.7220  -27.6710 C   0  0  0  0  0  0  0  0  0  0  0  0
   -0.8470   17.9060  -27.2530 C   0  0  0  0  0  0  0  0  0  0  0  0
   -1.9700   18.4680  -26.6490 C   0  0  0  0  0  0  0  0  0  0  0  0
   -2.0480   19.8500  -26.4660 C   0  0  0  0  0  0  0  0  0  0  0  0
   -0.9990   20.6900  -26.8840 C   0  0  0  0  0  0  0  0  0  0  0  0
   -1.1450   22.1560  -26.7150 C   0  0  0  0  0  0  0  0  0  0  0  0
   -1.5560   22.9730  -27.8030 C   0  0  0  0  0  0  0  0  0  0  0  0
   -1.6270   24.3710  -27.6490 C   0  0  0  0  0  0  0  0  0  0  0  0
   -1.9440   25.2510  -28.7860 C   0  0  0  0  0  0  0  0  0  0  0  0
   -1.2450   26.2800  -28.9790 O   0  0  0  0  0  0  0  0  0  0  0  0
   -2.9930   24.9370  -29.7130 N   0  0  0  0  0  0  0  0  0  0  0  0
   -4.0380   23.9360  -29.5040 C   0  0  0  0  0  0  0  0  0  0  0  0
   -4.1030   22.9740  -30.6640 C   0  0  0  0  0  0  0  0  0  0  0  0
   -2.9280   22.3910  -31.1590 C   0  0  0  0  0  0  0  0  0  0  0  0
   -2.9950   21.4250  -32.1630 C   0  0  0  0  0  0  0  0  0  0  0  0
   -4.2310   21.0280  -32.6780 C   0  0  0  0  0  0  0  0  0  0  0  0
   -5.4220   21.6140  -32.2090 C   0  0  0  0  0  0  0  0  0  0  0  0
   -6.7330   21.1450  -32.7280 C   0  0  0  0  0  0  0  0  0  0  0  0
   -6.8260   20.1630  -33.7640 N   0  0  0  0  0  0  0  0  0  0  0  0
   -7.7970   21.6210  -32.2470 O   0  0  0  0  0  0  0  0  0  0  0  0
   -5.3430   22.6000  -31.2080 C   0  0  0  0  0  0  0  0  0  0  0  0
   -1.3040   24.8930  -26.3970 C   0  0  0  0  0  0  0  0  0  0  0  0
   -1.2020   26.1890  -25.9350 C   0  0  0  0  0  0  0  0  0  0  0  0
   -0.7500   26.0770  -24.6230 C   0  0  0  0  0  0  0  0  0  0  0  0
   -0.5740   24.7790  -24.2840 N   0  0  0  0  0  0  0  0  0  0  0  0
   -0.9140   24.0770  -25.3750 C   0  0  0  0  0  0  0  0  0  0  0  0
   -0.8210   22.7320  -25.5170 N   0  0  0  0  0  0  0  0  0  0  0  0
    1.8553   21.3375  -27.0493 H   0  0  0  0  0  0  0  0  0  0  0  0
    2.0027   20.3376  -28.5343 H   0  0  0  0  0  0  0  0  0  0  0  0
    0.9548   21.7965  -28.5343 H   0  0  0  0  0  0  0  0  0  0  0  0
    1.0846   18.2716  -28.1540 H   0  0  0  0  0  0  0  0  0  0  0  0
   -0.7897   16.8174  -27.4005 H   0  0  0  0  0  0  0  0  0  0  0  0
   -2.7959   17.8222  -26.3160 H   0  0  0  0  0  0  0  0  0  0  0  0
   -2.9385   20.2867  -25.9902 H   0  0  0  0  0  0  0  0  0  0  0  0
   -1.8190   22.5126  -28.7668 H   0  0  0  0  0  0  0  0  0  0  0  0
   -3.8203   23.3752  -28.5831 H   0  0  0  0  0  0  0  0  0  0  0  0
   -5.0062   24.4514  -29.4208 H   0  0  0  0  0  0  0  0  0  0  0  0
   -1.9514   22.6959  -30.7549 H   0  0  0  0  0  0  0  0  0  0  0  0
   -2.0699   20.9737  -32.5510 H   0  0  0  0  0  0  0  0  0  0  0  0
   -4.2742   20.2516  -33.4560 H   0  0  0  0  0  0  0  0  0  0  0  0
   -7.7590   19.9180  -34.1630 H   0  0  0  0  0  0  0  0  0  0  0  0
   -6.0000   19.6120  -34.0830 H   0  0  0  0  0  0  0  0  0  0  0  0
   -6.2629   23.0835  -30.8474 H   0  0  0  0  0  0  0  0  0  0  0  0
   -1.4293   27.1136  -26.4858 H   0  0  0  0  0  0  0  0  0  0  0  0
   -0.5615   26.9285  -23.9527 H   0  0  0  0  0  0  0  0  0  0  0  0
   -0.2190   24.4060  -23.3760 H   0  0  0  0  0  0  0  0  0  0  0  0
  1  2  1  0
  2  3  2  0
  3  4  1  0
  4  5  2  0
  5  6  1  0
  6  7  2  0
  7  8  1  0
  8  9  2  0
  9 10  1  0
 10 11  1  0
 11 12  2  0
 11 13  1  0
 13 14  1  0
 14 15  1  0
 15 16  2  0
 16 17  1  0
 17 18  2  0
 18 19  1  0
 19 20  1  0
 20 21  1  0
 20 22  2  0
 19 23  2  0
 10 24  2  0
 24 25  1  0
 25 26  2  0
 26 27  1  0
 27 28  1  0
 28 29  2  0
  7  2  1  0
 29  8  1  0
 23 15  1  0
 28 24  1  0
  1 30  1  0
  1 31  1  0
  1 32  1  0
  3 33  1  0
  4 34  1  0
  5 35  1  0
  6 36  1  0
  9 37  1  0
 14 38  1  0
 14 39  1  0
 16 40  1  0
 17 41  1  0
 18 42  1  0
 21 43  1  0
 21 44  1  0
 23 45  1  0
 25 46  1  0
 26 47  1  0
 27 48  1  0
M  CHG  1  13  -1
M  END
>  <UniqueID>  (26) 
25

>  <SMILES>  (26) 
Cc1ccccc1-c1cc(C(=O)[N-]Cc2cccc(C(N)=O)c2)c2cc[nH]c2n1

>  <Energy>  (26) 
92.96746324562984

>  <Genealogy>  (26) 
Cc1ccccc1-c1cc(C(=O)[N-]Cc2cccc(C(N)=O)c2)c2cc[nH]c2n1 (protonated)
Cc1ccccc1-c1cc(C(=O)[N-]Cc2cccc(C(N)=O)c2)c2cc[nH]c2n1 (3D coordinates assigned)
Cc1ccccc1-c1cc(C(=O)[N-]Cc2cccc(C(N)=O)c2)c2cc[nH]c2n1 (optimized conformer: 92.96746324562984 kcal/mol)

>  <smiles>  (26) 
Cc1ccccc1-c1cc(C(=O)NCc2cccc(C(N)=O)c2)c2cc[nH]c2n1

>  <score_type>  (26) 
oracle

>  <origin>  (26) 
adgpu

>  <m_score__min__energy>  (26) 
-11.42

>  <m_primary>  (26) 
energy

$$$$
26:0
     RDKit          3D

 66 69  0  0  0  0  0  0  0  0999 V2000
   -0.6810   13.3540  -32.2550 C   0  0  0  0  0  0  0  0  0  0  0  0
   -1.7890   14.4260  -32.3550 C   0  0  0  0  0  0  0  0  0  0  0  0
   -3.1470   13.7000  -32.2700 C   0  0  0  0  0  0  0  0  0  0  0  0
   -1.7230   15.2360  -33.6120 N   0  0  0  0  0  0  0  0  0  0  0  0
   -1.8690   16.7050  -33.4270 C   0  0  0  0  0  0  0  0  0  0  0  0
   -3.3220   17.0940  -33.1200 C   0  0  0  0  0  0  0  0  0  0  0  0
   -4.2310   16.4620  -34.0840 N   0  0  0  0  0  0  0  0  0  0  0  0
   -5.6430   16.3960  -33.8110 C   0  0  0  0  0  0  0  0  0  0  0  0
   -6.2350   15.2800  -33.8750 O   0  0  0  0  0  0  0  0  0  0  0  0
   -6.4170   17.6140  -33.4760 C   0  0  0  0  0  0  0  0  0  0  0  0
   -7.5200   17.5430  -32.6100 C   0  0  0  0  0  0  0  0  0  0  0  0
   -8.2720   18.6880  -32.3220 C   0  0  0  0  0  0  0  0  0  0  0  0
   -7.9360   19.9160  -32.9020 C   0  0  0  0  0  0  0  0  0  0  0  0
   -8.7340   21.0730  -32.6080 N   0  0  0  0  0  0  0  0  0  0  0  0
   -8.5800   21.8910  -31.4390 C   0  0  0  0  0  0  0  0  0  0  0  0
   -9.4930   21.9150  -30.5690 O   0  0  0  0  0  0  0  0  0  0  0  0
   -7.3950   22.6970  -31.2740 N   0  0  0  0  0  0  0  0  0  0  0  0
   -7.1940   23.5100  -30.0660 C   0  0  0  0  0  0  0  0  0  0  0  0
   -5.8790   23.0940  -29.4050 C   0  0  0  0  0  0  0  0  0  0  0  0
   -4.7760   23.0630  -30.3800 N   0  0  0  0  0  0  0  0  0  0  0  0
   -3.4200   22.9150  -29.9110 C   0  0  0  0  0  0  0  0  0  0  0  0
   -2.7740   21.7180  -29.6310 C   0  0  0  0  0  0  0  0  0  0  0  0
   -1.5110   22.0760  -29.1890 C   0  0  0  0  0  0  0  0  0  0  0  0
   -0.5220   21.1810  -28.7790 O   0  0  0  0  0  0  0  0  0  0  0  0
   -1.3540   23.4170  -29.2000 N   0  0  0  0  0  0  0  0  0  0  0  0
   -0.2010   24.1670  -28.7030 C   0  0  0  0  0  0  0  0  0  0  0  0
   -2.5230   23.9310  -29.6250 C   0  0  0  0  0  0  0  0  0  0  0  0
   -2.7800   25.2960  -29.7180 O   0  0  0  0  0  0  0  0  0  0  0  0
   -5.0440   23.3370  -31.8010 C   0  0  0  0  0  0  0  0  0  0  0  0
   -6.3080   22.5950  -32.2610 C   0  0  0  0  0  0  0  0  0  0  0  0
   -6.8720   19.9760  -33.8190 C   0  0  0  0  0  0  0  0  0  0  0  0
   -6.1180   18.8370  -34.1010 C   0  0  0  0  0  0  0  0  0  0  0  0
   -3.6610   15.7110  -35.2060 C   0  0  0  0  0  0  0  0  0  0  0  0
   -2.6320   14.6980  -34.6750 C   0  0  0  0  0  0  0  0  0  0  0  0
   -0.4663   13.1463  -31.1964 H   0  0  0  0  0  0  0  0  0  0  0  0
   -1.0184   12.4308  -32.7487 H   0  0  0  0  0  0  0  0  0  0  0  0
    0.2306   13.7217  -32.7487 H   0  0  0  0  0  0  0  0  0  0  0  0
   -1.6523   15.1405  -31.5299 H   0  0  0  0  0  0  0  0  0  0  0  0
   -3.4195   13.5543  -31.2143 H   0  0  0  0  0  0  0  0  0  0  0  0
   -3.9185   14.3060  -32.7675 H   0  0  0  0  0  0  0  0  0  0  0  0
   -3.0716   12.7219  -32.7675 H   0  0  0  0  0  0  0  0  0  0  0  0
   -1.2295   17.0249  -32.5911 H   0  0  0  0  0  0  0  0  0  0  0  0
   -1.5702   17.2011  -34.3622 H   0  0  0  0  0  0  0  0  0  0  0  0
   -3.5805   16.7603  -32.1042 H   0  0  0  0  0  0  0  0  0  0  0  0
   -3.4241   18.1868  -33.1939 H   0  0  0  0  0  0  0  0  0  0  0  0
   -7.7952   16.5803  -32.1545 H   0  0  0  0  0  0  0  0  0  0  0  0
   -9.1303   18.6220  -31.6371 H   0  0  0  0  0  0  0  0  0  0  0  0
   -7.1496   24.5744  -30.3399 H   0  0  0  0  0  0  0  0  0  0  0  0
   -8.0292   23.3540  -29.3673 H   0  0  0  0  0  0  0  0  0  0  0  0
   -5.6343   23.8138  -28.6100 H   0  0  0  0  0  0  0  0  0  0  0  0
   -6.0038   22.0830  -28.9900 H   0  0  0  0  0  0  0  0  0  0  0  0
   -3.1794   20.7010  -29.7376 H   0  0  0  0  0  0  0  0  0  0  0  0
   -0.7340   20.4270  -28.1370 H   0  0  0  0  0  0  0  0  0  0  0  0
   -0.2074   24.1629  -27.6030 H   0  0  0  0  0  0  0  0  0  0  0  0
    0.7255   23.6982  -29.0661 H   0  0  0  0  0  0  0  0  0  0  0  0
   -0.2539   25.2040  -29.0661 H   0  0  0  0  0  0  0  0  0  0  0  0
   -5.1878   24.4186  -31.9406 H   0  0  0  0  0  0  0  0  0  0  0  0
   -4.1887   22.9888  -32.3987 H   0  0  0  0  0  0  0  0  0  0  0  0
   -6.6493   23.0300  -33.2119 H   0  0  0  0  0  0  0  0  0  0  0  0
   -6.0543   21.5312  -32.3795 H   0  0  0  0  0  0  0  0  0  0  0  0
   -6.6327   20.9271  -34.3171 H   0  0  0  0  0  0  0  0  0  0  0  0
   -5.2846   18.8961  -34.8166 H   0  0  0  0  0  0  0  0  0  0  0  0
   -4.4636   15.1756  -35.7344 H   0  0  0  0  0  0  0  0  0  0  0  0
   -3.1663   16.4070  -35.8995 H   0  0  0  0  0  0  0  0  0  0  0  0
   -3.1786   13.8395  -34.2576 H   0  0  0  0  0  0  0  0  0  0  0  0
   -1.9914   14.4265  -35.5270 H   0  0  0  0  0  0  0  0  0  0  0  0
  1  2  1  0
  2  3  1  0
  2  4  1  0
  4  5  1  0
  5  6  1  0
  6  7  1  0
  7  8  1  0
  8  9  2  0
  8 10  1  0
 10 11  2  0
 11 12  1  0
 12 13  2  0
 13 14  1  0
 14 15  1  0
 15 16  2  0
 15 17  1  0
 17 18  1  0
 18 19  1  0
 19 20  1  0
 20 21  1  0
 21 22  1  0
 22 23  2  0
 23 24  1  0
 23 25  1  0
 25 26  1  0
 25 27  1  0
 27 28  1  0
 20 29  1  0
 29 30  1  0
 13 31  1  0
 31 32  2  0
  7 33  1  0
 33 34  1  0
 34  4  1  0
 32 10  1  0
 30 17  1  0
 27 21  2  0
  1 35  1  0
  1 36  1  0
  1 37  1  0
  2 38  1  0
  3 39  1  0
  3 40  1  0
  3 41  1  0
  5 42  1  0
  5 43  1  0
  6 44  1  0
  6 45  1  0
 11 46  1  0
 12 47  1  0
 18 48  1  0
 18 49  1  0
 19 50  1  0
 19 51  1  0
 22 52  1  0
 24 53  1  0
 26 54  1  0
 26 55  1  0
 26 56  1  0
 29 57  1  0
 29 58  1  0
 30 59  1  0
 30 60  1  0
 31 61  1  0
 32 62  1  0
 33 63  1  0
 33 64  1  0
 34 65  1  0
 34 66  1  0
M  CHG  2  14  -1  28  -1
M  END
>  <UniqueID>  (27) 
26

>  <SMILES>  (27) 
CC(C)N1CCN(C(=O)c2ccc([N-]C(=O)N3CCN(c4cc(O)n(C)c4[O-])CC3)cc2)CC1

>  <Energy>  (27) 
119.14288256726446

>  <Genealogy>  (27) 
CC(C)N1CCN(C(=O)c2ccc([N-]C(=O)N3CCN(c4cc(O)n(C)c4[O-])CC3)cc2)CC1 (protonated)
CC(C)N1CCN(C(=O)c2ccc([N-]C(=O)N3CCN(c4cc(O)n(C)c4[O-])CC3)cc2)CC1 (3D coordinates assigned)
CC(C)N1CCN(C(=O)c2ccc([N-]C(=O)N3CCN(c4cc(O)n(C)c4[O-])CC3)cc2)CC1 (nonaromatic ring conformer: 119.14288256726446 kcal/mol)

>  <smiles>  (27) 
CC(C)N1CCN(C(=O)c2ccc(NC(=O)N3CCN(c4cc(O)n(C)c4O)CC3)cc2)CC1

>  <score_type>  (27) 
oracle

>  <origin>  (27) 
adgpu

>  <m_score__min__energy>  (27) 
-11.27

>  <m_primary>  (27) 
energy

$$$$
27:0
     RDKit          3D

 54 57  0  0  0  0  0  0  0  0999 V2000
   -2.0820   25.4440  -28.8700 O   0  0  0  0  0  0  0  0  0  0  0  0
   -2.8300   24.7140  -29.5770 C   0  0  0  0  0  0  0  0  0  0  0  0
   -3.7980   25.2990  -30.4690 N   0  0  0  0  0  0  0  0  0  0  0  0
   -5.2670   25.3030  -30.4350 C   0  0  0  0  0  0  0  0  0  0  0  0
   -5.9610   24.2170  -31.2390 C   0  0  0  0  0  0  0  0  0  0  0  0
   -5.9260   24.1380  -29.7140 C   0  0  0  0  0  0  0  0  0  0  0  0
   -2.7070   23.2380  -29.4900 C   0  0  0  0  0  0  0  0  0  0  0  0
   -3.2420   22.5360  -28.3950 C   0  0  0  0  0  0  0  0  0  0  0  0
   -3.1300   21.1470  -28.3220 C   0  0  0  0  0  0  0  0  0  0  0  0
   -2.4890   20.4400  -29.3410 C   0  0  0  0  0  0  0  0  0  0  0  0
   -1.9540   21.1140  -30.4480 C   0  0  0  0  0  0  0  0  0  0  0  0
   -1.3060   20.3560  -31.4850 N   0  0  0  0  0  0  0  0  0  0  0  0
   -1.8010   20.3750  -33.1490 S   0  0  0  0  0  0  0  0  0  0  0  0
   -0.6230   20.0390  -34.0190 O   0  0  0  0  0  0  0  0  0  0  0  0
   -2.2890   21.7500  -33.5160 O   0  0  0  0  0  0  0  0  0  0  0  0
   -3.0580   19.1700  -33.4160 C   0  0  0  0  0  0  0  0  0  0  0  0
   -2.9580   18.2470  -34.4660 C   0  0  0  0  0  0  0  0  0  0  0  0
   -3.9720   17.3110  -34.6760 C   0  0  0  0  0  0  0  0  0  0  0  0
   -5.0840   17.2790  -33.8310 C   0  0  0  0  0  0  0  0  0  0  0  0
   -5.1870   18.1830  -32.7600 C   0  0  0  0  0  0  0  0  0  0  0  0
   -6.3500   18.1340  -31.8460 C   0  0  0  0  0  0  0  0  0  0  0  0
   -6.5500   17.1040  -31.1490 O   0  0  0  0  0  0  0  0  0  0  0  0
   -7.2590   19.2460  -31.7480 N   0  0  0  0  0  0  0  0  0  0  0  0
   -8.6900   18.9980  -31.5300 C   0  0  0  0  0  0  0  0  0  0  0  0
   -9.5240   20.0490  -32.2720 C   0  0  0  0  0  0  0  0  0  0  0  0
   -9.0610   21.4690  -31.9190 C   0  0  0  0  0  0  0  0  0  0  0  0
   -7.5650   21.6450  -32.2070 C   0  0  0  0  0  0  0  0  0  0  0  0
   -6.7400   20.5900  -31.4610 C   0  0  0  0  0  0  0  0  0  0  0  0
   -4.1740   19.1410  -32.5710 C   0  0  0  0  0  0  0  0  0  0  0  0
   -2.0540   22.5160  -30.5070 C   0  0  0  0  0  0  0  0  0  0  0  0
   -5.3478   26.3985  -30.3773 H   0  0  0  0  0  0  0  0  0  0  0  0
   -6.9065   24.4351  -31.7572 H   0  0  0  0  0  0  0  0  0  0  0  0
   -5.6658   23.5474  -32.0603 H   0  0  0  0  0  0  0  0  0  0  0  0
   -6.8460   24.2995  -29.1331 H   0  0  0  0  0  0  0  0  0  0  0  0
   -5.5951   23.3884  -28.9801 H   0  0  0  0  0  0  0  0  0  0  0  0
   -3.7523   23.0858  -27.5904 H   0  0  0  0  0  0  0  0  0  0  0  0
   -3.5479   20.6076  -27.4592 H   0  0  0  0  0  0  0  0  0  0  0  0
   -2.4030   19.3454  -29.2749 H   0  0  0  0  0  0  0  0  0  0  0  0
   -0.5710   19.6630  -31.2200 H   0  0  0  0  0  0  0  0  0  0  0  0
   -2.0783   18.2603  -35.1262 H   0  0  0  0  0  0  0  0  0  0  0  0
   -3.8953   16.5967  -35.5090 H   0  0  0  0  0  0  0  0  0  0  0  0
   -5.8826   16.5428  -34.0048 H   0  0  0  0  0  0  0  0  0  0  0  0
   -8.9475   17.9969  -31.9061 H   0  0  0  0  0  0  0  0  0  0  0  0
   -8.9069   19.0596  -30.4534 H   0  0  0  0  0  0  0  0  0  0  0  0
   -9.4157   19.8944  -33.3557 H   0  0  0  0  0  0  0  0  0  0  0  0
  -10.5759   19.9384  -31.9698 H   0  0  0  0  0  0  0  0  0  0  0  0
   -9.6309   22.1932  -32.5196 H   0  0  0  0  0  0  0  0  0  0  0  0
   -9.2343   21.6383  -30.8460 H   0  0  0  0  0  0  0  0  0  0  0  0
   -7.3910   21.5408  -33.2881 H   0  0  0  0  0  0  0  0  0  0  0  0
   -7.2546   22.6430  -31.8641 H   0  0  0  0  0  0  0  0  0  0  0  0
   -5.6910   20.6518  -31.7864 H   0  0  0  0  0  0  0  0  0  0  0  0
   -6.8087   20.7786  -30.3795 H   0  0  0  0  0  0  0  0  0  0  0  0
   -4.2594   19.8723  -31.7537 H   0  0  0  0  0  0  0  0  0  0  0  0
   -1.6159   23.0556  -31.3596 H   0  0  0  0  0  0  0  0  0  0  0  0
  1  2  2  0
  2  3  1  0
  3  4  1  0
  4  5  1  0
  5  6  1  0
  2  7  1  0
  7  8  2  0
  8  9  1  0
  9 10  2  0
 10 11  1  0
 11 12  1  0
 12 13  1  0
 13 14  2  0
 13 15  2  0
 13 16  1  0
 16 17  2  0
 17 18  1  0
 18 19  2  0
 19 20  1  0
 20 21  1  0
 21 22  2  0
 21 23  1  0
 23 24  1  0
 24 25  1  0
 25 26  1  0
 26 27  1  0
 27 28  1  0
 20 29  2  0
 11 30  2  0
  6  4  1  0
 30  7  1  0
 29 16  1  0
 28 23  1  0
  4 31  1  0
  5 32  1  0
  5 33  1  0
  6 34  1  0
  6 35  1  0
  8 36  1  0
  9 37  1  0
 10 38  1  0
 12 39  1  0
 17 40  1  0
 18 41  1  0
 19 42  1  0
 24 43  1  0
 24 44  1  0
 25 45  1  0
 25 46  1  0
 26 47  1  0
 26 48  1  0
 27 49  1  0
 27 50  1  0
 28 51  1  0
 28 52  1  0
 29 53  1  0
 30 54  1  0
M  CHG  1   3  -1
M  END
>  <UniqueID>  (28) 
27

>  <SMILES>  (28) 
O=C([N-]C1CC1)c1cccc(NS(=O)(=O)c2cccc(C(=O)N3CCCCC3)c2)c1

>  <Energy>  (28) 
329.34883886028706

>  <Genealogy>  (28) 
O=C([N-]C1CC1)c1cccc(NS(=O)(=O)c2cccc(C(=O)N3CCCCC3)c2)c1 (protonated)
O=C([N-]C1CC1)c1cccc(NS(=O)(=O)c2cccc(C(=O)N3CCCCC3)c2)c1 (3D coordinates assigned)
O=C([N-]C1CC1)c1cccc(NS(=O)(=O)c2cccc(C(=O)N3CCCCC3)c2)c1 (nonaromatic ring conformer: 329.34883886028706 kcal/mol)

>  <smiles>  (28) 
O=C(NC1CC1)c1cccc(NS(=O)(=O)c2cccc(C(=O)N3CCCCC3)c2)c1

>  <score_type>  (28) 
oracle

>  <origin>  (28) 
adgpu

>  <m_score__min__energy>  (28) 
-11.84

>  <m_primary>  (28) 
energy

$$$$
28:0
     RDKit          3D

 47 50  0  0  0  0  0  0  0  0999 V2000
    1.0670   20.1790  -32.8860 O   0  0  0  0  0  0  0  0  0  0  0  0
    0.2670   20.8470  -33.5930 C   0  0  0  0  0  0  0  0  0  0  0  0
    0.7590   21.9020  -34.3540 O   0  0  0  0  0  0  0  0  0  0  0  0
   -1.1740   20.5150  -33.6180 C   0  0  0  0  0  0  0  0  0  0  0  0
   -2.1450   21.5220  -33.4900 C   0  0  0  0  0  0  0  0  0  0  0  0
   -3.5060   21.2010  -33.4980 C   0  0  0  0  0  0  0  0  0  0  0  0
   -3.9190   19.8650  -33.6160 C   0  0  0  0  0  0  0  0  0  0  0  0
   -5.3900   19.5180  -33.5870 C   0  0  0  0  0  0  0  0  0  0  0  0
   -6.0180   19.6350  -32.2500 N   0  0  0  0  0  0  0  0  0  0  0  0
   -7.4490   19.9890  -32.2220 C   0  0  0  0  0  0  0  0  0  0  0  0
   -7.7190   21.5050  -32.2960 C   0  0  0  0  0  0  0  0  0  0  0  0
   -6.6220   22.3640  -31.7210 C   0  0  0  0  0  0  0  0  0  0  0  0
   -6.7800   23.7580  -31.7290 C   0  0  0  0  0  0  0  0  0  0  0  0
   -5.7620   24.5900  -31.2590 C   0  0  0  0  0  0  0  0  0  0  0  0
   -4.5720   24.0450  -30.7690 C   0  0  0  0  0  0  0  0  0  0  0  0
   -3.5410   24.9350  -30.3190 N   0  0  0  0  0  0  0  0  0  0  0  0
   -2.4150   24.5920  -29.0460 S   0  0  0  0  0  0  0  0  0  0  0  0
   -1.2790   25.5730  -29.1090 O   0  0  0  0  0  0  0  0  0  0  0  0
   -3.1020   24.7280  -27.7170 O   0  0  0  0  0  0  0  0  0  0  0  0
   -1.7740   22.9700  -29.2410 C   0  0  0  0  0  0  0  0  0  0  0  0
   -0.9480   22.5500  -30.2700 C   0  0  0  0  0  0  0  0  0  0  0  0
   -0.6220   21.1910  -30.1890 C   0  0  0  0  0  0  0  0  0  0  0  0
   -1.1960   20.5460  -29.1000 C   0  0  0  0  0  0  0  0  0  0  0  0
   -2.1080   21.6660  -28.2360 S   0  0  0  0  0  0  0  0  0  0  0  0
   -4.4160   22.6500  -30.7410 C   0  0  0  0  0  0  0  0  0  0  0  0
   -5.4230   21.8090  -31.2380 C   0  0  0  0  0  0  0  0  0  0  0  0
   -5.2200   20.3190  -31.2180 C   0  0  0  0  0  0  0  0  0  0  0  0
   -2.9520   18.8630  -33.7880 C   0  0  0  0  0  0  0  0  0  0  0  0
   -1.5910   19.1830  -33.7760 C   0  0  0  0  0  0  0  0  0  0  0  0
   -1.8323   22.5712  -33.3826 H   0  0  0  0  0  0  0  0  0  0  0  0
   -4.2570   22.0001  -33.4113 H   0  0  0  0  0  0  0  0  0  0  0  0
   -5.9172   20.1947  -34.2756 H   0  0  0  0  0  0  0  0  0  0  0  0
   -5.4701   18.4611  -33.8812 H   0  0  0  0  0  0  0  0  0  0  0  0
   -7.9418   19.5072  -33.0793 H   0  0  0  0  0  0  0  0  0  0  0  0
   -7.8452   19.6409  -31.2567 H   0  0  0  0  0  0  0  0  0  0  0  0
   -7.8517   21.7792  -33.3530 H   0  0  0  0  0  0  0  0  0  0  0  0
   -8.6155   21.6932  -31.6870 H   0  0  0  0  0  0  0  0  0  0  0  0
   -7.7135   24.1991  -32.1086 H   0  0  0  0  0  0  0  0  0  0  0  0
   -5.8975   25.6815  -31.2745 H   0  0  0  0  0  0  0  0  0  0  0  0
   -0.5858   23.2149  -31.0679 H   0  0  0  0  0  0  0  0  0  0  0  0
    0.0264   20.6823  -30.9176 H   0  0  0  0  0  0  0  0  0  0  0  0
   -1.0747   19.4827  -28.8456 H   0  0  0  0  0  0  0  0  0  0  0  0
   -3.4961   22.2126  -30.3257 H   0  0  0  0  0  0  0  0  0  0  0  0
   -4.1555   20.1041  -31.3930 H   0  0  0  0  0  0  0  0  0  0  0  0
   -5.5473   19.9467  -30.2360 H   0  0  0  0  0  0  0  0  0  0  0  0
   -3.2667   17.8190  -33.9332 H   0  0  0  0  0  0  0  0  0  0  0  0
   -0.8415   18.3861  -33.8911 H   0  0  0  0  0  0  0  0  0  0  0  0
  1  2  2  0
  2  3  1  0
  2  4  1  0
  4  5  2  0
  5  6  1  0
  6  7  2  0
  7  8  1  0
  8  9  1  0
  9 10  1  0
 10 11  1  0
 11 12  1  0
 12 13  2  0
 13 14  1  0
 14 15  2  0
 15 16  1  0
 16 17  1  0
 17 18  2  0
 17 19  2  0
 17 20  1  0
 20 21  2  0
 21 22  1  0
 22 23  2  0
 23 24  1  0
 15 25  1  0
 25 26  2  0
 26 27  1  0
  7 28  1  0
 28 29  2  0
 29  4  1  0
 27  9  1  0
 26 12  1  0
 24 20  1  0
  5 30  1  0
  6 31  1  0
  8 32  1  0
  8 33  1  0
 10 34  1  0
 10 35  1  0
 11 36  1  0
 11 37  1  0
 13 38  1  0
 14 39  1  0
 21 40  1  0
 22 41  1  0
 23 42  1  0
 25 43  1  0
 27 44  1  0
 27 45  1  0
 28 46  1  0
 29 47  1  0
M  CHG  2   3  -1  16  -1
M  END
>  <UniqueID>  (29) 
28

>  <SMILES>  (29) 
O=C([O-])c1ccc(CN2CCc3ccc([N-]S(=O)(=O)c4cccs4)cc3C2)cc1

>  <Energy>  (29) 
86.96743594974964

>  <Genealogy>  (29) 
O=C([O-])c1ccc(CN2CCc3ccc([N-]S(=O)(=O)c4cccs4)cc3C2)cc1 (protonated)
O=C([O-])c1ccc(CN2CCc3ccc([N-]S(=O)(=O)c4cccs4)cc3C2)cc1 (3D coordinates assigned)
O=C([O-])c1ccc(CN2CCc3ccc([N-]S(=O)(=O)c4cccs4)cc3C2)cc1 (nonaromatic ring conformer: 86.96743594974964 kcal/mol)

>  <smiles>  (29) 
O=C(O)c1ccc(CN2CCc3ccc(NS(=O)(=O)c4cccs4)cc3C2)cc1

>  <score_type>  (29) 
oracle

>  <origin>  (29) 
adgpu

>  <m_score__min__energy>  (29) 
-11.16

>  <m_primary>  (29) 
energy

$$$$
29:0
     RDKit          3D

 52 55  0  0  0  0  0  0  0  0999 V2000
   -9.3710   20.8170  -31.8160 C   0  0  0  0  0  0  0  0  0  0  0  0
   -8.1710   21.6710  -31.7980 N   0  0  0  0  0  0  0  0  0  0  0  0
   -8.4850   23.0040  -32.3430 C   0  0  0  0  0  0  0  0  0  0  0  0
   -7.1940   23.8110  -32.5220 C   0  0  0  0  0  0  0  0  0  0  0  0
   -6.2880   23.7130  -31.3210 C   0  0  0  0  0  0  0  0  0  0  0  0
   -5.1750   24.5610  -31.2260 C   0  0  0  0  0  0  0  0  0  0  0  0
   -4.2740   24.4350  -30.1650 C   0  0  0  0  0  0  0  0  0  0  0  0
   -3.1660   25.2730  -30.1170 O   0  0  0  0  0  0  0  0  0  0  0  0
   -4.4810   23.4660  -29.1660 C   0  0  0  0  0  0  0  0  0  0  0  0
   -3.5300   23.3180  -28.0960 N   0  0  0  0  0  0  0  0  0  0  0  0
   -2.5450   21.9020  -27.8700 S   0  0  0  0  0  0  0  0  0  0  0  0
   -1.3260   22.2670  -27.0680 O   0  0  0  0  0  0  0  0  0  0  0  0
   -3.3290   20.8650  -27.1110 O   0  0  0  0  0  0  0  0  0  0  0  0
   -2.0130   21.2690  -29.4280 C   0  0  0  0  0  0  0  0  0  0  0  0
   -0.6950   20.8210  -29.5830 C   0  0  0  0  0  0  0  0  0  0  0  0
   -0.2490   20.3760  -30.8280 C   0  0  0  0  0  0  0  0  0  0  0  0
   -1.1110   20.3890  -31.9290 C   0  0  0  0  0  0  0  0  0  0  0  0
   -2.4280   20.8450  -31.7860 C   0  0  0  0  0  0  0  0  0  0  0  0
   -3.5060   20.8990  -33.1760 S   0  0  0  0  0  0  0  0  0  0  0  0
   -4.0630   22.2890  -33.3340 O   0  0  0  0  0  0  0  0  0  0  0  0
   -2.7470   20.5570  -34.4300 O   0  0  0  0  0  0  0  0  0  0  0  0
   -4.8130   19.7440  -32.9390 C   0  0  0  0  0  0  0  0  0  0  0  0
   -5.2420   18.9470  -34.0110 C   0  0  0  0  0  0  0  0  0  0  0  0
   -6.2740   18.0210  -33.8290 C   0  0  0  0  0  0  0  0  0  0  0  0
   -6.8790   17.8850  -32.5760 C   0  0  0  0  0  0  0  0  0  0  0  0
   -6.4500   18.6720  -31.5030 C   0  0  0  0  0  0  0  0  0  0  0  0
   -5.4160   19.5970  -31.6800 C   0  0  0  0  0  0  0  0  0  0  0  0
   -2.8830   21.2570  -30.5290 C   0  0  0  0  0  0  0  0  0  0  0  0
   -5.6230   22.6520  -29.2390 C   0  0  0  0  0  0  0  0  0  0  0  0
   -6.4900   22.7280  -30.3370 C   0  0  0  0  0  0  0  0  0  0  0  0
   -7.6670   21.7880  -30.4180 C   0  0  0  0  0  0  0  0  0  0  0  0
   -9.6800   20.5971  -30.7835 H   0  0  0  0  0  0  0  0  0  0  0  0
  -10.1853   21.3398  -32.3390 H   0  0  0  0  0  0  0  0  0  0  0  0
   -9.1438   19.8763  -32.3390 H   0  0  0  0  0  0  0  0  0  0  0  0
   -8.9832   22.8918  -33.3173 H   0  0  0  0  0  0  0  0  0  0  0  0
   -9.1497   23.5337  -31.6447 H   0  0  0  0  0  0  0  0  0  0  0  0
   -6.6569   23.4288  -33.4026 H   0  0  0  0  0  0  0  0  0  0  0  0
   -7.4720   24.8677  -32.6490 H   0  0  0  0  0  0  0  0  0  0  0  0
   -5.0097   25.3319  -31.9931 H   0  0  0  0  0  0  0  0  0  0  0  0
   -3.3190   24.1340  -27.4840 H   0  0  0  0  0  0  0  0  0  0  0  0
   -0.0105   20.8200  -28.7219 H   0  0  0  0  0  0  0  0  0  0  0  0
    0.7833   20.0140  -30.9437 H   0  0  0  0  0  0  0  0  0  0  0  0
   -0.7543   20.0405  -32.9094 H   0  0  0  0  0  0  0  0  0  0  0  0
   -4.7655   19.0508  -34.9970 H   0  0  0  0  0  0  0  0  0  0  0  0
   -6.6099   17.3994  -34.6721 H   0  0  0  0  0  0  0  0  0  0  0  0
   -7.6928   17.1586  -32.4343 H   0  0  0  0  0  0  0  0  0  0  0  0
   -6.9267   18.5635  -30.5176 H   0  0  0  0  0  0  0  0  0  0  0  0
   -5.0752   20.2095  -30.8323 H   0  0  0  0  0  0  0  0  0  0  0  0
   -3.9289   21.5734  -30.4028 H   0  0  0  0  0  0  0  0  0  0  0  0
   -5.8396   21.9458  -28.4239 H   0  0  0  0  0  0  0  0  0  0  0  0
   -7.3552   20.7936  -30.0659 H   0  0  0  0  0  0  0  0  0  0  0  0
   -8.4743   22.1909  -29.7888 H   0  0  0  0  0  0  0  0  0  0  0  0
  1  2  1  0
  2  3  1  0
  3  4  1  0
  4  5  1  0
  5  6  2  0
  6  7  1  0
  7  8  1  0
  7  9  2  0
  9 10  1  0
 10 11  1  0
 11 12  2  0
 11 13  2  0
 11 14  1  0
 14 15  2  0
 15 16  1  0
 16 17  2  0
 17 18  1  0
 18 19  1  0
 19 20  2  0
 19 21  2  0
 19 22  1  0
 22 23  2  0
 23 24  1  0
 24 25  2  0
 25 26  1  0
 26 27  2  0
 18 28  2  0
  9 29  1  0
 29 30  2  0
 30 31  1  0
 31  2  1  0
 30  5  1  0
 28 14  1  0
 27 22  1  0
  1 32  1  0
  1 33  1  0
  1 34  1  0
  3 35  1  0
  3 36  1  0
  4 37  1  0
  4 38  1  0
  6 39  1  0
 10 40  1  0
 15 41  1  0
 16 42  1  0
 17 43  1  0
 23 44  1  0
 24 45  1  0
 25 46  1  0
 26 47  1  0
 27 48  1  0
 28 49  1  0
 29 50  1  0
 31 51  1  0
 31 52  1  0
M  CHG  1   8  -1
M  END
>  <UniqueID>  (30) 
29

>  <SMILES>  (30) 
CN1CCc2cc([O-])c(NS(=O)(=O)c3cccc(S(=O)(=O)c4ccccc4)c3)cc2C1

>  <Energy>  (30) 
62.7444184426435

>  <Genealogy>  (30) 
CN1CCc2cc([O-])c(NS(=O)(=O)c3cccc(S(=O)(=O)c4ccccc4)c3)cc2C1 (protonated)
CN1CCc2cc([O-])c(NS(=O)(=O)c3cccc(S(=O)(=O)c4ccccc4)c3)cc2C1 (3D coordinates assigned)
CN1CCc2cc([O-])c(NS(=O)(=O)c3cccc(S(=O)(=O)c4ccccc4)c3)cc2C1 (nonaromatic ring conformer: 62.7444184426435 kcal/mol)

>  <smiles>  (30) 
CN1CCc2cc(O)c(NS(=O)(=O)c3cccc(S(=O)(=O)c4ccccc4)c3)cc2C1

>  <score_type>  (30) 
oracle

>  <origin>  (30) 
adgpu

>  <m_score__min__energy>  (30) 
-14.390000000000001

>  <m_primary>  (30) 
energy

$$$$
30:0
     RDKit          3D

 39 41  0  0  0  0  0  0  0  0999 V2000
   -1.0730   25.9200  -26.7790 O   0  0  0  0  0  0  0  0  0  0  0  0
   -0.8940   25.6110  -27.9860 C   0  0  0  0  0  0  0  0  0  0  0  0
   -1.2470   26.5140  -28.9800 O   0  0  0  0  0  0  0  0  0  0  0  0
   -0.3220   24.3040  -28.3520 C   0  0  0  0  0  0  0  0  0  0  0  0
    0.9300   24.1680  -28.3840 O   0  0  0  0  0  0  0  0  0  0  0  0
   -1.1910   23.1340  -28.7150 C   0  0  0  0  0  0  0  0  0  0  0  0
   -0.9980   22.7050  -30.4800 S   0  0  0  0  0  0  0  0  0  0  0  0
   -2.7630   22.5890  -30.8070 C   0  0  0  0  0  0  0  0  0  0  0  0
   -3.2830   21.4050  -31.3330 C   0  0  0  0  0  0  0  0  0  0  0  0
   -4.6430   21.2910  -31.6300 C   0  0  0  0  0  0  0  0  0  0  0  0
   -5.1140   20.0680  -32.2140 N   0  0  0  0  0  0  0  0  0  0  0  0
   -6.2150   19.3330  -31.5930 C   0  0  0  0  0  0  0  0  0  0  0  0
   -6.0120   17.8320  -31.8150 C   0  0  0  0  0  0  0  0  0  0  0  0
   -5.7870   17.5500  -33.1850 O   0  0  0  0  0  0  0  0  0  0  0  0
   -4.5670   18.1330  -33.6020 C   0  0  0  0  0  0  0  0  0  0  0  0
   -4.6460   19.6620  -33.5380 C   0  0  0  0  0  0  0  0  0  0  0  0
   -5.5130   22.3750  -31.3720 C   0  0  0  0  0  0  0  0  0  0  0  0
   -6.8910   22.2950  -31.6520 C   0  0  0  0  0  0  0  0  0  0  0  0
   -7.7330   23.3770  -31.3880 C   0  0  0  0  0  0  0  0  0  0  0  0
   -7.2160   24.5520  -30.8430 C   0  0  0  0  0  0  0  0  0  0  0  0
   -5.8530   24.6530  -30.5580 C   0  0  0  0  0  0  0  0  0  0  0  0
   -4.9880   23.5740  -30.8160 C   0  0  0  0  0  0  0  0  0  0  0  0
   -3.6110   23.6710  -30.5370 C   0  0  0  0  0  0  0  0  0  0  0  0
   -3.0810   24.8400  -29.9970 O   0  0  0  0  0  0  0  0  0  0  0  0
   -0.9050   22.2679  -28.1001 H   0  0  0  0  0  0  0  0  0  0  0  0
   -2.2412   23.4045  -28.5309 H   0  0  0  0  0  0  0  0  0  0  0  0
   -2.6135   20.5515  -31.5158 H   0  0  0  0  0  0  0  0  0  0  0  0
   -6.2356   19.5451  -30.5138 H   0  0  0  0  0  0  0  0  0  0  0  0
   -7.1677   19.6462  -32.0450 H   0  0  0  0  0  0  0  0  0  0  0  0
   -5.1429   17.4957  -31.2305 H   0  0  0  0  0  0  0  0  0  0  0  0
   -6.9204   17.3026  -31.4915 H   0  0  0  0  0  0  0  0  0  0  0  0
   -3.7574   17.7856  -32.9434 H   0  0  0  0  0  0  0  0  0  0  0  0
   -4.3694   17.8329  -34.6417 H   0  0  0  0  0  0  0  0  0  0  0  0
   -3.6492   20.0892  -33.7220 H   0  0  0  0  0  0  0  0  0  0  0  0
   -5.3467   20.0265  -34.3036 H   0  0  0  0  0  0  0  0  0  0  0  0
   -7.3074   21.3723  -32.0823 H   0  0  0  0  0  0  0  0  0  0  0  0
   -8.8077   23.3024  -31.6106 H   0  0  0  0  0  0  0  0  0  0  0  0
   -7.8839   25.4014  -30.6371 H   0  0  0  0  0  0  0  0  0  0  0  0
   -5.4525   25.5831  -30.1285 H   0  0  0  0  0  0  0  0  0  0  0  0
  1  2  2  0
  2  3  1  0
  2  4  1  0
  4  5  2  0
  4  6  1  0
  6  7  1  0
  7  8  1  0
  8  9  2  0
  9 10  1  0
 10 11  1  0
 11 12  1  0
 12 13  1  0
 13 14  1  0
 14 15  1  0
 15 16  1  0
 10 17  2  0
 17 18  1  0
 18 19  2  0
 19 20  1  0
 20 21  2  0
 21 22  1  0
 22 23  2  0
 23 24  1  0
 23  8  1  0
 16 11  1  0
 22 17  1  0
  6 25  1  0
  6 26  1  0
  9 27  1  0
 12 28  1  0
 12 29  1  0
 13 30  1  0
 13 31  1  0
 15 32  1  0
 15 33  1  0
 16 34  1  0
 16 35  1  0
 18 36  1  0
 19 37  1  0
 20 38  1  0
 21 39  1  0
M  CHG  2   3  -1  24  -1
M  END
>  <UniqueID>  (31) 
30

>  <SMILES>  (31) 
O=C([O-])C(=O)CSc1cc(N2CCOCC2)c2ccccc2c1[O-]

>  <Energy>  (31) 
45.88349333590846

>  <Genealogy>  (31) 
O=C([O-])C(=O)CSc1cc(N2CCOCC2)c2ccccc2c1[O-] (protonated)
O=C([O-])C(=O)CSc1cc(N2CCOCC2)c2ccccc2c1[O-] (3D coordinates assigned)
O=C([O-])C(=O)CSc1cc(N2CCOCC2)c2ccccc2c1[O-] (nonaromatic ring conformer: 45.88349333590846 kcal/mol)

>  <smiles>  (31) 
O=C(O)C(=O)CSc1cc(N2CCOCC2)c2ccccc2c1O

>  <score_type>  (31) 
oracle

>  <origin>  (31) 
adgpu

>  <m_score__min__energy>  (31) 
-11.18

>  <m_primary>  (31) 
energy

$$$$
31:0
     RDKit          3D

 67 70  0  0  0  0  0  0  0  0999 V2000
    0.7720   19.1120  -28.0640 C   0  0  0  0  0  0  0  0  0  0  0  0
    0.2140   20.4330  -28.5260 C   0  0  0  0  0  0  0  0  0  0  0  0
   -0.0740   21.4100  -27.5600 C   0  0  0  0  0  0  0  0  0  0  0  0
   -0.5760   22.6540  -27.9320 C   0  0  0  0  0  0  0  0  0  0  0  0
   -0.8600   22.9270  -29.2690 C   0  0  0  0  0  0  0  0  0  0  0  0
   -1.3130   24.2340  -29.6320 N   0  0  0  0  0  0  0  0  0  0  0  0
   -2.5450   24.8050  -29.1840 C   0  0  0  0  0  0  0  0  0  0  0  0
   -2.7730   24.9330  -27.9540 O   0  0  0  0  0  0  0  0  0  0  0  0
   -3.4910   25.2970  -30.1350 N   0  0  0  0  0  0  0  0  0  0  0  0
   -4.6940   24.5800  -30.4360 C   0  0  0  0  0  0  0  0  0  0  0  0
   -5.9290   25.1310  -30.0770 C   0  0  0  0  0  0  0  0  0  0  0  0
   -7.1140   24.4900  -30.4330 C   0  0  0  0  0  0  0  0  0  0  0  0
   -7.0760   23.2910  -31.1470 C   0  0  0  0  0  0  0  0  0  0  0  0
   -5.8460   22.6980  -31.4820 C   0  0  0  0  0  0  0  0  0  0  0  0
   -5.8470   21.1420  -32.3330 S   0  0  0  0  0  0  0  0  0  0  0  0
   -4.4550   21.0300  -33.4390 C   0  0  0  0  0  0  0  0  0  0  0  0
   -7.1020   21.0090  -33.1490 O   0  0  0  0  0  0  0  0  0  0  0  0
   -5.8070   20.0200  -31.3320 O   0  0  0  0  0  0  0  0  0  0  0  0
   -4.6420   23.3440  -31.1070 C   0  0  0  0  0  0  0  0  0  0  0  0
   -3.3840   22.7820  -31.3510 O   0  0  0  0  0  0  0  0  0  0  0  0
   -0.5900   21.9640  -30.2510 C   0  0  0  0  0  0  0  0  0  0  0  0
   -0.8340   22.2770  -31.5820 O   0  0  0  0  0  0  0  0  0  0  0  0
   -0.0270   20.7150  -29.8990 C   0  0  0  0  0  0  0  0  0  0  0  0
    0.5400   19.6170  -31.1880 S   0  0  0  0  0  0  0  0  0  0  0  0
    1.7920   18.9040  -30.7590 O   0  0  0  0  0  0  0  0  0  0  0  0
    0.8630   20.3900  -32.4360 O   0  0  0  0  0  0  0  0  0  0  0  0
   -0.7480   18.4060  -31.5480 C   0  0  0  0  0  0  0  0  0  0  0  0
   -0.1800   17.2340  -32.3810 C   0  0  0  0  0  0  0  0  0  0  0  0
   -1.2780   16.5800  -33.2170 C   0  0  0  0  0  0  0  0  0  0  0  0
   -1.7970   17.5370  -34.2200 N   0  0  0  0  0  0  0  0  0  0  0  0
   -2.9470   17.0240  -34.9990 C   0  0  0  0  0  0  0  0  0  0  0  0
   -4.2770   17.1580  -34.2840 C   0  0  0  0  0  0  0  0  0  0  0  0
   -5.2590   18.0360  -34.7790 C   0  0  0  0  0  0  0  0  0  0  0  0
   -6.4810   18.1750  -34.1150 C   0  0  0  0  0  0  0  0  0  0  0  0
   -6.7310   17.4490  -32.9480 C   0  0  0  0  0  0  0  0  0  0  0  0
   -5.7600   16.5810  -32.4440 C   0  0  0  0  0  0  0  0  0  0  0  0
   -4.5360   16.4370  -33.1050 C   0  0  0  0  0  0  0  0  0  0  0  0
   -1.9360   18.9410  -33.7540 C   0  0  0  0  0  0  0  0  0  0  0  0
   -1.9790   19.0630  -32.2200 C   0  0  0  0  0  0  0  0  0  0  0  0
    0.7841   19.0835  -26.9644 H   0  0  0  0  0  0  0  0  0  0  0  0
    0.1423   18.2945  -28.4451 H   0  0  0  0  0  0  0  0  0  0  0  0
    1.7970   18.9935  -28.4451 H   0  0  0  0  0  0  0  0  0  0  0  0
    0.0991   21.1899  -26.4962 H   0  0  0  0  0  0  0  0  0  0  0  0
   -0.7494   23.4253  -27.1671 H   0  0  0  0  0  0  0  0  0  0  0  0
   -5.9646   26.0739  -29.5115 H   0  0  0  0  0  0  0  0  0  0  0  0
   -8.0819   24.9299  -30.1507 H   0  0  0  0  0  0  0  0  0  0  0  0
   -8.0159   22.8063  -31.4499 H   0  0  0  0  0  0  0  0  0  0  0  0
   -3.5267   20.9553  -32.8536 H   0  0  0  0  0  0  0  0  0  0  0  0
   -4.5614   20.1375  -34.0731 H   0  0  0  0  0  0  0  0  0  0  0  0
   -4.4174   21.9280  -34.0731 H   0  0  0  0  0  0  0  0  0  0  0  0
   -2.5140   23.1890  -31.0400 H   0  0  0  0  0  0  0  0  0  0  0  0
   -1.1017   17.9895  -30.5933 H   0  0  0  0  0  0  0  0  0  0  0  0
    0.6047   17.6150  -33.0511 H   0  0  0  0  0  0  0  0  0  0  0  0
    0.2349   16.4819  -31.6938 H   0  0  0  0  0  0  0  0  0  0  0  0
   -0.8660   15.7005  -33.7334 H   0  0  0  0  0  0  0  0  0  0  0  0
   -2.1005   16.2753  -32.5531 H   0  0  0  0  0  0  0  0  0  0  0  0
   -3.0032   17.5836  -35.9443 H   0  0  0  0  0  0  0  0  0  0  0  0
   -2.7741   15.9492  -35.1566 H   0  0  0  0  0  0  0  0  0  0  0  0
   -5.0639   18.6159  -35.6932 H   0  0  0  0  0  0  0  0  0  0  0  0
   -7.2472   18.8572  -34.5120 H   0  0  0  0  0  0  0  0  0  0  0  0
   -7.6928   17.5610  -32.4260 H   0  0  0  0  0  0  0  0  0  0  0  0
   -5.9583   16.0094  -31.5253 H   0  0  0  0  0  0  0  0  0  0  0  0
   -3.7723   15.7564  -32.7006 H   0  0  0  0  0  0  0  0  0  0  0  0
   -1.0796   19.5211  -34.1281 H   0  0  0  0  0  0  0  0  0  0  0  0
   -2.8915   19.3239  -34.1419 H   0  0  0  0  0  0  0  0  0  0  0  0
   -2.0038   20.1290  -31.9496 H   0  0  0  0  0  0  0  0  0  0  0  0
   -2.8786   18.5396  -31.8639 H   0  0  0  0  0  0  0  0  0  0  0  0
  1  2  1  0
  2  3  2  0
  3  4  1  0
  4  5  2  0
  5  6  1  0
  6  7  1  0
  7  8  2  0
  7  9  1  0
  9 10  1  0
 10 11  2  0
 11 12  1  0
 12 13  2  0
 13 14  1  0
 14 15  1  0
 15 16  1  0
 15 17  2  0
 15 18  2  0
 14 19  2  0
 19 20  1  0
  5 21  1  0
 21 22  1  0
 21 23  2  0
 23 24  1  0
 24 25  2  0
 24 26  2  0
 24 27  1  0
 27 28  1  0
 28 29  1  0
 29 30  1  0
 30 31  1  0
 31 32  1  0
 32 33  2  0
 33 34  1  0
 34 35  2  0
 35 36  1  0
 36 37  2  0
 30 38  1  0
 38 39  1  0
 23  2  1  0
 39 27  1  0
 19 10  1  0
 37 32  1  0
  1 40  1  0
  1 41  1  0
  1 42  1  0
  3 43  1  0
  4 44  1  0
 11 45  1  0
 12 46  1  0
 13 47  1  0
 16 48  1  0
 16 49  1  0
 16 50  1  0
 20 51  1  0
 27 52  1  0
 28 53  1  0
 28 54  1  0
 29 55  1  0
 29 56  1  0
 31 57  1  0
 31 58  1  0
 33 59  1  0
 34 60  1  0
 35 61  1  0
 36 62  1  0
 37 63  1  0
 38 64  1  0
 38 65  1  0
 39 66  1  0
 39 67  1  0
M  CHG  3   6  -1   9  -1  22  -1
M  END
>  <UniqueID>  (32) 
31

>  <SMILES>  (32) 
Cc1ccc([N-]C(=O)[N-]c2cccc(S(C)(=O)=O)c2O)c([O-])c1S(=O)(=O)C1CCN(Cc2ccccc2)CC1

>  <Energy>  (32) 
93.8671993462395

>  <Genealogy>  (32) 
Cc1ccc([N-]C(=O)[N-]c2cccc(S(C)(=O)=O)c2O)c([O-])c1S(=O)(=O)C1CCN(Cc2ccccc2)CC1 (protonated)
Cc1ccc([N-]C(=O)[N-]c2cccc(S(C)(=O)=O)c2O)c([O-])c1S(=O)(=O)C1CCN(Cc2ccccc2)CC1 (3D coordinates assigned)
Cc1ccc([N-]C(=O)[N-]c2cccc(S(C)(=O)=O)c2O)c([O-])c1S(=O)(=O)C1CCN(Cc2ccccc2)CC1 (nonaromatic ring conformer: 93.8671993462395 kcal/mol)

>  <smiles>  (32) 
Cc1ccc(NC(=O)Nc2cccc(S(C)(=O)=O)c2O)c(O)c1S(=O)(=O)C1CCN(Cc2ccccc2)CC1

>  <score_type>  (32) 
oracle

>  <origin>  (32) 
adgpu

>  <m_score__min__energy>  (32) 
-14.949999999999999

>  <m_primary>  (32) 
energy

$$$$
32:0
     RDKit          3D

 55 58  0  0  0  0  0  0  0  0999 V2000
   -3.2060   21.1690  -27.7400 C   0  0  0  0  0  0  0  0  0  0  0  0
   -2.1640   22.1310  -28.2490 C   0  0  0  0  0  0  0  0  0  0  0  0
   -0.8400   21.6790  -28.3900 C   0  0  0  0  0  0  0  0  0  0  0  0
    0.1610   22.5380  -28.8420 C   0  0  0  0  0  0  0  0  0  0  0  0
   -0.1430   23.8600  -29.1550 C   0  0  0  0  0  0  0  0  0  0  0  0
   -1.4490   24.3360  -29.0190 C   0  0  0  0  0  0  0  0  0  0  0  0
   -1.7100   25.6660  -29.3320 O   0  0  0  0  0  0  0  0  0  0  0  0
   -2.4800   23.4800  -28.5670 C   0  0  0  0  0  0  0  0  0  0  0  0
   -3.8890   24.0240  -28.3990 C   0  0  0  0  0  0  0  0  0  0  0  0
   -4.7140   23.8310  -29.6520 C   0  0  0  0  0  0  0  0  0  0  0  0
   -5.3760   22.6090  -29.8660 C   0  0  0  0  0  0  0  0  0  0  0  0
   -6.1700   22.4060  -31.0070 C   0  0  0  0  0  0  0  0  0  0  0  0
   -6.8400   21.1000  -31.2150 C   0  0  0  0  0  0  0  0  0  0  0  0
   -7.9190   20.8610  -30.6090 O   0  0  0  0  0  0  0  0  0  0  0  0
   -6.3010   20.1110  -32.1150 N   0  0  0  0  0  0  0  0  0  0  0  0
   -4.8470   19.9690  -32.3000 C   0  0  0  0  0  0  0  0  0  0  0  0
   -4.4590   18.4870  -32.3250 C   0  0  0  0  0  0  0  0  0  0  0  0
   -5.3210   17.7190  -33.2350 N   0  0  0  0  0  0  0  0  0  0  0  0
   -4.9630   16.3640  -33.5690 C   0  0  0  0  0  0  0  0  0  0  0  0
   -5.3200   15.3140  -32.7060 C   0  0  0  0  0  0  0  0  0  0  0  0
   -4.9860   13.9940  -33.0200 C   0  0  0  0  0  0  0  0  0  0  0  0
   -4.2890   13.7090  -34.1960 C   0  0  0  0  0  0  0  0  0  0  0  0
   -3.9220   14.7440  -35.0590 C   0  0  0  0  0  0  0  0  0  0  0  0
   -4.2500   16.0720  -34.7510 C   0  0  0  0  0  0  0  0  0  0  0  0
   -3.8540   17.1010  -35.6050 O   0  0  0  0  0  0  0  0  0  0  0  0
   -6.4950   18.3490  -33.8540 C   0  0  0  0  0  0  0  0  0  0  0  0
   -7.2270   19.2210  -32.8290 C   0  0  0  0  0  0  0  0  0  0  0  0
   -6.2930   23.4440  -31.9500 C   0  0  0  0  0  0  0  0  0  0  0  0
   -7.0700   23.2800  -33.0920 O   0  0  0  0  0  0  0  0  0  0  0  0
   -5.6480   24.6640  -31.7380 C   0  0  0  0  0  0  0  0  0  0  0  0
   -4.8700   24.8670  -30.5940 C   0  0  0  0  0  0  0  0  0  0  0  0
   -4.2560   26.1010  -30.4080 O   0  0  0  0  0  0  0  0  0  0  0  0
   -3.2022   21.1726  -26.6400 H   0  0  0  0  0  0  0  0  0  0  0  0
   -4.1975   21.4760  -28.1042 H   0  0  0  0  0  0  0  0  0  0  0  0
   -2.9790   20.1562  -28.1042 H   0  0  0  0  0  0  0  0  0  0  0  0
   -0.5913   20.6368  -28.1411 H   0  0  0  0  0  0  0  0  0  0  0  0
    1.1921   22.1707  -28.9514 H   0  0  0  0  0  0  0  0  0  0  0  0
    0.6501   24.5337  -29.5116 H   0  0  0  0  0  0  0  0  0  0  0  0
   -4.3776   23.4981  -27.5655 H   0  0  0  0  0  0  0  0  0  0  0  0
   -3.8191   25.1029  -28.1961 H   0  0  0  0  0  0  0  0  0  0  0  0
   -5.2705   21.7996  -29.1286 H   0  0  0  0  0  0  0  0  0  0  0  0
   -4.5543   20.4373  -33.2513 H   0  0  0  0  0  0  0  0  0  0  0  0
   -4.3290   20.4616  -31.4639 H   0  0  0  0  0  0  0  0  0  0  0  0
   -3.4152   18.3965  -32.6602 H   0  0  0  0  0  0  0  0  0  0  0  0
   -4.5812   18.0814  -31.3099 H   0  0  0  0  0  0  0  0  0  0  0  0
   -5.8663   15.5328  -31.7766 H   0  0  0  0  0  0  0  0  0  0  0  0
   -5.2725   13.1783  -32.3399 H   0  0  0  0  0  0  0  0  0  0  0  0
   -4.0289   12.6691  -34.4427 H   0  0  0  0  0  0  0  0  0  0  0  0
   -3.3731   14.5163  -35.9846 H   0  0  0  0  0  0  0  0  0  0  0  0
   -4.1130   17.1080  -36.5840 H   0  0  0  0  0  0  0  0  0  0  0  0
   -6.1693   18.9752  -34.6977 H   0  0  0  0  0  0  0  0  0  0  0  0
   -7.1778   17.5642  -34.2117 H   0  0  0  0  0  0  0  0  0  0  0  0
   -7.9776   19.8321  -33.3517 H   0  0  0  0  0  0  0  0  0  0  0  0
   -7.7036   18.5581  -32.0918 H   0  0  0  0  0  0  0  0  0  0  0  0
   -5.7527   25.4721  -32.4770 H   0  0  0  0  0  0  0  0  0  0  0  0
  1  2  1  0
  2  3  2  0
  3  4  1  0
  4  5  2  0
  5  6  1  0
  6  7  1  0
  6  8  2  0
  8  9  1  0
  9 10  1  0
 10 11  2  0
 11 12  1  0
 12 13  1  0
 13 14  2  0
 13 15  1  0
 15 16  1  0
 16 17  1  0
 17 18  1  0
 18 19  1  0
 19 20  2  0
 20 21  1  0
 21 22  2  0
 22 23  1  0
 23 24  2  0
 24 25  1  0
 18 26  1  0
 26 27  1  0
 12 28  2  0
 28 29  1  0
 28 30  1  0
 30 31  2  0
 31 32  1  0
  8  2  1  0
 31 10  1  0
 27 15  1  0
 24 19  1  0
  1 33  1  0
  1 34  1  0
  1 35  1  0
  3 36  1  0
  4 37  1  0
  5 38  1  0
  9 39  1  0
  9 40  1  0
 11 41  1  0
 16 42  1  0
 16 43  1  0
 17 44  1  0
 17 45  1  0
 20 46  1  0
 21 47  1  0
 22 48  1  0
 23 49  1  0
 25 50  1  0
 26 51  1  0
 26 52  1  0
 27 53  1  0
 27 54  1  0
 30 55  1  0
M  CHG  3   7  -1  29  -1  32  -1
M  END
>  <UniqueID>  (33) 
32

>  <SMILES>  (33) 
Cc1cccc([O-])c1Cc1cc(C(=O)N2CCN(c3ccccc3O)CC2)c([O-])cc1[O-]

>  <Energy>  (33) 
70.86702392440237

>  <Genealogy>  (33) 
Cc1cccc([O-])c1Cc1cc(C(=O)N2CCN(c3ccccc3O)CC2)c([O-])cc1[O-] (protonated)
Cc1cccc([O-])c1Cc1cc(C(=O)N2CCN(c3ccccc3O)CC2)c([O-])cc1[O-] (3D coordinates assigned)
Cc1cccc([O-])c1Cc1cc(C(=O)N2CCN(c3ccccc3O)CC2)c([O-])cc1[O-] (nonaromatic ring conformer: 70.86702392440237 kcal/mol)

>  <smiles>  (33) 
Cc1cccc(O)c1Cc1cc(C(=O)N2CCN(c3ccccc3O)CC2)c(O)cc1O

>  <score_type>  (33) 
oracle

>  <origin>  (33) 
adgpu

>  <m_score__min__energy>  (33) 
-14.050000000000001

>  <m_primary>  (33) 
energy

$$$$
33:0
     RDKit          3D

 49 52  0  0  0  0  0  0  0  0999 V2000
   -0.4580   19.4080  -29.4290 C   0  0  0  0  0  0  0  0  0  0  0  0
   -0.1550   19.8730  -28.0630 N   0  0  0  0  0  0  0  0  0  0  0  0
   -1.1840   19.4650  -27.0860 C   0  0  0  0  0  0  0  0  0  0  0  0
   -2.5520   20.1020  -27.3770 C   0  0  0  0  0  0  0  0  0  0  0  0
   -2.4390   21.5600  -27.7380 C   0  0  0  0  0  0  0  0  0  0  0  0
   -3.6090   22.3250  -27.8450 C   0  0  0  0  0  0  0  0  0  0  0  0
   -3.5610   23.6530  -28.3020 C   0  0  0  0  0  0  0  0  0  0  0  0
   -4.7630   24.3770  -28.6000 N   0  0  0  0  0  0  0  0  0  0  0  0
   -5.1660   24.9140  -30.2040 S   0  0  0  0  0  0  0  0  0  0  0  0
   -3.9080   25.3290  -30.9230 O   0  0  0  0  0  0  0  0  0  0  0  0
   -6.1060   26.0920  -30.1100 O   0  0  0  0  0  0  0  0  0  0  0  0
   -5.9180   23.5900  -31.0980 C   0  0  0  0  0  0  0  0  0  0  0  0
   -7.3120   23.4350  -31.1110 C   0  0  0  0  0  0  0  0  0  0  0  0
   -7.8880   22.3170  -31.7200 C   0  0  0  0  0  0  0  0  0  0  0  0
   -7.0770   21.3370  -32.2990 C   0  0  0  0  0  0  0  0  0  0  0  0
   -5.6780   21.4910  -32.3130 C   0  0  0  0  0  0  0  0  0  0  0  0
   -5.1070   22.6330  -31.7270 C   0  0  0  0  0  0  0  0  0  0  0  0
   -4.8730   20.4560  -32.9250 N   0  0  0  0  0  0  0  0  0  0  0  0
   -3.4430   20.3210  -32.6240 C   0  0  0  0  0  0  0  0  0  0  0  0
   -5.5330   19.4990  -33.8240 C   0  0  0  0  0  0  0  0  0  0  0  0
   -6.8700   19.0580  -33.2210 C   0  0  0  0  0  0  0  0  0  0  0  0
   -7.6570   20.1970  -32.8640 O   0  0  0  0  0  0  0  0  0  0  0  0
   -2.3210   24.2420  -28.5750 C   0  0  0  0  0  0  0  0  0  0  0  0
   -2.2640   25.5700  -28.9990 O   0  0  0  0  0  0  0  0  0  0  0  0
   -1.1450   23.4840  -28.4590 C   0  0  0  0  0  0  0  0  0  0  0  0
   -1.2010   22.1330  -28.0910 C   0  0  0  0  0  0  0  0  0  0  0  0
    0.0800   21.3300  -28.0120 C   0  0  0  0  0  0  0  0  0  0  0  0
   -1.0579   18.4874  -29.3783 H   0  0  0  0  0  0  0  0  0  0  0  0
   -1.0236   20.1852  -29.9639 H   0  0  0  0  0  0  0  0  0  0  0  0
    0.4814   19.2045  -29.9639 H   0  0  0  0  0  0  0  0  0  0  0  0
   -1.2893   18.3706  -27.1199 H   0  0  0  0  0  0  0  0  0  0  0  0
   -0.8585   19.8075  -26.0927 H   0  0  0  0  0  0  0  0  0  0  0  0
   -3.0209   19.5655  -28.2150 H   0  0  0  0  0  0  0  0  0  0  0  0
   -3.1588   20.0280  -26.4625 H   0  0  0  0  0  0  0  0  0  0  0  0
   -4.5762   21.8803  -27.5679 H   0  0  0  0  0  0  0  0  0  0  0  0
   -7.9531   24.1952  -30.6408 H   0  0  0  0  0  0  0  0  0  0  0  0
   -8.9823   22.2080  -31.7438 H   0  0  0  0  0  0  0  0  0  0  0  0
   -4.0171   22.7780  -31.7614 H   0  0  0  0  0  0  0  0  0  0  0  0
   -3.2975   20.3073  -31.5338 H   0  0  0  0  0  0  0  0  0  0  0  0
   -3.0642   19.3831  -33.0563 H   0  0  0  0  0  0  0  0  0  0  0  0
   -2.8954   21.1714  -33.0563 H   0  0  0  0  0  0  0  0  0  0  0  0
   -5.7118   19.9770  -34.7985 H   0  0  0  0  0  0  0  0  0  0  0  0
   -4.8862   18.6191  -33.9559 H   0  0  0  0  0  0  0  0  0  0  0  0
   -7.4192   18.4553  -33.9594 H   0  0  0  0  0  0  0  0  0  0  0  0
   -6.6740   18.4628  -32.3169 H   0  0  0  0  0  0  0  0  0  0  0  0
   -3.0880   26.0490  -29.3420 H   0  0  0  0  0  0  0  0  0  0  0  0
   -0.1711   23.9547  -28.6587 H   0  0  0  0  0  0  0  0  0  0  0  0
    0.7245   21.6120  -28.8576 H   0  0  0  0  0  0  0  0  0  0  0  0
    0.5539   21.5558  -27.0453 H   0  0  0  0  0  0  0  0  0  0  0  0
  1  2  1  0
  2  3  1  0
  3  4  1  0
  4  5  1  0
  5  6  2  0
  6  7  1  0
  7  8  1  0
  8  9  1  0
  9 10  2  0
  9 11  2  0
  9 12  1  0
 12 13  2  0
 13 14  1  0
 14 15  2  0
 15 16  1  0
 16 17  2  0
 16 18  1  0
 18 19  1  0
 18 20  1  0
 20 21  1  0
 21 22  1  0
  7 23  2  0
 23 24  1  0
 23 25  1  0
 25 26  2  0
 26 27  1  0
 27  2  1  0
 26  5  1  0
 17 12  1  0
 22 15  1  0
  1 28  1  0
  1 29  1  0
  1 30  1  0
  3 31  1  0
  3 32  1  0
  4 33  1  0
  4 34  1  0
  6 35  1  0
 13 36  1  0
 14 37  1  0
 17 38  1  0
 19 39  1  0
 19 40  1  0
 19 41  1  0
 20 42  1  0
 20 43  1  0
 21 44  1  0
 21 45  1  0
 24 46  1  0
 25 47  1  0
 27 48  1  0
 27 49  1  0
M  CHG  1   8  -1
M  END
>  <UniqueID>  (34) 
33

>  <SMILES>  (34) 
CN1CCc2cc([N-]S(=O)(=O)c3ccc4c(c3)N(C)CCO4)c(O)cc2C1

>  <Energy>  (34) 
59.30618721048102

>  <Genealogy>  (34) 
CN1CCc2cc([N-]S(=O)(=O)c3ccc4c(c3)N(C)CCO4)c(O)cc2C1 (protonated)
CN1CCc2cc([N-]S(=O)(=O)c3ccc4c(c3)N(C)CCO4)c(O)cc2C1 (3D coordinates assigned)
CN1CCc2cc([N-]S(=O)(=O)c3ccc4c(c3)N(C)CCO4)c(O)cc2C1 (nonaromatic ring conformer: 59.30618721048102 kcal/mol)

>  <smiles>  (34) 
CN1CCc2cc(NS(=O)(=O)c3ccc4c(c3)N(C)CCO4)c(O)cc2C1

>  <score_type>  (34) 
oracle

>  <origin>  (34) 
adgpu

>  <m_score__min__energy>  (34) 
-11.98

>  <m_primary>  (34) 
energy

$$$$
34:0
     RDKit          3D

 58 61  0  0  0  0  0  0  0  0999 V2000
   -3.8540   21.6010  -28.3080 O   0  0  0  0  0  0  0  0  0  0  0  0
   -2.9510   21.6060  -29.1900 C   0  0  0  0  0  0  0  0  0  0  0  0
   -3.0880   22.4550  -30.3410 N   0  0  0  0  0  0  0  0  0  0  0  0
   -4.3400   23.0320  -30.7440 C   0  0  0  0  0  0  0  0  0  0  0  0
   -5.4240   22.1860  -31.0260 C   0  0  0  0  0  0  0  0  0  0  0  0
   -6.6640   22.7160  -31.4050 C   0  0  0  0  0  0  0  0  0  0  0  0
   -8.0240   21.6420  -31.7490 S   0  0  0  0  0  0  0  0  0  0  0  0
   -9.1610   22.4490  -32.3120 O   0  0  0  0  0  0  0  0  0  0  0  0
   -8.4920   21.0090  -30.4680 O   0  0  0  0  0  0  0  0  0  0  0  0
   -7.5840   20.3900  -32.8890 N   0  0  0  0  0  0  0  0  0  0  0  0
   -6.1590   20.4770  -33.2740 C   0  0  0  0  0  0  0  0  0  0  0  0
   -5.3110   19.3830  -32.6000 C   0  0  0  0  0  0  0  0  0  0  0  0
   -5.7510   18.0660  -32.9000 O   0  0  0  0  0  0  0  0  0  0  0  0
   -7.1600   17.9570  -33.0700 C   0  0  0  0  0  0  0  0  0  0  0  0
   -7.9640   19.0630  -32.3690 C   0  0  0  0  0  0  0  0  0  0  0  0
   -6.8200   24.1050  -31.5040 C   0  0  0  0  0  0  0  0  0  0  0  0
   -5.7550   24.9550  -31.2030 C   0  0  0  0  0  0  0  0  0  0  0  0
   -4.5210   24.4270  -30.8100 C   0  0  0  0  0  0  0  0  0  0  0  0
   -3.4930   25.2970  -30.4620 O   0  0  0  0  0  0  0  0  0  0  0  0
   -1.7430   20.7650  -29.0020 C   0  0  0  0  0  0  0  0  0  0  0  0
   -1.0530   20.2350  -30.1070 C   0  0  0  0  0  0  0  0  0  0  0  0
    0.0780   19.4350  -29.9200 C   0  0  0  0  0  0  0  0  0  0  0  0
    0.5330   19.1440  -28.6270 C   0  0  0  0  0  0  0  0  0  0  0  0
    1.9510   18.1160  -28.3910 S   0  0  0  0  0  0  0  0  0  0  0  0
    3.1360   18.9770  -28.0530 O   0  0  0  0  0  0  0  0  0  0  0  0
    2.2530   17.3900  -29.6730 O   0  0  0  0  0  0  0  0  0  0  0  0
    1.6950   16.9490  -27.1130 N   0  0  0  0  0  0  0  0  0  0  0  0
    2.9520   16.6390  -26.3960 C   0  0  0  0  0  0  0  0  0  0  0  0
    3.5130   15.2580  -26.7830 C   0  0  0  0  0  0  0  0  0  0  0  0
    2.6050   14.1930  -26.5300 O   0  0  0  0  0  0  0  0  0  0  0  0
    1.2380   14.5490  -26.7040 C   0  0  0  0  0  0  0  0  0  0  0  0
    1.0180   15.7490  -27.6400 C   0  0  0  0  0  0  0  0  0  0  0  0
   -0.1490   19.6710  -27.5230 C   0  0  0  0  0  0  0  0  0  0  0  0
   -1.2800   20.4690  -27.7070 C   0  0  0  0  0  0  0  0  0  0  0  0
   -2.2180   22.8140  -30.7950 H   0  0  0  0  0  0  0  0  0  0  0  0
   -5.2985   21.0959  -30.9486 H   0  0  0  0  0  0  0  0  0  0  0  0
   -6.0787   20.3664  -34.3655 H   0  0  0  0  0  0  0  0  0  0  0  0
   -5.7771   21.4543  -32.9437 H   0  0  0  0  0  0  0  0  0  0  0  0
   -4.2702   19.4892  -32.9397 H   0  0  0  0  0  0  0  0  0  0  0  0
   -5.4082   19.5191  -31.5128 H   0  0  0  0  0  0  0  0  0  0  0  0
   -7.3822   17.9979  -34.1465 H   0  0  0  0  0  0  0  0  0  0  0  0
   -7.4623   17.0048  -32.6096 H   0  0  0  0  0  0  0  0  0  0  0  0
   -9.0369   18.8984  -32.5475 H   0  0  0  0  0  0  0  0  0  0  0  0
   -7.7481   19.0294  -31.2909 H   0  0  0  0  0  0  0  0  0  0  0  0
   -7.7854   24.5269  -31.8201 H   0  0  0  0  0  0  0  0  0  0  0  0
   -5.8866   26.0447  -31.2751 H   0  0  0  0  0  0  0  0  0  0  0  0
   -1.4060   20.4516  -31.1261 H   0  0  0  0  0  0  0  0  0  0  0  0
    0.6135   19.0319  -30.7922 H   0  0  0  0  0  0  0  0  0  0  0  0
    3.6997   17.4074  -26.6420 H   0  0  0  0  0  0  0  0  0  0  0  0
    2.7333   16.6263  -25.3180 H   0  0  0  0  0  0  0  0  0  0  0  0
    3.7517   15.2661  -27.8567 H   0  0  0  0  0  0  0  0  0  0  0  0
    4.4041   15.0819  -26.1626 H   0  0  0  0  0  0  0  0  0  0  0  0
    0.7054   13.6821  -27.1221 H   0  0  0  0  0  0  0  0  0  0  0  0
    0.8576   14.8433  -25.7147 H   0  0  0  0  0  0  0  0  0  0  0  0
    1.4248   15.5116  -28.6340 H   0  0  0  0  0  0  0  0  0  0  0  0
   -0.0609   15.9519  -27.7091 H   0  0  0  0  0  0  0  0  0  0  0  0
    0.2083   19.4551  -26.5053 H   0  0  0  0  0  0  0  0  0  0  0  0
   -1.8133   20.8695  -26.8322 H   0  0  0  0  0  0  0  0  0  0  0  0
  1  2  2  0
  2  3  1  0
  3  4  1  0
  4  5  2  0
  5  6  1  0
  6  7  1  0
  7  8  2  0
  7  9  2  0
  7 10  1  0
 10 11  1  0
 11 12  1  0
 12 13  1  0
 13 14  1  0
 14 15  1  0
  6 16  2  0
 16 17  1  0
 17 18  2  0
 18 19  1  0
  2 20  1  0
 20 21  2  0
 21 22  1  0
 22 23  2  0
 23 24  1  0
 24 25  2  0
 24 26  2  0
 24 27  1  0
 27 28  1  0
 28 29  1  0
 29 30  1  0
 30 31  1  0
 31 32  1  0
 23 33  1  0
 33 34  2  0
 18  4  1  0
 34 20  1  0
 15 10  1  0
 32 27  1  0
  3 35  1  0
  5 36  1  0
 11 37  1  0
 11 38  1  0
 12 39  1  0
 12 40  1  0
 14 41  1  0
 14 42  1  0
 15 43  1  0
 15 44  1  0
 16 45  1  0
 17 46  1  0
 21 47  1  0
 22 48  1  0
 28 49  1  0
 28 50  1  0
 29 51  1  0
 29 52  1  0
 31 53  1  0
 31 54  1  0
 32 55  1  0
 32 56  1  0
 33 57  1  0
 34 58  1  0
M  CHG  1  19  -1
M  END
>  <UniqueID>  (35) 
34

>  <SMILES>  (35) 
O=C(Nc1cc(S(=O)(=O)N2CCOCC2)ccc1[O-])c1ccc(S(=O)(=O)N2CCOCC2)cc1

>  <Energy>  (35) 
90.88851205211682

>  <Genealogy>  (35) 
O=C(Nc1cc(S(=O)(=O)N2CCOCC2)ccc1[O-])c1ccc(S(=O)(=O)N2CCOCC2)cc1 (protonated)
O=C(Nc1cc(S(=O)(=O)N2CCOCC2)ccc1[O-])c1ccc(S(=O)(=O)N2CCOCC2)cc1 (3D coordinates assigned)
O=C(Nc1cc(S(=O)(=O)N2CCOCC2)ccc1[O-])c1ccc(S(=O)(=O)N2CCOCC2)cc1 (nonaromatic ring conformer: 90.88851205211682 kcal/mol)

>  <smiles>  (35) 
O=C(Nc1cc(S(=O)(=O)N2CCOCC2)ccc1O)c1ccc(S(=O)(=O)N2CCOCC2)cc1

>  <score_type>  (35) 
oracle

>  <origin>  (35) 
adgpu

>  <m_score__min__energy>  (35) 
-12.130000000000001

>  <m_primary>  (35) 
energy

$$$$
35:0
     RDKit          3D

 47 49  0  0  0  0  0  0  0  0999 V2000
   -5.1460   12.7660  -33.4620 O   0  0  0  0  0  0  0  0  0  0  0  0
   -4.3560   13.9290  -32.9290 S   0  0  0  0  0  0  0  0  0  0  0  0
   -4.0050   13.6480  -31.4950 O   0  0  0  0  0  0  0  0  0  0  0  0
   -5.3320   15.3950  -32.9810 C   0  0  0  0  0  0  0  0  0  0  0  0
   -5.3850   16.2300  -31.8570 C   0  0  0  0  0  0  0  0  0  0  0  0
   -6.1420   17.4040  -31.8880 C   0  0  0  0  0  0  0  0  0  0  0  0
   -6.8450   17.7650  -33.0510 C   0  0  0  0  0  0  0  0  0  0  0  0
   -7.6510   18.9530  -33.0920 N   0  0  0  0  0  0  0  0  0  0  0  0
   -7.3660   20.1420  -32.3410 C   0  0  0  0  0  0  0  0  0  0  0  0
   -8.6270   21.0660  -31.8300 S   0  0  0  0  0  0  0  0  0  0  0  0
   -6.0040   20.5140  -32.0460 N   0  0  0  0  0  0  0  0  0  0  0  0
   -5.5870   21.8200  -31.6200 C   0  0  0  0  0  0  0  0  0  0  0  0
   -6.2660   22.9770  -32.0440 C   0  0  0  0  0  0  0  0  0  0  0  0
   -5.8160   24.2440  -31.6540 C   0  0  0  0  0  0  0  0  0  0  0  0
   -4.6770   24.3720  -30.8520 C   0  0  0  0  0  0  0  0  0  0  0  0
   -4.2390   25.6390  -30.4700 O   0  0  0  0  0  0  0  0  0  0  0  0
   -3.9840   23.2220  -30.4450 C   0  0  0  0  0  0  0  0  0  0  0  0
   -4.4290   21.9530  -30.8380 C   0  0  0  0  0  0  0  0  0  0  0  0
   -6.8090   16.9140  -34.1640 C   0  0  0  0  0  0  0  0  0  0  0  0
   -6.0480   15.7420  -34.1350 C   0  0  0  0  0  0  0  0  0  0  0  0
   -2.8820   14.1360  -33.8530 N   0  0  0  0  0  0  0  0  0  0  0  0
   -3.1610   14.5500  -35.2520 C   0  0  0  0  0  0  0  0  0  0  0  0
   -2.6170   15.9430  -35.6180 C   0  0  0  0  0  0  0  0  0  0  0  0
   -2.8770   16.9430  -34.4890 C   0  0  0  0  0  0  0  0  0  0  0  0
   -2.2760   16.4740  -33.1520 C   0  0  0  0  0  0  0  0  0  0  0  0
   -1.8940   14.9810  -33.1510 C   0  0  0  0  0  0  0  0  0  0  0  0
   -4.8288   15.9603  -30.9471 H   0  0  0  0  0  0  0  0  0  0  0  0
   -6.1882   18.0490  -30.9982 H   0  0  0  0  0  0  0  0  0  0  0  0
   -8.4950   18.9520  -33.7090 H   0  0  0  0  0  0  0  0  0  0  0  0
   -5.2530   19.8000  -32.1630 H   0  0  0  0  0  0  0  0  0  0  0  0
   -7.1551   22.8856  -32.6853 H   0  0  0  0  0  0  0  0  0  0  0  0
   -6.3604   25.1427  -31.9796 H   0  0  0  0  0  0  0  0  0  0  0  0
   -4.5940   26.0930  -29.6360 H   0  0  0  0  0  0  0  0  0  0  0  0
   -3.0875   23.3171  -29.8147 H   0  0  0  0  0  0  0  0  0  0  0  0
   -3.8686   21.0572  -30.5325 H   0  0  0  0  0  0  0  0  0  0  0  0
   -7.3835   17.1702  -35.0664 H   0  0  0  0  0  0  0  0  0  0  0  0
   -6.0109   15.0901  -35.0202 H   0  0  0  0  0  0  0  0  0  0  0  0
   -2.7035   13.8124  -35.9278 H   0  0  0  0  0  0  0  0  0  0  0  0
   -4.2550   14.6008  -35.3546 H   0  0  0  0  0  0  0  0  0  0  0  0
   -1.5335   15.8720  -35.7942 H   0  0  0  0  0  0  0  0  0  0  0  0
   -3.1307   16.2945  -36.5250 H   0  0  0  0  0  0  0  0  0  0  0  0
   -2.4276   17.9096  -34.7605 H   0  0  0  0  0  0  0  0  0  0  0  0
   -3.9656   17.0322  -34.3589 H   0  0  0  0  0  0  0  0  0  0  0  0
   -1.3722   17.0667  -32.9475 H   0  0  0  0  0  0  0  0  0  0  0  0
   -3.0456   16.6160  -32.3789 H   0  0  0  0  0  0  0  0  0  0  0  0
   -0.9189   14.8675  -33.6473 H   0  0  0  0  0  0  0  0  0  0  0  0
   -1.8599   14.6489  -32.1029 H   0  0  0  0  0  0  0  0  0  0  0  0
  1  2  2  0
  2  3  2  0
  2  4  1  0
  4  5  2  0
  5  6  1  0
  6  7  2  0
  7  8  1  0
  8  9  1  0
  9 10  2  0
  9 11  1  0
 11 12  1  0
 12 13  2  0
 13 14  1  0
 14 15  2  0
 15 16  1  0
 15 17  1  0
 17 18  2  0
  7 19  1  0
 19 20  2  0
  2 21  1  0
 21 22  1  0
 22 23  1  0
 23 24  1  0
 24 25  1  0
 25 26  1  0
 20  4  1  0
 26 21  1  0
 18 12  1  0
  5 27  1  0
  6 28  1  0
  8 29  1  0
 11 30  1  0
 13 31  1  0
 14 32  1  0
 16 33  1  0
 17 34  1  0
 18 35  1  0
 19 36  1  0
 20 37  1  0
 22 38  1  0
 22 39  1  0
 23 40  1  0
 23 41  1  0
 24 42  1  0
 24 43  1  0
 25 44  1  0
 25 45  1  0
 26 46  1  0
 26 47  1  0
M  END
>  <UniqueID>  (36) 
35

>  <SMILES>  (36) 
O=S(=O)(c1ccc(NC(=S)Nc2ccc(O)cc2)cc1)N1CCCCC1

>  <Energy>  (36) 
65.23624473878431

>  <Genealogy>  (36) 
O=S(=O)(c1ccc(NC(=S)Nc2ccc(O)cc2)cc1)N1CCCCC1 (3D coordinates assigned)
O=S(=O)(c1ccc(NC(=S)Nc2ccc(O)cc2)cc1)N1CCCCC1 (nonaromatic ring conformer: 65.23624473878431 kcal/mol)

>  <smiles>  (36) 
O=S(=O)(c1ccc(NC(=S)Nc2ccc(O)cc2)cc1)N1CCCCC1

>  <score_type>  (36) 
oracle

>  <origin>  (36) 
adgpu

>  <m_score__min__energy>  (36) 
-8.5

>  <m_primary>  (36) 
energy

$$$$
36:0
     RDKit          3D

 73 78  0  0  0  0  0  0  0  0999 V2000
   -3.7446   14.2547  -32.4295 H   0  0  0  0  0  0  0  0  0  0  0  0
   -4.0100   15.2790  -32.7300 C   0  0  0  0  0  0  0  0  0  0  0  0
   -3.0120   16.1670  -33.1310 C   0  0  0  0  0  0  0  0  0  0  0  0
   -1.9608   15.8431  -33.1417 H   0  0  0  0  0  0  0  0  0  0  0  0
   -3.3450   17.4670  -33.5190 C   0  0  0  0  0  0  0  0  0  0  0  0
   -2.5523   18.1651  -33.8260 H   0  0  0  0  0  0  0  0  0  0  0  0
   -4.6840   17.8890  -33.5200 C   0  0  0  0  0  0  0  0  0  0  0  0
   -5.6940   16.9940  -33.0850 C   0  0  0  0  0  0  0  0  0  0  0  0
   -5.3450   15.6870  -32.7090 C   0  0  0  0  0  0  0  0  0  0  0  0
   -6.1279   14.9805  -32.3961 H   0  0  0  0  0  0  0  0  0  0  0  0
   -7.1510   17.3890  -33.1080 C   0  0  0  0  0  0  0  0  0  0  0  0
   -7.6387   16.9168  -33.9735 H   0  0  0  0  0  0  0  0  0  0  0  0
   -7.6214   17.0532  -32.1721 H   0  0  0  0  0  0  0  0  0  0  0  0
   -7.2960   18.8450  -33.2100 N   0  0  0  0  0  0  0  0  0  0  0  0
   -7.9660   19.5930  -32.1760 C   0  0  0  0  0  0  0  0  0  0  0  0
   -8.9670   19.0910  -31.5940 O   0  0  0  0  0  0  0  0  0  0  0  0
   -7.5090   20.9470  -31.7870 C   0  0  0  0  0  0  0  0  0  0  0  0
   -8.4020   22.0260  -31.8070 C   0  0  0  0  0  0  0  0  0  0  0  0
   -9.4413   21.8685  -32.1310 H   0  0  0  0  0  0  0  0  0  0  0  0
   -7.9830   23.2990  -31.4190 C   0  0  0  0  0  0  0  0  0  0  0  0
   -8.6968   24.1357  -31.4376 H   0  0  0  0  0  0  0  0  0  0  0  0
   -6.6600   23.5240  -31.0050 C   0  0  0  0  0  0  0  0  0  0  0  0
   -6.2670   24.9080  -30.5560 C   0  0  0  0  0  0  0  0  0  0  0  0
   -6.2558   24.9475  -29.4568 H   0  0  0  0  0  0  0  0  0  0  0  0
   -5.2652   25.1480  -30.9418 H   0  0  0  0  0  0  0  0  0  0  0  0
   -6.9932   25.6387  -30.9418 H   0  0  0  0  0  0  0  0  0  0  0  0
   -5.7340   22.4500  -31.0360 C   0  0  0  0  0  0  0  0  0  0  0  0
   -4.3070   22.6290  -30.6750 C   0  0  0  0  0  0  0  0  0  0  0  0
   -3.9320   23.6000  -29.7410 C   0  0  0  0  0  0  0  0  0  0  0  0
   -4.6979   24.2464  -29.2877 H   0  0  0  0  0  0  0  0  0  0  0  0
   -2.5890   23.7550  -29.3790 C   0  0  0  0  0  0  0  0  0  0  0  0
   -2.1920   24.7660  -28.4400 N   0  0  0  0  0  0  0  0  0  0  0  0
   -1.6390   24.5800  -27.2720 C   0  0  0  0  0  0  0  0  0  0  0  0
   -1.4420   25.6890  -26.4380 C   0  0  0  0  0  0  0  0  0  0  0  0
   -1.7446   26.6916  -26.7744 H   0  0  0  0  0  0  0  0  0  0  0  0
   -0.8590   25.5190  -25.1750 C   0  0  0  0  0  0  0  0  0  0  0  0
   -0.6960   26.6870  -24.2480 C   0  0  0  0  0  0  0  0  0  0  0  0
   -0.7447   26.3377  -23.2061 H   0  0  0  0  0  0  0  0  0  0  0  0
    0.2777   27.1657  -24.4291 H   0  0  0  0  0  0  0  0  0  0  0  0
   -1.5014   27.4140  -24.4291 H   0  0  0  0  0  0  0  0  0  0  0  0
   -0.4930   24.2360  -24.7590 C   0  0  0  0  0  0  0  0  0  0  0  0
   -0.0659   24.0796  -23.7574 H   0  0  0  0  0  0  0  0  0  0  0  0
   -0.6730   23.1540  -25.6230 C   0  0  0  0  0  0  0  0  0  0  0  0
   -0.3687   22.1452  -25.3072 H   0  0  0  0  0  0  0  0  0  0  0  0
   -1.2230   23.3410  -26.8540 N   0  0  0  0  0  0  0  0  0  0  0  0
   -1.2850   22.5070  -27.4770 H   0  0  0  0  0  0  0  0  0  0  0  0
   -1.6060   22.9960  -30.0220 C   0  0  0  0  0  0  0  0  0  0  0  0
   -0.5478   23.1582  -29.7692 H   0  0  0  0  0  0  0  0  0  0  0  0
   -1.9470   22.0230  -30.9920 C   0  0  0  0  0  0  0  0  0  0  0  0
   -0.9170   21.2290  -31.6610 N   0  0  0  0  0  0  0  0  0  0  0  0
   -0.8940   21.1720  -33.1390 C   0  0  0  0  0  0  0  0  0  0  0  0
   -1.8273   20.7033  -33.4844 H   0  0  0  0  0  0  0  0  0  0  0  0
   -0.7882   22.2049  -33.5021 H   0  0  0  0  0  0  0  0  0  0  0  0
    0.2850   20.3740  -33.6980 C   0  0  0  0  0  0  0  0  0  0  0  0
    0.0597   20.0724  -34.7316 H   0  0  0  0  0  0  0  0  0  0  0  0
    1.1845   21.0066  -33.6734 H   0  0  0  0  0  0  0  0  0  0  0  0
    0.5180   19.2250  -32.9220 O   0  0  0  0  0  0  0  0  0  0  0  0
    1.0350   19.6290  -31.6760 C   0  0  0  0  0  0  0  0  0  0  0  0
    1.3597   18.7386  -31.1176 H   0  0  0  0  0  0  0  0  0  0  0  0
    1.8821   20.3072  -31.8562 H   0  0  0  0  0  0  0  0  0  0  0  0
   -0.0160   20.3790  -30.8510 C   0  0  0  0  0  0  0  0  0  0  0  0
   -0.6275   19.6392  -30.3136 H   0  0  0  0  0  0  0  0  0  0  0  0
    0.5298   21.0489  -30.1703 H   0  0  0  0  0  0  0  0  0  0  0  0
   -3.3170   21.8540  -31.3000 C   0  0  0  0  0  0  0  0  0  0  0  0
   -3.6129   21.1001  -32.0443 H   0  0  0  0  0  0  0  0  0  0  0  0
   -6.1730   21.1720  -31.4180 C   0  0  0  0  0  0  0  0  0  0  0  0
   -5.4597   20.3347  -31.4283 H   0  0  0  0  0  0  0  0  0  0  0  0
   -6.4790   19.5220  -34.2190 C   0  0  0  0  0  0  0  0  0  0  0  0
   -6.6923   19.0974  -35.2111 H   0  0  0  0  0  0  0  0  0  0  0  0
   -6.7145   20.5965  -34.2266 H   0  0  0  0  0  0  0  0  0  0  0  0
   -5.0010   19.3210  -33.8830 C   0  0  0  0  0  0  0  0  0  0  0  0
   -4.3977   19.6059  -34.7576 H   0  0  0  0  0  0  0  0  0  0  0  0
   -4.7663   19.9487  -33.0107 H   0  0  0  0  0  0  0  0  0  0  0  0
  1  2  1  0
  2  3  2  0
  3  4  1  0
  3  5  1  0
  5  6  1  0
  5  7  2  0
  7  8  1  0
  8  9  2  0
  9 10  1  0
  8 11  1  0
 11 12  1  0
 11 13  1  0
 11 14  1  0
 14 15  1  0
 15 16  2  0
 15 17  1  0
 17 18  2  0
 18 19  1  0
 18 20  1  0
 20 21  1  0
 20 22  2  0
 22 23  1  0
 23 24  1  0
 23 25  1  0
 23 26  1  0
 22 27  1  0
 27 28  1  0
 28 29  2  0
 29 30  1  0
 29 31  1  0
 31 32  1  0
 32 33  2  0
 33 34  1  0
 34 35  1  0
 34 36  2  0
 36 37  1  0
 37 38  1  0
 37 39  1  0
 37 40  1  0
 36 41  1  0
 41 42  1  0
 41 43  2  0
 43 44  1  0
 43 45  1  0
 45 46  1  0
 31 47  2  0
 47 48  1  0
 47 49  1  0
 49 50  1  0
 50 51  1  0
 51 52  1  0
 51 53  1  0
 51 54  1  0
 54 55  1  0
 54 56  1  0
 54 57  1  0
 57 58  1  0
 58 59  1  0
 58 60  1  0
 58 61  1  0
 61 62  1  0
 61 63  1  0
 49 64  2  0
 64 65  1  0
 27 66  2  0
 66 67  1  0
 14 68  1  0
 68 69  1  0
 68 70  1  0
 68 71  1  0
 71 72  1  0
 71 73  1  0
  9  2  1  0
 66 17  1  0
 71  7  1  0
 64 28  1  0
 45 33  1  0
 61 50  1  0
M  END
>  <UniqueID>  (37) 
36

>  <SMILES>  (37) 
Cc1cc[nH]/c(=N\c2cc(-c3cc(C(=O)N4CCc5ccccc5C4)ccc3C)cc(N3CCOCC3)c2)c1

>  <Energy>  (37) 
109.23224534752619

>  <Genealogy>  (37) 
Cc1cc[nH]/c(=N\c2cc(-c3cc(C(=O)N4CCc5ccccc5C4)ccc3C)cc(N3CCOCC3)c2)c1 (cis-trans isomerization)
Cc1cc[nH]/c(=N\c2cc(-c3cc(C(=O)N4CCc5ccccc5C4)ccc3C)cc(N3CCOCC3)c2)c1 (3D coordinates assigned)
Cc1cc[nH]/c(=N\c2cc(-c3cc(C(=O)N4CCc5ccccc5C4)ccc3C)cc(N3CCOCC3)c2)c1 (nonaromatic ring conformer: 109.23224534752619 kcal/mol)

>  <smiles>  (37) 
Cc1cc[nH]c(=Nc2cc(-c3cc(C(=O)N4CCc5ccccc5C4)ccc3C)cc(N3CCOCC3)c2)c1

>  <score_type>  (37) 
oracle

>  <origin>  (37) 
adgpu

>  <m_score__min__energy>  (37) 
-11.59

>  <m_primary>  (37) 
energy

$$$$
37:0
     RDKit          3D

 53 55  0  0  0  0  0  0  0  0999 V2000
   -4.9660   15.8800  -32.3890 C   0  0  0  0  0  0  0  0  0  0  0  0
   -5.9860   17.0010  -32.1950 C   0  0  0  0  0  0  0  0  0  0  0  0
   -6.5750   17.4980  -33.5220 C   0  0  0  0  0  0  0  0  0  0  0  0
   -6.4910   18.9950  -33.6430 C   0  0  0  0  0  0  0  0  0  0  0  0
   -5.7980   19.5010  -34.5660 O   0  0  0  0  0  0  0  0  0  0  0  0
   -7.0840   19.8500  -32.6560 N   0  0  0  0  0  0  0  0  0  0  0  0
   -6.4610   20.9820  -32.0710 C   0  0  0  0  0  0  0  0  0  0  0  0
   -5.0900   21.2340  -31.9730 C   0  0  0  0  0  0  0  0  0  0  0  0
   -4.6700   22.4150  -31.3460 C   0  0  0  0  0  0  0  0  0  0  0  0
   -5.6150   23.3160  -30.8120 C   0  0  0  0  0  0  0  0  0  0  0  0
   -5.0650   24.8170  -30.0740 S   0  0  0  0  0  0  0  0  0  0  0  0
   -6.1170   25.8730  -30.2610 O   0  0  0  0  0  0  0  0  0  0  0  0
   -3.7920   25.2880  -30.7210 O   0  0  0  0  0  0  0  0  0  0  0  0
   -4.8150   24.5500  -28.3770 N   0  0  0  0  0  0  0  0  0  0  0  0
   -3.5410   23.8710  -28.1430 C   0  0  0  0  0  0  0  0  0  0  0  0
   -2.6090   24.8130  -27.4330 C   0  0  0  0  0  0  0  0  0  0  0  0
   -2.9170   25.2430  -26.1300 C   0  0  0  0  0  0  0  0  0  0  0  0
   -2.0460   26.0840  -25.4380 C   0  0  0  0  0  0  0  0  0  0  0  0
   -0.8540   26.4980  -26.0320 C   0  0  0  0  0  0  0  0  0  0  0  0
   -0.5250   26.0680  -27.3200 C   0  0  0  0  0  0  0  0  0  0  0  0
   -1.3950   25.2170  -28.0320 C   0  0  0  0  0  0  0  0  0  0  0  0
   -1.0900   24.7600  -29.3250 O   0  0  0  0  0  0  0  0  0  0  0  0
   -0.8270   23.4020  -29.6630 C   0  0  0  0  0  0  0  0  0  0  0  0
   -6.9890   23.0230  -30.9050 C   0  0  0  0  0  0  0  0  0  0  0  0
   -7.3800   21.8410  -31.5350 C   0  0  0  0  0  0  0  0  0  0  0  0
   -8.7610   21.3240  -31.7350 C   0  0  0  0  0  0  0  0  0  0  0  0
   -8.5340   19.9650  -32.4620 C   0  0  2  0  0  0  0  0  0  0  0  0
   -9.0600   18.7850  -31.6380 C   0  0  0  0  0  0  0  0  0  0  0  0
   -4.6326   15.5136  -31.4069 H   0  0  0  0  0  0  0  0  0  0  0  0
   -5.4298   15.0552  -32.9499 H   0  0  0  0  0  0  0  0  0  0  0  0
   -4.1012   16.2641  -32.9499 H   0  0  0  0  0  0  0  0  0  0  0  0
   -6.8055   16.6265  -31.5639 H   0  0  0  0  0  0  0  0  0  0  0  0
   -5.4655   17.8475  -31.7233 H   0  0  0  0  0  0  0  0  0  0  0  0
   -6.0169   17.0415  -34.3527 H   0  0  0  0  0  0  0  0  0  0  0  0
   -7.6363   17.2107  -33.5546 H   0  0  0  0  0  0  0  0  0  0  0  0
   -4.3569   20.5214  -32.3789 H   0  0  0  0  0  0  0  0  0  0  0  0
   -3.5961   22.6409  -31.2698 H   0  0  0  0  0  0  0  0  0  0  0  0
   -3.7072   22.9784  -27.5220 H   0  0  0  0  0  0  0  0  0  0  0  0
   -3.1005   23.5650  -29.1033 H   0  0  0  0  0  0  0  0  0  0  0  0
   -3.8519   24.9135  -25.6531 H   0  0  0  0  0  0  0  0  0  0  0  0
   -2.2995   26.4213  -24.4222 H   0  0  0  0  0  0  0  0  0  0  0  0
   -0.1711   27.1648  -25.4851 H   0  0  0  0  0  0  0  0  0  0  0  0
    0.4184   26.3953  -27.7813 H   0  0  0  0  0  0  0  0  0  0  0  0
   -0.7125   22.8106  -28.7426 H   0  0  0  0  0  0  0  0  0  0  0  0
   -1.6644   23.0024  -30.2538 H   0  0  0  0  0  0  0  0  0  0  0  0
    0.0991   23.3439  -30.2538 H   0  0  0  0  0  0  0  0  0  0  0  0
   -7.7390   23.7120  -30.4894 H   0  0  0  0  0  0  0  0  0  0  0  0
   -9.2693   21.1749  -30.7709 H   0  0  0  0  0  0  0  0  0  0  0  0
   -9.4007   22.0147  -32.3041 H   0  0  0  0  0  0  0  0  0  0  0  0
   -9.0802   19.9388  -33.4165 H   0  0  0  0  0  0  0  0  0  0  0  0
   -8.9588   19.0120  -30.5664 H   0  0  0  0  0  0  0  0  0  0  0  0
  -10.1197   18.6136  -31.8780 H   0  0  0  0  0  0  0  0  0  0  0  0
   -8.4791   17.8823  -31.8780 H   0  0  0  0  0  0  0  0  0  0  0  0
  1  2  1  0
  2  3  1  0
  3  4  1  0
  4  5  2  0
  4  6  1  0
  6  7  1  0
  7  8  2  0
  8  9  1  0
  9 10  2  0
 10 11  1  0
 11 12  2  0
 11 13  2  0
 11 14  1  0
 14 15  1  0
 15 16  1  0
 16 17  2  0
 17 18  1  0
 18 19  2  0
 19 20  1  0
 20 21  2  0
 21 22  1  0
 22 23  1  0
 10 24  1  0
 24 25  2  0
 25 26  1  0
 26 27  1  0
 27 28  1  0
 27  6  1  0
 25  7  1  0
 21 16  1  0
  1 29  1  0
  1 30  1  0
  1 31  1  0
  2 32  1  0
  2 33  1  0
  3 34  1  0
  3 35  1  0
  8 36  1  0
  9 37  1  0
 15 38  1  0
 15 39  1  0
 17 40  1  0
 18 41  1  0
 19 42  1  0
 20 43  1  0
 23 44  1  0
 23 45  1  0
 23 46  1  0
 24 47  1  0
 26 48  1  0
 26 49  1  0
 27 50  1  6
 28 51  1  0
 28 52  1  0
 28 53  1  0
M  CHG  1  14  -1
M  END
>  <UniqueID>  (38) 
37

>  <SMILES>  (38) 
CCCC(=O)N1c2ccc(S(=O)(=O)[N-]Cc3ccccc3OC)cc2C[C@@H]1C

>  <Energy>  (38) 
61.94425246656228

>  <Genealogy>  (38) 
CCCC(=O)N1c2ccc(S(=O)(=O)[N-]Cc3ccccc3OC)cc2CC1C (protonated)
CCCC(=O)N1c2ccc(S(=O)(=O)[N-]Cc3ccccc3OC)cc2C[C@@H]1C (chirality)
CCCC(=O)N1c2ccc(S(=O)(=O)[N-]Cc3ccccc3OC)cc2C[C@@H]1C (3D coordinates assigned)
CCCC(=O)N1c2ccc(S(=O)(=O)[N-]Cc3ccccc3OC)cc2C[C@@H]1C (nonaromatic ring conformer: 61.94425246656228 kcal/mol)

>  <smiles>  (38) 
CCCC(=O)N1c2ccc(S(=O)(=O)NCc3ccccc3OC)cc2CC1C

>  <score_type>  (38) 
oracle

>  <origin>  (38) 
adgpu

>  <m_score__min__energy>  (38) 
-11.140000000000001

>  <m_primary>  (38) 
energy

$$$$
38:0
     RDKit          3D

 39 42  0  0  0  0  0  0  0  0999 V2000
   -6.1240   25.8240  -29.2140 N   0  0  0  0  0  0  0  0  0  0  0  0
   -5.4830   25.1320  -30.2890 C   0  0  0  0  0  0  0  0  0  0  0  0
   -4.4900   25.6690  -30.8510 O   0  0  0  0  0  0  0  0  0  0  0  0
   -5.9490   23.7980  -30.7410 C   0  0  0  0  0  0  0  0  0  0  0  0
   -7.2400   23.3540  -30.4050 C   0  0  0  0  0  0  0  0  0  0  0  0
   -7.6910   22.0990  -30.8210 C   0  0  0  0  0  0  0  0  0  0  0  0
   -6.8630   21.2620  -31.5830 C   0  0  0  0  0  0  0  0  0  0  0  0
   -7.3460   19.9300  -32.0070 C   0  0  0  0  0  0  0  0  0  0  0  0
   -8.6590   19.4670  -31.9570 C   0  0  0  0  0  0  0  0  0  0  0  0
   -8.7170   18.1950  -32.4110 N   0  0  0  0  0  0  0  0  0  0  0  0
   -7.4870   17.8510  -32.7520 N   0  0  0  0  0  0  0  0  0  0  0  0
   -7.1100   16.6580  -33.2770 C   0  0  0  0  0  0  0  0  0  0  0  0
   -5.7550   16.4680  -33.6210 C   0  0  0  0  0  0  0  0  0  0  0  0
   -5.2920   15.1800  -34.1980 C   0  0  0  0  0  0  0  0  0  0  0  0
   -3.9950   15.0610  -34.7350 C   0  0  0  0  0  0  0  0  0  0  0  0
   -3.5610   13.8480  -35.2770 C   0  0  0  0  0  0  0  0  0  0  0  0
   -4.4120   12.7400  -35.2910 C   0  0  0  0  0  0  0  0  0  0  0  0
   -3.9790   11.5370  -35.8300 O   0  0  0  0  0  0  0  0  0  0  0  0
   -5.7020   12.8460  -34.7620 C   0  0  0  0  0  0  0  0  0  0  0  0
   -6.1410   14.0560  -34.2170 C   0  0  0  0  0  0  0  0  0  0  0  0
   -4.8490   17.5350  -33.4140 C   0  0  0  0  0  0  0  0  0  0  0  0
   -5.2860   18.7520  -32.8700 C   0  0  0  0  0  0  0  0  0  0  0  0
   -6.6340   18.8640  -32.5300 C   0  0  0  0  0  0  0  0  0  0  0  0
   -5.5620   21.6880  -31.8950 C   0  0  0  0  0  0  0  0  0  0  0  0
   -5.1100   22.9450  -31.4800 C   0  0  0  0  0  0  0  0  0  0  0  0
   -6.8430   25.3630  -28.6150 H   0  0  0  0  0  0  0  0  0  0  0  0
   -5.8120   26.7860  -28.9550 H   0  0  0  0  0  0  0  0  0  0  0  0
   -7.9009   24.0007  -29.8092 H   0  0  0  0  0  0  0  0  0  0  0  0
   -8.7031   21.7648  -30.5489 H   0  0  0  0  0  0  0  0  0  0  0  0
   -9.5210   20.0502  -31.6008 H   0  0  0  0  0  0  0  0  0  0  0  0
   -7.8460   15.8552  -33.4313 H   0  0  0  0  0  0  0  0  0  0  0  0
   -3.3191   15.9288  -34.7277 H   0  0  0  0  0  0  0  0  0  0  0  0
   -2.5464   13.7654  -35.6938 H   0  0  0  0  0  0  0  0  0  0  0  0
   -6.3733   11.9747  -34.7748 H   0  0  0  0  0  0  0  0  0  0  0  0
   -7.1562   14.1310  -33.8002 H   0  0  0  0  0  0  0  0  0  0  0  0
   -3.7898   17.4088  -33.6827 H   0  0  0  0  0  0  0  0  0  0  0  0
   -4.5893   19.5893  -32.7168 H   0  0  0  0  0  0  0  0  0  0  0  0
   -4.8941   21.0292  -32.4693 H   0  0  0  0  0  0  0  0  0  0  0  0
   -4.0899   23.2690  -31.7338 H   0  0  0  0  0  0  0  0  0  0  0  0
  1  2  1  0
  2  3  2  0
  2  4  1  0
  4  5  2  0
  5  6  1  0
  6  7  2  0
  7  8  1  0
  8  9  1  0
  9 10  2  0
 10 11  1  0
 11 12  1  0
 12 13  2  0
 13 14  1  0
 14 15  2  0
 15 16  1  0
 16 17  2  0
 17 18  1  0
 17 19  1  0
 19 20  2  0
 13 21  1  0
 21 22  2  0
 22 23  1  0
  7 24  1  0
 24 25  2  0
 25  4  1  0
 23  8  2  0
 23 11  1  0
 20 14  1  0
  1 26  1  0
  1 27  1  0
  5 28  1  0
  6 29  1  0
  9 30  1  0
 12 31  1  0
 15 32  1  0
 16 33  1  0
 19 34  1  0
 20 35  1  0
 21 36  1  0
 22 37  1  0
 24 38  1  0
 25 39  1  0
M  CHG  1  18  -1
M  END
>  <UniqueID>  (39) 
38

>  <SMILES>  (39) 
NC(=O)c1ccc(-c2cnn3cc(-c4ccc([O-])cc4)ccc23)cc1

>  <Energy>  (39) 
90.5980079449521

>  <Genealogy>  (39) 
NC(=O)c1ccc(-c2cnn3cc(-c4ccc([O-])cc4)ccc23)cc1 (protonated)
NC(=O)c1ccc(-c2cnn3cc(-c4ccc([O-])cc4)ccc23)cc1 (3D coordinates assigned)
NC(=O)c1ccc(-c2cnn3cc(-c4ccc([O-])cc4)ccc23)cc1 (optimized conformer: 90.5980079449521 kcal/mol)

>  <smiles>  (39) 
NC(=O)c1ccc(-c2cnn3cc(-c4ccc(O)cc4)ccc23)cc1

>  <score_type>  (39) 
oracle

>  <origin>  (39) 
adgpu

>  <m_score__min__energy>  (39) 
-9.2799999999999994

>  <m_primary>  (39) 
energy

$$$$
39:0
     RDKit          3D

 32 34  0  0  0  0  0  0  0  0999 V2000
   -5.2940   26.4140  -30.4620 O   0  0  0  0  0  0  0  0  0  0  0  0
   -4.9120   25.2230  -30.6000 C   0  0  0  0  0  0  0  0  0  0  0  0
   -3.5100   24.9320  -30.5140 N   0  0  0  0  0  0  0  0  0  0  0  0
   -2.8510   24.2630  -29.4290 C   0  0  0  0  0  0  0  0  0  0  0  0
   -3.3440   23.0520  -28.9080 C   0  0  0  0  0  0  0  0  0  0  0  0
   -2.6930   22.4290  -27.8400 C   0  0  0  0  0  0  0  0  0  0  0  0
   -1.5580   23.0130  -27.2730 C   0  0  0  0  0  0  0  0  0  0  0  0
   -1.0760   24.2280  -27.7710 C   0  0  0  0  0  0  0  0  0  0  0  0
   -1.7240   24.8550  -28.8410 C   0  0  0  0  0  0  0  0  0  0  0  0
   -1.2380   26.0650  -29.3220 O   0  0  0  0  0  0  0  0  0  0  0  0
   -5.9100   24.1820  -30.9060 C   0  0  0  0  0  0  0  0  0  0  0  0
   -5.6560   22.8900  -31.3220 C   0  0  0  0  0  0  0  0  0  0  0  0
   -6.9120   22.3440  -31.4980 C   0  0  0  0  0  0  0  0  0  0  0  0
   -7.2200   20.9450  -31.8560 C   0  0  0  0  0  0  0  0  0  0  0  0
   -6.1510   20.0770  -32.1400 C   0  0  0  0  0  0  0  0  0  0  0  0
   -6.3900   18.7660  -32.5580 C   0  0  0  0  0  0  0  0  0  0  0  0
   -7.7000   18.3050  -32.6960 C   0  0  0  0  0  0  0  0  0  0  0  0
   -8.7720   19.1460  -32.3960 C   0  0  0  0  0  0  0  0  0  0  0  0
   -8.5470   20.4560  -31.9530 C   0  0  0  0  0  0  0  0  0  0  0  0
   -9.6560   21.2220  -31.5880 O   0  0  0  0  0  0  0  0  0  0  0  0
   -7.8500   23.2610  -31.1880 N   0  0  0  0  0  0  0  0  0  0  0  0
   -7.2400   24.3840  -30.8420 N   0  0  0  0  0  0  0  0  0  0  0  0
   -4.2448   22.5945  -29.3430 H   0  0  0  0  0  0  0  0  0  0  0  0
   -3.0754   21.4763  -27.4448 H   0  0  0  0  0  0  0  0  0  0  0  0
   -1.0438   22.5181  -26.4359 H   0  0  0  0  0  0  0  0  0  0  0  0
   -0.1859   24.6915  -27.3206 H   0  0  0  0  0  0  0  0  0  0  0  0
   -4.6796   22.4077  -31.4772 H   0  0  0  0  0  0  0  0  0  0  0  0
   -5.1162   20.4340  -32.0319 H   0  0  0  0  0  0  0  0  0  0  0  0
   -5.5454   18.0966  -32.7785 H   0  0  0  0  0  0  0  0  0  0  0  0
   -7.8875   17.2777  -33.0416 H   0  0  0  0  0  0  0  0  0  0  0  0
   -9.8024   18.7775  -32.5082 H   0  0  0  0  0  0  0  0  0  0  0  0
   -9.5860   22.1780  -31.2670 H   0  0  0  0  0  0  0  0  0  0  0  0
  1  2  2  0
  2  3  1  0
  3  4  1  0
  4  5  2  0
  5  6  1  0
  6  7  2  0
  7  8  1  0
  8  9  2  0
  9 10  1  0
  2 11  1  0
 11 12  1  0
 12 13  2  0
 13 14  1  0
 14 15  2  0
 15 16  1  0
 16 17  2  0
 17 18  1  0
 18 19  2  0
 19 20  1  0
 13 21  1  0
 21 22  1  0
  9  4  1  0
 22 11  2  0
 19 14  1  0
  5 23  1  0
  6 24  1  0
  7 25  1  0
  8 26  1  0
 12 27  1  0
 15 28  1  0
 16 29  1  0
 17 30  1  0
 18 31  1  0
 20 32  1  0
M  CHG  3   3  -1  10  -1  21  -1
M  END
>  <UniqueID>  (40) 
39

>  <SMILES>  (40) 
O=C([N-]c1ccccc1[O-])c1cc(-c2ccccc2O)[n-]n1

>  <Energy>  (40) 
75.80803582165797

>  <Genealogy>  (40) 
O=C([N-]c1ccccc1[O-])c1cc(-c2ccccc2O)[n-]n1 (protonated)
O=C([N-]c1ccccc1[O-])c1cc(-c2ccccc2O)[n-]n1 (3D coordinates assigned)
O=C([N-]c1ccccc1[O-])c1cc(-c2ccccc2O)[n-]n1 (optimized conformer: 75.80803582165797 kcal/mol)

>  <smiles>  (40) 
O=C(Nc1ccccc1O)c1cc(-c2ccccc2O)[nH]n1

>  <score_type>  (40) 
oracle

>  <origin>  (40) 
adgpu

>  <m_score__min__energy>  (40) 
-12.619999999999999

>  <m_primary>  (40) 
energy

$$$$
40:0
     RDKit          3D

 61 65  0  0  0  0  0  0  0  0999 V2000
    2.7220   14.6720  -37.5510 C   0  0  0  0  0  0  0  0  0  0  0  0
    2.5960   15.8100  -36.5980 C   0  0  0  0  0  0  0  0  0  0  0  0
    2.7210   17.1080  -37.0370 C   0  0  0  0  0  0  0  0  0  0  0  0
    2.6050   18.1680  -36.1530 C   0  0  0  0  0  0  0  0  0  0  0  0
    2.3590   17.9480  -34.7980 C   0  0  0  0  0  0  0  0  0  0  0  0
    2.2160   19.3190  -33.7310 S   0  0  0  0  0  0  0  0  0  0  0  0
    3.1410   20.4060  -34.2150 O   0  0  0  0  0  0  0  0  0  0  0  0
    2.5720   18.9290  -32.3310 O   0  0  0  0  0  0  0  0  0  0  0  0
    0.5750   19.8890  -33.7600 C   0  0  0  0  0  0  0  0  0  0  0  0
   -0.4560   19.0890  -33.3070 C   0  0  0  0  0  0  0  0  0  0  0  0
   -1.7370   19.5050  -33.3200 N   0  0  0  0  0  0  0  0  0  0  0  0
   -2.9110   18.9320  -32.9410 C   0  0  0  0  0  0  0  0  0  0  0  0
   -3.9470   19.8260  -33.1790 C   0  0  0  0  0  0  0  0  0  0  0  0
   -5.3630   19.6730  -32.9430 C   0  0  0  0  0  0  0  0  0  0  0  0
   -5.9390   18.4530  -33.2420 C   0  0  0  0  0  0  0  0  0  0  0  0
   -7.3050   18.2250  -33.0440 C   0  0  0  0  0  0  0  0  0  0  0  0
   -8.0610   19.2620  -32.5370 C   0  0  0  0  0  0  0  0  0  0  0  0
   -9.5150   18.9870  -32.3370 C   0  0  0  0  0  0  0  0  0  0  0  0
   -7.4940   20.4910  -32.2340 C   0  0  0  0  0  0  0  0  0  0  0  0
   -8.5450   21.7210  -31.6020 S   0  0  0  0  0  0  0  0  0  0  0  0
   -8.8970   21.3260  -30.1760 O   0  0  0  0  0  0  0  0  0  0  0  0
   -9.8200   21.7900  -32.3530 O   0  0  0  0  0  0  0  0  0  0  0  0
   -7.7630   23.2560  -31.5180 N   0  0  0  0  0  0  0  0  0  0  0  0
   -6.8680   23.4750  -32.6190 C   0  0  0  0  0  0  0  0  0  0  0  0
   -5.4370   23.6730  -32.1640 C   0  0  0  0  0  0  0  0  0  0  0  0
   -5.3040   24.6900  -31.2240 O   0  0  0  0  0  0  0  0  0  0  0  0
   -6.3440   24.7230  -30.3160 C   0  0  0  0  0  0  0  0  0  0  0  0
   -7.0080   23.3750  -30.2970 C   0  0  0  0  0  0  0  0  0  0  0  0
   -6.1270   20.7040  -32.4380 C   0  0  0  0  0  0  0  0  0  0  0  0
   -3.3740   20.9240  -33.6970 N   0  0  0  0  0  0  0  0  0  0  0  0
   -2.0360   20.7420  -33.7870 C   0  0  0  0  0  0  0  0  0  0  0  0
   -1.0690   21.5490  -34.2350 N   0  0  0  0  0  0  0  0  0  0  0  0
    0.2140   21.1420  -34.2270 C   0  0  0  0  0  0  0  0  0  0  0  0
    1.1080   21.9460  -34.6640 N   0  0  0  0  0  0  0  0  0  0  0  0
    2.2400   16.6450  -34.3990 C   0  0  0  0  0  0  0  0  0  0  0  0
    2.3500   15.5690  -35.2510 C   0  0  0  0  0  0  0  0  0  0  0  0
    2.8260   13.7325  -36.9885 H   0  0  0  0  0  0  0  0  0  0  0  0
    1.8238   14.6228  -38.1841 H   0  0  0  0  0  0  0  0  0  0  0  0
    3.6092   14.8204  -38.1841 H   0  0  0  0  0  0  0  0  0  0  0  0
    2.9151   17.3060  -38.1015 H   0  0  0  0  0  0  0  0  0  0  0  0
    2.7084   19.1980  -36.5250 H   0  0  0  0  0  0  0  0  0  0  0  0
   -0.2243   18.0839  -32.9249 H   0  0  0  0  0  0  0  0  0  0  0  0
   -3.0219   17.9239  -32.5150 H   0  0  0  0  0  0  0  0  0  0  0  0
   -5.3106   17.6446  -33.6439 H   0  0  0  0  0  0  0  0  0  0  0  0
   -7.7605   17.2530  -33.2841 H   0  0  0  0  0  0  0  0  0  0  0  0
   -9.7355   18.9453  -31.2601 H   0  0  0  0  0  0  0  0  0  0  0  0
  -10.1072   19.7891  -32.8018 H   0  0  0  0  0  0  0  0  0  0  0  0
   -9.7734   18.0241  -32.8018 H   0  0  0  0  0  0  0  0  0  0  0  0
   -6.9093   22.6026  -33.2878 H   0  0  0  0  0  0  0  0  0  0  0  0
   -7.1874   24.3920  -33.1359 H   0  0  0  0  0  0  0  0  0  0  0  0
   -5.0771   22.7339  -31.7184 H   0  0  0  0  0  0  0  0  0  0  0  0
   -4.8465   23.9597  -33.0466 H   0  0  0  0  0  0  0  0  0  0  0  0
   -5.9541   24.9580  -29.3146 H   0  0  0  0  0  0  0  0  0  0  0  0
   -7.0712   25.4957  -30.6061 H   0  0  0  0  0  0  0  0  0  0  0  0
   -6.2483   22.5812  -30.2445 H   0  0  0  0  0  0  0  0  0  0  0  0
   -7.6645   23.2749  -29.4201 H   0  0  0  0  0  0  0  0  0  0  0  0
   -5.6697   21.6757  -32.2001 H   0  0  0  0  0  0  0  0  0  0  0  0
   -1.3580   22.4990  -34.5870 H   0  0  0  0  0  0  0  0  0  0  0  0
    0.9270   22.9010  -35.0310 H   0  0  0  0  0  0  0  0  0  0  0  0
    2.0450   16.4451  -33.3350 H   0  0  0  0  0  0  0  0  0  0  0  0
    2.2455   14.5409  -34.8741 H   0  0  0  0  0  0  0  0  0  0  0  0
  1  2  1  0
  2  3  2  0
  3  4  1  0
  4  5  2  0
  5  6  1  0
  6  7  2  0
  6  8  2  0
  6  9  1  0
  9 10  2  0
 10 11  1  0
 11 12  1  0
 12 13  2  0
 13 14  1  0
 14 15  2  0
 15 16  1  0
 16 17  2  0
 17 18  1  0
 17 19  1  0
 19 20  1  0
 20 21  2  0
 20 22  2  0
 20 23  1  0
 23 24  1  0
 24 25  1  0
 25 26  1  0
 26 27  1  0
 27 28  1  0
 19 29  2  0
 13 30  1  0
 30 31  2  0
 31 32  1  0
 32 33  1  0
 33 34  2  3
  5 35  1  0
 35 36  2  0
 36  2  1  0
 33  9  1  0
 31 11  1  0
 29 14  1  0
 28 23  1  0
  1 37  1  0
  1 38  1  0
  1 39  1  0
  3 40  1  0
  4 41  1  0
 10 42  1  0
 12 43  1  0
 15 44  1  0
 16 45  1  0
 18 46  1  0
 18 47  1  0
 18 48  1  0
 24 49  1  0
 24 50  1  0
 25 51  1  0
 25 52  1  0
 27 53  1  0
 27 54  1  0
 28 55  1  0
 28 56  1  0
 29 57  1  0
 32 58  1  0
 34 59  1  0
 35 60  1  0
 36 61  1  0
M  END
>  <smiles>  (41) 
Cc1ccc(S(=O)(=O)c2cn3cc(-c4ccc(C)c(S(=O)(=O)N5CCOCC5)c4)nc3[nH]c2=N)cc1

>  <score_type>  (41) 
oracle

>  <origin>  (41) 
adgpu

>  <m_score__min__energy>  (41) 
-10.51

>  <m_primary>  (41) 
energy

$$$$
41:0
     RDKit          3D

 43 46  0  0  0  0  0  0  0  0999 V2000
   -2.4790   16.8030  -34.7080 C   0  0  0  0  0  0  0  0  0  0  0  0
   -3.4900   17.8500  -34.3810 C   0  0  0  0  0  0  0  0  0  0  0  0
   -3.2450   18.8920  -33.5630 N   0  0  0  0  0  0  0  0  0  0  0  0
   -4.4480   19.5060  -33.5310 C   0  0  0  0  0  0  0  0  0  0  0  0
   -4.7200   20.7470  -32.7780 C   0  0  0  0  0  0  0  0  0  0  0  0
   -3.6600   21.5830  -32.3770 C   0  0  0  0  0  0  0  0  0  0  0  0
   -3.9170   22.7440  -31.6410 C   0  0  0  0  0  0  0  0  0  0  0  0
   -5.2310   23.0940  -31.3080 C   0  0  0  0  0  0  0  0  0  0  0  0
   -5.5320   24.5520  -30.3650 S   0  0  0  0  0  0  0  0  0  0  0  0
   -5.2350   25.7530  -31.2190 O   0  0  0  0  0  0  0  0  0  0  0  0
   -6.9680   24.6240  -29.9250 O   0  0  0  0  0  0  0  0  0  0  0  0
   -4.4970   24.5750  -28.9730 N   0  0  0  0  0  0  0  0  0  0  0  0
   -3.3340   23.7540  -28.7850 C   0  0  0  0  0  0  0  0  0  0  0  0
   -3.4290   22.3950  -28.4370 C   0  0  0  0  0  0  0  0  0  0  0  0
   -2.2750   21.6160  -28.2660 C   0  0  0  0  0  0  0  0  0  0  0  0
   -1.0050   22.2140  -28.4020 C   0  0  0  0  0  0  0  0  0  0  0  0
   -0.9130   23.5630  -28.7770 C   0  0  0  0  0  0  0  0  0  0  0  0
   -2.0680   24.3280  -28.9640 C   0  0  0  0  0  0  0  0  0  0  0  0
   -1.9500   25.6650  -29.3320 O   0  0  0  0  0  0  0  0  0  0  0  0
    0.2570   21.3950  -28.2490 C   0  0  0  0  0  0  0  0  0  0  0  0
    0.0330   20.1560  -27.4910 N   0  0  0  0  0  0  0  0  0  0  0  0
   -1.0990   19.4030  -28.0460 C   0  0  0  0  0  0  0  0  0  0  0  0
   -2.4120   20.1730  -27.8560 C   0  0  0  0  0  0  0  0  0  0  0  0
   -6.2930   22.2740  -31.7190 C   0  0  0  0  0  0  0  0  0  0  0  0
   -6.0390   21.1040  -32.4430 C   0  0  0  0  0  0  0  0  0  0  0  0
   -5.3700   18.8650  -34.2780 N   0  0  0  0  0  0  0  0  0  0  0  0
   -4.7660   17.8150  -34.8080 N   0  0  0  0  0  0  0  0  0  0  0  0
   -2.0726   16.3821  -33.7765 H   0  0  0  0  0  0  0  0  0  0  0  0
   -2.9555   16.0035  -35.2943 H   0  0  0  0  0  0  0  0  0  0  0  0
   -1.6634   17.2513  -35.2943 H   0  0  0  0  0  0  0  0  0  0  0  0
   -2.6254   21.3216  -32.6439 H   0  0  0  0  0  0  0  0  0  0  0  0
   -3.0823   23.3856  -31.3220 H   0  0  0  0  0  0  0  0  0  0  0  0
   -4.4195   21.9375  -28.2972 H   0  0  0  0  0  0  0  0  0  0  0  0
    0.0756   24.0221  -28.9250 H   0  0  0  0  0  0  0  0  0  0  0  0
    0.6321   21.1339  -29.2496 H   0  0  0  0  0  0  0  0  0  0  0  0
    0.9850   22.0022  -27.6911 H   0  0  0  0  0  0  0  0  0  0  0  0
   -0.1740   20.4000  -26.4940 H   0  0  0  0  0  0  0  0  0  0  0  0
   -0.9301   19.2379  -29.1204 H   0  0  0  0  0  0  0  0  0  0  0  0
   -1.1751   18.4411  -27.5178 H   0  0  0  0  0  0  0  0  0  0  0  0
   -3.1942   19.7009  -28.4686 H   0  0  0  0  0  0  0  0  0  0  0  0
   -2.6762   20.1430  -26.7886 H   0  0  0  0  0  0  0  0  0  0  0  0
   -7.3281   22.5519  -31.4713 H   0  0  0  0  0  0  0  0  0  0  0  0
   -6.8753   20.4597  -32.7520 H   0  0  0  0  0  0  0  0  0  0  0  0
  1  2  1  0
  2  3  2  0
  3  4  1  0
  4  5  1  0
  5  6  2  0
  6  7  1  0
  7  8  2  0
  8  9  1  0
  9 10  2  0
  9 11  2  0
  9 12  1  0
 12 13  1  0
 13 14  2  0
 14 15  1  0
 15 16  2  0
 16 17  1  0
 17 18  2  0
 18 19  1  0
 16 20  1  0
 20 21  1  0
 21 22  1  0
 22 23  1  0
  8 24  1  0
 24 25  2  0
  4 26  2  0
 26 27  1  0
 27  2  1  0
 25  5  1  0
 18 13  1  0
 23 15  1  0
  1 28  1  0
  1 29  1  0
  1 30  1  0
  6 31  1  0
  7 32  1  0
 14 33  1  0
 17 34  1  0
 20 35  1  0
 20 36  1  0
 21 37  1  0
 22 38  1  0
 22 39  1  0
 23 40  1  0
 23 41  1  0
 24 42  1  0
 25 43  1  0
M  CHG  3  12  -1  19  -1  27  -1
M  END
>  <UniqueID>  (42) 
40

>  <SMILES>  (42) 
Cc1nc(-c2ccc(S(=O)(=O)[N-]c3cc4c(cc3[O-])CNCC4)cc2)n[n-]1

>  <Energy>  (42) 
83.10040582833366

>  <Genealogy>  (42) 
Cc1nc(-c2ccc(S(=O)(=O)[N-]c3cc4c(cc3[O-])CNCC4)cc2)n[n-]1 (protonated)
Cc1nc(-c2ccc(S(=O)(=O)[N-]c3cc4c(cc3[O-])CNCC4)cc2)n[n-]1 (3D coordinates assigned)
Cc1nc(-c2ccc(S(=O)(=O)[N-]c3cc4c(cc3[O-])CNCC4)cc2)n[n-]1 (nonaromatic ring conformer: 83.10040582833366 kcal/mol)

>  <smiles>  (42) 
Cc1nc(-c2ccc(S(=O)(=O)Nc3cc4c(cc3O)CNCC4)cc2)n[nH]1

>  <score_type>  (42) 
oracle

>  <origin>  (42) 
adgpu

>  <m_score__min__energy>  (42) 
-13.960000000000001

>  <m_primary>  (42) 
energy

$$$$
42:0
     RDKit          3D

 53 56  0  0  0  0  0  0  0  0999 V2000
   -5.9730   18.4720  -32.1470 C   0  0  0  0  0  0  0  0  0  0  0  0
   -7.0300   19.4780  -31.9860 N   0  0  0  0  0  0  0  0  0  0  0  0
   -8.4320   19.0310  -31.9820 C   0  0  0  0  0  0  0  0  0  0  0  0
   -9.3490   20.1170  -32.5400 C   0  0  0  0  0  0  0  0  0  0  0  0
   -9.1960   21.4020  -31.7270 C   0  0  0  0  0  0  0  0  0  0  0  0
   -7.7540   21.8240  -31.6310 C   0  0  0  0  0  0  0  0  0  0  0  0
   -7.4510   23.1700  -31.3810 C   0  0  0  0  0  0  0  0  0  0  0  0
   -6.1260   23.5870  -31.2530 C   0  0  0  0  0  0  0  0  0  0  0  0
   -5.0800   22.6560  -31.3480 C   0  0  0  0  0  0  0  0  0  0  0  0
   -3.7040   23.0470  -31.2470 N   0  0  0  0  0  0  0  0  0  0  0  0
   -3.1610   24.0490  -30.3760 C   0  0  0  0  0  0  0  0  0  0  0  0
   -3.6970   25.1880  -30.3010 O   0  0  0  0  0  0  0  0  0  0  0  0
   -1.9560   23.7580  -29.5710 C   0  0  0  0  0  0  0  0  0  0  0  0
   -1.5010   22.4290  -29.5030 C   0  0  0  0  0  0  0  0  0  0  0  0
   -0.4130   22.0850  -28.6930 C   0  0  0  0  0  0  0  0  0  0  0  0
    0.1460   20.4150  -28.6320 S   0  0  0  0  0  0  0  0  0  0  0  0
   -0.3130   19.6780  -29.8600 O   0  0  0  0  0  0  0  0  0  0  0  0
    1.6490   20.3980  -28.5980 O   0  0  0  0  0  0  0  0  0  0  0  0
   -0.4770   19.6530  -27.1900 N   0  0  0  0  0  0  0  0  0  0  0  0
   -1.3940   20.5400  -26.4740 C   0  0  0  0  0  0  0  0  0  0  0  0
   -2.3570   19.6450  -25.7100 C   0  0  0  0  0  0  0  0  0  0  0  0
   -2.2680   18.2860  -26.3880 C   0  0  0  0  0  0  0  0  0  0  0  0
   -1.2610   18.4620  -27.5140 C   0  0  0  0  0  0  0  0  0  0  0  0
    0.2400   23.0760  -27.9540 C   0  0  0  0  0  0  0  0  0  0  0  0
   -0.1870   24.4020  -28.0280 C   0  0  0  0  0  0  0  0  0  0  0  0
   -1.2650   24.7600  -28.8460 C   0  0  0  0  0  0  0  0  0  0  0  0
   -1.5910   26.1130  -28.9390 O   0  0  0  0  0  0  0  0  0  0  0  0
   -5.3780   21.3130  -31.6070 C   0  0  0  0  0  0  0  0  0  0  0  0
   -6.7120   20.8720  -31.7320 C   0  0  0  0  0  0  0  0  0  0  0  0
   -5.6266   18.1423  -31.1564 H   0  0  0  0  0  0  0  0  0  0  0  0
   -6.3694   17.6094  -32.7026 H   0  0  0  0  0  0  0  0  0  0  0  0
   -5.1310   18.9105  -32.7026 H   0  0  0  0  0  0  0  0  0  0  0  0
   -8.5242   18.1273  -32.6024 H   0  0  0  0  0  0  0  0  0  0  0  0
   -8.7305   18.8158  -30.9454 H   0  0  0  0  0  0  0  0  0  0  0  0
   -9.0817   20.3157  -33.5884 H   0  0  0  0  0  0  0  0  0  0  0  0
  -10.3923   19.7740  -32.4785 H   0  0  0  0  0  0  0  0  0  0  0  0
   -9.7717   22.2035  -32.2130 H   0  0  0  0  0  0  0  0  0  0  0  0
   -9.5698   21.2141  -30.7097 H   0  0  0  0  0  0  0  0  0  0  0  0
   -8.2651   23.9034  -31.2850 H   0  0  0  0  0  0  0  0  0  0  0  0
   -5.9002   24.6491  -31.0770 H   0  0  0  0  0  0  0  0  0  0  0  0
   -2.0064   21.6507  -30.0936 H   0  0  0  0  0  0  0  0  0  0  0  0
   -0.8350   21.1797  -25.7752 H   0  0  0  0  0  0  0  0  0  0  0  0
   -1.9330   21.1990  -27.1706 H   0  0  0  0  0  0  0  0  0  0  0  0
   -2.0570   19.5691  -24.6544 H   0  0  0  0  0  0  0  0  0  0  0  0
   -3.3826   20.0424  -25.7222 H   0  0  0  0  0  0  0  0  0  0  0  0
   -1.9201   17.5228  -25.6763 H   0  0  0  0  0  0  0  0  0  0  0  0
   -3.2464   17.9507  -26.7627 H   0  0  0  0  0  0  0  0  0  0  0  0
   -0.6050   17.5814  -27.5777 H   0  0  0  0  0  0  0  0  0  0  0  0
   -1.7663   18.5713  -28.4850 H   0  0  0  0  0  0  0  0  0  0  0  0
    1.0928   22.8094  -27.3124 H   0  0  0  0  0  0  0  0  0  0  0  0
    0.3285   25.1739  -27.4377 H   0  0  0  0  0  0  0  0  0  0  0  0
   -2.5420   26.4550  -28.9760 H   0  0  0  0  0  0  0  0  0  0  0  0
   -4.5572   20.5886  -31.7150 H   0  0  0  0  0  0  0  0  0  0  0  0
  1  2  1  0
  2  3  1  0
  3  4  1  0
  4  5  1  0
  5  6  1  0
  6  7  2  0
  7  8  1  0
  8  9  2  0
  9 10  1  0
 10 11  1  0
 11 12  2  0
 11 13  1  0
 13 14  2  0
 14 15  1  0
 15 16  1  0
 16 17  2  0
 16 18  2  0
 16 19  1  0
 19 20  1  0
 20 21  1  0
 21 22  1  0
 22 23  1  0
 15 24  2  0
 24 25  1  0
 25 26  2  0
 26 27  1  0
  9 28  1  0
 28 29  2  0
 29  2  1  0
 29  6  1  0
 26 13  1  0
 23 19  1  0
  1 30  1  0
  1 31  1  0
  1 32  1  0
  3 33  1  0
  3 34  1  0
  4 35  1  0
  4 36  1  0
  5 37  1  0
  5 38  1  0
  7 39  1  0
  8 40  1  0
 14 41  1  0
 20 42  1  0
 20 43  1  0
 21 44  1  0
 21 45  1  0
 22 46  1  0
 22 47  1  0
 23 48  1  0
 23 49  1  0
 24 50  1  0
 25 51  1  0
 27 52  1  0
 28 53  1  0
M  CHG  1  10  -1
M  END
>  <UniqueID>  (43) 
41

>  <SMILES>  (43) 
CN1CCCc2ccc([N-]C(=O)c3cc(S(=O)(=O)N4CCCC4)ccc3O)cc21

>  <Energy>  (43) 
65.06524392388233

>  <Genealogy>  (43) 
CN1CCCc2ccc([N-]C(=O)c3cc(S(=O)(=O)N4CCCC4)ccc3O)cc21 (protonated)
CN1CCCc2ccc([N-]C(=O)c3cc(S(=O)(=O)N4CCCC4)ccc3O)cc21 (3D coordinates assigned)
CN1CCCc2ccc([N-]C(=O)c3cc(S(=O)(=O)N4CCCC4)ccc3O)cc21 (nonaromatic ring conformer: 65.06524392388233 kcal/mol)

>  <smiles>  (43) 
CN1CCCc2ccc(NC(=O)c3cc(S(=O)(=O)N4CCCC4)ccc3O)cc21

>  <score_type>  (43) 
oracle

>  <origin>  (43) 
adgpu

>  <m_score__min__energy>  (43) 
-11.630000000000001

>  <m_primary>  (43) 
energy

$$$$
43:0
     RDKit          3D

 70 74  0  0  0  0  0  0  0  0999 V2000
   -0.9640   21.0740  -34.4670 O   0  0  0  0  0  0  0  0  0  0  0  0
   -1.1450   20.3830  -33.4290 C   0  0  0  0  0  0  0  0  0  0  0  0
   -0.5480   20.7630  -32.1830 N   0  0  0  0  0  0  0  0  0  0  0  0
   -1.2040   21.0510  -30.9410 C   0  0  0  0  0  0  0  0  0  0  0  0
   -1.2090   20.1490  -29.8640 C   0  0  0  0  0  0  0  0  0  0  0  0
   -1.8590   20.4900  -28.6720 C   0  0  0  0  0  0  0  0  0  0  0  0
   -2.4840   21.7340  -28.5410 C   0  0  0  0  0  0  0  0  0  0  0  0
   -2.4660   22.6520  -29.6030 C   0  0  0  0  0  0  0  0  0  0  0  0
   -3.2250   24.2390  -29.4110 S   0  0  0  0  0  0  0  0  0  0  0  0
   -4.0090   24.2210  -28.1260 O   0  0  0  0  0  0  0  0  0  0  0  0
   -2.1580   25.2970  -29.3120 O   0  0  0  0  0  0  0  0  0  0  0  0
   -4.3050   24.5780  -30.7560 N   0  0  0  0  0  0  0  0  0  0  0  0
   -5.3350   25.5710  -30.3890 C   0  0  0  0  0  0  0  0  0  0  0  0
   -6.7030   24.9010  -30.4400 C   0  0  0  0  0  0  0  0  0  0  0  0
   -6.4110   23.4250  -30.5390 C   0  0  0  0  0  0  0  0  0  0  0  0
   -5.0370   23.3720  -31.1750 C   0  0  0  0  0  0  0  0  0  0  0  0
   -1.8130   22.3030  -30.7960 C   0  0  0  0  0  0  0  0  0  0  0  0
   -1.9290   19.1290  -33.4870 C   0  0  0  0  0  0  0  0  0  0  0  0
   -3.3000   19.2130  -33.7810 C   0  0  0  0  0  0  0  0  0  0  0  0
   -4.1040   18.0680  -33.7820 C   0  0  0  0  0  0  0  0  0  0  0  0
   -5.8450   18.2210  -34.0270 S   0  0  0  0  0  0  0  0  0  0  0  0
   -6.0970   18.9100  -35.3410 O   0  0  0  0  0  0  0  0  0  0  0  0
   -6.4630   16.8520  -34.0950 O   0  0  0  0  0  0  0  0  0  0  0  0
   -6.6080   19.1100  -32.7270 N   0  0  0  0  0  0  0  0  0  0  0  0
   -6.9880   20.4650  -33.1820 C   0  0  0  0  0  0  0  0  0  0  0  0
   -7.8630   21.1660  -32.1350 C   0  0  0  0  0  0  0  0  0  0  0  0
   -9.1750   20.3980  -31.8860 C   0  0  0  0  0  0  0  0  0  0  0  0
   -9.0980   18.9260  -32.3230 C   0  0  0  0  0  0  0  0  0  0  0  0
   -7.6980   18.3430  -32.0680 C   0  0  0  0  0  0  0  0  0  0  0  0
   -3.5210   16.8150  -33.5520 C   0  0  0  0  0  0  0  0  0  0  0  0
   -2.1530   16.7150  -33.2920 C   0  0  0  0  0  0  0  0  0  0  0  0
   -1.3500   17.8640  -33.2400 C   0  0  0  0  0  0  0  0  0  0  0  0
    0.0230   17.7420  -32.8440 N   0  0  0  0  0  0  0  0  0  0  0  0
    1.1220   17.9760  -33.7630 C   0  0  0  0  0  0  0  0  0  0  0  0
    2.3870   17.8380  -32.9250 C   0  0  0  0  0  0  0  0  0  0  0  0
    1.9380   17.9760  -31.4690 C   0  0  0  0  0  0  0  0  0  0  0  0
    0.4450   17.6660  -31.4560 C   0  0  0  0  0  0  0  0  0  0  0  0
   -0.7031   19.1767  -29.9572 H   0  0  0  0  0  0  0  0  0  0  0  0
   -1.8782   19.7765  -27.8350 H   0  0  0  0  0  0  0  0  0  0  0  0
   -2.9924   21.9946  -27.6010 H   0  0  0  0  0  0  0  0  0  0  0  0
   -5.1435   25.9437  -29.3719 H   0  0  0  0  0  0  0  0  0  0  0  0
   -5.3064   26.4166  -31.0920 H   0  0  0  0  0  0  0  0  0  0  0  0
   -7.2758   25.1215  -29.5271 H   0  0  0  0  0  0  0  0  0  0  0  0
   -7.3078   25.2602  -31.2857 H   0  0  0  0  0  0  0  0  0  0  0  0
   -6.4000   22.9597  -29.5423 H   0  0  0  0  0  0  0  0  0  0  0  0
   -7.1699   22.8785  -31.1181 H   0  0  0  0  0  0  0  0  0  0  0  0
   -4.5019   22.4723  -30.8371 H   0  0  0  0  0  0  0  0  0  0  0  0
   -5.1203   23.3324  -32.2711 H   0  0  0  0  0  0  0  0  0  0  0  0
   -1.7796   23.0226  -31.6273 H   0  0  0  0  0  0  0  0  0  0  0  0
   -3.7469   20.1909  -34.0133 H   0  0  0  0  0  0  0  0  0  0  0  0
   -6.0768   21.0589  -33.3465 H   0  0  0  0  0  0  0  0  0  0  0  0
   -7.5606   20.3752  -34.1169 H   0  0  0  0  0  0  0  0  0  0  0  0
   -7.3040   21.2334  -31.1900 H   0  0  0  0  0  0  0  0  0  0  0  0
   -8.1170   22.1671  -32.5136 H   0  0  0  0  0  0  0  0  0  0  0  0
   -9.4040   20.4335  -30.8107 H   0  0  0  0  0  0  0  0  0  0  0  0
   -9.9595   20.8806  -32.4874 H   0  0  0  0  0  0  0  0  0  0  0  0
   -9.8382   18.3437  -31.7546 H   0  0  0  0  0  0  0  0  0  0  0  0
   -9.3071   18.8713  -33.4016 H   0  0  0  0  0  0  0  0  0  0  0  0
   -7.5146   18.3390  -30.9834 H   0  0  0  0  0  0  0  0  0  0  0  0
   -7.6860   17.3299  -32.4964 H   0  0  0  0  0  0  0  0  0  0  0  0
   -4.1426   15.9078  -33.5763 H   0  0  0  0  0  0  0  0  0  0  0  0
   -1.7006   15.7261  -33.1264 H   0  0  0  0  0  0  0  0  0  0  0  0
    1.1128   17.2303  -34.5716 H   0  0  0  0  0  0  0  0  0  0  0  0
    1.0530   18.9650  -34.2396 H   0  0  0  0  0  0  0  0  0  0  0  0
    2.8515   16.8549  -33.0913 H   0  0  0  0  0  0  0  0  0  0  0  0
    3.1353   18.5986  -33.1923 H   0  0  0  0  0  0  0  0  0  0  0  0
    2.4817   17.2624  -30.8325 H   0  0  0  0  0  0  0  0  0  0  0  0
    2.1427   18.9840  -31.0790 H   0  0  0  0  0  0  0  0  0  0  0  0
    0.2647   16.6583  -31.0536 H   0  0  0  0  0  0  0  0  0  0  0  0
   -0.1131   18.3686  -30.8197 H   0  0  0  0  0  0  0  0  0  0  0  0
  1  2  2  0
  2  3  1  0
  3  4  1  0
  4  5  2  0
  5  6  1  0
  6  7  2  0
  7  8  1  0
  8  9  1  0
  9 10  2  0
  9 11  2  0
  9 12  1  0
 12 13  1  0
 13 14  1  0
 14 15  1  0
 15 16  1  0
  8 17  2  0
  2 18  1  0
 18 19  2  0
 19 20  1  0
 20 21  1  0
 21 22  2  0
 21 23  2  0
 21 24  1  0
 24 25  1  0
 25 26  1  0
 26 27  1  0
 27 28  1  0
 28 29  1  0
 20 30  2  0
 30 31  1  0
 31 32  2  0
 32 33  1  0
 33 34  1  0
 34 35  1  0
 35 36  1  0
 36 37  1  0
 17  4  1  0
 32 18  1  0
 37 33  1  0
 16 12  1  0
 29 24  1  0
  5 38  1  0
  6 39  1  0
  7 40  1  0
 13 41  1  0
 13 42  1  0
 14 43  1  0
 14 44  1  0
 15 45  1  0
 15 46  1  0
 16 47  1  0
 16 48  1  0
 17 49  1  0
 19 50  1  0
 25 51  1  0
 25 52  1  0
 26 53  1  0
 26 54  1  0
 27 55  1  0
 27 56  1  0
 28 57  1  0
 28 58  1  0
 29 59  1  0
 29 60  1  0
 30 61  1  0
 31 62  1  0
 34 63  1  0
 34 64  1  0
 35 65  1  0
 35 66  1  0
 36 67  1  0
 36 68  1  0
 37 69  1  0
 37 70  1  0
M  CHG  1   3  -1
M  END
>  <UniqueID>  (44) 
42

>  <SMILES>  (44) 
O=C([N-]c1cccc(S(=O)(=O)N2CCCC2)c1)c1cc(S(=O)(=O)N2CCCCC2)ccc1N1CCCC1

>  <Energy>  (44) 
93.55862976676644

>  <Genealogy>  (44) 
O=C([N-]c1cccc(S(=O)(=O)N2CCCC2)c1)c1cc(S(=O)(=O)N2CCCCC2)ccc1N1CCCC1 (protonated)
O=C([N-]c1cccc(S(=O)(=O)N2CCCC2)c1)c1cc(S(=O)(=O)N2CCCCC2)ccc1N1CCCC1 (3D coordinates assigned)
O=C([N-]c1cccc(S(=O)(=O)N2CCCC2)c1)c1cc(S(=O)(=O)N2CCCCC2)ccc1N1CCCC1 (nonaromatic ring conformer: 93.55862976676644 kcal/mol)

>  <smiles>  (44) 
O=C(Nc1cccc(S(=O)(=O)N2CCCC2)c1)c1cc(S(=O)(=O)N2CCCCC2)ccc1N1CCCC1

>  <score_type>  (44) 
oracle

>  <origin>  (44) 
adgpu

>  <m_score__min__energy>  (44) 
-11.859999999999999

>  <m_primary>  (44) 
energy

$$$$
44:0
     RDKit          3D

 54 58  0  0  0  0  0  0  0  0999 V2000
    2.4660   24.6080  -36.1870 C   0  0  0  0  0  0  0  0  0  0  0  0
    2.2290   23.3200  -36.7490 O   0  0  0  0  0  0  0  0  0  0  0  0
    1.5160   22.2980  -36.1080 C   0  0  0  0  0  0  0  0  0  0  0  0
    2.0740   20.9950  -36.1030 C   0  0  0  0  0  0  0  0  0  0  0  0
    1.4050   19.9260  -35.4780 C   0  0  0  0  0  0  0  0  0  0  0  0
    0.1850   20.1930  -34.8660 C   0  0  0  0  0  0  0  0  0  0  0  0
   -0.6810   19.3580  -34.1950 C   0  0  0  0  0  0  0  0  0  0  0  0
   -1.7410   20.1760  -33.8080 C   0  0  0  0  0  0  0  0  0  0  0  0
   -2.9380   19.7170  -33.0830 C   0  0  0  0  0  0  0  0  0  0  0  0
   -3.0440   18.5090  -32.7420 O   0  0  0  0  0  0  0  0  0  0  0  0
   -4.0240   20.6510  -32.7600 C   0  0  0  0  0  0  0  0  0  0  0  0
   -3.7190   21.9490  -32.5050 N   0  0  0  0  0  0  0  0  0  0  0  0
   -4.6560   22.8440  -32.1940 N   0  0  0  0  0  0  0  0  0  0  0  0
   -5.9670   22.5020  -32.1190 C   0  0  0  0  0  0  0  0  0  0  0  0
   -6.9250   23.4640  -31.7810 C   0  0  0  0  0  0  0  0  0  0  0  0
   -8.2750   23.1100  -31.7090 C   0  0  0  0  0  0  0  0  0  0  0  0
   -8.6710   21.7970  -31.9770 C   0  0  0  0  0  0  0  0  0  0  0  0
   -7.7200   20.8290  -32.3160 C   0  0  0  0  0  0  0  0  0  0  0  0
   -6.3570   21.1720  -32.3850 C   0  0  0  0  0  0  0  0  0  0  0  0
   -5.3640   20.2300  -32.7120 C   0  0  0  0  0  0  0  0  0  0  0  0
   -5.7170   18.8720  -33.0220 N   0  0  0  0  0  0  0  0  0  0  0  0
   -5.9300   18.4720  -34.4130 C   0  0  0  0  0  0  0  0  0  0  0  0
   -5.4690   17.0240  -34.6120 C   0  0  0  0  0  0  0  0  0  0  0  0
   -6.0780   16.1310  -33.5990 N   0  0  0  0  0  0  0  0  0  0  0  0
   -5.6500   14.7380  -33.8270 C   0  0  0  0  0  0  0  0  0  0  0  0
   -5.7070   16.5560  -32.2310 C   0  0  0  0  0  0  0  0  0  0  0  0
   -6.1820   17.9860  -31.9560 C   0  0  0  0  0  0  0  0  0  0  0  0
   -1.5430   21.4540  -34.2170 N   0  0  0  0  0  0  0  0  0  0  0  0
   -0.3660   21.4480  -34.8620 C   0  0  0  0  0  0  0  0  0  0  0  0
    0.2680   22.5280  -35.4750 C   0  0  0  0  0  0  0  0  0  0  0  0
    2.4530   24.5372  -35.0894 H   0  0  0  0  0  0  0  0  0  0  0  0
    3.4473   24.9780  -36.5189 H   0  0  0  0  0  0  0  0  0  0  0  0
    1.6807   25.3030  -36.5189 H   0  0  0  0  0  0  0  0  0  0  0  0
    3.0422   20.8170  -36.5938 H   0  0  0  0  0  0  0  0  0  0  0  0
    1.8330   18.9127  -35.4737 H   0  0  0  0  0  0  0  0  0  0  0  0
   -0.5620   18.2809  -34.0059 H   0  0  0  0  0  0  0  0  0  0  0  0
   -6.6157   24.4987  -31.5720 H   0  0  0  0  0  0  0  0  0  0  0  0
   -9.0273   23.8664  -31.4408 H   0  0  0  0  0  0  0  0  0  0  0  0
   -9.7350   21.5236  -31.9211 H   0  0  0  0  0  0  0  0  0  0  0  0
   -8.0381   19.7978  -32.5291 H   0  0  0  0  0  0  0  0  0  0  0  0
   -6.9998   18.5516  -34.6564 H   0  0  0  0  0  0  0  0  0  0  0  0
   -5.3499   19.1325  -35.0742 H   0  0  0  0  0  0  0  0  0  0  0  0
   -5.7668   16.6860  -35.6155 H   0  0  0  0  0  0  0  0  0  0  0  0
   -4.3752   16.9853  -34.5022 H   0  0  0  0  0  0  0  0  0  0  0  0
   -7.1220   16.1630  -33.6970 H   0  0  0  0  0  0  0  0  0  0  0  0
   -5.4965   14.2385  -32.8591 H   0  0  0  0  0  0  0  0  0  0  0  0
   -6.4257   14.2045  -34.3960 H   0  0  0  0  0  0  0  0  0  0  0  0
   -4.7086   14.7321  -34.3960 H   0  0  0  0  0  0  0  0  0  0  0  0
   -6.1732   15.8753  -31.5034 H   0  0  0  0  0  0  0  0  0  0  0  0
   -4.6114   16.5253  -32.1381 H   0  0  0  0  0  0  0  0  0  0  0  0
   -7.2812   18.0054  -31.9175 H   0  0  0  0  0  0  0  0  0  0  0  0
   -5.7732   18.3275  -30.9935 H   0  0  0  0  0  0  0  0  0  0  0  0
   -2.1770   22.2730  -34.0740 H   0  0  0  0  0  0  0  0  0  0  0  0
   -0.1868   23.5296  -35.4678 H   0  0  0  0  0  0  0  0  0  0  0  0
  1  2  1  0
  2  3  1  0
  3  4  2  0
  4  5  1  0
  5  6  2  0
  6  7  1  0
  7  8  2  0
  8  9  1  0
  9 10  2  0
  9 11  1  0
 11 12  2  0
 12 13  1  0
 13 14  2  0
 14 15  1  0
 15 16  2  0
 16 17  1  0
 17 18  2  0
 18 19  1  0
 19 20  2  0
 20 21  1  0
 21 22  1  0
 22 23  1  0
 23 24  1  0
 24 25  1  0
 24 26  1  0
 26 27  1  0
  8 28  1  0
 28 29  1  0
 29 30  2  0
 30  3  1  0
 29  6  1  0
 20 11  1  0
 27 21  1  0
 19 14  1  0
  1 31  1  0
  1 32  1  0
  1 33  1  0
  4 34  1  0
  5 35  1  0
  7 36  1  0
 15 37  1  0
 16 38  1  0
 17 39  1  0
 18 40  1  0
 22 41  1  0
 22 42  1  0
 23 43  1  0
 23 44  1  0
 24 45  1  0
 25 46  1  0
 25 47  1  0
 25 48  1  0
 26 49  1  0
 26 50  1  0
 27 51  1  0
 27 52  1  0
 28 53  1  0
 30 54  1  0
M  CHG  1  24   1
M  END
>  <UniqueID>  (45) 
43

>  <SMILES>  (45) 
COc1ccc2cc(C(=O)c3nnc4ccccc4c3N3CC[NH+](C)CC3)[nH]c2c1

>  <Energy>  (45) 
105.50742936145092

>  <Genealogy>  (45) 
COc1ccc2cc(C(=O)c3nnc4ccccc4c3N3CC[NH+](C)CC3)[nH]c2c1 (protonated)
COc1ccc2cc(C(=O)c3nnc4ccccc4c3N3CC[NH+](C)CC3)[nH]c2c1 (3D coordinates assigned)
COc1ccc2cc(C(=O)c3nnc4ccccc4c3N3CC[NH+](C)CC3)[nH]c2c1 (nonaromatic ring conformer: 105.50742936145092 kcal/mol)

>  <smiles>  (45) 
COc1ccc2cc(C(=O)c3nnc4ccccc4c3N3CCN(C)CC3)[nH]c2c1

>  <score_type>  (45) 
oracle

>  <origin>  (45) 
adgpu

>  <m_score__min__energy>  (45) 
-9.2300000000000004

>  <m_primary>  (45) 
energy

$$$$
45:0
     RDKit          3D

 48 51  0  0  0  0  0  0  0  0999 V2000
   -3.0990   20.7500  -33.4880 O   0  0  0  0  0  0  0  0  0  0  0  0
   -3.2780   21.5740  -32.5520 C   0  0  0  0  0  0  0  0  0  0  0  0
   -4.3190   22.5510  -32.6910 N   0  0  0  0  0  0  0  0  0  0  0  0
   -5.7010   22.3720  -32.3450 C   0  0  0  0  0  0  0  0  0  0  0  0
   -6.4880   23.4380  -31.8750 C   0  0  0  0  0  0  0  0  0  0  0  0
   -7.8280   23.2270  -31.5400 C   0  0  0  0  0  0  0  0  0  0  0  0
   -8.3880   21.9520  -31.6570 C   0  0  0  0  0  0  0  0  0  0  0  0
   -7.6080   20.8800  -32.1080 C   0  0  0  0  0  0  0  0  0  0  0  0
   -8.3070   19.2680  -32.2200 S   0  0  0  0  0  0  0  0  0  0  0  0
   -8.7260   18.8150  -30.8490 O   0  0  0  0  0  0  0  0  0  0  0  0
   -9.5240   19.3030  -33.1050 O   0  0  0  0  0  0  0  0  0  0  0  0
   -7.1140   18.1650  -32.8590 N   0  0  0  0  0  0  0  0  0  0  0  0
   -6.0190   17.9620  -31.9130 C   0  0  0  0  0  0  0  0  0  0  0  0
   -4.7930   17.6020  -32.7400 C   0  0  0  0  0  0  0  0  0  0  0  0
   -5.1030   18.0810  -34.1500 C   0  0  0  0  0  0  0  0  0  0  0  0
   -6.4890   18.7000  -34.0680 C   0  0  0  0  0  0  0  0  0  0  0  0
   -6.2610   21.0920  -32.4370 C   0  0  0  0  0  0  0  0  0  0  0  0
   -2.3820   21.5390  -31.3720 C   0  0  0  0  0  0  0  0  0  0  0  0
   -1.8110   20.3250  -30.9570 C   0  0  0  0  0  0  0  0  0  0  0  0
   -0.9750   20.2830  -29.8400 C   0  0  0  0  0  0  0  0  0  0  0  0
   -0.6930   21.4520  -29.1290 C   0  0  0  0  0  0  0  0  0  0  0  0
   -1.2380   22.6790  -29.5370 C   0  0  0  0  0  0  0  0  0  0  0  0
   -0.9480   23.8840  -28.8060 N   0  0  0  0  0  0  0  0  0  0  0  0
   -1.6200   25.0520  -28.8600 C   0  0  0  0  0  0  0  0  0  0  0  0
   -2.7210   25.2850  -29.6770 O   0  0  0  0  0  0  0  0  0  0  0  0
   -1.0540   25.9920  -28.0220 C   0  0  0  0  0  0  0  0  0  0  0  0
    0.0240   25.3700  -27.4220 C   0  0  0  0  0  0  0  0  0  0  0  0
    0.0560   24.0850  -27.9260 C   0  0  0  0  0  0  0  0  0  0  0  0
    0.9790   23.1140  -27.5560 O   0  0  0  0  0  0  0  0  0  0  0  0
   -2.0730   22.7160  -30.6650 C   0  0  0  0  0  0  0  0  0  0  0  0
   -6.0477   24.4406  -31.7707 H   0  0  0  0  0  0  0  0  0  0  0  0
   -8.4434   24.0662  -31.1835 H   0  0  0  0  0  0  0  0  0  0  0  0
   -9.4438   21.7901  -31.3942 H   0  0  0  0  0  0  0  0  0  0  0  0
   -5.8346   18.8839  -31.3420 H   0  0  0  0  0  0  0  0  0  0  0  0
   -6.2593   17.1669  -31.1918 H   0  0  0  0  0  0  0  0  0  0  0  0
   -3.9007   18.1118  -32.3477 H   0  0  0  0  0  0  0  0  0  0  0  0
   -4.5823   16.5227  -32.7113 H   0  0  0  0  0  0  0  0  0  0  0  0
   -4.3651   18.8299  -34.4734 H   0  0  0  0  0  0  0  0  0  0  0  0
   -5.0635   17.2592  -34.8801 H   0  0  0  0  0  0  0  0  0  0  0  0
   -6.4123   19.7954  -34.0029 H   0  0  0  0  0  0  0  0  0  0  0  0
   -7.0841   18.4607  -34.9617 H   0  0  0  0  0  0  0  0  0  0  0  0
   -5.6404   20.2469  -32.7696 H   0  0  0  0  0  0  0  0  0  0  0  0
   -2.0238   19.4016  -31.5156 H   0  0  0  0  0  0  0  0  0  0  0  0
   -0.5369   19.3266  -29.5186 H   0  0  0  0  0  0  0  0  0  0  0  0
   -0.0402   21.4104  -28.2446 H   0  0  0  0  0  0  0  0  0  0  0  0
   -1.3927   27.0266  -27.8640 H   0  0  0  0  0  0  0  0  0  0  0  0
    0.7173   25.8100  -26.6900 H   0  0  0  0  0  0  0  0  0  0  0  0
   -2.4908   23.6767  -31.0003 H   0  0  0  0  0  0  0  0  0  0  0  0
  1  2  2  0
  2  3  1  0
  3  4  1  0
  4  5  2  0
  5  6  1  0
  6  7  2  0
  7  8  1  0
  8  9  1  0
  9 10  2  0
  9 11  2  0
  9 12  1  0
 12 13  1  0
 13 14  1  0
 14 15  1  0
 15 16  1  0
  8 17  2  0
  2 18  1  0
 18 19  2  0
 19 20  1  0
 20 21  2  0
 21 22  1  0
 22 23  1  0
 23 24  1  0
 24 25  1  0
 24 26  2  0
 26 27  1  0
 27 28  2  0
 28 29  1  0
 22 30  2  0
 17  4  1  0
 30 18  1  0
 16 12  1  0
 28 23  1  0
  5 31  1  0
  6 32  1  0
  7 33  1  0
 13 34  1  0
 13 35  1  0
 14 36  1  0
 14 37  1  0
 15 38  1  0
 15 39  1  0
 16 40  1  0
 16 41  1  0
 17 42  1  0
 19 43  1  0
 20 44  1  0
 21 45  1  0
 26 46  1  0
 27 47  1  0
 30 48  1  0
M  CHG  3   3  -1  25  -1  29  -1
M  END
>  <UniqueID>  (46) 
44

>  <SMILES>  (46) 
O=C([N-]c1cccc(S(=O)(=O)N2CCCC2)c1)c1cccc(-n2c([O-])ccc2[O-])c1

>  <Energy>  (46) 
91.64165746637015

>  <Genealogy>  (46) 
O=C([N-]c1cccc(S(=O)(=O)N2CCCC2)c1)c1cccc(-n2c([O-])ccc2[O-])c1 (protonated)
O=C([N-]c1cccc(S(=O)(=O)N2CCCC2)c1)c1cccc(-n2c([O-])ccc2[O-])c1 (3D coordinates assigned)
O=C([N-]c1cccc(S(=O)(=O)N2CCCC2)c1)c1cccc(-n2c([O-])ccc2[O-])c1 (nonaromatic ring conformer: 91.64165746637015 kcal/mol)

>  <smiles>  (46) 
O=C(Nc1cccc(S(=O)(=O)N2CCCC2)c1)c1cccc(-n2c(O)ccc2O)c1

>  <score_type>  (46) 
oracle

>  <origin>  (46) 
adgpu

>  <m_score__min__energy>  (46) 
-12.98

>  <m_primary>  (46) 
energy

$$$$
46:0
     RDKit          3D

 64 68  0  0  0  0  0  0  0  0999 V2000
   -0.8660   25.4650  -28.5570 C   0  0  0  0  0  0  0  0  0  0  0  0
   -2.0070   24.6900  -27.8930 C   0  0  2  0  0  0  0  0  0  0  0  0
   -1.5470   24.0100  -26.5720 C   0  0  0  0  0  0  0  0  0  0  0  0
   -1.6380   22.5620  -26.8920 C   0  0  0  0  0  0  0  0  0  0  0  0
   -1.2830   21.4830  -26.0800 C   0  0  0  0  0  0  0  0  0  0  0  0
   -1.4470   20.1820  -26.5830 C   0  0  0  0  0  0  0  0  0  0  0  0
   -1.9570   19.9850  -27.8780 C   0  0  0  0  0  0  0  0  0  0  0  0
   -2.3110   21.0870  -28.6760 C   0  0  0  0  0  0  0  0  0  0  0  0
   -2.1590   22.3740  -28.1440 C   0  0  0  0  0  0  0  0  0  0  0  0
   -2.4590   23.6110  -28.7820 N   0  0  0  0  0  0  0  0  0  0  0  0
   -3.8040   23.8410  -29.8600 S   0  0  0  0  0  0  0  0  0  0  0  0
   -5.0830   23.5660  -29.1190 O   0  0  0  0  0  0  0  0  0  0  0  0
   -3.8560   25.2600  -30.3570 O   0  0  0  0  0  0  0  0  0  0  0  0
   -3.6430   22.7230  -31.2180 C   0  0  0  0  0  0  0  0  0  0  0  0
   -4.7900   22.2660  -31.8900 C   0  0  0  0  0  0  0  0  0  0  0  0
   -4.6820   21.3170  -32.9110 C   0  0  0  0  0  0  0  0  0  0  0  0
   -3.4300   20.8060  -33.2640 C   0  0  0  0  0  0  0  0  0  0  0  0
   -2.2800   21.2520  -32.5980 C   0  0  0  0  0  0  0  0  0  0  0  0
   -0.9960   20.7260  -32.9340 N   0  0  0  0  0  0  0  0  0  0  0  0
   -0.5930   20.5220  -34.2970 C   0  0  0  0  0  0  0  0  0  0  0  0
   -0.1070   21.4710  -34.9650 O   0  0  0  0  0  0  0  0  0  0  0  0
   -0.8180   19.2620  -34.9350 N   0  0  0  0  0  0  0  0  0  0  0  0
   -1.2350   18.0920  -34.2220 C   0  0  0  0  0  0  0  0  0  0  0  0
   -0.3030   17.3030  -33.5320 C   0  0  0  0  0  0  0  0  0  0  0  0
   -0.7330   16.1910  -32.8080 C   0  0  0  0  0  0  0  0  0  0  0  0
   -2.0930   15.8710  -32.7540 C   0  0  0  0  0  0  0  0  0  0  0  0
   -3.0330   16.6540  -33.4390 C   0  0  0  0  0  0  0  0  0  0  0  0
   -4.7580   16.3260  -33.2610 S   0  0  0  0  0  0  0  0  0  0  0  0
   -4.9750   15.2260  -32.2540 O   0  0  0  0  0  0  0  0  0  0  0  0
   -5.3290   15.8940  -34.5840 O   0  0  0  0  0  0  0  0  0  0  0  0
   -5.5790   17.8250  -32.7120 C   0  0  0  0  0  0  0  0  0  0  0  0
   -6.5410   17.5770  -31.5550 C   0  0  0  0  0  0  0  0  0  0  0  0
   -7.6680   18.5990  -31.7100 C   0  0  0  0  0  0  0  0  0  0  0  0
   -7.4470   19.2990  -33.0490 C   0  0  0  0  0  0  0  0  0  0  0  0
   -6.4230   18.4670  -33.7980 C   0  0  0  0  0  0  0  0  0  0  0  0
   -2.5950   17.7540  -34.1950 C   0  0  0  0  0  0  0  0  0  0  0  0
   -3.5090   18.5360  -34.8930 O   0  0  0  0  0  0  0  0  0  0  0  0
   -2.3820   22.2190  -31.5880 C   0  0  0  0  0  0  0  0  0  0  0  0
   -1.2250   22.6620  -30.9530 O   0  0  0  0  0  0  0  0  0  0  0  0
   -0.2206   25.9034  -27.7816 H   0  0  0  0  0  0  0  0  0  0  0  0
   -0.2741   24.7813  -29.1833 H   0  0  0  0  0  0  0  0  0  0  0  0
   -1.2834   26.2672  -29.1833 H   0  0  0  0  0  0  0  0  0  0  0  0
   -2.8072   25.4159  -27.6863 H   0  0  0  0  0  0  0  0  0  0  0  0
   -0.5150   24.2949  -26.3192 H   0  0  0  0  0  0  0  0  0  0  0  0
   -2.1531   24.3004  -25.7012 H   0  0  0  0  0  0  0  0  0  0  0  0
   -0.8836   21.6483  -25.0685 H   0  0  0  0  0  0  0  0  0  0  0  0
   -1.1758   19.3153  -25.9622 H   0  0  0  0  0  0  0  0  0  0  0  0
   -2.0797   18.9641  -28.2687 H   0  0  0  0  0  0  0  0  0  0  0  0
   -2.6986   20.9419  -29.6952 H   0  0  0  0  0  0  0  0  0  0  0  0
   -5.7792   22.6577  -31.6107 H   0  0  0  0  0  0  0  0  0  0  0  0
   -5.5841   20.9719  -33.4374 H   0  0  0  0  0  0  0  0  0  0  0  0
   -3.3471   20.0549  -34.0633 H   0  0  0  0  0  0  0  0  0  0  0  0
    0.7659   17.5609  -33.5618 H   0  0  0  0  0  0  0  0  0  0  0  0
   -0.0004   15.5643  -32.2783 H   0  0  0  0  0  0  0  0  0  0  0  0
   -2.4273   15.0002  -32.1709 H   0  0  0  0  0  0  0  0  0  0  0  0
   -4.7475   18.4800  -32.4127 H   0  0  0  0  0  0  0  0  0  0  0  0
   -6.9437   16.5547  -31.6065 H   0  0  0  0  0  0  0  0  0  0  0  0
   -6.0353   17.6825  -30.5838 H   0  0  0  0  0  0  0  0  0  0  0  0
   -8.6436   18.0908  -31.7047 H   0  0  0  0  0  0  0  0  0  0  0  0
   -7.6624   19.3218  -30.8808 H   0  0  0  0  0  0  0  0  0  0  0  0
   -8.3889   19.3448  -33.6153 H   0  0  0  0  0  0  0  0  0  0  0  0
   -7.0978   20.3325  -32.9080 H   0  0  0  0  0  0  0  0  0  0  0  0
   -6.9194   17.6984  -34.4086 H   0  0  0  0  0  0  0  0  0  0  0  0
   -5.8199   19.0734  -34.4898 H   0  0  0  0  0  0  0  0  0  0  0  0
  1  2  1  0
  2  3  1  0
  3  4  1  0
  4  5  2  0
  5  6  1  0
  6  7  2  0
  7  8  1  0
  8  9  2  0
  9 10  1  0
 10 11  1  0
 11 12  2  0
 11 13  2  0
 11 14  1  0
 14 15  2  0
 15 16  1  0
 16 17  2  0
 17 18  1  0
 18 19  1  0
 19 20  1  0
 20 21  2  0
 20 22  1  0
 22 23  1  0
 23 24  2  0
 24 25  1  0
 25 26  2  0
 26 27  1  0
 27 28  1  0
 28 29  2  0
 28 30  2  0
 28 31  1  0
 31 32  1  0
 32 33  1  0
 33 34  1  0
 34 35  1  0
 27 36  2  0
 36 37  1  0
 18 38  2  0
 38 39  1  0
 10  2  1  0
 38 14  1  0
  9  4  1  0
 36 23  1  0
 35 31  1  0
  1 40  1  0
  1 41  1  0
  1 42  1  0
  2 43  1  1
  3 44  1  0
  3 45  1  0
  5 46  1  0
  6 47  1  0
  7 48  1  0
  8 49  1  0
 15 50  1  0
 16 51  1  0
 17 52  1  0
 24 53  1  0
 25 54  1  0
 26 55  1  0
 31 56  1  0
 32 57  1  0
 32 58  1  0
 33 59  1  0
 33 60  1  0
 34 61  1  0
 34 62  1  0
 35 63  1  0
 35 64  1  0
M  CHG  4  19  -1  22  -1  37  -1  39  -1
M  END
>  <UniqueID>  (47) 
45

>  <SMILES>  (47) 
C[C@@H]1Cc2ccccc2N1S(=O)(=O)c1cccc([N-]C(=O)[N-]c2cccc(S(=O)(=O)C3CCCC3)c2[O-])c1[O-]

>  <Energy>  (47) 
95.48555617315397

>  <Genealogy>  (47) 
CC1Cc2ccccc2N1S(=O)(=O)c1cccc([N-]C(=O)[N-]c2cccc(S(=O)(=O)C3CCCC3)c2[O-])c1[O-] (protonated)
C[C@@H]1Cc2ccccc2N1S(=O)(=O)c1cccc([N-]C(=O)[N-]c2cccc(S(=O)(=O)C3CCCC3)c2[O-])c1[O-] (chirality)
C[C@@H]1Cc2ccccc2N1S(=O)(=O)c1cccc([N-]C(=O)[N-]c2cccc(S(=O)(=O)C3CCCC3)c2[O-])c1[O-] (3D coordinates assigned)
C[C@@H]1Cc2ccccc2N1S(=O)(=O)c1cccc([N-]C(=O)[N-]c2cccc(S(=O)(=O)C3CCCC3)c2[O-])c1[O-] (nonaromatic ring conformer: 95.48555617315397 kcal/mol)

>  <smiles>  (47) 
CC1Cc2ccccc2N1S(=O)(=O)c1cccc(NC(=O)Nc2cccc(S(=O)(=O)C3CCCC3)c2O)c1O

>  <score_type>  (47) 
oracle

>  <origin>  (47) 
adgpu

>  <m_score__min__energy>  (47) 
-17.199999999999999

>  <m_primary>  (47) 
energy

$$$$
