0:0
     RDKit          3D

 44 47  0  0  0  0  0  0  0  0999 V2000
    0.0750   21.9890  -30.6690 H   0  0  0  0  0  0  0  0  0  0  0  0
   -0.5740   22.6470  -30.1830 N   0  0  0  0  0  0  0  0  0  0  0  0
   -1.8450   22.6900  -30.4450 C   0  0  0  0  0  0  0  0  0  0  0  0
   -2.6910   23.5960  -29.7620 C   0  0  0  0  0  0  0  0  0  0  0  0
   -2.1920   24.5360  -28.7200 C   0  0  0  0  0  0  0  0  0  0  0  0
   -2.4550   24.3680  -27.3940 N   0  0  0  0  0  0  0  0  0  0  0  0
   -1.8320   25.4120  -26.8290 C   0  0  0  0  0  0  0  0  0  0  0  0
   -1.7700   25.7410  -25.4770 C   0  0  0  0  0  0  0  0  0  0  0  0
   -2.2667   25.1205  -24.7166 H   0  0  0  0  0  0  0  0  0  0  0  0
   -1.0490   26.8960  -25.1180 C   0  0  0  0  0  0  0  0  0  0  0  0
   -0.9762   27.1891  -24.0603 H   0  0  0  0  0  0  0  0  0  0  0  0
   -0.4180   27.6810  -26.1110 C   0  0  0  0  0  0  0  0  0  0  0  0
    0.1416   28.5827  -25.8215 H   0  0  0  0  0  0  0  0  0  0  0  0
   -0.5020   27.3150  -27.4680 C   0  0  0  0  0  0  0  0  0  0  0  0
   -0.0151   27.9147  -28.2512 H   0  0  0  0  0  0  0  0  0  0  0  0
   -1.2240   26.1660  -27.7830 C   0  0  0  0  0  0  0  0  0  0  0  0
   -1.4360   25.6350  -28.9950 N   0  0  0  0  0  0  0  0  0  0  0  0
   -4.0570   23.6000  -30.0890 C   0  0  0  0  0  0  0  0  0  0  0  0
   -4.7344   24.2965  -29.5732 H   0  0  0  0  0  0  0  0  0  0  0  0
   -4.5720   22.7310  -31.0620 C   0  0  0  0  0  0  0  0  0  0  0  0
   -6.0180   22.7370  -31.4030 C   0  0  0  0  0  0  0  0  0  0  0  0
   -6.8060   23.8290  -31.7390 C   0  0  0  0  0  0  0  0  0  0  0  0
   -6.4571   24.8707  -31.7949 H   0  0  0  0  0  0  0  0  0  0  0  0
   -8.0640   23.4160  -31.9860 N   0  0  0  0  0  0  0  0  0  0  0  0
   -8.0950   22.1030  -31.8190 N   0  0  0  0  0  0  0  0  0  0  0  0
   -9.2960   21.2910  -31.9850 C   0  0  0  0  0  0  0  0  0  0  0  0
  -10.0879   21.6896  -31.3338 H   0  0  0  0  0  0  0  0  0  0  0  0
   -9.5941   21.3346  -33.0429 H   0  0  0  0  0  0  0  0  0  0  0  0
   -9.0460   19.8190  -31.6200 C   0  0  0  0  0  0  0  0  0  0  0  0
   -8.4581   19.7860  -30.6909 H   0  0  0  0  0  0  0  0  0  0  0  0
  -10.0310   19.3422  -31.5085 H   0  0  0  0  0  0  0  0  0  0  0  0
   -8.2850   19.0360  -32.7060 C   0  0  0  0  0  0  0  0  0  0  0  0
   -9.0063   18.4250  -33.2685 H   0  0  0  0  0  0  0  0  0  0  0  0
   -7.7806   19.7711  -33.3503 H   0  0  0  0  0  0  0  0  0  0  0  0
   -7.2090   18.1150  -32.1320 C   0  0  0  0  0  0  0  0  0  0  0  0
   -7.2468   18.1473  -31.0331 H   0  0  0  0  0  0  0  0  0  0  0  0
   -7.3869   17.0850  -32.4749 H   0  0  0  0  0  0  0  0  0  0  0  0
   -6.2188   18.4497  -32.4749 H   0  0  0  0  0  0  0  0  0  0  0  0
   -6.8770   21.6540  -31.4610 C   0  0  0  0  0  0  0  0  0  0  0  0
   -6.6111   20.6075  -31.2510 H   0  0  0  0  0  0  0  0  0  0  0  0
   -3.6870   21.8540  -31.7040 C   0  0  0  0  0  0  0  0  0  0  0  0
   -4.0653   21.1610  -32.4699 H   0  0  0  0  0  0  0  0  0  0  0  0
   -2.3660   21.8530  -31.3880 N   0  0  0  0  0  0  0  0  0  0  0  0
   -1.7420   21.1840  -31.8940 H   0  0  0  0  0  0  0  0  0  0  0  0
  1  2  1  0
  2  3  2  0
  3  4  1  0
  4  5  1  0
  5  6  2  0
  6  7  1  0
  7  8  2  0
  8  9  1  0
  8 10  1  0
 10 11  1  0
 10 12  2  0
 12 13  1  0
 12 14  1  0
 14 15  1  0
 14 16  2  0
 16 17  1  0
  4 18  2  0
 18 19  1  0
 18 20  1  0
 20 21  1  0
 21 22  1  0
 22 23  1  0
 22 24  2  0
 24 25  1  0
 25 26  1  0
 26 27  1  0
 26 28  1  0
 26 29  1  0
 29 30  1  0
 29 31  1  0
 29 32  1  0
 32 33  1  0
 32 34  1  0
 32 35  1  0
 35 36  1  0
 35 37  1  0
 35 38  1  0
 25 39  1  0
 39 40  1  0
 20 41  2  0
 41 42  1  0
 41 43  1  0
 43 44  1  0
 43  3  1  0
 17  5  1  0
 39 21  2  0
 16  7  1  0
M  CHG  1  17  -1
M  END
>  <UniqueID>  (1) 
1

>  <SMILES>  (1) 
[H]/N=c1\[nH]cc(-c2cnn(CCCC)c2)cc1-c1nc2ccccc2[n-]1

>  <Energy>  (1) 
112.95638586131244

>  <Genealogy>  (1) 
CCCCn1cc(-c2c[nH]c(=N)c(-c3nc4ccccc4[n-]3)c2)cn1 (protonated)
[H]/N=c1\[nH]cc(-c2cnn(CCCC)c2)cc1-c1nc2ccccc2[n-]1 (cis-trans isomerization)
[H]/N=c1\[nH]cc(-c2cnn(CCCC)c2)cc1-c1nc2ccccc2[n-]1 (3D coordinates assigned)
[H]/N=c1\[nH]cc(-c2cnn(CCCC)c2)cc1-c1nc2ccccc2[n-]1 (optimized conformer: 112.95638586131244 kcal/mol)

>  <smiles>  (1) 
CCCCn1cc(-c2c[nH]c(=N)c(-c3nc4ccccc4[nH]3)c2)cn1

>  <score_type>  (1) 
oracle

>  <origin>  (1) 
adgpu

>  <m_score__min__energy>  (1) 
-9.0399999999999991

>  <m_primary>  (1) 
energy

$$$$
1:0
     RDKit          3D

 43 45  0  0  0  0  0  0  0  0999 V2000
   -2.1580   25.2740  -29.2920 N   0  0  0  0  0  0  0  0  0  0  0  0
   -3.5550   24.5040  -29.9580 S   0  0  0  0  0  0  0  0  0  0  0  0
   -4.4670   24.1150  -28.8280 O   0  0  0  0  0  0  0  0  0  0  0  0
   -4.2740   25.4590  -30.8690 O   0  0  0  0  0  0  0  0  0  0  0  0
   -3.0840   23.0700  -30.8650 C   0  0  0  0  0  0  0  0  0  0  0  0
   -3.9520   22.5220  -31.8190 C   0  0  0  0  0  0  0  0  0  0  0  0
   -3.5700   21.3960  -32.5530 C   0  0  0  0  0  0  0  0  0  0  0  0
   -2.3280   20.7900  -32.3300 C   0  0  0  0  0  0  0  0  0  0  0  0
   -1.9460   19.6910  -33.1710 N   0  0  0  0  0  0  0  0  0  0  0  0
   -2.8470   18.8040  -33.8390 C   0  0  0  0  0  0  0  0  0  0  0  0
   -3.7590   19.2740  -34.5720 O   0  0  0  0  0  0  0  0  0  0  0  0
   -2.7000   17.3390  -33.6810 C   0  0  0  0  0  0  0  0  0  0  0  0
   -1.5490   16.6990  -34.1730 C   0  0  0  0  0  0  0  0  0  0  0  0
   -1.4000   15.3160  -34.0450 C   0  0  0  0  0  0  0  0  0  0  0  0
   -2.4000   14.5580  -33.4360 C   0  0  0  0  0  0  0  0  0  0  0  0
   -3.5580   15.1750  -32.9600 C   0  0  0  0  0  0  0  0  0  0  0  0
   -3.7230   16.5660  -33.0860 C   0  0  0  0  0  0  0  0  0  0  0  0
   -4.9280   17.2140  -32.6570 N   0  0  0  0  0  0  0  0  0  0  0  0
   -6.3410   17.5040  -33.6100 S   0  0  0  0  0  0  0  0  0  0  0  0
   -7.2440   16.3040  -33.5830 O   0  0  0  0  0  0  0  0  0  0  0  0
   -5.9440   17.8100  -35.0270 O   0  0  0  0  0  0  0  0  0  0  0  0
   -7.1690   18.8880  -32.9030 C   0  0  0  0  0  0  0  0  0  0  0  0
   -8.4410   18.7510  -32.3250 C   0  0  0  0  0  0  0  0  0  0  0  0
   -9.1060   19.8720  -31.8180 C   0  0  0  0  0  0  0  0  0  0  0  0
   -8.5060   21.1330  -31.8870 C   0  0  0  0  0  0  0  0  0  0  0  0
   -7.2430   21.2760  -32.4650 C   0  0  0  0  0  0  0  0  0  0  0  0
   -6.5770   20.1570  -32.9760 C   0  0  0  0  0  0  0  0  0  0  0  0
   -1.4540   21.3390  -31.3700 C   0  0  0  0  0  0  0  0  0  0  0  0
   -0.2160   20.8260  -31.1670 F   0  0  0  0  0  0  0  0  0  0  0  0
   -1.8370   22.4710  -30.6420 C   0  0  0  0  0  0  0  0  0  0  0  0
   -1.6150   25.6760  -30.0890 H   0  0  0  0  0  0  0  0  0  0  0  0
   -4.9374   22.9798  -31.9906 H   0  0  0  0  0  0  0  0  0  0  0  0
   -4.2505   20.9826  -33.3119 H   0  0  0  0  0  0  0  0  0  0  0  0
   -0.7610   17.2909  -34.6617 H   0  0  0  0  0  0  0  0  0  0  0  0
   -0.4926   14.8239  -34.4251 H   0  0  0  0  0  0  0  0  0  0  0  0
   -2.2756   13.4702  -33.3305 H   0  0  0  0  0  0  0  0  0  0  0  0
   -4.3447   14.5709  -32.4844 H   0  0  0  0  0  0  0  0  0  0  0  0
   -8.9155   17.7601  -32.2708 H   0  0  0  0  0  0  0  0  0  0  0  0
  -10.1021   19.7615  -31.3645 H   0  0  0  0  0  0  0  0  0  0  0  0
   -9.0294   22.0133  -31.4856 H   0  0  0  0  0  0  0  0  0  0  0  0
   -6.7718   22.2685  -32.5185 H   0  0  0  0  0  0  0  0  0  0  0  0
   -5.5850   20.2730  -33.4369 H   0  0  0  0  0  0  0  0  0  0  0  0
   -1.1547   22.8934  -29.8897 H   0  0  0  0  0  0  0  0  0  0  0  0
  1  2  1  0
  2  3  2  0
  2  4  2  0
  2  5  1  0
  5  6  2  0
  6  7  1  0
  7  8  2  0
  8  9  1  0
  9 10  1  0
 10 11  2  0
 10 12  1  0
 12 13  2  0
 13 14  1  0
 14 15  2  0
 15 16  1  0
 16 17  2  0
 17 18  1  0
 18 19  1  0
 19 20  2  0
 19 21  2  0
 19 22  1  0
 22 23  2  0
 23 24  1  0
 24 25  2  0
 25 26  1  0
 26 27  2  0
  8 28  1  0
 28 29  1  0
 28 30  2  0
 30  5  1  0
 17 12  1  0
 27 22  1  0
  1 31  1  0
  6 32  1  0
  7 33  1  0
 13 34  1  0
 14 35  1  0
 15 36  1  0
 16 37  1  0
 23 38  1  0
 24 39  1  0
 25 40  1  0
 26 41  1  0
 27 42  1  0
 30 43  1  0
M  CHG  3   1  -1   9  -1  18  -1
M  END
>  <UniqueID>  (2) 
2

>  <SMILES>  (2) 
[NH-]S(=O)(=O)c1ccc([N-]C(=O)c2ccccc2[N-]S(=O)(=O)c2ccccc2)c(F)c1

>  <Energy>  (2) 
56.836579552852044

>  <Genealogy>  (2) 
[NH-]S(=O)(=O)c1ccc([N-]C(=O)c2ccccc2[N-]S(=O)(=O)c2ccccc2)c(F)c1 (protonated)
[NH-]S(=O)(=O)c1ccc([N-]C(=O)c2ccccc2[N-]S(=O)(=O)c2ccccc2)c(F)c1 (3D coordinates assigned)
[NH-]S(=O)(=O)c1ccc([N-]C(=O)c2ccccc2[N-]S(=O)(=O)c2ccccc2)c(F)c1 (optimized conformer: 56.836579552852044 kcal/mol)

>  <smiles>  (2) 
NS(=O)(=O)c1ccc(NC(=O)c2ccccc2NS(=O)(=O)c2ccccc2)c(F)c1

>  <score_type>  (2) 
oracle

>  <origin>  (2) 
adgpu

>  <m_score__min__energy>  (2) 
-11.52

>  <m_primary>  (2) 
energy

$$$$
2:0
     RDKit          3D

 60 63  0  0  0  0  0  0  0  0999 V2000
   -3.4318   18.2203  -33.7149 H   0  0  0  0  0  0  0  0  0  0  0  0
   -3.5470   19.0500  -33.0020 C   0  0  0  0  0  0  0  0  0  0  0  0
   -2.4750   19.5180  -32.4240 N   0  0  0  0  0  0  0  0  0  0  0  0
   -2.4180   20.5160  -31.3910 C   0  0  0  0  0  0  0  0  0  0  0  0
   -1.3910   21.4670  -31.4230 C   0  0  0  0  0  0  0  0  0  0  0  0
   -0.6336   21.4277  -32.2198 H   0  0  0  0  0  0  0  0  0  0  0  0
   -1.3230   22.4660  -30.4480 C   0  0  0  0  0  0  0  0  0  0  0  0
   -0.5257   23.2224  -30.4935 H   0  0  0  0  0  0  0  0  0  0  0  0
   -2.2660   22.5080  -29.4130 C   0  0  0  0  0  0  0  0  0  0  0  0
   -2.2150   23.8000  -28.2200 S   0  0  0  0  0  0  0  0  0  0  0  0
   -3.5480   23.8770  -27.5310 O   0  0  0  0  0  0  0  0  0  0  0  0
   -1.9240   25.0980  -28.9200 O   0  0  0  0  0  0  0  0  0  0  0  0
   -0.9560   23.4240  -27.0850 N   0  0  0  0  0  0  0  0  0  0  0  0
   -0.6040   24.0530  -26.0000 C   0  0  0  0  0  0  0  0  0  0  0  0
    0.3930   23.6280  -25.2570 O   0  0  0  0  0  0  0  0  0  0  0  0
    0.5610   24.4020  -24.2280 N   0  0  0  0  0  0  0  0  0  0  0  0
    1.2880   24.2640  -23.4910 H   0  0  0  0  0  0  0  0  0  0  0  0
   -0.3580   25.3820  -24.2830 C   0  0  0  0  0  0  0  0  0  0  0  0
   -0.4970   26.4570  -23.2510 C   0  0  0  0  0  0  0  0  0  0  0  0
   -0.4394   26.0112  -22.2471 H   0  0  0  0  0  0  0  0  0  0  0  0
    0.3138   27.1901  -23.3737 H   0  0  0  0  0  0  0  0  0  0  0  0
   -1.4676   26.9598  -23.3737 H   0  0  0  0  0  0  0  0  0  0  0  0
   -1.1400   25.2080  -25.4180 C   0  0  0  0  0  0  0  0  0  0  0  0
   -2.3130   26.0550  -25.8110 C   0  0  0  0  0  0  0  0  0  0  0  0
   -2.8203   26.4213  -24.9063 H   0  0  0  0  0  0  0  0  0  0  0  0
   -1.9639   26.9107  -26.4075 H   0  0  0  0  0  0  0  0  0  0  0  0
   -3.0155   25.4544  -26.4075 H   0  0  0  0  0  0  0  0  0  0  0  0
   -3.2740   21.5370  -29.3570 C   0  0  0  0  0  0  0  0  0  0  0  0
   -4.0144   21.5616  -28.5439 H   0  0  0  0  0  0  0  0  0  0  0  0
   -3.3420   20.5370  -30.3310 C   0  0  0  0  0  0  0  0  0  0  0  0
   -4.1214   19.7633  -30.2682 H   0  0  0  0  0  0  0  0  0  0  0  0
   -4.9140   19.5740  -32.7520 C   0  0  0  0  0  0  0  0  0  0  0  0
   -5.2470   20.9280  -32.9530 C   0  0  0  0  0  0  0  0  0  0  0  0
   -4.2900   21.8030  -33.5820 N   0  0  0  0  0  0  0  0  0  0  0  0
   -4.5740   22.7320  -33.9640 H   0  0  0  0  0  0  0  0  0  0  0  0
   -3.2800   21.5680  -33.6750 H   0  0  0  0  0  0  0  0  0  0  0  0
   -6.4940   21.3850  -32.5860 N   0  0  0  0  0  0  0  0  0  0  0  0
   -6.8420   22.8190  -32.7240 C   0  0  0  0  0  0  0  0  0  0  0  0
   -6.3947   23.2081  -33.6506 H   0  0  0  0  0  0  0  0  0  0  0  0
   -7.9381   22.9077  -32.7519 H   0  0  0  0  0  0  0  0  0  0  0  0
   -6.3300   23.6260  -31.5550 C   0  0  0  0  0  0  0  0  0  0  0  0
   -7.2320   24.2550  -30.6780 C   0  0  0  0  0  0  0  0  0  0  0  0
   -8.3151   24.1440  -30.8346 H   0  0  0  0  0  0  0  0  0  0  0  0
   -6.7590   25.0200  -29.6090 C   0  0  0  0  0  0  0  0  0  0  0  0
   -7.4701   25.5005  -28.9209 H   0  0  0  0  0  0  0  0  0  0  0  0
   -5.3840   25.1760  -29.4120 C   0  0  0  0  0  0  0  0  0  0  0  0
   -5.0135   25.7744  -28.5666 H   0  0  0  0  0  0  0  0  0  0  0  0
   -4.4800   24.5710  -30.2900 C   0  0  0  0  0  0  0  0  0  0  0  0
   -3.3980   24.6983  -30.1384 H   0  0  0  0  0  0  0  0  0  0  0  0
   -4.9500   23.8040  -31.3610 C   0  0  0  0  0  0  0  0  0  0  0  0
   -4.2353   23.3377  -32.0551 H   0  0  0  0  0  0  0  0  0  0  0  0
   -7.4370   20.5020  -32.1120 C   0  0  0  0  0  0  0  0  0  0  0  0
   -8.5820   20.9220  -31.7780 O   0  0  0  0  0  0  0  0  0  0  0  0
   -7.1560   19.1640  -32.0060 N   0  0  0  0  0  0  0  0  0  0  0  0
   -8.1800   18.2370  -31.4900 C   0  0  0  0  0  0  0  0  0  0  0  0
   -8.1656   18.2501  -30.3902 H   0  0  0  0  0  0  0  0  0  0  0  0
   -9.1719   18.5505  -31.8474 H   0  0  0  0  0  0  0  0  0  0  0  0
   -7.9664   17.2189  -31.8474 H   0  0  0  0  0  0  0  0  0  0  0  0
   -5.9010   18.7010  -32.2870 C   0  0  0  0  0  0  0  0  0  0  0  0
   -5.6190   17.4820  -32.1140 O   0  0  0  0  0  0  0  0  0  0  0  0
  1  2  1  0
  2  3  2  0
  3  4  1  0
  4  5  2  0
  5  6  1  0
  5  7  1  0
  7  8  1  0
  7  9  2  0
  9 10  1  0
 10 11  2  0
 10 12  2  0
 10 13  1  0
 13 14  2  3
 14 15  1  0
 15 16  1  0
 16 17  1  0
 16 18  1  0
 18 19  1  0
 19 20  1  0
 19 21  1  0
 19 22  1  0
 18 23  2  0
 23 24  1  0
 24 25  1  0
 24 26  1  0
 24 27  1  0
  9 28  1  0
 28 29  1  0
 28 30  2  0
 30 31  1  0
  2 32  1  0
 32 33  2  0
 33 34  1  0
 34 35  1  0
 34 36  1  0
 33 37  1  0
 37 38  1  0
 38 39  1  0
 38 40  1  0
 38 41  1  0
 41 42  2  0
 42 43  1  0
 42 44  1  0
 44 45  1  0
 44 46  2  0
 46 47  1  0
 46 48  1  0
 48 49  1  0
 48 50  2  0
 50 51  1  0
 37 52  1  0
 52 53  2  0
 52 54  1  0
 54 55  1  0
 55 56  1  0
 55 57  1  0
 55 58  1  0
 54 59  1  0
 59 60  2  0
 30  4  1  0
 59 32  1  0
 23 14  1  0
 50 41  1  0
M  END
>  <UniqueID>  (3) 
3

>  <SMILES>  (3) 
Cc1[nH]oc(=NS(=O)(=O)c2ccc(/N=C\c3c(N)n(Cc4ccccc4)c(=O)n(C)c3=O)cc2)c1C

>  <Energy>  (3) 
128.29445137775286

>  <Genealogy>  (3) 
Cc1[nH]oc(=NS(=O)(=O)c2ccc(/N=C\c3c(N)n(Cc4ccccc4)c(=O)n(C)c3=O)cc2)c1C (cis-trans isomerization)
Cc1[nH]oc(=NS(=O)(=O)c2ccc(/N=C\c3c(N)n(Cc4ccccc4)c(=O)n(C)c3=O)cc2)c1C (3D coordinates assigned)
Cc1[nH]oc(=NS(=O)(=O)c2ccc(/N=C\c3c(N)n(Cc4ccccc4)c(=O)n(C)c3=O)cc2)c1C (optimized conformer: 128.29445137775286 kcal/mol)

>  <smiles>  (3) 
Cc1[nH]oc(=NS(=O)(=O)c2ccc(N=Cc3c(N)n(Cc4ccccc4)c(=O)n(C)c3=O)cc2)c1C

>  <score_type>  (3) 
oracle

>  <origin>  (3) 
adgpu

>  <m_score__min__energy>  (3) 
-10.220000000000001

>  <m_primary>  (3) 
energy

$$$$
3:0
     RDKit          3D

 56 59  0  0  0  0  0  0  0  0999 V2000
   -5.7260   25.6770  -30.2630 C   0  0  0  0  0  0  0  0  0  0  0  0
   -4.9990   24.5100  -30.8400 C   0  0  0  0  0  0  0  0  0  0  0  0
   -3.8630   24.0150  -30.3000 N   0  0  0  0  0  0  0  0  0  0  0  0
   -3.5700   22.9550  -31.0760 C   0  0  0  0  0  0  0  0  0  0  0  0
   -2.4080   22.0730  -30.8240 C   0  0  0  0  0  0  0  0  0  0  0  0
   -1.8350   21.9640  -29.5460 C   0  0  0  0  0  0  0  0  0  0  0  0
   -0.7330   21.1270  -29.3380 C   0  0  0  0  0  0  0  0  0  0  0  0
   -0.2070   20.3810  -30.3950 C   0  0  0  0  0  0  0  0  0  0  0  0
   -0.7830   20.4530  -31.6670 C   0  0  0  0  0  0  0  0  0  0  0  0
   -0.2190   19.7020  -32.7070 O   0  0  0  0  0  0  0  0  0  0  0  0
   -0.9010   18.7420  -33.4660 C   0  0  0  0  0  0  0  0  0  0  0  0
   -0.3160   18.1440  -34.5960 C   0  0  0  0  0  0  0  0  0  0  0  0
   -1.0260   17.1980  -35.3370 C   0  0  0  0  0  0  0  0  0  0  0  0
   -2.3220   16.8350  -34.9570 C   0  0  0  0  0  0  0  0  0  0  0  0
   -3.0110   15.9550  -35.7240 F   0  0  0  0  0  0  0  0  0  0  0  0
   -2.9140   17.4220  -33.8220 C   0  0  0  0  0  0  0  0  0  0  0  0
   -4.2090   17.0830  -33.4040 O   0  0  0  0  0  0  0  0  0  0  0  0
   -5.2210   18.0120  -33.1440 C   0  0  0  0  0  0  0  0  0  0  0  0
   -5.7230   18.1360  -31.8490 C   0  0  0  0  0  0  0  0  0  0  0  0
   -6.7290   19.0650  -31.5890 C   0  0  0  0  0  0  0  0  0  0  0  0
   -7.2460   19.8680  -32.6230 C   0  0  0  0  0  0  0  0  0  0  0  0
   -8.3150   20.8700  -32.3240 C   0  0  0  0  0  0  0  0  0  0  0  0
   -9.5230   20.5450  -32.5290 O   0  0  0  0  0  0  0  0  0  0  0  0
   -8.0080   22.2090  -31.8560 N   0  0  0  0  0  0  0  0  0  0  0  0
   -9.1050   23.1250  -32.2170 C   0  0  0  0  0  0  0  0  0  0  0  0
   -7.7810   22.2280  -30.3970 C   0  0  0  0  0  0  0  0  0  0  0  0
   -6.7250   19.6850  -33.9200 C   0  0  0  0  0  0  0  0  0  0  0  0
   -5.7410   18.7760  -34.1420 N   0  0  0  0  0  0  0  0  0  0  0  0
   -2.2090   18.3970  -33.1060 C   0  0  0  0  0  0  0  0  0  0  0  0
   -1.8800   21.3100  -31.8800 C   0  0  0  0  0  0  0  0  0  0  0  0
   -4.5560   22.8170  -32.0400 C   0  0  0  0  0  0  0  0  0  0  0  0
   -4.6820   21.7400  -33.0750 C   0  0  0  0  0  0  0  0  0  0  0  0
   -5.4620   23.8010  -31.8930 N   0  0  0  0  0  0  0  0  0  0  0  0
   -5.6926   25.6233  -29.1648 H   0  0  0  0  0  0  0  0  0  0  0  0
   -5.2486   26.6092  -30.5993 H   0  0  0  0  0  0  0  0  0  0  0  0
   -6.7732   25.6594  -30.5993 H   0  0  0  0  0  0  0  0  0  0  0  0
   -2.2538   22.5382  -28.7064 H   0  0  0  0  0  0  0  0  0  0  0  0
   -0.2794   21.0564  -28.3384 H   0  0  0  0  0  0  0  0  0  0  0  0
    0.6656   19.7330  -30.2258 H   0  0  0  0  0  0  0  0  0  0  0  0
    0.7046   18.4226  -34.8971 H   0  0  0  0  0  0  0  0  0  0  0  0
   -0.5648   16.7365  -36.2226 H   0  0  0  0  0  0  0  0  0  0  0  0
   -5.3281   17.5054  -31.0388 H   0  0  0  0  0  0  0  0  0  0  0  0
   -7.1222   19.1715  -30.5672 H   0  0  0  0  0  0  0  0  0  0  0  0
   -7.1200   22.5460  -32.2960 H   0  0  0  0  0  0  0  0  0  0  0  0
   -9.5728   23.5156  -31.3013 H   0  0  0  0  0  0  0  0  0  0  0  0
   -8.7047   23.9609  -32.8096 H   0  0  0  0  0  0  0  0  0  0  0  0
   -9.8561   22.5821  -32.8096 H   0  0  0  0  0  0  0  0  0  0  0  0
   -8.7457   22.1472  -29.8747 H   0  0  0  0  0  0  0  0  0  0  0  0
   -7.1392   21.3804  -30.1147 H   0  0  0  0  0  0  0  0  0  0  0  0
   -7.2890   23.1705  -30.1147 H   0  0  0  0  0  0  0  0  0  0  0  0
   -7.1176   20.2817  -34.7566 H   0  0  0  0  0  0  0  0  0  0  0  0
   -2.6881   18.8972  -32.2515 H   0  0  0  0  0  0  0  0  0  0  0  0
   -2.3279   21.3830  -32.8820 H   0  0  0  0  0  0  0  0  0  0  0  0
   -4.7960   20.7653  -32.5780 H   0  0  0  0  0  0  0  0  0  0  0  0
   -5.5633   21.9365  -33.7033 H   0  0  0  0  0  0  0  0  0  0  0  0
   -3.7792   21.7278  -33.7033 H   0  0  0  0  0  0  0  0  0  0  0  0
  1  2  1  0
  2  3  2  0
  3  4  1  0
  4  5  1  0
  5  6  2  0
  6  7  1  0
  7  8  2  0
  8  9  1  0
  9 10  1  0
 10 11  1  0
 11 12  2  0
 12 13  1  0
 13 14  2  0
 14 15  1  0
 14 16  1  0
 16 17  1  0
 17 18  1  0
 18 19  2  0
 19 20  1  0
 20 21  2  0
 21 22  1  0
 22 23  2  0
 22 24  1  0
 24 25  1  0
 24 26  1  0
 21 27  1  0
 27 28  2  0
 16 29  2  0
  9 30  2  0
  4 31  2  0
 31 32  1  0
 31 33  1  0
 33  2  1  0
 30  5  1  0
 29 11  1  0
 28 18  1  0
  1 34  1  0
  1 35  1  0
  1 36  1  0
  6 37  1  0
  7 38  1  0
  8 39  1  0
 12 40  1  0
 13 41  1  0
 19 42  1  0
 20 43  1  0
 24 44  1  0
 25 45  1  0
 25 46  1  0
 25 47  1  0
 26 48  1  0
 26 49  1  0
 26 50  1  0
 27 51  1  0
 29 52  1  0
 30 53  1  0
 32 54  1  0
 32 55  1  0
 32 56  1  0
M  CHG  2  24   1  33  -1
M  END
>  <UniqueID>  (4) 
4

>  <SMILES>  (4) 
Cc1nc(-c2cccc(Oc3ccc(F)c(Oc4ccc(C(=O)[NH+](C)C)cn4)c3)c2)c(C)[n-]1

>  <Energy>  (4) 
106.84750683779576

>  <Genealogy>  (4) 
Cc1nc(-c2cccc(Oc3ccc(F)c(Oc4ccc(C(=O)[NH+](C)C)cn4)c3)c2)c(C)[n-]1 (protonated)
Cc1nc(-c2cccc(Oc3ccc(F)c(Oc4ccc(C(=O)[NH+](C)C)cn4)c3)c2)c(C)[n-]1 (3D coordinates assigned)
Cc1nc(-c2cccc(Oc3ccc(F)c(Oc4ccc(C(=O)[NH+](C)C)cn4)c3)c2)c(C)[n-]1 (optimized conformer: 106.84750683779576 kcal/mol)

>  <smiles>  (4) 
Cc1nc(-c2cccc(Oc3ccc(F)c(Oc4ccc(C(=O)N(C)C)cn4)c3)c2)c(C)[nH]1

>  <score_type>  (4) 
oracle

>  <origin>  (4) 
adgpu

>  <m_score__min__energy>  (4) 
-10.1

>  <m_primary>  (4) 
energy

$$$$
4:0
     RDKit          3D

 53 55  0  0  0  0  0  0  0  0999 V2000
   -0.9000   18.8630  -32.1580 C   0  0  0  0  0  0  0  0  0  0  0  0
   -1.2870   17.4710  -32.3580 N   0  0  0  0  0  0  0  0  0  0  0  0
   -1.6530   16.9720  -33.6530 C   0  0  0  0  0  0  0  0  0  0  0  0
   -1.6660   17.7470  -34.6460 O   0  0  0  0  0  0  0  0  0  0  0  0
   -2.0080   15.5980  -33.8460 N   0  0  0  0  0  0  0  0  0  0  0  0
   -2.4180   14.6990  -32.7730 C   0  0  0  0  0  0  0  0  0  0  0  0
   -2.9800   13.4060  -33.3600 C   0  0  0  0  0  0  0  0  0  0  0  0
   -4.3840   13.2310  -32.9800 N   0  0  0  0  0  0  0  0  0  0  0  0
   -5.4370   14.1560  -34.0110 S   0  0  0  0  0  0  0  0  0  0  0  0
   -5.0090   13.9770  -35.4400 O   0  0  0  0  0  0  0  0  0  0  0  0
   -6.8530   13.6680  -33.8730 O   0  0  0  0  0  0  0  0  0  0  0  0
   -5.3360   15.8650  -33.5940 C   0  0  0  0  0  0  0  0  0  0  0  0
   -4.8690   16.7830  -34.5410 C   0  0  0  0  0  0  0  0  0  0  0  0
   -4.7690   18.1390  -34.2170 C   0  0  0  0  0  0  0  0  0  0  0  0
   -5.1330   18.5980  -32.9380 C   0  0  0  0  0  0  0  0  0  0  0  0
   -5.0240   20.0380  -32.5920 C   0  0  0  0  0  0  0  0  0  0  0  0
   -3.7860   20.6990  -32.6650 C   0  0  0  0  0  0  0  0  0  0  0  0
   -3.6820   22.0540  -32.3370 C   0  0  0  0  0  0  0  0  0  0  0  0
   -4.8210   22.7770  -31.9430 C   0  0  0  0  0  0  0  0  0  0  0  0
   -4.7540   24.1620  -31.5740 N   0  0  0  0  0  0  0  0  0  0  0  0
   -4.5750   24.6870  -30.2490 C   0  0  0  0  0  0  0  0  0  0  0  0
   -5.1810   25.7370  -29.9050 O   0  0  0  0  0  0  0  0  0  0  0  0
   -3.7210   23.9570  -29.2730 C   0  0  0  0  0  0  0  0  0  0  0  0
   -4.1600   22.7270  -28.7450 C   0  0  0  0  0  0  0  0  0  0  0  0
   -3.3760   22.0230  -27.8270 C   0  0  0  0  0  0  0  0  0  0  0  0
   -2.1440   22.5340  -27.4220 C   0  0  0  0  0  0  0  0  0  0  0  0
   -1.6890   23.7500  -27.9360 C   0  0  0  0  0  0  0  0  0  0  0  0
   -2.4670   24.4640  -28.8560 C   0  0  0  0  0  0  0  0  0  0  0  0
   -1.9770   25.6700  -29.3430 O   0  0  0  0  0  0  0  0  0  0  0  0
   -6.0500   22.1160  -31.8470 C   0  0  0  0  0  0  0  0  0  0  0  0
   -6.1560   20.7620  -32.1750 C   0  0  0  0  0  0  0  0  0  0  0  0
   -5.5980   17.6670  -31.9910 C   0  0  0  0  0  0  0  0  0  0  0  0
   -5.6970   16.3120  -32.3160 C   0  0  0  0  0  0  0  0  0  0  0  0
   -0.8408   19.0759  -31.0804 H   0  0  0  0  0  0  0  0  0  0  0  0
    0.0817   19.0409  -32.6214 H   0  0  0  0  0  0  0  0  0  0  0  0
   -1.6490   19.5220  -32.6214 H   0  0  0  0  0  0  0  0  0  0  0  0
   -1.2890   16.8360  -31.5280 H   0  0  0  0  0  0  0  0  0  0  0  0
   -1.5480   14.4645  -32.1420 H   0  0  0  0  0  0  0  0  0  0  0  0
   -3.1960   15.1891  -32.1692 H   0  0  0  0  0  0  0  0  0  0  0  0
   -2.9051   13.4451  -34.4568 H   0  0  0  0  0  0  0  0  0  0  0  0
   -2.3995   12.5582  -32.9673 H   0  0  0  0  0  0  0  0  0  0  0  0
   -4.5795   16.4364  -35.5440 H   0  0  0  0  0  0  0  0  0  0  0  0
   -4.4025   18.8535  -34.9687 H   0  0  0  0  0  0  0  0  0  0  0  0
   -2.8905   20.1451  -32.9832 H   0  0  0  0  0  0  0  0  0  0  0  0
   -2.7047   22.5563  -32.3875 H   0  0  0  0  0  0  0  0  0  0  0  0
   -5.1309   22.3160  -29.0588 H   0  0  0  0  0  0  0  0  0  0  0  0
   -3.7319   21.0637  -27.4232 H   0  0  0  0  0  0  0  0  0  0  0  0
   -1.5300   21.9792  -26.6973 H   0  0  0  0  0  0  0  0  0  0  0  0
   -0.7149   24.1490  -27.6168 H   0  0  0  0  0  0  0  0  0  0  0  0
   -6.9406   22.6669  -31.5104 H   0  0  0  0  0  0  0  0  0  0  0  0
   -7.1316   20.2584  -32.1067 H   0  0  0  0  0  0  0  0  0  0  0  0
   -5.8861   18.0091  -30.9860 H   0  0  0  0  0  0  0  0  0  0  0  0
   -6.0596   15.5935  -31.5661 H   0  0  0  0  0  0  0  0  0  0  0  0
  1  2  1  0
  2  3  1  0
  3  4  2  0
  3  5  1  0
  5  6  1  0
  6  7  1  0
  7  8  1  0
  8  9  1  0
  9 10  2  0
  9 11  2  0
  9 12  1  0
 12 13  2  0
 13 14  1  0
 14 15  2  0
 15 16  1  0
 16 17  2  0
 17 18  1  0
 18 19  2  0
 19 20  1  0
 20 21  1  0
 21 22  2  0
 21 23  1  0
 23 24  2  0
 24 25  1  0
 25 26  2  0
 26 27  1  0
 27 28  2  0
 28 29  1  0
 19 30  1  0
 30 31  2  0
 15 32  1  0
 32 33  2  0
 33 12  1  0
 31 16  1  0
 28 23  1  0
  1 34  1  0
  1 35  1  0
  1 36  1  0
  2 37  1  0
  6 38  1  0
  6 39  1  0
  7 40  1  0
  7 41  1  0
 13 42  1  0
 14 43  1  0
 17 44  1  0
 18 45  1  0
 24 46  1  0
 25 47  1  0
 26 48  1  0
 27 49  1  0
 30 50  1  0
 31 51  1  0
 32 52  1  0
 33 53  1  0
M  CHG  4   5  -1   8  -1  20  -1  29  -1
M  END
>  <UniqueID>  (5) 
5

>  <SMILES>  (5) 
CNC(=O)[N-]CC[N-]S(=O)(=O)c1ccc(-c2ccc([N-]C(=O)c3ccccc3[O-])cc2)cc1

>  <Energy>  (5) 
59.672039158394774

>  <Genealogy>  (5) 
CNC(=O)[N-]CC[N-]S(=O)(=O)c1ccc(-c2ccc([N-]C(=O)c3ccccc3[O-])cc2)cc1 (protonated)
CNC(=O)[N-]CC[N-]S(=O)(=O)c1ccc(-c2ccc([N-]C(=O)c3ccccc3[O-])cc2)cc1 (3D coordinates assigned)
CNC(=O)[N-]CC[N-]S(=O)(=O)c1ccc(-c2ccc([N-]C(=O)c3ccccc3[O-])cc2)cc1 (optimized conformer: 59.672039158394774 kcal/mol)

>  <smiles>  (5) 
CNC(=O)NCCNS(=O)(=O)c1ccc(-c2ccc(NC(=O)c3ccccc3O)cc2)cc1

>  <score_type>  (5) 
oracle

>  <origin>  (5) 
adgpu

>  <m_score__min__energy>  (5) 
-11.380000000000001

>  <m_primary>  (5) 
energy

$$$$
5:0
     RDKit          3D

 36 37  0  0  0  0  0  0  0  0999 V2000
   -9.1210   19.2990  -32.4720 C   0  0  0  0  0  0  0  0  0  0  0  0
   -7.9260   20.2110  -32.3730 C   0  0  0  0  0  0  0  0  0  0  0  0
   -8.0750   21.4790  -31.7900 C   0  0  0  0  0  0  0  0  0  0  0  0
   -6.9870   22.3470  -31.6880 C   0  0  0  0  0  0  0  0  0  0  0  0
   -5.7310   21.9740  -32.1790 C   0  0  0  0  0  0  0  0  0  0  0  0
   -4.6210   22.8760  -32.0390 N   0  0  0  0  0  0  0  0  0  0  0  0
   -3.4540   22.6050  -31.2400 C   0  0  0  0  0  0  0  0  0  0  0  0
   -2.8410   21.3400  -31.2780 C   0  0  0  0  0  0  0  0  0  0  0  0
   -1.6950   21.0850  -30.5220 C   0  0  0  0  0  0  0  0  0  0  0  0
   -1.1470   22.0890  -29.7230 C   0  0  0  0  0  0  0  0  0  0  0  0
   -1.7350   23.3560  -29.6910 C   0  0  0  0  0  0  0  0  0  0  0  0
   -2.8720   23.6320  -30.4700 C   0  0  0  0  0  0  0  0  0  0  0  0
   -3.5040   24.9190  -30.4160 N   0  0  0  0  0  0  0  0  0  0  0  0
   -4.9130   25.1850  -30.4450 C   0  0  0  0  0  0  0  0  0  0  0  0
   -5.4380   25.5400  -31.5340 O   0  0  0  0  0  0  0  0  0  0  0  0
   -5.7770   25.1050  -29.2170 C   0  0  0  0  0  0  0  0  0  0  0  0
   -6.6710   24.0590  -29.3420 F   0  0  0  0  0  0  0  0  0  0  0  0
   -6.4890   26.2820  -29.0750 F   0  0  0  0  0  0  0  0  0  0  0  0
   -5.0080   24.9220  -28.0820 F   0  0  0  0  0  0  0  0  0  0  0  0
   -5.5690   20.6980  -32.7460 C   0  0  0  0  0  0  0  0  0  0  0  0
   -6.6570   19.8170  -32.8610 C   0  0  0  0  0  0  0  0  0  0  0  0
   -6.4450   18.4590  -33.4780 C   0  0  0  0  0  0  0  0  0  0  0  0
   -9.4660   19.0357  -31.4612 H   0  0  0  0  0  0  0  0  0  0  0  0
   -9.9297   19.8117  -33.0135 H   0  0  0  0  0  0  0  0  0  0  0  0
   -8.8399   18.3837  -33.0135 H   0  0  0  0  0  0  0  0  0  0  0  0
   -9.0588   21.7916  -31.4099 H   0  0  0  0  0  0  0  0  0  0  0  0
   -7.1179   23.3327  -31.2176 H   0  0  0  0  0  0  0  0  0  0  0  0
   -4.6550   23.7790  -32.5640 H   0  0  0  0  0  0  0  0  0  0  0  0
   -3.2674   20.5454  -31.9079 H   0  0  0  0  0  0  0  0  0  0  0  0
   -1.2238   20.0916  -30.5564 H   0  0  0  0  0  0  0  0  0  0  0  0
   -0.2517   21.8829  -29.1180 H   0  0  0  0  0  0  0  0  0  0  0  0
   -1.3057   24.1421  -29.0525 H   0  0  0  0  0  0  0  0  0  0  0  0
   -4.5771   20.3853  -33.1044 H   0  0  0  0  0  0  0  0  0  0  0  0
   -6.3279   17.7089  -32.6820 H   0  0  0  0  0  0  0  0  0  0  0  0
   -7.3136   18.1998  -34.1012 H   0  0  0  0  0  0  0  0  0  0  0  0
   -5.5388   18.4768  -34.1012 H   0  0  0  0  0  0  0  0  0  0  0  0
  1  2  1  0
  2  3  2  0
  3  4  1  0
  4  5  2  0
  5  6  1  0
  6  7  1  0
  7  8  2  0
  8  9  1  0
  9 10  2  0
 10 11  1  0
 11 12  2  0
 12 13  1  0
 13 14  1  0
 14 15  2  0
 14 16  1  0
 16 17  1  0
 16 18  1  0
 16 19  1  0
  5 20  1  0
 20 21  2  0
 21 22  1  0
 21  2  1  0
 12  7  1  0
  1 23  1  0
  1 24  1  0
  1 25  1  0
  3 26  1  0
  4 27  1  0
  6 28  1  0
  8 29  1  0
  9 30  1  0
 10 31  1  0
 11 32  1  0
 20 33  1  0
 22 34  1  0
 22 35  1  0
 22 36  1  0
M  CHG  1  13  -1
M  END
>  <UniqueID>  (6) 
6

>  <SMILES>  (6) 
Cc1ccc(Nc2ccccc2[N-]C(=O)C(F)(F)F)cc1C

>  <Energy>  (6) 
47.211458749248365

>  <Genealogy>  (6) 
Cc1ccc(Nc2ccccc2[N-]C(=O)C(F)(F)F)cc1C (protonated)
Cc1ccc(Nc2ccccc2[N-]C(=O)C(F)(F)F)cc1C (3D coordinates assigned)
Cc1ccc(Nc2ccccc2[N-]C(=O)C(F)(F)F)cc1C (optimized conformer: 47.211458749248365 kcal/mol)

>  <smiles>  (6) 
Cc1ccc(Nc2ccccc2NC(=O)C(F)(F)F)cc1C

>  <score_type>  (6) 
oracle

>  <origin>  (6) 
adgpu

>  <m_score__min__energy>  (6) 
-8.4900000000000002

>  <m_primary>  (6) 
energy

$$$$
6:0
     RDKit          3D

 50 53  0  0  0  0  0  0  0  0999 V2000
   -4.6600   24.6750  -31.1320 O   0  0  0  0  0  0  0  0  0  0  0  0
   -4.7740   23.4530  -30.8430 C   0  0  0  0  0  0  0  0  0  0  0  0
   -3.6960   22.7770  -30.1730 N   0  0  0  0  0  0  0  0  0  0  0  0
   -2.4860   23.4750  -29.7450 C   0  0  0  0  0  0  0  0  0  0  0  0
   -2.7090   24.1320  -28.4100 C   0  0  0  0  0  0  0  0  0  0  0  0
   -1.6450   24.7640  -27.7510 C   0  0  0  0  0  0  0  0  0  0  0  0
   -1.8710   25.3910  -26.5230 C   0  0  0  0  0  0  0  0  0  0  0  0
   -3.1150   25.3910  -25.9750 N   0  0  0  0  0  0  0  0  0  0  0  0
   -4.1660   24.7890  -26.5940 C   0  0  0  0  0  0  0  0  0  0  0  0
   -3.9840   24.1510  -27.8240 C   0  0  0  0  0  0  0  0  0  0  0  0
   -6.0130   22.7320  -31.2230 C   0  0  0  0  0  0  0  0  0  0  0  0
   -7.1840   23.4540  -31.5100 C   0  0  0  0  0  0  0  0  0  0  0  0
   -8.3550   22.7870  -31.8810 C   0  0  0  0  0  0  0  0  0  0  0  0
   -8.3720   21.3940  -31.9640 C   0  0  0  0  0  0  0  0  0  0  0  0
   -7.2210   20.6580  -31.6630 C   0  0  0  0  0  0  0  0  0  0  0  0
   -7.2520   18.9000  -31.7930 S   0  0  0  0  0  0  0  0  0  0  0  0
   -6.1330   18.3060  -30.9830 O   0  0  0  0  0  0  0  0  0  0  0  0
   -8.5550   18.4070  -31.2290 O   0  0  0  0  0  0  0  0  0  0  0  0
   -7.1300   18.4070  -33.4700 N   0  0  0  0  0  0  0  0  0  0  0  0
   -6.1730   19.2190  -34.2460 C   0  0  0  0  0  0  0  0  0  0  0  0
   -4.7220   19.0250  -33.7850 C   0  0  0  0  0  0  0  0  0  0  0  0
   -4.3870   17.5810  -33.5330 C   0  0  0  0  0  0  0  0  0  0  0  0
   -3.0450   17.2090  -33.3610 C   0  0  0  0  0  0  0  0  0  0  0  0
   -2.7100   15.8850  -33.0680 C   0  0  0  0  0  0  0  0  0  0  0  0
   -3.7130   14.9230  -32.9370 C   0  0  0  0  0  0  0  0  0  0  0  0
   -5.0530   15.2820  -33.0930 C   0  0  0  0  0  0  0  0  0  0  0  0
   -5.4030   16.6140  -33.3730 C   0  0  0  0  0  0  0  0  0  0  0  0
   -6.8560   16.9640  -33.5970 C   0  0  0  0  0  0  0  0  0  0  0  0
   -6.0450   21.3260  -31.2890 C   0  0  0  0  0  0  0  0  0  0  0  0
   -3.7250   21.7410  -30.0510 H   0  0  0  0  0  0  0  0  0  0  0  0
   -1.6605   22.7528  -29.6610 H   0  0  0  0  0  0  0  0  0  0  0  0
   -2.2358   24.2472  -30.4874 H   0  0  0  0  0  0  0  0  0  0  0  0
   -0.6397   24.7662  -28.1975 H   0  0  0  0  0  0  0  0  0  0  0  0
   -1.0403   25.8858  -25.9984 H   0  0  0  0  0  0  0  0  0  0  0  0
   -5.1611   24.8044  -26.1255 H   0  0  0  0  0  0  0  0  0  0  0  0
   -4.8334   23.6676  -28.3288 H   0  0  0  0  0  0  0  0  0  0  0  0
   -7.1790   24.5519  -31.4422 H   0  0  0  0  0  0  0  0  0  0  0  0
   -9.2652   23.3614  -32.1081 H   0  0  0  0  0  0  0  0  0  0  0  0
   -9.2926   20.8735  -32.2668 H   0  0  0  0  0  0  0  0  0  0  0  0
   -6.2469   18.9331  -35.3056 H   0  0  0  0  0  0  0  0  0  0  0  0
   -6.4324   20.2767  -34.0912 H   0  0  0  0  0  0  0  0  0  0  0  0
   -4.0493   19.4126  -34.5643 H   0  0  0  0  0  0  0  0  0  0  0  0
   -4.5968   19.5680  -32.8366 H   0  0  0  0  0  0  0  0  0  0  0  0
   -2.2517   17.9649  -33.4575 H   0  0  0  0  0  0  0  0  0  0  0  0
   -1.6552   15.6002  -32.9404 H   0  0  0  0  0  0  0  0  0  0  0  0
   -3.4470   13.8800  -32.7104 H   0  0  0  0  0  0  0  0  0  0  0  0
   -5.8389   14.5185  -32.9963 H   0  0  0  0  0  0  0  0  0  0  0  0
   -7.1418   16.6412  -34.6090 H   0  0  0  0  0  0  0  0  0  0  0  0
   -7.4406   16.4497  -32.8200 H   0  0  0  0  0  0  0  0  0  0  0  0
   -5.1418   20.7471  -31.0457 H   0  0  0  0  0  0  0  0  0  0  0  0
  1  2  2  0
  2  3  1  0
  3  4  1  0
  4  5  1  0
  5  6  2  0
  6  7  1  0
  7  8  2  0
  8  9  1  0
  9 10  2  0
  2 11  1  0
 11 12  2  0
 12 13  1  0
 13 14  2  0
 14 15  1  0
 15 16  1  0
 16 17  2  0
 16 18  2  0
 16 19  1  0
 19 20  1  0
 20 21  1  0
 21 22  1  0
 22 23  2  0
 23 24  1  0
 24 25  2  0
 25 26  1  0
 26 27  2  0
 27 28  1  0
 15 29  2  0
 10  5  1  0
 29 11  1  0
 28 19  1  0
 27 22  1  0
  3 30  1  0
  4 31  1  0
  4 32  1  0
  6 33  1  0
  7 34  1  0
  9 35  1  0
 10 36  1  0
 12 37  1  0
 13 38  1  0
 14 39  1  0
 20 40  1  0
 20 41  1  0
 21 42  1  0
 21 43  1  0
 23 44  1  0
 24 45  1  0
 25 46  1  0
 26 47  1  0
 28 48  1  0
 28 49  1  0
 29 50  1  0
M  END
>  <UniqueID>  (7) 
7

>  <SMILES>  (7) 
O=C(NCc1ccncc1)c1cccc(S(=O)(=O)N2CCc3ccccc3C2)c1

>  <Energy>  (7) 
59.06412626021104

>  <Genealogy>  (7) 
O=C(NCc1ccncc1)c1cccc(S(=O)(=O)N2CCc3ccccc3C2)c1 (3D coordinates assigned)
O=C(NCc1ccncc1)c1cccc(S(=O)(=O)N2CCc3ccccc3C2)c1 (nonaromatic ring conformer: 59.06412626021104 kcal/mol)

>  <smiles>  (7) 
O=C(NCc1ccncc1)c1cccc(S(=O)(=O)N2CCc3ccccc3C2)c1

>  <score_type>  (7) 
oracle

>  <origin>  (7) 
adgpu

>  <m_score__min__energy>  (7) 
-10.09

>  <m_primary>  (7) 
energy

$$$$
7:0
     RDKit          3D

 58 61  0  0  0  0  0  0  0  0999 V2000
   -6.7139   25.1870  -30.0419 H   0  0  0  0  0  0  0  0  0  0  0  0
   -6.5340   24.2260  -30.5460 C   0  0  0  0  0  0  0  0  0  0  0  0
   -5.2290   23.8410  -30.8660 C   0  0  0  0  0  0  0  0  0  0  0  0
   -4.3864   24.5002  -30.6099 H   0  0  0  0  0  0  0  0  0  0  0  0
   -4.9860   22.6150  -31.5140 C   0  0  0  0  0  0  0  0  0  0  0  0
   -3.6060   22.1770  -31.8440 C   0  0  0  0  0  0  0  0  0  0  0  0
   -3.3230   21.7480  -33.1060 N   0  0  0  0  0  0  0  0  0  0  0  0
   -2.1010   21.3450  -33.4550 N   0  0  0  0  0  0  0  0  0  0  0  0
   -1.0680   21.3410  -32.5670 C   0  0  0  0  0  0  0  0  0  0  0  0
    0.1250   20.9650  -32.9210 N   0  0  0  0  0  0  0  0  0  0  0  0
    0.4800   20.4360  -34.2090 C   0  0  0  0  0  0  0  0  0  0  0  0
    0.3880   19.0540  -34.4160 C   0  0  0  0  0  0  0  0  0  0  0  0
    0.0504   18.4043  -33.5951 H   0  0  0  0  0  0  0  0  0  0  0  0
    0.7190   18.4880  -35.6510 C   0  0  0  0  0  0  0  0  0  0  0  0
    0.6320   17.0960  -35.7910 O   0  0  0  0  0  0  0  0  0  0  0  0
   -0.5910   16.3670  -35.8360 C   0  0  0  0  0  0  0  0  0  0  0  0
   -0.9339   16.1626  -34.8110 H   0  0  0  0  0  0  0  0  0  0  0  0
   -1.3516   16.9592  -36.3659 H   0  0  0  0  0  0  0  0  0  0  0  0
   -0.4319   15.4163  -36.3659 H   0  0  0  0  0  0  0  0  0  0  0  0
    1.1280   19.3280  -36.7010 C   0  0  0  0  0  0  0  0  0  0  0  0
    1.3986   18.8936  -37.6747 H   0  0  0  0  0  0  0  0  0  0  0  0
    1.1930   20.7110  -36.5160 C   0  0  0  0  0  0  0  0  0  0  0  0
    1.5085   21.3593  -37.3468 H   0  0  0  0  0  0  0  0  0  0  0  0
    0.8570   21.2810  -35.2720 C   0  0  0  0  0  0  0  0  0  0  0  0
    0.8650   22.6710  -35.0700 O   0  0  0  0  0  0  0  0  0  0  0  0
    0.6450   23.6390  -36.0920 C   0  0  0  0  0  0  0  0  0  0  0  0
    0.4235   24.6135  -35.6324 H   0  0  0  0  0  0  0  0  0  0  0  0
    1.5466   23.7245  -36.7163 H   0  0  0  0  0  0  0  0  0  0  0  0
   -0.2050   23.3264  -36.7163 H   0  0  0  0  0  0  0  0  0  0  0  0
   -1.2940   21.7930  -31.2660 C   0  0  0  0  0  0  0  0  0  0  0  0
   -0.4703   21.8204  -30.5374 H   0  0  0  0  0  0  0  0  0  0  0  0
   -2.5710   22.2090  -30.8980 C   0  0  0  0  0  0  0  0  0  0  0  0
   -2.7664   22.5598  -29.8739 H   0  0  0  0  0  0  0  0  0  0  0  0
   -6.0770   21.7830  -31.8230 C   0  0  0  0  0  0  0  0  0  0  0  0
   -5.9012   20.8184  -32.3215 H   0  0  0  0  0  0  0  0  0  0  0  0
   -7.3850   22.1690  -31.5030 C   0  0  0  0  0  0  0  0  0  0  0  0
   -8.7280   21.1110  -31.9220 S   0  0  0  0  0  0  0  0  0  0  0  0
   -9.9320   21.9050  -32.3480 O   0  0  0  0  0  0  0  0  0  0  0  0
   -9.0930   20.2970  -30.7140 O   0  0  0  0  0  0  0  0  0  0  0  0
   -8.2540   20.0480  -33.2090 N   0  0  0  0  0  0  0  0  0  0  0  0
   -8.9070   19.9730  -34.0220 H   0  0  0  0  0  0  0  0  0  0  0  0
   -7.0860   19.2090  -33.1720 C   0  0  0  0  0  0  0  0  0  0  0  0
   -6.8770   18.2680  -32.1470 C   0  0  0  0  0  0  0  0  0  0  0  0
   -7.6238   18.1558  -31.3472 H   0  0  0  0  0  0  0  0  0  0  0  0
   -5.7260   17.4750  -32.1390 C   0  0  0  0  0  0  0  0  0  0  0  0
   -5.5764   16.7410  -31.3335 H   0  0  0  0  0  0  0  0  0  0  0  0
   -4.7620   17.6050  -33.1450 C   0  0  0  0  0  0  0  0  0  0  0  0
   -3.6220   16.7900  -33.0860 O   0  0  0  0  0  0  0  0  0  0  0  0
   -2.2830   17.2770  -33.1050 C   0  0  0  0  0  0  0  0  0  0  0  0
   -1.9255   17.4070  -32.0729 H   0  0  0  0  0  0  0  0  0  0  0  0
   -1.6380   16.5559  -33.6284 H   0  0  0  0  0  0  0  0  0  0  0  0
   -2.2519   18.2440  -33.6284 H   0  0  0  0  0  0  0  0  0  0  0  0
   -4.9660   18.5480  -34.1700 C   0  0  0  0  0  0  0  0  0  0  0  0
   -4.2153   18.6628  -34.9658 H   0  0  0  0  0  0  0  0  0  0  0  0
   -6.1180   19.3390  -34.1810 C   0  0  0  0  0  0  0  0  0  0  0  0
   -6.2681   20.0710  -34.9883 H   0  0  0  0  0  0  0  0  0  0  0  0
   -7.6100   23.3950  -30.8640 C   0  0  0  0  0  0  0  0  0  0  0  0
   -8.6355   23.7034  -30.6125 H   0  0  0  0  0  0  0  0  0  0  0  0
  1  2  1  0
  2  3  2  0
  3  4  1  0
  3  5  1  0
  5  6  1  0
  6  7  2  0
  7  8  1  0
  8  9  1  0
  9 10  2  0
 10 11  1  0
 11 12  2  0
 12 13  1  0
 12 14  1  0
 14 15  1  0
 15 16  1  0
 16 17  1  0
 16 18  1  0
 16 19  1  0
 14 20  2  0
 20 21  1  0
 20 22  1  0
 22 23  1  0
 22 24  2  0
 24 25  1  0
 25 26  1  0
 26 27  1  0
 26 28  1  0
 26 29  1  0
  9 30  1  0
 30 31  1  0
 30 32  2  0
 32 33  1  0
  5 34  2  0
 34 35  1  0
 34 36  1  0
 36 37  1  0
 37 38  2  0
 37 39  2  0
 37 40  1  0
 40 41  1  0
 40 42  1  0
 42 43  2  0
 43 44  1  0
 43 45  1  0
 45 46  1  0
 45 47  2  0
 47 48  1  0
 48 49  1  0
 49 50  1  0
 49 51  1  0
 49 52  1  0
 47 53  1  0
 53 54  1  0
 53 55  2  0
 55 56  1  0
 36 57  2  0
 57 58  1  0
 57  2  1  0
 32  6  1  0
 55 42  1  0
 24 11  1  0
M  CHG  1   8  -1
M  END
>  <UniqueID>  (8) 
8

>  <SMILES>  (8) 
COc1ccc(NS(=O)(=O)c2cccc(-c3cc/c(=N/c4cc(OC)ccc4OC)[n-]n3)c2)cc1

>  <Energy>  (8) 
76.24891089267918

>  <Genealogy>  (8) 
COc1ccc(NS(=O)(=O)c2cccc(-c3ccc(=Nc4cc(OC)ccc4OC)[n-]n3)c2)cc1 (protonated)
COc1ccc(NS(=O)(=O)c2cccc(-c3cc/c(=N/c4cc(OC)ccc4OC)[n-]n3)c2)cc1 (cis-trans isomerization)
COc1ccc(NS(=O)(=O)c2cccc(-c3cc/c(=N/c4cc(OC)ccc4OC)[n-]n3)c2)cc1 (3D coordinates assigned)
COc1ccc(NS(=O)(=O)c2cccc(-c3cc/c(=N/c4cc(OC)ccc4OC)[n-]n3)c2)cc1 (optimized conformer: 76.24891089267918 kcal/mol)

>  <smiles>  (8) 
COc1ccc(NS(=O)(=O)c2cccc(-c3ccc(=Nc4cc(OC)ccc4OC)[nH]n3)c2)cc1

>  <score_type>  (8) 
oracle

>  <origin>  (8) 
adgpu

>  <m_score__min__energy>  (8) 
-10.789999999999999

>  <m_primary>  (8) 
energy

$$$$
8:0
     RDKit          3D

 43 45  0  0  0  0  0  0  0  0999 V2000
   -2.5300   21.0030  -27.4740 C   0  0  0  0  0  0  0  0  0  0  0  0
   -2.1810   22.3690  -27.9870 C   0  0  0  0  0  0  0  0  0  0  0  0
   -1.0600   23.0470  -27.4830 C   0  0  0  0  0  0  0  0  0  0  0  0
   -0.7480   24.3300  -27.9410 C   0  0  0  0  0  0  0  0  0  0  0  0
   -1.5640   24.9540  -28.8890 C   0  0  0  0  0  0  0  0  0  0  0  0
   -1.2350   26.2290  -29.3410 O   0  0  0  0  0  0  0  0  0  0  0  0
   -2.7060   24.3000  -29.3840 C   0  0  0  0  0  0  0  0  0  0  0  0
   -3.5250   24.9770  -30.3490 N   0  0  0  0  0  0  0  0  0  0  0  0
   -5.2600   25.0000  -30.3550 S   0  0  0  0  0  0  0  0  0  0  0  0
   -5.7560   25.1730  -28.9470 O   0  0  0  0  0  0  0  0  0  0  0  0
   -5.7330   26.1610  -31.1870 O   0  0  0  0  0  0  0  0  0  0  0  0
   -5.8790   23.4820  -30.9970 C   0  0  0  0  0  0  0  0  0  0  0  0
   -5.0860   22.3290  -30.9460 C   0  0  0  0  0  0  0  0  0  0  0  0
   -5.5570   21.1260  -31.4800 C   0  0  0  0  0  0  0  0  0  0  0  0
   -6.8270   21.0670  -32.0670 C   0  0  0  0  0  0  0  0  0  0  0  0
   -7.4190   19.5530  -32.7460 S   0  0  0  0  0  0  0  0  0  0  0  0
   -8.8800   19.6650  -33.0850 O   0  0  0  0  0  0  0  0  0  0  0  0
   -7.2330   18.4600  -31.7310 O   0  0  0  0  0  0  0  0  0  0  0  0
   -6.5340   19.1510  -34.1810 N   0  0  0  0  0  0  0  0  0  0  0  0
   -5.2220   18.5730  -34.2090 C   0  0  0  0  0  0  0  0  0  0  0  0
   -5.0830   17.2480  -34.6450 C   0  0  0  0  0  0  0  0  0  0  0  0
   -3.8240   16.6430  -34.6850 C   0  0  0  0  0  0  0  0  0  0  0  0
   -2.6920   17.3570  -34.2850 C   0  0  0  0  0  0  0  0  0  0  0  0
   -2.8180   18.6760  -33.8440 C   0  0  0  0  0  0  0  0  0  0  0  0
   -4.0770   19.2870  -33.8040 C   0  0  0  0  0  0  0  0  0  0  0  0
   -7.6240   22.2200  -32.1120 C   0  0  0  0  0  0  0  0  0  0  0  0
   -7.1540   23.4220  -31.5770 C   0  0  0  0  0  0  0  0  0  0  0  0
   -3.0090   23.0050  -28.9270 C   0  0  0  0  0  0  0  0  0  0  0  0
   -2.5275   21.0127  -26.3740 H   0  0  0  0  0  0  0  0  0  0  0  0
   -3.5294   20.7197  -27.8359 H   0  0  0  0  0  0  0  0  0  0  0  0
   -1.7890   20.2750  -27.8359 H   0  0  0  0  0  0  0  0  0  0  0  0
   -0.4245   22.5665  -26.7245 H   0  0  0  0  0  0  0  0  0  0  0  0
    0.1413   24.8497  -27.5548 H   0  0  0  0  0  0  0  0  0  0  0  0
   -4.0886   22.3700  -30.4840 H   0  0  0  0  0  0  0  0  0  0  0  0
   -4.9288   20.2240  -31.4390 H   0  0  0  0  0  0  0  0  0  0  0  0
   -5.9716   16.6803  -34.9580 H   0  0  0  0  0  0  0  0  0  0  0  0
   -3.7243   15.6038  -35.0317 H   0  0  0  0  0  0  0  0  0  0  0  0
   -1.7012   16.8802  -34.3174 H   0  0  0  0  0  0  0  0  0  0  0  0
   -1.9259   19.2362  -33.5273 H   0  0  0  0  0  0  0  0  0  0  0  0
   -4.1724   20.3261  -33.4558 H   0  0  0  0  0  0  0  0  0  0  0  0
   -8.6231   22.1779  -32.5703 H   0  0  0  0  0  0  0  0  0  0  0  0
   -7.7850   24.3224  -31.6109 H   0  0  0  0  0  0  0  0  0  0  0  0
   -3.9009   22.4862  -29.3083 H   0  0  0  0  0  0  0  0  0  0  0  0
  1  2  1  0
  2  3  2  0
  3  4  1  0
  4  5  2  0
  5  6  1  0
  5  7  1  0
  7  8  1  0
  8  9  1  0
  9 10  2  0
  9 11  2  0
  9 12  1  0
 12 13  2  0
 13 14  1  0
 14 15  2  0
 15 16  1  0
 16 17  2  0
 16 18  2  0
 16 19  1  0
 19 20  1  0
 20 21  2  0
 21 22  1  0
 22 23  2  0
 23 24  1  0
 24 25  2  0
 15 26  1  0
 26 27  2  0
  7 28  2  0
 28  2  1  0
 27 12  1  0
 25 20  1  0
  1 29  1  0
  1 30  1  0
  1 31  1  0
  3 32  1  0
  4 33  1  0
 13 34  1  0
 14 35  1  0
 21 36  1  0
 22 37  1  0
 23 38  1  0
 24 39  1  0
 25 40  1  0
 26 41  1  0
 27 42  1  0
 28 43  1  0
M  CHG  3   6  -1   8  -1  19  -1
M  END
>  <UniqueID>  (9) 
9

>  <SMILES>  (9) 
Cc1ccc([O-])c([N-]S(=O)(=O)c2ccc(S(=O)(=O)[N-]c3ccccc3)cc2)c1

>  <Energy>  (9) 
50.16887939721775

>  <Genealogy>  (9) 
Cc1ccc([O-])c([N-]S(=O)(=O)c2ccc(S(=O)(=O)[N-]c3ccccc3)cc2)c1 (protonated)
Cc1ccc([O-])c([N-]S(=O)(=O)c2ccc(S(=O)(=O)[N-]c3ccccc3)cc2)c1 (3D coordinates assigned)
Cc1ccc([O-])c([N-]S(=O)(=O)c2ccc(S(=O)(=O)[N-]c3ccccc3)cc2)c1 (optimized conformer: 50.16887939721775 kcal/mol)

>  <smiles>  (9) 
Cc1ccc(O)c(NS(=O)(=O)c2ccc(S(=O)(=O)Nc3ccccc3)cc2)c1

>  <score_type>  (9) 
oracle

>  <origin>  (9) 
adgpu

>  <m_score__min__energy>  (9) 
-14.52

>  <m_primary>  (9) 
energy

$$$$
9:0
     RDKit          3D

 32 33  0  0  0  0  0  0  0  0999 V2000
   -2.5250   19.0800  -26.3400 C   0  0  0  0  0  0  0  0  0  0  0  0
   -2.7200   20.0470  -27.5050 C   0  0  0  0  0  0  0  0  0  0  0  0
   -1.9130   21.2570  -27.3240 N   0  0  0  0  0  0  0  0  0  0  0  0
   -2.1480   22.4950  -28.0350 C   0  0  0  0  0  0  0  0  0  0  0  0
   -3.3230   22.5680  -28.7910 C   0  0  0  0  0  0  0  0  0  0  0  0
   -3.8140   23.5820  -29.6170 C   0  0  0  0  0  0  0  0  0  0  0  0
   -5.0960   23.2880  -30.3030 C   0  0  0  0  0  0  0  0  0  0  0  0
   -5.2000   22.1250  -31.0860 C   0  0  0  0  0  0  0  0  0  0  0  0
   -6.3900   21.8260  -31.7530 C   0  0  0  0  0  0  0  0  0  0  0  0
   -7.4890   22.6820  -31.6430 C   0  0  0  0  0  0  0  0  0  0  0  0
   -8.6710   22.3830  -32.3090 O   0  0  0  0  0  0  0  0  0  0  0  0
   -7.3990   23.8370  -30.8600 C   0  0  0  0  0  0  0  0  0  0  0  0
   -6.2130   24.1460  -30.1840 C   0  0  0  0  0  0  0  0  0  0  0  0
   -6.1760   25.2980  -29.3960 O   0  0  0  0  0  0  0  0  0  0  0  0
   -3.2210   24.8200  -29.8740 C   0  0  0  0  0  0  0  0  0  0  0  0
   -3.8560   25.6730  -30.7740 O   0  0  0  0  0  0  0  0  0  0  0  0
   -2.0840   25.2810  -29.3170 N   0  0  0  0  0  0  0  0  0  0  0  0
   -1.1790   24.7890  -28.4450 C   0  0  0  0  0  0  0  0  0  0  0  0
   -0.2240   25.5550  -28.1390 O   0  0  0  0  0  0  0  0  0  0  0  0
   -1.1880   23.5110  -27.8670 C   0  0  0  0  0  0  0  0  0  0  0  0
   -0.2100   23.2410  -27.1140 O   0  0  0  0  0  0  0  0  0  0  0  0
   -2.6346   19.6236  -25.3900 H   0  0  0  0  0  0  0  0  0  0  0  0
   -3.2804   18.2823  -26.3953 H   0  0  0  0  0  0  0  0  0  0  0  0
   -1.5195   18.6373  -26.3953 H   0  0  0  0  0  0  0  0  0  0  0  0
   -2.4189   19.5502  -28.4391 H   0  0  0  0  0  0  0  0  0  0  0  0
   -3.7805   20.3361  -27.5467 H   0  0  0  0  0  0  0  0  0  0  0  0
   -1.0520   21.1660  -26.7380 H   0  0  0  0  0  0  0  0  0  0  0  0
   -3.9674   21.6791  -28.7238 H   0  0  0  0  0  0  0  0  0  0  0  0
   -4.3388   21.4464  -31.1738 H   0  0  0  0  0  0  0  0  0  0  0  0
   -6.4623   20.9154  -32.3658 H   0  0  0  0  0  0  0  0  0  0  0  0
   -8.2667   24.5077  -30.7747 H   0  0  0  0  0  0  0  0  0  0  0  0
   -5.3180   25.7990  -29.1990 H   0  0  0  0  0  0  0  0  0  0  0  0
  1  2  1  0
  2  3  1  0
  3  4  1  0
  4  5  2  0
  5  6  1  0
  6  7  1  0
  7  8  2  0
  8  9  1  0
  9 10  2  0
 10 11  1  0
 10 12  1  0
 12 13  2  0
 13 14  1  0
  6 15  2  0
 15 16  1  0
 15 17  1  0
 17 18  1  0
 18 19  2  0
 18 20  1  0
 20 21  2  0
 20  4  1  0
 13  7  1  0
  1 22  1  0
  1 23  1  0
  1 24  1  0
  2 25  1  0
  2 26  1  0
  3 27  1  0
  5 28  1  0
  8 29  1  0
  9 30  1  0
 12 31  1  0
 14 32  1  0
M  CHG  3  11  -1  16  -1  17  -1
M  END
>  <UniqueID>  (10) 
10

>  <SMILES>  (10) 
CCNc1cc(-c2ccc([O-])cc2O)c([O-])[n-]c(=O)c1=O

>  <Energy>  (10) 
67.4830763203024

>  <Genealogy>  (10) 
CCNc1cc(-c2ccc([O-])cc2O)c([O-])[n-]c(=O)c1=O (protonated)
CCNc1cc(-c2ccc([O-])cc2O)c([O-])[n-]c(=O)c1=O (3D coordinates assigned)
CCNc1cc(-c2ccc([O-])cc2O)c([O-])[n-]c(=O)c1=O (optimized conformer: 67.4830763203024 kcal/mol)

>  <smiles>  (10) 
CCNc1cc(-c2ccc(O)cc2O)c(O)[nH]c(=O)c1=O

>  <score_type>  (10) 
oracle

>  <origin>  (10) 
adgpu

>  <m_score__min__energy>  (10) 
-11.460000000000001

>  <m_primary>  (10) 
energy

$$$$
10:0
     RDKit          3D

 47 50  0  0  0  0  0  0  0  0999 V2000
    3.7080   24.1810  -23.4760 C   0  0  0  0  0  0  0  0  0  0  0  0
    2.4840   24.5710  -24.3160 C   0  0  0  0  0  0  0  0  0  0  0  0
    1.9640   25.9430  -23.8470 C   0  0  0  0  0  0  0  0  0  0  0  0
    2.8720   24.6180  -25.8130 C   0  0  0  0  0  0  0  0  0  0  0  0
    1.6510   24.7150  -26.6830 C   0  0  0  0  0  0  0  0  0  0  0  0
    1.7280   25.3070  -27.7950 O   0  0  0  0  0  0  0  0  0  0  0  0
    0.4290   24.0720  -26.2780 N   0  0  0  0  0  0  0  0  0  0  0  0
   -0.7210   24.0540  -27.1460 C   0  0  0  0  0  0  0  0  0  0  0  0
   -0.6130   23.5790  -28.4580 C   0  0  0  0  0  0  0  0  0  0  0  0
   -1.7290   23.5450  -29.3000 C   0  0  0  0  0  0  0  0  0  0  0  0
   -1.5610   23.0690  -30.5590 F   0  0  0  0  0  0  0  0  0  0  0  0
   -2.9880   23.9990  -28.8420 C   0  0  0  0  0  0  0  0  0  0  0  0
   -4.1930   23.9540  -29.7200 C   0  0  0  0  0  0  0  0  0  0  0  0
   -4.2490   24.5610  -30.8560 N   0  0  0  0  0  0  0  0  0  0  0  0
   -5.4800   24.3800  -31.4270 O   0  0  0  0  0  0  0  0  0  0  0  0
   -6.3650   23.6490  -30.5980 C   0  0  1  0  0  0  0  0  0  0  0  0
   -6.9490   22.4690  -31.3380 C   0  0  0  0  0  0  0  0  0  0  0  0
   -6.1290   21.6250  -32.1100 C   0  0  0  0  0  0  0  0  0  0  0  0
   -6.6780   20.5230  -32.7760 C   0  0  0  0  0  0  0  0  0  0  0  0
   -8.0470   20.2570  -32.6800 C   0  0  0  0  0  0  0  0  0  0  0  0
   -8.8690   21.0890  -31.9130 C   0  0  0  0  0  0  0  0  0  0  0  0
   -8.3240   22.1890  -31.2410 C   0  0  0  0  0  0  0  0  0  0  0  0
   -5.4750   23.2370  -29.4120 C   0  0  0  0  0  0  0  0  0  0  0  0
   -3.0830   24.4880  -27.5170 C   0  0  0  0  0  0  0  0  0  0  0  0
   -4.2640   24.9250  -27.0120 F   0  0  0  0  0  0  0  0  0  0  0  0
   -1.9600   24.5110  -26.6830 C   0  0  0  0  0  0  0  0  0  0  0  0
    0.3950   23.4290  -24.9920 C   0  0  0  0  0  0  0  0  0  0  0  0
   -0.5880   22.7200  -24.6470 O   0  0  0  0  0  0  0  0  0  0  0  0
    1.4660   23.5890  -24.1080 O   0  0  0  0  0  0  0  0  0  0  0  0
    3.4596   24.2601  -22.4073 H   0  0  0  0  0  0  0  0  0  0  0  0
    3.9981   23.1459  -23.7093 H   0  0  0  0  0  0  0  0  0  0  0  0
    4.5435   24.8574  -23.7093 H   0  0  0  0  0  0  0  0  0  0  0  0
    1.9521   25.9743  -22.7475 H   0  0  0  0  0  0  0  0  0  0  0  0
    2.6241   26.7355  -24.2293 H   0  0  0  0  0  0  0  0  0  0  0  0
    0.9444   26.0989  -24.2293 H   0  0  0  0  0  0  0  0  0  0  0  0
    3.5114   25.4951  -25.9915 H   0  0  0  0  0  0  0  0  0  0  0  0
    3.4091   23.6917  -26.0650 H   0  0  0  0  0  0  0  0  0  0  0  0
    0.3606   23.2285  -28.8311 H   0  0  0  0  0  0  0  0  0  0  0  0
   -7.2443   24.2226  -30.2698 H   0  0  0  0  0  0  0  0  0  0  0  0
   -5.0517   21.8323  -32.1904 H   0  0  0  0  0  0  0  0  0  0  0  0
   -6.0314   19.8655  -33.3757 H   0  0  0  0  0  0  0  0  0  0  0  0
   -8.4778   19.3933  -33.2077 H   0  0  0  0  0  0  0  0  0  0  0  0
   -9.9460   20.8783  -31.8378 H   0  0  0  0  0  0  0  0  0  0  0  0
   -8.9736   22.8372  -30.6345 H   0  0  0  0  0  0  0  0  0  0  0  0
   -5.9018   23.5743  -28.4559 H   0  0  0  0  0  0  0  0  0  0  0  0
   -5.3590   22.1487  -29.3016 H   0  0  0  0  0  0  0  0  0  0  0  0
   -2.0517   24.8914  -25.6549 H   0  0  0  0  0  0  0  0  0  0  0  0
  1  2  1  0
  2  3  1  0
  2  4  1  0
  4  5  1  0
  5  6  2  0
  5  7  1  0
  7  8  1  0
  8  9  2  0
  9 10  1  0
 10 11  1  0
 10 12  2  0
 12 13  1  0
 13 14  2  0
 14 15  1  0
 15 16  1  0
 16 17  1  0
 17 18  2  0
 18 19  1  0
 19 20  2  0
 20 21  1  0
 21 22  2  0
 16 23  1  0
 12 24  1  0
 24 25  1  0
 24 26  2  0
  7 27  1  0
 27 28  2  0
 27 29  1  0
 29  2  1  0
 26  8  1  0
 23 13  1  0
 22 17  1  0
  1 30  1  0
  1 31  1  0
  1 32  1  0
  3 33  1  0
  3 34  1  0
  3 35  1  0
  4 36  1  0
  4 37  1  0
  9 38  1  0
 16 39  1  1
 18 40  1  0
 19 41  1  0
 20 42  1  0
 21 43  1  0
 22 44  1  0
 23 45  1  0
 23 46  1  0
 26 47  1  0
M  END
>  <UniqueID>  (11) 
11

>  <SMILES>  (11) 
CC1(C)CC(=O)N(c2cc(F)c(C3=NO[C@@H](c4ccccc4)C3)c(F)c2)C(=O)O1

>  <Energy>  (11) 
70.61280402662203

>  <Genealogy>  (11) 
CC1(C)CC(=O)N(c2cc(F)c(C3=NO[C@@H](c4ccccc4)C3)c(F)c2)C(=O)O1 (chirality)
CC1(C)CC(=O)N(c2cc(F)c(C3=NO[C@@H](c4ccccc4)C3)c(F)c2)C(=O)O1 (3D coordinates assigned)
CC1(C)CC(=O)N(c2cc(F)c(C3=NO[C@@H](c4ccccc4)C3)c(F)c2)C(=O)O1 (nonaromatic ring conformer: 70.61280402662203 kcal/mol)

>  <smiles>  (11) 
CC1(C)CC(=O)N(c2cc(F)c(C3=NOC(c4ccccc4)C3)c(F)c2)C(=O)O1

>  <score_type>  (11) 
oracle

>  <origin>  (11) 
adgpu

>  <m_score__min__energy>  (11) 
-8.9499999999999993

>  <m_primary>  (11) 
energy

$$$$
11:0
     RDKit          3D

 57 60  0  0  0  0  0  0  0  0999 V2000
   -6.1310   25.8270  -29.5390 C   0  0  0  0  0  0  0  0  0  0  0  0
   -5.0830   25.2980  -30.4690 C   0  0  0  0  0  0  0  0  0  0  0  0
   -5.4290   24.8800  -31.6040 O   0  0  0  0  0  0  0  0  0  0  0  0
   -3.6900   25.2930  -30.1240 N   0  0  0  0  0  0  0  0  0  0  0  0
   -3.0320   24.3750  -29.2370 C   0  0  0  0  0  0  0  0  0  0  0  0
   -1.6600   24.1440  -29.4050 C   0  0  0  0  0  0  0  0  0  0  0  0
   -0.9970   23.2170  -28.5960 C   0  0  0  0  0  0  0  0  0  0  0  0
   -1.7050   22.4880  -27.6320 C   0  0  0  0  0  0  0  0  0  0  0  0
   -0.8820   21.2580  -26.6780 S   0  0  0  0  0  0  0  0  0  0  0  0
   -0.9650   21.6070  -25.2180 O   0  0  0  0  0  0  0  0  0  0  0  0
   -1.5600   19.9340  -26.8890 O   0  0  0  0  0  0  0  0  0  0  0  0
    0.7820   21.1170  -27.1360 N   0  0  0  0  0  0  0  0  0  0  0  0
    1.2250   20.2150  -28.1500 C   0  0  0  0  0  0  0  0  0  0  0  0
    2.5730   19.8270  -28.2320 C   0  0  0  0  0  0  0  0  0  0  0  0
    2.9850   18.9310  -29.2220 C   0  0  0  0  0  0  0  0  0  0  0  0
    2.0640   18.4430  -30.1540 C   0  0  0  0  0  0  0  0  0  0  0  0
    0.7280   18.8610  -30.1030 C   0  0  0  0  0  0  0  0  0  0  0  0
   -0.4520   18.2720  -31.3170 S   0  0  0  0  0  0  0  0  0  0  0  0
    0.0090   19.5160  -32.5300 C   0  0  0  0  0  0  0  0  0  0  0  0
    1.2990   19.4680  -33.0740 C   0  0  0  0  0  0  0  0  0  0  0  0
    1.7070   20.4140  -34.0160 C   0  0  0  0  0  0  0  0  0  0  0  0
    0.8260   21.4140  -34.4250 C   0  0  0  0  0  0  0  0  0  0  0  0
   -0.4650   21.4700  -33.8970 C   0  0  0  0  0  0  0  0  0  0  0  0
   -0.8890   20.5270  -32.9430 C   0  0  0  0  0  0  0  0  0  0  0  0
   -2.2380   20.5790  -32.4430 N   0  0  0  0  0  0  0  0  0  0  0  0
   -2.5030   20.5920  -30.9960 C   0  0  0  0  0  0  0  0  0  0  0  0
   -3.6090   21.6040  -30.6620 C   0  0  0  0  0  0  0  0  0  0  0  0
   -3.5610   22.7210  -31.6120 N   0  0  0  0  0  0  0  0  0  0  0  0
   -3.9460   22.2860  -32.9670 C   0  0  0  0  0  0  0  0  0  0  0  0
   -3.3400   20.9190  -33.3490 C   0  0  0  0  0  0  0  0  0  0  0  0
    0.3100   19.7370  -29.0950 C   0  0  0  0  0  0  0  0  0  0  0  0
   -3.0820   22.6980  -27.4790 C   0  0  0  0  0  0  0  0  0  0  0  0
   -3.7430   23.6380  -28.2760 C   0  0  0  0  0  0  0  0  0  0  0  0
   -5.8127   25.6663  -28.4984 H   0  0  0  0  0  0  0  0  0  0  0  0
   -6.2703   26.9034  -29.7178 H   0  0  0  0  0  0  0  0  0  0  0  0
   -7.0797   25.2998  -29.7178 H   0  0  0  0  0  0  0  0  0  0  0  0
   -1.1025   24.6947  -30.1770 H   0  0  0  0  0  0  0  0  0  0  0  0
    0.0849   23.0593  -28.7168 H   0  0  0  0  0  0  0  0  0  0  0  0
    3.3049   20.2291  -27.5160 H   0  0  0  0  0  0  0  0  0  0  0  0
    4.0358   18.6090  -29.2682 H   0  0  0  0  0  0  0  0  0  0  0  0
    2.3885   17.7310  -30.9271 H   0  0  0  0  0  0  0  0  0  0  0  0
    1.9961   18.6786  -32.7564 H   0  0  0  0  0  0  0  0  0  0  0  0
    2.7230   20.3704  -34.4353 H   0  0  0  0  0  0  0  0  0  0  0  0
    1.1489   22.1606  -35.1655 H   0  0  0  0  0  0  0  0  0  0  0  0
   -1.1566   22.2581  -34.2297 H   0  0  0  0  0  0  0  0  0  0  0  0
   -2.8218   19.5887  -30.6771 H   0  0  0  0  0  0  0  0  0  0  0  0
   -1.5829   20.8826  -30.4679 H   0  0  0  0  0  0  0  0  0  0  0  0
   -4.5893   21.1094  -30.7285 H   0  0  0  0  0  0  0  0  0  0  0  0
   -3.4565   21.9866  -29.6420 H   0  0  0  0  0  0  0  0  0  0  0  0
   -4.2480   23.4490  -31.2950 H   0  0  0  0  0  0  0  0  0  0  0  0
   -5.0424   22.2103  -33.0139 H   0  0  0  0  0  0  0  0  0  0  0  0
   -3.5586   23.0311  -33.6775 H   0  0  0  0  0  0  0  0  0  0  0  0
   -4.1185   20.1450  -33.2797 H   0  0  0  0  0  0  0  0  0  0  0  0
   -2.9534   20.9741  -34.3773 H   0  0  0  0  0  0  0  0  0  0  0  0
   -0.7429   20.0515  -29.0451 H   0  0  0  0  0  0  0  0  0  0  0  0
   -3.6447   22.1218  -26.7298 H   0  0  0  0  0  0  0  0  0  0  0  0
   -4.8236   23.8007  -28.1497 H   0  0  0  0  0  0  0  0  0  0  0  0
  1  2  1  0
  2  3  2  0
  2  4  1  0
  4  5  1  0
  5  6  2  0
  6  7  1  0
  7  8  2  0
  8  9  1  0
  9 10  2  0
  9 11  2  0
  9 12  1  0
 12 13  1  0
 13 14  2  0
 14 15  1  0
 15 16  2  0
 16 17  1  0
 17 18  1  0
 18 19  1  0
 19 20  2  0
 20 21  1  0
 21 22  2  0
 22 23  1  0
 23 24  2  0
 24 25  1  0
 25 26  1  0
 26 27  1  0
 27 28  1  0
 28 29  1  0
 29 30  1  0
 17 31  2  0
  8 32  1  0
 32 33  2  0
 33  5  1  0
 31 13  1  0
 24 19  1  0
 30 25  1  0
  1 34  1  0
  1 35  1  0
  1 36  1  0
  6 37  1  0
  7 38  1  0
 14 39  1  0
 15 40  1  0
 16 41  1  0
 20 42  1  0
 21 43  1  0
 22 44  1  0
 23 45  1  0
 26 46  1  0
 26 47  1  0
 27 48  1  0
 27 49  1  0
 28 50  1  0
 29 51  1  0
 29 52  1  0
 30 53  1  0
 30 54  1  0
 31 55  1  0
 32 56  1  0
 33 57  1  0
M  CHG  2   4  -1  12  -1
M  END
>  <UniqueID>  (12) 
12

>  <SMILES>  (12) 
CC(=O)[N-]c1ccc(S(=O)(=O)[N-]c2cccc(Sc3ccccc3N3CCNCC3)c2)cc1

>  <Energy>  (12) 
77.87922831563554

>  <Genealogy>  (12) 
CC(=O)[N-]c1ccc(S(=O)(=O)[N-]c2cccc(Sc3ccccc3N3CCNCC3)c2)cc1 (protonated)
CC(=O)[N-]c1ccc(S(=O)(=O)[N-]c2cccc(Sc3ccccc3N3CCNCC3)c2)cc1 (3D coordinates assigned)
CC(=O)[N-]c1ccc(S(=O)(=O)[N-]c2cccc(Sc3ccccc3N3CCNCC3)c2)cc1 (nonaromatic ring conformer: 77.87922831563554 kcal/mol)

>  <smiles>  (12) 
CC(=O)Nc1ccc(S(=O)(=O)Nc2cccc(Sc3ccccc3N3CCNCC3)c2)cc1

>  <score_type>  (12) 
oracle

>  <origin>  (12) 
adgpu

>  <m_score__min__energy>  (12) 
-11.92

>  <m_primary>  (12) 
energy

$$$$
12:0
     RDKit          3D

 42 44  0  0  0  0  0  0  0  0999 V2000
   -5.6990   23.8260  -31.5980 C   0  0  0  0  0  0  0  0  0  0  0  0
   -4.5070   24.1390  -30.7510 C   0  0  0  0  0  0  0  0  0  0  0  0
   -4.0990   25.3930  -30.4840 N   0  0  0  0  0  0  0  0  0  0  0  0
   -3.0620   25.2990  -29.7050 O   0  0  0  0  0  0  0  0  0  0  0  0
   -2.7670   24.0470  -29.4440 C   0  0  0  0  0  0  0  0  0  0  0  0
   -1.7630   23.7330  -28.6770 N   0  0  0  0  0  0  0  0  0  0  0  0
   -1.1570   22.1700  -28.2210 S   0  0  0  0  0  0  0  0  0  0  0  0
    0.0760   22.3710  -27.3870 O   0  0  0  0  0  0  0  0  0  0  0  0
   -2.1790   21.4460  -27.3910 O   0  0  0  0  0  0  0  0  0  0  0  0
   -0.7040   21.2290  -29.6390 C   0  0  0  0  0  0  0  0  0  0  0  0
   -0.4910   19.8480  -29.5350 C   0  0  0  0  0  0  0  0  0  0  0  0
   -0.1210   19.1050  -30.6600 C   0  0  0  0  0  0  0  0  0  0  0  0
    0.0230   19.7360  -31.9090 C   0  0  0  0  0  0  0  0  0  0  0  0
    0.4260   19.0170  -33.0840 N   0  0  0  0  0  0  0  0  0  0  0  0
    0.0420   19.3010  -34.4380 C   0  0  0  0  0  0  0  0  0  0  0  0
   -0.8090   18.5700  -35.0120 O   0  0  0  0  0  0  0  0  0  0  0  0
    0.6060   20.4890  -35.1340 C   0  0  0  0  0  0  0  0  0  0  0  0
   -0.0850   21.7150  -35.0880 C   0  0  0  0  0  0  0  0  0  0  0  0
    0.4200   22.8450  -35.7320 C   0  0  0  0  0  0  0  0  0  0  0  0
    1.6240   22.7750  -36.4320 C   0  0  0  0  0  0  0  0  0  0  0  0
    2.1170   23.9080  -37.0700 O   0  0  0  0  0  0  0  0  0  0  0  0
    2.3330   21.5710  -36.4920 C   0  0  0  0  0  0  0  0  0  0  0  0
    3.5360   21.5260  -37.1970 O   0  0  0  0  0  0  0  0  0  0  0  0
    1.8300   20.4260  -35.8450 C   0  0  0  0  0  0  0  0  0  0  0  0
    2.5530   19.2390  -35.9110 O   0  0  0  0  0  0  0  0  0  0  0  0
   -0.1740   21.1190  -32.0040 C   0  0  0  0  0  0  0  0  0  0  0  0
   -0.5450   21.8610  -30.8780 C   0  0  0  0  0  0  0  0  0  0  0  0
   -3.6810   23.2270  -30.1110 C   0  0  0  0  0  0  0  0  0  0  0  0
   -3.8740   21.7380  -30.0890 C   0  0  0  0  0  0  0  0  0  0  0  0
   -6.5594   23.6001  -30.9510 H   0  0  0  0  0  0  0  0  0  0  0  0
   -5.9353   24.6925  -32.2330 H   0  0  0  0  0  0  0  0  0  0  0  0
   -5.4791   22.9552  -32.2330 H   0  0  0  0  0  0  0  0  0  0  0  0
   -0.6154   19.3463  -28.5640 H   0  0  0  0  0  0  0  0  0  0  0  0
    0.0581   18.0236  -30.5682 H   0  0  0  0  0  0  0  0  0  0  0  0
   -1.0349   21.7827  -34.5374 H   0  0  0  0  0  0  0  0  0  0  0  0
   -0.1336   23.7945  -35.6874 H   0  0  0  0  0  0  0  0  0  0  0  0
    4.1170   20.6970  -37.2230 H   0  0  0  0  0  0  0  0  0  0  0  0
   -0.0360   21.6253  -32.9707 H   0  0  0  0  0  0  0  0  0  0  0  0
   -0.7124   22.9446  -30.9662 H   0  0  0  0  0  0  0  0  0  0  0  0
   -3.9192   21.3895  -29.0466 H   0  0  0  0  0  0  0  0  0  0  0  0
   -4.8128   21.4823  -30.6021 H   0  0  0  0  0  0  0  0  0  0  0  0
   -3.0314   21.2514  -30.6021 H   0  0  0  0  0  0  0  0  0  0  0  0
  1  2  1  0
  2  3  1  0
  3  4  1  0
  4  5  1  0
  5  6  2  3
  6  7  1  0
  7  8  2  0
  7  9  2  0
  7 10  1  0
 10 11  2  0
 11 12  1  0
 12 13  2  0
 13 14  1  0
 14 15  1  0
 15 16  2  0
 15 17  1  0
 17 18  2  0
 18 19  1  0
 19 20  2  0
 20 21  1  0
 20 22  1  0
 22 23  1  0
 22 24  2  0
 24 25  1  0
 13 26  1  0
 26 27  2  0
  5 28  1  0
 28 29  1  0
 28  2  2  0
 27 10  1  0
 24 17  1  0
  1 30  1  0
  1 31  1  0
  1 32  1  0
 11 33  1  0
 12 34  1  0
 18 35  1  0
 19 36  1  0
 23 37  1  0
 26 38  1  0
 27 39  1  0
 29 40  1  0
 29 41  1  0
 29 42  1  0
M  CHG  4   3  -1  14  -1  21  -1  25  -1
M  END
>  <UniqueID>  (13) 
13

>  <SMILES>  (13) 
Cc1[n-]oc(=NS(=O)(=O)c2ccc([N-]C(=O)c3ccc([O-])c(O)c3[O-])cc2)c1C

>  <Energy>  (13) 
90.74541343161832

>  <Genealogy>  (13) 
Cc1[n-]oc(=NS(=O)(=O)c2ccc([N-]C(=O)c3ccc([O-])c(O)c3[O-])cc2)c1C (protonated)
Cc1[n-]oc(=NS(=O)(=O)c2ccc([N-]C(=O)c3ccc([O-])c(O)c3[O-])cc2)c1C (3D coordinates assigned)
Cc1[n-]oc(=NS(=O)(=O)c2ccc([N-]C(=O)c3ccc([O-])c(O)c3[O-])cc2)c1C (optimized conformer: 90.74541343161832 kcal/mol)

>  <smiles>  (13) 
Cc1[nH]oc(=NS(=O)(=O)c2ccc(NC(=O)c3ccc(O)c(O)c3O)cc2)c1C

>  <score_type>  (13) 
oracle

>  <origin>  (13) 
adgpu

>  <m_score__min__energy>  (13) 
-13.050000000000001

>  <m_primary>  (13) 
energy

$$$$
13:0
     RDKit          3D

 44 47  0  0  0  0  0  0  0  0999 V2000
   -6.8940   23.7740  -30.5790 C   0  0  0  0  0  0  0  0  0  0  0  0
   -6.1640   22.7850  -31.4360 C   0  0  0  0  0  0  0  0  0  0  0  0
   -4.8070   22.9260  -31.5730 N   0  0  0  0  0  0  0  0  0  0  0  0
   -4.1400   22.0240  -32.3260 C   0  0  0  0  0  0  0  0  0  0  0  0
   -2.8120   21.9180  -32.6470 C   0  0  0  0  0  0  0  0  0  0  0  0
   -2.6930   20.8220  -33.4500 N   0  0  0  0  0  0  0  0  0  0  0  0
   -1.4800   20.3200  -34.0470 C   0  0  0  0  0  0  0  0  0  0  0  0
   -0.4880   21.2180  -34.4880 C   0  0  0  0  0  0  0  0  0  0  0  0
    0.6920   20.7460  -35.0690 C   0  0  0  0  0  0  0  0  0  0  0  0
    0.8970   19.3730  -35.2220 C   0  0  0  0  0  0  0  0  0  0  0  0
   -0.0780   18.4710  -34.7950 C   0  0  0  0  0  0  0  0  0  0  0  0
   -1.2600   18.9370  -34.2120 C   0  0  0  0  0  0  0  0  0  0  0  0
   -3.8870   20.2550  -33.6360 N   0  0  0  0  0  0  0  0  0  0  0  0
   -4.7630   20.9970  -32.9420 C   0  0  0  0  0  0  0  0  0  0  0  0
   -6.0980   20.8090  -32.8380 N   0  0  0  0  0  0  0  0  0  0  0  0
   -6.8280   21.6880  -32.0830 C   0  0  0  0  0  0  0  0  0  0  0  0
   -8.5740   21.4340  -31.9830 S   0  0  0  0  0  0  0  0  0  0  0  0
   -9.3050   22.6930  -32.3550 O   0  0  0  0  0  0  0  0  0  0  0  0
   -8.9330   21.0880  -30.5640 O   0  0  0  0  0  0  0  0  0  0  0  0
   -9.0780   20.1390  -33.0290 N   0  0  0  0  0  0  0  0  0  0  0  0
   -9.0610   18.8720  -32.2960 C   0  0  0  0  0  0  0  0  0  0  0  0
   -7.6880   18.2650  -32.3700 C   0  0  0  0  0  0  0  0  0  0  0  0
   -7.0550   17.8050  -31.2040 C   0  0  0  0  0  0  0  0  0  0  0  0
   -5.7920   17.2090  -31.2770 C   0  0  0  0  0  0  0  0  0  0  0  0
   -5.1590   17.0570  -32.5150 C   0  0  0  0  0  0  0  0  0  0  0  0
   -5.7920   17.4970  -33.6810 C   0  0  0  0  0  0  0  0  0  0  0  0
   -7.0540   18.0940  -33.6120 C   0  0  0  0  0  0  0  0  0  0  0  0
   -6.7204   23.5388  -29.5186 H   0  0  0  0  0  0  0  0  0  0  0  0
   -6.5261   24.7880  -30.7947 H   0  0  0  0  0  0  0  0  0  0  0  0
   -7.9714   23.7212  -30.7947 H   0  0  0  0  0  0  0  0  0  0  0  0
   -2.0010   22.5859  -32.3210 H   0  0  0  0  0  0  0  0  0  0  0  0
   -0.6438   22.3009  -34.3739 H   0  0  0  0  0  0  0  0  0  0  0  0
    1.4606   21.4569  -35.4064 H   0  0  0  0  0  0  0  0  0  0  0  0
    1.8267   19.0030  -35.6789 H   0  0  0  0  0  0  0  0  0  0  0  0
    0.0839   17.3899  -34.9175 H   0  0  0  0  0  0  0  0  0  0  0  0
   -2.0244   18.2193  -33.8794 H   0  0  0  0  0  0  0  0  0  0  0  0
   -8.3830   20.0760  -33.8070 H   0  0  0  0  0  0  0  0  0  0  0  0
   -9.3244   19.0543  -31.2437 H   0  0  0  0  0  0  0  0  0  0  0  0
   -9.7904   18.1811  -32.7438 H   0  0  0  0  0  0  0  0  0  0  0  0
   -7.5543   17.9138  -30.2299 H   0  0  0  0  0  0  0  0  0  0  0  0
   -5.2958   16.8593  -30.3597 H   0  0  0  0  0  0  0  0  0  0  0  0
   -4.1639   16.5916  -32.5710 H   0  0  0  0  0  0  0  0  0  0  0  0
   -5.2959   17.3732  -34.6550 H   0  0  0  0  0  0  0  0  0  0  0  0
   -7.5523   18.4310  -34.5330 H   0  0  0  0  0  0  0  0  0  0  0  0
  1  2  1  0
  2  3  2  0
  3  4  1  0
  4  5  2  0
  5  6  1  0
  6  7  1  0
  7  8  2  0
  8  9  1  0
  9 10  2  0
 10 11  1  0
 11 12  2  0
  6 13  1  0
 13 14  2  0
 14 15  1  0
 15 16  2  0
 16 17  1  0
 17 18  2  0
 17 19  2  0
 17 20  1  0
 20 21  1  0
 21 22  1  0
 22 23  2  0
 23 24  1  0
 24 25  2  0
 25 26  1  0
 26 27  2  0
 16  2  1  0
 27 22  1  0
 14  4  1  0
 12  7  1  0
  1 28  1  0
  1 29  1  0
  1 30  1  0
  5 31  1  0
  8 32  1  0
  9 33  1  0
 10 34  1  0
 11 35  1  0
 12 36  1  0
 20 37  1  0
 21 38  1  0
 21 39  1  0
 23 40  1  0
 24 41  1  0
 25 42  1  0
 26 43  1  0
 27 44  1  0
M  END
>  <UniqueID>  (14) 
14

>  <SMILES>  (14) 
Cc1nc2cn(-c3ccccc3)nc2nc1S(=O)(=O)NCc1ccccc1

>  <Energy>  (14) 
92.57597142927303

>  <Genealogy>  (14) 
Cc1nc2cn(-c3ccccc3)nc2nc1S(=O)(=O)NCc1ccccc1 (3D coordinates assigned)
Cc1nc2cn(-c3ccccc3)nc2nc1S(=O)(=O)NCc1ccccc1 (optimized conformer: 92.57597142927303 kcal/mol)

>  <smiles>  (14) 
Cc1nc2cn(-c3ccccc3)nc2nc1S(=O)(=O)NCc1ccccc1

>  <score_type>  (14) 
oracle

>  <origin>  (14) 
adgpu

>  <m_score__min__energy>  (14) 
-8.7599999999999998

>  <m_primary>  (14) 
energy

$$$$
14:0
     RDKit          3D

 58 61  0  0  0  0  0  0  0  0999 V2000
   -5.3620   22.9210  -28.7350 C   0  0  0  0  0  0  0  0  0  0  0  0
   -6.1630   23.0400  -30.0040 C   0  0  0  0  0  0  0  0  0  0  0  0
   -7.1280   22.0590  -30.2970 C   0  0  0  0  0  0  0  0  0  0  0  0
   -7.9060   22.1510  -31.4520 C   0  0  0  0  0  0  0  0  0  0  0  0
   -7.7300   23.2190  -32.3310 C   0  0  0  0  0  0  0  0  0  0  0  0
   -6.7690   24.1960  -32.0630 C   0  0  0  0  0  0  0  0  0  0  0  0
   -5.9730   24.1180  -30.9060 C   0  0  0  0  0  0  0  0  0  0  0  0
   -4.9520   25.1680  -30.6710 C   0  0  0  0  0  0  0  0  0  0  0  0
   -5.3170   26.3540  -30.4610 O   0  0  0  0  0  0  0  0  0  0  0  0
   -3.5560   24.8520  -30.5940 N   0  0  0  0  0  0  0  0  0  0  0  0
   -2.9880   23.5340  -30.5740 C   0  0  0  0  0  0  0  0  0  0  0  0
   -3.1970   22.6380  -31.6370 C   0  0  0  0  0  0  0  0  0  0  0  0
   -2.6630   21.3460  -31.5960 C   0  0  0  0  0  0  0  0  0  0  0  0
   -2.9680   20.2400  -32.9340 S   0  0  0  0  0  0  0  0  0  0  0  0
   -2.3960   18.8940  -32.5800 O   0  0  0  0  0  0  0  0  0  0  0  0
   -2.2890   20.7370  -34.1820 O   0  0  0  0  0  0  0  0  0  0  0  0
   -4.6900   20.1020  -33.2040 N   0  0  0  0  0  0  0  0  0  0  0  0
   -5.3840   19.8800  -31.9180 C   0  0  0  0  0  0  0  0  0  0  0  0
   -6.7280   19.1690  -32.1390 C   0  0  0  0  0  0  0  0  0  0  0  0
   -6.5900   17.8730  -32.7080 O   0  0  0  0  0  0  0  0  0  0  0  0
   -5.4560   17.7360  -33.5540 C   0  0  0  0  0  0  0  0  0  0  0  0
   -4.9930   19.0530  -34.2110 C   0  0  0  0  0  0  0  0  0  0  0  0
   -1.8870   20.9510  -30.4990 C   0  0  0  0  0  0  0  0  0  0  0  0
   -1.6490   21.8430  -29.4520 C   0  0  0  0  0  0  0  0  0  0  0  0
   -2.1850   23.1380  -29.4870 C   0  0  0  0  0  0  0  0  0  0  0  0
   -1.9440   24.0260  -28.3850 N   0  0  0  0  0  0  0  0  0  0  0  0
   -0.6600   24.7240  -28.3090 C   0  0  0  0  0  0  0  0  0  0  0  0
   -0.8000   25.9870  -27.4490 C   0  0  0  0  0  0  0  0  0  0  0  0
   -1.4150   25.6890  -26.2090 O   0  0  0  0  0  0  0  0  0  0  0  0
   -2.7460   25.2620  -26.4280 C   0  0  0  0  0  0  0  0  0  0  0  0
   -2.7650   23.9250  -27.1760 C   0  0  0  0  0  0  0  0  0  0  0  0
   -6.0317   23.0205  -27.8680 H   0  0  0  0  0  0  0  0  0  0  0  0
   -4.8665   21.9394  -28.7048 H   0  0  0  0  0  0  0  0  0  0  0  0
   -4.6025   23.7162  -28.7048 H   0  0  0  0  0  0  0  0  0  0  0  0
   -7.2705   21.2121  -29.6097 H   0  0  0  0  0  0  0  0  0  0  0  0
   -8.6594   21.3796  -31.6693 H   0  0  0  0  0  0  0  0  0  0  0  0
   -8.3493   23.2920  -33.2372 H   0  0  0  0  0  0  0  0  0  0  0  0
   -6.6333   25.0338  -32.7627 H   0  0  0  0  0  0  0  0  0  0  0  0
   -3.7863   22.9562  -32.5096 H   0  0  0  0  0  0  0  0  0  0  0  0
   -5.0080   21.0230  -33.5920 H   0  0  0  0  0  0  0  0  0  0  0  0
   -4.7498   19.2587  -31.2685 H   0  0  0  0  0  0  0  0  0  0  0  0
   -5.5745   20.8557  -31.4471 H   0  0  0  0  0  0  0  0  0  0  0  0
   -7.2359   19.0721  -31.1681 H   0  0  0  0  0  0  0  0  0  0  0  0
   -7.3065   19.7777  -32.8495 H   0  0  0  0  0  0  0  0  0  0  0  0
   -4.6240   17.3390  -32.9538 H   0  0  0  0  0  0  0  0  0  0  0  0
   -5.7518   17.0623  -34.3717 H   0  0  0  0  0  0  0  0  0  0  0  0
   -4.0862   18.8554  -34.8015 H   0  0  0  0  0  0  0  0  0  0  0  0
   -5.8112   19.4204  -34.8479 H   0  0  0  0  0  0  0  0  0  0  0  0
   -1.4644   19.9361  -30.4624 H   0  0  0  0  0  0  0  0  0  0  0  0
   -1.0370   21.5278  -28.5940 H   0  0  0  0  0  0  0  0  0  0  0  0
    0.0907   24.0579  -27.8587 H   0  0  0  0  0  0  0  0  0  0  0  0
   -0.3439   25.0105  -29.3229 H   0  0  0  0  0  0  0  0  0  0  0  0
    0.1989   26.4087  -27.2633 H   0  0  0  0  0  0  0  0  0  0  0  0
   -1.4289   26.7109  -27.9879 H   0  0  0  0  0  0  0  0  0  0  0  0
   -3.2516   25.1415  -25.4585 H   0  0  0  0  0  0  0  0  0  0  0  0
   -3.2661   26.0169  -27.0360 H   0  0  0  0  0  0  0  0  0  0  0  0
   -2.3618   23.1355  -26.5247 H   0  0  0  0  0  0  0  0  0  0  0  0
   -3.7996   23.6784  -27.4568 H   0  0  0  0  0  0  0  0  0  0  0  0
  1  2  1  0
  2  3  2  0
  3  4  1  0
  4  5  2  0
  5  6  1  0
  6  7  2  0
  7  8  1  0
  8  9  2  0
  8 10  1  0
 10 11  1  0
 11 12  2  0
 12 13  1  0
 13 14  1  0
 14 15  2  0
 14 16  2  0
 14 17  1  0
 17 18  1  0
 18 19  1  0
 19 20  1  0
 20 21  1  0
 21 22  1  0
 13 23  2  0
 23 24  1  0
 24 25  2  0
 25 26  1  0
 26 27  1  0
 27 28  1  0
 28 29  1  0
 29 30  1  0
 30 31  1  0
  7  2  1  0
 25 11  1  0
 31 26  1  0
 22 17  1  0
  1 32  1  0
  1 33  1  0
  1 34  1  0
  3 35  1  0
  4 36  1  0
  5 37  1  0
  6 38  1  0
 12 39  1  0
 17 40  1  0
 18 41  1  0
 18 42  1  0
 19 43  1  0
 19 44  1  0
 21 45  1  0
 21 46  1  0
 22 47  1  0
 22 48  1  0
 23 49  1  0
 24 50  1  0
 27 51  1  0
 27 52  1  0
 28 53  1  0
 28 54  1  0
 30 55  1  0
 30 56  1  0
 31 57  1  0
 31 58  1  0
M  CHG  2  10  -1  17   1
M  END
>  <UniqueID>  (15) 
15

>  <SMILES>  (15) 
Cc1ccccc1C(=O)[N-]c1cc(S(=O)(=O)[NH+]2CCOCC2)ccc1N1CCOCC1

>  <Energy>  (15) 
86.60704611131983

>  <Genealogy>  (15) 
Cc1ccccc1C(=O)[N-]c1cc(S(=O)(=O)[NH+]2CCOCC2)ccc1N1CCOCC1 (protonated)
Cc1ccccc1C(=O)[N-]c1cc(S(=O)(=O)[NH+]2CCOCC2)ccc1N1CCOCC1 (3D coordinates assigned)
Cc1ccccc1C(=O)[N-]c1cc(S(=O)(=O)[NH+]2CCOCC2)ccc1N1CCOCC1 (nonaromatic ring conformer: 86.60704611131983 kcal/mol)

>  <smiles>  (15) 
Cc1ccccc1C(=O)Nc1cc(S(=O)(=O)N2CCOCC2)ccc1N1CCOCC1

>  <score_type>  (15) 
oracle

>  <origin>  (15) 
adgpu

>  <m_score__min__energy>  (15) 
-9.6600000000000001

>  <m_primary>  (15) 
energy

$$$$
15:0
     RDKit          3D

 40 42  0  0  0  0  0  0  0  0999 V2000
   -0.4200   25.4238  -29.7289 H   0  0  0  0  0  0  0  0  0  0  0  0
   -1.1010   25.0300  -28.9600 C   0  0  0  0  0  0  0  0  0  0  0  0
   -2.4380   24.9760  -29.1990 N   0  0  0  0  0  0  0  0  0  0  0  0
   -3.3180   24.4960  -28.2730 C   0  0  0  0  0  0  0  0  0  0  0  0
   -4.5930   24.4620  -28.5190 N   0  0  0  0  0  0  0  0  0  0  0  0
   -5.3040   25.0090  -30.0050 S   0  0  0  0  0  0  0  0  0  0  0  0
   -4.2500   25.6770  -30.8410 O   0  0  0  0  0  0  0  0  0  0  0  0
   -6.3860   26.0040  -29.6900 O   0  0  0  0  0  0  0  0  0  0  0  0
   -5.9620   23.6420  -30.8970 C   0  0  0  0  0  0  0  0  0  0  0  0
   -5.1090   22.7380  -31.5450 C   0  0  0  0  0  0  0  0  0  0  0  0
   -4.0189   22.8725  -31.4844 H   0  0  0  0  0  0  0  0  0  0  0  0
   -5.6400   21.6660  -32.2680 C   0  0  0  0  0  0  0  0  0  0  0  0
   -4.9647   20.9548  -32.7662 H   0  0  0  0  0  0  0  0  0  0  0  0
   -7.0250   21.4920  -32.3620 C   0  0  0  0  0  0  0  0  0  0  0  0
   -7.5190   20.4070  -33.1000 O   0  0  0  0  0  0  0  0  0  0  0  0
   -6.8650   19.1750  -33.2570 C   0  0  0  0  0  0  0  0  0  0  0  0
   -6.9950   18.1380  -32.3170 C   0  0  0  0  0  0  0  0  0  0  0  0
   -7.6159   18.2861  -31.4211 H   0  0  0  0  0  0  0  0  0  0  0  0
   -6.3390   16.9190  -32.5150 C   0  0  0  0  0  0  0  0  0  0  0  0
   -6.4375   16.1161  -31.7696 H   0  0  0  0  0  0  0  0  0  0  0  0
   -5.5530   16.7160  -33.6650 C   0  0  0  0  0  0  0  0  0  0  0  0
   -4.8750   15.5130  -33.9100 O   0  0  0  0  0  0  0  0  0  0  0  0
   -4.6750   14.4900  -32.9390 C   0  0  0  0  0  0  0  0  0  0  0  0
   -4.7592   14.9205  -31.9302 H   0  0  0  0  0  0  0  0  0  0  0  0
   -5.4372   13.7075  -33.0685 H   0  0  0  0  0  0  0  0  0  0  0  0
   -3.6742   14.0521  -33.0685 H   0  0  0  0  0  0  0  0  0  0  0  0
   -5.4410   17.7460  -34.6060 C   0  0  0  0  0  0  0  0  0  0  0  0
   -4.8318   17.5957  -35.5095 H   0  0  0  0  0  0  0  0  0  0  0  0
   -6.0970   18.9640  -34.4070 C   0  0  0  0  0  0  0  0  0  0  0  0
   -6.0088   19.7616  -35.1593 H   0  0  0  0  0  0  0  0  0  0  0  0
   -7.8820   22.3800  -31.6830 C   0  0  0  0  0  0  0  0  0  0  0  0
   -9.2250   22.1890  -31.6860 F   0  0  0  0  0  0  0  0  0  0  0  0
   -7.3490   23.4500  -30.9590 C   0  0  0  0  0  0  0  0  0  0  0  0
   -8.0215   24.1451  -30.4351 H   0  0  0  0  0  0  0  0  0  0  0  0
   -2.8410   24.0410  -27.0380 C   0  0  0  0  0  0  0  0  0  0  0  0
   -3.5394   23.6507  -26.2831 H   0  0  0  0  0  0  0  0  0  0  0  0
   -1.4710   24.0870  -26.7730 C   0  0  0  0  0  0  0  0  0  0  0  0
   -1.0846   23.7315  -25.8064 H   0  0  0  0  0  0  0  0  0  0  0  0
   -0.5920   24.5850  -27.7370 C   0  0  0  0  0  0  0  0  0  0  0  0
    0.7400   24.6370  -27.4910 F   0  0  0  0  0  0  0  0  0  0  0  0
  1  2  1  0
  2  3  1  0
  3  4  1  0
  4  5  2  0
  5  6  1  0
  6  7  2  0
  6  8  2  0
  6  9  1  0
  9 10  2  0
 10 11  1  0
 10 12  1  0
 12 13  1  0
 12 14  2  0
 14 15  1  0
 15 16  1  0
 16 17  2  0
 17 18  1  0
 17 19  1  0
 19 20  1  0
 19 21  2  0
 21 22  1  0
 22 23  1  0
 23 24  1  0
 23 25  1  0
 23 26  1  0
 21 27  1  0
 27 28  1  0
 27 29  2  0
 29 30  1  0
 14 31  1  0
 31 32  1  0
 31 33  2  0
 33 34  1  0
  4 35  1  0
 35 36  1  0
 35 37  2  0
 37 38  1  0
 37 39  1  0
 39 40  1  0
 39  2  2  0
 33  9  1  0
 29 16  1  0
M  CHG  1   3  -1
M  END
>  <UniqueID>  (16) 
16

>  <SMILES>  (16) 
COc1ccc(Oc2ccc(S(=O)(=O)/N=c3/ccc(F)c[n-]3)cc2F)cc1

>  <Energy>  (16) 
53.18278162894015

>  <Genealogy>  (16) 
COc1ccc(Oc2ccc(S(=O)(=O)N=c3ccc(F)c[n-]3)cc2F)cc1 (protonated)
COc1ccc(Oc2ccc(S(=O)(=O)/N=c3/ccc(F)c[n-]3)cc2F)cc1 (cis-trans isomerization)
COc1ccc(Oc2ccc(S(=O)(=O)/N=c3/ccc(F)c[n-]3)cc2F)cc1 (3D coordinates assigned)
COc1ccc(Oc2ccc(S(=O)(=O)/N=c3/ccc(F)c[n-]3)cc2F)cc1 (optimized conformer: 53.18278162894015 kcal/mol)

>  <smiles>  (16) 
COc1ccc(Oc2ccc(S(=O)(=O)N=c3ccc(F)c[nH]3)cc2F)cc1

>  <score_type>  (16) 
oracle

>  <origin>  (16) 
adgpu

>  <m_score__min__energy>  (16) 
-9.9600000000000009

>  <m_primary>  (16) 
energy

$$$$
16:0
     RDKit          3D

 36 37  0  0  0  0  0  0  0  0999 V2000
   -5.4010   14.5810  -33.8130 C   0  0  0  0  0  0  0  0  0  0  0  0
   -6.9580   15.4300  -34.2210 S   0  0  0  0  0  0  0  0  0  0  0  0
   -6.3380   17.0460  -33.7470 C   0  0  0  0  0  0  0  0  0  0  0  0
   -5.2070   17.5750  -34.3760 C   0  0  0  0  0  0  0  0  0  0  0  0
   -4.7200   18.8320  -34.0060 C   0  0  0  0  0  0  0  0  0  0  0  0
   -5.3550   19.5740  -32.9930 C   0  0  0  0  0  0  0  0  0  0  0  0
   -4.8520   20.9120  -32.5970 C   0  0  0  0  0  0  0  0  0  0  0  0
   -4.3300   21.6610  -33.4690 O   0  0  0  0  0  0  0  0  0  0  0  0
   -4.9950   21.3830  -31.2460 N   0  0  0  0  0  0  0  0  0  0  0  0
   -4.2060   22.4470  -30.6850 C   0  0  0  0  0  0  0  0  0  0  0  0
   -2.8790   22.2370  -30.2710 C   0  0  0  0  0  0  0  0  0  0  0  0
   -2.1400   23.2800  -29.7070 C   0  0  0  0  0  0  0  0  0  0  0  0
   -2.7140   24.5530  -29.5530 C   0  0  0  0  0  0  0  0  0  0  0  0
   -1.9940   25.6370  -28.9500 N   0  0  0  0  0  0  0  0  0  0  0  0
   -1.0070   25.5380  -27.9130 C   0  0  0  0  0  0  0  0  0  0  0  0
   -1.2960   25.9330  -26.4980 C   0  0  0  0  0  0  0  0  0  0  0  0
    0.1270   25.0690  -28.1960 O   0  0  0  0  0  0  0  0  0  0  0  0
   -4.0510   24.7490  -29.9190 C   0  0  0  0  0  0  0  0  0  0  0  0
   -4.7910   23.7060  -30.4820 C   0  0  0  0  0  0  0  0  0  0  0  0
   -6.4970   19.0340  -32.3700 C   0  0  0  0  0  0  0  0  0  0  0  0
   -6.9800   17.7760  -32.7420 C   0  0  0  0  0  0  0  0  0  0  0  0
   -5.2914   14.5213  -32.7201 H   0  0  0  0  0  0  0  0  0  0  0  0
   -5.4152   13.5657  -34.2361 H   0  0  0  0  0  0  0  0  0  0  0  0
   -4.5552   15.1428  -34.2361 H   0  0  0  0  0  0  0  0  0  0  0  0
   -4.6988   17.0004  -35.1644 H   0  0  0  0  0  0  0  0  0  0  0  0
   -3.8337   19.2442  -34.5106 H   0  0  0  0  0  0  0  0  0  0  0  0
   -5.7900   21.0130  -30.6790 H   0  0  0  0  0  0  0  0  0  0  0  0
   -2.4195   21.2449  -30.3919 H   0  0  0  0  0  0  0  0  0  0  0  0
   -1.1040   23.1036  -29.3820 H   0  0  0  0  0  0  0  0  0  0  0  0
   -0.7880   25.2387  -25.8125 H   0  0  0  0  0  0  0  0  0  0  0  0
   -0.9313   26.9556  -26.3210 H   0  0  0  0  0  0  0  0  0  0  0  0
   -2.3810   25.8949  -26.3210 H   0  0  0  0  0  0  0  0  0  0  0  0
   -4.5221   25.7306  -29.7623 H   0  0  0  0  0  0  0  0  0  0  0  0
   -5.8399   23.8732  -30.7682 H   0  0  0  0  0  0  0  0  0  0  0  0
   -7.0127   19.6064  -31.5849 H   0  0  0  0  0  0  0  0  0  0  0  0
   -7.8673   17.3594  -32.2429 H   0  0  0  0  0  0  0  0  0  0  0  0
  1  2  1  0
  2  3  1  0
  3  4  2  0
  4  5  1  0
  5  6  2  0
  6  7  1  0
  7  8  2  0
  7  9  1  0
  9 10  1  0
 10 11  2  0
 11 12  1  0
 12 13  2  0
 13 14  1  0
 14 15  1  0
 15 16  1  0
 15 17  2  0
 13 18  1  0
 18 19  2  0
  6 20  1  0
 20 21  2  0
 21  3  1  0
 19 10  1  0
  1 22  1  0
  1 23  1  0
  1 24  1  0
  4 25  1  0
  5 26  1  0
  9 27  1  0
 11 28  1  0
 12 29  1  0
 16 30  1  0
 16 31  1  0
 16 32  1  0
 18 33  1  0
 19 34  1  0
 20 35  1  0
 21 36  1  0
M  CHG  1  14  -1
M  END
>  <UniqueID>  (17) 
17

>  <SMILES>  (17) 
CSc1ccc(C(=O)Nc2ccc([N-]C(C)=O)cc2)cc1

>  <Energy>  (17) 
40.89084202801532

>  <Genealogy>  (17) 
CSc1ccc(C(=O)Nc2ccc([N-]C(C)=O)cc2)cc1 (protonated)
CSc1ccc(C(=O)Nc2ccc([N-]C(C)=O)cc2)cc1 (3D coordinates assigned)
CSc1ccc(C(=O)Nc2ccc([N-]C(C)=O)cc2)cc1 (optimized conformer: 40.89084202801532 kcal/mol)

>  <smiles>  (17) 
CSc1ccc(C(=O)Nc2ccc(NC(C)=O)cc2)cc1

>  <score_type>  (17) 
oracle

>  <origin>  (17) 
adgpu

>  <m_score__min__energy>  (17) 
-8.6899999999999995

>  <m_primary>  (17) 
energy

$$$$
17:0
     RDKit          3D

 56 59  0  0  0  0  0  0  0  0999 V2000
   -4.9300   24.8690  -28.6630 O   0  0  0  0  0  0  0  0  0  0  0  0
   -4.3240   24.7140  -29.7570 C   0  0  0  0  0  0  0  0  0  0  0  0
   -5.0980   24.5690  -30.9540 N   0  0  0  0  0  0  0  0  0  0  0  0
   -5.9750   23.4750  -31.2610 C   0  0  0  0  0  0  0  0  0  0  0  0
   -5.6000   22.4590  -32.1580 C   0  0  0  0  0  0  0  0  0  0  0  0
   -6.4610   21.3860  -32.4080 C   0  0  0  0  0  0  0  0  0  0  0  0
   -7.6980   21.3080  -31.7500 C   0  0  0  0  0  0  0  0  0  0  0  0
   -8.7900   19.9570  -32.0410 S   0  0  0  0  0  0  0  0  0  0  0  0
  -10.0720   20.4400  -32.6640 O   0  0  0  0  0  0  0  0  0  0  0  0
   -9.1090   19.3000  -30.7260 O   0  0  0  0  0  0  0  0  0  0  0  0
   -8.0310   18.7950  -33.0900 N   0  0  0  0  0  0  0  0  0  0  0  0
   -7.0420   17.9990  -32.3640 C   0  0  0  0  0  0  0  0  0  0  0  0
   -5.9030   17.6370  -33.2640 C   0  0  0  0  0  0  0  0  0  0  0  0
   -5.7080   18.1010  -34.5500 C   0  0  0  0  0  0  0  0  0  0  0  0
   -4.5450   17.5030  -34.9850 C   0  0  0  0  0  0  0  0  0  0  0  0
   -4.1040   16.7120  -33.9420 C   0  0  0  0  0  0  0  0  0  0  0  0
   -4.9350   16.8140  -32.9300 O   0  0  0  0  0  0  0  0  0  0  0  0
   -8.0600   22.3070  -30.8380 C   0  0  0  0  0  0  0  0  0  0  0  0
   -7.1980   23.3790  -30.5870 C   0  0  0  0  0  0  0  0  0  0  0  0
   -2.8860   24.7170  -29.8050 N   0  0  0  0  0  0  0  0  0  0  0  0
   -2.0380   24.7890  -28.6460 C   0  0  0  0  0  0  0  0  0  0  0  0
   -2.0800   23.8080  -27.6390 C   0  0  0  0  0  0  0  0  0  0  0  0
   -1.2520   23.9120  -26.5170 C   0  0  0  0  0  0  0  0  0  0  0  0
   -0.3860   25.0040  -26.3790 C   0  0  0  0  0  0  0  0  0  0  0  0
    0.6650   25.1510  -24.9720 S   0  0  0  0  0  0  0  0  0  0  0  0
    1.9590   25.7810  -25.4090 O   0  0  0  0  0  0  0  0  0  0  0  0
    0.9550   23.7890  -24.4000 O   0  0  0  0  0  0  0  0  0  0  0  0
   -0.1090   26.1560  -23.7660 N   0  0  0  0  0  0  0  0  0  0  0  0
    0.7650   27.2720  -23.3890 C   0  0  0  0  0  0  0  0  0  0  0  0
    0.4020   28.4720  -24.2530 C   0  0  0  0  0  0  0  0  0  0  0  0
   -0.9400   28.1380  -24.8730 C   0  0  0  0  0  0  0  0  0  0  0  0
   -1.3190   26.7750  -24.3140 C   0  0  0  0  0  0  0  0  0  0  0  0
   -0.3630   25.9960  -27.3640 C   0  0  0  0  0  0  0  0  0  0  0  0
   -1.1880   25.8930  -28.4880 C   0  0  0  0  0  0  0  0  0  0  0  0
   -4.6252   22.5086  -32.6652 H   0  0  0  0  0  0  0  0  0  0  0  0
   -6.1682   20.6018  -33.1216 H   0  0  0  0  0  0  0  0  0  0  0  0
   -6.6606   18.5826  -31.5132 H   0  0  0  0  0  0  0  0  0  0  0  0
   -7.5205   17.0761  -32.0044 H   0  0  0  0  0  0  0  0  0  0  0  0
   -6.3465   18.8006  -35.1094 H   0  0  0  0  0  0  0  0  0  0  0  0
   -4.0643   17.6301  -35.9662 H   0  0  0  0  0  0  0  0  0  0  0  0
   -3.1958   16.0916  -33.9567 H   0  0  0  0  0  0  0  0  0  0  0  0
   -9.0268   22.2482  -30.3167 H   0  0  0  0  0  0  0  0  0  0  0  0
   -7.4824   24.1506  -29.8564 H   0  0  0  0  0  0  0  0  0  0  0  0
   -2.4180   24.5740  -30.7280 H   0  0  0  0  0  0  0  0  0  0  0  0
   -2.7676   22.9547  -27.7345 H   0  0  0  0  0  0  0  0  0  0  0  0
   -1.2809   23.1336  -25.7403 H   0  0  0  0  0  0  0  0  0  0  0  0
    0.6170   27.5189  -22.3273 H   0  0  0  0  0  0  0  0  0  0  0  0
    1.8193   26.9980  -23.5421 H   0  0  0  0  0  0  0  0  0  0  0  0
    0.3247   29.3796  -23.6363 H   0  0  0  0  0  0  0  0  0  0  0  0
    1.1666   28.6675  -25.0193 H   0  0  0  0  0  0  0  0  0  0  0  0
   -1.6911   28.8909  -24.5921 H   0  0  0  0  0  0  0  0  0  0  0  0
   -0.8905   28.1286  -25.9718 H   0  0  0  0  0  0  0  0  0  0  0  0
   -2.0701   26.8936  -23.5191 H   0  0  0  0  0  0  0  0  0  0  0  0
   -1.7453   26.1427  -25.1068 H   0  0  0  0  0  0  0  0  0  0  0  0
    0.3072   26.8613  -27.2541 H   0  0  0  0  0  0  0  0  0  0  0  0
   -1.1702   26.6830  -29.2532 H   0  0  0  0  0  0  0  0  0  0  0  0
  1  2  2  0
  2  3  1  0
  3  4  1  0
  4  5  2  0
  5  6  1  0
  6  7  2  0
  7  8  1  0
  8  9  2  0
  8 10  2  0
  8 11  1  0
 11 12  1  0
 12 13  1  0
 13 14  2  0
 14 15  1  0
 15 16  2  0
 16 17  1  0
  7 18  1  0
 18 19  2  0
  2 20  1  0
 20 21  1  0
 21 22  2  0
 22 23  1  0
 23 24  2  0
 24 25  1  0
 25 26  2  0
 25 27  2  0
 25 28  1  0
 28 29  1  0
 29 30  1  0
 30 31  1  0
 31 32  1  0
 24 33  1  0
 33 34  2  0
 19  4  1  0
 34 21  1  0
 17 13  1  0
 32 28  1  0
  5 35  1  0
  6 36  1  0
 12 37  1  0
 12 38  1  0
 14 39  1  0
 15 40  1  0
 16 41  1  0
 18 42  1  0
 19 43  1  0
 20 44  1  0
 22 45  1  0
 23 46  1  0
 29 47  1  0
 29 48  1  0
 30 49  1  0
 30 50  1  0
 31 51  1  0
 31 52  1  0
 32 53  1  0
 32 54  1  0
 33 55  1  0
 34 56  1  0
M  CHG  2   3  -1  11  -1
M  END
>  <UniqueID>  (18) 
18

>  <SMILES>  (18) 
O=C([N-]c1ccc(S(=O)(=O)[N-]Cc2ccco2)cc1)Nc1ccc(S(=O)(=O)N2CCCC2)cc1

>  <Energy>  (18) 
92.52006109525402

>  <Genealogy>  (18) 
O=C([N-]c1ccc(S(=O)(=O)[N-]Cc2ccco2)cc1)Nc1ccc(S(=O)(=O)N2CCCC2)cc1 (protonated)
O=C([N-]c1ccc(S(=O)(=O)[N-]Cc2ccco2)cc1)Nc1ccc(S(=O)(=O)N2CCCC2)cc1 (3D coordinates assigned)
O=C([N-]c1ccc(S(=O)(=O)[N-]Cc2ccco2)cc1)Nc1ccc(S(=O)(=O)N2CCCC2)cc1 (nonaromatic ring conformer: 92.52006109525402 kcal/mol)

>  <smiles>  (18) 
O=C(Nc1ccc(S(=O)(=O)NCc2ccco2)cc1)Nc1ccc(S(=O)(=O)N2CCCC2)cc1

>  <score_type>  (18) 
oracle

>  <origin>  (18) 
adgpu

>  <m_score__min__energy>  (18) 
-11.140000000000001

>  <m_primary>  (18) 
energy

$$$$
18:0
     RDKit          3D

 60 63  0  0  0  0  0  0  0  0999 V2000
   -5.7630   16.6840  -30.9420 C   0  0  0  0  0  0  0  0  0  0  0  0
   -6.7920   17.0380  -31.8580 O   0  0  0  0  0  0  0  0  0  0  0  0
   -7.3380   18.3250  -31.9850 C   0  0  0  0  0  0  0  0  0  0  0  0
   -8.4530   18.7440  -31.2310 C   0  0  0  0  0  0  0  0  0  0  0  0
   -8.9820   20.0250  -31.4090 C   0  0  0  0  0  0  0  0  0  0  0  0
   -8.4110   20.8980  -32.3360 C   0  0  0  0  0  0  0  0  0  0  0  0
   -7.3050   20.4940  -33.0870 C   0  0  0  0  0  0  0  0  0  0  0  0
   -6.7610   19.2150  -32.9090 C   0  0  0  0  0  0  0  0  0  0  0  0
   -5.6380   18.8030  -33.6980 N   0  0  0  0  0  0  0  0  0  0  0  0
   -5.8390   17.9600  -34.8780 C   0  0  0  0  0  0  0  0  0  0  0  0
   -5.3950   16.5530  -34.5840 C   0  0  0  0  0  0  0  0  0  0  0  0
   -4.0300   16.2270  -34.5880 C   0  0  0  0  0  0  0  0  0  0  0  0
   -3.6120   14.9380  -34.2450 C   0  0  0  0  0  0  0  0  0  0  0  0
   -4.5540   13.9690  -33.8870 C   0  0  0  0  0  0  0  0  0  0  0  0
   -5.9140   14.2890  -33.8700 C   0  0  0  0  0  0  0  0  0  0  0  0
   -6.3350   15.5770  -34.2120 C   0  0  0  0  0  0  0  0  0  0  0  0
   -4.0350   19.2710  -33.2220 S   0  0  0  0  0  0  0  0  0  0  0  0
   -3.1870   19.4330  -34.4520 O   0  0  0  0  0  0  0  0  0  0  0  0
   -3.4280   18.2140  -32.3440 O   0  0  0  0  0  0  0  0  0  0  0  0
   -4.1130   20.7800  -32.3190 C   0  0  0  0  0  0  0  0  0  0  0  0
   -3.4360   20.8910  -31.0980 C   0  0  0  0  0  0  0  0  0  0  0  0
   -3.5010   22.0790  -30.3640 C   0  0  0  0  0  0  0  0  0  0  0  0
   -4.2330   23.1770  -30.8490 C   0  0  0  0  0  0  0  0  0  0  0  0
   -4.3140   24.4390  -30.0750 C   0  0  0  0  0  0  0  0  0  0  0  0
   -5.4420   24.8790  -29.7300 O   0  0  0  0  0  0  0  0  0  0  0  0
   -3.1420   25.1520  -29.6540 N   0  0  0  0  0  0  0  0  0  0  0  0
   -2.2030   24.7290  -28.6540 C   0  0  0  0  0  0  0  0  0  0  0  0
   -0.9480   24.1960  -28.9960 C   0  0  0  0  0  0  0  0  0  0  0  0
   -0.0510   23.8080  -27.9960 C   0  0  0  0  0  0  0  0  0  0  0  0
   -0.3880   23.9690  -26.6420 C   0  0  0  0  0  0  0  0  0  0  0  0
    0.5620   23.5490  -25.5600 C   0  0  0  0  0  0  0  0  0  0  0  0
   -1.6320   24.5170  -26.3030 C   0  0  0  0  0  0  0  0  0  0  0  0
   -2.5290   24.9030  -27.3040 C   0  0  0  0  0  0  0  0  0  0  0  0
   -4.9200   23.0530  -32.0680 C   0  0  0  0  0  0  0  0  0  0  0  0
   -4.8550   21.8650  -32.8010 C   0  0  0  0  0  0  0  0  0  0  0  0
   -6.1293   16.8100  -29.9125 H   0  0  0  0  0  0  0  0  0  0  0  0
   -5.4741   15.6348  -31.1026 H   0  0  0  0  0  0  0  0  0  0  0  0
   -4.8898   17.3334  -31.1026 H   0  0  0  0  0  0  0  0  0  0  0  0
   -8.9083   18.0599  -30.4998 H   0  0  0  0  0  0  0  0  0  0  0  0
   -9.8513   20.3463  -30.8165 H   0  0  0  0  0  0  0  0  0  0  0  0
   -8.8322   21.9046  -32.4752 H   0  0  0  0  0  0  0  0  0  0  0  0
   -6.8595   21.1820  -33.8206 H   0  0  0  0  0  0  0  0  0  0  0  0
   -6.9057   17.9572  -35.1468 H   0  0  0  0  0  0  0  0  0  0  0  0
   -5.2459   18.3597  -35.7138 H   0  0  0  0  0  0  0  0  0  0  0  0
   -3.2858   16.9892  -34.8623 H   0  0  0  0  0  0  0  0  0  0  0  0
   -2.5413   14.6859  -34.2568 H   0  0  0  0  0  0  0  0  0  0  0  0
   -4.2244   12.9544  -33.6186 H   0  0  0  0  0  0  0  0  0  0  0  0
   -6.6543   13.5262  -33.5871 H   0  0  0  0  0  0  0  0  0  0  0  0
   -7.4058   15.8276  -34.1899 H   0  0  0  0  0  0  0  0  0  0  0  0
   -2.8516   20.0412  -30.7156 H   0  0  0  0  0  0  0  0  0  0  0  0
   -2.9759   22.1552  -29.4005 H   0  0  0  0  0  0  0  0  0  0  0  0
   -0.6705   24.0837  -30.0545 H   0  0  0  0  0  0  0  0  0  0  0  0
    0.9222   23.3751  -28.2707 H   0  0  0  0  0  0  0  0  0  0  0  0
    0.1100   23.7488  -24.5773 H   0  0  0  0  0  0  0  0  0  0  0  0
    0.7732   22.4736  -25.6546 H   0  0  0  0  0  0  0  0  0  0  0  0
    1.4995   24.1165  -25.6546 H   0  0  0  0  0  0  0  0  0  0  0  0
   -1.9043   24.6442  -25.2449 H   0  0  0  0  0  0  0  0  0  0  0  0
   -3.4973   25.3464  -27.0286 H   0  0  0  0  0  0  0  0  0  0  0  0
   -5.5136   23.8974  -32.4484 H   0  0  0  0  0  0  0  0  0  0  0  0
   -5.3884   21.7821  -33.7595 H   0  0  0  0  0  0  0  0  0  0  0  0
  1  2  1  0
  2  3  1  0
  3  4  2  0
  4  5  1  0
  5  6  2  0
  6  7  1  0
  7  8  2  0
  8  9  1  0
  9 10  1  0
 10 11  1  0
 11 12  2  0
 12 13  1  0
 13 14  2  0
 14 15  1  0
 15 16  2  0
  9 17  1  0
 17 18  2  0
 17 19  2  0
 17 20  1  0
 20 21  2  0
 21 22  1  0
 22 23  2  0
 23 24  1  0
 24 25  2  0
 24 26  1  0
 26 27  1  0
 27 28  2  0
 28 29  1  0
 29 30  2  0
 30 31  1  0
 30 32  1  0
 32 33  2  0
 23 34  1  0
 34 35  2  0
  8  3  1  0
 16 11  1  0
 35 20  1  0
 33 27  1  0
  1 36  1  0
  1 37  1  0
  1 38  1  0
  4 39  1  0
  5 40  1  0
  6 41  1  0
  7 42  1  0
 10 43  1  0
 10 44  1  0
 12 45  1  0
 13 46  1  0
 14 47  1  0
 15 48  1  0
 16 49  1  0
 21 50  1  0
 22 51  1  0
 28 52  1  0
 29 53  1  0
 31 54  1  0
 31 55  1  0
 31 56  1  0
 32 57  1  0
 33 58  1  0
 34 59  1  0
 35 60  1  0
M  CHG  1  26  -1
M  END
>  <UniqueID>  (19) 
19

>  <SMILES>  (19) 
COc1ccccc1N(Cc1ccccc1)S(=O)(=O)c1ccc(C(=O)[N-]c2ccc(C)cc2)cc1

>  <Energy>  (19) 
72.9850233618256

>  <Genealogy>  (19) 
COc1ccccc1N(Cc1ccccc1)S(=O)(=O)c1ccc(C(=O)[N-]c2ccc(C)cc2)cc1 (protonated)
COc1ccccc1N(Cc1ccccc1)S(=O)(=O)c1ccc(C(=O)[N-]c2ccc(C)cc2)cc1 (3D coordinates assigned)
COc1ccccc1N(Cc1ccccc1)S(=O)(=O)c1ccc(C(=O)[N-]c2ccc(C)cc2)cc1 (optimized conformer: 72.9850233618256 kcal/mol)

>  <smiles>  (19) 
COc1ccccc1N(Cc1ccccc1)S(=O)(=O)c1ccc(C(=O)Nc2ccc(C)cc2)cc1

>  <score_type>  (19) 
oracle

>  <origin>  (19) 
adgpu

>  <m_score__min__energy>  (19) 
-10.49

>  <m_primary>  (19) 
energy

$$$$
19:0
     RDKit          3D

 51 55  0  0  0  0  0  0  0  0999 V2000
   -6.3090   24.5910  -31.9580 N   0  0  0  0  0  0  0  0  0  0  0  0
   -5.4840   23.6220  -31.7250 C   0  0  0  0  0  0  0  0  0  0  0  0
   -5.7000   22.3770  -32.2480 N   0  0  0  0  0  0  0  0  0  0  0  0
   -4.8460   21.3230  -32.0250 C   0  0  0  0  0  0  0  0  0  0  0  0
   -5.1550   20.0000  -32.6250 C   0  0  0  0  0  0  0  0  0  0  0  0
   -6.4660   19.5030  -32.5790 C   0  0  0  0  0  0  0  0  0  0  0  0
   -6.7730   18.2590  -33.1310 C   0  0  0  0  0  0  0  0  0  0  0  0
   -5.7800   17.4860  -33.7390 C   0  0  0  0  0  0  0  0  0  0  0  0
   -6.1310   16.2180  -34.2170 O   0  0  0  0  0  0  0  0  0  0  0  0
   -5.7330   15.0100  -33.6220 C   0  0  0  0  0  0  0  0  0  0  0  0
   -6.1400   13.8070  -34.2140 C   0  0  0  0  0  0  0  0  0  0  0  0
   -5.7640   12.5810  -33.6560 C   0  0  0  0  0  0  0  0  0  0  0  0
   -4.9830   12.5490  -32.4980 C   0  0  0  0  0  0  0  0  0  0  0  0
   -4.5790   13.7430  -31.8940 C   0  0  0  0  0  0  0  0  0  0  0  0
   -4.9530   14.9710  -32.4490 C   0  0  0  0  0  0  0  0  0  0  0  0
   -4.4640   17.9940  -33.8510 C   0  0  0  0  0  0  0  0  0  0  0  0
   -3.4040   17.2690  -34.5940 C   0  0  0  0  0  0  0  0  0  0  0  0
   -3.7310   16.4410  -35.7090 N   0  0  0  0  0  0  0  0  0  0  0  0
   -2.1950   17.4070  -34.2660 O   0  0  0  0  0  0  0  0  0  0  0  0
   -4.1630   19.2420  -33.2750 C   0  0  0  0  0  0  0  0  0  0  0  0
   -3.7010   21.5170  -31.2130 C   0  0  0  0  0  0  0  0  0  0  0  0
   -3.4960   22.7910  -30.6920 C   0  0  0  0  0  0  0  0  0  0  0  0
   -2.4960   23.2030  -29.9020 N   0  0  0  0  0  0  0  0  0  0  0  0
   -2.8030   24.5150  -29.7080 C   0  0  0  0  0  0  0  0  0  0  0  0
   -2.0920   25.3180  -28.9720 N   0  0  0  0  0  0  0  0  0  0  0  0
   -0.8550   24.9970  -28.3150 C   0  0  0  0  0  0  0  0  0  0  0  0
    0.0230   24.3650  -28.9600 O   0  0  0  0  0  0  0  0  0  0  0  0
   -0.5970   25.3380  -26.8950 C   0  0  0  0  0  0  0  0  0  0  0  0
   -0.5420   24.3290  -25.9110 C   0  0  0  0  0  0  0  0  0  0  0  0
   -0.7100   22.9920  -26.2540 O   0  0  0  0  0  0  0  0  0  0  0  0
   -0.3030   24.6640  -24.5740 C   0  0  0  0  0  0  0  0  0  0  0  0
   -0.1000   25.9950  -24.2090 C   0  0  0  0  0  0  0  0  0  0  0  0
   -0.1320   27.0000  -25.1780 C   0  0  0  0  0  0  0  0  0  0  0  0
   -0.3780   26.6780  -26.5170 C   0  0  0  0  0  0  0  0  0  0  0  0
   -0.4180   27.6980  -27.4630 O   0  0  0  0  0  0  0  0  0  0  0  0
   -3.9420   24.9300  -30.3200 N   0  0  0  0  0  0  0  0  0  0  0  0
   -4.3540   23.8120  -30.9380 C   0  0  0  0  0  0  0  0  0  0  0  0
   -7.1600   24.4510  -32.5480 H   0  0  0  0  0  0  0  0  0  0  0  0
   -7.2588   20.0992  -32.1036 H   0  0  0  0  0  0  0  0  0  0  0  0
   -7.8059   17.8832  -33.0873 H   0  0  0  0  0  0  0  0  0  0  0  0
   -6.7590   13.8270  -35.1231 H   0  0  0  0  0  0  0  0  0  0  0  0
   -6.0835   11.6409  -34.1293 H   0  0  0  0  0  0  0  0  0  0  0  0
   -4.6860   11.5840  -32.0615 H   0  0  0  0  0  0  0  0  0  0  0  0
   -3.9661   13.7168  -30.9809 H   0  0  0  0  0  0  0  0  0  0  0  0
   -4.6375   15.9089  -31.9686 H   0  0  0  0  0  0  0  0  0  0  0  0
   -4.6060   15.8700  -35.7150 H   0  0  0  0  0  0  0  0  0  0  0  0
   -3.1359   19.6315  -33.3336 H   0  0  0  0  0  0  0  0  0  0  0  0
   -3.0024   20.6937  -31.0030 H   0  0  0  0  0  0  0  0  0  0  0  0
   -0.2750   23.8752  -23.8079 H   0  0  0  0  0  0  0  0  0  0  0  0
    0.0856   26.2533  -23.1560 H   0  0  0  0  0  0  0  0  0  0  0  0
    0.0367   28.0475  -24.8877 H   0  0  0  0  0  0  0  0  0  0  0  0
  1  2  2  3
  2  3  1  0
  3  4  1  0
  4  5  1  0
  5  6  2  0
  6  7  1  0
  7  8  2  0
  8  9  1  0
  9 10  1  0
 10 11  2  0
 11 12  1  0
 12 13  2  0
 13 14  1  0
 14 15  2  0
  8 16  1  0
 16 17  1  0
 17 18  1  0
 17 19  2  0
 16 20  2  0
  4 21  2  0
 21 22  1  0
 22 23  1  0
 23 24  1  0
 24 25  2  3
 25 26  1  0
 26 27  2  0
 26 28  1  0
 28 29  2  0
 29 30  1  0
 29 31  1  0
 31 32  2  0
 32 33  1  0
 33 34  2  0
 34 35  1  0
 24 36  1  0
 36 37  1  0
 37  2  1  0
 20  5  1  0
 37 22  2  0
 15 10  1  0
 34 28  1  0
  1 38  1  0
  6 39  1  0
  7 40  1  0
 11 41  1  0
 12 42  1  0
 13 43  1  0
 14 44  1  0
 15 45  1  0
 18 46  1  0
 20 47  1  0
 21 48  1  0
 31 49  1  0
 32 50  1  0
 33 51  1  0
M  CHG  6   3  -1  18  -1  23  -1  30  -1  35  -1  36  -1
M  END
>  <UniqueID>  (20) 
20

>  <SMILES>  (20) 
N=c1[n-]c(-c2ccc(Oc3ccccc3)c(C([NH-])=O)c2)cc2[n-]c(=NC(=O)c3c([O-])cccc3[O-])[n-]c12

>  <Energy>  (20) 
119.14832787978953

>  <Genealogy>  (20) 
N=c1[n-]c(-c2ccc(Oc3ccccc3)c(C([NH-])=O)c2)cc2[n-]c(=NC(=O)c3c([O-])cccc3[O-])[n-]c12 (protonated)
N=c1[n-]c(-c2ccc(Oc3ccccc3)c(C([NH-])=O)c2)cc2[n-]c(=NC(=O)c3c([O-])cccc3[O-])[n-]c12 (3D coordinates assigned)
N=c1[n-]c(-c2ccc(Oc3ccccc3)c(C([NH-])=O)c2)cc2[n-]c(=NC(=O)c3c([O-])cccc3[O-])[n-]c12 (optimized conformer: 119.14832787978953 kcal/mol)

>  <smiles>  (20) 
N=c1[nH]c(-c2ccc(Oc3ccccc3)c(C(N)=O)c2)cc2[nH]c(=NC(=O)c3c(O)cccc3O)[nH]c12

>  <score_type>  (20) 
oracle

>  <origin>  (20) 
adgpu

>  <m_score__min__energy>  (20) 
-13.109999999999999

>  <m_primary>  (20) 
energy

$$$$
20:0
     RDKit          3D

 29 32  0  0  0  0  0  0  0  0999 V2000
   -2.3960   15.4970  -35.8310 H   0  0  0  0  0  0  0  0  0  0  0  0
   -3.3960   15.4550  -35.5340 N   0  0  0  0  0  0  0  0  0  0  0  0
   -3.9630   16.4570  -34.9450 C   0  0  0  0  0  0  0  0  0  0  0  0
   -3.1890   17.9210  -34.5910 S   0  0  0  0  0  0  0  0  0  0  0  0
   -4.5830   18.5540  -33.8920 C   0  0  0  0  0  0  0  0  0  0  0  0
   -4.7710   19.8100  -33.3220 C   0  0  0  0  0  0  0  0  0  0  0  0
   -3.9473   20.5380  -33.2825 H   0  0  0  0  0  0  0  0  0  0  0  0
   -6.0430   20.1300  -32.7950 C   0  0  0  0  0  0  0  0  0  0  0  0
   -6.2860   21.4580  -32.1790 C   0  0  0  0  0  0  0  0  0  0  0  0
   -7.6040   21.8600  -31.8270 C   0  0  0  0  0  0  0  0  0  0  0  0
   -8.4482   21.1802  -32.0144 H   0  0  0  0  0  0  0  0  0  0  0  0
   -7.8400   23.1170  -31.2420 C   0  0  0  0  0  0  0  0  0  0  0  0
   -8.8571   23.4334  -30.9673 H   0  0  0  0  0  0  0  0  0  0  0  0
   -6.7460   23.9470  -31.0220 C   0  0  0  0  0  0  0  0  0  0  0  0
   -5.4850   23.5750  -31.3540 C   0  0  0  0  0  0  0  0  0  0  0  0
   -5.2070   22.3420  -31.9350 C   0  0  0  0  0  0  0  0  0  0  0  0
   -4.1764   22.0612  -32.1979 H   0  0  0  0  0  0  0  0  0  0  0  0
   -4.6040   24.5880  -31.0210 O   0  0  0  0  0  0  0  0  0  0  0  0
   -5.3620   25.6630  -30.4460 C   0  0  0  0  0  0  0  0  0  0  0  0
   -5.0347   25.8577  -29.4140 H   0  0  0  0  0  0  0  0  0  0  0  0
   -5.2309   26.6033  -31.0015 H   0  0  0  0  0  0  0  0  0  0  0  0
   -6.7230   25.2120  -30.4660 O   0  0  0  0  0  0  0  0  0  0  0  0
   -7.0830   19.1690  -32.8630 C   0  0  0  0  0  0  0  0  0  0  0  0
   -8.0750   19.4136  -32.4555 H   0  0  0  0  0  0  0  0  0  0  0  0
   -6.8640   17.9080  -33.4440 C   0  0  0  0  0  0  0  0  0  0  0  0
   -7.6743   17.1657  -33.4928 H   0  0  0  0  0  0  0  0  0  0  0  0
   -5.6020   17.6150  -33.9570 C   0  0  0  0  0  0  0  0  0  0  0  0
   -5.2550   16.4410  -34.5460 N   0  0  0  0  0  0  0  0  0  0  0  0
   -5.9040   15.6300  -34.6740 H   0  0  0  0  0  0  0  0  0  0  0  0
  1  2  1  0
  2  3  2  0
  3  4  1  0
  4  5  1  0
  5  6  2  0
  6  7  1  0
  6  8  1  0
  8  9  1  0
  9 10  2  0
 10 11  1  0
 10 12  1  0
 12 13  1  0
 12 14  2  0
 14 15  1  0
 15 16  2  0
 16 17  1  0
 15 18  1  0
 18 19  1  0
 19 20  1  0
 19 21  1  0
 19 22  1  0
  8 23  2  0
 23 24  1  0
 23 25  1  0
 25 26  1  0
 25 27  2  0
 27 28  1  0
 28 29  1  0
 28  3  1  0
 27  5  1  0
 16  9  1  0
 22 14  1  0
M  END
>  <UniqueID>  (21) 
21

>  <SMILES>  (21) 
[H]/N=c1/[nH]c2ccc(-c3ccc4c(c3)OCO4)cc2s1

>  <Energy>  (21) 
100.84110402900157

>  <Genealogy>  (21) 
[H]/N=c1/[nH]c2ccc(-c3ccc4c(c3)OCO4)cc2s1 (cis-trans isomerization)
[H]/N=c1/[nH]c2ccc(-c3ccc4c(c3)OCO4)cc2s1 (3D coordinates assigned)
[H]/N=c1/[nH]c2ccc(-c3ccc4c(c3)OCO4)cc2s1 (nonaromatic ring conformer: 100.84110402900157 kcal/mol)

>  <smiles>  (21) 
N=c1[nH]c2ccc(-c3ccc4c(c3)OCO4)cc2s1

>  <score_type>  (21) 
oracle

>  <origin>  (21) 
adgpu

>  <m_score__min__energy>  (21) 
-7.0800000000000001

>  <m_primary>  (21) 
energy

$$$$
21:0
     RDKit          3D

 54 56  0  0  0  0  0  0  0  0999 V2000
   -6.0720   18.0050  -34.3510 C   0  0  0  0  0  0  0  0  0  0  0  0
   -5.9470   19.3390  -33.6200 C   0  0  0  0  0  0  0  0  0  0  0  0
   -7.1590   19.6210  -32.8360 N   0  0  0  0  0  0  0  0  0  0  0  0
   -8.1750   18.5670  -32.6950 C   0  0  0  0  0  0  0  0  0  0  0  0
   -8.7610   18.5680  -31.2860 C   0  0  0  0  0  0  0  0  0  0  0  0
   -7.3590   20.9410  -32.2780 C   0  0  0  0  0  0  0  0  0  0  0  0
   -6.3030   21.6630  -31.6950 C   0  0  0  0  0  0  0  0  0  0  0  0
   -6.5550   22.9420  -31.1790 C   0  0  0  0  0  0  0  0  0  0  0  0
   -5.4800   23.7400  -30.5500 C   0  0  0  0  0  0  0  0  0  0  0  0
   -4.9020   24.6440  -31.2150 O   0  0  0  0  0  0  0  0  0  0  0  0
   -5.1170   23.5170  -29.1760 N   0  0  0  0  0  0  0  0  0  0  0  0
   -3.9170   24.0260  -28.5710 C   0  0  0  0  0  0  0  0  0  0  0  0
   -2.7430   24.1120  -29.3350 C   0  0  0  0  0  0  0  0  0  0  0  0
   -1.5700   24.6280  -28.7790 C   0  0  0  0  0  0  0  0  0  0  0  0
   -1.5580   25.0840  -27.4530 C   0  0  0  0  0  0  0  0  0  0  0  0
   -0.0830   25.7540  -26.7580 S   0  0  0  0  0  0  0  0  0  0  0  0
   -0.1610   27.2550  -26.8120 O   0  0  0  0  0  0  0  0  0  0  0  0
    1.0930   25.3280  -27.5930 O   0  0  0  0  0  0  0  0  0  0  0  0
    0.1720   25.2510  -25.0990 N   0  0  0  0  0  0  0  0  0  0  0  0
   -0.8960   25.7230  -24.1950 C   0  0  0  0  0  0  0  0  0  0  0  0
   -0.6900   27.1800  -23.7220 C   0  0  0  0  0  0  0  0  0  0  0  0
    0.5760   27.7080  -24.0670 O   0  0  0  0  0  0  0  0  0  0  0  0
    1.5850   26.7950  -23.7060 C   0  0  0  0  0  0  0  0  0  0  0  0
    1.5340   25.5520  -24.6100 C   0  0  0  0  0  0  0  0  0  0  0  0
   -2.7310   25.0130  -26.6900 C   0  0  0  0  0  0  0  0  0  0  0  0
   -3.9050   24.4970  -27.2450 C   0  0  0  0  0  0  0  0  0  0  0  0
   -7.8140   23.4520  -31.2560 N   0  0  0  0  0  0  0  0  0  0  0  0
   -8.8250   22.7510  -31.8260 C   0  0  0  0  0  0  0  0  0  0  0  0
   -8.5940   21.5130  -32.3300 N   0  0  0  0  0  0  0  0  0  0  0  0
   -6.1484   17.1900  -33.6162 H   0  0  0  0  0  0  0  0  0  0  0  0
   -6.9731   18.0156  -34.9818 H   0  0  0  0  0  0  0  0  0  0  0  0
   -5.1846   17.8480  -34.9818 H   0  0  0  0  0  0  0  0  0  0  0  0
   -5.0808   19.2994  -32.9431 H   0  0  0  0  0  0  0  0  0  0  0  0
   -5.8152   20.1379  -34.3646 H   0  0  0  0  0  0  0  0  0  0  0  0
   -8.9817   18.7435  -33.4217 H   0  0  0  0  0  0  0  0  0  0  0  0
   -7.7011   17.5918  -32.8803 H   0  0  0  0  0  0  0  0  0  0  0  0
   -7.9442   18.5666  -30.5492 H   0  0  0  0  0  0  0  0  0  0  0  0
   -9.3791   19.4672  -31.1466 H   0  0  0  0  0  0  0  0  0  0  0  0
   -9.3821   17.6709  -31.1466 H   0  0  0  0  0  0  0  0  0  0  0  0
   -5.2929   21.2304  -31.6444 H   0  0  0  0  0  0  0  0  0  0  0  0
   -5.8050   23.0320  -28.5570 H   0  0  0  0  0  0  0  0  0  0  0  0
   -2.7465   23.7702  -30.3805 H   0  0  0  0  0  0  0  0  0  0  0  0
   -0.6523   24.6768  -29.3836 H   0  0  0  0  0  0  0  0  0  0  0  0
   -1.8573   25.6599  -24.7259 H   0  0  0  0  0  0  0  0  0  0  0  0
   -0.8763   25.0821  -23.3012 H   0  0  0  0  0  0  0  0  0  0  0  0
   -1.4671   27.8089  -24.1809 H   0  0  0  0  0  0  0  0  0  0  0  0
   -0.7528   27.1773  -22.6238 H   0  0  0  0  0  0  0  0  0  0  0  0
    2.5668   27.2797  -23.8118 H   0  0  0  0  0  0  0  0  0  0  0  0
    1.4268   26.4835  -22.6630 H   0  0  0  0  0  0  0  0  0  0  0  0
    2.1886   25.7220  -25.4775 H   0  0  0  0  0  0  0  0  0  0  0  0
    1.8657   24.6929  -24.0084 H   0  0  0  0  0  0  0  0  0  0  0  0
   -2.7277   25.3655  -25.6480 H   0  0  0  0  0  0  0  0  0  0  0  0
   -4.8244   24.4588  -26.6424 H   0  0  0  0  0  0  0  0  0  0  0  0
   -9.8336   23.1867  -31.8798 H   0  0  0  0  0  0  0  0  0  0  0  0
  1  2  1  0
  2  3  1  0
  3  4  1  0
  4  5  1  0
  3  6  1  0
  6  7  2  0
  7  8  1  0
  8  9  1  0
  9 10  2  0
  9 11  1  0
 11 12  1  0
 12 13  2  0
 13 14  1  0
 14 15  2  0
 15 16  1  0
 16 17  2  0
 16 18  2  0
 16 19  1  0
 19 20  1  0
 20 21  1  0
 21 22  1  0
 22 23  1  0
 23 24  1  0
 15 25  1  0
 25 26  2  0
  8 27  2  0
 27 28  1  0
 28 29  2  0
 29  6  1  0
 26 12  1  0
 24 19  1  0
  1 30  1  0
  1 31  1  0
  1 32  1  0
  2 33  1  0
  2 34  1  0
  4 35  1  0
  4 36  1  0
  5 37  1  0
  5 38  1  0
  5 39  1  0
  7 40  1  0
 11 41  1  0
 13 42  1  0
 14 43  1  0
 20 44  1  0
 20 45  1  0
 21 46  1  0
 21 47  1  0
 23 48  1  0
 23 49  1  0
 24 50  1  0
 24 51  1  0
 25 52  1  0
 26 53  1  0
 28 54  1  0
M  END
>  <UniqueID>  (22) 
22

>  <SMILES>  (22) 
CCN(CC)c1cc(C(=O)Nc2ccc(S(=O)(=O)N3CCOCC3)cc2)ncn1

>  <Energy>  (22) 
65.97387214977705

>  <Genealogy>  (22) 
CCN(CC)c1cc(C(=O)Nc2ccc(S(=O)(=O)N3CCOCC3)cc2)ncn1 (3D coordinates assigned)
CCN(CC)c1cc(C(=O)Nc2ccc(S(=O)(=O)N3CCOCC3)cc2)ncn1 (nonaromatic ring conformer: 65.97387214977705 kcal/mol)

>  <smiles>  (22) 
CCN(CC)c1cc(C(=O)Nc2ccc(S(=O)(=O)N3CCOCC3)cc2)ncn1

>  <score_type>  (22) 
oracle

>  <origin>  (22) 
adgpu

>  <m_score__min__energy>  (22) 
-9.1600000000000001

>  <m_primary>  (22) 
energy

$$$$
22:0
     RDKit          3D

 40 42  0  0  0  0  0  0  0  0999 V2000
   -3.5990   25.0650  -30.4720 O   0  0  0  0  0  0  0  0  0  0  0  0
   -3.4660   24.3210  -29.4600 C   0  0  0  0  0  0  0  0  0  0  0  0
   -4.3820   23.2310  -29.2450 N   0  0  0  0  0  0  0  0  0  0  0  0
   -5.3900   22.8350  -30.1910 C   0  0  0  0  0  0  0  0  0  0  0  0
   -6.6210   23.5080  -30.2050 C   0  0  0  0  0  0  0  0  0  0  0  0
   -7.6240   23.1270  -31.1000 C   0  0  0  0  0  0  0  0  0  0  0  0
   -7.4150   22.0590  -31.9750 C   0  0  0  0  0  0  0  0  0  0  0  0
   -6.2030   21.3570  -31.9500 C   0  0  0  0  0  0  0  0  0  0  0  0
   -5.9380   19.9910  -33.0320 S   0  0  0  0  0  0  0  0  0  0  0  0
   -6.9040   20.0570  -34.1830 O   0  0  0  0  0  0  0  0  0  0  0  0
   -4.5330   20.0700  -33.5610 O   0  0  0  0  0  0  0  0  0  0  0  0
   -6.1580   18.4910  -32.1560 N   0  0  0  0  0  0  0  0  0  0  0  0
   -7.3350   17.7700  -32.6560 C   0  0  0  0  0  0  0  0  0  0  0  0
   -6.8720   16.7750  -33.7110 C   0  0  0  0  0  0  0  0  0  0  0  0
   -5.3670   16.6760  -33.5480 C   0  0  0  0  0  0  0  0  0  0  0  0
   -5.0220   17.5920  -32.3830 C   0  0  0  0  0  0  0  0  0  0  0  0
   -5.1930   21.7450  -31.0580 C   0  0  0  0  0  0  0  0  0  0  0  0
   -2.3610   24.6010  -28.5110 C   0  0  0  0  0  0  0  0  0  0  0  0
   -2.6400   24.8040  -27.1500 C   0  0  0  0  0  0  0  0  0  0  0  0
   -1.6070   25.0660  -26.2490 C   0  0  0  0  0  0  0  0  0  0  0  0
   -0.2930   25.1140  -26.7130 C   0  0  0  0  0  0  0  0  0  0  0  0
   -0.0290   24.9010  -28.0280 N   0  0  0  0  0  0  0  0  0  0  0  0
   -1.0170   24.6470  -28.9270 C   0  0  0  0  0  0  0  0  0  0  0  0
   -4.3610   22.7170  -28.3380 H   0  0  0  0  0  0  0  0  0  0  0  0
   -6.7974   24.3401  -29.5076 H   0  0  0  0  0  0  0  0  0  0  0  0
   -8.5807   23.6697  -31.1154 H   0  0  0  0  0  0  0  0  0  0  0  0
   -8.2033   21.7685  -32.6850 H   0  0  0  0  0  0  0  0  0  0  0  0
   -7.8229   17.2346  -31.8282 H   0  0  0  0  0  0  0  0  0  0  0  0
   -8.0563   18.4770  -33.0918 H   0  0  0  0  0  0  0  0  0  0  0  0
   -7.3412   15.7940  -33.5454 H   0  0  0  0  0  0  0  0  0  0  0  0
   -7.1506   17.0985  -34.7248 H   0  0  0  0  0  0  0  0  0  0  0  0
   -5.0722   15.6404  -33.3229 H   0  0  0  0  0  0  0  0  0  0  0  0
   -4.8374   16.9680  -34.4668 H   0  0  0  0  0  0  0  0  0  0  0  0
   -4.8355   16.9921  -31.4800 H   0  0  0  0  0  0  0  0  0  0  0  0
   -4.1167   18.1735  -32.6116 H   0  0  0  0  0  0  0  0  0  0  0  0
   -4.2413   21.1939  -31.0362 H   0  0  0  0  0  0  0  0  0  0  0  0
   -3.6790   24.7562  -26.7918 H   0  0  0  0  0  0  0  0  0  0  0  0
   -1.8270   25.2329  -25.1842 H   0  0  0  0  0  0  0  0  0  0  0  0
    0.5298   25.3244  -26.0139 H   0  0  0  0  0  0  0  0  0  0  0  0
   -0.7649   24.4767  -29.9841 H   0  0  0  0  0  0  0  0  0  0  0  0
  1  2  2  0
  2  3  1  0
  3  4  1  0
  4  5  2  0
  5  6  1  0
  6  7  2  0
  7  8  1  0
  8  9  1  0
  9 10  2  0
  9 11  2  0
  9 12  1  0
 12 13  1  0
 13 14  1  0
 14 15  1  0
 15 16  1  0
  8 17  2  0
  2 18  1  0
 18 19  2  0
 19 20  1  0
 20 21  2  0
 21 22  1  0
 22 23  2  0
 17  4  1  0
 23 18  1  0
 16 12  1  0
  3 24  1  0
  5 25  1  0
  6 26  1  0
  7 27  1  0
 13 28  1  0
 13 29  1  0
 14 30  1  0
 14 31  1  0
 15 32  1  0
 15 33  1  0
 16 34  1  0
 16 35  1  0
 17 36  1  0
 19 37  1  0
 20 38  1  0
 21 39  1  0
 23 40  1  0
M  END
>  <UniqueID>  (23) 
23

>  <SMILES>  (23) 
O=C(Nc1cccc(S(=O)(=O)N2CCCC2)c1)c1cccnc1

>  <Energy>  (23) 
49.9292772666586

>  <Genealogy>  (23) 
O=C(Nc1cccc(S(=O)(=O)N2CCCC2)c1)c1cccnc1 (3D coordinates assigned)
O=C(Nc1cccc(S(=O)(=O)N2CCCC2)c1)c1cccnc1 (nonaromatic ring conformer: 49.9292772666586 kcal/mol)

>  <smiles>  (23) 
O=C(Nc1cccc(S(=O)(=O)N2CCCC2)c1)c1cccnc1

>  <score_type>  (23) 
oracle

>  <origin>  (23) 
adgpu

>  <m_score__min__energy>  (23) 
-8.5500000000000007

>  <m_primary>  (23) 
energy

$$$$
23:0
     RDKit          3D

 30 31  0  0  0  0  0  0  0  0999 V2000
   -0.0330   26.0380  -27.5800 C   0  0  0  0  0  0  0  0  0  0  0  0
   -1.0770   25.0560  -28.0050 C   0  0  0  0  0  0  0  0  0  0  0  0
   -1.1550   23.7990  -27.3970 C   0  0  0  0  0  0  0  0  0  0  0  0
   -2.1570   22.9170  -27.8130 C   0  0  0  0  0  0  0  0  0  0  0  0
   -2.2920   21.5690  -27.1800 C   0  0  0  0  0  0  0  0  0  0  0  0
   -3.0310   23.3030  -28.7800 N   0  0  0  0  0  0  0  0  0  0  0  0
   -2.9410   24.5280  -29.3690 C   0  0  0  0  0  0  0  0  0  0  0  0
   -3.7920   24.9030  -30.2790 N   0  0  0  0  0  0  0  0  0  0  0  0
   -4.8460   24.1090  -30.8540 C   0  0  0  0  0  0  0  0  0  0  0  0
   -4.5620   23.0400  -31.7260 C   0  0  0  0  0  0  0  0  0  0  0  0
   -5.5990   22.3010  -32.3000 C   0  0  0  0  0  0  0  0  0  0  0  0
   -6.9270   22.6290  -32.0280 C   0  0  0  0  0  0  0  0  0  0  0  0
   -7.2240   23.7060  -31.1890 C   0  0  0  0  0  0  0  0  0  0  0  0
   -6.1910   24.4600  -30.6070 C   0  0  0  0  0  0  0  0  0  0  0  0
   -6.5230   25.6190  -29.7080 C   0  0  0  0  0  0  0  0  0  0  0  0
   -1.9740   25.3940  -28.9690 N   0  0  0  0  0  0  0  0  0  0  0  0
    0.0083   26.0768  -26.4815 H   0  0  0  0  0  0  0  0  0  0  0  0
    0.9458   25.7256  -27.9729 H   0  0  0  0  0  0  0  0  0  0  0  0
   -0.2849   27.0341  -27.9729 H   0  0  0  0  0  0  0  0  0  0  0  0
   -0.4438   23.5106  -26.6090 H   0  0  0  0  0  0  0  0  0  0  0  0
   -2.2814   21.6753  -26.0852 H   0  0  0  0  0  0  0  0  0  0  0  0
   -3.2407   21.1095  -27.4946 H   0  0  0  0  0  0  0  0  0  0  0  0
   -1.4533   20.9305  -27.4946 H   0  0  0  0  0  0  0  0  0  0  0  0
   -3.5169   22.7855  -31.9564 H   0  0  0  0  0  0  0  0  0  0  0  0
   -5.3677   21.4583  -32.9681 H   0  0  0  0  0  0  0  0  0  0  0  0
   -7.7412   22.0393  -32.4744 H   0  0  0  0  0  0  0  0  0  0  0  0
   -8.2729   23.9652  -30.9828 H   0  0  0  0  0  0  0  0  0  0  0  0
   -6.4332   25.3056  -28.6574 H   0  0  0  0  0  0  0  0  0  0  0  0
   -5.8259   26.4469  -29.9045 H   0  0  0  0  0  0  0  0  0  0  0  0
   -7.5527   25.9522  -29.9045 H   0  0  0  0  0  0  0  0  0  0  0  0
  1  2  1  0
  2  3  1  0
  3  4  2  0
  4  5  1  0
  4  6  1  0
  6  7  1  0
  7  8  2  3
  8  9  1  0
  9 10  2  0
 10 11  1  0
 11 12  2  0
 12 13  1  0
 13 14  2  0
 14 15  1  0
  7 16  1  0
 16  2  2  0
 14  9  1  0
  1 17  1  0
  1 18  1  0
  1 19  1  0
  3 20  1  0
  5 21  1  0
  5 22  1  0
  5 23  1  0
 10 24  1  0
 11 25  1  0
 12 26  1  0
 13 27  1  0
 15 28  1  0
 15 29  1  0
 15 30  1  0
M  CHG  1   6  -1
M  END
>  <UniqueID>  (24) 
24

>  <SMILES>  (24) 
Cc1cc(C)[n-]c(=Nc2ccccc2C)n1

>  <Energy>  (24) 
34.73574990241488

>  <Genealogy>  (24) 
Cc1cc(C)[n-]c(=Nc2ccccc2C)n1 (protonated)
Cc1cc(C)[n-]c(=Nc2ccccc2C)n1 (3D coordinates assigned)
Cc1cc(C)[n-]c(=Nc2ccccc2C)n1 (optimized conformer: 34.73574990241488 kcal/mol)

>  <smiles>  (24) 
Cc1cc(C)[nH]c(=Nc2ccccc2C)n1

>  <score_type>  (24) 
oracle

>  <origin>  (24) 
adgpu

>  <m_score__min__energy>  (24) 
-7.8700000000000001

>  <m_primary>  (24) 
energy

$$$$
24:0
     RDKit          3D

 41 44  0  0  0  0  0  0  0  0999 V2000
   -5.8030   24.9630  -28.9800 O   0  0  0  0  0  0  0  0  0  0  0  0
   -5.1660   24.7410  -30.3220 S   0  0  0  0  0  0  0  0  0  0  0  0
   -5.6940   25.7630  -31.2890 O   0  0  0  0  0  0  0  0  0  0  0  0
   -3.4490   24.9340  -30.1760 N   0  0  0  0  0  0  0  0  0  0  0  0
   -2.6530   24.4590  -29.0790 C   0  0  0  0  0  0  0  0  0  0  0  0
   -2.9550   23.2630  -28.4010 C   0  0  0  0  0  0  0  0  0  0  0  0
   -2.1610   22.8410  -27.3300 C   0  0  0  0  0  0  0  0  0  0  0  0
   -1.0640   23.6030  -26.9270 C   0  0  0  0  0  0  0  0  0  0  0  0
   -0.7520   24.7880  -27.6000 C   0  0  0  0  0  0  0  0  0  0  0  0
   -1.5420   25.2160  -28.6720 C   0  0  0  0  0  0  0  0  0  0  0  0
   -1.2250   26.4010  -29.3260 O   0  0  0  0  0  0  0  0  0  0  0  0
   -5.5410   23.1100  -30.8680 C   0  0  0  0  0  0  0  0  0  0  0  0
   -4.5950   22.0890  -30.7160 C   0  0  0  0  0  0  0  0  0  0  0  0
   -4.8780   20.7940  -31.1600 C   0  0  0  0  0  0  0  0  0  0  0  0
   -6.1170   20.5060  -31.7610 C   0  0  0  0  0  0  0  0  0  0  0  0
   -6.4500   19.1930  -32.2310 N   0  0  0  0  0  0  0  0  0  0  0  0
   -6.0730   18.5680  -33.8040 S   0  0  0  0  0  0  0  0  0  0  0  0
   -6.8750   17.3220  -34.0590 O   0  0  0  0  0  0  0  0  0  0  0  0
   -6.3980   19.6130  -34.8340 O   0  0  0  0  0  0  0  0  0  0  0  0
   -4.3550   18.1740  -33.8920 C   0  0  0  0  0  0  0  0  0  0  0  0
   -3.9430   16.8360  -34.0350 C   0  0  0  0  0  0  0  0  0  0  0  0
   -2.5800   16.5080  -34.1030 C   0  0  0  0  0  0  0  0  0  0  0  0
   -1.6020   17.5060  -34.0310 C   0  0  0  0  0  0  0  0  0  0  0  0
   -1.9950   18.8380  -33.9000 C   0  0  0  0  0  0  0  0  0  0  0  0
   -1.1070   19.8610  -33.8310 N   0  0  0  0  0  0  0  0  0  0  0  0
   -2.1450   21.1400  -33.6960 S   0  0  0  0  0  0  0  0  0  0  0  0
   -3.6680   20.4990  -33.7150 N   0  0  0  0  0  0  0  0  0  0  0  0
   -3.3760   19.1780  -33.8340 C   0  0  0  0  0  0  0  0  0  0  0  0
   -7.0610   21.5300  -31.9070 C   0  0  0  0  0  0  0  0  0  0  0  0
   -6.7780   22.8240  -31.4620 C   0  0  0  0  0  0  0  0  0  0  0  0
   -3.8186   22.6582  -28.7147 H   0  0  0  0  0  0  0  0  0  0  0  0
   -2.4020   21.9056  -26.8038 H   0  0  0  0  0  0  0  0  0  0  0  0
   -0.4450   23.2716  -26.0803 H   0  0  0  0  0  0  0  0  0  0  0  0
    0.1167   25.3851  -27.2858 H   0  0  0  0  0  0  0  0  0  0  0  0
   -3.6250   22.3068  -30.2452 H   0  0  0  0  0  0  0  0  0  0  0  0
   -4.1292   19.9973  -31.0390 H   0  0  0  0  0  0  0  0  0  0  0  0
   -4.6978   16.0381  -34.0942 H   0  0  0  0  0  0  0  0  0  0  0  0
   -2.2778   15.4562  -34.2140 H   0  0  0  0  0  0  0  0  0  0  0  0
   -0.5349   17.2431  -34.0772 H   0  0  0  0  0  0  0  0  0  0  0  0
   -8.0325   21.3141  -32.3755 H   0  0  0  0  0  0  0  0  0  0  0  0
   -7.5279   23.6203  -31.5781 H   0  0  0  0  0  0  0  0  0  0  0  0
  1  2  2  0
  2  3  2  0
  2  4  1  0
  4  5  1  0
  5  6  2  0
  6  7  1  0
  7  8  2  0
  8  9  1  0
  9 10  2  0
 10 11  1  0
  2 12  1  0
 12 13  2  0
 13 14  1  0
 14 15  2  0
 15 16  1  0
 16 17  1  0
 17 18  2  0
 17 19  2  0
 17 20  1  0
 20 21  2  0
 21 22  1  0
 22 23  2  0
 23 24  1  0
 24 25  2  0
 25 26  1  0
 26 27  1  0
 27 28  2  0
 15 29  1  0
 29 30  2  0
 10  5  1  0
 30 12  1  0
 28 20  1  0
 28 24  1  0
  6 31  1  0
  7 32  1  0
  8 33  1  0
  9 34  1  0
 13 35  1  0
 14 36  1  0
 21 37  1  0
 22 38  1  0
 23 39  1  0
 29 40  1  0
 30 41  1  0
M  CHG  3   4  -1  11  -1  16  -1
M  END
>  <UniqueID>  (25) 
25

>  <SMILES>  (25) 
O=S(=O)([N-]c1ccccc1[O-])c1ccc([N-]S(=O)(=O)c2cccc3nsnc23)cc1

>  <Energy>  (25) 
91.8489749723165

>  <Genealogy>  (25) 
O=S(=O)([N-]c1ccccc1[O-])c1ccc([N-]S(=O)(=O)c2cccc3nsnc23)cc1 (protonated)
O=S(=O)([N-]c1ccccc1[O-])c1ccc([N-]S(=O)(=O)c2cccc3nsnc23)cc1 (3D coordinates assigned)
O=S(=O)([N-]c1ccccc1[O-])c1ccc([N-]S(=O)(=O)c2cccc3nsnc23)cc1 (optimized conformer: 91.8489749723165 kcal/mol)

>  <smiles>  (25) 
O=S(=O)(Nc1ccccc1O)c1ccc(NS(=O)(=O)c2cccc3nsnc23)cc1

>  <score_type>  (25) 
oracle

>  <origin>  (25) 
adgpu

>  <m_score__min__energy>  (25) 
-14.109999999999999

>  <m_primary>  (25) 
energy

$$$$
25:0
     RDKit          3D

 48 50  0  0  0  0  0  0  0  0999 V2000
   -1.2380   26.1710  -27.4670 C   0  0  0  0  0  0  0  0  0  0  0  0
   -1.7700   25.8370  -28.7440 O   0  0  0  0  0  0  0  0  0  0  0  0
   -1.8830   24.5290  -29.2410 C   0  0  0  0  0  0  0  0  0  0  0  0
   -0.9570   23.5210  -28.9120 C   0  0  0  0  0  0  0  0  0  0  0  0
   -1.1030   22.2310  -29.4220 C   0  0  0  0  0  0  0  0  0  0  0  0
   -2.1840   21.9170  -30.2600 C   0  0  0  0  0  0  0  0  0  0  0  0
   -2.3420   20.6000  -30.8180 N   0  0  0  0  0  0  0  0  0  0  0  0
   -1.9880   20.2550  -32.1670 C   0  0  0  0  0  0  0  0  0  0  0  0
   -1.1350   20.9430  -32.7890 O   0  0  0  0  0  0  0  0  0  0  0  0
   -2.5280   19.0390  -32.8060 C   0  0  0  0  0  0  0  0  0  0  0  0
   -3.8540   19.0070  -33.1070 N   0  0  0  0  0  0  0  0  0  0  0  0
   -4.4230   17.9240  -33.6970 C   0  0  0  0  0  0  0  0  0  0  0  0
   -6.1450   17.9120  -34.0210 S   0  0  0  0  0  0  0  0  0  0  0  0
   -6.5300   16.5970  -34.6390 O   0  0  0  0  0  0  0  0  0  0  0  0
   -6.4790   19.0180  -34.9810 O   0  0  0  0  0  0  0  0  0  0  0  0
   -7.0480   18.1420  -32.4980 C   0  0  0  0  0  0  0  0  0  0  0  0
   -7.4370   19.5850  -32.3340 C   0  0  0  0  0  0  0  0  0  0  0  0
   -6.4540   20.5900  -32.3310 C   0  0  0  0  0  0  0  0  0  0  0  0
   -6.8120   21.9260  -32.1280 C   0  0  0  0  0  0  0  0  0  0  0  0
   -8.1510   22.2680  -31.9230 C   0  0  0  0  0  0  0  0  0  0  0  0
   -9.1340   21.2750  -31.9160 C   0  0  0  0  0  0  0  0  0  0  0  0
   -8.7800   19.9360  -32.1180 C   0  0  0  0  0  0  0  0  0  0  0  0
   -3.6680   16.8330  -33.9840 N   0  0  0  0  0  0  0  0  0  0  0  0
   -2.3440   16.8060  -33.6930 C   0  0  0  0  0  0  0  0  0  0  0  0
   -1.7350   17.9070  -33.0860 C   0  0  0  0  0  0  0  0  0  0  0  0
   -0.0420   17.7780  -32.6170 Cl  0  0  0  0  0  0  0  0  0  0  0  0
   -3.0960   22.9240  -30.6060 C   0  0  0  0  0  0  0  0  0  0  0  0
   -2.9560   24.2290  -30.0950 C   0  0  0  0  0  0  0  0  0  0  0  0
   -3.8610   25.2550  -30.4130 O   0  0  0  0  0  0  0  0  0  0  0  0
   -5.2770   25.1380  -30.3260 C   0  0  0  0  0  0  0  0  0  0  0  0
   -1.8891   25.7622  -26.6802 H   0  0  0  0  0  0  0  0  0  0  0  0
   -0.2293   25.7438  -27.3669 H   0  0  0  0  0  0  0  0  0  0  0  0
   -1.1844   27.2651  -27.3669 H   0  0  0  0  0  0  0  0  0  0  0  0
   -0.1116   23.7525  -28.2474 H   0  0  0  0  0  0  0  0  0  0  0  0
   -0.3665   21.4552  -29.1658 H   0  0  0  0  0  0  0  0  0  0  0  0
   -2.6390   19.8270  -30.1810 H   0  0  0  0  0  0  0  0  0  0  0  0
   -7.9561   17.5215  -32.5174 H   0  0  0  0  0  0  0  0  0  0  0  0
   -6.4071   17.8464  -31.6543 H   0  0  0  0  0  0  0  0  0  0  0  0
   -5.3984   20.3239  -32.4891 H   0  0  0  0  0  0  0  0  0  0  0  0
   -6.0389   22.7085  -32.1297 H   0  0  0  0  0  0  0  0  0  0  0  0
   -8.4317   23.3201  -31.7669 H   0  0  0  0  0  0  0  0  0  0  0  0
  -10.1874   21.5459  -31.7515 H   0  0  0  0  0  0  0  0  0  0  0  0
   -9.5557   19.1562  -32.1076 H   0  0  0  0  0  0  0  0  0  0  0  0
   -1.7474   15.9142  -33.9357 H   0  0  0  0  0  0  0  0  0  0  0  0
   -3.9304   22.6923  -31.2843 H   0  0  0  0  0  0  0  0  0  0  0  0
   -5.5786   25.1131  -29.2684 H   0  0  0  0  0  0  0  0  0  0  0  0
   -5.7473   26.0003  -30.8212 H   0  0  0  0  0  0  0  0  0  0  0  0
   -5.5994   24.2102  -30.8212 H   0  0  0  0  0  0  0  0  0  0  0  0
  1  2  1  0
  2  3  1  0
  3  4  2  0
  4  5  1  0
  5  6  2  0
  6  7  1  0
  7  8  1  0
  8  9  2  0
  8 10  1  0
 10 11  2  0
 11 12  1  0
 12 13  1  0
 13 14  2  0
 13 15  2  0
 13 16  1  0
 16 17  1  0
 17 18  2  0
 18 19  1  0
 19 20  2  0
 20 21  1  0
 21 22  2  0
 12 23  2  0
 23 24  1  0
 24 25  2  0
 25 26  1  0
  6 27  1  0
 27 28  2  0
 28 29  1  0
 29 30  1  0
 28  3  1  0
 25 10  1  0
 22 17  1  0
  1 31  1  0
  1 32  1  0
  1 33  1  0
  4 34  1  0
  5 35  1  0
  7 36  1  0
 16 37  1  0
 16 38  1  0
 18 39  1  0
 19 40  1  0
 20 41  1  0
 21 42  1  0
 22 43  1  0
 24 44  1  0
 27 45  1  0
 30 46  1  0
 30 47  1  0
 30 48  1  0
M  END
>  <UniqueID>  (26) 
26

>  <SMILES>  (26) 
COc1ccc(NC(=O)c2nc(S(=O)(=O)Cc3ccccc3)ncc2Cl)cc1OC

>  <Energy>  (26) 
53.56685961817736

>  <Genealogy>  (26) 
COc1ccc(NC(=O)c2nc(S(=O)(=O)Cc3ccccc3)ncc2Cl)cc1OC (3D coordinates assigned)
COc1ccc(NC(=O)c2nc(S(=O)(=O)Cc3ccccc3)ncc2Cl)cc1OC (optimized conformer: 53.56685961817736 kcal/mol)

>  <smiles>  (26) 
COc1ccc(NC(=O)c2nc(S(=O)(=O)Cc3ccccc3)ncc2Cl)cc1OC

>  <score_type>  (26) 
oracle

>  <origin>  (26) 
adgpu

>  <m_score__min__energy>  (26) 
-9.5399999999999991

>  <m_primary>  (26) 
energy

$$$$
26:0
     RDKit          3D

 26 27  0  0  0  0  0  0  0  0999 V2000
   -7.1540   23.7980  -32.7290 N   0  0  0  0  0  0  0  0  0  0  0  0
   -5.9310   23.5040  -32.0410 C   0  0  0  0  0  0  0  0  0  0  0  0
   -5.3860   24.4660  -31.1770 C   0  0  0  0  0  0  0  0  0  0  0  0
   -4.1590   24.2400  -30.5470 C   0  0  0  0  0  0  0  0  0  0  0  0
   -3.6380   25.1790  -29.7200 F   0  0  0  0  0  0  0  0  0  0  0  0
   -3.4620   23.0530  -30.7820 C   0  0  0  0  0  0  0  0  0  0  0  0
   -3.9970   22.0840  -31.6320 C   0  0  0  0  0  0  0  0  0  0  0  0
   -5.2420   22.2860  -32.2480 C   0  0  0  0  0  0  0  0  0  0  0  0
   -5.7710   21.2500  -33.0880 N   0  0  0  0  0  0  0  0  0  0  0  0
   -6.7870   20.3140  -32.6830 C   0  0  0  0  0  0  0  0  0  0  0  0
   -8.0580   20.8010  -32.3350 C   0  0  0  0  0  0  0  0  0  0  0  0
   -9.0700   19.9240  -31.9350 C   0  0  0  0  0  0  0  0  0  0  0  0
   -8.8270   18.5510  -31.8880 C   0  0  0  0  0  0  0  0  0  0  0  0
   -7.5740   18.0510  -32.2480 C   0  0  0  0  0  0  0  0  0  0  0  0
   -6.5560   18.9210  -32.6510 C   0  0  0  0  0  0  0  0  0  0  0  0
   -5.3670   18.3950  -33.0380 F   0  0  0  0  0  0  0  0  0  0  0  0
   -8.0510   23.9480  -32.2180 H   0  0  0  0  0  0  0  0  0  0  0  0
   -7.1900   23.7910  -33.7730 H   0  0  0  0  0  0  0  0  0  0  0  0
   -5.9286   25.4052  -30.9941 H   0  0  0  0  0  0  0  0  0  0  0  0
   -2.4900   22.8815  -30.2965 H   0  0  0  0  0  0  0  0  0  0  0  0
   -3.4389   21.1551  -31.8206 H   0  0  0  0  0  0  0  0  0  0  0  0
   -5.3330   21.1240  -34.0300 H   0  0  0  0  0  0  0  0  0  0  0  0
   -8.2584   21.8818  -32.3777 H   0  0  0  0  0  0  0  0  0  0  0  0
  -10.0592   20.3167  -31.6569 H   0  0  0  0  0  0  0  0  0  0  0  0
   -9.6225   17.8623  -31.5673 H   0  0  0  0  0  0  0  0  0  0  0  0
   -7.3867   16.9676  -32.2145 H   0  0  0  0  0  0  0  0  0  0  0  0
  1  2  1  0
  2  3  2  0
  3  4  1  0
  4  5  1  0
  4  6  2  0
  6  7  1  0
  7  8  2  0
  8  9  1  0
  9 10  1  0
 10 11  2  0
 11 12  1  0
 12 13  2  0
 13 14  1  0
 14 15  2  0
 15 16  1  0
  8  2  1  0
 15 10  1  0
  1 17  1  0
  1 18  1  0
  3 19  1  0
  6 20  1  0
  7 21  1  0
  9 22  1  0
 11 23  1  0
 12 24  1  0
 13 25  1  0
 14 26  1  0
M  END
>  <UniqueID>  (27) 
27

>  <SMILES>  (27) 
Nc1cc(F)ccc1Nc1ccccc1F

>  <Energy>  (27) 
35.16945262284485

>  <Genealogy>  (27) 
Nc1cc(F)ccc1Nc1ccccc1F (3D coordinates assigned)
Nc1cc(F)ccc1Nc1ccccc1F (optimized conformer: 35.16945262284485 kcal/mol)

>  <smiles>  (27) 
Nc1cc(F)ccc1Nc1ccccc1F

>  <score_type>  (27) 
oracle

>  <origin>  (27) 
adgpu

>  <m_score__min__energy>  (27) 
-5.9900000000000002

>  <m_primary>  (27) 
energy

$$$$
27:0
     RDKit          3D

 50 52  0  0  0  0  0  0  0  0999 V2000
   -8.0060   21.4550  -32.3440 C   0  0  0  0  0  0  0  0  0  0  0  0
   -7.0590   20.3890  -31.7820 C   0  0  0  0  0  0  0  0  0  0  0  0
   -7.5920   18.9780  -32.0680 C   0  0  0  0  0  0  0  0  0  0  0  0
   -5.6490   20.5770  -32.3310 C   0  0  0  0  0  0  0  0  0  0  0  0
   -5.0840   19.5580  -33.1280 C   0  0  0  0  0  0  0  0  0  0  0  0
   -3.8330   19.7210  -33.7220 C   0  0  0  0  0  0  0  0  0  0  0  0
   -3.1270   20.9090  -33.5480 C   0  0  0  0  0  0  0  0  0  0  0  0
   -3.6650   21.9300  -32.7680 C   0  0  0  0  0  0  0  0  0  0  0  0
   -4.9080   21.7750  -32.1350 C   0  0  0  0  0  0  0  0  0  0  0  0
   -5.5180   23.1520  -31.1320 S   0  0  0  0  0  0  0  0  0  0  0  0
   -4.0220   23.2680  -30.1280 C   0  0  0  0  0  0  0  0  0  0  0  0
   -3.4120   24.5180  -29.9280 C   0  0  0  0  0  0  0  0  0  0  0  0
   -3.8840   25.6490  -30.5820 O   0  0  0  0  0  0  0  0  0  0  0  0
   -2.3060   24.6370  -29.0830 C   0  0  0  0  0  0  0  0  0  0  0  0
   -1.7670   23.5060  -28.4470 C   0  0  0  0  0  0  0  0  0  0  0  0
   -0.6030   23.6410  -27.5340 C   0  0  0  0  0  0  0  0  0  0  0  0
    0.6060   24.1890  -27.9980 C   0  0  0  0  0  0  0  0  0  0  0  0
    1.7020   24.3160  -27.1400 C   0  0  0  0  0  0  0  0  0  0  0  0
    1.6170   23.8980  -25.8080 C   0  0  0  0  0  0  0  0  0  0  0  0
    2.7710   24.0440  -24.9690 N   0  0  0  0  0  0  0  0  0  0  0  0
    4.0810   25.1510  -25.2290 S   0  0  0  0  0  0  0  0  0  0  0  0
    4.8110   25.6110  -23.6720 C   0  0  0  0  0  0  0  0  0  0  0  0
    3.5880   26.3690  -25.9610 O   0  0  0  0  0  0  0  0  0  0  0  0
    5.1250   24.4730  -26.0690 O   0  0  0  0  0  0  0  0  0  0  0  0
    0.4090   23.3510  -25.3380 C   0  0  0  0  0  0  0  0  0  0  0  0
   -0.6890   23.2260  -26.1940 C   0  0  0  0  0  0  0  0  0  0  0  0
   -2.3370   22.2480  -28.7000 C   0  0  0  0  0  0  0  0  0  0  0  0
   -3.4410   22.1190  -29.5510 C   0  0  0  0  0  0  0  0  0  0  0  0
   -3.9250   20.8360  -29.8120 O   0  0  0  0  0  0  0  0  0  0  0  0
   -8.4851   21.9943  -31.5136 H   0  0  0  0  0  0  0  0  0  0  0  0
   -7.4348   22.1644  -32.9609 H   0  0  0  0  0  0  0  0  0  0  0  0
   -8.7777   20.9714  -32.9609 H   0  0  0  0  0  0  0  0  0  0  0  0
   -7.0108   20.5090  -30.6896 H   0  0  0  0  0  0  0  0  0  0  0  0
   -7.7876   18.4603  -31.1174 H   0  0  0  0  0  0  0  0  0  0  0  0
   -8.5254   19.0487  -32.6458 H   0  0  0  0  0  0  0  0  0  0  0  0
   -6.8450   18.4140  -32.6458 H   0  0  0  0  0  0  0  0  0  0  0  0
   -5.6391   18.6210  -33.2828 H   0  0  0  0  0  0  0  0  0  0  0  0
   -3.4032   18.9104  -34.3287 H   0  0  0  0  0  0  0  0  0  0  0  0
   -2.1452   21.0409  -34.0262 H   0  0  0  0  0  0  0  0  0  0  0  0
   -3.1080   22.8707  -32.6465 H   0  0  0  0  0  0  0  0  0  0  0  0
   -1.8530   25.6250  -28.9140 H   0  0  0  0  0  0  0  0  0  0  0  0
    0.6898   24.5201  -29.0436 H   0  0  0  0  0  0  0  0  0  0  0  0
    2.6407   24.7490  -27.5160 H   0  0  0  0  0  0  0  0  0  0  0  0
    4.1939   25.2221  -22.8486 H   0  0  0  0  0  0  0  0  0  0  0  0
    5.8239   25.1877  -23.6026 H   0  0  0  0  0  0  0  0  0  0  0  0
    4.8663   26.7074  -23.6026 H   0  0  0  0  0  0  0  0  0  0  0  0
    0.3282   23.0201  -24.2921 H   0  0  0  0  0  0  0  0  0  0  0  0
   -1.6292   22.7988  -25.8152 H   0  0  0  0  0  0  0  0  0  0  0  0
   -1.9108   21.3528  -28.2236 H   0  0  0  0  0  0  0  0  0  0  0  0
   -4.8600   20.6590  -30.1560 H   0  0  0  0  0  0  0  0  0  0  0  0
  1  2  1  0
  2  3  1  0
  2  4  1  0
  4  5  2  0
  5  6  1  0
  6  7  2  0
  7  8  1  0
  8  9  2  0
  9 10  1  0
 10 11  1  0
 11 12  2  0
 12 13  1  0
 12 14  1  0
 14 15  2  0
 15 16  1  0
 16 17  2  0
 17 18  1  0
 18 19  2  0
 19 20  1  0
 20 21  1  0
 21 22  1  0
 21 23  2  0
 21 24  2  0
 19 25  1  0
 25 26  2  0
 15 27  1  0
 27 28  2  0
 28 29  1  0
  9  4  1  0
 28 11  1  0
 26 16  1  0
  1 30  1  0
  1 31  1  0
  1 32  1  0
  2 33  1  0
  3 34  1  0
  3 35  1  0
  3 36  1  0
  5 37  1  0
  6 38  1  0
  7 39  1  0
  8 40  1  0
 14 41  1  0
 17 42  1  0
 18 43  1  0
 22 44  1  0
 22 45  1  0
 22 46  1  0
 25 47  1  0
 26 48  1  0
 27 49  1  0
 29 50  1  0
M  CHG  2  13  -1  20  -1
M  END
>  <UniqueID>  (28) 
28

>  <SMILES>  (28) 
CC(C)c1ccccc1Sc1c([O-])cc(-c2ccc([N-]S(C)(=O)=O)cc2)cc1O

>  <Energy>  (28) 
53.90843466269766

>  <Genealogy>  (28) 
CC(C)c1ccccc1Sc1c([O-])cc(-c2ccc([N-]S(C)(=O)=O)cc2)cc1O (protonated)
CC(C)c1ccccc1Sc1c([O-])cc(-c2ccc([N-]S(C)(=O)=O)cc2)cc1O (3D coordinates assigned)
CC(C)c1ccccc1Sc1c([O-])cc(-c2ccc([N-]S(C)(=O)=O)cc2)cc1O (optimized conformer: 53.90843466269766 kcal/mol)

>  <smiles>  (28) 
CC(C)c1ccccc1Sc1c(O)cc(-c2ccc(NS(C)(=O)=O)cc2)cc1O

>  <score_type>  (28) 
oracle

>  <origin>  (28) 
adgpu

>  <m_score__min__energy>  (28) 
-10.91

>  <m_primary>  (28) 
energy

$$$$
28:0
     RDKit          3D

 31 33  0  0  0  0  0  0  0  0999 V2000
   -5.3890   26.3760  -30.5400 O   0  0  0  0  0  0  0  0  0  0  0  0
   -4.8950   25.2220  -30.6370 C   0  0  0  0  0  0  0  0  0  0  0  0
   -3.4830   25.0610  -30.4370 N   0  0  0  0  0  0  0  0  0  0  0  0
   -2.8520   24.3940  -29.3330 C   0  0  0  0  0  0  0  0  0  0  0  0
   -3.3980   23.2160  -28.7880 C   0  0  0  0  0  0  0  0  0  0  0  0
   -2.7810   22.5890  -27.7020 C   0  0  0  0  0  0  0  0  0  0  0  0
   -1.6260   23.1370  -27.1410 C   0  0  0  0  0  0  0  0  0  0  0  0
   -1.0900   24.3180  -27.6600 C   0  0  0  0  0  0  0  0  0  0  0  0
   -1.6980   24.9540  -28.7490 C   0  0  0  0  0  0  0  0  0  0  0  0
   -1.1370   26.1330  -29.2380 O   0  0  0  0  0  0  0  0  0  0  0  0
   -5.7680   24.0830  -31.0200 C   0  0  0  0  0  0  0  0  0  0  0  0
   -7.1170   24.0790  -30.6540 C   0  0  0  0  0  0  0  0  0  0  0  0
   -7.9120   23.0390  -30.9940 N   0  0  0  0  0  0  0  0  0  0  0  0
   -7.4320   21.9780  -31.6890 C   0  0  0  0  0  0  0  0  0  0  0  0
   -8.3000   20.9300  -32.0170 C   0  0  0  0  0  0  0  0  0  0  0  0
   -7.8180   19.8350  -32.7280 C   0  0  0  0  0  0  0  0  0  0  0  0
   -6.4790   19.7930  -33.1050 C   0  0  0  0  0  0  0  0  0  0  0  0
   -5.6330   20.8520  -32.7670 C   0  0  0  0  0  0  0  0  0  0  0  0
   -6.1070   21.9340  -32.0650 N   0  0  0  0  0  0  0  0  0  0  0  0
   -5.2730   22.9750  -31.7350 C   0  0  0  0  0  0  0  0  0  0  0  0
   -4.0570   22.9560  -32.0830 O   0  0  0  0  0  0  0  0  0  0  0  0
   -4.3146   22.7872  -29.2191 H   0  0  0  0  0  0  0  0  0  0  0  0
   -3.2060   21.6624  -27.2887 H   0  0  0  0  0  0  0  0  0  0  0  0
   -1.1380   22.6388  -26.2903 H   0  0  0  0  0  0  0  0  0  0  0  0
   -0.1844   24.7511  -27.2102 H   0  0  0  0  0  0  0  0  0  0  0  0
   -1.2420   26.4250  -30.2020 H   0  0  0  0  0  0  0  0  0  0  0  0
   -7.5336   24.9248  -30.0874 H   0  0  0  0  0  0  0  0  0  0  0  0
   -9.3568   20.9717  -31.7146 H   0  0  0  0  0  0  0  0  0  0  0  0
   -8.4923   19.0066  -32.9908 H   0  0  0  0  0  0  0  0  0  0  0  0
   -6.0891   18.9308  -33.6659 H   0  0  0  0  0  0  0  0  0  0  0  0
   -4.5750   20.8194  -33.0663 H   0  0  0  0  0  0  0  0  0  0  0  0
  1  2  2  0
  2  3  1  0
  3  4  1  0
  4  5  2  0
  5  6  1  0
  6  7  2  0
  7  8  1  0
  8  9  2  0
  9 10  1  0
  2 11  1  0
 11 12  2  0
 12 13  1  0
 13 14  2  0
 14 15  1  0
 15 16  2  0
 16 17  1  0
 17 18  2  0
 18 19  1  0
 19 20  1  0
 20 21  2  0
  9  4  1  0
 20 11  1  0
 19 14  1  0
  5 22  1  0
  6 23  1  0
  7 24  1  0
  8 25  1  0
 10 26  1  0
 12 27  1  0
 15 28  1  0
 16 29  1  0
 17 30  1  0
 18 31  1  0
M  CHG  1   3  -1
M  END
>  <UniqueID>  (29) 
29

>  <SMILES>  (29) 
O=C([N-]c1ccccc1O)c1cnc2ccccn2c1=O

>  <Energy>  (29) 
48.516570491474205

>  <Genealogy>  (29) 
O=C([N-]c1ccccc1O)c1cnc2ccccn2c1=O (protonated)
O=C([N-]c1ccccc1O)c1cnc2ccccn2c1=O (3D coordinates assigned)
O=C([N-]c1ccccc1O)c1cnc2ccccn2c1=O (optimized conformer: 48.516570491474205 kcal/mol)

>  <smiles>  (29) 
O=C(Nc1ccccc1O)c1cnc2ccccn2c1=O

>  <score_type>  (29) 
oracle

>  <origin>  (29) 
adgpu

>  <m_score__min__energy>  (29) 
-10.93

>  <m_primary>  (29) 
energy

$$$$
29:0
     RDKit          3D

 42 43  0  0  0  0  0  0  0  0999 V2000
   -0.5520   26.4530  -27.4140 C   0  0  0  0  0  0  0  0  0  0  0  0
   -1.2820   26.2050  -26.3250 C   0  0  0  0  0  0  0  0  0  0  0  0
   -2.3580   25.1570  -26.3380 C   0  0  0  0  0  0  0  0  0  0  0  0
   -2.8190   24.9050  -27.7040 N   0  0  0  0  0  0  0  0  0  0  0  0
   -2.3440   23.8270  -28.5410 C   0  0  0  0  0  0  0  0  0  0  0  0
   -1.5490   22.7890  -28.0110 C   0  0  0  0  0  0  0  0  0  0  0  0
   -1.0990   21.7490  -28.8250 C   0  0  0  0  0  0  0  0  0  0  0  0
   -1.4290   21.7260  -30.1780 C   0  0  0  0  0  0  0  0  0  0  0  0
   -0.8080   20.3010  -31.2890 Br  0  0  0  0  0  0  0  0  0  0  0  0
   -2.2110   22.7450  -30.7230 C   0  0  0  0  0  0  0  0  0  0  0  0
   -2.6790   23.7980  -29.9150 C   0  0  0  0  0  0  0  0  0  0  0  0
   -3.4930   24.8480  -30.4620 N   0  0  0  0  0  0  0  0  0  0  0  0
   -5.2000   25.0320  -30.2160 S   0  0  0  0  0  0  0  0  0  0  0  0
   -5.4990   24.9410  -28.7470 O   0  0  0  0  0  0  0  0  0  0  0  0
   -5.6310   26.3840  -30.7150 O   0  0  0  0  0  0  0  0  0  0  0  0
   -6.0610   23.7430  -31.0510 C   0  0  0  0  0  0  0  0  0  0  0  0
   -7.4560   23.8010  -31.1560 C   0  0  0  0  0  0  0  0  0  0  0  0
   -8.1550   22.7660  -31.7790 C   0  0  0  0  0  0  0  0  0  0  0  0
   -7.4670   21.6700  -32.3050 C   0  0  0  0  0  0  0  0  0  0  0  0
   -6.0670   21.6070  -32.2290 C   0  0  0  0  0  0  0  0  0  0  0  0
   -5.3850   20.4510  -32.7470 N   0  0  0  0  0  0  0  0  0  0  0  0
   -4.0510   20.4690  -33.2740 C   0  0  0  0  0  0  0  0  0  0  0  0
   -3.3610   19.1820  -33.5900 C   0  0  0  0  0  0  0  0  0  0  0  0
   -3.4770   21.5590  -33.5430 O   0  0  0  0  0  0  0  0  0  0  0  0
   -5.3680   22.6440  -31.5830 C   0  0  0  0  0  0  0  0  0  0  0  0
    0.2320   27.2241  -27.3867 H   0  0  0  0  0  0  0  0  0  0  0  0
   -0.7342   25.8863  -28.3390 H   0  0  0  0  0  0  0  0  0  0  0  0
   -1.0931   26.7764  -25.4042 H   0  0  0  0  0  0  0  0  0  0  0  0
   -1.9583   24.2240  -25.9140 H   0  0  0  0  0  0  0  0  0  0  0  0
   -3.2079   25.5156  -25.7387 H   0  0  0  0  0  0  0  0  0  0  0  0
   -3.5530   25.5520  -28.0690 H   0  0  0  0  0  0  0  0  0  0  0  0
   -1.2810   22.7997  -26.9442 H   0  0  0  0  0  0  0  0  0  0  0  0
   -0.4820   20.9451  -28.3971 H   0  0  0  0  0  0  0  0  0  0  0  0
   -2.4639   22.7251  -31.7934 H   0  0  0  0  0  0  0  0  0  0  0  0
   -8.0020   24.6638  -30.7468 H   0  0  0  0  0  0  0  0  0  0  0  0
   -9.2513   22.8135  -31.8560 H   0  0  0  0  0  0  0  0  0  0  0  0
   -8.0259   20.8513  -32.7817 H   0  0  0  0  0  0  0  0  0  0  0  0
   -5.9180   19.5540  -32.8080 H   0  0  0  0  0  0  0  0  0  0  0  0
   -3.0880   18.6728  -32.6539 H   0  0  0  0  0  0  0  0  0  0  0  0
   -4.0350   18.5384  -34.1744 H   0  0  0  0  0  0  0  0  0  0  0  0
   -2.4519   19.3872  -34.1744 H   0  0  0  0  0  0  0  0  0  0  0  0
   -4.2728   22.5930  -31.4945 H   0  0  0  0  0  0  0  0  0  0  0  0
  1  2  2  0
  2  3  1  0
  3  4  1  0
  4  5  1  0
  5  6  2  0
  6  7  1  0
  7  8  2  0
  8  9  1  0
  8 10  1  0
 10 11  2  0
 11 12  1  0
 12 13  1  0
 13 14  2  0
 13 15  2  0
 13 16  1  0
 16 17  2  0
 17 18  1  0
 18 19  2  0
 19 20  1  0
 20 21  1  0
 21 22  1  0
 22 23  1  0
 22 24  2  0
 20 25  2  0
 11  5  1  0
 25 16  1  0
  1 26  1  0
  1 27  1  0
  2 28  1  0
  3 29  1  0
  3 30  1  0
  4 31  1  0
  6 32  1  0
  7 33  1  0
 10 34  1  0
 17 35  1  0
 18 36  1  0
 19 37  1  0
 21 38  1  0
 23 39  1  0
 23 40  1  0
 23 41  1  0
 25 42  1  0
M  CHG  1  12  -1
M  END
>  <UniqueID>  (30) 
30

>  <SMILES>  (30) 
C=CCNc1ccc(Br)cc1[N-]S(=O)(=O)c1cccc(NC(C)=O)c1

>  <Energy>  (30) 
44.24312752757244

>  <Genealogy>  (30) 
C=CCNc1ccc(Br)cc1[N-]S(=O)(=O)c1cccc(NC(C)=O)c1 (protonated)
C=CCNc1ccc(Br)cc1[N-]S(=O)(=O)c1cccc(NC(C)=O)c1 (3D coordinates assigned)
C=CCNc1ccc(Br)cc1[N-]S(=O)(=O)c1cccc(NC(C)=O)c1 (optimized conformer: 44.24312752757244 kcal/mol)

>  <smiles>  (30) 
C=CCNc1ccc(Br)cc1NS(=O)(=O)c1cccc(NC(C)=O)c1

>  <score_type>  (30) 
oracle

>  <origin>  (30) 
adgpu

>  <m_score__min__energy>  (30) 
-9.6899999999999995

>  <m_primary>  (30) 
energy

$$$$
30:0
     RDKit          3D

 42 44  0  0  0  0  0  0  0  0999 V2000
   -5.2050   25.6930  -30.5220 C   0  0  0  0  0  0  0  0  0  0  0  0
   -3.8660   25.2440  -30.3470 O   0  0  0  0  0  0  0  0  0  0  0  0
   -3.4720   24.2310  -29.4570 C   0  0  0  0  0  0  0  0  0  0  0  0
   -2.9890   24.5310  -28.1670 C   0  0  0  0  0  0  0  0  0  0  0  0
   -2.6190   23.5080  -27.2940 C   0  0  0  0  0  0  0  0  0  0  0  0
   -2.7280   22.1770  -27.6920 C   0  0  0  0  0  0  0  0  0  0  0  0
   -3.2040   21.8650  -28.9660 C   0  0  0  0  0  0  0  0  0  0  0  0
   -3.5800   22.8800  -29.8620 C   0  0  0  0  0  0  0  0  0  0  0  0
   -4.0350   22.5550  -31.1930 N   0  0  0  0  0  0  0  0  0  0  0  0
   -3.2310   22.2830  -32.2070 N   0  0  0  0  0  0  0  0  0  0  0  0
   -3.9530   22.1450  -33.3080 N   0  0  0  0  0  0  0  0  0  0  0  0
   -5.2360   22.3340  -33.0360 N   0  0  0  0  0  0  0  0  0  0  0  0
   -5.2820   22.5780  -31.7130 C   0  0  0  0  0  0  0  0  0  0  0  0
   -6.8010   22.9820  -30.8380 S   0  0  0  0  0  0  0  0  0  0  0  0
   -7.8980   22.0260  -31.9470 C   0  0  0  0  0  0  0  0  0  0  0  0
   -7.5560   20.5670  -31.9480 C   0  0  0  0  0  0  0  0  0  0  0  0
   -8.2460   19.7720  -31.2550 O   0  0  0  0  0  0  0  0  0  0  0  0
   -6.4330   20.0920  -32.7110 N   0  0  0  0  0  0  0  0  0  0  0  0
   -6.1470   18.7040  -32.9640 C   0  0  0  0  0  0  0  0  0  0  0  0
   -5.9840   17.7780  -31.9160 C   0  0  0  0  0  0  0  0  0  0  0  0
   -5.7460   16.4290  -32.1960 C   0  0  0  0  0  0  0  0  0  0  0  0
   -5.6640   15.9840  -33.5220 C   0  0  0  0  0  0  0  0  0  0  0  0
   -5.4490   14.5300  -33.8200 C   0  0  0  0  0  0  0  0  0  0  0  0
   -5.8620   16.8980  -34.5680 C   0  0  0  0  0  0  0  0  0  0  0  0
   -6.1030   18.2460  -34.2890 C   0  0  0  0  0  0  0  0  0  0  0  0
   -5.6709   25.8492  -29.5379 H   0  0  0  0  0  0  0  0  0  0  0  0
   -5.2040   26.6400  -31.0817 H   0  0  0  0  0  0  0  0  0  0  0  0
   -5.7751   24.9369  -31.0817 H   0  0  0  0  0  0  0  0  0  0  0  0
   -2.9033   25.5798  -27.8465 H   0  0  0  0  0  0  0  0  0  0  0  0
   -2.2408   23.7521  -26.2903 H   0  0  0  0  0  0  0  0  0  0  0  0
   -2.4385   21.3715  -27.0011 H   0  0  0  0  0  0  0  0  0  0  0  0
   -3.2859   20.8118  -29.2726 H   0  0  0  0  0  0  0  0  0  0  0  0
   -8.9380   22.1474  -31.6099 H   0  0  0  0  0  0  0  0  0  0  0  0
   -7.7660   22.4082  -32.9700 H   0  0  0  0  0  0  0  0  0  0  0  0
   -5.7520   20.8030  -33.0600 H   0  0  0  0  0  0  0  0  0  0  0  0
   -6.0442   18.1176  -30.8715 H   0  0  0  0  0  0  0  0  0  0  0  0
   -5.6224   15.7128  -31.3703 H   0  0  0  0  0  0  0  0  0  0  0  0
   -5.3663   13.9707  -32.8764 H   0  0  0  0  0  0  0  0  0  0  0  0
   -6.3000   14.1451  -34.4011 H   0  0  0  0  0  0  0  0  0  0  0  0
   -4.5230   14.4078  -34.4011 H   0  0  0  0  0  0  0  0  0  0  0  0
   -5.8274   16.5522  -35.6117 H   0  0  0  0  0  0  0  0  0  0  0  0
   -6.2596   18.9542  -35.1160 H   0  0  0  0  0  0  0  0  0  0  0  0
  1  2  1  0
  2  3  1  0
  3  4  2  0
  4  5  1  0
  5  6  2  0
  6  7  1  0
  7  8  2  0
  8  9  1  0
  9 10  1  0
 10 11  2  0
 11 12  1  0
 12 13  2  0
 13 14  1  0
 14 15  1  0
 15 16  1  0
 16 17  2  0
 16 18  1  0
 18 19  1  0
 19 20  2  0
 20 21  1  0
 21 22  2  0
 22 23  1  0
 22 24  1  0
 24 25  2  0
  8  3  1  0
 13  9  1  0
 25 19  1  0
  1 26  1  0
  1 27  1  0
  1 28  1  0
  4 29  1  0
  5 30  1  0
  6 31  1  0
  7 32  1  0
 15 33  1  0
 15 34  1  0
 18 35  1  0
 20 36  1  0
 21 37  1  0
 23 38  1  0
 23 39  1  0
 23 40  1  0
 24 41  1  0
 25 42  1  0
M  END
>  <UniqueID>  (31) 
31

>  <SMILES>  (31) 
COc1ccccc1-n1nnnc1SCC(=O)Nc1ccc(C)cc1

>  <Energy>  (31) 
87.89173489205106

>  <Genealogy>  (31) 
COc1ccccc1-n1nnnc1SCC(=O)Nc1ccc(C)cc1 (3D coordinates assigned)
COc1ccccc1-n1nnnc1SCC(=O)Nc1ccc(C)cc1 (optimized conformer: 87.89173489205106 kcal/mol)

>  <smiles>  (31) 
COc1ccccc1-n1nnnc1SCC(=O)Nc1ccc(C)cc1

>  <score_type>  (31) 
oracle

>  <origin>  (31) 
adgpu

>  <m_score__min__energy>  (31) 
-8.6799999999999997

>  <m_primary>  (31) 
energy

$$$$
31:0
     RDKit          3D

 47 49  0  0  0  0  0  0  0  0999 V2000
   -3.7970   14.6760  -32.3540 C   0  0  0  0  0  0  0  0  0  0  0  0
   -4.5850   15.6680  -33.2220 C   0  0  0  0  0  0  0  0  0  0  0  0
   -3.8470   15.8780  -34.5520 C   0  0  0  0  0  0  0  0  0  0  0  0
   -5.9520   15.1750  -33.4870 N   0  0  0  0  0  0  0  0  0  0  0  0
   -6.7840   16.1440  -34.2230 C   0  0  0  0  0  0  0  0  0  0  0  0
   -6.7260   17.4980  -33.5660 C   0  0  0  0  0  0  0  0  0  0  0  0
   -7.4740   17.7530  -32.4060 C   0  0  0  0  0  0  0  0  0  0  0  0
   -7.4330   19.0120  -31.8010 C   0  0  0  0  0  0  0  0  0  0  0  0
   -6.6530   20.0440  -32.3500 C   0  0  0  0  0  0  0  0  0  0  0  0
   -6.6090   21.3820  -31.7060 C   0  0  0  0  0  0  0  0  0  0  0  0
   -7.6300   22.3190  -31.9380 C   0  0  0  0  0  0  0  0  0  0  0  0
   -7.5820   23.5790  -31.3370 C   0  0  0  0  0  0  0  0  0  0  0  0
   -6.5230   23.9170  -30.4940 C   0  0  0  0  0  0  0  0  0  0  0  0
   -5.5010   22.9880  -30.2320 C   0  0  0  0  0  0  0  0  0  0  0  0
   -4.3840   23.3210  -29.3890 N   0  0  0  0  0  0  0  0  0  0  0  0
   -3.4670   24.3950  -29.6640 C   0  0  0  0  0  0  0  0  0  0  0  0
   -3.7780   25.2980  -30.4860 O   0  0  0  0  0  0  0  0  0  0  0  0
   -2.1740   24.4770  -28.9600 C   0  0  0  0  0  0  0  0  0  0  0  0
   -1.9390   25.1200  -27.7620 C   0  0  0  0  0  0  0  0  0  0  0  0
   -0.5940   24.9460  -27.5050 C   0  0  0  0  0  0  0  0  0  0  0  0
   -0.0420   24.2510  -28.4730 O   0  0  0  0  0  0  0  0  0  0  0  0
   -0.9610   23.9550  -29.3650 C   0  0  0  0  0  0  0  0  0  0  0  0
   -5.5430   21.7310  -30.8550 C   0  0  0  0  0  0  0  0  0  0  0  0
   -5.9210   19.7910  -33.5240 C   0  0  0  0  0  0  0  0  0  0  0  0
   -5.9610   18.5320  -34.1280 C   0  0  0  0  0  0  0  0  0  0  0  0
   -3.9735   14.8981  -31.2912 H   0  0  0  0  0  0  0  0  0  0  0  0
   -4.1298   13.6510  -32.5745 H   0  0  0  0  0  0  0  0  0  0  0  0
   -2.7233   14.7683  -32.5745 H   0  0  0  0  0  0  0  0  0  0  0  0
   -4.6623   16.6213  -32.6787 H   0  0  0  0  0  0  0  0  0  0  0  0
   -2.8068   16.1740  -34.3513 H   0  0  0  0  0  0  0  0  0  0  0  0
   -3.8570   14.9414  -35.1287 H   0  0  0  0  0  0  0  0  0  0  0  0
   -4.3486   16.6691  -35.1287 H   0  0  0  0  0  0  0  0  0  0  0  0
   -5.8760   14.3210  -34.0880 H   0  0  0  0  0  0  0  0  0  0  0  0
   -6.4145   16.2270  -35.2557 H   0  0  0  0  0  0  0  0  0  0  0  0
   -7.8262   15.7920  -34.2193 H   0  0  0  0  0  0  0  0  0  0  0  0
   -8.0961   16.9571  -31.9706 H   0  0  0  0  0  0  0  0  0  0  0  0
   -8.0164   19.1969  -30.8870 H   0  0  0  0  0  0  0  0  0  0  0  0
   -8.4718   22.0589  -32.5966 H   0  0  0  0  0  0  0  0  0  0  0  0
   -8.3829   24.3081  -31.5293 H   0  0  0  0  0  0  0  0  0  0  0  0
   -6.4876   24.9148  -30.0323 H   0  0  0  0  0  0  0  0  0  0  0  0
   -4.2970   22.8200  -28.4780 H   0  0  0  0  0  0  0  0  0  0  0  0
   -2.6704   25.6586  -27.1416 H   0  0  0  0  0  0  0  0  0  0  0  0
   -0.0639   25.3317  -26.6217 H   0  0  0  0  0  0  0  0  0  0  0  0
   -0.7909   23.3819  -30.2884 H   0  0  0  0  0  0  0  0  0  0  0  0
   -4.7325   21.0091  -30.6761 H   0  0  0  0  0  0  0  0  0  0  0  0
   -5.3120   20.5910  -33.9702 H   0  0  0  0  0  0  0  0  0  0  0  0
   -5.3893   18.3498  -35.0499 H   0  0  0  0  0  0  0  0  0  0  0  0
  1  2  1  0
  2  3  1  0
  2  4  1  0
  4  5  1  0
  5  6  1  0
  6  7  2  0
  7  8  1  0
  8  9  2  0
  9 10  1  0
 10 11  2  0
 11 12  1  0
 12 13  2  0
 13 14  1  0
 14 15  1  0
 15 16  1  0
 16 17  2  0
 16 18  1  0
 18 19  1  0
 19 20  2  0
 20 21  1  0
 21 22  1  0
 14 23  2  0
  9 24  1  0
 24 25  2  0
 25  6  1  0
 23 10  1  0
 22 18  2  0
  1 26  1  0
  1 27  1  0
  1 28  1  0
  2 29  1  0
  3 30  1  0
  3 31  1  0
  3 32  1  0
  4 33  1  0
  5 34  1  0
  5 35  1  0
  7 36  1  0
  8 37  1  0
 11 38  1  0
 12 39  1  0
 13 40  1  0
 15 41  1  0
 19 42  1  0
 20 43  1  0
 22 44  1  0
 23 45  1  0
 24 46  1  0
 25 47  1  0
M  END
>  <UniqueID>  (32) 
32

>  <SMILES>  (32) 
CC(C)NCc1ccc(-c2cccc(NC(=O)c3ccoc3)c2)cc1

>  <Energy>  (32) 
81.1195374360694

>  <Genealogy>  (32) 
CC(C)NCc1ccc(-c2cccc(NC(=O)c3ccoc3)c2)cc1 (3D coordinates assigned)
CC(C)NCc1ccc(-c2cccc(NC(=O)c3ccoc3)c2)cc1 (optimized conformer: 81.1195374360694 kcal/mol)

>  <smiles>  (32) 
CC(C)NCc1ccc(-c2cccc(NC(=O)c3ccoc3)c2)cc1

>  <score_type>  (32) 
oracle

>  <origin>  (32) 
adgpu

>  <m_score__min__energy>  (32) 
-8.3000000000000007

>  <m_primary>  (32) 
energy

$$$$
32:0
     RDKit          3D

 39 41  0  0  0  0  0  0  0  0999 V2000
   -3.4350   19.8540  -31.5290 O   0  0  0  0  0  0  0  0  0  0  0  0
   -3.9660   20.9830  -31.7170 C   0  0  0  0  0  0  0  0  0  0  0  0
   -5.0520   21.0810  -32.6510 N   0  0  0  0  0  0  0  0  0  0  0  0
   -6.4420   21.2410  -32.3300 C   0  0  0  0  0  0  0  0  0  0  0  0
   -6.9720   22.5050  -32.0150 C   0  0  0  0  0  0  0  0  0  0  0  0
   -8.3160   22.6350  -31.6540 C   0  0  0  0  0  0  0  0  0  0  0  0
   -9.1370   21.5050  -31.5830 C   0  0  0  0  0  0  0  0  0  0  0  0
   -8.6150   20.2430  -31.8750 C   0  0  0  0  0  0  0  0  0  0  0  0
   -7.2720   20.1030  -32.2510 C   0  0  0  0  0  0  0  0  0  0  0  0
   -6.7700   18.7980  -32.5760 N   0  0  0  0  0  0  0  0  0  0  0  0
   -6.8850   17.6990  -31.6150 C   0  0  0  0  0  0  0  0  0  0  0  0
   -5.7260   16.7210  -31.8230 C   0  0  0  0  0  0  0  0  0  0  0  0
   -5.6410   16.3220  -33.1790 O   0  0  0  0  0  0  0  0  0  0  0  0
   -5.3120   17.4340  -33.9910 C   0  0  0  0  0  0  0  0  0  0  0  0
   -6.4320   18.4800  -33.9640 C   0  0  0  0  0  0  0  0  0  0  0  0
   -3.4190   22.1690  -31.0180 C   0  0  0  0  0  0  0  0  0  0  0  0
   -2.2590   22.0720  -30.2290 C   0  0  0  0  0  0  0  0  0  0  0  0
   -1.7570   23.1980  -29.5690 C   0  0  0  0  0  0  0  0  0  0  0  0
   -2.4120   24.4270  -29.6780 C   0  0  0  0  0  0  0  0  0  0  0  0
   -1.9050   25.5410  -29.0180 O   0  0  0  0  0  0  0  0  0  0  0  0
   -3.5770   24.5340  -30.4480 C   0  0  0  0  0  0  0  0  0  0  0  0
   -4.2280   25.7620  -30.5490 O   0  0  0  0  0  0  0  0  0  0  0  0
   -4.0820   23.4060  -31.1100 C   0  0  0  0  0  0  0  0  0  0  0  0
   -6.3263   23.3948  -32.0529 H   0  0  0  0  0  0  0  0  0  0  0  0
   -8.7290   23.6285  -31.4252 H   0  0  0  0  0  0  0  0  0  0  0  0
  -10.1940   21.6103  -31.2971 H   0  0  0  0  0  0  0  0  0  0  0  0
   -9.2607   19.3549  -31.8096 H   0  0  0  0  0  0  0  0  0  0  0  0
   -6.8477   18.1005  -30.5916 H   0  0  0  0  0  0  0  0  0  0  0  0
   -7.8404   17.1754  -31.7669 H   0  0  0  0  0  0  0  0  0  0  0  0
   -4.7848   17.2101  -31.5315 H   0  0  0  0  0  0  0  0  0  0  0  0
   -5.9023   15.8291  -31.2038 H   0  0  0  0  0  0  0  0  0  0  0  0
   -4.3835   17.8906  -33.6177 H   0  0  0  0  0  0  0  0  0  0  0  0
   -5.1796   17.0868  -35.0263 H   0  0  0  0  0  0  0  0  0  0  0  0
   -6.0939   19.3923  -34.4772 H   0  0  0  0  0  0  0  0  0  0  0  0
   -7.3200   18.0793  -34.4748 H   0  0  0  0  0  0  0  0  0  0  0  0
   -1.7437   21.1052  -30.1305 H   0  0  0  0  0  0  0  0  0  0  0  0
   -0.8433   23.1157  -28.9620 H   0  0  0  0  0  0  0  0  0  0  0  0
   -3.8640   26.5940  -30.0960 H   0  0  0  0  0  0  0  0  0  0  0  0
   -5.0031   23.4890  -31.7055 H   0  0  0  0  0  0  0  0  0  0  0  0
  1  2  2  0
  2  3  1  0
  3  4  1  0
  4  5  2  0
  5  6  1  0
  6  7  2  0
  7  8  1  0
  8  9  2  0
  9 10  1  0
 10 11  1  0
 11 12  1  0
 12 13  1  0
 13 14  1  0
 14 15  1  0
  2 16  1  0
 16 17  2  0
 17 18  1  0
 18 19  2  0
 19 20  1  0
 19 21  1  0
 21 22  1  0
 21 23  2  0
  9  4  1  0
 15 10  1  0
 23 16  1  0
  5 24  1  0
  6 25  1  0
  7 26  1  0
  8 27  1  0
 11 28  1  0
 11 29  1  0
 12 30  1  0
 12 31  1  0
 14 32  1  0
 14 33  1  0
 15 34  1  0
 15 35  1  0
 17 36  1  0
 18 37  1  0
 22 38  1  0
 23 39  1  0
M  CHG  2   3  -1  20  -1
M  END
>  <UniqueID>  (33) 
33

>  <SMILES>  (33) 
O=C([N-]c1ccccc1N1CCOCC1)c1ccc([O-])c(O)c1

>  <Energy>  (33) 
53.72689492220371

>  <Genealogy>  (33) 
O=C([N-]c1ccccc1N1CCOCC1)c1ccc([O-])c(O)c1 (protonated)
O=C([N-]c1ccccc1N1CCOCC1)c1ccc([O-])c(O)c1 (3D coordinates assigned)
O=C([N-]c1ccccc1N1CCOCC1)c1ccc([O-])c(O)c1 (nonaromatic ring conformer: 53.72689492220371 kcal/mol)

>  <smiles>  (33) 
O=C(Nc1ccccc1N1CCOCC1)c1ccc(O)c(O)c1

>  <score_type>  (33) 
oracle

>  <origin>  (33) 
adgpu

>  <m_score__min__energy>  (33) 
-11.06

>  <m_primary>  (33) 
energy

$$$$
33:0
     RDKit          3D

 35 37  0  0  0  0  0  0  0  0999 V2000
   -2.8210   25.2990  -29.6900 O   0  0  0  0  0  0  0  0  0  0  0  0
   -3.9390   24.6080  -30.1380 C   0  0  0  0  0  0  0  0  0  0  0  0
   -3.7880   23.4060  -30.8320 C   0  0  0  0  0  0  0  0  0  0  0  0
   -4.9140   22.7090  -31.2840 C   0  0  0  0  0  0  0  0  0  0  0  0
   -6.2060   23.2090  -31.0450 C   0  0  0  0  0  0  0  0  0  0  0  0
   -7.3900   22.4590  -31.5330 C   0  0  0  0  0  0  0  0  0  0  0  0
   -8.5860   22.9880  -31.9860 C   0  0  0  0  0  0  0  0  0  0  0  0
   -9.3900   21.9700  -32.3280 N   0  0  0  0  0  0  0  0  0  0  0  0
   -8.6740   20.8550  -32.0920 C   0  0  0  0  0  0  0  0  0  0  0  0
   -9.2060   19.4720  -32.2910 C   0  0  0  0  0  0  0  0  0  0  0  0
   -8.2100   18.4340  -31.7680 C   0  0  0  0  0  0  0  0  0  0  0  0
   -7.1700   18.1250  -32.8120 C   0  0  0  0  0  0  0  0  0  0  0  0
   -6.8440   16.7930  -33.1160 C   0  0  0  0  0  0  0  0  0  0  0  0
   -5.8990   16.5080  -34.1070 C   0  0  0  0  0  0  0  0  0  0  0  0
   -5.2840   17.5490  -34.8070 C   0  0  0  0  0  0  0  0  0  0  0  0
   -5.6160   18.8770  -34.5220 C   0  0  0  0  0  0  0  0  0  0  0  0
   -6.5580   19.1660  -33.5310 C   0  0  0  0  0  0  0  0  0  0  0  0
   -7.4470   21.1120  -31.5930 N   0  0  0  0  0  0  0  0  0  0  0  0
   -6.3460   24.4230  -30.3440 C   0  0  0  0  0  0  0  0  0  0  0  0
   -5.2180   25.1160  -29.8940 C   0  0  0  0  0  0  0  0  0  0  0  0
   -2.7815   23.0059  -31.0239 H   0  0  0  0  0  0  0  0  0  0  0  0
   -4.7873   21.7628  -31.8304 H   0  0  0  0  0  0  0  0  0  0  0  0
   -8.8342   24.0575  -32.0538 H   0  0  0  0  0  0  0  0  0  0  0  0
  -10.3650   22.0340  -32.6960 H   0  0  0  0  0  0  0  0  0  0  0  0
  -10.1564   19.3680  -31.7470 H   0  0  0  0  0  0  0  0  0  0  0  0
   -9.3641   19.3030  -33.3664 H   0  0  0  0  0  0  0  0  0  0  0  0
   -7.7139   18.8296  -30.8694 H   0  0  0  0  0  0  0  0  0  0  0  0
   -8.7551   17.5098  -31.5258 H   0  0  0  0  0  0  0  0  0  0  0  0
   -7.3336   15.9712  -32.5729 H   0  0  0  0  0  0  0  0  0  0  0  0
   -5.6399   15.4636  -34.3354 H   0  0  0  0  0  0  0  0  0  0  0  0
   -4.5378   17.3236  -35.5832 H   0  0  0  0  0  0  0  0  0  0  0  0
   -5.1352   19.6951  -35.0784 H   0  0  0  0  0  0  0  0  0  0  0  0
   -6.8213   20.2115  -33.3130 H   0  0  0  0  0  0  0  0  0  0  0  0
   -7.3498   24.8286  -30.1493 H   0  0  0  0  0  0  0  0  0  0  0  0
   -5.3375   26.0628  -29.3469 H   0  0  0  0  0  0  0  0  0  0  0  0
  1  2  1  0
  2  3  2  0
  3  4  1  0
  4  5  2  0
  5  6  1  0
  6  7  2  0
  7  8  1  0
  8  9  1  0
  9 10  1  0
 10 11  1  0
 11 12  1  0
 12 13  2  0
 13 14  1  0
 14 15  2  0
 15 16  1  0
 16 17  2  0
  9 18  2  0
  5 19  1  0
 19 20  2  0
 20  2  1  0
 18  6  1  0
 17 12  1  0
  3 21  1  0
  4 22  1  0
  7 23  1  0
  8 24  1  0
 10 25  1  0
 10 26  1  0
 11 27  1  0
 11 28  1  0
 13 29  1  0
 14 30  1  0
 15 31  1  0
 16 32  1  0
 17 33  1  0
 19 34  1  0
 20 35  1  0
M  CHG  1   1  -1
M  END
>  <UniqueID>  (34) 
34

>  <SMILES>  (34) 
[O-]c1ccc(-c2c[nH]c(CCc3ccccc3)n2)cc1

>  <Energy>  (34) 
63.62053864310438

>  <Genealogy>  (34) 
[O-]c1ccc(-c2c[nH]c(CCc3ccccc3)n2)cc1 (protonated)
[O-]c1ccc(-c2c[nH]c(CCc3ccccc3)n2)cc1 (3D coordinates assigned)
[O-]c1ccc(-c2c[nH]c(CCc3ccccc3)n2)cc1 (optimized conformer: 63.62053864310438 kcal/mol)

>  <smiles>  (34) 
Oc1ccc(-c2c[nH]c(CCc3ccccc3)n2)cc1

>  <score_type>  (34) 
oracle

>  <origin>  (34) 
adgpu

>  <m_score__min__energy>  (34) 
-11.44

>  <m_primary>  (34) 
energy

$$$$
34:0
     RDKit          3D

 40 42  0  0  0  0  0  0  0  0999 V2000
   -1.9530   20.9580  -26.5320 O   0  0  0  0  0  0  0  0  0  0  0  0
   -1.3370   21.4390  -27.5200 C   0  0  0  0  0  0  0  0  0  0  0  0
   -0.0610   20.8850  -27.8660 N   0  0  0  0  0  0  0  0  0  0  0  0
    0.1800   19.9030  -28.8840 C   0  0  0  0  0  0  0  0  0  0  0  0
   -0.5820   19.8710  -30.0650 C   0  0  0  0  0  0  0  0  0  0  0  0
   -0.3060   18.9270  -31.0610 C   0  0  0  0  0  0  0  0  0  0  0  0
   -1.2630   18.9090  -32.5370 S   0  0  0  0  0  0  0  0  0  0  0  0
   -0.3460   19.0790  -33.7150 O   0  0  0  0  0  0  0  0  0  0  0  0
   -2.0000   17.6060  -32.6800 O   0  0  0  0  0  0  0  0  0  0  0  0
   -2.4100   20.2100  -32.5180 N   0  0  0  0  0  0  0  0  0  0  0  0
   -3.8160   20.0800  -32.7710 C   0  0  0  0  0  0  0  0  0  0  0  0
   -4.7730   20.7490  -31.9860 C   0  0  0  0  0  0  0  0  0  0  0  0
   -6.1370   20.5890  -32.2440 C   0  0  0  0  0  0  0  0  0  0  0  0
   -6.5600   19.7570  -33.2810 C   0  0  0  0  0  0  0  0  0  0  0  0
   -5.6200   19.0880  -34.0670 C   0  0  0  0  0  0  0  0  0  0  0  0
   -4.2510   19.2520  -33.8270 C   0  0  0  0  0  0  0  0  0  0  0  0
   -3.3410   18.5820  -34.6460 O   0  0  0  0  0  0  0  0  0  0  0  0
    0.7450   18.0160  -30.8830 C   0  0  0  0  0  0  0  0  0  0  0  0
    1.5140   18.0530  -29.7180 C   0  0  0  0  0  0  0  0  0  0  0  0
    1.2390   18.9970  -28.7230 C   0  0  0  0  0  0  0  0  0  0  0  0
    2.0200   19.0290  -27.5740 O   0  0  0  0  0  0  0  0  0  0  0  0
   -1.9750   22.5070  -28.3270 C   0  0  0  0  0  0  0  0  0  0  0  0
   -3.2380   22.3120  -28.9150 C   0  0  0  0  0  0  0  0  0  0  0  0
   -3.8580   23.3470  -29.6200 C   0  0  0  0  0  0  0  0  0  0  0  0
   -3.2280   24.5890  -29.7430 C   0  0  0  0  0  0  0  0  0  0  0  0
   -3.8630   25.6240  -30.4180 O   0  0  0  0  0  0  0  0  0  0  0  0
   -1.9650   24.7890  -29.1750 C   0  0  0  0  0  0  0  0  0  0  0  0
   -1.3290   26.0180  -29.3050 O   0  0  0  0  0  0  0  0  0  0  0  0
   -1.3440   23.7560  -28.4670 C   0  0  0  0  0  0  0  0  0  0  0  0
   -1.4002   20.5923  -30.2072 H   0  0  0  0  0  0  0  0  0  0  0  0
   -4.4453   21.4022  -31.1638 H   0  0  0  0  0  0  0  0  0  0  0  0
   -6.8783   21.1198  -31.6286 H   0  0  0  0  0  0  0  0  0  0  0  0
   -7.6343   19.6281  -33.4793 H   0  0  0  0  0  0  0  0  0  0  0  0
   -5.9574   18.4280  -34.8798 H   0  0  0  0  0  0  0  0  0  0  0  0
   -2.3420   18.6190  -34.4920 H   0  0  0  0  0  0  0  0  0  0  0  0
    0.9640   17.2711  -31.6622 H   0  0  0  0  0  0  0  0  0  0  0  0
    2.3385   17.3376  -29.5823 H   0  0  0  0  0  0  0  0  0  0  0  0
   -3.7408   21.3384  -28.8192 H   0  0  0  0  0  0  0  0  0  0  0  0
   -4.8442   23.1841  -30.0793 H   0  0  0  0  0  0  0  0  0  0  0  0
   -0.3544   23.9213  -28.0160 H   0  0  0  0  0  0  0  0  0  0  0  0
  1  2  2  0
  2  3  1  0
  3  4  1  0
  4  5  2  0
  5  6  1  0
  6  7  1  0
  7  8  2  0
  7  9  2  0
  7 10  1  0
 10 11  1  0
 11 12  2  0
 12 13  1  0
 13 14  2  0
 14 15  1  0
 15 16  2  0
 16 17  1  0
  6 18  2  0
 18 19  1  0
 19 20  2  0
 20 21  1  0
  2 22  1  0
 22 23  2  0
 23 24  1  0
 24 25  2  0
 25 26  1  0
 25 27  1  0
 27 28  1  0
 27 29  2  0
 20  4  1  0
 29 22  1  0
 16 11  1  0
  5 30  1  0
 12 31  1  0
 13 32  1  0
 14 33  1  0
 15 34  1  0
 17 35  1  0
 18 36  1  0
 19 37  1  0
 23 38  1  0
 24 39  1  0
 29 40  1  0
M  CHG  5   3  -1  10  -1  21  -1  26  -1  28  -1
M  END
>  <UniqueID>  (35) 
35

>  <SMILES>  (35) 
O=C([N-]c1cc(S(=O)(=O)[N-]c2ccccc2O)ccc1[O-])c1ccc([O-])c([O-])c1

>  <Energy>  (35) 
50.07289927480993

>  <Genealogy>  (35) 
O=C([N-]c1cc(S(=O)(=O)[N-]c2ccccc2O)ccc1[O-])c1ccc([O-])c([O-])c1 (protonated)
O=C([N-]c1cc(S(=O)(=O)[N-]c2ccccc2O)ccc1[O-])c1ccc([O-])c([O-])c1 (3D coordinates assigned)
O=C([N-]c1cc(S(=O)(=O)[N-]c2ccccc2O)ccc1[O-])c1ccc([O-])c([O-])c1 (optimized conformer: 50.07289927480993 kcal/mol)

>  <smiles>  (35) 
O=C(Nc1cc(S(=O)(=O)Nc2ccccc2O)ccc1O)c1ccc(O)c(O)c1

>  <score_type>  (35) 
oracle

>  <origin>  (35) 
adgpu

>  <m_score__min__energy>  (35) 
-13.9

>  <m_primary>  (35) 
energy

$$$$
35:0
     RDKit          3D

 35 37  0  0  0  0  0  0  0  0999 V2000
   -4.2450   21.1380  -29.6700 H   0  0  0  0  0  0  0  0  0  0  0  0
   -3.6650   21.9910  -29.5180 N   0  0  0  0  0  0  0  0  0  0  0  0
   -3.9810   23.1540  -29.9940 C   0  0  0  0  0  0  0  0  0  0  0  0
   -5.0890   23.4540  -30.7740 C   0  0  0  0  0  0  0  0  0  0  0  0
   -6.1380   22.5590  -31.3070 C   0  0  0  0  0  0  0  0  0  0  0  0
   -7.4790   22.7590  -30.9410 C   0  0  0  0  0  0  0  0  0  0  0  0
   -7.7413   23.5710  -30.2468 H   0  0  0  0  0  0  0  0  0  0  0  0
   -8.4820   21.9320  -31.4540 C   0  0  0  0  0  0  0  0  0  0  0  0
   -9.5284   22.0891  -31.1535 H   0  0  0  0  0  0  0  0  0  0  0  0
   -8.1600   20.9030  -32.3500 C   0  0  0  0  0  0  0  0  0  0  0  0
   -9.1870   20.0580  -32.8740 N   0  0  0  0  0  0  0  0  0  0  0  0
   -9.1600   19.7380  -33.8680 H   0  0  0  0  0  0  0  0  0  0  0  0
   -9.9820   19.7460  -32.2740 H   0  0  0  0  0  0  0  0  0  0  0  0
   -6.8260   20.7140  -32.7340 C   0  0  0  0  0  0  0  0  0  0  0  0
   -6.5677   19.9127  -33.4420 H   0  0  0  0  0  0  0  0  0  0  0  0
   -5.8210   21.5410  -32.2200 C   0  0  0  0  0  0  0  0  0  0  0  0
   -4.7770   21.3926  -32.5331 H   0  0  0  0  0  0  0  0  0  0  0  0
   -4.9850   24.8170  -30.9950 C   0  0  0  0  0  0  0  0  0  0  0  0
   -5.6998   25.4216  -31.5725 H   0  0  0  0  0  0  0  0  0  0  0  0
   -3.8730   25.2910  -30.3940 N   0  0  0  0  0  0  0  0  0  0  0  0
   -3.2700   24.2830  -29.7800 N   0  0  0  0  0  0  0  0  0  0  0  0
   -2.0470   24.4360  -29.0350 C   0  0  0  0  0  0  0  0  0  0  0  0
   -0.9170   23.6500  -29.3180 C   0  0  0  0  0  0  0  0  0  0  0  0
   -0.9568   22.9085  -30.1295 H   0  0  0  0  0  0  0  0  0  0  0  0
    0.2580   23.8040  -28.5750 C   0  0  0  0  0  0  0  0  0  0  0  0
    1.1423   23.1961  -28.8169 H   0  0  0  0  0  0  0  0  0  0  0  0
    0.3140   24.7290  -27.5240 C   0  0  0  0  0  0  0  0  0  0  0  0
    1.5870   24.9200  -26.7520 C   0  0  0  0  0  0  0  0  0  0  0  0
    1.3705   24.8875  -25.6740 H   0  0  0  0  0  0  0  0  0  0  0  0
    2.2950   24.1180  -27.0081 H   0  0  0  0  0  0  0  0  0  0  0  0
    2.0285   25.8944  -27.0081 H   0  0  0  0  0  0  0  0  0  0  0  0
   -0.8110   25.5150  -27.2380 C   0  0  0  0  0  0  0  0  0  0  0  0
   -0.7692   26.2562  -26.4263 H   0  0  0  0  0  0  0  0  0  0  0  0
   -1.9860   25.3610  -27.9800 C   0  0  0  0  0  0  0  0  0  0  0  0
   -2.8695   25.9690  -27.7355 H   0  0  0  0  0  0  0  0  0  0  0  0
  1  2  1  0
  2  3  2  0
  3  4  1  0
  4  5  1  0
  5  6  2  0
  6  7  1  0
  6  8  1  0
  8  9  1  0
  8 10  2  0
 10 11  1  0
 11 12  1  0
 11 13  1  0
 10 14  1  0
 14 15  1  0
 14 16  2  0
 16 17  1  0
  4 18  2  0
 18 19  1  0
 18 20  1  0
 20 21  1  0
 21 22  1  0
 22 23  2  0
 23 24  1  0
 23 25  1  0
 25 26  1  0
 25 27  2  0
 27 28  1  0
 28 29  1  0
 28 30  1  0
 28 31  1  0
 27 32  1  0
 32 33  1  0
 32 34  2  0
 34 35  1  0
 21  3  1  0
 34 22  1  0
 16  5  1  0
M  CHG  1  20  -1
M  END
>  <UniqueID>  (36) 
36

>  <SMILES>  (36) 
[H]/N=c1\c(-c2ccc(N)cc2)c[n-]n1-c1ccc(C)cc1

>  <Energy>  (36) 
78.42396569025912

>  <Genealogy>  (36) 
Cc1ccc(-n2[n-]cc(-c3ccc(N)cc3)c2=N)cc1 (protonated)
[H]/N=c1\c(-c2ccc(N)cc2)c[n-]n1-c1ccc(C)cc1 (cis-trans isomerization)
[H]/N=c1\c(-c2ccc(N)cc2)c[n-]n1-c1ccc(C)cc1 (3D coordinates assigned)
[H]/N=c1\c(-c2ccc(N)cc2)c[n-]n1-c1ccc(C)cc1 (optimized conformer: 78.42396569025912 kcal/mol)

>  <smiles>  (36) 
Cc1ccc(-n2[nH]cc(-c3ccc(N)cc3)c2=N)cc1

>  <score_type>  (36) 
oracle

>  <origin>  (36) 
adgpu

>  <m_score__min__energy>  (36) 
-8.8699999999999992

>  <m_primary>  (36) 
energy

$$$$
36:0
     RDKit          3D

 34 35  0  0  0  0  0  0  0  0999 V2000
   -1.7020   26.0650  -28.9680 O   0  0  0  0  0  0  0  0  0  0  0  0
   -1.2480   24.8000  -28.6100 C   0  0  0  0  0  0  0  0  0  0  0  0
   -0.2140   24.6840  -27.6750 C   0  0  0  0  0  0  0  0  0  0  0  0
    0.2520   23.4220  -27.2950 C   0  0  0  0  0  0  0  0  0  0  0  0
   -0.3180   22.2730  -27.8460 C   0  0  0  0  0  0  0  0  0  0  0  0
   -1.3510   22.3800  -28.7810 C   0  0  0  0  0  0  0  0  0  0  0  0
   -1.8190   23.6440  -29.1800 C   0  0  0  0  0  0  0  0  0  0  0  0
   -2.9320   23.7550  -30.1940 C   0  0  0  0  0  0  0  0  0  0  0  0
   -4.0220   24.5830  -29.6800 N   0  0  0  0  0  0  0  0  0  0  0  0
   -5.3780   24.5170  -30.1550 C   0  0  0  0  0  0  0  0  0  0  0  0
   -6.4160   25.7110  -29.7130 S   0  0  0  0  0  0  0  0  0  0  0  0
   -5.8210   23.4240  -30.9820 N   0  0  0  0  0  0  0  0  0  0  0  0
   -7.1460   23.3500  -31.6000 C   0  0  0  0  0  0  0  0  0  0  0  0
   -7.4930   21.9230  -31.9340 C   0  0  0  0  0  0  0  0  0  0  0  0
   -8.7270   21.3750  -31.5420 C   0  0  0  0  0  0  0  0  0  0  0  0
   -9.0410   20.0500  -31.8580 C   0  0  0  0  0  0  0  0  0  0  0  0
   -8.1300   19.2640  -32.5710 C   0  0  0  0  0  0  0  0  0  0  0  0
   -6.9050   19.8040  -32.9700 C   0  0  0  0  0  0  0  0  0  0  0  0
   -6.5860   21.1290  -32.6550 C   0  0  0  0  0  0  0  0  0  0  0  0
    0.2337   25.5885  -27.2375 H   0  0  0  0  0  0  0  0  0  0  0  0
    1.0676   23.3344  -26.5621 H   0  0  0  0  0  0  0  0  0  0  0  0
    0.0471   21.2805  -27.5433 H   0  0  0  0  0  0  0  0  0  0  0  0
   -1.8001   21.4706  -29.2069 H   0  0  0  0  0  0  0  0  0  0  0  0
   -2.5371   24.2095  -31.1146 H   0  0  0  0  0  0  0  0  0  0  0  0
   -3.3220   22.7475  -30.4011 H   0  0  0  0  0  0  0  0  0  0  0  0
   -3.7800   25.3070  -28.9660 H   0  0  0  0  0  0  0  0  0  0  0  0
   -5.1830   22.6170  -31.1500 H   0  0  0  0  0  0  0  0  0  0  0  0
   -7.8946   23.7504  -30.9005 H   0  0  0  0  0  0  0  0  0  0  0  0
   -7.1395   23.9411  -32.5276 H   0  0  0  0  0  0  0  0  0  0  0  0
   -9.4480   21.9911  -30.9846 H   0  0  0  0  0  0  0  0  0  0  0  0
  -10.0062   19.6249  -31.5454 H   0  0  0  0  0  0  0  0  0  0  0  0
   -8.3780   18.2211  -32.8175 H   0  0  0  0  0  0  0  0  0  0  0  0
   -6.1899   19.1861  -33.5329 H   0  0  0  0  0  0  0  0  0  0  0  0
   -5.6212   21.5508  -32.9731 H   0  0  0  0  0  0  0  0  0  0  0  0
  1  2  1  0
  2  3  2  0
  3  4  1  0
  4  5  2  0
  5  6  1  0
  6  7  2  0
  7  8  1  0
  8  9  1  0
  9 10  1  0
 10 11  2  0
 10 12  1  0
 12 13  1  0
 13 14  1  0
 14 15  2  0
 15 16  1  0
 16 17  2  0
 17 18  1  0
 18 19  2  0
  7  2  1  0
 19 14  1  0
  3 20  1  0
  4 21  1  0
  5 22  1  0
  6 23  1  0
  8 24  1  0
  8 25  1  0
  9 26  1  0
 12 27  1  0
 13 28  1  0
 13 29  1  0
 15 30  1  0
 16 31  1  0
 17 32  1  0
 18 33  1  0
 19 34  1  0
M  CHG  1   1  -1
M  END
>  <UniqueID>  (37) 
37

>  <SMILES>  (37) 
[O-]c1ccccc1CNC(=S)NCc1ccccc1

>  <Energy>  (37) 
31.94458055440192

>  <Genealogy>  (37) 
[O-]c1ccccc1CNC(=S)NCc1ccccc1 (protonated)
[O-]c1ccccc1CNC(=S)NCc1ccccc1 (3D coordinates assigned)
[O-]c1ccccc1CNC(=S)NCc1ccccc1 (optimized conformer: 31.94458055440192 kcal/mol)

>  <smiles>  (37) 
Oc1ccccc1CNC(=S)NCc1ccccc1

>  <score_type>  (37) 
oracle

>  <origin>  (37) 
adgpu

>  <m_score__min__energy>  (37) 
-10.390000000000001

>  <m_primary>  (37) 
energy

$$$$
37:0
     RDKit          3D

 36 38  0  0  0  0  0  0  0  0999 V2000
    2.4708   23.9798  -24.4128 H   0  0  0  0  0  0  0  0  0  0  0  0
    1.7140   24.2140  -25.1760 C   0  0  0  0  0  0  0  0  0  0  0  0
    1.9480   23.9090  -26.4790 N   0  0  0  0  0  0  0  0  0  0  0  0
    1.0450   24.2010  -27.4550 C   0  0  0  0  0  0  0  0  0  0  0  0
    1.2597   23.9324  -28.4999 H   0  0  0  0  0  0  0  0  0  0  0  0
   -0.1610   24.8450  -27.1300 C   0  0  0  0  0  0  0  0  0  0  0  0
   -1.1640   25.1270  -28.1180 N   0  0  0  0  0  0  0  0  0  0  0  0
   -2.2740   24.4730  -28.3050 C   0  0  0  0  0  0  0  0  0  0  0  0
   -2.7440   23.0510  -27.5250 S   0  0  0  0  0  0  0  0  0  0  0  0
   -4.1710   22.9090  -28.4070 C   0  0  0  0  0  0  0  0  0  0  0  0
   -4.9221   22.1125  -28.2996 H   0  0  0  0  0  0  0  0  0  0  0  0
   -4.2320   23.9790  -29.2970 C   0  0  0  0  0  0  0  0  0  0  0  0
   -5.5410   24.1900  -30.4510 S   0  0  0  0  0  0  0  0  0  0  0  0
   -6.7990   24.5470  -29.7090 O   0  0  0  0  0  0  0  0  0  0  0  0
   -5.1800   25.3210  -31.3720 O   0  0  0  0  0  0  0  0  0  0  0  0
   -5.8190   22.7220  -31.3960 C   0  0  0  0  0  0  0  0  0  0  0  0
   -7.1120   22.1860  -31.5060 C   0  0  0  0  0  0  0  0  0  0  0  0
   -7.9540   22.6822  -31.0013 H   0  0  0  0  0  0  0  0  0  0  0  0
   -7.3360   21.0270  -32.2520 C   0  0  0  0  0  0  0  0  0  0  0  0
   -8.9560   20.3640  -32.3780 Cl  0  0  0  0  0  0  0  0  0  0  0  0
   -6.2720   20.3950  -32.8960 C   0  0  0  0  0  0  0  0  0  0  0  0
   -6.4494   19.4802  -33.4805 H   0  0  0  0  0  0  0  0  0  0  0  0
   -4.9810   20.9220  -32.8000 C   0  0  0  0  0  0  0  0  0  0  0  0
   -4.1463   20.4215  -33.3127 H   0  0  0  0  0  0  0  0  0  0  0  0
   -4.7430   22.0910  -32.0500 C   0  0  0  0  0  0  0  0  0  0  0  0
   -3.4580   22.6490  -31.9390 O   0  0  0  0  0  0  0  0  0  0  0  0
   -2.2910   21.9220  -31.5710 C   0  0  0  0  0  0  0  0  0  0  0  0
   -2.2180   21.8765  -30.4744 H   0  0  0  0  0  0  0  0  0  0  0  0
   -2.3515   20.9015  -31.9771 H   0  0  0  0  0  0  0  0  0  0  0  0
   -1.4017   22.4261  -31.9771 H   0  0  0  0  0  0  0  0  0  0  0  0
   -3.1770   24.8340  -29.2400 N   0  0  0  0  0  0  0  0  0  0  0  0
   -3.0720   25.6700  -29.8590 H   0  0  0  0  0  0  0  0  0  0  0  0
   -0.4310   25.1270  -25.7860 C   0  0  0  0  0  0  0  0  0  0  0  0
   -1.3889   25.5876  -25.5028 H   0  0  0  0  0  0  0  0  0  0  0  0
    0.5150   24.8240  -24.8040 C   0  0  0  0  0  0  0  0  0  0  0  0
    0.3172   25.0636  -23.7488 H   0  0  0  0  0  0  0  0  0  0  0  0
  1  2  1  0
  2  3  2  0
  3  4  1  0
  4  5  1  0
  4  6  2  0
  6  7  1  0
  7  8  2  0
  8  9  1  0
  9 10  1  0
 10 11  1  0
 10 12  2  0
 12 13  1  0
 13 14  2  0
 13 15  2  0
 13 16  1  0
 16 17  2  0
 17 18  1  0
 17 19  1  0
 19 20  1  0
 19 21  2  0
 21 22  1  0
 21 23  1  0
 23 24  1  0
 23 25  2  0
 25 26  1  0
 26 27  1  0
 27 28  1  0
 27 29  1  0
 27 30  1  0
 12 31  1  0
 31 32  1  0
  6 33  1  0
 33 34  1  0
 33 35  2  0
 35 36  1  0
 35  2  1  0
 31  8  1  0
 25 16  1  0
M  END
>  <UniqueID>  (38) 
38

>  <SMILES>  (38) 
COc1ccc(Cl)cc1S(=O)(=O)c1cs/c(=N\c2cccnc2)[nH]1

>  <Energy>  (38) 
78.43501822953702

>  <Genealogy>  (38) 
COc1ccc(Cl)cc1S(=O)(=O)c1cs/c(=N\c2cccnc2)[nH]1 (cis-trans isomerization)
COc1ccc(Cl)cc1S(=O)(=O)c1cs/c(=N\c2cccnc2)[nH]1 (3D coordinates assigned)
COc1ccc(Cl)cc1S(=O)(=O)c1cs/c(=N\c2cccnc2)[nH]1 (optimized conformer: 78.43501822953702 kcal/mol)

>  <smiles>  (38) 
COc1ccc(Cl)cc1S(=O)(=O)c1csc(=Nc2cccnc2)[nH]1

>  <score_type>  (38) 
oracle

>  <origin>  (38) 
adgpu

>  <m_score__min__energy>  (38) 
-8.4800000000000004

>  <m_primary>  (38) 
energy

$$$$
38:0
     RDKit          3D

 62 65  0  0  0  0  0  0  0  0999 V2000
    4.6080   18.5800  -32.9820 C   0  0  0  0  0  0  0  0  0  0  0  0
    3.1540   18.7500  -33.0090 N   0  0  0  0  0  0  0  0  0  0  0  0
    2.3660   18.4070  -31.8570 C   0  0  0  0  0  0  0  0  0  0  0  0
    2.2660   19.2970  -30.7740 C   0  0  0  0  0  0  0  0  0  0  0  0
    1.4930   18.9650  -29.6560 C   0  0  0  0  0  0  0  0  0  0  0  0
    0.8110   17.7470  -29.6120 C   0  0  0  0  0  0  0  0  0  0  0  0
    0.9010   16.8580  -30.6860 C   0  0  0  0  0  0  0  0  0  0  0  0
    1.6730   17.1860  -31.8050 C   0  0  0  0  0  0  0  0  0  0  0  0
    2.4040   19.3640  -34.4510 S   0  0  0  0  0  0  0  0  0  0  0  0
    3.0910   20.6290  -34.8740 O   0  0  0  0  0  0  0  0  0  0  0  0
    2.5140   18.3640  -35.5680 O   0  0  0  0  0  0  0  0  0  0  0  0
    0.6990   19.6660  -34.1310 C   0  0  0  0  0  0  0  0  0  0  0  0
   -0.2650   18.6940  -34.4280 C   0  0  0  0  0  0  0  0  0  0  0  0
   -1.6210   18.9560  -34.2100 C   0  0  0  0  0  0  0  0  0  0  0  0
   -2.0340   20.1990  -33.6950 C   0  0  0  0  0  0  0  0  0  0  0  0
   -3.4690   20.4920  -33.4620 C   0  0  0  0  0  0  0  0  0  0  0  0
   -3.8190   21.6600  -33.1390 O   0  0  0  0  0  0  0  0  0  0  0  0
   -4.4700   19.4770  -33.6540 N   0  0  0  0  0  0  0  0  0  0  0  0
   -5.8120   19.5780  -33.1470 C   0  0  0  0  0  0  0  0  0  0  0  0
   -6.6600   18.4630  -33.2090 C   0  0  0  0  0  0  0  0  0  0  0  0
   -7.9610   18.5340  -32.7060 C   0  0  0  0  0  0  0  0  0  0  0  0
   -8.4240   19.7160  -32.1230 C   0  0  0  0  0  0  0  0  0  0  0  0
   -7.5830   20.8340  -32.0380 C   0  0  0  0  0  0  0  0  0  0  0  0
   -8.1390   22.3110  -31.2530 S   0  0  0  0  0  0  0  0  0  0  0  0
   -8.8220   21.9700  -29.9550 O   0  0  0  0  0  0  0  0  0  0  0  0
   -9.1330   22.9930  -32.1520 O   0  0  0  0  0  0  0  0  0  0  0  0
   -6.7840   23.3720  -30.9620 N   0  0  0  0  0  0  0  0  0  0  0  0
   -5.7420   22.6550  -30.1940 C   0  0  0  0  0  0  0  0  0  0  0  0
   -4.6780   23.6090  -29.6040 C   0  0  0  0  0  0  0  0  0  0  0  0
   -4.7110   24.9790  -30.2840 C   0  0  0  0  0  0  0  0  0  0  0  0
   -6.1070   25.6160  -30.1720 C   0  0  0  0  0  0  0  0  0  0  0  0
   -7.2380   24.5720  -30.2410 C   0  0  0  0  0  0  0  0  0  0  0  0
   -6.2750   20.7600  -32.5390 C   0  0  0  0  0  0  0  0  0  0  0  0
   -1.0590   21.1640  -33.3880 C   0  0  0  0  0  0  0  0  0  0  0  0
    0.2950   20.9020  -33.6100 C   0  0  0  0  0  0  0  0  0  0  0  0
    4.9531   18.5396  -31.9383 H   0  0  0  0  0  0  0  0  0  0  0  0
    4.8773   17.6442  -33.4937 H   0  0  0  0  0  0  0  0  0  0  0  0
    5.0859   19.4284  -33.4937 H   0  0  0  0  0  0  0  0  0  0  0  0
    2.7980   20.2593  -30.8054 H   0  0  0  0  0  0  0  0  0  0  0  0
    1.4223   19.6646  -28.8101 H   0  0  0  0  0  0  0  0  0  0  0  0
    0.2034   17.4878  -28.7324 H   0  0  0  0  0  0  0  0  0  0  0  0
    0.3639   15.8987  -30.6514 H   0  0  0  0  0  0  0  0  0  0  0  0
    1.7380   16.4839  -32.6493 H   0  0  0  0  0  0  0  0  0  0  0  0
    0.0462   17.7204  -34.8345 H   0  0  0  0  0  0  0  0  0  0  0  0
   -2.3704   18.1851  -34.4427 H   0  0  0  0  0  0  0  0  0  0  0  0
   -4.2540   18.6890  -34.3070 H   0  0  0  0  0  0  0  0  0  0  0  0
   -6.2980   17.5258  -33.6569 H   0  0  0  0  0  0  0  0  0  0  0  0
   -8.6224   17.6573  -32.7691 H   0  0  0  0  0  0  0  0  0  0  0  0
   -9.4500   19.7694  -31.7301 H   0  0  0  0  0  0  0  0  0  0  0  0
   -6.2242   22.1109  -29.3685 H   0  0  0  0  0  0  0  0  0  0  0  0
   -5.2294   21.9702  -30.8857 H   0  0  0  0  0  0  0  0  0  0  0  0
   -4.8721   23.7392  -28.5291 H   0  0  0  0  0  0  0  0  0  0  0  0
   -3.6860   23.1648  -29.7731 H   0  0  0  0  0  0  0  0  0  0  0  0
   -3.9748   25.6383  -29.8009 H   0  0  0  0  0  0  0  0  0  0  0  0
   -4.4698   24.8477  -31.3492 H   0  0  0  0  0  0  0  0  0  0  0  0
   -6.1761   26.1483  -29.2118 H   0  0  0  0  0  0  0  0  0  0  0  0
   -6.2316   26.3011  -31.0235 H   0  0  0  0  0  0  0  0  0  0  0  0
   -7.5348   24.2909  -29.2198 H   0  0  0  0  0  0  0  0  0  0  0  0
   -8.0943   25.0079  -30.7765 H   0  0  0  0  0  0  0  0  0  0  0  0
   -5.6075   21.6304  -32.4563 H   0  0  0  0  0  0  0  0  0  0  0  0
   -1.3650   22.1340  -32.9692 H   0  0  0  0  0  0  0  0  0  0  0  0
    1.0471   21.6694  -33.3747 H   0  0  0  0  0  0  0  0  0  0  0  0
  1  2  1  0
  2  3  1  0
  3  4  2  0
  4  5  1  0
  5  6  2  0
  6  7  1  0
  7  8  2  0
  2  9  1  0
  9 10  2  0
  9 11  2  0
  9 12  1  0
 12 13  2  0
 13 14  1  0
 14 15  2  0
 15 16  1  0
 16 17  2  0
 16 18  1  0
 18 19  1  0
 19 20  2  0
 20 21  1  0
 21 22  2  0
 22 23  1  0
 23 24  1  0
 24 25  2  0
 24 26  2  0
 24 27  1  0
 27 28  1  0
 28 29  1  0
 29 30  1  0
 30 31  1  0
 31 32  1  0
 23 33  2  0
 15 34  1  0
 34 35  2  0
  8  3  1  0
 35 12  1  0
 33 19  1  0
 32 27  1  0
  1 36  1  0
  1 37  1  0
  1 38  1  0
  4 39  1  0
  5 40  1  0
  6 41  1  0
  7 42  1  0
  8 43  1  0
 13 44  1  0
 14 45  1  0
 18 46  1  0
 20 47  1  0
 21 48  1  0
 22 49  1  0
 28 50  1  0
 28 51  1  0
 29 52  1  0
 29 53  1  0
 30 54  1  0
 30 55  1  0
 31 56  1  0
 31 57  1  0
 32 58  1  0
 32 59  1  0
 33 60  1  0
 34 61  1  0
 35 62  1  0
M  END
>  <UniqueID>  (39) 
39

>  <SMILES>  (39) 
CN(c1ccccc1)S(=O)(=O)c1ccc(C(=O)Nc2cccc(S(=O)(=O)N3CCCCC3)c2)cc1

>  <Energy>  (39) 
78.15954571804441

>  <Genealogy>  (39) 
CN(c1ccccc1)S(=O)(=O)c1ccc(C(=O)Nc2cccc(S(=O)(=O)N3CCCCC3)c2)cc1 (3D coordinates assigned)
CN(c1ccccc1)S(=O)(=O)c1ccc(C(=O)Nc2cccc(S(=O)(=O)N3CCCCC3)c2)cc1 (nonaromatic ring conformer: 78.15954571804441 kcal/mol)

>  <smiles>  (39) 
CN(c1ccccc1)S(=O)(=O)c1ccc(C(=O)Nc2cccc(S(=O)(=O)N3CCCCC3)c2)cc1

>  <score_type>  (39) 
oracle

>  <origin>  (39) 
adgpu

>  <m_score__min__energy>  (39) 
-11.57

>  <m_primary>  (39) 
energy

$$$$
39:0
     RDKit          3D

 49 52  0  0  0  0  0  0  0  0999 V2000
   -4.9640   25.5950  -31.0450 O   0  0  0  0  0  0  0  0  0  0  0  0
   -4.8000   24.3570  -30.8710 C   0  0  0  0  0  0  0  0  0  0  0  0
   -5.2750   23.4260  -31.8540 N   0  0  0  0  0  0  0  0  0  0  0  0
   -6.5790   22.8290  -31.9020 C   0  0  0  0  0  0  0  0  0  0  0  0
   -7.7010   23.6650  -31.9140 C   0  0  0  0  0  0  0  0  0  0  0  0
   -8.9870   23.1210  -31.9720 C   0  0  0  0  0  0  0  0  0  0  0  0
   -9.1600   21.7360  -32.0300 C   0  0  0  0  0  0  0  0  0  0  0  0
   -8.0460   20.8860  -32.0400 C   0  0  0  0  0  0  0  0  0  0  0  0
   -8.2630   19.1350  -32.1150 S   0  0  0  0  0  0  0  0  0  0  0  0
   -9.3160   18.8090  -33.1370 O   0  0  0  0  0  0  0  0  0  0  0  0
   -8.7420   18.6370  -30.7800 O   0  0  0  0  0  0  0  0  0  0  0  0
   -6.7730   18.3200  -32.5320 N   0  0  0  0  0  0  0  0  0  0  0  0
   -5.9710   19.1070  -33.4940 C   0  0  0  0  0  0  0  0  0  0  0  0
   -6.0360   18.5200  -34.9160 C   0  0  0  0  0  0  0  0  0  0  0  0
   -5.5850   17.1750  -34.9890 O   0  0  0  0  0  0  0  0  0  0  0  0
   -5.8710   16.4090  -33.8250 C   0  0  0  0  0  0  0  0  0  0  0  0
   -7.0480   16.9460  -32.9940 C   0  0  0  0  0  0  0  0  0  0  0  0
   -6.7560   21.4360  -31.9910 C   0  0  0  0  0  0  0  0  0  0  0  0
   -4.0710   23.8690  -29.6770 C   0  0  0  0  0  0  0  0  0  0  0  0
   -4.5310   22.7440  -28.9720 C   0  0  0  0  0  0  0  0  0  0  0  0
   -3.8430   22.2840  -27.8460 C   0  0  0  0  0  0  0  0  0  0  0  0
   -2.6910   22.9400  -27.4100 C   0  0  0  0  0  0  0  0  0  0  0  0
   -2.2120   24.0650  -28.0980 C   0  0  0  0  0  0  0  0  0  0  0  0
   -1.0230   24.7400  -27.6510 N   0  0  0  0  0  0  0  0  0  0  0  0
   -0.5880   25.9630  -28.0230 C   0  0  0  0  0  0  0  0  0  0  0  0
   -1.2330   26.7760  -28.9480 O   0  0  0  0  0  0  0  0  0  0  0  0
    0.5940   26.2850  -27.3860 C   0  0  0  0  0  0  0  0  0  0  0  0
    0.9040   25.2040  -26.5820 C   0  0  0  0  0  0  0  0  0  0  0  0
   -0.1070   24.2830  -26.7720 C   0  0  0  0  0  0  0  0  0  0  0  0
   -0.1880   23.0570  -26.1220 O   0  0  0  0  0  0  0  0  0  0  0  0
   -2.9070   24.5250  -29.2310 C   0  0  0  0  0  0  0  0  0  0  0  0
   -7.5701   24.7566  -31.8776 H   0  0  0  0  0  0  0  0  0  0  0  0
   -9.8644   23.7845  -31.9720 H   0  0  0  0  0  0  0  0  0  0  0  0
  -10.1740   21.3113  -32.0679 H   0  0  0  0  0  0  0  0  0  0  0  0
   -6.3553   20.1374  -33.5173 H   0  0  0  0  0  0  0  0  0  0  0  0
   -4.9222   19.0806  -33.1634 H   0  0  0  0  0  0  0  0  0  0  0  0
   -7.0794   18.5578  -35.2621 H   0  0  0  0  0  0  0  0  0  0  0  0
   -5.3678   19.1228  -35.5486 H   0  0  0  0  0  0  0  0  0  0  0  0
   -6.1090   15.3815  -34.1374 H   0  0  0  0  0  0  0  0  0  0  0  0
   -4.9792   16.4619  -33.1832 H   0  0  0  0  0  0  0  0  0  0  0  0
   -7.9569   16.9480  -33.6136 H   0  0  0  0  0  0  0  0  0  0  0  0
   -7.1874   16.2978  -32.1163 H   0  0  0  0  0  0  0  0  0  0  0  0
   -5.8779   20.7742  -32.0224 H   0  0  0  0  0  0  0  0  0  0  0  0
   -5.4388   22.2219  -29.3087 H   0  0  0  0  0  0  0  0  0  0  0  0
   -4.2107   21.4018  -27.3015 H   0  0  0  0  0  0  0  0  0  0  0  0
   -2.1555   22.5730  -26.5220 H   0  0  0  0  0  0  0  0  0  0  0  0
    1.1723   27.2142  -27.4961 H   0  0  0  0  0  0  0  0  0  0  0  0
    1.7792   25.0988  -25.9239 H   0  0  0  0  0  0  0  0  0  0  0  0
   -2.5374   25.4068  -29.7748 H   0  0  0  0  0  0  0  0  0  0  0  0
  1  2  2  0
  2  3  1  0
  3  4  1  0
  4  5  2  0
  5  6  1  0
  6  7  2  0
  7  8  1  0
  8  9  1  0
  9 10  2  0
  9 11  2  0
  9 12  1  0
 12 13  1  0
 13 14  1  0
 14 15  1  0
 15 16  1  0
 16 17  1  0
  8 18  2  0
  2 19  1  0
 19 20  2  0
 20 21  1  0
 21 22  2  0
 22 23  1  0
 23 24  1  0
 24 25  1  0
 25 26  1  0
 25 27  2  0
 27 28  1  0
 28 29  2  0
 29 30  1  0
 23 31  2  0
 18  4  1  0
 31 19  1  0
 17 12  1  0
 29 24  1  0
  5 32  1  0
  6 33  1  0
  7 34  1  0
 13 35  1  0
 13 36  1  0
 14 37  1  0
 14 38  1  0
 16 39  1  0
 16 40  1  0
 17 41  1  0
 17 42  1  0
 18 43  1  0
 20 44  1  0
 21 45  1  0
 22 46  1  0
 27 47  1  0
 28 48  1  0
 31 49  1  0
M  CHG  3   3  -1  26  -1  30  -1
M  END
>  <UniqueID>  (40) 
40

>  <SMILES>  (40) 
O=C([N-]c1cccc(S(=O)(=O)N2CCOCC2)c1)c1cccc(-n2c([O-])ccc2[O-])c1

>  <Energy>  (40) 
101.787626918809

>  <Genealogy>  (40) 
O=C([N-]c1cccc(S(=O)(=O)N2CCOCC2)c1)c1cccc(-n2c([O-])ccc2[O-])c1 (protonated)
O=C([N-]c1cccc(S(=O)(=O)N2CCOCC2)c1)c1cccc(-n2c([O-])ccc2[O-])c1 (3D coordinates assigned)
O=C([N-]c1cccc(S(=O)(=O)N2CCOCC2)c1)c1cccc(-n2c([O-])ccc2[O-])c1 (nonaromatic ring conformer: 101.787626918809 kcal/mol)

>  <smiles>  (40) 
O=C(Nc1cccc(S(=O)(=O)N2CCOCC2)c1)c1cccc(-n2c(O)ccc2O)c1

>  <score_type>  (40) 
oracle

>  <origin>  (40) 
adgpu

>  <m_score__min__energy>  (40) 
-12.68

>  <m_primary>  (40) 
energy

$$$$
40:0
     RDKit          3D

 60 64  0  0  0  0  0  0  0  0999 V2000
   -3.8970   25.2780  -30.6770 O   0  0  0  0  0  0  0  0  0  0  0  0
   -3.3870   24.1540  -30.4310 C   0  0  0  0  0  0  0  0  0  0  0  0
   -2.0430   24.0970  -29.9350 N   0  0  0  0  0  0  0  0  0  0  0  0
   -1.4610   22.8890  -29.4280 C   0  0  0  0  0  0  0  0  0  0  0  0
   -0.6430   22.1170  -30.2660 C   0  0  0  0  0  0  0  0  0  0  0  0
   -0.1820   20.8670  -29.8400 C   0  0  0  0  0  0  0  0  0  0  0  0
   -0.5220   20.3890  -28.5700 C   0  0  0  0  0  0  0  0  0  0  0  0
   -1.2910   21.1760  -27.7080 C   0  0  0  0  0  0  0  0  0  0  0  0
   -1.7480   22.4400  -28.1190 C   0  0  0  0  0  0  0  0  0  0  0  0
   -2.4000   23.3010  -27.1660 N   0  0  0  0  0  0  0  0  0  0  0  0
   -1.6360   24.0790  -26.1940 C   0  0  0  0  0  0  0  0  0  0  0  0
   -2.2170   25.4970  -26.1000 C   0  0  0  0  0  0  0  0  0  0  0  0
   -3.6190   25.4670  -25.8880 O   0  0  0  0  0  0  0  0  0  0  0  0
   -4.2660   24.8550  -26.9900 C   0  0  0  0  0  0  0  0  0  0  0  0
   -3.8620   23.3830  -27.1020 C   0  0  0  0  0  0  0  0  0  0  0  0
   -4.1640   22.9210  -30.7010 C   0  0  0  0  0  0  0  0  0  0  0  0
   -3.5060   21.6900  -30.8560 C   0  0  0  0  0  0  0  0  0  0  0  0
   -4.2290   20.5350  -31.1560 C   0  0  0  0  0  0  0  0  0  0  0  0
   -5.6140   20.5980  -31.3070 C   0  0  0  0  0  0  0  0  0  0  0  0
   -6.2910   21.8140  -31.1410 C   0  0  0  0  0  0  0  0  0  0  0  0
   -8.0500   21.8680  -31.2950 S   0  0  0  0  0  0  0  0  0  0  0  0
   -8.4410   23.1120  -32.0450 O   0  0  0  0  0  0  0  0  0  0  0  0
   -8.6700   21.9360  -29.9260 O   0  0  0  0  0  0  0  0  0  0  0  0
   -8.6590   20.4570  -32.1330 N   0  0  0  0  0  0  0  0  0  0  0  0
   -8.6580   19.2690  -31.2330 C   0  0  0  0  0  0  0  0  0  0  0  0
   -8.3110   17.9490  -31.9400 C   0  0  0  0  0  0  0  0  0  0  0  0
   -7.0320   18.1280  -32.7010 C   0  0  0  0  0  0  0  0  0  0  0  0
   -6.0250   17.1470  -32.7140 C   0  0  0  0  0  0  0  0  0  0  0  0
   -4.8510   17.3630  -33.4420 C   0  0  0  0  0  0  0  0  0  0  0  0
   -4.6930   18.5410  -34.1830 C   0  0  0  0  0  0  0  0  0  0  0  0
   -5.7070   19.5060  -34.1920 C   0  0  0  0  0  0  0  0  0  0  0  0
   -6.8700   19.3080  -33.4320 C   0  0  0  0  0  0  0  0  0  0  0  0
   -8.0150   20.2890  -33.4600 C   0  0  0  0  0  0  0  0  0  0  0  0
   -5.5590   22.9750  -30.8570 C   0  0  0  0  0  0  0  0  0  0  0  0
   -0.3634   22.4954  -31.2603 H   0  0  0  0  0  0  0  0  0  0  0  0
    0.4490   20.2588  -30.5048 H   0  0  0  0  0  0  0  0  0  0  0  0
   -0.1838   19.3926  -28.2494 H   0  0  0  0  0  0  0  0  0  0  0  0
   -1.5397   20.8043  -26.7030 H   0  0  0  0  0  0  0  0  0  0  0  0
   -1.6944   23.5932  -25.2088 H   0  0  0  0  0  0  0  0  0  0  0  0
   -0.5853   24.1347  -26.5148 H   0  0  0  0  0  0  0  0  0  0  0  0
   -1.7392   26.0251  -25.2617 H   0  0  0  0  0  0  0  0  0  0  0  0
   -2.0208   26.0160  -27.0498 H   0  0  0  0  0  0  0  0  0  0  0  0
   -5.3553   24.9215  -26.8522 H   0  0  0  0  0  0  0  0  0  0  0  0
   -3.9666   25.3761  -27.9113 H   0  0  0  0  0  0  0  0  0  0  0  0
   -4.2256   22.8313  -26.2225 H   0  0  0  0  0  0  0  0  0  0  0  0
   -4.3024   22.9412  -28.0080 H   0  0  0  0  0  0  0  0  0  0  0  0
   -2.4135   21.6360  -30.7401 H   0  0  0  0  0  0  0  0  0  0  0  0
   -3.7063   19.5743  -31.2735 H   0  0  0  0  0  0  0  0  0  0  0  0
   -6.1785   19.6878  -31.5579 H   0  0  0  0  0  0  0  0  0  0  0  0
   -7.9189   19.4393  -30.4363 H   0  0  0  0  0  0  0  0  0  0  0  0
   -9.6819   19.1627  -30.8454 H   0  0  0  0  0  0  0  0  0  0  0  0
   -8.1877   17.1512  -31.1928 H   0  0  0  0  0  0  0  0  0  0  0  0
   -9.1206   17.6722  -32.6313 H   0  0  0  0  0  0  0  0  0  0  0  0
   -6.1605   16.2110  -32.1523 H   0  0  0  0  0  0  0  0  0  0  0  0
   -4.0514   16.6077  -33.4328 H   0  0  0  0  0  0  0  0  0  0  0  0
   -3.7707   18.7081  -34.7587 H   0  0  0  0  0  0  0  0  0  0  0  0
   -5.5923   20.4191  -34.7945 H   0  0  0  0  0  0  0  0  0  0  0  0
   -7.6333   21.2658  -33.7920 H   0  0  0  0  0  0  0  0  0  0  0  0
   -8.7747   19.8929  -34.1499 H   0  0  0  0  0  0  0  0  0  0  0  0
   -6.0818   23.9375  -30.7553 H   0  0  0  0  0  0  0  0  0  0  0  0
  1  2  2  0
  2  3  1  0
  3  4  1  0
  4  5  2  0
  5  6  1  0
  6  7  2  0
  7  8  1  0
  8  9  2  0
  9 10  1  0
 10 11  1  0
 11 12  1  0
 12 13  1  0
 13 14  1  0
 14 15  1  0
  2 16  1  0
 16 17  2  0
 17 18  1  0
 18 19  2  0
 19 20  1  0
 20 21  1  0
 21 22  2  0
 21 23  2  0
 21 24  1  0
 24 25  1  0
 25 26  1  0
 26 27  1  0
 27 28  2  0
 28 29  1  0
 29 30  2  0
 30 31  1  0
 31 32  2  0
 32 33  1  0
 20 34  2  0
  9  4  1  0
 15 10  1  0
 34 16  1  0
 33 24  1  0
 32 27  1  0
  5 35  1  0
  6 36  1  0
  7 37  1  0
  8 38  1  0
 11 39  1  0
 11 40  1  0
 12 41  1  0
 12 42  1  0
 14 43  1  0
 14 44  1  0
 15 45  1  0
 15 46  1  0
 17 47  1  0
 18 48  1  0
 19 49  1  0
 25 50  1  0
 25 51  1  0
 26 52  1  0
 26 53  1  0
 28 54  1  0
 29 55  1  0
 30 56  1  0
 31 57  1  0
 33 58  1  0
 33 59  1  0
 34 60  1  0
M  CHG  1   3  -1
M  END
>  <UniqueID>  (41) 
41

>  <SMILES>  (41) 
O=C([N-]c1ccccc1N1CCOCC1)c1cccc(S(=O)(=O)N2CCc3ccccc3C2)c1

>  <Energy>  (41) 
84.30156572246344

>  <Genealogy>  (41) 
O=C([N-]c1ccccc1N1CCOCC1)c1cccc(S(=O)(=O)N2CCc3ccccc3C2)c1 (protonated)
O=C([N-]c1ccccc1N1CCOCC1)c1cccc(S(=O)(=O)N2CCc3ccccc3C2)c1 (3D coordinates assigned)
O=C([N-]c1ccccc1N1CCOCC1)c1cccc(S(=O)(=O)N2CCc3ccccc3C2)c1 (nonaromatic ring conformer: 84.30156572246344 kcal/mol)

>  <smiles>  (41) 
O=C(Nc1ccccc1N1CCOCC1)c1cccc(S(=O)(=O)N2CCc3ccccc3C2)c1

>  <score_type>  (41) 
oracle

>  <origin>  (41) 
adgpu

>  <m_score__min__energy>  (41) 
-11.19

>  <m_primary>  (41) 
energy

$$$$
41:0
     RDKit          3D

 60 63  0  0  0  0  0  0  0  0999 V2000
   -1.1970   17.6030  -34.6630 C   0  0  0  0  0  0  0  0  0  0  0  0
   -1.4220   19.0060  -34.7400 O   0  0  0  0  0  0  0  0  0  0  0  0
   -1.9220   19.7900  -33.6880 C   0  0  0  0  0  0  0  0  0  0  0  0
   -1.1170   20.7210  -33.0020 C   0  0  0  0  0  0  0  0  0  0  0  0
   -1.6530   21.4900  -31.9700 C   0  0  0  0  0  0  0  0  0  0  0  0
   -3.0020   21.3610  -31.6150 C   0  0  0  0  0  0  0  0  0  0  0  0
   -3.5910   22.2270  -30.5720 C   0  0  0  0  0  0  0  0  0  0  0  0
   -4.8430   22.2550  -30.4320 O   0  0  0  0  0  0  0  0  0  0  0  0
   -2.7500   23.0730  -29.6950 C   0  0  0  0  0  0  0  0  0  0  0  0
   -2.7310   24.4540  -29.6790 C   0  0  0  0  0  0  0  0  0  0  0  0
   -3.5100   25.3020  -30.4570 O   0  0  0  0  0  0  0  0  0  0  0  0
   -1.7970   24.8410  -28.7460 C   0  0  0  0  0  0  0  0  0  0  0  0
   -1.4620   26.1540  -28.4280 O   0  0  0  0  0  0  0  0  0  0  0  0
   -1.2230   23.7580  -28.1810 N   0  0  0  0  0  0  0  0  0  0  0  0
   -0.1360   23.7900  -27.1970 C   0  0  0  0  0  0  0  0  0  0  0  0
   -0.6610   24.2210  -25.8260 C   0  0  0  0  0  0  0  0  0  0  0  0
    0.3200   25.1160  -25.1710 N   0  0  0  0  0  0  0  0  0  0  0  0
   -0.2510   25.8090  -23.9990 C   0  0  0  0  0  0  0  0  0  0  0  0
   -1.2830   26.8830  -24.4160 C   0  0  0  0  0  0  0  0  0  0  0  0
   -1.2210   27.2060  -25.7950 O   0  0  0  0  0  0  0  0  0  0  0  0
    0.1210   27.4090  -26.1840 C   0  0  0  0  0  0  0  0  0  0  0  0
    0.9150   26.0880  -26.1180 C   0  0  0  0  0  0  0  0  0  0  0  0
   -1.7980   22.6690  -28.7540 C   0  0  0  0  0  0  0  0  0  0  0  0
   -1.3810   21.2740  -28.5020 C   0  0  0  0  0  0  0  0  0  0  0  0
   -0.2720   20.7310  -29.1710 C   0  0  0  0  0  0  0  0  0  0  0  0
    0.1650   19.4370  -28.8730 C   0  0  0  0  0  0  0  0  0  0  0  0
   -0.5030   18.6760  -27.9110 C   0  0  0  0  0  0  0  0  0  0  0  0
   -1.6110   19.2060  -27.2430 C   0  0  0  0  0  0  0  0  0  0  0  0
   -2.2720   18.4500  -26.2830 O   0  0  0  0  0  0  0  0  0  0  0  0
   -2.0510   20.5000  -27.5400 C   0  0  0  0  0  0  0  0  0  0  0  0
   -3.8000   20.4180  -32.2770 C   0  0  0  0  0  0  0  0  0  0  0  0
   -3.2670   19.6350  -33.3210 C   0  0  0  0  0  0  0  0  0  0  0  0
   -4.0450   18.6990  -34.0210 O   0  0  0  0  0  0  0  0  0  0  0  0
   -5.4690   18.6860  -34.0410 C   0  0  0  0  0  0  0  0  0  0  0  0
   -1.1479   17.2969  -33.6076 H   0  0  0  0  0  0  0  0  0  0  0  0
   -2.0214   17.0716  -35.1609 H   0  0  0  0  0  0  0  0  0  0  0  0
   -0.2478   17.3560  -35.1609 H   0  0  0  0  0  0  0  0  0  0  0  0
   -0.0601   20.8417  -33.2822 H   0  0  0  0  0  0  0  0  0  0  0  0
   -1.0121   22.2031  -31.4307 H   0  0  0  0  0  0  0  0  0  0  0  0
   -1.7830   26.5810  -27.5670 H   0  0  0  0  0  0  0  0  0  0  0  0
    0.3067   22.7864  -27.1151 H   0  0  0  0  0  0  0  0  0  0  0  0
    0.6215   24.5149  -27.5298 H   0  0  0  0  0  0  0  0  0  0  0  0
   -1.6148   24.7544  -25.9516 H   0  0  0  0  0  0  0  0  0  0  0  0
   -0.8139   23.3299  -25.1995 H   0  0  0  0  0  0  0  0  0  0  0  0
   -0.7475   25.0689  -23.3542 H   0  0  0  0  0  0  0  0  0  0  0  0
    0.5690   26.3107  -23.4643 H   0  0  0  0  0  0  0  0  0  0  0  0
   -2.2914   26.5066  -24.1893 H   0  0  0  0  0  0  0  0  0  0  0  0
   -1.0499   27.7989  -23.8531 H   0  0  0  0  0  0  0  0  0  0  0  0
    0.1439   27.7927  -27.2147 H   0  0  0  0  0  0  0  0  0  0  0  0
    0.5823   28.1330  -25.4963 H   0  0  0  0  0  0  0  0  0  0  0  0
    0.9339   25.6371  -27.1212 H   0  0  0  0  0  0  0  0  0  0  0  0
    1.9287   26.3243  -25.7621 H   0  0  0  0  0  0  0  0  0  0  0  0
    0.2545   21.3258  -29.9319 H   0  0  0  0  0  0  0  0  0  0  0  0
    1.0364   19.0174  -29.3970 H   0  0  0  0  0  0  0  0  0  0  0  0
   -0.1568   17.6581  -27.6786 H   0  0  0  0  0  0  0  0  0  0  0  0
   -2.9262   20.9137  -27.0176 H   0  0  0  0  0  0  0  0  0  0  0  0
   -4.8510   20.2878  -31.9794 H   0  0  0  0  0  0  0  0  0  0  0  0
   -5.8502   18.6825  -33.0092 H   0  0  0  0  0  0  0  0  0  0  0  0
   -5.8365   19.5808  -34.5646 H   0  0  0  0  0  0  0  0  0  0  0  0
   -5.8201   17.7846  -34.5646 H   0  0  0  0  0  0  0  0  0  0  0  0
  1  2  1  0
  2  3  1  0
  3  4  2  0
  4  5  1  0
  5  6  2  0
  6  7  1  0
  7  8  2  0
  7  9  1  0
  9 10  1  0
 10 11  1  0
 10 12  2  0
 12 13  1  0
 12 14  1  0
 14 15  1  0
 15 16  1  0
 16 17  1  0
 17 18  1  0
 18 19  1  0
 19 20  1  0
 20 21  1  0
 21 22  1  0
 14 23  1  0
 23 24  1  0
 24 25  2  0
 25 26  1  0
 26 27  2  0
 27 28  1  0
 28 29  1  0
 28 30  2  0
  6 31  1  0
 31 32  2  0
 32 33  1  0
 33 34  1  0
 32  3  1  0
 23  9  2  0
 30 24  1  0
 22 17  1  0
  1 35  1  0
  1 36  1  0
  1 37  1  0
  4 38  1  0
  5 39  1  0
 13 40  1  0
 15 41  1  0
 15 42  1  0
 16 43  1  0
 16 44  1  0
 18 45  1  0
 18 46  1  0
 19 47  1  0
 19 48  1  0
 21 49  1  0
 21 50  1  0
 22 51  1  0
 22 52  1  0
 25 53  1  0
 26 54  1  0
 27 55  1  0
 30 56  1  0
 31 57  1  0
 34 58  1  0
 34 59  1  0
 34 60  1  0
M  CHG  2  11  -1  29  -1
M  END
>  <UniqueID>  (42) 
42

>  <SMILES>  (42) 
COc1ccc(C(=O)c2c([O-])c(O)n(CCN3CCOCC3)c2-c2cccc([O-])c2)cc1OC

>  <Energy>  (42) 
109.67116590941716

>  <Genealogy>  (42) 
COc1ccc(C(=O)c2c([O-])c(O)n(CCN3CCOCC3)c2-c2cccc([O-])c2)cc1OC (protonated)
COc1ccc(C(=O)c2c([O-])c(O)n(CCN3CCOCC3)c2-c2cccc([O-])c2)cc1OC (3D coordinates assigned)
COc1ccc(C(=O)c2c([O-])c(O)n(CCN3CCOCC3)c2-c2cccc([O-])c2)cc1OC (nonaromatic ring conformer: 109.67116590941716 kcal/mol)

>  <smiles>  (42) 
COc1ccc(C(=O)c2c(O)c(O)n(CCN3CCOCC3)c2-c2cccc(O)c2)cc1OC

>  <score_type>  (42) 
oracle

>  <origin>  (42) 
adgpu

>  <m_score__min__energy>  (42) 
-11.35

>  <m_primary>  (42) 
energy

$$$$
42:0
     RDKit          3D

 48 50  0  0  0  0  0  0  0  0999 V2000
   -6.4470   14.7260  -34.1990 C   0  0  0  0  0  0  0  0  0  0  0  0
   -6.9490   16.0200  -33.8680 O   0  0  0  0  0  0  0  0  0  0  0  0
   -6.1550   17.1710  -33.7380 C   0  0  0  0  0  0  0  0  0  0  0  0
   -4.8870   17.2730  -34.3380 C   0  0  0  0  0  0  0  0  0  0  0  0
   -4.1390   18.4450  -34.2110 C   0  0  0  0  0  0  0  0  0  0  0  0
   -4.6430   19.5340  -33.4860 C   0  0  0  0  0  0  0  0  0  0  0  0
   -3.8660   20.8210  -33.4010 C   0  0  0  0  0  0  0  0  0  0  0  0
   -2.6300   20.6250  -32.6330 N   0  0  0  0  0  0  0  0  0  0  0  0
   -1.3670   20.5000  -33.3060 C   0  0  0  0  0  0  0  0  0  0  0  0
   -0.8690   21.5600  -34.0820 C   0  0  0  0  0  0  0  0  0  0  0  0
    0.3530   21.4330  -34.7470 C   0  0  0  0  0  0  0  0  0  0  0  0
    1.0860   20.2470  -34.6450 C   0  0  0  0  0  0  0  0  0  0  0  0
    0.5970   19.1880  -33.8750 C   0  0  0  0  0  0  0  0  0  0  0  0
   -0.6250   19.3130  -33.2060 C   0  0  0  0  0  0  0  0  0  0  0  0
   -2.6960   20.6040  -30.8930 S   0  0  0  0  0  0  0  0  0  0  0  0
   -4.0480   20.1380  -30.4280 O   0  0  0  0  0  0  0  0  0  0  0  0
   -1.6620   19.6400  -30.3810 O   0  0  0  0  0  0  0  0  0  0  0  0
   -2.4010   22.2180  -30.2460 C   0  0  0  0  0  0  0  0  0  0  0  0
   -1.2730   22.4730  -29.4520 C   0  0  0  0  0  0  0  0  0  0  0  0
   -1.0170   23.7680  -28.9880 C   0  0  0  0  0  0  0  0  0  0  0  0
   -1.8870   24.8140  -29.3130 C   0  0  0  0  0  0  0  0  0  0  0  0
   -1.6230   26.0990  -28.8540 O   0  0  0  0  0  0  0  0  0  0  0  0
   -3.0170   24.5640  -30.1000 C   0  0  0  0  0  0  0  0  0  0  0  0
   -3.8830   25.6010  -30.4310 O   0  0  0  0  0  0  0  0  0  0  0  0
   -3.2760   23.2680  -30.5620 C   0  0  0  0  0  0  0  0  0  0  0  0
   -5.8900   19.4190  -32.8520 C   0  0  0  0  0  0  0  0  0  0  0  0
   -6.6570   18.2470  -32.9880 C   0  0  0  0  0  0  0  0  0  0  0  0
   -7.9250   18.1210  -32.4050 O   0  0  0  0  0  0  0  0  0  0  0  0
   -8.7390   19.2180  -32.0020 C   0  0  0  0  0  0  0  0  0  0  0  0
   -6.2310   14.1692  -33.2753 H   0  0  0  0  0  0  0  0  0  0  0  0
   -7.1988   14.1808  -34.7885 H   0  0  0  0  0  0  0  0  0  0  0  0
   -5.5242   14.8305  -34.7885 H   0  0  0  0  0  0  0  0  0  0  0  0
   -4.4826   16.4251  -34.9102 H   0  0  0  0  0  0  0  0  0  0  0  0
   -3.1478   18.5144  -34.6828 H   0  0  0  0  0  0  0  0  0  0  0  0
   -3.6116   21.1582  -34.4167 H   0  0  0  0  0  0  0  0  0  0  0  0
   -4.4838   21.5771  -32.8944 H   0  0  0  0  0  0  0  0  0  0  0  0
   -1.4438   22.4941  -34.1663 H   0  0  0  0  0  0  0  0  0  0  0  0
    0.7388   22.2671  -35.3515 H   0  0  0  0  0  0  0  0  0  0  0  0
    2.0472   20.1473  -35.1705 H   0  0  0  0  0  0  0  0  0  0  0  0
    1.1740   18.2549  -33.7950 H   0  0  0  0  0  0  0  0  0  0  0  0
   -1.0057   18.4781  -32.5994 H   0  0  0  0  0  0  0  0  0  0  0  0
   -0.5876   21.6524  -29.1934 H   0  0  0  0  0  0  0  0  0  0  0  0
   -0.1305   23.9637  -28.3669 H   0  0  0  0  0  0  0  0  0  0  0  0
   -4.1684   23.0725  -31.1747 H   0  0  0  0  0  0  0  0  0  0  0  0
   -6.2711   20.2523  -32.2435 H   0  0  0  0  0  0  0  0  0  0  0  0
   -8.7737   19.2648  -30.9035 H   0  0  0  0  0  0  0  0  0  0  0  0
   -8.3147   20.1535  -32.3956 H   0  0  0  0  0  0  0  0  0  0  0  0
   -9.7573   19.0831  -32.3956 H   0  0  0  0  0  0  0  0  0  0  0  0
  1  2  1  0
  2  3  1  0
  3  4  2  0
  4  5  1  0
  5  6  2  0
  6  7  1  0
  7  8  1  0
  8  9  1  0
  9 10  2  0
 10 11  1  0
 11 12  2  0
 12 13  1  0
 13 14  2  0
  8 15  1  0
 15 16  2  0
 15 17  2  0
 15 18  1  0
 18 19  2  0
 19 20  1  0
 20 21  2  0
 21 22  1  0
 21 23  1  0
 23 24  1  0
 23 25  2  0
  6 26  1  0
 26 27  2  0
 27 28  1  0
 28 29  1  0
 27  3  1  0
 14  9  1  0
 25 18  1  0
  1 30  1  0
  1 31  1  0
  1 32  1  0
  4 33  1  0
  5 34  1  0
  7 35  1  0
  7 36  1  0
 10 37  1  0
 11 38  1  0
 12 39  1  0
 13 40  1  0
 14 41  1  0
 19 42  1  0
 20 43  1  0
 25 44  1  0
 26 45  1  0
 29 46  1  0
 29 47  1  0
 29 48  1  0
M  CHG  2  22  -1  24  -1
M  END
>  <UniqueID>  (43) 
43

>  <SMILES>  (43) 
COc1ccc(CN(c2ccccc2)S(=O)(=O)c2ccc([O-])c([O-])c2)cc1OC

>  <Energy>  (43) 
50.17638448596916

>  <Genealogy>  (43) 
COc1ccc(CN(c2ccccc2)S(=O)(=O)c2ccc([O-])c([O-])c2)cc1OC (protonated)
COc1ccc(CN(c2ccccc2)S(=O)(=O)c2ccc([O-])c([O-])c2)cc1OC (3D coordinates assigned)
COc1ccc(CN(c2ccccc2)S(=O)(=O)c2ccc([O-])c([O-])c2)cc1OC (optimized conformer: 50.17638448596916 kcal/mol)

>  <smiles>  (43) 
COc1ccc(CN(c2ccccc2)S(=O)(=O)c2ccc(O)c(O)c2)cc1OC

>  <score_type>  (43) 
oracle

>  <origin>  (43) 
adgpu

>  <m_score__min__energy>  (43) 
-12.51

>  <m_primary>  (43) 
energy

$$$$
43:0
     RDKit          3D

 26 27  0  0  0  0  0  0  0  0999 V2000
   -5.9750   25.5390  -30.3050 O   0  0  0  0  0  0  0  0  0  0  0  0
   -4.9900   24.9520  -30.8290 C   0  0  0  0  0  0  0  0  0  0  0  0
   -5.2210   24.0240  -31.8940 N   0  0  0  0  0  0  0  0  0  0  0  0
   -6.2800   23.0570  -31.9520 C   0  0  0  0  0  0  0  0  0  0  0  0
   -7.5720   23.4480  -31.5760 C   0  0  0  0  0  0  0  0  0  0  0  0
   -8.6240   22.5280  -31.6010 C   0  0  0  0  0  0  0  0  0  0  0  0
   -8.3900   21.2060  -31.9840 C   0  0  0  0  0  0  0  0  0  0  0  0
   -7.0990   20.7970  -32.3350 C   0  0  0  0  0  0  0  0  0  0  0  0
   -6.7990   19.1300  -32.7890 Cl  0  0  0  0  0  0  0  0  0  0  0  0
   -6.0440   21.7160  -32.3110 C   0  0  0  0  0  0  0  0  0  0  0  0
   -3.6550   25.2950  -30.4380 N   0  0  0  0  0  0  0  0  0  0  0  0
   -2.8320   24.5440  -29.5340 C   0  0  0  0  0  0  0  0  0  0  0  0
   -3.2630   23.2730  -29.1360 C   0  0  0  0  0  0  0  0  0  0  0  0
   -2.4980   22.5090  -28.2480 C   0  0  0  0  0  0  0  0  0  0  0  0
   -3.0380   20.9090  -27.7750 Cl  0  0  0  0  0  0  0  0  0  0  0  0
   -1.3030   23.0240  -27.7370 C   0  0  0  0  0  0  0  0  0  0  0  0
   -0.8820   24.3040  -28.1010 C   0  0  0  0  0  0  0  0  0  0  0  0
   -1.6460   25.0750  -28.9840 C   0  0  0  0  0  0  0  0  0  0  0  0
   -1.2370   26.3700  -29.2780 O   0  0  0  0  0  0  0  0  0  0  0  0
   -7.7594   24.4847  -31.2594 H   0  0  0  0  0  0  0  0  0  0  0  0
   -9.6383   22.8462  -31.3183 H   0  0  0  0  0  0  0  0  0  0  0  0
   -9.2210   20.4857  -32.0098 H   0  0  0  0  0  0  0  0  0  0  0  0
   -5.0268   21.3897  -32.5735 H   0  0  0  0  0  0  0  0  0  0  0  0
   -4.2107   22.8717  -29.5245 H   0  0  0  0  0  0  0  0  0  0  0  0
   -0.6943   22.4202  -27.0478 H   0  0  0  0  0  0  0  0  0  0  0  0
    0.0553   24.7088  -27.6916 H   0  0  0  0  0  0  0  0  0  0  0  0
  1  2  2  0
  2  3  1  0
  3  4  1  0
  4  5  2  0
  5  6  1  0
  6  7  2  0
  7  8  1  0
  8  9  1  0
  8 10  2  0
  2 11  1  0
 11 12  1  0
 12 13  2  0
 13 14  1  0
 14 15  1  0
 14 16  2  0
 16 17  1  0
 17 18  2  0
 18 19  1  0
 10  4  1  0
 18 12  1  0
  5 20  1  0
  6 21  1  0
  7 22  1  0
 10 23  1  0
 13 24  1  0
 16 25  1  0
 17 26  1  0
M  CHG  3   3  -1  11  -1  19  -1
M  END
>  <UniqueID>  (44) 
44

>  <SMILES>  (44) 
O=C([N-]c1cccc(Cl)c1)[N-]c1cc(Cl)ccc1[O-]

>  <Energy>  (44) 
35.42175525344512

>  <Genealogy>  (44) 
O=C([N-]c1cccc(Cl)c1)[N-]c1cc(Cl)ccc1[O-] (protonated)
O=C([N-]c1cccc(Cl)c1)[N-]c1cc(Cl)ccc1[O-] (3D coordinates assigned)
O=C([N-]c1cccc(Cl)c1)[N-]c1cc(Cl)ccc1[O-] (optimized conformer: 35.42175525344512 kcal/mol)

>  <smiles>  (44) 
O=C(Nc1cccc(Cl)c1)Nc1cc(Cl)ccc1O

>  <score_type>  (44) 
oracle

>  <origin>  (44) 
adgpu

>  <m_score__min__energy>  (44) 
-13.199999999999999

>  <m_primary>  (44) 
energy

$$$$
44:0
     RDKit          3D

 40 43  0  0  0  0  0  0  0  0999 V2000
   -2.6070   15.2640  -34.9860 C   0  0  0  0  0  0  0  0  0  0  0  0
   -3.7680   14.9950  -34.2070 O   0  0  0  0  0  0  0  0  0  0  0  0
   -4.5540   15.9800  -33.5870 C   0  0  0  0  0  0  0  0  0  0  0  0
   -4.9250   17.1690  -34.2450 C   0  0  0  0  0  0  0  0  0  0  0  0
   -5.7150   18.1290  -33.5920 C   0  0  0  0  0  0  0  0  0  0  0  0
   -6.0650   19.4150  -34.2870 C   0  0  0  0  0  0  0  0  0  0  0  0
   -6.1610   20.4940  -33.3100 N   0  0  0  0  0  0  0  0  0  0  0  0
   -5.1240   21.2040  -32.8770 N   0  0  0  0  0  0  0  0  0  0  0  0
   -5.5660   22.0550  -31.9160 C   0  0  0  0  0  0  0  0  0  0  0  0
   -4.6910   22.9950  -31.2010 C   0  0  0  0  0  0  0  0  0  0  0  0
   -4.8310   24.3350  -31.2360 N   0  0  0  0  0  0  0  0  0  0  0  0
   -3.8760   24.7890  -30.4840 O   0  0  0  0  0  0  0  0  0  0  0  0
   -3.1770   23.7870  -30.0100 C   0  0  0  0  0  0  0  0  0  0  0  0
   -2.0180   23.9370  -29.0860 C   0  0  0  0  0  0  0  0  0  0  0  0
   -3.6550   22.6020  -30.4320 N   0  0  0  0  0  0  0  0  0  0  0  0
   -6.9250   21.8540  -31.7360 C   0  0  0  0  0  0  0  0  0  0  0  0
   -7.8870   22.4050  -30.8900 C   0  0  0  0  0  0  0  0  0  0  0  0
   -9.1970   21.9020  -30.9940 C   0  0  0  0  0  0  0  0  0  0  0  0
   -9.4880   20.8760  -31.9260 C   0  0  0  0  0  0  0  0  0  0  0  0
   -8.5060   20.3700  -32.7310 N   0  0  0  0  0  0  0  0  0  0  0  0
   -7.2500   20.8710  -32.6210 C   0  0  0  0  0  0  0  0  0  0  0  0
   -6.1150   17.9070  -32.2670 C   0  0  0  0  0  0  0  0  0  0  0  0
   -5.7520   16.7300  -31.6110 C   0  0  0  0  0  0  0  0  0  0  0  0
   -4.9750   15.7660  -32.2660 C   0  0  0  0  0  0  0  0  0  0  0  0
   -4.6120   14.5910  -31.6100 O   0  0  0  0  0  0  0  0  0  0  0  0
   -1.7552   15.4614  -34.3185 H   0  0  0  0  0  0  0  0  0  0  0  0
   -2.3817   14.3943  -35.6207 H   0  0  0  0  0  0  0  0  0  0  0  0
   -2.7871   16.1442  -35.6207 H   0  0  0  0  0  0  0  0  0  0  0  0
   -4.5932   17.3469  -35.2786 H   0  0  0  0  0  0  0  0  0  0  0  0
   -5.2839   19.6569  -35.0227 H   0  0  0  0  0  0  0  0  0  0  0  0
   -7.0324   19.3003  -34.7979 H   0  0  0  0  0  0  0  0  0  0  0  0
   -2.3706   23.8914  -28.0451 H   0  0  0  0  0  0  0  0  0  0  0  0
   -1.2985   23.1245  -29.2654 H   0  0  0  0  0  0  0  0  0  0  0  0
   -1.5291   24.9059  -29.2654 H   0  0  0  0  0  0  0  0  0  0  0  0
   -7.6326   23.1988  -30.1722 H   0  0  0  0  0  0  0  0  0  0  0  0
   -9.9942   22.3052  -30.3522 H   0  0  0  0  0  0  0  0  0  0  0  0
  -10.5126   20.4832  -32.0026 H   0  0  0  0  0  0  0  0  0  0  0  0
   -6.7173   18.6633  -31.7424 H   0  0  0  0  0  0  0  0  0  0  0  0
   -6.0777   16.5584  -30.5744 H   0  0  0  0  0  0  0  0  0  0  0  0
   -4.0620   13.8750  -32.0680 H   0  0  0  0  0  0  0  0  0  0  0  0
  1  2  1  0
  2  3  1  0
  3  4  2  0
  4  5  1  0
  5  6  1  0
  6  7  1  0
  7  8  1  0
  8  9  2  0
  9 10  1  0
 10 11  2  0
 11 12  1  0
 12 13  1  0
 13 14  1  0
 13 15  2  0
  9 16  1  0
 16 17  2  0
 17 18  1  0
 18 19  2  0
 19 20  1  0
 20 21  2  0
  5 22  2  0
 22 23  1  0
 23 24  2  0
 24 25  1  0
 24  3  1  0
 21  7  1  0
 15 10  1  0
 21 16  1  0
  1 26  1  0
  1 27  1  0
  1 28  1  0
  4 29  1  0
  6 30  1  0
  6 31  1  0
 14 32  1  0
 14 33  1  0
 14 34  1  0
 17 35  1  0
 18 36  1  0
 19 37  1  0
 22 38  1  0
 23 39  1  0
 25 40  1  0
M  END
>  <UniqueID>  (45) 
45

>  <SMILES>  (45) 
COc1cc(Cn2nc(-c3noc(C)n3)c3cccnc32)ccc1O

>  <Energy>  (45) 
114.30958656737978

>  <Genealogy>  (45) 
COc1cc(Cn2nc(-c3noc(C)n3)c3cccnc32)ccc1O (3D coordinates assigned)
COc1cc(Cn2nc(-c3noc(C)n3)c3cccnc32)ccc1O (optimized conformer: 114.30958656737978 kcal/mol)

>  <smiles>  (45) 
COc1cc(Cn2nc(-c3noc(C)n3)c3cccnc32)ccc1O

>  <score_type>  (45) 
oracle

>  <origin>  (45) 
adgpu

>  <m_score__min__energy>  (45) 
-8.1500000000000004

>  <m_primary>  (45) 
energy

$$$$
45:0
     RDKit          3D

 45 48  0  0  0  0  0  0  0  0999 V2000
   -1.2400   26.5080  -30.1840 H   0  0  0  0  0  0  0  0  0  0  0  0
   -1.1070   26.1620  -29.2410 O   0  0  0  0  0  0  0  0  0  0  0  0
   -1.6890   24.9690  -28.8140 C   0  0  0  0  0  0  0  0  0  0  0  0
   -1.0840   24.2030  -27.8080 C   0  0  0  0  0  0  0  0  0  0  0  0
   -0.1421   24.5424  -27.3524 H   0  0  0  0  0  0  0  0  0  0  0  0
   -1.6730   23.0100  -27.3820 C   0  0  0  0  0  0  0  0  0  0  0  0
   -1.1841   22.4056  -26.6037 H   0  0  0  0  0  0  0  0  0  0  0  0
   -2.8850   22.5790  -27.9420 C   0  0  0  0  0  0  0  0  0  0  0  0
   -3.4720   21.2960  -27.4930 C   0  0  0  0  0  0  0  0  0  0  0  0
   -4.4342   21.3361  -26.9614 H   0  0  0  0  0  0  0  0  0  0  0  0
   -2.9200   20.0880  -27.6850 C   0  0  0  0  0  0  0  0  0  0  0  0
   -3.3907   19.2283  -27.1857 H   0  0  0  0  0  0  0  0  0  0  0  0
   -1.7300   19.8270  -28.5150 C   0  0  0  0  0  0  0  0  0  0  0  0
   -1.5490   20.5550  -29.6480 N   0  0  0  0  0  0  0  0  0  0  0  0
   -0.4810   20.3690  -30.4730 C   0  0  0  0  0  0  0  0  0  0  0  0
   -0.3360   21.1700  -31.7070 C   0  0  0  0  0  0  0  0  0  0  0  0
    0.6839   21.3848  -32.0588 H   0  0  0  0  0  0  0  0  0  0  0  0
   -1.3580   21.6540  -32.4290 C   0  0  0  0  0  0  0  0  0  0  0  0
   -1.1176   22.3548  -33.2421 H   0  0  0  0  0  0  0  0  0  0  0  0
   -2.7810   21.3190  -32.2170 C   0  0  0  0  0  0  0  0  0  0  0  0
   -3.6670   22.3250  -31.9930 N   0  0  0  0  0  0  0  0  0  0  0  0
   -4.9940   22.0890  -31.8030 C   0  0  0  0  0  0  0  0  0  0  0  0
   -5.8690   23.1530  -31.5570 C   0  0  0  0  0  0  0  0  0  0  0  0
   -5.4862   24.1837  -31.5225 H   0  0  0  0  0  0  0  0  0  0  0  0
   -7.2310   22.9050  -31.3550 C   0  0  0  0  0  0  0  0  0  0  0  0
   -7.9179   23.7420  -31.1610 H   0  0  0  0  0  0  0  0  0  0  0  0
   -7.7220   21.5960  -31.3990 C   0  0  0  0  0  0  0  0  0  0  0  0
   -8.7938   21.4071  -31.2388 H   0  0  0  0  0  0  0  0  0  0  0  0
   -6.8550   20.5260  -31.6460 C   0  0  0  0  0  0  0  0  0  0  0  0
   -7.2448   19.4979  -31.6802 H   0  0  0  0  0  0  0  0  0  0  0  0
   -5.4880   20.7660  -31.8500 C   0  0  0  0  0  0  0  0  0  0  0  0
   -4.5970   19.7190  -32.1090 C   0  0  0  0  0  0  0  0  0  0  0  0
   -4.9625   18.6826  -32.1573 H   0  0  0  0  0  0  0  0  0  0  0  0
   -3.2420   19.9940  -32.3060 C   0  0  0  0  0  0  0  0  0  0  0  0
   -2.5391   19.1780  -32.5297 H   0  0  0  0  0  0  0  0  0  0  0  0
    0.5060   19.4390  -30.1200 C   0  0  0  0  0  0  0  0  0  0  0  0
    1.3899   19.2986  -30.7595 H   0  0  0  0  0  0  0  0  0  0  0  0
    0.3580   18.6930  -28.9510 C   0  0  0  0  0  0  0  0  0  0  0  0
    1.1239   17.9558  -28.6682 H   0  0  0  0  0  0  0  0  0  0  0  0
   -0.7620   18.8820  -28.1400 C   0  0  0  0  0  0  0  0  0  0  0  0
   -0.8849   18.2967  -27.2168 H   0  0  0  0  0  0  0  0  0  0  0  0
   -3.4730   23.3360  -28.9710 C   0  0  0  0  0  0  0  0  0  0  0  0
   -4.4033   22.9870  -29.4429 H   0  0  0  0  0  0  0  0  0  0  0  0
   -2.8830   24.5290  -29.3980 C   0  0  0  0  0  0  0  0  0  0  0  0
   -3.4820   25.2730  -30.4080 O   0  0  0  0  0  0  0  0  0  0  0  0
  1  2  1  0
  2  3  1  0
  3  4  2  0
  4  5  1  0
  4  6  1  0
  6  7  1  0
  6  8  2  0
  8  9  1  0
  9 10  1  0
  9 11  2  0
 11 12  1  0
 11 13  1  0
 13 14  2  0
 14 15  1  0
 15 16  1  0
 16 17  1  0
 16 18  2  0
 18 19  1  0
 18 20  1  0
 20 21  2  0
 21 22  1  0
 22 23  2  0
 23 24  1  0
 23 25  1  0
 25 26  1  0
 25 27  2  0
 27 28  1  0
 27 29  1  0
 29 30  1  0
 29 31  2  0
 31 32  1  0
 32 33  1  0
 32 34  2  0
 34 35  1  0
 15 36  2  0
 36 37  1  0
 36 38  1  0
 38 39  1  0
 38 40  2  0
 40 41  1  0
  8 42  1  0
 42 43  1  0
 42 44  2  0
 44 45  1  0
 44  3  1  0
 40 13  1  0
 34 20  1  0
 31 22  1  0
M  CHG  1  45  -1
M  END
>  <UniqueID>  (46) 
46

>  <SMILES>  (46) 
[O-]c1cc(/C=C\c2cccc(/C=C\c3ccc4ccccc4n3)n2)ccc1O

>  <Energy>  (46) 
68.86770258548131

>  <Genealogy>  (46) 
[O-]c1cc(C=Cc2cccc(C=Cc3ccc4ccccc4n3)n2)ccc1O (protonated)
[O-]c1cc(/C=C\c2cccc(/C=C\c3ccc4ccccc4n3)n2)ccc1O (cis-trans isomerization)
[O-]c1cc(/C=C\c2cccc(/C=C\c3ccc4ccccc4n3)n2)ccc1O (3D coordinates assigned)
[O-]c1cc(/C=C\c2cccc(/C=C\c3ccc4ccccc4n3)n2)ccc1O (optimized conformer: 68.86770258548131 kcal/mol)

>  <smiles>  (46) 
Oc1ccc(C=Cc2cccc(C=Cc3ccc4ccccc4n3)n2)cc1O

>  <score_type>  (46) 
oracle

>  <origin>  (46) 
adgpu

>  <m_score__min__energy>  (46) 
-13.529999999999999

>  <m_primary>  (46) 
energy

$$$$
46:0
     RDKit          3D

 61 65  0  0  0  0  0  0  0  0999 V2000
    1.1630   17.3450  -27.8120 C   0  0  0  0  0  0  0  0  0  0  0  0
    0.2160   18.2090  -28.5190 N   0  0  0  0  0  0  0  0  0  0  0  0
    0.3250   18.3450  -29.9740 C   0  0  0  0  0  0  0  0  0  0  0  0
   -0.8570   18.8260  -27.7820 C   0  0  0  0  0  0  0  0  0  0  0  0
   -1.3850   18.2030  -26.8230 O   0  0  0  0  0  0  0  0  0  0  0  0
   -1.3460   20.1820  -28.1020 C   0  0  0  0  0  0  0  0  0  0  0  0
   -1.9310   20.5800  -29.3040 C   0  0  0  0  0  0  0  0  0  0  0  0
   -2.1870   21.9260  -29.1480 C   0  0  0  0  0  0  0  0  0  0  0  0
   -2.7660   22.8450  -30.0190 C   0  0  0  0  0  0  0  0  0  0  0  0
   -2.8910   24.1810  -29.5890 C   0  0  0  0  0  0  0  0  0  0  0  0
   -3.5060   25.1330  -30.4700 N   0  0  0  0  0  0  0  0  0  0  0  0
   -4.9140   25.2930  -30.6920 C   0  0  0  0  0  0  0  0  0  0  0  0
   -5.4310   26.4230  -30.4840 O   0  0  0  0  0  0  0  0  0  0  0  0
   -5.7800   24.1630  -31.1050 C   0  0  0  0  0  0  0  0  0  0  0  0
   -7.1230   24.1010  -30.7000 C   0  0  0  0  0  0  0  0  0  0  0  0
   -7.9300   23.0320  -31.0930 C   0  0  0  0  0  0  0  0  0  0  0  0
   -7.4120   22.0210  -31.9050 C   0  0  0  0  0  0  0  0  0  0  0  0
   -6.0750   22.0760  -32.3420 C   0  0  0  0  0  0  0  0  0  0  0  0
   -5.5100   21.0540  -33.1860 N   0  0  0  0  0  0  0  0  0  0  0  0
   -4.8640   19.8380  -32.6920 C   0  0  0  0  0  0  0  0  0  0  0  0
   -3.3950   19.8530  -33.0090 C   0  0  0  0  0  0  0  0  0  0  0  0
   -2.5490   20.9310  -32.7550 C   0  0  0  0  0  0  0  0  0  0  0  0
   -1.2960   20.5030  -33.1330 C   0  0  0  0  0  0  0  0  0  0  0  0
   -0.0670   21.1570  -33.0720 C   0  0  0  0  0  0  0  0  0  0  0  0
    1.0720   20.4570  -33.5050 C   0  0  0  0  0  0  0  0  0  0  0  0
    0.9580   19.1310  -33.9790 C   0  0  0  0  0  0  0  0  0  0  0  0
   -0.2950   18.4940  -34.0260 C   0  0  0  0  0  0  0  0  0  0  0  0
   -1.4150   19.2180  -33.5980 C   0  0  0  0  0  0  0  0  0  0  0  0
   -2.7010   18.8130  -33.5440 N   0  0  0  0  0  0  0  0  0  0  0  0
   -3.2160   17.4840  -33.8730 C   0  0  0  0  0  0  0  0  0  0  0  0
   -5.2680   23.1510  -31.9350 C   0  0  0  0  0  0  0  0  0  0  0  0
   -2.4580   24.5450  -28.2860 C   0  0  0  0  0  0  0  0  0  0  0  0
   -1.8730   23.5920  -27.4320 C   0  0  0  0  0  0  0  0  0  0  0  0
   -1.7530   22.2860  -27.9000 C   0  0  0  0  0  0  0  0  0  0  0  0
   -1.2310   21.2320  -27.2520 N   0  0  0  0  0  0  0  0  0  0  0  0
    1.0302   17.4662  -26.7268 H   0  0  0  0  0  0  0  0  0  0  0  0
    0.9798   16.2963  -28.0890 H   0  0  0  0  0  0  0  0  0  0  0  0
    2.1905   17.6233  -28.0890 H   0  0  0  0  0  0  0  0  0  0  0  0
    0.9963   19.1825  -30.2147 H   0  0  0  0  0  0  0  0  0  0  0  0
    0.7311   17.4156  -30.3997 H   0  0  0  0  0  0  0  0  0  0  0  0
   -0.6706   18.5390  -30.3997 H   0  0  0  0  0  0  0  0  0  0  0  0
   -2.1422   19.9559  -30.1848 H   0  0  0  0  0  0  0  0  0  0  0  0
   -3.1161   22.5367  -31.0152 H   0  0  0  0  0  0  0  0  0  0  0  0
   -7.5415   24.8993  -30.0695 H   0  0  0  0  0  0  0  0  0  0  0  0
   -8.9779   22.9858  -30.7618 H   0  0  0  0  0  0  0  0  0  0  0  0
   -8.0516   21.1777  -32.2046 H   0  0  0  0  0  0  0  0  0  0  0  0
   -5.6150   21.1520  -34.2220 H   0  0  0  0  0  0  0  0  0  0  0  0
   -4.9980   19.7748  -31.6020 H   0  0  0  0  0  0  0  0  0  0  0  0
   -5.3238   18.9677  -33.1831 H   0  0  0  0  0  0  0  0  0  0  0  0
   -2.8233   21.9127  -32.3415 H   0  0  0  0  0  0  0  0  0  0  0  0
    0.0091   22.1883  -32.6969 H   0  0  0  0  0  0  0  0  0  0  0  0
    2.0578   20.9442  -33.4747 H   0  0  0  0  0  0  0  0  0  0  0  0
    1.8567   18.5923  -34.3141 H   0  0  0  0  0  0  0  0  0  0  0  0
   -0.3923   17.4597  -34.3875 H   0  0  0  0  0  0  0  0  0  0  0  0
   -3.4294   16.9334  -32.9450 H   0  0  0  0  0  0  0  0  0  0  0  0
   -4.1404   17.5841  -34.4607 H   0  0  0  0  0  0  0  0  0  0  0  0
   -2.4655   16.9351  -34.4607 H   0  0  0  0  0  0  0  0  0  0  0  0
   -4.2215   23.2015  -32.2702 H   0  0  0  0  0  0  0  0  0  0  0  0
   -2.5813   25.5823  -27.9412 H   0  0  0  0  0  0  0  0  0  0  0  0
   -1.5218   23.8696  -26.4272 H   0  0  0  0  0  0  0  0  0  0  0  0
   -0.8250   21.2260  -26.2900 H   0  0  0  0  0  0  0  0  0  0  0  0
  1  2  1  0
  2  3  1  0
  2  4  1  0
  4  5  2  0
  4  6  1  0
  6  7  2  0
  7  8  1  0
  8  9  2  0
  9 10  1  0
 10 11  1  0
 11 12  1  0
 12 13  2  0
 12 14  1  0
 14 15  2  0
 15 16  1  0
 16 17  2  0
 17 18  1  0
 18 19  1  0
 19 20  1  0
 20 21  1  0
 21 22  2  0
 22 23  1  0
 23 24  2  0
 24 25  1  0
 25 26  2  0
 26 27  1  0
 27 28  2  0
 28 29  1  0
 29 30  1  0
 18 31  2  0
 10 32  2  0
 32 33  1  0
 33 34  2  0
 34 35  1  0
 35  6  1  0
 34  8  1  0
 31 14  1  0
 29 21  1  0
 28 23  1  0
  1 36  1  0
  1 37  1  0
  1 38  1  0
  3 39  1  0
  3 40  1  0
  3 41  1  0
  7 42  1  0
  9 43  1  0
 15 44  1  0
 16 45  1  0
 17 46  1  0
 19 47  1  0
 20 48  1  0
 20 49  1  0
 22 50  1  0
 24 51  1  0
 25 52  1  0
 26 53  1  0
 27 54  1  0
 30 55  1  0
 30 56  1  0
 30 57  1  0
 31 58  1  0
 32 59  1  0
 33 60  1  0
 35 61  1  0
M  CHG  1  11  -1
M  END
>  <UniqueID>  (47) 
47

>  <SMILES>  (47) 
CN(C)C(=O)c1cc2cc([N-]C(=O)c3cccc(NCc4cc5ccccc5n4C)c3)ccc2[nH]1

>  <Energy>  (47) 
139.39308144270925

>  <Genealogy>  (47) 
CN(C)C(=O)c1cc2cc([N-]C(=O)c3cccc(NCc4cc5ccccc5n4C)c3)ccc2[nH]1 (protonated)
CN(C)C(=O)c1cc2cc([N-]C(=O)c3cccc(NCc4cc5ccccc5n4C)c3)ccc2[nH]1 (3D coordinates assigned)
CN(C)C(=O)c1cc2cc([N-]C(=O)c3cccc(NCc4cc5ccccc5n4C)c3)ccc2[nH]1 (optimized conformer: 139.39308144270925 kcal/mol)

>  <smiles>  (47) 
CN(C)C(=O)c1cc2cc(NC(=O)c3cccc(NCc4cc5ccccc5n4C)c3)ccc2[nH]1

>  <score_type>  (47) 
oracle

>  <origin>  (47) 
adgpu

>  <m_score__min__energy>  (47) 
-11.470000000000001

>  <m_primary>  (47) 
energy

$$$$
47:0
     RDKit          3D

 41 43  0  0  0  0  0  0  0  0999 V2000
   -4.9170   15.4220  -32.9870 C   0  0  0  0  0  0  0  0  0  0  0  0
   -4.8070   16.7600  -33.4610 O   0  0  0  0  0  0  0  0  0  0  0  0
   -5.7550   17.7670  -33.2230 C   0  0  0  0  0  0  0  0  0  0  0  0
   -5.4810   19.0550  -33.6860 C   0  0  0  0  0  0  0  0  0  0  0  0
   -6.3930   20.0900  -33.4840 C   0  0  0  0  0  0  0  0  0  0  0  0
   -7.6060   19.8610  -32.8120 C   0  0  0  0  0  0  0  0  0  0  0  0
   -8.5830   21.0130  -32.6890 C   0  0  0  0  0  0  0  0  0  0  0  0
   -8.5200   21.6760  -31.3040 C   0  0  0  0  0  0  0  0  0  0  0  0
   -7.2670   22.4810  -31.1290 C   0  0  0  0  0  0  0  0  0  0  0  0
   -6.3020   22.2720  -30.1660 C   0  0  0  0  0  0  0  0  0  0  0  0
   -5.3150   23.1850  -30.4910 C   0  0  0  0  0  0  0  0  0  0  0  0
   -4.0180   23.3870  -29.7970 C   0  0  0  0  0  0  0  0  0  0  0  0
   -3.4420   22.3460  -29.0440 C   0  0  0  0  0  0  0  0  0  0  0  0
   -2.2170   22.5290  -28.3980 C   0  0  0  0  0  0  0  0  0  0  0  0
   -1.5470   23.7490  -28.4960 C   0  0  0  0  0  0  0  0  0  0  0  0
   -0.3270   23.9210  -27.8500 O   0  0  0  0  0  0  0  0  0  0  0  0
   -2.1020   24.7930  -29.2410 C   0  0  0  0  0  0  0  0  0  0  0  0
   -1.4330   26.0080  -29.3370 O   0  0  0  0  0  0  0  0  0  0  0  0
   -3.3320   24.6180  -29.8920 C   0  0  0  0  0  0  0  0  0  0  0  0
   -3.8620   25.6770  -30.6240 O   0  0  0  0  0  0  0  0  0  0  0  0
   -5.7060   23.8550  -31.5520 O   0  0  0  0  0  0  0  0  0  0  0  0
   -6.8720   23.4550  -31.9680 N   0  0  0  0  0  0  0  0  0  0  0  0
   -7.8920   18.5570  -32.3310 C   0  0  0  0  0  0  0  0  0  0  0  0
   -9.1590   18.2480  -31.5770 C   0  0  0  0  0  0  0  0  0  0  0  0
   -6.9600   17.5230  -32.5410 C   0  0  0  0  0  0  0  0  0  0  0  0
   -4.9170   15.4215  -31.8870 H   0  0  0  0  0  0  0  0  0  0  0  0
   -5.8546   14.9789  -33.3539 H   0  0  0  0  0  0  0  0  0  0  0  0
   -4.0643   14.8318  -33.3539 H   0  0  0  0  0  0  0  0  0  0  0  0
   -4.5374   19.2551  -34.2148 H   0  0  0  0  0  0  0  0  0  0  0  0
   -6.1602   21.0989  -33.8554 H   0  0  0  0  0  0  0  0  0  0  0  0
   -8.3427   21.7657  -33.4543 H   0  0  0  0  0  0  0  0  0  0  0  0
   -9.5984   20.6137  -32.8286 H   0  0  0  0  0  0  0  0  0  0  0  0
   -9.3892   22.3400  -31.1871 H   0  0  0  0  0  0  0  0  0  0  0  0
   -8.5250   20.8811  -30.5436 H   0  0  0  0  0  0  0  0  0  0  0  0
   -6.3143   21.5502  -29.3360 H   0  0  0  0  0  0  0  0  0  0  0  0
   -3.9614   21.3797  -28.9637 H   0  0  0  0  0  0  0  0  0  0  0  0
   -1.7792   21.7087  -27.8102 H   0  0  0  0  0  0  0  0  0  0  0  0
   -8.9631   18.2958  -30.4956 H   0  0  0  0  0  0  0  0  0  0  0  0
   -9.9324   18.9839  -31.8424 H   0  0  0  0  0  0  0  0  0  0  0  0
   -9.5067   17.2387  -31.8424 H   0  0  0  0  0  0  0  0  0  0  0  0
   -7.1772   16.5116  -32.1669 H   0  0  0  0  0  0  0  0  0  0  0  0
  1  2  1  0
  2  3  1  0
  3  4  2  0
  4  5  1  0
  5  6  2  0
  6  7  1  0
  7  8  1  0
  8  9  1  0
  9 10  1  0
 10 11  2  0
 11 12  1  0
 12 13  2  0
 13 14  1  0
 14 15  2  0
 15 16  1  0
 15 17  1  0
 17 18  1  0
 17 19  2  0
 19 20  1  0
 11 21  1  0
 21 22  1  0
  6 23  1  0
 23 24  1  0
 23 25  2  0
 25  3  1  0
 22  9  2  0
 19 12  1  0
  1 26  1  0
  1 27  1  0
  1 28  1  0
  4 29  1  0
  5 30  1  0
  7 31  1  0
  7 32  1  0
  8 33  1  0
  8 34  1  0
 10 35  1  0
 13 36  1  0
 14 37  1  0
 24 38  1  0
 24 39  1  0
 24 40  1  0
 25 41  1  0
M  CHG  3  16  -1  18  -1  20  -1
M  END
>  <UniqueID>  (48) 
48

>  <SMILES>  (48) 
COc1ccc(CCc2cc(-c3ccc([O-])c([O-])c3[O-])on2)c(C)c1

>  <Energy>  (48) 
72.51862675598167

>  <Genealogy>  (48) 
COc1ccc(CCc2cc(-c3ccc([O-])c([O-])c3[O-])on2)c(C)c1 (protonated)
COc1ccc(CCc2cc(-c3ccc([O-])c([O-])c3[O-])on2)c(C)c1 (3D coordinates assigned)
COc1ccc(CCc2cc(-c3ccc([O-])c([O-])c3[O-])on2)c(C)c1 (optimized conformer: 72.51862675598167 kcal/mol)

>  <smiles>  (48) 
COc1ccc(CCc2cc(-c3ccc(O)c(O)c3O)on2)c(C)c1

>  <score_type>  (48) 
oracle

>  <origin>  (48) 
adgpu

>  <m_score__min__energy>  (48) 
-15.539999999999999

>  <m_primary>  (48) 
energy

$$$$
48:0
     RDKit          3D

 49 51  0  0  0  0  0  0  0  0999 V2000
   -8.7800   19.2170  -32.3930 C   0  0  0  0  0  0  0  0  0  0  0  0
   -7.8930   18.2830  -31.7860 O   0  0  0  0  0  0  0  0  0  0  0  0
   -6.7740   17.7210  -32.4200 C   0  0  0  0  0  0  0  0  0  0  0  0
   -6.8210   16.4510  -33.0290 C   0  0  0  0  0  0  0  0  0  0  0  0
   -5.6860   15.9240  -33.6500 C   0  0  0  0  0  0  0  0  0  0  0  0
   -4.4980   16.6540  -33.6700 C   0  0  0  0  0  0  0  0  0  0  0  0
   -4.4380   17.9140  -33.0700 C   0  0  0  0  0  0  0  0  0  0  0  0
   -5.5760   18.4550  -32.4420 C   0  0  0  0  0  0  0  0  0  0  0  0
   -5.5490   19.7460  -31.8150 N   0  0  0  0  0  0  0  0  0  0  0  0
   -5.6920   21.2670  -32.6370 S   0  0  0  0  0  0  0  0  0  0  0  0
   -4.4960   21.4510  -33.5270 O   0  0  0  0  0  0  0  0  0  0  0  0
   -6.9530   21.2710  -33.4540 O   0  0  0  0  0  0  0  0  0  0  0  0
   -5.7600   22.5890  -31.4590 C   0  0  0  0  0  0  0  0  0  0  0  0
   -4.5570   23.1150  -30.9600 C   0  0  0  0  0  0  0  0  0  0  0  0
   -4.5550   24.1660  -30.0310 C   0  0  0  0  0  0  0  0  0  0  0  0
   -3.2970   24.6750  -29.5490 N   0  0  0  0  0  0  0  0  0  0  0  0
   -2.3260   23.8580  -28.8180 C   0  0  0  0  0  0  0  0  0  0  0  0
   -1.6360   24.6740  -27.7540 C   0  0  0  0  0  0  0  0  0  0  0  0
   -1.5480   24.1820  -26.4410 C   0  0  0  0  0  0  0  0  0  0  0  0
   -0.9410   24.9440  -25.4360 C   0  0  0  0  0  0  0  0  0  0  0  0
   -0.8570   24.4330  -24.1420 O   0  0  0  0  0  0  0  0  0  0  0  0
   -0.4280   26.2110  -25.7380 C   0  0  0  0  0  0  0  0  0  0  0  0
   -0.5270   26.7160  -27.0370 C   0  0  0  0  0  0  0  0  0  0  0  0
   -1.1330   25.9580  -28.0430 C   0  0  0  0  0  0  0  0  0  0  0  0
   -1.2360   26.4860  -29.3260 O   0  0  0  0  0  0  0  0  0  0  0  0
   -5.7820   24.6940  -29.5980 C   0  0  0  0  0  0  0  0  0  0  0  0
   -6.9840   24.1760  -30.0800 C   0  0  0  0  0  0  0  0  0  0  0  0
   -6.9910   23.1170  -31.0020 C   0  0  0  0  0  0  0  0  0  0  0  0
   -8.3140   22.5980  -31.5030 C   0  0  0  0  0  0  0  0  0  0  0  0
   -9.3128   19.7781  -31.6112 H   0  0  0  0  0  0  0  0  0  0  0  0
   -8.2049   19.9157  -33.0184 H   0  0  0  0  0  0  0  0  0  0  0  0
   -9.5074   18.6787  -33.0184 H   0  0  0  0  0  0  0  0  0  0  0  0
   -7.7560   15.8718  -33.0153 H   0  0  0  0  0  0  0  0  0  0  0  0
   -5.7294   14.9322  -34.1237 H   0  0  0  0  0  0  0  0  0  0  0  0
   -3.6058   16.2365  -34.1596 H   0  0  0  0  0  0  0  0  0  0  0  0
   -3.4983   18.4855  -33.0882 H   0  0  0  0  0  0  0  0  0  0  0  0
   -3.5999   22.6955  -31.3036 H   0  0  0  0  0  0  0  0  0  0  0  0
   -3.0690   25.6800  -29.7320 H   0  0  0  0  0  0  0  0  0  0  0  0
   -2.8485   23.0142  -28.3437 H   0  0  0  0  0  0  0  0  0  0  0  0
   -1.5698   23.4892  -29.5266 H   0  0  0  0  0  0  0  0  0  0  0  0
   -1.9593   23.1904  -26.2010 H   0  0  0  0  0  0  0  0  0  0  0  0
    0.0000   24.4900  -23.6060 H   0  0  0  0  0  0  0  0  0  0  0  0
    0.0539   26.8100  -24.9513 H   0  0  0  0  0  0  0  0  0  0  0  0
   -0.1265   27.7139  -27.2689 H   0  0  0  0  0  0  0  0  0  0  0  0
   -5.7953   25.5218  -28.8737 H   0  0  0  0  0  0  0  0  0  0  0  0
   -7.9373   24.6019  -29.7339 H   0  0  0  0  0  0  0  0  0  0  0  0
   -8.9569   22.3458  -30.6468 H   0  0  0  0  0  0  0  0  0  0  0  0
   -8.8034   23.3708  -32.1140 H   0  0  0  0  0  0  0  0  0  0  0  0
   -8.1474   21.6986  -32.1140 H   0  0  0  0  0  0  0  0  0  0  0  0
  1  2  1  0
  2  3  1  0
  3  4  2  0
  4  5  1  0
  5  6  2  0
  6  7  1  0
  7  8  2  0
  8  9  1  0
  9 10  1  0
 10 11  2  0
 10 12  2  0
 10 13  1  0
 13 14  2  0
 14 15  1  0
 15 16  1  0
 16 17  1  0
 17 18  1  0
 18 19  2  0
 19 20  1  0
 20 21  1  0
 20 22  2  0
 22 23  1  0
 23 24  2  0
 24 25  1  0
 15 26  2  0
 26 27  1  0
 27 28  2  0
 28 29  1  0
  8  3  1  0
 28 13  1  0
 24 18  1  0
  1 30  1  0
  1 31  1  0
  1 32  1  0
  4 33  1  0
  5 34  1  0
  6 35  1  0
  7 36  1  0
 14 37  1  0
 16 38  1  0
 17 39  1  0
 17 40  1  0
 19 41  1  0
 21 42  1  0
 22 43  1  0
 23 44  1  0
 26 45  1  0
 27 46  1  0
 29 47  1  0
 29 48  1  0
 29 49  1  0
M  CHG  2   9  -1  25  -1
M  END
>  <UniqueID>  (49) 
49

>  <SMILES>  (49) 
COc1ccccc1[N-]S(=O)(=O)c1cc(NCc2cc(O)ccc2[O-])ccc1C

>  <Energy>  (49) 
56.40819321504745

>  <Genealogy>  (49) 
COc1ccccc1[N-]S(=O)(=O)c1cc(NCc2cc(O)ccc2[O-])ccc1C (protonated)
COc1ccccc1[N-]S(=O)(=O)c1cc(NCc2cc(O)ccc2[O-])ccc1C (3D coordinates assigned)
COc1ccccc1[N-]S(=O)(=O)c1cc(NCc2cc(O)ccc2[O-])ccc1C (optimized conformer: 56.40819321504745 kcal/mol)

>  <smiles>  (49) 
COc1ccccc1NS(=O)(=O)c1cc(NCc2cc(O)ccc2O)ccc1C

>  <score_type>  (49) 
oracle

>  <origin>  (49) 
adgpu

>  <m_score__min__energy>  (49) 
-12.34

>  <m_primary>  (49) 
energy

$$$$
49:0
     RDKit          3D

 55 57  0  0  0  0  0  0  0  0999 V2000
   -5.5050   18.0110  -34.1390 C   0  0  0  0  0  0  0  0  0  0  0  0
   -4.4310   18.8910  -34.4490 O   0  0  0  0  0  0  0  0  0  0  0  0
   -3.1170   18.7660  -33.9560 C   0  0  0  0  0  0  0  0  0  0  0  0
   -2.2040   19.7950  -34.2130 C   0  0  0  0  0  0  0  0  0  0  0  0
   -0.9010   19.7330  -33.7090 C   0  0  0  0  0  0  0  0  0  0  0  0
   -0.4940   18.6480  -32.9170 C   0  0  0  0  0  0  0  0  0  0  0  0
    0.7980   18.6010  -32.2910 N   0  0  0  0  0  0  0  0  0  0  0  0
    1.0400   18.4930  -30.8810 C   0  0  0  0  0  0  0  0  0  0  0  0
    2.1250   18.0200  -30.4400 O   0  0  0  0  0  0  0  0  0  0  0  0
    0.1200   19.1390  -29.9270 C   0  0  0  0  0  0  0  0  0  0  0  0
   -0.5430   20.3320  -30.2520 C   0  0  0  0  0  0  0  0  0  0  0  0
   -0.1510   21.0760  -31.3740 O   0  0  0  0  0  0  0  0  0  0  0  0
   -1.5640   20.7890  -29.4540 N   0  0  0  0  0  0  0  0  0  0  0  0
   -2.2350   22.0540  -29.7390 C   0  0  0  0  0  0  0  0  0  0  0  0
   -1.7230   23.2740  -29.2710 C   0  0  0  0  0  0  0  0  0  0  0  0
   -2.3930   24.4920  -29.4970 C   0  0  0  0  0  0  0  0  0  0  0  0
   -1.9710   25.6740  -28.8710 O   0  0  0  0  0  0  0  0  0  0  0  0
   -1.3780   25.7350  -27.5800 C   0  0  0  0  0  0  0  0  0  0  0  0
   -3.5360   24.5030  -30.3360 C   0  0  0  0  0  0  0  0  0  0  0  0
   -4.2180   25.6800  -30.6890 O   0  0  0  0  0  0  0  0  0  0  0  0
   -5.6020   25.9370  -30.4520 C   0  0  0  0  0  0  0  0  0  0  0  0
   -4.0400   23.2940  -30.8450 C   0  0  0  0  0  0  0  0  0  0  0  0
   -5.1650   23.3590  -31.6890 O   0  0  0  0  0  0  0  0  0  0  0  0
   -5.8120   22.2440  -32.2860 C   0  0  0  0  0  0  0  0  0  0  0  0
   -3.4220   22.0740  -30.4930 C   0  0  0  0  0  0  0  0  0  0  0  0
   -1.9540   20.0520  -28.3560 C   0  0  0  0  0  0  0  0  0  0  0  0
   -3.0340   20.3320  -27.7660 O   0  0  0  0  0  0  0  0  0  0  0  0
   -1.2030   18.9840  -27.9250 N   0  0  0  0  0  0  0  0  0  0  0  0
   -1.5660   18.2270  -26.7160 C   0  0  0  0  0  0  0  0  0  0  0  0
   -0.1910   18.5080  -28.7160 C   0  0  0  0  0  0  0  0  0  0  0  0
    0.4340   17.4580  -28.3870 O   0  0  0  0  0  0  0  0  0  0  0  0
   -1.3890   17.5910  -32.6970 C   0  0  0  0  0  0  0  0  0  0  0  0
   -2.6930   17.6510  -33.2120 C   0  0  0  0  0  0  0  0  0  0  0  0
   -5.6070   17.9274  -33.0469 H   0  0  0  0  0  0  0  0  0  0  0  0
   -6.4384   18.4073  -34.5652 H   0  0  0  0  0  0  0  0  0  0  0  0
   -5.3000   17.0179  -34.5652 H   0  0  0  0  0  0  0  0  0  0  0  0
   -2.5141   20.6605  -34.8170 H   0  0  0  0  0  0  0  0  0  0  0  0
   -0.1895   20.5409  -33.9350 H   0  0  0  0  0  0  0  0  0  0  0  0
    0.4870   20.7260  -32.0780 H   0  0  0  0  0  0  0  0  0  0  0  0
   -0.7746   23.2791  -28.7137 H   0  0  0  0  0  0  0  0  0  0  0  0
   -2.1617   25.6544  -26.8123 H   0  0  0  0  0  0  0  0  0  0  0  0
   -0.6649   24.9055  -27.4645 H   0  0  0  0  0  0  0  0  0  0  0  0
   -0.8487   26.6923  -27.4645 H   0  0  0  0  0  0  0  0  0  0  0  0
   -5.7882   25.9716  -29.3684 H   0  0  0  0  0  0  0  0  0  0  0  0
   -5.8782   26.9018  -30.9025 H   0  0  0  0  0  0  0  0  0  0  0  0
   -6.2061   25.1357  -30.9025 H   0  0  0  0  0  0  0  0  0  0  0  0
   -6.1977   21.5793  -31.4990 H   0  0  0  0  0  0  0  0  0  0  0  0
   -6.6465   22.5955  -32.9106 H   0  0  0  0  0  0  0  0  0  0  0  0
   -5.0928   21.6939  -32.9106 H   0  0  0  0  0  0  0  0  0  0  0  0
   -3.8760   21.1247  -30.8135 H   0  0  0  0  0  0  0  0  0  0  0  0
   -1.2881   18.8065  -25.8233 H   0  0  0  0  0  0  0  0  0  0  0  0
   -2.6504   18.0427  -26.7106 H   0  0  0  0  0  0  0  0  0  0  0  0
   -1.0307   17.2660  -26.7106 H   0  0  0  0  0  0  0  0  0  0  0  0
   -1.0678   16.7120  -32.1189 H   0  0  0  0  0  0  0  0  0  0  0  0
   -3.3893   16.8186  -33.0321 H   0  0  0  0  0  0  0  0  0  0  0  0
  1  2  1  0
  2  3  1  0
  3  4  2  0
  4  5  1  0
  5  6  2  0
  6  7  1  0
  7  8  1  0
  8  9  2  0
  8 10  1  0
 10 11  2  0
 11 12  1  0
 11 13  1  0
 13 14  1  0
 14 15  2  0
 15 16  1  0
 16 17  1  0
 17 18  1  0
 16 19  2  0
 19 20  1  0
 20 21  1  0
 19 22  1  0
 22 23  1  0
 23 24  1  0
 22 25  2  0
 13 26  1  0
 26 27  2  0
 26 28  1  0
 28 29  1  0
 28 30  1  0
 30 31  2  0
  6 32  1  0
 32 33  2  0
 33  3  1  0
 30 10  1  0
 25 14  1  0
  1 34  1  0
  1 35  1  0
  1 36  1  0
  4 37  1  0
  5 38  1  0
 12 39  1  0
 15 40  1  0
 18 41  1  0
 18 42  1  0
 18 43  1  0
 21 44  1  0
 21 45  1  0
 21 46  1  0
 24 47  1  0
 24 48  1  0
 24 49  1  0
 25 50  1  0
 29 51  1  0
 29 52  1  0
 29 53  1  0
 32 54  1  0
 33 55  1  0
M  CHG  1   7  -1
M  END
>  <UniqueID>  (50) 
50

>  <SMILES>  (50) 
COc1ccc([N-]C(=O)c2c(O)n(-c3cc(OC)c(OC)c(OC)c3)c(=O)n(C)c2=O)cc1

>  <Energy>  (50) 
92.11493601881699

>  <Genealogy>  (50) 
COc1ccc([N-]C(=O)c2c(O)n(-c3cc(OC)c(OC)c(OC)c3)c(=O)n(C)c2=O)cc1 (protonated)
COc1ccc([N-]C(=O)c2c(O)n(-c3cc(OC)c(OC)c(OC)c3)c(=O)n(C)c2=O)cc1 (3D coordinates assigned)
COc1ccc([N-]C(=O)c2c(O)n(-c3cc(OC)c(OC)c(OC)c3)c(=O)n(C)c2=O)cc1 (optimized conformer: 92.11493601881699 kcal/mol)

>  <smiles>  (50) 
COc1ccc(NC(=O)c2c(O)n(-c3cc(OC)c(OC)c(OC)c3)c(=O)n(C)c2=O)cc1

>  <score_type>  (50) 
oracle

>  <origin>  (50) 
adgpu

>  <m_score__min__energy>  (50) 
-8.0800000000000001

>  <m_primary>  (50) 
energy

$$$$
