0:0
     RDKit          3D

 27 28  0  0  0  0  0  0  0  0999 V2000
   -4.2920   24.9490  -30.5650 N   0  0  0  0  0  0  0  0  0  0  0  0
   -5.4230   24.1150  -30.8280 C   0  0  0  0  0  0  0  0  0  0  0  0
   -5.8990   23.2390  -29.8410 C   0  0  0  0  0  0  0  0  0  0  0  0
   -7.0040   22.4210  -30.0990 C   0  0  0  0  0  0  0  0  0  0  0  0
   -7.6370   22.4710  -31.3470 C   0  0  0  0  0  0  0  0  0  0  0  0
   -9.0530   21.4200  -31.6830 S   0  0  0  0  0  0  0  0  0  0  0  0
   -8.0350   20.0850  -32.3300 C   0  0  0  0  0  0  0  0  0  0  0  0
   -7.0970   20.3830  -33.3290 C   0  0  0  0  0  0  0  0  0  0  0  0
   -6.2710   19.3830  -33.8440 C   0  0  0  0  0  0  0  0  0  0  0  0
   -6.3780   18.0750  -33.3710 C   0  0  0  0  0  0  0  0  0  0  0  0
   -5.5740   17.1050  -33.8720 F   0  0  0  0  0  0  0  0  0  0  0  0
   -7.3170   17.7630  -32.3840 C   0  0  0  0  0  0  0  0  0  0  0  0
   -8.1570   18.7590  -31.8590 C   0  0  0  0  0  0  0  0  0  0  0  0
   -9.1260   18.4020  -30.8650 N   0  0  0  0  0  0  0  0  0  0  0  0
   -7.1700   23.3500  -32.3310 C   0  0  0  0  0  0  0  0  0  0  0  0
   -6.0640   24.1670  -32.0740 C   0  0  0  0  0  0  0  0  0  0  0  0
   -3.4650   24.9460  -31.2030 H   0  0  0  0  0  0  0  0  0  0  0  0
   -4.2730   25.5760  -29.7290 H   0  0  0  0  0  0  0  0  0  0  0  0
   -5.4016   23.1952  -28.8609 H   0  0  0  0  0  0  0  0  0  0  0  0
   -7.3759   21.7380  -29.3210 H   0  0  0  0  0  0  0  0  0  0  0  0
   -7.0118   21.4117  -33.7091 H   0  0  0  0  0  0  0  0  0  0  0  0
   -5.5346   19.6265  -34.6240 H   0  0  0  0  0  0  0  0  0  0  0  0
   -7.3989   16.7298  -32.0155 H   0  0  0  0  0  0  0  0  0  0  0  0
   -9.3990   19.0840  -30.1230 H   0  0  0  0  0  0  0  0  0  0  0  0
   -9.5610   17.4560  -30.8300 H   0  0  0  0  0  0  0  0  0  0  0  0
   -7.6734   23.3984  -33.3078 H   0  0  0  0  0  0  0  0  0  0  0  0
   -5.6960   24.8523  -32.8518 H   0  0  0  0  0  0  0  0  0  0  0  0
  1  2  1  0
  2  3  2  0
  3  4  1  0
  4  5  2  0
  5  6  1  0
  6  7  1  0
  7  8  2  0
  8  9  1  0
  9 10  2  0
 10 11  1  0
 10 12  1  0
 12 13  2  0
 13 14  1  0
  5 15  1  0
 15 16  2  0
 16  2  1  0
 13  7  1  0
  1 17  1  0
  1 18  1  0
  3 19  1  0
  4 20  1  0
  8 21  1  0
  9 22  1  0
 12 23  1  0
 14 24  1  0
 14 25  1  0
 15 26  1  0
 16 27  1  0
M  END
>  <UniqueID>  (1) 
1

>  <SMILES>  (1) 
Nc1ccc(Sc2ccc(F)cc2N)cc1

>  <Energy>  (1) 
22.63037419338829

>  <Genealogy>  (1) 
Nc1ccc(Sc2ccc(F)cc2N)cc1 (3D coordinates assigned)
Nc1ccc(Sc2ccc(F)cc2N)cc1 (optimized conformer: 22.63037419338829 kcal/mol)

>  <smiles>  (1) 
Nc1ccc(Sc2ccc(F)cc2N)cc1

>  <score_type>  (1) 
oracle

>  <origin>  (1) 
adgpu

>  <m_score__min__energy>  (1) 
-6.9400000000000004

>  <m_primary>  (1) 
energy

$$$$
1:0
     RDKit          3D

 49 50  0  0  0  0  0  0  0  0999 V2000
   -1.9540   20.7300  -32.2770 C   0  0  0  0  0  0  0  0  0  0  0  0
   -3.0850   19.7130  -32.4170 C   0  0  0  0  0  0  0  0  0  0  0  0
   -3.4350   19.4360  -33.8850 C   0  0  0  0  0  0  0  0  0  0  0  0
   -4.7520   18.7870  -34.0090 N   0  0  0  0  0  0  0  0  0  0  0  0
   -4.9110   17.6610  -34.9370 C   0  0  0  0  0  0  0  0  0  0  0  0
   -5.8820   19.2990  -33.2580 C   0  0  0  0  0  0  0  0  0  0  0  0
   -6.9190   18.4620  -32.8100 C   0  0  0  0  0  0  0  0  0  0  0  0
   -7.9860   19.0260  -32.1040 C   0  0  0  0  0  0  0  0  0  0  0  0
   -9.0970   18.1640  -31.5940 C   0  0  0  0  0  0  0  0  0  0  0  0
   -7.9940   20.3600  -31.8470 N   0  0  0  0  0  0  0  0  0  0  0  0
   -6.9880   21.1670  -32.2760 C   0  0  0  0  0  0  0  0  0  0  0  0
   -7.0220   22.5850  -32.0080 N   0  0  0  0  0  0  0  0  0  0  0  0
   -8.1840   23.3890  -32.4130 C   0  0  0  0  0  0  0  0  0  0  0  0
   -9.4890   22.7160  -31.9940 C   0  0  0  0  0  0  0  0  0  0  0  0
   -5.9230   23.2120  -31.3140 C   0  0  0  0  0  0  0  0  0  0  0  0
   -6.1700   24.2070  -30.3540 C   0  0  0  0  0  0  0  0  0  0  0  0
   -5.1130   24.8000  -29.6610 C   0  0  0  0  0  0  0  0  0  0  0  0
   -3.7850   24.4130  -29.9240 C   0  0  0  0  0  0  0  0  0  0  0  0
   -2.6910   24.9720  -29.2480 O   0  0  0  0  0  0  0  0  0  0  0  0
   -2.3770   24.7230  -27.8820 C   0  0  0  0  0  0  0  0  0  0  0  0
   -3.5400   23.4350  -30.8950 C   0  0  0  0  0  0  0  0  0  0  0  0
   -4.5980   22.8390  -31.5870 C   0  0  0  0  0  0  0  0  0  0  0  0
   -5.9540   20.6290  -32.9780 N   0  0  0  0  0  0  0  0  0  0  0  0
   -1.7532   20.9106  -31.2107 H   0  0  0  0  0  0  0  0  0  0  0  0
   -1.0466   20.3381  -32.7598 H   0  0  0  0  0  0  0  0  0  0  0  0
   -2.2477   21.6738  -32.7598 H   0  0  0  0  0  0  0  0  0  0  0  0
   -2.7748   18.7703  -31.9425 H   0  0  0  0  0  0  0  0  0  0  0  0
   -3.9780   20.1309  -31.9293 H   0  0  0  0  0  0  0  0  0  0  0  0
   -3.4519   20.3885  -34.4350 H   0  0  0  0  0  0  0  0  0  0  0  0
   -2.6743   18.7592  -34.3011 H   0  0  0  0  0  0  0  0  0  0  0  0
   -5.0424   16.7305  -34.3653 H   0  0  0  0  0  0  0  0  0  0  0  0
   -5.7942   17.8299  -35.5706 H   0  0  0  0  0  0  0  0  0  0  0  0
   -4.0156   17.5788  -35.5706 H   0  0  0  0  0  0  0  0  0  0  0  0
   -6.8914   17.3810  -33.0116 H   0  0  0  0  0  0  0  0  0  0  0  0
   -9.0900   18.1695  -30.4940 H   0  0  0  0  0  0  0  0  0  0  0  0
  -10.0596   18.5539  -31.9565 H   0  0  0  0  0  0  0  0  0  0  0  0
   -8.9585   17.1347  -31.9565 H   0  0  0  0  0  0  0  0  0  0  0  0
   -8.1205   24.3783  -31.9363 H   0  0  0  0  0  0  0  0  0  0  0  0
   -8.1769   23.4874  -33.5086 H   0  0  0  0  0  0  0  0  0  0  0  0
   -9.5494   22.6848  -30.8961 H   0  0  0  0  0  0  0  0  0  0  0  0
  -10.3405   23.2874  -32.3920 H   0  0  0  0  0  0  0  0  0  0  0  0
   -9.5172   21.6909  -32.3920 H   0  0  0  0  0  0  0  0  0  0  0  0
   -7.2036   24.5213  -30.1467 H   0  0  0  0  0  0  0  0  0  0  0  0
   -5.3186   25.5731  -28.9060 H   0  0  0  0  0  0  0  0  0  0  0  0
   -3.0759   25.2772  -27.2382 H   0  0  0  0  0  0  0  0  0  0  0  0
   -2.4643   23.6460  -27.6761 H   0  0  0  0  0  0  0  0  0  0  0  0
   -1.3482   25.0534  -27.6761 H   0  0  0  0  0  0  0  0  0  0  0  0
   -2.5055   23.1328  -31.1154 H   0  0  0  0  0  0  0  0  0  0  0  0
   -4.3910   22.0737  -32.3495 H   0  0  0  0  0  0  0  0  0  0  0  0
  1  2  1  0
  2  3  1  0
  3  4  1  0
  4  5  1  0
  4  6  1  0
  6  7  2  0
  7  8  1  0
  8  9  1  0
  8 10  2  0
 10 11  1  0
 11 12  1  0
 12 13  1  0
 13 14  1  0
 12 15  1  0
 15 16  2  0
 16 17  1  0
 17 18  2  0
 18 19  1  0
 19 20  1  0
 18 21  1  0
 21 22  2  0
 11 23  2  0
 23  6  1  0
 22 15  1  0
  1 24  1  0
  1 25  1  0
  1 26  1  0
  2 27  1  0
  2 28  1  0
  3 29  1  0
  3 30  1  0
  5 31  1  0
  5 32  1  0
  5 33  1  0
  7 34  1  0
  9 35  1  0
  9 36  1  0
  9 37  1  0
 13 38  1  0
 13 39  1  0
 14 40  1  0
 14 41  1  0
 14 42  1  0
 16 43  1  0
 17 44  1  0
 20 45  1  0
 20 46  1  0
 20 47  1  0
 21 48  1  0
 22 49  1  0
M  END
>  <UniqueID>  (2) 
2

>  <SMILES>  (2) 
CCCN(C)c1cc(C)nc(N(CC)c2ccc(OC)cc2)n1

>  <Energy>  (2) 
43.60982493598453

>  <Genealogy>  (2) 
CCCN(C)c1cc(C)nc(N(CC)c2ccc(OC)cc2)n1 (3D coordinates assigned)
CCCN(C)c1cc(C)nc(N(CC)c2ccc(OC)cc2)n1 (optimized conformer: 43.60982493598453 kcal/mol)

>  <smiles>  (2) 
CCCN(C)c1cc(C)nc(N(CC)c2ccc(OC)cc2)n1

>  <score_type>  (2) 
oracle

>  <origin>  (2) 
adgpu

>  <m_score__min__energy>  (2) 
-7.75

>  <m_primary>  (2) 
energy

$$$$
2:0
     RDKit          3D

 31 32  0  0  0  0  0  0  0  0999 V2000
   -2.7400   23.5960  -28.9230 O   0  0  0  0  0  0  0  0  0  0  0  0
   -2.6800   24.7600  -29.4030 C   0  0  0  0  0  0  0  0  0  0  0  0
   -3.5970   25.1740  -30.4210 N   0  0  0  0  0  0  0  0  0  0  0  0
   -4.8600   24.5690  -30.7320 C   0  0  0  0  0  0  0  0  0  0  0  0
   -4.9640   23.3960  -31.5010 C   0  0  0  0  0  0  0  0  0  0  0  0
   -6.2180   22.8370  -31.7530 C   0  0  0  0  0  0  0  0  0  0  0  0
   -7.3570   23.4460  -31.2250 C   0  0  0  0  0  0  0  0  0  0  0  0
   -7.2400   24.5660  -30.4640 N   0  0  0  0  0  0  0  0  0  0  0  0
   -6.0290   25.1290  -30.2040 C   0  0  0  0  0  0  0  0  0  0  0  0
   -1.6640   25.6730  -28.9720 N   0  0  0  0  0  0  0  0  0  0  0  0
   -1.0110   25.6790  -27.6610 C   0  0  0  0  0  0  0  0  0  0  0  0
   -2.0110   25.3000  -26.5490 C   0  0  0  0  0  0  0  0  0  0  0  0
   -1.3740   25.4890  -25.1680 C   0  0  0  0  0  0  0  0  0  0  0  0
   -0.8780   26.9320  -24.9280 C   0  0  0  0  0  0  0  0  0  0  0  0
   -0.8290   27.7950  -26.2010 C   0  0  0  0  0  0  0  0  0  0  0  0
   -0.2640   27.0150  -27.3970 C   0  0  0  0  0  0  0  0  0  0  0  0
   -4.0579   22.9195  -31.9035 H   0  0  0  0  0  0  0  0  0  0  0  0
   -6.3074   21.9253  -32.3619 H   0  0  0  0  0  0  0  0  0  0  0  0
   -8.3509   23.0191  -31.4249 H   0  0  0  0  0  0  0  0  0  0  0  0
   -5.9683   26.0295  -29.5752 H   0  0  0  0  0  0  0  0  0  0  0  0
   -0.2315   24.9029  -27.6555 H   0  0  0  0  0  0  0  0  0  0  0  0
   -2.9009   25.9417  -26.6282 H   0  0  0  0  0  0  0  0  0  0  0  0
   -2.2936   24.2437  -26.6692 H   0  0  0  0  0  0  0  0  0  0  0  0
   -2.1216   25.2424  -24.3998 H   0  0  0  0  0  0  0  0  0  0  0  0
   -0.4983   24.8254  -25.1145 H   0  0  0  0  0  0  0  0  0  0  0  0
   -1.5546   27.4154  -24.2079 H   0  0  0  0  0  0  0  0  0  0  0  0
    0.1536   26.8566  -24.5538 H   0  0  0  0  0  0  0  0  0  0  0  0
   -1.8483   28.1298  -26.4437 H   0  0  0  0  0  0  0  0  0  0  0  0
   -0.1669   28.6520  -26.0080 H   0  0  0  0  0  0  0  0  0  0  0  0
   -0.3448   27.6447  -28.2953 H   0  0  0  0  0  0  0  0  0  0  0  0
    0.7811   26.7654  -27.1616 H   0  0  0  0  0  0  0  0  0  0  0  0
  1  2  2  0
  2  3  1  0
  3  4  1  0
  4  5  2  0
  5  6  1  0
  6  7  2  0
  7  8  1  0
  8  9  2  0
  2 10  1  0
 10 11  1  0
 11 12  1  0
 12 13  1  0
 13 14  1  0
 14 15  1  0
 15 16  1  0
  9  4  1  0
 16 11  1  0
  5 17  1  0
  6 18  1  0
  7 19  1  0
  9 20  1  0
 11 21  1  0
 12 22  1  0
 12 23  1  0
 13 24  1  0
 13 25  1  0
 14 26  1  0
 14 27  1  0
 15 28  1  0
 15 29  1  0
 16 30  1  0
 16 31  1  0
M  CHG  2   3  -1  10  -1
M  END
>  <UniqueID>  (3) 
3

>  <SMILES>  (3) 
O=C([N-]c1cccnc1)[N-]C1CCCCC1

>  <Energy>  (3) 
36.26880340153905

>  <Genealogy>  (3) 
O=C([N-]c1cccnc1)[N-]C1CCCCC1 (protonated)
O=C([N-]c1cccnc1)[N-]C1CCCCC1 (3D coordinates assigned)
O=C([N-]c1cccnc1)[N-]C1CCCCC1 (nonaromatic ring conformer: 36.26880340153905 kcal/mol)

>  <smiles>  (3) 
O=C(Nc1cccnc1)NC1CCCCC1

>  <score_type>  (3) 
oracle

>  <origin>  (3) 
adgpu

>  <m_score__min__energy>  (3) 
-9.3900000000000006

>  <m_primary>  (3) 
energy

$$$$
3:0
     RDKit          3D

 47 49  0  0  0  0  0  0  0  0999 V2000
   -5.3650   16.3050  -31.9800 C   0  0  0  0  0  0  0  0  0  0  0  0
   -6.5620   16.6960  -32.6440 O   0  0  0  0  0  0  0  0  0  0  0  0
   -7.1580   17.9640  -32.5340 C   0  0  0  0  0  0  0  0  0  0  0  0
   -8.2000   18.2170  -31.6190 C   0  0  0  0  0  0  0  0  0  0  0  0
   -8.7600   19.4940  -31.5220 C   0  0  0  0  0  0  0  0  0  0  0  0
   -8.2930   20.5270  -32.3330 C   0  0  0  0  0  0  0  0  0  0  0  0
   -7.2660   20.2880  -33.2470 C   0  0  0  0  0  0  0  0  0  0  0  0
   -6.6960   19.0090  -33.3600 C   0  0  0  0  0  0  0  0  0  0  0  0
   -5.5430   18.7800  -34.3080 C   0  0  0  0  0  0  0  0  0  0  0  0
   -4.2660   19.0970  -33.6490 N   0  0  0  0  0  0  0  0  0  0  0  0
   -3.1080   18.2160  -33.8300 C   0  0  0  0  0  0  0  0  0  0  0  0
   -4.1540   20.2510  -32.7880 C   0  0  0  0  0  0  0  0  0  0  0  0
   -3.9770   20.0920  -31.4030 C   0  0  0  0  0  0  0  0  0  0  0  0
   -3.9290   21.2070  -30.5620 C   0  0  0  0  0  0  0  0  0  0  0  0
   -4.0500   22.4960  -31.0920 C   0  0  0  0  0  0  0  0  0  0  0  0
   -4.0520   23.8840  -30.0110 S   0  0  0  0  0  0  0  0  0  0  0  0
   -5.3360   23.9520  -29.2330 O   0  0  0  0  0  0  0  0  0  0  0  0
   -3.9150   25.1380  -30.8280 O   0  0  0  0  0  0  0  0  0  0  0  0
   -2.7090   23.7210  -28.8850 C   0  0  0  0  0  0  0  0  0  0  0  0
   -1.6200   24.6020  -28.9720 C   0  0  0  0  0  0  0  0  0  0  0  0
   -0.5560   24.4970  -28.0690 C   0  0  0  0  0  0  0  0  0  0  0  0
   -0.5750   23.5130  -27.0760 C   0  0  0  0  0  0  0  0  0  0  0  0
   -1.6590   22.6340  -26.9840 C   0  0  0  0  0  0  0  0  0  0  0  0
   -2.7240   22.7380  -27.8840 C   0  0  0  0  0  0  0  0  0  0  0  0
   -4.2130   22.6640  -32.4750 C   0  0  0  0  0  0  0  0  0  0  0  0
   -4.2610   21.5500  -33.3170 C   0  0  0  0  0  0  0  0  0  0  0  0
   -5.5165   16.3545  -30.8916 H   0  0  0  0  0  0  0  0  0  0  0  0
   -5.1057   15.2754  -32.2677 H   0  0  0  0  0  0  0  0  0  0  0  0
   -4.5479   16.9829  -32.2677 H   0  0  0  0  0  0  0  0  0  0  0  0
   -8.5744   17.4052  -30.9780 H   0  0  0  0  0  0  0  0  0  0  0  0
   -9.5712   19.6842  -30.8039 H   0  0  0  0  0  0  0  0  0  0  0  0
   -8.7344   21.5314  -32.2525 H   0  0  0  0  0  0  0  0  0  0  0  0
   -6.9001   21.1070  -33.8836 H   0  0  0  0  0  0  0  0  0  0  0  0
   -5.5365   17.7260  -34.6228 H   0  0  0  0  0  0  0  0  0  0  0  0
   -5.6651   19.4353  -35.1831 H   0  0  0  0  0  0  0  0  0  0  0  0
   -2.7165   17.9182  -32.8461 H   0  0  0  0  0  0  0  0  0  0  0  0
   -3.4132   17.3196  -34.3898 H   0  0  0  0  0  0  0  0  0  0  0  0
   -2.3255   18.7492  -34.3898 H   0  0  0  0  0  0  0  0  0  0  0  0
   -3.8755   19.0826  -30.9778 H   0  0  0  0  0  0  0  0  0  0  0  0
   -3.7955   21.0706  -29.4787 H   0  0  0  0  0  0  0  0  0  0  0  0
   -1.6027   25.3773  -29.7522 H   0  0  0  0  0  0  0  0  0  0  0  0
    0.2959   25.1892  -28.1406 H   0  0  0  0  0  0  0  0  0  0  0  0
    0.2623   23.4302  -26.3674 H   0  0  0  0  0  0  0  0  0  0  0  0
   -1.6737   21.8599  -26.2026 H   0  0  0  0  0  0  0  0  0  0  0  0
   -3.5763   22.0469  -27.8070 H   0  0  0  0  0  0  0  0  0  0  0  0
   -4.3033   23.6755  -32.8978 H   0  0  0  0  0  0  0  0  0  0  0  0
   -4.3833   21.6898  -34.4012 H   0  0  0  0  0  0  0  0  0  0  0  0
  1  2  1  0
  2  3  1  0
  3  4  2  0
  4  5  1  0
  5  6  2  0
  6  7  1  0
  7  8  2  0
  8  9  1  0
  9 10  1  0
 10 11  1  0
 10 12  1  0
 12 13  2  0
 13 14  1  0
 14 15  2  0
 15 16  1  0
 16 17  2  0
 16 18  2  0
 16 19  1  0
 19 20  2  0
 20 21  1  0
 21 22  2  0
 22 23  1  0
 23 24  2  0
 15 25  1  0
 25 26  2  0
  8  3  1  0
 26 12  1  0
 24 19  1  0
  1 27  1  0
  1 28  1  0
  1 29  1  0
  4 30  1  0
  5 31  1  0
  6 32  1  0
  7 33  1  0
  9 34  1  0
  9 35  1  0
 11 36  1  0
 11 37  1  0
 11 38  1  0
 13 39  1  0
 14 40  1  0
 20 41  1  0
 21 42  1  0
 22 43  1  0
 23 44  1  0
 24 45  1  0
 25 46  1  0
 26 47  1  0
M  END
>  <UniqueID>  (4) 
4

>  <SMILES>  (4) 
COc1ccccc1CN(C)c1ccc(S(=O)(=O)c2ccccc2)cc1

>  <Energy>  (4) 
51.96243974398909

>  <Genealogy>  (4) 
COc1ccccc1CN(C)c1ccc(S(=O)(=O)c2ccccc2)cc1 (3D coordinates assigned)
COc1ccccc1CN(C)c1ccc(S(=O)(=O)c2ccccc2)cc1 (optimized conformer: 51.96243974398909 kcal/mol)

>  <smiles>  (4) 
COc1ccccc1CN(C)c1ccc(S(=O)(=O)c2ccccc2)cc1

>  <score_type>  (4) 
oracle

>  <origin>  (4) 
adgpu

>  <m_score__min__energy>  (4) 
-9.6600000000000001

>  <m_primary>  (4) 
energy

$$$$
4:0
     RDKit          3D

 45 47  0  0  0  0  0  0  0  0999 V2000
   -0.2622   22.5143  -28.8215 H   0  0  0  0  0  0  0  0  0  0  0  0
   -1.1440   23.1670  -28.7410 C   0  0  0  0  0  0  0  0  0  0  0  0
   -2.1400   22.9960  -29.5590 N   0  0  0  0  0  0  0  0  0  0  0  0
   -2.2300   22.0040  -30.5970 C   0  0  0  0  0  0  0  0  0  0  0  0
   -2.9560   22.2080  -31.7880 C   0  0  0  0  0  0  0  0  0  0  0  0
   -3.4947   23.1539  -31.9460 H   0  0  0  0  0  0  0  0  0  0  0  0
   -2.9940   21.2130  -32.7690 C   0  0  0  0  0  0  0  0  0  0  0  0
   -3.5672   21.3774  -33.6933 H   0  0  0  0  0  0  0  0  0  0  0  0
   -2.3060   20.0080  -32.5810 C   0  0  0  0  0  0  0  0  0  0  0  0
   -2.3540   18.7730  -33.8360 S   0  0  0  0  0  0  0  0  0  0  0  0
   -1.3210   19.0410  -34.8950 O   0  0  0  0  0  0  0  0  0  0  0  0
   -2.0730   17.4370  -33.2120 O   0  0  0  0  0  0  0  0  0  0  0  0
   -3.9260   18.7390  -34.5650 N   0  0  0  0  0  0  0  0  0  0  0  0
   -5.1740   18.7290  -33.8540 C   0  0  0  0  0  0  0  0  0  0  0  0
   -5.8740   19.9190  -33.5820 C   0  0  0  0  0  0  0  0  0  0  0  0
   -5.4693   20.8814  -33.9284 H   0  0  0  0  0  0  0  0  0  0  0  0
   -7.0780   19.8880  -32.8760 C   0  0  0  0  0  0  0  0  0  0  0  0
   -7.6171   20.8251  -32.6731 H   0  0  0  0  0  0  0  0  0  0  0  0
   -7.6030   18.6720  -32.4250 C   0  0  0  0  0  0  0  0  0  0  0  0
   -8.9070   18.6550  -31.6810 C   0  0  0  0  0  0  0  0  0  0  0  0
   -8.7116   18.6575  -30.5985 H   0  0  0  0  0  0  0  0  0  0  0  0
   -9.4941   19.5456  -31.9497 H   0  0  0  0  0  0  0  0  0  0  0  0
   -9.4707   17.7494  -31.9497 H   0  0  0  0  0  0  0  0  0  0  0  0
   -6.9230   17.4790  -32.7090 C   0  0  0  0  0  0  0  0  0  0  0  0
   -7.3403   16.5196  -32.3692 H   0  0  0  0  0  0  0  0  0  0  0  0
   -5.7130   17.4980  -33.4240 C   0  0  0  0  0  0  0  0  0  0  0  0
   -4.9900   16.2100  -33.7070 C   0  0  0  0  0  0  0  0  0  0  0  0
   -4.7182   15.7258  -32.7574 H   0  0  0  0  0  0  0  0  0  0  0  0
   -5.6447   15.5414  -34.2853 H   0  0  0  0  0  0  0  0  0  0  0  0
   -4.0783   16.4207  -34.2853 H   0  0  0  0  0  0  0  0  0  0  0  0
   -1.5720   19.8070  -31.4050 C   0  0  0  0  0  0  0  0  0  0  0  0
   -1.0281   18.8631  -31.2523 H   0  0  0  0  0  0  0  0  0  0  0  0
   -1.5290   20.8030  -30.4250 C   0  0  0  0  0  0  0  0  0  0  0  0
   -0.9394   20.6424  -29.5104 H   0  0  0  0  0  0  0  0  0  0  0  0
   -1.1730   24.2230  -27.7030 C   0  0  0  0  0  0  0  0  0  0  0  0
   -1.1450   23.8320  -26.3520 C   0  0  0  0  0  0  0  0  0  0  0  0
   -1.1014   22.7632  -26.0954 H   0  0  0  0  0  0  0  0  0  0  0  0
   -1.1720   24.7870  -25.3330 C   0  0  0  0  0  0  0  0  0  0  0  0
   -1.1538   24.4676  -24.2805 H   0  0  0  0  0  0  0  0  0  0  0  0
   -1.2220   26.1460  -25.6480 C   0  0  0  0  0  0  0  0  0  0  0  0
   -1.2401   26.8966  -24.8441 H   0  0  0  0  0  0  0  0  0  0  0  0
   -1.2490   26.5520  -26.9820 C   0  0  0  0  0  0  0  0  0  0  0  0
   -1.2870   27.6238  -27.2264 H   0  0  0  0  0  0  0  0  0  0  0  0
   -1.2280   25.6040  -28.0120 C   0  0  0  0  0  0  0  0  0  0  0  0
   -1.2680   26.0490  -29.3280 O   0  0  0  0  0  0  0  0  0  0  0  0
  1  2  1  0
  2  3  2  0
  3  4  1  0
  4  5  2  0
  5  6  1  0
  5  7  1  0
  7  8  1  0
  7  9  2  0
  9 10  1  0
 10 11  2  0
 10 12  2  0
 10 13  1  0
 13 14  1  0
 14 15  2  0
 15 16  1  0
 15 17  1  0
 17 18  1  0
 17 19  2  0
 19 20  1  0
 20 21  1  0
 20 22  1  0
 20 23  1  0
 19 24  1  0
 24 25  1  0
 24 26  2  0
 26 27  1  0
 27 28  1  0
 27 29  1  0
 27 30  1  0
  9 31  1  0
 31 32  1  0
 31 33  2  0
 33 34  1  0
  2 35  1  0
 35 36  2  0
 36 37  1  0
 36 38  1  0
 38 39  1  0
 38 40  2  0
 40 41  1  0
 40 42  1  0
 42 43  1  0
 42 44  2  0
 44 45  1  0
 33  4  1  0
 44 35  1  0
 26 14  1  0
M  CHG  2  13  -1  45  -1
M  END
>  <UniqueID>  (5) 
5

>  <SMILES>  (5) 
Cc1ccc([N-]S(=O)(=O)c2ccc(/N=C/c3ccccc3[O-])cc2)c(C)c1

>  <Energy>  (5) 
54.567117190564815

>  <Genealogy>  (5) 
Cc1ccc([N-]S(=O)(=O)c2ccc(N=Cc3ccccc3[O-])cc2)c(C)c1 (protonated)
Cc1ccc([N-]S(=O)(=O)c2ccc(/N=C/c3ccccc3[O-])cc2)c(C)c1 (cis-trans isomerization)
Cc1ccc([N-]S(=O)(=O)c2ccc(/N=C/c3ccccc3[O-])cc2)c(C)c1 (3D coordinates assigned)
Cc1ccc([N-]S(=O)(=O)c2ccc(/N=C/c3ccccc3[O-])cc2)c(C)c1 (optimized conformer: 54.567117190564815 kcal/mol)

>  <smiles>  (5) 
Cc1ccc(NS(=O)(=O)c2ccc(N=Cc3ccccc3O)cc2)c(C)c1

>  <score_type>  (5) 
oracle

>  <origin>  (5) 
adgpu

>  <m_score__min__energy>  (5) 
-12.529999999999999

>  <m_primary>  (5) 
energy

$$$$
5:0
     RDKit          3D

 36 38  0  0  0  0  0  0  0  0999 V2000
   -3.1630   22.3310  -31.8960 C   0  0  0  0  0  0  0  0  0  0  0  0
   -4.5130   22.9050  -31.5620 C   0  0  0  0  0  0  0  0  0  0  0  0
   -5.6580   22.2080  -31.9780 C   0  0  0  0  0  0  0  0  0  0  0  0
   -6.9310   22.6710  -31.6470 C   0  0  0  0  0  0  0  0  0  0  0  0
   -7.0790   23.8320  -30.8910 C   0  0  0  0  0  0  0  0  0  0  0  0
   -5.9520   24.5550  -30.4720 C   0  0  0  0  0  0  0  0  0  0  0  0
   -6.1340   25.8270  -29.6880 C   0  0  0  0  0  0  0  0  0  0  0  0
   -4.6620   24.1200  -30.8460 C   0  0  0  0  0  0  0  0  0  0  0  0
   -3.5250   24.9130  -30.4660 N   0  0  0  0  0  0  0  0  0  0  0  0
   -2.5300   24.5420  -29.5020 C   0  0  0  0  0  0  0  0  0  0  0  0
   -1.5920   25.3490  -29.2670 O   0  0  0  0  0  0  0  0  0  0  0  0
   -2.5550   23.2310  -28.8060 C   0  0  0  0  0  0  0  0  0  0  0  0
   -1.4840   22.3350  -28.9350 C   0  0  0  0  0  0  0  0  0  0  0  0
   -1.5280   21.1010  -28.2840 C   0  0  0  0  0  0  0  0  0  0  0  0
   -0.4830   20.1720  -28.4030 C   0  0  0  0  0  0  0  0  0  0  0  0
   -0.5610   18.9450  -27.7350 C   0  0  0  0  0  0  0  0  0  0  0  0
    0.8580   17.6780  -27.8980 Br  0  0  0  0  0  0  0  0  0  0  0  0
   -1.6790   18.6440  -26.9480 C   0  0  0  0  0  0  0  0  0  0  0  0
   -2.7220   19.5680  -26.8260 C   0  0  0  0  0  0  0  0  0  0  0  0
   -2.6530   20.7970  -27.4900 C   0  0  0  0  0  0  0  0  0  0  0  0
   -3.6440   21.6740  -27.3720 O   0  0  0  0  0  0  0  0  0  0  0  0
   -3.6390   22.8550  -27.9830 C   0  0  0  0  0  0  0  0  0  0  0  0
   -4.6240   23.6250  -27.8300 O   0  0  0  0  0  0  0  0  0  0  0  0
   -2.6221   22.1010  -30.9662 H   0  0  0  0  0  0  0  0  0  0  0  0
   -3.2914   21.4096  -32.4830 H   0  0  0  0  0  0  0  0  0  0  0  0
   -2.5885   23.0627  -32.4830 H   0  0  0  0  0  0  0  0  0  0  0  0
   -5.5501   21.2877  -32.5708 H   0  0  0  0  0  0  0  0  0  0  0  0
   -7.8205   22.1183  -31.9836 H   0  0  0  0  0  0  0  0  0  0  0  0
   -8.0856   24.1839  -30.6210 H   0  0  0  0  0  0  0  0  0  0  0  0
   -6.1018   25.6021  -28.6117 H   0  0  0  0  0  0  0  0  0  0  0  0
   -5.3275   26.5314  -29.9397 H   0  0  0  0  0  0  0  0  0  0  0  0
   -7.1057   26.2770  -29.9397 H   0  0  0  0  0  0  0  0  0  0  0  0
   -0.6111   22.6040  -29.5479 H   0  0  0  0  0  0  0  0  0  0  0  0
    0.3962   20.4080  -29.0205 H   0  0  0  0  0  0  0  0  0  0  0  0
   -1.7374   17.6784  -26.4243 H   0  0  0  0  0  0  0  0  0  0  0  0
   -3.5985   19.3275  -26.2064 H   0  0  0  0  0  0  0  0  0  0  0  0
  1  2  1  0
  2  3  2  0
  3  4  1  0
  4  5  2  0
  5  6  1  0
  6  7  1  0
  6  8  2  0
  8  9  1  0
  9 10  1  0
 10 11  2  0
 10 12  1  0
 12 13  2  0
 13 14  1  0
 14 15  2  0
 15 16  1  0
 16 17  1  0
 16 18  2  0
 18 19  1  0
 19 20  2  0
 20 21  1  0
 21 22  1  0
 22 23  2  0
  8  2  1  0
 22 12  1  0
 20 14  1  0
  1 24  1  0
  1 25  1  0
  1 26  1  0
  3 27  1  0
  4 28  1  0
  5 29  1  0
  7 30  1  0
  7 31  1  0
  7 32  1  0
 13 33  1  0
 15 34  1  0
 18 35  1  0
 19 36  1  0
M  CHG  1   9  -1
M  END
>  <UniqueID>  (6) 
6

>  <SMILES>  (6) 
Cc1cccc(C)c1[N-]C(=O)c1cc2cc(Br)ccc2oc1=O

>  <Energy>  (6) 
52.7125562331793

>  <Genealogy>  (6) 
Cc1cccc(C)c1[N-]C(=O)c1cc2cc(Br)ccc2oc1=O (protonated)
Cc1cccc(C)c1[N-]C(=O)c1cc2cc(Br)ccc2oc1=O (3D coordinates assigned)
Cc1cccc(C)c1[N-]C(=O)c1cc2cc(Br)ccc2oc1=O (optimized conformer: 52.7125562331793 kcal/mol)

>  <smiles>  (6) 
Cc1cccc(C)c1NC(=O)c1cc2cc(Br)ccc2oc1=O

>  <score_type>  (6) 
oracle

>  <origin>  (6) 
adgpu

>  <m_score__min__energy>  (6) 
-10.029999999999999

>  <m_primary>  (6) 
energy

$$$$
6:0
     RDKit          3D

 54 55  0  0  0  0  0  0  0  0999 V2000
   -4.3767   18.4654  -34.0346 H   0  0  0  0  0  0  0  0  0  0  0  0
   -3.9690   19.3910  -33.6020 C   0  0  0  0  0  0  0  0  0  0  0  0
   -2.5990   19.6790  -33.7450 C   0  0  0  0  0  0  0  0  0  0  0  0
   -1.7220   18.8170  -34.4210 O   0  0  0  0  0  0  0  0  0  0  0  0
   -0.8700   17.8690  -33.7850 C   0  0  0  0  0  0  0  0  0  0  0  0
   -0.9602   17.9694  -32.6933 H   0  0  0  0  0  0  0  0  0  0  0  0
   -1.1639   16.8524  -34.0853 H   0  0  0  0  0  0  0  0  0  0  0  0
    0.1721   18.0531  -34.0853 H   0  0  0  0  0  0  0  0  0  0  0  0
   -2.0800   20.8620  -33.2040 C   0  0  0  0  0  0  0  0  0  0  0  0
   -0.7110   21.1250  -33.3690 O   0  0  0  0  0  0  0  0  0  0  0  0
   -0.0810   21.3790  -34.6210 C   0  0  0  0  0  0  0  0  0  0  0  0
    0.9266   21.7852  -34.4487 H   0  0  0  0  0  0  0  0  0  0  0  0
   -0.0057   20.4410  -35.1906 H   0  0  0  0  0  0  0  0  0  0  0  0
   -0.6774   22.1069  -35.1906 H   0  0  0  0  0  0  0  0  0  0  0  0
   -2.9310   21.7450  -32.5170 C   0  0  0  0  0  0  0  0  0  0  0  0
   -2.5237   22.6783  -32.1010 H   0  0  0  0  0  0  0  0  0  0  0  0
   -4.2940   21.4510  -32.3550 C   0  0  0  0  0  0  0  0  0  0  0  0
   -5.1720   22.4290  -31.6040 C   0  0  0  0  0  0  0  0  0  0  0  0
   -5.9991   22.7440  -32.2572 H   0  0  0  0  0  0  0  0  0  0  0  0
   -5.5589   21.9303  -30.7031 H   0  0  0  0  0  0  0  0  0  0  0  0
   -4.4120   23.6110  -31.1910 N   0  0  0  0  0  0  0  0  0  0  0  0
   -3.6050   23.6580  -30.1720 C   0  0  0  0  0  0  0  0  0  0  0  0
   -3.3970   22.5600  -29.3980 N   0  0  0  0  0  0  0  0  0  0  0  0
   -2.5440   22.6090  -28.3410 C   0  0  0  0  0  0  0  0  0  0  0  0
   -2.3130   21.4380  -27.5370 N   0  0  0  0  0  0  0  0  0  0  0  0
   -3.0650   20.2100  -27.8100 C   0  0  0  0  0  0  0  0  0  0  0  0
   -3.3540   19.7380  -26.8594 H   0  0  0  0  0  0  0  0  0  0  0  0
   -3.9686   20.4542  -28.3878 H   0  0  0  0  0  0  0  0  0  0  0  0
   -2.4368   19.5161  -28.3878 H   0  0  0  0  0  0  0  0  0  0  0  0
   -1.3390   21.4870  -26.4440 C   0  0  0  0  0  0  0  0  0  0  0  0
   -1.8681   21.4604  -25.4800 H   0  0  0  0  0  0  0  0  0  0  0  0
   -0.6636   20.6217  -26.5156 H   0  0  0  0  0  0  0  0  0  0  0  0
   -0.7539   22.4157  -26.5156 H   0  0  0  0  0  0  0  0  0  0  0  0
   -1.9030   23.7730  -28.0600 N   0  0  0  0  0  0  0  0  0  0  0  0
   -2.1020   24.8790  -28.8250 C   0  0  0  0  0  0  0  0  0  0  0  0
   -1.4890   25.9940  -28.5550 N   0  0  0  0  0  0  0  0  0  0  0  0
   -0.5410   26.1910  -27.4560 C   0  0  0  0  0  0  0  0  0  0  0  0
   -0.0415   27.1641  -27.5725 H   0  0  0  0  0  0  0  0  0  0  0  0
    0.5030   25.0750  -27.4910 C   0  0  0  0  0  0  0  0  0  0  0  0
    0.7696   24.7900  -26.4626 H   0  0  0  0  0  0  0  0  0  0  0  0
    0.0894   24.2024  -28.0178 H   0  0  0  0  0  0  0  0  0  0  0  0
    1.4012   25.4295  -28.0178 H   0  0  0  0  0  0  0  0  0  0  0  0
   -1.2780   26.1880  -26.1110 C   0  0  0  0  0  0  0  0  0  0  0  0
   -0.5447   26.1910  -25.2911 H   0  0  0  0  0  0  0  0  0  0  0  0
   -1.9126   27.0836  -26.0386 H   0  0  0  0  0  0  0  0  0  0  0  0
   -1.9053   25.2873  -26.0386 H   0  0  0  0  0  0  0  0  0  0  0  0
   -2.9540   24.8170  -29.8820 N   0  0  0  0  0  0  0  0  0  0  0  0
   -3.1110   25.6660  -30.4760 H   0  0  0  0  0  0  0  0  0  0  0  0
   -4.8250   20.2710  -32.9130 C   0  0  0  0  0  0  0  0  0  0  0  0
   -6.1960   20.0010  -32.7690 O   0  0  0  0  0  0  0  0  0  0  0  0
   -6.7380   18.7640  -32.3160 C   0  0  0  0  0  0  0  0  0  0  0  0
   -6.7452   18.7477  -31.2161 H   0  0  0  0  0  0  0  0  0  0  0  0
   -7.7663   18.6550  -32.6910 H   0  0  0  0  0  0  0  0  0  0  0  0
   -6.1210   17.9341  -32.6910 H   0  0  0  0  0  0  0  0  0  0  0  0
  1  2  1  0
  2  3  2  0
  3  4  1  0
  4  5  1  0
  5  6  1  0
  5  7  1  0
  5  8  1  0
  3  9  1  0
  9 10  1  0
 10 11  1  0
 11 12  1  0
 11 13  1  0
 11 14  1  0
  9 15  2  0
 15 16  1  0
 15 17  1  0
 17 18  1  0
 18 19  1  0
 18 20  1  0
 18 21  1  0
 21 22  2  0
 22 23  1  0
 23 24  2  0
 24 25  1  0
 25 26  1  0
 26 27  1  0
 26 28  1  0
 26 29  1  0
 25 30  1  0
 30 31  1  0
 30 32  1  0
 30 33  1  0
 24 34  1  0
 34 35  1  0
 35 36  2  0
 36 37  1  0
 37 38  1  0
 37 39  1  0
 39 40  1  0
 39 41  1  0
 39 42  1  0
 37 43  1  0
 43 44  1  0
 43 45  1  0
 43 46  1  0
 35 47  1  0
 47 48  1  0
 17 49  2  0
 49 50  1  0
 50 51  1  0
 51 52  1  0
 51 53  1  0
 51 54  1  0
 49  2  1  0
 47 22  1  0
M  CHG  1  34  -1
M  END
>  <UniqueID>  (7) 
7

>  <SMILES>  (7) 
COc1cc(OC)c(OC)cc1C/N=c1\nc(N(C)C)[n-]/c(=N\C(C)C)[nH]1

>  <Energy>  (7) 
42.52323427973939

>  <Genealogy>  (7) 
COc1cc(OC)c(OC)cc1CN=c1nc(N(C)C)[n-]c(=NC(C)C)[nH]1 (protonated)
COc1cc(OC)c(OC)cc1C/N=c1\nc(N(C)C)[n-]/c(=N\C(C)C)[nH]1 (cis-trans isomerization)
COc1cc(OC)c(OC)cc1C/N=c1\nc(N(C)C)[n-]/c(=N\C(C)C)[nH]1 (3D coordinates assigned)
COc1cc(OC)c(OC)cc1C/N=c1\nc(N(C)C)[n-]/c(=N\C(C)C)[nH]1 (optimized conformer: 42.52323427973939 kcal/mol)

>  <smiles>  (7) 
COc1cc(OC)c(OC)cc1CN=c1nc(N(C)C)[nH]c(=NC(C)C)[nH]1

>  <score_type>  (7) 
oracle

>  <origin>  (7) 
adgpu

>  <m_score__min__energy>  (7) 
-7.4100000000000001

>  <m_primary>  (7) 
energy

$$$$
7:0
     RDKit          3D

 46 48  0  0  0  0  0  0  0  0999 V2000
   -2.7430   18.7630  -26.1740 C   0  0  0  0  0  0  0  0  0  0  0  0
   -1.7360   19.5770  -26.7680 O   0  0  0  0  0  0  0  0  0  0  0  0
   -1.9780   20.8120  -27.3900 C   0  0  0  0  0  0  0  0  0  0  0  0
   -3.2670   21.3760  -27.4590 C   0  0  0  0  0  0  0  0  0  0  0  0
   -3.4690   22.6030  -28.0920 C   0  0  0  0  0  0  0  0  0  0  0  0
   -2.3940   23.2880  -28.6740 C   0  0  0  0  0  0  0  0  0  0  0  0
   -2.6160   24.5880  -29.3510 C   0  0  0  0  0  0  0  0  0  0  0  0
   -2.0190   25.6160  -28.9350 O   0  0  0  0  0  0  0  0  0  0  0  0
   -3.4580   24.7010  -30.5070 N   0  0  0  0  0  0  0  0  0  0  0  0
   -4.8380   24.3090  -30.5710 C   0  0  0  0  0  0  0  0  0  0  0  0
   -5.8520   25.1520  -30.0860 C   0  0  0  0  0  0  0  0  0  0  0  0
   -7.1920   24.7640  -30.1720 C   0  0  0  0  0  0  0  0  0  0  0  0
   -7.5310   23.5390  -30.7500 C   0  0  0  0  0  0  0  0  0  0  0  0
   -6.5300   22.6990  -31.2430 C   0  0  0  0  0  0  0  0  0  0  0  0
   -5.1830   23.0790  -31.1590 C   0  0  0  0  0  0  0  0  0  0  0  0
   -4.1710   22.1830  -31.6340 N   0  0  0  0  0  0  0  0  0  0  0  0
   -3.9260   22.0790  -33.0730 C   0  0  0  0  0  0  0  0  0  0  0  0
   -2.5050   21.5630  -33.3140 C   0  0  0  0  0  0  0  0  0  0  0  0
   -2.2670   20.3780  -32.5770 O   0  0  0  0  0  0  0  0  0  0  0  0
   -2.3070   20.6610  -31.1890 C   0  0  0  0  0  0  0  0  0  0  0  0
   -3.7110   21.1000  -30.7640 C   0  0  0  0  0  0  0  0  0  0  0  0
   -1.1050   22.7390  -28.5850 C   0  0  0  0  0  0  0  0  0  0  0  0
   -0.8930   21.4970  -27.9560 C   0  0  0  0  0  0  0  0  0  0  0  0
    0.3820   20.9150  -27.8740 O   0  0  0  0  0  0  0  0  0  0  0  0
    0.7680   19.7190  -28.5460 C   0  0  0  0  0  0  0  0  0  0  0  0
   -2.6659   18.8253  -25.0785 H   0  0  0  0  0  0  0  0  0  0  0  0
   -3.7349   19.1161  -26.4924 H   0  0  0  0  0  0  0  0  0  0  0  0
   -2.6057   17.7191  -26.4924 H   0  0  0  0  0  0  0  0  0  0  0  0
   -4.1201   20.8455  -27.0108 H   0  0  0  0  0  0  0  0  0  0  0  0
   -4.4794   23.0357  -28.1344 H   0  0  0  0  0  0  0  0  0  0  0  0
   -5.5902   26.1213  -29.6368 H   0  0  0  0  0  0  0  0  0  0  0  0
   -7.9809   25.4249  -29.7836 H   0  0  0  0  0  0  0  0  0  0  0  0
   -8.5862   23.2356  -30.8170 H   0  0  0  0  0  0  0  0  0  0  0  0
   -6.7996   21.7350  -31.6992 H   0  0  0  0  0  0  0  0  0  0  0  0
   -4.6499   21.3807  -33.5184 H   0  0  0  0  0  0  0  0  0  0  0  0
   -4.0391   23.0703  -33.5362 H   0  0  0  0  0  0  0  0  0  0  0  0
   -2.3749   21.3529  -34.3859 H   0  0  0  0  0  0  0  0  0  0  0  0
   -1.7908   22.3319  -32.9842 H   0  0  0  0  0  0  0  0  0  0  0  0
   -2.0266   19.7571  -30.6284 H   0  0  0  0  0  0  0  0  0  0  0  0
   -1.6022   21.4780  -30.9752 H   0  0  0  0  0  0  0  0  0  0  0  0
   -4.4013   20.2474  -30.8446 H   0  0  0  0  0  0  0  0  0  0  0  0
   -3.6835   21.4543  -29.7230 H   0  0  0  0  0  0  0  0  0  0  0  0
   -0.2508   23.2853  -29.0115 H   0  0  0  0  0  0  0  0  0  0  0  0
    1.0175   18.9459  -27.8043 H   0  0  0  0  0  0  0  0  0  0  0  0
   -0.0625   19.3681  -29.1762 H   0  0  0  0  0  0  0  0  0  0  0  0
    1.6469   19.9198  -29.1762 H   0  0  0  0  0  0  0  0  0  0  0  0
  1  2  1  0
  2  3  1  0
  3  4  2  0
  4  5  1  0
  5  6  2  0
  6  7  1  0
  7  8  2  0
  7  9  1  0
  9 10  1  0
 10 11  2  0
 11 12  1  0
 12 13  2  0
 13 14  1  0
 14 15  2  0
 15 16  1  0
 16 17  1  0
 17 18  1  0
 18 19  1  0
 19 20  1  0
 20 21  1  0
  6 22  1  0
 22 23  2  0
 23 24  1  0
 24 25  1  0
 23  3  1  0
 15 10  1  0
 21 16  1  0
  1 26  1  0
  1 27  1  0
  1 28  1  0
  4 29  1  0
  5 30  1  0
 11 31  1  0
 12 32  1  0
 13 33  1  0
 14 34  1  0
 17 35  1  0
 17 36  1  0
 18 37  1  0
 18 38  1  0
 20 39  1  0
 20 40  1  0
 21 41  1  0
 21 42  1  0
 22 43  1  0
 25 44  1  0
 25 45  1  0
 25 46  1  0
M  CHG  1   9  -1
M  END
>  <UniqueID>  (8) 
8

>  <SMILES>  (8) 
COc1ccc(C(=O)[N-]c2ccccc2N2CCOCC2)cc1OC

>  <Energy>  (8) 
58.65344943380573

>  <Genealogy>  (8) 
COc1ccc(C(=O)[N-]c2ccccc2N2CCOCC2)cc1OC (protonated)
COc1ccc(C(=O)[N-]c2ccccc2N2CCOCC2)cc1OC (3D coordinates assigned)
COc1ccc(C(=O)[N-]c2ccccc2N2CCOCC2)cc1OC (nonaromatic ring conformer: 58.65344943380573 kcal/mol)

>  <smiles>  (8) 
COc1ccc(C(=O)Nc2ccccc2N2CCOCC2)cc1OC

>  <score_type>  (8) 
oracle

>  <origin>  (8) 
adgpu

>  <m_score__min__energy>  (8) 
-8.8200000000000003

>  <m_primary>  (8) 
energy

$$$$
8:0
     RDKit          3D

 51 54  0  0  0  0  0  0  0  0999 V2000
   -9.1830   23.1170  -32.3120 C   0  0  0  0  0  0  0  0  0  0  0  0
   -8.5920   21.7540  -32.0590 C   0  0  0  0  0  0  0  0  0  0  0  0
   -9.4500   20.6750  -31.7890 C   0  0  0  0  0  0  0  0  0  0  0  0
   -8.9370   19.3960  -31.5640 C   0  0  0  0  0  0  0  0  0  0  0  0
   -7.5500   19.1740  -31.5880 C   0  0  0  0  0  0  0  0  0  0  0  0
   -6.9790   17.8660  -31.4050 N   0  0  0  0  0  0  0  0  0  0  0  0
   -5.9910   17.3520  -32.0760 C   0  0  0  0  0  0  0  0  0  0  0  0
   -5.4640   16.1480  -31.8110 N   0  0  0  0  0  0  0  0  0  0  0  0
   -4.4870   15.9510  -32.6790 N   0  0  0  0  0  0  0  0  0  0  0  0
   -4.4680   17.0540  -33.4600 C   0  0  0  0  0  0  0  0  0  0  0  0
   -3.5150   17.2820  -34.5590 C   0  0  0  0  0  0  0  0  0  0  0  0
   -3.5750   16.5510  -35.5830 O   0  0  0  0  0  0  0  0  0  0  0  0
   -2.5690   18.3580  -34.5270 N   0  0  0  0  0  0  0  0  0  0  0  0
   -2.4210   19.3040  -33.4590 C   0  0  0  0  0  0  0  0  0  0  0  0
   -1.3370   19.1800  -32.5830 C   0  0  0  0  0  0  0  0  0  0  0  0
   -1.1740   20.0850  -31.5290 C   0  0  0  0  0  0  0  0  0  0  0  0
   -2.1110   21.1090  -31.3290 C   0  0  0  0  0  0  0  0  0  0  0  0
   -1.8860   22.2630  -30.0160 S   0  0  0  0  0  0  0  0  0  0  0  0
   -2.5470   21.7230  -28.7810 O   0  0  0  0  0  0  0  0  0  0  0  0
   -0.4230   22.4650  -29.7390 O   0  0  0  0  0  0  0  0  0  0  0  0
   -2.6050   23.7940  -30.4150 N   0  0  0  0  0  0  0  0  0  0  0  0
   -3.8530   24.1350  -30.2490 C   0  0  0  0  0  0  0  0  0  0  0  0
   -4.8150   23.2560  -29.7050 C   0  0  0  0  0  0  0  0  0  0  0  0
   -6.1340   23.6890  -29.5530 C   0  0  0  0  0  0  0  0  0  0  0  0
   -6.4910   24.9820  -29.9370 C   0  0  0  0  0  0  0  0  0  0  0  0
   -5.5160   25.8290  -30.4690 C   0  0  0  0  0  0  0  0  0  0  0  0
   -4.2370   25.3910  -30.6120 N   0  0  0  0  0  0  0  0  0  0  0  0
   -3.2170   21.2120  -32.1820 C   0  0  0  0  0  0  0  0  0  0  0  0
   -3.3730   20.3150  -33.2410 C   0  0  0  0  0  0  0  0  0  0  0  0
   -5.3890   17.9200  -33.0950 O   0  0  0  0  0  0  0  0  0  0  0  0
   -6.6930   20.2400  -31.8890 C   0  0  0  0  0  0  0  0  0  0  0  0
   -7.1970   21.5270  -32.1380 C   0  0  0  0  0  0  0  0  0  0  0  0
   -6.2360   22.6450  -32.4460 C   0  0  0  0  0  0  0  0  0  0  0  0
   -9.3961   23.6084  -31.3512 H   0  0  0  0  0  0  0  0  0  0  0  0
   -8.4681   23.7261  -32.8847 H   0  0  0  0  0  0  0  0  0  0  0  0
  -10.1162   23.0115  -32.8847 H   0  0  0  0  0  0  0  0  0  0  0  0
  -10.5371   20.8394  -31.7545 H   0  0  0  0  0  0  0  0  0  0  0  0
   -9.6221   18.5583  -31.3670 H   0  0  0  0  0  0  0  0  0  0  0  0
   -5.7400   15.4810  -31.0560 H   0  0  0  0  0  0  0  0  0  0  0  0
   -0.6096   18.3670  -32.7239 H   0  0  0  0  0  0  0  0  0  0  0  0
   -0.3090   19.9933  -30.8556 H   0  0  0  0  0  0  0  0  0  0  0  0
   -4.5277   22.2380  -29.4033 H   0  0  0  0  0  0  0  0  0  0  0  0
   -6.8907   23.0113  -29.1309 H   0  0  0  0  0  0  0  0  0  0  0  0
   -7.5281   25.3303  -29.8221 H   0  0  0  0  0  0  0  0  0  0  0  0
   -5.7834   26.8519  -30.7727 H   0  0  0  0  0  0  0  0  0  0  0  0
   -3.9649   22.0016  -32.0174 H   0  0  0  0  0  0  0  0  0  0  0  0
   -4.2442   20.4000  -33.9071 H   0  0  0  0  0  0  0  0  0  0  0  0
   -5.6076   20.0664  -31.9311 H   0  0  0  0  0  0  0  0  0  0  0  0
   -5.8638   23.0780  -31.5058 H   0  0  0  0  0  0  0  0  0  0  0  0
   -5.3901   22.2513  -33.0286 H   0  0  0  0  0  0  0  0  0  0  0  0
   -6.7523   23.4222  -33.0286 H   0  0  0  0  0  0  0  0  0  0  0  0
  1  2  1  0
  2  3  2  0
  3  4  1  0
  4  5  2  0
  5  6  1  0
  6  7  2  3
  7  8  1  0
  8  9  1  0
  9 10  2  0
 10 11  1  0
 11 12  2  0
 11 13  1  0
 13 14  1  0
 14 15  2  0
 15 16  1  0
 16 17  2  0
 17 18  1  0
 18 19  2  0
 18 20  2  0
 18 21  1  0
 21 22  2  3
 22 23  1  0
 23 24  2  0
 24 25  1  0
 25 26  2  0
 26 27  1  0
 17 28  1  0
 28 29  2  0
 10 30  1  0
  5 31  1  0
 31 32  2  0
 32 33  1  0
 32  2  1  0
 30  7  1  0
 29 14  1  0
 27 22  1  0
  1 34  1  0
  1 35  1  0
  1 36  1  0
  3 37  1  0
  4 38  1  0
  8 39  1  0
 15 40  1  0
 16 41  1  0
 23 42  1  0
 24 43  1  0
 25 44  1  0
 26 45  1  0
 28 46  1  0
 29 47  1  0
 31 48  1  0
 33 49  1  0
 33 50  1  0
 33 51  1  0
M  CHG  2  13  -1  27  -1
M  END
>  <UniqueID>  (9) 
9

>  <SMILES>  (9) 
Cc1ccc(N=c2[nH]nc(C(=O)[N-]c3ccc(S(=O)(=O)N=c4cccc[n-]4)cc3)o2)cc1C

>  <Energy>  (9) 
107.03163748533757

>  <Genealogy>  (9) 
Cc1ccc(N=c2[nH]nc(C(=O)[N-]c3ccc(S(=O)(=O)N=c4cccc[n-]4)cc3)o2)cc1C (protonated)
Cc1ccc(N=c2[nH]nc(C(=O)[N-]c3ccc(S(=O)(=O)N=c4cccc[n-]4)cc3)o2)cc1C (3D coordinates assigned)
Cc1ccc(N=c2[nH]nc(C(=O)[N-]c3ccc(S(=O)(=O)N=c4cccc[n-]4)cc3)o2)cc1C (optimized conformer: 107.03163748533757 kcal/mol)

>  <smiles>  (9) 
Cc1ccc(N=c2[nH]nc(C(=O)Nc3ccc(S(=O)(=O)N=c4cccc[nH]4)cc3)o2)cc1C

>  <score_type>  (9) 
oracle

>  <origin>  (9) 
adgpu

>  <m_score__min__energy>  (9) 
-11.91

>  <m_primary>  (9) 
energy

$$$$
9:0
     RDKit          3D

 49 51  0  0  0  0  0  0  0  0999 V2000
   -0.4210   18.9630  -29.7460 C   0  0  0  0  0  0  0  0  0  0  0  0
   -0.9660   20.3630  -29.6460 C   0  0  0  0  0  0  0  0  0  0  0  0
   -1.7750   20.6860  -28.5450 C   0  0  0  0  0  0  0  0  0  0  0  0
   -2.3500   21.9530  -28.4330 C   0  0  0  0  0  0  0  0  0  0  0  0
   -2.1330   22.9150  -29.4250 C   0  0  0  0  0  0  0  0  0  0  0  0
   -2.8540   24.5140  -29.2810 S   0  0  0  0  0  0  0  0  0  0  0  0
   -3.8030   24.7490  -30.4230 O   0  0  0  0  0  0  0  0  0  0  0  0
   -3.6180   24.6150  -27.9910 O   0  0  0  0  0  0  0  0  0  0  0  0
   -1.6440   25.6760  -29.3080 O   0  0  0  0  0  0  0  0  0  0  0  0
   -1.3050   22.6120  -30.5120 C   0  0  0  0  0  0  0  0  0  0  0  0
   -0.6890   21.3590  -30.6160 C   0  0  0  0  0  0  0  0  0  0  0  0
    0.2120   21.1360  -31.7120 N   0  0  0  0  0  0  0  0  0  0  0  0
   -0.1770   20.9160  -33.0750 C   0  0  0  0  0  0  0  0  0  0  0  0
    0.6430   21.1870  -33.9920 O   0  0  0  0  0  0  0  0  0  0  0  0
   -1.5100   20.3820  -33.4290 C   0  0  0  0  0  0  0  0  0  0  0  0
   -2.6560   21.1720  -33.2430 C   0  0  0  0  0  0  0  0  0  0  0  0
   -3.9270   20.6290  -33.4520 C   0  0  0  0  0  0  0  0  0  0  0  0
   -4.0660   19.2980  -33.8650 C   0  0  0  0  0  0  0  0  0  0  0  0
   -5.6610   18.5610  -33.9620 S   0  0  0  0  0  0  0  0  0  0  0  0
   -6.4810   19.2510  -35.0160 O   0  0  0  0  0  0  0  0  0  0  0  0
   -5.5200   17.1120  -34.3350 O   0  0  0  0  0  0  0  0  0  0  0  0
   -6.4770   18.7140  -32.4280 N   0  0  0  0  0  0  0  0  0  0  0  0
   -6.2670   17.6800  -31.4110 C   0  0  0  0  0  0  0  0  0  0  0  0
   -7.3090   19.8610  -32.1400 C   0  0  0  0  0  0  0  0  0  0  0  0
   -8.7150   19.7730  -32.2050 C   0  0  0  0  0  0  0  0  0  0  0  0
   -9.5110   20.8940  -31.9560 C   0  0  0  0  0  0  0  0  0  0  0  0
   -8.9190   22.1180  -31.6360 C   0  0  0  0  0  0  0  0  0  0  0  0
   -7.5290   22.2220  -31.5670 C   0  0  0  0  0  0  0  0  0  0  0  0
   -6.7280   21.1040  -31.8180 C   0  0  0  0  0  0  0  0  0  0  0  0
   -2.9230   18.5320  -34.1250 C   0  0  0  0  0  0  0  0  0  0  0  0
   -1.6540   19.0700  -33.9130 C   0  0  0  0  0  0  0  0  0  0  0  0
   -0.2633   18.5579  -28.7356 H   0  0  0  0  0  0  0  0  0  0  0  0
   -1.1377   18.3283  -30.2878 H   0  0  0  0  0  0  0  0  0  0  0  0
    0.5362   18.9800  -30.2878 H   0  0  0  0  0  0  0  0  0  0  0  0
   -1.9574   19.9337  -27.7634 H   0  0  0  0  0  0  0  0  0  0  0  0
   -2.9759   22.1958  -27.5616 H   0  0  0  0  0  0  0  0  0  0  0  0
   -1.1362   23.3672  -31.2938 H   0  0  0  0  0  0  0  0  0  0  0  0
   -2.5531   22.2220  -32.9317 H   0  0  0  0  0  0  0  0  0  0  0  0
   -4.8211   21.2493  -33.2915 H   0  0  0  0  0  0  0  0  0  0  0  0
   -6.3577   18.1266  -30.4098 H   0  0  0  0  0  0  0  0  0  0  0  0
   -7.0230   16.8899  -31.5299 H   0  0  0  0  0  0  0  0  0  0  0  0
   -5.2627   17.2474  -31.5299 H   0  0  0  0  0  0  0  0  0  0  0  0
   -9.1896   18.8125  -32.4542 H   0  0  0  0  0  0  0  0  0  0  0  0
  -10.6065   20.8124  -32.0121 H   0  0  0  0  0  0  0  0  0  0  0  0
   -9.5476   22.9989  -31.4386 H   0  0  0  0  0  0  0  0  0  0  0  0
   -7.0626   23.1857  -31.3146 H   0  0  0  0  0  0  0  0  0  0  0  0
   -5.6332   21.1954  -31.7636 H   0  0  0  0  0  0  0  0  0  0  0  0
   -3.0265   17.5023  -34.4978 H   0  0  0  0  0  0  0  0  0  0  0  0
   -0.7607   18.4644  -34.1257 H   0  0  0  0  0  0  0  0  0  0  0  0
  1  2  1  0
  2  3  2  0
  3  4  1  0
  4  5  2  0
  5  6  1  0
  6  7  2  0
  6  8  2  0
  6  9  1  0
  5 10  1  0
 10 11  2  0
 11 12  1  0
 12 13  1  0
 13 14  2  0
 13 15  1  0
 15 16  2  0
 16 17  1  0
 17 18  2  0
 18 19  1  0
 19 20  2  0
 19 21  2  0
 19 22  1  0
 22 23  1  0
 22 24  1  0
 24 25  2  0
 25 26  1  0
 26 27  2  0
 27 28  1  0
 28 29  2  0
 18 30  1  0
 30 31  2  0
 11  2  1  0
 31 15  1  0
 29 24  1  0
  1 32  1  0
  1 33  1  0
  1 34  1  0
  3 35  1  0
  4 36  1  0
 10 37  1  0
 16 38  1  0
 17 39  1  0
 23 40  1  0
 23 41  1  0
 23 42  1  0
 25 43  1  0
 26 44  1  0
 27 45  1  0
 28 46  1  0
 29 47  1  0
 30 48  1  0
 31 49  1  0
M  CHG  2   9  -1  12  -1
M  END
>  <UniqueID>  (10) 
10

>  <SMILES>  (10) 
Cc1ccc(S(=O)(=O)[O-])cc1[N-]C(=O)c1ccc(S(=O)(=O)N(C)c2ccccc2)cc1

>  <Energy>  (10) 
65.04231373827162

>  <Genealogy>  (10) 
Cc1ccc(S(=O)(=O)[O-])cc1[N-]C(=O)c1ccc(S(=O)(=O)N(C)c2ccccc2)cc1 (protonated)
Cc1ccc(S(=O)(=O)[O-])cc1[N-]C(=O)c1ccc(S(=O)(=O)N(C)c2ccccc2)cc1 (3D coordinates assigned)
Cc1ccc(S(=O)(=O)[O-])cc1[N-]C(=O)c1ccc(S(=O)(=O)N(C)c2ccccc2)cc1 (optimized conformer: 65.04231373827162 kcal/mol)

>  <smiles>  (10) 
Cc1ccc(S(=O)(=O)O)cc1NC(=O)c1ccc(S(=O)(=O)N(C)c2ccccc2)cc1

>  <score_type>  (10) 
oracle

>  <origin>  (10) 
adgpu

>  <m_score__min__energy>  (10) 
-12.91

>  <m_primary>  (10) 
energy

$$$$
10:0
     RDKit          3D

 79 83  0  0  0  0  0  0  0  0999 V2000
    2.8480   20.4360  -34.9050 C   0  0  0  0  0  0  0  0  0  0  0  0
    2.1690   21.5650  -35.4450 O   0  0  0  0  0  0  0  0  0  0  0  0
    0.8710   21.9180  -35.0610 C   0  0  0  0  0  0  0  0  0  0  0  0
    0.2690   22.8570  -35.6450 O   0  0  0  0  0  0  0  0  0  0  0  0
    0.2300   21.2020  -33.9950 N   0  0  0  0  0  0  0  0  0  0  0  0
   -1.1820   21.3830  -33.6620 C   0  0  0  0  0  0  0  0  0  0  0  0
   -1.6300   20.3660  -32.6140 C   0  0  0  0  0  0  0  0  0  0  0  0
   -0.4880   19.9530  -31.7990 N   0  0  0  0  0  0  0  0  0  0  0  0
    0.3860   18.8520  -32.0920 C   0  0  0  0  0  0  0  0  0  0  0  0
    1.6330   19.0560  -32.1120 O   0  0  0  0  0  0  0  0  0  0  0  0
   -0.1260   17.4760  -32.2710 C   0  0  0  0  0  0  0  0  0  0  0  0
   -1.2600   17.1420  -32.9940 C   0  0  0  0  0  0  0  0  0  0  0  0
   -1.4810   15.8010  -32.7670 C   0  0  0  0  0  0  0  0  0  0  0  0
   -2.6010   15.0860  -33.3030 N   0  0  0  0  0  0  0  0  0  0  0  0
   -3.9930   15.1590  -32.9620 C   0  0  0  0  0  0  0  0  0  0  0  0
   -4.5840   14.0990  -32.6290 O   0  0  0  0  0  0  0  0  0  0  0  0
   -4.7720   16.4050  -32.9890 C   0  0  0  0  0  0  0  0  0  0  0  0
   -5.7330   16.7570  -32.0570 C   0  0  0  0  0  0  0  0  0  0  0  0
   -6.4040   17.8360  -32.6140 C   0  0  0  0  0  0  0  0  0  0  0  0
   -7.5240   18.5580  -32.0870 N   0  0  0  0  0  0  0  0  0  0  0  0
   -7.9740   19.8830  -32.4100 C   0  0  0  0  0  0  0  0  0  0  0  0
   -9.0190   20.0110  -33.1020 O   0  0  0  0  0  0  0  0  0  0  0  0
   -7.3000   21.1000  -31.9240 C   0  0  0  0  0  0  0  0  0  0  0  0
   -6.0250   21.5200  -32.2830 C   0  0  0  0  0  0  0  0  0  0  0  0
   -5.8500   22.7320  -31.6490 C   0  0  0  0  0  0  0  0  0  0  0  0
   -4.7590   23.6350  -31.8620 N   0  0  0  0  0  0  0  0  0  0  0  0
   -3.8980   24.0650  -30.7970 C   0  0  0  0  0  0  0  0  0  0  0  0
   -3.8640   25.2830  -30.4840 O   0  0  0  0  0  0  0  0  0  0  0  0
   -3.0660   23.0930  -30.0620 C   0  0  0  0  0  0  0  0  0  0  0  0
   -3.5750   21.8190  -29.7790 C   0  0  0  0  0  0  0  0  0  0  0  0
   -2.7380   20.8210  -29.2810 C   0  0  0  0  0  0  0  0  0  0  0  0
   -1.3820   21.0860  -29.0220 C   0  0  0  0  0  0  0  0  0  0  0  0
   -0.4860   19.9780  -28.6050 C   0  0  0  0  0  0  0  0  0  0  0  0
   -0.9510   18.8830  -27.8560 C   0  0  0  0  0  0  0  0  0  0  0  0
   -0.0820   17.9090  -27.4740 N   0  0  0  0  0  0  0  0  0  0  0  0
    1.2360   17.9730  -27.8050 C   0  0  0  0  0  0  0  0  0  0  0  0
    1.7010   19.0500  -28.5610 C   0  0  0  0  0  0  0  0  0  0  0  0
    0.8320   20.0180  -28.9440 N   0  0  0  0  0  0  0  0  0  0  0  0
   -0.8930   22.3880  -29.2420 C   0  0  0  0  0  0  0  0  0  0  0  0
   -1.7310   23.3870  -29.7530 C   0  0  0  0  0  0  0  0  0  0  0  0
   -6.9780   22.9830  -30.8940 C   0  0  0  0  0  0  0  0  0  0  0  0
   -7.8580   21.9800  -31.0650 N   0  0  0  0  0  0  0  0  0  0  0  0
   -9.1960   21.9200  -30.4750 C   0  0  0  0  0  0  0  0  0  0  0  0
   -5.8080   18.1240  -33.8250 C   0  0  0  0  0  0  0  0  0  0  0  0
   -4.8150   17.2450  -34.0470 N   0  0  0  0  0  0  0  0  0  0  0  0
   -4.0100   17.1690  -35.2640 C   0  0  0  0  0  0  0  0  0  0  0  0
   -0.4940   15.3550  -31.9070 C   0  0  0  0  0  0  0  0  0  0  0  0
    0.3380   16.3810  -31.6200 N   0  0  0  0  0  0  0  0  0  0  0  0
    1.4730   16.3040  -30.7060 C   0  0  0  0  0  0  0  0  0  0  0  0
    2.8201   20.4823  -33.8063 H   0  0  0  0  0  0  0  0  0  0  0  0
    2.3545   19.5138  -35.2457 H   0  0  0  0  0  0  0  0  0  0  0  0
    3.8939   20.4396  -35.2457 H   0  0  0  0  0  0  0  0  0  0  0  0
    0.7940   20.5120  -33.4450 H   0  0  0  0  0  0  0  0  0  0  0  0
   -1.3312   22.3981  -33.2655 H   0  0  0  0  0  0  0  0  0  0  0  0
   -1.7797   21.2346  -34.5735 H   0  0  0  0  0  0  0  0  0  0  0  0
   -2.3937   20.8219  -31.9668 H   0  0  0  0  0  0  0  0  0  0  0  0
   -2.0495   19.4848  -33.1215 H   0  0  0  0  0  0  0  0  0  0  0  0
   -1.8631   17.8131  -33.6232 H   0  0  0  0  0  0  0  0  0  0  0  0
   -5.9238   16.2827  -31.0830 H   0  0  0  0  0  0  0  0  0  0  0  0
   -5.3085   20.9974  -32.9338 H   0  0  0  0  0  0  0  0  0  0  0  0
   -4.6402   21.6048  -29.9505 H   0  0  0  0  0  0  0  0  0  0  0  0
   -3.1429   19.8164  -29.0889 H   0  0  0  0  0  0  0  0  0  0  0  0
   -2.0136   18.8142  -27.5800 H   0  0  0  0  0  0  0  0  0  0  0  0
    1.9289   17.1830  -27.4797 H   0  0  0  0  0  0  0  0  0  0  0  0
    2.7622   19.1131  -28.8435 H   0  0  0  0  0  0  0  0  0  0  0  0
    0.1565   22.6225  -29.0105 H   0  0  0  0  0  0  0  0  0  0  0  0
   -1.3411   24.4032  -29.9120 H   0  0  0  0  0  0  0  0  0  0  0  0
   -7.1328   23.8639  -30.2537 H   0  0  0  0  0  0  0  0  0  0  0  0
   -9.1135   21.9237  -29.3781 H   0  0  0  0  0  0  0  0  0  0  0  0
   -9.7803   22.7928  -30.8017 H   0  0  0  0  0  0  0  0  0  0  0  0
   -9.6998   20.9984  -30.8017 H   0  0  0  0  0  0  0  0  0  0  0  0
   -6.0988   18.9419  -34.5006 H   0  0  0  0  0  0  0  0  0  0  0  0
   -2.9480   17.0687  -34.9955 H   0  0  0  0  0  0  0  0  0  0  0  0
   -4.3224   16.2964  -35.8564 H   0  0  0  0  0  0  0  0  0  0  0  0
   -4.1536   18.0847  -35.8564 H   0  0  0  0  0  0  0  0  0  0  0  0
   -0.4010   14.3300  -31.5189 H   0  0  0  0  0  0  0  0  0  0  0  0
    1.1101   16.3286  -29.6679 H   0  0  0  0  0  0  0  0  0  0  0  0
    2.0214   15.3666  -30.8806 H   0  0  0  0  0  0  0  0  0  0  0  0
    2.1430   17.1588  -30.8806 H   0  0  0  0  0  0  0  0  0  0  0  0
  1  2  1  0
  2  3  1  0
  3  4  2  0
  3  5  1  0
  5  6  1  0
  6  7  1  0
  7  8  1  0
  8  9  1  0
  9 10  2  0
  9 11  1  0
 11 12  2  0
 12 13  1  0
 13 14  1  0
 14 15  1  0
 15 16  2  0
 15 17  1  0
 17 18  2  0
 18 19  1  0
 19 20  1  0
 20 21  1  0
 21 22  2  0
 21 23  1  0
 23 24  2  0
 24 25  1  0
 25 26  1  0
 26 27  1  0
 27 28  2  0
 27 29  1  0
 29 30  2  0
 30 31  1  0
 31 32  2  0
 32 33  1  0
 33 34  2  0
 34 35  1  0
 35 36  2  0
 36 37  1  0
 37 38  2  0
 32 39  1  0
 39 40  2  0
 25 41  2  0
 41 42  1  0
 42 43  1  0
 19 44  2  0
 44 45  1  0
 45 46  1  0
 13 47  2  0
 47 48  1  0
 48 49  1  0
 48 11  1  0
 45 17  1  0
 42 23  1  0
 40 29  1  0
 38 33  1  0
  1 50  1  0
  1 51  1  0
  1 52  1  0
  5 53  1  0
  6 54  1  0
  6 55  1  0
  7 56  1  0
  7 57  1  0
 12 58  1  0
 18 59  1  0
 24 60  1  0
 30 61  1  0
 31 62  1  0
 34 63  1  0
 36 64  1  0
 37 65  1  0
 39 66  1  0
 40 67  1  0
 41 68  1  0
 43 69  1  0
 43 70  1  0
 43 71  1  0
 44 72  1  0
 46 73  1  0
 46 74  1  0
 46 75  1  0
 47 76  1  0
 49 77  1  0
 49 78  1  0
 49 79  1  0
M  CHG  4   8  -1  14  -1  20  -1  26  -1
M  END
>  <UniqueID>  (11) 
11

>  <SMILES>  (11) 
COC(=O)NCC[N-]C(=O)c1cc([N-]C(=O)c2cc([N-]C(=O)c3cc([N-]C(=O)c4ccc(-c5cnccn5)cc4)cn3C)cn2C)cn1C

>  <Energy>  (11) 
184.90322680300721

>  <Genealogy>  (11) 
COC(=O)NCC[N-]C(=O)c1cc([N-]C(=O)c2cc([N-]C(=O)c3cc([N-]C(=O)c4ccc(-c5cnccn5)cc4)cn3C)cn2C)cn1C (protonated)
COC(=O)NCC[N-]C(=O)c1cc([N-]C(=O)c2cc([N-]C(=O)c3cc([N-]C(=O)c4ccc(-c5cnccn5)cc4)cn3C)cn2C)cn1C (3D coordinates assigned)
COC(=O)NCC[N-]C(=O)c1cc([N-]C(=O)c2cc([N-]C(=O)c3cc([N-]C(=O)c4ccc(-c5cnccn5)cc4)cn3C)cn2C)cn1C (optimized conformer: 184.90322680300721 kcal/mol)

>  <smiles>  (11) 
COC(=O)NCCNC(=O)c1cc(NC(=O)c2cc(NC(=O)c3cc(NC(=O)c4ccc(-c5cnccn5)cc4)cn3C)cn2C)cn1C

>  <score_type>  (11) 
oracle

>  <origin>  (11) 
adgpu

>  <m_score__min__energy>  (11) 
-12.970000000000001

>  <m_primary>  (11) 
energy

$$$$
11:0
     RDKit          3D

 43 46  0  0  0  0  0  0  0  0999 V2000
   -1.9968   22.7020  -26.8736 H   0  0  0  0  0  0  0  0  0  0  0  0
   -2.2370   23.3570  -27.7240 C   0  0  0  0  0  0  0  0  0  0  0  0
   -1.3390   24.1330  -28.3710 N   0  0  0  0  0  0  0  0  0  0  0  0
   -1.8660   24.8410  -29.3690 N   0  0  0  0  0  0  0  0  0  0  0  0
   -3.1890   24.6360  -29.5280 C   0  0  0  0  0  0  0  0  0  0  0  0
   -3.8760   25.2400  -30.4540 N   0  0  0  0  0  0  0  0  0  0  0  0
   -5.2810   25.1140  -30.7330 C   0  0  0  0  0  0  0  0  0  0  0  0
   -6.0730   26.0640  -30.4880 O   0  0  0  0  0  0  0  0  0  0  0  0
   -5.8060   23.8550  -31.3130 C   0  0  0  0  0  0  0  0  0  0  0  0
   -7.1910   23.6140  -31.3650 C   0  0  0  0  0  0  0  0  0  0  0  0
   -7.8912   24.3694  -30.9789 H   0  0  0  0  0  0  0  0  0  0  0  0
   -7.6840   22.4230  -31.9030 C   0  0  0  0  0  0  0  0  0  0  0  0
   -8.7689   22.2446  -31.9373 H   0  0  0  0  0  0  0  0  0  0  0  0
   -6.8050   21.4590  -32.3970 C   0  0  0  0  0  0  0  0  0  0  0  0
   -7.1985   20.5221  -32.8182 H   0  0  0  0  0  0  0  0  0  0  0  0
   -5.4230   21.6810  -32.3580 C   0  0  0  0  0  0  0  0  0  0  0  0
   -4.3250   20.4390  -32.9570 S   0  0  0  0  0  0  0  0  0  0  0  0
   -4.0180   19.4960  -31.8270 O   0  0  0  0  0  0  0  0  0  0  0  0
   -4.9890   19.6540  -34.0550 O   0  0  0  0  0  0  0  0  0  0  0  0
   -2.8350   21.1640  -33.5280 N   0  0  1  0  0  0  0  0  0  0  0  0
   -3.1150   21.8620  -34.2570 H   0  0  0  0  0  0  0  0  0  0  0  0
   -2.1460   21.9070  -32.4540 C   0  0  0  0  0  0  0  0  0  0  0  0
   -2.8966   22.4731  -31.8830 H   0  0  0  0  0  0  0  0  0  0  0  0
   -1.4085   22.5675  -32.9335 H   0  0  0  0  0  0  0  0  0  0  0  0
   -1.3930   21.0090  -31.5000 C   0  0  0  0  0  0  0  0  0  0  0  0
   -1.0200   21.5030  -30.2400 C   0  0  0  0  0  0  0  0  0  0  0  0
   -1.3179   22.5189  -29.9414 H   0  0  0  0  0  0  0  0  0  0  0  0
   -0.2730   20.7130  -29.3630 C   0  0  0  0  0  0  0  0  0  0  0  0
    0.0080   21.1044  -28.3741 H   0  0  0  0  0  0  0  0  0  0  0  0
    0.1170   19.4270  -29.7410 C   0  0  0  0  0  0  0  0  0  0  0  0
    0.7032   18.8050  -29.0485 H   0  0  0  0  0  0  0  0  0  0  0  0
   -0.2360   18.9290  -30.9970 C   0  0  0  0  0  0  0  0  0  0  0  0
    0.0674   17.9123  -31.2874 H   0  0  0  0  0  0  0  0  0  0  0  0
   -0.9760   19.7190  -31.8910 C   0  0  0  0  0  0  0  0  0  0  0  0
   -1.3960   19.1310  -33.2120 C   0  0  0  0  0  0  0  0  0  0  0  0
   -2.1845   18.3855  -33.0317 H   0  0  0  0  0  0  0  0  0  0  0  0
   -0.5071   18.6757  -33.6731 H   0  0  0  0  0  0  0  0  0  0  0  0
   -1.9340   20.1920  -34.1830 C   0  0  0  0  0  0  0  0  0  0  0  0
   -2.4887   19.6845  -34.9860 H   0  0  0  0  0  0  0  0  0  0  0  0
   -1.0711   20.7514  -34.5735 H   0  0  0  0  0  0  0  0  0  0  0  0
   -4.9270   22.8760  -31.8170 C   0  0  0  0  0  0  0  0  0  0  0  0
   -3.8414   23.0506  -31.7858 H   0  0  0  0  0  0  0  0  0  0  0  0
   -3.7730   23.5270  -28.3940 S   0  0  0  0  0  0  0  0  0  0  0  0
  1  2  1  0
  2  3  2  0
  3  4  1  0
  4  5  1  0
  5  6  2  0
  6  7  1  0
  7  8  2  0
  7  9  1  0
  9 10  2  0
 10 11  1  0
 10 12  1  0
 12 13  1  0
 12 14  2  0
 14 15  1  0
 14 16  1  0
 16 17  1  0
 17 18  2  0
 17 19  2  0
 17 20  1  0
 20 21  1  6
 20 22  1  0
 22 23  1  0
 22 24  1  0
 22 25  1  0
 25 26  2  0
 26 27  1  0
 26 28  1  0
 28 29  1  0
 28 30  2  0
 30 31  1  0
 30 32  1  0
 32 33  1  0
 32 34  2  0
 34 35  1  0
 35 36  1  0
 35 37  1  0
 35 38  1  0
 38 39  1  0
 38 40  1  0
 16 41  2  0
 41 42  1  0
  5 43  1  0
 43  2  1  0
 41  9  1  0
 38 20  1  0
 34 25  1  0
M  CHG  2   4  -1  20   1
M  END
>  <UniqueID>  (12) 
12

>  <SMILES>  (12) 
O=C(/N=c1/[n-]ncs1)c1cccc(S(=O)(=O)[N@@H+]2CCc3ccccc3C2)c1

>  <Energy>  (12) 
89.04218578340031

>  <Genealogy>  (12) 
O=C(N=c1[n-]ncs1)c1cccc(S(=O)(=O)[NH+]2CCc3ccccc3C2)c1 (protonated)
O=C(N=c1[n-]ncs1)c1cccc(S(=O)(=O)[N@@H+]2CCc3ccccc3C2)c1 (chirality)
O=C(/N=c1/[n-]ncs1)c1cccc(S(=O)(=O)[N@@H+]2CCc3ccccc3C2)c1 (cis-trans isomerization)
O=C(/N=c1/[n-]ncs1)c1cccc(S(=O)(=O)[N@@H+]2CCc3ccccc3C2)c1 (3D coordinates assigned)
O=C(/N=c1/[n-]ncs1)c1cccc(S(=O)(=O)[N@@H+]2CCc3ccccc3C2)c1 (nonaromatic ring conformer: 89.04218578340031 kcal/mol)

>  <smiles>  (12) 
O=C(N=c1[nH]ncs1)c1cccc(S(=O)(=O)N2CCc3ccccc3C2)c1

>  <score_type>  (12) 
oracle

>  <origin>  (12) 
adgpu

>  <m_score__min__energy>  (12) 
-10.82

>  <m_primary>  (12) 
energy

$$$$
12:0
     RDKit          3D

 51 54  0  0  0  0  0  0  0  0999 V2000
   -0.4710   30.5890  -37.4310 C   0  0  0  0  0  0  0  0  0  0  0  0
   -0.1180   29.8010  -36.2980 O   0  0  0  0  0  0  0  0  0  0  0  0
   -0.1290   28.4000  -36.2730 C   0  0  0  0  0  0  0  0  0  0  0  0
   -1.0390   27.6370  -37.0290 C   0  0  0  0  0  0  0  0  0  0  0  0
   -1.0090   26.2410  -36.9700 C   0  0  0  0  0  0  0  0  0  0  0  0
   -0.0640   25.5810  -36.1710 C   0  0  0  0  0  0  0  0  0  0  0  0
   -0.0710   24.1450  -36.1110 N   0  0  0  0  0  0  0  0  0  0  0  0
    1.0990   23.3250  -36.2510 C   0  0  0  0  0  0  0  0  0  0  0  0
    2.1740   23.8170  -36.6880 O   0  0  0  0  0  0  0  0  0  0  0  0
    1.0010   21.9220  -35.9790 N   0  0  0  0  0  0  0  0  0  0  0  0
    0.3870   21.3160  -34.8310 C   0  0  0  0  0  0  0  0  0  0  0  0
    0.9820   21.3580  -33.5570 C   0  0  0  0  0  0  0  0  0  0  0  0
    0.3360   20.7820  -32.4610 C   0  0  0  0  0  0  0  0  0  0  0  0
   -0.9100   20.1690  -32.6210 C   0  0  0  0  0  0  0  0  0  0  0  0
   -1.5210   20.1330  -33.8830 C   0  0  0  0  0  0  0  0  0  0  0  0
   -2.8850   19.5170  -34.0410 C   0  0  0  0  0  0  0  0  0  0  0  0
   -3.9010   20.3760  -33.4230 N   0  0  0  0  0  0  0  0  0  0  0  0
   -3.5790   21.6530  -33.1660 N   0  0  0  0  0  0  0  0  0  0  0  0
   -4.4550   22.5070  -32.6340 N   0  0  0  0  0  0  0  0  0  0  0  0
   -5.7020   22.0790  -32.3500 C   0  0  0  0  0  0  0  0  0  0  0  0
   -6.9480   22.9800  -31.6890 S   0  0  0  0  0  0  0  0  0  0  0  0
   -8.0540   21.6990  -31.7030 C   0  0  0  0  0  0  0  0  0  0  0  0
   -9.4640   21.8120  -31.2190 C   0  0  0  0  0  0  0  0  0  0  0  0
   -7.4430   20.5490  -32.2330 C   0  0  0  0  0  0  0  0  0  0  0  0
   -8.1400   19.2260  -32.3960 C   0  0  0  0  0  0  0  0  0  0  0  0
   -6.1000   20.7860  -32.5950 C   0  0  0  0  0  0  0  0  0  0  0  0
   -5.1650   19.9080  -33.1540 C   0  0  0  0  0  0  0  0  0  0  0  0
   -5.4750   18.7110  -33.4050 O   0  0  0  0  0  0  0  0  0  0  0  0
   -0.8730   20.7230  -34.9800 C   0  0  0  0  0  0  0  0  0  0  0  0
    0.8300   26.3450  -35.3990 C   0  0  0  0  0  0  0  0  0  0  0  0
    0.7990   27.7410  -35.4580 C   0  0  0  0  0  0  0  0  0  0  0  0
   -0.8991   31.5446  -37.0940 H   0  0  0  0  0  0  0  0  0  0  0  0
    0.4264   30.7826  -38.0369 H   0  0  0  0  0  0  0  0  0  0  0  0
   -1.2129   30.0483  -38.0369 H   0  0  0  0  0  0  0  0  0  0  0  0
   -1.7772   28.1420  -37.6693 H   0  0  0  0  0  0  0  0  0  0  0  0
   -1.7328   25.6548  -37.5553 H   0  0  0  0  0  0  0  0  0  0  0  0
   -0.9920   23.6570  -36.0350 H   0  0  0  0  0  0  0  0  0  0  0  0
    1.9588   21.8459  -33.4237 H   0  0  0  0  0  0  0  0  0  0  0  0
    0.8093   20.8108  -31.4684 H   0  0  0  0  0  0  0  0  0  0  0  0
   -1.4126   19.7137  -31.7550 H   0  0  0  0  0  0  0  0  0  0  0  0
   -3.1096   19.4002  -35.1115 H   0  0  0  0  0  0  0  0  0  0  0  0
   -2.8956   18.5343  -33.5468 H   0  0  0  0  0  0  0  0  0  0  0  0
   -9.4751   21.8129  -30.1191 H   0  0  0  0  0  0  0  0  0  0  0  0
   -9.9054   22.7484  -31.5909 H   0  0  0  0  0  0  0  0  0  0  0  0
  -10.0489   20.9579  -31.5909 H   0  0  0  0  0  0  0  0  0  0  0  0
   -8.3623   18.8041  -31.4047 H   0  0  0  0  0  0  0  0  0  0  0  0
   -9.0783   19.3718  -32.9512 H   0  0  0  0  0  0  0  0  0  0  0  0
   -7.4891   18.5346  -32.9512 H   0  0  0  0  0  0  0  0  0  0  0  0
   -1.3599   20.7194  -35.9664 H   0  0  0  0  0  0  0  0  0  0  0  0
    1.5573   25.8410  -34.7455 H   0  0  0  0  0  0  0  0  0  0  0  0
    1.5106   28.3275  -34.8583 H   0  0  0  0  0  0  0  0  0  0  0  0
  1  2  1  0
  2  3  1  0
  3  4  2  0
  4  5  1  0
  5  6  2  0
  6  7  1  0
  7  8  1  0
  8  9  2  0
  8 10  1  0
 10 11  1  0
 11 12  2  0
 12 13  1  0
 13 14  2  0
 14 15  1  0
 15 16  1  0
 16 17  1  0
 17 18  1  0
 18 19  2  0
 19 20  1  0
 20 21  1  0
 21 22  1  0
 22 23  1  0
 22 24  2  0
 24 25  1  0
 24 26  1  0
 26 27  1  0
 27 28  2  0
 15 29  2  0
  6 30  1  0
 30 31  2  0
 31  3  1  0
 29 11  1  0
 27 17  1  0
 26 20  2  0
  1 32  1  0
  1 33  1  0
  1 34  1  0
  4 35  1  0
  5 36  1  0
  7 37  1  0
 12 38  1  0
 13 39  1  0
 14 40  1  0
 16 41  1  0
 16 42  1  0
 23 43  1  0
 23 44  1  0
 23 45  1  0
 25 46  1  0
 25 47  1  0
 25 48  1  0
 29 49  1  0
 30 50  1  0
 31 51  1  0
M  CHG  1  10  -1
M  END
>  <UniqueID>  (13) 
13

>  <SMILES>  (13) 
COc1ccc(NC(=O)[N-]c2cccc(Cn3nnc4sc(C)c(C)c4c3=O)c2)cc1

>  <Energy>  (13) 
94.94032741052742

>  <Genealogy>  (13) 
COc1ccc(NC(=O)[N-]c2cccc(Cn3nnc4sc(C)c(C)c4c3=O)c2)cc1 (protonated)
COc1ccc(NC(=O)[N-]c2cccc(Cn3nnc4sc(C)c(C)c4c3=O)c2)cc1 (3D coordinates assigned)
COc1ccc(NC(=O)[N-]c2cccc(Cn3nnc4sc(C)c(C)c4c3=O)c2)cc1 (optimized conformer: 94.94032741052742 kcal/mol)

>  <smiles>  (13) 
COc1ccc(NC(=O)Nc2cccc(Cn3nnc4sc(C)c(C)c4c3=O)c2)cc1

>  <score_type>  (13) 
oracle

>  <origin>  (13) 
adgpu

>  <m_score__min__energy>  (13) 
-11.16

>  <m_primary>  (13) 
energy

$$$$
13:0
     RDKit          3D

 38 40  0  0  1  0  0  0  0  0999 V2000
   -4.1900   25.5380  -30.5650 N   0  0  0  0  0  0  0  0  0  0  0  0
   -3.3240   24.5770  -30.0090 C   0  0  0  0  0  0  0  0  0  0  0  0
   -2.2060   25.0540  -29.3950 N   0  0  0  0  0  0  0  0  0  0  0  0
   -1.3270   24.2070  -28.8380 C   0  0  0  0  0  0  0  0  0  0  0  0
   -1.5150   22.8820  -28.8650 N   0  0  0  0  0  0  0  0  0  0  0  0
   -2.6220   22.4100  -29.4730 C   0  0  0  0  0  0  0  0  0  0  0  0
   -2.7680   21.1390  -29.4800 N   0  0  0  0  0  0  0  0  0  0  0  0
   -1.8460   20.2370  -28.8950 C   0  0  0  0  0  0  0  0  0  0  0  0
   -2.0410   19.6730  -27.6390 C   0  0  0  0  0  0  0  0  0  0  0  0
   -1.1160   18.7980  -27.1060 C   0  0  0  0  0  0  0  0  0  0  0  0
    0.0060   18.4960  -27.8500 C   0  0  0  0  0  0  0  0  0  0  0  0
    0.9360   17.6370  -27.3530 F   0  0  0  0  0  0  0  0  0  0  0  0
    0.2430   19.0310  -29.1030 C   0  0  0  0  0  0  0  0  0  0  0  0
    1.6590   18.6490  -30.0410 Cl  0  0  0  0  0  0  0  0  0  0  0  0
   -0.7090   19.9130  -29.6170 C   0  0  0  0  0  0  0  0  0  0  0  0
   -3.5720   23.1970  -30.0670 C   0  0  0  0  0  0  0  0  0  0  0  0
   -4.7690   22.7670  -30.7300 C   0  0  0  0  0  0  0  0  0  0  0  0
   -5.3460   23.6610  -31.4480 O   0  0  0  0  0  0  0  0  0  0  0  0
   -5.3840   21.5110  -30.6960 N   0  0  0  0  0  0  0  0  0  0  0  0
   -6.5620   21.0950  -31.3510 C   0  0  0  0  0  0  0  0  0  0  0  0
   -7.7590   21.7630  -31.3580 C   0  0  0  0  0  0  0  0  0  0  0  0
   -8.8780   21.2680  -32.0400 C   0  0  0  0  0  0  0  0  0  0  0  0
   -8.8340   20.0840  -32.7370 C   0  0  0  0  0  0  0  0  0  0  0  0
   -9.9030   19.5980  -33.3960 F   0  0  0  0  0  0  0  0  0  0  0  0
   -7.6340   19.4050  -32.7340 C   0  0  0  0  0  0  0  0  0  0  0  0
   -6.5370   19.8970  -32.0620 C   0  0  0  0  0  0  0  0  0  0  0  0
   -5.4050   19.1340  -32.1350 F   0  0  0  0  0  0  0  0  0  0  0  0
   -4.2350   25.6200  -31.5940 H   0  0  0  0  0  0  0  0  0  0  0  0
   -4.7980   26.1810  -29.9930 H   0  0  0  0  0  0  0  0  0  0  0  0
   -1.9950   26.0730  -29.3350 H   0  0  0  0  0  0  0  0  0  0  0  0
   -0.4296   24.6115  -28.3470 H   0  0  0  0  0  0  0  0  0  0  0  0
   -2.9432   19.9272  -27.0633 H   0  0  0  0  0  0  0  0  0  0  0  0
   -1.2697   18.3523  -26.1122 H   0  0  0  0  0  0  0  0  0  0  0  0
   -0.5539   20.3578  -30.6110 H   0  0  0  0  0  0  0  0  0  0  0  0
   -4.9100   20.7710  -30.1050 H   0  0  0  0  0  0  0  0  0  0  0  0
   -7.8432   22.7146  -30.8127 H   0  0  0  0  0  0  0  0  0  0  0  0
   -9.8163   21.8417  -32.0172 H   0  0  0  0  0  0  0  0  0  0  0  0
   -7.5512   18.4527  -33.2784 H   0  0  0  0  0  0  0  0  0  0  0  0
  1  2  1  0
  2  3  1  0
  3  4  1  0
  4  5  2  0
  5  6  1  0
  6  7  2  0
  7  8  1  0
  8  9  2  0
  9 10  1  0
 10 11  2  0
 11 12  1  0
 11 13  1  0
 13 14  1  0
 13 15  2  0
  6 16  1  0
 16 17  1  0
 17 18  2  0
 17 19  1  0
 19 20  1  0
 20 21  2  0
 21 22  1  0
 22 23  2  0
 23 24  1  0
 23 25  1  0
 25 26  2  0
 26 27  1  0
 16  2  2  0
 26 20  1  0
 15  8  1  0
  1 28  1  0
  1 29  1  0
  3 30  1  0
  4 31  1  0
  9 32  1  0
 10 33  1  0
 15 34  1  0
 19 35  1  0
 21 36  1  0
 22 37  1  0
 25 38  1  0
M  END
>  <smiles>  (14) 
Nc1[nH]cnc(=Nc2ccc(F)c(Cl)c2)c1C(=O)Nc1ccc(F)cc1F

>  <score_type>  (14) 
oracle

>  <origin>  (14) 
adgpu

>  <m_score__min__energy>  (14) 
-7.8600000000000003

>  <m_primary>  (14) 
energy

$$$$
14:0
     RDKit          3D

 47 49  0  0  0  0  0  0  0  0999 V2000
   -3.6190   24.1770  -28.0100 C   0  0  0  0  0  0  0  0  0  0  0  0
   -3.1300   24.7690  -29.2970 C   0  0  0  0  0  0  0  0  0  0  0  0
   -1.9670   25.2470  -29.3460 O   0  0  0  0  0  0  0  0  0  0  0  0
   -3.9340   24.7740  -30.4840 N   0  0  0  0  0  0  0  0  0  0  0  0
   -4.9310   23.8070  -30.8430 C   0  0  0  0  0  0  0  0  0  0  0  0
   -4.7850   22.4880  -30.4010 C   0  0  0  0  0  0  0  0  0  0  0  0
   -5.7060   21.5080  -30.7840 C   0  0  0  0  0  0  0  0  0  0  0  0
   -6.7730   21.8350  -31.6300 C   0  0  0  0  0  0  0  0  0  0  0  0
   -7.8240   20.5760  -32.2770 S   0  0  0  0  0  0  0  0  0  0  0  0
   -7.9040   19.4120  -31.3300 O   0  0  0  0  0  0  0  0  0  0  0  0
   -9.2030   21.1410  -32.4710 O   0  0  0  0  0  0  0  0  0  0  0  0
   -7.1910   20.0470  -33.8030 N   0  0  0  0  0  0  0  0  0  0  0  0
   -5.8510   19.5600  -33.8680 C   0  0  0  0  0  0  0  0  0  0  0  0
   -5.4470   18.2420  -33.7190 C   0  0  0  0  0  0  0  0  0  0  0  0
   -6.3380   17.0370  -33.7740 C   0  0  0  0  0  0  0  0  0  0  0  0
   -4.1340   18.2240  -33.3820 N   0  0  0  0  0  0  0  0  0  0  0  0
   -3.3530   17.0310  -33.0480 C   0  0  0  0  0  0  0  0  0  0  0  0
   -3.7010   19.4800  -33.2870 N   0  0  0  0  0  0  0  0  0  0  0  0
   -2.4450   19.8990  -32.7300 C   0  0  0  0  0  0  0  0  0  0  0  0
   -2.3890   20.4430  -31.4360 C   0  0  0  0  0  0  0  0  0  0  0  0
   -1.1770   20.9070  -30.9170 C   0  0  0  0  0  0  0  0  0  0  0  0
   -0.0150   20.8330  -31.6890 C   0  0  0  0  0  0  0  0  0  0  0  0
   -0.0640   20.2970  -32.9800 C   0  0  0  0  0  0  0  0  0  0  0  0
   -1.2750   19.8390  -33.5020 C   0  0  0  0  0  0  0  0  0  0  0  0
   -4.7270   20.3030  -33.5780 C   0  0  0  0  0  0  0  0  0  0  0  0
   -4.6860   21.5590  -33.4810 O   0  0  0  0  0  0  0  0  0  0  0  0
   -6.9160   23.1520  -32.0810 C   0  0  0  0  0  0  0  0  0  0  0  0
   -5.9950   24.1310  -31.7010 C   0  0  0  0  0  0  0  0  0  0  0  0
   -3.1714   24.7188  -27.1638 H   0  0  0  0  0  0  0  0  0  0  0  0
   -4.7147   24.2608  -27.9608 H   0  0  0  0  0  0  0  0  0  0  0  0
   -3.3298   23.1168  -27.9608 H   0  0  0  0  0  0  0  0  0  0  0  0
   -3.9409   22.2201  -29.7485 H   0  0  0  0  0  0  0  0  0  0  0  0
   -5.5920   20.4765  -30.4194 H   0  0  0  0  0  0  0  0  0  0  0  0
   -7.6090   20.4590  -34.6660 H   0  0  0  0  0  0  0  0  0  0  0  0
   -6.5785   16.7118  -32.7511 H   0  0  0  0  0  0  0  0  0  0  0  0
   -7.2667   17.2916  -34.3056 H   0  0  0  0  0  0  0  0  0  0  0  0
   -5.8224   16.2237  -34.3056 H   0  0  0  0  0  0  0  0  0  0  0  0
   -3.2870   16.9302  -31.9546 H   0  0  0  0  0  0  0  0  0  0  0  0
   -3.8441   16.1414  -33.4693 H   0  0  0  0  0  0  0  0  0  0  0  0
   -2.3412   17.1253  -33.4693 H   0  0  0  0  0  0  0  0  0  0  0  0
   -3.3037   20.5041  -30.8281 H   0  0  0  0  0  0  0  0  0  0  0  0
   -1.1382   21.3298  -29.9022 H   0  0  0  0  0  0  0  0  0  0  0  0
    0.9396   21.1967  -31.2811 H   0  0  0  0  0  0  0  0  0  0  0  0
    0.8529   20.2363  -33.5847 H   0  0  0  0  0  0  0  0  0  0  0  0
   -1.3121   19.4296  -34.5223 H   0  0  0  0  0  0  0  0  0  0  0  0
   -7.7575   23.4175  -32.7378 H   0  0  0  0  0  0  0  0  0  0  0  0
   -6.1033   25.1597  -32.0751 H   0  0  0  0  0  0  0  0  0  0  0  0
  1  2  1  0
  2  3  2  0
  2  4  1  0
  4  5  1  0
  5  6  2  0
  6  7  1  0
  7  8  2  0
  8  9  1  0
  9 10  2  0
  9 11  2  0
  9 12  1  0
 12 13  1  0
 13 14  2  0
 14 15  1  0
 14 16  1  0
 16 17  1  0
 16 18  1  0
 18 19  1  0
 19 20  2  0
 20 21  1  0
 21 22  2  0
 22 23  1  0
 23 24  2  0
 18 25  1  0
 25 26  2  0
  8 27  1  0
 27 28  2  0
 28  5  1  0
 25 13  1  0
 24 19  1  0
  1 29  1  0
  1 30  1  0
  1 31  1  0
  6 32  1  0
  7 33  1  0
 12 34  1  0
 15 35  1  0
 15 36  1  0
 15 37  1  0
 17 38  1  0
 17 39  1  0
 17 40  1  0
 20 41  1  0
 21 42  1  0
 22 43  1  0
 23 44  1  0
 24 45  1  0
 27 46  1  0
 28 47  1  0
M  CHG  1   4  -1
M  END
>  <UniqueID>  (15) 
14

>  <SMILES>  (15) 
CC(=O)[N-]c1ccc(S(=O)(=O)Nc2c(C)n(C)n(-c3ccccc3)c2=O)cc1

>  <Energy>  (15) 
98.11300684380161

>  <Genealogy>  (15) 
CC(=O)[N-]c1ccc(S(=O)(=O)Nc2c(C)n(C)n(-c3ccccc3)c2=O)cc1 (protonated)
CC(=O)[N-]c1ccc(S(=O)(=O)Nc2c(C)n(C)n(-c3ccccc3)c2=O)cc1 (3D coordinates assigned)
CC(=O)[N-]c1ccc(S(=O)(=O)Nc2c(C)n(C)n(-c3ccccc3)c2=O)cc1 (optimized conformer: 98.11300684380161 kcal/mol)

>  <smiles>  (15) 
CC(=O)Nc1ccc(S(=O)(=O)Nc2c(C)n(C)n(-c3ccccc3)c2=O)cc1

>  <score_type>  (15) 
oracle

>  <origin>  (15) 
adgpu

>  <m_score__min__energy>  (15) 
-10.44

>  <m_primary>  (15) 
energy

$$$$
15:0
     RDKit          3D

 29 30  0  0  1  0  0  0  0  0999 V2000
   -6.6230   15.5410  -34.2170 C   0  0  0  0  0  0  0  0  0  0  0  0
   -6.1160   16.8400  -33.7010 C   0  0  0  0  0  0  0  0  0  0  0  0
   -6.1610   17.1460  -32.3560 C   0  0  0  0  0  0  0  0  0  0  0  0
   -5.6830   18.3600  -31.9180 C   0  0  0  0  0  0  0  0  0  0  0  0
   -5.1470   19.3220  -32.7330 C   0  0  0  0  0  0  0  0  0  0  0  0
   -4.6950   20.5860  -32.3780 N   0  0  0  0  0  0  0  0  0  0  0  0
   -5.3710   21.6090  -32.1390 C   0  0  0  0  0  0  0  0  0  0  0  0
   -4.7150   22.7440  -31.8080 N   0  0  0  0  0  0  0  0  0  0  0  0
   -5.3270   23.9040  -31.5320 C   0  0  0  0  0  0  0  0  0  0  0  0
   -4.6220   24.9580  -31.2190 N   0  0  0  0  0  0  0  0  0  0  0  0
   -6.6600   23.9340  -31.5870 N   0  0  0  0  0  0  0  0  0  0  0  0
   -7.3510   22.8330  -31.9110 C   0  0  0  0  0  0  0  0  0  0  0  0
   -9.1000   22.9720  -31.9580 Cl  0  0  0  0  0  0  0  0  0  0  0  0
   -6.7150   21.6100  -32.2030 C   0  0  0  0  0  0  0  0  0  0  0  0
   -7.5790   20.5560  -32.5260 N   0  0  0  0  0  0  0  0  0  0  0  0
   -7.6740   20.2660  -33.7620 O   0  0  0  0  0  0  0  0  0  0  0  0
   -8.3650   19.8370  -31.6810 O   0  0  0  0  0  0  0  0  0  0  0  0
   -5.1060   19.0010  -34.1050 C   0  0  0  0  0  0  0  0  0  0  0  0
   -5.5790   17.7910  -34.5690 C   0  0  0  0  0  0  0  0  0  0  0  0
   -6.8789   14.8854  -33.3716 H   0  0  0  0  0  0  0  0  0  0  0  0
   -7.5193   15.7149  -34.8306 H   0  0  0  0  0  0  0  0  0  0  0  0
   -5.8459   15.0617  -34.8306 H   0  0  0  0  0  0  0  0  0  0  0  0
   -6.5766   16.4236  -31.6381 H   0  0  0  0  0  0  0  0  0  0  0  0
   -5.7349   18.5724  -30.8399 H   0  0  0  0  0  0  0  0  0  0  0  0
   -3.6690   22.7490  -31.7570 H   0  0  0  0  0  0  0  0  0  0  0  0
   -3.5800   24.9210  -31.1790 H   0  0  0  0  0  0  0  0  0  0  0  0
   -7.1340   24.8380  -31.3710 H   0  0  0  0  0  0  0  0  0  0  0  0
   -4.6897   19.7279  -34.8180 H   0  0  0  0  0  0  0  0  0  0  0  0
   -5.5317   17.5715  -35.6458 H   0  0  0  0  0  0  0  0  0  0  0  0
  1  2  1  0
  2  3  2  0
  3  4  1  0
  4  5  2  0
  5  6  1  0
  6  7  2  0
  7  8  1  0
  8  9  1  0
  9 10  2  3
  9 11  1  0
 11 12  1  0
 12 13  1  0
 12 14  2  0
 14 15  1  0
 15 16  2  0
 15 17  1  0
  5 18  1  0
 18 19  2  0
 19  2  1  0
 14  7  1  0
  1 20  1  0
  1 21  1  0
  1 22  1  0
  3 23  1  0
  4 24  1  0
  8 25  1  0
 10 26  1  0
 11 27  1  0
 18 28  1  0
 19 29  1  0
M  CHG  2  15   1  17  -1
M  END
>  <smiles>  (16) 
Cc1ccc(N=c2[nH]c(=N)[nH]c(Cl)c2[N+](=O)[O-])cc1

>  <score_type>  (16) 
oracle

>  <origin>  (16) 
adgpu

>  <m_score__min__energy>  (16) 
-6.9800000000000004

>  <m_primary>  (16) 
energy

$$$$
16:0
     RDKit          3D

 44 46  0  0  0  0  0  0  0  0999 V2000
   -6.1090   18.9320  -34.2030 C   0  0  0  0  0  0  0  0  0  0  0  0
   -6.0770   20.1480  -33.4630 O   0  0  0  0  0  0  0  0  0  0  0  0
   -7.1830   20.7180  -32.8150 C   0  0  0  0  0  0  0  0  0  0  0  0
   -8.4040   20.0280  -32.6800 C   0  0  0  0  0  0  0  0  0  0  0  0
   -9.4800   20.6260  -32.0160 C   0  0  0  0  0  0  0  0  0  0  0  0
   -9.3540   21.9110  -31.4900 C   0  0  0  0  0  0  0  0  0  0  0  0
   -8.1450   22.5990  -31.6150 C   0  0  0  0  0  0  0  0  0  0  0  0
   -7.0560   22.0080  -32.2680 C   0  0  0  0  0  0  0  0  0  0  0  0
   -5.7930   22.6910  -32.3240 N   0  0  0  0  0  0  0  0  0  0  0  0
   -5.1940   23.5640  -30.9490 S   0  0  0  0  0  0  0  0  0  0  0  0
   -6.0250   23.2290  -29.7400 O   0  0  0  0  0  0  0  0  0  0  0  0
   -5.2870   25.0430  -31.2150 O   0  0  0  0  0  0  0  0  0  0  0  0
   -3.4980   23.1370  -30.6860 C   0  0  0  0  0  0  0  0  0  0  0  0
   -2.7370   23.8380  -29.7410 C   0  0  0  0  0  0  0  0  0  0  0  0
   -1.4300   23.4350  -29.4300 C   0  0  0  0  0  0  0  0  0  0  0  0
   -0.6660   24.1630  -28.3940 C   0  0  0  0  0  0  0  0  0  0  0  0
   -1.1200   24.6030  -27.1630 C   0  0  0  0  0  0  0  0  0  0  0  0
   -0.0210   25.2210  -26.6140 C   0  0  0  0  0  0  0  0  0  0  0  0
    0.0150   25.9430  -25.3070 C   0  0  0  0  0  0  0  0  0  0  0  0
    1.0100   25.1630  -27.4760 N   0  0  0  0  0  0  0  0  0  0  0  0
    0.5910   24.5190  -28.5250 O   0  0  0  0  0  0  0  0  0  0  0  0
   -0.8820   22.3270  -30.0960 C   0  0  0  0  0  0  0  0  0  0  0  0
   -1.6310   21.6300  -31.0440 C   0  0  0  0  0  0  0  0  0  0  0  0
   -2.9480   22.0220  -31.3420 C   0  0  0  0  0  0  0  0  0  0  0  0
   -3.7400   21.3220  -32.2670 O   0  0  0  0  0  0  0  0  0  0  0  0
   -3.2420   20.6750  -33.4370 C   0  0  0  0  0  0  0  0  0  0  0  0
   -6.1314   18.0800  -33.5075 H   0  0  0  0  0  0  0  0  0  0  0  0
   -7.0080   18.9119  -34.8366 H   0  0  0  0  0  0  0  0  0  0  0  0
   -5.2123   18.8646  -34.8366 H   0  0  0  0  0  0  0  0  0  0  0  0
   -8.5113   19.0162  -33.0980 H   0  0  0  0  0  0  0  0  0  0  0  0
  -10.4291   20.0805  -31.9084 H   0  0  0  0  0  0  0  0  0  0  0  0
  -10.2055   22.3823  -30.9773 H   0  0  0  0  0  0  0  0  0  0  0  0
   -8.0474   23.6121  -31.1977 H   0  0  0  0  0  0  0  0  0  0  0  0
   -5.1310   22.4910  -33.1020 H   0  0  0  0  0  0  0  0  0  0  0  0
   -3.1698   24.7148  -29.2371 H   0  0  0  0  0  0  0  0  0  0  0  0
   -2.1230   24.4860  -26.7267 H   0  0  0  0  0  0  0  0  0  0  0  0
   -0.0214   25.2138  -24.4842 H   0  0  0  0  0  0  0  0  0  0  0  0
    0.9435   26.5287  -25.2371 H   0  0  0  0  0  0  0  0  0  0  0  0
   -0.8506   26.6182  -25.2371 H   0  0  0  0  0  0  0  0  0  0  0  0
    0.1453   22.0064  -29.8685 H   0  0  0  0  0  0  0  0  0  0  0  0
   -1.1879   20.7670  -31.5625 H   0  0  0  0  0  0  0  0  0  0  0  0
   -2.5953   19.8348  -33.1442 H   0  0  0  0  0  0  0  0  0  0  0  0
   -4.0851   20.2979  -34.0344 H   0  0  0  0  0  0  0  0  0  0  0  0
   -2.6617   21.3935  -34.0344 H   0  0  0  0  0  0  0  0  0  0  0  0
  1  2  1  0
  2  3  1  0
  3  4  2  0
  4  5  1  0
  5  6  2  0
  6  7  1  0
  7  8  2  0
  8  9  1  0
  9 10  1  0
 10 11  2  0
 10 12  2  0
 10 13  1  0
 13 14  2  0
 14 15  1  0
 15 16  1  0
 16 17  2  0
 17 18  1  0
 18 19  1  0
 18 20  2  0
 20 21  1  0
 15 22  2  0
 22 23  1  0
 23 24  2  0
 24 25  1  0
 25 26  1  0
  8  3  1  0
 24 13  1  0
 21 16  1  0
  1 27  1  0
  1 28  1  0
  1 29  1  0
  4 30  1  0
  5 31  1  0
  6 32  1  0
  7 33  1  0
  9 34  1  0
 14 35  1  0
 17 36  1  0
 19 37  1  0
 19 38  1  0
 19 39  1  0
 22 40  1  0
 23 41  1  0
 26 42  1  0
 26 43  1  0
 26 44  1  0
M  END
>  <UniqueID>  (17) 
15

>  <SMILES>  (17) 
COc1ccccc1NS(=O)(=O)c1cc(-c2cc(C)no2)ccc1OC

>  <Energy>  (17) 
78.72106054973045

>  <Genealogy>  (17) 
COc1ccccc1NS(=O)(=O)c1cc(-c2cc(C)no2)ccc1OC (3D coordinates assigned)
COc1ccccc1NS(=O)(=O)c1cc(-c2cc(C)no2)ccc1OC (optimized conformer: 78.72106054973045 kcal/mol)

>  <smiles>  (17) 
COc1ccccc1NS(=O)(=O)c1cc(-c2cc(C)no2)ccc1OC

>  <score_type>  (17) 
oracle

>  <origin>  (17) 
adgpu

>  <m_score__min__energy>  (17) 
-8.6999999999999993

>  <m_primary>  (17) 
energy

$$$$
17:0
     RDKit          3D

 67 70  0  0  1  0  0  0  0  0999 V2000
   -5.6550   25.2940  -30.3440 C   0  0  0  0  0  0  0  0  0  0  0  0
   -4.4320   24.7060  -30.8110 O   0  0  0  0  0  0  0  0  0  0  0  0
   -4.4140   23.3640  -31.1570 C   0  0  0  0  0  0  0  0  0  0  0  0
   -5.5590   22.7510  -31.6410 C   0  0  0  0  0  0  0  0  0  0  0  0
   -5.6060   21.4320  -32.0000 C   0  0  0  0  0  0  0  0  0  0  0  0
   -6.7510   20.7690  -32.5000 N   0  0  0  0  0  0  0  0  0  0  0  0
   -6.7480   19.7440  -33.5090 C   0  0  0  0  0  0  0  0  0  0  0  0
   -7.5570   18.5540  -33.0530 C   0  0  0  0  0  0  0  0  0  0  0  0
   -8.8430   18.8800  -32.5070 N   0  0  0  0  0  0  0  0  0  0  0  0
   -9.0670   18.2890  -31.2060 C   0  0  0  0  0  0  0  0  0  0  0  0
   -9.1560   20.2830  -32.5520 C   0  0  0  0  0  0  0  0  0  0  0  0
   -8.0660   21.1440  -31.9600 C   0  0  0  0  0  0  0  0  0  0  0  0
   -4.4120   20.7170  -31.8510 C   0  0  0  0  0  0  0  0  0  0  0  0
   -3.2670   21.3160  -31.3710 C   0  0  0  0  0  0  0  0  0  0  0  0
   -3.2430   22.6490  -31.0140 C   0  0  0  0  0  0  0  0  0  0  0  0
   -2.0850   23.3050  -30.5160 N   0  0  0  0  0  0  0  0  0  0  0  0
   -2.0670   23.9070  -29.3730 C   0  0  0  0  0  0  0  0  0  0  0  0
   -3.1790   23.9210  -28.6160 N   0  0  0  0  0  0  0  0  0  0  0  0
   -3.2180   24.5340  -27.4180 C   0  0  0  0  0  0  0  0  0  0  0  0
   -2.1010   25.1640  -26.9440 C   0  0  0  0  0  0  0  0  0  0  0  0
   -2.1220   25.9520  -25.4000 Cl  0  0  0  0  0  0  0  0  0  0  0  0
   -0.9710   25.1610  -27.6950 C   0  0  0  0  0  0  0  0  0  0  0  0
    0.1180   25.7300  -27.3380 N   0  0  0  0  0  0  0  0  0  0  0  0
    0.2870   26.4360  -26.1210 C   0  0  0  0  0  0  0  0  0  0  0  0
    0.0190   27.8120  -26.0600 C   0  0  0  0  0  0  0  0  0  0  0  0
    0.1870   28.5440  -24.9160 C   0  0  0  0  0  0  0  0  0  0  0  0
    0.6350   27.9070  -23.7940 C   0  0  0  0  0  0  0  0  0  0  0  0
    0.9130   26.5520  -23.8110 C   0  0  0  0  0  0  0  0  0  0  0  0
    0.7470   25.7820  -24.9690 C   0  0  0  0  0  0  0  0  0  0  0  0
    1.1150   24.0740  -24.9650 S   0  0  0  0  0  0  0  0  0  0  0  0
    1.7570   23.6490  -26.2450 O   0  0  0  0  0  0  0  0  0  0  0  0
    2.1170   23.7410  -23.8700 O   0  0  0  0  0  0  0  0  0  0  0  0
   -0.3090   23.0670  -24.6410 C   0  0  0  0  0  0  0  0  0  0  0  0
   -0.6680   22.1900  -25.7940 C   0  0  0  0  0  0  0  0  0  0  0  0
   -0.1670   22.2500  -23.4040 C   0  0  0  0  0  0  0  0  0  0  0  0
   -0.9830   24.5360  -28.8840 N   0  0  0  0  0  0  0  0  0  0  0  0
   -5.6633   25.2980  -29.2440 H   0  0  0  0  0  0  0  0  0  0  0  0
   -5.7304   26.3268  -30.7150 H   0  0  0  0  0  0  0  0  0  0  0  0
   -6.5087   24.7079  -30.7150 H   0  0  0  0  0  0  0  0  0  0  0  0
   -6.4735   23.3540  -31.7412 H   0  0  0  0  0  0  0  0  0  0  0  0
   -7.1849   20.1458  -34.4351 H   0  0  0  0  0  0  0  0  0  0  0  0
   -5.7113   19.4230  -33.6883 H   0  0  0  0  0  0  0  0  0  0  0  0
   -7.7093   17.8911  -33.9175 H   0  0  0  0  0  0  0  0  0  0  0  0
   -6.9848   18.0804  -32.2417 H   0  0  0  0  0  0  0  0  0  0  0  0
   -8.7932   19.0115  -30.4230 H   0  0  0  0  0  0  0  0  0  0  0  0
  -10.1289   18.0214  -31.1028 H   0  0  0  0  0  0  0  0  0  0  0  0
   -8.4492   17.3847  -31.1028 H   0  0  0  0  0  0  0  0  0  0  0  0
   -9.3049   20.5766  -33.6016 H   0  0  0  0  0  0  0  0  0  0  0  0
  -10.0647   20.4394  -31.9522 H   0  0  0  0  0  0  0  0  0  0  0  0
   -8.2678   22.1979  -32.2022 H   0  0  0  0  0  0  0  0  0  0  0  0
   -8.0539   20.9963  -30.8700 H   0  0  0  0  0  0  0  0  0  0  0  0
   -4.3867   19.6516  -32.1235 H   0  0  0  0  0  0  0  0  0  0  0  0
   -2.3500   20.7169  -31.2700 H   0  0  0  0  0  0  0  0  0  0  0  0
   -4.0660   23.4580  -28.9200 H   0  0  0  0  0  0  0  0  0  0  0  0
   -4.1436   24.5280  -26.8237 H   0  0  0  0  0  0  0  0  0  0  0  0
   -0.3398   28.3218  -26.9663 H   0  0  0  0  0  0  0  0  0  0  0  0
   -0.0339   29.6215  -24.9005 H   0  0  0  0  0  0  0  0  0  0  0  0
    0.7766   28.4787  -22.8650 H   0  0  0  0  0  0  0  0  0  0  0  0
    1.2735   26.0671  -22.8918 H   0  0  0  0  0  0  0  0  0  0  0  0
   -1.1327   23.7792  -24.4850 H   0  0  0  0  0  0  0  0  0  0  0  0
   -1.0597   21.2331  -25.4188 H   0  0  0  0  0  0  0  0  0  0  0  0
   -1.4356   22.6855  -26.4065 H   0  0  0  0  0  0  0  0  0  0  0  0
    0.2268   22.0050  -26.4065 H   0  0  0  0  0  0  0  0  0  0  0  0
   -0.2796   22.8976  -22.5220 H   0  0  0  0  0  0  0  0  0  0  0  0
   -0.9432   21.4707  -23.3882 H   0  0  0  0  0  0  0  0  0  0  0  0
    0.8266   21.7783  -23.3882 H   0  0  0  0  0  0  0  0  0  0  0  0
   -0.1230   24.5210  -29.4750 H   0  0  0  0  0  0  0  0  0  0  0  0
  1  2  1  0
  2  3  1  0
  3  4  2  0
  4  5  1  0
  5  6  1  0
  6  7  1  0
  7  8  1  0
  8  9  1  0
  9 10  1  0
  9 11  1  0
 11 12  1  0
  5 13  2  0
 13 14  1  0
 14 15  2  0
 15 16  1  0
 16 17  2  0
 17 18  1  0
 18 19  1  0
 19 20  2  0
 20 21  1  0
 20 22  1  0
 22 23  2  0
 23 24  1  0
 24 25  2  0
 25 26  1  0
 26 27  2  0
 27 28  1  0
 28 29  2  0
 29 30  1  0
 30 31  2  0
 30 32  2  0
 30 33  1  0
 33 34  1  0
 33 35  1  0
 22 36  1  0
 15  3  1  0
 36 17  1  0
 12  6  1  0
 29 24  1  0
  1 37  1  0
  1 38  1  0
  1 39  1  0
  4 40  1  0
  7 41  1  0
  7 42  1  0
  8 43  1  0
  8 44  1  0
 10 45  1  0
 10 46  1  0
 10 47  1  0
 11 48  1  0
 11 49  1  0
 12 50  1  0
 12 51  1  0
 13 52  1  0
 14 53  1  0
 18 54  1  0
 19 55  1  0
 25 56  1  0
 26 57  1  0
 27 58  1  0
 28 59  1  0
 33 60  1  0
 34 61  1  0
 34 62  1  0
 34 63  1  0
 35 64  1  0
 35 65  1  0
 35 66  1  0
 36 67  1  0
M  END
>  <smiles>  (18) 
COc1cc(N2CCN(C)CC2)ccc1N=c1[nH]cc(Cl)c(=Nc2ccccc2S(=O)(=O)C(C)C)[nH]1

>  <score_type>  (18) 
oracle

>  <origin>  (18) 
adgpu

>  <m_score__min__energy>  (18) 
-10.529999999999999

>  <m_primary>  (18) 
energy

$$$$
18:0
     RDKit          3D

 65 69  0  0  0  0  0  0  0  0999 V2000
   -0.9650   17.0440  -34.8850 C   0  0  0  0  0  0  0  0  0  0  0  0
    0.5080   16.8920  -34.5180 C   0  0  0  0  0  0  0  0  0  0  0  0
    0.9930   18.0670  -33.8680 O   0  0  0  0  0  0  0  0  0  0  0  0
    0.2640   19.2520  -33.6630 C   0  0  0  0  0  0  0  0  0  0  0  0
    0.3960   20.3710  -34.5020 C   0  0  0  0  0  0  0  0  0  0  0  0
   -0.3660   21.5100  -34.2520 C   0  0  0  0  0  0  0  0  0  0  0  0
   -1.2440   21.5380  -33.1720 C   0  0  0  0  0  0  0  0  0  0  0  0
   -1.3480   20.4120  -32.3310 C   0  0  0  0  0  0  0  0  0  0  0  0
   -2.1640   20.3760  -31.3120 N   0  0  0  0  0  0  0  0  0  0  0  0
   -2.9670   21.4520  -30.8000 C   0  0  0  0  0  0  0  0  0  0  0  0
   -2.4520   22.3090  -29.8130 C   0  0  0  0  0  0  0  0  0  0  0  0
   -3.2420   23.3320  -29.2600 C   0  0  0  0  0  0  0  0  0  0  0  0
   -2.6800   24.2530  -28.2390 C   0  0  0  0  0  0  0  0  0  0  0  0
   -3.3480   24.4650  -27.0210 C   0  0  0  0  0  0  0  0  0  0  0  0
   -2.8130   25.3260  -26.0590 C   0  0  0  0  0  0  0  0  0  0  0  0
   -1.5980   25.9870  -26.2930 C   0  0  0  0  0  0  0  0  0  0  0  0
   -1.0500   26.8730  -25.3010 N   0  0  0  0  0  0  0  0  0  0  0  0
   -0.7720   28.2730  -25.6440 C   0  0  0  0  0  0  0  0  0  0  0  0
    0.0610   28.9440  -24.5430 C   0  0  0  0  0  0  0  0  0  0  0  0
    1.0850   28.0180  -24.0400 N   0  0  0  0  0  0  0  0  0  0  0  0
    0.5010   26.8410  -23.3680 C   0  0  0  0  0  0  0  0  0  0  0  0
   -0.8820   26.4300  -23.9140 C   0  0  0  0  0  0  0  0  0  0  0  0
   -0.9330   25.7870  -27.5130 C   0  0  0  0  0  0  0  0  0  0  0  0
    0.2210   26.4470  -27.7860 F   0  0  0  0  0  0  0  0  0  0  0  0
   -1.4680   24.9260  -28.4760 C   0  0  0  0  0  0  0  0  0  0  0  0
   -4.5740   23.4630  -29.6850 C   0  0  0  0  0  0  0  0  0  0  0  0
   -5.1030   22.5940  -30.6420 C   0  0  0  0  0  0  0  0  0  0  0  0
   -4.3090   21.5870  -31.2060 C   0  0  0  0  0  0  0  0  0  0  0  0
   -4.9990   20.5000  -32.4200 S   0  0  0  0  0  0  0  0  0  0  0  0
   -4.6670   20.9920  -33.8010 O   0  0  0  0  0  0  0  0  0  0  0  0
   -4.4230   19.1230  -32.2380 O   0  0  0  0  0  0  0  0  0  0  0  0
   -6.7450   20.4200  -32.2790 C   0  0  0  0  0  0  0  0  0  0  0  0
   -7.3830   19.2280  -32.4230 N   0  0  0  0  0  0  0  0  0  0  0  0
   -8.7350   19.1450  -32.3370 C   0  0  0  0  0  0  0  0  0  0  0  0
   -9.4890   20.2960  -32.1040 C   0  0  0  0  0  0  0  0  0  0  0  0
   -8.8200   21.5100  -31.9630 C   0  0  0  0  0  0  0  0  0  0  0  0
   -7.4640   21.5510  -32.0540 N   0  0  0  0  0  0  0  0  0  0  0  0
   -0.6040   19.3030  -32.6140 N   0  0  0  0  0  0  0  0  0  0  0  0
   -1.5672   17.1061  -33.9666 H   0  0  0  0  0  0  0  0  0  0  0  0
   -1.1028   17.9611  -35.4765 H   0  0  0  0  0  0  0  0  0  0  0  0
   -1.2871   16.1743  -35.4765 H   0  0  0  0  0  0  0  0  0  0  0  0
    0.6242   16.0320  -33.8420 H   0  0  0  0  0  0  0  0  0  0  0  0
    1.0865   16.7354  -35.4404 H   0  0  0  0  0  0  0  0  0  0  0  0
    1.0960   20.3479  -35.3502 H   0  0  0  0  0  0  0  0  0  0  0  0
   -0.2739   22.3879  -34.9084 H   0  0  0  0  0  0  0  0  0  0  0  0
   -1.8526   22.4332  -32.9764 H   0  0  0  0  0  0  0  0  0  0  0  0
   -1.4158   22.1777  -29.4680 H   0  0  0  0  0  0  0  0  0  0  0  0
   -4.2993   23.9493  -26.8233 H   0  0  0  0  0  0  0  0  0  0  0  0
   -3.3484   25.4865  -25.1116 H   0  0  0  0  0  0  0  0  0  0  0  0
   -0.2147   28.3092  -26.5917 H   0  0  0  0  0  0  0  0  0  0  0  0
   -1.7268   28.8101  -25.7432 H   0  0  0  0  0  0  0  0  0  0  0  0
    0.5517   29.8386  -24.9540 H   0  0  0  0  0  0  0  0  0  0  0  0
   -0.6043   29.2255  -23.7134 H   0  0  0  0  0  0  0  0  0  0  0  0
    1.6640   27.6930  -24.8510 H   0  0  0  0  0  0  0  0  0  0  0  0
    1.1895   25.9926  -23.4955 H   0  0  0  0  0  0  0  0  0  0  0  0
    0.3583   27.1150  -22.3123 H   0  0  0  0  0  0  0  0  0  0  0  0
   -0.9746   25.3347  -23.8721 H   0  0  0  0  0  0  0  0  0  0  0  0
   -1.6587   26.9054  -23.2969 H   0  0  0  0  0  0  0  0  0  0  0  0
   -0.9365   24.7737  -29.4270 H   0  0  0  0  0  0  0  0  0  0  0  0
   -5.2062   24.2568  -29.2606 H   0  0  0  0  0  0  0  0  0  0  0  0
   -6.1519   22.7012  -30.9555 H   0  0  0  0  0  0  0  0  0  0  0  0
   -9.2356   18.1721  -32.4508 H   0  0  0  0  0  0  0  0  0  0  0  0
  -10.5856   20.2460  -32.0333 H   0  0  0  0  0  0  0  0  0  0  0  0
   -9.3879   22.4338  -31.7784 H   0  0  0  0  0  0  0  0  0  0  0  0
   -0.6930   18.4610  -32.0020 H   0  0  0  0  0  0  0  0  0  0  0  0
  1  2  1  0
  2  3  1  0
  3  4  1  0
  4  5  2  0
  5  6  1  0
  6  7  2  0
  7  8  1  0
  8  9  2  3
  9 10  1  0
 10 11  2  0
 11 12  1  0
 12 13  1  0
 13 14  2  0
 14 15  1  0
 15 16  2  0
 16 17  1  0
 17 18  1  0
 18 19  1  0
 19 20  1  0
 20 21  1  0
 21 22  1  0
 16 23  1  0
 23 24  1  0
 23 25  2  0
 12 26  2  0
 26 27  1  0
 27 28  2  0
 28 29  1  0
 29 30  2  0
 29 31  2  0
 29 32  1  0
 32 33  2  0
 33 34  1  0
 34 35  2  0
 35 36  1  0
 36 37  2  0
  8 38  1  0
 38  4  1  0
 28 10  1  0
 37 32  1  0
 25 13  1  0
 22 17  1  0
  1 39  1  0
  1 40  1  0
  1 41  1  0
  2 42  1  0
  2 43  1  0
  5 44  1  0
  6 45  1  0
  7 46  1  0
 11 47  1  0
 14 48  1  0
 15 49  1  0
 18 50  1  0
 18 51  1  0
 19 52  1  0
 19 53  1  0
 20 54  1  0
 21 55  1  0
 21 56  1  0
 22 57  1  0
 22 58  1  0
 25 59  1  0
 26 60  1  0
 27 61  1  0
 34 62  1  0
 35 63  1  0
 36 64  1  0
 38 65  1  0
M  END
>  <UniqueID>  (19) 
16

>  <SMILES>  (19) 
CCOc1cccc(=Nc2cc(-c3ccc(N4CCNCC4)c(F)c3)ccc2S(=O)(=O)c2ncccn2)[nH]1

>  <Energy>  (19) 
96.8371245265412

>  <Genealogy>  (19) 
CCOc1cccc(=Nc2cc(-c3ccc(N4CCNCC4)c(F)c3)ccc2S(=O)(=O)c2ncccn2)[nH]1 (3D coordinates assigned)
CCOc1cccc(=Nc2cc(-c3ccc(N4CCNCC4)c(F)c3)ccc2S(=O)(=O)c2ncccn2)[nH]1 (nonaromatic ring conformer: 96.8371245265412 kcal/mol)

>  <smiles>  (19) 
CCOc1cccc(=Nc2cc(-c3ccc(N4CCNCC4)c(F)c3)ccc2S(=O)(=O)c2ncccn2)[nH]1

>  <score_type>  (19) 
oracle

>  <origin>  (19) 
adgpu

>  <m_score__min__energy>  (19) 
-9.3100000000000005

>  <m_primary>  (19) 
energy

$$$$
19:0
     RDKit          3D

 39 41  0  0  0  0  0  0  0  0999 V2000
   -2.3690   25.2860  -29.3390 N   0  0  0  0  0  0  0  0  0  0  0  0
   -3.0370   24.1230  -29.8230 C   0  0  0  0  0  0  0  0  0  0  0  0
   -2.3820   23.0550  -29.9680 O   0  0  0  0  0  0  0  0  0  0  0  0
   -4.4820   24.1650  -30.1520 C   0  0  0  0  0  0  0  0  0  0  0  0
   -5.2740   25.2510  -29.7390 C   0  0  0  0  0  0  0  0  0  0  0  0
   -6.6370   25.2880  -30.0390 C   0  0  0  0  0  0  0  0  0  0  0  0
   -7.2260   24.2480  -30.7610 C   0  0  0  0  0  0  0  0  0  0  0  0
   -6.4490   23.1630  -31.2040 C   0  0  0  0  0  0  0  0  0  0  0  0
   -7.0340   22.0670  -31.9280 N   0  0  0  0  0  0  0  0  0  0  0  0
   -8.1950   21.3450  -31.4970 C   0  0  0  0  0  0  0  0  0  0  0  0
   -8.9210   21.7950  -30.5700 O   0  0  0  0  0  0  0  0  0  0  0  0
   -8.5730   20.1530  -32.1990 N   0  0  0  0  0  0  0  0  0  0  0  0
   -7.6860   19.1640  -32.7400 C   0  0  0  0  0  0  0  0  0  0  0  0
   -6.7880   19.5440  -33.7440 C   0  0  0  0  0  0  0  0  0  0  0  0
   -5.8940   18.6180  -34.2860 C   0  0  0  0  0  0  0  0  0  0  0  0
   -5.8700   17.2910  -33.8190 C   0  0  0  0  0  0  0  0  0  0  0  0
   -4.9200   16.3040  -34.3930 C   0  0  0  0  0  0  0  0  0  0  0  0
   -3.8010   16.7290  -35.1300 C   0  0  0  0  0  0  0  0  0  0  0  0
   -2.9210   15.7840  -35.6610 C   0  0  0  0  0  0  0  0  0  0  0  0
   -3.1450   14.4570  -35.4650 N   0  0  0  0  0  0  0  0  0  0  0  0
   -4.2160   14.0140  -34.7580 C   0  0  0  0  0  0  0  0  0  0  0  0
   -5.1210   14.9250  -34.2090 C   0  0  0  0  0  0  0  0  0  0  0  0
   -6.7560   16.9180  -32.7930 C   0  0  0  0  0  0  0  0  0  0  0  0
   -7.6510   17.8460  -32.2530 C   0  0  0  0  0  0  0  0  0  0  0  0
   -5.0830   23.1210  -30.8780 C   0  0  0  0  0  0  0  0  0  0  0  0
   -1.5550   25.6910  -29.8520 H   0  0  0  0  0  0  0  0  0  0  0  0
   -4.8163   26.0774  -29.1755 H   0  0  0  0  0  0  0  0  0  0  0  0
   -7.2489   26.1391  -29.7055 H   0  0  0  0  0  0  0  0  0  0  0  0
   -8.3027   24.2776  -30.9842 H   0  0  0  0  0  0  0  0  0  0  0  0
   -6.6380   21.8260  -32.8640 H   0  0  0  0  0  0  0  0  0  0  0  0
   -6.7863   20.5815  -34.1095 H   0  0  0  0  0  0  0  0  0  0  0  0
   -5.2035   18.9284  -35.0840 H   0  0  0  0  0  0  0  0  0  0  0  0
   -3.6193   17.8023  -35.2878 H   0  0  0  0  0  0  0  0  0  0  0  0
   -2.0449   16.1134  -36.2389 H   0  0  0  0  0  0  0  0  0  0  0  0
   -4.3714   12.9342  -34.6171 H   0  0  0  0  0  0  0  0  0  0  0  0
   -5.9875   14.5649  -33.6350 H   0  0  0  0  0  0  0  0  0  0  0  0
   -6.7447   15.8863  -32.4117 H   0  0  0  0  0  0  0  0  0  0  0  0
   -8.3311   17.5434  -31.4431 H   0  0  0  0  0  0  0  0  0  0  0  0
   -4.4756   22.2603  -31.1947 H   0  0  0  0  0  0  0  0  0  0  0  0
  1  2  1  0
  2  3  2  0
  2  4  1  0
  4  5  2  0
  5  6  1  0
  6  7  2  0
  7  8  1  0
  8  9  1  0
  9 10  1  0
 10 11  2  0
 10 12  1  0
 12 13  1  0
 13 14  2  0
 14 15  1  0
 15 16  2  0
 16 17  1  0
 17 18  2  0
 18 19  1  0
 19 20  2  0
 20 21  1  0
 21 22  2  0
 16 23  1  0
 23 24  2  0
  8 25  2  0
 25  4  1  0
 24 13  1  0
 22 17  1  0
  1 26  1  0
  5 27  1  0
  6 28  1  0
  7 29  1  0
  9 30  1  0
 14 31  1  0
 15 32  1  0
 18 33  1  0
 19 34  1  0
 21 35  1  0
 22 36  1  0
 23 37  1  0
 24 38  1  0
 25 39  1  0
M  CHG  2   1  -1  12  -1
M  END
>  <UniqueID>  (20) 
17

>  <SMILES>  (20) 
[NH-]C(=O)c1cccc(NC(=O)[N-]c2ccc(-c3ccncc3)cc2)c1

>  <Energy>  (20) 
54.93000216274564

>  <Genealogy>  (20) 
[NH-]C(=O)c1cccc(NC(=O)[N-]c2ccc(-c3ccncc3)cc2)c1 (protonated)
[NH-]C(=O)c1cccc(NC(=O)[N-]c2ccc(-c3ccncc3)cc2)c1 (3D coordinates assigned)
[NH-]C(=O)c1cccc(NC(=O)[N-]c2ccc(-c3ccncc3)cc2)c1 (optimized conformer: 54.93000216274564 kcal/mol)

>  <smiles>  (20) 
NC(=O)c1cccc(NC(=O)Nc2ccc(-c3ccncc3)cc2)c1

>  <score_type>  (20) 
oracle

>  <origin>  (20) 
adgpu

>  <m_score__min__energy>  (20) 
-10.529999999999999

>  <m_primary>  (20) 
energy

$$$$
20:0
     RDKit          3D

 47 48  0  0  0  0  0  0  0  0999 V2000
   -2.2450   20.1250  -27.4060 C   0  0  0  0  0  0  0  0  0  0  0  0
   -2.7190   21.4360  -27.1200 O   0  0  0  0  0  0  0  0  0  0  0  0
   -2.3170   22.5960  -27.8020 C   0  0  0  0  0  0  0  0  0  0  0  0
   -3.1300   23.2010  -28.7750 C   0  0  0  0  0  0  0  0  0  0  0  0
   -2.7200   24.3770  -29.4150 C   0  0  0  0  0  0  0  0  0  0  0  0
   -3.5330   25.0100  -30.4140 N   0  0  0  0  0  0  0  0  0  0  0  0
   -4.8950   24.6800  -30.7150 C   0  0  0  0  0  0  0  0  0  0  0  0
   -5.8030   25.4880  -30.3810 O   0  0  0  0  0  0  0  0  0  0  0  0
   -5.2630   23.4010  -31.3630 C   0  0  0  0  0  0  0  0  0  0  0  0
   -4.2970   22.6670  -32.0710 C   0  0  0  0  0  0  0  0  0  0  0  0
   -4.6370   21.4570  -32.6790 C   0  0  0  0  0  0  0  0  0  0  0  0
   -5.9450   20.9740  -32.6010 C   0  0  0  0  0  0  0  0  0  0  0  0
   -6.9270   21.7000  -31.9090 C   0  0  0  0  0  0  0  0  0  0  0  0
   -8.2860   21.2230  -31.8660 N   0  0  0  0  0  0  0  0  0  0  0  0
   -9.3650   22.1740  -31.5830 C   0  0  0  0  0  0  0  0  0  0  0  0
   -8.6200   19.8610  -32.2150 C   0  0  0  0  0  0  0  0  0  0  0  0
   -7.9350   18.6910  -31.5770 C   0  0  0  0  0  0  0  0  0  0  0  0
   -9.5210   19.6340  -33.0680 O   0  0  0  0  0  0  0  0  0  0  0  0
   -6.5800   22.9150  -31.2970 C   0  0  0  0  0  0  0  0  0  0  0  0
   -1.4700   24.9210  -29.1170 C   0  0  0  0  0  0  0  0  0  0  0  0
   -0.6340   24.3310  -28.1490 C   0  0  0  0  0  0  0  0  0  0  0  0
    0.6170   24.8910  -27.8420 O   0  0  0  0  0  0  0  0  0  0  0  0
    0.9120   25.6320  -26.6620 C   0  0  0  0  0  0  0  0  0  0  0  0
   -1.0680   23.1560  -27.4810 C   0  0  0  0  0  0  0  0  0  0  0  0
   -0.3180   22.4960  -26.4900 O   0  0  0  0  0  0  0  0  0  0  0  0
   -0.4110   22.6940  -25.0840 C   0  0  0  0  0  0  0  0  0  0  0  0
   -2.0520   19.5912  -26.4638 H   0  0  0  0  0  0  0  0  0  0  0  0
   -3.0029   19.5798  -27.9877 H   0  0  0  0  0  0  0  0  0  0  0  0
   -1.3137   20.1906  -27.9877 H   0  0  0  0  0  0  0  0  0  0  0  0
   -4.0972   22.7469  -29.0364 H   0  0  0  0  0  0  0  0  0  0  0  0
   -3.2676   23.0474  -32.1468 H   0  0  0  0  0  0  0  0  0  0  0  0
   -3.8719   20.8821  -33.2214 H   0  0  0  0  0  0  0  0  0  0  0  0
   -6.2067   20.0209  -33.0838 H   0  0  0  0  0  0  0  0  0  0  0  0
   -9.4847   22.2795  -30.4946 H   0  0  0  0  0  0  0  0  0  0  0  0
   -9.1161   23.1519  -32.0210 H   0  0  0  0  0  0  0  0  0  0  0  0
  -10.3039   21.8043  -32.0210 H   0  0  0  0  0  0  0  0  0  0  0  0
   -7.9905   18.7858  -30.4825 H   0  0  0  0  0  0  0  0  0  0  0  0
   -8.4309   17.7604  -31.8901 H   0  0  0  0  0  0  0  0  0  0  0  0
   -6.8807   18.6679  -31.8901 H   0  0  0  0  0  0  0  0  0  0  0  0
   -7.3470   23.4926  -30.7602 H   0  0  0  0  0  0  0  0  0  0  0  0
   -1.1324   25.8244  -29.6461 H   0  0  0  0  0  0  0  0  0  0  0  0
    0.6701   25.0245  -25.7775 H   0  0  0  0  0  0  0  0  0  0  0  0
    1.9813   25.8897  -26.6486 H   0  0  0  0  0  0  0  0  0  0  0  0
    0.3124   26.5541  -26.6486 H   0  0  0  0  0  0  0  0  0  0  0  0
    0.0007   21.8175  -24.5623 H   0  0  0  0  0  0  0  0  0  0  0  0
    0.1601   23.5906  -24.8014 H   0  0  0  0  0  0  0  0  0  0  0  0
   -1.4657   22.8270  -24.8014 H   0  0  0  0  0  0  0  0  0  0  0  0
  1  2  1  0
  2  3  1  0
  3  4  2  0
  4  5  1  0
  5  6  1  0
  6  7  1  0
  7  8  2  0
  7  9  1  0
  9 10  2  0
 10 11  1  0
 11 12  2  0
 12 13  1  0
 13 14  1  0
 14 15  1  0
 14 16  1  0
 16 17  1  0
 16 18  2  0
 13 19  2  0
  5 20  2  0
 20 21  1  0
 21 22  1  0
 22 23  1  0
 21 24  2  0
 24 25  1  0
 25 26  1  0
 24  3  1  0
 19  9  1  0
  1 27  1  0
  1 28  1  0
  1 29  1  0
  4 30  1  0
 10 31  1  0
 11 32  1  0
 12 33  1  0
 15 34  1  0
 15 35  1  0
 15 36  1  0
 17 37  1  0
 17 38  1  0
 17 39  1  0
 19 40  1  0
 20 41  1  0
 23 42  1  0
 23 43  1  0
 23 44  1  0
 26 45  1  0
 26 46  1  0
 26 47  1  0
M  CHG  1   6  -1
M  END
>  <UniqueID>  (21) 
18

>  <SMILES>  (21) 
COc1cc([N-]C(=O)c2cccc(N(C)C(C)=O)c2)cc(OC)c1OC

>  <Energy>  (21) 
56.457596588681504

>  <Genealogy>  (21) 
COc1cc([N-]C(=O)c2cccc(N(C)C(C)=O)c2)cc(OC)c1OC (protonated)
COc1cc([N-]C(=O)c2cccc(N(C)C(C)=O)c2)cc(OC)c1OC (3D coordinates assigned)
COc1cc([N-]C(=O)c2cccc(N(C)C(C)=O)c2)cc(OC)c1OC (optimized conformer: 56.457596588681504 kcal/mol)

>  <smiles>  (21) 
COc1cc(NC(=O)c2cccc(N(C)C(C)=O)c2)cc(OC)c1OC

>  <score_type>  (21) 
oracle

>  <origin>  (21) 
adgpu

>  <m_score__min__energy>  (21) 
-8.8499999999999996

>  <m_primary>  (21) 
energy

$$$$
21:0
     RDKit          3D

 38 41  0  0  0  0  0  0  0  0999 V2000
   -0.8120   26.5640  -23.6240 Cl  0  0  0  0  0  0  0  0  0  0  0  0
   -1.1550   26.1800  -25.3000 C   0  0  0  0  0  0  0  0  0  0  0  0
   -0.3800   26.7430  -26.3200 C   0  0  0  0  0  0  0  0  0  0  0  0
   -0.6500   26.4360  -27.6560 C   0  0  0  0  0  0  0  0  0  0  0  0
   -1.7050   25.5760  -27.9880 C   0  0  0  0  0  0  0  0  0  0  0  0
   -1.9330   25.2850  -29.3390 O   0  0  0  0  0  0  0  0  0  0  0  0
   -2.8530   24.3440  -29.8200 C   0  0  0  0  0  0  0  0  0  0  0  0
   -4.0430   24.7490  -30.3480 N   0  0  0  0  0  0  0  0  0  0  0  0
   -4.9580   23.8690  -30.8300 C   0  0  0  0  0  0  0  0  0  0  0  0
   -6.1700   24.3320  -31.3550 C   0  0  0  0  0  0  0  0  0  0  0  0
   -7.1130   23.4220  -31.8440 C   0  0  0  0  0  0  0  0  0  0  0  0
   -6.8480   22.0490  -31.8110 C   0  0  0  0  0  0  0  0  0  0  0  0
   -5.6400   21.5770  -31.2880 C   0  0  0  0  0  0  0  0  0  0  0  0
   -4.6880   22.4840  -30.7970 C   0  0  0  0  0  0  0  0  0  0  0  0
   -3.4690   22.0440  -30.2680 C   0  0  0  0  0  0  0  0  0  0  0  0
   -2.5320   22.9730  -29.7900 C   0  0  0  0  0  0  0  0  0  0  0  0
   -1.2410   22.4920  -29.1810 C   0  0  0  0  0  0  0  0  0  0  0  0
   -1.4830   21.2540  -28.3760 C   0  0  0  0  0  0  0  0  0  0  0  0
   -2.4700   21.0900  -27.4140 C   0  0  0  0  0  0  0  0  0  0  0  0
   -2.4060   19.8500  -26.7660 C   0  0  0  0  0  0  0  0  0  0  0  0
   -1.3630   19.0440  -27.2050 C   0  0  0  0  0  0  0  0  0  0  0  0
   -0.5180   19.8750  -28.3980 S   0  0  0  0  0  0  0  0  0  0  0  0
   -2.4690   24.9970  -26.9570 C   0  0  0  0  0  0  0  0  0  0  0  0
   -2.1960   25.3050  -25.6200 C   0  0  0  0  0  0  0  0  0  0  0  0
    0.4431   27.4284  -26.0696 H   0  0  0  0  0  0  0  0  0  0  0  0
   -0.0299   26.8726  -28.4528 H   0  0  0  0  0  0  0  0  0  0  0  0
   -6.3809   25.4112  -31.3830 H   0  0  0  0  0  0  0  0  0  0  0  0
   -8.0655   23.7871  -32.2556 H   0  0  0  0  0  0  0  0  0  0  0  0
   -7.5926   21.3378  -32.1979 H   0  0  0  0  0  0  0  0  0  0  0  0
   -5.4362   20.4964  -31.2614 H   0  0  0  0  0  0  0  0  0  0  0  0
   -3.2450   20.9678  -30.2269 H   0  0  0  0  0  0  0  0  0  0  0  0
   -0.5210   22.2701  -29.9824 H   0  0  0  0  0  0  0  0  0  0  0  0
   -0.8384   23.2765  -28.5234 H   0  0  0  0  0  0  0  0  0  0  0  0
   -3.2254   21.8558  -27.1840 H   0  0  0  0  0  0  0  0  0  0  0  0
   -3.1150   19.5431  -25.9830 H   0  0  0  0  0  0  0  0  0  0  0  0
   -1.1298   18.0346  -26.8353 H   0  0  0  0  0  0  0  0  0  0  0  0
   -3.2835   24.3000  -27.2036 H   0  0  0  0  0  0  0  0  0  0  0  0
   -2.8024   24.8572  -24.8189 H   0  0  0  0  0  0  0  0  0  0  0  0
  1  2  1  0
  2  3  2  0
  3  4  1  0
  4  5  2  0
  5  6  1  0
  6  7  1  0
  7  8  2  0
  8  9  1  0
  9 10  2  0
 10 11  1  0
 11 12  2  0
 12 13  1  0
 13 14  2  0
 14 15  1  0
 15 16  2  0
 16 17  1  0
 17 18  1  0
 18 19  2  0
 19 20  1  0
 20 21  2  0
 21 22  1  0
  5 23  1  0
 23 24  2  0
 24  2  1  0
 16  7  1  0
 22 18  1  0
 14  9  1  0
  3 25  1  0
  4 26  1  0
 10 27  1  0
 11 28  1  0
 12 29  1  0
 13 30  1  0
 15 31  1  0
 17 32  1  0
 17 33  1  0
 19 34  1  0
 20 35  1  0
 21 36  1  0
 23 37  1  0
 24 38  1  0
M  END
>  <UniqueID>  (22) 
19

>  <SMILES>  (22) 
Clc1ccc(Oc2nc3ccccc3cc2Cc2cccs2)cc1

>  <Energy>  (22) 
73.76559309080876

>  <Genealogy>  (22) 
Clc1ccc(Oc2nc3ccccc3cc2Cc2cccs2)cc1 (3D coordinates assigned)
Clc1ccc(Oc2nc3ccccc3cc2Cc2cccs2)cc1 (optimized conformer: 73.76559309080876 kcal/mol)

>  <smiles>  (22) 
Clc1ccc(Oc2nc3ccccc3cc2Cc2cccs2)cc1

>  <score_type>  (22) 
oracle

>  <origin>  (22) 
adgpu

>  <m_score__min__energy>  (22) 
-8.9000000000000004

>  <m_primary>  (22) 
energy

$$$$
22:0
     RDKit          3D

 47 50  0  0  0  0  0  0  0  0999 V2000
  -10.3470   20.4330  -32.1850 H   0  0  0  0  0  0  0  0  0  0  0  0
   -9.8340   21.2570  -31.8030 N   0  0  0  0  0  0  0  0  0  0  0  0
   -8.5410   21.3150  -31.7440 C   0  0  0  0  0  0  0  0  0  0  0  0
   -7.8940   22.3650  -31.2000 N   0  0  0  0  0  0  0  0  0  0  0  0
   -6.5900   22.0120  -31.2580 C   0  0  0  0  0  0  0  0  0  0  0  0
   -5.4860   22.8730  -30.7630 C   0  0  0  0  0  0  0  0  0  0  0  0
   -5.6710   24.2510  -30.5550 C   0  0  0  0  0  0  0  0  0  0  0  0
   -6.6503   24.7075  -30.7612 H   0  0  0  0  0  0  0  0  0  0  0  0
   -4.6220   25.0440  -30.0890 C   0  0  0  0  0  0  0  0  0  0  0  0
   -4.7798   26.1210  -29.9301 H   0  0  0  0  0  0  0  0  0  0  0  0
   -3.3730   24.4790  -29.8230 C   0  0  0  0  0  0  0  0  0  0  0  0
   -2.3490   25.2970  -29.3590 O   0  0  0  0  0  0  0  0  0  0  0  0
   -3.1590   23.1020  -30.0210 C   0  0  0  0  0  0  0  0  0  0  0  0
   -1.8640   22.5310  -29.7410 N   0  0  0  0  0  0  0  0  0  0  0  0
   -1.1320   23.1410  -29.3120 H   0  0  0  0  0  0  0  0  0  0  0  0
   -1.5210   21.1360  -30.0280 C   0  0  0  0  0  0  0  0  0  0  0  0
   -0.4715   20.9577  -29.7509 H   0  0  0  0  0  0  0  0  0  0  0  0
   -2.1857   20.4811  -29.4456 H   0  0  0  0  0  0  0  0  0  0  0  0
   -1.7040   20.8340  -31.4910 C   0  0  0  0  0  0  0  0  0  0  0  0
   -2.7680   20.0230  -31.9190 C   0  0  0  0  0  0  0  0  0  0  0  0
   -3.4885   19.6314  -31.1858 H   0  0  0  0  0  0  0  0  0  0  0  0
   -2.9140   19.7120  -33.2750 C   0  0  0  0  0  0  0  0  0  0  0  0
   -3.7540   19.0839  -33.6065 H   0  0  0  0  0  0  0  0  0  0  0  0
   -1.9960   20.1970  -34.2090 C   0  0  0  0  0  0  0  0  0  0  0  0
   -2.1161   19.9545  -35.2752 H   0  0  0  0  0  0  0  0  0  0  0  0
   -0.9240   20.9910  -33.7890 C   0  0  0  0  0  0  0  0  0  0  0  0
    0.2360   21.5900  -34.9620 Cl  0  0  0  0  0  0  0  0  0  0  0  0
   -0.7740   21.3050  -32.4330 C   0  0  0  0  0  0  0  0  0  0  0  0
    0.0748   21.9225  -32.1039 H   0  0  0  0  0  0  0  0  0  0  0  0
   -4.2260   22.3090  -30.4920 C   0  0  0  0  0  0  0  0  0  0  0  0
   -4.0704   21.2316  -30.6501 H   0  0  0  0  0  0  0  0  0  0  0  0
   -6.4770   20.7560  -31.8310 C   0  0  0  0  0  0  0  0  0  0  0  0
   -5.5398   20.2040  -31.9950 H   0  0  0  0  0  0  0  0  0  0  0  0
   -7.7100   20.3280  -32.1520 N   0  0  0  0  0  0  0  0  0  0  0  0
   -8.0240   19.0640  -32.7560 C   0  0  0  0  0  0  0  0  0  0  0  0
   -9.2210   18.6690  -32.7580 O   0  0  0  0  0  0  0  0  0  0  0  0
   -6.9680   18.1960  -33.3290 C   0  0  0  0  0  0  0  0  0  0  0  0
   -6.7350   16.9150  -32.7960 C   0  0  0  0  0  0  0  0  0  0  0  0
   -7.3448   16.5538  -31.9548 H   0  0  0  0  0  0  0  0  0  0  0  0
   -5.7330   16.0980  -33.3290 C   0  0  0  0  0  0  0  0  0  0  0  0
   -5.5606   15.0959  -32.9093 H   0  0  0  0  0  0  0  0  0  0  0  0
   -4.9510   16.5520  -34.3930 C   0  0  0  0  0  0  0  0  0  0  0  0
   -4.1665   15.9059  -34.8139 H   0  0  0  0  0  0  0  0  0  0  0  0
   -5.1650   17.8270  -34.9230 C   0  0  0  0  0  0  0  0  0  0  0  0
   -4.5458   18.1854  -35.7585 H   0  0  0  0  0  0  0  0  0  0  0  0
   -6.1650   18.6480  -34.3930 C   0  0  0  0  0  0  0  0  0  0  0  0
   -6.3252   19.6532  -34.8101 H   0  0  0  0  0  0  0  0  0  0  0  0
  1  2  1  0
  2  3  2  0
  3  4  1  0
  4  5  1  0
  5  6  1  0
  6  7  2  0
  7  8  1  0
  7  9  1  0
  9 10  1  0
  9 11  2  0
 11 12  1  0
 11 13  1  0
 13 14  1  0
 14 15  1  0
 14 16  1  0
 16 17  1  0
 16 18  1  0
 16 19  1  0
 19 20  2  0
 20 21  1  0
 20 22  1  0
 22 23  1  0
 22 24  2  0
 24 25  1  0
 24 26  1  0
 26 27  1  0
 26 28  2  0
 28 29  1  0
 13 30  2  0
 30 31  1  0
  5 32  2  0
 32 33  1  0
 32 34  1  0
 34 35  1  0
 35 36  2  0
 35 37  1  0
 37 38  2  0
 38 39  1  0
 38 40  1  0
 40 41  1  0
 40 42  2  0
 42 43  1  0
 42 44  1  0
 44 45  1  0
 44 46  2  0
 46 47  1  0
 34  3  1  0
 46 37  1  0
 30  6  1  0
 28 19  1  0
M  CHG  2   4  -1  12  -1
M  END
>  <UniqueID>  (23) 
20

>  <SMILES>  (23) 
[H]/N=c1/[n-]c(-c2ccc([O-])c(NCc3cccc(Cl)c3)c2)cn1C(=O)c1ccccc1

>  <Energy>  (23) 
91.35161026537419

>  <Genealogy>  (23) 
N=c1[n-]c(-c2ccc([O-])c(NCc3cccc(Cl)c3)c2)cn1C(=O)c1ccccc1 (protonated)
[H]/N=c1/[n-]c(-c2ccc([O-])c(NCc3cccc(Cl)c3)c2)cn1C(=O)c1ccccc1 (cis-trans isomerization)
[H]/N=c1/[n-]c(-c2ccc([O-])c(NCc3cccc(Cl)c3)c2)cn1C(=O)c1ccccc1 (3D coordinates assigned)
[H]/N=c1/[n-]c(-c2ccc([O-])c(NCc3cccc(Cl)c3)c2)cn1C(=O)c1ccccc1 (optimized conformer: 91.35161026537419 kcal/mol)

>  <smiles>  (23) 
N=c1[nH]c(-c2ccc(O)c(NCc3cccc(Cl)c3)c2)cn1C(=O)c1ccccc1

>  <score_type>  (23) 
oracle

>  <origin>  (23) 
adgpu

>  <m_score__min__energy>  (23) 
-12.48

>  <m_primary>  (23) 
energy

$$$$
23:0
     RDKit          3D

 35 37  0  0  0  0  0  0  0  0999 V2000
   -9.2000   18.5240  -31.9710 O   0  0  0  0  0  0  0  0  0  0  0  0
   -8.2620   19.1370  -32.5450 C   0  0  0  0  0  0  0  0  0  0  0  0
   -8.3540   20.5600  -32.6900 N   0  0  0  0  0  0  0  0  0  0  0  0
   -7.5530   21.5150  -31.9820 C   0  0  0  0  0  0  0  0  0  0  0  0
   -8.1540   22.3300  -31.0160 C   0  0  0  0  0  0  0  0  0  0  0  0
   -7.4050   23.3110  -30.3580 C   0  0  0  0  0  0  0  0  0  0  0  0
   -6.0430   23.4700  -30.6500 C   0  0  0  0  0  0  0  0  0  0  0  0
   -5.1170   24.7790  -29.9220 S   0  0  0  0  0  0  0  0  0  0  0  0
   -4.0790   25.2890  -30.8830 O   0  0  0  0  0  0  0  0  0  0  0  0
   -6.0530   25.8990  -29.5640 O   0  0  0  0  0  0  0  0  0  0  0  0
   -4.3240   24.2120  -28.4850 N   0  0  0  0  0  0  0  0  0  0  0  0
   -3.0960   24.5000  -28.1730 C   0  0  0  0  0  0  0  0  0  0  0  0
   -2.5380   23.9690  -27.0040 C   0  0  0  0  0  0  0  0  0  0  0  0
   -1.2090   24.2590  -26.6850 C   0  0  0  0  0  0  0  0  0  0  0  0
   -0.4520   25.0720  -27.5310 C   0  0  0  0  0  0  0  0  0  0  0  0
   -1.0410   25.5900  -28.6860 C   0  0  0  0  0  0  0  0  0  0  0  0
   -2.3360   25.2970  -28.9790 N   0  0  0  0  0  0  0  0  0  0  0  0
   -5.4260   22.6110  -31.5680 C   0  0  0  0  0  0  0  0  0  0  0  0
   -6.1750   21.6360  -32.2310 C   0  0  0  0  0  0  0  0  0  0  0  0
   -7.1310   18.3690  -33.1030 C   0  0  0  0  0  0  0  0  0  0  0  0
   -6.8250   17.0470  -32.8020 C   0  0  0  0  0  0  0  0  0  0  0  0
   -5.7160   16.5590  -33.5070 C   0  0  0  0  0  0  0  0  0  0  0  0
   -5.1520   17.4850  -34.3730 C   0  0  0  0  0  0  0  0  0  0  0  0
   -6.0360   18.9100  -34.2640 S   0  0  0  0  0  0  0  0  0  0  0  0
   -9.2189   22.1987  -30.7734 H   0  0  0  0  0  0  0  0  0  0  0  0
   -7.8854   23.9589  -29.6101 H   0  0  0  0  0  0  0  0  0  0  0  0
   -3.1405   23.3292  -26.3425 H   0  0  0  0  0  0  0  0  0  0  0  0
   -0.7598   23.8476  -25.7690 H   0  0  0  0  0  0  0  0  0  0  0  0
    0.5965   25.3017  -27.2902 H   0  0  0  0  0  0  0  0  0  0  0  0
   -0.4573   26.2352  -29.3590 H   0  0  0  0  0  0  0  0  0  0  0  0
   -4.3483   22.7044  -31.7676 H   0  0  0  0  0  0  0  0  0  0  0  0
   -5.6855   20.9617  -32.9492 H   0  0  0  0  0  0  0  0  0  0  0  0
   -7.3966   16.4433  -32.0817 H   0  0  0  0  0  0  0  0  0  0  0  0
   -5.3287   15.5367  -33.3850 H   0  0  0  0  0  0  0  0  0  0  0  0
   -4.2778   17.3156  -35.0189 H   0  0  0  0  0  0  0  0  0  0  0  0
  1  2  2  0
  2  3  1  0
  3  4  1  0
  4  5  2  0
  5  6  1  0
  6  7  2  0
  7  8  1  0
  8  9  2  0
  8 10  2  0
  8 11  1  0
 11 12  2  3
 12 13  1  0
 13 14  2  0
 14 15  1  0
 15 16  2  0
 16 17  1  0
  7 18  1  0
 18 19  2  0
  2 20  1  0
 20 21  2  0
 21 22  1  0
 22 23  2  0
 23 24  1  0
 19  4  1  0
 24 20  1  0
 17 12  1  0
  5 25  1  0
  6 26  1  0
 13 27  1  0
 14 28  1  0
 15 29  1  0
 16 30  1  0
 18 31  1  0
 19 32  1  0
 21 33  1  0
 22 34  1  0
 23 35  1  0
M  CHG  2   3  -1  17  -1
M  END
>  <UniqueID>  (24) 
21

>  <SMILES>  (24) 
O=C([N-]c1ccc(S(=O)(=O)N=c2cccc[n-]2)cc1)c1cccs1

>  <Energy>  (24) 
71.90292444773233

>  <Genealogy>  (24) 
O=C([N-]c1ccc(S(=O)(=O)N=c2cccc[n-]2)cc1)c1cccs1 (protonated)
O=C([N-]c1ccc(S(=O)(=O)N=c2cccc[n-]2)cc1)c1cccs1 (3D coordinates assigned)
O=C([N-]c1ccc(S(=O)(=O)N=c2cccc[n-]2)cc1)c1cccs1 (optimized conformer: 71.90292444773233 kcal/mol)

>  <smiles>  (24) 
O=C(Nc1ccc(S(=O)(=O)N=c2cccc[nH]2)cc1)c1cccs1

>  <score_type>  (24) 
oracle

>  <origin>  (24) 
adgpu

>  <m_score__min__energy>  (24) 
-10.42

>  <m_primary>  (24) 
energy

$$$$
24:0
     RDKit          3D

 21 21  0  0  0  0  0  0  0  0999 V2000
   -9.0430   22.3910  -31.6970 C   0  0  0  0  0  0  0  0  0  0  0  0
   -8.1010   23.4570  -31.7570 O   0  0  0  0  0  0  0  0  0  0  0  0
   -6.7160   23.3010  -31.6000 C   0  0  0  0  0  0  0  0  0  0  0  0
   -5.9810   24.3760  -31.0880 C   0  0  0  0  0  0  0  0  0  0  0  0
   -4.5980   24.2740  -30.9120 C   0  0  0  0  0  0  0  0  0  0  0  0
   -3.8900   25.3590  -30.4020 O   0  0  0  0  0  0  0  0  0  0  0  0
   -3.9380   23.0850  -31.2490 C   0  0  0  0  0  0  0  0  0  0  0  0
   -4.6620   21.9930  -31.7650 C   0  0  0  0  0  0  0  0  0  0  0  0
   -4.0470   20.7830  -32.1160 O   0  0  0  0  0  0  0  0  0  0  0  0
   -4.5590   19.8700  -33.0820 C   0  0  0  0  0  0  0  0  0  0  0  0
   -6.0470   22.1090  -31.9370 C   0  0  0  0  0  0  0  0  0  0  0  0
   -9.2566   22.1492  -30.6454 H   0  0  0  0  0  0  0  0  0  0  0  0
   -9.9731   22.6948  -32.1996 H   0  0  0  0  0  0  0  0  0  0  0  0
   -8.6270   21.5054  -32.1996 H   0  0  0  0  0  0  0  0  0  0  0  0
   -6.4965   25.3104  -30.8214 H   0  0  0  0  0  0  0  0  0  0  0  0
   -3.0250   25.6750  -30.8270 H   0  0  0  0  0  0  0  0  0  0  0  0
   -2.8498   23.0042  -31.1099 H   0  0  0  0  0  0  0  0  0  0  0  0
   -5.0348   19.0215  -32.5685 H   0  0  0  0  0  0  0  0  0  0  0  0
   -5.3022   20.3810  -33.7117 H   0  0  0  0  0  0  0  0  0  0  0  0
   -3.7354   19.5024  -33.7117 H   0  0  0  0  0  0  0  0  0  0  0  0
   -6.6183   21.2596  -32.3397 H   0  0  0  0  0  0  0  0  0  0  0  0
  1  2  1  0
  2  3  1  0
  3  4  2  0
  4  5  1  0
  5  6  1  0
  5  7  2  0
  7  8  1  0
  8  9  1  0
  9 10  1  0
  8 11  2  0
 11  3  1  0
  1 12  1  0
  1 13  1  0
  1 14  1  0
  4 15  1  0
  6 16  1  0
  7 17  1  0
 10 18  1  0
 10 19  1  0
 10 20  1  0
 11 21  1  0
M  END
>  <UniqueID>  (25) 
22

>  <SMILES>  (25) 
COc1cc(O)cc(OC)c1

>  <Energy>  (25) 
17.626141671689012

>  <Genealogy>  (25) 
COc1cc(O)cc(OC)c1 (3D coordinates assigned)
COc1cc(O)cc(OC)c1 (optimized conformer: 17.626141671689012 kcal/mol)

>  <smiles>  (25) 
COc1cc(O)cc(OC)c1

>  <score_type>  (25) 
oracle

>  <origin>  (25) 
adgpu

>  <m_score__min__energy>  (25) 
-4.4800000000000004

>  <m_primary>  (25) 
energy

$$$$
25:0
     RDKit          3D

 39 41  0  0  0  0  0  0  0  0999 V2000
   -6.8480   15.5080  -34.1920 C   0  0  0  0  0  0  0  0  0  0  0  0
   -7.1350   16.7870  -33.4080 C   0  0  0  0  0  0  0  0  0  0  0  0
   -6.2220   17.8660  -33.8150 N   0  0  0  0  0  0  0  0  0  0  0  0
   -5.2150   17.5960  -34.8530 C   0  0  0  0  0  0  0  0  0  0  0  0
   -3.8280   17.6810  -34.2750 C   0  0  0  0  0  0  0  0  0  0  0  0
   -3.2260   16.5540  -33.6950 C   0  0  0  0  0  0  0  0  0  0  0  0
   -1.9600   16.6590  -33.1170 C   0  0  0  0  0  0  0  0  0  0  0  0
   -1.3090   17.8940  -33.1180 C   0  0  0  0  0  0  0  0  0  0  0  0
   -1.9070   18.9810  -33.6720 N   0  0  0  0  0  0  0  0  0  0  0  0
   -3.1400   18.9030  -34.2440 C   0  0  0  0  0  0  0  0  0  0  0  0
   -6.3420   19.1650  -33.1930 C   0  0  0  0  0  0  0  0  0  0  0  0
   -7.5050   19.8580  -32.9270 C   0  0  0  0  0  0  0  0  0  0  0  0
   -7.1630   20.9930  -32.3700 O   0  0  0  0  0  0  0  0  0  0  0  0
   -5.8490   21.0170  -32.2940 C   0  0  0  0  0  0  0  0  0  0  0  0
   -5.0930   22.1350  -31.6870 C   0  0  0  0  0  0  0  0  0  0  0  0
   -5.8160   23.2370  -31.1990 C   0  0  0  0  0  0  0  0  0  0  0  0
   -5.1650   24.2940  -30.5530 C   0  0  0  0  0  0  0  0  0  0  0  0
   -6.1020   25.6520  -29.9490 Cl  0  0  0  0  0  0  0  0  0  0  0  0
   -3.7780   24.2580  -30.3830 C   0  0  0  0  0  0  0  0  0  0  0  0
   -3.1190   25.2980  -29.7340 O   0  0  0  0  0  0  0  0  0  0  0  0
   -3.0450   23.1760  -30.8750 C   0  0  0  0  0  0  0  0  0  0  0  0
   -3.6800   22.1260  -31.5490 C   0  0  0  0  0  0  0  0  0  0  0  0
   -2.8720   21.1270  -32.0930 O   0  0  0  0  0  0  0  0  0  0  0  0
   -5.2840   19.8940  -32.7850 N   0  0  0  0  0  0  0  0  0  0  0  0
   -6.6625   14.6815  -33.4902 H   0  0  0  0  0  0  0  0  0  0  0  0
   -7.7137   15.2640  -34.8252 H   0  0  0  0  0  0  0  0  0  0  0  0
   -5.9610   15.6573  -34.8252 H   0  0  0  0  0  0  0  0  0  0  0  0
   -8.1719   17.1013  -33.5980 H   0  0  0  0  0  0  0  0  0  0  0  0
   -6.9860   16.5847  -32.3371 H   0  0  0  0  0  0  0  0  0  0  0  0
   -5.3764   16.5871  -35.2605 H   0  0  0  0  0  0  0  0  0  0  0  0
   -5.3152   18.3470  -35.6505 H   0  0  0  0  0  0  0  0  0  0  0  0
   -3.7518   15.5878  -33.6959 H   0  0  0  0  0  0  0  0  0  0  0  0
   -1.4803   15.7781  -32.6655 H   0  0  0  0  0  0  0  0  0  0  0  0
   -0.3091   17.9873  -32.6690 H   0  0  0  0  0  0  0  0  0  0  0  0
   -3.5982   19.8013  -34.6833 H   0  0  0  0  0  0  0  0  0  0  0  0
   -8.5293   19.5200  -33.1427 H   0  0  0  0  0  0  0  0  0  0  0  0
   -6.9081   23.2691  -31.3265 H   0  0  0  0  0  0  0  0  0  0  0  0
   -1.9548   23.1483  -30.7312 H   0  0  0  0  0  0  0  0  0  0  0  0
   -3.2280   20.2440  -32.4310 H   0  0  0  0  0  0  0  0  0  0  0  0
  1  2  1  0
  2  3  1  0
  3  4  1  0
  4  5  1  0
  5  6  2  0
  6  7  1  0
  7  8  2  0
  8  9  1  0
  9 10  2  0
  3 11  1  0
 11 12  2  0
 12 13  1  0
 13 14  1  0
 14 15  1  0
 15 16  2  0
 16 17  1  0
 17 18  1  0
 17 19  2  0
 19 20  1  0
 19 21  1  0
 21 22  2  0
 22 23  1  0
 14 24  2  0
 10  5  1  0
 24 11  1  0
 22 15  1  0
  1 25  1  0
  1 26  1  0
  1 27  1  0
  2 28  1  0
  2 29  1  0
  4 30  1  0
  4 31  1  0
  6 32  1  0
  7 33  1  0
  8 34  1  0
 10 35  1  0
 12 36  1  0
 16 37  1  0
 21 38  1  0
 23 39  1  0
M  CHG  1  20  -1
M  END
>  <UniqueID>  (26) 
23

>  <SMILES>  (26) 
CCN(Cc1cccnc1)c1coc(-c2cc(Cl)c([O-])cc2O)n1

>  <Energy>  (26) 
73.23653555777545

>  <Genealogy>  (26) 
CCN(Cc1cccnc1)c1coc(-c2cc(Cl)c([O-])cc2O)n1 (protonated)
CCN(Cc1cccnc1)c1coc(-c2cc(Cl)c([O-])cc2O)n1 (3D coordinates assigned)
CCN(Cc1cccnc1)c1coc(-c2cc(Cl)c([O-])cc2O)n1 (optimized conformer: 73.23653555777545 kcal/mol)

>  <smiles>  (26) 
CCN(Cc1cccnc1)c1coc(-c2cc(Cl)c(O)cc2O)n1

>  <score_type>  (26) 
oracle

>  <origin>  (26) 
adgpu

>  <m_score__min__energy>  (26) 
-9.1199999999999992

>  <m_primary>  (26) 
energy

$$$$
26:0
     RDKit          3D

 53 56  0  0  0  0  0  0  0  0999 V2000
   -3.8210   18.5500  -25.9390 C   0  0  0  0  0  0  0  0  0  0  0  0
   -2.5830   18.8900  -26.5560 O   0  0  0  0  0  0  0  0  0  0  0  0
   -2.1620   20.2020  -26.8180 C   0  0  0  0  0  0  0  0  0  0  0  0
   -1.2440   20.8780  -25.9930 C   0  0  0  0  0  0  0  0  0  0  0  0
   -0.8640   22.1890  -26.2920 C   0  0  0  0  0  0  0  0  0  0  0  0
   -1.3880   22.8340  -27.4130 C   0  0  0  0  0  0  0  0  0  0  0  0
   -2.2970   22.1700  -28.2540 C   0  0  0  0  0  0  0  0  0  0  0  0
   -2.8490   22.8350  -29.4070 N   0  0  0  0  0  0  0  0  0  0  0  0
   -3.8620   23.8850  -29.2360 C   0  0  0  0  0  0  0  0  0  0  0  0
   -4.6600   24.0930  -30.5330 C   0  0  0  0  0  0  0  0  0  0  0  0
   -4.7770   22.8180  -31.2710 N   0  0  0  0  0  0  0  0  0  0  0  0
   -5.8170   22.8630  -32.3320 C   0  0  0  0  0  0  0  0  0  0  0  0
   -6.9580   21.8660  -32.1500 C   0  0  0  0  0  0  0  0  0  0  0  0
   -8.1260   22.3070  -31.5090 C   0  0  0  0  0  0  0  0  0  0  0  0
   -9.1890   21.4270  -31.3190 C   0  0  0  0  0  0  0  0  0  0  0  0
  -10.2420   21.8250  -30.7530 O   0  0  0  0  0  0  0  0  0  0  0  0
   -9.1010   20.1680  -31.7270 O   0  0  0  0  0  0  0  0  0  0  0  0
   -8.0190   19.6810  -32.3230 C   0  0  0  0  0  0  0  0  0  0  0  0
   -8.0080   18.3380  -32.7130 C   0  0  0  0  0  0  0  0  0  0  0  0
   -6.8880   17.7830  -33.3380 C   0  0  0  0  0  0  0  0  0  0  0  0
   -6.9330   16.4320  -33.7080 O   0  0  0  0  0  0  0  0  0  0  0  0
   -5.7850   15.6100  -33.8920 C   0  0  0  0  0  0  0  0  0  0  0  0
   -5.7630   18.5930  -33.5710 C   0  0  0  0  0  0  0  0  0  0  0  0
   -5.7610   19.9360  -33.1870 C   0  0  0  0  0  0  0  0  0  0  0  0
   -6.8910   20.5060  -32.5600 C   0  0  0  0  0  0  0  0  0  0  0  0
   -3.4540   22.3710  -31.7780 C   0  0  0  0  0  0  0  0  0  0  0  0
   -2.3180   22.5710  -30.7500 C   0  0  0  0  0  0  0  0  0  0  0  0
   -2.6820   20.8550  -27.9420 C   0  0  0  0  0  0  0  0  0  0  0  0
   -3.7065   18.5814  -24.8454 H   0  0  0  0  0  0  0  0  0  0  0  0
   -4.5941   19.2691  -26.2475 H   0  0  0  0  0  0  0  0  0  0  0  0
   -4.1184   17.5369  -26.2475 H   0  0  0  0  0  0  0  0  0  0  0  0
   -0.8245   20.3730  -25.1104 H   0  0  0  0  0  0  0  0  0  0  0  0
   -0.1493   22.7144  -25.6415 H   0  0  0  0  0  0  0  0  0  0  0  0
   -1.0879   23.8677  -27.6395 H   0  0  0  0  0  0  0  0  0  0  0  0
   -4.5524   23.5919  -28.4314 H   0  0  0  0  0  0  0  0  0  0  0  0
   -3.3532   24.8264  -28.9814 H   0  0  0  0  0  0  0  0  0  0  0  0
   -5.6659   24.4629  -30.2852 H   0  0  0  0  0  0  0  0  0  0  0  0
   -4.1349   24.8255  -31.1636 H   0  0  0  0  0  0  0  0  0  0  0  0
   -5.1060   22.0910  -30.5910 H   0  0  0  0  0  0  0  0  0  0  0  0
   -6.2463   23.8757  -32.3481 H   0  0  0  0  0  0  0  0  0  0  0  0
   -5.3139   22.5909  -33.2716 H   0  0  0  0  0  0  0  0  0  0  0  0
   -8.2020   23.3464  -31.1570 H   0  0  0  0  0  0  0  0  0  0  0  0
   -8.8919   17.7107  -32.5255 H   0  0  0  0  0  0  0  0  0  0  0  0
   -5.3804   15.3203  -32.9110 H   0  0  0  0  0  0  0  0  0  0  0  0
   -6.0667   14.7071  -34.4536 H   0  0  0  0  0  0  0  0  0  0  0  0
   -5.0210   16.1676  -34.4536 H   0  0  0  0  0  0  0  0  0  0  0  0
   -4.8757   18.1651  -34.0604 H   0  0  0  0  0  0  0  0  0  0  0  0
   -4.8714   20.5552  -33.3746 H   0  0  0  0  0  0  0  0  0  0  0  0
   -3.5169   21.3017  -32.0282 H   0  0  0  0  0  0  0  0  0  0  0  0
   -3.2137   22.9838  -32.6593 H   0  0  0  0  0  0  0  0  0  0  0  0
   -1.7005   21.6612  -30.7179 H   0  0  0  0  0  0  0  0  0  0  0  0
   -1.7191   23.4395  -31.0616 H   0  0  0  0  0  0  0  0  0  0  0  0
   -3.4013   20.3319  -28.5893 H   0  0  0  0  0  0  0  0  0  0  0  0
  1  2  1  0
  2  3  1  0
  3  4  2  0
  4  5  1  0
  5  6  2  0
  6  7  1  0
  7  8  1  0
  8  9  1  0
  9 10  1  0
 10 11  1  0
 11 12  1  0
 12 13  1  0
 13 14  2  0
 14 15  1  0
 15 16  2  0
 15 17  1  0
 17 18  1  0
 18 19  2  0
 19 20  1  0
 20 21  1  0
 21 22  1  0
 20 23  2  0
 23 24  1  0
 24 25  2  0
 11 26  1  0
 26 27  1  0
  7 28  2  0
 28  3  1  0
 27  8  1  0
 25 13  1  0
 25 18  1  0
  1 29  1  0
  1 30  1  0
  1 31  1  0
  4 32  1  0
  5 33  1  0
  6 34  1  0
  9 35  1  0
  9 36  1  0
 10 37  1  0
 10 38  1  0
 11 39  1  0
 12 40  1  0
 12 41  1  0
 14 42  1  0
 19 43  1  0
 22 44  1  0
 22 45  1  0
 22 46  1  0
 23 47  1  0
 24 48  1  0
 26 49  1  0
 26 50  1  0
 27 51  1  0
 27 52  1  0
 28 53  1  0
M  CHG  1  11   1
M  END
>  <UniqueID>  (27) 
24

>  <SMILES>  (27) 
COc1cccc(N2CC[NH+](Cc3cc(=O)oc4cc(OC)ccc34)CC2)c1

>  <Energy>  (27) 
76.08384708595584

>  <Genealogy>  (27) 
COc1cccc(N2CC[NH+](Cc3cc(=O)oc4cc(OC)ccc34)CC2)c1 (protonated)
COc1cccc(N2CC[NH+](Cc3cc(=O)oc4cc(OC)ccc34)CC2)c1 (3D coordinates assigned)
COc1cccc(N2CC[NH+](Cc3cc(=O)oc4cc(OC)ccc34)CC2)c1 (nonaromatic ring conformer: 76.08384708595584 kcal/mol)

>  <smiles>  (27) 
COc1cccc(N2CCN(Cc3cc(=O)oc4cc(OC)ccc34)CC2)c1

>  <score_type>  (27) 
oracle

>  <origin>  (27) 
adgpu

>  <m_score__min__energy>  (27) 
-7.4800000000000004

>  <m_primary>  (27) 
energy

$$$$
27:0
     RDKit          3D

 40 42  0  0  0  0  0  0  0  0999 V2000
    0.3190   24.9630  -27.2580 C   0  0  0  0  0  0  0  0  0  0  0  0
   -0.9600   24.8420  -28.0180 C   0  0  0  0  0  0  0  0  0  0  0  0
   -1.3430   25.6960  -28.9910 N   0  0  0  0  0  0  0  0  0  0  0  0
   -2.5080   25.2950  -29.4140 O   0  0  0  0  0  0  0  0  0  0  0  0
   -2.8950   24.2240  -28.7610 C   0  0  0  0  0  0  0  0  0  0  0  0
   -4.0210   23.6100  -28.9470 N   0  0  0  0  0  0  0  0  0  0  0  0
   -5.1880   24.1450  -30.1090 S   0  0  0  0  0  0  0  0  0  0  0  0
   -6.3660   24.7480  -29.3960 O   0  0  0  0  0  0  0  0  0  0  0  0
   -4.5690   25.1970  -30.9850 O   0  0  0  0  0  0  0  0  0  0  0  0
   -5.6930   22.7870  -31.1090 C   0  0  0  0  0  0  0  0  0  0  0  0
   -6.9350   22.1700  -30.9050 C   0  0  0  0  0  0  0  0  0  0  0  0
   -7.3160   21.0790  -31.6910 C   0  0  0  0  0  0  0  0  0  0  0  0
   -6.4670   20.5980  -32.6960 C   0  0  0  0  0  0  0  0  0  0  0  0
   -6.8890   19.4610  -33.4640 N   0  0  0  0  0  0  0  0  0  0  0  0
   -6.0790   18.6850  -34.3580 C   0  0  0  0  0  0  0  0  0  0  0  0
   -6.1170   18.8950  -35.6000 O   0  0  0  0  0  0  0  0  0  0  0  0
   -5.2390   17.6010  -33.8160 C   0  0  0  0  0  0  0  0  0  0  0  0
   -3.8900   17.4670  -34.1880 C   0  0  0  0  0  0  0  0  0  0  0  0
   -3.1300   16.4270  -33.6480 C   0  0  0  0  0  0  0  0  0  0  0  0
   -3.7130   15.5330  -32.7490 C   0  0  0  0  0  0  0  0  0  0  0  0
   -5.0550   15.6950  -32.4000 C   0  0  0  0  0  0  0  0  0  0  0  0
   -5.7790   16.7140  -32.9340 N   0  0  0  0  0  0  0  0  0  0  0  0
   -5.2100   21.1990  -32.8800 C   0  0  0  0  0  0  0  0  0  0  0  0
   -4.8290   22.2890  -32.0940 C   0  0  0  0  0  0  0  0  0  0  0  0
   -1.9260   23.8660  -27.8520 C   0  0  0  0  0  0  0  0  0  0  0  0
   -1.9730   22.7740  -26.8310 C   0  0  0  0  0  0  0  0  0  0  0  0
    0.1075   24.9430  -26.1787 H   0  0  0  0  0  0  0  0  0  0  0  0
    0.9806   24.1234  -27.5176 H   0  0  0  0  0  0  0  0  0  0  0  0
    0.8114   25.9117  -27.5176 H   0  0  0  0  0  0  0  0  0  0  0  0
   -7.6120   22.5458  -30.1237 H   0  0  0  0  0  0  0  0  0  0  0  0
   -8.2887   20.5950  -31.5193 H   0  0  0  0  0  0  0  0  0  0  0  0
   -3.4371   18.1748  -34.8979 H   0  0  0  0  0  0  0  0  0  0  0  0
   -2.0732   16.3128  -33.9310 H   0  0  0  0  0  0  0  0  0  0  0  0
   -3.1220   14.7102  -32.3203 H   0  0  0  0  0  0  0  0  0  0  0  0
   -5.5269   14.9975  -31.6923 H   0  0  0  0  0  0  0  0  0  0  0  0
   -4.5234   20.8095  -33.6461 H   0  0  0  0  0  0  0  0  0  0  0  0
   -3.8464   22.7587  -32.2487 H   0  0  0  0  0  0  0  0  0  0  0  0
   -1.9541   23.2136  -25.8228 H   0  0  0  0  0  0  0  0  0  0  0  0
   -2.8971   22.1913  -26.9596 H   0  0  0  0  0  0  0  0  0  0  0  0
   -1.1024   22.1140  -26.9596 H   0  0  0  0  0  0  0  0  0  0  0  0
  1  2  1  0
  2  3  1  0
  3  4  1  0
  4  5  1  0
  5  6  2  3
  6  7  1  0
  7  8  2  0
  7  9  2  0
  7 10  1  0
 10 11  2  0
 11 12  1  0
 12 13  2  0
 13 14  1  0
 14 15  1  0
 15 16  2  0
 15 17  1  0
 17 18  2  0
 18 19  1  0
 19 20  2  0
 20 21  1  0
 21 22  2  0
 13 23  1  0
 23 24  2  0
  5 25  1  0
 25 26  1  0
 25  2  2  0
 24 10  1  0
 22 17  1  0
  1 27  1  0
  1 28  1  0
  1 29  1  0
 11 30  1  0
 12 31  1  0
 18 32  1  0
 19 33  1  0
 20 34  1  0
 21 35  1  0
 23 36  1  0
 24 37  1  0
 26 38  1  0
 26 39  1  0
 26 40  1  0
M  CHG  2   3  -1  14  -1
M  END
>  <UniqueID>  (28) 
25

>  <SMILES>  (28) 
Cc1[n-]oc(=NS(=O)(=O)c2ccc([N-]C(=O)c3ccccn3)cc2)c1C

>  <Energy>  (28) 
78.81201657195945

>  <Genealogy>  (28) 
Cc1[n-]oc(=NS(=O)(=O)c2ccc([N-]C(=O)c3ccccn3)cc2)c1C (protonated)
Cc1[n-]oc(=NS(=O)(=O)c2ccc([N-]C(=O)c3ccccn3)cc2)c1C (3D coordinates assigned)
Cc1[n-]oc(=NS(=O)(=O)c2ccc([N-]C(=O)c3ccccn3)cc2)c1C (optimized conformer: 78.81201657195945 kcal/mol)

>  <smiles>  (28) 
Cc1[nH]oc(=NS(=O)(=O)c2ccc(NC(=O)c3ccccn3)cc2)c1C

>  <score_type>  (28) 
oracle

>  <origin>  (28) 
adgpu

>  <m_score__min__energy>  (28) 
-12.279999999999999

>  <m_primary>  (28) 
energy

$$$$
28:0
     RDKit          3D

 47 51  0  0  0  0  0  0  0  0999 V2000
   -0.1950   16.0520  -26.7600 H   0  0  0  0  0  0  0  0  0  0  0  0
    0.2520   16.8120  -27.3200 N   0  0  0  0  0  0  0  0  0  0  0  0
   -0.2330   18.0120  -27.3630 C   0  0  0  0  0  0  0  0  0  0  0  0
    0.4080   18.9880  -28.1310 C   0  0  0  0  0  0  0  0  0  0  0  0
    1.3185   18.7384  -28.6955 H   0  0  0  0  0  0  0  0  0  0  0  0
   -0.1140   20.2800  -28.1770 C   0  0  0  0  0  0  0  0  0  0  0  0
    0.3840   21.0503  -28.7841 H   0  0  0  0  0  0  0  0  0  0  0  0
   -1.2740   20.6030  -27.4510 C   0  0  0  0  0  0  0  0  0  0  0  0
   -1.8630   21.9650  -27.4820 C   0  0  0  0  0  0  0  0  0  0  0  0
   -2.8980   22.2250  -28.3290 N   0  0  0  0  0  0  0  0  0  0  0  0
   -3.4780   23.4530  -28.3970 C   0  0  0  0  0  0  0  0  0  0  0  0
   -4.5650   23.6870  -29.3040 N   0  0  0  0  0  0  0  0  0  0  0  0
   -5.3350   24.9240  -29.3250 C   0  0  0  0  0  0  0  0  0  0  0  0
   -5.9214   25.0244  -28.3998 H   0  0  0  0  0  0  0  0  0  0  0  0
   -4.6793   25.8045  -29.3939 H   0  0  0  0  0  0  0  0  0  0  0  0
   -6.2630   24.8240  -30.5320 C   0  0  0  0  0  0  0  0  0  0  0  0
   -7.2778   25.1581  -30.2703 H   0  0  0  0  0  0  0  0  0  0  0  0
   -5.9322   25.4598  -31.3664 H   0  0  0  0  0  0  0  0  0  0  0  0
   -6.2610   23.3350  -30.8990 C   0  0  0  0  0  0  0  0  0  0  0  0
   -6.5570   22.9930  -32.3450 C   0  0  0  0  0  0  0  0  0  0  0  0
   -6.7121   23.8766  -32.9815 H   0  0  0  0  0  0  0  0  0  0  0  0
   -5.7948   22.4605  -32.9329 H   0  0  0  0  0  0  0  0  0  0  0  0
   -7.7520   22.3240  -32.0120 O   0  0  0  0  0  0  0  0  0  0  0  0
   -7.5620   22.5920  -30.6420 C   0  0  0  0  0  0  0  0  0  0  0  0
   -8.3494   23.2236  -30.2048 H   0  0  0  0  0  0  0  0  0  0  0  0
   -7.5670   21.7549  -29.9283 H   0  0  0  0  0  0  0  0  0  0  0  0
   -5.0050   22.7140  -30.2890 C   0  0  0  0  0  0  0  0  0  0  0  0
   -5.2395   21.7525  -29.8090 H   0  0  0  0  0  0  0  0  0  0  0  0
   -4.2330   22.5010  -31.0431 H   0  0  0  0  0  0  0  0  0  0  0  0
   -3.0250   24.4550  -27.5990 N   0  0  0  0  0  0  0  0  0  0  0  0
   -2.0010   24.2510  -26.7300 C   0  0  0  0  0  0  0  0  0  0  0  0
   -1.5550   25.3230  -25.9010 N   0  0  0  0  0  0  0  0  0  0  0  0
   -0.8550   25.4970  -24.6150 C   0  0  0  0  0  0  0  0  0  0  0  0
   -1.4133   25.0736  -23.7670 H   0  0  0  0  0  0  0  0  0  0  0  0
    0.1238   25.0068  -24.5072 H   0  0  0  0  0  0  0  0  0  0  0  0
   -0.8700   26.9900  -24.6270 C   0  0  0  0  0  0  0  0  0  0  0  0
   -1.4617   27.4655  -23.8309 H   0  0  0  0  0  0  0  0  0  0  0  0
    0.0266   27.6149  -24.5026 H   0  0  0  0  0  0  0  0  0  0  0  0
   -1.5780   26.7950  -25.9280 C   0  0  0  0  0  0  0  0  0  0  0  0
   -2.5993   27.2036  -25.9208 H   0  0  0  0  0  0  0  0  0  0  0  0
   -1.1449   27.2861  -26.8119 H   0  0  0  0  0  0  0  0  0  0  0  0
   -1.3960   22.9960  -26.6490 C   0  0  0  0  0  0  0  0  0  0  0  0
   -0.5689   22.8171  -25.9462 H   0  0  0  0  0  0  0  0  0  0  0  0
   -1.8910   19.5850  -26.7010 C   0  0  0  0  0  0  0  0  0  0  0  0
   -2.8082   19.8050  -26.1351 H   0  0  0  0  0  0  0  0  0  0  0  0
   -1.3640   18.3310  -26.6690 N   0  0  0  0  0  0  0  0  0  0  0  0
   -1.8480   17.6030  -26.0940 H   0  0  0  0  0  0  0  0  0  0  0  0
  1  2  1  0
  2  3  2  0
  3  4  1  0
  4  5  1  0
  4  6  2  0
  6  7  1  0
  6  8  1  0
  8  9  1  0
  9 10  2  0
 10 11  1  0
 11 12  1  0
 12 13  1  0
 13 14  1  0
 13 15  1  0
 13 16  1  0
 16 17  1  0
 16 18  1  0
 16 19  1  0
 19 20  1  0
 20 21  1  0
 20 22  1  0
 20 23  1  0
 23 24  1  0
 24 25  1  0
 24 26  1  0
 19 27  1  0
 27 28  1  0
 27 29  1  0
 11 30  2  0
 30 31  1  0
 31 32  1  0
 32 33  1  0
 33 34  1  0
 33 35  1  0
 33 36  1  0
 36 37  1  0
 36 38  1  0
 36 39  1  0
 39 40  1  0
 39 41  1  0
 31 42  2  0
 42 43  1  0
  8 44  2  0
 44 45  1  0
 44 46  1  0
 46 47  1  0
 46  3  1  0
 42  9  1  0
 27 12  1  0
 39 32  1  0
 24 19  1  0
M  END
>  <UniqueID>  (29) 
26

>  <SMILES>  (29) 
[H]/N=c1/ccc(-c2cc(N3CCC3)nc(N3CCC4(COC4)C3)n2)c[nH]1

>  <Energy>  (29) 
165.34530486225384

>  <Genealogy>  (29) 
[H]/N=c1/ccc(-c2cc(N3CCC3)nc(N3CCC4(COC4)C3)n2)c[nH]1 (cis-trans isomerization)
[H]/N=c1/ccc(-c2cc(N3CCC3)nc(N3CCC4(COC4)C3)n2)c[nH]1 (3D coordinates assigned)
[H]/N=c1/ccc(-c2cc(N3CCC3)nc(N3CCC4(COC4)C3)n2)c[nH]1 (nonaromatic ring conformer: 165.34530486225384 kcal/mol)

>  <smiles>  (29) 
N=c1ccc(-c2cc(N3CCC3)nc(N3CCC4(COC4)C3)n2)c[nH]1

>  <score_type>  (29) 
oracle

>  <origin>  (29) 
adgpu

>  <m_score__min__energy>  (29) 
-8.1400000000000006

>  <m_primary>  (29) 
energy

$$$$
29:0
     RDKit          3D

 42 44  0  0  0  0  0  0  0  0999 V2000
   -4.4860   16.0810  -32.7620 C   0  0  0  0  0  0  0  0  0  0  0  0
   -5.6830   16.3060  -33.5900 N   0  0  0  0  0  0  0  0  0  0  0  0
   -5.4080   17.2240  -34.7270 C   0  0  0  0  0  0  0  0  0  0  0  0
   -6.0530   18.6180  -34.5900 C   0  0  0  0  0  0  0  0  0  0  0  0
   -6.1140   19.0260  -33.1860 N   0  0  0  0  0  0  0  0  0  0  0  0
   -5.8400   20.3880  -32.8220 C   0  0  0  0  0  0  0  0  0  0  0  0
   -4.5270   20.8750  -32.8870 C   0  0  0  0  0  0  0  0  0  0  0  0
   -4.2450   22.1970  -32.5320 C   0  0  0  0  0  0  0  0  0  0  0  0
   -5.2790   23.0550  -32.1230 C   0  0  0  0  0  0  0  0  0  0  0  0
   -5.0260   24.4160  -31.7450 N   0  0  0  0  0  0  0  0  0  0  0  0
   -4.5270   24.8660  -30.4780 C   0  0  0  0  0  0  0  0  0  0  0  0
   -4.7540   26.0530  -30.1260 O   0  0  0  0  0  0  0  0  0  0  0  0
   -3.7270   23.9900  -29.5910 C   0  0  0  0  0  0  0  0  0  0  0  0
   -4.2250   22.7220  -29.2440 C   0  0  0  0  0  0  0  0  0  0  0  0
   -3.4820   21.8680  -28.4240 C   0  0  0  0  0  0  0  0  0  0  0  0
   -2.2400   22.2750  -27.9320 C   0  0  0  0  0  0  0  0  0  0  0  0
   -1.5010   21.4230  -27.1210 O   0  0  0  0  0  0  0  0  0  0  0  0
   -1.7430   23.5400  -28.2530 C   0  0  0  0  0  0  0  0  0  0  0  0
   -2.4830   24.4020  -29.0700 C   0  0  0  0  0  0  0  0  0  0  0  0
   -1.9840   25.6740  -29.3360 O   0  0  0  0  0  0  0  0  0  0  0  0
   -6.5860   22.5620  -32.0350 C   0  0  0  0  0  0  0  0  0  0  0  0
   -6.8740   21.2390  -32.3890 C   0  0  0  0  0  0  0  0  0  0  0  0
   -8.5400   20.6840  -32.3170 Cl  0  0  0  0  0  0  0  0  0  0  0  0
   -6.6820   18.1140  -32.1900 C   0  0  0  0  0  0  0  0  0  0  0  0
   -6.8480   16.7040  -32.7740 C   0  0  0  0  0  0  0  0  0  0  0  0
   -4.7610   16.1327  -31.6982 H   0  0  0  0  0  0  0  0  0  0  0  0
   -4.0674   15.0884  -32.9847 H   0  0  0  0  0  0  0  0  0  0  0  0
   -3.7356   16.8538  -32.9847 H   0  0  0  0  0  0  0  0  0  0  0  0
   -4.3188   17.3552  -34.8077 H   0  0  0  0  0  0  0  0  0  0  0  0
   -5.8510   16.7593  -35.6202 H   0  0  0  0  0  0  0  0  0  0  0  0
   -5.4542   19.3494  -35.1525 H   0  0  0  0  0  0  0  0  0  0  0  0
   -7.0770   18.5738  -34.9894 H   0  0  0  0  0  0  0  0  0  0  0  0
   -3.7140   20.2128  -33.2193 H   0  0  0  0  0  0  0  0  0  0  0  0
   -3.2098   22.5667  -32.5731 H   0  0  0  0  0  0  0  0  0  0  0  0
   -5.2069   22.3994  -29.6207 H   0  0  0  0  0  0  0  0  0  0  0  0
   -3.8761   20.8740  -28.1659 H   0  0  0  0  0  0  0  0  0  0  0  0
   -0.7659   23.8601  -27.8620 H   0  0  0  0  0  0  0  0  0  0  0  0
   -7.3943   23.2205  -31.6843 H   0  0  0  0  0  0  0  0  0  0  0  0
   -6.0109   18.0672  -31.3197 H   0  0  0  0  0  0  0  0  0  0  0  0
   -7.6713   18.4905  -31.8908 H   0  0  0  0  0  0  0  0  0  0  0  0
   -6.9645   15.9879  -31.9472 H   0  0  0  0  0  0  0  0  0  0  0  0
   -7.7353   16.7062  -33.4242 H   0  0  0  0  0  0  0  0  0  0  0  0
  1  2  1  0
  2  3  1  0
  3  4  1  0
  4  5  1  0
  5  6  1  0
  6  7  2  0
  7  8  1  0
  8  9  2  0
  9 10  1  0
 10 11  1  0
 11 12  2  0
 11 13  1  0
 13 14  2  0
 14 15  1  0
 15 16  2  0
 16 17  1  0
 16 18  1  0
 18 19  2  0
 19 20  1  0
  9 21  1  0
 21 22  2  0
 22 23  1  0
  5 24  1  0
 24 25  1  0
 25  2  1  0
 22  6  1  0
 19 13  1  0
  1 26  1  0
  1 27  1  0
  1 28  1  0
  3 29  1  0
  3 30  1  0
  4 31  1  0
  4 32  1  0
  7 33  1  0
  8 34  1  0
 14 35  1  0
 15 36  1  0
 18 37  1  0
 21 38  1  0
 24 39  1  0
 24 40  1  0
 25 41  1  0
 25 42  1  0
M  CHG  3  10  -1  17  -1  20  -1
M  END
>  <UniqueID>  (30) 
27

>  <SMILES>  (30) 
CN1CCN(c2ccc([N-]C(=O)c3ccc([O-])cc3[O-])cc2Cl)CC1

>  <Energy>  (30) 
64.57984751463165

>  <Genealogy>  (30) 
CN1CCN(c2ccc([N-]C(=O)c3ccc([O-])cc3[O-])cc2Cl)CC1 (protonated)
CN1CCN(c2ccc([N-]C(=O)c3ccc([O-])cc3[O-])cc2Cl)CC1 (3D coordinates assigned)
CN1CCN(c2ccc([N-]C(=O)c3ccc([O-])cc3[O-])cc2Cl)CC1 (nonaromatic ring conformer: 64.57984751463165 kcal/mol)

>  <smiles>  (30) 
CN1CCN(c2ccc(NC(=O)c3ccc(O)cc3O)cc2Cl)CC1

>  <score_type>  (30) 
oracle

>  <origin>  (30) 
adgpu

>  <m_score__min__energy>  (30) 
-12.699999999999999

>  <m_primary>  (30) 
energy

$$$$
30:0
     RDKit          3D

 47 49  0  0  0  0  0  0  0  0999 V2000
   -6.9110   16.9340  -33.1650 C   0  0  0  0  0  0  0  0  0  0  0  0
   -7.6330   18.0300  -32.6140 O   0  0  0  0  0  0  0  0  0  0  0  0
   -7.1590   19.3500  -32.5690 C   0  0  0  0  0  0  0  0  0  0  0  0
   -5.8760   19.7100  -33.0260 C   0  0  0  0  0  0  0  0  0  0  0  0
   -5.4490   21.0390  -32.9570 C   0  0  0  0  0  0  0  0  0  0  0  0
   -6.2960   22.0290  -32.4260 C   0  0  0  0  0  0  0  0  0  0  0  0
   -5.9000   23.4050  -32.3440 N   0  0  0  0  0  0  0  0  0  0  0  0
   -5.4420   24.2130  -30.8790 S   0  0  0  0  0  0  0  0  0  0  0  0
   -6.5730   24.1360  -29.8910 O   0  0  0  0  0  0  0  0  0  0  0  0
   -5.1420   25.6550  -31.1760 O   0  0  0  0  0  0  0  0  0  0  0  0
   -3.9900   23.4520  -30.2390 C   0  0  0  0  0  0  0  0  0  0  0  0
   -3.8070   22.0640  -30.3260 C   0  0  0  0  0  0  0  0  0  0  0  0
   -2.6100   21.4880  -29.8940 C   0  0  0  0  0  0  0  0  0  0  0  0
   -1.5860   22.2930  -29.3870 C   0  0  0  0  0  0  0  0  0  0  0  0
   -1.7630   23.6850  -29.3000 C   0  0  0  0  0  0  0  0  0  0  0  0
   -0.7190   24.5380  -28.8140 N   0  0  0  0  0  0  0  0  0  0  0  0
   -0.9300   25.8250  -28.2180 C   0  0  0  0  0  0  0  0  0  0  0  0
   -1.2310   26.7940  -28.9640 O   0  0  0  0  0  0  0  0  0  0  0  0
   -0.7390   26.0480  -26.7630 C   0  0  0  0  0  0  0  0  0  0  0  0
   -0.9410   24.9840  -25.8660 C   0  0  0  0  0  0  0  0  0  0  0  0
   -0.7670   25.1700  -24.4960 C   0  0  0  0  0  0  0  0  0  0  0  0
   -0.3740   26.4100  -23.9990 C   0  0  0  0  0  0  0  0  0  0  0  0
   -0.1560   27.4890  -24.8700 C   0  0  0  0  0  0  0  0  0  0  0  0
    0.2610   28.8190  -24.3060 C   0  0  0  0  0  0  0  0  0  0  0  0
   -0.3380   27.3090  -26.2640 C   0  0  0  0  0  0  0  0  0  0  0  0
   -0.1420   28.3640  -27.1600 O   0  0  0  0  0  0  0  0  0  0  0  0
   -2.9750   24.2530  -29.7030 C   0  0  0  0  0  0  0  0  0  0  0  0
   -7.5670   21.6660  -31.9630 C   0  0  0  0  0  0  0  0  0  0  0  0
   -7.9970   20.3390  -32.0430 C   0  0  0  0  0  0  0  0  0  0  0  0
   -6.5042   16.3164  -32.3507 H   0  0  0  0  0  0  0  0  0  0  0  0
   -7.5855   16.3252  -33.7851 H   0  0  0  0  0  0  0  0  0  0  0  0
   -6.0854   17.3134  -33.7851 H   0  0  0  0  0  0  0  0  0  0  0  0
   -5.2067   18.9411  -33.4393 H   0  0  0  0  0  0  0  0  0  0  0  0
   -4.4469   21.3120  -33.3192 H   0  0  0  0  0  0  0  0  0  0  0  0
   -4.6066   21.4287  -30.7347 H   0  0  0  0  0  0  0  0  0  0  0  0
   -2.4729   20.3982  -29.9530 H   0  0  0  0  0  0  0  0  0  0  0  0
   -0.6412   21.8372  -29.0559 H   0  0  0  0  0  0  0  0  0  0  0  0
   -1.2388   23.9968  -26.2490 H   0  0  0  0  0  0  0  0  0  0  0  0
   -0.9410   24.3331  -23.8037 H   0  0  0  0  0  0  0  0  0  0  0  0
   -0.2334   26.5449  -22.9164 H   0  0  0  0  0  0  0  0  0  0  0  0
    0.2463   28.7721  -23.2071 H   0  0  0  0  0  0  0  0  0  0  0  0
    1.2779   29.0602  -24.6491 H   0  0  0  0  0  0  0  0  0  0  0  0
   -0.4361   29.5976  -24.6491 H   0  0  0  0  0  0  0  0  0  0  0  0
   -0.8120   28.6170  -27.8770 H   0  0  0  0  0  0  0  0  0  0  0  0
   -3.1321   25.3367  -29.5982 H   0  0  0  0  0  0  0  0  0  0  0  0
   -8.2310   22.4306  -31.5336 H   0  0  0  0  0  0  0  0  0  0  0  0
   -9.0032   20.0696  -31.6893 H   0  0  0  0  0  0  0  0  0  0  0  0
  1  2  1  0
  2  3  1  0
  3  4  2  0
  4  5  1  0
  5  6  2  0
  6  7  1  0
  7  8  1  0
  8  9  2  0
  8 10  2  0
  8 11  1  0
 11 12  2  0
 12 13  1  0
 13 14  2  0
 14 15  1  0
 15 16  1  0
 16 17  1  0
 17 18  2  0
 17 19  1  0
 19 20  2  0
 20 21  1  0
 21 22  2  0
 22 23  1  0
 23 24  1  0
 23 25  2  0
 25 26  1  0
 15 27  2  0
  6 28  1  0
 28 29  2  0
 29  3  1  0
 27 11  1  0
 25 19  1  0
  1 30  1  0
  1 31  1  0
  1 32  1  0
  4 33  1  0
  5 34  1  0
 12 35  1  0
 13 36  1  0
 14 37  1  0
 20 38  1  0
 21 39  1  0
 22 40  1  0
 24 41  1  0
 24 42  1  0
 24 43  1  0
 26 44  1  0
 27 45  1  0
 28 46  1  0
 29 47  1  0
M  CHG  2   7  -1  16  -1
M  END
>  <UniqueID>  (31) 
28

>  <SMILES>  (31) 
COc1ccc([N-]S(=O)(=O)c2cccc([N-]C(=O)c3cccc(C)c3O)c2)cc1

>  <Energy>  (31) 
59.285051697309804

>  <Genealogy>  (31) 
COc1ccc([N-]S(=O)(=O)c2cccc([N-]C(=O)c3cccc(C)c3O)c2)cc1 (protonated)
COc1ccc([N-]S(=O)(=O)c2cccc([N-]C(=O)c3cccc(C)c3O)c2)cc1 (3D coordinates assigned)
COc1ccc([N-]S(=O)(=O)c2cccc([N-]C(=O)c3cccc(C)c3O)c2)cc1 (optimized conformer: 59.285051697309804 kcal/mol)

>  <smiles>  (31) 
COc1ccc(NS(=O)(=O)c2cccc(NC(=O)c3cccc(C)c3O)c2)cc1

>  <score_type>  (31) 
oracle

>  <origin>  (31) 
adgpu

>  <m_score__min__energy>  (31) 
-10.779999999999999

>  <m_primary>  (31) 
energy

$$$$
31:0
     RDKit          3D

 33 34  0  0  0  0  0  0  0  0999 V2000
   -5.6340   14.5350  -33.9180 C   0  0  0  0  0  0  0  0  0  0  0  0
   -6.9450   15.6360  -34.5360 S   0  0  0  0  0  0  0  0  0  0  0  0
   -6.2940   17.0750  -33.6910 C   0  0  0  0  0  0  0  0  0  0  0  0
   -6.8040   17.4530  -32.4460 C   0  0  0  0  0  0  0  0  0  0  0  0
   -6.2830   18.5780  -31.8050 C   0  0  0  0  0  0  0  0  0  0  0  0
   -5.2610   19.3270  -32.4120 C   0  0  0  0  0  0  0  0  0  0  0  0
   -4.6850   20.5220  -31.7490 C   0  0  0  0  0  0  0  0  0  0  0  0
   -4.7940   21.6520  -32.3010 O   0  0  0  0  0  0  0  0  0  0  0  0
   -4.0290   20.4150  -30.4750 N   0  0  0  0  0  0  0  0  0  0  0  0
   -3.2490   21.4840  -29.9200 C   0  0  0  0  0  0  0  0  0  0  0  0
   -3.8490   22.3590  -29.0030 C   0  0  0  0  0  0  0  0  0  0  0  0
   -3.1200   23.4110  -28.4450 C   0  0  0  0  0  0  0  0  0  0  0  0
   -1.7730   23.5910  -28.7820 C   0  0  0  0  0  0  0  0  0  0  0  0
   -0.8540   24.9240  -28.0900 S   0  0  0  0  0  0  0  0  0  0  0  0
   -1.1840   26.3720  -28.9740 N   0  0  0  0  0  0  0  0  0  0  0  0
   -1.2390   25.1180  -26.6510 O   0  0  0  0  0  0  0  0  0  0  0  0
    0.6170   24.6180  -28.1580 O   0  0  0  0  0  0  0  0  0  0  0  0
   -1.1600   22.7080  -29.6820 C   0  0  0  0  0  0  0  0  0  0  0  0
   -1.8870   21.6520  -30.2450 C   0  0  0  0  0  0  0  0  0  0  0  0
   -1.0380   20.5160  -31.2880 Cl  0  0  0  0  0  0  0  0  0  0  0  0
   -4.7770   18.9030  -33.6630 C   0  0  0  0  0  0  0  0  0  0  0  0
   -5.3020   17.8040  -34.2650 N   0  0  0  0  0  0  0  0  0  0  0  0
   -5.6396   14.5397  -32.8180 H   0  0  0  0  0  0  0  0  0  0  0  0
   -5.8127   13.5122  -34.2812 H   0  0  0  0  0  0  0  0  0  0  0  0
   -4.6575   14.8877  -34.2812 H   0  0  0  0  0  0  0  0  0  0  0  0
   -7.6088   16.8691  -31.9755 H   0  0  0  0  0  0  0  0  0  0  0  0
   -6.6736   18.8791  -30.8218 H   0  0  0  0  0  0  0  0  0  0  0  0
   -4.3110   19.6390  -29.8360 H   0  0  0  0  0  0  0  0  0  0  0  0
   -4.9025   22.2154  -28.7210 H   0  0  0  0  0  0  0  0  0  0  0  0
   -3.6054   24.1004  -27.7385 H   0  0  0  0  0  0  0  0  0  0  0  0
   -1.2330   26.1090  -29.9830 H   0  0  0  0  0  0  0  0  0  0  0  0
   -0.1014   22.8456  -29.9475 H   0  0  0  0  0  0  0  0  0  0  0  0
   -3.9695   19.4640  -34.1562 H   0  0  0  0  0  0  0  0  0  0  0  0
  1  2  1  0
  2  3  1  0
  3  4  2  0
  4  5  1  0
  5  6  2  0
  6  7  1  0
  7  8  2  0
  7  9  1  0
  9 10  1  0
 10 11  2  0
 11 12  1  0
 12 13  2  0
 13 14  1  0
 14 15  1  0
 14 16  2  0
 14 17  2  0
 13 18  1  0
 18 19  2  0
 19 20  1  0
  6 21  1  0
 21 22  2  0
 22  3  1  0
 19 10  1  0
  1 23  1  0
  1 24  1  0
  1 25  1  0
  4 26  1  0
  5 27  1  0
  9 28  1  0
 11 29  1  0
 12 30  1  0
 15 31  1  0
 18 32  1  0
 21 33  1  0
M  CHG  1  15  -1
M  END
>  <UniqueID>  (32) 
29

>  <SMILES>  (32) 
CSc1ccc(C(=O)Nc2ccc(S([NH-])(=O)=O)cc2Cl)cn1

>  <Energy>  (32) 
37.88584886087368

>  <Genealogy>  (32) 
CSc1ccc(C(=O)Nc2ccc(S([NH-])(=O)=O)cc2Cl)cn1 (protonated)
CSc1ccc(C(=O)Nc2ccc(S([NH-])(=O)=O)cc2Cl)cn1 (3D coordinates assigned)
CSc1ccc(C(=O)Nc2ccc(S([NH-])(=O)=O)cc2Cl)cn1 (optimized conformer: 37.88584886087368 kcal/mol)

>  <smiles>  (32) 
CSc1ccc(C(=O)Nc2ccc(S(N)(=O)=O)cc2Cl)cn1

>  <score_type>  (32) 
oracle

>  <origin>  (32) 
adgpu

>  <m_score__min__energy>  (32) 
-9.7699999999999996

>  <m_primary>  (32) 
energy

$$$$
32:0
     RDKit          3D

 46 48  0  0  0  0  0  0  0  0999 V2000
    3.2610   28.1720  -27.1310 C   0  0  0  0  0  0  0  0  0  0  0  0
    3.1270   26.7470  -26.6590 C   0  0  0  0  0  0  0  0  0  0  0  0
    3.0920   26.4960  -25.1730 C   0  0  0  0  0  0  0  0  0  0  0  0
    3.0280   25.7460  -27.5630 C   0  0  0  0  0  0  0  0  0  0  0  0
    2.8700   24.2850  -27.2170 C   0  0  0  0  0  0  0  0  0  0  0  0
    1.4290   23.9980  -26.8730 C   0  0  0  0  0  0  0  0  0  0  0  0
    1.0570   23.7320  -25.5400 C   0  0  0  0  0  0  0  0  0  0  0  0
    2.0000   23.7750  -24.5180 O   0  0  0  0  0  0  0  0  0  0  0  0
   -0.2670   23.4150  -25.2290 C   0  0  0  0  0  0  0  0  0  0  0  0
   -1.2280   23.3430  -26.2350 C   0  0  0  0  0  0  0  0  0  0  0  0
   -0.8760   23.5870  -27.5700 C   0  0  0  0  0  0  0  0  0  0  0  0
   -1.9010   23.4590  -28.6320 C   0  0  0  0  0  0  0  0  0  0  0  0
   -2.4310   22.1930  -28.9900 C   0  0  0  0  0  0  0  0  0  0  0  0
   -1.9240   20.9360  -28.3900 C   0  0  0  0  0  0  0  0  0  0  0  0
   -2.6660   20.2650  -27.4030 C   0  0  0  0  0  0  0  0  0  0  0  0
   -2.1900   19.0720  -26.8510 C   0  0  0  0  0  0  0  0  0  0  0  0
   -0.9630   18.5430  -27.2720 C   0  0  0  0  0  0  0  0  0  0  0  0
   -0.4790   17.3540  -26.7300 O   0  0  0  0  0  0  0  0  0  0  0  0
   -0.2150   19.2140  -28.2450 C   0  0  0  0  0  0  0  0  0  0  0  0
   -0.6900   20.4060  -28.8000 C   0  0  0  0  0  0  0  0  0  0  0  0
   -3.4510   22.1210  -29.9530 C   0  0  0  0  0  0  0  0  0  0  0  0
   -3.9300   23.2780  -30.5700 C   0  0  0  0  0  0  0  0  0  0  0  0
   -4.9330   23.1840  -31.5280 O   0  0  0  0  0  0  0  0  0  0  0  0
   -3.4010   24.5250  -30.2280 C   0  0  0  0  0  0  0  0  0  0  0  0
   -3.8810   25.6750  -30.8450 O   0  0  0  0  0  0  0  0  0  0  0  0
   -2.3950   24.6200  -29.2600 C   0  0  0  0  0  0  0  0  0  0  0  0
   -1.8990   25.8730  -28.9120 O   0  0  0  0  0  0  0  0  0  0  0  0
    0.4550   23.9100  -27.8900 C   0  0  0  0  0  0  0  0  0  0  0  0
    0.8150   24.1180  -29.2200 O   0  0  0  0  0  0  0  0  0  0  0  0
    3.3240   28.8421  -26.2609 H   0  0  0  0  0  0  0  0  0  0  0  0
    4.1726   28.2729  -27.7383 H   0  0  0  0  0  0  0  0  0  0  0  0
    2.3842   28.4411  -27.7383 H   0  0  0  0  0  0  0  0  0  0  0  0
    3.2247   27.4475  -24.6372 H   0  0  0  0  0  0  0  0  0  0  0  0
    2.1234   26.0527  -24.8987 H   0  0  0  0  0  0  0  0  0  0  0  0
    3.9024   25.8046  -24.8987 H   0  0  0  0  0  0  0  0  0  0  0  0
    3.0653   26.0162  -28.6286 H   0  0  0  0  0  0  0  0  0  0  0  0
    3.1698   23.6705  -28.0786 H   0  0  0  0  0  0  0  0  0  0  0  0
    3.5064   24.0439  -26.3528 H   0  0  0  0  0  0  0  0  0  0  0  0
   -0.5525   23.2212  -24.1845 H   0  0  0  0  0  0  0  0  0  0  0  0
   -2.2686   23.0934  -25.9805 H   0  0  0  0  0  0  0  0  0  0  0  0
   -3.6261   20.6805  -27.0631 H   0  0  0  0  0  0  0  0  0  0  0  0
   -2.7800   18.5478  -26.0848 H   0  0  0  0  0  0  0  0  0  0  0  0
   -1.0770   16.7320  -26.1980 H   0  0  0  0  0  0  0  0  0  0  0  0
    0.7503   18.8024  -28.5747 H   0  0  0  0  0  0  0  0  0  0  0  0
   -0.0944   20.9311  -29.5613 H   0  0  0  0  0  0  0  0  0  0  0  0
   -3.8765   21.1434  -30.2236 H   0  0  0  0  0  0  0  0  0  0  0  0
  1  2  1  0
  2  3  1  0
  2  4  2  3
  4  5  1  0
  5  6  1  0
  6  7  2  0
  7  8  1  0
  7  9  1  0
  9 10  2  0
 10 11  1  0
 11 12  1  0
 12 13  1  0
 13 14  1  0
 14 15  2  0
 15 16  1  0
 16 17  2  0
 17 18  1  0
 17 19  1  0
 19 20  2  0
 13 21  2  0
 21 22  1  0
 22 23  1  0
 22 24  2  0
 24 25  1  0
 24 26  1  0
 26 27  1  0
 11 28  2  0
 28 29  1  0
 28  6  1  0
 26 12  2  0
 20 14  1  0
  1 30  1  0
  1 31  1  0
  1 32  1  0
  3 33  1  0
  3 34  1  0
  3 35  1  0
  4 36  1  0
  5 37  1  0
  5 38  1  0
  9 39  1  0
 10 40  1  0
 15 41  1  0
 16 42  1  0
 18 43  1  0
 19 44  1  0
 20 45  1  0
 21 46  1  0
M  CHG  5   8  -1  23  -1  25  -1  27  -1  29  -1
M  END
>  <UniqueID>  (33) 
30

>  <SMILES>  (33) 
CC(C)=CCc1c([O-])ccc(-c2c(-c3ccc(O)cc3)cc([O-])c([O-])c2[O-])c1[O-]

>  <Energy>  (33) 
61.40576803075258

>  <Genealogy>  (33) 
CC(C)=CCc1c([O-])ccc(-c2c(-c3ccc(O)cc3)cc([O-])c([O-])c2[O-])c1[O-] (protonated)
CC(C)=CCc1c([O-])ccc(-c2c(-c3ccc(O)cc3)cc([O-])c([O-])c2[O-])c1[O-] (3D coordinates assigned)
CC(C)=CCc1c([O-])ccc(-c2c(-c3ccc(O)cc3)cc([O-])c([O-])c2[O-])c1[O-] (optimized conformer: 61.40576803075258 kcal/mol)

>  <smiles>  (33) 
CC(C)=CCc1c(O)ccc(-c2c(-c3ccc(O)cc3)cc(O)c(O)c2O)c1O

>  <score_type>  (33) 
oracle

>  <origin>  (33) 
adgpu

>  <m_score__min__energy>  (33) 
-13.91

>  <m_primary>  (33) 
energy

$$$$
33:0
     RDKit          3D

 54 57  0  0  0  0  0  0  0  0999 V2000
   -1.0970   25.9650  -28.9340 N   0  0  0  0  0  0  0  0  0  0  0  0
   -1.7280   24.6850  -28.7900 C   0  0  0  0  0  0  0  0  0  0  0  0
   -1.1270   23.7170  -27.9680 C   0  0  0  0  0  0  0  0  0  0  0  0
   -1.7590   22.4930  -27.7350 C   0  0  0  0  0  0  0  0  0  0  0  0
   -3.0040   22.2290  -28.3090 C   0  0  0  0  0  0  0  0  0  0  0  0
   -3.6100   23.1770  -29.1380 C   0  0  0  0  0  0  0  0  0  0  0  0
   -2.9690   24.3940  -29.4130 C   0  0  0  0  0  0  0  0  0  0  0  0
   -3.5900   25.3000  -30.3390 N   0  0  0  0  0  0  0  0  0  0  0  0
   -5.0030   25.3990  -30.5740 C   0  0  0  0  0  0  0  0  0  0  0  0
   -5.5780   26.5000  -30.3680 O   0  0  0  0  0  0  0  0  0  0  0  0
   -5.7930   24.2410  -31.0460 C   0  0  0  0  0  0  0  0  0  0  0  0
   -5.3180   23.4420  -32.0970 C   0  0  0  0  0  0  0  0  0  0  0  0
   -6.0420   22.3210  -32.5120 C   0  0  0  0  0  0  0  0  0  0  0  0
   -7.2590   21.9940  -31.8900 C   0  0  0  0  0  0  0  0  0  0  0  0
   -8.0090   20.8760  -32.2810 O   0  0  0  0  0  0  0  0  0  0  0  0
   -7.4740   19.6390  -32.6690 C   0  0  0  0  0  0  0  0  0  0  0  0
   -7.8020   18.4400  -32.0130 C   0  0  0  0  0  0  0  0  0  0  0  0
   -7.2830   17.2250  -32.4630 C   0  0  0  0  0  0  0  0  0  0  0  0
   -6.4460   17.1770  -33.5930 C   0  0  0  0  0  0  0  0  0  0  0  0
   -5.9170   15.8740  -34.0640 C   0  0  0  0  0  0  0  0  0  0  0  0
   -6.7160   14.9140  -34.2390 O   0  0  0  0  0  0  0  0  0  0  0  0
   -4.5180   15.6900  -34.3410 N   0  0  0  0  0  0  0  0  0  0  0  0
   -3.9880   14.4340  -34.8740 C   0  0  0  0  0  0  0  0  0  0  0  0
   -3.4690   13.5740  -33.7530 C   0  0  0  0  0  0  0  0  0  0  0  0
   -3.9330   13.7610  -32.4420 C   0  0  0  0  0  0  0  0  0  0  0  0
   -3.4040   12.9970  -31.3970 C   0  0  0  0  0  0  0  0  0  0  0  0
   -2.4120   12.0530  -31.6740 C   0  0  0  0  0  0  0  0  0  0  0  0
   -1.9740   11.8800  -32.9500 N   0  0  0  0  0  0  0  0  0  0  0  0
   -2.4760   12.6100  -33.9860 C   0  0  0  0  0  0  0  0  0  0  0  0
   -6.1070   18.3810  -34.2350 C   0  0  0  0  0  0  0  0  0  0  0  0
   -6.6260   19.5970  -33.7800 C   0  0  0  0  0  0  0  0  0  0  0  0
   -7.7590   22.8210  -30.8800 C   0  0  0  0  0  0  0  0  0  0  0  0
   -7.0300   23.9340  -30.4540 C   0  0  0  0  0  0  0  0  0  0  0  0
   -0.0880   26.1070  -28.7070 H   0  0  0  0  0  0  0  0  0  0  0  0
   -1.6170   26.7690  -29.3530 H   0  0  0  0  0  0  0  0  0  0  0  0
   -0.1513   23.9244  -27.5043 H   0  0  0  0  0  0  0  0  0  0  0  0
   -1.2754   21.7369  -27.0990 H   0  0  0  0  0  0  0  0  0  0  0  0
   -3.5091   21.2727  -28.1083 H   0  0  0  0  0  0  0  0  0  0  0  0
   -4.5962   22.9674  -29.5778 H   0  0  0  0  0  0  0  0  0  0  0  0
   -4.3721   23.6989  -32.5962 H   0  0  0  0  0  0  0  0  0  0  0  0
   -5.6578   21.6922  -33.3287 H   0  0  0  0  0  0  0  0  0  0  0  0
   -8.4713   18.4593  -31.1403 H   0  0  0  0  0  0  0  0  0  0  0  0
   -7.5308   16.2958  -31.9290 H   0  0  0  0  0  0  0  0  0  0  0  0
   -3.8560   16.4910  -34.2500 H   0  0  0  0  0  0  0  0  0  0  0  0
   -4.7887   13.8970  -35.4037 H   0  0  0  0  0  0  0  0  0  0  0  0
   -3.1640   14.6568  -35.5678 H   0  0  0  0  0  0  0  0  0  0  0  0
   -4.7131   14.5088  -32.2362 H   0  0  0  0  0  0  0  0  0  0  0  0
   -3.7652   13.1378  -30.3676 H   0  0  0  0  0  0  0  0  0  0  0  0
   -1.9849   11.4493  -30.8596 H   0  0  0  0  0  0  0  0  0  0  0  0
   -2.1020   12.4431  -35.0069 H   0  0  0  0  0  0  0  0  0  0  0  0
   -5.4289   18.3663  -35.1010 H   0  0  0  0  0  0  0  0  0  0  0  0
   -6.3646   20.5298  -34.3012 H   0  0  0  0  0  0  0  0  0  0  0  0
   -8.7313   22.5943  -30.4183 H   0  0  0  0  0  0  0  0  0  0  0  0
   -7.4262   24.5732  -29.6512 H   0  0  0  0  0  0  0  0  0  0  0  0
  1  2  1  0
  2  3  2  0
  3  4  1  0
  4  5  2  0
  5  6  1  0
  6  7  2  0
  7  8  1  0
  8  9  1  0
  9 10  2  0
  9 11  1  0
 11 12  2  0
 12 13  1  0
 13 14  2  0
 14 15  1  0
 15 16  1  0
 16 17  2  0
 17 18  1  0
 18 19  2  0
 19 20  1  0
 20 21  2  0
 20 22  1  0
 22 23  1  0
 23 24  1  0
 24 25  2  0
 25 26  1  0
 26 27  2  0
 27 28  1  0
 28 29  2  0
 19 30  1  0
 30 31  2  0
 14 32  1  0
 32 33  2  0
  7  2  1  0
 33 11  1  0
 31 16  1  0
 29 24  1  0
  1 34  1  0
  1 35  1  0
  3 36  1  0
  4 37  1  0
  5 38  1  0
  6 39  1  0
 12 40  1  0
 13 41  1  0
 17 42  1  0
 18 43  1  0
 22 44  1  0
 23 45  1  0
 23 46  1  0
 25 47  1  0
 26 48  1  0
 27 49  1  0
 29 50  1  0
 30 51  1  0
 31 52  1  0
 32 53  1  0
 33 54  1  0
M  CHG  1   8  -1
M  END
>  <UniqueID>  (34) 
31

>  <SMILES>  (34) 
Nc1ccccc1[N-]C(=O)c1ccc(Oc2ccc(C(=O)NCc3cccnc3)cc2)cc1

>  <Energy>  (34) 
76.5003349104172

>  <Genealogy>  (34) 
Nc1ccccc1[N-]C(=O)c1ccc(Oc2ccc(C(=O)NCc3cccnc3)cc2)cc1 (protonated)
Nc1ccccc1[N-]C(=O)c1ccc(Oc2ccc(C(=O)NCc3cccnc3)cc2)cc1 (3D coordinates assigned)
Nc1ccccc1[N-]C(=O)c1ccc(Oc2ccc(C(=O)NCc3cccnc3)cc2)cc1 (optimized conformer: 76.5003349104172 kcal/mol)

>  <smiles>  (34) 
Nc1ccccc1NC(=O)c1ccc(Oc2ccc(C(=O)NCc3cccnc3)cc2)cc1

>  <score_type>  (34) 
oracle

>  <origin>  (34) 
adgpu

>  <m_score__min__energy>  (34) 
-11.720000000000001

>  <m_primary>  (34) 
energy

$$$$
34:0
     RDKit          3D

 63 66  0  0  0  0  0  0  0  0999 V2000
   -6.3570   17.9390  -31.1800 C   0  0  0  0  0  0  0  0  0  0  0  0
   -7.4120   17.8330  -32.2040 N   0  0  0  0  0  0  0  0  0  0  0  0
   -8.7460   18.2170  -31.6820 C   0  0  0  0  0  0  0  0  0  0  0  0
   -9.1240   19.6810  -31.9820 C   0  0  0  0  0  0  0  0  0  0  0  0
   -7.9050   20.4950  -32.0960 N   0  0  0  0  0  0  0  0  0  0  0  0
   -8.1510   21.9530  -32.0230 C   0  0  0  0  0  0  0  0  0  0  0  0
   -7.0180   22.7390  -31.3980 C   0  0  0  0  0  0  0  0  0  0  0  0
   -6.4120   23.7950  -32.0970 C   0  0  0  0  0  0  0  0  0  0  0  0
   -5.3640   24.5180  -31.5200 C   0  0  0  0  0  0  0  0  0  0  0  0
   -4.8990   24.1940  -30.2400 C   0  0  0  0  0  0  0  0  0  0  0  0
   -3.8300   24.9690  -29.6780 N   0  0  0  0  0  0  0  0  0  0  0  0
   -2.5080   24.5040  -29.3830 C   0  0  0  0  0  0  0  0  0  0  0  0
   -1.5510   25.3170  -29.2880 O   0  0  0  0  0  0  0  0  0  0  0  0
   -2.2890   23.0640  -29.1620 C   0  0  0  0  0  0  0  0  0  0  0  0
   -2.0470   22.5390  -27.9480 N   0  0  0  0  0  0  0  0  0  0  0  0
   -1.9490   21.2080  -28.1690 C   0  0  0  0  0  0  0  0  0  0  0  0
   -1.6010   20.2120  -27.0800 C   0  0  0  0  0  0  0  0  0  0  0  0
   -1.1970   20.9500  -25.7860 C   0  0  0  0  0  0  0  0  0  0  0  0
   -0.4240   19.3260  -27.5370 C   0  0  0  0  0  0  0  0  0  0  0  0
   -2.8320   19.3310  -26.8030 C   0  0  0  0  0  0  0  0  0  0  0  0
   -2.0870   20.8670  -29.4710 N   0  0  0  0  0  0  0  0  0  0  0  0
   -2.3230   22.0380  -30.0880 C   0  0  0  0  0  0  0  0  0  0  0  0
   -2.4620   22.1740  -31.5100 N   0  0  0  0  0  0  0  0  0  0  0  0
   -2.6700   21.0600  -32.3960 C   0  0  0  0  0  0  0  0  0  0  0  0
   -1.6900   20.7190  -33.3340 C   0  0  0  0  0  0  0  0  0  0  0  0
   -1.8930   19.6810  -34.1870 N   0  0  0  0  0  0  0  0  0  0  0  0
   -3.0480   18.9670  -34.1540 C   0  0  0  0  0  0  0  0  0  0  0  0
   -4.0240   19.2910  -33.2670 N   0  0  0  0  0  0  0  0  0  0  0  0
   -3.8620   20.3190  -32.3950 C   0  0  0  0  0  0  0  0  0  0  0  0
   -5.5310   23.1650  -29.5210 C   0  0  0  0  0  0  0  0  0  0  0  0
   -6.5800   22.4440  -30.0980 C   0  0  0  0  0  0  0  0  0  0  0  0
   -7.0880   20.0940  -33.2600 C   0  0  0  0  0  0  0  0  0  0  0  0
   -7.0570   18.5590  -33.4400 C   0  0  0  0  0  0  0  0  0  0  0  0
   -6.8114   17.8933  -30.1793 H   0  0  0  0  0  0  0  0  0  0  0  0
   -5.6464   17.1077  -31.2983 H   0  0  0  0  0  0  0  0  0  0  0  0
   -5.8259   18.8950  -31.2983 H   0  0  0  0  0  0  0  0  0  0  0  0
   -9.5013   17.5613  -32.1398 H   0  0  0  0  0  0  0  0  0  0  0  0
   -8.7092   18.1094  -30.5879 H   0  0  0  0  0  0  0  0  0  0  0  0
   -9.6842   19.7274  -32.9275 H   0  0  0  0  0  0  0  0  0  0  0  0
   -9.7469   20.0711  -31.1635 H   0  0  0  0  0  0  0  0  0  0  0  0
   -8.3098   22.3284  -33.0447 H   0  0  0  0  0  0  0  0  0  0  0  0
   -9.0303   22.0951  -31.3776 H   0  0  0  0  0  0  0  0  0  0  0  0
   -6.7644   24.0553  -33.1060 H   0  0  0  0  0  0  0  0  0  0  0  0
   -4.9016   25.3472  -32.0755 H   0  0  0  0  0  0  0  0  0  0  0  0
   -1.5185   20.3626  -24.9133 H   0  0  0  0  0  0  0  0  0  0  0  0
   -0.1044   21.0754  -25.7613 H   0  0  0  0  0  0  0  0  0  0  0  0
   -1.6801   21.9379  -25.7613 H   0  0  0  0  0  0  0  0  0  0  0  0
    0.1013   18.9306  -26.6551 H   0  0  0  0  0  0  0  0  0  0  0  0
   -0.8071   18.4902  -28.1409 H   0  0  0  0  0  0  0  0  0  0  0  0
    0.2732   19.9253  -28.1409 H   0  0  0  0  0  0  0  0  0  0  0  0
   -2.9735   19.2297  -25.7168 H   0  0  0  0  0  0  0  0  0  0  0  0
   -3.7239   19.7971  -27.2471 H   0  0  0  0  0  0  0  0  0  0  0  0
   -2.6785   18.3364  -27.2471 H   0  0  0  0  0  0  0  0  0  0  0  0
   -2.2870   23.1090  -31.9390 H   0  0  0  0  0  0  0  0  0  0  0  0
   -0.7526   21.2926  -33.3812 H   0  0  0  0  0  0  0  0  0  0  0  0
   -3.1931   18.1250  -34.8468 H   0  0  0  0  0  0  0  0  0  0  0  0
   -4.6654   20.5713  -31.6873 H   0  0  0  0  0  0  0  0  0  0  0  0
   -5.1987   22.9261  -28.5000 H   0  0  0  0  0  0  0  0  0  0  0  0
   -7.0664   21.6385  -29.5282 H   0  0  0  0  0  0  0  0  0  0  0  0
   -7.5124   20.5500  -34.1666 H   0  0  0  0  0  0  0  0  0  0  0  0
   -6.0575   20.4384  -33.0885 H   0  0  0  0  0  0  0  0  0  0  0  0
   -7.7726   18.2826  -34.2284 H   0  0  0  0  0  0  0  0  0  0  0  0
   -6.0281   18.2765  -33.7074 H   0  0  0  0  0  0  0  0  0  0  0  0
  1  2  1  0
  2  3  1  0
  3  4  1  0
  4  5  1  0
  5  6  1  0
  6  7  1  0
  7  8  2  0
  8  9  1  0
  9 10  2  0
 10 11  1  0
 11 12  1  0
 12 13  2  0
 12 14  1  0
 14 15  1  0
 15 16  2  0
 16 17  1  0
 17 18  1  0
 17 19  1  0
 17 20  1  0
 16 21  1  0
 21 22  1  0
 22 23  1  0
 23 24  1  0
 24 25  2  0
 25 26  1  0
 26 27  2  0
 27 28  1  0
 28 29  2  0
 10 30  1  0
 30 31  2  0
  5 32  1  0
 32 33  1  0
 33  2  1  0
 31  7  1  0
 22 14  2  0
 29 24  1  0
  1 34  1  0
  1 35  1  0
  1 36  1  0
  3 37  1  0
  3 38  1  0
  4 39  1  0
  4 40  1  0
  6 41  1  0
  6 42  1  0
  8 43  1  0
  9 44  1  0
 18 45  1  0
 18 46  1  0
 18 47  1  0
 19 48  1  0
 19 49  1  0
 19 50  1  0
 20 51  1  0
 20 52  1  0
 20 53  1  0
 23 54  1  0
 25 55  1  0
 27 56  1  0
 29 57  1  0
 30 58  1  0
 31 59  1  0
 32 60  1  0
 32 61  1  0
 33 62  1  0
 33 63  1  0
M  CHG  2  11  -1  21  -1
M  END
>  <UniqueID>  (35) 
32

>  <SMILES>  (35) 
CN1CCN(Cc2ccc([N-]C(=O)c3nc(C(C)(C)C)[n-]c3Nc3cncnc3)cc2)CC1

>  <Energy>  (35) 
111.20345331432284

>  <Genealogy>  (35) 
CN1CCN(Cc2ccc([N-]C(=O)c3nc(C(C)(C)C)[n-]c3Nc3cncnc3)cc2)CC1 (protonated)
CN1CCN(Cc2ccc([N-]C(=O)c3nc(C(C)(C)C)[n-]c3Nc3cncnc3)cc2)CC1 (3D coordinates assigned)
CN1CCN(Cc2ccc([N-]C(=O)c3nc(C(C)(C)C)[n-]c3Nc3cncnc3)cc2)CC1 (nonaromatic ring conformer: 111.20345331432284 kcal/mol)

>  <smiles>  (35) 
CN1CCN(Cc2ccc(NC(=O)c3nc(C(C)(C)C)[nH]c3Nc3cncnc3)cc2)CC1

>  <score_type>  (35) 
oracle

>  <origin>  (35) 
adgpu

>  <m_score__min__energy>  (35) 
-11.710000000000001

>  <m_primary>  (35) 
energy

$$$$
35:0
     RDKit          3D

 43 45  0  0  0  0  0  0  0  0999 V2000
   -2.5750   18.2730  -33.8740 C   0  0  0  0  0  0  0  0  0  0  0  0
   -3.8720   18.6480  -34.3280 O   0  0  0  0  0  0  0  0  0  0  0  0
   -5.0640   18.4300  -33.6210 C   0  0  0  0  0  0  0  0  0  0  0  0
   -6.0910   17.6250  -34.1540 C   0  0  0  0  0  0  0  0  0  0  0  0
   -7.2480   17.3690  -33.4150 C   0  0  0  0  0  0  0  0  0  0  0  0
   -7.3940   17.9050  -32.1370 C   0  0  0  0  0  0  0  0  0  0  0  0
   -6.3900   18.7120  -31.6000 C   0  0  0  0  0  0  0  0  0  0  0  0
   -5.2340   19.0010  -32.3370 C   0  0  0  0  0  0  0  0  0  0  0  0
   -4.2520   19.8510  -31.7230 N   0  0  0  0  0  0  0  0  0  0  0  0
   -3.5510   21.2810  -32.4100 S   0  0  0  0  0  0  0  0  0  0  0  0
   -2.0520   21.1690  -32.3720 O   0  0  0  0  0  0  0  0  0  0  0  0
   -4.0050   21.4530  -33.8320 O   0  0  0  0  0  0  0  0  0  0  0  0
   -4.0880   22.6810  -31.4740 C   0  0  0  0  0  0  0  0  0  0  0  0
   -3.1460   23.4400  -30.7600 C   0  0  0  0  0  0  0  0  0  0  0  0
   -3.5440   24.5440  -29.9970 C   0  0  0  0  0  0  0  0  0  0  0  0
   -2.5400   25.2980  -29.3020 N   0  0  0  0  0  0  0  0  0  0  0  0
   -1.3650   24.7770  -28.6660 C   0  0  0  0  0  0  0  0  0  0  0  0
   -0.4590   24.2380  -29.3560 O   0  0  0  0  0  0  0  0  0  0  0  0
   -1.1900   24.9210  -27.2010 C   0  0  0  0  0  0  0  0  0  0  0  0
   -1.5990   26.0970  -26.5440 C   0  0  0  0  0  0  0  0  0  0  0  0
   -1.4320   26.2310  -25.1620 C   0  0  0  0  0  0  0  0  0  0  0  0
   -0.8570   25.1980  -24.4220 C   0  0  0  0  0  0  0  0  0  0  0  0
   -0.4450   24.0260  -25.0620 C   0  0  0  0  0  0  0  0  0  0  0  0
   -0.6090   23.8860  -26.4430 C   0  0  0  0  0  0  0  0  0  0  0  0
   -4.8980   24.9180  -29.9830 C   0  0  0  0  0  0  0  0  0  0  0  0
   -5.8410   24.1700  -30.6920 C   0  0  0  0  0  0  0  0  0  0  0  0
   -5.4470   23.0510  -31.4330 C   0  0  0  0  0  0  0  0  0  0  0  0
   -6.6840   22.1520  -32.3060 Cl  0  0  0  0  0  0  0  0  0  0  0  0
   -2.5587   18.2683  -32.7741 H   0  0  0  0  0  0  0  0  0  0  0  0
   -2.3318   17.2678  -34.2486 H   0  0  0  0  0  0  0  0  0  0  0  0
   -1.8329   18.9934  -34.2486 H   0  0  0  0  0  0  0  0  0  0  0  0
   -5.9802   17.1949  -35.1603 H   0  0  0  0  0  0  0  0  0  0  0  0
   -8.0454   16.7433  -33.8424 H   0  0  0  0  0  0  0  0  0  0  0  0
   -8.3005   17.6920  -31.5515 H   0  0  0  0  0  0  0  0  0  0  0  0
   -6.5075   19.1255  -30.5875 H   0  0  0  0  0  0  0  0  0  0  0  0
   -2.0822   23.1633  -30.8010 H   0  0  0  0  0  0  0  0  0  0  0  0
   -2.0529   26.9158  -27.1215 H   0  0  0  0  0  0  0  0  0  0  0  0
   -1.7550   27.1535  -24.6573 H   0  0  0  0  0  0  0  0  0  0  0  0
   -0.7279   25.3058  -23.3349 H   0  0  0  0  0  0  0  0  0  0  0  0
    0.0092   23.2121  -24.4778 H   0  0  0  0  0  0  0  0  0  0  0  0
   -0.2821   22.9613  -26.9411 H   0  0  0  0  0  0  0  0  0  0  0  0
   -5.2167   25.8025  -29.4120 H   0  0  0  0  0  0  0  0  0  0  0  0
   -6.9009   24.4631  -30.6674 H   0  0  0  0  0  0  0  0  0  0  0  0
  1  2  1  0
  2  3  1  0
  3  4  2  0
  4  5  1  0
  5  6  2  0
  6  7  1  0
  7  8  2  0
  8  9  1  0
  9 10  1  0
 10 11  2  0
 10 12  2  0
 10 13  1  0
 13 14  2  0
 14 15  1  0
 15 16  1  0
 16 17  1  0
 17 18  2  0
 17 19  1  0
 19 20  2  0
 20 21  1  0
 21 22  2  0
 22 23  1  0
 23 24  2  0
 15 25  2  0
 25 26  1  0
 26 27  2  0
 27 28  1  0
  8  3  1  0
 27 13  1  0
 24 19  1  0
  1 29  1  0
  1 30  1  0
  1 31  1  0
  4 32  1  0
  5 33  1  0
  6 34  1  0
  7 35  1  0
 14 36  1  0
 20 37  1  0
 21 38  1  0
 22 39  1  0
 23 40  1  0
 24 41  1  0
 25 42  1  0
 26 43  1  0
M  CHG  2   9  -1  16  -1
M  END
>  <UniqueID>  (36) 
33

>  <SMILES>  (36) 
COc1ccccc1[N-]S(=O)(=O)c1cc([N-]C(=O)c2ccccc2)ccc1Cl

>  <Energy>  (36) 
58.53951654933918

>  <Genealogy>  (36) 
COc1ccccc1[N-]S(=O)(=O)c1cc([N-]C(=O)c2ccccc2)ccc1Cl (protonated)
COc1ccccc1[N-]S(=O)(=O)c1cc([N-]C(=O)c2ccccc2)ccc1Cl (3D coordinates assigned)
COc1ccccc1[N-]S(=O)(=O)c1cc([N-]C(=O)c2ccccc2)ccc1Cl (optimized conformer: 58.53951654933918 kcal/mol)

>  <smiles>  (36) 
COc1ccccc1NS(=O)(=O)c1cc(NC(=O)c2ccccc2)ccc1Cl

>  <score_type>  (36) 
oracle

>  <origin>  (36) 
adgpu

>  <m_score__min__energy>  (36) 
-10.609999999999999

>  <m_primary>  (36) 
energy

$$$$
36:0
     RDKit          3D

 64 69  0  0  0  0  0  0  0  0999 V2000
   -0.1330   19.4390  -30.3610 C   0  0  0  0  0  0  0  0  0  0  0  0
   -1.1400   19.2870  -31.4630 C   0  0  0  0  0  0  0  0  0  0  0  0
   -1.1400   18.1560  -32.3100 C   0  0  0  0  0  0  0  0  0  0  0  0
   -2.1120   18.0120  -33.3340 C   0  0  0  0  0  0  0  0  0  0  0  0
   -2.0870   16.8620  -34.2010 N   0  0  0  0  0  0  0  0  0  0  0  0
   -1.0800   15.8100  -33.9980 C   0  0  0  0  0  0  0  0  0  0  0  0
   -0.6700   15.1480  -35.3350 C   0  0  0  0  0  0  0  0  0  0  0  0
   -1.4270   15.5960  -36.4450 O   0  0  0  0  0  0  0  0  0  0  0  0
   -2.8040   15.5350  -36.1450 C   0  0  0  0  0  0  0  0  0  0  0  0
   -3.1630   16.6620  -35.1780 C   0  0  0  0  0  0  0  0  0  0  0  0
   -3.0930   19.0160  -33.5080 C   0  0  0  0  0  0  0  0  0  0  0  0
   -3.0690   20.1110  -32.6510 C   0  0  0  0  0  0  0  0  0  0  0  0
   -3.9000   21.1620  -32.6460 N   0  0  0  0  0  0  0  0  0  0  0  0
   -3.4190   21.9210  -31.6240 C   0  0  0  0  0  0  0  0  0  0  0  0
   -4.0240   23.2150  -31.2260 C   0  0  0  0  0  0  0  0  0  0  0  0
   -5.3570   23.5450  -31.5770 C   0  0  0  0  0  0  0  0  0  0  0  0
   -6.1310   22.6830  -32.4350 N   0  0  0  0  0  0  0  0  0  0  0  0
   -7.3270   21.9660  -31.9910 C   0  0  0  0  0  0  0  0  0  0  0  0
   -7.2550   20.5160  -32.3900 C   0  0  0  0  0  0  0  0  0  0  0  0
   -6.3990   20.0930  -33.4170 C   0  0  0  0  0  0  0  0  0  0  0  0
   -6.3570   18.7460  -33.7810 C   0  0  0  0  0  0  0  0  0  0  0  0
   -7.1760   17.8220  -33.1100 C   0  0  0  0  0  0  0  0  0  0  0  0
   -7.1880   16.4620  -33.4540 O   0  0  0  0  0  0  0  0  0  0  0  0
   -6.0910   15.5920  -33.3620 C   0  0  0  0  0  0  0  0  0  0  0  0
   -6.0530   14.4660  -34.1980 C   0  0  0  0  0  0  0  0  0  0  0  0
   -4.9780   13.5730  -34.1310 C   0  0  0  0  0  0  0  0  0  0  0  0
   -3.9420   13.7910  -33.2190 C   0  0  0  0  0  0  0  0  0  0  0  0
   -3.9840   14.8980  -32.3650 C   0  0  0  0  0  0  0  0  0  0  0  0
   -5.0570   15.7930  -32.4280 C   0  0  0  0  0  0  0  0  0  0  0  0
   -8.0130   18.2590  -32.1310 N   0  0  0  0  0  0  0  0  0  0  0  0
   -8.0680   19.5650  -31.7570 C   0  0  0  0  0  0  0  0  0  0  0  0
   -5.9000   24.7600  -31.1310 C   0  0  0  0  0  0  0  0  0  0  0  0
   -5.1270   25.6250  -30.3580 C   0  0  0  0  0  0  0  0  0  0  0  0
   -3.8500   25.2980  -30.0400 N   0  0  0  0  0  0  0  0  0  0  0  0
   -3.2830   24.1340  -30.4460 C   0  0  0  0  0  0  0  0  0  0  0  0
   -2.0980   23.8800  -30.1010 O   0  0  0  0  0  0  0  0  0  0  0  0
   -2.3400   21.3840  -30.9930 N   0  0  0  0  0  0  0  0  0  0  0  0
   -2.1390   20.2410  -31.6660 C   0  0  0  0  0  0  0  0  0  0  0  0
   -0.6401   19.3625  -29.3878 H   0  0  0  0  0  0  0  0  0  0  0  0
    0.6237   18.6449  -30.4437 H   0  0  0  0  0  0  0  0  0  0  0  0
    0.3556   20.4211  -30.4437 H   0  0  0  0  0  0  0  0  0  0  0  0
   -0.3760   17.3764  -32.1738 H   0  0  0  0  0  0  0  0  0  0  0  0
   -0.1884   16.2546  -33.5317 H   0  0  0  0  0  0  0  0  0  0  0  0
   -1.5173   15.0356  -33.3507 H   0  0  0  0  0  0  0  0  0  0  0  0
    0.3902   15.3727  -35.5236 H   0  0  0  0  0  0  0  0  0  0  0  0
   -0.8569   14.0690  -35.2314 H   0  0  0  0  0  0  0  0  0  0  0  0
   -3.3867   15.6466  -37.0713 H   0  0  0  0  0  0  0  0  0  0  0  0
   -3.0364   14.5650  -35.6813 H   0  0  0  0  0  0  0  0  0  0  0  0
   -3.3141   17.5920  -35.7458 H   0  0  0  0  0  0  0  0  0  0  0  0
   -4.0847   16.3913  -34.6421 H   0  0  0  0  0  0  0  0  0  0  0  0
   -3.8532   18.9331  -34.2987 H   0  0  0  0  0  0  0  0  0  0  0  0
   -5.8110   22.5230  -33.4170 H   0  0  0  0  0  0  0  0  0  0  0  0
   -7.4047   22.0361  -30.8960 H   0  0  0  0  0  0  0  0  0  0  0  0
   -8.2092   22.4207  -32.4653 H   0  0  0  0  0  0  0  0  0  0  0  0
   -5.7604   20.8229  -33.9360 H   0  0  0  0  0  0  0  0  0  0  0  0
   -5.6879   18.4104  -34.5870 H   0  0  0  0  0  0  0  0  0  0  0  0
   -6.8721   14.2844  -34.9094 H   0  0  0  0  0  0  0  0  0  0  0  0
   -4.9483   12.6981  -34.7971 H   0  0  0  0  0  0  0  0  0  0  0  0
   -3.0937   13.0923  -33.1727 H   0  0  0  0  0  0  0  0  0  0  0  0
   -3.1716   15.0650  -31.6424 H   0  0  0  0  0  0  0  0  0  0  0  0
   -5.0930   16.6556  -31.7464 H   0  0  0  0  0  0  0  0  0  0  0  0
   -8.7529   19.8768  -30.9547 H   0  0  0  0  0  0  0  0  0  0  0  0
   -6.9343   25.0293  -31.3911 H   0  0  0  0  0  0  0  0  0  0  0  0
   -5.5541   26.5753  -30.0051 H   0  0  0  0  0  0  0  0  0  0  0  0
  1  2  1  0
  2  3  2  0
  3  4  1  0
  4  5  1  0
  5  6  1  0
  6  7  1  0
  7  8  1  0
  8  9  1  0
  9 10  1  0
  4 11  2  0
 11 12  1  0
 12 13  1  0
 13 14  1  0
 14 15  1  0
 15 16  2  0
 16 17  1  0
 17 18  1  0
 18 19  1  0
 19 20  2  0
 20 21  1  0
 21 22  2  0
 22 23  1  0
 23 24  1  0
 24 25  2  0
 25 26  1  0
 26 27  2  0
 27 28  1  0
 28 29  2  0
 22 30  1  0
 30 31  2  0
 16 32  1  0
 32 33  2  0
 33 34  1  0
 34 35  1  0
 35 36  2  0
 14 37  2  0
 37 38  1  0
 38  2  1  0
 10  5  1  0
 38 12  2  0
 35 15  1  0
 31 19  1  0
 29 24  1  0
  1 39  1  0
  1 40  1  0
  1 41  1  0
  3 42  1  0
  6 43  1  0
  6 44  1  0
  7 45  1  0
  7 46  1  0
  9 47  1  0
  9 48  1  0
 10 49  1  0
 10 50  1  0
 11 51  1  0
 17 52  1  0
 18 53  1  0
 18 54  1  0
 20 55  1  0
 21 56  1  0
 25 57  1  0
 26 58  1  0
 27 59  1  0
 28 60  1  0
 29 61  1  0
 31 62  1  0
 32 63  1  0
 33 64  1  0
M  CHG  2  13  -1  34  -1
M  END
>  <UniqueID>  (37) 
34

>  <SMILES>  (37) 
Cc1cc(N2CCOCC2)cc2[n-]c(-c3c(NCc4ccc(Oc5ccccc5)nc4)cc[n-]c3=O)nc12

>  <Energy>  (37) 
130.06194609710462

>  <Genealogy>  (37) 
Cc1cc(N2CCOCC2)cc2[n-]c(-c3c(NCc4ccc(Oc5ccccc5)nc4)cc[n-]c3=O)nc12 (protonated)
Cc1cc(N2CCOCC2)cc2[n-]c(-c3c(NCc4ccc(Oc5ccccc5)nc4)cc[n-]c3=O)nc12 (3D coordinates assigned)
Cc1cc(N2CCOCC2)cc2[n-]c(-c3c(NCc4ccc(Oc5ccccc5)nc4)cc[n-]c3=O)nc12 (nonaromatic ring conformer: 130.06194609710462 kcal/mol)

>  <smiles>  (37) 
Cc1cc(N2CCOCC2)cc2[nH]c(-c3c(NCc4ccc(Oc5ccccc5)nc4)cc[nH]c3=O)nc12

>  <score_type>  (37) 
oracle

>  <origin>  (37) 
adgpu

>  <m_score__min__energy>  (37) 
-11.390000000000001

>  <m_primary>  (37) 
energy

$$$$
37:0
     RDKit          3D

 32 34  0  0  0  0  0  0  0  0999 V2000
   -0.8630   18.4200  -27.0870 C   0  0  0  0  0  0  0  0  0  0  0  0
   -0.4940   19.7430  -26.7100 O   0  0  0  0  0  0  0  0  0  0  0  0
   -0.8960   20.9030  -27.3900 C   0  0  0  0  0  0  0  0  0  0  0  0
   -0.0170   21.9860  -27.4280 C   0  0  0  0  0  0  0  0  0  0  0  0
   -0.3440   23.1700  -28.0990 C   0  0  0  0  0  0  0  0  0  0  0  0
    0.6480   24.1530  -28.1520 O   0  0  0  0  0  0  0  0  0  0  0  0
   -1.6290   23.3030  -28.7040 C   0  0  0  0  0  0  0  0  0  0  0  0
   -2.1180   24.4900  -29.3010 C   0  0  0  0  0  0  0  0  0  0  0  0
   -1.4610   25.5630  -29.2760 O   0  0  0  0  0  0  0  0  0  0  0  0
   -3.3800   24.4980  -29.9010 C   0  0  0  0  0  0  0  0  0  0  0  0
   -3.8690   25.6740  -30.4650 O   0  0  0  0  0  0  0  0  0  0  0  0
   -4.1550   23.3260  -29.8880 C   0  0  0  0  0  0  0  0  0  0  0  0
   -5.4910   23.2550  -30.5240 C   0  0  0  0  0  0  0  0  0  0  0  0
   -5.6980   23.6880  -31.8480 C   0  0  0  0  0  0  0  0  0  0  0  0
   -6.9630   23.5890  -32.4340 C   0  0  0  0  0  0  0  0  0  0  0  0
   -8.0300   23.0460  -31.7120 C   0  0  0  0  0  0  0  0  0  0  0  0
   -9.2870   22.9490  -32.2960 O   0  0  0  0  0  0  0  0  0  0  0  0
   -7.8300   22.5950  -30.4040 C   0  0  0  0  0  0  0  0  0  0  0  0
   -6.5660   22.6920  -29.8150 C   0  0  0  0  0  0  0  0  0  0  0  0
   -3.6960   22.2460  -29.2670 O   0  0  0  0  0  0  0  0  0  0  0  0
   -2.5060   22.1890  -28.6800 C   0  0  0  0  0  0  0  0  0  0  0  0
   -2.1370   21.0060  -28.0330 C   0  0  0  0  0  0  0  0  0  0  0  0
   -1.0317   17.8150  -26.1840 H   0  0  0  0  0  0  0  0  0  0  0  0
   -1.7862   18.4529  -27.6841 H   0  0  0  0  0  0  0  0  0  0  0  0
   -0.0560   17.9703  -27.6841 H   0  0  0  0  0  0  0  0  0  0  0  0
    0.9550   21.9075  -26.9191 H   0  0  0  0  0  0  0  0  0  0  0  0
    0.5540   25.0420  -28.6180 H   0  0  0  0  0  0  0  0  0  0  0  0
   -4.8595   24.1064  -32.4241 H   0  0  0  0  0  0  0  0  0  0  0  0
   -7.1194   23.9389  -33.4651 H   0  0  0  0  0  0  0  0  0  0  0  0
   -8.6683   22.1633  -29.8376 H   0  0  0  0  0  0  0  0  0  0  0  0
   -6.4116   22.3252  -28.7895 H   0  0  0  0  0  0  0  0  0  0  0  0
   -2.8264   20.1489  -28.0285 H   0  0  0  0  0  0  0  0  0  0  0  0
  1  2  1  0
  2  3  1  0
  3  4  2  0
  4  5  1  0
  5  6  1  0
  5  7  2  0
  7  8  1  0
  8  9  2  0
  8 10  1  0
 10 11  1  0
 10 12  2  0
 12 13  1  0
 13 14  2  0
 14 15  1  0
 15 16  2  0
 16 17  1  0
 16 18  1  0
 18 19  2  0
 12 20  1  0
 20 21  1  0
 21 22  2  0
 22  3  1  0
 21  7  1  0
 19 13  1  0
  1 23  1  0
  1 24  1  0
  1 25  1  0
  4 26  1  0
  6 27  1  0
 14 28  1  0
 15 29  1  0
 18 30  1  0
 19 31  1  0
 22 32  1  0
M  CHG  2  11  -1  17  -1
M  END
>  <UniqueID>  (38) 
35

>  <SMILES>  (38) 
COc1cc(O)c2c(=O)c([O-])c(-c3ccc([O-])cc3)oc2c1

>  <Energy>  (38) 
51.733427260916976

>  <Genealogy>  (38) 
COc1cc(O)c2c(=O)c([O-])c(-c3ccc([O-])cc3)oc2c1 (protonated)
COc1cc(O)c2c(=O)c([O-])c(-c3ccc([O-])cc3)oc2c1 (3D coordinates assigned)
COc1cc(O)c2c(=O)c([O-])c(-c3ccc([O-])cc3)oc2c1 (optimized conformer: 51.733427260916976 kcal/mol)

>  <smiles>  (38) 
COc1cc(O)c2c(=O)c(O)c(-c3ccc(O)cc3)oc2c1

>  <score_type>  (38) 
oracle

>  <origin>  (38) 
adgpu

>  <m_score__min__energy>  (38) 
-9.5700000000000003

>  <m_primary>  (38) 
energy

$$$$
38:0
     RDKit          3D

 56 58  0  0  0  0  0  0  0  0999 V2000
   -5.5130   25.3860  -30.6210 C   0  0  0  0  0  0  0  0  0  0  0  0
   -6.3720   24.1560  -30.3140 C   0  0  0  0  0  0  0  0  0  0  0  0
   -6.0760   22.8380  -31.1040 C   0  0  2  0  0  0  0  0  0  0  0  0
   -5.1860   22.9700  -32.2830 N   0  0  0  0  0  0  0  0  0  0  0  0
   -4.6020   21.7460  -32.7670 C   0  0  0  0  0  0  0  0  0  0  0  0
   -3.3340   21.1780  -32.8320 C   0  0  0  0  0  0  0  0  0  0  0  0
   -2.0060   21.5300  -32.4470 N   0  0  0  0  0  0  0  0  0  0  0  0
   -1.6010   21.9260  -31.1250 C   0  0  0  0  0  0  0  0  0  0  0  0
   -0.5500   21.2250  -30.5150 C   0  0  0  0  0  0  0  0  0  0  0  0
   -0.1200   21.5580  -29.2290 C   0  0  0  0  0  0  0  0  0  0  0  0
   -0.7200   22.6160  -28.5470 C   0  0  0  0  0  0  0  0  0  0  0  0
   -1.7270   23.3740  -29.1590 C   0  0  0  0  0  0  0  0  0  0  0  0
   -2.3220   24.5090  -28.4250 C   0  0  0  0  0  0  0  0  0  0  0  0
   -1.9810   25.6760  -28.7420 O   0  0  0  0  0  0  0  0  0  0  0  0
   -3.2930   24.3120  -27.3840 N   0  0  0  0  0  0  0  0  0  0  0  0
   -3.4130   25.3230  -26.3280 C   0  0  0  0  0  0  0  0  0  0  0  0
   -4.2490   23.2050  -27.4730 C   0  0  0  0  0  0  0  0  0  0  0  0
   -2.1630   23.0410  -30.4600 C   0  0  0  0  0  0  0  0  0  0  0  0
   -3.1230   23.8300  -31.0830 O   0  0  0  0  0  0  0  0  0  0  0  0
   -3.8750   20.0530  -33.4190 C   0  0  0  0  0  0  0  0  0  0  0  0
   -3.4220   18.9440  -33.7980 O   0  0  0  0  0  0  0  0  0  0  0  0
   -5.1050   20.6650  -33.4700 C   0  0  0  0  0  0  0  0  0  0  0  0
   -6.2300   20.3550  -33.9390 O   0  0  0  0  0  0  0  0  0  0  0  0
   -7.2800   21.9330  -31.3510 C   0  0  0  0  0  0  0  0  0  0  0  0
   -8.5140   22.5300  -31.6740 C   0  0  0  0  0  0  0  0  0  0  0  0
   -9.6160   21.7480  -32.0170 C   0  0  0  0  0  0  0  0  0  0  0  0
   -9.5170   20.3560  -32.0070 C   0  0  0  0  0  0  0  0  0  0  0  0
   -8.3200   19.7330  -31.6440 C   0  0  0  0  0  0  0  0  0  0  0  0
   -8.2840   18.3290  -31.6080 O   0  0  0  0  0  0  0  0  0  0  0  0
   -7.2760   17.5360  -32.2210 C   0  0  0  0  0  0  0  0  0  0  0  0
   -7.1990   20.5270  -31.3240 C   0  0  0  0  0  0  0  0  0  0  0  0
   -5.1883   25.8510  -29.6785 H   0  0  0  0  0  0  0  0  0  0  0  0
   -4.6305   25.0810  -31.2025 H   0  0  0  0  0  0  0  0  0  0  0  0
   -6.1032   26.1095  -31.2025 H   0  0  0  0  0  0  0  0  0  0  0  0
   -6.2502   23.9306  -29.2442 H   0  0  0  0  0  0  0  0  0  0  0  0
   -7.3861   24.4434  -30.6288 H   0  0  0  0  0  0  0  0  0  0  0  0
   -5.4641   22.2902  -30.3722 H   0  0  0  0  0  0  0  0  0  0  0  0
   -5.7340   23.4000  -33.0650 H   0  0  0  0  0  0  0  0  0  0  0  0
   -4.4100   23.6330  -32.0520 H   0  0  0  0  0  0  0  0  0  0  0  0
   -1.2900   21.5460  -33.2070 H   0  0  0  0  0  0  0  0  0  0  0  0
   -0.0587   20.4031  -31.0564 H   0  0  0  0  0  0  0  0  0  0  0  0
    0.6912   20.9864  -28.7544 H   0  0  0  0  0  0  0  0  0  0  0  0
   -0.4008   22.8570  -27.5223 H   0  0  0  0  0  0  0  0  0  0  0  0
   -3.3550   24.8343  -25.3442 H   0  0  0  0  0  0  0  0  0  0  0  0
   -2.5951   26.0523  -26.4239 H   0  0  0  0  0  0  0  0  0  0  0  0
   -4.3789   25.8406  -26.4239 H   0  0  0  0  0  0  0  0  0  0  0  0
   -4.5294   22.8803  -26.4601 H   0  0  0  0  0  0  0  0  0  0  0  0
   -5.1474   23.5389  -28.0129 H   0  0  0  0  0  0  0  0  0  0  0  0
   -3.7879   22.3648  -28.0129 H   0  0  0  0  0  0  0  0  0  0  0  0
   -8.6094   23.6257  -31.6554 H   0  0  0  0  0  0  0  0  0  0  0  0
  -10.5651   22.2290  -32.2960 H   0  0  0  0  0  0  0  0  0  0  0  0
  -10.3876   19.7447  -32.2869 H   0  0  0  0  0  0  0  0  0  0  0  0
   -6.6645   17.0549  -31.4434 H   0  0  0  0  0  0  0  0  0  0  0  0
   -7.7471   16.7638  -32.8470 H   0  0  0  0  0  0  0  0  0  0  0  0
   -6.6364   18.1756  -32.8470 H   0  0  0  0  0  0  0  0  0  0  0  0
   -6.2502   20.0425  -31.0501 H   0  0  0  0  0  0  0  0  0  0  0  0
  1  2  1  0
  2  3  1  0
  3  4  1  0
  4  5  1  0
  5  6  2  0
  6  7  1  0
  7  8  1  0
  8  9  2  0
  9 10  1  0
 10 11  2  0
 11 12  1  0
 12 13  1  0
 13 14  2  0
 13 15  1  0
 15 16  1  0
 15 17  1  0
 12 18  2  0
 18 19  1  0
  6 20  1  0
 20 21  2  0
 20 22  1  0
 22 23  2  0
  3 24  1  0
 24 25  2  0
 25 26  1  0
 26 27  2  0
 27 28  1  0
 28 29  1  0
 29 30  1  0
 28 31  2  0
 22  5  1  0
 31 24  1  0
 18  8  1  0
  1 32  1  0
  1 33  1  0
  1 34  1  0
  2 35  1  0
  2 36  1  0
  3 37  1  1
  4 38  1  0
  4 39  1  0
  7 40  1  0
  9 41  1  0
 10 42  1  0
 11 43  1  0
 16 44  1  0
 16 45  1  0
 16 46  1  0
 17 47  1  0
 17 48  1  0
 17 49  1  0
 25 50  1  0
 26 51  1  0
 27 52  1  0
 30 53  1  0
 30 54  1  0
 30 55  1  0
 31 56  1  0
M  CHG  2   4   1  19  -1
M  END
>  <UniqueID>  (39) 
36

>  <SMILES>  (39) 
CC[C@H]([NH2+]c1c(Nc2cccc(C(=O)N(C)C)c2[O-])c(=O)c1=O)c1cccc(OC)c1

>  <Energy>  (39) 
65.94801868727477

>  <Genealogy>  (39) 
CCC([NH2+]c1c(Nc2cccc(C(=O)N(C)C)c2[O-])c(=O)c1=O)c1cccc(OC)c1 (protonated)
CC[C@H]([NH2+]c1c(Nc2cccc(C(=O)N(C)C)c2[O-])c(=O)c1=O)c1cccc(OC)c1 (chirality)
CC[C@H]([NH2+]c1c(Nc2cccc(C(=O)N(C)C)c2[O-])c(=O)c1=O)c1cccc(OC)c1 (3D coordinates assigned)
CC[C@H]([NH2+]c1c(Nc2cccc(C(=O)N(C)C)c2[O-])c(=O)c1=O)c1cccc(OC)c1 (optimized conformer: 65.94801868727477 kcal/mol)

>  <smiles>  (39) 
CCC(Nc1c(Nc2cccc(C(=O)N(C)C)c2O)c(=O)c1=O)c1cccc(OC)c1

>  <score_type>  (39) 
oracle

>  <origin>  (39) 
adgpu

>  <m_score__min__energy>  (39) 
-12.34

>  <m_primary>  (39) 
energy

$$$$
39:0
     RDKit          3D

 51 53  0  0  0  0  0  0  0  0999 V2000
   -3.7026   16.5449  -35.4570 H   0  0  0  0  0  0  0  0  0  0  0  0
   -4.3680   16.6830  -34.5920 C   0  0  0  0  0  0  0  0  0  0  0  0
   -5.3260   17.6460  -34.6190 N   0  0  0  0  0  0  0  0  0  0  0  0
   -6.1780   17.8560  -33.5780 C   0  0  0  0  0  0  0  0  0  0  0  0
   -7.0560   18.8130  -33.6810 N   0  0  0  0  0  0  0  0  0  0  0  0
   -8.2270   19.2800  -32.4860 S   0  0  0  0  0  0  0  0  0  0  0  0
   -9.5640   19.4570  -33.1510 O   0  0  0  0  0  0  0  0  0  0  0  0
   -8.3380   18.1920  -31.4530 O   0  0  0  0  0  0  0  0  0  0  0  0
   -7.7590   20.8060  -31.7410 C   0  0  0  0  0  0  0  0  0  0  0  0
   -8.3950   21.2510  -30.5770 C   0  0  0  0  0  0  0  0  0  0  0  0
   -9.2313   20.6748  -30.1544 H   0  0  0  0  0  0  0  0  0  0  0  0
   -7.9710   22.4250  -29.9500 C   0  0  0  0  0  0  0  0  0  0  0  0
   -8.4794   22.7717  -29.0382 H   0  0  0  0  0  0  0  0  0  0  0  0
   -6.8980   23.1670  -30.4770 C   0  0  0  0  0  0  0  0  0  0  0  0
   -6.3880   24.3340  -29.8070 N   0  0  0  0  0  0  0  0  0  0  0  0
   -6.7960   24.5940  -28.8800 H   0  0  0  0  0  0  0  0  0  0  0  0
   -5.4940   25.3030  -30.4440 C   0  0  0  0  0  0  0  0  0  0  0  0
   -5.5035   26.2404  -29.8685 H   0  0  0  0  0  0  0  0  0  0  0  0
   -5.8396   25.4920  -31.4711 H   0  0  0  0  0  0  0  0  0  0  0  0
   -4.0990   24.7620  -30.4870 C   0  0  0  0  0  0  0  0  0  0  0  0
   -3.8350   23.7760  -31.2260 O   0  0  0  0  0  0  0  0  0  0  0  0
   -3.1140   25.2890  -29.5910 N   0  0  0  0  0  0  0  0  0  0  0  0
   -2.4210   24.5480  -28.5790 C   0  0  0  0  0  0  0  0  0  0  0  0
   -2.9780   23.3400  -28.1490 C   0  0  0  0  0  0  0  0  0  0  0  0
   -3.9267   22.9921  -28.5837 H   0  0  0  0  0  0  0  0  0  0  0  0
   -2.3420   22.5720  -27.1740 C   0  0  0  0  0  0  0  0  0  0  0  0
   -2.7873   21.6199  -26.8498 H   0  0  0  0  0  0  0  0  0  0  0  0
   -1.1340   23.0100  -26.6040 C   0  0  0  0  0  0  0  0  0  0  0  0
   -0.4470   22.2650  -25.6340 O   0  0  0  0  0  0  0  0  0  0  0  0
   -0.2490   22.6860  -24.2880 C   0  0  0  0  0  0  0  0  0  0  0  0
   -0.6152   21.9074  -23.6027 H   0  0  0  0  0  0  0  0  0  0  0  0
    0.8233   22.8557  -24.1108 H   0  0  0  0  0  0  0  0  0  0  0  0
   -0.8022   23.6201  -24.1108 H   0  0  0  0  0  0  0  0  0  0  0  0
   -0.5930   24.2360  -27.0080 C   0  0  0  0  0  0  0  0  0  0  0  0
    0.3474   24.5883  -26.5590 H   0  0  0  0  0  0  0  0  0  0  0  0
   -1.2370   25.0260  -27.9830 C   0  0  0  0  0  0  0  0  0  0  0  0
   -0.7440   26.2880  -28.3530 O   0  0  0  0  0  0  0  0  0  0  0  0
   -0.4650   27.3460  -27.4440 C   0  0  0  0  0  0  0  0  0  0  0  0
   -0.5621   26.9779  -26.4120 H   0  0  0  0  0  0  0  0  0  0  0  0
    0.5599   27.7101  -27.6086 H   0  0  0  0  0  0  0  0  0  0  0  0
   -1.1770   28.1681  -27.6086 H   0  0  0  0  0  0  0  0  0  0  0  0
   -6.2970   22.7400  -31.6710 C   0  0  0  0  0  0  0  0  0  0  0  0
   -5.4864   23.3343  -32.1179 H   0  0  0  0  0  0  0  0  0  0  0  0
   -6.7220   21.5640  -32.2960 C   0  0  0  0  0  0  0  0  0  0  0  0
   -6.2394   21.2333  -33.2275 H   0  0  0  0  0  0  0  0  0  0  0  0
   -6.0740   17.0380  -32.4340 C   0  0  0  0  0  0  0  0  0  0  0  0
   -6.7633   17.1759  -31.5879 H   0  0  0  0  0  0  0  0  0  0  0  0
   -5.0870   16.0510  -32.3860 C   0  0  0  0  0  0  0  0  0  0  0  0
   -4.9880   15.4164  -31.4930 H   0  0  0  0  0  0  0  0  0  0  0  0
   -4.2280   15.8690  -33.4670 C   0  0  0  0  0  0  0  0  0  0  0  0
   -3.4488   15.0933  -33.4345 H   0  0  0  0  0  0  0  0  0  0  0  0
  1  2  1  0
  2  3  1  0
  3  4  1  0
  4  5  2  0
  5  6  1  0
  6  7  2  0
  6  8  2  0
  6  9  1  0
  9 10  2  0
 10 11  1  0
 10 12  1  0
 12 13  1  0
 12 14  2  0
 14 15  1  0
 15 16  1  0
 15 17  1  0
 17 18  1  0
 17 19  1  0
 17 20  1  0
 20 21  2  0
 20 22  1  0
 22 23  1  0
 23 24  2  0
 24 25  1  0
 24 26  1  0
 26 27  1  0
 26 28  2  0
 28 29  1  0
 29 30  1  0
 30 31  1  0
 30 32  1  0
 30 33  1  0
 28 34  1  0
 34 35  1  0
 34 36  2  0
 36 37  1  0
 37 38  1  0
 38 39  1  0
 38 40  1  0
 38 41  1  0
 14 42  1  0
 42 43  1  0
 42 44  2  0
 44 45  1  0
  4 46  1  0
 46 47  1  0
 46 48  2  0
 48 49  1  0
 48 50  1  0
 50 51  1  0
 50  2  2  0
 44  9  1  0
 36 23  1  0
M  CHG  2   3  -1  22  -1
M  END
>  <UniqueID>  (40) 
37

>  <SMILES>  (40) 
COc1ccc([N-]C(=O)CNc2ccc(S(=O)(=O)/N=c3\cccc[n-]3)cc2)c(OC)c1

>  <Energy>  (40) 
60.761651416766775

>  <Genealogy>  (40) 
COc1ccc([N-]C(=O)CNc2ccc(S(=O)(=O)N=c3cccc[n-]3)cc2)c(OC)c1 (protonated)
COc1ccc([N-]C(=O)CNc2ccc(S(=O)(=O)/N=c3\cccc[n-]3)cc2)c(OC)c1 (cis-trans isomerization)
COc1ccc([N-]C(=O)CNc2ccc(S(=O)(=O)/N=c3\cccc[n-]3)cc2)c(OC)c1 (3D coordinates assigned)
COc1ccc([N-]C(=O)CNc2ccc(S(=O)(=O)/N=c3\cccc[n-]3)cc2)c(OC)c1 (optimized conformer: 60.761651416766775 kcal/mol)

>  <smiles>  (40) 
COc1ccc(NC(=O)CNc2ccc(S(=O)(=O)N=c3cccc[nH]3)cc2)c(OC)c1

>  <score_type>  (40) 
oracle

>  <origin>  (40) 
adgpu

>  <m_score__min__energy>  (40) 
-11.4

>  <m_primary>  (40) 
energy

$$$$
40:0
     RDKit          3D

 46 49  0  0  0  0  0  0  0  0999 V2000
   -2.9920   22.3270  -31.3450 N   0  0  0  0  0  0  0  0  0  0  0  0
   -2.1020   22.8620  -30.3560 C   0  0  0  0  0  0  0  0  0  0  0  0
   -0.9520   22.1350  -30.0090 C   0  0  0  0  0  0  0  0  0  0  0  0
   -0.1130   22.5800  -28.9850 C   0  0  0  0  0  0  0  0  0  0  0  0
   -0.4210   23.7480  -28.2860 C   0  0  0  0  0  0  0  0  0  0  0  0
   -1.5560   24.4870  -28.6270 C   0  0  0  0  0  0  0  0  0  0  0  0
   -2.3830   24.0780  -29.6820 C   0  0  0  0  0  0  0  0  0  0  0  0
   -3.4880   24.9190  -30.0490 N   0  0  0  0  0  0  0  0  0  0  0  0
   -4.8660   24.6370  -29.7700 C   0  0  0  0  0  0  0  0  0  0  0  0
   -5.3580   25.0170  -28.6750 O   0  0  0  0  0  0  0  0  0  0  0  0
   -5.7130   23.8980  -30.7230 C   0  0  0  0  0  0  0  0  0  0  0  0
   -6.4840   24.5100  -31.7080 C   0  0  0  0  0  0  0  0  0  0  0  0
   -7.2420   23.2950  -32.5820 S   0  0  0  0  0  0  0  0  0  0  0  0
   -6.5770   22.0390  -31.6740 C   0  0  0  0  0  0  0  0  0  0  0  0
   -6.7280   20.5820  -31.9620 C   0  0  0  0  0  0  0  0  0  0  0  0
   -7.9310   19.9370  -31.6020 C   0  0  0  0  0  0  0  0  0  0  0  0
   -8.1670   18.6070  -31.9550 C   0  0  0  0  0  0  0  0  0  0  0  0
   -7.2140   17.8960  -32.6770 C   0  0  0  0  0  0  0  0  0  0  0  0
   -6.0110   18.5050  -33.0370 C   0  0  0  0  0  0  0  0  0  0  0  0
   -5.7470   19.8360  -32.6750 C   0  0  0  0  0  0  0  0  0  0  0  0
   -4.4250   20.3890  -33.0380 C   0  0  0  0  0  0  0  0  0  0  0  0
   -4.3350   21.6020  -33.3730 O   0  0  0  0  0  0  0  0  0  0  0  0
   -3.2260   19.6080  -32.9180 N   0  0  0  0  0  0  0  0  0  0  0  0
   -1.9890   19.8510  -33.6030 C   0  0  0  0  0  0  0  0  0  0  0  0
   -1.4790   21.1550  -33.6360 C   0  0  0  0  0  0  0  0  0  0  0  0
   -0.2910   21.4330  -34.3200 C   0  0  0  0  0  0  0  0  0  0  0  0
    0.3840   20.4100  -34.9980 C   0  0  0  0  0  0  0  0  0  0  0  0
    1.8690   20.7600  -35.8640 Cl  0  0  0  0  0  0  0  0  0  0  0  0
   -0.1340   19.1110  -34.9930 C   0  0  0  0  0  0  0  0  0  0  0  0
   -1.3200   18.8310  -34.3070 C   0  0  0  0  0  0  0  0  0  0  0  0
   -5.7720   22.5410  -30.7090 N   0  0  0  0  0  0  0  0  0  0  0  0
   -3.8620   22.8290  -31.6300 H   0  0  0  0  0  0  0  0  0  0  0  0
   -2.8520   21.3650  -31.7250 H   0  0  0  0  0  0  0  0  0  0  0  0
   -0.7099   21.2073  -30.5481 H   0  0  0  0  0  0  0  0  0  0  0  0
    0.7918   22.0091  -28.7291 H   0  0  0  0  0  0  0  0  0  0  0  0
    0.2301   24.0865  -27.4666 H   0  0  0  0  0  0  0  0  0  0  0  0
   -1.8031   25.3982  -28.0625 H   0  0  0  0  0  0  0  0  0  0  0  0
   -6.5787   25.5921  -31.8813 H   0  0  0  0  0  0  0  0  0  0  0  0
   -8.6939   20.4906  -31.0349 H   0  0  0  0  0  0  0  0  0  0  0  0
   -9.1088   18.1202  -31.6615 H   0  0  0  0  0  0  0  0  0  0  0  0
   -7.4089   16.8523  -32.9646 H   0  0  0  0  0  0  0  0  0  0  0  0
   -5.2627   17.9373  -33.6095 H   0  0  0  0  0  0  0  0  0  0  0  0
   -2.0159   21.9653  -33.1210 H   0  0  0  0  0  0  0  0  0  0  0  0
    0.1135   22.4559  -34.3254 H   0  0  0  0  0  0  0  0  0  0  0  0
    0.3925   18.3080  -35.5297 H   0  0  0  0  0  0  0  0  0  0  0  0
   -1.7317   17.8110  -34.3173 H   0  0  0  0  0  0  0  0  0  0  0  0
  1  2  1  0
  2  3  2  0
  3  4  1  0
  4  5  2  0
  5  6  1  0
  6  7  2  0
  7  8  1  0
  8  9  1  0
  9 10  2  0
  9 11  1  0
 11 12  2  0
 12 13  1  0
 13 14  1  0
 14 15  1  0
 15 16  2  0
 16 17  1  0
 17 18  2  0
 18 19  1  0
 19 20  2  0
 20 21  1  0
 21 22  2  0
 21 23  1  0
 23 24  1  0
 24 25  2  0
 25 26  1  0
 26 27  2  0
 27 28  1  0
 27 29  1  0
 29 30  2  0
 14 31  2  0
  7  2  1  0
 31 11  1  0
 20 15  1  0
 30 24  1  0
  1 32  1  0
  1 33  1  0
  3 34  1  0
  4 35  1  0
  5 36  1  0
  6 37  1  0
 12 38  1  0
 16 39  1  0
 17 40  1  0
 18 41  1  0
 19 42  1  0
 25 43  1  0
 26 44  1  0
 29 45  1  0
 30 46  1  0
M  CHG  2   8  -1  23  -1
M  END
>  <UniqueID>  (41) 
38

>  <SMILES>  (41) 
Nc1ccccc1[N-]C(=O)c1csc(-c2ccccc2C(=O)[N-]c2ccc(Cl)cc2)n1

>  <Energy>  (41) 
101.50242334838113

>  <Genealogy>  (41) 
Nc1ccccc1[N-]C(=O)c1csc(-c2ccccc2C(=O)[N-]c2ccc(Cl)cc2)n1 (protonated)
Nc1ccccc1[N-]C(=O)c1csc(-c2ccccc2C(=O)[N-]c2ccc(Cl)cc2)n1 (3D coordinates assigned)
Nc1ccccc1[N-]C(=O)c1csc(-c2ccccc2C(=O)[N-]c2ccc(Cl)cc2)n1 (optimized conformer: 101.50242334838113 kcal/mol)

>  <smiles>  (41) 
Nc1ccccc1NC(=O)c1csc(-c2ccccc2C(=O)Nc2ccc(Cl)cc2)n1

>  <score_type>  (41) 
oracle

>  <origin>  (41) 
adgpu

>  <m_score__min__energy>  (41) 
-10.99

>  <m_primary>  (41) 
energy

$$$$
41:0
     RDKit          3D

 77 81  0  0  0  0  0  0  0  0999 V2000
   -9.4640   21.9350  -31.5940 C   0  0  0  0  0  0  0  0  0  0  0  0
   -8.3030   22.7170  -31.8420 O   0  0  0  0  0  0  0  0  0  0  0  0
   -7.0280   22.1970  -32.1210 C   0  0  0  0  0  0  0  0  0  0  0  0
   -6.8590   20.9480  -32.7460 C   0  0  0  0  0  0  0  0  0  0  0  0
   -5.5800   20.4640  -33.0320 C   0  0  0  0  0  0  0  0  0  0  0  0
   -4.4420   21.2020  -32.6770 C   0  0  0  0  0  0  0  0  0  0  0  0
   -3.0780   20.7150  -32.9910 C   0  0  0  0  0  0  0  0  0  0  0  0
   -2.6750   19.4130  -32.6720 C   0  0  0  0  0  0  0  0  0  0  0  0
   -1.3990   18.9740  -33.0210 C   0  0  0  0  0  0  0  0  0  0  0  0
   -0.5040   19.8340  -33.6930 C   0  0  0  0  0  0  0  0  0  0  0  0
    0.8230   19.4840  -34.0900 C   0  0  0  0  0  0  0  0  0  0  0  0
    1.4520   18.1960  -33.8220 N   0  0  2  0  0  0  0  0  0  0  0  0
    0.7730   17.0430  -34.4450 C   0  0  0  0  0  0  0  0  0  0  0  0
    0.7190   15.9200  -33.4120 C   0  0  0  0  0  0  0  0  0  0  0  0
    1.5680   16.3890  -32.2440 C   0  0  0  0  0  0  0  0  0  0  0  0
    1.6200   17.9090  -32.3840 C   0  0  1  0  0  0  0  0  0  0  0  0
    2.9240   18.4970  -31.8160 C   0  0  0  0  0  0  0  0  0  0  0  0
    1.5800   20.4310  -34.7110 N   0  0  0  0  0  0  0  0  0  0  0  0
    1.1300   21.6900  -34.9620 C   0  0  0  0  0  0  0  0  0  0  0  0
    2.0050   22.6730  -35.5530 N   0  0  0  0  0  0  0  0  0  0  0  0
    1.4650   24.0170  -35.8160 C   0  0  0  0  0  0  0  0  0  0  0  0
    2.4830   24.9710  -36.4650 C   0  0  0  0  0  0  0  0  0  0  0  0
    3.7950   24.7370  -36.0000 O   0  0  0  0  0  0  0  0  0  0  0  0
    4.2020   23.4530  -36.4110 C   0  0  0  0  0  0  0  0  0  0  0  0
    3.4450   22.3820  -35.6270 C   0  0  0  0  0  0  0  0  0  0  0  0
   -0.1290   22.0340  -34.5920 N   0  0  0  0  0  0  0  0  0  0  0  0
   -0.9520   21.1470  -33.9800 C   0  0  0  0  0  0  0  0  0  0  0  0
   -2.2060   21.5370  -33.6340 N   0  0  0  0  0  0  0  0  0  0  0  0
   -4.6090   22.4220  -32.0030 C   0  0  0  0  0  0  0  0  0  0  0  0
   -5.8890   22.9460  -31.7590 C   0  0  0  0  0  0  0  0  0  0  0  0
   -6.0400   24.3150  -31.1500 C   0  0  0  0  0  0  0  0  0  0  0  0
   -4.7410   25.0170  -31.1950 N   0  0  0  0  0  0  0  0  0  0  0  0
   -3.9660   24.8980  -29.9500 C   0  0  0  0  0  0  0  0  0  0  0  0
   -4.7640   24.1840  -28.8440 C   0  0  0  0  0  0  0  0  0  0  0  0
   -3.8980   23.4020  -27.9390 N   0  0  0  0  0  0  0  0  0  0  0  0
   -3.0230   22.5100  -28.7190 C   0  0  0  0  0  0  0  0  0  0  0  0
   -3.0630   24.2780  -27.1020 C   0  0  0  0  0  0  0  0  0  0  0  0
   -9.6134   21.8344  -30.5088 H   0  0  0  0  0  0  0  0  0  0  0  0
  -10.3402   22.4277  -32.0406 H   0  0  0  0  0  0  0  0  0  0  0  0
   -9.3367   20.9378  -32.0406 H   0  0  0  0  0  0  0  0  0  0  0  0
   -7.7414   20.3474  -33.0118 H   0  0  0  0  0  0  0  0  0  0  0  0
   -5.4648   19.4953  -33.5402 H   0  0  0  0  0  0  0  0  0  0  0  0
   -3.3650   18.7367  -32.1462 H   0  0  0  0  0  0  0  0  0  0  0  0
   -1.0870   17.9493  -32.7708 H   0  0  0  0  0  0  0  0  0  0  0  0
    2.4080   18.2200  -34.2530 H   0  0  0  0  0  0  0  0  0  0  0  0
   -0.2471   17.3260  -34.7439 H   0  0  0  0  0  0  0  0  0  0  0  0
    1.3183   16.7144  -35.3420 H   0  0  0  0  0  0  0  0  0  0  0  0
   -0.3178   15.7484  -33.0870 H   0  0  0  0  0  0  0  0  0  0  0  0
    1.0906   14.9713  -33.8265 H   0  0  0  0  0  0  0  0  0  0  0  0
    1.1038   16.1037  -31.2885 H   0  0  0  0  0  0  0  0  0  0  0  0
    2.5708   15.9370  -32.2521 H   0  0  0  0  0  0  0  0  0  0  0  0
    0.8215   18.3871  -31.7976 H   0  0  0  0  0  0  0  0  0  0  0  0
    2.8858   18.4798  -30.7168 H   0  0  0  0  0  0  0  0  0  0  0  0
    3.7783   17.8970  -32.1626 H   0  0  0  0  0  0  0  0  0  0  0  0
    3.0399   19.5345  -32.1626 H   0  0  0  0  0  0  0  0  0  0  0  0
    0.6008   23.9194  -36.4895 H   0  0  0  0  0  0  0  0  0  0  0  0
    1.1890   24.4509  -34.8436 H   0  0  0  0  0  0  0  0  0  0  0  0
    2.4611   24.8262  -37.5552 H   0  0  0  0  0  0  0  0  0  0  0  0
    2.2047   26.0006  -36.1958 H   0  0  0  0  0  0  0  0  0  0  0  0
    3.9940   23.3324  -37.4844 H   0  0  0  0  0  0  0  0  0  0  0  0
    5.2798   23.3410  -36.2218 H   0  0  0  0  0  0  0  0  0  0  0  0
    3.5867   21.4107  -36.1235 H   0  0  0  0  0  0  0  0  0  0  0  0
    3.8429   22.3643  -34.6016 H   0  0  0  0  0  0  0  0  0  0  0  0
   -3.7230   22.9766  -31.6604 H   0  0  0  0  0  0  0  0  0  0  0  0
   -6.7874   24.8889  -31.7175 H   0  0  0  0  0  0  0  0  0  0  0  0
   -6.3699   24.2184  -30.1051 H   0  0  0  0  0  0  0  0  0  0  0  0
   -4.9320   26.0340  -31.3490 H   0  0  0  0  0  0  0  0  0  0  0  0
   -3.0500   24.3244  -30.1546 H   0  0  0  0  0  0  0  0  0  0  0  0
   -3.7278   25.9126  -29.5981 H   0  0  0  0  0  0  0  0  0  0  0  0
   -5.3016   24.9398  -28.2526 H   0  0  0  0  0  0  0  0  0  0  0  0
   -5.4585   23.4837  -29.3310 H   0  0  0  0  0  0  0  0  0  0  0  0
   -2.4206   21.8959  -28.0334 H   0  0  0  0  0  0  0  0  0  0  0  0
   -3.6386   21.8550  -29.3530 H   0  0  0  0  0  0  0  0  0  0  0  0
   -2.3563   23.1129  -29.3530 H   0  0  0  0  0  0  0  0  0  0  0  0
   -3.2620   24.0693  -26.0405 H   0  0  0  0  0  0  0  0  0  0  0  0
   -2.0013   24.0901  -27.3199 H   0  0  0  0  0  0  0  0  0  0  0  0
   -3.3015   25.3295  -27.3199 H   0  0  0  0  0  0  0  0  0  0  0  0
  1  2  1  0
  2  3  1  0
  3  4  2  0
  4  5  1  0
  5  6  2  0
  6  7  1  0
  7  8  2  0
  8  9  1  0
  9 10  2  0
 10 11  1  0
 11 12  1  0
 12 13  1  0
 13 14  1  0
 14 15  1  0
 15 16  1  0
 16 17  1  0
 11 18  2  0
 18 19  1  0
 19 20  1  0
 20 21  1  0
 21 22  1  0
 22 23  1  0
 23 24  1  0
 24 25  1  0
 19 26  2  0
 26 27  1  0
 27 28  2  0
  6 29  1  0
 29 30  2  0
 30 31  1  0
 31 32  1  0
 32 33  1  0
 33 34  1  0
 34 35  1  0
 35 36  1  0
 35 37  1  0
 30  3  1  0
 28  7  1  0
 27 10  1  0
 16 12  1  0
 25 20  1  0
  1 38  1  0
  1 39  1  0
  1 40  1  0
  4 41  1  0
  5 42  1  0
  8 43  1  0
  9 44  1  0
 12 45  1  6
 13 46  1  0
 13 47  1  0
 14 48  1  0
 14 49  1  0
 15 50  1  0
 15 51  1  0
 16 52  1  1
 17 53  1  0
 17 54  1  0
 17 55  1  0
 21 56  1  0
 21 57  1  0
 22 58  1  0
 22 59  1  0
 24 60  1  0
 24 61  1  0
 25 62  1  0
 25 63  1  0
 29 64  1  0
 31 65  1  0
 31 66  1  0
 32 67  1  0
 33 68  1  0
 33 69  1  0
 34 70  1  0
 34 71  1  0
 36 72  1  0
 36 73  1  0
 36 74  1  0
 37 75  1  0
 37 76  1  0
 37 77  1  0
M  CHG  1  12   1
M  END
>  <UniqueID>  (42) 
39

>  <SMILES>  (42) 
COc1ccc(-c2ccc3c([N@@H+]4CCC[C@H]4C)nc(N4CCOCC4)nc3n2)cc1CNCCN(C)C

>  <Energy>  (42) 
101.8110269089039

>  <Genealogy>  (42) 
COc1ccc(-c2ccc3c([NH+]4CCCC4C)nc(N4CCOCC4)nc3n2)cc1CNCCN(C)C (protonated)
COc1ccc(-c2ccc3c([N@@H+]4CCC[C@H]4C)nc(N4CCOCC4)nc3n2)cc1CNCCN(C)C (chirality)
COc1ccc(-c2ccc3c([N@@H+]4CCC[C@H]4C)nc(N4CCOCC4)nc3n2)cc1CNCCN(C)C (3D coordinates assigned)
COc1ccc(-c2ccc3c([N@@H+]4CCC[C@H]4C)nc(N4CCOCC4)nc3n2)cc1CNCCN(C)C (nonaromatic ring conformer: 101.8110269089039 kcal/mol)

>  <smiles>  (42) 
COc1ccc(-c2ccc3c(N4CCCC4C)nc(N4CCOCC4)nc3n2)cc1CNCCN(C)C

>  <score_type>  (42) 
oracle

>  <origin>  (42) 
adgpu

>  <m_score__min__energy>  (42) 
-8.4900000000000002

>  <m_primary>  (42) 
energy

$$$$
42:0
     RDKit          3D

 43 46  0  0  0  0  0  0  0  0999 V2000
    0.1250   21.5430  -32.8900 O   0  0  0  0  0  0  0  0  0  0  0  0
   -0.8430   21.5800  -32.0840 C   0  0  0  0  0  0  0  0  0  0  0  0
   -0.6730   22.2570  -30.8300 N   0  0  0  0  0  0  0  0  0  0  0  0
   -1.2670   21.8620  -29.5830 C   0  0  0  0  0  0  0  0  0  0  0  0
   -0.5620   20.9580  -28.7790 C   0  0  0  0  0  0  0  0  0  0  0  0
   -1.1360   20.4460  -27.6140 C   0  0  0  0  0  0  0  0  0  0  0  0
   -2.4190   20.8390  -27.2370 C   0  0  0  0  0  0  0  0  0  0  0  0
   -3.1170   21.7730  -28.0030 C   0  0  0  0  0  0  0  0  0  0  0  0
   -2.5480   22.3160  -29.1680 C   0  0  0  0  0  0  0  0  0  0  0  0
   -3.2820   23.3860  -29.8820 C   0  0  0  0  0  0  0  0  0  0  0  0
   -3.0230   24.7010  -29.7490 N   0  0  0  0  0  0  0  0  0  0  0  0
   -3.8620   25.2960  -30.5790 N   0  0  0  0  0  0  0  0  0  0  0  0
   -4.5960   24.3870  -31.2010 N   0  0  0  0  0  0  0  0  0  0  0  0
   -4.2510   23.1790  -30.7920 N   0  0  0  0  0  0  0  0  0  0  0  0
   -2.1230   20.9410  -32.4580 C   0  0  0  0  0  0  0  0  0  0  0  0
   -2.3020   19.5610  -32.2680 C   0  0  0  0  0  0  0  0  0  0  0  0
   -3.4750   18.9360  -32.6980 C   0  0  0  0  0  0  0  0  0  0  0  0
   -4.4900   19.6860  -33.3080 C   0  0  0  0  0  0  0  0  0  0  0  0
   -5.9350   18.8990  -33.9310 S   0  0  0  0  0  0  0  0  0  0  0  0
   -5.7290   18.4510  -35.3510 O   0  0  0  0  0  0  0  0  0  0  0  0
   -6.2470   17.7030  -33.0760 O   0  0  0  0  0  0  0  0  0  0  0  0
   -7.2680   20.0070  -33.8720 N   0  0  0  0  0  0  0  0  0  0  0  0
   -7.6740   20.7420  -32.7090 C   0  0  0  0  0  0  0  0  0  0  0  0
   -6.9630   21.9000  -32.3650 C   0  0  0  0  0  0  0  0  0  0  0  0
   -7.3420   22.6600  -31.2550 C   0  0  0  0  0  0  0  0  0  0  0  0
   -8.4320   22.2650  -30.4750 C   0  0  0  0  0  0  0  0  0  0  0  0
   -9.1380   21.1050  -30.8010 C   0  0  0  0  0  0  0  0  0  0  0  0
   -8.7670   20.3450  -31.9140 C   0  0  0  0  0  0  0  0  0  0  0  0
   -4.3360   21.0700  -33.4520 C   0  0  0  0  0  0  0  0  0  0  0  0
   -3.1620   21.6950  -33.0300 C   0  0  0  0  0  0  0  0  0  0  0  0
    0.4532   20.6485  -29.0680 H   0  0  0  0  0  0  0  0  0  0  0  0
   -0.5753   19.7318  -26.9931 H   0  0  0  0  0  0  0  0  0  0  0  0
   -2.8816   20.4124  -26.3348 H   0  0  0  0  0  0  0  0  0  0  0  0
   -4.1239   22.0880  -27.6918 H   0  0  0  0  0  0  0  0  0  0  0  0
   -1.5146   18.9694  -31.7781 H   0  0  0  0  0  0  0  0  0  0  0  0
   -3.6025   17.8525  -32.5575 H   0  0  0  0  0  0  0  0  0  0  0  0
   -6.1010   22.2126  -32.9727 H   0  0  0  0  0  0  0  0  0  0  0  0
   -6.7816   23.5702  -30.9951 H   0  0  0  0  0  0  0  0  0  0  0  0
   -8.7336   22.8670  -29.6052 H   0  0  0  0  0  0  0  0  0  0  0  0
   -9.9888   20.7883  -30.1799 H   0  0  0  0  0  0  0  0  0  0  0  0
   -9.3297   19.4350  -32.1696 H   0  0  0  0  0  0  0  0  0  0  0  0
   -5.1439   21.6673  -33.8997 H   0  0  0  0  0  0  0  0  0  0  0  0
   -3.0492   22.7831  -33.1456 H   0  0  0  0  0  0  0  0  0  0  0  0
  1  2  2  0
  2  3  1  0
  3  4  1  0
  4  5  2  0
  5  6  1  0
  6  7  2  0
  7  8  1  0
  8  9  2  0
  9 10  1  0
 10 11  1  0
 11 12  2  0
 12 13  1  0
 13 14  1  0
  2 15  1  0
 15 16  2  0
 16 17  1  0
 17 18  2  0
 18 19  1  0
 19 20  2  0
 19 21  2  0
 19 22  1  0
 22 23  1  0
 23 24  2  0
 24 25  1  0
 25 26  2  0
 26 27  1  0
 27 28  2  0
 18 29  1  0
 29 30  2  0
  9  4  1  0
 14 10  2  0
 30 15  1  0
 28 23  1  0
  5 31  1  0
  6 32  1  0
  7 33  1  0
  8 34  1  0
 16 35  1  0
 17 36  1  0
 24 37  1  0
 25 38  1  0
 26 39  1  0
 27 40  1  0
 28 41  1  0
 29 42  1  0
 30 43  1  0
M  CHG  3   3  -1  13  -1  22  -1
M  END
>  <UniqueID>  (43) 
40

>  <SMILES>  (43) 
O=C([N-]c1ccccc1-c1nn[n-]n1)c1ccc(S(=O)(=O)[N-]c2ccccc2)cc1

>  <Energy>  (43) 
98.74361576947548

>  <Genealogy>  (43) 
O=C([N-]c1ccccc1-c1nn[n-]n1)c1ccc(S(=O)(=O)[N-]c2ccccc2)cc1 (protonated)
O=C([N-]c1ccccc1-c1nn[n-]n1)c1ccc(S(=O)(=O)[N-]c2ccccc2)cc1 (3D coordinates assigned)
O=C([N-]c1ccccc1-c1nn[n-]n1)c1ccc(S(=O)(=O)[N-]c2ccccc2)cc1 (optimized conformer: 98.74361576947548 kcal/mol)

>  <smiles>  (43) 
O=C(Nc1ccccc1-c1nn[nH]n1)c1ccc(S(=O)(=O)Nc2ccccc2)cc1

>  <score_type>  (43) 
oracle

>  <origin>  (43) 
adgpu

>  <m_score__min__energy>  (43) 
-13.529999999999999

>  <m_primary>  (43) 
energy

$$$$
43:0
     RDKit          3D

 50 53  0  0  0  0  0  0  0  0999 V2000
    2.8590   27.0910  -26.5940 C   0  0  0  0  0  0  0  0  0  0  0  0
    1.9520   25.9120  -26.4960 C   0  0  0  0  0  0  0  0  0  0  0  0
    1.5730   25.3620  -25.3230 N   0  0  0  0  0  0  0  0  0  0  0  0
    0.7570   24.3590  -25.7000 C   0  0  0  0  0  0  0  0  0  0  0  0
    0.1170   23.4220  -24.7260 C   0  0  0  0  0  0  0  0  0  0  0  0
    0.6550   24.3520  -27.0840 C   0  0  0  0  0  0  0  0  0  0  0  0
   -0.1220   23.4470  -27.9610 C   0  0  0  0  0  0  0  0  0  0  0  0
    0.0840   22.0620  -27.8690 C   0  0  0  0  0  0  0  0  0  0  0  0
   -0.6230   21.1840  -28.6940 C   0  0  0  0  0  0  0  0  0  0  0  0
   -1.5470   21.6770  -29.6320 C   0  0  0  0  0  0  0  0  0  0  0  0
   -2.2480   20.7990  -30.5310 N   0  0  0  0  0  0  0  0  0  0  0  0
   -2.5480   21.1210  -31.8960 C   0  0  0  0  0  0  0  0  0  0  0  0
   -1.7390   21.8100  -32.5740 O   0  0  0  0  0  0  0  0  0  0  0  0
   -3.7630   20.5870  -32.5420 C   0  0  0  0  0  0  0  0  0  0  0  0
   -3.8090   19.4420  -33.3120 C   0  0  0  0  0  0  0  0  0  0  0  0
   -5.1500   19.2870  -33.6120 C   0  0  0  0  0  0  0  0  0  0  0  0
   -5.7360   18.2150  -34.4760 C   0  0  0  0  0  0  0  0  0  0  0  0
   -6.1380   18.7530  -35.6850 F   0  0  0  0  0  0  0  0  0  0  0  0
   -4.7940   17.2310  -34.7110 F   0  0  0  0  0  0  0  0  0  0  0  0
   -6.8280   17.6580  -33.8380 F   0  0  0  0  0  0  0  0  0  0  0  0
   -5.8620   20.3000  -33.0800 N   0  0  0  0  0  0  0  0  0  0  0  0
   -5.0180   21.0870  -32.4310 N   0  0  0  0  0  0  0  0  0  0  0  0
   -5.4280   22.3150  -31.8060 C   0  0  0  0  0  0  0  0  0  0  0  0
   -6.7920   22.6330  -31.7180 C   0  0  0  0  0  0  0  0  0  0  0  0
   -7.1990   23.8190  -31.1020 C   0  0  0  0  0  0  0  0  0  0  0  0
   -6.2500   24.7000  -30.5770 C   0  0  0  0  0  0  0  0  0  0  0  0
   -4.8830   24.4060  -30.6800 C   0  0  0  0  0  0  0  0  0  0  0  0
   -3.9090   25.3040  -30.1410 N   0  0  0  0  0  0  0  0  0  0  0  0
   -4.4770   23.2220  -31.3110 C   0  0  0  0  0  0  0  0  0  0  0  0
   -1.7220   23.0620  -29.7500 C   0  0  0  0  0  0  0  0  0  0  0  0
   -1.0180   23.9410  -28.9230 C   0  0  0  0  0  0  0  0  0  0  0  0
    1.4140   25.3200  -27.5370 O   0  0  0  0  0  0  0  0  0  0  0  0
    3.1237   27.4350  -25.5833 H   0  0  0  0  0  0  0  0  0  0  0  0
    3.7732   26.8063  -27.1355 H   0  0  0  0  0  0  0  0  0  0  0  0
    2.3494   27.9016  -27.1355 H   0  0  0  0  0  0  0  0  0  0  0  0
    0.3411   23.7500  -23.7002 H   0  0  0  0  0  0  0  0  0  0  0  0
   -0.9721   23.4199  -24.8806 H   0  0  0  0  0  0  0  0  0  0  0  0
    0.5112   22.4068  -24.8806 H   0  0  0  0  0  0  0  0  0  0  0  0
    0.8075   21.6648  -27.1419 H   0  0  0  0  0  0  0  0  0  0  0  0
   -0.4557   20.1001  -28.6092 H   0  0  0  0  0  0  0  0  0  0  0  0
   -2.5660   19.8710  -30.1700 H   0  0  0  0  0  0  0  0  0  0  0  0
   -2.9701   18.7994  -33.6173 H   0  0  0  0  0  0  0  0  0  0  0  0
   -7.5431   21.9462  -32.1354 H   0  0  0  0  0  0  0  0  0  0  0  0
   -8.2699   24.0600  -31.0301 H   0  0  0  0  0  0  0  0  0  0  0  0
   -6.5762   25.6264  -30.0817 H   0  0  0  0  0  0  0  0  0  0  0  0
   -3.9580   25.6080  -29.1420 H   0  0  0  0  0  0  0  0  0  0  0  0
   -3.1250   25.6600  -30.7310 H   0  0  0  0  0  0  0  0  0  0  0  0
   -3.4048   23.0015  -31.4193 H   0  0  0  0  0  0  0  0  0  0  0  0
   -2.4201   23.4611  -30.5006 H   0  0  0  0  0  0  0  0  0  0  0  0
   -1.1664   25.0261  -29.0260 H   0  0  0  0  0  0  0  0  0  0  0  0
  1  2  1  0
  2  3  2  0
  3  4  1  0
  4  5  1  0
  4  6  2  0
  6  7  1  0
  7  8  2  0
  8  9  1  0
  9 10  2  0
 10 11  1  0
 11 12  1  0
 12 13  2  0
 12 14  1  0
 14 15  2  0
 15 16  1  0
 16 17  1  0
 17 18  1  0
 17 19  1  0
 17 20  1  0
 16 21  2  0
 21 22  1  0
 22 23  1  0
 23 24  2  0
 24 25  1  0
 25 26  2  0
 26 27  1  0
 27 28  1  0
 27 29  2  0
 10 30  1  0
 30 31  2  0
  6 32  1  0
 32  2  1  0
 31  7  1  0
 22 14  1  0
 29 23  1  0
  1 33  1  0
  1 34  1  0
  1 35  1  0
  5 36  1  0
  5 37  1  0
  5 38  1  0
  8 39  1  0
  9 40  1  0
 11 41  1  0
 15 42  1  0
 24 43  1  0
 25 44  1  0
 26 45  1  0
 28 46  1  0
 28 47  1  0
 29 48  1  0
 30 49  1  0
 31 50  1  0
M  END
>  <UniqueID>  (44) 
41

>  <SMILES>  (44) 
Cc1nc(C)c(-c2ccc(NC(=O)c3cc(C(F)(F)F)nn3-c3cccc(N)c3)cc2)o1

>  <Energy>  (44) 
122.19040798580441

>  <Genealogy>  (44) 
Cc1nc(C)c(-c2ccc(NC(=O)c3cc(C(F)(F)F)nn3-c3cccc(N)c3)cc2)o1 (3D coordinates assigned)
Cc1nc(C)c(-c2ccc(NC(=O)c3cc(C(F)(F)F)nn3-c3cccc(N)c3)cc2)o1 (optimized conformer: 122.19040798580441 kcal/mol)

>  <smiles>  (44) 
Cc1nc(C)c(-c2ccc(NC(=O)c3cc(C(F)(F)F)nn3-c3cccc(N)c3)cc2)o1

>  <score_type>  (44) 
oracle

>  <origin>  (44) 
adgpu

>  <m_score__min__energy>  (44) 
-8.6500000000000004

>  <m_primary>  (44) 
energy

$$$$
44:0
     RDKit          3D

 72 75  0  0  0  0  0  0  0  0999 V2000
   -1.3665   26.0314  -28.4056 H   0  0  0  0  0  0  0  0  0  0  0  0
   -1.6660   25.0960  -28.9010 C   0  0  0  0  0  0  0  0  0  0  0  0
   -2.9320   24.9460  -29.3530 N   0  0  0  0  0  0  0  0  0  0  0  0
   -3.3570   23.8000  -29.9430 C   0  0  0  0  0  0  0  0  0  0  0  0
   -4.6950   23.7130  -30.3450 C   0  0  0  0  0  0  0  0  0  0  0  0
   -5.3526   24.5870  -30.2281 H   0  0  0  0  0  0  0  0  0  0  0  0
   -5.2110   22.5310  -30.8940 C   0  0  0  0  0  0  0  0  0  0  0  0
   -6.6420   22.4630  -31.2990 C   0  0  0  0  0  0  0  0  0  0  0  0
   -7.2630   21.2670  -31.5060 N   0  0  0  0  0  0  0  0  0  0  0  0
   -8.5560   21.4110  -31.8630 C   0  0  0  0  0  0  0  0  0  0  0  0
   -9.4460   20.2670  -32.2120 C   0  0  0  0  0  0  0  0  0  0  0  0
   -9.8140   19.7940  -31.2896 H   0  0  0  0  0  0  0  0  0  0  0  0
  -10.2992   20.6329  -32.8020 H   0  0  0  0  0  0  0  0  0  0  0  0
   -8.8815   19.5300  -32.8020 H   0  0  0  0  0  0  0  0  0  0  0  0
   -8.9840   23.0290  -31.9740 S   0  0  0  0  0  0  0  0  0  0  0  0
   -7.4620   23.5770  -31.5180 C   0  0  0  0  0  0  0  0  0  0  0  0
   -7.1616   24.6297  -31.4101 H   0  0  0  0  0  0  0  0  0  0  0  0
   -4.3520   21.4270  -31.0250 C   0  0  0  0  0  0  0  0  0  0  0  0
   -4.7393   20.4860  -31.4427 H   0  0  0  0  0  0  0  0  0  0  0  0
   -3.0140   21.5060  -30.6330 C   0  0  0  0  0  0  0  0  0  0  0  0
   -2.3721   20.6177  -30.7268 H   0  0  0  0  0  0  0  0  0  0  0  0
   -2.4670   22.7040  -30.1180 C   0  0  0  0  0  0  0  0  0  0  0  0
   -1.1000   22.8770  -29.7060 C   0  0  0  0  0  0  0  0  0  0  0  0
   -0.1210   22.0310  -29.9110 N   0  0  0  0  0  0  0  0  0  0  0  0
   -0.0820   20.8140  -30.6610 C   0  0  0  0  0  0  0  0  0  0  0  0
   -0.6970   20.7840  -31.9200 C   0  0  0  0  0  0  0  0  0  0  0  0
   -1.1952   21.6869  -32.3029 H   0  0  0  0  0  0  0  0  0  0  0  0
   -0.6850   19.6210  -32.6950 C   0  0  0  0  0  0  0  0  0  0  0  0
   -1.2790   19.6620  -33.9650 O   0  0  0  0  0  0  0  0  0  0  0  0
   -2.6820   19.7650  -34.1960 C   0  0  0  0  0  0  0  0  0  0  0  0
   -3.0705   20.6566  -33.6821 H   0  0  0  0  0  0  0  0  0  0  0  0
   -2.8628   19.8468  -35.2779 H   0  0  0  0  0  0  0  0  0  0  0  0
   -3.3980   18.5210  -33.6620 C   0  0  0  0  0  0  0  0  0  0  0  0
   -3.6664   17.8726  -34.5091 H   0  0  0  0  0  0  0  0  0  0  0  0
   -2.7172   18.0030  -32.9705 H   0  0  0  0  0  0  0  0  0  0  0  0
   -4.6290   18.8760  -32.9200 N   0  0  0  0  0  0  0  0  0  0  0  0
   -5.3250   17.6490  -32.4940 C   0  0  0  0  0  0  0  0  0  0  0  0
   -5.3503   17.6045  -31.3952 H   0  0  0  0  0  0  0  0  0  0  0  0
   -6.3534   17.6564  -32.8844 H   0  0  0  0  0  0  0  0  0  0  0  0
   -4.7909   16.7702  -32.8844 H   0  0  0  0  0  0  0  0  0  0  0  0
   -5.5380   19.6880  -33.7470 C   0  0  0  0  0  0  0  0  0  0  0  0
   -6.1985   20.2781  -33.0947 H   0  0  0  0  0  0  0  0  0  0  0  0
   -4.9488   20.3660  -34.3820 H   0  0  0  0  0  0  0  0  0  0  0  0
   -6.1455   19.0264  -34.3820 H   0  0  0  0  0  0  0  0  0  0  0  0
   -0.0770   18.4620  -32.1820 C   0  0  0  0  0  0  0  0  0  0  0  0
   -0.0610   17.5408  -32.7829 H   0  0  0  0  0  0  0  0  0  0  0  0
    0.5070   18.4740  -30.9130 C   0  0  0  0  0  0  0  0  0  0  0  0
    0.9758   17.5589  -30.5221 H   0  0  0  0  0  0  0  0  0  0  0  0
    0.5030   19.6430  -30.1280 C   0  0  0  0  0  0  0  0  0  0  0  0
    1.0810   19.6560  -28.8040 N   0  0  0  0  0  0  0  0  0  0  0  0
    1.4790   20.5440  -28.4290 H   0  0  0  0  0  0  0  0  0  0  0  0
    1.1090   18.5020  -27.9030 C   0  0  0  0  0  0  0  0  0  0  0  0
    1.5278   17.6365  -28.4374 H   0  0  0  0  0  0  0  0  0  0  0  0
    1.7317   18.7491  -27.0305 H   0  0  0  0  0  0  0  0  0  0  0  0
   -0.3050   18.1590  -27.4190 C   0  0  0  0  0  0  0  0  0  0  0  0
   -0.8759   17.7310  -28.2561 H   0  0  0  0  0  0  0  0  0  0  0  0
   -0.2229   17.4369  -26.5932 H   0  0  0  0  0  0  0  0  0  0  0  0
   -1.0390   19.4090  -26.8990 C   0  0  0  0  0  0  0  0  0  0  0  0
   -0.8303   19.5201  -25.8247 H   0  0  0  0  0  0  0  0  0  0  0  0
   -0.6747   20.2748  -27.4714 H   0  0  0  0  0  0  0  0  0  0  0  0
   -2.5070   19.3230  -27.0930 N   0  0  0  0  0  0  0  0  0  0  0  0
   -2.7230   18.6170  -27.8370 H   0  0  0  0  0  0  0  0  0  0  0  0
   -3.1510   18.8660  -25.8460 C   0  0  0  0  0  0  0  0  0  0  0  0
   -2.5964   19.2595  -24.9814 H   0  0  0  0  0  0  0  0  0  0  0  0
   -4.1880   19.2314  -25.8136 H   0  0  0  0  0  0  0  0  0  0  0  0
   -3.1485   17.7665  -25.8136 H   0  0  0  0  0  0  0  0  0  0  0  0
   -3.0800   20.6220  -27.4950 C   0  0  0  0  0  0  0  0  0  0  0  0
   -3.3364   21.2033  -26.5970 H   0  0  0  0  0  0  0  0  0  0  0  0
   -2.3436   21.1780  -28.0938 H   0  0  0  0  0  0  0  0  0  0  0  0
   -3.9871   20.4531  -28.0938 H   0  0  0  0  0  0  0  0  0  0  0  0
   -0.7430   24.0690  -29.0620 C   0  0  0  0  0  0  0  0  0  0  0  0
    0.2806   24.1938  -28.6789 H   0  0  0  0  0  0  0  0  0  0  0  0
  1  2  1  0
  2  3  1  0
  3  4  1  0
  4  5  2  0
  5  6  1  0
  5  7  1  0
  7  8  1  0
  8  9  1  0
  9 10  2  0
 10 11  1  0
 11 12  1  0
 11 13  1  0
 11 14  1  0
 10 15  1  0
 15 16  1  0
 16 17  1  0
  7 18  2  0
 18 19  1  0
 18 20  1  0
 20 21  1  0
 20 22  2  0
 22 23  1  0
 23 24  2  0
 24 25  1  0
 25 26  2  0
 26 27  1  0
 26 28  1  0
 28 29  1  0
 29 30  1  0
 30 31  1  0
 30 32  1  0
 30 33  1  0
 33 34  1  0
 33 35  1  0
 33 36  1  0
 36 37  1  0
 37 38  1  0
 37 39  1  0
 37 40  1  0
 36 41  1  0
 41 42  1  0
 41 43  1  0
 41 44  1  0
 28 45  2  0
 45 46  1  0
 45 47  1  0
 47 48  1  0
 47 49  2  0
 49 50  1  0
 50 51  1  0
 50 52  1  0
 52 53  1  0
 52 54  1  0
 52 55  1  0
 55 56  1  0
 55 57  1  0
 55 58  1  0
 58 59  1  0
 58 60  1  0
 58 61  1  0
 61 62  1  0
 61 63  1  0
 63 64  1  0
 63 65  1  0
 63 66  1  0
 61 67  1  0
 67 68  1  0
 67 69  1  0
 67 70  1  0
 23 71  1  0
 71 72  1  0
 71  2  2  0
 22  4  1  0
 49 25  1  0
 16  8  2  0
M  CHG  2   3  -1  61   1
M  END
>  <UniqueID>  (45) 
42

>  <SMILES>  (45) 
Cc1nc(-c2ccc3/c(=N\c4cc(OCCN(C)C)ccc4NCCC[NH+](C)C)cc[n-]c3c2)cs1

>  <Energy>  (45) 
127.16828668120802

>  <Genealogy>  (45) 
Cc1nc(-c2ccc3c(=Nc4cc(OCCN(C)C)ccc4NCCC[NH+](C)C)cc[n-]c3c2)cs1 (protonated)
Cc1nc(-c2ccc3/c(=N\c4cc(OCCN(C)C)ccc4NCCC[NH+](C)C)cc[n-]c3c2)cs1 (cis-trans isomerization)
Cc1nc(-c2ccc3/c(=N\c4cc(OCCN(C)C)ccc4NCCC[NH+](C)C)cc[n-]c3c2)cs1 (3D coordinates assigned)
Cc1nc(-c2ccc3/c(=N\c4cc(OCCN(C)C)ccc4NCCC[NH+](C)C)cc[n-]c3c2)cs1 (optimized conformer: 127.16828668120802 kcal/mol)

>  <smiles>  (45) 
Cc1nc(-c2ccc3c(=Nc4cc(OCCN(C)C)ccc4NCCCN(C)C)cc[nH]c3c2)cs1

>  <score_type>  (45) 
oracle

>  <origin>  (45) 
adgpu

>  <m_score__min__energy>  (45) 
-9.0999999999999996

>  <m_primary>  (45) 
energy

$$$$
45:0
     RDKit          3D

 44 47  0  0  0  0  0  0  0  0999 V2000
   -4.5300   23.2769  -27.9728 H   0  0  0  0  0  0  0  0  0  0  0  0
   -3.5840   22.7230  -28.0640 C   0  0  0  0  0  0  0  0  0  0  0  0
   -3.4670   21.4790  -27.5310 N   0  0  0  0  0  0  0  0  0  0  0  0
   -2.3050   20.7780  -27.6140 C   0  0  0  0  0  0  0  0  0  0  0  0
   -2.2210   19.3970  -27.0500 C   0  0  0  0  0  0  0  0  0  0  0  0
   -2.2242   19.4489  -25.9512 H   0  0  0  0  0  0  0  0  0  0  0  0
   -3.0850   18.8082  -27.3918 H   0  0  0  0  0  0  0  0  0  0  0  0
   -1.2920   18.9172  -27.3918 H   0  0  0  0  0  0  0  0  0  0  0  0
   -1.2030   21.3610  -28.2460 C   0  0  0  0  0  0  0  0  0  0  0  0
   -0.2488   20.8176  -28.3109 H   0  0  0  0  0  0  0  0  0  0  0  0
   -1.3210   22.6040  -28.7790 N   0  0  0  0  0  0  0  0  0  0  0  0
   -2.4910   23.2980  -28.7320 C   0  0  0  0  0  0  0  0  0  0  0  0
   -2.5980   24.6430  -29.3510 C   0  0  0  0  0  0  0  0  0  0  0  0
   -1.8320   25.5650  -28.9600 O   0  0  0  0  0  0  0  0  0  0  0  0
   -3.4890   24.9230  -30.4410 N   0  0  0  0  0  0  0  0  0  0  0  0
   -4.8380   24.4650  -30.6000 C   0  0  0  0  0  0  0  0  0  0  0  0
   -5.8690   25.1990  -30.0070 C   0  0  0  0  0  0  0  0  0  0  0  0
   -5.6339   26.1061  -29.4310 H   0  0  0  0  0  0  0  0  0  0  0  0
   -7.1940   24.7870  -30.1420 C   0  0  0  0  0  0  0  0  0  0  0  0
   -8.0010   25.3670  -29.6704 H   0  0  0  0  0  0  0  0  0  0  0  0
   -7.4970   23.6380  -30.8760 C   0  0  0  0  0  0  0  0  0  0  0  0
   -8.5458   23.3259  -30.9884 H   0  0  0  0  0  0  0  0  0  0  0  0
   -6.4810   22.8780  -31.4710 C   0  0  0  0  0  0  0  0  0  0  0  0
   -6.8830   21.7160  -32.2230 N   0  0  0  0  0  0  0  0  0  0  0  0
   -6.1730   20.7890  -32.8000 C   0  0  0  0  0  0  0  0  0  0  0  0
   -4.8130   20.7980  -32.7660 N   0  0  0  0  0  0  0  0  0  0  0  0
   -4.0780   19.8450  -33.4030 C   0  0  0  0  0  0  0  0  0  0  0  0
   -2.6070   19.8450  -33.2750 C   0  0  0  0  0  0  0  0  0  0  0  0
   -1.8410   18.8590  -33.9160 C   0  0  0  0  0  0  0  0  0  0  0  0
   -2.3408   18.0617  -34.4856 H   0  0  0  0  0  0  0  0  0  0  0  0
   -0.4840   18.8850  -33.8360 N   0  0  0  0  0  0  0  0  0  0  0  0
    0.1720   19.8410  -33.1270 C   0  0  0  0  0  0  0  0  0  0  0  0
    1.2710   19.8328  -33.0797 H   0  0  0  0  0  0  0  0  0  0  0  0
   -0.5470   20.8330  -32.4590 C   0  0  0  0  0  0  0  0  0  0  0  0
   -0.0211   21.6030  -31.8755 H   0  0  0  0  0  0  0  0  0  0  0  0
   -1.9410   20.8380  -32.5390 C   0  0  0  0  0  0  0  0  0  0  0  0
   -2.5180   21.6207  -32.0249 H   0  0  0  0  0  0  0  0  0  0  0  0
   -4.7380   18.8410  -34.1250 C   0  0  0  0  0  0  0  0  0  0  0  0
   -4.1684   18.0675  -34.6610 H   0  0  0  0  0  0  0  0  0  0  0  0
   -6.1300   18.8440  -34.1490 C   0  0  0  0  0  0  0  0  0  0  0  0
   -6.6725   18.0636  -34.7028 H   0  0  0  0  0  0  0  0  0  0  0  0
   -6.8170   19.8100  -33.4890 N   0  0  0  0  0  0  0  0  0  0  0  0
   -5.1380   23.2730  -31.2860 C   0  0  0  0  0  0  0  0  0  0  0  0
   -4.3234   22.6471  -31.6793 H   0  0  0  0  0  0  0  0  0  0  0  0
  1  2  1  0
  2  3  2  0
  3  4  1  0
  4  5  1  0
  5  6  1  0
  5  7  1  0
  5  8  1  0
  4  9  2  0
  9 10  1  0
  9 11  1  0
 11 12  2  0
 12 13  1  0
 13 14  2  0
 13 15  1  0
 15 16  1  0
 16 17  2  0
 17 18  1  0
 17 19  1  0
 19 20  1  0
 19 21  2  0
 21 22  1  0
 21 23  1  0
 23 24  1  0
 24 25  2  0
 25 26  1  0
 26 27  2  0
 27 28  1  0
 28 29  2  0
 29 30  1  0
 29 31  1  0
 31 32  2  0
 32 33  1  0
 32 34  1  0
 34 35  1  0
 34 36  2  0
 36 37  1  0
 27 38  1  0
 38 39  1  0
 38 40  2  0
 40 41  1  0
 40 42  1  0
 23 43  2  0
 43 44  1  0
 12  2  1  0
 43 16  1  0
 42 25  1  0
 36 28  1  0
M  CHG  2  15  -1  42  -1
M  END
>  <UniqueID>  (46) 
43

>  <SMILES>  (46) 
Cc1cnc(C(=O)[N-]c2cccc(/N=c3\nc(-c4cccnc4)cc[n-]3)c2)cn1

>  <Energy>  (46) 
63.968855122736954

>  <Genealogy>  (46) 
Cc1cnc(C(=O)[N-]c2cccc(N=c3nc(-c4cccnc4)cc[n-]3)c2)cn1 (protonated)
Cc1cnc(C(=O)[N-]c2cccc(/N=c3\nc(-c4cccnc4)cc[n-]3)c2)cn1 (cis-trans isomerization)
Cc1cnc(C(=O)[N-]c2cccc(/N=c3\nc(-c4cccnc4)cc[n-]3)c2)cn1 (3D coordinates assigned)
Cc1cnc(C(=O)[N-]c2cccc(/N=c3\nc(-c4cccnc4)cc[n-]3)c2)cn1 (optimized conformer: 63.968855122736954 kcal/mol)

>  <smiles>  (46) 
Cc1cnc(C(=O)Nc2cccc(N=c3nc(-c4cccnc4)cc[nH]3)c2)cn1

>  <score_type>  (46) 
oracle

>  <origin>  (46) 
adgpu

>  <m_score__min__energy>  (46) 
-11.359999999999999

>  <m_primary>  (46) 
energy

$$$$
46:0
     RDKit          3D

 51 55  0  0  0  0  0  0  0  0999 V2000
   -5.2920   26.4710  -31.2310 H   0  0  0  0  0  0  0  0  0  0  0  0
   -4.7270   25.6690  -30.8710 N   0  0  0  0  0  0  0  0  0  0  0  0
   -5.0700   24.4400  -31.0930 C   0  0  0  0  0  0  0  0  0  0  0  0
   -6.1970   24.1890  -31.8120 N   0  0  0  0  0  0  0  0  0  0  0  0
   -6.6210   22.9290  -32.0850 C   0  0  0  0  0  0  0  0  0  0  0  0
   -7.5401   22.7755  -32.6696 H   0  0  0  0  0  0  0  0  0  0  0  0
   -5.8940   21.8230  -31.6260 C   0  0  0  0  0  0  0  0  0  0  0  0
   -6.3480   20.4400  -31.9200 C   0  0  0  0  0  0  0  0  0  0  0  0
   -7.6730   20.0460  -31.6460 C   0  0  0  0  0  0  0  0  0  0  0  0
   -8.3788   20.7685  -31.2103 H   0  0  0  0  0  0  0  0  0  0  0  0
   -8.0960   18.7440  -31.9240 C   0  0  0  0  0  0  0  0  0  0  0  0
   -9.1321   18.4456  -31.7060 H   0  0  0  0  0  0  0  0  0  0  0  0
   -7.2070   17.8200  -32.4780 C   0  0  0  0  0  0  0  0  0  0  0  0
   -7.5428   16.7954  -32.6958 H   0  0  0  0  0  0  0  0  0  0  0  0
   -5.8920   18.1980  -32.7550 C   0  0  0  0  0  0  0  0  0  0  0  0
   -5.1924   17.4704  -33.1921 H   0  0  0  0  0  0  0  0  0  0  0  0
   -5.4620   19.5000  -32.4780 C   0  0  0  0  0  0  0  0  0  0  0  0
   -4.4242   19.7910  -32.6979 H   0  0  0  0  0  0  0  0  0  0  0  0
   -4.7270   22.0550  -30.8810 C   0  0  0  0  0  0  0  0  0  0  0  0
   -4.1417   21.2004  -30.5107 H   0  0  0  0  0  0  0  0  0  0  0  0
   -4.2950   23.3640  -30.6010 C   0  0  0  0  0  0  0  0  0  0  0  0
   -3.0530   23.5640  -29.8030 C   0  0  0  0  0  0  0  0  0  0  0  0
   -2.6620   24.7880  -29.3500 N   0  0  0  0  0  0  0  0  0  0  0  0
   -1.5240   24.5150  -28.6960 C   0  0  0  0  0  0  0  0  0  0  0  0
   -0.6880   25.4080  -28.0320 C   0  0  0  0  0  0  0  0  0  0  0  0
   -0.9233   26.4818  -27.9926 H   0  0  0  0  0  0  0  0  0  0  0  0
    0.4740   24.8930  -27.4090 C   0  0  0  0  0  0  0  0  0  0  0  0
    1.3840   25.7760  -26.7220 N   0  0  0  0  0  0  0  0  0  0  0  0
    0.9670   27.1500  -26.4020 C   0  0  0  0  0  0  0  0  0  0  0  0
    1.0415   27.7666  -27.3099 H   0  0  0  0  0  0  0  0  0  0  0  0
   -0.0689   27.1190  -26.0333 H   0  0  0  0  0  0  0  0  0  0  0  0
    1.8510   27.7670  -25.3050 C   0  0  0  0  0  0  0  0  0  0  0  0
    2.7852   28.1260  -25.7615 H   0  0  0  0  0  0  0  0  0  0  0  0
    1.2919   28.5935  -24.8421 H   0  0  0  0  0  0  0  0  0  0  0  0
    2.1970   26.7430  -24.1970 C   0  0  0  0  0  0  0  0  0  0  0  0
    2.9469   27.2267  -23.5539 H   0  0  0  0  0  0  0  0  0  0  0  0
    1.0200   26.4170  -23.3870 N   0  0  0  0  0  0  0  0  0  0  0  0
    0.9930   25.3840  -23.2210 H   0  0  0  0  0  0  0  0  0  0  0  0
    1.0890   26.8860  -22.4550 H   0  0  0  0  0  0  0  0  0  0  0  0
    2.8380   25.4450  -24.7620 C   0  0  0  0  0  0  0  0  0  0  0  0
    3.9074   25.4437  -24.5042 H   0  0  0  0  0  0  0  0  0  0  0  0
    2.3005   24.5964  -24.3138 H   0  0  0  0  0  0  0  0  0  0  0  0
    2.7050   25.3110  -26.2850 C   0  0  0  0  0  0  0  0  0  0  0  0
    3.4829   25.9172  -26.7722 H   0  0  0  0  0  0  0  0  0  0  0  0
    2.8230   24.2534  -26.5635 H   0  0  0  0  0  0  0  0  0  0  0  0
    0.7520   23.5020  -27.4930 C   0  0  0  0  0  0  0  0  0  0  0  0
    1.6603   23.0995  -27.0208 H   0  0  0  0  0  0  0  0  0  0  0  0
   -0.1210   22.6340  -28.1730 C   0  0  0  0  0  0  0  0  0  0  0  0
    0.0845   21.5552  -28.2361 H   0  0  0  0  0  0  0  0  0  0  0  0
   -1.2530   23.1860  -28.7630 C   0  0  0  0  0  0  0  0  0  0  0  0
   -2.2070   22.5550  -29.4600 N   0  0  0  0  0  0  0  0  0  0  0  0
  1  2  1  0
  2  3  2  0
  3  4  1  0
  4  5  1  0
  5  6  1  0
  5  7  2  0
  7  8  1  0
  8  9  2  0
  9 10  1  0
  9 11  1  0
 11 12  1  0
 11 13  2  0
 13 14  1  0
 13 15  1  0
 15 16  1  0
 15 17  2  0
 17 18  1  0
  7 19  1  0
 19 20  1  0
 19 21  2  0
 21 22  1  0
 22 23  2  0
 23 24  1  0
 24 25  2  0
 25 26  1  0
 25 27  1  0
 27 28  1  0
 28 29  1  0
 29 30  1  0
 29 31  1  0
 29 32  1  0
 32 33  1  0
 32 34  1  0
 32 35  1  0
 35 36  1  0
 35 37  1  0
 37 38  1  0
 37 39  1  0
 35 40  1  0
 40 41  1  0
 40 42  1  0
 40 43  1  0
 43 44  1  0
 43 45  1  0
 27 46  2  0
 46 47  1  0
 46 48  1  0
 48 49  1  0
 48 50  2  0
 50 51  1  0
 21  3  1  0
 51 22  1  0
 17  8  1  0
 50 24  1  0
 43 28  1  0
M  CHG  2   4  -1  51  -1
M  END
>  <UniqueID>  (47) 
44

>  <SMILES>  (47) 
[H]/N=c1\[n-]cc(-c2ccccc2)cc1-c1nc2cc(N3CCC(N)CC3)ccc2[n-]1

>  <Energy>  (47) 
106.58947100913532

>  <Genealogy>  (47) 
N=c1[n-]cc(-c2ccccc2)cc1-c1nc2cc(N3CCC(N)CC3)ccc2[n-]1 (protonated)
[H]/N=c1\[n-]cc(-c2ccccc2)cc1-c1nc2cc(N3CCC(N)CC3)ccc2[n-]1 (cis-trans isomerization)
[H]/N=c1\[n-]cc(-c2ccccc2)cc1-c1nc2cc(N3CCC(N)CC3)ccc2[n-]1 (3D coordinates assigned)
[H]/N=c1\[n-]cc(-c2ccccc2)cc1-c1nc2cc(N3CCC(N)CC3)ccc2[n-]1 (nonaromatic ring conformer: 106.58947100913532 kcal/mol)

>  <smiles>  (47) 
N=c1[nH]cc(-c2ccccc2)cc1-c1nc2cc(N3CCC(N)CC3)ccc2[nH]1

>  <score_type>  (47) 
oracle

>  <origin>  (47) 
adgpu

>  <m_score__min__energy>  (47) 
-11.65

>  <m_primary>  (47) 
energy

$$$$
47:0
     RDKit          3D

 51 53  0  0  0  0  0  0  0  0999 V2000
   -6.1170   17.3150  -31.2170 C   0  0  0  0  0  0  0  0  0  0  0  0
   -6.7640   17.8470  -32.4290 N   0  0  0  0  0  0  0  0  0  0  0  0
   -7.0830   16.7550  -33.3620 C   0  0  0  0  0  0  0  0  0  0  0  0
   -7.9830   18.5600  -32.0870 C   0  0  0  0  0  0  0  0  0  0  0  0
   -9.0550   17.9120  -31.9110 O   0  0  0  0  0  0  0  0  0  0  0  0
   -8.0400   20.0490  -32.0510 C   0  0  0  0  0  0  0  0  0  0  0  0
   -9.2370   20.6810  -31.6730 C   0  0  0  0  0  0  0  0  0  0  0  0
   -9.3270   22.0760  -31.6280 C   0  0  0  0  0  0  0  0  0  0  0  0
   -8.2180   22.8610  -31.9480 C   0  0  0  0  0  0  0  0  0  0  0  0
   -7.0050   22.2520  -32.3040 C   0  0  0  0  0  0  0  0  0  0  0  0
   -5.8620   23.0470  -32.6650 N   0  0  0  0  0  0  0  0  0  0  0  0
   -4.5130   22.6940  -32.2940 C   0  0  0  0  0  0  0  0  0  0  0  0
   -3.8750   21.7900  -33.1400 C   0  0  0  0  0  0  0  0  0  0  0  0
   -2.6180   21.2000  -33.0470 C   0  0  0  0  0  0  0  0  0  0  0  0
   -2.1950   20.3650  -34.1320 N   0  0  0  0  0  0  0  0  0  0  0  0
   -2.4470   18.9460  -34.1770 C   0  0  0  0  0  0  0  0  0  0  0  0
   -3.7650   18.4360  -34.1960 C   0  0  0  0  0  0  0  0  0  0  0  0
   -3.9890   17.0610  -34.2770 C   0  0  0  0  0  0  0  0  0  0  0  0
   -2.9090   16.1790  -34.3430 C   0  0  0  0  0  0  0  0  0  0  0  0
   -1.6000   16.6710  -34.3280 C   0  0  0  0  0  0  0  0  0  0  0  0
   -1.3710   18.0470  -34.2510 C   0  0  0  0  0  0  0  0  0  0  0  0
   -1.7930   21.3020  -31.9910 N   0  0  0  0  0  0  0  0  0  0  0  0
   -1.8170   22.0580  -30.8760 C   0  0  0  0  0  0  0  0  0  0  0  0
   -2.7260   23.0710  -30.5440 C   0  0  0  0  0  0  0  0  0  0  0  0
   -2.3450   23.8880  -29.3610 C   0  0  0  0  0  0  0  0  0  0  0  0
   -2.6050   25.2890  -29.3340 N   0  0  0  0  0  0  0  0  0  0  0  0
   -1.7340   23.3610  -28.3900 O   0  0  0  0  0  0  0  0  0  0  0  0
   -3.9610   23.3430  -31.1760 C   0  0  0  0  0  0  0  0  0  0  0  0
   -4.6850   24.2370  -30.6560 O   0  0  0  0  0  0  0  0  0  0  0  0
   -6.9220   20.8500  -32.3650 C   0  0  0  0  0  0  0  0  0  0  0  0
   -6.6150   17.7245  -30.3257 H   0  0  0  0  0  0  0  0  0  0  0  0
   -6.1969   16.2179  -31.2102 H   0  0  0  0  0  0  0  0  0  0  0  0
   -5.0560   17.6054  -31.2102 H   0  0  0  0  0  0  0  0  0  0  0  0
   -6.0770   18.4750  -32.9050 H   0  0  0  0  0  0  0  0  0  0  0  0
   -7.3469   15.8516  -32.7926 H   0  0  0  0  0  0  0  0  0  0  0  0
   -7.9324   17.0503  -33.9955 H   0  0  0  0  0  0  0  0  0  0  0  0
   -6.2082   16.5466  -33.9955 H   0  0  0  0  0  0  0  0  0  0  0  0
  -10.1137   20.0712  -31.4094 H   0  0  0  0  0  0  0  0  0  0  0  0
  -10.2740   22.5557  -31.3397 H   0  0  0  0  0  0  0  0  0  0  0  0
   -8.2950   23.9580  -31.9211 H   0  0  0  0  0  0  0  0  0  0  0  0
   -6.0290   23.9610  -33.1470 H   0  0  0  0  0  0  0  0  0  0  0  0
   -4.4589   21.4948  -34.0243 H   0  0  0  0  0  0  0  0  0  0  0  0
   -1.7300   20.8210  -34.9560 H   0  0  0  0  0  0  0  0  0  0  0  0
   -4.6194   19.1271  -34.1466 H   0  0  0  0  0  0  0  0  0  0  0  0
   -5.0177   16.6717  -34.2889 H   0  0  0  0  0  0  0  0  0  0  0  0
   -3.0878   15.0955  -34.4069 H   0  0  0  0  0  0  0  0  0  0  0  0
   -0.7502   15.9742  -34.3769 H   0  0  0  0  0  0  0  0  0  0  0  0
   -0.3395   18.4292  -34.2483 H   0  0  0  0  0  0  0  0  0  0  0  0
   -1.0276   21.8554  -30.1372 H   0  0  0  0  0  0  0  0  0  0  0  0
   -3.5100   25.6750  -29.6890 H   0  0  0  0  0  0  0  0  0  0  0  0
   -5.9760   20.3728  -32.6605 H   0  0  0  0  0  0  0  0  0  0  0  0
  1  2  1  0
  2  3  1  0
  2  4  1  0
  4  5  2  0
  4  6  1  0
  6  7  2  0
  7  8  1  0
  8  9  2  0
  9 10  1  0
 10 11  1  0
 11 12  1  0
 12 13  2  0
 13 14  1  0
 14 15  1  0
 15 16  1  0
 16 17  2  0
 17 18  1  0
 18 19  2  0
 19 20  1  0
 20 21  2  0
 14 22  2  0
 22 23  1  0
 23 24  2  0
 24 25  1  0
 25 26  1  0
 25 27  2  0
 24 28  1  0
 28 29  2  0
 10 30  2  0
 30  6  1  0
 28 12  1  0
 21 16  1  0
  1 31  1  0
  1 32  1  0
  1 33  1  0
  2 34  1  0
  3 35  1  0
  3 36  1  0
  3 37  1  0
  7 38  1  0
  8 39  1  0
  9 40  1  0
 11 41  1  0
 13 42  1  0
 15 43  1  0
 17 44  1  0
 18 45  1  0
 19 46  1  0
 20 47  1  0
 21 48  1  0
 23 49  1  0
 26 50  1  0
 30 51  1  0
M  CHG  2   2   1  26  -1
M  END
>  <UniqueID>  (48) 
45

>  <SMILES>  (48) 
C[NH+](C)C(=O)c1cccc(Nc2cc(Nc3ccccc3)ncc(C([NH-])=O)c2=O)c1

>  <Energy>  (48) 
101.83732688327682

>  <Genealogy>  (48) 
C[NH+](C)C(=O)c1cccc(Nc2cc(Nc3ccccc3)ncc(C([NH-])=O)c2=O)c1 (protonated)
C[NH+](C)C(=O)c1cccc(Nc2cc(Nc3ccccc3)ncc(C([NH-])=O)c2=O)c1 (3D coordinates assigned)
C[NH+](C)C(=O)c1cccc(Nc2cc(Nc3ccccc3)ncc(C([NH-])=O)c2=O)c1 (optimized conformer: 101.83732688327682 kcal/mol)

>  <smiles>  (48) 
CN(C)C(=O)c1cccc(Nc2cc(Nc3ccccc3)ncc(C(N)=O)c2=O)c1

>  <score_type>  (48) 
oracle

>  <origin>  (48) 
adgpu

>  <m_score__min__energy>  (48) 
-11.01

>  <m_primary>  (48) 
energy

$$$$
48:0
     RDKit          3D

 43 46  0  0  0  0  0  0  0  0999 V2000
   -5.5260   16.3450  -32.7530 C   0  0  0  0  0  0  0  0  0  0  0  0
   -6.6460   16.9810  -33.3550 O   0  0  0  0  0  0  0  0  0  0  0  0
   -7.1680   18.1940  -32.8950 C   0  0  0  0  0  0  0  0  0  0  0  0
   -8.3610   18.3830  -32.2060 C   0  0  0  0  0  0  0  0  0  0  0  0
   -8.4820   19.6930  -31.9470 N   0  0  0  0  0  0  0  0  0  0  0  0
   -9.4870   20.3030  -31.3230 N   0  0  0  0  0  0  0  0  0  0  0  0
   -9.4370   21.6550  -31.1660 C   0  0  0  0  0  0  0  0  0  0  0  0
   -8.3650   22.3560  -31.6390 N   0  0  0  0  0  0  0  0  0  0  0  0
   -7.3310   21.7290  -32.2680 C   0  0  0  0  0  0  0  0  0  0  0  0
   -6.2400   22.4750  -32.7190 O   0  0  0  0  0  0  0  0  0  0  0  0
   -5.3530   23.1510  -31.8680 C   0  0  0  0  0  0  0  0  0  0  0  0
   -4.0880   22.6320  -31.5340 C   0  0  0  0  0  0  0  0  0  0  0  0
   -3.2330   23.3490  -30.6920 C   0  0  0  0  0  0  0  0  0  0  0  0
   -3.6170   24.5950  -30.1830 C   0  0  0  0  0  0  0  0  0  0  0  0
   -2.7180   25.2920  -29.3090 N   0  0  0  0  0  0  0  0  0  0  0  0
   -1.3630   24.9250  -29.0300 C   0  0  0  0  0  0  0  0  0  0  0  0
   -0.8990   23.8770  -29.5480 O   0  0  0  0  0  0  0  0  0  0  0  0
   -0.5220   25.7910  -28.2560 N   0  0  0  0  0  0  0  0  0  0  0  0
   -0.7710   26.2670  -26.9270 C   0  0  0  0  0  0  0  0  0  0  0  0
   -0.5300   27.6010  -26.5730 C   0  0  0  0  0  0  0  0  0  0  0  0
   -0.8600   27.8950  -25.2580 C   0  0  0  0  0  0  0  0  0  0  0  0
   -1.4670   26.4980  -24.5490 S   0  0  0  0  0  0  0  0  0  0  0  0
   -1.3140   25.5030  -25.8940 C   0  0  0  0  0  0  0  0  0  0  0  0
   -4.8940   25.0970  -30.4900 C   0  0  0  0  0  0  0  0  0  0  0  0
   -5.7510   24.3800  -31.3300 C   0  0  0  0  0  0  0  0  0  0  0  0
   -7.4140   20.3440  -32.4350 C   0  0  0  0  0  0  0  0  0  0  0  0
   -6.5640   19.4370  -33.0590 C   0  0  0  0  0  0  0  0  0  0  0  0
   -5.2570   19.7010  -33.7400 C   0  0  0  0  0  0  0  0  0  0  0  0
   -5.6190   16.3978  -31.6582 H   0  0  0  0  0  0  0  0  0  0  0  0
   -5.4897   15.2915  -33.0675 H   0  0  0  0  0  0  0  0  0  0  0  0
   -4.6027   16.8536  -33.0675 H   0  0  0  0  0  0  0  0  0  0  0  0
   -9.0777   17.5977  -31.9238 H   0  0  0  0  0  0  0  0  0  0  0  0
  -10.2590   22.1814  -30.6589 H   0  0  0  0  0  0  0  0  0  0  0  0
   -3.7711   21.6588  -31.9370 H   0  0  0  0  0  0  0  0  0  0  0  0
   -2.2507   22.9307  -30.4274 H   0  0  0  0  0  0  0  0  0  0  0  0
   -0.1183   28.3445  -27.2713 H   0  0  0  0  0  0  0  0  0  0  0  0
   -0.7445   28.8719  -24.7657 H   0  0  0  0  0  0  0  0  0  0  0  0
   -1.5920   24.4402  -25.9499 H   0  0  0  0  0  0  0  0  0  0  0  0
   -5.2203   26.0586  -30.0671 H   0  0  0  0  0  0  0  0  0  0  0  0
   -6.7453   24.7848  -31.5698 H   0  0  0  0  0  0  0  0  0  0  0  0
   -4.4746   19.8590  -32.9832 H   0  0  0  0  0  0  0  0  0  0  0  0
   -4.9903   18.8386  -34.3686 H   0  0  0  0  0  0  0  0  0  0  0  0
   -5.3459   20.5993  -34.3686 H   0  0  0  0  0  0  0  0  0  0  0  0
  1  2  1  0
  2  3  1  0
  3  4  2  0
  4  5  1  0
  5  6  1  0
  6  7  2  0
  7  8  1  0
  8  9  2  0
  9 10  1  0
 10 11  1  0
 11 12  2  0
 12 13  1  0
 13 14  2  0
 14 15  1  0
 15 16  1  0
 16 17  2  0
 16 18  1  0
 18 19  1  0
 19 20  1  0
 20 21  2  0
 21 22  1  0
 22 23  1  0
 14 24  1  0
 24 25  2  0
  9 26  1  0
 26 27  2  0
 27 28  1  0
 27  3  1  0
 26  5  1  0
 25 11  1  0
 23 19  2  0
  1 29  1  0
  1 30  1  0
  1 31  1  0
  4 32  1  0
  7 33  1  0
 12 34  1  0
 13 35  1  0
 20 36  1  0
 21 37  1  0
 23 38  1  0
 24 39  1  0
 25 40  1  0
 28 41  1  0
 28 42  1  0
 28 43  1  0
M  CHG  2  15  -1  18  -1
M  END
>  <UniqueID>  (49) 
46

>  <SMILES>  (49) 
COc1cn2ncnc(Oc3ccc([N-]C(=O)[N-]c4ccsc4)cc3)c2c1C

>  <Energy>  (49) 
120.14621357104646

>  <Genealogy>  (49) 
COc1cn2ncnc(Oc3ccc([N-]C(=O)[N-]c4ccsc4)cc3)c2c1C (protonated)
COc1cn2ncnc(Oc3ccc([N-]C(=O)[N-]c4ccsc4)cc3)c2c1C (3D coordinates assigned)
COc1cn2ncnc(Oc3ccc([N-]C(=O)[N-]c4ccsc4)cc3)c2c1C (optimized conformer: 120.14621357104646 kcal/mol)

>  <smiles>  (49) 
COc1cn2ncnc(Oc3ccc(NC(=O)Nc4ccsc4)cc3)c2c1C

>  <score_type>  (49) 
oracle

>  <origin>  (49) 
adgpu

>  <m_score__min__energy>  (49) 
-11.1

>  <m_primary>  (49) 
energy

$$$$
