0:0
     RDKit          3D

 61 63  0  0  1  0  0  0  0  0999 V2000
   -2.7700   19.4200  -34.1100 C   0  0  0  0  0  0  0  0  0  0  0  0
   -3.2070   18.4820  -33.0100 C   0  0  0  0  0  0  0  0  0  0  0  0
   -3.8740   17.2650  -33.5760 C   0  0  0  0  0  0  0  0  0  0  0  0
   -3.1560   16.2450  -34.0840 N   0  0  0  0  0  0  0  0  0  0  0  0
   -3.7660   15.1460  -34.5930 C   0  0  0  0  0  0  0  0  0  0  0  0
   -3.1110   14.1640  -35.0810 N   0  0  0  0  0  0  0  0  0  0  0  0
   -5.1230   15.0510  -34.5990 N   0  0  0  0  0  0  0  0  0  0  0  0
   -5.8930   16.0330  -34.1080 C   0  0  0  0  0  0  0  0  0  0  0  0
   -7.2020   15.9600  -34.1110 N   0  0  0  0  0  0  0  0  0  0  0  0
   -5.2490   17.1620  -33.5860 C   0  0  0  0  0  0  0  0  0  0  0  0
   -6.1120   18.2190  -33.0630 C   0  0  0  0  0  0  0  0  0  0  0  0
   -6.1840   19.3740  -33.8520 C   0  0  0  0  0  0  0  0  0  0  0  0
   -6.9800   20.4140  -33.4200 C   0  0  0  0  0  0  0  0  0  0  0  0
   -7.7060   20.3370  -32.2230 C   0  0  0  0  0  0  0  0  0  0  0  0
   -8.7190   21.6350  -31.6640 S   0  0  0  0  0  0  0  0  0  0  0  0
   -9.8690   21.8350  -32.6210 O   0  0  0  0  0  0  0  0  0  0  0  0
   -9.3220   21.2820  -30.3240 O   0  0  0  0  0  0  0  0  0  0  0  0
   -7.8220   23.0880  -31.5910 N   0  0  0  0  0  0  0  0  0  0  0  0
   -6.6180   23.3100  -30.9200 C   0  0  0  0  0  0  0  0  0  0  0  0
   -5.6170   22.4100  -30.6870 C   0  0  0  0  0  0  0  0  0  0  0  0
   -4.4560   22.7010  -29.9950 C   0  0  0  0  0  0  0  0  0  0  0  0
   -4.2880   23.9790  -29.5050 C   0  0  0  0  0  0  0  0  0  0  0  0
   -3.0600   24.2800  -28.7770 C   0  0  0  0  0  0  0  0  0  0  0  0
   -1.9670   23.9270  -29.2940 O   0  0  0  0  0  0  0  0  0  0  0  0
   -3.0130   24.9380  -27.5350 N   0  0  0  0  0  0  0  0  0  0  0  0
   -1.7890   25.2350  -26.8140 C   0  0  2  0  0  0  0  0  0  0  0  0
   -2.0120   26.1740  -25.6750 C   0  0  0  0  0  0  0  0  0  0  0  0
   -0.9550   25.9610  -24.6350 C   0  0  0  0  0  0  0  0  0  0  0  0
   -0.8370   25.7990  -27.8150 C   0  0  0  0  0  0  0  0  0  0  0  0
    0.3880   25.6310  -27.6050 O   0  0  0  0  0  0  0  0  0  0  0  0
   -1.2510   26.4880  -28.9440 O   0  0  0  0  0  0  0  0  0  0  0  0
   -5.2680   24.9270  -29.7120 C   0  0  0  0  0  0  0  0  0  0  0  0
   -6.4120   24.6000  -30.4060 C   0  0  0  0  0  0  0  0  0  0  0  0
   -7.6170   19.1710  -31.4540 C   0  0  0  0  0  0  0  0  0  0  0  0
   -6.8120   18.1040  -31.8800 C   0  0  0  0  0  0  0  0  0  0  0  0
   -2.3449   20.3324  -33.6665 H   0  0  0  0  0  0  0  0  0  0  0  0
   -2.0093   18.9261  -34.7324 H   0  0  0  0  0  0  0  0  0  0  0  0
   -3.6375   19.6847  -34.7324 H   0  0  0  0  0  0  0  0  0  0  0  0
   -2.3252   18.1721  -32.4300 H   0  0  0  0  0  0  0  0  0  0  0  0
   -3.9264   19.0084  -32.3655 H   0  0  0  0  0  0  0  0  0  0  0  0
   -2.1060   16.3140  -34.0810 H   0  0  0  0  0  0  0  0  0  0  0  0
   -2.0890   14.0770  -35.1500 H   0  0  0  0  0  0  0  0  0  0  0  0
   -5.5870   14.2030  -34.9920 H   0  0  0  0  0  0  0  0  0  0  0  0
   -7.7290   16.7560  -33.7140 H   0  0  0  0  0  0  0  0  0  0  0  0
   -5.6195   19.4497  -34.7931 H   0  0  0  0  0  0  0  0  0  0  0  0
   -7.0470   21.3270  -34.0299 H   0  0  0  0  0  0  0  0  0  0  0  0
   -8.2270   23.9150  -32.1160 H   0  0  0  0  0  0  0  0  0  0  0  0
   -5.7428   21.3883  -31.0748 H   0  0  0  0  0  0  0  0  0  0  0  0
   -3.6852   21.9319  -29.8391 H   0  0  0  0  0  0  0  0  0  0  0  0
   -3.9090   25.2340  -27.0960 H   0  0  0  0  0  0  0  0  0  0  0  0
   -1.3851   24.3215  -26.3532 H   0  0  0  0  0  0  0  0  0  0  0  0
   -1.9632   27.2106  -26.0399 H   0  0  0  0  0  0  0  0  0  0  0  0
   -3.0020   25.9856  -25.2342 H   0  0  0  0  0  0  0  0  0  0  0  0
   -1.4021   26.0511  -23.6340 H   0  0  0  0  0  0  0  0  0  0  0  0
   -0.5208   24.9573  -24.7537 H   0  0  0  0  0  0  0  0  0  0  0  0
   -0.1660   26.7182  -24.7537 H   0  0  0  0  0  0  0  0  0  0  0  0
   -1.6060   26.0500  -29.7760 H   0  0  0  0  0  0  0  0  0  0  0  0
   -5.1357   25.9469  -29.3219 H   0  0  0  0  0  0  0  0  0  0  0  0
   -7.1833   25.3687  -30.5613 H   0  0  0  0  0  0  0  0  0  0  0  0
   -8.1801   19.0910  -30.5125 H   0  0  0  0  0  0  0  0  0  0  0  0
   -6.7398   17.1864  -31.2777 H   0  0  0  0  0  0  0  0  0  0  0  0
  1  2  1  0
  2  3  1  0
  3  4  1  0
  4  5  1  0
  5  6  2  3
  5  7  1  0
  7  8  1  0
  8  9  2  3
  8 10  1  0
 10 11  1  0
 11 12  2  0
 12 13  1  0
 13 14  2  0
 14 15  1  0
 15 16  2  0
 15 17  2  0
 15 18  1  0
 18 19  1  0
 19 20  2  0
 20 21  1  0
 21 22  2  0
 22 23  1  0
 23 24  2  0
 23 25  1  0
 25 26  1  0
 26 27  1  0
 27 28  1  0
 26 29  1  0
 29 30  2  0
 29 31  1  0
 22 32  1  0
 32 33  2  0
 14 34  1  0
 34 35  2  0
 10  3  2  0
 35 11  1  0
 33 19  1  0
  1 36  1  0
  1 37  1  0
  1 38  1  0
  2 39  1  0
  2 40  1  0
  4 41  1  0
  6 42  1  0
  7 43  1  0
  9 44  1  0
 12 45  1  0
 13 46  1  0
 18 47  1  0
 20 48  1  0
 21 49  1  0
 25 50  1  0
 26 51  1  1
 27 52  1  0
 27 53  1  0
 28 54  1  0
 28 55  1  0
 28 56  1  0
 31 57  1  0
 32 58  1  0
 33 59  1  0
 34 60  1  0
 35 61  1  0
M  END
>  <smiles>  (1) 
CCc1[nH]c(=N)[nH]c(=N)c1-c1ccc(S(=O)(=O)Nc2ccc(C(=O)NC(CC)C(=O)O)cc2)cc1

>  <score_type>  (1) 
oracle

>  <origin>  (1) 
adgpu

>  <m_score__min__energy>  (1) 
-10.83

>  <m_primary>  (1) 
energy

$$$$
1:0
     RDKit          3D

 56 59  0  0  0  0  0  0  0  0999 V2000
   -5.6800   24.0200  -29.2220 O   0  0  0  0  0  0  0  0  0  0  0  0
   -5.0030   24.2900  -30.5380 S   0  0  0  0  0  0  0  0  0  0  0  0
   -5.8030   25.3330  -31.2700 O   0  0  0  0  0  0  0  0  0  0  0  0
   -3.4070   24.9040  -30.2500 N   0  0  0  0  0  0  0  0  0  0  0  0
   -2.5390   24.3610  -29.2480 C   0  0  0  0  0  0  0  0  0  0  0  0
   -1.4510   25.1260  -28.8070 C   0  0  0  0  0  0  0  0  0  0  0  0
   -1.2310   26.3950  -29.3290 O   0  0  0  0  0  0  0  0  0  0  0  0
   -0.5900   24.6220  -27.8330 C   0  0  0  0  0  0  0  0  0  0  0  0
   -0.7980   23.3480  -27.3030 C   0  0  0  0  0  0  0  0  0  0  0  0
   -1.8620   22.5530  -27.7530 C   0  0  0  0  0  0  0  0  0  0  0  0
   -2.0370   20.9080  -27.1130 S   0  0  0  0  0  0  0  0  0  0  0  0
   -1.5580   20.8500  -25.6880 O   0  0  0  0  0  0  0  0  0  0  0  0
   -3.4930   20.5310  -27.1510 O   0  0  0  0  0  0  0  0  0  0  0  0
   -1.0870   19.7650  -28.0650 C   0  0  0  0  0  0  0  0  0  0  0  0
   -0.8640   20.0020  -29.4300 C   0  0  0  0  0  0  0  0  0  0  0  0
   -0.0870   19.1120  -30.1810 C   0  0  0  0  0  0  0  0  0  0  0  0
    0.4820   17.9910  -29.5730 C   0  0  0  0  0  0  0  0  0  0  0  0
    0.2460   17.7380  -28.2140 C   0  0  0  0  0  0  0  0  0  0  0  0
   -0.5440   18.6160  -27.4620 C   0  0  0  0  0  0  0  0  0  0  0  0
   -2.7380   23.0630  -28.7410 C   0  0  0  0  0  0  0  0  0  0  0  0
   -3.7840   22.2960  -29.2590 O   0  0  0  0  0  0  0  0  0  0  0  0
   -4.9400   22.8260  -31.5120 C   0  0  0  0  0  0  0  0  0  0  0  0
   -6.1020   22.0810  -31.7620 C   0  0  0  0  0  0  0  0  0  0  0  0
   -6.0330   20.9000  -32.5080 C   0  0  0  0  0  0  0  0  0  0  0  0
   -4.8040   20.4560  -33.0180 C   0  0  0  0  0  0  0  0  0  0  0  0
   -4.7130   18.9550  -33.9410 S   0  0  0  0  0  0  0  0  0  0  0  0
   -3.3630   18.8590  -34.6020 O   0  0  0  0  0  0  0  0  0  0  0  0
   -5.7550   18.9910  -35.0290 O   0  0  0  0  0  0  0  0  0  0  0  0
   -4.9740   17.5390  -32.9410 N   0  0  0  0  0  0  0  0  0  0  0  0
   -5.8590   17.8130  -31.7910 C   0  0  0  0  0  0  0  0  0  0  0  0
   -7.3640   17.7490  -32.1530 C   0  0  0  0  0  0  0  0  0  0  0  0
   -7.6090   17.2070  -33.4370 O   0  0  0  0  0  0  0  0  0  0  0  0
   -6.8640   16.0220  -33.6010 C   0  0  0  0  0  0  0  0  0  0  0  0
   -5.3700   16.3500  -33.7300 C   0  0  0  0  0  0  0  0  0  0  0  0
   -3.6470   21.2150  -32.7870 C   0  0  0  0  0  0  0  0  0  0  0  0
   -3.7150   22.3910  -32.0330 C   0  0  0  0  0  0  0  0  0  0  0  0
    0.2560   25.2307  -27.4812 H   0  0  0  0  0  0  0  0  0  0  0  0
   -0.1214   22.9639  -26.5254 H   0  0  0  0  0  0  0  0  0  0  0  0
   -1.3009   20.8895  -29.9112 H   0  0  0  0  0  0  0  0  0  0  0  0
    0.0758   19.2962  -31.2532 H   0  0  0  0  0  0  0  0  0  0  0  0
    1.1142   17.3077  -30.1590 H   0  0  0  0  0  0  0  0  0  0  0  0
    0.6825   16.8477  -27.7377 H   0  0  0  0  0  0  0  0  0  0  0  0
   -0.7400   18.4073  -26.3999 H   0  0  0  0  0  0  0  0  0  0  0  0
   -4.6580   22.1430  -28.7780 H   0  0  0  0  0  0  0  0  0  0  0  0
   -7.0700   22.4266  -31.3703 H   0  0  0  0  0  0  0  0  0  0  0  0
   -6.9465   20.3167  -32.6956 H   0  0  0  0  0  0  0  0  0  0  0  0
   -5.6555   17.0682  -31.0075 H   0  0  0  0  0  0  0  0  0  0  0  0
   -5.6469   18.8374  -31.4509 H   0  0  0  0  0  0  0  0  0  0  0  0
   -7.8762   17.1239  -31.4068 H   0  0  0  0  0  0  0  0  0  0  0  0
   -7.7417   18.7821  -32.1583 H   0  0  0  0  0  0  0  0  0  0  0  0
   -7.0193   15.3712  -32.7279 H   0  0  0  0  0  0  0  0  0  0  0  0
   -7.1998   15.5100  -34.5148 H   0  0  0  0  0  0  0  0  0  0  0  0
   -4.7885   15.4850  -33.3783 H   0  0  0  0  0  0  0  0  0  0  0  0
   -5.1697   16.5728  -34.7884 H   0  0  0  0  0  0  0  0  0  0  0  0
   -2.6829   20.8840  -33.2004 H   0  0  0  0  0  0  0  0  0  0  0  0
   -2.8024   22.9767  -31.8484 H   0  0  0  0  0  0  0  0  0  0  0  0
  1  2  2  0
  2  3  2  0
  2  4  1  0
  4  5  1  0
  5  6  2  0
  6  7  1  0
  6  8  1  0
  8  9  2  0
  9 10  1  0
 10 11  1  0
 11 12  2  0
 11 13  2  0
 11 14  1  0
 14 15  2  0
 15 16  1  0
 16 17  2  0
 17 18  1  0
 18 19  2  0
 10 20  2  0
 20 21  1  0
  2 22  1  0
 22 23  2  0
 23 24  1  0
 24 25  2  0
 25 26  1  0
 26 27  2  0
 26 28  2  0
 26 29  1  0
 29 30  1  0
 30 31  1  0
 31 32  1  0
 32 33  1  0
 33 34  1  0
 25 35  1  0
 35 36  2  0
 20  5  1  0
 36 22  1  0
 19 14  1  0
 34 29  1  0
  8 37  1  0
  9 38  1  0
 15 39  1  0
 16 40  1  0
 17 41  1  0
 18 42  1  0
 19 43  1  0
 21 44  1  0
 23 45  1  0
 24 46  1  0
 30 47  1  0
 30 48  1  0
 31 49  1  0
 31 50  1  0
 33 51  1  0
 33 52  1  0
 34 53  1  0
 34 54  1  0
 35 55  1  0
 36 56  1  0
M  CHG  2   4  -1   7  -1
M  END
>  <UniqueID>  (2) 
1

>  <SMILES>  (2) 
O=S(=O)([N-]c1c([O-])ccc(S(=O)(=O)c2ccccc2)c1O)c1ccc(S(=O)(=O)N2CCOCC2)cc1

>  <Energy>  (2) 
79.88332737455971

>  <Genealogy>  (2) 
O=S(=O)([N-]c1c([O-])ccc(S(=O)(=O)c2ccccc2)c1O)c1ccc(S(=O)(=O)N2CCOCC2)cc1 (protonated)
O=S(=O)([N-]c1c([O-])ccc(S(=O)(=O)c2ccccc2)c1O)c1ccc(S(=O)(=O)N2CCOCC2)cc1 (3D coordinates assigned)
O=S(=O)([N-]c1c([O-])ccc(S(=O)(=O)c2ccccc2)c1O)c1ccc(S(=O)(=O)N2CCOCC2)cc1 (nonaromatic ring conformer: 79.88332737455971 kcal/mol)

>  <smiles>  (2) 
O=S(=O)(Nc1c(O)ccc(S(=O)(=O)c2ccccc2)c1O)c1ccc(S(=O)(=O)N2CCOCC2)cc1

>  <score_type>  (2) 
oracle

>  <origin>  (2) 
adgpu

>  <m_score__min__energy>  (2) 
-15.16

>  <m_primary>  (2) 
energy

$$$$
2:0
     RDKit          3D

 48 50  0  0  0  0  0  0  0  0999 V2000
   -4.4960   16.5560  -34.8600 C   0  0  0  0  0  0  0  0  0  0  0  0
   -5.1730   16.7060  -33.5300 C   0  0  0  0  0  0  0  0  0  0  0  0
   -5.0090   15.8000  -32.6680 O   0  0  0  0  0  0  0  0  0  0  0  0
   -5.9890   17.8560  -33.2130 N   0  0  0  0  0  0  0  0  0  0  0  0
   -6.8290   17.8140  -32.0040 C   0  0  0  0  0  0  0  0  0  0  0  0
   -7.7930   19.0040  -31.9330 C   0  0  0  0  0  0  0  0  0  0  0  0
   -7.0770   20.2550  -32.2040 N   0  0  0  0  0  0  0  0  0  0  0  0
   -7.5220   21.4760  -31.5820 C   0  0  0  0  0  0  0  0  0  0  0  0
   -8.7430   21.6290  -31.3080 O   0  0  0  0  0  0  0  0  0  0  0  0
   -6.5710   22.5620  -31.2670 C   0  0  0  0  0  0  0  0  0  0  0  0
   -7.0300   23.8770  -31.0980 C   0  0  0  0  0  0  0  0  0  0  0  0
   -6.1240   24.9090  -30.8360 C   0  0  0  0  0  0  0  0  0  0  0  0
   -4.7560   24.6370  -30.7330 C   0  0  0  0  0  0  0  0  0  0  0  0
   -3.8700   25.6750  -30.4680 O   0  0  0  0  0  0  0  0  0  0  0  0
   -4.2910   23.3220  -30.8820 C   0  0  0  0  0  0  0  0  0  0  0  0
   -2.8940   23.0270  -30.8180 N   0  0  0  0  0  0  0  0  0  0  0  0
   -2.3790   21.4030  -30.5100 S   0  0  0  0  0  0  0  0  0  0  0  0
   -3.4870   20.6520  -29.8250 O   0  0  0  0  0  0  0  0  0  0  0  0
   -1.1750   21.4030  -29.6100 O   0  0  0  0  0  0  0  0  0  0  0  0
   -1.9940   20.6210  -32.0410 C   0  0  0  0  0  0  0  0  0  0  0  0
   -2.8230   19.6090  -32.5500 C   0  0  0  0  0  0  0  0  0  0  0  0
   -2.5270   19.0100  -33.7780 C   0  0  0  0  0  0  0  0  0  0  0  0
   -1.4090   19.4220  -34.5070 C   0  0  0  0  0  0  0  0  0  0  0  0
   -0.5910   20.4430  -34.0140 C   0  0  0  0  0  0  0  0  0  0  0  0
   -0.8820   21.0420  -32.7850 C   0  0  0  0  0  0  0  0  0  0  0  0
   -5.2020   22.2870  -31.1280 C   0  0  0  0  0  0  0  0  0  0  0  0
   -6.0830   20.3160  -33.2880 C   0  0  0  0  0  0  0  0  0  0  0  0
   -6.0590   19.0220  -34.1060 C   0  0  0  0  0  0  0  0  0  0  0  0
   -3.4327   16.3204  -34.7057 H   0  0  0  0  0  0  0  0  0  0  0  0
   -4.9737   15.7419  -35.4249 H   0  0  0  0  0  0  0  0  0  0  0  0
   -4.5851   17.4957  -35.4249 H   0  0  0  0  0  0  0  0  0  0  0  0
   -7.4143   16.8827  -32.0104 H   0  0  0  0  0  0  0  0  0  0  0  0
   -6.1658   17.8611  -31.1276 H   0  0  0  0  0  0  0  0  0  0  0  0
   -8.5887   18.8718  -32.6810 H   0  0  0  0  0  0  0  0  0  0  0  0
   -8.2289   19.0521  -30.9242 H   0  0  0  0  0  0  0  0  0  0  0  0
   -8.1053   24.0965  -31.1718 H   0  0  0  0  0  0  0  0  0  0  0  0
   -6.4886   25.9392  -30.7103 H   0  0  0  0  0  0  0  0  0  0  0  0
   -2.2410   23.7900  -30.5330 H   0  0  0  0  0  0  0  0  0  0  0  0
   -3.7076   19.2865  -31.9813 H   0  0  0  0  0  0  0  0  0  0  0  0
   -3.1755   18.2130  -34.1707 H   0  0  0  0  0  0  0  0  0  0  0  0
   -1.1723   18.9433  -35.4687 H   0  0  0  0  0  0  0  0  0  0  0  0
    0.2826   20.7753  -34.5939 H   0  0  0  0  0  0  0  0  0  0  0  0
   -0.2371   21.8458  -32.4003 H   0  0  0  0  0  0  0  0  0  0  0  0
   -4.8417   21.2511  -31.2129 H   0  0  0  0  0  0  0  0  0  0  0  0
   -6.3329   21.1547  -33.9544 H   0  0  0  0  0  0  0  0  0  0  0  0
   -5.0899   20.4550  -32.8359 H   0  0  0  0  0  0  0  0  0  0  0  0
   -6.9739   18.9596  -34.7136 H   0  0  0  0  0  0  0  0  0  0  0  0
   -5.1734   19.0271  -34.7585 H   0  0  0  0  0  0  0  0  0  0  0  0
  1  2  1  0
  2  3  2  0
  2  4  1  0
  4  5  1  0
  5  6  1  0
  6  7  1  0
  7  8  1  0
  8  9  2  0
  8 10  1  0
 10 11  2  0
 11 12  1  0
 12 13  2  0
 13 14  1  0
 13 15  1  0
 15 16  1  0
 16 17  1  0
 17 18  2  0
 17 19  2  0
 17 20  1  0
 20 21  2  0
 21 22  1  0
 22 23  2  0
 23 24  1  0
 24 25  2  0
 15 26  2  0
  7 27  1  0
 27 28  1  0
 28  4  1  0
 26 10  1  0
 25 20  1  0
  1 29  1  0
  1 30  1  0
  1 31  1  0
  5 32  1  0
  5 33  1  0
  6 34  1  0
  6 35  1  0
 11 36  1  0
 12 37  1  0
 16 38  1  0
 21 39  1  0
 22 40  1  0
 23 41  1  0
 24 42  1  0
 25 43  1  0
 26 44  1  0
 27 45  1  0
 27 46  1  0
 28 47  1  0
 28 48  1  0
M  CHG  1  14  -1
M  END
>  <UniqueID>  (3) 
2

>  <SMILES>  (3) 
CC(=O)N1CCN(C(=O)c2ccc([O-])c(NS(=O)(=O)c3ccccc3)c2)CC1

>  <Energy>  (3) 
57.01554355769611

>  <Genealogy>  (3) 
CC(=O)N1CCN(C(=O)c2ccc([O-])c(NS(=O)(=O)c3ccccc3)c2)CC1 (protonated)
CC(=O)N1CCN(C(=O)c2ccc([O-])c(NS(=O)(=O)c3ccccc3)c2)CC1 (3D coordinates assigned)
CC(=O)N1CCN(C(=O)c2ccc([O-])c(NS(=O)(=O)c3ccccc3)c2)CC1 (nonaromatic ring conformer: 57.01554355769611 kcal/mol)

>  <smiles>  (3) 
CC(=O)N1CCN(C(=O)c2ccc(O)c(NS(=O)(=O)c3ccccc3)c2)CC1

>  <score_type>  (3) 
oracle

>  <origin>  (3) 
adgpu

>  <m_score__min__energy>  (3) 
-12.68

>  <m_primary>  (3) 
energy

$$$$
3:0
     RDKit          3D

 33 34  0  0  0  0  0  0  0  0999 V2000
   -6.5200   17.1070  -32.4920 C   0  0  0  0  0  0  0  0  0  0  0  0
   -7.0770   18.2410  -31.7630 N   0  0  0  0  0  0  0  0  0  0  0  0
   -7.3960   19.5480  -32.8620 S   0  0  0  0  0  0  0  0  0  0  0  0
   -6.7400   19.2690  -34.1870 O   0  0  0  0  0  0  0  0  0  0  0  0
   -8.8780   19.6560  -33.0820 O   0  0  0  0  0  0  0  0  0  0  0  0
   -6.7990   21.0670  -32.1980 C   0  0  0  0  0  0  0  0  0  0  0  0
   -5.4490   21.4180  -32.3270 C   0  0  0  0  0  0  0  0  0  0  0  0
   -4.9770   22.6120  -31.7740 C   0  0  0  0  0  0  0  0  0  0  0  0
   -5.8500   23.4610  -31.0810 C   0  0  0  0  0  0  0  0  0  0  0  0
   -5.2430   24.9480  -30.3610 S   0  0  0  0  0  0  0  0  0  0  0  0
   -5.7490   25.1040  -28.9530 O   0  0  0  0  0  0  0  0  0  0  0  0
   -5.7120   26.1130  -31.1840 O   0  0  0  0  0  0  0  0  0  0  0  0
   -3.5090   24.9300  -30.3390 N   0  0  0  0  0  0  0  0  0  0  0  0
   -2.6990   24.2750  -29.3520 C   0  0  0  0  0  0  0  0  0  0  0  0
   -3.0170   22.9960  -28.8570 C   0  0  0  0  0  0  0  0  0  0  0  0
   -2.1960   22.3850  -27.9030 C   0  0  0  0  0  0  0  0  0  0  0  0
   -1.0570   23.0440  -27.4330 C   0  0  0  0  0  0  0  0  0  0  0  0
   -0.7390   24.3160  -27.9140 C   0  0  0  0  0  0  0  0  0  0  0  0
   -1.5550   24.9310  -28.8700 C   0  0  0  0  0  0  0  0  0  0  0  0
   -1.2230   26.1950  -29.3430 O   0  0  0  0  0  0  0  0  0  0  0  0
   -7.2020   23.1110  -30.9540 C   0  0  0  0  0  0  0  0  0  0  0  0
   -7.6730   21.9170  -31.5070 C   0  0  0  0  0  0  0  0  0  0  0  0
   -6.1515   16.3567  -31.7770 H   0  0  0  0  0  0  0  0  0  0  0  0
   -7.3004   16.6586  -33.1244 H   0  0  0  0  0  0  0  0  0  0  0  0
   -5.6881   17.4505  -33.1244 H   0  0  0  0  0  0  0  0  0  0  0  0
   -4.7583   20.7521  -32.8650 H   0  0  0  0  0  0  0  0  0  0  0  0
   -3.9172   22.8858  -31.8832 H   0  0  0  0  0  0  0  0  0  0  0  0
   -3.9145   22.4750  -29.2217 H   0  0  0  0  0  0  0  0  0  0  0  0
   -2.4476   21.3841  -27.5223 H   0  0  0  0  0  0  0  0  0  0  0  0
   -0.4113   22.5612  -26.6847 H   0  0  0  0  0  0  0  0  0  0  0  0
    0.1555   24.8359  -27.5403 H   0  0  0  0  0  0  0  0  0  0  0  0
   -7.8934   23.7777  -30.4179 H   0  0  0  0  0  0  0  0  0  0  0  0
   -8.7330   21.6436  -31.3995 H   0  0  0  0  0  0  0  0  0  0  0  0
  1  2  1  0
  2  3  1  0
  3  4  2  0
  3  5  2  0
  3  6  1  0
  6  7  2  0
  7  8  1  0
  8  9  2  0
  9 10  1  0
 10 11  2  0
 10 12  2  0
 10 13  1  0
 13 14  1  0
 14 15  2  0
 15 16  1  0
 16 17  2  0
 17 18  1  0
 18 19  2  0
 19 20  1  0
  9 21  1  0
 21 22  2  0
 22  6  1  0
 19 14  1  0
  1 23  1  0
  1 24  1  0
  1 25  1  0
  7 26  1  0
  8 27  1  0
 15 28  1  0
 16 29  1  0
 17 30  1  0
 18 31  1  0
 21 32  1  0
 22 33  1  0
M  CHG  3   2  -1  13  -1  20  -1
M  END
>  <UniqueID>  (4) 
3

>  <SMILES>  (4) 
C[N-]S(=O)(=O)c1ccc(S(=O)(=O)[N-]c2ccccc2[O-])cc1

>  <Energy>  (4) 
34.75449187259285

>  <Genealogy>  (4) 
C[N-]S(=O)(=O)c1ccc(S(=O)(=O)[N-]c2ccccc2[O-])cc1 (protonated)
C[N-]S(=O)(=O)c1ccc(S(=O)(=O)[N-]c2ccccc2[O-])cc1 (3D coordinates assigned)
C[N-]S(=O)(=O)c1ccc(S(=O)(=O)[N-]c2ccccc2[O-])cc1 (optimized conformer: 34.75449187259285 kcal/mol)

>  <smiles>  (4) 
CNS(=O)(=O)c1ccc(S(=O)(=O)Nc2ccccc2O)cc1

>  <score_type>  (4) 
oracle

>  <origin>  (4) 
adgpu

>  <m_score__min__energy>  (4) 
-12.800000000000001

>  <m_primary>  (4) 
energy

$$$$
4:0
     RDKit          3D

 75 79  0  0  0  0  0  0  0  0999 V2000
   -2.8020   20.5040  -33.6740 O   0  0  0  0  0  0  0  0  0  0  0  0
   -2.7410   21.2180  -32.6390 C   0  0  0  0  0  0  0  0  0  0  0  0
   -3.5320   22.4110  -32.5680 N   0  0  0  0  0  0  0  0  0  0  0  0
   -4.8080   22.4880  -31.9170 C   0  0  0  0  0  0  0  0  0  0  0  0
   -5.7790   21.4980  -32.1390 C   0  0  0  0  0  0  0  0  0  0  0  0
   -7.0290   21.5660  -31.5130 C   0  0  0  0  0  0  0  0  0  0  0  0
   -8.2570   20.3440  -31.8660 S   0  0  0  0  0  0  0  0  0  0  0  0
   -9.1430   20.8280  -32.9820 O   0  0  0  0  0  0  0  0  0  0  0  0
   -9.1180   20.1370  -30.6510 O   0  0  0  0  0  0  0  0  0  0  0  0
   -7.5270   18.8210  -32.3200 N   0  0  0  0  0  0  0  0  0  0  0  0
   -6.8600   18.9050  -33.6450 C   0  0  0  0  0  0  0  0  0  0  0  0
   -5.3270   18.9370  -33.5480 C   0  0  0  0  0  0  0  0  0  0  0  0
   -4.7940   17.6900  -32.8200 C   0  0  0  0  0  0  0  0  0  0  0  0
   -5.7430   17.1960  -31.7110 C   0  0  0  0  0  0  0  0  0  0  0  0
   -6.6700   18.3130  -31.2240 C   0  0  0  0  0  0  0  0  0  0  0  0
   -7.3060   22.6260  -30.6430 C   0  0  0  0  0  0  0  0  0  0  0  0
   -6.3530   23.6250  -30.4270 C   0  0  0  0  0  0  0  0  0  0  0  0
   -5.1100   23.5700  -31.0690 C   0  0  0  0  0  0  0  0  0  0  0  0
   -4.1930   24.5950  -30.8420 O   0  0  0  0  0  0  0  0  0  0  0  0
   -1.8550   20.8300  -31.5150 C   0  0  0  0  0  0  0  0  0  0  0  0
   -2.3550   20.9000  -30.2020 C   0  0  0  0  0  0  0  0  0  0  0  0
   -1.5610   20.5470  -29.1080 C   0  0  0  0  0  0  0  0  0  0  0  0
   -2.2440   20.6150  -27.4870 S   0  0  0  0  0  0  0  0  0  0  0  0
   -1.2130   20.1230  -26.5080 O   0  0  0  0  0  0  0  0  0  0  0  0
   -3.4590   19.7290  -27.3930 O   0  0  0  0  0  0  0  0  0  0  0  0
   -2.6720   22.2670  -27.1210 N   0  0  0  0  0  0  0  0  0  0  0  0
   -1.5790   23.1720  -27.5080 C   0  0  0  0  0  0  0  0  0  0  0  0
   -1.8490   24.5950  -26.9830 C   0  0  0  0  0  0  0  0  0  0  0  0
   -3.3420   24.8530  -26.7220 C   0  0  0  0  0  0  0  0  0  0  0  0
   -4.2110   24.1470  -27.7660 C   0  0  0  0  0  0  0  0  0  0  0  0
   -3.9240   22.6270  -27.8180 C   0  0  0  0  0  0  0  0  0  0  0  0
   -0.2450   20.1230  -29.3170 C   0  0  0  0  0  0  0  0  0  0  0  0
    0.2690   20.0520  -30.6120 C   0  0  0  0  0  0  0  0  0  0  0  0
   -0.5200   20.4030  -31.7180 C   0  0  0  0  0  0  0  0  0  0  0  0
    0.0290   20.2360  -33.0380 N   0  0  0  0  0  0  0  0  0  0  0  0
    0.5120   21.4260  -33.7490 C   0  0  0  0  0  0  0  0  0  0  0  0
    0.7140   21.1380  -35.2330 C   0  0  0  0  0  0  0  0  0  0  0  0
   -0.3490   20.3380  -35.7000 O   0  0  0  0  0  0  0  0  0  0  0  0
   -0.1690   19.0170  -35.2350 C   0  0  0  0  0  0  0  0  0  0  0  0
   -0.0870   18.9200  -33.6920 C   0  0  0  0  0  0  0  0  0  0  0  0
   -5.5543   20.6585  -32.8134 H   0  0  0  0  0  0  0  0  0  0  0  0
   -7.1547   18.0289  -34.2413 H   0  0  0  0  0  0  0  0  0  0  0  0
   -7.1785   19.8482  -34.1129 H   0  0  0  0  0  0  0  0  0  0  0  0
   -4.9030   18.9699  -34.5625 H   0  0  0  0  0  0  0  0  0  0  0  0
   -5.0306   19.8294  -32.9772 H   0  0  0  0  0  0  0  0  0  0  0  0
   -4.6624   16.8828  -33.5556 H   0  0  0  0  0  0  0  0  0  0  0  0
   -3.8419   17.9660  -32.3431 H   0  0  0  0  0  0  0  0  0  0  0  0
   -6.3545   16.3712  -32.1056 H   0  0  0  0  0  0  0  0  0  0  0  0
   -5.1324   16.8599  -30.8600 H   0  0  0  0  0  0  0  0  0  0  0  0
   -7.3112   17.9211  -30.4207 H   0  0  0  0  0  0  0  0  0  0  0  0
   -6.0485   19.1433  -30.8576 H   0  0  0  0  0  0  0  0  0  0  0  0
   -8.2766   22.6732  -30.1276 H   0  0  0  0  0  0  0  0  0  0  0  0
   -6.5809   24.4600  -29.7482 H   0  0  0  0  0  0  0  0  0  0  0  0
   -3.4770   24.8340  -31.5180 H   0  0  0  0  0  0  0  0  0  0  0  0
   -3.3881   21.2382  -30.0339 H   0  0  0  0  0  0  0  0  0  0  0  0
   -0.6343   22.8020  -27.0830 H   0  0  0  0  0  0  0  0  0  0  0  0
   -1.5130   23.2030  -28.6056 H   0  0  0  0  0  0  0  0  0  0  0  0
   -1.2971   24.7343  -26.0417 H   0  0  0  0  0  0  0  0  0  0  0  0
   -1.5173   25.3046  -27.7552 H   0  0  0  0  0  0  0  0  0  0  0  0
   -3.6029   24.4758  -25.7222 H   0  0  0  0  0  0  0  0  0  0  0  0
   -3.5272   25.9354  -26.7857 H   0  0  0  0  0  0  0  0  0  0  0  0
   -5.2699   24.3011  -27.5112 H   0  0  0  0  0  0  0  0  0  0  0  0
   -3.9761   24.5738  -28.7523 H   0  0  0  0  0  0  0  0  0  0  0  0
   -4.7596   22.0930  -27.3420 H   0  0  0  0  0  0  0  0  0  0  0  0
   -3.8139   22.3420  -28.8747 H   0  0  0  0  0  0  0  0  0  0  0  0
    0.3855   19.8452  -28.4595 H   0  0  0  0  0  0  0  0  0  0  0  0
    1.3050   19.7169  -30.7679 H   0  0  0  0  0  0  0  0  0  0  0  0
   -0.2255   22.2345  -33.6376 H   0  0  0  0  0  0  0  0  0  0  0  0
    1.4795   21.7211  -33.3167 H   0  0  0  0  0  0  0  0  0  0  0  0
    0.7344   22.0852  -35.7919 H   0  0  0  0  0  0  0  0  0  0  0  0
    1.6668   20.6082  -35.3798 H   0  0  0  0  0  0  0  0  0  0  0  0
   -1.0168   18.4065  -35.5792 H   0  0  0  0  0  0  0  0  0  0  0  0
    0.7894   18.6565  -35.6368 H   0  0  0  0  0  0  0  0  0  0  0  0
   -0.9969   18.4241  -33.3230 H   0  0  0  0  0  0  0  0  0  0  0  0
    0.8203   18.3488  -33.4458 H   0  0  0  0  0  0  0  0  0  0  0  0
  1  2  2  0
  2  3  1  0
  3  4  1  0
  4  5  2  0
  5  6  1  0
  6  7  1  0
  7  8  2  0
  7  9  2  0
  7 10  1  0
 10 11  1  0
 11 12  1  0
 12 13  1  0
 13 14  1  0
 14 15  1  0
  6 16  2  0
 16 17  1  0
 17 18  2  0
 18 19  1  0
  2 20  1  0
 20 21  2  0
 21 22  1  0
 22 23  1  0
 23 24  2  0
 23 25  2  0
 23 26  1  0
 26 27  1  0
 27 28  1  0
 28 29  1  0
 29 30  1  0
 30 31  1  0
 22 32  2  0
 32 33  1  0
 33 34  2  0
 34 35  1  0
 35 36  1  0
 36 37  1  0
 37 38  1  0
 38 39  1  0
 39 40  1  0
 18  4  1  0
 34 20  1  0
 40 35  1  0
 15 10  1  0
 31 26  1  0
  5 41  1  0
 11 42  1  0
 11 43  1  0
 12 44  1  0
 12 45  1  0
 13 46  1  0
 13 47  1  0
 14 48  1  0
 14 49  1  0
 15 50  1  0
 15 51  1  0
 16 52  1  0
 17 53  1  0
 19 54  1  0
 21 55  1  0
 27 56  1  0
 27 57  1  0
 28 58  1  0
 28 59  1  0
 29 60  1  0
 29 61  1  0
 30 62  1  0
 30 63  1  0
 31 64  1  0
 31 65  1  0
 32 66  1  0
 33 67  1  0
 36 68  1  0
 36 69  1  0
 37 70  1  0
 37 71  1  0
 39 72  1  0
 39 73  1  0
 40 74  1  0
 40 75  1  0
M  CHG  1   3  -1
M  END
>  <UniqueID>  (5) 
4

>  <SMILES>  (5) 
O=C([N-]c1cc(S(=O)(=O)N2CCCCC2)ccc1O)c1cc(S(=O)(=O)N2CCCCC2)ccc1N1CCOCC1

>  <Energy>  (5) 
99.9131332180377

>  <Genealogy>  (5) 
O=C([N-]c1cc(S(=O)(=O)N2CCCCC2)ccc1O)c1cc(S(=O)(=O)N2CCCCC2)ccc1N1CCOCC1 (protonated)
O=C([N-]c1cc(S(=O)(=O)N2CCCCC2)ccc1O)c1cc(S(=O)(=O)N2CCCCC2)ccc1N1CCOCC1 (3D coordinates assigned)
O=C([N-]c1cc(S(=O)(=O)N2CCCCC2)ccc1O)c1cc(S(=O)(=O)N2CCCCC2)ccc1N1CCOCC1 (nonaromatic ring conformer: 99.9131332180377 kcal/mol)

>  <smiles>  (5) 
O=C(Nc1cc(S(=O)(=O)N2CCCCC2)ccc1O)c1cc(S(=O)(=O)N2CCCCC2)ccc1N1CCOCC1

>  <score_type>  (5) 
oracle

>  <origin>  (5) 
adgpu

>  <m_score__min__energy>  (5) 
-11.699999999999999

>  <m_primary>  (5) 
energy

$$$$
5:0
     RDKit          3D

 41 43  0  0  0  0  0  0  0  0999 V2000
   -1.2100   20.8770  -26.3630 N   0  0  0  0  0  0  0  0  0  0  0  0
   -1.3180   22.0940  -27.1100 C   0  0  0  0  0  0  0  0  0  0  0  0
   -1.6900   22.0490  -28.4620 C   0  0  0  0  0  0  0  0  0  0  0  0
   -1.8180   23.2350  -29.2080 C   0  0  0  0  0  0  0  0  0  0  0  0
   -2.1960   23.2120  -30.5930 N   0  0  0  0  0  0  0  0  0  0  0  0
   -3.3440   22.5450  -31.1380 C   0  0  0  0  0  0  0  0  0  0  0  0
   -3.1850   21.4410  -31.7210 O   0  0  0  0  0  0  0  0  0  0  0  0
   -4.6990   23.1340  -31.0550 C   0  0  0  0  0  0  0  0  0  0  0  0
   -5.8150   22.3260  -31.3210 C   0  0  0  0  0  0  0  0  0  0  0  0
   -7.1110   22.8370  -31.1860 C   0  0  0  0  0  0  0  0  0  0  0  0
   -8.4920   21.7700  -31.4230 S   0  0  0  0  0  0  0  0  0  0  0  0
   -9.4470   22.4300  -32.3780 O   0  0  0  0  0  0  0  0  0  0  0  0
   -9.2000   21.5200  -30.1210 O   0  0  0  0  0  0  0  0  0  0  0  0
   -7.9290   20.2340  -32.0750 C   0  0  0  0  0  0  0  0  0  0  0  0
   -6.9880   20.2030  -33.1140 C   0  0  0  0  0  0  0  0  0  0  0  0
   -6.5440   18.9780  -33.6220 C   0  0  0  0  0  0  0  0  0  0  0  0
   -7.0380   17.7800  -33.0960 C   0  0  0  0  0  0  0  0  0  0  0  0
   -7.9790   17.8060  -32.0620 C   0  0  0  0  0  0  0  0  0  0  0  0
   -8.4270   19.0290  -31.5540 C   0  0  0  0  0  0  0  0  0  0  0  0
   -7.2950   24.1720  -30.8070 C   0  0  0  0  0  0  0  0  0  0  0  0
   -6.1900   24.9920  -30.5680 C   0  0  0  0  0  0  0  0  0  0  0  0
   -4.8900   24.4810  -30.6910 C   0  0  0  0  0  0  0  0  0  0  0  0
   -3.7940   25.3130  -30.4650 O   0  0  0  0  0  0  0  0  0  0  0  0
   -1.5260   24.4640  -28.6000 C   0  0  0  0  0  0  0  0  0  0  0  0
   -1.6190   25.6440  -29.3280 O   0  0  0  0  0  0  0  0  0  0  0  0
   -1.1500   24.5120  -27.2530 C   0  0  0  0  0  0  0  0  0  0  0  0
   -1.0510   23.3340  -26.5060 C   0  0  0  0  0  0  0  0  0  0  0  0
   -0.6810   23.4040  -25.1680 O   0  0  0  0  0  0  0  0  0  0  0  0
   -0.9780   20.8960  -25.3450 H   0  0  0  0  0  0  0  0  0  0  0  0
   -1.3540   19.9470  -26.8160 H   0  0  0  0  0  0  0  0  0  0  0  0
   -1.8832   21.0786  -28.9427 H   0  0  0  0  0  0  0  0  0  0  0  0
   -5.6701   21.2827  -31.6381 H   0  0  0  0  0  0  0  0  0  0  0  0
   -6.5984   21.1437  -33.5302 H   0  0  0  0  0  0  0  0  0  0  0  0
   -5.8051   18.9567  -34.4366 H   0  0  0  0  0  0  0  0  0  0  0  0
   -6.6863   16.8174  -33.4956 H   0  0  0  0  0  0  0  0  0  0  0  0
   -8.3670   16.8636  -31.6481 H   0  0  0  0  0  0  0  0  0  0  0  0
   -9.1713   19.0473  -30.7443 H   0  0  0  0  0  0  0  0  0  0  0  0
   -8.3122   24.5761  -30.6972 H   0  0  0  0  0  0  0  0  0  0  0  0
   -6.3402   26.0435  -30.2820 H   0  0  0  0  0  0  0  0  0  0  0  0
   -2.8670   24.9380  -30.3000 H   0  0  0  0  0  0  0  0  0  0  0  0
   -0.9314   25.4806  -26.7797 H   0  0  0  0  0  0  0  0  0  0  0  0
  1  2  1  0
  2  3  2  0
  3  4  1  0
  4  5  1  0
  5  6  1  0
  6  7  2  0
  6  8  1  0
  8  9  2  0
  9 10  1  0
 10 11  1  0
 11 12  2  0
 11 13  2  0
 11 14  1  0
 14 15  2  0
 15 16  1  0
 16 17  2  0
 17 18  1  0
 18 19  2  0
 10 20  2  0
 20 21  1  0
 21 22  2  0
 22 23  1  0
  4 24  2  0
 24 25  1  0
 24 26  1  0
 26 27  2  0
 27 28  1  0
 27  2  1  0
 22  8  1  0
 19 14  1  0
  1 29  1  0
  1 30  1  0
  3 31  1  0
  9 32  1  0
 15 33  1  0
 16 34  1  0
 17 35  1  0
 18 36  1  0
 19 37  1  0
 20 38  1  0
 21 39  1  0
 23 40  1  0
 26 41  1  0
M  CHG  3   5  -1  25  -1  28  -1
M  END
>  <UniqueID>  (6) 
5

>  <SMILES>  (6) 
Nc1cc([N-]C(=O)c2cc(S(=O)(=O)c3ccccc3)ccc2O)c([O-])cc1[O-]

>  <Energy>  (6) 
52.887877222832884

>  <Genealogy>  (6) 
Nc1cc([N-]C(=O)c2cc(S(=O)(=O)c3ccccc3)ccc2O)c([O-])cc1[O-] (protonated)
Nc1cc([N-]C(=O)c2cc(S(=O)(=O)c3ccccc3)ccc2O)c([O-])cc1[O-] (3D coordinates assigned)
Nc1cc([N-]C(=O)c2cc(S(=O)(=O)c3ccccc3)ccc2O)c([O-])cc1[O-] (optimized conformer: 52.887877222832884 kcal/mol)

>  <smiles>  (6) 
Nc1cc(NC(=O)c2cc(S(=O)(=O)c3ccccc3)ccc2O)c(O)cc1O

>  <score_type>  (6) 
oracle

>  <origin>  (6) 
adgpu

>  <m_score__min__energy>  (6) 
-12.85

>  <m_primary>  (6) 
energy

$$$$
6:0
     RDKit          3D

 65 69  0  0  0  0  0  0  0  0999 V2000
   -3.2879   20.3161  -33.2463 H   0  0  0  0  0  0  0  0  0  0  0  0
   -3.5730   19.2710  -33.4370 C   0  0  0  0  0  0  0  0  0  0  0  0
   -2.8579   18.5839  -33.9128 H   0  0  0  0  0  0  0  0  0  0  0  0
   -4.7940   18.8340  -33.0890 C   0  0  0  0  0  0  0  0  0  0  0  0
   -5.3270   17.5410  -33.2550 C   0  0  0  0  0  0  0  0  0  0  0  0
   -4.8110   16.4240  -33.8120 C   0  0  0  0  0  0  0  0  0  0  0  0
   -5.4064   15.5038  -33.7179 H   0  0  0  0  0  0  0  0  0  0  0  0
   -3.5290   16.3140  -34.5340 C   0  0  0  0  0  0  0  0  0  0  0  0
   -3.4890   15.7410  -35.8040 C   0  0  0  0  0  0  0  0  0  0  0  0
   -4.4232   15.4561  -36.3101 H   0  0  0  0  0  0  0  0  0  0  0  0
   -2.2680   15.5310  -36.4280 C   0  0  0  0  0  0  0  0  0  0  0  0
   -2.2330   15.0756  -37.4287 H   0  0  0  0  0  0  0  0  0  0  0  0
   -1.0850   15.8970  -35.7870 C   0  0  0  0  0  0  0  0  0  0  0  0
    0.1200   15.6150  -36.4250 O   0  0  0  0  0  0  0  0  0  0  0  0
   -1.1140   16.4990  -34.5510 N   0  0  0  0  0  0  0  0  0  0  0  0
    0.1440   16.8420  -33.8430 C   0  0  0  0  0  0  0  0  0  0  0  0
    0.1131   16.3840  -32.8434 H   0  0  0  0  0  0  0  0  0  0  0  0
    0.9691   16.4597  -34.4619 H   0  0  0  0  0  0  0  0  0  0  0  0
    0.3790   18.3370  -33.6760 C   0  0  0  0  0  0  0  0  0  0  0  0
    0.4700   19.1160  -34.8460 C   0  0  0  0  0  0  0  0  0  0  0  0
    0.3419   18.6358  -35.8273 H   0  0  0  0  0  0  0  0  0  0  0  0
    0.7200   20.4870  -34.7800 C   0  0  0  0  0  0  0  0  0  0  0  0
    0.7842   21.0792  -35.7047 H   0  0  0  0  0  0  0  0  0  0  0  0
    0.8880   21.1050  -33.5460 C   0  0  0  0  0  0  0  0  0  0  0  0
    1.0827   22.1864  -33.4953 H   0  0  0  0  0  0  0  0  0  0  0  0
    0.8100   20.3560  -32.3730 C   0  0  0  0  0  0  0  0  0  0  0  0
    0.9389   20.8546  -31.4010 H   0  0  0  0  0  0  0  0  0  0  0  0
    0.5690   18.9730  -32.4160 C   0  0  0  0  0  0  0  0  0  0  0  0
    0.5290   18.0990  -30.8690 S   0  0  0  0  0  0  0  0  0  0  0  0
   -0.0970   16.7440  -31.0580 O   0  0  0  0  0  0  0  0  0  0  0  0
    1.9350   17.9000  -30.3850 O   0  0  0  0  0  0  0  0  0  0  0  0
   -0.4230   18.9550  -29.6610 C   0  0  0  0  0  0  0  0  0  0  0  0
   -0.3620   18.5710  -28.3080 C   0  0  0  0  0  0  0  0  0  0  0  0
    0.2758   17.7272  -28.0059 H   0  0  0  0  0  0  0  0  0  0  0  0
   -1.1100   19.2590  -27.3460 C   0  0  0  0  0  0  0  0  0  0  0  0
   -1.0692   18.9485  -26.2915 H   0  0  0  0  0  0  0  0  0  0  0  0
   -1.9090   20.3410  -27.7260 C   0  0  0  0  0  0  0  0  0  0  0  0
   -2.5021   20.8774  -26.9707 H   0  0  0  0  0  0  0  0  0  0  0  0
   -1.9560   20.7440  -29.0680 C   0  0  0  0  0  0  0  0  0  0  0  0
   -2.5796   21.6009  -29.3625 H   0  0  0  0  0  0  0  0  0  0  0  0
   -1.2110   20.0580  -30.0330 C   0  0  0  0  0  0  0  0  0  0  0  0
   -1.2418   20.3820  -31.0838 H   0  0  0  0  0  0  0  0  0  0  0  0
   -2.3200   16.6520  -33.9000 C   0  0  0  0  0  0  0  0  0  0  0  0
   -2.3590   17.0920  -32.7170 O   0  0  0  0  0  0  0  0  0  0  0  0
   -6.5960   17.5740  -32.6960 C   0  0  0  0  0  0  0  0  0  0  0  0
   -7.3057   16.7357  -32.6370 H   0  0  0  0  0  0  0  0  0  0  0  0
   -6.8010   18.8550  -32.2280 C   0  0  0  0  0  0  0  0  0  0  0  0
   -8.0570   19.3290  -31.5610 C   0  0  0  0  0  0  0  0  0  0  0  0
   -7.9325   19.2820  -30.4691 H   0  0  0  0  0  0  0  0  0  0  0  0
   -8.2630   20.3667  -31.8622 H   0  0  0  0  0  0  0  0  0  0  0  0
   -8.8972   18.6861  -31.8622 H   0  0  0  0  0  0  0  0  0  0  0  0
   -5.7150   19.6220  -32.4720 N   0  0  0  0  0  0  0  0  0  0  0  0
   -5.5560   20.9930  -32.0640 C   0  0  0  0  0  0  0  0  0  0  0  0
   -4.4380   21.3830  -31.3150 C   0  0  0  0  0  0  0  0  0  0  0  0
   -3.6722   20.6401  -31.0476 H   0  0  0  0  0  0  0  0  0  0  0  0
   -4.2910   22.7110  -30.9060 C   0  0  0  0  0  0  0  0  0  0  0  0
   -3.4079   23.0088  -30.3217 H   0  0  0  0  0  0  0  0  0  0  0  0
   -5.2650   23.6680  -31.2370 C   0  0  0  0  0  0  0  0  0  0  0  0
   -5.1160   25.0750  -30.8060 C   0  0  0  0  0  0  0  0  0  0  0  0
   -6.1220   25.7530  -30.4710 O   0  0  0  0  0  0  0  0  0  0  0  0
   -3.8630   25.6690  -30.7640 O   0  0  0  0  0  0  0  0  0  0  0  0
   -6.3880   23.2700  -31.9840 C   0  0  0  0  0  0  0  0  0  0  0  0
   -7.1581   24.0094  -32.2489 H   0  0  0  0  0  0  0  0  0  0  0  0
   -6.5320   21.9410  -32.3920 C   0  0  0  0  0  0  0  0  0  0  0  0
   -7.4158   21.6390  -32.9731 H   0  0  0  0  0  0  0  0  0  0  0  0
  1  2  1  0
  2  3  1  0
  2  4  2  0
  4  5  1  0
  5  6  2  0
  6  7  1  0
  6  8  1  0
  8  9  2  0
  9 10  1  0
  9 11  1  0
 11 12  1  0
 11 13  2  0
 13 14  1  0
 13 15  1  0
 15 16  1  0
 16 17  1  0
 16 18  1  0
 16 19  1  0
 19 20  2  0
 20 21  1  0
 20 22  1  0
 22 23  1  0
 22 24  2  0
 24 25  1  0
 24 26  1  0
 26 27  1  0
 26 28  2  0
 28 29  1  0
 29 30  2  0
 29 31  2  0
 29 32  1  0
 32 33  2  0
 33 34  1  0
 33 35  1  0
 35 36  1  0
 35 37  2  0
 37 38  1  0
 37 39  1  0
 39 40  1  0
 39 41  2  0
 41 42  1  0
 15 43  1  0
 43 44  2  0
  5 45  1  0
 45 46  1  0
 45 47  2  0
 47 48  1  0
 48 49  1  0
 48 50  1  0
 48 51  1  0
 47 52  1  0
 52 53  1  0
 53 54  2  0
 54 55  1  0
 54 56  1  0
 56 57  1  0
 56 58  2  0
 58 59  1  0
 59 60  2  0
 59 61  1  0
 58 62  1  0
 62 63  1  0
 62 64  2  0
 64 65  1  0
 52  4  1  0
 64 53  1  0
 43  8  1  0
 28 19  1  0
 41 32  1  0
M  CHG  2  14  -1  61  -1
M  END
>  <UniqueID>  (7) 
6

>  <SMILES>  (7) 
C=c1/c(=C\c2ccc([O-])n(Cc3ccccc3S(=O)(=O)c3ccccc3)c2=O)cc(C)n1-c1ccc(C(=O)[O-])cc1

>  <Energy>  (7) 
129.4059643037759

>  <Genealogy>  (7) 
C=c1c(=Cc2ccc([O-])n(Cc3ccccc3S(=O)(=O)c3ccccc3)c2=O)cc(C)n1-c1ccc(C(=O)[O-])cc1 (protonated)
C=c1/c(=C\c2ccc([O-])n(Cc3ccccc3S(=O)(=O)c3ccccc3)c2=O)cc(C)n1-c1ccc(C(=O)[O-])cc1 (cis-trans isomerization)
C=c1/c(=C\c2ccc([O-])n(Cc3ccccc3S(=O)(=O)c3ccccc3)c2=O)cc(C)n1-c1ccc(C(=O)[O-])cc1 (3D coordinates assigned)
C=c1/c(=C\c2ccc([O-])n(Cc3ccccc3S(=O)(=O)c3ccccc3)c2=O)cc(C)n1-c1ccc(C(=O)[O-])cc1 (optimized conformer: 129.4059643037759 kcal/mol)

>  <smiles>  (7) 
C=c1c(=Cc2ccc(O)n(Cc3ccccc3S(=O)(=O)c3ccccc3)c2=O)cc(C)n1-c1ccc(C(=O)O)cc1

>  <score_type>  (7) 
oracle

>  <origin>  (7) 
adgpu

>  <m_score__min__energy>  (7) 
-14.02

>  <m_primary>  (7) 
energy

$$$$
7:0
     RDKit          3D

 43 46  0  0  0  0  0  0  0  0999 V2000
   -3.8200   22.0510  -28.0040 N   0  0  0  0  0  0  0  0  0  0  0  0
   -2.7540   21.8390  -28.7150 C   0  0  0  0  0  0  0  0  0  0  0  0
   -2.3000   20.5220  -28.8570 C   0  0  0  0  0  0  0  0  0  0  0  0
   -1.1670   20.2570  -29.6250 C   0  0  0  0  0  0  0  0  0  0  0  0
   -0.5040   21.2720  -30.2340 N   0  0  0  0  0  0  0  0  0  0  0  0
   -0.9130   22.5630  -30.1190 C   0  0  0  0  0  0  0  0  0  0  0  0
   -2.0450   22.8880  -29.3530 C   0  0  0  0  0  0  0  0  0  0  0  0
   -2.5230   24.5880  -29.2050 S   0  0  0  0  0  0  0  0  0  0  0  0
   -1.2980   25.4480  -29.3230 O   0  0  0  0  0  0  0  0  0  0  0  0
   -3.1670   24.8530  -27.8720 O   0  0  0  0  0  0  0  0  0  0  0  0
   -3.6410   25.0070  -30.4640 N   0  0  0  0  0  0  0  0  0  0  0  0
   -4.8020   24.2470  -30.8230 C   0  0  0  0  0  0  0  0  0  0  0  0
   -6.1140   24.6620  -30.4700 C   0  0  0  0  0  0  0  0  0  0  0  0
   -7.2310   23.8850  -30.8250 C   0  0  0  0  0  0  0  0  0  0  0  0
   -7.0080   22.7090  -31.5360 C   0  0  0  0  0  0  0  0  0  0  0  0
   -5.7510   22.3130  -31.8930 C   0  0  0  0  0  0  0  0  0  0  0  0
   -4.6240   23.0570  -31.5550 C   0  0  0  0  0  0  0  0  0  0  0  0
   -5.8860   21.0590  -32.6190 C   0  0  0  0  0  0  0  0  0  0  0  0
   -4.9240   20.4320  -33.1390 O   0  0  0  0  0  0  0  0  0  0  0  0
   -7.2590   20.6190  -32.6990 N   0  0  1  0  0  0  0  0  0  0  0  0
   -7.4780   19.3210  -32.0190 C   0  0  0  0  0  0  0  0  0  0  0  0
   -6.6880   18.1720  -32.6230 C   0  0  0  0  0  0  0  0  0  0  0  0
   -6.4860   18.0970  -34.0100 C   0  0  0  0  0  0  0  0  0  0  0  0
   -5.7220   17.0550  -34.5400 C   0  0  0  0  0  0  0  0  0  0  0  0
   -5.1790   16.1200  -33.7170 N   0  0  0  0  0  0  0  0  0  0  0  0
   -5.3600   16.1640  -32.3710 C   0  0  0  0  0  0  0  0  0  0  0  0
   -6.1200   17.1870  -31.7990 C   0  0  0  0  0  0  0  0  0  0  0  0
   -7.9370   21.7090  -32.0370 C   0  0  0  0  0  0  0  0  0  0  0  0
   -9.1910   21.7910  -31.9450 O   0  0  0  0  0  0  0  0  0  0  0  0
   -4.2480   22.9880  -27.8430 H   0  0  0  0  0  0  0  0  0  0  0  0
   -2.8363   19.6980  -28.3635 H   0  0  0  0  0  0  0  0  0  0  0  0
   -0.8098   19.2227  -29.7374 H   0  0  0  0  0  0  0  0  0  0  0  0
   -0.3530   23.3601  -30.6300 H   0  0  0  0  0  0  0  0  0  0  0  0
   -6.2575   25.6000  -29.9137 H   0  0  0  0  0  0  0  0  0  0  0  0
   -8.2493   24.1967  -30.5495 H   0  0  0  0  0  0  0  0  0  0  0  0
   -3.6188   22.7236  -31.8524 H   0  0  0  0  0  0  0  0  0  0  0  0
   -7.5590   20.5720  -33.7010 H   0  0  0  0  0  0  0  0  0  0  0  0
   -7.1838   19.4278  -30.9645 H   0  0  0  0  0  0  0  0  0  0  0  0
   -8.5435   19.0737  -32.1355 H   0  0  0  0  0  0  0  0  0  0  0  0
   -6.9267   18.8541  -34.6753 H   0  0  0  0  0  0  0  0  0  0  0  0
   -5.5595   16.9910  -35.6260 H   0  0  0  0  0  0  0  0  0  0  0  0
   -4.9072   15.3927  -31.7307 H   0  0  0  0  0  0  0  0  0  0  0  0
   -6.2725   17.2208  -30.7102 H   0  0  0  0  0  0  0  0  0  0  0  0
  1  2  2  3
  2  3  1  0
  3  4  2  0
  4  5  1  0
  5  6  1  0
  6  7  2  0
  7  8  1  0
  8  9  2  0
  8 10  2  0
  8 11  1  0
 11 12  1  0
 12 13  2  0
 13 14  1  0
 14 15  2  0
 15 16  1  0
 16 17  2  0
 16 18  1  0
 18 19  2  0
 18 20  1  0
 20 21  1  0
 21 22  1  0
 22 23  2  0
 23 24  1  0
 24 25  2  0
 25 26  1  0
 26 27  2  0
 20 28  1  0
 28 29  2  0
  7  2  1  0
 17 12  1  0
 27 22  1  0
 28 15  1  0
  1 30  1  0
  3 31  1  0
  4 32  1  0
  6 33  1  0
 13 34  1  0
 14 35  1  0
 17 36  1  0
 20 37  1  6
 21 38  1  0
 21 39  1  0
 23 40  1  0
 24 41  1  0
 26 42  1  0
 27 43  1  0
M  CHG  3   5  -1  11  -1  20   1
M  END
>  <UniqueID>  (8) 
7

>  <SMILES>  (8) 
N=c1cc[n-]cc1S(=O)(=O)[N-]c1ccc2c(c1)C(=O)[N@@H+](Cc1ccncc1)C2=O

>  <Energy>  (8) 
81.96683447744698

>  <Genealogy>  (8) 
N=c1cc[n-]cc1S(=O)(=O)[N-]c1ccc2c(c1)C(=O)[NH+](Cc1ccncc1)C2=O (protonated)
N=c1cc[n-]cc1S(=O)(=O)[N-]c1ccc2c(c1)C(=O)[N@@H+](Cc1ccncc1)C2=O (chirality)
N=c1cc[n-]cc1S(=O)(=O)[N-]c1ccc2c(c1)C(=O)[N@@H+](Cc1ccncc1)C2=O (3D coordinates assigned)
N=c1cc[n-]cc1S(=O)(=O)[N-]c1ccc2c(c1)C(=O)[N@@H+](Cc1ccncc1)C2=O (nonaromatic ring conformer: 81.96683447744698 kcal/mol)

>  <smiles>  (8) 
N=c1cc[nH]cc1S(=O)(=O)Nc1ccc2c(c1)C(=O)N(Cc1ccncc1)C2=O

>  <score_type>  (8) 
oracle

>  <origin>  (8) 
adgpu

>  <m_score__min__energy>  (8) 
-10.59

>  <m_primary>  (8) 
energy

$$$$
8:0
     RDKit          3D

 48 50  0  0  0  0  0  0  0  0999 V2000
   -6.0900   19.3900  -33.7080 C   0  0  0  0  0  0  0  0  0  0  0  0
   -6.8500   20.2610  -32.7520 C   0  0  0  0  0  0  0  0  0  0  0  0
   -8.1600   19.9250  -32.3790 C   0  0  0  0  0  0  0  0  0  0  0  0
   -8.8780   20.7520  -31.5100 C   0  0  0  0  0  0  0  0  0  0  0  0
   -8.3020   21.9270  -31.0230 C   0  0  0  0  0  0  0  0  0  0  0  0
   -7.0050   22.2940  -31.4170 C   0  0  0  0  0  0  0  0  0  0  0  0
   -6.3760   23.5440  -30.8720 C   0  0  0  0  0  0  0  0  0  0  0  0
   -5.3520   23.1770  -29.8970 N   0  0  0  0  0  0  0  0  0  0  0  0
   -3.8100   23.8050  -30.3910 S   0  0  0  0  0  0  0  0  0  0  0  0
   -3.4160   23.1570  -31.6890 O   0  0  0  0  0  0  0  0  0  0  0  0
   -3.9100   25.2880  -30.6210 O   0  0  0  0  0  0  0  0  0  0  0  0
   -2.5810   23.4430  -29.1740 C   0  0  0  0  0  0  0  0  0  0  0  0
   -2.5790   22.1800  -28.5630 C   0  0  0  0  0  0  0  0  0  0  0  0
   -1.6240   21.8610  -27.5880 C   0  0  0  0  0  0  0  0  0  0  0  0
   -1.6210   20.2640  -26.8350 S   0  0  0  0  0  0  0  0  0  0  0  0
   -2.8910   19.5450  -27.1950 O   0  0  0  0  0  0  0  0  0  0  0  0
   -1.5860   20.4260  -25.3400 O   0  0  0  0  0  0  0  0  0  0  0  0
   -0.2510   19.3090  -27.3420 N   0  0  0  0  0  0  0  0  0  0  0  0
    0.0720   19.5770  -28.7510 C   0  0  0  0  0  0  0  0  0  0  0  0
    1.2950   18.7390  -29.1790 C   0  0  0  0  0  0  0  0  0  0  0  0
    1.6900   17.8150  -28.1790 O   0  0  0  0  0  0  0  0  0  0  0  0
    0.5850   17.0190  -27.7990 C   0  0  0  0  0  0  0  0  0  0  0  0
   -0.5220   17.8740  -27.1490 C   0  0  0  0  0  0  0  0  0  0  0  0
   -0.6710   22.8170  -27.2150 C   0  0  0  0  0  0  0  0  0  0  0  0
   -0.6730   24.0810  -27.8100 C   0  0  0  0  0  0  0  0  0  0  0  0
   -1.6240   24.4000  -28.7830 C   0  0  0  0  0  0  0  0  0  0  0  0
   -1.6130   25.6710  -29.3480 O   0  0  0  0  0  0  0  0  0  0  0  0
   -6.2800   21.4530  -32.2760 C   0  0  0  0  0  0  0  0  0  0  0  0
   -5.4697   18.6791  -33.1425 H   0  0  0  0  0  0  0  0  0  0  0  0
   -6.7982   18.8356  -34.3413 H   0  0  0  0  0  0  0  0  0  0  0  0
   -5.4448   20.0166  -34.3413 H   0  0  0  0  0  0  0  0  0  0  0  0
   -8.6237   19.0080  -32.7715 H   0  0  0  0  0  0  0  0  0  0  0  0
   -9.8995   20.4762  -31.2091 H   0  0  0  0  0  0  0  0  0  0  0  0
   -8.8659   22.5672  -30.3286 H   0  0  0  0  0  0  0  0  0  0  0  0
   -5.9158   24.1131  -31.6932 H   0  0  0  0  0  0  0  0  0  0  0  0
   -7.1440   24.1648  -30.3874 H   0  0  0  0  0  0  0  0  0  0  0  0
   -3.3336   21.4335  -28.8517 H   0  0  0  0  0  0  0  0  0  0  0  0
   -0.7904   19.3108  -29.3797 H   0  0  0  0  0  0  0  0  0  0  0  0
    0.3052   20.6452  -28.8718 H   0  0  0  0  0  0  0  0  0  0  0  0
    1.0406   18.1833  -30.0936 H   0  0  0  0  0  0  0  0  0  0  0  0
    2.1338   19.4300  -29.3493 H   0  0  0  0  0  0  0  0  0  0  0  0
    0.1770   16.5222  -28.6916 H   0  0  0  0  0  0  0  0  0  0  0  0
    0.9277   16.2760  -27.0638 H   0  0  0  0  0  0  0  0  0  0  0  0
   -1.4891   17.6238  -27.6096 H   0  0  0  0  0  0  0  0  0  0  0  0
   -0.5470   17.6603  -26.0702 H   0  0  0  0  0  0  0  0  0  0  0  0
    0.0815   22.5719  -26.4511 H   0  0  0  0  0  0  0  0  0  0  0  0
    0.0770   24.8282  -27.5114 H   0  0  0  0  0  0  0  0  0  0  0  0
   -5.2591   21.7294  -32.5781 H   0  0  0  0  0  0  0  0  0  0  0  0
  1  2  1  0
  2  3  2  0
  3  4  1  0
  4  5  2  0
  5  6  1  0
  6  7  1  0
  7  8  1  0
  8  9  1  0
  9 10  2  0
  9 11  2  0
  9 12  1  0
 12 13  2  0
 13 14  1  0
 14 15  1  0
 15 16  2  0
 15 17  2  0
 15 18  1  0
 18 19  1  0
 19 20  1  0
 20 21  1  0
 21 22  1  0
 22 23  1  0
 14 24  2  0
 24 25  1  0
 25 26  2  0
 26 27  1  0
  6 28  2  0
 28  2  1  0
 26 12  1  0
 23 18  1  0
  1 29  1  0
  1 30  1  0
  1 31  1  0
  3 32  1  0
  4 33  1  0
  5 34  1  0
  7 35  1  0
  7 36  1  0
 13 37  1  0
 19 38  1  0
 19 39  1  0
 20 40  1  0
 20 41  1  0
 22 42  1  0
 22 43  1  0
 23 44  1  0
 23 45  1  0
 24 46  1  0
 25 47  1  0
 28 48  1  0
M  CHG  2   8  -1  27  -1
M  END
>  <UniqueID>  (9) 
8

>  <SMILES>  (9) 
Cc1cccc(C[N-]S(=O)(=O)c2cc(S(=O)(=O)N3CCOCC3)ccc2[O-])c1

>  <Energy>  (9) 
54.10063140546952

>  <Genealogy>  (9) 
Cc1cccc(C[N-]S(=O)(=O)c2cc(S(=O)(=O)N3CCOCC3)ccc2[O-])c1 (protonated)
Cc1cccc(C[N-]S(=O)(=O)c2cc(S(=O)(=O)N3CCOCC3)ccc2[O-])c1 (3D coordinates assigned)
Cc1cccc(C[N-]S(=O)(=O)c2cc(S(=O)(=O)N3CCOCC3)ccc2[O-])c1 (nonaromatic ring conformer: 54.10063140546952 kcal/mol)

>  <smiles>  (9) 
Cc1cccc(CNS(=O)(=O)c2cc(S(=O)(=O)N3CCOCC3)ccc2O)c1

>  <score_type>  (9) 
oracle

>  <origin>  (9) 
adgpu

>  <m_score__min__energy>  (9) 
-13.529999999999999

>  <m_primary>  (9) 
energy

$$$$
9:0
     RDKit          3D

 43 45  0  0  0  0  0  0  0  0999 V2000
   -2.1816   22.6328  -29.5455 H   0  0  0  0  0  0  0  0  0  0  0  0
   -2.2730   23.5790  -28.9920 C   0  0  0  0  0  0  0  0  0  0  0  0
   -3.3960   24.2340  -29.0290 N   0  0  0  0  0  0  0  0  0  0  0  0
   -4.5910   23.8470  -29.7300 C   0  0  0  0  0  0  0  0  0  0  0  0
   -4.8460   24.2110  -31.0680 C   0  0  0  0  0  0  0  0  0  0  0  0
   -4.1187   24.8286  -31.6154 H   0  0  0  0  0  0  0  0  0  0  0  0
   -6.0180   23.7910  -31.7020 C   0  0  0  0  0  0  0  0  0  0  0  0
   -6.2128   24.0875  -32.7432 H   0  0  0  0  0  0  0  0  0  0  0  0
   -6.9470   22.9940  -31.0190 C   0  0  0  0  0  0  0  0  0  0  0  0
   -8.4170   22.4450  -31.8300 S   0  0  0  0  0  0  0  0  0  0  0  0
   -9.4700   22.1480  -30.7990 O   0  0  0  0  0  0  0  0  0  0  0  0
   -8.9320   23.5450  -32.7170 O   0  0  0  0  0  0  0  0  0  0  0  0
   -8.1260   21.0110  -32.7870 N   0  0  0  0  0  0  0  0  0  0  0  0
   -9.1650   19.9780  -32.5530 C   0  0  0  0  0  0  0  0  0  0  0  0
  -10.0330   20.4560  -32.0753 H   0  0  0  0  0  0  0  0  0  0  0  0
   -9.4215   19.5426  -33.5301 H   0  0  0  0  0  0  0  0  0  0  0  0
   -8.6810   18.8320  -31.6530 C   0  0  0  0  0  0  0  0  0  0  0  0
   -8.4203   19.2378  -30.6644 H   0  0  0  0  0  0  0  0  0  0  0  0
   -9.4896   18.0911  -31.5673 H   0  0  0  0  0  0  0  0  0  0  0  0
   -7.4460   18.1380  -32.2520 C   0  0  0  0  0  0  0  0  0  0  0  0
   -6.8434   17.7225  -31.4309 H   0  0  0  0  0  0  0  0  0  0  0  0
   -7.8050   17.3518  -32.9325 H   0  0  0  0  0  0  0  0  0  0  0  0
   -6.5650   19.0950  -33.0730 C   0  0  0  0  0  0  0  0  0  0  0  0
   -5.5113   18.8006  -32.9586 H   0  0  0  0  0  0  0  0  0  0  0  0
   -6.8713   19.0336  -34.1277 H   0  0  0  0  0  0  0  0  0  0  0  0
   -6.7340   20.5420  -32.6010 C   0  0  0  0  0  0  0  0  0  0  0  0
   -6.4753   20.6030  -31.5336 H   0  0  0  0  0  0  0  0  0  0  0  0
   -6.0697   21.1819  -33.2004 H   0  0  0  0  0  0  0  0  0  0  0  0
   -6.6930   22.6260  -29.6920 C   0  0  0  0  0  0  0  0  0  0  0  0
   -7.4195   22.0051  -29.1473 H   0  0  0  0  0  0  0  0  0  0  0  0
   -5.5210   23.0440  -29.0570 C   0  0  0  0  0  0  0  0  0  0  0  0
   -5.3264   22.7396  -28.0180 H   0  0  0  0  0  0  0  0  0  0  0  0
   -1.1110   24.0850  -28.2160 C   0  0  0  0  0  0  0  0  0  0  0  0
   -0.8240   25.4690  -28.2280 C   0  0  0  0  0  0  0  0  0  0  0  0
   -1.6150   26.3540  -28.9520 O   0  0  0  0  0  0  0  0  0  0  0  0
    0.2630   25.9720  -27.5070 C   0  0  0  0  0  0  0  0  0  0  0  0
    0.4770   27.0509  -27.5224 H   0  0  0  0  0  0  0  0  0  0  0  0
    1.0770   25.1150  -26.7690 C   0  0  0  0  0  0  0  0  0  0  0  0
    1.9302   25.5180  -26.2037 H   0  0  0  0  0  0  0  0  0  0  0  0
    0.8100   23.7460  -26.7470 C   0  0  0  0  0  0  0  0  0  0  0  0
    1.4553   23.0723  -26.1642 H   0  0  0  0  0  0  0  0  0  0  0  0
   -0.2740   23.2250  -27.4620 C   0  0  0  0  0  0  0  0  0  0  0  0
   -0.5010   21.8530  -27.4130 O   0  0  0  0  0  0  0  0  0  0  0  0
  1  2  1  0
  2  3  2  0
  3  4  1  0
  4  5  2  0
  5  6  1  0
  5  7  1  0
  7  8  1  0
  7  9  2  0
  9 10  1  0
 10 11  2  0
 10 12  2  0
 10 13  1  0
 13 14  1  0
 14 15  1  0
 14 16  1  0
 14 17  1  0
 17 18  1  0
 17 19  1  0
 17 20  1  0
 20 21  1  0
 20 22  1  0
 20 23  1  0
 23 24  1  0
 23 25  1  0
 23 26  1  0
 26 27  1  0
 26 28  1  0
  9 29  1  0
 29 30  1  0
 29 31  2  0
 31 32  1  0
  2 33  1  0
 33 34  2  0
 34 35  1  0
 34 36  1  0
 36 37  1  0
 36 38  2  0
 38 39  1  0
 38 40  1  0
 40 41  1  0
 40 42  2  0
 42 43  1  0
 31  4  1  0
 42 33  1  0
 26 13  1  0
M  CHG  2  35  -1  43  -1
M  END
>  <UniqueID>  (10) 
9

>  <SMILES>  (10) 
O=S(=O)(c1ccc(/N=C/c2c([O-])cccc2[O-])cc1)N1CCCCC1

>  <Energy>  (10) 
54.700110230429914

>  <Genealogy>  (10) 
O=S(=O)(c1ccc(N=Cc2c([O-])cccc2[O-])cc1)N1CCCCC1 (protonated)
O=S(=O)(c1ccc(/N=C/c2c([O-])cccc2[O-])cc1)N1CCCCC1 (cis-trans isomerization)
O=S(=O)(c1ccc(/N=C/c2c([O-])cccc2[O-])cc1)N1CCCCC1 (3D coordinates assigned)
O=S(=O)(c1ccc(/N=C/c2c([O-])cccc2[O-])cc1)N1CCCCC1 (nonaromatic ring conformer: 54.700110230429914 kcal/mol)

>  <smiles>  (10) 
O=S(=O)(c1ccc(N=Cc2c(O)cccc2O)cc1)N1CCCCC1

>  <score_type>  (10) 
oracle

>  <origin>  (10) 
adgpu

>  <m_score__min__energy>  (10) 
-11.550000000000001

>  <m_primary>  (10) 
energy

$$$$
10:0
     RDKit          3D

 49 52  0  0  0  0  0  0  0  0999 V2000
   -3.4750   20.2230  -27.5440 O   0  0  0  0  0  0  0  0  0  0  0  0
   -2.5330   20.8810  -28.0650 C   0  0  0  0  0  0  0  0  0  0  0  0
   -2.8570   22.1220  -28.8010 C   0  0  0  0  0  0  0  0  0  0  0  0
   -2.3760   23.3620  -28.3570 C   0  0  0  0  0  0  0  0  0  0  0  0
   -2.7010   24.5320  -29.0500 C   0  0  0  0  0  0  0  0  0  0  0  0
   -3.5020   24.4770  -30.1970 C   0  0  0  0  0  0  0  0  0  0  0  0
   -3.8410   25.6610  -30.8420 O   0  0  0  0  0  0  0  0  0  0  0  0
   -3.9880   23.2360  -30.6610 C   0  0  0  0  0  0  0  0  0  0  0  0
   -4.8400   23.1420  -31.8160 N   0  0  0  0  0  0  0  0  0  0  0  0
   -6.5610   22.9630  -31.6880 S   0  0  0  0  0  0  0  0  0  0  0  0
   -7.2300   23.8620  -32.6920 O   0  0  0  0  0  0  0  0  0  0  0  0
   -7.0080   23.3620  -30.3080 O   0  0  0  0  0  0  0  0  0  0  0  0
   -7.0110   21.2990  -32.0040 C   0  0  0  0  0  0  0  0  0  0  0  0
   -8.2070   20.7010  -31.6380 C   0  0  0  0  0  0  0  0  0  0  0  0
   -8.2780   19.3520  -32.0070 C   0  0  0  0  0  0  0  0  0  0  0  0
   -7.1390   18.8920  -32.6580 C   0  0  0  0  0  0  0  0  0  0  0  0
   -6.0420   20.1630  -32.7750 S   0  0  0  0  0  0  0  0  0  0  0  0
   -3.6830   22.0710  -29.9390 C   0  0  0  0  0  0  0  0  0  0  0  0
   -1.1790   20.3940  -27.9660 N   0  0  0  0  0  0  0  0  0  0  0  0
   -0.7980   19.4850  -26.8750 C   0  0  0  0  0  0  0  0  0  0  0  0
   -0.3500   18.1460  -27.4650 C   0  0  0  0  0  0  0  0  0  0  0  0
    0.6300   18.3420  -28.5450 N   0  0  0  0  0  0  0  0  0  0  0  0
    1.2810   17.1810  -29.0990 C   0  0  0  0  0  0  0  0  0  0  0  0
    0.6270   16.1100  -29.2360 O   0  0  0  0  0  0  0  0  0  0  0  0
    2.7040   17.2060  -29.4860 C   0  0  0  0  0  0  0  0  0  0  0  0
    3.7760   17.2660  -28.6100 C   0  0  0  0  0  0  0  0  0  0  0  0
    4.9000   17.2850  -29.4060 C   0  0  0  0  0  0  0  0  0  0  0  0
    4.4520   17.2310  -30.7090 C   0  0  0  0  0  0  0  0  0  0  0  0
    3.1390   17.1840  -30.7250 O   0  0  0  0  0  0  0  0  0  0  0  0
    0.9980   19.7020  -28.9760 C   0  0  0  0  0  0  0  0  0  0  0  0
   -0.2510   20.5890  -29.0930 C   0  0  0  0  0  0  0  0  0  0  0  0
   -1.7408   23.4144  -27.4604 H   0  0  0  0  0  0  0  0  0  0  0  0
   -2.3250   25.5017  -28.6918 H   0  0  0  0  0  0  0  0  0  0  0  0
   -4.4630   23.4330  -32.7450 H   0  0  0  0  0  0  0  0  0  0  0  0
   -9.0155   21.2307  -31.1128 H   0  0  0  0  0  0  0  0  0  0  0  0
   -9.1520   18.7166  -31.8013 H   0  0  0  0  0  0  0  0  0  0  0  0
   -6.9814   17.8701  -33.0332 H   0  0  0  0  0  0  0  0  0  0  0  0
   -4.0953   21.1055  -30.2674 H   0  0  0  0  0  0  0  0  0  0  0  0
    0.0283   19.9278  -26.2996 H   0  0  0  0  0  0  0  0  0  0  0  0
   -1.6602   19.3249  -26.2109 H   0  0  0  0  0  0  0  0  0  0  0  0
    0.1083   17.5391  -26.6703 H   0  0  0  0  0  0  0  0  0  0  0  0
   -1.2312   17.6368  -27.8823 H   0  0  0  0  0  0  0  0  0  0  0  0
    3.7375   17.2928  -27.5110 H   0  0  0  0  0  0  0  0  0  0  0  0
    5.9461   17.3336  -29.0694 H   0  0  0  0  0  0  0  0  0  0  0  0
    5.0965   17.2278  -31.6004 H   0  0  0  0  0  0  0  0  0  0  0  0
    1.6855   20.1414  -28.2383 H   0  0  0  0  0  0  0  0  0  0  0  0
    1.4840   19.6424  -29.9610 H   0  0  0  0  0  0  0  0  0  0  0  0
    0.0636   21.6428  -29.1147 H   0  0  0  0  0  0  0  0  0  0  0  0
   -0.7783   20.3097  -30.0171 H   0  0  0  0  0  0  0  0  0  0  0  0
  1  2  2  0
  2  3  1  0
  3  4  2  0
  4  5  1  0
  5  6  2  0
  6  7  1  0
  6  8  1  0
  8  9  1  0
  9 10  1  0
 10 11  2  0
 10 12  2  0
 10 13  1  0
 13 14  2  0
 14 15  1  0
 15 16  2  0
 16 17  1  0
  8 18  2  0
  2 19  1  0
 19 20  1  0
 20 21  1  0
 21 22  1  0
 22 23  1  0
 23 24  2  0
 23 25  1  0
 25 26  2  0
 26 27  1  0
 27 28  2  0
 28 29  1  0
 22 30  1  0
 30 31  1  0
 18  3  1  0
 31 19  1  0
 17 13  1  0
 29 25  1  0
  4 32  1  0
  5 33  1  0
  9 34  1  0
 14 35  1  0
 15 36  1  0
 16 37  1  0
 18 38  1  0
 20 39  1  0
 20 40  1  0
 21 41  1  0
 21 42  1  0
 26 43  1  0
 27 44  1  0
 28 45  1  0
 30 46  1  0
 30 47  1  0
 31 48  1  0
 31 49  1  0
M  CHG  1   7  -1
M  END
>  <UniqueID>  (11) 
10

>  <SMILES>  (11) 
O=C(c1ccc([O-])c(NS(=O)(=O)c2cccs2)c1)N1CCN(C(=O)c2ccco2)CC1

>  <Energy>  (11) 
118.5583523065895

>  <Genealogy>  (11) 
O=C(c1ccc([O-])c(NS(=O)(=O)c2cccs2)c1)N1CCN(C(=O)c2ccco2)CC1 (protonated)
O=C(c1ccc([O-])c(NS(=O)(=O)c2cccs2)c1)N1CCN(C(=O)c2ccco2)CC1 (3D coordinates assigned)
O=C(c1ccc([O-])c(NS(=O)(=O)c2cccs2)c1)N1CCN(C(=O)c2ccco2)CC1 (nonaromatic ring conformer: 118.5583523065895 kcal/mol)

>  <smiles>  (11) 
O=C(c1ccc(O)c(NS(=O)(=O)c2cccs2)c1)N1CCN(C(=O)c2ccco2)CC1

>  <score_type>  (11) 
oracle

>  <origin>  (11) 
adgpu

>  <m_score__min__energy>  (11) 
-12.32

>  <m_primary>  (11) 
energy

$$$$
11:0
     RDKit          3D

 71 75  0  0  0  0  0  0  0  0999 V2000
    1.4570   27.5160  -23.3500 C   0  0  0  0  0  0  0  0  0  0  0  0
    2.1060   26.8370  -24.5630 C   0  0  0  0  0  0  0  0  0  0  0  0
    2.6720   25.4610  -24.1870 C   0  0  0  0  0  0  0  0  0  0  0  0
    1.1250   26.7320  -25.7220 C   0  0  0  0  0  0  0  0  0  0  0  0
    0.9050   25.4910  -26.3540 C   0  0  0  0  0  0  0  0  0  0  0  0
    0.0030   25.3680  -27.4240 C   0  0  0  0  0  0  0  0  0  0  0  0
   -0.1890   24.0420  -28.0540 C   0  0  0  0  0  0  0  0  0  0  0  0
   -1.0810   23.7720  -29.0300 N   0  0  0  0  0  0  0  0  0  0  0  0
   -0.8700   22.4550  -29.2390 C   0  0  0  0  0  0  0  0  0  0  0  0
   -1.5770   21.6670  -30.2750 C   0  0  0  0  0  0  0  0  0  0  0  0
   -1.0200   20.4420  -30.6790 C   0  0  0  0  0  0  0  0  0  0  0  0
   -1.6870   19.6180  -31.5870 C   0  0  0  0  0  0  0  0  0  0  0  0
   -2.9300   19.9990  -32.1160 C   0  0  0  0  0  0  0  0  0  0  0  0
   -3.6460   19.1180  -33.0730 C   0  0  0  0  0  0  0  0  0  0  0  0
   -4.8180   19.5600  -33.7100 C   0  0  0  0  0  0  0  0  0  0  0  0
   -5.4930   18.7290  -34.6070 C   0  0  0  0  0  0  0  0  0  0  0  0
   -5.0080   17.4490  -34.8780 C   0  0  0  0  0  0  0  0  0  0  0  0
   -3.8420   16.9910  -34.2500 C   0  0  0  0  0  0  0  0  0  0  0  0
   -3.1930   15.3930  -34.6080 S   0  0  0  0  0  0  0  0  0  0  0  0
   -3.8900   14.8010  -35.8020 O   0  0  0  0  0  0  0  0  0  0  0  0
   -3.4300   14.5030  -33.4200 O   0  0  0  0  0  0  0  0  0  0  0  0
   -1.4810   15.5330  -34.9250 N   0  0  0  0  0  0  0  0  0  0  0  0
   -0.7070   15.0900  -33.7470 C   0  0  0  0  0  0  0  0  0  0  0  0
   -0.7760   16.1220  -32.5960 C   0  0  0  0  0  0  0  0  0  0  0  0
    0.4300   17.0850  -32.5540 C   0  0  0  0  0  0  0  0  0  0  0  0
    0.5630   17.9530  -33.7510 N   0  0  0  0  0  0  0  0  0  0  0  0
    1.8430   18.6770  -33.7350 C   0  0  0  0  0  0  0  0  0  0  0  0
    0.3060   17.3200  -35.0670 C   0  0  0  0  0  0  0  0  0  0  0  0
   -1.1650   16.9190  -35.3210 C   0  0  0  0  0  0  0  0  0  0  0  0
   -3.1620   17.8280  -33.3550 C   0  0  0  0  0  0  0  0  0  0  0  0
   -3.4810   21.2330  -31.7340 C   0  0  0  0  0  0  0  0  0  0  0  0
   -2.8120   22.0800  -30.8360 C   0  0  0  0  0  0  0  0  0  0  0  0
   -3.3810   23.3670  -30.5570 N   0  0  0  0  0  0  0  0  0  0  0  0
    0.1070   21.9650  -28.4510 N   0  0  0  0  0  0  0  0  0  0  0  0
    0.4960   22.9710  -27.7300 O   0  0  0  0  0  0  0  0  0  0  0  0
   -0.6920   26.5110  -27.8670 C   0  0  0  0  0  0  0  0  0  0  0  0
   -1.5920   26.4410  -28.9260 O   0  0  0  0  0  0  0  0  0  0  0  0
   -0.4800   27.7430  -27.2450 C   0  0  0  0  0  0  0  0  0  0  0  0
    0.4180   27.8620  -26.1830 C   0  0  0  0  0  0  0  0  0  0  0  0
    0.6010   29.1090  -25.5940 O   0  0  0  0  0  0  0  0  0  0  0  0
    1.8685   27.0855  -22.4251 H   0  0  0  0  0  0  0  0  0  0  0  0
    1.6679   28.5952  -23.3776 H   0  0  0  0  0  0  0  0  0  0  0  0
    0.3693   27.3541  -23.3776 H   0  0  0  0  0  0  0  0  0  0  0  0
    2.9461   27.4659  -24.8927 H   0  0  0  0  0  0  0  0  0  0  0  0
    2.7106   25.3672  -23.0917 H   0  0  0  0  0  0  0  0  0  0  0  0
    2.0249   24.6731  -24.5999 H   0  0  0  0  0  0  0  0  0  0  0  0
    3.6862   25.3564  -24.5999 H   0  0  0  0  0  0  0  0  0  0  0  0
    1.4499   24.6024  -26.0027 H   0  0  0  0  0  0  0  0  0  0  0  0
   -0.0462   20.1284  -30.2747 H   0  0  0  0  0  0  0  0  0  0  0  0
   -1.2348   18.6623  -31.8905 H   0  0  0  0  0  0  0  0  0  0  0  0
   -5.2066   20.5676  -33.5007 H   0  0  0  0  0  0  0  0  0  0  0  0
   -6.4093   19.0845  -35.1011 H   0  0  0  0  0  0  0  0  0  0  0  0
   -5.5420   16.7982  -35.5860 H   0  0  0  0  0  0  0  0  0  0  0  0
   -1.1150   14.1322  -33.3920 H   0  0  0  0  0  0  0  0  0  0  0  0
    0.3454   14.9825  -34.0487 H   0  0  0  0  0  0  0  0  0  0  0  0
   -1.6924   16.7180  -32.7182 H   0  0  0  0  0  0  0  0  0  0  0  0
   -0.7676   15.5544  -31.6538 H   0  0  0  0  0  0  0  0  0  0  0  0
    0.3237   17.7314  -31.6703 H   0  0  0  0  0  0  0  0  0  0  0  0
    1.3324   16.4570  -32.5195 H   0  0  0  0  0  0  0  0  0  0  0  0
    2.1523   18.8520  -32.6940 H   0  0  0  0  0  0  0  0  0  0  0  0
    2.6092   18.0785  -34.2495 H   0  0  0  0  0  0  0  0  0  0  0  0
    1.7249   19.6420  -34.2495 H   0  0  0  0  0  0  0  0  0  0  0  0
    0.6070   18.0295  -35.8519 H   0  0  0  0  0  0  0  0  0  0  0  0
    0.8864   16.3857  -35.0781 H   0  0  0  0  0  0  0  0  0  0  0  0
   -1.8136   17.5994  -34.7497 H   0  0  0  0  0  0  0  0  0  0  0  0
   -1.3335   16.9888  -36.4058 H   0  0  0  0  0  0  0  0  0  0  0  0
   -2.2415   17.4728  -32.8687 H   0  0  0  0  0  0  0  0  0  0  0  0
   -4.4535   21.5413  -32.1454 H   0  0  0  0  0  0  0  0  0  0  0  0
   -4.4080   23.5000  -30.4360 H   0  0  0  0  0  0  0  0  0  0  0  0
   -2.7670   24.1770  -30.3170 H   0  0  0  0  0  0  0  0  0  0  0  0
   -1.0272   28.6303  -27.5961 H   0  0  0  0  0  0  0  0  0  0  0  0
  1  2  1  0
  2  3  1  0
  2  4  1  0
  4  5  2  0
  5  6  1  0
  6  7  1  0
  7  8  2  0
  8  9  1  0
  9 10  1  0
 10 11  2  0
 11 12  1  0
 12 13  2  0
 13 14  1  0
 14 15  2  0
 15 16  1  0
 16 17  2  0
 17 18  1  0
 18 19  1  0
 19 20  2  0
 19 21  2  0
 19 22  1  0
 22 23  1  0
 23 24  1  0
 24 25  1  0
 25 26  1  0
 26 27  1  0
 26 28  1  0
 28 29  1  0
 18 30  2  0
 13 31  1  0
 31 32  2  0
 32 33  1  0
  9 34  2  0
 34 35  1  0
  6 36  2  0
 36 37  1  0
 36 38  1  0
 38 39  2  0
 39 40  1  0
 39  4  1  0
 35  7  1  0
 32 10  1  0
 30 14  1  0
 29 22  1  0
  1 41  1  0
  1 42  1  0
  1 43  1  0
  2 44  1  0
  3 45  1  0
  3 46  1  0
  3 47  1  0
  5 48  1  0
 11 49  1  0
 12 50  1  0
 15 51  1  0
 16 52  1  0
 17 53  1  0
 23 54  1  0
 23 55  1  0
 24 56  1  0
 24 57  1  0
 25 58  1  0
 25 59  1  0
 27 60  1  0
 27 61  1  0
 27 62  1  0
 28 63  1  0
 28 64  1  0
 29 65  1  0
 29 66  1  0
 30 67  1  0
 31 68  1  0
 33 69  1  0
 33 70  1  0
 38 71  1  0
M  CHG  2  37  -1  40  -1
M  END
>  <UniqueID>  (12) 
11

>  <SMILES>  (12) 
CC(C)c1cc(-c2nc(-c3ccc(-c4cccc(S(=O)(=O)N5CCCN(C)CC5)c4)cc3N)no2)c([O-])cc1[O-]

>  <Energy>  (12) 
132.6235156440274

>  <Genealogy>  (12) 
CC(C)c1cc(-c2nc(-c3ccc(-c4cccc(S(=O)(=O)N5CCCN(C)CC5)c4)cc3N)no2)c([O-])cc1[O-] (protonated)
CC(C)c1cc(-c2nc(-c3ccc(-c4cccc(S(=O)(=O)N5CCCN(C)CC5)c4)cc3N)no2)c([O-])cc1[O-] (3D coordinates assigned)
CC(C)c1cc(-c2nc(-c3ccc(-c4cccc(S(=O)(=O)N5CCCN(C)CC5)c4)cc3N)no2)c([O-])cc1[O-] (nonaromatic ring conformer: 132.6235156440274 kcal/mol)

>  <smiles>  (12) 
CC(C)c1cc(-c2nc(-c3ccc(-c4cccc(S(=O)(=O)N5CCCN(C)CC5)c4)cc3N)no2)c(O)cc1O

>  <score_type>  (12) 
oracle

>  <origin>  (12) 
adgpu

>  <m_score__min__energy>  (12) 
-8.7699999999999996

>  <m_primary>  (12) 
energy

$$$$
12:0
     RDKit          3D

 58 61  0  0  0  0  0  0  0  0999 V2000
   -0.2340   21.0440  -31.6050 C   0  0  0  0  0  0  0  0  0  0  0  0
   -0.7630   19.7470  -32.1580 C   0  0  0  0  0  0  0  0  0  0  0  0
   -0.1510   18.5410  -31.7810 C   0  0  0  0  0  0  0  0  0  0  0  0
   -0.6130   17.3220  -32.2760 C   0  0  0  0  0  0  0  0  0  0  0  0
   -1.7010   17.2830  -33.1630 C   0  0  0  0  0  0  0  0  0  0  0  0
   -2.1770   16.0420  -33.7140 N   0  0  0  0  0  0  0  0  0  0  0  0
   -2.4530   14.8710  -32.9280 C   0  0  0  0  0  0  0  0  0  0  0  0
   -1.3910   14.2380  -32.2700 C   0  0  0  0  0  0  0  0  0  0  0  0
   -1.5980   13.0500  -31.5670 C   0  0  0  0  0  0  0  0  0  0  0  0
   -2.8730   12.4830  -31.5130 C   0  0  0  0  0  0  0  0  0  0  0  0
   -3.9460   13.1150  -32.1430 C   0  0  0  0  0  0  0  0  0  0  0  0
   -3.7600   14.3280  -32.8190 C   0  0  0  0  0  0  0  0  0  0  0  0
   -4.9160   14.9830  -33.3640 N   0  0  0  0  0  0  0  0  0  0  0  0
   -4.9190   16.2030  -34.1190 C   0  0  0  0  0  0  0  0  0  0  0  0
   -4.6020   16.1580  -35.3380 O   0  0  0  0  0  0  0  0  0  0  0  0
   -5.3080   17.5000  -33.5190 C   0  0  0  0  0  0  0  0  0  0  0  0
   -5.5550   18.6240  -34.3270 C   0  0  0  0  0  0  0  0  0  0  0  0
   -5.9550   19.8330  -33.7530 C   0  0  0  0  0  0  0  0  0  0  0  0
   -6.0990   19.9410  -32.3640 C   0  0  0  0  0  0  0  0  0  0  0  0
   -6.5930   21.4640  -31.6260 S   0  0  0  0  0  0  0  0  0  0  0  0
   -7.6060   21.1640  -30.5560 O   0  0  0  0  0  0  0  0  0  0  0  0
   -7.2240   22.3610  -32.6540 O   0  0  0  0  0  0  0  0  0  0  0  0
   -5.2010   22.2840  -30.9250 C   0  0  0  0  0  0  0  0  0  0  0  0
   -4.2150   21.5550  -30.2530 C   0  0  0  0  0  0  0  0  0  0  0  0
   -3.1110   22.2060  -29.7000 C   0  0  0  0  0  0  0  0  0  0  0  0
   -2.9670   23.6030  -29.8150 C   0  0  0  0  0  0  0  0  0  0  0  0
   -1.7840   24.2720  -29.2160 C   0  0  0  0  0  0  0  0  0  0  0  0
   -0.9340   23.6010  -28.5690 O   0  0  0  0  0  0  0  0  0  0  0  0
   -1.5880   25.6400  -29.3510 O   0  0  0  0  0  0  0  0  0  0  0  0
   -3.9590   24.3310  -30.5080 C   0  0  0  0  0  0  0  0  0  0  0  0
   -3.8660   25.7100  -30.6620 O   0  0  0  0  0  0  0  0  0  0  0  0
   -5.0650   23.6690  -31.0560 C   0  0  0  0  0  0  0  0  0  0  0  0
   -5.8240   18.8330  -31.5530 C   0  0  0  0  0  0  0  0  0  0  0  0
   -5.4240   17.6230  -32.1240 C   0  0  0  0  0  0  0  0  0  0  0  0
   -2.3410   18.4790  -33.5120 C   0  0  0  0  0  0  0  0  0  0  0  0
   -1.8910   19.7140  -33.0130 C   0  0  0  0  0  0  0  0  0  0  0  0
   -2.5900   20.9780  -33.4380 C   0  0  0  0  0  0  0  0  0  0  0  0
   -0.2490   21.0072  -30.5057 H   0  0  0  0  0  0  0  0  0  0  0  0
    0.7983   21.1969  -31.9527 H   0  0  0  0  0  0  0  0  0  0  0  0
   -0.8649   21.8753  -31.9527 H   0  0  0  0  0  0  0  0  0  0  0  0
    0.7025   18.5579  -31.0873 H   0  0  0  0  0  0  0  0  0  0  0  0
   -0.1227   16.3861  -31.9701 H   0  0  0  0  0  0  0  0  0  0  0  0
   -2.4230   16.0110  -34.7310 H   0  0  0  0  0  0  0  0  0  0  0  0
   -0.3848   14.6810  -32.3075 H   0  0  0  0  0  0  0  0  0  0  0  0
   -0.7564   12.5602  -31.0553 H   0  0  0  0  0  0  0  0  0  0  0  0
   -3.0317   11.5376  -30.9735 H   0  0  0  0  0  0  0  0  0  0  0  0
   -4.9456   12.6572  -32.1086 H   0  0  0  0  0  0  0  0  0  0  0  0
   -5.4325   18.5508  -35.4177 H   0  0  0  0  0  0  0  0  0  0  0  0
   -6.1577   20.7035  -34.3942 H   0  0  0  0  0  0  0  0  0  0  0  0
   -4.3098   20.4631  -30.1597 H   0  0  0  0  0  0  0  0  0  0  0  0
   -2.3450   21.6221  -29.1686 H   0  0  0  0  0  0  0  0  0  0  0  0
   -5.8331   24.2439  -31.5940 H   0  0  0  0  0  0  0  0  0  0  0  0
   -5.9236   18.9162  -30.4607 H   0  0  0  0  0  0  0  0  0  0  0  0
   -5.1985   16.7615  -31.4783 H   0  0  0  0  0  0  0  0  0  0  0  0
   -3.2091   18.4516  -34.1870 H   0  0  0  0  0  0  0  0  0  0  0  0
   -2.9019   21.5420  -32.5466 H   0  0  0  0  0  0  0  0  0  0  0  0
   -1.9034   21.5924  -34.0390 H   0  0  0  0  0  0  0  0  0  0  0  0
   -3.4754   20.7231  -34.0390 H   0  0  0  0  0  0  0  0  0  0  0  0
  1  2  1  0
  2  3  2  0
  3  4  1  0
  4  5  2  0
  5  6  1  0
  6  7  1  0
  7  8  2  0
  8  9  1  0
  9 10  2  0
 10 11  1  0
 11 12  2  0
 12 13  1  0
 13 14  1  0
 14 15  2  0
 14 16  1  0
 16 17  2  0
 17 18  1  0
 18 19  2  0
 19 20  1  0
 20 21  2  0
 20 22  2  0
 20 23  1  0
 23 24  2  0
 24 25  1  0
 25 26  2  0
 26 27  1  0
 27 28  2  0
 27 29  1  0
 26 30  1  0
 30 31  1  0
 30 32  2  0
 19 33  1  0
 33 34  2  0
  5 35  1  0
 35 36  2  0
 36 37  1  0
 36  2  1  0
 12  7  1  0
 34 16  1  0
 32 23  1  0
  1 38  1  0
  1 39  1  0
  1 40  1  0
  3 41  1  0
  4 42  1  0
  6 43  1  0
  8 44  1  0
  9 45  1  0
 10 46  1  0
 11 47  1  0
 17 48  1  0
 18 49  1  0
 24 50  1  0
 25 51  1  0
 32 52  1  0
 33 53  1  0
 34 54  1  0
 35 55  1  0
 37 56  1  0
 37 57  1  0
 37 58  1  0
M  CHG  3  13  -1  29  -1  31  -1
M  END
>  <UniqueID>  (13) 
12

>  <SMILES>  (13) 
Cc1ccc(Nc2ccccc2[N-]C(=O)c2ccc(S(=O)(=O)c3ccc(C(=O)[O-])c([O-])c3)cc2)cc1C

>  <Energy>  (13) 
80.57279970692034

>  <Genealogy>  (13) 
Cc1ccc(Nc2ccccc2[N-]C(=O)c2ccc(S(=O)(=O)c3ccc(C(=O)[O-])c([O-])c3)cc2)cc1C (protonated)
Cc1ccc(Nc2ccccc2[N-]C(=O)c2ccc(S(=O)(=O)c3ccc(C(=O)[O-])c([O-])c3)cc2)cc1C (3D coordinates assigned)
Cc1ccc(Nc2ccccc2[N-]C(=O)c2ccc(S(=O)(=O)c3ccc(C(=O)[O-])c([O-])c3)cc2)cc1C (optimized conformer: 80.57279970692034 kcal/mol)

>  <smiles>  (13) 
Cc1ccc(Nc2ccccc2NC(=O)c2ccc(S(=O)(=O)c3ccc(C(=O)O)c(O)c3)cc2)cc1C

>  <score_type>  (13) 
oracle

>  <origin>  (13) 
adgpu

>  <m_score__min__energy>  (13) 
-14.44

>  <m_primary>  (13) 
energy

$$$$
13:0
     RDKit          3D

 46 48  0  0  0  0  0  0  0  0999 V2000
   -2.5160   20.1250  -27.1640 C   0  0  0  0  0  0  0  0  0  0  0  0
   -2.4640   21.4890  -27.7840 C   0  0  0  0  0  0  0  0  0  0  0  0
   -1.2510   22.0250  -28.2380 C   0  0  0  0  0  0  0  0  0  0  0  0
   -1.2200   23.2890  -28.8320 C   0  0  0  0  0  0  0  0  0  0  0  0
   -2.3960   24.0340  -28.9680 C   0  0  0  0  0  0  0  0  0  0  0  0
   -2.3370   25.2980  -29.5440 O   0  0  0  0  0  0  0  0  0  0  0  0
   -3.6210   23.5120  -28.5120 C   0  0  0  0  0  0  0  0  0  0  0  0
   -4.8200   24.3010  -28.6110 N   0  0  0  0  0  0  0  0  0  0  0  0
   -5.5190   24.7460  -30.1370 S   0  0  0  0  0  0  0  0  0  0  0  0
   -6.5960   25.7680  -29.9180 O   0  0  0  0  0  0  0  0  0  0  0  0
   -4.4490   25.3350  -31.0150 O   0  0  0  0  0  0  0  0  0  0  0  0
   -6.2310   23.3220  -30.8910 C   0  0  0  0  0  0  0  0  0  0  0  0
   -5.5400   22.1020  -30.9140 C   0  0  0  0  0  0  0  0  0  0  0  0
   -6.1730   20.9460  -31.3810 C   0  0  0  0  0  0  0  0  0  0  0  0
   -7.5010   21.0000  -31.8250 C   0  0  0  0  0  0  0  0  0  0  0  0
   -8.3420   19.5250  -32.3010 S   0  0  0  0  0  0  0  0  0  0  0  0
   -8.7970   18.7970  -31.0670 O   0  0  0  0  0  0  0  0  0  0  0  0
   -9.5600   19.8840  -33.1050 O   0  0  0  0  0  0  0  0  0  0  0  0
   -7.3070   18.4690  -33.2350 N   0  0  0  0  0  0  0  0  0  0  0  0
   -6.3020   19.2500  -33.9720 C   0  0  0  0  0  0  0  0  0  0  0  0
   -5.2810   18.3130  -34.6540 C   0  0  0  0  0  0  0  0  0  0  0  0
   -5.6830   16.9600  -34.5600 O   0  0  0  0  0  0  0  0  0  0  0  0
   -5.7360   16.5660  -33.2000 C   0  0  0  0  0  0  0  0  0  0  0  0
   -6.6430   17.4910  -32.3620 C   0  0  0  0  0  0  0  0  0  0  0  0
   -8.1770   22.2280  -31.8370 C   0  0  0  0  0  0  0  0  0  0  0  0
   -7.5440   23.3820  -31.3740 C   0  0  0  0  0  0  0  0  0  0  0  0
   -3.6470   22.2250  -27.9460 C   0  0  0  0  0  0  0  0  0  0  0  0
   -2.5124   20.2200  -26.0681 H   0  0  0  0  0  0  0  0  0  0  0  0
   -3.4344   19.6113  -27.4845 H   0  0  0  0  0  0  0  0  0  0  0  0
   -1.6394   19.5429  -27.4845 H   0  0  0  0  0  0  0  0  0  0  0  0
   -0.3208   21.4486  -28.1262 H   0  0  0  0  0  0  0  0  0  0  0  0
   -0.2664   23.7003  -29.1945 H   0  0  0  0  0  0  0  0  0  0  0  0
   -5.4030   24.4600  -27.7600 H   0  0  0  0  0  0  0  0  0  0  0  0
   -4.4982   22.0543  -30.5641 H   0  0  0  0  0  0  0  0  0  0  0  0
   -5.6269   19.9913  -31.3999 H   0  0  0  0  0  0  0  0  0  0  0  0
   -6.8060   19.8558  -34.7394 H   0  0  0  0  0  0  0  0  0  0  0  0
   -5.7688   19.9013  -33.2639 H   0  0  0  0  0  0  0  0  0  0  0  0
   -5.1951   18.5884  -35.7155 H   0  0  0  0  0  0  0  0  0  0  0  0
   -4.3128   18.4240  -34.1438 H   0  0  0  0  0  0  0  0  0  0  0  0
   -6.1273   15.5395  -33.1432 H   0  0  0  0  0  0  0  0  0  0  0  0
   -4.7173   16.6285  -32.7896 H   0  0  0  0  0  0  0  0  0  0  0  0
   -7.4042   16.8861  -31.8475 H   0  0  0  0  0  0  0  0  0  0  0  0
   -6.0288   18.0256  -31.6224 H   0  0  0  0  0  0  0  0  0  0  0  0
   -9.2095   22.2820  -32.2125 H   0  0  0  0  0  0  0  0  0  0  0  0
   -8.0787   24.3432  -31.3885 H   0  0  0  0  0  0  0  0  0  0  0  0
   -4.6058   21.7906  -27.6267 H   0  0  0  0  0  0  0  0  0  0  0  0
  1  2  1  0
  2  3  2  0
  3  4  1  0
  4  5  2  0
  5  6  1  0
  5  7  1  0
  7  8  1  0
  8  9  1  0
  9 10  2  0
  9 11  2  0
  9 12  1  0
 12 13  2  0
 13 14  1  0
 14 15  2  0
 15 16  1  0
 16 17  2  0
 16 18  2  0
 16 19  1  0
 19 20  1  0
 20 21  1  0
 21 22  1  0
 22 23  1  0
 23 24  1  0
 15 25  1  0
 25 26  2  0
  7 27  2  0
 27  2  1  0
 26 12  1  0
 24 19  1  0
  1 28  1  0
  1 29  1  0
  1 30  1  0
  3 31  1  0
  4 32  1  0
  8 33  1  0
 13 34  1  0
 14 35  1  0
 20 36  1  0
 20 37  1  0
 21 38  1  0
 21 39  1  0
 23 40  1  0
 23 41  1  0
 24 42  1  0
 24 43  1  0
 25 44  1  0
 26 45  1  0
 27 46  1  0
M  CHG  1   6  -1
M  END
>  <UniqueID>  (14) 
13

>  <SMILES>  (14) 
Cc1ccc([O-])c(NS(=O)(=O)c2ccc(S(=O)(=O)N3CCOCC3)cc2)c1

>  <Energy>  (14) 
54.67568286411911

>  <Genealogy>  (14) 
Cc1ccc([O-])c(NS(=O)(=O)c2ccc(S(=O)(=O)N3CCOCC3)cc2)c1 (protonated)
Cc1ccc([O-])c(NS(=O)(=O)c2ccc(S(=O)(=O)N3CCOCC3)cc2)c1 (3D coordinates assigned)
Cc1ccc([O-])c(NS(=O)(=O)c2ccc(S(=O)(=O)N3CCOCC3)cc2)c1 (nonaromatic ring conformer: 54.67568286411911 kcal/mol)

>  <smiles>  (14) 
Cc1ccc(O)c(NS(=O)(=O)c2ccc(S(=O)(=O)N3CCOCC3)cc2)c1

>  <score_type>  (14) 
oracle

>  <origin>  (14) 
adgpu

>  <m_score__min__energy>  (14) 
-14.18

>  <m_primary>  (14) 
energy

$$$$
14:0
     RDKit          3D

 41 44  0  0  0  0  0  0  0  0999 V2000
   -4.1570   18.5570  -34.4860 O   0  0  0  0  0  0  0  0  0  0  0  0
   -4.6610   18.3320  -33.3510 C   0  0  0  0  0  0  0  0  0  0  0  0
   -4.6180   17.0090  -32.7960 N   0  0  0  0  0  0  0  0  0  0  0  0
   -3.9490   15.9000  -33.4700 C   0  0  0  0  0  0  0  0  0  0  0  0
   -4.0860   14.6490  -32.6630 C   0  0  0  0  0  0  0  0  0  0  0  0
   -3.6290   13.4000  -33.0290 C   0  0  0  0  0  0  0  0  0  0  0  0
   -3.9980   12.5570  -32.0030 C   0  0  0  0  0  0  0  0  0  0  0  0
   -4.6570   13.3420  -31.0780 C   0  0  0  0  0  0  0  0  0  0  0  0
   -4.6950   14.5860  -31.5010 O   0  0  0  0  0  0  0  0  0  0  0  0
   -5.3260   19.4300  -32.6130 C   0  0  0  0  0  0  0  0  0  0  0  0
   -4.5230   20.4460  -32.0730 C   0  0  0  0  0  0  0  0  0  0  0  0
   -5.1010   21.4820  -31.3190 C   0  0  0  0  0  0  0  0  0  0  0  0
   -4.2760   22.5640  -30.7230 C   0  0  0  0  0  0  0  0  0  0  0  0
   -2.9630   22.3230  -30.2720 C   0  0  0  0  0  0  0  0  0  0  0  0
   -2.2010   23.3590  -29.7220 C   0  0  0  0  0  0  0  0  0  0  0  0
   -2.7350   24.6460  -29.6230 C   0  0  0  0  0  0  0  0  0  0  0  0
   -1.9760   25.6740  -29.0750 O   0  0  0  0  0  0  0  0  0  0  0  0
   -4.0310   24.9000  -30.0760 C   0  0  0  0  0  0  0  0  0  0  0  0
   -4.7970   23.8690  -30.6280 C   0  0  0  0  0  0  0  0  0  0  0  0
   -6.4440   21.4780  -31.1100 N   0  0  0  0  0  0  0  0  0  0  0  0
   -7.2620   20.5240  -31.6220 C   0  0  0  0  0  0  0  0  0  0  0  0
   -8.6390   20.5950  -31.3820 C   0  0  0  0  0  0  0  0  0  0  0  0
   -9.4980   19.6400  -31.9290 C   0  0  0  0  0  0  0  0  0  0  0  0
   -8.9870   18.6150  -32.7250 C   0  0  0  0  0  0  0  0  0  0  0  0
   -7.6130   18.5290  -32.9690 C   0  0  0  0  0  0  0  0  0  0  0  0
   -6.7270   19.4710  -32.4060 C   0  0  0  0  0  0  0  0  0  0  0  0
   -5.0500   16.8310  -31.8610 H   0  0  0  0  0  0  0  0  0  0  0  0
   -4.4058   15.7467  -34.4588 H   0  0  0  0  0  0  0  0  0  0  0  0
   -2.8814   16.1396  -33.5834 H   0  0  0  0  0  0  0  0  0  0  0  0
   -3.0846   13.1330  -33.9468 H   0  0  0  0  0  0  0  0  0  0  0  0
   -3.8060   11.4760  -31.9348 H   0  0  0  0  0  0  0  0  0  0  0  0
   -5.0851   12.9813  -30.1311 H   0  0  0  0  0  0  0  0  0  0  0  0
   -3.4359   20.4317  -32.2405 H   0  0  0  0  0  0  0  0  0  0  0  0
   -2.5343   21.3132  -30.3530 H   0  0  0  0  0  0  0  0  0  0  0  0
   -1.1792   23.1599  -29.3667 H   0  0  0  0  0  0  0  0  0  0  0  0
   -4.4504   25.9139  -29.9984 H   0  0  0  0  0  0  0  0  0  0  0  0
   -5.8141   24.0786  -30.9908 H   0  0  0  0  0  0  0  0  0  0  0  0
   -9.0459   21.4061  -30.7602 H   0  0  0  0  0  0  0  0  0  0  0  0
  -10.5788   19.6960  -31.7320 H   0  0  0  0  0  0  0  0  0  0  0  0
   -9.6683   17.8707  -33.1629 H   0  0  0  0  0  0  0  0  0  0  0  0
   -7.2204   17.7213  -33.6043 H   0  0  0  0  0  0  0  0  0  0  0  0
  1  2  2  0
  2  3  1  0
  3  4  1  0
  4  5  1  0
  5  6  2  0
  6  7  1  0
  7  8  2  0
  8  9  1  0
  2 10  1  0
 10 11  2  0
 11 12  1  0
 12 13  1  0
 13 14  2  0
 14 15  1  0
 15 16  2  0
 16 17  1  0
 16 18  1  0
 18 19  2  0
 12 20  2  0
 20 21  1  0
 21 22  2  0
 22 23  1  0
 23 24  2  0
 24 25  1  0
 25 26  2  0
  9  5  1  0
 26 10  1  0
 19 13  1  0
 26 21  1  0
  3 27  1  0
  4 28  1  0
  4 29  1  0
  6 30  1  0
  7 31  1  0
  8 32  1  0
 11 33  1  0
 14 34  1  0
 15 35  1  0
 18 36  1  0
 19 37  1  0
 22 38  1  0
 23 39  1  0
 24 40  1  0
 25 41  1  0
M  CHG  1  17  -1
M  END
>  <UniqueID>  (15) 
14

>  <SMILES>  (15) 
O=C(NCc1ccco1)c1cc(-c2ccc([O-])cc2)nc2ccccc12

>  <Energy>  (15) 
82.32789100107034

>  <Genealogy>  (15) 
O=C(NCc1ccco1)c1cc(-c2ccc([O-])cc2)nc2ccccc12 (protonated)
O=C(NCc1ccco1)c1cc(-c2ccc([O-])cc2)nc2ccccc12 (3D coordinates assigned)
O=C(NCc1ccco1)c1cc(-c2ccc([O-])cc2)nc2ccccc12 (optimized conformer: 82.32789100107034 kcal/mol)

>  <smiles>  (15) 
O=C(NCc1ccco1)c1cc(-c2ccc(O)cc2)nc2ccccc12

>  <score_type>  (15) 
oracle

>  <origin>  (15) 
adgpu

>  <m_score__min__energy>  (15) 
-10.34

>  <m_primary>  (15) 
energy

$$$$
15:0
     RDKit          3D

 35 36  0  0  0  0  0  0  0  0999 V2000
   -4.6120   26.3900  -30.4470 H   0  0  0  0  0  0  0  0  0  0  0  0
   -4.5050   25.4270  -30.8360 N   0  0  0  0  0  0  0  0  0  0  0  0
   -3.6090   24.5840  -30.4110 C   0  0  0  0  0  0  0  0  0  0  0  0
   -3.6230   23.3590  -30.9650 N   0  0  0  0  0  0  0  0  0  0  0  0
   -2.8310   22.2690  -30.8820 C   0  0  0  0  0  0  0  0  0  0  0  0
   -3.3170   21.0750  -31.6940 C   0  0  0  0  0  0  0  0  0  0  0  0
   -2.4817   20.3704  -31.8198 H   0  0  0  0  0  0  0  0  0  0  0  0
   -4.1537   20.6166  -31.1464 H   0  0  0  0  0  0  0  0  0  0  0  0
   -3.8320   21.4780  -33.0780 C   0  0  0  0  0  0  0  0  0  0  0  0
   -4.6938   22.1524  -32.9665 H   0  0  0  0  0  0  0  0  0  0  0  0
   -3.0326   21.9929  -33.6311 H   0  0  0  0  0  0  0  0  0  0  0  0
   -4.1396   20.5783  -33.6311 H   0  0  0  0  0  0  0  0  0  0  0  0
   -1.5500   22.2630  -30.2840 C   0  0  0  0  0  0  0  0  0  0  0  0
   -0.3740   20.9920  -30.8540 S   0  0  0  0  0  0  0  0  0  0  0  0
   -0.5670   19.9700  -29.3950 C   0  0  0  0  0  0  0  0  0  0  0  0
    0.4450   19.0630  -29.0570 C   0  0  0  0  0  0  0  0  0  0  0  0
    1.3560   19.0041  -29.6707 H   0  0  0  0  0  0  0  0  0  0  0  0
    0.3010   18.2330  -27.9430 C   0  0  0  0  0  0  0  0  0  0  0  0
    1.0921   17.5125  -27.6879 H   0  0  0  0  0  0  0  0  0  0  0  0
   -0.8490   18.3180  -27.1520 C   0  0  0  0  0  0  0  0  0  0  0  0
   -0.9517   17.6753  -26.2652 H   0  0  0  0  0  0  0  0  0  0  0  0
   -1.8720   19.2180  -27.4830 C   0  0  0  0  0  0  0  0  0  0  0  0
   -3.0820   19.3310  -26.6000 C   0  0  0  0  0  0  0  0  0  0  0  0
   -2.7704   19.3019  -25.5455 H   0  0  0  0  0  0  0  0  0  0  0  0
   -3.5973   20.2812  -26.8040 H   0  0  0  0  0  0  0  0  0  0  0  0
   -3.7643   18.4927  -26.8040 H   0  0  0  0  0  0  0  0  0  0  0  0
   -1.7310   20.0380  -28.6160 C   0  0  0  0  0  0  0  0  0  0  0  0
   -2.5360   20.7349  -28.8923 H   0  0  0  0  0  0  0  0  0  0  0  0
   -1.1240   23.1280  -29.2350 C   0  0  0  0  0  0  0  0  0  0  0  0
   -0.0270   22.8380  -28.5870 N   0  0  0  0  0  0  0  0  0  0  0  0
    0.6070   22.0270  -28.7430 H   0  0  0  0  0  0  0  0  0  0  0  0
   -1.7760   24.2930  -28.7740 C   0  0  0  0  0  0  0  0  0  0  0  0
   -1.3110   24.8350  -27.7290 O   0  0  0  0  0  0  0  0  0  0  0  0
   -2.8090   24.9420  -29.3750 N   0  0  0  0  0  0  0  0  0  0  0  0
   -3.0450   25.8570  -28.9280 H   0  0  0  0  0  0  0  0  0  0  0  0
  1  2  1  0
  2  3  2  3
  3  4  1  0
  4  5  1  0
  5  6  1  0
  6  7  1  0
  6  8  1  0
  6  9  1  0
  9 10  1  0
  9 11  1  0
  9 12  1  0
  5 13  2  0
 13 14  1  0
 14 15  1  0
 15 16  2  0
 16 17  1  0
 16 18  1  0
 18 19  1  0
 18 20  2  0
 20 21  1  0
 20 22  1  0
 22 23  1  0
 23 24  1  0
 23 25  1  0
 23 26  1  0
 22 27  2  0
 27 28  1  0
 13 29  1  0
 29 30  2  0
 30 31  1  0
 29 32  1  0
 32 33  2  0
 32 34  1  0
 34 35  1  0
 34  3  1  0
 27 15  1  0
M  CHG  1   4  -1
M  END
>  <UniqueID>  (16) 
15

>  <SMILES>  (16) 
[H]/N=c1\c(Sc2cccc(C)c2)c(CC)[n-]c(=N)[nH]c1=O

>  <Energy>  (16) 
69.1112153733477

>  <Genealogy>  (16) 
CCc1[n-]c(=N)[nH]c(=O)c(=N)c1Sc1cccc(C)c1 (protonated)
[H]/N=c1\c(Sc2cccc(C)c2)c(CC)[n-]c(=N)[nH]c1=O (cis-trans isomerization)
[H]/N=c1\c(Sc2cccc(C)c2)c(CC)[n-]c(=N)[nH]c1=O (3D coordinates assigned)
[H]/N=c1\c(Sc2cccc(C)c2)c(CC)[n-]c(=N)[nH]c1=O (optimized conformer: 69.1112153733477 kcal/mol)

>  <smiles>  (16) 
CCc1[nH]c(=N)[nH]c(=O)c(=N)c1Sc1cccc(C)c1

>  <score_type>  (16) 
oracle

>  <origin>  (16) 
adgpu

>  <m_score__min__energy>  (16) 
-8.4000000000000004

>  <m_primary>  (16) 
energy

$$$$
16:0
     RDKit          3D

 24 25  0  0  0  0  0  0  0  0999 V2000
   -3.2670   21.7130  -30.0280 C   0  0  0  0  0  0  0  0  0  0  0  0
   -3.1130   23.1150  -29.6440 N   0  0  0  0  0  0  0  0  0  0  0  0
   -1.8360   23.5640  -29.1650 C   0  0  0  0  0  0  0  0  0  0  0  0
   -1.2320   24.7870  -28.8910 C   0  0  0  0  0  0  0  0  0  0  0  0
   -1.5900   26.1290  -28.9630 O   0  0  0  0  0  0  0  0  0  0  0  0
   -0.0800   24.1320  -28.5100 C   0  0  0  0  0  0  0  0  0  0  0  0
    1.0490   24.4950  -28.0880 O   0  0  0  0  0  0  0  0  0  0  0  0
   -0.6700   22.9180  -28.7920 C   0  0  0  0  0  0  0  0  0  0  0  0
   -0.2980   21.7170  -28.7290 O   0  0  0  0  0  0  0  0  0  0  0  0
   -4.4430   24.2250  -29.8020 S   0  0  0  0  0  0  0  0  0  0  0  0
   -4.9360   24.6450  -28.4450 O   0  0  0  0  0  0  0  0  0  0  0  0
   -3.9800   25.4470  -30.5440 O   0  0  0  0  0  0  0  0  0  0  0  0
   -5.7550   23.4510  -30.6670 C   0  0  0  0  0  0  0  0  0  0  0  0
   -6.9950   23.1260  -30.1390 C   0  0  0  0  0  0  0  0  0  0  0  0
   -7.8370   22.5060  -31.0700 C   0  0  0  0  0  0  0  0  0  0  0  0
   -7.2600   22.3460  -32.3240 C   0  0  0  0  0  0  0  0  0  0  0  0
   -5.7010   22.9760  -32.2770 S   0  0  0  0  0  0  0  0  0  0  0  0
   -3.3354   21.0905  -29.1237 H   0  0  0  0  0  0  0  0  0  0  0  0
   -4.1835   21.5948  -30.6247 H   0  0  0  0  0  0  0  0  0  0  0  0
   -2.3980   21.3987  -30.6247 H   0  0  0  0  0  0  0  0  0  0  0  0
   -2.5570   26.4200  -28.9820 H   0  0  0  0  0  0  0  0  0  0  0  0
   -7.2864   23.3333  -29.0988 H   0  0  0  0  0  0  0  0  0  0  0  0
   -8.8590   22.1766  -30.8313 H   0  0  0  0  0  0  0  0  0  0  0  0
   -7.7413   21.8853  -33.1993 H   0  0  0  0  0  0  0  0  0  0  0  0
  1  2  1  0
  2  3  1  0
  3  4  2  0
  4  5  1  0
  4  6  1  0
  6  7  2  0
  6  8  1  0
  8  9  2  0
  2 10  1  0
 10 11  2  0
 10 12  2  0
 10 13  1  0
 13 14  2  0
 14 15  1  0
 15 16  2  0
 16 17  1  0
  8  3  1  0
 17 13  1  0
  1 18  1  0
  1 19  1  0
  1 20  1  0
  5 21  1  0
 14 22  1  0
 15 23  1  0
 16 24  1  0
M  END
>  <UniqueID>  (17) 
16

>  <SMILES>  (17) 
CN(c1c(O)c(=O)c1=O)S(=O)(=O)c1cccs1

>  <Energy>  (17) 
41.08492444999691

>  <Genealogy>  (17) 
CN(c1c(O)c(=O)c1=O)S(=O)(=O)c1cccs1 (3D coordinates assigned)
CN(c1c(O)c(=O)c1=O)S(=O)(=O)c1cccs1 (optimized conformer: 41.08492444999691 kcal/mol)

>  <smiles>  (17) 
CN(c1c(O)c(=O)c1=O)S(=O)(=O)c1cccs1

>  <score_type>  (17) 
oracle

>  <origin>  (17) 
adgpu

>  <m_score__min__energy>  (17) 
-7.1299999999999999

>  <m_primary>  (17) 
energy

$$$$
17:0
     RDKit          3D

 45 47  0  0  0  0  0  0  0  0999 V2000
   -4.6080   25.6430  -31.2160 O   0  0  0  0  0  0  0  0  0  0  0  0
   -5.4730   25.1490  -30.0900 S   0  0  0  0  0  0  0  0  0  0  0  0
   -6.3940   26.2570  -29.6560 O   0  0  0  0  0  0  0  0  0  0  0  0
   -4.4720   24.6830  -28.7510 N   0  0  0  0  0  0  0  0  0  0  0  0
   -3.3570   23.7850  -28.8880 C   0  0  0  0  0  0  0  0  0  0  0  0
   -3.5200   22.3940  -28.7370 C   0  0  0  0  0  0  0  0  0  0  0  0
   -2.4340   21.5310  -28.9060 C   0  0  0  0  0  0  0  0  0  0  0  0
   -1.1710   22.0430  -29.2070 C   0  0  0  0  0  0  0  0  0  0  0  0
   -0.9910   23.4230  -29.3370 C   0  0  0  0  0  0  0  0  0  0  0  0
   -2.0750   24.2930  -29.1770 C   0  0  0  0  0  0  0  0  0  0  0  0
   -1.8740   25.6610  -29.3240 O   0  0  0  0  0  0  0  0  0  0  0  0
   -6.3900   23.7540  -30.6480 C   0  0  0  0  0  0  0  0  0  0  0  0
   -6.2030   23.2830  -31.9540 C   0  0  0  0  0  0  0  0  0  0  0  0
   -6.8350   22.1110  -32.3760 C   0  0  0  0  0  0  0  0  0  0  0  0
   -7.6630   21.4030  -31.4970 C   0  0  0  0  0  0  0  0  0  0  0  0
   -8.3480   19.8610  -32.0040 S   0  0  0  0  0  0  0  0  0  0  0  0
   -9.3510   20.1120  -33.0950 O   0  0  0  0  0  0  0  0  0  0  0  0
   -9.0480   19.2020  -30.8460 O   0  0  0  0  0  0  0  0  0  0  0  0
   -7.0750   18.8220  -32.6000 N   0  0  0  0  0  0  0  0  0  0  0  0
   -6.5480   19.3530  -33.8780 C   0  0  0  0  0  0  0  0  0  0  0  0
   -5.1710   18.7680  -34.2040 C   0  0  0  0  0  0  0  0  0  0  0  0
   -4.1380   19.1520  -33.1310 C   0  0  0  0  0  0  0  0  0  0  0  0
   -4.7800   19.4370  -31.7620 C   0  0  0  0  0  0  0  0  0  0  0  0
   -6.0450   18.5910  -31.5550 C   0  0  0  0  0  0  0  0  0  0  0  0
   -7.8700   21.8850  -30.1980 C   0  0  0  0  0  0  0  0  0  0  0  0
   -7.2380   23.0580  -29.7750 C   0  0  0  0  0  0  0  0  0  0  0  0
   -4.6000   25.2120  -27.8590 H   0  0  0  0  0  0  0  0  0  0  0  0
   -4.5091   21.9842  -28.4843 H   0  0  0  0  0  0  0  0  0  0  0  0
   -2.5750   20.4451  -28.8015 H   0  0  0  0  0  0  0  0  0  0  0  0
   -0.3183   21.3613  -29.3418 H   0  0  0  0  0  0  0  0  0  0  0  0
    0.0064   23.8265  -29.5659 H   0  0  0  0  0  0  0  0  0  0  0  0
   -5.5563   23.8380  -32.6495 H   0  0  0  0  0  0  0  0  0  0  0  0
   -6.6817   21.7436  -33.4014 H   0  0  0  0  0  0  0  0  0  0  0  0
   -7.2467   19.0949  -34.6874 H   0  0  0  0  0  0  0  0  0  0  0  0
   -6.4454   20.4440  -33.7821 H   0  0  0  0  0  0  0  0  0  0  0  0
   -5.2486   17.6718  -34.2520 H   0  0  0  0  0  0  0  0  0  0  0  0
   -4.8385   19.1748  -35.1704 H   0  0  0  0  0  0  0  0  0  0  0  0
   -3.4231   18.3235  -33.0186 H   0  0  0  0  0  0  0  0  0  0  0  0
   -3.6420   20.0758  -33.4636 H   0  0  0  0  0  0  0  0  0  0  0  0
   -4.0554   19.1989  -30.9693 H   0  0  0  0  0  0  0  0  0  0  0  0
   -5.0615   20.4997  -31.7237 H   0  0  0  0  0  0  0  0  0  0  0  0
   -5.7623   17.5281  -31.5704 H   0  0  0  0  0  0  0  0  0  0  0  0
   -6.4835   18.8853  -30.5900 H   0  0  0  0  0  0  0  0  0  0  0  0
   -8.5315   21.3391  -29.5092 H   0  0  0  0  0  0  0  0  0  0  0  0
   -7.4063   23.4355  -28.7556 H   0  0  0  0  0  0  0  0  0  0  0  0
  1  2  2  0
  2  3  2  0
  2  4  1  0
  4  5  1  0
  5  6  2  0
  6  7  1  0
  7  8  2  0
  8  9  1  0
  9 10  2  0
 10 11  1  0
  2 12  1  0
 12 13  2  0
 13 14  1  0
 14 15  2  0
 15 16  1  0
 16 17  2  0
 16 18  2  0
 16 19  1  0
 19 20  1  0
 20 21  1  0
 21 22  1  0
 22 23  1  0
 23 24  1  0
 15 25  1  0
 25 26  2  0
 10  5  1  0
 26 12  1  0
 24 19  1  0
  4 27  1  0
  6 28  1  0
  7 29  1  0
  8 30  1  0
  9 31  1  0
 13 32  1  0
 14 33  1  0
 20 34  1  0
 20 35  1  0
 21 36  1  0
 21 37  1  0
 22 38  1  0
 22 39  1  0
 23 40  1  0
 23 41  1  0
 24 42  1  0
 24 43  1  0
 25 44  1  0
 26 45  1  0
M  CHG  1  11  -1
M  END
>  <UniqueID>  (18) 
17

>  <SMILES>  (18) 
O=S(=O)(Nc1ccccc1[O-])c1ccc(S(=O)(=O)N2CCCCC2)cc1

>  <Energy>  (18) 
54.34373400603843

>  <Genealogy>  (18) 
O=S(=O)(Nc1ccccc1[O-])c1ccc(S(=O)(=O)N2CCCCC2)cc1 (protonated)
O=S(=O)(Nc1ccccc1[O-])c1ccc(S(=O)(=O)N2CCCCC2)cc1 (3D coordinates assigned)
O=S(=O)(Nc1ccccc1[O-])c1ccc(S(=O)(=O)N2CCCCC2)cc1 (nonaromatic ring conformer: 54.34373400603843 kcal/mol)

>  <smiles>  (18) 
O=S(=O)(Nc1ccccc1O)c1ccc(S(=O)(=O)N2CCCCC2)cc1

>  <score_type>  (18) 
oracle

>  <origin>  (18) 
adgpu

>  <m_score__min__energy>  (18) 
-13.949999999999999

>  <m_primary>  (18) 
energy

$$$$
18:0
     RDKit          3D

 52 56  0  0  0  0  0  0  0  0999 V2000
   -6.8940   19.3060  -35.0250 H   0  0  0  0  0  0  0  0  0  0  0  0
   -6.1110   18.8750  -34.5520 O   0  0  0  0  0  0  0  0  0  0  0  0
   -5.2640   19.6410  -33.7870 N   0  0  0  0  0  0  0  0  0  0  0  0
   -5.6950   20.4670  -32.8840 C   0  0  0  0  0  0  0  0  0  0  0  0
   -7.0910   20.7050  -32.4640 C   0  0  0  0  0  0  0  0  0  0  0  0
   -8.3030   20.2130  -32.9590 C   0  0  0  0  0  0  0  0  0  0  0  0
   -8.3235   19.5230  -33.8155 H   0  0  0  0  0  0  0  0  0  0  0  0
   -9.4940   20.6220  -32.3350 C   0  0  0  0  0  0  0  0  0  0  0  0
  -10.4601   20.2494  -32.7063 H   0  0  0  0  0  0  0  0  0  0  0  0
   -9.4610   21.5060  -31.2370 C   0  0  0  0  0  0  0  0  0  0  0  0
  -10.4010   21.8170  -30.7579 H   0  0  0  0  0  0  0  0  0  0  0  0
   -8.2370   21.9920  -30.7510 C   0  0  0  0  0  0  0  0  0  0  0  0
   -8.2014   22.6801  -29.8935 H   0  0  0  0  0  0  0  0  0  0  0  0
   -7.0680   21.5770  -31.3870 C   0  0  0  0  0  0  0  0  0  0  0  0
   -5.6820   21.9140  -31.0980 C   0  0  0  0  0  0  0  0  0  0  0  0
   -5.2060   22.6870  -30.0920 N   0  0  0  0  0  0  0  0  0  0  0  0
   -3.8580   22.8620  -29.9420 C   0  0  0  0  0  0  0  0  0  0  0  0
   -3.3610   23.7130  -28.8300 C   0  0  0  0  0  0  0  0  0  0  0  0
   -4.1840   24.0480  -27.7390 C   0  0  0  0  0  0  0  0  0  0  0  0
   -5.2207   23.6817  -27.7052 H   0  0  0  0  0  0  0  0  0  0  0  0
   -3.6950   24.8430  -26.6970 C   0  0  0  0  0  0  0  0  0  0  0  0
   -4.3474   25.0944  -25.8478 H   0  0  0  0  0  0  0  0  0  0  0  0
   -2.3770   25.3210  -26.7300 C   0  0  0  0  0  0  0  0  0  0  0  0
   -1.8430   26.1410  -25.5930 C   0  0  0  0  0  0  0  0  0  0  0  0
   -2.1414   25.6827  -24.6386 H   0  0  0  0  0  0  0  0  0  0  0  0
   -0.7454   26.1807  -25.6533 H   0  0  0  0  0  0  0  0  0  0  0  0
   -2.2506   27.1609  -25.6533 H   0  0  0  0  0  0  0  0  0  0  0  0
   -1.5430   24.9640  -27.7990 C   0  0  0  0  0  0  0  0  0  0  0  0
   -0.4993   25.3107  -27.8182 H   0  0  0  0  0  0  0  0  0  0  0  0
   -2.0310   24.1700  -28.8400 C   0  0  0  0  0  0  0  0  0  0  0  0
   -1.3685   23.8997  -29.6755 H   0  0  0  0  0  0  0  0  0  0  0  0
   -2.9650   22.2150  -30.8350 C   0  0  0  0  0  0  0  0  0  0  0  0
   -1.8795   22.3392  -30.7072 H   0  0  0  0  0  0  0  0  0  0  0  0
   -3.4590   21.4140  -31.8850 C   0  0  0  0  0  0  0  0  0  0  0  0
   -2.5250   20.7660  -32.8280 C   0  0  0  0  0  0  0  0  0  0  0  0
   -2.5230   19.3700  -32.9740 C   0  0  0  0  0  0  0  0  0  0  0  0
   -3.2303   18.7579  -32.3951 H   0  0  0  0  0  0  0  0  0  0  0  0
   -1.6260   18.7540  -33.8520 C   0  0  0  0  0  0  0  0  0  0  0  0
   -1.6324   17.6597  -33.9637 H   0  0  0  0  0  0  0  0  0  0  0  0
   -0.7190   19.5260  -34.5900 C   0  0  0  0  0  0  0  0  0  0  0  0
    0.4200   18.7460  -35.6830 S   0  0  0  0  0  0  0  0  0  0  0  0
    0.4670   19.4920  -36.9860 O   0  0  0  0  0  0  0  0  0  0  0  0
    1.7940   18.7490  -35.0750 O   0  0  0  0  0  0  0  0  0  0  0  0
   -0.0970   17.0690  -35.9760 C   0  0  0  0  0  0  0  0  0  0  0  0
   -0.2539   16.5602  -35.0135 H   0  0  0  0  0  0  0  0  0  0  0  0
   -1.0367   17.0696  -36.5479 H   0  0  0  0  0  0  0  0  0  0  0  0
    0.6799   16.5404  -36.5479 H   0  0  0  0  0  0  0  0  0  0  0  0
   -0.7030   20.9170  -34.4290 C   0  0  0  0  0  0  0  0  0  0  0  0
    0.0171   21.5259  -34.9953 H   0  0  0  0  0  0  0  0  0  0  0  0
   -1.5980   21.5340  -33.5520 C   0  0  0  0  0  0  0  0  0  0  0  0
   -1.5769   22.6267  -33.4276 H   0  0  0  0  0  0  0  0  0  0  0  0
   -4.8500   21.2740  -31.9910 C   0  0  0  0  0  0  0  0  0  0  0  0
  1  2  1  0
  2  3  1  0
  3  4  2  0
  4  5  1  0
  5  6  2  0
  6  7  1  0
  6  8  1  0
  8  9  1  0
  8 10  2  0
 10 11  1  0
 10 12  1  0
 12 13  1  0
 12 14  2  0
 14 15  1  0
 15 16  2  0
 16 17  1  0
 17 18  1  0
 18 19  2  0
 19 20  1  0
 19 21  1  0
 21 22  1  0
 21 23  2  0
 23 24  1  0
 24 25  1  0
 24 26  1  0
 24 27  1  0
 23 28  1  0
 28 29  1  0
 28 30  2  0
 30 31  1  0
 17 32  2  0
 32 33  1  0
 32 34  1  0
 34 35  1  0
 35 36  2  0
 36 37  1  0
 36 38  1  0
 38 39  1  0
 38 40  2  0
 40 41  1  0
 41 42  2  0
 41 43  2  0
 41 44  1  0
 44 45  1  0
 44 46  1  0
 44 47  1  0
 40 48  1  0
 48 49  1  0
 48 50  2  0
 50 51  1  0
 34 52  2  0
 52  4  1  0
 14  5  1  0
 52 15  1  0
 30 18  1  0
 50 35  1  0
M  END
>  <UniqueID>  (19) 
18

>  <SMILES>  (19) 
Cc1ccc(-c2cc(-c3ccc(S(C)(=O)=O)cc3)c3c(n2)-c2ccccc2/C3=N\O)cc1

>  <Energy>  (19) 
101.27220225953857

>  <Genealogy>  (19) 
Cc1ccc(-c2cc(-c3ccc(S(C)(=O)=O)cc3)c3c(n2)-c2ccccc2/C3=N\O)cc1 (cis-trans isomerization)
Cc1ccc(-c2cc(-c3ccc(S(C)(=O)=O)cc3)c3c(n2)-c2ccccc2/C3=N\O)cc1 (3D coordinates assigned)
Cc1ccc(-c2cc(-c3ccc(S(C)(=O)=O)cc3)c3c(n2)-c2ccccc2/C3=N\O)cc1 (nonaromatic ring conformer: 101.27220225953857 kcal/mol)

>  <smiles>  (19) 
Cc1ccc(-c2cc(-c3ccc(S(C)(=O)=O)cc3)c3c(n2)-c2ccccc2C3=NO)cc1

>  <score_type>  (19) 
oracle

>  <origin>  (19) 
adgpu

>  <m_score__min__energy>  (19) 
-10.050000000000001

>  <m_primary>  (19) 
energy

$$$$
19:0
     RDKit          3D

 69 73  0  0  0  0  0  0  0  0999 V2000
   -1.4082   17.5092  -33.3950 H   0  0  0  0  0  0  0  0  0  0  0  0
   -1.7910   18.4150  -32.9020 C   0  0  0  0  0  0  0  0  0  0  0  0
   -1.1230   18.9460  -31.8470 N   0  0  0  0  0  0  0  0  0  0  0  0
   -1.5650   20.0720  -31.2320 C   0  0  0  0  0  0  0  0  0  0  0  0
   -0.9110   20.5370  -30.2090 N   0  0  0  0  0  0  0  0  0  0  0  0
   -1.2050   21.7430  -29.4850 C   0  0  0  0  0  0  0  0  0  0  0  0
   -1.6880   21.6470  -28.1780 C   0  0  0  0  0  0  0  0  0  0  0  0
   -1.8710   20.6564  -27.7362 H   0  0  0  0  0  0  0  0  0  0  0  0
   -1.9410   22.7980  -27.4260 C   0  0  0  0  0  0  0  0  0  0  0  0
   -2.3610   22.7082  -26.4133 H   0  0  0  0  0  0  0  0  0  0  0  0
   -1.6610   24.0730  -27.9580 C   0  0  0  0  0  0  0  0  0  0  0  0
   -1.9290   25.3380  -27.1590 C   0  0  0  0  0  0  0  0  0  0  0  0
   -2.9545   25.6665  -27.3837 H   0  0  0  0  0  0  0  0  0  0  0  0
   -1.8490   25.0460  -25.6500 C   0  0  0  0  0  0  0  0  0  0  0  0
   -2.7100   24.4287  -25.3541 H   0  0  0  0  0  0  0  0  0  0  0  0
   -0.9108   24.5119  -25.4391 H   0  0  0  0  0  0  0  0  0  0  0  0
   -1.8670   26.3560  -24.8500 C   0  0  0  0  0  0  0  0  0  0  0  0
   -2.8392   26.8459  -25.0074 H   0  0  0  0  0  0  0  0  0  0  0  0
   -1.6964   26.0917  -23.7959 H   0  0  0  0  0  0  0  0  0  0  0  0
   -0.7930   27.3080  -25.2390 N   0  0  0  0  0  0  0  0  0  0  0  0
    0.1480   27.5390  -24.1310 C   0  0  0  0  0  0  0  0  0  0  0  0
   -0.3758   27.4104  -23.1723 H   0  0  0  0  0  0  0  0  0  0  0  0
    0.9756   26.8174  -24.1963 H   0  0  0  0  0  0  0  0  0  0  0  0
    0.5474   28.5619  -24.1963 H   0  0  0  0  0  0  0  0  0  0  0  0
   -0.0540   26.9420  -26.4690 C   0  0  0  0  0  0  0  0  0  0  0  0
    0.5319   27.8093  -26.8073 H   0  0  0  0  0  0  0  0  0  0  0  0
    0.6075   26.0937  -26.2392 H   0  0  0  0  0  0  0  0  0  0  0  0
   -1.0160   26.5200  -27.5880 C   0  0  0  0  0  0  0  0  0  0  0  0
   -1.6494   27.3791  -27.8539 H   0  0  0  0  0  0  0  0  0  0  0  0
   -0.4129   26.1881  -28.4460 H   0  0  0  0  0  0  0  0  0  0  0  0
   -1.1650   24.1670  -29.2690 C   0  0  0  0  0  0  0  0  0  0  0  0
   -0.9646   25.1561  -29.7067 H   0  0  0  0  0  0  0  0  0  0  0  0
   -0.9240   23.0140  -30.0220 C   0  0  0  0  0  0  0  0  0  0  0  0
   -0.5130   23.1001  -31.0387 H   0  0  0  0  0  0  0  0  0  0  0  0
   -2.7110   20.6680  -31.6660 N   0  0  0  0  0  0  0  0  0  0  0  0
   -3.4190   20.1740  -32.7160 C   0  0  0  0  0  0  0  0  0  0  0  0
   -4.6440   20.8200  -33.0960 N   0  0  0  0  0  0  0  0  0  0  0  0
   -4.9220   20.8060  -34.1050 H   0  0  0  0  0  0  0  0  0  0  0  0
   -5.4730   21.5560  -32.1860 C   0  0  0  0  0  0  0  0  0  0  0  0
   -4.9220   22.6260  -31.4640 C   0  0  0  0  0  0  0  0  0  0  0  0
   -3.8674   22.9003  -31.6145 H   0  0  0  0  0  0  0  0  0  0  0  0
   -5.7030   23.3460  -30.5550 C   0  0  0  0  0  0  0  0  0  0  0  0
   -4.9970   24.7030  -29.6840 S   0  0  0  0  0  0  0  0  0  0  0  0
   -4.4670   24.2490  -28.3530 O   0  0  0  0  0  0  0  0  0  0  0  0
   -3.8650   25.2780  -30.4910 O   0  0  0  0  0  0  0  0  0  0  0  0
   -6.2340   25.9520  -29.4230 C   0  0  0  0  0  0  0  0  0  0  0  0
   -6.3820   26.1015  -28.3433 H   0  0  0  0  0  0  0  0  0  0  0  0
   -5.9047   26.8958  -29.8821 H   0  0  0  0  0  0  0  0  0  0  0  0
   -7.1810   25.6318  -29.8821 H   0  0  0  0  0  0  0  0  0  0  0  0
   -7.0450   22.9990  -30.3660 C   0  0  0  0  0  0  0  0  0  0  0  0
   -7.6644   23.5702  -29.6588 H   0  0  0  0  0  0  0  0  0  0  0  0
   -7.6010   21.9300  -31.0720 C   0  0  0  0  0  0  0  0  0  0  0  0
   -8.6572   21.6648  -30.9170 H   0  0  0  0  0  0  0  0  0  0  0  0
   -6.8220   21.1890  -31.9800 C   0  0  0  0  0  0  0  0  0  0  0  0
   -7.4490   20.0990  -32.7670 C   0  0  0  0  0  0  0  0  0  0  0  0
   -8.6600   20.2050  -33.0980 O   0  0  0  0  0  0  0  0  0  0  0  0
   -6.7050   18.8890  -33.1740 C   0  0  0  0  0  0  0  0  0  0  0  0
   -5.9830   18.8590  -34.3290 N   0  0  0  0  0  0  0  0  0  0  0  0
   -5.3310   17.6890  -34.4820 C   0  0  0  0  0  0  0  0  0  0  0  0
   -4.5840   17.4410  -35.5140 N   0  0  0  0  0  0  0  0  0  0  0  0
   -3.8560   16.1940  -35.7110 C   0  0  0  0  0  0  0  0  0  0  0  0
   -3.6022   15.7592  -34.7330 H   0  0  0  0  0  0  0  0  0  0  0  0
   -4.4838   15.4880  -36.2744 H   0  0  0  0  0  0  0  0  0  0  0  0
   -2.9325   16.3936  -36.2744 H   0  0  0  0  0  0  0  0  0  0  0  0
   -5.6060   16.6430  -33.1880 S   0  0  0  0  0  0  0  0  0  0  0  0
   -6.6140   17.7310  -32.3960 C   0  0  0  0  0  0  0  0  0  0  0  0
   -7.1155   17.5610  -31.4318 H   0  0  0  0  0  0  0  0  0  0  0  0
   -2.9620   19.0160  -33.3620 C   0  0  0  0  0  0  0  0  0  0  0  0
   -3.5152   18.5914  -34.2127 H   0  0  0  0  0  0  0  0  0  0  0  0
  1  2  1  0
  2  3  1  0
  3  4  1  0
  4  5  2  0
  5  6  1  0
  6  7  2  0
  7  8  1  0
  7  9  1  0
  9 10  1  0
  9 11  2  0
 11 12  1  0
 12 13  1  0
 12 14  1  0
 14 15  1  0
 14 16  1  0
 14 17  1  0
 17 18  1  0
 17 19  1  0
 17 20  1  0
 20 21  1  0
 21 22  1  0
 21 23  1  0
 21 24  1  0
 20 25  1  0
 25 26  1  0
 25 27  1  0
 25 28  1  0
 28 29  1  0
 28 30  1  0
 11 31  1  0
 31 32  1  0
 31 33  2  0
 33 34  1  0
  4 35  1  0
 35 36  2  0
 36 37  1  0
 37 38  1  0
 37 39  1  0
 39 40  2  0
 40 41  1  0
 40 42  1  0
 42 43  1  0
 43 44  2  0
 43 45  2  0
 43 46  1  0
 46 47  1  0
 46 48  1  0
 46 49  1  0
 42 50  2  0
 50 51  1  0
 50 52  1  0
 52 53  1  0
 52 54  2  0
 54 55  1  0
 55 56  2  0
 55 57  1  0
 57 58  1  0
 58 59  1  0
 59 60  2  3
 60 61  1  0
 61 62  1  0
 61 63  1  0
 61 64  1  0
 59 65  1  0
 65 66  1  0
 66 67  1  0
 36 68  1  0
 68 69  1  0
 68  2  2  0
 33  6  1  0
 54 39  1  0
 66 57  2  0
 28 12  1  0
M  CHG  2   3  -1  58  -1
M  END
>  <UniqueID>  (20) 
19

>  <SMILES>  (20) 
CN=c1[n-]c(C(=O)c2ccc(S(C)(=O)=O)cc2Nc2cc[n-]/c(=N/c3ccc(C4CCN(C)CC4)cc3)n2)cs1

>  <Energy>  (20) 
128.25531377852997

>  <Genealogy>  (20) 
CN=c1[n-]c(C(=O)c2ccc(S(C)(=O)=O)cc2Nc2cc[n-]c(=Nc3ccc(C4CCN(C)CC4)cc3)n2)cs1 (protonated)
CN=c1[n-]c(C(=O)c2ccc(S(C)(=O)=O)cc2Nc2cc[n-]/c(=N/c3ccc(C4CCN(C)CC4)cc3)n2)cs1 (cis-trans isomerization)
CN=c1[n-]c(C(=O)c2ccc(S(C)(=O)=O)cc2Nc2cc[n-]/c(=N/c3ccc(C4CCN(C)CC4)cc3)n2)cs1 (3D coordinates assigned)
CN=c1[n-]c(C(=O)c2ccc(S(C)(=O)=O)cc2Nc2cc[n-]/c(=N/c3ccc(C4CCN(C)CC4)cc3)n2)cs1 (nonaromatic ring conformer: 128.25531377852997 kcal/mol)

>  <smiles>  (20) 
CN=c1[nH]c(C(=O)c2ccc(S(C)(=O)=O)cc2Nc2cc[nH]c(=Nc3ccc(C4CCN(C)CC4)cc3)n2)cs1

>  <score_type>  (20) 
oracle

>  <origin>  (20) 
adgpu

>  <m_score__min__energy>  (20) 
-13.98

>  <m_primary>  (20) 
energy

$$$$
20:0
     RDKit          3D

 57 60  0  0  0  0  0  0  0  0999 V2000
   -6.7160   16.6880  -33.4030 O   0  0  0  0  0  0  0  0  0  0  0  0
   -6.4240   17.8710  -33.7230 C   0  0  0  0  0  0  0  0  0  0  0  0
   -5.4180   18.0890  -34.7180 N   0  0  0  0  0  0  0  0  0  0  0  0
   -4.0050   18.1070  -34.4690 C   0  0  0  0  0  0  0  0  0  0  0  0
   -3.2190   17.0480  -34.9410 C   0  0  0  0  0  0  0  0  0  0  0  0
   -1.8330   17.0700  -34.7710 C   0  0  0  0  0  0  0  0  0  0  0  0
   -1.2200   18.1620  -34.1530 C   0  0  0  0  0  0  0  0  0  0  0  0
   -1.9920   19.2400  -33.6990 C   0  0  0  0  0  0  0  0  0  0  0  0
   -1.2130   20.6430  -32.9630 S   0  0  0  0  0  0  0  0  0  0  0  0
    0.0080   20.1930  -32.2080 O   0  0  0  0  0  0  0  0  0  0  0  0
   -0.7690   21.5840  -34.0480 O   0  0  0  0  0  0  0  0  0  0  0  0
   -2.2930   21.4850  -31.8690 N   0  0  0  0  0  0  0  0  0  0  0  0
   -3.0800   20.5450  -31.0560 C   0  0  0  0  0  0  0  0  0  0  0  0
   -2.4310   20.4470  -29.6810 C   0  0  0  0  0  0  0  0  0  0  0  0
   -1.4010   21.5590  -29.6230 C   0  0  0  0  0  0  0  0  0  0  0  0
   -1.5510   22.3310  -30.9250 C   0  0  0  0  0  0  0  0  0  0  0  0
   -3.3860   19.2030  -33.8440 C   0  0  0  0  0  0  0  0  0  0  0  0
   -7.0760   19.0010  -33.0210 C   0  0  0  0  0  0  0  0  0  0  0  0
   -8.2920   18.8040  -32.3470 C   0  0  0  0  0  0  0  0  0  0  0  0
   -8.8650   19.8410  -31.6080 C   0  0  0  0  0  0  0  0  0  0  0  0
   -8.2210   21.0750  -31.5140 C   0  0  0  0  0  0  0  0  0  0  0  0
   -7.0130   21.2940  -32.1890 C   0  0  0  0  0  0  0  0  0  0  0  0
   -6.1510   22.8210  -31.9850 S   0  0  0  0  0  0  0  0  0  0  0  0
   -4.7590   22.6720  -32.5330 O   0  0  0  0  0  0  0  0  0  0  0  0
   -6.8450   23.8820  -32.7930 O   0  0  0  0  0  0  0  0  0  0  0  0
   -6.0680   23.3470  -30.3160 N   0  0  0  0  0  0  0  0  0  0  0  0
   -4.7760   23.0100  -29.6760 C   0  0  0  0  0  0  0  0  0  0  0  0
   -3.8890   24.2420  -29.4500 C   0  0  0  0  0  0  0  0  0  0  0  0
   -4.0470   25.1480  -30.5160 O   0  0  0  0  0  0  0  0  0  0  0  0
   -5.3230   25.7580  -30.4410 C   0  0  0  0  0  0  0  0  0  0  0  0
   -6.4710   24.7580  -30.1450 C   0  0  0  0  0  0  0  0  0  0  0  0
   -6.4480   20.2570  -32.9490 C   0  0  0  0  0  0  0  0  0  0  0  0
   -3.6953   16.1957  -35.4476 H   0  0  0  0  0  0  0  0  0  0  0  0
   -1.2231   16.2256  -35.1245 H   0  0  0  0  0  0  0  0  0  0  0  0
   -0.1279   18.1761  -34.0221 H   0  0  0  0  0  0  0  0  0  0  0  0
   -2.9330   22.0780  -32.4480 H   0  0  0  0  0  0  0  0  0  0  0  0
   -4.1118   20.9128  -30.9555 H   0  0  0  0  0  0  0  0  0  0  0  0
   -3.1050   19.5556  -31.5361 H   0  0  0  0  0  0  0  0  0  0  0  0
   -3.1853   20.5835  -28.8920 H   0  0  0  0  0  0  0  0  0  0  0  0
   -1.9683   19.4615  -29.5238 H   0  0  0  0  0  0  0  0  0  0  0  0
   -1.5955   22.2168  -28.7631 H   0  0  0  0  0  0  0  0  0  0  0  0
   -0.3824   21.1615  -29.5030 H   0  0  0  0  0  0  0  0  0  0  0  0
   -2.1048   23.2641  -30.7445 H   0  0  0  0  0  0  0  0  0  0  0  0
   -0.5627   22.5865  -31.3348 H   0  0  0  0  0  0  0  0  0  0  0  0
   -3.9980   20.0356  -33.4669 H   0  0  0  0  0  0  0  0  0  0  0  0
   -8.7958   17.8277  -32.4014 H   0  0  0  0  0  0  0  0  0  0  0  0
   -9.8272   19.6844  -31.0984 H   0  0  0  0  0  0  0  0  0  0  0  0
   -8.6634   21.8791  -30.9076 H   0  0  0  0  0  0  0  0  0  0  0  0
   -4.9775   22.5380  -28.7031 H   0  0  0  0  0  0  0  0  0  0  0  0
   -4.2365   22.3312  -30.3529 H   0  0  0  0  0  0  0  0  0  0  0  0
   -4.1784   24.7322  -28.5087 H   0  0  0  0  0  0  0  0  0  0  0  0
   -2.8368   23.9259  -29.3962 H   0  0  0  0  0  0  0  0  0  0  0  0
   -5.3022   26.5112  -29.6396 H   0  0  0  0  0  0  0  0  0  0  0  0
   -5.5273   26.2023  -31.4263 H   0  0  0  0  0  0  0  0  0  0  0  0
   -6.8035   24.9039  -29.1067 H   0  0  0  0  0  0  0  0  0  0  0  0
   -7.2761   24.9593  -30.8670 H   0  0  0  0  0  0  0  0  0  0  0  0
   -5.5070   20.4286  -33.4921 H   0  0  0  0  0  0  0  0  0  0  0  0
  1  2  2  0
  2  3  1  0
  3  4  1  0
  4  5  2  0
  5  6  1  0
  6  7  2  0
  7  8  1  0
  8  9  1  0
  9 10  2  0
  9 11  2  0
  9 12  1  0
 12 13  1  0
 13 14  1  0
 14 15  1  0
 15 16  1  0
  8 17  2  0
  2 18  1  0
 18 19  2  0
 19 20  1  0
 20 21  2  0
 21 22  1  0
 22 23  1  0
 23 24  2  0
 23 25  2  0
 23 26  1  0
 26 27  1  0
 27 28  1  0
 28 29  1  0
 29 30  1  0
 30 31  1  0
 22 32  2  0
 17  4  1  0
 32 18  1  0
 16 12  1  0
 31 26  1  0
  5 33  1  0
  6 34  1  0
  7 35  1  0
 12 36  1  0
 13 37  1  0
 13 38  1  0
 14 39  1  0
 14 40  1  0
 15 41  1  0
 15 42  1  0
 16 43  1  0
 16 44  1  0
 17 45  1  0
 19 46  1  0
 20 47  1  0
 21 48  1  0
 27 49  1  0
 27 50  1  0
 28 51  1  0
 28 52  1  0
 30 53  1  0
 30 54  1  0
 31 55  1  0
 31 56  1  0
 32 57  1  0
M  CHG  2   3  -1  12   1
M  END
>  <UniqueID>  (21) 
20

>  <SMILES>  (21) 
O=C([N-]c1cccc(S(=O)(=O)[NH+]2CCCC2)c1)c1cccc(S(=O)(=O)N2CCOCC2)c1

>  <Energy>  (21) 
74.4491623295604

>  <Genealogy>  (21) 
O=C([N-]c1cccc(S(=O)(=O)[NH+]2CCCC2)c1)c1cccc(S(=O)(=O)N2CCOCC2)c1 (protonated)
O=C([N-]c1cccc(S(=O)(=O)[NH+]2CCCC2)c1)c1cccc(S(=O)(=O)N2CCOCC2)c1 (3D coordinates assigned)
O=C([N-]c1cccc(S(=O)(=O)[NH+]2CCCC2)c1)c1cccc(S(=O)(=O)N2CCOCC2)c1 (nonaromatic ring conformer: 74.4491623295604 kcal/mol)

>  <smiles>  (21) 
O=C(Nc1cccc(S(=O)(=O)N2CCCC2)c1)c1cccc(S(=O)(=O)N2CCOCC2)c1

>  <score_type>  (21) 
oracle

>  <origin>  (21) 
adgpu

>  <m_score__min__energy>  (21) 
-12.19

>  <m_primary>  (21) 
energy

$$$$
21:0
     RDKit          3D

 54 56  0  0  0  0  0  0  0  0999 V2000
   -8.2110   20.5270  -31.7380 C   0  0  0  0  0  0  0  0  0  0  0  0
   -7.7930   19.4760  -32.6790 N   0  0  0  0  0  0  0  0  0  0  0  0
   -7.6110   18.1740  -31.9910 C   0  0  0  0  0  0  0  0  0  0  0  0
   -6.1300   17.8530  -31.7240 C   0  0  0  0  0  0  0  0  0  0  0  0
   -5.3310   17.8110  -32.9760 N   0  0  0  0  0  0  0  0  0  0  0  0
   -5.1650   16.4220  -33.4630 C   0  0  0  0  0  0  0  0  0  0  0  0
   -4.1690   16.3290  -34.6330 C   0  0  0  0  0  0  0  0  0  0  0  0
   -2.7480   16.6350  -34.2430 C   0  0  0  0  0  0  0  0  0  0  0  0
   -1.7850   16.2290  -34.9510 O   0  0  0  0  0  0  0  0  0  0  0  0
   -2.4950   17.4240  -33.0720 N   0  0  0  0  0  0  0  0  0  0  0  0
   -1.1860   17.8830  -32.7090 C   0  0  0  0  0  0  0  0  0  0  0  0
   -0.5010   17.2270  -31.6760 C   0  0  0  0  0  0  0  0  0  0  0  0
    0.7710   17.6550  -31.2860 C   0  0  0  0  0  0  0  0  0  0  0  0
    1.3630   18.7510  -31.9160 C   0  0  0  0  0  0  0  0  0  0  0  0
    0.6800   19.4300  -32.9270 C   0  0  0  0  0  0  0  0  0  0  0  0
   -0.5990   19.0150  -33.3210 C   0  0  0  0  0  0  0  0  0  0  0  0
   -1.4760   19.9910  -34.5530 S   0  0  0  0  0  0  0  0  0  0  0  0
   -2.2840   21.0080  -33.3180 C   0  0  0  0  0  0  0  0  0  0  0  0
   -3.6250   21.3760  -33.4780 C   0  0  0  0  0  0  0  0  0  0  0  0
   -4.2480   22.1840  -32.5230 C   0  0  0  0  0  0  0  0  0  0  0  0
   -3.5370   22.6220  -31.3970 C   0  0  0  0  0  0  0  0  0  0  0  0
   -4.3280   23.6550  -30.2130 S   0  0  0  0  0  0  0  0  0  0  0  0
   -3.8400   25.2930  -30.4700 N   0  0  0  0  0  0  0  0  0  0  0  0
   -3.9490   23.2350  -28.8200 O   0  0  0  0  0  0  0  0  0  0  0  0
   -5.8190   23.5400  -30.3640 O   0  0  0  0  0  0  0  0  0  0  0  0
   -2.1960   22.2450  -31.2350 C   0  0  0  0  0  0  0  0  0  0  0  0
   -1.5730   21.4380  -32.1920 C   0  0  0  0  0  0  0  0  0  0  0  0
   -5.8570   18.7090  -34.0370 C   0  0  0  0  0  0  0  0  0  0  0  0
   -6.6020   19.9110  -33.4450 C   0  0  0  0  0  0  0  0  0  0  0  0
   -8.0700   20.1726  -30.7062 H   0  0  0  0  0  0  0  0  0  0  0  0
   -7.6032   21.4290  -31.9021 H   0  0  0  0  0  0  0  0  0  0  0  0
   -9.2723   20.7652  -31.9021 H   0  0  0  0  0  0  0  0  0  0  0  0
   -8.1445   18.2050  -31.0296 H   0  0  0  0  0  0  0  0  0  0  0  0
   -8.0108   17.3884  -32.6490 H   0  0  0  0  0  0  0  0  0  0  0  0
   -5.7131   18.6274  -31.0633 H   0  0  0  0  0  0  0  0  0  0  0  0
   -6.0786   16.8585  -31.2567 H   0  0  0  0  0  0  0  0  0  0  0  0
   -4.7974   15.7982  -32.6349 H   0  0  0  0  0  0  0  0  0  0  0  0
   -6.1433   16.0728  -33.8249 H   0  0  0  0  0  0  0  0  0  0  0  0
   -4.2053   15.3076  -35.0397 H   0  0  0  0  0  0  0  0  0  0  0  0
   -4.4697   17.0859  -35.3724 H   0  0  0  0  0  0  0  0  0  0  0  0
   -3.2660   17.5370  -32.3760 H   0  0  0  0  0  0  0  0  0  0  0  0
   -0.9681   16.3697  -31.1692 H   0  0  0  0  0  0  0  0  0  0  0  0
    1.3059   17.1279  -30.4822 H   0  0  0  0  0  0  0  0  0  0  0  0
    2.3687   19.0801  -31.6156 H   0  0  0  0  0  0  0  0  0  0  0  0
    1.1489   20.2960  -33.4171 H   0  0  0  0  0  0  0  0  0  0  0  0
   -4.1890   21.0289  -34.3563 H   0  0  0  0  0  0  0  0  0  0  0  0
   -5.2999   22.4773  -32.6553 H   0  0  0  0  0  0  0  0  0  0  0  0
   -2.7980   25.2960  -30.5220 H   0  0  0  0  0  0  0  0  0  0  0  0
   -1.6330   22.5849  -30.3532 H   0  0  0  0  0  0  0  0  0  0  0  0
   -0.5223   21.1407  -32.0595 H   0  0  0  0  0  0  0  0  0  0  0  0
   -5.0156   19.0748  -34.6438 H   0  0  0  0  0  0  0  0  0  0  0  0
   -6.5661   18.1349  -34.6515 H   0  0  0  0  0  0  0  0  0  0  0  0
   -5.9240   20.4590  -32.7742 H   0  0  0  0  0  0  0  0  0  0  0  0
   -6.9346   20.5570  -34.2708 H   0  0  0  0  0  0  0  0  0  0  0  0
  1  2  1  0
  2  3  1  0
  3  4  1  0
  4  5  1  0
  5  6  1  0
  6  7  1  0
  7  8  1  0
  8  9  2  0
  8 10  1  0
 10 11  1  0
 11 12  2  0
 12 13  1  0
 13 14  2  0
 14 15  1  0
 15 16  2  0
 16 17  1  0
 17 18  1  0
 18 19  2  0
 19 20  1  0
 20 21  2  0
 21 22  1  0
 22 23  1  0
 22 24  2  0
 22 25  2  0
 21 26  1  0
 26 27  2  0
  5 28  1  0
 28 29  1  0
 29  2  1  0
 16 11  1  0
 27 18  1  0
  1 30  1  0
  1 31  1  0
  1 32  1  0
  3 33  1  0
  3 34  1  0
  4 35  1  0
  4 36  1  0
  6 37  1  0
  6 38  1  0
  7 39  1  0
  7 40  1  0
 10 41  1  0
 12 42  1  0
 13 43  1  0
 14 44  1  0
 15 45  1  0
 19 46  1  0
 20 47  1  0
 23 48  1  0
 26 49  1  0
 27 50  1  0
 28 51  1  0
 28 52  1  0
 29 53  1  0
 29 54  1  0
M  CHG  1  23  -1
M  END
>  <UniqueID>  (22) 
21

>  <SMILES>  (22) 
CN1CCN(CCC(=O)Nc2ccccc2Sc2ccc(S([NH-])(=O)=O)cc2)CC1

>  <Energy>  (22) 
66.95611791295292

>  <Genealogy>  (22) 
CN1CCN(CCC(=O)Nc2ccccc2Sc2ccc(S([NH-])(=O)=O)cc2)CC1 (protonated)
CN1CCN(CCC(=O)Nc2ccccc2Sc2ccc(S([NH-])(=O)=O)cc2)CC1 (3D coordinates assigned)
CN1CCN(CCC(=O)Nc2ccccc2Sc2ccc(S([NH-])(=O)=O)cc2)CC1 (nonaromatic ring conformer: 66.95611791295292 kcal/mol)

>  <smiles>  (22) 
CN1CCN(CCC(=O)Nc2ccccc2Sc2ccc(S(N)(=O)=O)cc2)CC1

>  <score_type>  (22) 
oracle

>  <origin>  (22) 
adgpu

>  <m_score__min__energy>  (22) 
-11.109999999999999

>  <m_primary>  (22) 
energy

$$$$
22:0
     RDKit          3D

 53 56  0  0  0  0  0  0  0  0999 V2000
    0.5860   17.6340  -35.7790 C   0  0  0  0  0  0  0  0  0  0  0  0
    0.7860   18.8020  -34.9910 O   0  0  0  0  0  0  0  0  0  0  0  0
   -0.2180   19.4350  -34.2440 C   0  0  0  0  0  0  0  0  0  0  0  0
   -0.3840   20.8330  -34.2320 C   0  0  0  0  0  0  0  0  0  0  0  0
   -1.3980   21.4160  -33.4660 C   0  0  0  0  0  0  0  0  0  0  0  0
   -2.2510   20.6170  -32.6900 C   0  0  0  0  0  0  0  0  0  0  0  0
   -3.3380   21.2260  -31.8900 C   0  0  0  0  0  0  0  0  0  0  0  0
   -4.6610   20.8660  -32.1850 C   0  0  0  0  0  0  0  0  0  0  0  0
   -5.7250   21.4680  -31.5000 C   0  0  0  0  0  0  0  0  0  0  0  0
   -7.1380   21.1240  -31.7950 C   0  0  0  0  0  0  0  0  0  0  0  0
   -8.1800   22.0480  -31.5760 C   0  0  0  0  0  0  0  0  0  0  0  0
   -9.5060   21.6990  -31.8540 C   0  0  0  0  0  0  0  0  0  0  0  0
   -9.8090   20.4280  -32.3450 C   0  0  0  0  0  0  0  0  0  0  0  0
   -8.7870   19.5000  -32.5560 C   0  0  0  0  0  0  0  0  0  0  0  0
   -7.4610   19.8420  -32.2790 C   0  0  0  0  0  0  0  0  0  0  0  0
   -5.4520   22.3800  -30.5320 N   0  0  0  0  0  0  0  0  0  0  0  0
   -4.1870   22.7330  -30.1870 C   0  0  0  0  0  0  0  0  0  0  0  0
   -3.9800   23.9570  -28.8880 S   0  0  0  0  0  0  0  0  0  0  0  0
   -5.4510   24.9130  -29.3760 C   0  0  0  0  0  0  0  0  0  0  0  0
   -3.0860   22.1630  -30.8590 C   0  0  0  0  0  0  0  0  0  0  0  0
   -1.3980   22.6900  -30.4600 S   0  0  0  0  0  0  0  0  0  0  0  0
   -0.9560   21.1950  -29.5720 C   0  0  0  0  0  0  0  0  0  0  0  0
    0.0250   20.3390  -30.0850 C   0  0  0  0  0  0  0  0  0  0  0  0
    0.3650   19.1680  -29.4010 C   0  0  0  0  0  0  0  0  0  0  0  0
   -0.2840   18.8360  -28.2030 C   0  0  0  0  0  0  0  0  0  0  0  0
    0.0530   17.5570  -27.4940 C   0  0  0  0  0  0  0  0  0  0  0  0
   -1.3090   19.6650  -27.7220 C   0  0  0  0  0  0  0  0  0  0  0  0
   -1.6450   20.8360  -28.4080 C   0  0  0  0  0  0  0  0  0  0  0  0
   -2.0990   19.2210  -32.7200 C   0  0  0  0  0  0  0  0  0  0  0  0
   -1.0850   18.6390  -33.4860 C   0  0  0  0  0  0  0  0  0  0  0  0
    0.4375   16.7670  -35.1184 H   0  0  0  0  0  0  0  0  0  0  0  0
   -0.3023   17.7677  -36.4138 H   0  0  0  0  0  0  0  0  0  0  0  0
    1.4682   17.4645  -36.4138 H   0  0  0  0  0  0  0  0  0  0  0  0
    0.2869   21.4693  -34.8278 H   0  0  0  0  0  0  0  0  0  0  0  0
   -1.5278   22.5083  -33.4718 H   0  0  0  0  0  0  0  0  0  0  0  0
   -4.8641   20.1087  -32.9565 H   0  0  0  0  0  0  0  0  0  0  0  0
   -7.9490   23.0495  -31.1841 H   0  0  0  0  0  0  0  0  0  0  0  0
  -10.3120   22.4283  -31.6852 H   0  0  0  0  0  0  0  0  0  0  0  0
  -10.8522   20.1575  -32.5656 H   0  0  0  0  0  0  0  0  0  0  0  0
   -9.0264   18.4978  -32.9410 H   0  0  0  0  0  0  0  0  0  0  0  0
   -6.6623   19.1031  -32.4405 H   0  0  0  0  0  0  0  0  0  0  0  0
   -5.9802   25.2569  -28.4751 H   0  0  0  0  0  0  0  0  0  0  0  0
   -5.1413   25.7829  -29.9738 H   0  0  0  0  0  0  0  0  0  0  0  0
   -6.1201   24.2767  -29.9738 H   0  0  0  0  0  0  0  0  0  0  0  0
    0.5304   20.5883  -31.0297 H   0  0  0  0  0  0  0  0  0  0  0  0
    1.1444   18.5047  -29.8040 H   0  0  0  0  0  0  0  0  0  0  0  0
    0.0105   17.7183  -26.4067 H   0  0  0  0  0  0  0  0  0  0  0  0
   -0.6707   16.7788  -27.7778 H   0  0  0  0  0  0  0  0  0  0  0  0
    1.0663   17.2364  -27.7778 H   0  0  0  0  0  0  0  0  0  0  0  0
   -1.8493   19.3929  -26.8033 H   0  0  0  0  0  0  0  0  0  0  0  0
   -2.4547   21.4781  -28.0311 H   0  0  0  0  0  0  0  0  0  0  0  0
   -2.7807   18.5831  -32.1383 H   0  0  0  0  0  0  0  0  0  0  0  0
   -0.9671   17.5454  -33.4933 H   0  0  0  0  0  0  0  0  0  0  0  0
  1  2  1  0
  2  3  1  0
  3  4  2  0
  4  5  1  0
  5  6  2  0
  6  7  1  0
  7  8  2  0
  8  9  1  0
  9 10  1  0
 10 11  2  0
 11 12  1  0
 12 13  2  0
 13 14  1  0
 14 15  2  0
  9 16  2  0
 16 17  1  0
 17 18  1  0
 18 19  1  0
 17 20  2  0
 20 21  1  0
 21 22  1  0
 22 23  2  0
 23 24  1  0
 24 25  2  0
 25 26  1  0
 25 27  1  0
 27 28  2  0
  6 29  1  0
 29 30  2  0
 30  3  1  0
 20  7  1  0
 28 22  1  0
 15 10  1  0
  1 31  1  0
  1 32  1  0
  1 33  1  0
  4 34  1  0
  5 35  1  0
  8 36  1  0
 11 37  1  0
 12 38  1  0
 13 39  1  0
 14 40  1  0
 15 41  1  0
 19 42  1  0
 19 43  1  0
 19 44  1  0
 23 45  1  0
 24 46  1  0
 26 47  1  0
 26 48  1  0
 26 49  1  0
 27 50  1  0
 28 51  1  0
 29 52  1  0
 30 53  1  0
M  END
>  <UniqueID>  (23) 
22

>  <SMILES>  (23) 
COc1ccc(-c2cc(-c3ccccc3)nc(SC)c2Sc2ccc(C)cc2)cc1

>  <Energy>  (23) 
60.731468566732794

>  <Genealogy>  (23) 
COc1ccc(-c2cc(-c3ccccc3)nc(SC)c2Sc2ccc(C)cc2)cc1 (3D coordinates assigned)
COc1ccc(-c2cc(-c3ccccc3)nc(SC)c2Sc2ccc(C)cc2)cc1 (optimized conformer: 60.731468566732794 kcal/mol)

>  <smiles>  (23) 
COc1ccc(-c2cc(-c3ccccc3)nc(SC)c2Sc2ccc(C)cc2)cc1

>  <score_type>  (23) 
oracle

>  <origin>  (23) 
adgpu

>  <m_score__min__energy>  (23) 
-8.5800000000000001

>  <m_primary>  (23) 
energy

$$$$
23:0
     RDKit          3D

 47 50  0  0  0  0  0  0  0  0999 V2000
   -9.5040   20.8350  -32.3570 C   0  0  0  0  0  0  0  0  0  0  0  0
   -8.2010   21.3430  -31.8140 C   0  0  0  0  0  0  0  0  0  0  0  0
   -6.9860   20.8550  -32.3180 C   0  0  0  0  0  0  0  0  0  0  0  0
   -5.7720   21.3000  -31.7870 C   0  0  0  0  0  0  0  0  0  0  0  0
   -5.7540   22.2310  -30.7360 C   0  0  0  0  0  0  0  0  0  0  0  0
   -4.4700   22.6970  -30.1780 C   0  0  0  0  0  0  0  0  0  0  0  0
   -4.3610   23.6900  -29.2680 N   0  0  0  0  0  0  0  0  0  0  0  0
   -3.0330   23.7810  -29.0530 C   0  0  0  0  0  0  0  0  0  0  0  0
   -2.4300   24.7200  -28.0830 C   0  0  0  0  0  0  0  0  0  0  0  0
   -1.4200   25.5980  -28.5040 C   0  0  0  0  0  0  0  0  0  0  0  0
   -0.8470   26.5000  -27.6020 C   0  0  0  0  0  0  0  0  0  0  0  0
   -1.2720   26.5300  -26.2680 C   0  0  0  0  0  0  0  0  0  0  0  0
   -0.5410   27.6600  -25.1340 S   0  0  0  0  0  0  0  0  0  0  0  0
   -0.9370   27.1900  -23.5180 N   0  0  0  0  0  0  0  0  0  0  0  0
    0.9530   27.6610  -25.3090 O   0  0  0  0  0  0  0  0  0  0  0  0
   -1.0580   29.0470  -25.3920 O   0  0  0  0  0  0  0  0  0  0  0  0
   -2.2590   25.6350  -25.8370 C   0  0  0  0  0  0  0  0  0  0  0  0
   -2.8320   24.7330  -26.7360 C   0  0  0  0  0  0  0  0  0  0  0  0
   -2.3950   22.8260  -29.8230 C   0  0  0  0  0  0  0  0  0  0  0  0
   -0.6470   22.4260  -29.8660 S   0  0  0  0  0  0  0  0  0  0  0  0
   -0.5270   22.4040  -28.0780 C   0  0  0  0  0  0  0  0  0  0  0  0
    0.3830   23.2440  -27.4250 C   0  0  0  0  0  0  0  0  0  0  0  0
    0.4870   23.2140  -26.0300 C   0  0  0  0  0  0  0  0  0  0  0  0
   -0.3210   22.3490  -25.2860 C   0  0  0  0  0  0  0  0  0  0  0  0
   -0.1900   22.3110  -23.5370 Cl  0  0  0  0  0  0  0  0  0  0  0  0
   -1.2350   21.5130  -25.9370 C   0  0  0  0  0  0  0  0  0  0  0  0
   -1.3400   21.5410  -27.3310 C   0  0  0  0  0  0  0  0  0  0  0  0
   -3.3040   22.1820  -30.5060 O   0  0  0  0  0  0  0  0  0  0  0  0
   -6.9730   22.7050  -30.2210 C   0  0  0  0  0  0  0  0  0  0  0  0
   -8.1870   22.2590  -30.7520 C   0  0  0  0  0  0  0  0  0  0  0  0
  -10.1722   20.5745  -31.5229 H   0  0  0  0  0  0  0  0  0  0  0  0
   -9.9738   21.6158  -32.9731 H   0  0  0  0  0  0  0  0  0  0  0  0
   -9.3214   19.9422  -32.9731 H   0  0  0  0  0  0  0  0  0  0  0  0
   -6.9888   20.1185  -33.1351 H   0  0  0  0  0  0  0  0  0  0  0  0
   -4.8245   20.9184  -32.1951 H   0  0  0  0  0  0  0  0  0  0  0  0
   -1.0771   25.5768  -29.5490 H   0  0  0  0  0  0  0  0  0  0  0  0
   -0.0594   27.1887  -27.9417 H   0  0  0  0  0  0  0  0  0  0  0  0
   -0.4730   27.8740  -22.8800 H   0  0  0  0  0  0  0  0  0  0  0  0
   -1.9660   27.3200  -23.4050 H   0  0  0  0  0  0  0  0  0  0  0  0
   -2.5842   25.6425  -24.7862 H   0  0  0  0  0  0  0  0  0  0  0  0
   -3.6022   24.0288  -26.3882 H   0  0  0  0  0  0  0  0  0  0  0  0
    1.0165   23.9279  -28.0089 H   0  0  0  0  0  0  0  0  0  0  0  0
    1.2051   23.8716  -25.5182 H   0  0  0  0  0  0  0  0  0  0  0  0
   -1.8715   20.8332  -25.3515 H   0  0  0  0  0  0  0  0  0  0  0  0
   -2.0609   20.8855  -27.8414 H   0  0  0  0  0  0  0  0  0  0  0  0
   -6.9718   23.4314  -29.3950 H   0  0  0  0  0  0  0  0  0  0  0  0
   -9.1355   22.6282  -30.3349 H   0  0  0  0  0  0  0  0  0  0  0  0
  1  2  1  0
  2  3  2  0
  3  4  1  0
  4  5  2  0
  5  6  1  0
  6  7  2  0
  7  8  1  0
  8  9  1  0
  9 10  2  0
 10 11  1  0
 11 12  2  0
 12 13  1  0
 13 14  1  0
 13 15  2  0
 13 16  2  0
 12 17  1  0
 17 18  2  0
  8 19  2  0
 19 20  1  0
 20 21  1  0
 21 22  2  0
 22 23  1  0
 23 24  2  0
 24 25  1  0
 24 26  1  0
 26 27  2  0
 19 28  1  0
  5 29  1  0
 29 30  2  0
 30  2  1  0
 28  6  1  0
 18  9  1  0
 27 21  1  0
  1 31  1  0
  1 32  1  0
  1 33  1  0
  3 34  1  0
  4 35  1  0
 10 36  1  0
 11 37  1  0
 14 38  1  0
 14 39  1  0
 17 40  1  0
 18 41  1  0
 22 42  1  0
 23 43  1  0
 26 44  1  0
 27 45  1  0
 29 46  1  0
 30 47  1  0
M  END
>  <UniqueID>  (24) 
23

>  <SMILES>  (24) 
Cc1ccc(-c2nc(-c3ccc(S(N)(=O)=O)cc3)c(Sc3ccc(Cl)cc3)o2)cc1

>  <Energy>  (24) 
78.17952517016738

>  <Genealogy>  (24) 
Cc1ccc(-c2nc(-c3ccc(S(N)(=O)=O)cc3)c(Sc3ccc(Cl)cc3)o2)cc1 (3D coordinates assigned)
Cc1ccc(-c2nc(-c3ccc(S(N)(=O)=O)cc3)c(Sc3ccc(Cl)cc3)o2)cc1 (optimized conformer: 78.17952517016738 kcal/mol)

>  <smiles>  (24) 
Cc1ccc(-c2nc(-c3ccc(S(N)(=O)=O)cc3)c(Sc3ccc(Cl)cc3)o2)cc1

>  <score_type>  (24) 
oracle

>  <origin>  (24) 
adgpu

>  <m_score__min__energy>  (24) 
-9.6899999999999995

>  <m_primary>  (24) 
energy

$$$$
24:0
     RDKit          3D

 29 31  0  0  0  0  0  0  0  0999 V2000
   -1.5520   25.6380  -28.9650 N   0  0  0  0  0  0  0  0  0  0  0  0
   -1.5480   24.4140  -28.2190 C   0  0  0  0  0  0  0  0  0  0  0  0
   -0.6420   24.2790  -27.1540 C   0  0  0  0  0  0  0  0  0  0  0  0
   -0.5360   23.0760  -26.4580 C   0  0  0  0  0  0  0  0  0  0  0  0
   -1.3310   21.9890  -26.8160 C   0  0  0  0  0  0  0  0  0  0  0  0
   -2.2500   22.1090  -27.8600 C   0  0  0  0  0  0  0  0  0  0  0  0
   -2.3880   23.3210  -28.5610 C   0  0  0  0  0  0  0  0  0  0  0  0
   -3.4390   23.4150  -29.6010 C   0  0  0  0  0  0  0  0  0  0  0  0
   -3.5910   24.4500  -30.4530 N   0  0  0  0  0  0  0  0  0  0  0  0
   -4.6770   24.1640  -31.1530 N   0  0  0  0  0  0  0  0  0  0  0  0
   -5.1680   23.0100  -30.7330 N   0  0  0  0  0  0  0  0  0  0  0  0
   -6.3520   22.3850  -31.2600 C   0  0  0  0  0  0  0  0  0  0  0  0
   -7.6150   22.9710  -31.0640 C   0  0  0  0  0  0  0  0  0  0  0  0
   -8.7650   22.3630  -31.5770 C   0  0  0  0  0  0  0  0  0  0  0  0
   -8.6650   21.1660  -32.2900 C   0  0  0  0  0  0  0  0  0  0  0  0
   -7.4150   20.5750  -32.4920 C   0  0  0  0  0  0  0  0  0  0  0  0
   -6.2620   21.1800  -31.9800 C   0  0  0  0  0  0  0  0  0  0  0  0
   -4.4270   22.5110  -29.7560 N   0  0  0  0  0  0  0  0  0  0  0  0
   -1.2610   26.5440  -28.5420 H   0  0  0  0  0  0  0  0  0  0  0  0
   -1.9930   25.6770  -29.9120 H   0  0  0  0  0  0  0  0  0  0  0  0
   -0.0095   25.1317  -26.8662 H   0  0  0  0  0  0  0  0  0  0  0  0
    0.1763   22.9846  -25.6248 H   0  0  0  0  0  0  0  0  0  0  0  0
   -1.2344   21.0358  -26.2756 H   0  0  0  0  0  0  0  0  0  0  0  0
   -2.8733   21.2462  -28.1377 H   0  0  0  0  0  0  0  0  0  0  0  0
   -7.6990   23.9138  -30.5035 H   0  0  0  0  0  0  0  0  0  0  0  0
   -9.7494   22.8278  -31.4189 H   0  0  0  0  0  0  0  0  0  0  0  0
   -9.5705   20.6885  -32.6926 H   0  0  0  0  0  0  0  0  0  0  0  0
   -7.3374   19.6328  -33.0543 H   0  0  0  0  0  0  0  0  0  0  0  0
   -5.2802   20.7109  -32.1413 H   0  0  0  0  0  0  0  0  0  0  0  0
  1  2  1  0
  2  3  2  0
  3  4  1  0
  4  5  2  0
  5  6  1  0
  6  7  2  0
  7  8  1  0
  8  9  1  0
  9 10  2  0
 10 11  1  0
 11 12  1  0
 12 13  2  0
 13 14  1  0
 14 15  2  0
 15 16  1  0
 16 17  2  0
 11 18  1  0
  7  2  1  0
 18  8  2  0
 17 12  1  0
  1 19  1  0
  1 20  1  0
  3 21  1  0
  4 22  1  0
  5 23  1  0
  6 24  1  0
 13 25  1  0
 14 26  1  0
 15 27  1  0
 16 28  1  0
 17 29  1  0
M  END
>  <UniqueID>  (25) 
24

>  <SMILES>  (25) 
Nc1ccccc1-c1nnn(-c2ccccc2)n1

>  <Energy>  (25) 
76.26032788053273

>  <Genealogy>  (25) 
Nc1ccccc1-c1nnn(-c2ccccc2)n1 (3D coordinates assigned)
Nc1ccccc1-c1nnn(-c2ccccc2)n1 (optimized conformer: 76.26032788053273 kcal/mol)

>  <smiles>  (25) 
Nc1ccccc1-c1nnn(-c2ccccc2)n1

>  <score_type>  (25) 
oracle

>  <origin>  (25) 
adgpu

>  <m_score__min__energy>  (25) 
-7.79

>  <m_primary>  (25) 
energy

$$$$
25:0
     RDKit          3D

 46 48  0  0  0  0  0  0  0  0999 V2000
   -9.0030   19.4330  -31.5960 C   0  0  0  0  0  0  0  0  0  0  0  0
   -7.8930   20.3680  -31.8230 N   0  0  0  0  0  0  0  0  0  0  0  0
   -7.5640   20.4200  -33.2520 C   0  0  0  0  0  0  0  0  0  0  0  0
   -8.3520   21.9620  -31.2770 S   0  0  0  0  0  0  0  0  0  0  0  0
   -9.2210   22.6240  -32.3110 O   0  0  0  0  0  0  0  0  0  0  0  0
   -9.1270   21.8710  -29.9900 O   0  0  0  0  0  0  0  0  0  0  0  0
   -6.9120   22.9500  -31.0390 C   0  0  0  0  0  0  0  0  0  0  0  0
   -7.0150   24.3440  -30.9440 C   0  0  0  0  0  0  0  0  0  0  0  0
   -5.8690   25.1200  -30.7540 C   0  0  0  0  0  0  0  0  0  0  0  0
   -4.6140   24.5110  -30.6570 C   0  0  0  0  0  0  0  0  0  0  0  0
   -3.4870   25.3020  -30.4650 O   0  0  0  0  0  0  0  0  0  0  0  0
   -4.5010   23.1120  -30.7500 C   0  0  0  0  0  0  0  0  0  0  0  0
   -2.9210   22.3360  -30.6350 S   0  0  0  0  0  0  0  0  0  0  0  0
   -1.8940   23.3740  -30.2780 O   0  0  0  0  0  0  0  0  0  0  0  0
   -2.9720   21.2720  -29.5760 O   0  0  0  0  0  0  0  0  0  0  0  0
   -2.5000   21.6140  -32.1560 N   0  0  0  0  0  0  0  0  0  0  0  0
   -3.0850   20.4230  -32.7020 C   0  0  0  0  0  0  0  0  0  0  0  0
   -4.2910   19.8940  -32.2090 C   0  0  0  0  0  0  0  0  0  0  0  0
   -4.8300   18.7240  -32.7610 C   0  0  0  0  0  0  0  0  0  0  0  0
   -4.1510   18.0610  -33.8020 C   0  0  0  0  0  0  0  0  0  0  0  0
   -2.9610   18.6030  -34.3060 C   0  0  0  0  0  0  0  0  0  0  0  0
   -2.4300   19.7740  -33.7580 C   0  0  0  0  0  0  0  0  0  0  0  0
   -1.2430   20.2890  -34.2660 O   0  0  0  0  0  0  0  0  0  0  0  0
   -4.7330   16.8150  -34.4240 C   0  0  0  0  0  0  0  0  0  0  0  0
   -5.6670   16.0800  -33.4550 C   0  0  0  0  0  0  0  0  0  0  0  0
   -6.7120   17.0410  -32.8830 C   0  0  0  0  0  0  0  0  0  0  0  0
   -6.0580   18.1830  -32.2470 N   0  0  0  0  0  0  0  0  0  0  0  0
   -5.6560   22.3380  -30.9350 C   0  0  0  0  0  0  0  0  0  0  0  0
   -9.1575   19.3029  -30.5147 H   0  0  0  0  0  0  0  0  0  0  0  0
   -9.9200   19.8349  -32.0517 H   0  0  0  0  0  0  0  0  0  0  0  0
   -8.7627   18.4611  -32.0517 H   0  0  0  0  0  0  0  0  0  0  0  0
   -6.4842   20.5907  -33.3737 H   0  0  0  0  0  0  0  0  0  0  0  0
   -7.8404   19.4670  -33.7268 H   0  0  0  0  0  0  0  0  0  0  0  0
   -8.1208   21.2413  -33.7268 H   0  0  0  0  0  0  0  0  0  0  0  0
   -7.9998   24.8282  -31.0191 H   0  0  0  0  0  0  0  0  0  0  0  0
   -5.9542   26.2142  -30.6804 H   0  0  0  0  0  0  0  0  0  0  0  0
   -4.8144   20.4015  -31.3853 H   0  0  0  0  0  0  0  0  0  0  0  0
   -2.4419   18.1040  -35.1376 H   0  0  0  0  0  0  0  0  0  0  0  0
   -5.3018   17.0973  -35.3222 H   0  0  0  0  0  0  0  0  0  0  0  0
   -3.9031   16.1395  -34.6789 H   0  0  0  0  0  0  0  0  0  0  0  0
   -6.1783   15.2673  -33.9918 H   0  0  0  0  0  0  0  0  0  0  0  0
   -5.0694   15.6712  -32.6269 H   0  0  0  0  0  0  0  0  0  0  0  0
   -7.3584   17.4004  -33.6972 H   0  0  0  0  0  0  0  0  0  0  0  0
   -7.3131   16.5090  -32.1309 H   0  0  0  0  0  0  0  0  0  0  0  0
   -6.5370   18.6510  -31.4440 H   0  0  0  0  0  0  0  0  0  0  0  0
   -5.5751   21.2428  -30.9989 H   0  0  0  0  0  0  0  0  0  0  0  0
  1  2  1  0
  2  3  1  0
  2  4  1  0
  4  5  2  0
  4  6  2  0
  4  7  1  0
  7  8  2  0
  8  9  1  0
  9 10  2  0
 10 11  1  0
 10 12  1  0
 12 13  1  0
 13 14  2  0
 13 15  2  0
 13 16  1  0
 16 17  1  0
 17 18  2  0
 18 19  1  0
 19 20  2  0
 20 21  1  0
 21 22  2  0
 22 23  1  0
 20 24  1  0
 24 25  1  0
 25 26  1  0
 26 27  1  0
 12 28  2  0
 28  7  1  0
 22 17  1  0
 27 19  1  0
  1 29  1  0
  1 30  1  0
  1 31  1  0
  3 32  1  0
  3 33  1  0
  3 34  1  0
  8 35  1  0
  9 36  1  0
 18 37  1  0
 21 38  1  0
 24 39  1  0
 24 40  1  0
 25 41  1  0
 25 42  1  0
 26 43  1  0
 26 44  1  0
 27 45  1  0
 28 46  1  0
M  CHG  3  11  -1  16  -1  23  -1
M  END
>  <UniqueID>  (26) 
25

>  <SMILES>  (26) 
CN(C)S(=O)(=O)c1ccc([O-])c(S(=O)(=O)[N-]c2cc3c(cc2[O-])CCCN3)c1

>  <Energy>  (26) 
48.88705697170752

>  <Genealogy>  (26) 
CN(C)S(=O)(=O)c1ccc([O-])c(S(=O)(=O)[N-]c2cc3c(cc2[O-])CCCN3)c1 (protonated)
CN(C)S(=O)(=O)c1ccc([O-])c(S(=O)(=O)[N-]c2cc3c(cc2[O-])CCCN3)c1 (3D coordinates assigned)
CN(C)S(=O)(=O)c1ccc([O-])c(S(=O)(=O)[N-]c2cc3c(cc2[O-])CCCN3)c1 (nonaromatic ring conformer: 48.88705697170752 kcal/mol)

>  <smiles>  (26) 
CN(C)S(=O)(=O)c1ccc(O)c(S(=O)(=O)Nc2cc3c(cc2O)CCCN3)c1

>  <score_type>  (26) 
oracle

>  <origin>  (26) 
adgpu

>  <m_score__min__energy>  (26) 
-15.67

>  <m_primary>  (26) 
energy

$$$$
26:0
     RDKit          3D

 58 62  0  0  0  0  0  0  0  0999 V2000
    0.7440   25.7070  -28.1670 H   0  0  0  0  0  0  0  0  0  0  0  0
    1.0430   24.7330  -27.9350 N   0  0  0  0  0  0  0  0  0  0  0  0
    0.3270   23.7000  -28.2530 C   0  0  0  0  0  0  0  0  0  0  0  0
    0.7660   22.4600  -27.9200 N   0  0  0  0  0  0  0  0  0  0  0  0
    0.0530   21.3430  -28.2240 C   0  0  0  0  0  0  0  0  0  0  0  0
    0.5540   20.0460  -27.8420 N   0  0  0  0  0  0  0  0  0  0  0  0
   -0.3630   18.9810  -27.4190 C   0  0  0  0  0  0  0  0  0  0  0  0
   -0.2054   18.7720  -26.3506 H   0  0  0  0  0  0  0  0  0  0  0  0
   -1.3967   19.3139  -27.5941 H   0  0  0  0  0  0  0  0  0  0  0  0
   -0.1130   17.6950  -28.2280 C   0  0  0  0  0  0  0  0  0  0  0  0
   -0.4011   16.8346  -27.6062 H   0  0  0  0  0  0  0  0  0  0  0  0
   -0.7134   17.7767  -29.1460 H   0  0  0  0  0  0  0  0  0  0  0  0
    1.2980   17.5100  -28.6550 N   0  0  0  0  0  0  0  0  0  0  0  0
    1.4790   17.7970  -30.0890 C   0  0  0  0  0  0  0  0  0  0  0  0
    2.0624   18.7221  -30.2070 H   0  0  0  0  0  0  0  0  0  0  0  0
    2.0145   16.9625  -30.5652 H   0  0  0  0  0  0  0  0  0  0  0  0
    0.4952   17.9207  -30.5652 H   0  0  0  0  0  0  0  0  0  0  0  0
    2.2630   18.2500  -27.8170 C   0  0  0  0  0  0  0  0  0  0  0  0
    2.1858   17.8871  -26.7814 H   0  0  0  0  0  0  0  0  0  0  0  0
    3.2701   18.0773  -28.2244 H   0  0  0  0  0  0  0  0  0  0  0  0
    1.9960   19.7650  -27.8340 C   0  0  0  0  0  0  0  0  0  0  0  0
    2.4460   20.2195  -26.9391 H   0  0  0  0  0  0  0  0  0  0  0  0
    2.4404   20.1887  -28.7467 H   0  0  0  0  0  0  0  0  0  0  0  0
   -1.1700   21.4830  -28.9000 C   0  0  0  0  0  0  0  0  0  0  0  0
   -1.7674   20.5969  -29.1606 H   0  0  0  0  0  0  0  0  0  0  0  0
   -1.6190   22.7660  -29.2380 C   0  0  0  0  0  0  0  0  0  0  0  0
   -2.8670   22.9380  -29.9360 N   0  0  0  0  0  0  0  0  0  0  0  0
   -3.9380   23.7180  -29.2780 C   0  0  0  0  0  0  0  0  0  0  0  0
   -3.6196   24.7679  -29.1979 H   0  0  0  0  0  0  0  0  0  0  0  0
   -4.1180   23.2898  -28.2809 H   0  0  0  0  0  0  0  0  0  0  0  0
   -5.2140   23.6530  -30.0590 C   0  0  0  0  0  0  0  0  0  0  0  0
   -6.3820   24.2270  -29.7100 N   0  0  0  0  0  0  0  0  0  0  0  0
   -7.2370   23.8290  -30.6840 C   0  0  0  0  0  0  0  0  0  0  0  0
   -8.2979   24.1179  -30.7175 H   0  0  0  0  0  0  0  0  0  0  0  0
   -6.6480   23.0400  -31.6090 N   0  0  0  0  0  0  0  0  0  0  0  0
   -7.3100   22.3540  -32.7170 C   0  0  0  0  0  0  0  0  0  0  0  0
   -8.2723   22.8444  -32.9255 H   0  0  0  0  0  0  0  0  0  0  0  0
   -6.6648   22.4017  -33.6066 H   0  0  0  0  0  0  0  0  0  0  0  0
   -7.5530   20.9120  -32.3620 C   0  0  0  0  0  0  0  0  0  0  0  0
   -8.8290   20.4960  -31.9490 C   0  0  0  0  0  0  0  0  0  0  0  0
   -9.6563   21.2201  -31.9121 H   0  0  0  0  0  0  0  0  0  0  0  0
   -9.0520   19.1630  -31.5840 C   0  0  0  0  0  0  0  0  0  0  0  0
  -10.0528   18.8420  -31.2592 H   0  0  0  0  0  0  0  0  0  0  0  0
   -8.0040   18.2400  -31.6320 C   0  0  0  0  0  0  0  0  0  0  0  0
   -8.1818   17.1914  -31.3514 H   0  0  0  0  0  0  0  0  0  0  0  0
   -6.7280   18.6490  -32.0370 C   0  0  0  0  0  0  0  0  0  0  0  0
   -5.7100   17.7540  -32.0750 F   0  0  0  0  0  0  0  0  0  0  0  0
   -6.5010   19.9810  -32.3980 C   0  0  0  0  0  0  0  0  0  0  0  0
   -5.4961   20.3008  -32.7110 H   0  0  0  0  0  0  0  0  0  0  0  0
   -5.3670   22.9370  -31.2110 C   0  0  0  0  0  0  0  0  0  0  0  0
   -4.2890   22.0820  -31.7920 C   0  0  0  0  0  0  0  0  0  0  0  0
   -4.3735   22.0778  -32.8887 H   0  0  0  0  0  0  0  0  0  0  0  0
   -4.3900   21.0531  -31.4163 H   0  0  0  0  0  0  0  0  0  0  0  0
   -2.9210   22.6490  -31.3840 C   0  0  0  0  0  0  0  0  0  0  0  0
   -2.7385   23.5795  -31.9416 H   0  0  0  0  0  0  0  0  0  0  0  0
   -2.1518   21.8976  -31.6158 H   0  0  0  0  0  0  0  0  0  0  0  0
   -0.8600   23.8500  -28.9080 N   0  0  0  0  0  0  0  0  0  0  0  0
   -1.2020   24.8110  -29.1440 H   0  0  0  0  0  0  0  0  0  0  0  0
  1  2  1  0
  2  3  2  0
  3  4  1  0
  4  5  2  0
  5  6  1  0
  6  7  1  0
  7  8  1  0
  7  9  1  0
  7 10  1  0
 10 11  1  0
 10 12  1  0
 10 13  1  0
 13 14  1  0
 14 15  1  0
 14 16  1  0
 14 17  1  0
 13 18  1  0
 18 19  1  0
 18 20  1  0
 18 21  1  0
 21 22  1  0
 21 23  1  0
  5 24  1  0
 24 25  1  0
 24 26  2  0
 26 27  1  0
 27 28  1  0
 28 29  1  0
 28 30  1  0
 28 31  1  0
 31 32  1  0
 32 33  2  0
 33 34  1  0
 33 35  1  0
 35 36  1  0
 36 37  1  0
 36 38  1  0
 36 39  1  0
 39 40  2  0
 40 41  1  0
 40 42  1  0
 42 43  1  0
 42 44  2  0
 44 45  1  0
 44 46  1  0
 46 47  1  0
 46 48  2  0
 48 49  1  0
 35 50  1  0
 50 51  1  0
 51 52  1  0
 51 53  1  0
 51 54  1  0
 54 55  1  0
 54 56  1  0
 26 57  1  0
 57 58  1  0
 57  3  1  0
 21  6  1  0
 54 27  1  0
 50 31  2  0
 48 39  1  0
M  END
>  <UniqueID>  (27) 
26

>  <SMILES>  (27) 
[H]/N=c1/nc(N2CCN(C)CC2)cc(N2CCc3c(ncn3Cc3cccc(F)c3)C2)[nH]1

>  <Energy>  (27) 
107.0771571547407

>  <Genealogy>  (27) 
[H]/N=c1/nc(N2CCN(C)CC2)cc(N2CCc3c(ncn3Cc3cccc(F)c3)C2)[nH]1 (cis-trans isomerization)
[H]/N=c1/nc(N2CCN(C)CC2)cc(N2CCc3c(ncn3Cc3cccc(F)c3)C2)[nH]1 (3D coordinates assigned)
[H]/N=c1/nc(N2CCN(C)CC2)cc(N2CCc3c(ncn3Cc3cccc(F)c3)C2)[nH]1 (nonaromatic ring conformer: 107.0771571547407 kcal/mol)

>  <smiles>  (27) 
CN1CCN(c2cc(N3CCc4c(ncn4Cc4cccc(F)c4)C3)[nH]c(=N)n2)CC1

>  <score_type>  (27) 
oracle

>  <origin>  (27) 
adgpu

>  <m_score__min__energy>  (27) 
-8.3900000000000006

>  <m_primary>  (27) 
energy

$$$$
27:0
     RDKit          3D

 59 62  0  0  0  0  0  0  0  0999 V2000
   -0.3110   20.6760  -32.5840 C   0  0  0  0  0  0  0  0  0  0  0  0
   -0.7160   19.8170  -31.3910 C   0  0  0  0  0  0  0  0  0  0  0  0
   -1.1260   20.6660  -30.2700 N   0  0  0  0  0  0  0  0  0  0  0  0
   -2.0660   21.6290  -30.2950 C   0  0  0  0  0  0  0  0  0  0  0  0
   -2.8590   21.9260  -31.3980 O   0  0  0  0  0  0  0  0  0  0  0  0
   -2.1130   22.2590  -29.0710 C   0  0  0  0  0  0  0  0  0  0  0  0
   -3.0820   23.3410  -28.6730 C   0  0  0  0  0  0  0  0  0  0  0  0
   -2.8930   24.6000  -29.4690 C   0  0  0  0  0  0  0  0  0  0  0  0
   -1.8400   25.2840  -29.3500 O   0  0  0  0  0  0  0  0  0  0  0  0
   -3.9360   25.0150  -30.3590 N   0  0  0  0  0  0  0  0  0  0  0  0
   -5.1190   24.2760  -30.6930 C   0  0  0  0  0  0  0  0  0  0  0  0
   -6.0130   23.9400  -29.6690 C   0  0  0  0  0  0  0  0  0  0  0  0
   -7.1680   23.2050  -29.9480 C   0  0  0  0  0  0  0  0  0  0  0  0
   -7.4420   22.7900  -31.2590 C   0  0  0  0  0  0  0  0  0  0  0  0
   -8.9010   21.8560  -31.6120 S   0  0  0  0  0  0  0  0  0  0  0  0
   -9.6170   21.5610  -30.3230 O   0  0  0  0  0  0  0  0  0  0  0  0
   -9.8160   22.6850  -32.4710 O   0  0  0  0  0  0  0  0  0  0  0  0
   -8.5610   20.3510  -32.4310 N   0  0  0  0  0  0  0  0  0  0  0  0
   -8.7630   19.1950  -31.5620 C   0  0  0  0  0  0  0  0  0  0  0  0
   -7.8770   18.0860  -32.1080 C   0  0  0  0  0  0  0  0  0  0  0  0
   -6.8360   18.7890  -32.9680 C   0  0  0  0  0  0  0  0  0  0  0  0
   -7.1710   20.2690  -32.8760 C   0  0  0  0  0  0  0  0  0  0  0  0
   -6.5320   23.0920  -32.2810 C   0  0  0  0  0  0  0  0  0  0  0  0
   -5.3760   23.8270  -32.0020 C   0  0  0  0  0  0  0  0  0  0  0  0
   -1.1960   21.6790  -28.2610 N   0  0  0  0  0  0  0  0  0  0  0  0
   -0.8980   22.0370  -26.8670 C   0  0  0  0  0  0  0  0  0  0  0  0
   -0.4250   23.4640  -26.7700 C   0  0  0  0  0  0  0  0  0  0  0  0
   -0.8390   24.2860  -25.7100 C   0  0  0  0  0  0  0  0  0  0  0  0
   -0.3870   25.6040  -25.6290 C   0  0  0  0  0  0  0  0  0  0  0  0
    0.4860   26.0890  -26.6040 C   0  0  0  0  0  0  0  0  0  0  0  0
    0.8890   25.2800  -27.6190 N   0  0  0  0  0  0  0  0  0  0  0  0
    0.4620   23.9930  -27.7220 C   0  0  0  0  0  0  0  0  0  0  0  0
   -0.6020   20.7230  -29.0210 C   0  0  0  0  0  0  0  0  0  0  0  0
    0.6080   19.7410  -28.4940 S   0  0  0  0  0  0  0  0  0  0  0  0
    0.1324   21.6165  -32.2250 H   0  0  0  0  0  0  0  0  0  0  0  0
    0.4258   20.1326  -33.1938 H   0  0  0  0  0  0  0  0  0  0  0  0
   -1.1990   20.8986  -33.1938 H   0  0  0  0  0  0  0  0  0  0  0  0
   -1.5551   19.1670  -31.6799 H   0  0  0  0  0  0  0  0  0  0  0  0
    0.1445   19.2057  -31.0813 H   0  0  0  0  0  0  0  0  0  0  0  0
   -4.1066   22.9734  -28.8315 H   0  0  0  0  0  0  0  0  0  0  0  0
   -2.8993   23.5823  -27.6155 H   0  0  0  0  0  0  0  0  0  0  0  0
   -5.8043   24.2573  -28.6366 H   0  0  0  0  0  0  0  0  0  0  0  0
   -7.8651   22.9509  -29.1359 H   0  0  0  0  0  0  0  0  0  0  0  0
   -8.4728   19.4400  -30.5296 H   0  0  0  0  0  0  0  0  0  0  0  0
   -9.8195   18.8890  -31.5453 H   0  0  0  0  0  0  0  0  0  0  0  0
   -7.3920   17.5402  -31.2853 H   0  0  0  0  0  0  0  0  0  0  0  0
   -8.4534   17.3473  -32.6843 H   0  0  0  0  0  0  0  0  0  0  0  0
   -5.8242   18.5984  -32.5807 H   0  0  0  0  0  0  0  0  0  0  0  0
   -6.8526   18.4291  -34.0073 H   0  0  0  0  0  0  0  0  0  0  0  0
   -6.5094   20.7643  -32.1501 H   0  0  0  0  0  0  0  0  0  0  0  0
   -7.0326   20.7701  -33.8454 H   0  0  0  0  0  0  0  0  0  0  0  0
   -6.7282   22.7491  -33.3076 H   0  0  0  0  0  0  0  0  0  0  0  0
   -4.6642   24.0554  -32.8089 H   0  0  0  0  0  0  0  0  0  0  0  0
   -1.8084   21.9170  -26.2614 H   0  0  0  0  0  0  0  0  0  0  0  0
   -0.1011   21.3757  -26.4960 H   0  0  0  0  0  0  0  0  0  0  0  0
   -1.5205   23.8908  -24.9423 H   0  0  0  0  0  0  0  0  0  0  0  0
   -0.7156   26.2542  -24.8048 H   0  0  0  0  0  0  0  0  0  0  0  0
    0.8480   27.1264  -26.5509 H   0  0  0  0  0  0  0  0  0  0  0  0
    0.8124   23.3641  -28.5537 H   0  0  0  0  0  0  0  0  0  0  0  0
  1  2  1  0
  2  3  1  0
  3  4  1  0
  4  5  1  0
  4  6  2  0
  6  7  1  0
  7  8  1  0
  8  9  2  0
  8 10  1  0
 10 11  1  0
 11 12  2  0
 12 13  1  0
 13 14  2  0
 14 15  1  0
 15 16  2  0
 15 17  2  0
 15 18  1  0
 18 19  1  0
 19 20  1  0
 20 21  1  0
 21 22  1  0
 14 23  1  0
 23 24  2  0
  6 25  1  0
 25 26  1  0
 26 27  1  0
 27 28  2  0
 28 29  1  0
 29 30  2  0
 30 31  1  0
 31 32  2  0
 25 33  1  0
 33 34  2  0
 33  3  1  0
 24 11  1  0
 32 27  1  0
 22 18  1  0
  1 35  1  0
  1 36  1  0
  1 37  1  0
  2 38  1  0
  2 39  1  0
  7 40  1  0
  7 41  1  0
 12 42  1  0
 13 43  1  0
 19 44  1  0
 19 45  1  0
 20 46  1  0
 20 47  1  0
 21 48  1  0
 21 49  1  0
 22 50  1  0
 22 51  1  0
 23 52  1  0
 24 53  1  0
 26 54  1  0
 26 55  1  0
 28 56  1  0
 29 57  1  0
 30 58  1  0
 32 59  1  0
M  CHG  2   5  -1  10  -1
M  END
>  <UniqueID>  (28) 
27

>  <SMILES>  (28) 
CCn1c([O-])c(CC(=O)[N-]c2ccc(S(=O)(=O)N3CCCC3)cc2)n(Cc2cccnc2)c1=S

>  <Energy>  (28) 
97.17916492242473

>  <Genealogy>  (28) 
CCn1c([O-])c(CC(=O)[N-]c2ccc(S(=O)(=O)N3CCCC3)cc2)n(Cc2cccnc2)c1=S (protonated)
CCn1c([O-])c(CC(=O)[N-]c2ccc(S(=O)(=O)N3CCCC3)cc2)n(Cc2cccnc2)c1=S (3D coordinates assigned)
CCn1c([O-])c(CC(=O)[N-]c2ccc(S(=O)(=O)N3CCCC3)cc2)n(Cc2cccnc2)c1=S (nonaromatic ring conformer: 97.17916492242473 kcal/mol)

>  <smiles>  (28) 
CCn1c(O)c(CC(=O)Nc2ccc(S(=O)(=O)N3CCCC3)cc2)n(Cc2cccnc2)c1=S

>  <score_type>  (28) 
oracle

>  <origin>  (28) 
adgpu

>  <m_score__min__energy>  (28) 
-14.029999999999999

>  <m_primary>  (28) 
energy

$$$$
28:0
     RDKit          3D

 53 56  0  0  0  0  0  0  0  0999 V2000
   -5.3840   26.6790  -30.4580 O   0  0  0  0  0  0  0  0  0  0  0  0
   -4.9620   25.5370  -30.7780 C   0  0  0  0  0  0  0  0  0  0  0  0
   -5.7590   24.6790  -31.6030 N   0  0  0  0  0  0  0  0  0  0  0  0
   -7.0350   24.1130  -31.1810 C   0  0  0  0  0  0  0  0  0  0  0  0
   -7.0120   22.6180  -31.3400 C   0  0  0  0  0  0  0  0  0  0  0  0
   -8.2140   21.8930  -31.3240 C   0  0  0  0  0  0  0  0  0  0  0  0
   -8.2030   20.5060  -31.5030 C   0  0  0  0  0  0  0  0  0  0  0  0
   -6.9930   19.8320  -31.7110 C   0  0  0  0  0  0  0  0  0  0  0  0
   -6.9790   18.0830  -31.9170 S   0  0  0  0  0  0  0  0  0  0  0  0
   -8.3620   17.5880  -32.2350 O   0  0  0  0  0  0  0  0  0  0  0  0
   -6.5200   17.4400  -30.6390 O   0  0  0  0  0  0  0  0  0  0  0  0
   -5.8880   17.6570  -33.2200 C   0  0  0  0  0  0  0  0  0  0  0  0
   -5.8730   18.2240  -34.4860 C   0  0  0  0  0  0  0  0  0  0  0  0
   -4.8770   17.6870  -35.3100 C   0  0  0  0  0  0  0  0  0  0  0  0
   -4.1130   16.7030  -34.6940 C   0  0  0  0  0  0  0  0  0  0  0  0
   -4.6740   16.5020  -33.1210 S   0  0  0  0  0  0  0  0  0  0  0  0
   -5.7920   20.5520  -31.7250 C   0  0  0  0  0  0  0  0  0  0  0  0
   -5.8020   21.9390  -31.5460 C   0  0  0  0  0  0  0  0  0  0  0  0
   -3.6550   25.1340  -30.3550 N   0  0  0  0  0  0  0  0  0  0  0  0
   -3.3070   23.8580  -29.7990 C   0  0  0  0  0  0  0  0  0  0  0  0
   -3.8090   23.4270  -28.5580 C   0  0  0  0  0  0  0  0  0  0  0  0
   -3.4320   22.1850  -28.0410 C   0  0  0  0  0  0  0  0  0  0  0  0
   -2.5370   21.3750  -28.7420 C   0  0  0  0  0  0  0  0  0  0  0  0
   -1.9890   21.8140  -29.9570 C   0  0  0  0  0  0  0  0  0  0  0  0
   -1.0450   20.9640  -30.7080 C   0  0  0  0  0  0  0  0  0  0  0  0
    0.0490   20.6460  -30.1670 O   0  0  0  0  0  0  0  0  0  0  0  0
   -1.3500   20.4800  -32.0300 N   0  0  0  0  0  0  0  0  0  0  0  0
   -2.7020   20.2870  -32.5310 C   0  0  0  0  0  0  0  0  0  0  0  0
   -2.5460   19.6760  -33.9160 C   0  0  0  0  0  0  0  0  0  0  0  0
   -1.1160   19.1520  -33.9840 C   0  0  0  0  0  0  0  0  0  0  0  0
   -0.3450   19.8880  -32.8960 C   0  0  0  0  0  0  0  0  0  0  0  0
   -2.3880   23.0530  -30.4840 C   0  0  0  0  0  0  0  0  0  0  0  0
   -7.2136   24.3643  -30.1251 H   0  0  0  0  0  0  0  0  0  0  0  0
   -7.8391   24.5302  -31.8049 H   0  0  0  0  0  0  0  0  0  0  0  0
   -9.1683   22.4179  -31.1701 H   0  0  0  0  0  0  0  0  0  0  0  0
   -9.1476   19.9427  -31.4804 H   0  0  0  0  0  0  0  0  0  0  0  0
   -6.5698   19.0119  -34.8081 H   0  0  0  0  0  0  0  0  0  0  0  0
   -4.7143   18.0133  -36.3478 H   0  0  0  0  0  0  0  0  0  0  0  0
   -3.2825   16.1496  -35.1565 H   0  0  0  0  0  0  0  0  0  0  0  0
   -4.8383   20.0253  -31.8772 H   0  0  0  0  0  0  0  0  0  0  0  0
   -4.8562   22.5003  -31.5669 H   0  0  0  0  0  0  0  0  0  0  0  0
   -4.5003   24.0695  -27.9929 H   0  0  0  0  0  0  0  0  0  0  0  0
   -3.8417   21.8444  -27.0786 H   0  0  0  0  0  0  0  0  0  0  0  0
   -2.2603   20.3890  -28.3405 H   0  0  0  0  0  0  0  0  0  0  0  0
   -3.2613   19.6062  -31.8725 H   0  0  0  0  0  0  0  0  0  0  0  0
   -3.2604   21.2341  -32.5662 H   0  0  0  0  0  0  0  0  0  0  0  0
   -3.2621   18.8524  -34.0535 H   0  0  0  0  0  0  0  0  0  0  0  0
   -2.7432   20.4143  -34.7072 H   0  0  0  0  0  0  0  0  0  0  0  0
   -1.0973   18.0679  -33.7985 H   0  0  0  0  0  0  0  0  0  0  0  0
   -0.6723   19.3216  -34.9761 H   0  0  0  0  0  0  0  0  0  0  0  0
    0.2829   19.1849  -32.3291 H   0  0  0  0  0  0  0  0  0  0  0  0
    0.3244   20.6511  -33.3199 H   0  0  0  0  0  0  0  0  0  0  0  0
   -1.9747   23.3947  -31.4444 H   0  0  0  0  0  0  0  0  0  0  0  0
  1  2  2  0
  2  3  1  0
  3  4  1  0
  4  5  1  0
  5  6  2  0
  6  7  1  0
  7  8  2  0
  8  9  1  0
  9 10  2  0
  9 11  2  0
  9 12  1  0
 12 13  2  0
 13 14  1  0
 14 15  2  0
 15 16  1  0
  8 17  1  0
 17 18  2  0
  2 19  1  0
 19 20  1  0
 20 21  2  0
 21 22  1  0
 22 23  2  0
 23 24  1  0
 24 25  1  0
 25 26  2  0
 25 27  1  0
 27 28  1  0
 28 29  1  0
 29 30  1  0
 30 31  1  0
 24 32  2  0
 18  5  1  0
 32 20  1  0
 16 12  1  0
 31 27  1  0
  4 33  1  0
  4 34  1  0
  6 35  1  0
  7 36  1  0
 13 37  1  0
 14 38  1  0
 15 39  1  0
 17 40  1  0
 18 41  1  0
 21 42  1  0
 22 43  1  0
 23 44  1  0
 28 45  1  0
 28 46  1  0
 29 47  1  0
 29 48  1  0
 30 49  1  0
 30 50  1  0
 31 51  1  0
 31 52  1  0
 32 53  1  0
M  CHG  2   3  -1  19  -1
M  END
>  <UniqueID>  (29) 
28

>  <SMILES>  (29) 
O=C([N-]Cc1ccc(S(=O)(=O)c2cccs2)cc1)[N-]c1cccc(C(=O)N2CCCC2)c1

>  <Energy>  (29) 
89.37767277762508

>  <Genealogy>  (29) 
O=C([N-]Cc1ccc(S(=O)(=O)c2cccs2)cc1)[N-]c1cccc(C(=O)N2CCCC2)c1 (protonated)
O=C([N-]Cc1ccc(S(=O)(=O)c2cccs2)cc1)[N-]c1cccc(C(=O)N2CCCC2)c1 (3D coordinates assigned)
O=C([N-]Cc1ccc(S(=O)(=O)c2cccs2)cc1)[N-]c1cccc(C(=O)N2CCCC2)c1 (nonaromatic ring conformer: 89.37767277762508 kcal/mol)

>  <smiles>  (29) 
O=C(NCc1ccc(S(=O)(=O)c2cccs2)cc1)Nc1cccc(C(=O)N2CCCC2)c1

>  <score_type>  (29) 
oracle

>  <origin>  (29) 
adgpu

>  <m_score__min__energy>  (29) 
-14.359999999999999

>  <m_primary>  (29) 
energy

$$$$
29:0
     RDKit          3D

 66 70  0  0  0  0  0  0  0  0999 V2000
   -9.3620   18.1890  -31.9670 C   0  0  0  0  0  0  0  0  0  0  0  0
   -8.7000   19.5350  -31.9530 C   0  0  0  0  0  0  0  0  0  0  0  0
   -7.9060   19.9450  -33.0340 C   0  0  0  0  0  0  0  0  0  0  0  0
   -7.2330   21.1700  -32.9880 C   0  0  0  0  0  0  0  0  0  0  0  0
   -7.3310   21.9880  -31.8530 C   0  0  0  0  0  0  0  0  0  0  0  0
   -6.3730   23.4620  -31.7250 S   0  0  0  0  0  0  0  0  0  0  0  0
   -6.2150   24.1080  -33.0730 O   0  0  0  0  0  0  0  0  0  0  0  0
   -7.0860   24.4120  -30.8050 O   0  0  0  0  0  0  0  0  0  0  0  0
   -4.7730   23.1020  -31.0790 C   0  0  0  0  0  0  0  0  0  0  0  0
   -4.0480   23.9090  -30.2290 C   0  0  0  0  0  0  0  0  0  0  0  0
   -2.9560   23.2270  -29.8260 N   0  0  0  0  0  0  0  0  0  0  0  0
   -1.9350   23.6870  -28.9200 C   0  0  0  0  0  0  0  0  0  0  0  0
   -0.5720   23.4780  -29.1970 C   0  0  0  0  0  0  0  0  0  0  0  0
    0.4060   23.9150  -28.3000 C   0  0  0  0  0  0  0  0  0  0  0  0
    0.0380   24.5630  -27.1190 C   0  0  0  0  0  0  0  0  0  0  0  0
   -1.3140   24.7770  -26.8280 C   0  0  0  0  0  0  0  0  0  0  0  0
   -1.7870   25.6410  -25.3660 S   0  0  0  0  0  0  0  0  0  0  0  0
   -1.2280   24.9400  -24.1580 O   0  0  0  0  0  0  0  0  0  0  0  0
   -3.2880   25.6430  -25.2650 O   0  0  0  0  0  0  0  0  0  0  0  0
   -1.1950   27.2820  -25.4410 N   0  0  0  0  0  0  0  0  0  0  0  0
   -0.0420   27.4410  -24.5420 C   0  0  0  0  0  0  0  0  0  0  0  0
    0.4010   28.9180  -24.4900 C   0  0  0  0  0  0  0  0  0  0  0  0
    0.3170   29.6090  -25.8000 N   0  0  0  0  0  0  0  0  0  0  0  0
   -0.7780   30.5930  -25.8550 C   0  0  0  0  0  0  0  0  0  0  0  0
    0.2810   28.6800  -26.9460 C   0  0  0  0  0  0  0  0  0  0  0  0
   -0.8620   27.6470  -26.8390 C   0  0  0  0  0  0  0  0  0  0  0  0
   -2.2960   24.3400  -27.7280 C   0  0  0  0  0  0  0  0  0  0  0  0
   -2.9590   22.0180  -30.3710 N   0  0  0  0  0  0  0  0  0  0  0  0
   -4.0500   21.9190  -31.1540 C   0  0  0  0  0  0  0  0  0  0  0  0
   -4.4040   20.6970  -31.8950 C   0  0  0  0  0  0  0  0  0  0  0  0
   -5.0370   19.6350  -31.2280 C   0  0  0  0  0  0  0  0  0  0  0  0
   -5.4330   18.4970  -31.9360 C   0  0  0  0  0  0  0  0  0  0  0  0
   -5.1840   18.4020  -33.3090 C   0  0  0  0  0  0  0  0  0  0  0  0
   -5.7010   16.9830  -34.2000 Cl  0  0  0  0  0  0  0  0  0  0  0  0
   -4.5220   19.4410  -33.9710 C   0  0  0  0  0  0  0  0  0  0  0  0
   -4.1280   20.5820  -33.2660 C   0  0  0  0  0  0  0  0  0  0  0  0
   -8.1360   21.5850  -30.7800 C   0  0  0  0  0  0  0  0  0  0  0  0
   -8.8080   20.3600  -30.8230 C   0  0  0  0  0  0  0  0  0  0  0  0
   -9.5281   17.8513  -30.9334 H   0  0  0  0  0  0  0  0  0  0  0  0
  -10.3276   18.2607  -32.4889 H   0  0  0  0  0  0  0  0  0  0  0  0
   -8.7157   17.4679  -32.4889 H   0  0  0  0  0  0  0  0  0  0  0  0
   -7.8123   19.3010  -33.9208 H   0  0  0  0  0  0  0  0  0  0  0  0
   -6.6244   21.4933  -33.8454 H   0  0  0  0  0  0  0  0  0  0  0  0
   -4.3141   24.9337  -29.9303 H   0  0  0  0  0  0  0  0  0  0  0  0
   -0.2744   22.9677  -30.1249 H   0  0  0  0  0  0  0  0  0  0  0  0
    1.4697   23.7480  -28.5249 H   0  0  0  0  0  0  0  0  0  0  0  0
    0.8119   24.9057  -26.4165 H   0  0  0  0  0  0  0  0  0  0  0  0
   -1.9720   27.8950  -25.0990 H   0  0  0  0  0  0  0  0  0  0  0  0
   -0.3228   27.1112  -23.5309 H   0  0  0  0  0  0  0  0  0  0  0  0
    0.7920   26.8319  -24.9208 H   0  0  0  0  0  0  0  0  0  0  0  0
   -0.2435   29.4495  -23.7744 H   0  0  0  0  0  0  0  0  0  0  0  0
    1.4585   28.9274  -24.1872 H   0  0  0  0  0  0  0  0  0  0  0  0
   -1.0793   30.8638  -24.8323 H   0  0  0  0  0  0  0  0  0  0  0  0
   -0.4358   31.4930  -26.3869 H   0  0  0  0  0  0  0  0  0  0  0  0
   -1.6365   30.1569  -26.3869 H   0  0  0  0  0  0  0  0  0  0  0  0
    0.1429   29.2636  -27.8681 H   0  0  0  0  0  0  0  0  0  0  0  0
    1.2309   28.1254  -26.9545 H   0  0  0  0  0  0  0  0  0  0  0  0
   -1.7602   28.0701  -27.3126 H   0  0  0  0  0  0  0  0  0  0  0  0
   -0.5203   26.7304  -27.3420 H   0  0  0  0  0  0  0  0  0  0  0  0
   -3.3586   24.5094  -27.4997 H   0  0  0  0  0  0  0  0  0  0  0  0
   -5.2215   19.6993  -30.1455 H   0  0  0  0  0  0  0  0  0  0  0  0
   -5.9416   17.6742  -31.4123 H   0  0  0  0  0  0  0  0  0  0  0  0
   -4.3111   19.3603  -35.0476 H   0  0  0  0  0  0  0  0  0  0  0  0
   -3.5994   21.3931  -33.7882 H   0  0  0  0  0  0  0  0  0  0  0  0
   -8.2399   22.2356  -29.8992 H   0  0  0  0  0  0  0  0  0  0  0  0
   -9.4233   20.0418  -29.9685 H   0  0  0  0  0  0  0  0  0  0  0  0
  1  2  1  0
  2  3  2  0
  3  4  1  0
  4  5  2  0
  5  6  1  0
  6  7  2  0
  6  8  2  0
  6  9  1  0
  9 10  2  0
 10 11  1  0
 11 12  1  0
 12 13  2  0
 13 14  1  0
 14 15  2  0
 15 16  1  0
 16 17  1  0
 17 18  2  0
 17 19  2  0
 17 20  1  0
 20 21  1  0
 21 22  1  0
 22 23  1  0
 23 24  1  0
 23 25  1  0
 25 26  1  0
 16 27  2  0
 11 28  1  0
 28 29  2  0
 29 30  1  0
 30 31  2  0
 31 32  1  0
 32 33  2  0
 33 34  1  0
 33 35  1  0
 35 36  2  0
  5 37  1  0
 37 38  2  0
 38  2  1  0
 29  9  1  0
 36 30  1  0
 27 12  1  0
 26 20  1  0
  1 39  1  0
  1 40  1  0
  1 41  1  0
  3 42  1  0
  4 43  1  0
 10 44  1  0
 13 45  1  0
 14 46  1  0
 15 47  1  0
 20 48  1  0
 21 49  1  0
 21 50  1  0
 22 51  1  0
 22 52  1  0
 24 53  1  0
 24 54  1  0
 24 55  1  0
 25 56  1  0
 25 57  1  0
 26 58  1  0
 26 59  1  0
 27 60  1  0
 31 61  1  0
 32 62  1  0
 35 63  1  0
 36 64  1  0
 37 65  1  0
 38 66  1  0
M  CHG  1  20   1
M  END
>  <UniqueID>  (30) 
29

>  <SMILES>  (30) 
Cc1ccc(S(=O)(=O)c2cn(-c3cccc(S(=O)(=O)[NH+]4CCN(C)CC4)c3)nc2-c2ccc(Cl)cc2)cc1

>  <Energy>  (30) 
116.38696721232589

>  <Genealogy>  (30) 
Cc1ccc(S(=O)(=O)c2cn(-c3cccc(S(=O)(=O)[NH+]4CCN(C)CC4)c3)nc2-c2ccc(Cl)cc2)cc1 (protonated)
Cc1ccc(S(=O)(=O)c2cn(-c3cccc(S(=O)(=O)[NH+]4CCN(C)CC4)c3)nc2-c2ccc(Cl)cc2)cc1 (3D coordinates assigned)
Cc1ccc(S(=O)(=O)c2cn(-c3cccc(S(=O)(=O)[NH+]4CCN(C)CC4)c3)nc2-c2ccc(Cl)cc2)cc1 (nonaromatic ring conformer: 116.38696721232589 kcal/mol)

>  <smiles>  (30) 
Cc1ccc(S(=O)(=O)c2cn(-c3cccc(S(=O)(=O)N4CCN(C)CC4)c3)nc2-c2ccc(Cl)cc2)cc1

>  <score_type>  (30) 
oracle

>  <origin>  (30) 
adgpu

>  <m_score__min__energy>  (30) 
-11.51

>  <m_primary>  (30) 
energy

$$$$
30:0
     RDKit          3D

 69 73  0  0  0  0  0  0  0  0999 V2000
   -8.0740   18.6400  -31.7570 C   0  0  0  0  0  0  0  0  0  0  0  0
   -6.7100   17.9630  -31.9360 C   0  0  1  0  0  0  0  0  0  0  0  0
   -6.8400   16.6970  -32.7980 C   0  0  0  0  0  0  0  0  0  0  0  0
   -5.5270   15.8990  -32.7840 C   0  0  0  0  0  0  0  0  0  0  0  0
   -4.2970   16.7710  -32.9130 C   0  0  0  0  0  0  0  0  0  0  0  0
   -3.0520   16.1610  -33.1450 C   0  0  0  0  0  0  0  0  0  0  0  0
   -1.8810   16.9220  -33.1660 C   0  0  0  0  0  0  0  0  0  0  0  0
   -1.9370   18.2940  -32.9200 C   0  0  0  0  0  0  0  0  0  0  0  0
   -3.1660   18.9140  -32.6810 C   0  0  0  0  0  0  0  0  0  0  0  0
   -4.3630   18.1690  -32.7000 C   0  0  0  0  0  0  0  0  0  0  0  0
   -5.6470   18.8110  -32.5140 N   0  0  0  0  0  0  0  0  0  0  0  0
   -5.8860   20.4120  -33.1990 S   0  0  0  0  0  0  0  0  0  0  0  0
   -4.6820   20.9220  -33.9370 O   0  0  0  0  0  0  0  0  0  0  0  0
   -7.0460   20.3780  -34.1560 O   0  0  0  0  0  0  0  0  0  0  0  0
   -6.1930   21.5460  -31.8840 C   0  0  0  0  0  0  0  0  0  0  0  0
   -7.4660   21.6620  -31.3070 C   0  0  0  0  0  0  0  0  0  0  0  0
   -7.6660   22.5190  -30.2210 C   0  0  0  0  0  0  0  0  0  0  0  0
   -6.6040   23.2800  -29.7200 C   0  0  0  0  0  0  0  0  0  0  0  0
   -5.3320   23.1990  -30.3120 C   0  0  0  0  0  0  0  0  0  0  0  0
   -4.2170   24.0350  -29.8140 C   0  0  0  0  0  0  0  0  0  0  0  0
   -3.8650   25.0580  -30.4650 O   0  0  0  0  0  0  0  0  0  0  0  0
   -3.4860   23.6440  -28.6430 N   0  0  0  0  0  0  0  0  0  0  0  0
   -2.6630   24.5330  -27.8690 C   0  0  0  0  0  0  0  0  0  0  0  0
   -3.0490   24.8610  -26.5610 C   0  0  0  0  0  0  0  0  0  0  0  0
   -2.2990   25.7640  -25.8040 C   0  0  0  0  0  0  0  0  0  0  0  0
   -1.1600   26.3690  -26.3520 C   0  0  0  0  0  0  0  0  0  0  0  0
   -0.2490   27.5590  -25.4180 S   0  0  0  0  0  0  0  0  0  0  0  0
    0.2680   28.6290  -26.3410 O   0  0  0  0  0  0  0  0  0  0  0  0
   -1.1660   28.2080  -24.4190 O   0  0  0  0  0  0  0  0  0  0  0  0
    1.0930   26.8240  -24.5760 N   0  0  0  0  0  0  0  0  0  0  0  0
    1.9840   26.1430  -25.5300 C   0  0  0  0  0  0  0  0  0  0  0  0
    3.0420   25.3070  -24.7840 C   0  0  0  0  0  0  0  0  0  0  0  0
    3.2430   25.7750  -23.3310 C   0  0  0  0  0  0  0  0  0  0  0  0
    3.1580   27.3010  -23.2270 C   0  0  0  0  0  0  0  0  0  0  0  0
    1.8320   27.8460  -23.8050 C   0  0  0  0  0  0  0  0  0  0  0  0
   -0.7710   26.0510  -27.6580 C   0  0  0  0  0  0  0  0  0  0  0  0
   -1.5190   25.1410  -28.4160 C   0  0  0  0  0  0  0  0  0  0  0  0
   -5.1320   22.3130  -31.3840 C   0  0  0  0  0  0  0  0  0  0  0  0
   -8.2917   18.7481  -30.6842 H   0  0  0  0  0  0  0  0  0  0  0  0
   -8.0551   19.6333  -32.2292 H   0  0  0  0  0  0  0  0  0  0  0  0
   -8.8537   18.0243  -32.2292 H   0  0  0  0  0  0  0  0  0  0  0  0
   -6.3966   17.7270  -30.9084 H   0  0  0  0  0  0  0  0  0  0  0  0
   -7.6497   16.0687  -32.3985 H   0  0  0  0  0  0  0  0  0  0  0  0
   -7.0652   16.9931  -33.8332 H   0  0  0  0  0  0  0  0  0  0  0  0
   -5.4648   15.3451  -31.8356 H   0  0  0  0  0  0  0  0  0  0  0  0
   -5.5439   15.2273  -33.6550 H   0  0  0  0  0  0  0  0  0  0  0  0
   -2.9995   15.0749  -33.3114 H   0  0  0  0  0  0  0  0  0  0  0  0
   -0.9150   16.4397  -33.3764 H   0  0  0  0  0  0  0  0  0  0  0  0
   -1.0117   18.8889  -32.9142 H   0  0  0  0  0  0  0  0  0  0  0  0
   -3.2002   19.9942  -32.4759 H   0  0  0  0  0  0  0  0  0  0  0  0
   -8.3073   21.0784  -31.7092 H   0  0  0  0  0  0  0  0  0  0  0  0
   -8.6613   22.5954  -29.7588 H   0  0  0  0  0  0  0  0  0  0  0  0
   -6.7655   23.9448  -28.8587 H   0  0  0  0  0  0  0  0  0  0  0  0
   -3.5070   22.6360  -28.3630 H   0  0  0  0  0  0  0  0  0  0  0  0
   -3.9503   24.4030  -26.1276 H   0  0  0  0  0  0  0  0  0  0  0  0
   -2.6036   26.0011  -24.7739 H   0  0  0  0  0  0  0  0  0  0  0  0
    1.3863   25.4795  -26.1722 H   0  0  0  0  0  0  0  0  0  0  0  0
    2.4972   26.9018  -26.1389 H   0  0  0  0  0  0  0  0  0  0  0  0
    2.7191   24.2555  -24.7749 H   0  0  0  0  0  0  0  0  0  0  0  0
    3.9995   25.4304  -25.3113 H   0  0  0  0  0  0  0  0  0  0  0  0
    2.4624   25.3276  -22.6981 H   0  0  0  0  0  0  0  0  0  0  0  0
    4.2413   25.4568  -22.9961 H   0  0  0  0  0  0  0  0  0  0  0  0
    3.2294   27.5896  -22.1679 H   0  0  0  0  0  0  0  0  0  0  0  0
    3.9857   27.7288  -23.8117 H   0  0  0  0  0  0  0  0  0  0  0  0
    1.1983   28.1885  -22.9737 H   0  0  0  0  0  0  0  0  0  0  0  0
    2.0778   28.6710  -24.4898 H   0  0  0  0  0  0  0  0  0  0  0  0
    0.1260   26.5176  -28.0912 H   0  0  0  0  0  0  0  0  0  0  0  0
   -1.2101   24.9008  -29.4440 H   0  0  0  0  0  0  0  0  0  0  0  0
   -4.1330   22.2205  -31.8351 H   0  0  0  0  0  0  0  0  0  0  0  0
  1  2  1  0
  2  3  1  0
  3  4  1  0
  4  5  1  0
  5  6  2  0
  6  7  1  0
  7  8  2  0
  8  9  1  0
  9 10  2  0
 10 11  1  0
 11 12  1  0
 12 13  2  0
 12 14  2  0
 12 15  1  0
 15 16  2  0
 16 17  1  0
 17 18  2  0
 18 19  1  0
 19 20  1  0
 20 21  2  0
 20 22  1  0
 22 23  1  0
 23 24  2  0
 24 25  1  0
 25 26  2  0
 26 27  1  0
 27 28  2  0
 27 29  2  0
 27 30  1  0
 30 31  1  0
 31 32  1  0
 32 33  1  0
 33 34  1  0
 34 35  1  0
 26 36  1  0
 36 37  2  0
 19 38  2  0
 11  2  1  0
 38 15  1  0
 10  5  1  0
 37 23  1  0
 35 30  1  0
  1 39  1  0
  1 40  1  0
  1 41  1  0
  2 42  1  1
  3 43  1  0
  3 44  1  0
  4 45  1  0
  4 46  1  0
  6 47  1  0
  7 48  1  0
  8 49  1  0
  9 50  1  0
 16 51  1  0
 17 52  1  0
 18 53  1  0
 22 54  1  0
 24 55  1  0
 25 56  1  0
 31 57  1  0
 31 58  1  0
 32 59  1  0
 32 60  1  0
 33 61  1  0
 33 62  1  0
 34 63  1  0
 34 64  1  0
 35 65  1  0
 35 66  1  0
 36 67  1  0
 37 68  1  0
 38 69  1  0
M  END
>  <UniqueID>  (31) 
30

>  <SMILES>  (31) 
C[C@H]1CCc2ccccc2N1S(=O)(=O)c1cccc(C(=O)Nc2ccc(S(=O)(=O)N3CCCCC3)cc2)c1

>  <Energy>  (31) 
90.82876813793337

>  <Genealogy>  (31) 
C[C@H]1CCc2ccccc2N1S(=O)(=O)c1cccc(C(=O)Nc2ccc(S(=O)(=O)N3CCCCC3)cc2)c1 (chirality)
C[C@H]1CCc2ccccc2N1S(=O)(=O)c1cccc(C(=O)Nc2ccc(S(=O)(=O)N3CCCCC3)cc2)c1 (3D coordinates assigned)
C[C@H]1CCc2ccccc2N1S(=O)(=O)c1cccc(C(=O)Nc2ccc(S(=O)(=O)N3CCCCC3)cc2)c1 (nonaromatic ring conformer: 90.82876813793337 kcal/mol)

>  <smiles>  (31) 
CC1CCc2ccccc2N1S(=O)(=O)c1cccc(C(=O)Nc2ccc(S(=O)(=O)N3CCCCC3)cc2)c1

>  <score_type>  (31) 
oracle

>  <origin>  (31) 
adgpu

>  <m_score__min__energy>  (31) 
-11.49

>  <m_primary>  (31) 
energy

$$$$
31:0
     RDKit          3D

 46 48  0  0  0  0  0  0  0  0999 V2000
   -1.4120   25.7790  -28.9520 N   0  0  0  0  0  0  0  0  0  0  0  0
   -0.6360   24.7830  -27.7740 S   0  0  0  0  0  0  0  0  0  0  0  0
    0.7860   24.5260  -28.1870 O   0  0  0  0  0  0  0  0  0  0  0  0
   -0.6180   25.5000  -26.4520 O   0  0  0  0  0  0  0  0  0  0  0  0
   -1.5210   23.2610  -27.5990 C   0  0  0  0  0  0  0  0  0  0  0  0
   -0.8260   22.1400  -27.1180 C   0  0  0  0  0  0  0  0  0  0  0  0
   -1.4440   20.8900  -27.0660 C   0  0  0  0  0  0  0  0  0  0  0  0
   -2.7590   20.7410  -27.5090 C   0  0  0  0  0  0  0  0  0  0  0  0
   -3.4670   21.8490  -27.9760 C   0  0  0  0  0  0  0  0  0  0  0  0
   -2.8750   23.1190  -27.9880 C   0  0  0  0  0  0  0  0  0  0  0  0
   -3.6710   24.2400  -28.3920 N   0  0  0  0  0  0  0  0  0  0  0  0
   -4.1200   24.4700  -29.7360 C   0  0  0  0  0  0  0  0  0  0  0  0
   -3.4790   25.2790  -30.4570 O   0  0  0  0  0  0  0  0  0  0  0  0
   -5.3010   23.7760  -30.2960 C   0  0  0  0  0  0  0  0  0  0  0  0
   -5.6610   23.9690  -31.6390 C   0  0  0  0  0  0  0  0  0  0  0  0
   -6.8020   23.3510  -32.1600 C   0  0  0  0  0  0  0  0  0  0  0  0
   -7.5850   22.5170  -31.3510 C   0  0  0  0  0  0  0  0  0  0  0  0
   -9.0640   21.7880  -31.9810 S   0  0  0  0  0  0  0  0  0  0  0  0
   -9.9070   21.3080  -30.8320 O   0  0  0  0  0  0  0  0  0  0  0  0
   -9.8460   22.8430  -32.7130 O   0  0  0  0  0  0  0  0  0  0  0  0
   -8.7450   20.4520  -33.0680 N   0  0  0  0  0  0  0  0  0  0  0  0
   -9.4620   19.2220  -32.6820 C   0  0  0  0  0  0  0  0  0  0  0  0
   -8.7470   18.4350  -31.5600 C   0  0  0  0  0  0  0  0  0  0  0  0
   -7.4470   18.9140  -31.2770 O   0  0  0  0  0  0  0  0  0  0  0  0
   -6.7250   19.0730  -32.4760 C   0  0  0  0  0  0  0  0  0  0  0  0
   -7.3010   20.2350  -33.3050 C   0  0  0  0  0  0  0  0  0  0  0  0
   -7.1930   22.2750  -30.0290 C   0  0  0  0  0  0  0  0  0  0  0  0
   -6.0600   22.8980  -29.5050 C   0  0  0  0  0  0  0  0  0  0  0  0
   -1.4120   25.2420  -29.8470 H   0  0  0  0  0  0  0  0  0  0  0  0
   -2.4110   25.8760  -28.6600 H   0  0  0  0  0  0  0  0  0  0  0  0
    0.2149   22.2480  -26.7791 H   0  0  0  0  0  0  0  0  0  0  0  0
   -0.8941   20.0211  -26.6754 H   0  0  0  0  0  0  0  0  0  0  0  0
   -3.2371   19.7505  -27.4900 H   0  0  0  0  0  0  0  0  0  0  0  0
   -4.4983   21.7245  -28.3377 H   0  0  0  0  0  0  0  0  0  0  0  0
   -5.0424   24.6096  -32.2848 H   0  0  0  0  0  0  0  0  0  0  0  0
   -7.0860   23.5203  -33.2091 H   0  0  0  0  0  0  0  0  0  0  0  0
  -10.4676   19.4975  -32.3313 H   0  0  0  0  0  0  0  0  0  0  0  0
   -9.5010   18.5712  -33.5680 H   0  0  0  0  0  0  0  0  0  0  0  0
   -9.3519   18.5069  -30.6441 H   0  0  0  0  0  0  0  0  0  0  0  0
   -8.6412   17.3972  -31.9088 H   0  0  0  0  0  0  0  0  0  0  0  0
   -5.6721   19.2854  -32.2386 H   0  0  0  0  0  0  0  0  0  0  0  0
   -6.8031   18.1458  -33.0627 H   0  0  0  0  0  0  0  0  0  0  0  0
   -6.7600   21.1558  -33.0416 H   0  0  0  0  0  0  0  0  0  0  0  0
   -7.1764   19.9760  -34.3668 H   0  0  0  0  0  0  0  0  0  0  0  0
   -7.7812   21.5903  -29.4003 H   0  0  0  0  0  0  0  0  0  0  0  0
   -5.7592   22.7003  -28.4656 H   0  0  0  0  0  0  0  0  0  0  0  0
  1  2  1  0
  2  3  2  0
  2  4  2  0
  2  5  1  0
  5  6  2  0
  6  7  1  0
  7  8  2  0
  8  9  1  0
  9 10  2  0
 10 11  1  0
 11 12  1  0
 12 13  2  0
 12 14  1  0
 14 15  2  0
 15 16  1  0
 16 17  2  0
 17 18  1  0
 18 19  2  0
 18 20  2  0
 18 21  1  0
 21 22  1  0
 22 23  1  0
 23 24  1  0
 24 25  1  0
 25 26  1  0
 17 27  1  0
 27 28  2  0
 10  5  1  0
 28 14  1  0
 26 21  1  0
  1 29  1  0
  1 30  1  0
  6 31  1  0
  7 32  1  0
  8 33  1  0
  9 34  1  0
 15 35  1  0
 16 36  1  0
 22 37  1  0
 22 38  1  0
 23 39  1  0
 23 40  1  0
 25 41  1  0
 25 42  1  0
 26 43  1  0
 26 44  1  0
 27 45  1  0
 28 46  1  0
M  CHG  1  11  -1
M  END
>  <UniqueID>  (32) 
31

>  <SMILES>  (32) 
NS(=O)(=O)c1ccccc1[N-]C(=O)c1ccc(S(=O)(=O)N2CCOCC2)cc1

>  <Energy>  (32) 
66.25611521417248

>  <Genealogy>  (32) 
NS(=O)(=O)c1ccccc1[N-]C(=O)c1ccc(S(=O)(=O)N2CCOCC2)cc1 (protonated)
NS(=O)(=O)c1ccccc1[N-]C(=O)c1ccc(S(=O)(=O)N2CCOCC2)cc1 (3D coordinates assigned)
NS(=O)(=O)c1ccccc1[N-]C(=O)c1ccc(S(=O)(=O)N2CCOCC2)cc1 (nonaromatic ring conformer: 66.25611521417248 kcal/mol)

>  <smiles>  (32) 
NS(=O)(=O)c1ccccc1NC(=O)c1ccc(S(=O)(=O)N2CCOCC2)cc1

>  <score_type>  (32) 
oracle

>  <origin>  (32) 
adgpu

>  <m_score__min__energy>  (32) 
-11.460000000000001

>  <m_primary>  (32) 
energy

$$$$
32:0
     RDKit          3D

 57 61  0  0  0  0  0  0  0  0999 V2000
   -0.4080   21.2030  -33.2410 C   0  0  0  0  0  0  0  0  0  0  0  0
   -0.4740   20.5360  -31.9770 N   0  0  0  0  0  0  0  0  0  0  0  0
    0.5700   19.9200  -31.3450 C   0  0  0  0  0  0  0  0  0  0  0  0
    0.1410   19.3990  -30.1650 C   0  0  0  0  0  0  0  0  0  0  0  0
    0.9150   18.6560  -29.1630 C   0  0  0  0  0  0  0  0  0  0  0  0
    2.1560   19.0920  -28.7780 C   0  0  0  0  0  0  0  0  0  0  0  0
    2.9330   18.4260  -27.8320 C   0  0  0  0  0  0  0  0  0  0  0  0
    2.3890   17.2860  -27.2870 C   0  0  0  0  0  0  0  0  0  0  0  0
    1.1490   16.8030  -27.6360 C   0  0  0  0  0  0  0  0  0  0  0  0
    0.6710   15.6740  -27.0630 F   0  0  0  0  0  0  0  0  0  0  0  0
    0.3960   17.4930  -28.5870 C   0  0  0  0  0  0  0  0  0  0  0  0
   -1.1420   19.6750  -30.0470 N   0  0  0  0  0  0  0  0  0  0  0  0
   -1.5520   20.3760  -31.1500 C   0  0  0  0  0  0  0  0  0  0  0  0
   -2.9030   20.8500  -31.3800 C   0  0  0  0  0  0  0  0  0  0  0  0
   -3.2650   20.5610  -32.8410 C   0  0  0  0  0  0  0  0  0  0  0  0
   -4.4450   21.4010  -33.2750 C   0  0  0  0  0  0  0  0  0  0  0  0
   -5.3160   21.7600  -32.1980 N   0  0  0  0  0  0  0  0  0  0  0  0
   -6.7470   21.6140  -32.2530 C   0  0  0  0  0  0  0  0  0  0  0  0
   -7.4610   22.7030  -31.8870 N   0  0  0  0  0  0  0  0  0  0  0  0
   -8.8050   22.6760  -31.9010 C   0  0  0  0  0  0  0  0  0  0  0  0
   -9.4510   21.5390  -32.2890 N   0  0  0  0  0  0  0  0  0  0  0  0
   -8.7390   20.4380  -32.6610 C   0  0  0  0  0  0  0  0  0  0  0  0
   -9.3760   19.3770  -33.0230 N   0  0  0  0  0  0  0  0  0  0  0  0
   -7.3490   20.4400  -32.6540 C   0  0  0  0  0  0  0  0  0  0  0  0
   -6.5620   19.2780  -33.0460 C   0  0  0  0  0  0  0  0  0  0  0  0
   -6.1200   19.0570  -34.3320 C   0  0  0  0  0  0  0  0  0  0  0  0
   -5.3700   17.9360  -34.6680 C   0  0  0  0  0  0  0  0  0  0  0  0
   -5.0510   17.0060  -33.6960 C   0  0  0  0  0  0  0  0  0  0  0  0
   -4.3140   15.9160  -34.0520 F   0  0  0  0  0  0  0  0  0  0  0  0
   -5.4910   17.2220  -32.4060 C   0  0  0  0  0  0  0  0  0  0  0  0
   -6.2410   18.3410  -32.0600 C   0  0  0  0  0  0  0  0  0  0  0  0
   -4.7860   22.3020  -30.9640 C   0  0  0  0  0  0  0  0  0  0  0  0
   -3.2470   22.2410  -31.0410 C   0  0  0  0  0  0  0  0  0  0  0  0
   -0.3009   22.2857  -33.0791 H   0  0  0  0  0  0  0  0  0  0  0  0
    0.4576   20.8296  -33.8079 H   0  0  0  0  0  0  0  0  0  0  0  0
   -1.3300   21.0065  -33.8079 H   0  0  0  0  0  0  0  0  0  0  0  0
    1.5979   19.8559  -31.7314 H   0  0  0  0  0  0  0  0  0  0  0  0
    2.5566   20.0084  -29.2361 H   0  0  0  0  0  0  0  0  0  0  0  0
    3.9275   18.7921  -27.5370 H   0  0  0  0  0  0  0  0  0  0  0  0
    2.9735   16.7342  -26.5361 H   0  0  0  0  0  0  0  0  0  0  0  0
   -0.5979   17.1246  -28.8809 H   0  0  0  0  0  0  0  0  0  0  0  0
   -3.5034   20.2920  -30.6463 H   0  0  0  0  0  0  0  0  0  0  0  0
   -2.4008   20.7946  -33.4802 H   0  0  0  0  0  0  0  0  0  0  0  0
   -3.5332   19.4984  -32.9355 H   0  0  0  0  0  0  0  0  0  0  0  0
   -4.0644   22.3236  -33.7376 H   0  0  0  0  0  0  0  0  0  0  0  0
   -5.0333   20.7939  -33.9788 H   0  0  0  0  0  0  0  0  0  0  0  0
   -9.3799   23.5648  -31.6016 H   0  0  0  0  0  0  0  0  0  0  0  0
  -10.4780   21.5720  -32.2820 H   0  0  0  0  0  0  0  0  0  0  0  0
   -8.8580   18.5120  -33.3140 H   0  0  0  0  0  0  0  0  0  0  0  0
   -6.3677   19.7886  -35.1152 H   0  0  0  0  0  0  0  0  0  0  0  0
   -5.0313   17.7892  -35.7042 H   0  0  0  0  0  0  0  0  0  0  0  0
   -5.2408   16.4864  -31.6273 H   0  0  0  0  0  0  0  0  0  0  0  0
   -6.5774   18.4868  -31.0229 H   0  0  0  0  0  0  0  0  0  0  0  0
   -5.1130   23.3453  -30.8433 H   0  0  0  0  0  0  0  0  0  0  0  0
   -5.1496   21.7213  -30.1034 H   0  0  0  0  0  0  0  0  0  0  0  0
   -2.8775   22.9249  -31.8194 H   0  0  0  0  0  0  0  0  0  0  0  0
   -2.7875   22.5449  -30.0889 H   0  0  0  0  0  0  0  0  0  0  0  0
  1  2  1  0
  2  3  1  0
  3  4  2  0
  4  5  1  0
  5  6  2  0
  6  7  1  0
  7  8  2  0
  8  9  1  0
  9 10  1  0
  9 11  2  0
  4 12  1  0
 12 13  2  0
 13 14  1  0
 14 15  1  0
 15 16  1  0
 16 17  1  0
 17 18  1  0
 18 19  1  0
 19 20  2  0
 20 21  1  0
 21 22  1  0
 22 23  2  3
 22 24  1  0
 24 25  1  0
 25 26  2  0
 26 27  1  0
 27 28  2  0
 28 29  1  0
 28 30  1  0
 30 31  2  0
 17 32  1  0
 32 33  1  0
 13  2  1  0
 33 14  1  0
 11  5  1  0
 24 18  2  0
 31 25  1  0
  1 34  1  0
  1 35  1  0
  1 36  1  0
  3 37  1  0
  6 38  1  0
  7 39  1  0
  8 40  1  0
 11 41  1  0
 14 42  1  0
 15 43  1  0
 15 44  1  0
 16 45  1  0
 16 46  1  0
 20 47  1  0
 21 48  1  0
 23 49  1  0
 26 50  1  0
 27 51  1  0
 30 52  1  0
 31 53  1  0
 32 54  1  0
 32 55  1  0
 33 56  1  0
 33 57  1  0
M  END
>  <smiles>  (33) 
Cn1cc(-c2cccc(F)c2)nc1C1CCN(c2nc[nH]c(=N)c2-c2ccc(F)cc2)CC1

>  <score_type>  (33) 
oracle

>  <origin>  (33) 
adgpu

>  <m_score__min__energy>  (33) 
-8.9000000000000004

>  <m_primary>  (33) 
energy

$$$$
33:0
     RDKit          3D

 48 50  0  0  0  0  0  0  0  0999 V2000
   -2.0930   23.1640  -30.8050 O   0  0  0  0  0  0  0  0  0  0  0  0
   -3.4020   23.6470  -30.2500 S   0  0  0  0  0  0  0  0  0  0  0  0
   -3.6550   25.0440  -30.7460 O   0  0  0  0  0  0  0  0  0  0  0  0
   -3.3100   23.6550  -28.5160 N   0  0  0  0  0  0  0  0  0  0  0  0
   -2.1470   23.9310  -27.7200 C   0  0  0  0  0  0  0  0  0  0  0  0
   -1.8060   23.0050  -26.7230 C   0  0  0  0  0  0  0  0  0  0  0  0
   -0.6930   23.2130  -25.9050 C   0  0  0  0  0  0  0  0  0  0  0  0
    0.0950   24.3540  -26.0740 C   0  0  0  0  0  0  0  0  0  0  0  0
   -0.2210   25.2780  -27.0730 C   0  0  0  0  0  0  0  0  0  0  0  0
   -1.3290   25.0720  -27.9100 C   0  0  0  0  0  0  0  0  0  0  0  0
   -1.5880   25.9840  -28.9310 O   0  0  0  0  0  0  0  0  0  0  0  0
   -4.6680   22.5420  -30.7770 C   0  0  0  0  0  0  0  0  0  0  0  0
   -6.0090   22.9480  -30.8130 C   0  0  0  0  0  0  0  0  0  0  0  0
   -7.0040   22.0540  -31.2200 C   0  0  0  0  0  0  0  0  0  0  0  0
   -6.6660   20.7520  -31.6100 C   0  0  0  0  0  0  0  0  0  0  0  0
   -7.9170   19.6340  -32.1520 S   0  0  0  0  0  0  0  0  0  0  0  0
   -8.4940   18.9170  -30.9620 O   0  0  0  0  0  0  0  0  0  0  0  0
   -9.0270   20.4140  -32.8030 O   0  0  0  0  0  0  0  0  0  0  0  0
   -7.2710   18.4540  -33.2740 N   0  0  0  0  0  0  0  0  0  0  0  0
   -6.4380   19.1310  -34.2900 C   0  0  0  0  0  0  0  0  0  0  0  0
   -4.9320   18.9630  -34.0340 C   0  0  0  0  0  0  0  0  0  0  0  0
   -4.2830   17.7120  -34.6580 C   0  0  0  0  0  0  0  0  0  0  0  0
   -4.5740   16.4020  -33.9040 C   0  0  0  0  0  0  0  0  0  0  0  0
   -6.0420   16.2080  -33.4370 C   0  0  0  0  0  0  0  0  0  0  0  0
   -6.6250   17.3300  -32.5470 C   0  0  0  0  0  0  0  0  0  0  0  0
   -5.3240   20.3490  -31.5800 C   0  0  0  0  0  0  0  0  0  0  0  0
   -4.3310   21.2390  -31.1640 C   0  0  0  0  0  0  0  0  0  0  0  0
   -2.4223   22.1046  -26.5837 H   0  0  0  0  0  0  0  0  0  0  0  0
   -0.4370   22.4781  -25.1276 H   0  0  0  0  0  0  0  0  0  0  0  0
    0.9636   24.5248  -25.4210 H   0  0  0  0  0  0  0  0  0  0  0  0
    0.4033   26.1740  -27.2048 H   0  0  0  0  0  0  0  0  0  0  0  0
   -2.0350   25.7050  -29.7950 H   0  0  0  0  0  0  0  0  0  0  0  0
   -6.2795   23.9732  -30.5201 H   0  0  0  0  0  0  0  0  0  0  0  0
   -8.0562   22.3745  -31.2339 H   0  0  0  0  0  0  0  0  0  0  0  0
   -6.6758   18.7088  -35.2775 H   0  0  0  0  0  0  0  0  0  0  0  0
   -6.6643   20.2063  -34.2406 H   0  0  0  0  0  0  0  0  0  0  0  0
   -4.4195   19.8476  -34.4399 H   0  0  0  0  0  0  0  0  0  0  0  0
   -4.8244   18.8451  -32.9456 H   0  0  0  0  0  0  0  0  0  0  0  0
   -4.6573   17.6072  -35.6870 H   0  0  0  0  0  0  0  0  0  0  0  0
   -3.1949   17.8662  -34.6113 H   0  0  0  0  0  0  0  0  0  0  0  0
   -4.3171   15.5645  -34.5693 H   0  0  0  0  0  0  0  0  0  0  0  0
   -3.9693   16.4428  -32.9860 H   0  0  0  0  0  0  0  0  0  0  0  0
   -6.6728   16.1287  -34.3346 H   0  0  0  0  0  0  0  0  0  0  0  0
   -6.0361   15.3048  -32.8091 H   0  0  0  0  0  0  0  0  0  0  0  0
   -7.3773   16.8792  -31.8830 H   0  0  0  0  0  0  0  0  0  0  0  0
   -5.7682   17.7682  -32.0142 H   0  0  0  0  0  0  0  0  0  0  0  0
   -5.0516   19.3279  -31.8852 H   0  0  0  0  0  0  0  0  0  0  0  0
   -3.2800   20.9151  -31.1403 H   0  0  0  0  0  0  0  0  0  0  0  0
  1  2  2  0
  2  3  2  0
  2  4  1  0
  4  5  1  0
  5  6  2  0
  6  7  1  0
  7  8  2  0
  8  9  1  0
  9 10  2  0
 10 11  1  0
  2 12  1  0
 12 13  2  0
 13 14  1  0
 14 15  2  0
 15 16  1  0
 16 17  2  0
 16 18  2  0
 16 19  1  0
 19 20  1  0
 20 21  1  0
 21 22  1  0
 22 23  1  0
 23 24  1  0
 24 25  1  0
 15 26  1  0
 26 27  2  0
 10  5  1  0
 27 12  1  0
 25 19  1  0
  6 28  1  0
  7 29  1  0
  8 30  1  0
  9 31  1  0
 11 32  1  0
 13 33  1  0
 14 34  1  0
 20 35  1  0
 20 36  1  0
 21 37  1  0
 21 38  1  0
 22 39  1  0
 22 40  1  0
 23 41  1  0
 23 42  1  0
 24 43  1  0
 24 44  1  0
 25 45  1  0
 25 46  1  0
 26 47  1  0
 27 48  1  0
M  CHG  1   4  -1
M  END
>  <UniqueID>  (34) 
32

>  <SMILES>  (34) 
O=S(=O)([N-]c1ccccc1O)c1ccc(S(=O)(=O)N2CCCCCC2)cc1

>  <Energy>  (34) 
67.08750730157925

>  <Genealogy>  (34) 
O=S(=O)([N-]c1ccccc1O)c1ccc(S(=O)(=O)N2CCCCCC2)cc1 (protonated)
O=S(=O)([N-]c1ccccc1O)c1ccc(S(=O)(=O)N2CCCCCC2)cc1 (3D coordinates assigned)
O=S(=O)([N-]c1ccccc1O)c1ccc(S(=O)(=O)N2CCCCCC2)cc1 (nonaromatic ring conformer: 67.08750730157925 kcal/mol)

>  <smiles>  (34) 
O=S(=O)(Nc1ccccc1O)c1ccc(S(=O)(=O)N2CCCCCC2)cc1

>  <score_type>  (34) 
oracle

>  <origin>  (34) 
adgpu

>  <m_score__min__energy>  (34) 
-9.4000000000000004

>  <m_primary>  (34) 
energy

$$$$
34:0
     RDKit          3D

 48 50  0  0  0  0  0  0  0  0999 V2000
   -0.4750   24.3360  -24.6140 C   0  0  0  0  0  0  0  0  0  0  0  0
    0.3050   23.2000  -25.2710 C   0  0  0  0  0  0  0  0  0  0  0  0
    1.4530   23.7250  -26.1390 C   0  0  0  0  0  0  0  0  0  0  0  0
    1.2510   23.4050  -27.5180 O   0  0  0  0  0  0  0  0  0  0  0  0
    0.0180   23.4280  -28.1900 C   0  0  0  0  0  0  0  0  0  0  0  0
   -0.8140   24.5620  -28.2210 C   0  0  0  0  0  0  0  0  0  0  0  0
   -2.0310   24.5260  -28.9080 C   0  0  0  0  0  0  0  0  0  0  0  0
   -2.4340   23.3610  -29.5760 C   0  0  0  0  0  0  0  0  0  0  0  0
   -3.6930   23.3220  -30.2680 N   0  0  0  0  0  0  0  0  0  0  0  0
   -4.3390   24.3730  -30.8180 C   0  0  0  0  0  0  0  0  0  0  0  0
   -3.8560   25.6770  -30.8080 O   0  0  0  0  0  0  0  0  0  0  0  0
   -5.5490   23.9890  -31.3650 C   0  0  0  0  0  0  0  0  0  0  0  0
   -5.6420   22.6310  -31.1330 C   0  0  0  0  0  0  0  0  0  0  0  0
   -7.0010   21.5670  -31.6030 S   0  0  0  0  0  0  0  0  0  0  0  0
   -5.9160   20.4390  -32.4850 C   0  0  0  0  0  0  0  0  0  0  0  0
   -4.6580   20.8550  -32.7830 N   0  0  0  0  0  0  0  0  0  0  0  0
   -3.7670   20.0640  -33.4350 C   0  0  0  0  0  0  0  0  0  0  0  0
   -2.3900   20.5730  -33.7220 C   0  0  0  0  0  0  0  0  0  0  0  0
   -4.1360   18.7690  -33.8150 C   0  0  0  0  0  0  0  0  0  0  0  0
   -5.4270   18.3000  -33.5290 C   0  0  0  0  0  0  0  0  0  0  0  0
   -5.8200   16.9060  -33.9410 C   0  0  0  0  0  0  0  0  0  0  0  0
   -6.3340   19.1460  -32.8550 C   0  0  0  0  0  0  0  0  0  0  0  0
   -7.6720   18.6950  -32.5450 C   0  0  0  0  0  0  0  0  0  0  0  0
   -8.7430   18.3330  -32.2950 N   0  0  0  0  0  0  0  0  0  0  0  0
   -4.4930   22.2510  -30.4700 C   0  0  0  0  0  0  0  0  0  0  0  0
   -4.1930   20.9440  -30.0920 O   0  0  0  0  0  0  0  0  0  0  0  0
   -1.6120   22.2260  -29.5320 C   0  0  0  0  0  0  0  0  0  0  0  0
   -0.3950   22.2620  -28.8450 C   0  0  0  0  0  0  0  0  0  0  0  0
   -0.4097   24.2409  -23.5201 H   0  0  0  0  0  0  0  0  0  0  0  0
   -0.0482   25.3012  -24.9243 H   0  0  0  0  0  0  0  0  0  0  0  0
   -1.5291   24.2844  -24.9243 H   0  0  0  0  0  0  0  0  0  0  0  0
    0.7205   22.5523  -24.4849 H   0  0  0  0  0  0  0  0  0  0  0  0
   -0.3860   22.6415  -25.9196 H   0  0  0  0  0  0  0  0  0  0  0  0
    1.5135   24.8179  -26.0301 H   0  0  0  0  0  0  0  0  0  0  0  0
    2.3863   23.2480  -25.8053 H   0  0  0  0  0  0  0  0  0  0  0  0
   -0.5054   25.4815  -27.7021 H   0  0  0  0  0  0  0  0  0  0  0  0
   -2.6761   25.4168  -28.9246 H   0  0  0  0  0  0  0  0  0  0  0  0
   -6.2824   24.6295  -31.8767 H   0  0  0  0  0  0  0  0  0  0  0  0
   -1.8658   20.7668  -32.7745 H   0  0  0  0  0  0  0  0  0  0  0  0
   -1.8344   19.8208  -34.3013 H   0  0  0  0  0  0  0  0  0  0  0  0
   -2.4572   21.5057  -34.3013 H   0  0  0  0  0  0  0  0  0  0  0  0
   -3.4163   18.1207  -34.3363 H   0  0  0  0  0  0  0  0  0  0  0  0
   -5.9927   16.2934  -33.0438 H   0  0  0  0  0  0  0  0  0  0  0  0
   -6.7416   16.9468  -34.5401 H   0  0  0  0  0  0  0  0  0  0  0  0
   -5.0128   16.4594  -34.5401 H   0  0  0  0  0  0  0  0  0  0  0  0
   -4.2270   20.1760  -30.7500 H   0  0  0  0  0  0  0  0  0  0  0  0
   -1.9263   21.3026  -30.0406 H   0  0  0  0  0  0  0  0  0  0  0  0
    0.2433   21.3665  -28.8190 H   0  0  0  0  0  0  0  0  0  0  0  0
  1  2  1  0
  2  3  1  0
  3  4  1  0
  4  5  1  0
  5  6  2  0
  6  7  1  0
  7  8  2  0
  8  9  1  0
  9 10  1  0
 10 11  1  0
 10 12  2  0
 12 13  1  0
 13 14  1  0
 14 15  1  0
 15 16  2  0
 16 17  1  0
 17 18  1  0
 17 19  2  0
 19 20  1  0
 20 21  1  0
 20 22  2  0
 22 23  1  0
 23 24  3  0
 13 25  2  0
 25 26  1  0
  8 27  1  0
 27 28  2  0
 28  5  1  0
 25  9  1  0
 22 15  1  0
  1 29  1  0
  1 30  1  0
  1 31  1  0
  2 32  1  0
  2 33  1  0
  3 34  1  0
  3 35  1  0
  6 36  1  0
  7 37  1  0
 12 38  1  0
 18 39  1  0
 18 40  1  0
 18 41  1  0
 19 42  1  0
 21 43  1  0
 21 44  1  0
 21 45  1  0
 26 46  1  0
 27 47  1  0
 28 48  1  0
M  CHG  1  11  -1
M  END
>  <UniqueID>  (35) 
33

>  <SMILES>  (35) 
CCCOc1ccc(-n2c([O-])cc(Sc3nc(C)cc(C)c3C#N)c2O)cc1

>  <Energy>  (35) 
75.55317532781044

>  <Genealogy>  (35) 
CCCOc1ccc(-n2c([O-])cc(Sc3nc(C)cc(C)c3C#N)c2O)cc1 (protonated)
CCCOc1ccc(-n2c([O-])cc(Sc3nc(C)cc(C)c3C#N)c2O)cc1 (3D coordinates assigned)
CCCOc1ccc(-n2c([O-])cc(Sc3nc(C)cc(C)c3C#N)c2O)cc1 (optimized conformer: 75.55317532781044 kcal/mol)

>  <smiles>  (35) 
CCCOc1ccc(-n2c(O)cc(Sc3nc(C)cc(C)c3C#N)c2O)cc1

>  <score_type>  (35) 
oracle

>  <origin>  (35) 
adgpu

>  <m_score__min__energy>  (35) 
-10.630000000000001

>  <m_primary>  (35) 
energy

$$$$
35:0
     RDKit          3D

 52 54  0  0  0  0  0  0  0  0999 V2000
   -2.4430   24.5560  -28.4870 C   0  0  0  0  0  0  0  0  0  0  0  0
   -3.0700   25.2770  -29.5410 O   0  0  0  0  0  0  0  0  0  0  0  0
   -4.2560   24.8480  -30.1440 C   0  0  0  0  0  0  0  0  0  0  0  0
   -4.2240   24.1820  -31.2140 O   0  0  0  0  0  0  0  0  0  0  0  0
   -5.5070   25.1560  -29.5250 N   0  0  0  0  0  0  0  0  0  0  0  0
   -6.7880   24.7500  -30.1060 C   0  0  0  0  0  0  0  0  0  0  0  0
   -6.9200   23.2240  -30.1450 C   0  0  0  0  0  0  0  0  0  0  0  0
   -8.1130   22.7080  -31.4350 S   0  0  0  0  0  0  0  0  0  0  0  0
   -7.0240   21.5000  -32.1890 C   0  0  0  0  0  0  0  0  0  0  0  0
   -7.4530   20.2930  -32.6300 N   0  0  0  0  0  0  0  0  0  0  0  0
   -6.4210   19.5740  -33.1400 C   0  0  0  0  0  0  0  0  0  0  0  0
   -6.5400   18.2850  -33.6570 C   0  0  0  0  0  0  0  0  0  0  0  0
   -5.3910   17.6420  -34.1460 C   0  0  0  0  0  0  0  0  0  0  0  0
   -4.1320   18.2940  -34.1210 C   0  0  0  0  0  0  0  0  0  0  0  0
   -2.9420   17.6630  -34.6150 N   0  0  0  0  0  0  0  0  0  0  0  0
   -1.3900   17.7400  -33.8450 S   0  0  0  0  0  0  0  0  0  0  0  0
   -0.5990   16.5160  -34.2100 O   0  0  0  0  0  0  0  0  0  0  0  0
   -1.6150   17.7310  -32.3590 O   0  0  0  0  0  0  0  0  0  0  0  0
   -0.5070   19.1850  -34.4280 C   0  0  0  0  0  0  0  0  0  0  0  0
   -0.5290   20.4170  -33.7120 C   0  0  0  0  0  0  0  0  0  0  0  0
   -1.2200   20.5750  -32.3830 C   0  0  0  0  0  0  0  0  0  0  0  0
    0.1000   21.5500  -34.2550 C   0  0  0  0  0  0  0  0  0  0  0  0
    0.7780   21.4830  -35.4760 C   0  0  0  0  0  0  0  0  0  0  0  0
    1.4050   22.7080  -36.0750 C   0  0  0  0  0  0  0  0  0  0  0  0
    0.8310   20.2710  -36.1660 C   0  0  0  0  0  0  0  0  0  0  0  0
    0.2290   19.1140  -35.6460 C   0  0  0  0  0  0  0  0  0  0  0  0
    0.3490   17.8440  -36.4540 C   0  0  0  0  0  0  0  0  0  0  0  0
   -4.0360   19.5940  -33.5980 C   0  0  0  0  0  0  0  0  0  0  0  0
   -5.1880   20.2020  -33.1080 C   0  0  0  0  0  0  0  0  0  0  0  0
   -5.3580   21.7180  -32.4060 S   0  0  0  0  0  0  0  0  0  0  0  0
   -2.7856   24.9500  -27.5188 H   0  0  0  0  0  0  0  0  0  0  0  0
   -2.7070   23.4909  -28.5636 H   0  0  0  0  0  0  0  0  0  0  0  0
   -1.3516   24.6696  -28.5636 H   0  0  0  0  0  0  0  0  0  0  0  0
   -5.4900   25.6830  -28.6220 H   0  0  0  0  0  0  0  0  0  0  0  0
   -7.6054   25.1654  -29.4983 H   0  0  0  0  0  0  0  0  0  0  0  0
   -6.8391   25.1305  -31.1368 H   0  0  0  0  0  0  0  0  0  0  0  0
   -5.9369   22.7824  -30.3654 H   0  0  0  0  0  0  0  0  0  0  0  0
   -7.2851   22.8763  -29.1673 H   0  0  0  0  0  0  0  0  0  0  0  0
   -7.5169   17.7801  -33.6816 H   0  0  0  0  0  0  0  0  0  0  0  0
   -5.4685   16.6227  -34.5523 H   0  0  0  0  0  0  0  0  0  0  0  0
   -0.4962   20.4095  -31.5714 H   0  0  0  0  0  0  0  0  0  0  0  0
   -1.6340   21.5910  -32.3035 H   0  0  0  0  0  0  0  0  0  0  0  0
   -2.0344   19.8399  -32.3035 H   0  0  0  0  0  0  0  0  0  0  0  0
    0.0584   22.5050  -33.7108 H   0  0  0  0  0  0  0  0  0  0  0  0
    1.7468   23.3757  -35.2704 H   0  0  0  0  0  0  0  0  0  0  0  0
    2.2634   22.4138  -36.6968 H   0  0  0  0  0  0  0  0  0  0  0  0
    0.6644   23.2323  -36.6968 H   0  0  0  0  0  0  0  0  0  0  0  0
    1.3529   20.2214  -37.1330 H   0  0  0  0  0  0  0  0  0  0  0  0
    0.4303   16.9831  -35.7741 H   0  0  0  0  0  0  0  0  0  0  0  0
   -0.5421   17.7274  -37.0883 H   0  0  0  0  0  0  0  0  0  0  0  0
    1.2462   17.8963  -37.0883 H   0  0  0  0  0  0  0  0  0  0  0  0
   -3.0705   20.1206  -33.5761 H   0  0  0  0  0  0  0  0  0  0  0  0
  1  2  1  0
  2  3  1  0
  3  4  2  0
  3  5  1  0
  5  6  1  0
  6  7  1  0
  7  8  1  0
  8  9  1  0
  9 10  2  0
 10 11  1  0
 11 12  2  0
 12 13  1  0
 13 14  2  0
 14 15  1  0
 15 16  1  0
 16 17  2  0
 16 18  2  0
 16 19  1  0
 19 20  2  0
 20 21  1  0
 20 22  1  0
 22 23  2  0
 23 24  1  0
 23 25  1  0
 25 26  2  0
 26 27  1  0
 14 28  1  0
 28 29  2  0
 29 30  1  0
 30  9  1  0
 29 11  1  0
 26 19  1  0
  1 31  1  0
  1 32  1  0
  1 33  1  0
  5 34  1  0
  6 35  1  0
  6 36  1  0
  7 37  1  0
  7 38  1  0
 12 39  1  0
 13 40  1  0
 21 41  1  0
 21 42  1  0
 21 43  1  0
 22 44  1  0
 24 45  1  0
 24 46  1  0
 24 47  1  0
 25 48  1  0
 27 49  1  0
 27 50  1  0
 27 51  1  0
 28 52  1  0
M  CHG  1  15  -1
M  END
>  <UniqueID>  (36) 
34

>  <SMILES>  (36) 
COC(=O)NCCSc1nc2ccc([N-]S(=O)(=O)c3c(C)cc(C)cc3C)cc2s1

>  <Energy>  (36) 
87.12879589182306

>  <Genealogy>  (36) 
COC(=O)NCCSc1nc2ccc([N-]S(=O)(=O)c3c(C)cc(C)cc3C)cc2s1 (protonated)
COC(=O)NCCSc1nc2ccc([N-]S(=O)(=O)c3c(C)cc(C)cc3C)cc2s1 (3D coordinates assigned)
COC(=O)NCCSc1nc2ccc([N-]S(=O)(=O)c3c(C)cc(C)cc3C)cc2s1 (optimized conformer: 87.12879589182306 kcal/mol)

>  <smiles>  (36) 
COC(=O)NCCSc1nc2ccc(NS(=O)(=O)c3c(C)cc(C)cc3C)cc2s1

>  <score_type>  (36) 
oracle

>  <origin>  (36) 
adgpu

>  <m_score__min__energy>  (36) 
-10.9

>  <m_primary>  (36) 
energy

$$$$
36:0
     RDKit          3D

 51 53  0  0  0  0  0  0  0  0999 V2000
    2.3000   15.1560  -28.5470 C   0  0  0  0  0  0  0  0  0  0  0  0
    1.3210   15.8990  -29.4080 C   0  0  0  0  0  0  0  0  0  0  0  0
    1.0480   15.4290  -30.5470 O   0  0  0  0  0  0  0  0  0  0  0  0
    0.6780   17.1160  -28.9630 N   0  0  0  0  0  0  0  0  0  0  0  0
   -0.0290   17.9420  -29.9590 C   0  0  0  0  0  0  0  0  0  0  0  0
   -0.3730   19.3290  -29.4060 C   0  0  0  0  0  0  0  0  0  0  0  0
   -1.0190   19.2060  -28.0910 N   0  0  0  0  0  0  0  0  0  0  0  0
   -2.1770   19.9990  -27.7570 C   0  0  0  0  0  0  0  0  0  0  0  0
   -3.0600   19.5120  -26.9990 O   0  0  0  0  0  0  0  0  0  0  0  0
   -2.3520   21.3780  -28.2710 C   0  0  0  0  0  0  0  0  0  0  0  0
   -2.0510   22.4820  -27.4560 C   0  0  0  0  0  0  0  0  0  0  0  0
   -2.2320   23.7830  -27.9340 C   0  0  0  0  0  0  0  0  0  0  0  0
   -2.6970   23.9970  -29.2350 C   0  0  0  0  0  0  0  0  0  0  0  0
   -2.8630   25.2990  -29.6960 O   0  0  0  0  0  0  0  0  0  0  0  0
   -2.9710   22.9030  -30.0740 C   0  0  0  0  0  0  0  0  0  0  0  0
   -3.4270   23.1220  -31.4160 N   0  0  0  0  0  0  0  0  0  0  0  0
   -4.0930   21.8350  -32.3710 S   0  0  0  0  0  0  0  0  0  0  0  0
   -3.8980   22.1050  -33.8380 O   0  0  0  0  0  0  0  0  0  0  0  0
   -3.3780   20.5560  -32.0280 O   0  0  0  0  0  0  0  0  0  0  0  0
   -5.8110   21.6670  -32.0020 C   0  0  0  0  0  0  0  0  0  0  0  0
   -6.5300   22.7610  -31.4980 C   0  0  0  0  0  0  0  0  0  0  0  0
   -7.9000   22.6470  -31.2520 C   0  0  0  0  0  0  0  0  0  0  0  0
   -8.5630   21.4400  -31.5100 C   0  0  0  0  0  0  0  0  0  0  0  0
   -7.8540   20.3280  -32.0000 C   0  0  0  0  0  0  0  0  0  0  0  0
   -8.5860   19.0500  -32.3350 C   0  0  0  0  0  0  0  0  0  0  0  0
   -9.7130   19.3100  -33.0980 F   0  0  0  0  0  0  0  0  0  0  0  0
   -8.9670   18.4240  -31.1610 F   0  0  0  0  0  0  0  0  0  0  0  0
   -7.7660   18.1970  -33.0570 F   0  0  0  0  0  0  0  0  0  0  0  0
   -6.4760   20.4570  -32.2590 C   0  0  0  0  0  0  0  0  0  0  0  0
   -2.7990   21.5980  -29.5840 C   0  0  0  0  0  0  0  0  0  0  0  0
   -0.5090   18.2400  -27.1070 C   0  0  0  0  0  0  0  0  0  0  0  0
    0.8000   17.5860  -27.5710 C   0  0  0  0  0  0  0  0  0  0  0  0
    2.0652   15.3342  -27.4872 H   0  0  0  0  0  0  0  0  0  0  0  0
    2.2332   14.0791  -28.7613 H   0  0  0  0  0  0  0  0  0  0  0  0
    3.3192   15.5100  -28.7613 H   0  0  0  0  0  0  0  0  0  0  0  0
    0.6135   18.0607  -30.8439 H   0  0  0  0  0  0  0  0  0  0  0  0
   -0.9696   17.4343  -30.2190 H   0  0  0  0  0  0  0  0  0  0  0  0
    0.5501   19.9184  -29.3035 H   0  0  0  0  0  0  0  0  0  0  0  0
   -1.0640   19.8304  -30.0996 H   0  0  0  0  0  0  0  0  0  0  0  0
   -1.6709   22.3218  -26.4363 H   0  0  0  0  0  0  0  0  0  0  0  0
   -2.0077   24.6417  -27.2841 H   0  0  0  0  0  0  0  0  0  0  0  0
   -3.1050   23.9720  -31.9270 H   0  0  0  0  0  0  0  0  0  0  0  0
   -6.0135   23.7110  -31.2961 H   0  0  0  0  0  0  0  0  0  0  0  0
   -8.4597   23.5066  -30.8548 H   0  0  0  0  0  0  0  0  0  0  0  0
   -9.6450   21.3613  -31.3282 H   0  0  0  0  0  0  0  0  0  0  0  0
   -5.9154   19.6026  -32.6662 H   0  0  0  0  0  0  0  0  0  0  0  0
   -3.0168   20.7390  -30.2357 H   0  0  0  0  0  0  0  0  0  0  0  0
   -0.3276   18.7630  -26.1564 H   0  0  0  0  0  0  0  0  0  0  0  0
   -1.2618   17.4471  -26.9864 H   0  0  0  0  0  0  0  0  0  0  0  0
    1.6147   18.3224  -27.5078 H   0  0  0  0  0  0  0  0  0  0  0  0
    1.0162   16.7242  -26.9225 H   0  0  0  0  0  0  0  0  0  0  0  0
  1  2  1  0
  2  3  2  0
  2  4  1  0
  4  5  1  0
  5  6  1  0
  6  7  1  0
  7  8  1  0
  8  9  2  0
  8 10  1  0
 10 11  2  0
 11 12  1  0
 12 13  2  0
 13 14  1  0
 13 15  1  0
 15 16  1  0
 16 17  1  0
 17 18  2  0
 17 19  2  0
 17 20  1  0
 20 21  2  0
 21 22  1  0
 22 23  2  0
 23 24  1  0
 24 25  1  0
 25 26  1  0
 25 27  1  0
 25 28  1  0
 24 29  2  0
 15 30  2  0
  7 31  1  0
 31 32  1  0
 32  4  1  0
 30 10  1  0
 29 20  1  0
  1 33  1  0
  1 34  1  0
  1 35  1  0
  5 36  1  0
  5 37  1  0
  6 38  1  0
  6 39  1  0
 11 40  1  0
 12 41  1  0
 16 42  1  0
 21 43  1  0
 22 44  1  0
 23 45  1  0
 29 46  1  0
 30 47  1  0
 31 48  1  0
 31 49  1  0
 32 50  1  0
 32 51  1  0
M  CHG  1  14  -1
M  END
>  <UniqueID>  (37) 
35

>  <SMILES>  (37) 
CC(=O)N1CCN(C(=O)c2ccc([O-])c(NS(=O)(=O)c3cccc(C(F)(F)F)c3)c2)CC1

>  <Energy>  (37) 
61.07040166734168

>  <Genealogy>  (37) 
CC(=O)N1CCN(C(=O)c2ccc([O-])c(NS(=O)(=O)c3cccc(C(F)(F)F)c3)c2)CC1 (protonated)
CC(=O)N1CCN(C(=O)c2ccc([O-])c(NS(=O)(=O)c3cccc(C(F)(F)F)c3)c2)CC1 (3D coordinates assigned)
CC(=O)N1CCN(C(=O)c2ccc([O-])c(NS(=O)(=O)c3cccc(C(F)(F)F)c3)c2)CC1 (nonaromatic ring conformer: 61.07040166734168 kcal/mol)

>  <smiles>  (37) 
CC(=O)N1CCN(C(=O)c2ccc(O)c(NS(=O)(=O)c3cccc(C(F)(F)F)c3)c2)CC1

>  <score_type>  (37) 
oracle

>  <origin>  (37) 
adgpu

>  <m_score__min__energy>  (37) 
-12.5

>  <m_primary>  (37) 
energy

$$$$
37:0
     RDKit          3D

 42 45  0  0  0  0  0  0  0  0999 V2000
   -6.7310   22.0010  -32.3260 C   0  0  0  0  0  0  0  0  0  0  0  0
   -6.6820   20.7740  -33.1480 N   0  0  0  0  0  0  0  0  0  0  0  0
   -7.8560   19.9310  -32.8640 C   0  0  0  0  0  0  0  0  0  0  0  0
   -7.4640   18.9130  -31.7930 C   0  0  0  0  0  0  0  0  0  0  0  0
   -5.9540   19.0160  -31.6590 C   0  0  0  0  0  0  0  0  0  0  0  0
   -5.5350   19.9010  -32.8290 C   0  0  2  0  0  0  0  0  0  0  0  0
   -4.2290   20.6380  -32.6260 C   0  0  0  0  0  0  0  0  0  0  0  0
   -4.0800   21.4560  -31.5530 N   0  0  0  0  0  0  0  0  0  0  0  0
   -2.8990   22.0880  -31.3290 C   0  0  0  0  0  0  0  0  0  0  0  0
   -2.7590   23.0260  -30.1740 C   0  0  0  0  0  0  0  0  0  0  0  0
   -3.9130   23.9770  -30.1480 C   0  0  0  0  0  0  0  0  0  0  0  0
   -5.1860   23.6940  -29.7120 C   0  0  0  0  0  0  0  0  0  0  0  0
   -5.9600   24.7740  -29.9080 N   0  0  0  0  0  0  0  0  0  0  0  0
   -5.1290   25.6790  -30.4670 C   0  0  0  0  0  0  0  0  0  0  0  0
   -3.8690   25.2270  -30.6390 N   0  0  0  0  0  0  0  0  0  0  0  0
   -1.8640   21.9060  -32.1890 N   0  0  0  0  0  0  0  0  0  0  0  0
   -1.9960   21.0800  -33.2590 C   0  0  0  0  0  0  0  0  0  0  0  0
   -0.8610   20.8790  -34.1780 C   0  0  0  0  0  0  0  0  0  0  0  0
   -0.5270   19.6010  -34.6590 C   0  0  0  0  0  0  0  0  0  0  0  0
    0.5570   19.4560  -35.5280 C   0  0  0  0  0  0  0  0  0  0  0  0
    1.2970   20.5770  -35.9100 C   0  0  0  0  0  0  0  0  0  0  0  0
    0.9400   21.8320  -35.4150 C   0  0  0  0  0  0  0  0  0  0  0  0
   -0.1190   21.9530  -34.5690 N   0  0  0  0  0  0  0  0  0  0  0  0
   -3.1790   20.4450  -33.4690 N   0  0  0  0  0  0  0  0  0  0  0  0
   -6.7201   21.7290  -31.2602 H   0  0  0  0  0  0  0  0  0  0  0  0
   -5.8572   22.6295  -32.5529 H   0  0  0  0  0  0  0  0  0  0  0  0
   -7.6521   22.5578  -32.5529 H   0  0  0  0  0  0  0  0  0  0  0  0
   -8.6839   20.5562  -32.4984 H   0  0  0  0  0  0  0  0  0  0  0  0
   -8.1834   19.4143  -33.7782 H   0  0  0  0  0  0  0  0  0  0  0  0
   -7.9511   19.1556  -30.8370 H   0  0  0  0  0  0  0  0  0  0  0  0
   -7.7782   17.8950  -32.0668 H   0  0  0  0  0  0  0  0  0  0  0  0
   -5.6780   19.4797  -30.7005 H   0  0  0  0  0  0  0  0  0  0  0  0
   -5.4610   18.0328  -31.6762 H   0  0  0  0  0  0  0  0  0  0  0  0
   -5.2960   19.2693  -33.6973 H   0  0  0  0  0  0  0  0  0  0  0  0
   -2.7396   22.4503  -29.2369 H   0  0  0  0  0  0  0  0  0  0  0  0
   -1.8234   23.5946  -30.2805 H   0  0  0  0  0  0  0  0  0  0  0  0
   -5.5161   22.7402  -29.2747 H   0  0  0  0  0  0  0  0  0  0  0  0
   -5.4491   26.6911  -30.7556 H   0  0  0  0  0  0  0  0  0  0  0  0
   -1.1144   18.7225  -34.3536 H   0  0  0  0  0  0  0  0  0  0  0  0
    0.8272   18.4607  -35.9107 H   0  0  0  0  0  0  0  0  0  0  0  0
    2.1522   20.4719  -36.5938 H   0  0  0  0  0  0  0  0  0  0  0  0
    1.5144   22.7230  -35.7085 H   0  0  0  0  0  0  0  0  0  0  0  0
  1  2  1  0
  2  3  1  0
  3  4  1  0
  4  5  1  0
  5  6  1  0
  6  7  1  0
  7  8  2  0
  8  9  1  0
  9 10  1  0
 10 11  1  0
 11 12  2  0
 12 13  1  0
 13 14  1  0
 14 15  2  0
  9 16  2  0
 16 17  1  0
 17 18  1  0
 18 19  2  0
 19 20  1  0
 20 21  2  0
 21 22  1  0
 22 23  2  0
 17 24  2  0
  6  2  1  0
 24  7  1  0
 15 11  1  0
 23 18  1  0
  1 25  1  0
  1 26  1  0
  1 27  1  0
  3 28  1  0
  3 29  1  0
  4 30  1  0
  4 31  1  0
  5 32  1  0
  5 33  1  0
  6 34  1  6
 10 35  1  0
 10 36  1  0
 12 37  1  0
 14 38  1  0
 19 39  1  0
 20 40  1  0
 21 41  1  0
 22 42  1  0
M  CHG  1  13  -1
M  END
>  <UniqueID>  (38) 
36

>  <SMILES>  (38) 
CN1CCC[C@@H]1c1nc(Cc2c[n-]cn2)nc(-c2ccccn2)n1

>  <Energy>  (38) 
78.50623446691924

>  <Genealogy>  (38) 
CN1CCCC1c1nc(Cc2c[n-]cn2)nc(-c2ccccn2)n1 (protonated)
CN1CCC[C@@H]1c1nc(Cc2c[n-]cn2)nc(-c2ccccn2)n1 (chirality)
CN1CCC[C@@H]1c1nc(Cc2c[n-]cn2)nc(-c2ccccn2)n1 (3D coordinates assigned)
CN1CCC[C@@H]1c1nc(Cc2c[n-]cn2)nc(-c2ccccn2)n1 (nonaromatic ring conformer: 78.50623446691924 kcal/mol)

>  <smiles>  (38) 
CN1CCCC1c1nc(Cc2c[nH]cn2)nc(-c2ccccn2)n1

>  <score_type>  (38) 
oracle

>  <origin>  (38) 
adgpu

>  <m_score__min__energy>  (38) 
-8.9499999999999993

>  <m_primary>  (38) 
energy

$$$$
38:0
     RDKit          3D

 37 39  0  0  0  0  0  0  0  0999 V2000
   -9.4220   21.4340  -31.8400 C   0  0  0  0  0  0  0  0  0  0  0  0
   -8.7340   20.1400  -32.1430 C   0  0  0  0  0  0  0  0  0  0  0  0
   -9.3500   19.0630  -31.9260 O   0  0  0  0  0  0  0  0  0  0  0  0
   -7.3850   20.0920  -32.6360 N   0  0  0  0  0  0  0  0  0  0  0  0
   -6.8830   19.0000  -33.4730 C   0  0  0  0  0  0  0  0  0  0  0  0
   -5.3510   19.1890  -33.5560 C   0  0  0  0  0  0  0  0  0  0  0  0
   -5.1190   20.4560  -32.8100 C   0  0  0  0  0  0  0  0  0  0  0  0
   -3.9150   21.1410  -32.6500 C   0  0  0  0  0  0  0  0  0  0  0  0
   -3.9270   22.3670  -31.9690 C   0  0  0  0  0  0  0  0  0  0  0  0
   -5.1380   22.8980  -31.4790 C   0  0  0  0  0  0  0  0  0  0  0  0
   -5.1410   24.4710  -30.6880 S   0  0  0  0  0  0  0  0  0  0  0  0
   -5.7670   25.5140  -31.5710 O   0  0  0  0  0  0  0  0  0  0  0  0
   -5.9320   24.3720  -29.4140 O   0  0  0  0  0  0  0  0  0  0  0  0
   -3.5150   24.9420  -30.3140 N   0  0  0  0  0  0  0  0  0  0  0  0
   -2.6520   24.2680  -29.3860 C   0  0  0  0  0  0  0  0  0  0  0  0
   -2.9140   22.9580  -28.9420 C   0  0  0  0  0  0  0  0  0  0  0  0
   -2.0560   22.3390  -28.0250 C   0  0  0  0  0  0  0  0  0  0  0  0
   -2.3960   20.7090  -27.4720 Cl  0  0  0  0  0  0  0  0  0  0  0  0
   -0.9300   23.0180  -27.5530 C   0  0  0  0  0  0  0  0  0  0  0  0
   -0.6600   24.3150  -27.9940 C   0  0  0  0  0  0  0  0  0  0  0  0
   -1.5170   24.9400  -28.9060 C   0  0  0  0  0  0  0  0  0  0  0  0
   -1.2370   26.2340  -29.3320 O   0  0  0  0  0  0  0  0  0  0  0  0
   -6.3400   22.1850  -31.6570 C   0  0  0  0  0  0  0  0  0  0  0  0
   -6.2950   20.9430  -32.3040 C   0  0  0  0  0  0  0  0  0  0  0  0
   -9.4920   21.5656  -30.7502 H   0  0  0  0  0  0  0  0  0  0  0  0
   -8.8468   22.2654  -32.2736 H   0  0  0  0  0  0  0  0  0  0  0  0
  -10.4329   21.4221  -32.2736 H   0  0  0  0  0  0  0  0  0  0  0  0
   -7.1231   18.0284  -33.0165 H   0  0  0  0  0  0  0  0  0  0  0  0
   -7.3435   19.0165  -34.4718 H   0  0  0  0  0  0  0  0  0  0  0  0
   -4.8244   18.3493  -33.0790 H   0  0  0  0  0  0  0  0  0  0  0  0
   -4.9781   19.2251  -34.5902 H   0  0  0  0  0  0  0  0  0  0  0  0
   -2.9765   20.7289  -33.0491 H   0  0  0  0  0  0  0  0  0  0  0  0
   -2.9868   22.9173  -31.8163 H   0  0  0  0  0  0  0  0  0  0  0  0
   -3.7963   22.4186  -29.3170 H   0  0  0  0  0  0  0  0  0  0  0  0
   -0.2557   22.5305  -26.8335 H   0  0  0  0  0  0  0  0  0  0  0  0
    0.2288   24.8466  -27.6234 H   0  0  0  0  0  0  0  0  0  0  0  0
   -7.2945   22.5951  -31.2954 H   0  0  0  0  0  0  0  0  0  0  0  0
  1  2  1  0
  2  3  2  0
  2  4  1  0
  4  5  1  0
  5  6  1  0
  6  7  1  0
  7  8  2  0
  8  9  1  0
  9 10  2  0
 10 11  1  0
 11 12  2  0
 11 13  2  0
 11 14  1  0
 14 15  1  0
 15 16  2  0
 16 17  1  0
 17 18  1  0
 17 19  2  0
 19 20  1  0
 20 21  2  0
 21 22  1  0
 10 23  1  0
 23 24  2  0
 24  4  1  0
 24  7  1  0
 21 15  1  0
  1 25  1  0
  1 26  1  0
  1 27  1  0
  5 28  1  0
  5 29  1  0
  6 30  1  0
  6 31  1  0
  8 32  1  0
  9 33  1  0
 16 34  1  0
 19 35  1  0
 20 36  1  0
 23 37  1  0
M  CHG  2  14  -1  22  -1
M  END
>  <UniqueID>  (39) 
37

>  <SMILES>  (39) 
CC(=O)N1CCc2ccc(S(=O)(=O)[N-]c3cc(Cl)ccc3[O-])cc21

>  <Energy>  (39) 
58.59496348470003

>  <Genealogy>  (39) 
CC(=O)N1CCc2ccc(S(=O)(=O)[N-]c3cc(Cl)ccc3[O-])cc21 (protonated)
CC(=O)N1CCc2ccc(S(=O)(=O)[N-]c3cc(Cl)ccc3[O-])cc21 (3D coordinates assigned)
CC(=O)N1CCc2ccc(S(=O)(=O)[N-]c3cc(Cl)ccc3[O-])cc21 (nonaromatic ring conformer: 58.59496348470003 kcal/mol)

>  <smiles>  (39) 
CC(=O)N1CCc2ccc(S(=O)(=O)Nc3cc(Cl)ccc3O)cc21

>  <score_type>  (39) 
oracle

>  <origin>  (39) 
adgpu

>  <m_score__min__energy>  (39) 
-13.85

>  <m_primary>  (39) 
energy

$$$$
39:0
     RDKit          3D

 51 54  0  0  0  0  0  0  0  0999 V2000
   -1.4880   16.7990  -34.1280 C   0  0  0  0  0  0  0  0  0  0  0  0
   -2.9650   16.9660  -33.9250 C   0  0  0  0  0  0  0  0  0  0  0  0
   -3.6760   16.0620  -33.1220 C   0  0  0  0  0  0  0  0  0  0  0  0
   -5.0580   16.1940  -32.9650 C   0  0  0  0  0  0  0  0  0  0  0  0
   -5.7490   17.2280  -33.6150 C   0  0  0  0  0  0  0  0  0  0  0  0
   -7.2420   17.3440  -33.4650 C   0  0  0  0  0  0  0  0  0  0  0  0
   -7.6060   18.7080  -33.0920 N   0  0  0  0  0  0  0  0  0  0  0  0
   -7.1180   19.3320  -31.8930 C   0  0  0  0  0  0  0  0  0  0  0  0
   -6.5460   18.6290  -31.0160 O   0  0  0  0  0  0  0  0  0  0  0  0
   -7.2890   20.7870  -31.6620 C   0  0  0  0  0  0  0  0  0  0  0  0
   -8.4960   21.4350  -31.9820 C   0  0  0  0  0  0  0  0  0  0  0  0
   -8.6360   22.8100  -31.7770 C   0  0  0  0  0  0  0  0  0  0  0  0
   -7.5770   23.5540  -31.2560 C   0  0  0  0  0  0  0  0  0  0  0  0
   -6.3680   22.9260  -30.9330 C   0  0  0  0  0  0  0  0  0  0  0  0
   -5.0160   23.8690  -30.3150 S   0  0  0  0  0  0  0  0  0  0  0  0
   -5.3510   24.3770  -28.9400 O   0  0  0  0  0  0  0  0  0  0  0  0
   -4.7640   25.0400  -31.2230 O   0  0  0  0  0  0  0  0  0  0  0  0
   -3.5970   22.8760  -30.2400 N   0  0  0  0  0  0  0  0  0  0  0  0
   -2.7560   22.7130  -29.0580 C   0  0  0  0  0  0  0  0  0  0  0  0
   -1.6270   21.7360  -29.4760 C   0  0  0  0  0  0  0  0  0  0  0  0
   -1.9470   21.4260  -30.9000 C   0  0  0  0  0  0  0  0  0  0  0  0
   -1.2560   20.5900  -31.7770 C   0  0  0  0  0  0  0  0  0  0  0  0
   -1.7420   20.4440  -33.0870 C   0  0  0  0  0  0  0  0  0  0  0  0
   -2.9030   21.1310  -33.4930 C   0  0  0  0  0  0  0  0  0  0  0  0
   -3.5820   21.9670  -32.5910 C   0  0  0  0  0  0  0  0  0  0  0  0
   -3.0740   22.0930  -31.2950 C   0  0  0  0  0  0  0  0  0  0  0  0
   -6.2230   21.5470  -31.1470 C   0  0  0  0  0  0  0  0  0  0  0  0
   -5.0420   18.1180  -34.4390 C   0  0  0  0  0  0  0  0  0  0  0  0
   -3.6590   17.9850  -34.5950 C   0  0  0  0  0  0  0  0  0  0  0  0
   -0.9876   16.7424  -33.1501 H   0  0  0  0  0  0  0  0  0  0  0  0
   -1.2976   15.8736  -34.6914 H   0  0  0  0  0  0  0  0  0  0  0  0
   -1.0958   17.6585  -34.6914 H   0  0  0  0  0  0  0  0  0  0  0  0
   -3.1429   15.2452  -32.6134 H   0  0  0  0  0  0  0  0  0  0  0  0
   -5.6070   15.4841  -32.3289 H   0  0  0  0  0  0  0  0  0  0  0  0
   -7.7243   17.0872  -34.4197 H   0  0  0  0  0  0  0  0  0  0  0  0
   -7.5786   16.6541  -32.6772 H   0  0  0  0  0  0  0  0  0  0  0  0
   -8.2800   19.2180  -33.7060 H   0  0  0  0  0  0  0  0  0  0  0  0
   -9.3345   20.8558  -32.3960 H   0  0  0  0  0  0  0  0  0  0  0  0
   -9.5845   23.3077  -32.0273 H   0  0  0  0  0  0  0  0  0  0  0  0
   -7.6921   24.6366  -31.0986 H   0  0  0  0  0  0  0  0  0  0  0  0
   -2.3318   23.6810  -28.7530 H   0  0  0  0  0  0  0  0  0  0  0  0
   -3.3297   22.3273  -28.2023 H   0  0  0  0  0  0  0  0  0  0  0  0
   -0.6404   22.2146  -29.3896 H   0  0  0  0  0  0  0  0  0  0  0  0
   -1.5792   20.8386  -28.8416 H   0  0  0  0  0  0  0  0  0  0  0  0
   -0.3509   20.0570  -31.4503 H   0  0  0  0  0  0  0  0  0  0  0  0
   -1.2144   19.7912  -33.7980 H   0  0  0  0  0  0  0  0  0  0  0  0
   -3.2792   21.0124  -34.5199 H   0  0  0  0  0  0  0  0  0  0  0  0
   -4.4896   22.5082  -32.8966 H   0  0  0  0  0  0  0  0  0  0  0  0
   -5.2677   21.0559  -30.9101 H   0  0  0  0  0  0  0  0  0  0  0  0
   -5.5779   18.9227  -34.9636 H   0  0  0  0  0  0  0  0  0  0  0  0
   -3.1122   18.6827  -35.2463 H   0  0  0  0  0  0  0  0  0  0  0  0
  1  2  1  0
  2  3  2  0
  3  4  1  0
  4  5  2  0
  5  6  1  0
  6  7  1  0
  7  8  1  0
  8  9  2  0
  8 10  1  0
 10 11  2  0
 11 12  1  0
 12 13  2  0
 13 14  1  0
 14 15  1  0
 15 16  2  0
 15 17  2  0
 15 18  1  0
 18 19  1  0
 19 20  1  0
 20 21  1  0
 21 22  2  0
 22 23  1  0
 23 24  2  0
 24 25  1  0
 25 26  2  0
 14 27  2  0
  5 28  1  0
 28 29  2  0
 29  2  1  0
 27 10  1  0
 26 18  1  0
 26 21  1  0
  1 30  1  0
  1 31  1  0
  1 32  1  0
  3 33  1  0
  4 34  1  0
  6 35  1  0
  6 36  1  0
  7 37  1  0
 11 38  1  0
 12 39  1  0
 13 40  1  0
 19 41  1  0
 19 42  1  0
 20 43  1  0
 20 44  1  0
 22 45  1  0
 23 46  1  0
 24 47  1  0
 25 48  1  0
 27 49  1  0
 28 50  1  0
 29 51  1  0
M  END
>  <UniqueID>  (40) 
38

>  <SMILES>  (40) 
Cc1ccc(CNC(=O)c2cccc(S(=O)(=O)N3CCc4ccccc43)c2)cc1

>  <Energy>  (40) 
69.78914805851521

>  <Genealogy>  (40) 
Cc1ccc(CNC(=O)c2cccc(S(=O)(=O)N3CCc4ccccc43)c2)cc1 (3D coordinates assigned)
Cc1ccc(CNC(=O)c2cccc(S(=O)(=O)N3CCc4ccccc43)c2)cc1 (nonaromatic ring conformer: 69.78914805851521 kcal/mol)

>  <smiles>  (40) 
Cc1ccc(CNC(=O)c2cccc(S(=O)(=O)N3CCc4ccccc43)c2)cc1

>  <score_type>  (40) 
oracle

>  <origin>  (40) 
adgpu

>  <m_score__min__energy>  (40) 
-9.6199999999999992

>  <m_primary>  (40) 
energy

$$$$
40:0
     RDKit          3D

 63 66  0  0  0  0  0  0  0  0999 V2000
   -9.0020   17.5394  -32.1096 H   0  0  0  0  0  0  0  0  0  0  0  0
   -8.3080   18.3600  -32.3440 C   0  0  0  0  0  0  0  0  0  0  0  0
   -8.6330   19.6680  -31.9770 C   0  0  0  0  0  0  0  0  0  0  0  0
   -9.5819   19.8729  -31.4596 H   0  0  0  0  0  0  0  0  0  0  0  0
   -7.7540   20.7190  -32.2660 C   0  0  0  0  0  0  0  0  0  0  0  0
   -8.1190   22.1300  -31.9140 C   0  0  0  0  0  0  0  0  0  0  0  0
   -8.1473   22.2393  -30.8198 H   0  0  0  0  0  0  0  0  0  0  0  0
   -7.3692   22.8179  -32.3320 H   0  0  0  0  0  0  0  0  0  0  0  0
   -9.1083   22.3680  -32.3320 H   0  0  0  0  0  0  0  0  0  0  0  0
   -6.5600   20.4540  -32.9540 C   0  0  0  0  0  0  0  0  0  0  0  0
   -5.8950   21.2862  -33.2284 H   0  0  0  0  0  0  0  0  0  0  0  0
   -6.2020   19.1340  -33.2980 C   0  0  0  0  0  0  0  0  0  0  0  0
   -4.9220   18.8700  -34.0700 C   0  0  0  0  0  0  0  0  0  0  0  0
   -5.1866   18.5704  -35.0948 H   0  0  0  0  0  0  0  0  0  0  0  0
   -4.3752   18.0777  -33.5378 H   0  0  0  0  0  0  0  0  0  0  0  0
   -4.0600   20.0140  -34.1370 O   0  0  0  0  0  0  0  0  0  0  0  0
   -3.1240   20.4390  -33.1760 C   0  0  0  0  0  0  0  0  0  0  0  0
   -1.7270   20.2020  -33.2690 C   0  0  0  0  0  0  0  0  0  0  0  0
   -1.1420   19.4770  -34.4560 C   0  0  0  0  0  0  0  0  0  0  0  0
   -0.4875   18.6659  -34.1042 H   0  0  0  0  0  0  0  0  0  0  0  0
   -1.9550   19.0543  -35.0646 H   0  0  0  0  0  0  0  0  0  0  0  0
   -0.5570   20.1823  -35.0646 H   0  0  0  0  0  0  0  0  0  0  0  0
   -0.8900   20.6940  -32.2330 C   0  0  0  0  0  0  0  0  0  0  0  0
    0.5990   20.4540  -32.2210 C   0  0  0  0  0  0  0  0  0  0  0  0
    0.9528   20.3970  -31.1810 H   0  0  0  0  0  0  0  0  0  0  0  0
    0.8221   19.5083  -32.7366 H   0  0  0  0  0  0  0  0  0  0  0  0
    1.1080   21.2817  -32.7366 H   0  0  0  0  0  0  0  0  0  0  0  0
   -1.4450   21.4570  -31.1990 C   0  0  0  0  0  0  0  0  0  0  0  0
   -0.7947   21.8802  -30.4193 H   0  0  0  0  0  0  0  0  0  0  0  0
   -2.8280   21.6830  -31.1550 C   0  0  0  0  0  0  0  0  0  0  0  0
   -3.3870   22.4360  -30.2480 N   0  0  0  0  0  0  0  0  0  0  0  0
   -2.7730   23.1180  -29.1410 C   0  0  0  0  0  0  0  0  0  0  0  0
   -2.1860   22.4090  -28.0790 C   0  0  0  0  0  0  0  0  0  0  0  0
   -2.1511   21.3099  -28.1067 H   0  0  0  0  0  0  0  0  0  0  0  0
   -1.6460   23.0960  -26.9870 C   0  0  0  0  0  0  0  0  0  0  0  0
   -1.1646   22.5348  -26.1726 H   0  0  0  0  0  0  0  0  0  0  0  0
   -1.7140   24.4960  -26.9230 C   0  0  0  0  0  0  0  0  0  0  0  0
   -1.1510   25.2050  -25.8000 N   0  0  0  0  0  0  0  0  0  0  0  0
   -1.8670   26.3480  -25.2200 C   0  0  0  0  0  0  0  0  0  0  0  0
   -2.3726   26.9063  -26.0217 H   0  0  0  0  0  0  0  0  0  0  0  0
   -2.6097   25.9803  -24.4967 H   0  0  0  0  0  0  0  0  0  0  0  0
   -0.8800   27.2730  -24.5020 C   0  0  0  0  0  0  0  0  0  0  0  0
   -0.2245   27.7486  -25.2464 H   0  0  0  0  0  0  0  0  0  0  0  0
   -1.4489   28.0358  -23.9502 H   0  0  0  0  0  0  0  0  0  0  0  0
   -0.0870   26.5450  -23.5830 O   0  0  0  0  0  0  0  0  0  0  0  0
    0.7300   25.6300  -24.2840 C   0  0  0  0  0  0  0  0  0  0  0  0
    1.3095   26.1724  -25.0456 H   0  0  0  0  0  0  0  0  0  0  0  0
    1.4071   25.1390  -23.5695 H   0  0  0  0  0  0  0  0  0  0  0  0
   -0.1250   24.5610  -24.9690 C   0  0  0  0  0  0  0  0  0  0  0  0
    0.5162   23.9307  -25.6027 H   0  0  0  0  0  0  0  0  0  0  0  0
   -0.6133   23.9396  -24.2038 H   0  0  0  0  0  0  0  0  0  0  0  0
   -2.3280   25.1990  -27.9770 C   0  0  0  0  0  0  0  0  0  0  0  0
   -2.3912   26.2963  -27.9340 H   0  0  0  0  0  0  0  0  0  0  0  0
   -2.8610   24.5160  -29.0830 C   0  0  0  0  0  0  0  0  0  0  0  0
   -3.4760   25.1920  -30.1490 O   0  0  0  0  0  0  0  0  0  0  0  0
   -4.8690   25.1430  -30.4440 C   0  0  0  0  0  0  0  0  0  0  0  0
   -5.4421   25.1228  -29.5053 H   0  0  0  0  0  0  0  0  0  0  0  0
   -5.1518   26.0318  -31.0272 H   0  0  0  0  0  0  0  0  0  0  0  0
   -5.0886   24.2366  -31.0272 H   0  0  0  0  0  0  0  0  0  0  0  0
   -3.6130   21.1570  -32.1310 N   0  0  0  0  0  0  0  0  0  0  0  0
   -4.6420   21.3360  -32.0960 H   0  0  0  0  0  0  0  0  0  0  0  0
   -7.1040   18.0840  -33.0090 C   0  0  0  0  0  0  0  0  0  0  0  0
   -6.7890   16.4140  -33.4860 Cl  0  0  0  0  0  0  0  0  0  0  0  0
  1  2  1  0
  2  3  2  0
  3  4  1  0
  3  5  1  0
  5  6  1  0
  6  7  1  0
  6  8  1  0
  6  9  1  0
  5 10  2  0
 10 11  1  0
 10 12  1  0
 12 13  1  0
 13 14  1  0
 13 15  1  0
 13 16  1  0
 16 17  1  0
 17 18  2  0
 18 19  1  0
 19 20  1  0
 19 21  1  0
 19 22  1  0
 18 23  1  0
 23 24  1  0
 24 25  1  0
 24 26  1  0
 24 27  1  0
 23 28  2  0
 28 29  1  0
 28 30  1  0
 30 31  2  0
 31 32  1  0
 32 33  2  0
 33 34  1  0
 33 35  1  0
 35 36  1  0
 35 37  2  0
 37 38  1  0
 38 39  1  0
 39 40  1  0
 39 41  1  0
 39 42  1  0
 42 43  1  0
 42 44  1  0
 42 45  1  0
 45 46  1  0
 46 47  1  0
 46 48  1  0
 46 49  1  0
 49 50  1  0
 49 51  1  0
 37 52  1  0
 52 53  1  0
 52 54  2  0
 54 55  1  0
 55 56  1  0
 56 57  1  0
 56 58  1  0
 56 59  1  0
 30 60  1  0
 60 61  1  0
 12 62  2  0
 62 63  1  0
 62  2  1  0
 60 17  1  0
 54 32  1  0
 49 38  1  0
M  END
>  <UniqueID>  (41) 
39

>  <SMILES>  (41) 
COc1cc(N2CCOCC2)ccc1/N=c1\cc(C)c(C)c(OCc2cc(C)ccc2Cl)[nH]1

>  <Energy>  (41) 
92.32758560797801

>  <Genealogy>  (41) 
COc1cc(N2CCOCC2)ccc1/N=c1\cc(C)c(C)c(OCc2cc(C)ccc2Cl)[nH]1 (cis-trans isomerization)
COc1cc(N2CCOCC2)ccc1/N=c1\cc(C)c(C)c(OCc2cc(C)ccc2Cl)[nH]1 (3D coordinates assigned)
COc1cc(N2CCOCC2)ccc1/N=c1\cc(C)c(C)c(OCc2cc(C)ccc2Cl)[nH]1 (nonaromatic ring conformer: 92.32758560797801 kcal/mol)

>  <smiles>  (41) 
COc1cc(N2CCOCC2)ccc1N=c1cc(C)c(C)c(OCc2cc(C)ccc2Cl)[nH]1

>  <score_type>  (41) 
oracle

>  <origin>  (41) 
adgpu

>  <m_score__min__energy>  (41) 
-9.6600000000000001

>  <m_primary>  (41) 
energy

$$$$
41:0
     RDKit          3D

 45 47  0  0  0  0  0  0  0  0999 V2000
   -6.2414   23.6104  -28.8021 H   0  0  0  0  0  0  0  0  0  0  0  0
   -6.4880   23.3890  -29.8510 C   0  0  0  0  0  0  0  0  0  0  0  0
   -7.3750   22.3520  -30.1510 C   0  0  0  0  0  0  0  0  0  0  0  0
   -7.8197   21.7608  -29.3369 H   0  0  0  0  0  0  0  0  0  0  0  0
   -7.7020   22.0600  -31.4820 C   0  0  0  0  0  0  0  0  0  0  0  0
   -8.8220   20.7470  -31.8500 S   0  0  0  0  0  0  0  0  0  0  0  0
  -10.1050   21.3450  -32.3540 O   0  0  0  0  0  0  0  0  0  0  0  0
   -9.1040   19.9680  -30.5950 O   0  0  0  0  0  0  0  0  0  0  0  0
   -8.1620   19.6710  -33.0660 N   0  0  0  0  0  0  0  0  0  0  0  0
   -8.7310   19.7640  -33.9390 H   0  0  0  0  0  0  0  0  0  0  0  0
   -6.7510   19.9750  -33.3390 C   0  0  0  0  0  0  0  0  0  0  0  0
   -6.5259   19.7874  -34.3993 H   0  0  0  0  0  0  0  0  0  0  0  0
   -6.5358   21.0315  -33.1211 H   0  0  0  0  0  0  0  0  0  0  0  0
   -5.9020   19.0660  -32.4600 C   0  0  0  0  0  0  0  0  0  0  0  0
   -5.0732   18.6355  -33.0412 H   0  0  0  0  0  0  0  0  0  0  0  0
   -5.4549   19.6166  -31.6192 H   0  0  0  0  0  0  0  0  0  0  0  0
   -6.8370   17.9690  -31.9780 C   0  0  0  0  0  0  0  0  0  0  0  0
   -6.4759   16.9841  -32.3091 H   0  0  0  0  0  0  0  0  0  0  0  0
   -6.8957   17.9383  -30.8800 H   0  0  0  0  0  0  0  0  0  0  0  0
   -8.1890   18.2770  -32.6050 C   0  0  0  0  0  0  0  0  0  0  0  0
   -8.3686   17.6045  -33.4567 H   0  0  0  0  0  0  0  0  0  0  0  0
   -8.9955   18.1301  -31.8715 H   0  0  0  0  0  0  0  0  0  0  0  0
   -7.1470   22.8320  -32.5110 C   0  0  0  0  0  0  0  0  0  0  0  0
   -7.4172   22.6255  -33.5571 H   0  0  0  0  0  0  0  0  0  0  0  0
   -6.2510   23.8640  -32.2140 C   0  0  0  0  0  0  0  0  0  0  0  0
   -5.8108   24.4556  -33.0302 H   0  0  0  0  0  0  0  0  0  0  0  0
   -5.9080   24.1520  -30.8810 C   0  0  0  0  0  0  0  0  0  0  0  0
   -4.9570   25.2430  -30.5660 C   0  0  0  0  0  0  0  0  0  0  0  0
   -5.3750   26.4300  -30.4770 O   0  0  0  0  0  0  0  0  0  0  0  0
   -3.5660   24.9430  -30.3550 N   0  0  0  0  0  0  0  0  0  0  0  0
   -3.0800   24.1610  -29.4390 C   0  0  0  0  0  0  0  0  0  0  0  0
   -3.8210   23.5060  -28.5170 N   0  0  0  0  0  0  0  0  0  0  0  0
   -3.0850   22.7680  -27.6890 N   0  0  0  0  0  0  0  0  0  0  0  0
   -1.7590   22.8260  -27.9540 C   0  0  0  0  0  0  0  0  0  0  0  0
   -0.7180   22.1170  -27.1460 C   0  0  0  0  0  0  0  0  0  0  0  0
   -0.9459   22.2416  -26.0771 H   0  0  0  0  0  0  0  0  0  0  0  0
    0.2648   22.5500  -27.3840 H   0  0  0  0  0  0  0  0  0  0  0  0
   -0.6860   20.6230  -27.4800 C   0  0  0  0  0  0  0  0  0  0  0  0
    0.2977   20.2145  -27.2051 H   0  0  0  0  0  0  0  0  0  0  0  0
   -0.8675   20.5024  -28.5582 H   0  0  0  0  0  0  0  0  0  0  0  0
   -1.7700   19.8660  -26.7190 C   0  0  0  0  0  0  0  0  0  0  0  0
   -1.6064   19.9803  -25.6373 H   0  0  0  0  0  0  0  0  0  0  0  0
   -2.7569   20.2723  -26.9855 H   0  0  0  0  0  0  0  0  0  0  0  0
   -1.7284   18.7996  -26.9855 H   0  0  0  0  0  0  0  0  0  0  0  0
   -1.4380   23.8470  -29.2590 S   0  0  0  0  0  0  0  0  0  0  0  0
  1  2  1  0
  2  3  2  0
  3  4  1  0
  3  5  1  0
  5  6  1  0
  6  7  2  0
  6  8  2  0
  6  9  1  0
  9 10  1  0
  9 11  1  0
 11 12  1  0
 11 13  1  0
 11 14  1  0
 14 15  1  0
 14 16  1  0
 14 17  1  0
 17 18  1  0
 17 19  1  0
 17 20  1  0
 20 21  1  0
 20 22  1  0
  5 23  2  0
 23 24  1  0
 23 25  1  0
 25 26  1  0
 25 27  2  0
 27 28  1  0
 28 29  2  0
 28 30  1  0
 30 31  2  0
 31 32  1  0
 32 33  1  0
 33 34  2  0
 34 35  1  0
 35 36  1  0
 35 37  1  0
 35 38  1  0
 38 39  1  0
 38 40  1  0
 38 41  1  0
 41 42  1  0
 41 43  1  0
 41 44  1  0
 34 45  1  0
 27  2  1  0
 45 31  1  0
 20  9  1  0
M  CHG  2   9   1  32  -1
M  END
>  <UniqueID>  (42) 
40

>  <SMILES>  (42) 
CCCc1n[n-]/c(=N\C(=O)c2ccc(S(=O)(=O)[NH+]3CCCC3)cc2)s1

>  <Energy>  (42) 
78.89405054735799

>  <Genealogy>  (42) 
CCCc1n[n-]c(=NC(=O)c2ccc(S(=O)(=O)[NH+]3CCCC3)cc2)s1 (protonated)
CCCc1n[n-]/c(=N\C(=O)c2ccc(S(=O)(=O)[NH+]3CCCC3)cc2)s1 (cis-trans isomerization)
CCCc1n[n-]/c(=N\C(=O)c2ccc(S(=O)(=O)[NH+]3CCCC3)cc2)s1 (3D coordinates assigned)
CCCc1n[n-]/c(=N\C(=O)c2ccc(S(=O)(=O)[NH+]3CCCC3)cc2)s1 (nonaromatic ring conformer: 78.89405054735799 kcal/mol)

>  <smiles>  (42) 
CCCc1n[nH]c(=NC(=O)c2ccc(S(=O)(=O)N3CCCC3)cc2)s1

>  <score_type>  (42) 
oracle

>  <origin>  (42) 
adgpu

>  <m_score__min__energy>  (42) 
-10.710000000000001

>  <m_primary>  (42) 
energy

$$$$
42:0
     RDKit          3D

 65 68  0  0  0  0  0  0  0  0999 V2000
   -0.0110   22.7790  -23.9450 C   0  0  0  0  0  0  0  0  0  0  0  0
    0.0870   22.7420  -25.3640 O   0  0  0  0  0  0  0  0  0  0  0  0
   -0.9030   23.2050  -26.2460 C   0  0  0  0  0  0  0  0  0  0  0  0
   -1.0030   24.5640  -26.6000 C   0  0  0  0  0  0  0  0  0  0  0  0
   -1.9950   24.9930  -27.4830 C   0  0  0  0  0  0  0  0  0  0  0  0
   -2.9170   24.0850  -28.0110 C   0  0  0  0  0  0  0  0  0  0  0  0
   -3.9040   24.5630  -28.9350 N   0  0  0  0  0  0  0  0  0  0  0  0
   -3.9330   24.3190  -30.3470 C   0  0  0  0  0  0  0  0  0  0  0  0
   -4.3640   25.2070  -31.1310 O   0  0  0  0  0  0  0  0  0  0  0  0
   -3.4160   23.0400  -30.8900 C   0  0  0  0  0  0  0  0  0  0  0  0
   -2.0630   22.6990  -30.7430 C   0  0  0  0  0  0  0  0  0  0  0  0
   -1.5780   21.4890  -31.2370 C   0  0  0  0  0  0  0  0  0  0  0  0
   -2.4330   20.5830  -31.8830 C   0  0  0  0  0  0  0  0  0  0  0  0
   -1.8530   19.2990  -32.4190 C   0  0  0  0  0  0  0  0  0  0  0  0
   -3.7960   20.9260  -32.0600 C   0  0  0  0  0  0  0  0  0  0  0  0
   -4.9380   19.8320  -32.8630 S   0  0  0  0  0  0  0  0  0  0  0  0
   -5.3230   20.3690  -34.2130 O   0  0  0  0  0  0  0  0  0  0  0  0
   -4.2560   18.5060  -33.0580 O   0  0  0  0  0  0  0  0  0  0  0  0
   -6.3740   19.6650  -31.8880 N   0  0  0  0  0  0  0  0  0  0  0  0
   -6.6600   18.3750  -31.2580 C   0  0  0  0  0  0  0  0  0  0  0  0
   -7.9880   17.8430  -31.7900 C   0  0  0  0  0  0  0  0  0  0  0  0
   -9.1310   18.8270  -31.4900 C   0  0  0  0  0  0  0  0  0  0  0  0
   -8.7590   20.2730  -31.7400 C   0  0  0  0  0  0  0  0  0  0  0  0
   -9.7700   21.2460  -31.7390 C   0  0  0  0  0  0  0  0  0  0  0  0
   -9.4490   22.6000  -31.8600 C   0  0  0  0  0  0  0  0  0  0  0  0
   -8.1140   22.9950  -31.9550 C   0  0  0  0  0  0  0  0  0  0  0  0
   -7.0970   22.0390  -31.9480 C   0  0  0  0  0  0  0  0  0  0  0  0
   -7.4070   20.6700  -31.8680 C   0  0  0  0  0  0  0  0  0  0  0  0
   -4.2730   22.1450  -31.5520 C   0  0  0  0  0  0  0  0  0  0  0  0
   -2.8130   22.7250  -27.6760 C   0  0  0  0  0  0  0  0  0  0  0  0
   -1.8160   22.2840  -26.7910 C   0  0  0  0  0  0  0  0  0  0  0  0
   -1.6990   20.5680  -26.3830 S   0  0  0  0  0  0  0  0  0  0  0  0
   -1.6090   20.3950  -24.8910 O   0  0  0  0  0  0  0  0  0  0  0  0
   -2.9390   19.8770  -26.8790 O   0  0  0  0  0  0  0  0  0  0  0  0
   -0.2880   19.8710  -27.1400 N   0  0  0  0  0  0  0  0  0  0  0  0
   -0.5870   18.5000  -27.5680 C   0  0  0  0  0  0  0  0  0  0  0  0
    0.1000   20.6870  -28.2980 C   0  0  0  0  0  0  0  0  0  0  0  0
    0.9314   22.4232  -23.5030 H   0  0  0  0  0  0  0  0  0  0  0  0
   -0.2028   23.8114  -23.6175 H   0  0  0  0  0  0  0  0  0  0  0  0
   -0.8373   22.1309  -23.6175 H   0  0  0  0  0  0  0  0  0  0  0  0
   -0.2948   25.2922  -26.1780 H   0  0  0  0  0  0  0  0  0  0  0  0
   -2.0517   26.0545  -27.7657 H   0  0  0  0  0  0  0  0  0  0  0  0
   -1.3785   23.3929  -30.2332 H   0  0  0  0  0  0  0  0  0  0  0  0
   -0.5127   21.2415  -31.1190 H   0  0  0  0  0  0  0  0  0  0  0  0
   -1.5601   18.6506  -31.5801 H   0  0  0  0  0  0  0  0  0  0  0  0
   -2.6063   18.7850  -33.0340 H   0  0  0  0  0  0  0  0  0  0  0  0
   -0.9693   19.5244  -33.0340 H   0  0  0  0  0  0  0  0  0  0  0  0
   -5.8561   17.6627  -31.4956 H   0  0  0  0  0  0  0  0  0  0  0  0
   -6.7215   18.5009  -30.1670 H   0  0  0  0  0  0  0  0  0  0  0  0
   -7.9099   17.7021  -32.8781 H   0  0  0  0  0  0  0  0  0  0  0  0
   -8.2080   16.8860  -31.2943 H   0  0  0  0  0  0  0  0  0  0  0  0
   -9.9883   18.5716  -32.1301 H   0  0  0  0  0  0  0  0  0  0  0  0
   -9.3690   18.7327  -30.4202 H   0  0  0  0  0  0  0  0  0  0  0  0
  -10.8223   20.9405  -31.6423 H   0  0  0  0  0  0  0  0  0  0  0  0
  -10.2487   23.3551  -31.8804 H   0  0  0  0  0  0  0  0  0  0  0  0
   -7.8624   24.0628  -32.0356 H   0  0  0  0  0  0  0  0  0  0  0  0
   -6.0461   22.3588  -32.0055 H   0  0  0  0  0  0  0  0  0  0  0  0
   -5.3352   22.4035  -31.6744 H   0  0  0  0  0  0  0  0  0  0  0  0
   -3.5175   22.0002  -28.1100 H   0  0  0  0  0  0  0  0  0  0  0  0
   -0.7262   17.8617  -26.6830 H   0  0  0  0  0  0  0  0  0  0  0  0
   -1.5070   18.4965  -28.1710 H   0  0  0  0  0  0  0  0  0  0  0  0
    0.2480   18.1138  -28.1710 H   0  0  0  0  0  0  0  0  0  0  0  0
    0.5480   21.6291  -27.9491 H   0  0  0  0  0  0  0  0  0  0  0  0
    0.8324   20.1358  -28.9061 H   0  0  0  0  0  0  0  0  0  0  0  0
   -0.7898   20.9072  -28.9061 H   0  0  0  0  0  0  0  0  0  0  0  0
  1  2  1  0
  2  3  1  0
  3  4  2  0
  4  5  1  0
  5  6  2  0
  6  7  1  0
  7  8  1  0
  8  9  2  0
  8 10  1  0
 10 11  2  0
 11 12  1  0
 12 13  2  0
 13 14  1  0
 13 15  1  0
 15 16  1  0
 16 17  2  0
 16 18  2  0
 16 19  1  0
 19 20  1  0
 20 21  1  0
 21 22  1  0
 22 23  1  0
 23 24  2  0
 24 25  1  0
 25 26  2  0
 26 27  1  0
 27 28  2  0
 15 29  2  0
  6 30  1  0
 30 31  2  0
 31 32  1  0
 32 33  2  0
 32 34  2  0
 32 35  1  0
 35 36  1  0
 35 37  1  0
 31  3  1  0
 29 10  1  0
 28 19  1  0
 28 23  1  0
  1 38  1  0
  1 39  1  0
  1 40  1  0
  4 41  1  0
  5 42  1  0
 11 43  1  0
 12 44  1  0
 14 45  1  0
 14 46  1  0
 14 47  1  0
 20 48  1  0
 20 49  1  0
 21 50  1  0
 21 51  1  0
 22 52  1  0
 22 53  1  0
 24 54  1  0
 25 55  1  0
 26 56  1  0
 27 57  1  0
 29 58  1  0
 30 59  1  0
 36 60  1  0
 36 61  1  0
 36 62  1  0
 37 63  1  0
 37 64  1  0
 37 65  1  0
M  CHG  1   7  -1
M  END
>  <UniqueID>  (43) 
41

>  <SMILES>  (43) 
COc1ccc([N-]C(=O)c2ccc(C)c(S(=O)(=O)N3CCCc4ccccc43)c2)cc1S(=O)(=O)N(C)C

>  <Energy>  (43) 
75.1729429307015

>  <Genealogy>  (43) 
COc1ccc([N-]C(=O)c2ccc(C)c(S(=O)(=O)N3CCCc4ccccc43)c2)cc1S(=O)(=O)N(C)C (protonated)
COc1ccc([N-]C(=O)c2ccc(C)c(S(=O)(=O)N3CCCc4ccccc43)c2)cc1S(=O)(=O)N(C)C (3D coordinates assigned)
COc1ccc([N-]C(=O)c2ccc(C)c(S(=O)(=O)N3CCCc4ccccc43)c2)cc1S(=O)(=O)N(C)C (nonaromatic ring conformer: 75.1729429307015 kcal/mol)

>  <smiles>  (43) 
COc1ccc(NC(=O)c2ccc(C)c(S(=O)(=O)N3CCCc4ccccc43)c2)cc1S(=O)(=O)N(C)C

>  <score_type>  (43) 
oracle

>  <origin>  (43) 
adgpu

>  <m_score__min__energy>  (43) 
-12.19

>  <m_primary>  (43) 
energy

$$$$
43:0
     RDKit          3D

 50 53  0  0  0  0  0  0  0  0999 V2000
   -1.4020   20.6530  -32.9360 C   0  0  0  0  0  0  0  0  0  0  0  0
   -2.1650   19.5180  -33.5570 C   0  0  0  0  0  0  0  0  0  0  0  0
   -1.4860   18.3910  -34.0400 C   0  0  0  0  0  0  0  0  0  0  0  0
   -2.1980   17.3250  -34.6010 C   0  0  0  0  0  0  0  0  0  0  0  0
   -1.3410   15.9310  -35.2320 Cl  0  0  0  0  0  0  0  0  0  0  0  0
   -3.5930   17.3740  -34.6670 C   0  0  0  0  0  0  0  0  0  0  0  0
   -4.2880   18.4800  -34.1480 C   0  0  0  0  0  0  0  0  0  0  0  0
   -5.6890   18.5670  -34.1960 O   0  0  0  0  0  0  0  0  0  0  0  0
   -6.4980   19.2360  -33.2650 C   0  0  0  0  0  0  0  0  0  0  0  0
   -7.5750   18.5460  -32.6960 C   0  0  0  0  0  0  0  0  0  0  0  0
   -8.4200   19.1840  -31.7830 C   0  0  0  0  0  0  0  0  0  0  0  0
   -8.2040   20.5210  -31.4430 C   0  0  0  0  0  0  0  0  0  0  0  0
   -7.1440   21.2310  -32.0220 C   0  0  0  0  0  0  0  0  0  0  0  0
   -6.8950   22.9320  -31.6340 S   0  0  0  0  0  0  0  0  0  0  0  0
   -7.7400   23.8050  -32.5170 O   0  0  0  0  0  0  0  0  0  0  0  0
   -7.2820   23.1590  -30.2020 O   0  0  0  0  0  0  0  0  0  0  0  0
   -5.2260   23.3600  -31.8500 N   0  0  0  0  0  0  0  0  0  0  0  0
   -4.2310   23.2230  -30.8160 C   0  0  0  0  0  0  0  0  0  0  0  0
   -3.8980   21.9620  -30.2850 C   0  0  0  0  0  0  0  0  0  0  0  0
   -2.9530   21.8440  -29.2560 C   0  0  0  0  0  0  0  0  0  0  0  0
   -2.3340   22.9970  -28.7390 C   0  0  0  0  0  0  0  0  0  0  0  0
   -2.6340   24.2490  -29.2910 C   0  0  0  0  0  0  0  0  0  0  0  0
   -3.5780   24.3650  -30.3160 C   0  0  0  0  0  0  0  0  0  0  0  0
   -3.8700   25.6260  -30.8290 O   0  0  0  0  0  0  0  0  0  0  0  0
   -1.2970   22.8810  -27.6490 C   0  0  0  0  0  0  0  0  0  0  0  0
   -1.4950   21.6090  -26.8130 C   0  0  0  0  0  0  0  0  0  0  0  0
   -1.5820   20.3800  -27.7200 C   0  0  0  0  0  0  0  0  0  0  0  0
   -2.6440   20.5530  -28.7080 N   0  0  0  0  0  0  0  0  0  0  0  0
   -6.2920   20.5870  -32.9300 C   0  0  0  0  0  0  0  0  0  0  0  0
   -3.5670   19.5510  -33.6040 C   0  0  0  0  0  0  0  0  0  0  0  0
   -1.4550   20.5742  -31.8401 H   0  0  0  0  0  0  0  0  0  0  0  0
   -0.3508   20.6069  -33.2566 H   0  0  0  0  0  0  0  0  0  0  0  0
   -1.8415   21.6091  -33.2566 H   0  0  0  0  0  0  0  0  0  0  0  0
   -0.3888   18.3443  -33.9778 H   0  0  0  0  0  0  0  0  0  0  0  0
   -4.1493   16.5439  -35.1269 H   0  0  0  0  0  0  0  0  0  0  0  0
   -7.7574   17.4961  -32.9687 H   0  0  0  0  0  0  0  0  0  0  0  0
   -9.2571   18.6314  -31.3314 H   0  0  0  0  0  0  0  0  0  0  0  0
   -8.8672   21.0176  -30.7194 H   0  0  0  0  0  0  0  0  0  0  0  0
   -4.9810   23.8480  -32.7380 H   0  0  0  0  0  0  0  0  0  0  0  0
   -4.3849   21.0591  -30.6821 H   0  0  0  0  0  0  0  0  0  0  0  0
   -2.1231   25.1478  -28.9153 H   0  0  0  0  0  0  0  0  0  0  0  0
   -0.2979   22.8542  -28.1084 H   0  0  0  0  0  0  0  0  0  0  0  0
   -1.4001   23.7500  -26.9825 H   0  0  0  0  0  0  0  0  0  0  0  0
   -0.6446   21.4918  -26.1252 H   0  0  0  0  0  0  0  0  0  0  0  0
   -2.4326   21.6990  -26.2448 H   0  0  0  0  0  0  0  0  0  0  0  0
   -0.6220   20.2436  -28.2393 H   0  0  0  0  0  0  0  0  0  0  0  0
   -1.8064   19.4963  -27.1045 H   0  0  0  0  0  0  0  0  0  0  0  0
   -3.1470   19.7040  -29.0570 H   0  0  0  0  0  0  0  0  0  0  0  0
   -5.4571   21.1413  -33.3835 H   0  0  0  0  0  0  0  0  0  0  0  0
   -4.1050   20.4259  -33.2101 H   0  0  0  0  0  0  0  0  0  0  0  0
  1  2  1  0
  2  3  2  0
  3  4  1  0
  4  5  1  0
  4  6  2  0
  6  7  1  0
  7  8  1  0
  8  9  1  0
  9 10  2  0
 10 11  1  0
 11 12  2  0
 12 13  1  0
 13 14  1  0
 14 15  2  0
 14 16  2  0
 14 17  1  0
 17 18  1  0
 18 19  2  0
 19 20  1  0
 20 21  2  0
 21 22  1  0
 22 23  2  0
 23 24  1  0
 21 25  1  0
 25 26  1  0
 26 27  1  0
 27 28  1  0
 13 29  2  0
  7 30  2  0
 30  2  1  0
 29  9  1  0
 23 18  1  0
 28 20  1  0
  1 31  1  0
  1 32  1  0
  1 33  1  0
  3 34  1  0
  6 35  1  0
 10 36  1  0
 11 37  1  0
 12 38  1  0
 17 39  1  0
 19 40  1  0
 22 41  1  0
 25 42  1  0
 25 43  1  0
 26 44  1  0
 26 45  1  0
 27 46  1  0
 27 47  1  0
 28 48  1  0
 29 49  1  0
 30 50  1  0
M  CHG  1  24  -1
M  END
>  <UniqueID>  (44) 
42

>  <SMILES>  (44) 
Cc1cc(Cl)cc(Oc2cccc(S(=O)(=O)Nc3cc4c(cc3[O-])CCCN4)c2)c1

>  <Energy>  (44) 
60.07082221239307

>  <Genealogy>  (44) 
Cc1cc(Cl)cc(Oc2cccc(S(=O)(=O)Nc3cc4c(cc3[O-])CCCN4)c2)c1 (protonated)
Cc1cc(Cl)cc(Oc2cccc(S(=O)(=O)Nc3cc4c(cc3[O-])CCCN4)c2)c1 (3D coordinates assigned)
Cc1cc(Cl)cc(Oc2cccc(S(=O)(=O)Nc3cc4c(cc3[O-])CCCN4)c2)c1 (nonaromatic ring conformer: 60.07082221239307 kcal/mol)

>  <smiles>  (44) 
Cc1cc(Cl)cc(Oc2cccc(S(=O)(=O)Nc3cc4c(cc3O)CCCN4)c2)c1

>  <score_type>  (44) 
oracle

>  <origin>  (44) 
adgpu

>  <m_score__min__energy>  (44) 
-13.35

>  <m_primary>  (44) 
energy

$$$$
44:0
     RDKit          3D

 39 41  0  0  0  0  0  0  0  0999 V2000
   -5.0460   23.1310  -31.1900 C   0  0  0  0  0  0  0  0  0  0  0  0
   -3.7830   23.2470  -30.3830 C   0  0  0  0  0  0  0  0  0  0  0  0
   -3.1000   22.0910  -29.9720 C   0  0  0  0  0  0  0  0  0  0  0  0
   -1.9150   22.1930  -29.2300 C   0  0  0  0  0  0  0  0  0  0  0  0
   -1.0720   20.7480  -28.6800 S   0  0  0  0  0  0  0  0  0  0  0  0
    0.2880   21.0890  -28.1410 O   0  0  0  0  0  0  0  0  0  0  0  0
   -1.8800   20.1000  -27.5910 O   0  0  0  0  0  0  0  0  0  0  0  0
   -0.8990   19.6350  -29.9990 N   0  0  0  0  0  0  0  0  0  0  0  0
   -0.1470   19.8810  -31.1980 C   0  0  0  0  0  0  0  0  0  0  0  0
   -0.6950   20.6010  -32.2760 C   0  0  0  0  0  0  0  0  0  0  0  0
    0.0520   20.8190  -33.4400 C   0  0  0  0  0  0  0  0  0  0  0  0
    1.3580   20.3030  -33.5440 C   0  0  0  0  0  0  0  0  0  0  0  0
    1.9130   19.6100  -32.4610 C   0  0  0  0  0  0  0  0  0  0  0  0
    1.1700   19.3930  -31.2960 C   0  0  0  0  0  0  0  0  0  0  0  0
    1.7620   18.6870  -30.2470 O   0  0  0  0  0  0  0  0  0  0  0  0
    2.1870   20.5570  -34.7800 C   0  0  0  0  0  0  0  0  0  0  0  0
    1.3100   20.8390  -36.0080 C   0  0  0  0  0  0  0  0  0  0  0  0
    0.2830   21.9290  -35.6940 C   0  0  0  0  0  0  0  0  0  0  0  0
   -0.5240   21.5410  -34.5390 N   0  0  0  0  0  0  0  0  0  0  0  0
   -1.4040   23.4560  -28.9090 C   0  0  0  0  0  0  0  0  0  0  0  0
   -2.0700   24.6120  -29.3260 C   0  0  0  0  0  0  0  0  0  0  0  0
   -1.5510   25.8610  -29.0050 O   0  0  0  0  0  0  0  0  0  0  0  0
   -3.2560   24.5130  -30.0640 C   0  0  0  0  0  0  0  0  0  0  0  0
   -3.9050   25.6710  -30.4800 O   0  0  0  0  0  0  0  0  0  0  0  0
   -5.9085   23.0518  -30.5118 H   0  0  0  0  0  0  0  0  0  0  0  0
   -5.1590   24.0225  -31.8243 H   0  0  0  0  0  0  0  0  0  0  0  0
   -4.9947   22.2338  -31.8243 H   0  0  0  0  0  0  0  0  0  0  0  0
   -3.4973   21.0992  -30.2339 H   0  0  0  0  0  0  0  0  0  0  0  0
   -1.7191   20.9959  -32.2034 H   0  0  0  0  0  0  0  0  0  0  0  0
    2.9440   19.2324  -32.5272 H   0  0  0  0  0  0  0  0  0  0  0  0
    1.3230   18.5920  -29.3390 H   0  0  0  0  0  0  0  0  0  0  0  0
    2.8372   21.4258  -34.6000 H   0  0  0  0  0  0  0  0  0  0  0  0
    2.7806   19.6538  -34.9845 H   0  0  0  0  0  0  0  0  0  0  0  0
    1.9482   21.1717  -36.8399 H   0  0  0  0  0  0  0  0  0  0  0  0
    0.7773   19.9171  -36.2841 H   0  0  0  0  0  0  0  0  0  0  0  0
    0.8076   22.8700  -35.4717 H   0  0  0  0  0  0  0  0  0  0  0  0
   -0.3759   22.0644  -36.5644 H   0  0  0  0  0  0  0  0  0  0  0  0
   -1.5270   21.8320  -34.5060 H   0  0  0  0  0  0  0  0  0  0  0  0
   -0.4747   23.5391  -28.3263 H   0  0  0  0  0  0  0  0  0  0  0  0
  1  2  1  0
  2  3  2  0
  3  4  1  0
  4  5  1  0
  5  6  2  0
  5  7  2  0
  5  8  1  0
  8  9  1  0
  9 10  2  0
 10 11  1  0
 11 12  2  0
 12 13  1  0
 13 14  2  0
 14 15  1  0
 12 16  1  0
 16 17  1  0
 17 18  1  0
 18 19  1  0
  4 20  2  0
 20 21  1  0
 21 22  1  0
 21 23  2  0
 23 24  1  0
 23  2  1  0
 14  9  1  0
 19 11  1  0
  1 25  1  0
  1 26  1  0
  1 27  1  0
  3 28  1  0
 10 29  1  0
 13 30  1  0
 15 31  1  0
 16 32  1  0
 16 33  1  0
 17 34  1  0
 17 35  1  0
 18 36  1  0
 18 37  1  0
 19 38  1  0
 20 39  1  0
M  CHG  3   8  -1  22  -1  24  -1
M  END
>  <UniqueID>  (45) 
43

>  <SMILES>  (45) 
Cc1cc(S(=O)(=O)[N-]c2cc3c(cc2O)CCCN3)cc([O-])c1[O-]

>  <Energy>  (45) 
42.57656411319978

>  <Genealogy>  (45) 
Cc1cc(S(=O)(=O)[N-]c2cc3c(cc2O)CCCN3)cc([O-])c1[O-] (protonated)
Cc1cc(S(=O)(=O)[N-]c2cc3c(cc2O)CCCN3)cc([O-])c1[O-] (3D coordinates assigned)
Cc1cc(S(=O)(=O)[N-]c2cc3c(cc2O)CCCN3)cc([O-])c1[O-] (nonaromatic ring conformer: 42.57656411319978 kcal/mol)

>  <smiles>  (45) 
Cc1cc(S(=O)(=O)Nc2cc3c(cc2O)CCCN3)cc(O)c1O

>  <score_type>  (45) 
oracle

>  <origin>  (45) 
adgpu

>  <m_score__min__energy>  (45) 
-12.369999999999999

>  <m_primary>  (45) 
energy

$$$$
45:0
     RDKit          3D

 35 37  0  0  0  0  0  0  0  0999 V2000
   -6.0622   17.1594  -30.4257 H   0  0  0  0  0  0  0  0  0  0  0  0
   -6.3130   17.6830  -31.3600 C   0  0  0  0  0  0  0  0  0  0  0  0
   -6.8730   18.9210  -31.3740 N   0  0  0  0  0  0  0  0  0  0  0  0
   -7.0870   19.3510  -32.6380 C   0  0  0  0  0  0  0  0  0  0  0  0
   -7.6230   20.4930  -32.9350 N   0  0  0  0  0  0  0  0  0  0  0  0
   -8.1490   21.6350  -31.7400 S   0  0  0  0  0  0  0  0  0  0  0  0
   -9.1180   22.6030  -32.3640 O   0  0  0  0  0  0  0  0  0  0  0  0
   -8.8470   20.9060  -30.6280 O   0  0  0  0  0  0  0  0  0  0  0  0
   -6.7540   22.4860  -31.0850 C   0  0  0  0  0  0  0  0  0  0  0  0
   -5.4960   21.8690  -31.0910 C   0  0  0  0  0  0  0  0  0  0  0  0
   -5.3968   20.8294  -31.4365 H   0  0  0  0  0  0  0  0  0  0  0  0
   -4.3660   22.5710  -30.6590 C   0  0  0  0  0  0  0  0  0  0  0  0
   -3.3841   22.0753  -30.6477 H   0  0  0  0  0  0  0  0  0  0  0  0
   -4.4800   23.9020  -30.2410 C   0  0  0  0  0  0  0  0  0  0  0  0
   -3.2970   24.6190  -29.8630 N   0  0  0  0  0  0  0  0  0  0  0  0
   -2.1690   24.0560  -29.1790 C   0  0  0  0  0  0  0  0  0  0  0  0
   -1.5690   23.0800  -29.7040 O   0  0  0  0  0  0  0  0  0  0  0  0
   -1.6580   24.6300  -27.9100 C   0  0  0  0  0  0  0  0  0  0  0  0
   -1.6090   23.8380  -26.7460 C   0  0  0  0  0  0  0  0  0  0  0  0
   -1.9605   22.7962  -26.7802 H   0  0  0  0  0  0  0  0  0  0  0  0
   -1.1180   24.3640  -25.5490 C   0  0  0  0  0  0  0  0  0  0  0  0
   -1.0755   23.7334  -24.6487 H   0  0  0  0  0  0  0  0  0  0  0  0
   -0.6810   25.6890  -25.4930 C   0  0  0  0  0  0  0  0  0  0  0  0
   -0.2923   26.1011  -24.5501 H   0  0  0  0  0  0  0  0  0  0  0  0
   -0.7380   26.4910  -26.6360 C   0  0  0  0  0  0  0  0  0  0  0  0
   -0.3999   27.5367  -26.5879 H   0  0  0  0  0  0  0  0  0  0  0  0
   -1.2230   25.9710  -27.8420 C   0  0  0  0  0  0  0  0  0  0  0  0
   -1.2510   26.7870  -28.9670 O   0  0  0  0  0  0  0  0  0  0  0  0
   -5.7490   24.5040  -30.1940 C   0  0  0  0  0  0  0  0  0  0  0  0
   -5.8533   25.5335  -29.8208 H   0  0  0  0  0  0  0  0  0  0  0  0
   -6.8780   23.8010  -30.6190 C   0  0  0  0  0  0  0  0  0  0  0  0
   -7.8672   24.2811  -30.5878 H   0  0  0  0  0  0  0  0  0  0  0  0
   -6.5930   18.2250  -33.7800 S   0  0  0  0  0  0  0  0  0  0  0  0
   -6.0800   17.1260  -32.6130 C   0  0  0  0  0  0  0  0  0  0  0  0
   -5.6371   16.1381  -32.8076 H   0  0  0  0  0  0  0  0  0  0  0  0
  1  2  1  0
  2  3  1  0
  3  4  1  0
  4  5  2  0
  5  6  1  0
  6  7  2  0
  6  8  2  0
  6  9  1  0
  9 10  2  0
 10 11  1  0
 10 12  1  0
 12 13  1  0
 12 14  2  0
 14 15  1  0
 15 16  1  0
 16 17  2  0
 16 18  1  0
 18 19  2  0
 19 20  1  0
 19 21  1  0
 21 22  1  0
 21 23  2  0
 23 24  1  0
 23 25  1  0
 25 26  1  0
 25 27  2  0
 27 28  1  0
 14 29  1  0
 29 30  1  0
 29 31  2  0
 31 32  1  0
  4 33  1  0
 33 34  1  0
 34 35  1  0
 34  2  2  0
 31  9  1  0
 27 18  1  0
M  CHG  3   3  -1  15  -1  28  -1
M  END
>  <UniqueID>  (46) 
44

>  <SMILES>  (46) 
O=C([N-]c1ccc(S(=O)(=O)/N=c2\[n-]ccs2)cc1)c1ccccc1[O-]

>  <Energy>  (46) 
77.80500413418297

>  <Genealogy>  (46) 
O=C([N-]c1ccc(S(=O)(=O)N=c2[n-]ccs2)cc1)c1ccccc1[O-] (protonated)
O=C([N-]c1ccc(S(=O)(=O)/N=c2\[n-]ccs2)cc1)c1ccccc1[O-] (cis-trans isomerization)
O=C([N-]c1ccc(S(=O)(=O)/N=c2\[n-]ccs2)cc1)c1ccccc1[O-] (3D coordinates assigned)
O=C([N-]c1ccc(S(=O)(=O)/N=c2\[n-]ccs2)cc1)c1ccccc1[O-] (optimized conformer: 77.80500413418297 kcal/mol)

>  <smiles>  (46) 
O=C(Nc1ccc(S(=O)(=O)N=c2[nH]ccs2)cc1)c1ccccc1O

>  <score_type>  (46) 
oracle

>  <origin>  (46) 
adgpu

>  <m_score__min__energy>  (46) 
-12.949999999999999

>  <m_primary>  (46) 
energy

$$$$
46:0
     RDKit          3D

 43 44  0  0  0  0  0  0  0  0999 V2000
   -4.5290   17.7930  -34.8050 C   0  0  0  0  0  0  0  0  0  0  0  0
   -5.9830   18.2480  -34.8700 C   0  0  0  0  0  0  0  0  0  0  0  0
   -6.5480   18.3870  -33.5170 N   0  0  0  0  0  0  0  0  0  0  0  0
   -6.9230   17.1640  -32.7890 C   0  0  0  0  0  0  0  0  0  0  0  0
   -6.1130   17.0370  -31.5020 C   0  0  0  0  0  0  0  0  0  0  0  0
   -6.7570   19.6810  -32.8920 C   0  0  0  0  0  0  0  0  0  0  0  0
   -8.0390   20.1580  -32.5630 C   0  0  0  0  0  0  0  0  0  0  0  0
   -8.1600   21.4150  -31.9610 C   0  0  0  0  0  0  0  0  0  0  0  0
   -9.5060   21.9520  -31.5920 C   0  0  0  0  0  0  0  0  0  0  0  0
   -7.0480   22.1520  -31.7110 N   0  0  0  0  0  0  0  0  0  0  0  0
   -5.8090   21.6970  -32.0400 C   0  0  0  0  0  0  0  0  0  0  0  0
   -4.6410   22.4900  -31.7560 N   0  0  0  0  0  0  0  0  0  0  0  0
   -4.8020   23.7940  -31.2540 C   0  0  0  0  0  0  0  0  0  0  0  0
   -4.9330   24.8670  -30.8410 N   0  0  0  0  0  0  0  0  0  0  0  0
   -3.3110   21.9850  -31.9800 C   0  0  0  0  0  0  0  0  0  0  0  0
   -2.9300   21.5150  -33.2490 C   0  0  0  0  0  0  0  0  0  0  0  0
   -1.6400   21.0170  -33.4620 C   0  0  0  0  0  0  0  0  0  0  0  0
   -0.7110   20.9870  -32.4120 C   0  0  0  0  0  0  0  0  0  0  0  0
    0.6590   20.4160  -32.6320 C   0  0  0  0  0  0  0  0  0  0  0  0
   -1.0960   21.4300  -31.1380 C   0  0  0  0  0  0  0  0  0  0  0  0
   -2.3840   21.9270  -30.9240 C   0  0  0  0  0  0  0  0  0  0  0  0
   -5.6820   20.4720  -32.6160 N   0  0  0  0  0  0  0  0  0  0  0  0
   -4.2216   17.6968  -33.7532 H   0  0  0  0  0  0  0  0  0  0  0  0
   -4.4265   16.8198  -35.3074 H   0  0  0  0  0  0  0  0  0  0  0  0
   -3.8901   18.5341  -35.3074 H   0  0  0  0  0  0  0  0  0  0  0  0
   -6.0344   19.2192  -35.3839 H   0  0  0  0  0  0  0  0  0  0  0  0
   -6.5647   17.4931  -35.4194 H   0  0  0  0  0  0  0  0  0  0  0  0
   -7.9937   17.2051  -32.5400 H   0  0  0  0  0  0  0  0  0  0  0  0
   -6.7146   16.2927  -33.4273 H   0  0  0  0  0  0  0  0  0  0  0  0
   -6.7825   17.1420  -30.6355 H   0  0  0  0  0  0  0  0  0  0  0  0
   -5.6254   16.0514  -31.4714 H   0  0  0  0  0  0  0  0  0  0  0  0
   -5.3472   17.8260  -31.4714 H   0  0  0  0  0  0  0  0  0  0  0  0
   -8.9321   19.5521  -32.7758 H   0  0  0  0  0  0  0  0  0  0  0  0
   -9.5983   21.9888  -30.4965 H   0  0  0  0  0  0  0  0  0  0  0  0
   -9.6221   22.9653  -32.0040 H   0  0  0  0  0  0  0  0  0  0  0  0
  -10.2877   21.2969  -32.0040 H   0  0  0  0  0  0  0  0  0  0  0  0
   -3.6507   21.5389  -34.0797 H   0  0  0  0  0  0  0  0  0  0  0  0
   -1.3532   20.6473  -34.4576 H   0  0  0  0  0  0  0  0  0  0  0  0
    1.1341   20.2180  -31.6599 H   0  0  0  0  0  0  0  0  0  0  0  0
    0.5781   19.4767  -33.1987 H   0  0  0  0  0  0  0  0  0  0  0  0
    1.2691   21.1347  -33.1987 H   0  0  0  0  0  0  0  0  0  0  0  0
   -0.3805   21.3859  -30.3036 H   0  0  0  0  0  0  0  0  0  0  0  0
   -2.6752   22.2755  -29.9221 H   0  0  0  0  0  0  0  0  0  0  0  0
  1  2  1  0
  2  3  1  0
  3  4  1  0
  4  5  1  0
  3  6  1  0
  6  7  2  0
  7  8  1  0
  8  9  1  0
  8 10  2  0
 10 11  1  0
 11 12  1  0
 12 13  1  0
 13 14  3  0
 12 15  1  0
 15 16  2  0
 16 17  1  0
 17 18  2  0
 18 19  1  0
 18 20  1  0
 20 21  2  0
 11 22  2  0
 22  6  1  0
 21 15  1  0
  1 23  1  0
  1 24  1  0
  1 25  1  0
  2 26  1  0
  2 27  1  0
  4 28  1  0
  4 29  1  0
  5 30  1  0
  5 31  1  0
  5 32  1  0
  7 33  1  0
  9 34  1  0
  9 35  1  0
  9 36  1  0
 16 37  1  0
 17 38  1  0
 19 39  1  0
 19 40  1  0
 19 41  1  0
 20 42  1  0
 21 43  1  0
M  END
>  <UniqueID>  (47) 
45

>  <SMILES>  (47) 
CCN(CC)c1cc(C)nc(N(C#N)c2ccc(C)cc2)n1

>  <Energy>  (47) 
41.63290428915964

>  <Genealogy>  (47) 
CCN(CC)c1cc(C)nc(N(C#N)c2ccc(C)cc2)n1 (3D coordinates assigned)
CCN(CC)c1cc(C)nc(N(C#N)c2ccc(C)cc2)n1 (optimized conformer: 41.63290428915964 kcal/mol)

>  <smiles>  (47) 
CCN(CC)c1cc(C)nc(N(C#N)c2ccc(C)cc2)n1

>  <score_type>  (47) 
oracle

>  <origin>  (47) 
adgpu

>  <m_score__min__energy>  (47) 
-7.0499999999999998

>  <m_primary>  (47) 
energy

$$$$
47:0
     RDKit          3D

 38 39  0  0  0  0  0  0  0  0999 V2000
   -2.5910   22.6300  -30.9130 C   0  0  0  0  0  0  0  0  0  0  0  0
   -3.8890   23.3240  -30.5960 C   0  0  0  0  0  0  0  0  0  0  0  0
   -4.9970   23.1080  -31.4360 C   0  0  0  0  0  0  0  0  0  0  0  0
   -6.2240   23.7200  -31.1670 C   0  0  0  0  0  0  0  0  0  0  0  0
   -7.6240   23.4380  -32.2510 S   0  0  0  0  0  0  0  0  0  0  0  0
   -7.9910   21.7950  -31.5480 C   0  0  0  0  0  0  0  0  0  0  0  0
   -7.2530   20.7380  -32.3210 C   0  0  0  0  0  0  0  0  0  0  0  0
   -6.1960   21.1320  -33.0790 N   0  0  0  0  0  0  0  0  0  0  0  0
   -5.4780   20.2730  -33.7970 N   0  0  0  0  0  0  0  0  0  0  0  0
   -5.7770   18.9500  -33.8260 C   0  0  0  0  0  0  0  0  0  0  0  0
   -5.0730   18.1730  -34.5290 O   0  0  0  0  0  0  0  0  0  0  0  0
   -6.8620   18.4610  -33.0770 C   0  0  0  0  0  0  0  0  0  0  0  0
   -7.2120   16.9890  -33.1210 C   0  0  0  0  0  0  0  0  0  0  0  0
   -7.5880   19.3640  -32.2610 C   0  0  0  0  0  0  0  0  0  0  0  0
   -8.7400   18.8830  -31.4050 C   0  0  0  0  0  0  0  0  0  0  0  0
   -6.3580   24.5550  -30.0570 C   0  0  0  0  0  0  0  0  0  0  0  0
   -5.2720   24.7700  -29.2070 C   0  0  0  0  0  0  0  0  0  0  0  0
   -4.0340   24.1550  -29.4580 C   0  0  0  0  0  0  0  0  0  0  0  0
   -2.6890   24.4590  -28.3450 S   0  0  0  0  0  0  0  0  0  0  0  0
   -1.7070   25.7450  -28.9560 N   0  0  0  0  0  0  0  0  0  0  0  0
   -3.2110   24.8510  -26.9910 O   0  0  0  0  0  0  0  0  0  0  0  0
   -1.8590   23.2160  -28.1950 O   0  0  0  0  0  0  0  0  0  0  0  0
   -2.0823   22.3580  -29.9764 H   0  0  0  0  0  0  0  0  0  0  0  0
   -2.7947   21.7204  -31.4971 H   0  0  0  0  0  0  0  0  0  0  0  0
   -1.9477   23.3045  -31.4971 H   0  0  0  0  0  0  0  0  0  0  0  0
   -4.8963   22.4512  -32.3126 H   0  0  0  0  0  0  0  0  0  0  0  0
   -7.6724   21.7680  -30.4955 H   0  0  0  0  0  0  0  0  0  0  0  0
   -9.0726   21.6046  -31.6111 H   0  0  0  0  0  0  0  0  0  0  0  0
   -4.6720   20.6350  -34.3560 H   0  0  0  0  0  0  0  0  0  0  0  0
   -7.3038   16.6031  -32.0950 H   0  0  0  0  0  0  0  0  0  0  0  0
   -8.1671   16.8549  -33.6500 H   0  0  0  0  0  0  0  0  0  0  0  0
   -6.4195   16.4393  -33.6500 H   0  0  0  0  0  0  0  0  0  0  0  0
   -8.4778   18.9925  -30.3423 H   0  0  0  0  0  0  0  0  0  0  0  0
   -9.6357   19.4823  -31.6253 H   0  0  0  0  0  0  0  0  0  0  0  0
   -8.9436   17.8247  -31.6253 H   0  0  0  0  0  0  0  0  0  0  0  0
   -7.3213   25.0447  -29.8515 H   0  0  0  0  0  0  0  0  0  0  0  0
   -5.3865   25.4272  -28.3323 H   0  0  0  0  0  0  0  0  0  0  0  0
   -1.6140   25.5930  -29.9850 H   0  0  0  0  0  0  0  0  0  0  0  0
  1  2  1  0
  2  3  2  0
  3  4  1  0
  4  5  1  0
  5  6  1  0
  6  7  1  0
  7  8  2  0
  8  9  1  0
  9 10  1  0
 10 11  2  0
 10 12  1  0
 12 13  1  0
 12 14  2  0
 14 15  1  0
  4 16  2  0
 16 17  1  0
 17 18  2  0
 18 19  1  0
 19 20  1  0
 19 21  2  0
 19 22  2  0
 18  2  1  0
 14  7  1  0
  1 23  1  0
  1 24  1  0
  1 25  1  0
  3 26  1  0
  6 27  1  0
  6 28  1  0
  9 29  1  0
 13 30  1  0
 13 31  1  0
 13 32  1  0
 15 33  1  0
 15 34  1  0
 15 35  1  0
 16 36  1  0
 17 37  1  0
 20 38  1  0
M  CHG  1  20  -1
M  END
>  <UniqueID>  (48) 
46

>  <SMILES>  (48) 
Cc1cc(SCc2n[nH]c(=O)c(C)c2C)ccc1S([NH-])(=O)=O

>  <Energy>  (48) 
38.947290942017425

>  <Genealogy>  (48) 
Cc1cc(SCc2n[nH]c(=O)c(C)c2C)ccc1S([NH-])(=O)=O (protonated)
Cc1cc(SCc2n[nH]c(=O)c(C)c2C)ccc1S([NH-])(=O)=O (3D coordinates assigned)
Cc1cc(SCc2n[nH]c(=O)c(C)c2C)ccc1S([NH-])(=O)=O (optimized conformer: 38.947290942017425 kcal/mol)

>  <smiles>  (48) 
Cc1cc(SCc2n[nH]c(=O)c(C)c2C)ccc1S(N)(=O)=O

>  <score_type>  (48) 
oracle

>  <origin>  (48) 
adgpu

>  <m_score__min__energy>  (48) 
-10.75

>  <m_primary>  (48) 
energy

$$$$
