0:0
     RDKit          3D

 60 63  0  0  0  0  0  0  0  0999 V2000
   -2.7900   21.6040  -32.3220 C   0  0  0  0  0  0  0  0  0  0  0  0
   -2.9380   20.9250  -33.5640 O   0  0  0  0  0  0  0  0  0  0  0  0
   -3.1610   19.5460  -33.6890 C   0  0  0  0  0  0  0  0  0  0  0  0
   -2.1390   18.6700  -33.3010 C   0  0  0  0  0  0  0  0  0  0  0  0
   -2.3150   17.2880  -33.3990 C   0  0  0  0  0  0  0  0  0  0  0  0
   -3.5120   16.7670  -33.8940 C   0  0  0  0  0  0  0  0  0  0  0  0
   -4.5450   17.6270  -34.2950 C   0  0  0  0  0  0  0  0  0  0  0  0
   -5.8220   17.0580  -34.8570 C   0  0  0  0  0  0  0  0  0  0  0  0
   -6.8290   16.9090  -33.8080 N   0  0  0  0  0  0  0  0  0  0  0  0
   -6.7670   17.5110  -32.5070 C   0  0  0  0  0  0  0  0  0  0  0  0
   -6.4380   16.8010  -31.5220 O   0  0  0  0  0  0  0  0  0  0  0  0
   -7.1220   18.9250  -32.2870 C   0  0  0  0  0  0  0  0  0  0  0  0
   -8.3700   19.4000  -32.7120 C   0  0  0  0  0  0  0  0  0  0  0  0
   -8.7050   20.6740  -32.5400 O   0  0  0  0  0  0  0  0  0  0  0  0
   -7.8980   21.5570  -31.9600 C   0  0  0  0  0  0  0  0  0  0  0  0
   -8.3130   22.8840  -31.8170 C   0  0  0  0  0  0  0  0  0  0  0  0
   -7.4730   23.8210  -31.2090 C   0  0  0  0  0  0  0  0  0  0  0  0
   -6.2110   23.4390  -30.7380 C   0  0  0  0  0  0  0  0  0  0  0  0
   -5.1690   24.6320  -29.9670 S   0  0  0  0  0  0  0  0  0  0  0  0
   -3.9470   24.8280  -30.8200 O   0  0  0  0  0  0  0  0  0  0  0  0
   -5.8790   25.9490  -29.8210 O   0  0  0  0  0  0  0  0  0  0  0  0
   -4.6870   24.0660  -28.4000 N   0  0  0  0  0  0  0  0  0  0  0  0
   -3.5250   24.5470  -27.7010 C   0  0  0  0  0  0  0  0  0  0  0  0
   -3.6070   25.0610  -26.3960 C   0  0  0  0  0  0  0  0  0  0  0  0
   -2.4620   25.5220  -25.7450 C   0  0  0  0  0  0  0  0  0  0  0  0
   -1.2080   25.4620  -26.3770 C   0  0  0  0  0  0  0  0  0  0  0  0
   -0.0320   25.8930  -25.7400 O   0  0  0  0  0  0  0  0  0  0  0  0
    0.0600   26.2280  -24.3590 C   0  0  0  0  0  0  0  0  0  0  0  0
   -1.1140   24.9580  -27.6820 C   0  0  0  0  0  0  0  0  0  0  0  0
    0.1500   24.9170  -28.2930 O   0  0  0  0  0  0  0  0  0  0  0  0
    1.2670   24.1910  -27.7920 C   0  0  0  0  0  0  0  0  0  0  0  0
   -2.2770   24.5090  -28.3410 C   0  0  0  0  0  0  0  0  0  0  0  0
   -5.7880   22.1090  -30.8740 C   0  0  0  0  0  0  0  0  0  0  0  0
   -6.6260   21.1600  -31.4880 C   0  0  0  0  0  0  0  0  0  0  0  0
   -6.2450   19.8170  -31.6490 C   0  0  0  0  0  0  0  0  0  0  0  0
   -5.1330   19.4090  -31.2110 O   0  0  0  0  0  0  0  0  0  0  0  0
   -4.3690   19.0180  -34.1850 C   0  0  0  0  0  0  0  0  0  0  0  0
   -2.9446   20.8946  -31.4956 H   0  0  0  0  0  0  0  0  0  0  0  0
   -1.7780   22.0298  -32.2552 H   0  0  0  0  0  0  0  0  0  0  0  0
   -3.5330   22.4124  -32.2552 H   0  0  0  0  0  0  0  0  0  0  0  0
   -1.1908   19.0736  -32.9163 H   0  0  0  0  0  0  0  0  0  0  0  0
   -1.5088   16.6085  -33.0855 H   0  0  0  0  0  0  0  0  0  0  0  0
   -3.6455   15.6778  -33.9698 H   0  0  0  0  0  0  0  0  0  0  0  0
   -6.2075   17.7350  -35.6336 H   0  0  0  0  0  0  0  0  0  0  0  0
   -5.6087   16.0672  -35.2846 H   0  0  0  0  0  0  0  0  0  0  0  0
   -9.0796   18.7108  -33.1930 H   0  0  0  0  0  0  0  0  0  0  0  0
   -9.3033   23.1917  -32.1839 H   0  0  0  0  0  0  0  0  0  0  0  0
   -7.8050   24.8640  -31.0999 H   0  0  0  0  0  0  0  0  0  0  0  0
   -5.3480   23.4250  -27.9050 H   0  0  0  0  0  0  0  0  0  0  0  0
   -4.5799   25.1003  -25.8842 H   0  0  0  0  0  0  0  0  0  0  0  0
   -2.5415   25.9357  -24.7289 H   0  0  0  0  0  0  0  0  0  0  0  0
   -0.1827   25.3444  -23.7504 H   0  0  0  0  0  0  0  0  0  0  0  0
    1.0829   26.5613  -24.1299 H   0  0  0  0  0  0  0  0  0  0  0  0
   -0.6492   27.0370  -24.1299 H   0  0  0  0  0  0  0  0  0  0  0  0
    1.2487   24.2029  -26.6922 H   0  0  0  0  0  0  0  0  0  0  0  0
    1.2183   23.1514  -28.1483 H   0  0  0  0  0  0  0  0  0  0  0  0
    2.1973   24.6576  -28.1483 H   0  0  0  0  0  0  0  0  0  0  0  0
   -2.2049   24.1244  -29.3690 H   0  0  0  0  0  0  0  0  0  0  0  0
   -4.7987   21.8069  -30.4998 H   0  0  0  0  0  0  0  0  0  0  0  0
   -5.1793   19.6974  -34.4880 H   0  0  0  0  0  0  0  0  0  0  0  0
  1  2  1  0
  2  3  1  0
  3  4  2  0
  4  5  1  0
  5  6  2  0
  6  7  1  0
  7  8  1  0
  8  9  1  0
  9 10  1  0
 10 11  2  0
 10 12  1  0
 12 13  2  0
 13 14  1  0
 14 15  1  0
 15 16  2  0
 16 17  1  0
 17 18  2  0
 18 19  1  0
 19 20  2  0
 19 21  2  0
 19 22  1  0
 22 23  1  0
 23 24  2  0
 24 25  1  0
 25 26  2  0
 26 27  1  0
 27 28  1  0
 26 29  1  0
 29 30  1  0
 30 31  1  0
 29 32  2  0
 18 33  1  0
 33 34  2  0
 34 35  1  0
 35 36  2  0
  7 37  2  0
 37  3  1  0
 35 12  1  0
 34 15  1  0
 32 23  1  0
  1 38  1  0
  1 39  1  0
  1 40  1  0
  4 41  1  0
  5 42  1  0
  6 43  1  0
  8 44  1  0
  8 45  1  0
 13 46  1  0
 16 47  1  0
 17 48  1  0
 22 49  1  0
 24 50  1  0
 25 51  1  0
 28 52  1  0
 28 53  1  0
 28 54  1  0
 31 55  1  0
 31 56  1  0
 31 57  1  0
 32 58  1  0
 33 59  1  0
 37 60  1  0
M  CHG  1   9  -1
M  END
>  <UniqueID>  (1) 
1

>  <SMILES>  (1) 
COc1cccc(C[N-]C(=O)c2coc3ccc(S(=O)(=O)Nc4ccc(OC)c(OC)c4)cc3c2=O)c1

>  <Energy>  (1) 
70.05471451925453

>  <Genealogy>  (1) 
COc1cccc(C[N-]C(=O)c2coc3ccc(S(=O)(=O)Nc4ccc(OC)c(OC)c4)cc3c2=O)c1 (protonated)
COc1cccc(C[N-]C(=O)c2coc3ccc(S(=O)(=O)Nc4ccc(OC)c(OC)c4)cc3c2=O)c1 (3D coordinates assigned)
COc1cccc(C[N-]C(=O)c2coc3ccc(S(=O)(=O)Nc4ccc(OC)c(OC)c4)cc3c2=O)c1 (optimized conformer: 70.05471451925453 kcal/mol)

>  <smiles>  (1) 
COc1cccc(CNC(=O)c2coc3ccc(S(=O)(=O)Nc4ccc(OC)c(OC)c4)cc3c2=O)c1

>  <score_type>  (1) 
oracle

>  <origin>  (1) 
adgpu

>  <m_score__min__energy>  (1) 
-11.34

>  <m_primary>  (1) 
energy

$$$$
1:0
     RDKit          3D

 58 61  0  0  0  0  0  0  0  0999 V2000
   -4.2300   25.2160  -30.4010 O   0  0  0  0  0  0  0  0  0  0  0  0
   -3.2110   24.5450  -30.0880 C   0  0  0  0  0  0  0  0  0  0  0  0
   -2.1800   25.1830  -29.3220 N   0  0  0  0  0  0  0  0  0  0  0  0
   -1.7250   24.7850  -28.0200 C   0  0  0  0  0  0  0  0  0  0  0  0
   -1.6650   23.4320  -27.6420 C   0  0  0  0  0  0  0  0  0  0  0  0
   -1.2350   23.0800  -26.3600 C   0  0  0  0  0  0  0  0  0  0  0  0
   -0.8750   24.0720  -25.4430 C   0  0  0  0  0  0  0  0  0  0  0  0
   -0.9490   25.4240  -25.8060 C   0  0  0  0  0  0  0  0  0  0  0  0
   -0.5260   26.6900  -24.6550 S   0  0  0  0  0  0  0  0  0  0  0  0
   -0.4010   28.0100  -25.3630 O   0  0  0  0  0  0  0  0  0  0  0  0
   -1.6230   26.7940  -23.6310 O   0  0  0  0  0  0  0  0  0  0  0  0
    0.9840   26.2910  -23.8690 N   0  0  0  0  0  0  0  0  0  0  0  0
    1.8920   25.5630  -24.7930 C   0  0  0  0  0  0  0  0  0  0  0  0
    3.0100   26.4720  -25.3350 C   0  0  0  0  0  0  0  0  0  0  0  0
    3.8210   27.0320  -24.3110 O   0  0  0  0  0  0  0  0  0  0  0  0
    3.1110   27.3280  -23.1140 C   0  0  0  0  0  0  0  0  0  0  0  0
    1.5960   27.5160  -23.3110 C   0  0  0  0  0  0  0  0  0  0  0  0
   -1.3840   25.7740  -27.0910 C   0  0  0  0  0  0  0  0  0  0  0  0
   -3.0870   23.1470  -30.5640 C   0  0  0  0  0  0  0  0  0  0  0  0
   -1.8520   22.4770  -30.5150 C   0  0  0  0  0  0  0  0  0  0  0  0
   -1.7430   21.1630  -30.9750 C   0  0  0  0  0  0  0  0  0  0  0  0
   -2.8600   20.5080  -31.4980 C   0  0  0  0  0  0  0  0  0  0  0  0
   -4.0940   21.1670  -31.5700 C   0  0  0  0  0  0  0  0  0  0  0  0
   -5.5030   20.3470  -32.2470 S   0  0  0  0  0  0  0  0  0  0  0  0
   -5.5090   18.9160  -31.7870 O   0  0  0  0  0  0  0  0  0  0  0  0
   -5.4070   20.3520  -33.7470 O   0  0  0  0  0  0  0  0  0  0  0  0
   -6.9940   21.1150  -31.7610 N   0  0  0  0  0  0  0  0  0  0  0  0
   -7.1050   22.4540  -32.3570 C   0  0  0  0  0  0  0  0  0  0  0  0
   -8.4110   23.1290  -31.8880 C   0  0  0  0  0  0  0  0  0  0  0  0
   -9.2560   22.2370  -31.1810 O   0  0  0  0  0  0  0  0  0  0  0  0
   -9.4680   21.0680  -31.9470 C   0  0  0  0  0  0  0  0  0  0  0  0
   -8.1510   20.2890  -32.1470 C   0  0  0  0  0  0  0  0  0  0  0  0
   -4.2030   22.4850  -31.1040 C   0  0  0  0  0  0  0  0  0  0  0  0
   -1.9572   22.6489  -28.3571 H   0  0  0  0  0  0  0  0  0  0  0  0
   -1.1796   22.0199  -26.0716 H   0  0  0  0  0  0  0  0  0  0  0  0
   -0.5334   23.7914  -24.4358 H   0  0  0  0  0  0  0  0  0  0  0  0
    0.7510   25.6530  -23.0720 H   0  0  0  0  0  0  0  0  0  0  0  0
    2.3491   24.7212  -24.2523 H   0  0  0  0  0  0  0  0  0  0  0  0
    1.2963   25.2094  -25.6475 H   0  0  0  0  0  0  0  0  0  0  0  0
    3.6508   25.8778  -26.0030 H   0  0  0  0  0  0  0  0  0  0  0  0
    2.5259   27.3071  -25.8625 H   0  0  0  0  0  0  0  0  0  0  0  0
    3.2671   26.5004  -22.4064 H   0  0  0  0  0  0  0  0  0  0  0  0
    3.5033   28.2858  -22.7416 H   0  0  0  0  0  0  0  0  0  0  0  0
    1.1311   27.7414  -22.3399 H   0  0  0  0  0  0  0  0  0  0  0  0
    1.4318   28.3449  -24.0152 H   0  0  0  0  0  0  0  0  0  0  0  0
   -1.4580   26.8350  -27.3718 H   0  0  0  0  0  0  0  0  0  0  0  0
   -0.9667   22.9907  -30.1121 H   0  0  0  0  0  0  0  0  0  0  0  0
   -0.7751   20.6427  -30.9253 H   0  0  0  0  0  0  0  0  0  0  0  0
   -2.7705   19.4712  -31.8546 H   0  0  0  0  0  0  0  0  0  0  0  0
   -6.2455   23.0652  -32.0443 H   0  0  0  0  0  0  0  0  0  0  0  0
   -7.1166   22.3635  -33.4532 H   0  0  0  0  0  0  0  0  0  0  0  0
   -8.1562   23.9718  -31.2286 H   0  0  0  0  0  0  0  0  0  0  0  0
   -8.9539   23.4675  -32.7828 H   0  0  0  0  0  0  0  0  0  0  0  0
  -10.1913   20.4233  -31.4261 H   0  0  0  0  0  0  0  0  0  0  0  0
   -9.8536   21.3622  -32.9343 H   0  0  0  0  0  0  0  0  0  0  0  0
   -8.1702   19.3815  -31.5256 H   0  0  0  0  0  0  0  0  0  0  0  0
   -8.0560   20.0217  -33.2098 H   0  0  0  0  0  0  0  0  0  0  0  0
   -5.1704   23.0054  -31.1616 H   0  0  0  0  0  0  0  0  0  0  0  0
  1  2  2  0
  2  3  1  0
  3  4  1  0
  4  5  2  0
  5  6  1  0
  6  7  2  0
  7  8  1  0
  8  9  1  0
  9 10  2  0
  9 11  2  0
  9 12  1  0
 12 13  1  0
 13 14  1  0
 14 15  1  0
 15 16  1  0
 16 17  1  0
  8 18  2  0
  2 19  1  0
 19 20  2  0
 20 21  1  0
 21 22  2  0
 22 23  1  0
 23 24  1  0
 24 25  2  0
 24 26  2  0
 24 27  1  0
 27 28  1  0
 28 29  1  0
 29 30  1  0
 30 31  1  0
 31 32  1  0
 23 33  2  0
 18  4  1  0
 33 19  1  0
 17 12  1  0
 32 27  1  0
  5 34  1  0
  6 35  1  0
  7 36  1  0
 12 37  1  0
 13 38  1  0
 13 39  1  0
 14 40  1  0
 14 41  1  0
 16 42  1  0
 16 43  1  0
 17 44  1  0
 17 45  1  0
 18 46  1  0
 20 47  1  0
 21 48  1  0
 22 49  1  0
 28 50  1  0
 28 51  1  0
 29 52  1  0
 29 53  1  0
 31 54  1  0
 31 55  1  0
 32 56  1  0
 32 57  1  0
 33 58  1  0
M  CHG  2   3  -1  12   1
M  END
>  <UniqueID>  (2) 
2

>  <SMILES>  (2) 
O=C([N-]c1cccc(S(=O)(=O)[NH+]2CCOCC2)c1)c1cccc(S(=O)(=O)N2CCOCC2)c1

>  <Energy>  (2) 
86.16234844588011

>  <Genealogy>  (2) 
O=C([N-]c1cccc(S(=O)(=O)[NH+]2CCOCC2)c1)c1cccc(S(=O)(=O)N2CCOCC2)c1 (protonated)
O=C([N-]c1cccc(S(=O)(=O)[NH+]2CCOCC2)c1)c1cccc(S(=O)(=O)N2CCOCC2)c1 (3D coordinates assigned)
O=C([N-]c1cccc(S(=O)(=O)[NH+]2CCOCC2)c1)c1cccc(S(=O)(=O)N2CCOCC2)c1 (nonaromatic ring conformer: 86.16234844588011 kcal/mol)

>  <smiles>  (2) 
O=C(Nc1cccc(S(=O)(=O)N2CCOCC2)c1)c1cccc(S(=O)(=O)N2CCOCC2)c1

>  <score_type>  (2) 
oracle

>  <origin>  (2) 
adgpu

>  <m_score__min__energy>  (2) 
-11.550000000000001

>  <m_primary>  (2) 
energy

$$$$
2:0
     RDKit          3D

 37 39  0  0  0  0  0  0  0  0999 V2000
   -3.7260   25.2790  -30.4770 O   0  0  0  0  0  0  0  0  0  0  0  0
   -3.7280   24.0670  -30.1250 C   0  0  0  0  0  0  0  0  0  0  0  0
   -2.8480   23.6250  -29.0780 N   0  0  0  0  0  0  0  0  0  0  0  0
   -1.6650   24.3310  -28.6800 C   0  0  0  0  0  0  0  0  0  0  0  0
   -0.4090   23.7880  -28.5420 C   0  0  0  0  0  0  0  0  0  0  0  0
    0.4490   24.7740  -28.2140 N   0  0  0  0  0  0  0  0  0  0  0  0
   -0.2180   25.9180  -28.1540 N   0  0  0  0  0  0  0  0  0  0  0  0
   -1.5140   25.6800  -28.4380 C   0  0  0  0  0  0  0  0  0  0  0  0
   -4.6760   23.1260  -30.7690 C   0  0  0  0  0  0  0  0  0  0  0  0
   -5.9160   22.8270  -30.1750 C   0  0  0  0  0  0  0  0  0  0  0  0
   -6.7980   21.9320  -30.7870 C   0  0  0  0  0  0  0  0  0  0  0  0
   -6.4540   21.3150  -31.9950 C   0  0  0  0  0  0  0  0  0  0  0  0
   -7.5750   20.1870  -32.7530 S   0  0  0  0  0  0  0  0  0  0  0  0
   -8.9700   20.7250  -32.5950 O   0  0  0  0  0  0  0  0  0  0  0  0
   -7.2610   20.0600  -34.2190 O   0  0  0  0  0  0  0  0  0  0  0  0
   -7.4520   18.6220  -31.9790 N   0  0  0  0  0  0  0  0  0  0  0  0
   -6.1280   18.4500  -31.3720 C   0  0  0  0  0  0  0  0  0  0  0  0
   -5.2340   17.7300  -32.3740 C   0  0  0  0  0  0  0  0  0  0  0  0
   -6.1710   17.1610  -33.4220 C   0  0  0  0  0  0  0  0  0  0  0  0
   -7.5720   17.5470  -32.9710 C   0  0  0  0  0  0  0  0  0  0  0  0
   -5.2200   21.6030  -32.5910 C   0  0  0  0  0  0  0  0  0  0  0  0
   -4.3350   22.4970  -31.9810 C   0  0  0  0  0  0  0  0  0  0  0  0
   -3.1090   22.7770  -28.5280 H   0  0  0  0  0  0  0  0  0  0  0  0
   -0.1487   22.7278  -28.6766 H   0  0  0  0  0  0  0  0  0  0  0  0
   -2.3147   26.4335  -28.4711 H   0  0  0  0  0  0  0  0  0  0  0  0
   -6.1933   23.3011  -29.2219 H   0  0  0  0  0  0  0  0  0  0  0  0
   -7.7676   21.7115  -30.3167 H   0  0  0  0  0  0  0  0  0  0  0  0
   -5.6989   19.4335  -31.1298 H   0  0  0  0  0  0  0  0  0  0  0  0
   -6.2086   17.8633  -30.4450 H   0  0  0  0  0  0  0  0  0  0  0  0
   -4.5268   18.4359  -32.8340 H   0  0  0  0  0  0  0  0  0  0  0  0
   -4.6355   16.9425  -31.8928 H   0  0  0  0  0  0  0  0  0  0  0  0
   -5.9521   17.5948  -34.4089 H   0  0  0  0  0  0  0  0  0  0  0  0
   -6.0602   16.0708  -33.5182 H   0  0  0  0  0  0  0  0  0  0  0  0
   -8.1574   17.8990  -33.8332 H   0  0  0  0  0  0  0  0  0  0  0  0
   -8.0836   16.6782  -32.5312 H   0  0  0  0  0  0  0  0  0  0  0  0
   -4.9460   21.1241  -33.5426 H   0  0  0  0  0  0  0  0  0  0  0  0
   -3.3642   22.7105  -32.4522 H   0  0  0  0  0  0  0  0  0  0  0  0
  1  2  2  0
  2  3  1  0
  3  4  1  0
  4  5  1  0
  5  6  2  0
  6  7  1  0
  7  8  1  0
  2  9  1  0
  9 10  2  0
 10 11  1  0
 11 12  2  0
 12 13  1  0
 13 14  2  0
 13 15  2  0
 13 16  1  0
 16 17  1  0
 17 18  1  0
 18 19  1  0
 19 20  1  0
 12 21  1  0
 21 22  2  0
  8  4  2  0
 22  9  1  0
 20 16  1  0
  3 23  1  0
  5 24  1  0
  8 25  1  0
 10 26  1  0
 11 27  1  0
 17 28  1  0
 17 29  1  0
 18 30  1  0
 18 31  1  0
 19 32  1  0
 19 33  1  0
 20 34  1  0
 20 35  1  0
 21 36  1  0
 22 37  1  0
M  CHG  1   7  -1
M  END
>  <UniqueID>  (3) 
3

>  <SMILES>  (3) 
O=C(Nc1cn[n-]c1)c1ccc(S(=O)(=O)N2CCCC2)cc1

>  <Energy>  (3) 
73.59747609009345

>  <Genealogy>  (3) 
O=C(Nc1cn[n-]c1)c1ccc(S(=O)(=O)N2CCCC2)cc1 (protonated)
O=C(Nc1cn[n-]c1)c1ccc(S(=O)(=O)N2CCCC2)cc1 (3D coordinates assigned)
O=C(Nc1cn[n-]c1)c1ccc(S(=O)(=O)N2CCCC2)cc1 (nonaromatic ring conformer: 73.59747609009345 kcal/mol)

>  <smiles>  (3) 
O=C(Nc1cn[nH]c1)c1ccc(S(=O)(=O)N2CCCC2)cc1

>  <score_type>  (3) 
oracle

>  <origin>  (3) 
adgpu

>  <m_score__min__energy>  (3) 
-9.7200000000000006

>  <m_primary>  (3) 
energy

$$$$
3:0
     RDKit          3D

 39 41  0  0  0  0  0  0  0  0999 V2000
   -8.8720   23.6590  -32.2930 O   0  0  0  0  0  0  0  0  0  0  0  0
   -8.0260   22.9460  -31.6900 C   0  0  0  0  0  0  0  0  0  0  0  0
   -8.3480   21.5720  -31.4310 N   0  0  0  0  0  0  0  0  0  0  0  0
   -7.7890   20.4330  -32.1010 C   0  0  0  0  0  0  0  0  0  0  0  0
   -8.4760   19.2150  -32.0540 C   0  0  0  0  0  0  0  0  0  0  0  0
   -7.9610   18.0870  -32.6990 C   0  0  0  0  0  0  0  0  0  0  0  0
   -6.7520   18.1610  -33.4000 C   0  0  0  0  0  0  0  0  0  0  0  0
   -6.2670   17.0100  -34.0370 O   0  0  0  0  0  0  0  0  0  0  0  0
   -5.1430   16.2720  -33.6370 C   0  0  0  0  0  0  0  0  0  0  0  0
   -3.8930   16.6150  -34.1610 C   0  0  0  0  0  0  0  0  0  0  0  0
   -2.7500   15.8950  -33.8000 C   0  0  0  0  0  0  0  0  0  0  0  0
   -2.8470   14.7950  -32.9290 C   0  0  0  0  0  0  0  0  0  0  0  0
   -1.6090   14.0500  -32.4990 C   0  0  0  0  0  0  0  0  0  0  0  0
   -1.0650   13.3500  -33.5630 F   0  0  0  0  0  0  0  0  0  0  0  0
   -0.6750   14.9530  -32.0280 F   0  0  0  0  0  0  0  0  0  0  0  0
   -1.9080   13.1450  -31.4940 F   0  0  0  0  0  0  0  0  0  0  0  0
   -4.1040   14.4550  -32.3990 C   0  0  0  0  0  0  0  0  0  0  0  0
   -5.2460   15.1770  -32.7620 C   0  0  0  0  0  0  0  0  0  0  0  0
   -6.0830   19.3960  -33.4890 C   0  0  0  0  0  0  0  0  0  0  0  0
   -6.6000   20.5240  -32.8460 C   0  0  0  0  0  0  0  0  0  0  0  0
   -6.7590   23.5600  -31.2250 C   0  0  0  0  0  0  0  0  0  0  0  0
   -6.7710   24.6950  -30.3920 C   0  0  0  0  0  0  0  0  0  0  0  0
   -5.5710   25.2650  -29.9580 C   0  0  0  0  0  0  0  0  0  0  0  0
   -4.3480   24.7190  -30.3580 C   0  0  0  0  0  0  0  0  0  0  0  0
   -3.1590   25.2910  -29.9210 O   0  0  0  0  0  0  0  0  0  0  0  0
   -4.3260   23.6010  -31.2000 C   0  0  0  0  0  0  0  0  0  0  0  0
   -3.1120   23.0560  -31.6040 O   0  0  0  0  0  0  0  0  0  0  0  0
   -5.5250   23.0270  -31.6350 C   0  0  0  0  0  0  0  0  0  0  0  0
   -9.4272   19.1447  -31.5061 H   0  0  0  0  0  0  0  0  0  0  0  0
   -8.5097   17.1346  -32.6553 H   0  0  0  0  0  0  0  0  0  0  0  0
   -3.8081   17.4578  -34.8627 H   0  0  0  0  0  0  0  0  0  0  0  0
   -1.7688   16.1908  -34.1997 H   0  0  0  0  0  0  0  0  0  0  0  0
   -4.1902   13.6152  -31.6938 H   0  0  0  0  0  0  0  0  0  0  0  0
   -6.2283   14.8866  -32.3611 H   0  0  0  0  0  0  0  0  0  0  0  0
   -5.1501   19.4737  -34.0666 H   0  0  0  0  0  0  0  0  0  0  0  0
   -6.0744   21.4873  -32.9231 H   0  0  0  0  0  0  0  0  0  0  0  0
   -7.7299   25.1354  -30.0812 H   0  0  0  0  0  0  0  0  0  0  0  0
   -5.5890   26.1460  -29.2996 H   0  0  0  0  0  0  0  0  0  0  0  0
   -5.5019   22.1528  -32.3023 H   0  0  0  0  0  0  0  0  0  0  0  0
  1  2  2  0
  2  3  1  0
  3  4  1  0
  4  5  2  0
  5  6  1  0
  6  7  2  0
  7  8  1  0
  8  9  1  0
  9 10  2  0
 10 11  1  0
 11 12  2  0
 12 13  1  0
 13 14  1  0
 13 15  1  0
 13 16  1  0
 12 17  1  0
 17 18  2  0
  7 19  1  0
 19 20  2  0
  2 21  1  0
 21 22  2  0
 22 23  1  0
 23 24  2  0
 24 25  1  0
 24 26  1  0
 26 27  1  0
 26 28  2  0
 20  4  1  0
 28 21  1  0
 18  9  1  0
  5 29  1  0
  6 30  1  0
 10 31  1  0
 11 32  1  0
 17 33  1  0
 18 34  1  0
 19 35  1  0
 20 36  1  0
 22 37  1  0
 23 38  1  0
 28 39  1  0
M  CHG  3   3  -1  25  -1  27  -1
M  END
>  <UniqueID>  (4) 
4

>  <SMILES>  (4) 
O=C([N-]c1ccc(Oc2ccc(C(F)(F)F)cc2)cc1)c1ccc([O-])c([O-])c1

>  <Energy>  (4) 
56.08931069623668

>  <Genealogy>  (4) 
O=C([N-]c1ccc(Oc2ccc(C(F)(F)F)cc2)cc1)c1ccc([O-])c([O-])c1 (protonated)
O=C([N-]c1ccc(Oc2ccc(C(F)(F)F)cc2)cc1)c1ccc([O-])c([O-])c1 (3D coordinates assigned)
O=C([N-]c1ccc(Oc2ccc(C(F)(F)F)cc2)cc1)c1ccc([O-])c([O-])c1 (optimized conformer: 56.08931069623668 kcal/mol)

>  <smiles>  (4) 
O=C(Nc1ccc(Oc2ccc(C(F)(F)F)cc2)cc1)c1ccc(O)c(O)c1

>  <score_type>  (4) 
oracle

>  <origin>  (4) 
adgpu

>  <m_score__min__energy>  (4) 
-11.67

>  <m_primary>  (4) 
energy

$$$$
4:0
     RDKit          3D

 37 38  0  0  0  0  0  0  0  0999 V2000
   -5.2660   17.9100  -34.8100 C   0  0  0  0  0  0  0  0  0  0  0  0
   -6.0290   18.3370  -33.6300 N   0  0  0  0  0  0  0  0  0  0  0  0
   -6.8240   17.3410  -32.9030 C   0  0  0  0  0  0  0  0  0  0  0  0
   -5.9960   19.7210  -33.1910 C   0  0  0  0  0  0  0  0  0  0  0  0
   -4.7830   20.4390  -33.1510 C   0  0  0  0  0  0  0  0  0  0  0  0
   -4.7530   21.7720  -32.7280 C   0  0  0  0  0  0  0  0  0  0  0  0
   -5.9340   22.4210  -32.3450 C   0  0  0  0  0  0  0  0  0  0  0  0
   -5.8940   23.8440  -31.8560 C   0  0  0  0  0  0  0  0  0  0  0  0
   -6.2130   23.9080  -30.3600 C   0  0  0  0  0  0  0  0  0  0  0  0
   -4.9490   23.8130  -29.5430 C   0  0  0  0  0  0  0  0  0  0  0  0
   -4.8680   22.8860  -28.4910 C   0  0  0  0  0  0  0  0  0  0  0  0
   -3.7150   22.8070  -27.7050 C   0  0  0  0  0  0  0  0  0  0  0  0
   -2.6380   23.6600  -27.9560 C   0  0  0  0  0  0  0  0  0  0  0  0
   -2.7100   24.6010  -28.9910 C   0  0  0  0  0  0  0  0  0  0  0  0
   -1.6400   25.4600  -29.2380 O   0  0  0  0  0  0  0  0  0  0  0  0
   -3.8650   24.6830  -29.7810 C   0  0  0  0  0  0  0  0  0  0  0  0
   -3.9310   25.6300  -30.7980 O   0  0  0  0  0  0  0  0  0  0  0  0
   -7.1430   21.7130  -32.3680 C   0  0  0  0  0  0  0  0  0  0  0  0
   -7.1760   20.3820  -32.7900 C   0  0  0  0  0  0  0  0  0  0  0  0
   -4.3484   17.3965  -34.4872 H   0  0  0  0  0  0  0  0  0  0  0  0
   -5.8777   17.2231  -35.4133 H   0  0  0  0  0  0  0  0  0  0  0  0
   -5.0005   18.7906  -35.4133 H   0  0  0  0  0  0  0  0  0  0  0  0
   -6.7021   17.4937  -31.8205 H   0  0  0  0  0  0  0  0  0  0  0  0
   -7.8849   17.4516  -33.1717 H   0  0  0  0  0  0  0  0  0  0  0  0
   -6.4810   16.3310  -33.1717 H   0  0  0  0  0  0  0  0  0  0  0  0
   -3.8489   19.9448  -33.4562 H   0  0  0  0  0  0  0  0  0  0  0  0
   -3.7963   22.3139  -32.6959 H   0  0  0  0  0  0  0  0  0  0  0  0
   -4.8898   24.2580  -32.0297 H   0  0  0  0  0  0  0  0  0  0  0  0
   -6.6466   24.4292  -32.4048 H   0  0  0  0  0  0  0  0  0  0  0  0
   -6.7161   24.8607  -30.1381 H   0  0  0  0  0  0  0  0  0  0  0  0
   -6.8672   23.0626  -30.1005 H   0  0  0  0  0  0  0  0  0  0  0  0
   -5.7172   22.2181  -28.2844 H   0  0  0  0  0  0  0  0  0  0  0  0
   -3.6558   22.0726  -26.8882 H   0  0  0  0  0  0  0  0  0  0  0  0
   -1.7300   23.5926  -27.3387 H   0  0  0  0  0  0  0  0  0  0  0  0
   -1.6140   26.0510  -30.0610 H   0  0  0  0  0  0  0  0  0  0  0  0
   -8.0725   22.2089  -32.0515 H   0  0  0  0  0  0  0  0  0  0  0  0
   -8.1343   19.8423  -32.8099 H   0  0  0  0  0  0  0  0  0  0  0  0
  1  2  1  0
  2  3  1  0
  2  4  1  0
  4  5  2  0
  5  6  1  0
  6  7  2  0
  7  8  1  0
  8  9  1  0
  9 10  1  0
 10 11  2  0
 11 12  1  0
 12 13  2  0
 13 14  1  0
 14 15  1  0
 14 16  2  0
 16 17  1  0
  7 18  1  0
 18 19  2  0
 19  4  1  0
 16 10  1  0
  1 20  1  0
  1 21  1  0
  1 22  1  0
  3 23  1  0
  3 24  1  0
  3 25  1  0
  5 26  1  0
  6 27  1  0
  8 28  1  0
  8 29  1  0
  9 30  1  0
  9 31  1  0
 11 32  1  0
 12 33  1  0
 13 34  1  0
 15 35  1  0
 18 36  1  0
 19 37  1  0
M  CHG  1  17  -1
M  END
>  <UniqueID>  (5) 
5

>  <SMILES>  (5) 
CN(C)c1ccc(CCc2cccc(O)c2[O-])cc1

>  <Energy>  (5) 
35.736589243752704

>  <Genealogy>  (5) 
CN(C)c1ccc(CCc2cccc(O)c2[O-])cc1 (protonated)
CN(C)c1ccc(CCc2cccc(O)c2[O-])cc1 (3D coordinates assigned)
CN(C)c1ccc(CCc2cccc(O)c2[O-])cc1 (optimized conformer: 35.736589243752704 kcal/mol)

>  <smiles>  (5) 
CN(C)c1ccc(CCc2cccc(O)c2O)cc1

>  <score_type>  (5) 
oracle

>  <origin>  (5) 
adgpu

>  <m_score__min__energy>  (5) 
-11.26

>  <m_primary>  (5) 
energy

$$$$
5:0
     RDKit          3D

 42 43  0  0  0  0  0  0  0  0999 V2000
   -1.9110   19.0230  -33.6450 C   0  0  0  0  0  0  0  0  0  0  0  0
   -1.1130   19.3310  -32.3820 C   0  0  0  0  0  0  0  0  0  0  0  0
   -1.5840   20.6130  -31.7530 C   0  0  0  0  0  0  0  0  0  0  0  0
   -0.8820   21.1700  -30.6730 C   0  0  0  0  0  0  0  0  0  0  0  0
   -1.3380   22.3420  -30.0620 C   0  0  0  0  0  0  0  0  0  0  0  0
   -2.5050   22.9670  -30.5220 C   0  0  0  0  0  0  0  0  0  0  0  0
   -3.1180   24.4130  -29.7260 S   0  0  0  0  0  0  0  0  0  0  0  0
   -1.9620   25.2780  -29.3120 O   0  0  0  0  0  0  0  0  0  0  0  0
   -3.9050   24.0440  -28.4980 O   0  0  0  0  0  0  0  0  0  0  0  0
   -4.1230   25.2910  -30.8370 N   0  0  0  0  0  0  0  0  0  0  0  0
   -5.3660   25.7090  -30.1910 C   0  0  0  0  0  0  0  0  0  0  0  0
   -6.4670   24.6780  -30.4480 C   0  0  0  0  0  0  0  0  0  0  0  0
   -6.0660   23.7420  -31.4510 O   0  0  0  0  0  0  0  0  0  0  0  0
   -6.7310   22.5520  -31.7870 C   0  0  0  0  0  0  0  0  0  0  0  0
   -8.0470   22.3840  -31.3390 C   0  0  0  0  0  0  0  0  0  0  0  0
   -8.7600   21.2230  -31.6480 C   0  0  0  0  0  0  0  0  0  0  0  0
   -8.1600   20.2110  -32.3980 C   0  0  0  0  0  0  0  0  0  0  0  0
   -6.8400   20.3550  -32.8480 C   0  0  0  0  0  0  0  0  0  0  0  0
   -6.2060   19.2840  -33.6850 C   0  0  0  0  0  0  0  0  0  0  0  0
   -6.1370   21.5370  -32.5650 C   0  0  0  0  0  0  0  0  0  0  0  0
   -3.2150   22.4060  -31.5910 C   0  0  0  0  0  0  0  0  0  0  0  0
   -2.7600   21.2350  -32.2020 C   0  0  0  0  0  0  0  0  0  0  0  0
   -2.9039   18.6398  -33.3670 H   0  0  0  0  0  0  0  0  0  0  0  0
   -2.0257   19.9415  -34.2394 H   0  0  0  0  0  0  0  0  0  0  0  0
   -1.3789   18.2657  -34.2394 H   0  0  0  0  0  0  0  0  0  0  0  0
   -1.2424   18.5079  -31.6638 H   0  0  0  0  0  0  0  0  0  0  0  0
   -0.0523   19.4395  -32.6524 H   0  0  0  0  0  0  0  0  0  0  0  0
    0.0324   20.6816  -30.3050 H   0  0  0  0  0  0  0  0  0  0  0  0
   -0.7797   22.7744  -29.2186 H   0  0  0  0  0  0  0  0  0  0  0  0
   -5.1996   25.8006  -29.1075 H   0  0  0  0  0  0  0  0  0  0  0  0
   -5.6780   26.6787  -30.6060 H   0  0  0  0  0  0  0  0  0  0  0  0
   -6.6783   24.1365  -29.5141 H   0  0  0  0  0  0  0  0  0  0  0  0
   -7.3666   25.2049  -30.7989 H   0  0  0  0  0  0  0  0  0  0  0  0
   -8.5235   23.1730  -30.7386 H   0  0  0  0  0  0  0  0  0  0  0  0
   -9.7967   21.1065  -31.2992 H   0  0  0  0  0  0  0  0  0  0  0  0
   -8.7243   19.2975  -32.6369 H   0  0  0  0  0  0  0  0  0  0  0  0
   -5.7562   18.5241  -33.0290 H   0  0  0  0  0  0  0  0  0  0  0  0
   -6.9713   18.8137  -34.3199 H   0  0  0  0  0  0  0  0  0  0  0  0
   -5.4255   19.7287  -34.3199 H   0  0  0  0  0  0  0  0  0  0  0  0
   -5.1165   21.6721  -32.9526 H   0  0  0  0  0  0  0  0  0  0  0  0
   -4.1350   22.8896  -31.9511 H   0  0  0  0  0  0  0  0  0  0  0  0
   -3.3255   20.7984  -33.0384 H   0  0  0  0  0  0  0  0  0  0  0  0
  1  2  1  0
  2  3  1  0
  3  4  2  0
  4  5  1  0
  5  6  2  0
  6  7  1  0
  7  8  2  0
  7  9  2  0
  7 10  1  0
 10 11  1  0
 11 12  1  0
 12 13  1  0
 13 14  1  0
 14 15  2  0
 15 16  1  0
 16 17  2  0
 17 18  1  0
 18 19  1  0
 18 20  2  0
  6 21  1  0
 21 22  2  0
 22  3  1  0
 20 14  1  0
  1 23  1  0
  1 24  1  0
  1 25  1  0
  2 26  1  0
  2 27  1  0
  4 28  1  0
  5 29  1  0
 11 30  1  0
 11 31  1  0
 12 32  1  0
 12 33  1  0
 15 34  1  0
 16 35  1  0
 17 36  1  0
 19 37  1  0
 19 38  1  0
 19 39  1  0
 20 40  1  0
 21 41  1  0
 22 42  1  0
M  CHG  1  10  -1
M  END
>  <UniqueID>  (6) 
6

>  <SMILES>  (6) 
CCc1ccc(S(=O)(=O)[N-]CCOc2cccc(C)c2)cc1

>  <Energy>  (6) 
31.825274114966486

>  <Genealogy>  (6) 
CCc1ccc(S(=O)(=O)[N-]CCOc2cccc(C)c2)cc1 (protonated)
CCc1ccc(S(=O)(=O)[N-]CCOc2cccc(C)c2)cc1 (3D coordinates assigned)
CCc1ccc(S(=O)(=O)[N-]CCOc2cccc(C)c2)cc1 (optimized conformer: 31.825274114966486 kcal/mol)

>  <smiles>  (6) 
CCc1ccc(S(=O)(=O)NCCOc2cccc(C)c2)cc1

>  <score_type>  (6) 
oracle

>  <origin>  (6) 
adgpu

>  <m_score__min__energy>  (6) 
-9.9299999999999997

>  <m_primary>  (6) 
energy

$$$$
6:0
     RDKit          3D

 20 21  0  0  0  0  0  0  0  0999 V2000
   -3.2205   21.0196  -26.7901 H   0  0  0  0  0  0  0  0  0  0  0  0
   -2.5660   21.1930  -27.6570 C   0  0  0  0  0  0  0  0  0  0  0  0
   -1.5410   20.3470  -27.8390 C   0  0  0  0  0  0  0  0  0  0  0  0
   -1.3260   18.9120  -26.7820 S   0  0  0  0  0  0  0  0  0  0  0  0
    0.0560   18.4320  -27.8240 C   0  0  0  0  0  0  0  0  0  0  0  0
    0.6440   16.9090  -27.8130 S   0  0  0  0  0  0  0  0  0  0  0  0
    0.4150   19.3490  -28.8490 N   0  0  0  0  0  0  0  0  0  0  0  0
   -0.4680   20.4540  -28.8330 C   0  0  0  0  0  0  0  0  0  0  0  0
   -0.2880   21.4490  -29.5840 O   0  0  0  0  0  0  0  0  0  0  0  0
   -2.8820   22.3390  -28.5320 C   0  0  0  0  0  0  0  0  0  0  0  0
   -3.9150   22.2630  -29.4810 C   0  0  0  0  0  0  0  0  0  0  0  0
   -4.4746   21.3246  -29.6083 H   0  0  0  0  0  0  0  0  0  0  0  0
   -4.2340   23.3760  -30.2640 C   0  0  0  0  0  0  0  0  0  0  0  0
   -5.0324   23.3060  -31.0175 H   0  0  0  0  0  0  0  0  0  0  0  0
   -3.5410   24.5780  -30.0920 C   0  0  0  0  0  0  0  0  0  0  0  0
   -3.8610   25.6800  -30.8760 O   0  0  0  0  0  0  0  0  0  0  0  0
   -2.5300   24.6690  -29.1270 C   0  0  0  0  0  0  0  0  0  0  0  0
   -1.8450   25.8640  -28.9430 O   0  0  0  0  0  0  0  0  0  0  0  0
   -2.2100   23.5550  -28.3420 C   0  0  0  0  0  0  0  0  0  0  0  0
   -1.4278   23.6339  -27.5726 H   0  0  0  0  0  0  0  0  0  0  0  0
  1  2  1  0
  2  3  2  0
  3  4  1  0
  4  5  1  0
  5  6  2  0
  5  7  1  0
  7  8  1  0
  8  9  2  0
  2 10  1  0
 10 11  2  0
 11 12  1  0
 11 13  1  0
 13 14  1  0
 13 15  2  0
 15 16  1  0
 15 17  1  0
 17 18  1  0
 17 19  2  0
 19 20  1  0
  8  3  1  0
 19 10  1  0
M  CHG  3   7  -1  16  -1  18  -1
M  END
>  <UniqueID>  (7) 
7

>  <SMILES>  (7) 
O=C1[N-]C(=S)S/C1=C/c1ccc([O-])c([O-])c1

>  <Energy>  (7) 
47.1547930063605

>  <Genealogy>  (7) 
O=C1[N-]C(=S)SC1=Cc1ccc([O-])c([O-])c1 (protonated)
O=C1[N-]C(=S)S/C1=C/c1ccc([O-])c([O-])c1 (cis-trans isomerization)
O=C1[N-]C(=S)S/C1=C/c1ccc([O-])c([O-])c1 (3D coordinates assigned)
O=C1[N-]C(=S)S/C1=C/c1ccc([O-])c([O-])c1 (nonaromatic ring conformer: 47.1547930063605 kcal/mol)

>  <smiles>  (7) 
O=C1NC(=S)SC1=Cc1ccc(O)c(O)c1

>  <score_type>  (7) 
oracle

>  <origin>  (7) 
adgpu

>  <m_score__min__energy>  (7) 
-12.390000000000001

>  <m_primary>  (7) 
energy

$$$$
7:0
     RDKit          3D

 44 47  0  0  0  0  0  0  0  0999 V2000
    0.1090   23.3250  -35.9790 N   0  0  0  0  0  0  0  0  0  0  0  0
    0.6370   22.0850  -35.5000 C   0  0  0  0  0  0  0  0  0  0  0  0
    1.9660   22.0070  -35.0660 C   0  0  0  0  0  0  0  0  0  0  0  0
    2.4870   20.7930  -34.6110 C   0  0  0  0  0  0  0  0  0  0  0  0
    1.6790   19.6540  -34.5760 C   0  0  0  0  0  0  0  0  0  0  0  0
    0.3320   19.7250  -34.9710 C   0  0  0  0  0  0  0  0  0  0  0  0
   -0.5270   18.4830  -34.9800 C   0  0  0  0  0  0  0  0  0  0  0  0
   -1.3670   18.2760  -33.7700 N   0  0  0  0  0  0  0  0  0  0  0  0
   -2.5550   17.4070  -33.9690 C   0  0  0  0  0  0  0  0  0  0  0  0
   -3.8350   18.1600  -34.3540 C   0  0  0  0  0  0  0  0  0  0  0  0
   -4.0360   19.3190  -33.4850 N   0  0  0  0  0  0  0  0  0  0  0  0
   -5.3630   19.7440  -33.1070 C   0  0  0  0  0  0  0  0  0  0  0  0
   -5.6480   21.0080  -32.6990 N   0  0  0  0  0  0  0  0  0  0  0  0
   -6.9650   21.1450  -32.4040 C   0  0  0  0  0  0  0  0  0  0  0  0
   -7.5550   22.3290  -31.9590 C   0  0  0  0  0  0  0  0  0  0  0  0
   -8.9340   22.3370  -31.6880 C   0  0  0  0  0  0  0  0  0  0  0  0
   -9.7030   21.1690  -31.8640 C   0  0  0  0  0  0  0  0  0  0  0  0
   -9.0990   19.9820  -32.3130 C   0  0  0  0  0  0  0  0  0  0  0  0
   -7.7310   20.0020  -32.5730 C   0  0  0  0  0  0  0  0  0  0  0  0
   -6.7470   18.7560  -33.1130 S   0  0  0  0  0  0  0  0  0  0  0  0
   -2.9120   20.2470  -33.3640 C   0  0  0  0  0  0  0  0  0  0  0  0
   -1.6310   19.5010  -32.9710 C   0  0  0  0  0  0  0  0  0  0  0  0
   -0.1720   20.9400  -35.4660 C   0  0  0  0  0  0  0  0  0  0  0  0
    0.7410   24.1290  -36.1920 H   0  0  0  0  0  0  0  0  0  0  0  0
   -0.9180   23.4470  -36.1280 H   0  0  0  0  0  0  0  0  0  0  0  0
    2.6019   22.9044  -35.0833 H   0  0  0  0  0  0  0  0  0  0  0  0
    3.5344   20.7341  -34.2800 H   0  0  0  0  0  0  0  0  0  0  0  0
    2.0995   18.6957  -34.2372 H   0  0  0  0  0  0  0  0  0  0  0  0
   -1.1961   18.5401  -35.8512 H   0  0  0  0  0  0  0  0  0  0  0  0
    0.1711   17.6335  -35.0117 H   0  0  0  0  0  0  0  0  0  0  0  0
   -0.7390   17.7050  -33.1530 H   0  0  0  0  0  0  0  0  0  0  0  0
   -2.3250   16.6882  -34.7693 H   0  0  0  0  0  0  0  0  0  0  0  0
   -2.7550   16.9231  -33.0016 H   0  0  0  0  0  0  0  0  0  0  0  0
   -3.7534   18.5007  -35.3967 H   0  0  0  0  0  0  0  0  0  0  0  0
   -4.6923   17.4803  -34.2397 H   0  0  0  0  0  0  0  0  0  0  0  0
   -6.9520   23.2388  -31.8229 H   0  0  0  0  0  0  0  0  0  0  0  0
   -9.4163   23.2609  -31.3362 H   0  0  0  0  0  0  0  0  0  0  0  0
  -10.7816   21.1865  -31.6488 H   0  0  0  0  0  0  0  0  0  0  0  0
   -9.6892   19.0646  -32.4548 H   0  0  0  0  0  0  0  0  0  0  0  0
   -2.7545   20.7507  -34.3291 H   0  0  0  0  0  0  0  0  0  0  0  0
   -3.1454   20.9840  -32.5815 H   0  0  0  0  0  0  0  0  0  0  0  0
   -0.7801   20.1862  -33.0996 H   0  0  0  0  0  0  0  0  0  0  0  0
   -1.7636   19.1748  -31.9289 H   0  0  0  0  0  0  0  0  0  0  0  0
   -1.2088   20.9932  -35.8295 H   0  0  0  0  0  0  0  0  0  0  0  0
  1  2  1  0
  2  3  2  0
  3  4  1  0
  4  5  2  0
  5  6  1  0
  6  7  1  0
  7  8  1  0
  8  9  1  0
  9 10  1  0
 10 11  1  0
 11 12  1  0
 12 13  2  0
 13 14  1  0
 14 15  2  0
 15 16  1  0
 16 17  2  0
 17 18  1  0
 18 19  2  0
 19 20  1  0
 11 21  1  0
 21 22  1  0
  6 23  2  0
 23  2  1  0
 22  8  1  0
 20 12  1  0
 19 14  1  0
  1 24  1  0
  1 25  1  0
  3 26  1  0
  4 27  1  0
  5 28  1  0
  7 29  1  0
  7 30  1  0
  8 31  1  0
  9 32  1  0
  9 33  1  0
 10 34  1  0
 10 35  1  0
 15 36  1  0
 16 37  1  0
 17 38  1  0
 18 39  1  0
 21 40  1  0
 21 41  1  0
 22 42  1  0
 22 43  1  0
 23 44  1  0
M  CHG  1   8   1
M  END
>  <UniqueID>  (8) 
8

>  <SMILES>  (8) 
Nc1cccc(C[NH+]2CCN(c3nc4ccccc4s3)CC2)c1

>  <Energy>  (8) 
92.65334502911668

>  <Genealogy>  (8) 
Nc1cccc(C[NH+]2CCN(c3nc4ccccc4s3)CC2)c1 (protonated)
Nc1cccc(C[NH+]2CCN(c3nc4ccccc4s3)CC2)c1 (3D coordinates assigned)
Nc1cccc(C[NH+]2CCN(c3nc4ccccc4s3)CC2)c1 (nonaromatic ring conformer: 92.65334502911668 kcal/mol)

>  <smiles>  (8) 
Nc1cccc(CN2CCN(c3nc4ccccc4s3)CC2)c1

>  <score_type>  (8) 
oracle

>  <origin>  (8) 
adgpu

>  <m_score__min__energy>  (8) 
-7.7999999999999998

>  <m_primary>  (8) 
energy

$$$$
8:0
     RDKit          3D

 42 44  0  0  0  0  0  0  0  0999 V2000
   -7.2680   15.5570  -34.1120 N   0  0  0  0  0  0  0  0  0  0  0  0
   -6.4690   16.3910  -34.0300 C   0  0  0  0  0  0  0  0  0  0  0  0
   -5.4680   17.4250  -33.9340 C   0  0  0  0  0  0  0  0  0  0  0  0
   -4.2660   17.2380  -34.6340 C   0  0  0  0  0  0  0  0  0  0  0  0
   -3.2510   18.1960  -34.5660 C   0  0  0  0  0  0  0  0  0  0  0  0
   -3.4300   19.3510  -33.8050 C   0  0  0  0  0  0  0  0  0  0  0  0
   -2.4380   20.2730  -33.7300 F   0  0  0  0  0  0  0  0  0  0  0  0
   -4.6240   19.5520  -33.1130 C   0  0  0  0  0  0  0  0  0  0  0  0
   -5.6570   18.6000  -33.1660 C   0  0  0  0  0  0  0  0  0  0  0  0
   -7.1380   18.9510  -32.2560 S   0  0  0  0  0  0  0  0  0  0  0  0
   -7.2010   18.2100  -30.9480 O   0  0  0  0  0  0  0  0  0  0  0  0
   -8.3260   18.5400  -33.0820 O   0  0  0  0  0  0  0  0  0  0  0  0
   -7.2050   20.6790  -31.9230 C   0  0  0  0  0  0  0  0  0  0  0  0
   -8.3650   21.4130  -32.2110 C   0  0  0  0  0  0  0  0  0  0  0  0
   -8.4010   22.7900  -31.9760 C   0  0  0  0  0  0  0  0  0  0  0  0
   -7.2800   23.4420  -31.4530 C   0  0  0  0  0  0  0  0  0  0  0  0
   -6.1170   22.7150  -31.1570 C   0  0  0  0  0  0  0  0  0  0  0  0
   -4.6860   23.5410  -30.5440 S   0  0  0  0  0  0  0  0  0  0  0  0
   -3.4580   23.0060  -31.2280 O   0  0  0  0  0  0  0  0  0  0  0  0
   -4.7890   25.0140  -30.8300 O   0  0  0  0  0  0  0  0  0  0  0  0
   -4.5410   23.2780  -28.7840 C   0  0  0  0  0  0  0  0  0  0  0  0
   -3.4340   24.1210  -28.2150 C   0  0  0  0  0  0  0  0  0  0  0  0
   -3.4780   24.5360  -26.8740 C   0  0  0  0  0  0  0  0  0  0  0  0
   -2.4220   25.2750  -26.3330 C   0  0  0  0  0  0  0  0  0  0  0  0
   -1.3200   25.6040  -27.1250 C   0  0  0  0  0  0  0  0  0  0  0  0
   -1.2650   25.1890  -28.4570 C   0  0  0  0  0  0  0  0  0  0  0  0
   -2.3160   24.4480  -29.0010 C   0  0  0  0  0  0  0  0  0  0  0  0
   -6.0810   21.3350  -31.4010 C   0  0  0  0  0  0  0  0  0  0  0  0
   -4.1220   16.3314  -35.2401 H   0  0  0  0  0  0  0  0  0  0  0  0
   -2.3098   18.0390  -35.1133 H   0  0  0  0  0  0  0  0  0  0  0  0
   -4.7592   20.4673  -32.5180 H   0  0  0  0  0  0  0  0  0  0  0  0
   -9.2486   20.9034  -32.6229 H   0  0  0  0  0  0  0  0  0  0  0  0
   -9.3128   23.3620  -32.2028 H   0  0  0  0  0  0  0  0  0  0  0  0
   -7.3100   24.5268  -31.2733 H   0  0  0  0  0  0  0  0  0  0  0  0
   -5.4896   23.5501  -28.2980 H   0  0  0  0  0  0  0  0  0  0  0  0
   -4.3112   22.2180  -28.6005 H   0  0  0  0  0  0  0  0  0  0  0  0
   -4.3453   24.2790  -26.2481 H   0  0  0  0  0  0  0  0  0  0  0  0
   -2.4591   25.5978  -25.2821 H   0  0  0  0  0  0  0  0  0  0  0  0
   -0.4935   26.1914  -26.6986 H   0  0  0  0  0  0  0  0  0  0  0  0
   -0.3939   25.4458  -29.0777 H   0  0  0  0  0  0  0  0  0  0  0  0
   -2.2686   24.1187  -30.0495 H   0  0  0  0  0  0  0  0  0  0  0  0
   -5.1667   20.7641  -31.1819 H   0  0  0  0  0  0  0  0  0  0  0  0
  1  2  3  0
  2  3  1  0
  3  4  2  0
  4  5  1  0
  5  6  2  0
  6  7  1  0
  6  8  1  0
  8  9  2  0
  9 10  1  0
 10 11  2  0
 10 12  2  0
 10 13  1  0
 13 14  2  0
 14 15  1  0
 15 16  2  0
 16 17  1  0
 17 18  1  0
 18 19  2  0
 18 20  2  0
 18 21  1  0
 21 22  1  0
 22 23  2  0
 23 24  1  0
 24 25  2  0
 25 26  1  0
 26 27  2  0
 17 28  2  0
  9  3  1  0
 28 13  1  0
 27 22  1  0
  4 29  1  0
  5 30  1  0
  8 31  1  0
 14 32  1  0
 15 33  1  0
 16 34  1  0
 21 35  1  0
 21 36  1  0
 23 37  1  0
 24 38  1  0
 25 39  1  0
 26 40  1  0
 27 41  1  0
 28 42  1  0
M  END
>  <UniqueID>  (9) 
9

>  <SMILES>  (9) 
N#Cc1ccc(F)cc1S(=O)(=O)c1cccc(S(=O)(=O)Cc2ccccc2)c1

>  <Energy>  (9) 
40.503309703795956

>  <Genealogy>  (9) 
N#Cc1ccc(F)cc1S(=O)(=O)c1cccc(S(=O)(=O)Cc2ccccc2)c1 (3D coordinates assigned)
N#Cc1ccc(F)cc1S(=O)(=O)c1cccc(S(=O)(=O)Cc2ccccc2)c1 (optimized conformer: 40.503309703795956 kcal/mol)

>  <smiles>  (9) 
N#Cc1ccc(F)cc1S(=O)(=O)c1cccc(S(=O)(=O)Cc2ccccc2)c1

>  <score_type>  (9) 
oracle

>  <origin>  (9) 
adgpu

>  <m_score__min__energy>  (9) 
-10.390000000000001

>  <m_primary>  (9) 
energy

$$$$
9:0
     RDKit          3D

 56 58  0  0  1  0  0  0  0  0999 V2000
    2.0310   22.8980  -35.5060 C   0  0  0  0  0  0  0  0  0  0  0  0
    0.6840   22.6900  -35.1980 O   0  0  0  0  0  0  0  0  0  0  0  0
    0.3670   21.3210  -35.3460 C   0  0  0  0  0  0  0  0  0  0  0  0
    0.7470   20.6290  -34.0630 C   0  0  0  0  0  0  0  0  0  0  0  0
   -0.3200   20.1850  -33.3770 O   0  0  0  0  0  0  0  0  0  0  0  0
   -1.3890   20.7440  -32.7370 C   0  0  0  0  0  0  0  0  0  0  0  0
   -2.6110   20.8630  -33.3620 C   0  0  0  0  0  0  0  0  0  0  0  0
   -3.6300   21.4290  -32.6530 C   0  0  0  0  0  0  0  0  0  0  0  0
   -4.8340   21.5480  -33.2610 N   0  0  0  0  0  0  0  0  0  0  0  0
   -5.8690   22.0970  -32.6070 C   0  0  0  0  0  0  0  0  0  0  0  0
   -5.7010   22.5230  -31.3510 N   0  0  0  0  0  0  0  0  0  0  0  0
   -4.5120   22.4120  -30.7360 C   0  0  0  0  0  0  0  0  0  0  0  0
   -4.4050   22.8230  -29.5640 N   0  0  0  0  0  0  0  0  0  0  0  0
   -3.4050   22.8840  -28.6360 C   0  0  0  0  0  0  0  0  0  0  0  0
   -3.1020   21.7770  -27.8050 C   0  0  0  0  0  0  0  0  0  0  0  0
   -2.0270   21.8240  -26.9680 C   0  0  0  0  0  0  0  0  0  0  0  0
   -1.2350   22.9510  -26.9320 C   0  0  0  0  0  0  0  0  0  0  0  0
   -1.4950   24.0570  -27.7280 C   0  0  0  0  0  0  0  0  0  0  0  0
   -0.4630   25.4560  -27.6430 S   0  0  0  0  0  0  0  0  0  0  0  0
    0.9800   25.1240  -27.8310 O   0  0  0  0  0  0  0  0  0  0  0  0
   -0.8350   26.4550  -28.7010 O   0  0  0  0  0  0  0  0  0  0  0  0
   -0.6260   26.3010  -26.0850 C   0  0  0  0  0  0  0  0  0  0  0  0
   -2.0380   26.0780  -25.5870 C   0  0  0  0  0  0  0  0  0  0  0  0
    0.2870   25.5790  -25.1020 C   0  0  0  0  0  0  0  0  0  0  0  0
   -2.5660   24.0270  -28.5690 C   0  0  0  0  0  0  0  0  0  0  0  0
   -2.8290   25.1320  -29.3680 O   0  0  0  0  0  0  0  0  0  0  0  0
   -3.4180   21.8590  -31.3540 C   0  0  0  0  0  0  0  0  0  0  0  0
   -2.2120   21.7420  -30.7390 C   0  0  0  0  0  0  0  0  0  0  0  0
   -1.1500   21.1650  -31.4480 C   0  0  0  0  0  0  0  0  0  0  0  0
    0.1100   21.0110  -30.8880 O   0  0  0  0  0  0  0  0  0  0  0  0
    0.2940   20.0450  -29.8760 C   0  0  0  0  0  0  0  0  0  0  0  0
    2.6104   22.9875  -34.5752 H   0  0  0  0  0  0  0  0  0  0  0  0
    2.4086   22.0475  -36.0926 H   0  0  0  0  0  0  0  0  0  0  0  0
    2.1344   23.8228  -36.0926 H   0  0  0  0  0  0  0  0  0  0  0  0
   -0.7107   21.2027  -35.5320 H   0  0  0  0  0  0  0  0  0  0  0  0
    0.9111   20.8863  -36.1975 H   0  0  0  0  0  0  0  0  0  0  0  0
    1.3923   19.7713  -34.3036 H   0  0  0  0  0  0  0  0  0  0  0  0
    1.2661   21.3641  -33.4304 H   0  0  0  0  0  0  0  0  0  0  0  0
   -2.7596   20.5145  -34.3947 H   0  0  0  0  0  0  0  0  0  0  0  0
   -4.9890   21.2280  -34.2210 H   0  0  0  0  0  0  0  0  0  0  0  0
   -6.8473   22.1957  -33.1001 H   0  0  0  0  0  0  0  0  0  0  0  0
   -3.7353   20.8781  -27.8353 H   0  0  0  0  0  0  0  0  0  0  0  0
   -1.7924   20.9644  -26.3230 H   0  0  0  0  0  0  0  0  0  0  0  0
   -0.3708   22.9744  -26.2518 H   0  0  0  0  0  0  0  0  0  0  0  0
   -0.3898   27.3710  -26.1815 H   0  0  0  0  0  0  0  0  0  0  0  0
   -2.0430   26.0772  -24.4870 H   0  0  0  0  0  0  0  0  0  0  0  0
   -2.6886   26.8845  -25.9561 H   0  0  0  0  0  0  0  0  0  0  0  0
   -2.4084   25.1102  -25.9561 H   0  0  0  0  0  0  0  0  0  0  0  0
   -0.0181   25.8203  -24.0731 H   0  0  0  0  0  0  0  0  0  0  0  0
    0.2121   24.4932  -25.2616 H   0  0  0  0  0  0  0  0  0  0  0  0
    1.3263   25.9022  -25.2616 H   0  0  0  0  0  0  0  0  0  0  0  0
   -2.0460   25.6820  -29.7500 H   0  0  0  0  0  0  0  0  0  0  0  0
   -2.0723   22.0930  -29.7059 H   0  0  0  0  0  0  0  0  0  0  0  0
    0.2026   20.5246  -28.8903 H   0  0  0  0  0  0  0  0  0  0  0  0
   -0.4709   19.2606  -29.9744 H   0  0  0  0  0  0  0  0  0  0  0  0
    1.2937   19.5967  -29.9744 H   0  0  0  0  0  0  0  0  0  0  0  0
  1  2  1  0
  2  3  1  0
  3  4  1  0
  4  5  1  0
  5  6  1  0
  6  7  2  0
  7  8  1  0
  8  9  1  0
  9 10  1  0
 10 11  2  0
 11 12  1  0
 12 13  2  0
 13 14  1  0
 14 15  2  0
 15 16  1  0
 16 17  2  0
 17 18  1  0
 18 19  1  0
 19 20  2  0
 19 21  2  0
 19 22  1  0
 22 23  1  0
 22 24  1  0
 18 25  2  0
 25 26  1  0
 12 27  1  0
 27 28  1  0
 28 29  2  0
 29 30  1  0
 30 31  1  0
 29  6  1  0
 27  8  2  0
 25 14  1  0
  1 32  1  0
  1 33  1  0
  1 34  1  0
  3 35  1  0
  3 36  1  0
  4 37  1  0
  4 38  1  0
  7 39  1  0
  9 40  1  0
 10 41  1  0
 15 42  1  0
 16 43  1  0
 17 44  1  0
 22 45  1  0
 23 46  1  0
 23 47  1  0
 23 48  1  0
 24 49  1  0
 24 50  1  0
 24 51  1  0
 26 52  1  0
 28 53  1  0
 31 54  1  0
 31 55  1  0
 31 56  1  0
M  END
>  <smiles>  (10) 
COCCOc1cc2[nH]cnc(=Nc3cccc(S(=O)(=O)C(C)C)c3O)c2cc1OC

>  <score_type>  (10) 
oracle

>  <origin>  (10) 
adgpu

>  <m_score__min__energy>  (10) 
-8.7799999999999994

>  <m_primary>  (10) 
energy

$$$$
10:0
     RDKit          3D

 39 40  0  0  0  0  0  0  0  0999 V2000
    1.1870   23.1570  -26.9220 O   0  0  0  0  0  0  0  0  0  0  0  0
    0.9900   24.5600  -27.4280 S   0  0  0  0  0  0  0  0  0  0  0  0
    2.3240   25.1080  -27.8510 O   0  0  0  0  0  0  0  0  0  0  0  0
   -0.0860   24.5560  -28.7940 N   0  0  0  0  0  0  0  0  0  0  0  0
   -1.1460   25.5540  -28.6370 C   0  0  0  0  0  0  0  0  0  0  0  0
   -2.4640   24.8700  -28.2640 C   0  0  0  0  0  0  0  0  0  0  0  0
   -2.9950   24.0280  -29.4230 C   0  0  0  0  0  0  0  0  0  0  0  0
   -3.5050   24.9100  -30.4690 N   0  0  0  0  0  0  0  0  0  0  0  0
   -5.2430   24.9050  -30.4500 S   0  0  0  0  0  0  0  0  0  0  0  0
   -5.7190   24.9460  -29.0250 O   0  0  0  0  0  0  0  0  0  0  0  0
   -5.7630   26.1250  -31.1590 O   0  0  0  0  0  0  0  0  0  0  0  0
   -5.8590   23.4460  -31.2220 C   0  0  0  0  0  0  0  0  0  0  0  0
   -4.9880   22.6150  -31.9410 C   0  0  0  0  0  0  0  0  0  0  0  0
   -5.4740   21.4660  -32.5720 C   0  0  0  0  0  0  0  0  0  0  0  0
   -6.8320   21.1450  -32.4920 C   0  0  0  0  0  0  0  0  0  0  0  0
   -7.7070   21.9730  -31.7820 C   0  0  0  0  0  0  0  0  0  0  0  0
   -9.4130   21.5730  -31.6890 Cl  0  0  0  0  0  0  0  0  0  0  0  0
   -7.2220   23.1230  -31.1480 C   0  0  0  0  0  0  0  0  0  0  0  0
    0.3330   25.5820  -26.1510 C   0  0  0  0  0  0  0  0  0  0  0  0
    0.4710   26.9780  -26.2060 C   0  0  0  0  0  0  0  0  0  0  0  0
   -0.0440   27.7750  -25.1790 C   0  0  0  0  0  0  0  0  0  0  0  0
   -0.6950   27.1830  -24.0920 C   0  0  0  0  0  0  0  0  0  0  0  0
   -0.8300   25.7930  -24.0300 C   0  0  0  0  0  0  0  0  0  0  0  0
   -0.3160   24.9930  -25.0560 C   0  0  0  0  0  0  0  0  0  0  0  0
   -0.8653   26.2604  -27.8419 H   0  0  0  0  0  0  0  0  0  0  0  0
   -1.2768   26.0918  -29.5876 H   0  0  0  0  0  0  0  0  0  0  0  0
   -2.2966   24.2182  -27.3938 H   0  0  0  0  0  0  0  0  0  0  0  0
   -3.2061   25.6471  -28.0285 H   0  0  0  0  0  0  0  0  0  0  0  0
   -2.1819   23.4086  -29.8294 H   0  0  0  0  0  0  0  0  0  0  0  0
   -3.8057   23.3772  -29.0634 H   0  0  0  0  0  0  0  0  0  0  0  0
   -3.9196   22.8678  -32.0087 H   0  0  0  0  0  0  0  0  0  0  0  0
   -4.7872   20.8142  -33.1318 H   0  0  0  0  0  0  0  0  0  0  0  0
   -7.2128   20.2401  -32.9881 H   0  0  0  0  0  0  0  0  0  0  0  0
   -7.9111   23.7746  -30.5907 H   0  0  0  0  0  0  0  0  0  0  0  0
    0.9852   27.4457  -27.0586 H   0  0  0  0  0  0  0  0  0  0  0  0
    0.0630   28.8688  -25.2261 H   0  0  0  0  0  0  0  0  0  0  0  0
   -1.1010   27.8113  -23.2855 H   0  0  0  0  0  0  0  0  0  0  0  0
   -1.3407   25.3280  -23.1739 H   0  0  0  0  0  0  0  0  0  0  0  0
   -0.4211   23.8993  -25.0039 H   0  0  0  0  0  0  0  0  0  0  0  0
  1  2  2  0
  2  3  2  0
  2  4  1  0
  4  5  1  0
  5  6  1  0
  6  7  1  0
  7  8  1  0
  8  9  1  0
  9 10  2  0
  9 11  2  0
  9 12  1  0
 12 13  2  0
 13 14  1  0
 14 15  2  0
 15 16  1  0
 16 17  1  0
 16 18  2  0
  2 19  1  0
 19 20  2  0
 20 21  1  0
 21 22  2  0
 22 23  1  0
 23 24  2  0
 18 12  1  0
 24 19  1  0
  5 25  1  0
  5 26  1  0
  6 27  1  0
  6 28  1  0
  7 29  1  0
  7 30  1  0
 13 31  1  0
 14 32  1  0
 15 33  1  0
 18 34  1  0
 20 35  1  0
 21 36  1  0
 22 37  1  0
 23 38  1  0
 24 39  1  0
M  CHG  2   4  -1   8  -1
M  END
>  <UniqueID>  (11) 
10

>  <SMILES>  (11) 
O=S(=O)([N-]CCC[N-]S(=O)(=O)c1cccc(Cl)c1)c1ccccc1

>  <Energy>  (11) 
32.87675937425731

>  <Genealogy>  (11) 
O=S(=O)([N-]CCC[N-]S(=O)(=O)c1cccc(Cl)c1)c1ccccc1 (protonated)
O=S(=O)([N-]CCC[N-]S(=O)(=O)c1cccc(Cl)c1)c1ccccc1 (3D coordinates assigned)
O=S(=O)([N-]CCC[N-]S(=O)(=O)c1cccc(Cl)c1)c1ccccc1 (optimized conformer: 32.87675937425731 kcal/mol)

>  <smiles>  (11) 
O=S(=O)(NCCCNS(=O)(=O)c1cccc(Cl)c1)c1ccccc1

>  <score_type>  (11) 
oracle

>  <origin>  (11) 
adgpu

>  <m_score__min__energy>  (11) 
-10.51

>  <m_primary>  (11) 
energy

$$$$
11:0
     RDKit          3D

 45 47  0  0  0  0  0  0  0  0999 V2000
   -3.1360   19.0290  -26.3470 C   0  0  0  0  0  0  0  0  0  0  0  0
   -2.0050   19.7600  -27.0640 C   0  0  0  0  0  0  0  0  0  0  0  0
   -2.3850   21.1010  -27.3720 O   0  0  0  0  0  0  0  0  0  0  0  0
   -1.5690   22.2390  -27.2410 C   0  0  0  0  0  0  0  0  0  0  0  0
   -0.7630   22.4570  -26.1050 C   0  0  0  0  0  0  0  0  0  0  0  0
    0.0550   23.5860  -26.0230 C   0  0  0  0  0  0  0  0  0  0  0  0
    0.0780   24.5120  -27.0650 C   0  0  0  0  0  0  0  0  0  0  0  0
   -0.7210   24.3150  -28.1920 C   0  0  0  0  0  0  0  0  0  0  0  0
   -1.5520   23.1860  -28.2890 C   0  0  0  0  0  0  0  0  0  0  0  0
   -2.3800   23.0080  -29.4530 N   0  0  0  0  0  0  0  0  0  0  0  0
   -2.6050   21.8500  -30.1060 C   0  0  0  0  0  0  0  0  0  0  0  0
   -3.4690   22.0740  -31.1670 C   0  0  0  0  0  0  0  0  0  0  0  0
   -3.9550   21.0790  -32.1410 C   0  0  0  0  0  0  0  0  0  0  0  0
   -3.4440   21.0480  -33.2950 O   0  0  0  0  0  0  0  0  0  0  0  0
   -5.0150   20.1720  -31.7990 N   0  0  0  0  0  0  0  0  0  0  0  0
   -5.3480   19.0240  -32.5960 C   0  0  0  0  0  0  0  0  0  0  0  0
   -4.3420   18.4110  -33.3570 C   0  0  0  0  0  0  0  0  0  0  0  0
   -4.6320   17.2950  -34.1460 C   0  0  0  0  0  0  0  0  0  0  0  0
   -5.9310   16.7910  -34.1910 C   0  0  0  0  0  0  0  0  0  0  0  0
   -6.9490   17.4080  -33.4610 C   0  0  0  0  0  0  0  0  0  0  0  0
   -6.6720   18.5400  -32.6670 C   0  0  0  0  0  0  0  0  0  0  0  0
   -7.6840   19.2140  -31.9640 O   0  0  0  0  0  0  0  0  0  0  0  0
   -8.9050   18.6190  -31.5340 C   0  0  0  0  0  0  0  0  0  0  0  0
   -3.7820   23.4230  -31.1610 C   0  0  0  0  0  0  0  0  0  0  0  0
   -3.0960   23.9560  -30.0920 C   0  0  0  0  0  0  0  0  0  0  0  0
   -3.1150   25.2990  -29.7310 O   0  0  0  0  0  0  0  0  0  0  0  0
   -2.9985   19.1179  -25.2593 H   0  0  0  0  0  0  0  0  0  0  0  0
   -4.1000   19.4753  -26.6324 H   0  0  0  0  0  0  0  0  0  0  0  0
   -3.1250   17.9667  -26.6324 H   0  0  0  0  0  0  0  0  0  0  0  0
   -1.1172   19.7766  -26.4147 H   0  0  0  0  0  0  0  0  0  0  0  0
   -1.7821   19.2316  -28.0027 H   0  0  0  0  0  0  0  0  0  0  0  0
   -0.7785   21.7327  -25.2773 H   0  0  0  0  0  0  0  0  0  0  0  0
    0.6828   23.7451  -25.1339 H   0  0  0  0  0  0  0  0  0  0  0  0
    0.7262   25.3982  -26.9987 H   0  0  0  0  0  0  0  0  0  0  0  0
   -0.7002   25.0492  -29.0108 H   0  0  0  0  0  0  0  0  0  0  0  0
   -2.1695   20.8761  -29.8379 H   0  0  0  0  0  0  0  0  0  0  0  0
   -5.6760   20.4440  -31.0390 H   0  0  0  0  0  0  0  0  0  0  0  0
   -3.3178   18.8115  -33.3325 H   0  0  0  0  0  0  0  0  0  0  0  0
   -3.8350   16.8139  -34.7319 H   0  0  0  0  0  0  0  0  0  0  0  0
   -6.1547   15.9049  -34.8032 H   0  0  0  0  0  0  0  0  0  0  0  0
   -7.9730   17.0087  -33.5056 H   0  0  0  0  0  0  0  0  0  0  0  0
   -8.9379   18.6030  -30.4346 H   0  0  0  0  0  0  0  0  0  0  0  0
   -9.7534   19.2047  -31.9177 H   0  0  0  0  0  0  0  0  0  0  0  0
   -8.9665   17.5899  -31.9177 H   0  0  0  0  0  0  0  0  0  0  0  0
   -4.4401   23.9567  -31.8625 H   0  0  0  0  0  0  0  0  0  0  0  0
  1  2  1  0
  2  3  1  0
  3  4  1  0
  4  5  2  0
  5  6  1  0
  6  7  2  0
  7  8  1  0
  8  9  2  0
  9 10  1  0
 10 11  1  0
 11 12  2  0
 12 13  1  0
 13 14  2  0
 13 15  1  0
 15 16  1  0
 16 17  2  0
 17 18  1  0
 18 19  2  0
 19 20  1  0
 20 21  2  0
 21 22  1  0
 22 23  1  0
 12 24  1  0
 24 25  2  0
 25 26  1  0
  9  4  1  0
 25 10  1  0
 21 16  1  0
  1 27  1  0
  1 28  1  0
  1 29  1  0
  2 30  1  0
  2 31  1  0
  5 32  1  0
  6 33  1  0
  7 34  1  0
  8 35  1  0
 11 36  1  0
 15 37  1  0
 17 38  1  0
 18 39  1  0
 19 40  1  0
 20 41  1  0
 23 42  1  0
 23 43  1  0
 23 44  1  0
 24 45  1  0
M  CHG  1  26  -1
M  END
>  <UniqueID>  (12) 
11

>  <SMILES>  (12) 
CCOc1ccccc1-n1cc(C(=O)Nc2ccccc2OC)cc1[O-]

>  <Energy>  (12) 
82.12757615660637

>  <Genealogy>  (12) 
CCOc1ccccc1-n1cc(C(=O)Nc2ccccc2OC)cc1[O-] (protonated)
CCOc1ccccc1-n1cc(C(=O)Nc2ccccc2OC)cc1[O-] (3D coordinates assigned)
CCOc1ccccc1-n1cc(C(=O)Nc2ccccc2OC)cc1[O-] (optimized conformer: 82.12757615660637 kcal/mol)

>  <smiles>  (12) 
CCOc1ccccc1-n1cc(C(=O)Nc2ccccc2OC)cc1O

>  <score_type>  (12) 
oracle

>  <origin>  (12) 
adgpu

>  <m_score__min__energy>  (12) 
-10.029999999999999

>  <m_primary>  (12) 
energy

$$$$
12:0
     RDKit          3D

 55 57  0  0  0  0  0  0  0  0999 V2000
   -6.6940   24.5260  -30.1640 C   0  0  0  0  0  0  0  0  0  0  0  0
   -5.7060   25.6870  -30.1100 C   0  0  0  0  0  0  0  0  0  0  0  0
   -4.4950   25.3590  -30.7930 O   0  0  0  0  0  0  0  0  0  0  0  0
   -3.8570   24.1060  -30.7780 C   0  0  0  0  0  0  0  0  0  0  0  0
   -4.2900   23.0280  -31.5760 C   0  0  0  0  0  0  0  0  0  0  0  0
   -3.6280   21.7900  -31.5350 C   0  0  0  0  0  0  0  0  0  0  0  0
   -4.1060   20.6530  -32.3590 C   0  0  0  0  0  0  0  0  0  0  0  0
   -3.4770   19.5600  -32.3490 O   0  0  0  0  0  0  0  0  0  0  0  0
   -5.2990   20.7900  -33.1450 N   0  0  0  0  0  0  0  0  0  0  0  0
   -6.6520   20.6520  -32.6870 C   0  0  0  0  0  0  0  0  0  0  0  0
   -7.4330   21.7740  -32.3470 C   0  0  0  0  0  0  0  0  0  0  0  0
   -8.7510   21.6100  -31.9150 C   0  0  0  0  0  0  0  0  0  0  0  0
   -9.2980   20.3300  -31.8000 C   0  0  0  0  0  0  0  0  0  0  0  0
   -8.5250   19.2100  -32.1130 C   0  0  0  0  0  0  0  0  0  0  0  0
   -7.1990   19.3620  -32.5430 C   0  0  0  0  0  0  0  0  0  0  0  0
   -6.4240   18.1970  -32.8590 N   0  0  0  0  0  0  0  0  0  0  0  0
   -6.0170   17.2940  -31.7770 C   0  0  0  0  0  0  0  0  0  0  0  0
   -5.3810   16.0320  -32.3530 C   0  0  0  0  0  0  0  0  0  0  0  0
   -6.1310   15.6090  -33.4700 O   0  0  0  0  0  0  0  0  0  0  0  0
   -5.8710   16.4590  -34.5720 C   0  0  0  0  0  0  0  0  0  0  0  0
   -6.0140   17.9650  -34.2480 C   0  0  0  0  0  0  0  0  0  0  0  0
   -2.5130   21.6430  -30.6960 C   0  0  0  0  0  0  0  0  0  0  0  0
   -2.0710   22.7090  -29.9090 C   0  0  0  0  0  0  0  0  0  0  0  0
   -2.7420   23.9460  -29.9410 C   0  0  0  0  0  0  0  0  0  0  0  0
   -2.3440   25.0400  -29.1550 O   0  0  0  0  0  0  0  0  0  0  0  0
   -1.8390   24.9740  -27.8190 C   0  0  0  0  0  0  0  0  0  0  0  0
   -1.0060   26.2220  -27.5070 C   0  0  0  0  0  0  0  0  0  0  0  0
   -3.0190   24.8680  -26.8540 C   0  0  0  0  0  0  0  0  0  0  0  0
   -6.9553   24.2190  -29.1405 H   0  0  0  0  0  0  0  0  0  0  0  0
   -7.6036   24.8430  -30.6952 H   0  0  0  0  0  0  0  0  0  0  0  0
   -6.2356   23.6788  -30.6952 H   0  0  0  0  0  0  0  0  0  0  0  0
   -6.1602   26.5686  -30.5858 H   0  0  0  0  0  0  0  0  0  0  0  0
   -5.4690   25.8977  -29.0567 H   0  0  0  0  0  0  0  0  0  0  0  0
   -5.1577   23.1579  -32.2395 H   0  0  0  0  0  0  0  0  0  0  0  0
   -7.0029   22.7837  -32.4221 H   0  0  0  0  0  0  0  0  0  0  0  0
   -9.3599   22.4913  -31.6647 H   0  0  0  0  0  0  0  0  0  0  0  0
  -10.3375   20.2042  -31.4629 H   0  0  0  0  0  0  0  0  0  0  0  0
   -8.9586   18.2032  -32.0218 H   0  0  0  0  0  0  0  0  0  0  0  0
   -5.2880   17.8060  -31.1317 H   0  0  0  0  0  0  0  0  0  0  0  0
   -6.9050   17.0127  -31.1919 H   0  0  0  0  0  0  0  0  0  0  0  0
   -4.3479   16.2480  -32.6628 H   0  0  0  0  0  0  0  0  0  0  0  0
   -5.3708   15.2394  -31.5903 H   0  0  0  0  0  0  0  0  0  0  0  0
   -4.8428   16.2748  -34.9167 H   0  0  0  0  0  0  0  0  0  0  0  0
   -6.6219   16.2246  -35.3409 H   0  0  0  0  0  0  0  0  0  0  0  0
   -5.0452   18.4574  -34.4182 H   0  0  0  0  0  0  0  0  0  0  0  0
   -6.7944   18.3786  -34.9037 H   0  0  0  0  0  0  0  0  0  0  0  0
   -1.9825   20.6801  -30.6577 H   0  0  0  0  0  0  0  0  0  0  0  0
   -1.1924   22.5809  -29.2597 H   0  0  0  0  0  0  0  0  0  0  0  0
   -1.1905   24.0924  -27.7083 H   0  0  0  0  0  0  0  0  0  0  0  0
   -0.9239   26.3450  -26.4170 H   0  0  0  0  0  0  0  0  0  0  0  0
   -0.0011   26.1098  -27.9400 H   0  0  0  0  0  0  0  0  0  0  0  0
   -1.4951   27.1070  -27.9400 H   0  0  0  0  0  0  0  0  0  0  0  0
   -2.6498   24.9012  -25.8183 H   0  0  0  0  0  0  0  0  0  0  0  0
   -3.7087   25.7078  -27.0245 H   0  0  0  0  0  0  0  0  0  0  0  0
   -3.5480   23.9187  -27.0245 H   0  0  0  0  0  0  0  0  0  0  0  0
  1  2  1  0
  2  3  1  0
  3  4  1  0
  4  5  2  0
  5  6  1  0
  6  7  1  0
  7  8  2  0
  7  9  1  0
  9 10  1  0
 10 11  2  0
 11 12  1  0
 12 13  2  0
 13 14  1  0
 14 15  2  0
 15 16  1  0
 16 17  1  0
 17 18  1  0
 18 19  1  0
 19 20  1  0
 20 21  1  0
  6 22  2  0
 22 23  1  0
 23 24  2  0
 24 25  1  0
 25 26  1  0
 26 27  1  0
 26 28  1  0
 24  4  1  0
 15 10  1  0
 21 16  1  0
  1 29  1  0
  1 30  1  0
  1 31  1  0
  2 32  1  0
  2 33  1  0
  5 34  1  0
 11 35  1  0
 12 36  1  0
 13 37  1  0
 14 38  1  0
 17 39  1  0
 17 40  1  0
 18 41  1  0
 18 42  1  0
 20 43  1  0
 20 44  1  0
 21 45  1  0
 21 46  1  0
 22 47  1  0
 23 48  1  0
 26 49  1  0
 27 50  1  0
 27 51  1  0
 27 52  1  0
 28 53  1  0
 28 54  1  0
 28 55  1  0
M  CHG  1   9  -1
M  END
>  <UniqueID>  (13) 
12

>  <SMILES>  (13) 
CCOc1cc(C(=O)[N-]c2ccccc2N2CCOCC2)ccc1OC(C)C

>  <Energy>  (13) 
65.80496208836571

>  <Genealogy>  (13) 
CCOc1cc(C(=O)[N-]c2ccccc2N2CCOCC2)ccc1OC(C)C (protonated)
CCOc1cc(C(=O)[N-]c2ccccc2N2CCOCC2)ccc1OC(C)C (3D coordinates assigned)
CCOc1cc(C(=O)[N-]c2ccccc2N2CCOCC2)ccc1OC(C)C (nonaromatic ring conformer: 65.80496208836571 kcal/mol)

>  <smiles>  (13) 
CCOc1cc(C(=O)Nc2ccccc2N2CCOCC2)ccc1OC(C)C

>  <score_type>  (13) 
oracle

>  <origin>  (13) 
adgpu

>  <m_score__min__energy>  (13) 
-9.6500000000000004

>  <m_primary>  (13) 
energy

$$$$
13:0
     RDKit          3D

 49 52  0  0  0  0  0  0  0  0999 V2000
   -8.7550   22.3350  -31.2110 C   0  0  0  0  0  0  0  0  0  0  0  0
   -7.4310   23.0150  -31.0670 C   0  0  0  0  0  0  0  0  0  0  0  0
   -6.4150   22.7910  -32.0050 C   0  0  0  0  0  0  0  0  0  0  0  0
   -5.1870   23.4380  -31.8530 C   0  0  0  0  0  0  0  0  0  0  0  0
   -4.9860   24.3170  -30.7770 C   0  0  0  0  0  0  0  0  0  0  0  0
   -3.7340   24.9860  -30.5630 N   0  0  0  0  0  0  0  0  0  0  0  0
   -2.6830   24.5560  -29.6860 C   0  0  0  0  0  0  0  0  0  0  0  0
   -2.1230   25.4140  -28.9530 O   0  0  0  0  0  0  0  0  0  0  0  0
   -2.2020   23.1550  -29.6590 C   0  0  0  0  0  0  0  0  0  0  0  0
   -1.2650   22.7260  -28.7050 C   0  0  0  0  0  0  0  0  0  0  0  0
   -0.8350   21.4370  -28.6990 N   0  0  0  0  0  0  0  0  0  0  0  0
   -1.2970   20.5220  -29.5910 C   0  0  0  0  0  0  0  0  0  0  0  0
   -2.2570   20.8860  -30.5390 C   0  0  0  0  0  0  0  0  0  0  0  0
   -2.7250   19.9040  -31.4750 N   0  0  0  0  0  0  0  0  0  0  0  0
   -2.5660   19.9480  -32.9000 C   0  0  0  0  0  0  0  0  0  0  0  0
   -2.0530   20.9760  -33.4160 O   0  0  0  0  0  0  0  0  0  0  0  0
   -2.9220   18.7970  -33.7650 C   0  0  0  0  0  0  0  0  0  0  0  0
   -1.9510   17.8420  -34.1060 C   0  0  0  0  0  0  0  0  0  0  0  0
   -2.2830   16.7600  -34.9200 C   0  0  0  0  0  0  0  0  0  0  0  0
   -3.5860   16.6410  -35.3980 C   0  0  0  0  0  0  0  0  0  0  0  0
   -4.5170   17.5740  -35.0710 N   0  0  0  0  0  0  0  0  0  0  0  0
   -4.2240   18.6480  -34.2820 C   0  0  0  0  0  0  0  0  0  0  0  0
   -5.2250   19.5690  -33.9410 O   0  0  0  0  0  0  0  0  0  0  0  0
   -6.3970   19.2650  -33.2340 C   0  0  0  0  0  0  0  0  0  0  0  0
   -6.3600   18.2310  -32.2880 C   0  0  0  0  0  0  0  0  0  0  0  0
   -7.5040   17.9040  -31.5530 C   0  0  0  0  0  0  0  0  0  0  0  0
   -8.6900   18.6170  -31.7490 C   0  0  0  0  0  0  0  0  0  0  0  0
   -8.7310   19.6630  -32.6760 C   0  0  0  0  0  0  0  0  0  0  0  0
   -7.5890   19.9920  -33.4140 C   0  0  0  0  0  0  0  0  0  0  0  0
   -2.6970   22.2180  -30.5790 C   0  0  0  0  0  0  0  0  0  0  0  0
   -6.0200   24.4940  -29.8520 C   0  0  0  0  0  0  0  0  0  0  0  0
   -7.2060   23.8510  -30.0180 N   0  0  0  0  0  0  0  0  0  0  0  0
   -9.1685   22.1226  -30.2140 H   0  0  0  0  0  0  0  0  0  0  0  0
   -9.4456   22.9900  -31.7624 H   0  0  0  0  0  0  0  0  0  0  0  0
   -8.6249   21.3921  -31.7624 H   0  0  0  0  0  0  0  0  0  0  0  0
   -6.5831   22.1116  -32.8536 H   0  0  0  0  0  0  0  0  0  0  0  0
   -4.3775   23.2590  -32.5760 H   0  0  0  0  0  0  0  0  0  0  0  0
   -0.8776   23.4362  -27.9597 H   0  0  0  0  0  0  0  0  0  0  0  0
   -0.9140   19.4911  -29.5668 H   0  0  0  0  0  0  0  0  0  0  0  0
   -0.9231   17.9480  -33.7290 H   0  0  0  0  0  0  0  0  0  0  0  0
   -1.5240   16.0082  -35.1821 H   0  0  0  0  0  0  0  0  0  0  0  0
   -3.8608   15.7913  -36.0403 H   0  0  0  0  0  0  0  0  0  0  0  0
   -5.4260   17.6738  -32.1229 H   0  0  0  0  0  0  0  0  0  0  0  0
   -7.4703   17.0847  -30.8198 H   0  0  0  0  0  0  0  0  0  0  0  0
   -9.5907   18.3554  -31.1743 H   0  0  0  0  0  0  0  0  0  0  0  0
   -9.6628   20.2282  -32.8252 H   0  0  0  0  0  0  0  0  0  0  0  0
   -7.6225   20.8207  -34.1366 H   0  0  0  0  0  0  0  0  0  0  0  0
   -3.4332   22.5290  -31.3349 H   0  0  0  0  0  0  0  0  0  0  0  0
   -5.8728   25.1565  -28.9863 H   0  0  0  0  0  0  0  0  0  0  0  0
  1  2  1  0
  2  3  2  0
  3  4  1  0
  4  5  2  0
  5  6  1  0
  6  7  1  0
  7  8  2  0
  7  9  1  0
  9 10  2  0
 10 11  1  0
 11 12  2  0
 12 13  1  0
 13 14  1  0
 14 15  1  0
 15 16  2  0
 15 17  1  0
 17 18  2  0
 18 19  1  0
 19 20  2  0
 20 21  1  0
 21 22  2  0
 22 23  1  0
 23 24  1  0
 24 25  2  0
 25 26  1  0
 26 27  2  0
 27 28  1  0
 28 29  2  0
 13 30  2  0
  5 31  1  0
 31 32  2  0
 32  2  1  0
 30  9  1  0
 22 17  1  0
 29 24  1  0
  1 33  1  0
  1 34  1  0
  1 35  1  0
  3 36  1  0
  4 37  1  0
 10 38  1  0
 12 39  1  0
 18 40  1  0
 19 41  1  0
 20 42  1  0
 25 43  1  0
 26 44  1  0
 27 45  1  0
 28 46  1  0
 29 47  1  0
 30 48  1  0
 31 49  1  0
M  CHG  2   6  -1  14  -1
M  END
>  <UniqueID>  (14) 
13

>  <SMILES>  (14) 
Cc1ccc([N-]C(=O)c2cncc([N-]C(=O)c3cccnc3Oc3ccccc3)c2)cn1

>  <Energy>  (14) 
74.15230971883545

>  <Genealogy>  (14) 
Cc1ccc([N-]C(=O)c2cncc([N-]C(=O)c3cccnc3Oc3ccccc3)c2)cn1 (protonated)
Cc1ccc([N-]C(=O)c2cncc([N-]C(=O)c3cccnc3Oc3ccccc3)c2)cn1 (3D coordinates assigned)
Cc1ccc([N-]C(=O)c2cncc([N-]C(=O)c3cccnc3Oc3ccccc3)c2)cn1 (optimized conformer: 74.15230971883545 kcal/mol)

>  <smiles>  (14) 
Cc1ccc(NC(=O)c2cncc(NC(=O)c3cccnc3Oc3ccccc3)c2)cn1

>  <score_type>  (14) 
oracle

>  <origin>  (14) 
adgpu

>  <m_score__min__energy>  (14) 
-10.84

>  <m_primary>  (14) 
energy

$$$$
14:0
     RDKit          3D

 62 65  0  0  0  0  0  0  0  0999 V2000
   -2.8957   20.9856  -26.4448 H   0  0  0  0  0  0  0  0  0  0  0  0
   -2.5640   21.0430  -27.4920 C   0  0  0  0  0  0  0  0  0  0  0  0
   -1.9030   20.0300  -27.9770 N   0  0  0  0  0  0  0  0  0  0  0  0
   -1.2320   19.9490  -29.2460 C   0  0  0  0  0  0  0  0  0  0  0  0
    0.0640   19.4240  -29.2930 C   0  0  0  0  0  0  0  0  0  0  0  0
    0.5515   19.0866  -28.3664 H   0  0  0  0  0  0  0  0  0  0  0  0
    0.7420   19.3260  -30.5100 C   0  0  0  0  0  0  0  0  0  0  0  0
    1.7524   18.8923  -30.5422 H   0  0  0  0  0  0  0  0  0  0  0  0
    0.1390   19.7780  -31.6870 C   0  0  0  0  0  0  0  0  0  0  0  0
    0.6684   19.6802  -32.6462 H   0  0  0  0  0  0  0  0  0  0  0  0
   -1.1390   20.3560  -31.6500 C   0  0  0  0  0  0  0  0  0  0  0  0
   -1.8070   20.8270  -32.9090 C   0  0  0  0  0  0  0  0  0  0  0  0
   -2.6811   21.4433  -32.6518 H   0  0  0  0  0  0  0  0  0  0  0  0
   -1.0972   21.4255  -33.4989 H   0  0  0  0  0  0  0  0  0  0  0  0
   -2.1323   19.9574  -33.4989 H   0  0  0  0  0  0  0  0  0  0  0  0
   -1.8170   20.4500  -30.4250 C   0  0  0  0  0  0  0  0  0  0  0  0
   -2.8117   20.9180  -30.3854 H   0  0  0  0  0  0  0  0  0  0  0  0
   -2.8980   22.2650  -28.2560 C   0  0  0  0  0  0  0  0  0  0  0  0
   -1.9080   23.1870  -28.6280 C   0  0  0  0  0  0  0  0  0  0  0  0
   -0.8608   23.0146  -28.3387 H   0  0  0  0  0  0  0  0  0  0  0  0
   -2.2490   24.3220  -29.3640 C   0  0  0  0  0  0  0  0  0  0  0  0
   -1.4700   25.0475  -29.6411 H   0  0  0  0  0  0  0  0  0  0  0  0
   -3.5740   24.5440  -29.7520 C   0  0  0  0  0  0  0  0  0  0  0  0
   -3.8790   25.6740  -30.5020 O   0  0  0  0  0  0  0  0  0  0  0  0
   -4.5770   23.6220  -29.3940 C   0  0  0  0  0  0  0  0  0  0  0  0
   -6.0200   23.8320  -29.7860 C   0  0  0  0  0  0  0  0  0  0  0  0
   -6.5925   22.9242  -29.5449 H   0  0  0  0  0  0  0  0  0  0  0  0
   -6.4086   24.6970  -29.2285 H   0  0  0  0  0  0  0  0  0  0  0  0
   -6.1800   24.1800  -31.5780 S   0  0  0  0  0  0  0  0  0  0  0  0
   -7.6270   23.1050  -31.8950 C   0  0  0  0  0  0  0  0  0  0  0  0
   -8.2968   23.1459  -31.0234 H   0  0  0  0  0  0  0  0  0  0  0  0
   -8.1290   23.4722  -32.8022 H   0  0  0  0  0  0  0  0  0  0  0  0
   -7.2280   21.6720  -32.1340 C   0  0  0  0  0  0  0  0  0  0  0  0
   -8.1390   20.6300  -31.8970 C   0  0  0  0  0  0  0  0  0  0  0  0
   -9.1537   20.8608  -31.5403 H   0  0  0  0  0  0  0  0  0  0  0  0
   -7.7630   19.3010  -32.1120 C   0  0  0  0  0  0  0  0  0  0  0  0
   -8.4739   18.4896  -31.8970 H   0  0  0  0  0  0  0  0  0  0  0  0
   -6.4850   18.9970  -32.6000 C   0  0  0  0  0  0  0  0  0  0  0  0
   -6.0160   17.3170  -32.8610 S   0  0  0  0  0  0  0  0  0  0  0  0
   -7.1370   16.5760  -33.5390 O   0  0  0  0  0  0  0  0  0  0  0  0
   -5.7650   16.6740  -31.5230 O   0  0  0  0  0  0  0  0  0  0  0  0
   -4.5640   17.2460  -33.8370 N   0  0  0  0  0  0  0  0  0  0  0  0
   -4.7260   17.8700  -34.6630 H   0  0  0  0  0  0  0  0  0  0  0  0
   -4.3220   15.8720  -34.3410 C   0  0  0  0  0  0  0  0  0  0  0  0
   -5.2649   15.3069  -34.3004 H   0  0  0  0  0  0  0  0  0  0  0  0
   -3.9498   15.9477  -35.3734 H   0  0  0  0  0  0  0  0  0  0  0  0
   -3.2620   15.1330  -33.5040 C   0  0  0  0  0  0  0  0  0  0  0  0
   -3.6318   15.0465  -32.4716 H   0  0  0  0  0  0  0  0  0  0  0  0
   -3.1050   14.1512  -33.9745 H   0  0  0  0  0  0  0  0  0  0  0  0
   -2.0020   15.7900  -33.4770 O   0  0  0  0  0  0  0  0  0  0  0  0
   -2.0900   17.2050  -33.5890 C   0  0  0  0  0  0  0  0  0  0  0  0
   -1.2676   17.6511  -33.0105 H   0  0  0  0  0  0  0  0  0  0  0  0
   -2.0290   17.4473  -34.6602 H   0  0  0  0  0  0  0  0  0  0  0  0
   -3.4170   17.7840  -33.0720 C   0  0  0  0  0  0  0  0  0  0  0  0
   -3.5361   17.5190  -32.0111 H   0  0  0  0  0  0  0  0  0  0  0  0
   -3.3946   18.8768  -33.1959 H   0  0  0  0  0  0  0  0  0  0  0  0
   -5.5870   20.0370  -32.8770 C   0  0  0  0  0  0  0  0  0  0  0  0
   -4.5889   19.8073  -33.2782 H   0  0  0  0  0  0  0  0  0  0  0  0
   -5.9560   21.3650  -32.6450 C   0  0  0  0  0  0  0  0  0  0  0  0
   -5.2453   22.1755  -32.8641 H   0  0  0  0  0  0  0  0  0  0  0  0
   -4.2210   22.4720  -28.6700 C   0  0  0  0  0  0  0  0  0  0  0  0
   -4.9901   21.7247  -28.4249 H   0  0  0  0  0  0  0  0  0  0  0  0
  1  2  1  0
  2  3  2  0
  3  4  1  0
  4  5  2  0
  5  6  1  0
  5  7  1  0
  7  8  1  0
  7  9  2  0
  9 10  1  0
  9 11  1  0
 11 12  1  0
 12 13  1  0
 12 14  1  0
 12 15  1  0
 11 16  2  0
 16 17  1  0
  2 18  1  0
 18 19  2  0
 19 20  1  0
 19 21  1  0
 21 22  1  0
 21 23  2  0
 23 24  1  0
 23 25  1  0
 25 26  1  0
 26 27  1  0
 26 28  1  0
 26 29  1  0
 29 30  1  0
 30 31  1  0
 30 32  1  0
 30 33  1  0
 33 34  2  0
 34 35  1  0
 34 36  1  0
 36 37  1  0
 36 38  2  0
 38 39  1  0
 39 40  2  0
 39 41  2  0
 39 42  1  0
 42 43  1  0
 42 44  1  0
 44 45  1  0
 44 46  1  0
 44 47  1  0
 47 48  1  0
 47 49  1  0
 47 50  1  0
 50 51  1  0
 51 52  1  0
 51 53  1  0
 51 54  1  0
 54 55  1  0
 54 56  1  0
 38 57  1  0
 57 58  1  0
 57 59  2  0
 59 60  1  0
 25 61  2  0
 61 62  1  0
 16  4  1  0
 61 18  1  0
 59 33  1  0
 54 42  1  0
M  CHG  2  24  -1  42   1
M  END
>  <UniqueID>  (15) 
14

>  <SMILES>  (15) 
Cc1cccc(/N=C\c2ccc([O-])c(CSCc3ccc(S(=O)(=O)[NH+]4CCOCC4)cc3)c2)c1

>  <Energy>  (15) 
84.72287889907673

>  <Genealogy>  (15) 
Cc1cccc(N=Cc2ccc([O-])c(CSCc3ccc(S(=O)(=O)[NH+]4CCOCC4)cc3)c2)c1 (protonated)
Cc1cccc(/N=C\c2ccc([O-])c(CSCc3ccc(S(=O)(=O)[NH+]4CCOCC4)cc3)c2)c1 (cis-trans isomerization)
Cc1cccc(/N=C\c2ccc([O-])c(CSCc3ccc(S(=O)(=O)[NH+]4CCOCC4)cc3)c2)c1 (3D coordinates assigned)
Cc1cccc(/N=C\c2ccc([O-])c(CSCc3ccc(S(=O)(=O)[NH+]4CCOCC4)cc3)c2)c1 (nonaromatic ring conformer: 84.72287889907673 kcal/mol)

>  <smiles>  (15) 
Cc1cccc(N=Cc2ccc(O)c(CSCc3ccc(S(=O)(=O)N4CCOCC4)cc3)c2)c1

>  <score_type>  (15) 
oracle

>  <origin>  (15) 
adgpu

>  <m_score__min__energy>  (15) 
-13.6

>  <m_primary>  (15) 
energy

$$$$
15:0
     RDKit          3D

 59 62  0  0  0  0  0  0  0  0999 V2000
   -2.6210   25.0960  -29.3980 N   0  0  0  0  0  0  0  0  0  0  0  0
   -3.8480   24.3710  -29.3750 C   0  0  0  0  0  0  0  0  0  0  0  0
   -4.1640   23.7170  -28.3450 O   0  0  0  0  0  0  0  0  0  0  0  0
   -4.7400   24.3970  -30.5460 C   0  0  0  0  0  0  0  0  0  0  0  0
   -4.9860   25.5040  -31.0990 O   0  0  0  0  0  0  0  0  0  0  0  0
   -5.4070   23.1320  -31.0480 C   0  0  1  0  0  0  0  0  0  0  0  0
   -6.9250   23.3280  -31.2260 C   0  0  0  0  0  0  0  0  0  0  0  0
   -7.6520   22.0350  -31.5080 C   0  0  0  0  0  0  0  0  0  0  0  0
   -7.0020   20.8030  -31.3270 C   0  0  0  0  0  0  0  0  0  0  0  0
   -7.6630   19.6080  -31.6190 C   0  0  0  0  0  0  0  0  0  0  0  0
   -8.9760   19.6320  -32.0960 C   0  0  0  0  0  0  0  0  0  0  0  0
   -9.6300   20.8530  -32.2800 C   0  0  0  0  0  0  0  0  0  0  0  0
   -8.9720   22.0520  -31.9890 C   0  0  0  0  0  0  0  0  0  0  0  0
   -4.7960   22.6610  -32.2990 N   0  0  0  0  0  0  0  0  0  0  0  0
   -3.4840   22.0810  -32.3360 C   0  0  0  0  0  0  0  0  0  0  0  0
   -2.7750   22.0420  -31.2940 O   0  0  0  0  0  0  0  0  0  0  0  0
   -2.9380   21.5290  -33.6200 C   0  0  0  0  0  0  0  0  0  0  0  0
   -3.2410   20.0870  -33.7520 N   0  0  0  0  0  0  0  0  0  0  0  0
   -2.2250   19.1610  -33.8850 C   0  0  0  0  0  0  0  0  0  0  0  0
   -0.8010   19.5650  -33.8560 C   0  0  0  0  0  0  0  0  0  0  0  0
   -0.1850   20.0670  -35.0130 C   0  0  0  0  0  0  0  0  0  0  0  0
    1.1610   20.4410  -34.9850 C   0  0  0  0  0  0  0  0  0  0  0  0
    1.9010   20.3060  -33.8070 C   0  0  0  0  0  0  0  0  0  0  0  0
    1.2960   19.7920  -32.6550 C   0  0  0  0  0  0  0  0  0  0  0  0
   -0.0500   19.4170  -32.6800 C   0  0  0  0  0  0  0  0  0  0  0  0
   -2.5410   17.8000  -34.0480 C   0  0  0  0  0  0  0  0  0  0  0  0
   -1.2980   16.5710  -34.2370 Cl  0  0  0  0  0  0  0  0  0  0  0  0
   -3.8370   17.4140  -34.0820 N   0  0  0  0  0  0  0  0  0  0  0  0
   -4.8510   18.3030  -33.9320 C   0  0  0  0  0  0  0  0  0  0  0  0
   -6.0920   17.9100  -33.9850 N   0  0  0  0  0  0  0  0  0  0  0  0
   -6.5300   16.5390  -34.2400 C   0  0  0  0  0  0  0  0  0  0  0  0
   -5.7030   15.5580  -33.4700 C   0  0  0  0  0  0  0  0  0  0  0  0
   -5.2870   14.3770  -33.9720 N   0  0  0  0  0  0  0  0  0  0  0  0
   -4.5890   13.8390  -32.9540 C   0  0  0  0  0  0  0  0  0  0  0  0
   -4.6140   14.7010  -31.8820 C   0  0  0  0  0  0  0  0  0  0  0  0
   -5.3110   15.7530  -32.2310 O   0  0  0  0  0  0  0  0  0  0  0  0
   -4.5510   19.6610  -33.7470 C   0  0  0  0  0  0  0  0  0  0  0  0
   -5.4960   20.4850  -33.5940 O   0  0  0  0  0  0  0  0  0  0  0  0
   -2.5500   26.0420  -28.9610 H   0  0  0  0  0  0  0  0  0  0  0  0
   -5.2510   22.3585  -30.2816 H   0  0  0  0  0  0  0  0  0  0  0  0
   -7.3334   23.7671  -30.3038 H   0  0  0  0  0  0  0  0  0  0  0  0
   -7.0746   23.9884  -32.0929 H   0  0  0  0  0  0  0  0  0  0  0  0
   -5.9676   20.7794  -30.9536 H   0  0  0  0  0  0  0  0  0  0  0  0
   -7.1492   18.6464  -31.4732 H   0  0  0  0  0  0  0  0  0  0  0  0
   -9.4948   18.6898  -32.3267 H   0  0  0  0  0  0  0  0  0  0  0  0
  -10.6642   20.8710  -32.6544 H   0  0  0  0  0  0  0  0  0  0  0  0
   -9.4894   23.0114  -32.1371 H   0  0  0  0  0  0  0  0  0  0  0  0
   -5.3660   22.6390  -33.1750 H   0  0  0  0  0  0  0  0  0  0  0  0
   -3.3902   22.0698  -34.4645 H   0  0  0  0  0  0  0  0  0  0  0  0
   -1.8455   21.6575  -33.6187 H   0  0  0  0  0  0  0  0  0  0  0  0
   -0.7630   20.1662  -35.9436 H   0  0  0  0  0  0  0  0  0  0  0  0
    1.6387   20.8421  -35.8910 H   0  0  0  0  0  0  0  0  0  0  0  0
    2.9596   20.6040  -33.7856 H   0  0  0  0  0  0  0  0  0  0  0  0
    1.8800   19.6830  -31.7292 H   0  0  0  0  0  0  0  0  0  0  0  0
   -0.5218   19.0049  -31.7758 H   0  0  0  0  0  0  0  0  0  0  0  0
   -7.5829   16.4362  -33.9386 H   0  0  0  0  0  0  0  0  0  0  0  0
   -6.4131   16.3285  -35.3133 H   0  0  0  0  0  0  0  0  0  0  0  0
   -4.0794   12.8644  -32.9760 H   0  0  0  0  0  0  0  0  0  0  0  0
   -4.1341   14.5359  -30.9061 H   0  0  0  0  0  0  0  0  0  0  0  0
  1  2  1  0
  2  3  2  0
  2  4  1  0
  4  5  2  0
  4  6  1  0
  6  7  1  0
  7  8  1  0
  8  9  2  0
  9 10  1  0
 10 11  2  0
 11 12  1  0
 12 13  2  0
  6 14  1  0
 14 15  1  0
 15 16  2  0
 15 17  1  0
 17 18  1  0
 18 19  1  0
 19 20  1  0
 20 21  2  0
 21 22  1  0
 22 23  2  0
 23 24  1  0
 24 25  2  0
 19 26  2  0
 26 27  1  0
 26 28  1  0
 28 29  1  0
 29 30  2  3
 30 31  1  0
 31 32  1  0
 32 33  2  0
 33 34  1  0
 34 35  2  0
 35 36  1  0
 29 37  1  0
 37 38  2  0
 13  8  1  0
 37 18  1  0
 25 20  1  0
 36 32  1  0
  1 39  1  0
  6 40  1  1
  7 41  1  0
  7 42  1  0
  9 43  1  0
 10 44  1  0
 11 45  1  0
 12 46  1  0
 13 47  1  0
 14 48  1  0
 17 49  1  0
 17 50  1  0
 21 51  1  0
 22 52  1  0
 23 53  1  0
 24 54  1  0
 25 55  1  0
 31 56  1  0
 31 57  1  0
 34 58  1  0
 35 59  1  0
M  CHG  2   1  -1  28  -1
M  END
>  <UniqueID>  (16) 
15

>  <SMILES>  (16) 
[NH-]C(=O)C(=O)[C@@H](Cc1ccccc1)NC(=O)Cn1c(-c2ccccc2)c(Cl)[n-]c(=NCc2ncco2)c1=O

>  <Energy>  (16) 
93.99300957598707

>  <Genealogy>  (16) 
[NH-]C(=O)C(=O)C(Cc1ccccc1)NC(=O)Cn1c(-c2ccccc2)c(Cl)[n-]c(=NCc2ncco2)c1=O (protonated)
[NH-]C(=O)C(=O)[C@@H](Cc1ccccc1)NC(=O)Cn1c(-c2ccccc2)c(Cl)[n-]c(=NCc2ncco2)c1=O (chirality)
[NH-]C(=O)C(=O)[C@@H](Cc1ccccc1)NC(=O)Cn1c(-c2ccccc2)c(Cl)[n-]c(=NCc2ncco2)c1=O (3D coordinates assigned)
[NH-]C(=O)C(=O)[C@@H](Cc1ccccc1)NC(=O)Cn1c(-c2ccccc2)c(Cl)[n-]c(=NCc2ncco2)c1=O (optimized conformer: 93.99300957598707 kcal/mol)

>  <smiles>  (16) 
NC(=O)C(=O)C(Cc1ccccc1)NC(=O)Cn1c(-c2ccccc2)c(Cl)[nH]c(=NCc2ncco2)c1=O

>  <score_type>  (16) 
oracle

>  <origin>  (16) 
adgpu

>  <m_score__min__energy>  (16) 
-12.57

>  <m_primary>  (16) 
energy

$$$$
16:0
     RDKit          3D

 34 36  0  0  0  0  0  0  0  0999 V2000
   -0.5660   27.0150  -26.8010 C   0  0  0  0  0  0  0  0  0  0  0  0
   -0.3090   25.9820  -27.8550 C   0  0  0  0  0  0  0  0  0  0  0  0
    0.7580   25.3150  -27.8070 O   0  0  0  0  0  0  0  0  0  0  0  0
   -1.2200   25.7560  -28.9400 N   0  0  0  0  0  0  0  0  0  0  0  0
   -2.3820   24.9180  -28.9220 C   0  0  0  0  0  0  0  0  0  0  0  0
   -2.6910   24.1080  -27.8180 C   0  0  0  0  0  0  0  0  0  0  0  0
   -3.8230   23.2940  -27.8610 C   0  0  0  0  0  0  0  0  0  0  0  0
   -4.6220   23.2730  -29.0050 C   0  0  0  0  0  0  0  0  0  0  0  0
   -4.2620   24.0570  -30.1120 C   0  0  0  0  0  0  0  0  0  0  0  0
   -5.0290   24.0790  -31.2860 O   0  0  0  0  0  0  0  0  0  0  0  0
   -6.1200   23.2400  -31.5610 C   0  0  0  0  0  0  0  0  0  0  0  0
   -7.4460   23.7020  -31.4960 C   0  0  0  0  0  0  0  0  0  0  0  0
   -8.5110   22.8370  -31.7600 C   0  0  0  0  0  0  0  0  0  0  0  0
   -8.2670   21.4950  -32.0810 C   0  0  0  0  0  0  0  0  0  0  0  0
   -9.3280   20.6160  -32.3490 C   0  0  0  0  0  0  0  0  0  0  0  0
   -9.0700   19.2790  -32.6630 C   0  0  0  0  0  0  0  0  0  0  0  0
   -7.7550   18.8080  -32.7100 C   0  0  0  0  0  0  0  0  0  0  0  0
   -6.6880   19.6720  -32.4440 C   0  0  0  0  0  0  0  0  0  0  0  0
   -6.9340   21.0180  -32.1290 C   0  0  0  0  0  0  0  0  0  0  0  0
   -5.8720   21.8950  -31.8620 C   0  0  0  0  0  0  0  0  0  0  0  0
   -3.1630   24.8560  -30.0340 N   0  0  0  0  0  0  0  0  0  0  0  0
   -0.4527   26.5597  -25.8061 H   0  0  0  0  0  0  0  0  0  0  0  0
    0.1546   27.8387  -26.9115 H   0  0  0  0  0  0  0  0  0  0  0  0
   -1.5886   27.4051  -26.9115 H   0  0  0  0  0  0  0  0  0  0  0  0
   -2.0462   24.1151  -26.9268 H   0  0  0  0  0  0  0  0  0  0  0  0
   -4.0855   22.6695  -26.9943 H   0  0  0  0  0  0  0  0  0  0  0  0
   -5.5261   22.6474  -29.0388 H   0  0  0  0  0  0  0  0  0  0  0  0
   -7.6466   24.7517  -31.2355 H   0  0  0  0  0  0  0  0  0  0  0  0
   -9.5446   23.2108  -31.7157 H   0  0  0  0  0  0  0  0  0  0  0  0
  -10.3652   20.9805  -32.3118 H   0  0  0  0  0  0  0  0  0  0  0  0
   -9.9050   18.5947  -32.8740 H   0  0  0  0  0  0  0  0  0  0  0  0
   -7.5586   17.7542  -32.9570 H   0  0  0  0  0  0  0  0  0  0  0  0
   -5.6547   19.2966  -32.4816 H   0  0  0  0  0  0  0  0  0  0  0  0
   -4.8370   21.5234  -31.8893 H   0  0  0  0  0  0  0  0  0  0  0  0
  1  2  1  0
  2  3  2  0
  2  4  1  0
  4  5  1  0
  5  6  2  0
  6  7  1  0
  7  8  2  0
  8  9  1  0
  9 10  1  0
 10 11  1  0
 11 12  2  0
 12 13  1  0
 13 14  2  0
 14 15  1  0
 15 16  2  0
 16 17  1  0
 17 18  2  0
 18 19  1  0
 19 20  2  0
  9 21  2  0
 21  5  1  0
 20 11  1  0
 19 14  1  0
  1 22  1  0
  1 23  1  0
  1 24  1  0
  6 25  1  0
  7 26  1  0
  8 27  1  0
 12 28  1  0
 13 29  1  0
 15 30  1  0
 16 31  1  0
 17 32  1  0
 18 33  1  0
 20 34  1  0
M  CHG  1   4  -1
M  END
>  <UniqueID>  (17) 
16

>  <SMILES>  (17) 
CC(=O)[N-]c1cccc(Oc2ccc3ccccc3c2)n1

>  <Energy>  (17) 
50.30272926106845

>  <Genealogy>  (17) 
CC(=O)[N-]c1cccc(Oc2ccc3ccccc3c2)n1 (protonated)
CC(=O)[N-]c1cccc(Oc2ccc3ccccc3c2)n1 (3D coordinates assigned)
CC(=O)[N-]c1cccc(Oc2ccc3ccccc3c2)n1 (optimized conformer: 50.30272926106845 kcal/mol)

>  <smiles>  (17) 
CC(=O)Nc1cccc(Oc2ccc3ccccc3c2)n1

>  <score_type>  (17) 
oracle

>  <origin>  (17) 
adgpu

>  <m_score__min__energy>  (17) 
-10.66

>  <m_primary>  (17) 
energy

$$$$
17:0
     RDKit          3D

 33 35  0  0  0  0  0  0  0  0999 V2000
   -5.1941   24.8982  -29.8452 H   0  0  0  0  0  0  0  0  0  0  0  0
   -4.2270   24.3740  -29.8500 C   0  0  0  0  0  0  0  0  0  0  0  0
   -3.1220   24.9900  -29.3560 N   0  0  0  0  0  0  0  0  0  0  0  0
   -1.9020   24.3820  -29.3380 C   0  0  0  0  0  0  0  0  0  0  0  0
   -0.8560   24.9920  -28.8610 N   0  0  0  0  0  0  0  0  0  0  0  0
   -0.8580   26.3400  -28.2920 C   0  0  0  0  0  0  0  0  0  0  0  0
   -1.7853   26.8545  -28.5844 H   0  0  0  0  0  0  0  0  0  0  0  0
    0.0170   26.8871  -28.6729 H   0  0  0  0  0  0  0  0  0  0  0  0
   -0.7760   26.2800  -26.7630 C   0  0  0  0  0  0  0  0  0  0  0  0
   -0.6287   27.2972  -26.3710 H   0  0  0  0  0  0  0  0  0  0  0  0
    0.0677   25.6318  -26.4838 H   0  0  0  0  0  0  0  0  0  0  0  0
   -2.0540   25.6960  -26.1660 C   0  0  0  0  0  0  0  0  0  0  0  0
   -1.9921   25.7243  -25.0681 H   0  0  0  0  0  0  0  0  0  0  0  0
   -2.9187   26.2884  -26.4999 H   0  0  0  0  0  0  0  0  0  0  0  0
   -2.1721   24.6546  -26.4999 H   0  0  0  0  0  0  0  0  0  0  0  0
   -1.7710   23.0860  -29.8450 C   0  0  0  0  0  0  0  0  0  0  0  0
   -0.7914   22.5857  -29.8398 H   0  0  0  0  0  0  0  0  0  0  0  0
   -2.8920   22.4310  -30.3580 C   0  0  0  0  0  0  0  0  0  0  0  0
   -2.7961   21.4102  -30.7564 H   0  0  0  0  0  0  0  0  0  0  0  0
   -4.1410   23.0710  -30.3670 C   0  0  0  0  0  0  0  0  0  0  0  0
   -5.3380   22.3890  -30.9080 C   0  0  0  0  0  0  0  0  0  0  0  0
   -5.2760   21.2000  -31.5680 N   0  0  0  0  0  0  0  0  0  0  0  0
   -6.5600   20.9640  -31.8700 C   0  0  0  0  0  0  0  0  0  0  0  0
   -7.0880   19.8720  -32.5540 C   0  0  0  0  0  0  0  0  0  0  0  0
   -6.4398   19.0640  -32.9241 H   0  0  0  0  0  0  0  0  0  0  0  0
   -8.4810   19.8390  -32.7550 C   0  0  0  0  0  0  0  0  0  0  0  0
   -8.9367   18.9932  -33.2907 H   0  0  0  0  0  0  0  0  0  0  0  0
   -9.2970   20.8870  -32.2720 C   0  0  0  0  0  0  0  0  0  0  0  0
  -10.3845   20.8523  -32.4338 H   0  0  0  0  0  0  0  0  0  0  0  0
   -8.7260   21.9750  -31.5850 C   0  0  0  0  0  0  0  0  0  0  0  0
   -9.3484   22.7981  -31.2040 H   0  0  0  0  0  0  0  0  0  0  0  0
   -7.3450   21.9720  -31.4050 C   0  0  0  0  0  0  0  0  0  0  0  0
   -6.5950   22.8960  -30.7870 N   0  0  0  0  0  0  0  0  0  0  0  0
  1  2  1  0
  2  3  1  0
  3  4  1  0
  4  5  2  0
  5  6  1  0
  6  7  1  0
  6  8  1  0
  6  9  1  0
  9 10  1  0
  9 11  1  0
  9 12  1  0
 12 13  1  0
 12 14  1  0
 12 15  1  0
  4 16  1  0
 16 17  1  0
 16 18  2  0
 18 19  1  0
 18 20  1  0
 20 21  1  0
 21 22  2  0
 22 23  1  0
 23 24  2  0
 24 25  1  0
 24 26  1  0
 26 27  1  0
 26 28  2  0
 28 29  1  0
 28 30  1  0
 30 31  1  0
 30 32  2  0
 32 33  1  0
 20  2  2  0
 33 21  1  0
 32 23  1  0
M  CHG  2   3  -1  33  -1
M  END
>  <UniqueID>  (18) 
17

>  <SMILES>  (18) 
CCC/N=c1/ccc(-c2nc3ccccc3[n-]2)c[n-]1

>  <Energy>  (18) 
66.50311989346719

>  <Genealogy>  (18) 
CCCN=c1ccc(-c2nc3ccccc3[n-]2)c[n-]1 (protonated)
CCC/N=c1/ccc(-c2nc3ccccc3[n-]2)c[n-]1 (cis-trans isomerization)
CCC/N=c1/ccc(-c2nc3ccccc3[n-]2)c[n-]1 (3D coordinates assigned)
CCC/N=c1/ccc(-c2nc3ccccc3[n-]2)c[n-]1 (optimized conformer: 66.50311989346719 kcal/mol)

>  <smiles>  (18) 
CCCN=c1ccc(-c2nc3ccccc3[nH]2)c[nH]1

>  <score_type>  (18) 
oracle

>  <origin>  (18) 
adgpu

>  <m_score__min__energy>  (18) 
-8.1099999999999994

>  <m_primary>  (18) 
energy

$$$$
18:0
     RDKit          3D

 38 40  0  0  0  0  0  0  0  0999 V2000
   -9.4790   18.7220  -32.3520 C   0  0  0  0  0  0  0  0  0  0  0  0
   -9.0530   20.1280  -32.0920 C   0  0  0  0  0  0  0  0  0  0  0  0
   -7.7780   20.5390  -31.7830 C   0  0  0  0  0  0  0  0  0  0  0  0
   -7.8180   21.8640  -31.5460 N   0  0  0  0  0  0  0  0  0  0  0  0
   -6.7140   22.7190  -31.1850 C   0  0  0  0  0  0  0  0  0  0  0  0
   -5.3890   22.3160  -31.4260 C   0  0  0  0  0  0  0  0  0  0  0  0
   -4.3190   23.1430  -31.0740 C   0  0  0  0  0  0  0  0  0  0  0  0
   -4.5540   24.3820  -30.4560 C   0  0  0  0  0  0  0  0  0  0  0  0
   -3.4780   25.2600  -30.0940 N   0  0  0  0  0  0  0  0  0  0  0  0
   -2.3280   24.9080  -29.3130 C   0  0  0  0  0  0  0  0  0  0  0  0
   -1.3890   25.7390  -29.2170 O   0  0  0  0  0  0  0  0  0  0  0  0
   -2.2600   23.6340  -28.5600 C   0  0  0  0  0  0  0  0  0  0  0  0
   -1.3320   22.6280  -28.7590 C   0  0  0  0  0  0  0  0  0  0  0  0
   -1.6910   21.6500  -27.8540 C   0  0  0  0  0  0  0  0  0  0  0  0
   -0.9610   20.3710  -27.6180 C   0  0  0  0  0  0  0  0  0  0  0  0
   -2.7620   22.0470  -27.1410 N   0  0  0  0  0  0  0  0  0  0  0  0
   -3.1080   23.2470  -27.5800 N   0  0  0  0  0  0  0  0  0  0  0  0
   -4.2350   24.0000  -27.0390 C   0  0  0  0  0  0  0  0  0  0  0  0
   -5.8710   24.7990  -30.2370 C   0  0  0  0  0  0  0  0  0  0  0  0
   -6.9430   23.9740  -30.5900 C   0  0  0  0  0  0  0  0  0  0  0  0
   -9.1130   22.2170  -31.7050 C   0  0  0  0  0  0  0  0  0  0  0  0
   -9.9030   21.1730  -32.0340 N   0  0  0  0  0  0  0  0  0  0  0  0
   -9.6361   18.2035  -31.3947 H   0  0  0  0  0  0  0  0  0  0  0  0
  -10.4170   18.7234  -32.9265 H   0  0  0  0  0  0  0  0  0  0  0  0
   -8.6979   18.2025  -32.9265 H   0  0  0  0  0  0  0  0  0  0  0  0
   -6.8842   19.8994  -31.7375 H   0  0  0  0  0  0  0  0  0  0  0  0
   -5.1927   21.3410  -31.8959 H   0  0  0  0  0  0  0  0  0  0  0  0
   -3.2876   22.8220  -31.2820 H   0  0  0  0  0  0  0  0  0  0  0  0
   -0.4976   22.6113  -29.4756 H   0  0  0  0  0  0  0  0  0  0  0  0
   -0.8629   20.1991  -26.5360 H   0  0  0  0  0  0  0  0  0  0  0  0
   -1.5209   19.5401  -28.0720 H   0  0  0  0  0  0  0  0  0  0  0  0
    0.0392   20.4305  -28.0720 H   0  0  0  0  0  0  0  0  0  0  0  0
   -4.1985   23.9756  -25.9399 H   0  0  0  0  0  0  0  0  0  0  0  0
   -4.1790   25.0428  -27.3847 H   0  0  0  0  0  0  0  0  0  0  0  0
   -5.1770   23.5492  -27.3847 H   0  0  0  0  0  0  0  0  0  0  0  0
   -6.0645   25.7825  -29.7840 H   0  0  0  0  0  0  0  0  0  0  0  0
   -7.9738   24.3083  -30.4013 H   0  0  0  0  0  0  0  0  0  0  0  0
   -9.4836   23.2451  -31.5797 H   0  0  0  0  0  0  0  0  0  0  0  0
  1  2  1  0
  2  3  2  0
  3  4  1  0
  4  5  1  0
  5  6  2  0
  6  7  1  0
  7  8  2  0
  8  9  1  0
  9 10  1  0
 10 11  2  0
 10 12  1  0
 12 13  2  0
 13 14  1  0
 14 15  1  0
 14 16  2  0
 16 17  1  0
 17 18  1  0
  8 19  1  0
 19 20  2  0
  4 21  1  0
 21 22  2  0
 22  2  1  0
 20  5  1  0
 17 12  1  0
  1 23  1  0
  1 24  1  0
  1 25  1  0
  3 26  1  0
  6 27  1  0
  7 28  1  0
 13 29  1  0
 15 30  1  0
 15 31  1  0
 15 32  1  0
 18 33  1  0
 18 34  1  0
 18 35  1  0
 19 36  1  0
 20 37  1  0
 21 38  1  0
M  CHG  1   9  -1
M  END
>  <UniqueID>  (19) 
18

>  <SMILES>  (19) 
Cc1cn(-c2ccc([N-]C(=O)c3cc(C)nn3C)cc2)cn1

>  <Energy>  (19) 
105.18144473189871

>  <Genealogy>  (19) 
Cc1cn(-c2ccc([N-]C(=O)c3cc(C)nn3C)cc2)cn1 (protonated)
Cc1cn(-c2ccc([N-]C(=O)c3cc(C)nn3C)cc2)cn1 (3D coordinates assigned)
Cc1cn(-c2ccc([N-]C(=O)c3cc(C)nn3C)cc2)cn1 (optimized conformer: 105.18144473189871 kcal/mol)

>  <smiles>  (19) 
Cc1cn(-c2ccc(NC(=O)c3cc(C)nn3C)cc2)cn1

>  <score_type>  (19) 
oracle

>  <origin>  (19) 
adgpu

>  <m_score__min__energy>  (19) 
-9.2899999999999991

>  <m_primary>  (19) 
energy

$$$$
19:0
     RDKit          3D

 51 55  0  0  0  0  0  0  0  0999 V2000
   -4.2832   21.2156  -29.7263 H   0  0  0  0  0  0  0  0  0  0  0  0
   -4.6480   21.9310  -30.4780 C   0  0  0  0  0  0  0  0  0  0  0  0
   -5.5320   21.7010  -31.5200 C   0  0  0  0  0  0  0  0  0  0  0  0
   -6.2000   20.4130  -31.8490 C   0  0  0  0  0  0  0  0  0  0  0  0
   -5.4410   19.2270  -31.9060 C   0  0  0  0  0  0  0  0  0  0  0  0
   -4.3587   19.2638  -31.7128 H   0  0  0  0  0  0  0  0  0  0  0  0
   -6.0480   18.0060  -32.2050 C   0  0  0  0  0  0  0  0  0  0  0  0
   -5.4434   17.0880  -32.2463 H   0  0  0  0  0  0  0  0  0  0  0  0
   -7.4170   17.9480  -32.4510 C   0  0  0  0  0  0  0  0  0  0  0  0
   -7.8918   16.9840  -32.6862 H   0  0  0  0  0  0  0  0  0  0  0  0
   -8.1880   19.1090  -32.4000 C   0  0  0  0  0  0  0  0  0  0  0  0
   -9.2694   19.0545  -32.5939 H   0  0  0  0  0  0  0  0  0  0  0  0
   -7.5930   20.3520  -32.1020 C   0  0  0  0  0  0  0  0  0  0  0  0
   -8.3530   21.5320  -32.0620 O   0  0  0  0  0  0  0  0  0  0  0  0
   -9.4750   21.7470  -31.2100 C   0  0  0  0  0  0  0  0  0  0  0  0
   -9.1547   21.6856  -30.1594 H   0  0  0  0  0  0  0  0  0  0  0  0
   -9.8991   22.7428  -31.4065 H   0  0  0  0  0  0  0  0  0  0  0  0
  -10.2372   20.9786  -31.4065 H   0  0  0  0  0  0  0  0  0  0  0  0
   -5.7130   22.8510  -32.2040 N   0  0  0  0  0  0  0  0  0  0  0  0
   -4.9830   23.7620  -31.6310 O   0  0  0  0  0  0  0  0  0  0  0  0
   -4.3330   23.2680  -30.6050 C   0  0  0  0  0  0  0  0  0  0  0  0
   -3.4260   24.0330  -29.7450 C   0  0  0  0  0  0  0  0  0  0  0  0
   -3.4670   25.2920  -29.7730 O   0  0  0  0  0  0  0  0  0  0  0  0
   -2.5870   23.3320  -28.8140 N   0  0  0  0  0  0  0  0  0  0  0  0
   -2.0610   23.7360  -27.6850 C   0  0  0  0  0  0  0  0  0  0  0  0
   -1.3650   22.8320  -26.9170 N   0  0  0  0  0  0  0  0  0  0  0  0
   -1.2310   21.4630  -27.3550 C   0  0  0  0  0  0  0  0  0  0  0  0
   -0.3540   21.1360  -28.4030 C   0  0  0  0  0  0  0  0  0  0  0  0
    0.2200   21.9285  -28.9054 H   0  0  0  0  0  0  0  0  0  0  0  0
   -0.2090   19.8060  -28.8090 C   0  0  0  0  0  0  0  0  0  0  0  0
    0.4803   19.5539  -29.6283 H   0  0  0  0  0  0  0  0  0  0  0  0
   -0.9390   18.7960  -28.1750 C   0  0  0  0  0  0  0  0  0  0  0  0
   -0.8246   17.7502  -28.4964 H   0  0  0  0  0  0  0  0  0  0  0  0
   -1.8140   19.1150  -27.1330 C   0  0  0  0  0  0  0  0  0  0  0  0
   -2.3878   18.3197  -26.6348 H   0  0  0  0  0  0  0  0  0  0  0  0
   -1.9610   20.4430  -26.7230 C   0  0  0  0  0  0  0  0  0  0  0  0
   -2.6508   20.6902  -25.9026 H   0  0  0  0  0  0  0  0  0  0  0  0
   -0.7930   23.2170  -25.7320 C   0  0  0  0  0  0  0  0  0  0  0  0
   -0.1740   22.3730  -25.0230 O   0  0  0  0  0  0  0  0  0  0  0  0
   -0.9000   24.5450  -25.2970 C   0  0  0  0  0  0  0  0  0  0  0  0
   -0.3290   24.9850  -24.0870 C   0  0  0  0  0  0  0  0  0  0  0  0
    0.2131   24.2741  -23.4461 H   0  0  0  0  0  0  0  0  0  0  0  0
   -0.4490   26.3220  -23.6980 C   0  0  0  0  0  0  0  0  0  0  0  0
   -0.0026   26.6602  -22.7513 H   0  0  0  0  0  0  0  0  0  0  0  0
   -1.1340   27.2290  -24.5080 C   0  0  0  0  0  0  0  0  0  0  0  0
   -1.2245   28.2811  -24.2000 H   0  0  0  0  0  0  0  0  0  0  0  0
   -1.7050   26.8020  -25.7100 C   0  0  0  0  0  0  0  0  0  0  0  0
   -2.2434   27.5205  -26.3455 H   0  0  0  0  0  0  0  0  0  0  0  0
   -1.5950   25.4600  -26.1110 C   0  0  0  0  0  0  0  0  0  0  0  0
   -2.1500   25.0410  -27.2810 N   0  0  0  0  0  0  0  0  0  0  0  0
   -2.6040   25.7600  -27.8830 H   0  0  0  0  0  0  0  0  0  0  0  0
  1  2  1  0
  2  3  1  0
  3  4  1  0
  4  5  2  0
  5  6  1  0
  5  7  1  0
  7  8  1  0
  7  9  2  0
  9 10  1  0
  9 11  1  0
 11 12  1  0
 11 13  2  0
 13 14  1  0
 14 15  1  0
 15 16  1  0
 15 17  1  0
 15 18  1  0
  3 19  2  0
 19 20  1  0
 20 21  1  0
 21 22  1  0
 22 23  2  0
 22 24  1  0
 24 25  2  0
 25 26  1  0
 26 27  1  0
 27 28  2  0
 28 29  1  0
 28 30  1  0
 30 31  1  0
 30 32  2  0
 32 33  1  0
 32 34  1  0
 34 35  1  0
 34 36  2  0
 36 37  1  0
 26 38  1  0
 38 39  2  0
 38 40  1  0
 40 41  2  0
 41 42  1  0
 41 43  1  0
 43 44  1  0
 43 45  2  0
 45 46  1  0
 45 47  1  0
 47 48  1  0
 47 49  2  0
 49 50  1  0
 50 51  1  0
 21  2  2  0
 50 25  1  0
 13  4  1  0
 36 27  1  0
 49 40  1  0
M  END
>  <UniqueID>  (20) 
19

>  <SMILES>  (20) 
COc1ccccc1-c1cc(C(=O)/N=c2\[nH]c3ccccc3c(=O)n2-c2ccccc2)on1

>  <Energy>  (20) 
111.97501855750772

>  <Genealogy>  (20) 
COc1ccccc1-c1cc(C(=O)/N=c2\[nH]c3ccccc3c(=O)n2-c2ccccc2)on1 (cis-trans isomerization)
COc1ccccc1-c1cc(C(=O)/N=c2\[nH]c3ccccc3c(=O)n2-c2ccccc2)on1 (3D coordinates assigned)
COc1ccccc1-c1cc(C(=O)/N=c2\[nH]c3ccccc3c(=O)n2-c2ccccc2)on1 (optimized conformer: 111.97501855750772 kcal/mol)

>  <smiles>  (20) 
COc1ccccc1-c1cc(C(=O)N=c2[nH]c3ccccc3c(=O)n2-c2ccccc2)on1

>  <score_type>  (20) 
oracle

>  <origin>  (20) 
adgpu

>  <m_score__min__energy>  (20) 
-10.43

>  <m_primary>  (20) 
energy

$$$$
20:0
     RDKit          3D

 57 60  0  0  0  0  0  0  0  0999 V2000
   -3.1110   19.5960  -27.2250 C   0  0  0  0  0  0  0  0  0  0  0  0
   -1.7720   20.1220  -27.5140 N   0  0  0  0  0  0  0  0  0  0  0  0
   -0.8080   19.2900  -28.2560 C   0  0  0  0  0  0  0  0  0  0  0  0
   -0.7180   19.7420  -29.6910 C   0  0  0  0  0  0  0  0  0  0  0  0
   -1.8410   20.3030  -30.3200 C   0  0  0  0  0  0  0  0  0  0  0  0
   -1.7620   20.7400  -31.6460 C   0  0  0  0  0  0  0  0  0  0  0  0
   -0.5610   20.6200  -32.3550 C   0  0  0  0  0  0  0  0  0  0  0  0
   -0.4620   21.1730  -34.0160 Cl  0  0  0  0  0  0  0  0  0  0  0  0
    0.5590   20.0550  -31.7360 C   0  0  0  0  0  0  0  0  0  0  0  0
    0.4820   19.6160  -30.4100 C   0  0  0  0  0  0  0  0  0  0  0  0
   -1.4700   21.4870  -27.1390 C   0  0  0  0  0  0  0  0  0  0  0  0
   -1.8170   22.5740  -27.9580 C   0  0  0  0  0  0  0  0  0  0  0  0
   -1.4980   23.8730  -27.5360 C   0  0  0  0  0  0  0  0  0  0  0  0
   -1.8470   25.0470  -28.3660 C   0  0  0  0  0  0  0  0  0  0  0  0
   -1.6600   26.2080  -27.9120 O   0  0  0  0  0  0  0  0  0  0  0  0
   -2.3300   24.9060  -29.7100 N   0  0  0  0  0  0  0  0  0  0  0  0
   -3.5720   24.3080  -30.1060 C   0  0  0  0  0  0  0  0  0  0  0  0
   -3.6150   23.1430  -30.8920 C   0  0  0  0  0  0  0  0  0  0  0  0
   -4.8430   22.5790  -31.2480 C   0  0  0  0  0  0  0  0  0  0  0  0
   -6.0410   23.1520  -30.8010 C   0  0  0  0  0  0  0  0  0  0  0  0
   -7.5930   22.4270  -31.2340 S   0  0  0  0  0  0  0  0  0  0  0  0
   -8.3150   22.0200  -29.9800 O   0  0  0  0  0  0  0  0  0  0  0  0
   -8.4340   23.4500  -31.9450 O   0  0  0  0  0  0  0  0  0  0  0  0
   -7.3890   21.0220  -32.2550 N   0  0  0  0  0  0  0  0  0  0  0  0
   -8.6900   20.4460  -32.6590 C   0  0  0  0  0  0  0  0  0  0  0  0
   -9.0130   19.1530  -31.8870 C   0  0  0  0  0  0  0  0  0  0  0  0
   -8.0310   18.1390  -32.0540 O   0  0  0  0  0  0  0  0  0  0  0  0
   -6.7090   18.6390  -32.2100 C   0  0  0  0  0  0  0  0  0  0  0  0
   -6.4950   20.0400  -31.6130 C   0  0  0  0  0  0  0  0  0  0  0  0
   -5.9980   24.3000  -29.9980 C   0  0  0  0  0  0  0  0  0  0  0  0
   -4.7690   24.8680  -29.6460 C   0  0  0  0  0  0  0  0  0  0  0  0
   -0.8730   24.0500  -26.3420 N   0  0  0  0  0  0  0  0  0  0  0  0
   -0.5350   22.9930  -25.5620 C   0  0  0  0  0  0  0  0  0  0  0  0
   -0.8260   21.7320  -25.9630 N   0  0  0  0  0  0  0  0  0  0  0  0
   -3.2555   19.5392  -26.1360 H   0  0  0  0  0  0  0  0  0  0  0  0
   -3.8690   20.2632  -27.6612 H   0  0  0  0  0  0  0  0  0  0  0  0
   -3.2123   18.5913  -27.6612 H   0  0  0  0  0  0  0  0  0  0  0  0
    0.1827   19.3769  -27.7860 H   0  0  0  0  0  0  0  0  0  0  0  0
   -1.1476   18.2440  -28.2324 H   0  0  0  0  0  0  0  0  0  0  0  0
   -2.7872   20.3992  -29.7672 H   0  0  0  0  0  0  0  0  0  0  0  0
   -2.6454   21.1789  -32.1329 H   0  0  0  0  0  0  0  0  0  0  0  0
    1.5023   19.9557  -32.2931 H   0  0  0  0  0  0  0  0  0  0  0  0
    1.3649   19.1703  -29.9284 H   0  0  0  0  0  0  0  0  0  0  0  0
   -2.3313   22.4090  -28.9162 H   0  0  0  0  0  0  0  0  0  0  0  0
   -2.6785   22.6738  -31.2279 H   0  0  0  0  0  0  0  0  0  0  0  0
   -4.8693   21.6807  -31.8823 H   0  0  0  0  0  0  0  0  0  0  0  0
   -9.4816   21.1841  -32.4625 H   0  0  0  0  0  0  0  0  0  0  0  0
   -8.6342   20.1979  -33.7292 H   0  0  0  0  0  0  0  0  0  0  0  0
   -9.0870   19.3946  -30.8164 H   0  0  0  0  0  0  0  0  0  0  0  0
   -9.9586   18.7606  -32.2893 H   0  0  0  0  0  0  0  0  0  0  0  0
   -6.0154   17.9429  -31.7157 H   0  0  0  0  0  0  0  0  0  0  0  0
   -6.5263   18.7229  -33.2915 H   0  0  0  0  0  0  0  0  0  0  0  0
   -6.7076   20.0092  -30.5342 H   0  0  0  0  0  0  0  0  0  0  0  0
   -5.4523   20.3436  -31.7878 H   0  0  0  0  0  0  0  0  0  0  0  0
   -6.9341   24.7560  -29.6433 H   0  0  0  0  0  0  0  0  0  0  0  0
   -4.7434   25.7605  -29.0035 H   0  0  0  0  0  0  0  0  0  0  0  0
   -0.0238   23.1599  -24.6024 H   0  0  0  0  0  0  0  0  0  0  0  0
  1  2  1  0
  2  3  1  0
  3  4  1  0
  4  5  2  0
  5  6  1  0
  6  7  2  0
  7  8  1  0
  7  9  1  0
  9 10  2  0
  2 11  1  0
 11 12  2  0
 12 13  1  0
 13 14  1  0
 14 15  2  0
 14 16  1  0
 16 17  1  0
 17 18  2  0
 18 19  1  0
 19 20  2  0
 20 21  1  0
 21 22  2  0
 21 23  2  0
 21 24  1  0
 24 25  1  0
 25 26  1  0
 26 27  1  0
 27 28  1  0
 28 29  1  0
 20 30  1  0
 30 31  2  0
 13 32  2  0
 32 33  1  0
 33 34  2  0
 10  4  1  0
 34 11  1  0
 31 17  1  0
 29 24  1  0
  1 35  1  0
  1 36  1  0
  1 37  1  0
  3 38  1  0
  3 39  1  0
  5 40  1  0
  6 41  1  0
  9 42  1  0
 10 43  1  0
 12 44  1  0
 18 45  1  0
 19 46  1  0
 25 47  1  0
 25 48  1  0
 26 49  1  0
 26 50  1  0
 28 51  1  0
 28 52  1  0
 29 53  1  0
 29 54  1  0
 30 55  1  0
 31 56  1  0
 33 57  1  0
M  CHG  1  16  -1
M  END
>  <UniqueID>  (21) 
20

>  <SMILES>  (21) 
CN(Cc1ccc(Cl)cc1)c1cc(C(=O)[N-]c2ccc(S(=O)(=O)N3CCOCC3)cc2)ncn1

>  <Energy>  (21) 
78.35566506621636

>  <Genealogy>  (21) 
CN(Cc1ccc(Cl)cc1)c1cc(C(=O)[N-]c2ccc(S(=O)(=O)N3CCOCC3)cc2)ncn1 (protonated)
CN(Cc1ccc(Cl)cc1)c1cc(C(=O)[N-]c2ccc(S(=O)(=O)N3CCOCC3)cc2)ncn1 (3D coordinates assigned)
CN(Cc1ccc(Cl)cc1)c1cc(C(=O)[N-]c2ccc(S(=O)(=O)N3CCOCC3)cc2)ncn1 (nonaromatic ring conformer: 78.35566506621636 kcal/mol)

>  <smiles>  (21) 
CN(Cc1ccc(Cl)cc1)c1cc(C(=O)Nc2ccc(S(=O)(=O)N3CCOCC3)cc2)ncn1

>  <score_type>  (21) 
oracle

>  <origin>  (21) 
adgpu

>  <m_score__min__energy>  (21) 
-11.91

>  <m_primary>  (21) 
energy

$$$$
21:0
     RDKit          3D

 52 54  0  0  1  0  0  0  0  0999 V2000
   -3.7810   24.9740  -26.0870 C   0  0  0  0  0  0  0  0  0  0  0  0
   -2.4290   25.4450  -26.5220 C   0  0  0  0  0  0  0  0  0  0  0  0
   -1.6300   26.0170  -25.5620 C   0  0  0  0  0  0  0  0  0  0  0  0
   -0.3890   26.4630  -25.9100 C   0  0  0  0  0  0  0  0  0  0  0  0
    0.0160   26.3190  -27.2240 C   0  0  0  0  0  0  0  0  0  0  0  0
   -0.7830   25.7440  -28.1970 C   0  0  0  0  0  0  0  0  0  0  0  0
   -2.0290   25.2970  -27.8430 C   0  0  0  0  0  0  0  0  0  0  0  0
   -2.9480   24.6910  -28.7280 N   0  0  0  0  0  0  0  0  0  0  0  0
   -2.5730   23.7200  -29.4690 C   0  0  0  0  0  0  0  0  0  0  0  0
   -1.2950   23.3290  -29.3510 N   0  0  0  0  0  0  0  0  0  0  0  0
   -0.7420   22.3270  -30.0430 C   0  0  0  0  0  0  0  0  0  0  0  0
   -1.5340   21.6790  -30.9070 N   0  0  0  0  0  0  0  0  0  0  0  0
   -2.7760   22.0220  -31.0540 C   0  0  0  0  0  0  0  0  0  0  0  0
   -4.0810   21.3180  -32.1410 S   0  0  0  0  0  0  0  0  0  0  0  0
   -5.3930   22.4960  -31.5660 C   0  0  0  0  0  0  0  0  0  0  0  0
   -6.7320   22.4960  -32.0330 C   0  0  0  0  0  0  0  0  0  0  0  0
   -7.2710   23.3950  -32.7020 O   0  0  0  0  0  0  0  0  0  0  0  0
   -7.5610   21.3600  -31.7140 N   0  0  0  0  0  0  0  0  0  0  0  0
   -8.9600   21.3050  -32.1740 C   0  0  0  0  0  0  0  0  0  0  0  0
   -9.3820   19.9630  -32.6370 C   0  0  0  0  0  0  0  0  0  0  0  0
   -8.6860   18.8670  -31.9000 C   0  0  0  0  0  0  0  0  0  0  0  0
   -7.3040   18.6980  -32.0840 N   0  0  0  0  0  0  0  0  0  0  0  0
   -6.5950   17.7400  -31.3200 C   0  0  0  0  0  0  0  0  0  0  0  0
   -6.8620   18.8060  -33.4590 C   0  0  0  0  0  0  0  0  0  0  0  0
   -4.7190   23.2890  -30.6250 C   0  0  0  0  0  0  0  0  0  0  0  0
   -5.5410   24.3930  -29.9650 C   0  0  0  0  0  0  0  0  0  0  0  0
   -3.4480   23.0680  -30.3660 C   0  0  0  0  0  0  0  0  0  0  0  0
   -3.8276   24.9578  -24.9881 H   0  0  0  0  0  0  0  0  0  0  0  0
   -4.5501   25.6571  -26.4766 H   0  0  0  0  0  0  0  0  0  0  0  0
   -3.9592   23.9608  -26.4766 H   0  0  0  0  0  0  0  0  0  0  0  0
   -1.9866   26.1141  -24.5259 H   0  0  0  0  0  0  0  0  0  0  0  0
    0.2733   26.9259  -25.1636 H   0  0  0  0  0  0  0  0  0  0  0  0
    1.0165   26.6769  -27.5085 H   0  0  0  0  0  0  0  0  0  0  0  0
   -0.4253   25.6479  -29.2327 H   0  0  0  0  0  0  0  0  0  0  0  0
    0.3136   22.0482  -29.9088 H   0  0  0  0  0  0  0  0  0  0  0  0
   -1.1510   20.8760  -31.4840 H   0  0  0  0  0  0  0  0  0  0  0  0
   -7.1440   20.5750  -31.1460 H   0  0  0  0  0  0  0  0  0  0  0  0
   -9.6118   21.6056  -31.3404 H   0  0  0  0  0  0  0  0  0  0  0  0
   -9.0418   21.9831  -33.0363 H   0  0  0  0  0  0  0  0  0  0  0  0
  -10.4663   19.8601  -32.4834 H   0  0  0  0  0  0  0  0  0  0  0  0
   -9.1180   19.8747  -33.7012 H   0  0  0  0  0  0  0  0  0  0  0  0
   -8.8497   19.0446  -30.8268 H   0  0  0  0  0  0  0  0  0  0  0  0
   -9.1236   17.9476  -32.3162 H   0  0  0  0  0  0  0  0  0  0  0  0
   -6.7443   17.9418  -30.2490 H   0  0  0  0  0  0  0  0  0  0  0  0
   -6.9668   16.7326  -31.5587 H   0  0  0  0  0  0  0  0  0  0  0  0
   -5.5230   17.8012  -31.5587 H   0  0  0  0  0  0  0  0  0  0  0  0
   -5.7937   19.0670  -33.4813 H   0  0  0  0  0  0  0  0  0  0  0  0
   -7.0151   17.8440  -33.9700 H   0  0  0  0  0  0  0  0  0  0  0  0
   -7.4415   19.5890  -33.9700 H   0  0  0  0  0  0  0  0  0  0  0  0
   -5.4707   24.2985  -28.8713 H   0  0  0  0  0  0  0  0  0  0  0  0
   -5.1520   25.3744  -30.2740 H   0  0  0  0  0  0  0  0  0  0  0  0
   -6.5927   24.3016  -30.2740 H   0  0  0  0  0  0  0  0  0  0  0  0
  1  2  1  0
  2  3  2  0
  3  4  1  0
  4  5  2  0
  5  6  1  0
  6  7  2  0
  7  8  1  0
  8  9  2  0
  9 10  1  0
 10 11  2  0
 11 12  1  0
 12 13  1  0
 13 14  1  0
 14 15  1  0
 15 16  1  0
 16 17  2  0
 16 18  1  0
 18 19  1  0
 19 20  1  0
 20 21  1  0
 21 22  1  0
 22 23  1  0
 22 24  1  0
 15 25  2  0
 25 26  1  0
 25 27  1  0
  7  2  1  0
 27  9  1  0
 27 13  2  0
  1 28  1  0
  1 29  1  0
  1 30  1  0
  3 31  1  0
  4 32  1  0
  5 33  1  0
  6 34  1  0
 11 35  1  0
 12 36  1  0
 18 37  1  0
 19 38  1  0
 19 39  1  0
 20 40  1  0
 20 41  1  0
 21 42  1  0
 21 43  1  0
 23 44  1  0
 23 45  1  0
 23 46  1  0
 24 47  1  0
 24 48  1  0
 24 49  1  0
 26 50  1  0
 26 51  1  0
 26 52  1  0
M  END
>  <smiles>  (22) 
Cc1ccccc1N=c1nc[nH]c2sc(C(=O)NCCCN(C)C)c(C)c12

>  <score_type>  (22) 
oracle

>  <origin>  (22) 
adgpu

>  <m_score__min__energy>  (22) 
-8.4000000000000004

>  <m_primary>  (22) 
energy

$$$$
22:0
     RDKit          3D

 42 44  0  0  0  0  0  0  0  0999 V2000
   -0.1370   23.0680  -28.1270 C   0  0  0  0  0  0  0  0  0  0  0  0
   -0.3950   23.1060  -29.5270 O   0  0  0  0  0  0  0  0  0  0  0  0
   -1.3900   22.3600  -30.1780 C   0  0  0  0  0  0  0  0  0  0  0  0
   -1.1210   21.0890  -30.7170 C   0  0  0  0  0  0  0  0  0  0  0  0
   -2.1230   20.3640  -31.3650 C   0  0  0  0  0  0  0  0  0  0  0  0
   -3.4170   20.8890  -31.4930 C   0  0  0  0  0  0  0  0  0  0  0  0
   -4.4670   20.1060  -32.1890 C   0  0  0  0  0  0  0  0  0  0  0  0
   -4.4590   19.6750  -33.5040 C   0  0  0  0  0  0  0  0  0  0  0  0
   -5.5710   19.0150  -33.7120 O   0  0  0  0  0  0  0  0  0  0  0  0
   -6.2490   19.0340  -32.5870 C   0  0  0  0  0  0  0  0  0  0  0  0
   -7.5690   18.3670  -32.4060 C   0  0  0  0  0  0  0  0  0  0  0  0
   -5.6090   19.6940  -31.6000 N   0  0  0  0  0  0  0  0  0  0  0  0
   -3.6880   22.1580  -30.9540 C   0  0  0  0  0  0  0  0  0  0  0  0
   -2.6900   22.8940  -30.2990 C   0  0  0  0  0  0  0  0  0  0  0  0
   -3.1100   24.5010  -29.6810 S   0  0  0  0  0  0  0  0  0  0  0  0
   -3.9270   24.3240  -28.4310 O   0  0  0  0  0  0  0  0  0  0  0  0
   -1.8830   25.2940  -29.3270 O   0  0  0  0  0  0  0  0  0  0  0  0
   -4.0530   25.3930  -30.8420 N   0  0  0  0  0  0  0  0  0  0  0  0
   -5.4560   25.5060  -30.4310 C   0  0  0  0  0  0  0  0  0  0  0  0
   -6.2370   24.2640  -30.7760 C   0  0  0  0  0  0  0  0  0  0  0  0
   -6.3260   23.8270  -32.1080 C   0  0  0  0  0  0  0  0  0  0  0  0
   -7.0620   22.6810  -32.4240 C   0  0  0  0  0  0  0  0  0  0  0  0
   -7.7010   21.9570  -31.4130 C   0  0  0  0  0  0  0  0  0  0  0  0
   -7.6030   22.3760  -30.0840 C   0  0  0  0  0  0  0  0  0  0  0  0
   -6.8710   23.5230  -29.7630 C   0  0  0  0  0  0  0  0  0  0  0  0
   -1.0792   23.2068  -27.5766 H   0  0  0  0  0  0  0  0  0  0  0  0
    0.3029   22.0954  -27.8615 H   0  0  0  0  0  0  0  0  0  0  0  0
    0.5646   23.8725  -27.8615 H   0  0  0  0  0  0  0  0  0  0  0  0
   -0.1113   20.6620  -30.6271 H   0  0  0  0  0  0  0  0  0  0  0  0
   -1.8950   19.3709  -31.7793 H   0  0  0  0  0  0  0  0  0  0  0  0
   -3.6626   19.8543  -34.2413 H   0  0  0  0  0  0  0  0  0  0  0  0
   -7.7814   18.2597  -31.3320 H   0  0  0  0  0  0  0  0  0  0  0  0
   -8.3551   18.9761  -32.8762 H   0  0  0  0  0  0  0  0  0  0  0  0
   -7.5450   17.3728  -32.8762 H   0  0  0  0  0  0  0  0  0  0  0  0
   -4.6992   22.5809  -31.0473 H   0  0  0  0  0  0  0  0  0  0  0  0
   -5.4977   25.6632  -29.3431 H   0  0  0  0  0  0  0  0  0  0  0  0
   -5.9045   26.3547  -30.9681 H   0  0  0  0  0  0  0  0  0  0  0  0
   -5.8153   24.3879  -32.9046 H   0  0  0  0  0  0  0  0  0  0  0  0
   -7.1384   22.3485  -33.4698 H   0  0  0  0  0  0  0  0  0  0  0  0
   -8.2813   21.0569  -31.6642 H   0  0  0  0  0  0  0  0  0  0  0  0
   -8.1024   21.8027  -29.2891 H   0  0  0  0  0  0  0  0  0  0  0  0
   -6.7908   23.8468  -28.7148 H   0  0  0  0  0  0  0  0  0  0  0  0
  1  2  1  0
  2  3  1  0
  3  4  2  0
  4  5  1  0
  5  6  2  0
  6  7  1  0
  7  8  2  0
  8  9  1  0
  9 10  1  0
 10 11  1  0
 10 12  2  0
  6 13  1  0
 13 14  2  0
 14 15  1  0
 15 16  2  0
 15 17  2  0
 15 18  1  0
 18 19  1  0
 19 20  1  0
 20 21  2  0
 21 22  1  0
 22 23  2  0
 23 24  1  0
 24 25  2  0
 14  3  1  0
 25 20  1  0
 12  7  1  0
  1 26  1  0
  1 27  1  0
  1 28  1  0
  4 29  1  0
  5 30  1  0
  8 31  1  0
 11 32  1  0
 11 33  1  0
 11 34  1  0
 13 35  1  0
 19 36  1  0
 19 37  1  0
 21 38  1  0
 22 39  1  0
 23 40  1  0
 24 41  1  0
 25 42  1  0
M  CHG  1  18  -1
M  END
>  <UniqueID>  (23) 
21

>  <SMILES>  (23) 
COc1ccc(-c2coc(C)n2)cc1S(=O)(=O)[N-]Cc1ccccc1

>  <Energy>  (23) 
71.95533746298061

>  <Genealogy>  (23) 
COc1ccc(-c2coc(C)n2)cc1S(=O)(=O)[N-]Cc1ccccc1 (protonated)
COc1ccc(-c2coc(C)n2)cc1S(=O)(=O)[N-]Cc1ccccc1 (3D coordinates assigned)
COc1ccc(-c2coc(C)n2)cc1S(=O)(=O)[N-]Cc1ccccc1 (optimized conformer: 71.95533746298061 kcal/mol)

>  <smiles>  (23) 
COc1ccc(-c2coc(C)n2)cc1S(=O)(=O)NCc1ccccc1

>  <score_type>  (23) 
oracle

>  <origin>  (23) 
adgpu

>  <m_score__min__energy>  (23) 
-9.4199999999999999

>  <m_primary>  (23) 
energy

$$$$
23:0
     RDKit          3D

 58 61  0  0  0  0  0  0  0  0999 V2000
   -0.4330   25.4170  -36.5730 C   0  0  0  0  0  0  0  0  0  0  0  0
    0.7260   25.0110  -36.0420 C   0  0  0  0  0  0  0  0  0  0  0  0
    1.2030   23.5910  -36.1780 C   0  0  0  0  0  0  0  0  0  0  0  0
    0.2640   22.6390  -35.5720 N   0  0  0  0  0  0  0  0  0  0  0  0
    0.7000   21.4960  -34.8160 C   0  0  0  0  0  0  0  0  0  0  0  0
    2.0700   21.2290  -34.7670 C   0  0  0  0  0  0  0  0  0  0  0  0
    2.5650   20.1730  -34.0100 C   0  0  0  0  0  0  0  0  0  0  0  0
    3.9270   19.8900  -34.0380 O   0  0  0  0  0  0  0  0  0  0  0  0
    1.7040   19.3860  -33.2420 C   0  0  0  0  0  0  0  0  0  0  0  0
    2.2440   18.2380  -32.6550 O   0  0  0  0  0  0  0  0  0  0  0  0
    0.3190   19.7180  -33.1590 C   0  0  0  0  0  0  0  0  0  0  0  0
   -0.5800   19.1060  -32.2350 C   0  0  0  0  0  0  0  0  0  0  0  0
   -0.1290   18.4650  -30.9790 C   0  0  0  0  0  0  0  0  0  0  0  0
    0.3840   17.3140  -31.0070 O   0  0  0  0  0  0  0  0  0  0  0  0
   -0.3720   19.1170  -29.7270 N   0  0  0  0  0  0  0  0  0  0  0  0
   -0.8160   20.4690  -29.5300 C   0  0  0  0  0  0  0  0  0  0  0  0
   -0.4510   21.5120  -30.4000 C   0  0  0  0  0  0  0  0  0  0  0  0
   -0.9470   22.8030  -30.2000 C   0  0  0  0  0  0  0  0  0  0  0  0
   -1.8280   23.0640  -29.1450 C   0  0  0  0  0  0  0  0  0  0  0  0
   -2.4980   24.6790  -28.9490 S   0  0  0  0  0  0  0  0  0  0  0  0
   -1.3720   25.6700  -28.9240 O   0  0  0  0  0  0  0  0  0  0  0  0
   -3.2770   24.7890  -27.6680 O   0  0  0  0  0  0  0  0  0  0  0  0
   -3.5420   25.0450  -30.2830 N   0  0  0  0  0  0  0  0  0  0  0  0
   -4.5670   24.1800  -30.7950 C   0  0  0  0  0  0  0  0  0  0  0  0
   -4.2560   23.0490  -31.5730 C   0  0  0  0  0  0  0  0  0  0  0  0
   -5.2730   22.2470  -32.0940 C   0  0  0  0  0  0  0  0  0  0  0  0
   -6.6050   22.5540  -31.8350 C   0  0  0  0  0  0  0  0  0  0  0  0
   -6.9340   23.6650  -31.0550 C   0  0  0  0  0  0  0  0  0  0  0  0
   -5.9200   24.4850  -30.5330 C   0  0  0  0  0  0  0  0  0  0  0  0
   -6.2860   25.6780  -29.6940 C   0  0  0  0  0  0  0  0  0  0  0  0
   -2.2060   22.0240  -28.2860 C   0  0  0  0  0  0  0  0  0  0  0  0
   -1.7050   20.7340  -28.4820 C   0  0  0  0  0  0  0  0  0  0  0  0
   -1.9620   19.2620  -32.4190 C   0  0  0  0  0  0  0  0  0  0  0  0
   -2.4560   20.0790  -33.4300 C   0  0  0  0  0  0  0  0  0  0  0  0
   -1.5860   20.8150  -34.2270 C   0  0  0  0  0  0  0  0  0  0  0  0
   -0.1950   20.6950  -34.0660 C   0  0  0  0  0  0  0  0  0  0  0  0
   -0.7550   26.4624  -36.4567 H   0  0  0  0  0  0  0  0  0  0  0  0
   -1.0639   24.7054  -37.1259 H   0  0  0  0  0  0  0  0  0  0  0  0
    1.3459   25.7342  -35.4919 H   0  0  0  0  0  0  0  0  0  0  0  0
    1.3114   23.3528  -37.2464 H   0  0  0  0  0  0  0  0  0  0  0  0
    2.1656   23.5024  -35.6530 H   0  0  0  0  0  0  0  0  0  0  0  0
   -0.6960   22.6080  -35.9760 H   0  0  0  0  0  0  0  0  0  0  0  0
    2.7669   21.8628  -35.3350 H   0  0  0  0  0  0  0  0  0  0  0  0
    1.8190   17.7690  -31.8690 H   0  0  0  0  0  0  0  0  0  0  0  0
    0.2280   21.3106  -31.2417 H   0  0  0  0  0  0  0  0  0  0  0  0
   -0.6436   23.6171  -30.8746 H   0  0  0  0  0  0  0  0  0  0  0  0
   -3.2043   22.7953  -31.7719 H   0  0  0  0  0  0  0  0  0  0  0  0
   -5.0209   21.3713  -32.7101 H   0  0  0  0  0  0  0  0  0  0  0  0
   -7.4031   21.9186  -32.2466 H   0  0  0  0  0  0  0  0  0  0  0  0
   -7.9891   23.8982  -30.8491 H   0  0  0  0  0  0  0  0  0  0  0  0
   -6.2055   25.4157  -28.6288 H   0  0  0  0  0  0  0  0  0  0  0  0
   -5.6015   26.5089  -29.9197 H   0  0  0  0  0  0  0  0  0  0  0  0
   -7.3188   25.9821  -29.9197 H   0  0  0  0  0  0  0  0  0  0  0  0
   -2.8988   22.2231  -27.4551 H   0  0  0  0  0  0  0  0  0  0  0  0
   -2.0117   19.9209  -27.8075 H   0  0  0  0  0  0  0  0  0  0  0  0
   -2.6623   18.7324  -31.7564 H   0  0  0  0  0  0  0  0  0  0  0  0
   -3.5408   20.1434  -33.6002 H   0  0  0  0  0  0  0  0  0  0  0  0
   -1.9899   21.4968  -34.9899 H   0  0  0  0  0  0  0  0  0  0  0  0
  1  2  2  0
  2  3  1  0
  3  4  1  0
  4  5  1  0
  5  6  2  0
  6  7  1  0
  7  8  1  0
  7  9  2  0
  9 10  1  0
  9 11  1  0
 11 12  2  0
 12 13  1  0
 13 14  2  0
 13 15  1  0
 15 16  1  0
 16 17  2  0
 17 18  1  0
 18 19  2  0
 19 20  1  0
 20 21  2  0
 20 22  2  0
 20 23  1  0
 23 24  1  0
 24 25  2  0
 25 26  1  0
 26 27  2  0
 27 28  1  0
 28 29  2  0
 29 30  1  0
 19 31  1  0
 31 32  2  0
 12 33  1  0
 33 34  2  0
 34 35  1  0
 35 36  2  0
 36  5  1  0
 36 11  1  0
 32 16  1  0
 29 24  1  0
  1 37  1  0
  1 38  1  0
  2 39  1  0
  3 40  1  0
  3 41  1  0
  4 42  1  0
  6 43  1  0
 10 44  1  0
 17 45  1  0
 18 46  1  0
 25 47  1  0
 26 48  1  0
 27 49  1  0
 28 50  1  0
 30 51  1  0
 30 52  1  0
 30 53  1  0
 31 54  1  0
 32 55  1  0
 33 56  1  0
 34 57  1  0
 35 58  1  0
M  CHG  3   8  -1  15  -1  23  -1
M  END
>  <UniqueID>  (24) 
22

>  <SMILES>  (24) 
C=CCNc1cc([O-])c(O)c2c(C(=O)[N-]c3ccc(S(=O)(=O)[N-]c4ccccc4C)cc3)cccc12

>  <Energy>  (24) 
92.37551819948942

>  <Genealogy>  (24) 
C=CCNc1cc([O-])c(O)c2c(C(=O)[N-]c3ccc(S(=O)(=O)[N-]c4ccccc4C)cc3)cccc12 (protonated)
C=CCNc1cc([O-])c(O)c2c(C(=O)[N-]c3ccc(S(=O)(=O)[N-]c4ccccc4C)cc3)cccc12 (3D coordinates assigned)
C=CCNc1cc([O-])c(O)c2c(C(=O)[N-]c3ccc(S(=O)(=O)[N-]c4ccccc4C)cc3)cccc12 (optimized conformer: 92.37551819948942 kcal/mol)

>  <smiles>  (24) 
C=CCNc1cc(O)c(O)c2c(C(=O)Nc3ccc(S(=O)(=O)Nc4ccccc4C)cc3)cccc12

>  <score_type>  (24) 
oracle

>  <origin>  (24) 
adgpu

>  <m_score__min__energy>  (24) 
-12.380000000000001

>  <m_primary>  (24) 
energy

$$$$
24:0
     RDKit          3D

 37 39  0  0  0  0  0  0  0  0999 V2000
   -1.5990   25.7420  -28.9620 O   0  0  0  0  0  0  0  0  0  0  0  0
   -2.4410   24.8860  -29.3510 C   0  0  0  0  0  0  0  0  0  0  0  0
   -3.5290   25.2800  -30.2000 N   0  0  0  0  0  0  0  0  0  0  0  0
   -4.7350   24.5420  -30.4450 C   0  0  0  0  0  0  0  0  0  0  0  0
   -4.6400   23.2900  -31.0670 C   0  0  0  0  0  0  0  0  0  0  0  0
   -5.7910   22.5470  -31.3420 C   0  0  0  0  0  0  0  0  0  0  0  0
   -7.0540   23.0570  -31.0180 C   0  0  0  0  0  0  0  0  0  0  0  0
   -8.4930   22.1030  -31.3580 S   0  0  0  0  0  0  0  0  0  0  0  0
   -9.3460   22.8330  -32.3590 O   0  0  0  0  0  0  0  0  0  0  0  0
   -9.3020   21.9040  -30.1060 O   0  0  0  0  0  0  0  0  0  0  0  0
   -8.0060   20.5360  -31.9930 C   0  0  0  0  0  0  0  0  0  0  0  0
   -7.0720   20.4660  -33.0360 C   0  0  0  0  0  0  0  0  0  0  0  0
   -6.6920   19.2240  -33.5570 C   0  0  0  0  0  0  0  0  0  0  0  0
   -7.2470   18.0490  -33.0410 C   0  0  0  0  0  0  0  0  0  0  0  0
   -8.1840   18.1140  -32.0050 C   0  0  0  0  0  0  0  0  0  0  0  0
   -8.5670   19.3540  -31.4840 C   0  0  0  0  0  0  0  0  0  0  0  0
   -7.1570   24.3160  -30.4120 C   0  0  0  0  0  0  0  0  0  0  0  0
   -6.0050   25.0600  -30.1340 C   0  0  0  0  0  0  0  0  0  0  0  0
   -2.3340   23.4840  -28.8860 C   0  0  0  0  0  0  0  0  0  0  0  0
   -1.3800   22.6120  -29.4390 C   0  0  0  0  0  0  0  0  0  0  0  0
   -1.2930   21.2920  -28.9930 C   0  0  0  0  0  0  0  0  0  0  0  0
   -2.1600   20.8480  -27.9940 C   0  0  0  0  0  0  0  0  0  0  0  0
   -3.0790   21.6980  -27.4640 N   0  0  0  0  0  0  0  0  0  0  0  0
   -3.1860   22.9890  -27.8810 C   0  0  0  0  0  0  0  0  0  0  0  0
   -3.6528   22.8894  -31.3406 H   0  0  0  0  0  0  0  0  0  0  0  0
   -5.7045   21.5576  -31.8149 H   0  0  0  0  0  0  0  0  0  0  0  0
   -6.6368   21.3894  -33.4458 H   0  0  0  0  0  0  0  0  0  0  0  0
   -5.9562   19.1721  -34.3730 H   0  0  0  0  0  0  0  0  0  0  0  0
   -6.9465   17.0731  -33.4501 H   0  0  0  0  0  0  0  0  0  0  0  0
   -8.6201   17.1891  -31.5996 H   0  0  0  0  0  0  0  0  0  0  0  0
   -9.3093   19.4033  -30.6737 H   0  0  0  0  0  0  0  0  0  0  0  0
   -8.1467   24.7209  -30.1539 H   0  0  0  0  0  0  0  0  0  0  0  0
   -6.0930   26.0537  -29.6705 H   0  0  0  0  0  0  0  0  0  0  0  0
   -0.7000   22.9709  -30.2256 H   0  0  0  0  0  0  0  0  0  0  0  0
   -0.5477   20.6081  -29.4252 H   0  0  0  0  0  0  0  0  0  0  0  0
   -2.0999   19.8099  -27.6352 H   0  0  0  0  0  0  0  0  0  0  0  0
   -3.9420   23.6488  -27.4304 H   0  0  0  0  0  0  0  0  0  0  0  0
  1  2  2  0
  2  3  1  0
  3  4  1  0
  4  5  2  0
  5  6  1  0
  6  7  2  0
  7  8  1  0
  8  9  2  0
  8 10  2  0
  8 11  1  0
 11 12  2  0
 12 13  1  0
 13 14  2  0
 14 15  1  0
 15 16  2  0
  7 17  1  0
 17 18  2  0
  2 19  1  0
 19 20  2  0
 20 21  1  0
 21 22  2  0
 22 23  1  0
 23 24  2  0
 18  4  1  0
 24 19  1  0
 16 11  1  0
  5 25  1  0
  6 26  1  0
 12 27  1  0
 13 28  1  0
 14 29  1  0
 15 30  1  0
 16 31  1  0
 17 32  1  0
 18 33  1  0
 20 34  1  0
 21 35  1  0
 22 36  1  0
 24 37  1  0
M  CHG  1   3  -1
M  END
>  <UniqueID>  (25) 
23

>  <SMILES>  (25) 
O=C([N-]c1ccc(S(=O)(=O)c2ccccc2)cc1)c1cccnc1

>  <Energy>  (25) 
47.18930909926295

>  <Genealogy>  (25) 
O=C([N-]c1ccc(S(=O)(=O)c2ccccc2)cc1)c1cccnc1 (protonated)
O=C([N-]c1ccc(S(=O)(=O)c2ccccc2)cc1)c1cccnc1 (3D coordinates assigned)
O=C([N-]c1ccc(S(=O)(=O)c2ccccc2)cc1)c1cccnc1 (optimized conformer: 47.18930909926295 kcal/mol)

>  <smiles>  (25) 
O=C(Nc1ccc(S(=O)(=O)c2ccccc2)cc1)c1cccnc1

>  <score_type>  (25) 
oracle

>  <origin>  (25) 
adgpu

>  <m_score__min__energy>  (25) 
-11.09

>  <m_primary>  (25) 
energy

$$$$
25:0
     RDKit          3D

 50 52  0  0  0  0  0  0  0  0999 V2000
    0.2020   23.1780  -35.7340 N   0  0  0  0  0  0  0  0  0  0  0  0
    0.7500   21.5830  -35.3560 S   0  0  0  0  0  0  0  0  0  0  0  0
    1.9360   21.6590  -34.4360 O   0  0  0  0  0  0  0  0  0  0  0  0
    1.1650   20.8830  -36.6200 O   0  0  0  0  0  0  0  0  0  0  0  0
   -0.5500   20.6870  -34.5760 C   0  0  0  0  0  0  0  0  0  0  0  0
   -0.6500   19.2990  -34.7440 C   0  0  0  0  0  0  0  0  0  0  0  0
   -1.6900   18.5900  -34.1350 C   0  0  0  0  0  0  0  0  0  0  0  0
   -2.6390   19.2620  -33.3470 C   0  0  0  0  0  0  0  0  0  0  0  0
   -3.7770   18.5060  -32.7260 C   0  0  0  0  0  0  0  0  0  0  0  0
   -4.5770   17.8920  -33.7820 N   0  0  0  0  0  0  0  0  0  0  0  0
   -6.1270   17.4260  -33.1520 S   0  0  0  0  0  0  0  0  0  0  0  0
   -6.8660   16.6030  -34.1710 O   0  0  0  0  0  0  0  0  0  0  0  0
   -5.9260   16.5890  -31.9210 O   0  0  0  0  0  0  0  0  0  0  0  0
   -7.0670   18.8560  -32.7310 C   0  0  0  0  0  0  0  0  0  0  0  0
   -8.4400   18.7380  -32.4740 C   0  0  0  0  0  0  0  0  0  0  0  0
   -9.1870   19.8650  -32.1250 C   0  0  0  0  0  0  0  0  0  0  0  0
   -8.5680   21.1140  -32.0230 C   0  0  0  0  0  0  0  0  0  0  0  0
   -7.1930   21.2400  -32.2640 C   0  0  0  0  0  0  0  0  0  0  0  0
   -6.4280   22.8220  -32.1400 S   0  0  0  0  0  0  0  0  0  0  0  0
   -7.1970   23.8240  -32.9560 O   0  0  0  0  0  0  0  0  0  0  0  0
   -5.0350   22.7210  -32.6960 O   0  0  0  0  0  0  0  0  0  0  0  0
   -6.3760   23.3030  -30.4570 N   0  0  0  0  0  0  0  0  0  0  0  0
   -6.8060   24.7060  -30.2710 C   0  0  0  0  0  0  0  0  0  0  0  0
   -5.6200   25.6780  -30.1260 C   0  0  0  0  0  0  0  0  0  0  0  0
   -4.5240   25.2300  -30.8900 O   0  0  0  0  0  0  0  0  0  0  0  0
   -3.9840   24.0480  -30.3250 C   0  0  0  0  0  0  0  0  0  0  0  0
   -5.0570   23.0370  -29.8570 C   0  0  0  0  0  0  0  0  0  0  0  0
   -6.4460   20.1080  -32.6220 C   0  0  0  0  0  0  0  0  0  0  0  0
   -2.5500   20.6550  -33.2010 C   0  0  0  0  0  0  0  0  0  0  0  0
   -1.5080   21.3620  -33.8100 C   0  0  0  0  0  0  0  0  0  0  0  0
   -0.8160   23.1070  -35.9550 H   0  0  0  0  0  0  0  0  0  0  0  0
    0.6840   23.4640  -36.6160 H   0  0  0  0  0  0  0  0  0  0  0  0
    0.0919   18.7659  -35.3567 H   0  0  0  0  0  0  0  0  0  0  0  0
   -1.7653   17.5014  -34.2736 H   0  0  0  0  0  0  0  0  0  0  0  0
   -3.3805   17.7235  -32.0624 H   0  0  0  0  0  0  0  0  0  0  0  0
   -4.4033   19.1951  -32.1405 H   0  0  0  0  0  0  0  0  0  0  0  0
   -8.9298   17.7558  -32.5474 H   0  0  0  0  0  0  0  0  0  0  0  0
  -10.2653   19.7696  -31.9299 H   0  0  0  0  0  0  0  0  0  0  0  0
   -9.1613   22.0001  -31.7530 H   0  0  0  0  0  0  0  0  0  0  0  0
   -7.4045   25.0090  -31.1428 H   0  0  0  0  0  0  0  0  0  0  0  0
   -7.3897   24.7535  -29.3398 H   0  0  0  0  0  0  0  0  0  0  0  0
   -5.9234   26.6754  -30.4769 H   0  0  0  0  0  0  0  0  0  0  0  0
   -5.3232   25.7248  -29.0678 H   0  0  0  0  0  0  0  0  0  0  0  0
   -3.3520   23.5589  -31.0809 H   0  0  0  0  0  0  0  0  0  0  0  0
   -3.4145   24.3487  -29.4332 H   0  0  0  0  0  0  0  0  0  0  0  0
   -4.7366   22.0240  -30.1420 H   0  0  0  0  0  0  0  0  0  0  0  0
   -5.1580   23.1347  -28.7660 H   0  0  0  0  0  0  0  0  0  0  0  0
   -5.3678   20.2032  -32.8181 H   0  0  0  0  0  0  0  0  0  0  0  0
   -3.3024   21.1928  -32.6055 H   0  0  0  0  0  0  0  0  0  0  0  0
   -1.4410   22.4530  -33.6866 H   0  0  0  0  0  0  0  0  0  0  0  0
  1  2  1  0
  2  3  2  0
  2  4  2  0
  2  5  1  0
  5  6  2  0
  6  7  1  0
  7  8  2  0
  8  9  1  0
  9 10  1  0
 10 11  1  0
 11 12  2  0
 11 13  2  0
 11 14  1  0
 14 15  2  0
 15 16  1  0
 16 17  2  0
 17 18  1  0
 18 19  1  0
 19 20  2  0
 19 21  2  0
 19 22  1  0
 22 23  1  0
 23 24  1  0
 24 25  1  0
 25 26  1  0
 26 27  1  0
 18 28  2  0
  8 29  1  0
 29 30  2  0
 30  5  1  0
 28 14  1  0
 27 22  1  0
  1 31  1  0
  1 32  1  0
  6 33  1  0
  7 34  1  0
  9 35  1  0
  9 36  1  0
 15 37  1  0
 16 38  1  0
 17 39  1  0
 23 40  1  0
 23 41  1  0
 24 42  1  0
 24 43  1  0
 26 44  1  0
 26 45  1  0
 27 46  1  0
 27 47  1  0
 28 48  1  0
 29 49  1  0
 30 50  1  0
M  CHG  1  10  -1
M  END
>  <UniqueID>  (26) 
24

>  <SMILES>  (26) 
NS(=O)(=O)c1ccc(C[N-]S(=O)(=O)c2cccc(S(=O)(=O)N3CCOCC3)c2)cc1

>  <Energy>  (26) 
58.17032811443901

>  <Genealogy>  (26) 
NS(=O)(=O)c1ccc(C[N-]S(=O)(=O)c2cccc(S(=O)(=O)N3CCOCC3)c2)cc1 (protonated)
NS(=O)(=O)c1ccc(C[N-]S(=O)(=O)c2cccc(S(=O)(=O)N3CCOCC3)c2)cc1 (3D coordinates assigned)
NS(=O)(=O)c1ccc(C[N-]S(=O)(=O)c2cccc(S(=O)(=O)N3CCOCC3)c2)cc1 (nonaromatic ring conformer: 58.17032811443901 kcal/mol)

>  <smiles>  (26) 
NS(=O)(=O)c1ccc(CNS(=O)(=O)c2cccc(S(=O)(=O)N3CCOCC3)c2)cc1

>  <score_type>  (26) 
oracle

>  <origin>  (26) 
adgpu

>  <m_score__min__energy>  (26) 
-11.630000000000001

>  <m_primary>  (26) 
energy

$$$$
26:0
     RDKit          3D

 50 52  0  0  0  0  0  0  0  0999 V2000
   -9.5420   21.9930  -31.9490 C   0  0  0  0  0  0  0  0  0  0  0  0
   -8.2400   22.5590  -31.4650 C   0  0  0  0  0  0  0  0  0  0  0  0
   -7.3990   23.2540  -32.3470 C   0  0  0  0  0  0  0  0  0  0  0  0
   -6.1680   23.7480  -31.9050 C   0  0  0  0  0  0  0  0  0  0  0  0
   -5.7560   23.5360  -30.5820 C   0  0  0  0  0  0  0  0  0  0  0  0
   -4.2190   24.1700  -30.0030 S   0  0  0  0  0  0  0  0  0  0  0  0
   -3.8730   25.3810  -30.8260 O   0  0  0  0  0  0  0  0  0  0  0  0
   -4.3220   24.5780  -28.5600 O   0  0  0  0  0  0  0  0  0  0  0  0
   -2.9890   22.9520  -30.1750 N   0  0  0  0  0  0  0  0  0  0  0  0
   -1.7710   23.0530  -29.3700 C   0  0  0  0  0  0  0  0  0  0  0  0
   -3.1600   21.8610  -31.0990 C   0  0  0  0  0  0  0  0  0  0  0  0
   -3.9930   20.7770  -30.7870 C   0  0  0  0  0  0  0  0  0  0  0  0
   -4.1540   19.7290  -31.6940 C   0  0  0  0  0  0  0  0  0  0  0  0
   -3.4820   19.7650  -32.9300 C   0  0  0  0  0  0  0  0  0  0  0  0
   -3.6390   18.7160  -33.9160 N   0  0  0  0  0  0  0  0  0  0  0  0
   -2.4860   17.8580  -34.2170 C   0  0  0  0  0  0  0  0  0  0  0  0
   -4.8880   18.5480  -34.6800 C   0  0  0  0  0  0  0  0  0  0  0  0
   -6.0780   18.5610  -33.7570 C   0  0  0  0  0  0  0  0  0  0  0  0
   -6.3630   17.4390  -32.9620 C   0  0  0  0  0  0  0  0  0  0  0  0
   -7.4730   17.4410  -32.1120 C   0  0  0  0  0  0  0  0  0  0  0  0
   -8.3040   18.5620  -32.0470 C   0  0  0  0  0  0  0  0  0  0  0  0
   -8.0230   19.6870  -32.8290 C   0  0  0  0  0  0  0  0  0  0  0  0
   -6.9130   19.6900  -33.6800 C   0  0  0  0  0  0  0  0  0  0  0  0
   -2.6590   20.8190  -33.1970 N   0  0  0  0  0  0  0  0  0  0  0  0
   -2.4820   21.8470  -32.3270 C   0  0  0  0  0  0  0  0  0  0  0  0
   -6.5900   22.8320  -29.7030 C   0  0  0  0  0  0  0  0  0  0  0  0
   -7.8210   22.3370  -30.1430 C   0  0  0  0  0  0  0  0  0  0  0  0
  -10.1672   21.7212  -31.0857 H   0  0  0  0  0  0  0  0  0  0  0  0
  -10.0649   22.7450  -32.5581 H   0  0  0  0  0  0  0  0  0  0  0  0
   -9.3488   21.0977  -32.5581 H   0  0  0  0  0  0  0  0  0  0  0  0
   -7.7094   23.4109  -33.3906 H   0  0  0  0  0  0  0  0  0  0  0  0
   -5.5204   24.3051  -32.5980 H   0  0  0  0  0  0  0  0  0  0  0  0
   -2.0344   23.0312  -28.3022 H   0  0  0  0  0  0  0  0  0  0  0  0
   -1.1074   22.2068  -29.6014 H   0  0  0  0  0  0  0  0  0  0  0  0
   -1.2558   23.9969  -29.6014 H   0  0  0  0  0  0  0  0  0  0  0  0
   -4.5219   20.7527  -29.8228 H   0  0  0  0  0  0  0  0  0  0  0  0
   -4.8040   18.8776  -31.4438 H   0  0  0  0  0  0  0  0  0  0  0  0
   -2.0275   17.5168  -33.2771 H   0  0  0  0  0  0  0  0  0  0  0  0
   -2.8195   16.9867  -34.7997 H   0  0  0  0  0  0  0  0  0  0  0  0
   -1.7472   18.4277  -34.7997 H   0  0  0  0  0  0  0  0  0  0  0  0
   -4.9827   19.3707  -35.4040 H   0  0  0  0  0  0  0  0  0  0  0  0
   -4.8561   17.5819  -35.2050 H   0  0  0  0  0  0  0  0  0  0  0  0
   -5.7102   16.5549  -33.0083 H   0  0  0  0  0  0  0  0  0  0  0  0
   -7.6924   16.5583  -31.4933 H   0  0  0  0  0  0  0  0  0  0  0  0
   -9.1793   18.5599  -31.3808 H   0  0  0  0  0  0  0  0  0  0  0  0
   -8.6758   20.5707  -32.7747 H   0  0  0  0  0  0  0  0  0  0  0  0
   -6.6925   20.5779  -34.2908 H   0  0  0  0  0  0  0  0  0  0  0  0
   -1.8034   22.6729  -32.5867 H   0  0  0  0  0  0  0  0  0  0  0  0
   -6.2745   22.6682  -28.6620 H   0  0  0  0  0  0  0  0  0  0  0  0
   -8.4635   21.7719  -29.4517 H   0  0  0  0  0  0  0  0  0  0  0  0
  1  2  1  0
  2  3  2  0
  3  4  1  0
  4  5  2  0
  5  6  1  0
  6  7  2  0
  6  8  2  0
  6  9  1  0
  9 10  1  0
  9 11  1  0
 11 12  2  0
 12 13  1  0
 13 14  2  0
 14 15  1  0
 15 16  1  0
 15 17  1  0
 17 18  1  0
 18 19  2  0
 19 20  1  0
 20 21  2  0
 21 22  1  0
 22 23  2  0
 14 24  1  0
 24 25  2  0
  5 26  1  0
 26 27  2  0
 27  2  1  0
 25 11  1  0
 23 18  1  0
  1 28  1  0
  1 29  1  0
  1 30  1  0
  3 31  1  0
  4 32  1  0
 10 33  1  0
 10 34  1  0
 10 35  1  0
 12 36  1  0
 13 37  1  0
 16 38  1  0
 16 39  1  0
 16 40  1  0
 17 41  1  0
 17 42  1  0
 19 43  1  0
 20 44  1  0
 21 45  1  0
 22 46  1  0
 23 47  1  0
 25 48  1  0
 26 49  1  0
 27 50  1  0
M  END
>  <UniqueID>  (27) 
25

>  <SMILES>  (27) 
Cc1ccc(S(=O)(=O)N(C)c2ccc(N(C)Cc3ccccc3)nc2)cc1

>  <Energy>  (27) 
56.32883274466248

>  <Genealogy>  (27) 
Cc1ccc(S(=O)(=O)N(C)c2ccc(N(C)Cc3ccccc3)nc2)cc1 (3D coordinates assigned)
Cc1ccc(S(=O)(=O)N(C)c2ccc(N(C)Cc3ccccc3)nc2)cc1 (optimized conformer: 56.32883274466248 kcal/mol)

>  <smiles>  (27) 
Cc1ccc(S(=O)(=O)N(C)c2ccc(N(C)Cc3ccccc3)nc2)cc1

>  <score_type>  (27) 
oracle

>  <origin>  (27) 
adgpu

>  <m_score__min__energy>  (27) 
-9.25

>  <m_primary>  (27) 
energy

$$$$
27:0
     RDKit          3D

 49 51  0  0  0  0  0  0  0  0999 V2000
    0.1420   24.6130  -26.9840 C   0  0  0  0  0  0  0  0  0  0  0  0
   -0.9600   25.3050  -26.2730 N   0  0  0  0  0  0  0  0  0  0  0  0
   -0.8080   26.7640  -26.4870 C   0  0  0  0  0  0  0  0  0  0  0  0
   -0.8490   25.0000  -24.8270 C   0  0  0  0  0  0  0  0  0  0  0  0
   -2.2580   24.8150  -26.8300 C   0  0  0  0  0  0  0  0  0  0  0  0
   -2.3660   24.9190  -28.3390 C   0  0  0  0  0  0  0  0  0  0  0  0
   -1.5600   25.6600  -28.9660 O   0  0  0  0  0  0  0  0  0  0  0  0
   -3.3880   24.1700  -29.0990 C   0  0  0  0  0  0  0  0  0  0  0  0
   -4.7460   24.5140  -29.0190 C   0  0  0  0  0  0  0  0  0  0  0  0
   -5.7080   23.7700  -29.7070 C   0  0  0  0  0  0  0  0  0  0  0  0
   -5.3290   22.6690  -30.4920 C   0  0  0  0  0  0  0  0  0  0  0  0
   -6.3530   21.8630  -31.1980 C   0  0  0  0  0  0  0  0  0  0  0  0
   -7.6690   22.3410  -31.3220 C   0  0  0  0  0  0  0  0  0  0  0  0
   -8.6380   21.5760  -31.9720 C   0  0  0  0  0  0  0  0  0  0  0  0
   -8.3080   20.3320  -32.5120 C   0  0  0  0  0  0  0  0  0  0  0  0
   -6.9970   19.8400  -32.4120 C   0  0  0  0  0  0  0  0  0  0  0  0
   -6.6550   18.5260  -33.0040 C   0  0  0  0  0  0  0  0  0  0  0  0
   -6.4660   17.4540  -32.3100 N   0  0  0  0  0  0  0  0  0  0  0  0
   -6.1260   16.3360  -33.1760 C   0  0  0  0  0  0  0  0  0  0  0  0
   -6.1400   16.9240  -34.5960 C   0  0  0  0  0  0  0  0  0  0  0  0
   -6.4750   18.3220  -34.3940 N   0  0  0  0  0  0  0  0  0  0  0  0
   -6.0260   20.6090  -31.7460 C   0  0  0  0  0  0  0  0  0  0  0  0
   -3.9680   22.3280  -30.5760 C   0  0  0  0  0  0  0  0  0  0  0  0
   -3.0080   23.0650  -29.8750 C   0  0  0  0  0  0  0  0  0  0  0  0
    0.8356   24.1774  -26.2497 H   0  0  0  0  0  0  0  0  0  0  0  0
   -0.2737   23.8135  -27.6149 H   0  0  0  0  0  0  0  0  0  0  0  0
    0.6816   25.3347  -27.6149 H   0  0  0  0  0  0  0  0  0  0  0  0
   -0.7549   27.2738  -25.5137 H   0  0  0  0  0  0  0  0  0  0  0  0
    0.1151   26.9574  -27.0530 H   0  0  0  0  0  0  0  0  0  0  0  0
   -1.6715   27.1435  -27.0530 H   0  0  0  0  0  0  0  0  0  0  0  0
   -1.1676   25.8754  -24.2421 H   0  0  0  0  0  0  0  0  0  0  0  0
   -1.4925   24.1419  -24.5828 H   0  0  0  0  0  0  0  0  0  0  0  0
    0.1955   24.7562  -24.5828 H   0  0  0  0  0  0  0  0  0  0  0  0
   -2.3777   23.7586  -26.5476 H   0  0  0  0  0  0  0  0  0  0  0  0
   -3.0449   25.4599  -26.4117 H   0  0  0  0  0  0  0  0  0  0  0  0
   -5.0556   25.3761  -28.4099 H   0  0  0  0  0  0  0  0  0  0  0  0
   -6.7696   24.0486  -29.6332 H   0  0  0  0  0  0  0  0  0  0  0  0
   -7.9362   23.3230  -30.9045 H   0  0  0  0  0  0  0  0  0  0  0  0
   -9.6669   21.9551  -32.0593 H   0  0  0  0  0  0  0  0  0  0  0  0
   -9.0795   19.7337  -33.0188 H   0  0  0  0  0  0  0  0  0  0  0  0
   -6.5160   17.3920  -31.2680 H   0  0  0  0  0  0  0  0  0  0  0  0
   -5.1288   15.9431  -32.9287 H   0  0  0  0  0  0  0  0  0  0  0  0
   -6.8280   15.4962  -33.0664 H   0  0  0  0  0  0  0  0  0  0  0  0
   -5.1528   16.8231  -35.0707 H   0  0  0  0  0  0  0  0  0  0  0  0
   -6.8506   16.4101  -35.2600 H   0  0  0  0  0  0  0  0  0  0  0  0
   -6.6900   19.0010  -35.1540 H   0  0  0  0  0  0  0  0  0  0  0  0
   -4.9992   20.2258  -31.6524 H   0  0  0  0  0  0  0  0  0  0  0  0
   -3.6558   21.4757  -31.1973 H   0  0  0  0  0  0  0  0  0  0  0  0
   -1.9481   22.7762  -29.9326 H   0  0  0  0  0  0  0  0  0  0  0  0
  1  2  1  0
  2  3  1  0
  2  4  1  0
  2  5  1  0
  5  6  1  0
  6  7  2  0
  6  8  1  0
  8  9  2  0
  9 10  1  0
 10 11  2  0
 11 12  1  0
 12 13  2  0
 13 14  1  0
 14 15  2  0
 15 16  1  0
 16 17  1  0
 17 18  2  0
 18 19  1  0
 19 20  1  0
 20 21  1  0
 16 22  2  0
 11 23  1  0
 23 24  2  0
 24  8  1  0
 22 12  1  0
 21 17  1  0
  1 25  1  0
  1 26  1  0
  1 27  1  0
  3 28  1  0
  3 29  1  0
  3 30  1  0
  4 31  1  0
  4 32  1  0
  4 33  1  0
  5 34  1  0
  5 35  1  0
  9 36  1  0
 10 37  1  0
 13 38  1  0
 14 39  1  0
 15 40  1  0
 18 41  1  0
 19 42  1  0
 19 43  1  0
 20 44  1  0
 20 45  1  0
 21 46  1  0
 22 47  1  0
 23 48  1  0
 24 49  1  0
M  CHG  2   2   1  18   1
M  END
>  <UniqueID>  (28) 
26

>  <SMILES>  (28) 
C[N+](C)(C)CC(=O)c1ccc(-c2cccc(C3=[NH+]CCN3)c2)cc1

>  <Energy>  (28) 
78.49164951165962

>  <Genealogy>  (28) 
C[N+](C)(C)CC(=O)c1ccc(-c2cccc(C3=[NH+]CCN3)c2)cc1 (protonated)
C[N+](C)(C)CC(=O)c1ccc(-c2cccc(C3=[NH+]CCN3)c2)cc1 (3D coordinates assigned)
C[N+](C)(C)CC(=O)c1ccc(-c2cccc(C3=[NH+]CCN3)c2)cc1 (nonaromatic ring conformer: 78.49164951165962 kcal/mol)

>  <smiles>  (28) 
C[N+](C)(C)CC(=O)c1ccc(-c2cccc(C3=NCCN3)c2)cc1

>  <score_type>  (28) 
oracle

>  <origin>  (28) 
adgpu

>  <m_score__min__energy>  (28) 
-7.0899999999999999

>  <m_primary>  (28) 
energy

$$$$
28:0
     RDKit          3D

 38 40  0  0  0  0  0  0  0  0999 V2000
   -8.2436   24.0697  -30.7606 H   0  0  0  0  0  0  0  0  0  0  0  0
   -7.1780   23.8290  -30.8890 C   0  0  0  0  0  0  0  0  0  0  0  0
   -6.7930   22.6340  -31.5150 C   0  0  0  0  0  0  0  0  0  0  0  0
   -7.7620   21.6780  -31.9700 N   0  0  0  0  0  0  0  0  0  0  0  0
   -8.7630   21.9780  -31.9900 H   0  0  0  0  0  0  0  0  0  0  0  0
   -7.4530   20.3360  -32.3860 C   0  0  0  0  0  0  0  0  0  0  0  0
   -6.4970   20.1290  -33.3910 C   0  0  0  0  0  0  0  0  0  0  0  0
   -5.9770   20.9904  -33.8356 H   0  0  0  0  0  0  0  0  0  0  0  0
   -6.2000   18.8360  -33.8320 C   0  0  0  0  0  0  0  0  0  0  0  0
   -5.4410   18.6826  -34.6132 H   0  0  0  0  0  0  0  0  0  0  0  0
   -6.8680   17.7360  -33.2800 C   0  0  0  0  0  0  0  0  0  0  0  0
   -6.5640   16.4040  -33.7350 C   0  0  0  0  0  0  0  0  0  0  0  0
   -6.3180   15.3340  -34.0990 N   0  0  0  0  0  0  0  0  0  0  0  0
   -7.8400   17.9360  -32.2920 C   0  0  0  0  0  0  0  0  0  0  0  0
   -8.3707   17.0740  -31.8614 H   0  0  0  0  0  0  0  0  0  0  0  0
   -8.1370   19.2290  -31.8520 C   0  0  0  0  0  0  0  0  0  0  0  0
   -8.9097   19.3817  -31.0841 H   0  0  0  0  0  0  0  0  0  0  0  0
   -5.4710   22.3400  -31.6320 N   0  0  0  0  0  0  0  0  0  0  0  0
   -4.4880   23.1840  -31.2030 C   0  0  0  0  0  0  0  0  0  0  0  0
   -3.2310   22.8580  -31.3250 N   0  0  0  0  0  0  0  0  0  0  0  0
   -2.6990   21.6890  -31.9700 C   0  0  0  0  0  0  0  0  0  0  0  0
   -3.2720   21.2690  -33.1780 C   0  0  0  0  0  0  0  0  0  0  0  0
   -4.0948   21.8480  -33.6227 H   0  0  0  0  0  0  0  0  0  0  0  0
   -2.8050   20.1190  -33.8220 C   0  0  0  0  0  0  0  0  0  0  0  0
   -3.2496   19.8064  -34.7784 H   0  0  0  0  0  0  0  0  0  0  0  0
   -1.7730   19.3650  -33.2520 C   0  0  0  0  0  0  0  0  0  0  0  0
   -1.2940   18.1800  -33.9130 C   0  0  0  0  0  0  0  0  0  0  0  0
   -0.9090   17.2270  -34.4450 N   0  0  0  0  0  0  0  0  0  0  0  0
   -1.2170   19.7600  -32.0280 C   0  0  0  0  0  0  0  0  0  0  0  0
   -0.4121   19.1643  -31.5727 H   0  0  0  0  0  0  0  0  0  0  0  0
   -1.6840   20.9110  -31.3840 C   0  0  0  0  0  0  0  0  0  0  0  0
   -1.2557   21.2088  -30.4155 H   0  0  0  0  0  0  0  0  0  0  0  0
   -4.8420   24.3970  -30.5820 C   0  0  0  0  0  0  0  0  0  0  0  0
   -3.8460   25.3090  -30.1030 N   0  0  0  0  0  0  0  0  0  0  0  0
   -3.8330   25.6340  -29.1100 H   0  0  0  0  0  0  0  0  0  0  0  0
   -3.1030   25.6690  -30.7430 H   0  0  0  0  0  0  0  0  0  0  0  0
   -6.1980   24.7090  -30.4310 C   0  0  0  0  0  0  0  0  0  0  0  0
   -6.4921   25.6529  -29.9487 H   0  0  0  0  0  0  0  0  0  0  0  0
  1  2  1  0
  2  3  2  0
  3  4  1  0
  4  5  1  0
  4  6  1  0
  6  7  2  0
  7  8  1  0
  7  9  1  0
  9 10  1  0
  9 11  2  0
 11 12  1  0
 12 13  3  0
 11 14  1  0
 14 15  1  0
 14 16  2  0
 16 17  1  0
  3 18  1  0
 18 19  1  0
 19 20  2  0
 20 21  1  0
 21 22  2  0
 22 23  1  0
 22 24  1  0
 24 25  1  0
 24 26  2  0
 26 27  1  0
 27 28  3  0
 26 29  1  0
 29 30  1  0
 29 31  2  0
 31 32  1  0
 19 33  1  0
 33 34  1  0
 34 35  1  0
 34 36  1  0
 33 37  2  0
 37 38  1  0
 37  2  1  0
 16  6  1  0
 31 21  1  0
M  CHG  1  18  -1
M  END
>  <UniqueID>  (29) 
27

>  <SMILES>  (29) 
N#Cc1ccc(/N=c2\[n-]c(Nc3ccc(C#N)cc3)ccc2N)cc1

>  <Energy>  (29) 
51.412926158586075

>  <Genealogy>  (29) 
N#Cc1ccc(N=c2[n-]c(Nc3ccc(C#N)cc3)ccc2N)cc1 (protonated)
N#Cc1ccc(/N=c2\[n-]c(Nc3ccc(C#N)cc3)ccc2N)cc1 (cis-trans isomerization)
N#Cc1ccc(/N=c2\[n-]c(Nc3ccc(C#N)cc3)ccc2N)cc1 (3D coordinates assigned)
N#Cc1ccc(/N=c2\[n-]c(Nc3ccc(C#N)cc3)ccc2N)cc1 (optimized conformer: 51.412926158586075 kcal/mol)

>  <smiles>  (29) 
N#Cc1ccc(N=c2[nH]c(Nc3ccc(C#N)cc3)ccc2N)cc1

>  <score_type>  (29) 
oracle

>  <origin>  (29) 
adgpu

>  <m_score__min__energy>  (29) 
-9.8000000000000007

>  <m_primary>  (29) 
energy

$$$$
29:0
     RDKit          3D

 51 52  0  0  0  0  0  0  0  0999 V2000
   -6.8760   25.6950  -29.3180 C   0  0  0  0  0  0  0  0  0  0  0  0
   -5.8020   26.0160  -30.0360 C   0  0  0  0  0  0  0  0  0  0  0  0
   -5.0700   25.0450  -30.8740 C   0  0  0  0  0  0  0  0  0  0  0  0
   -5.6730   24.5190  -31.8460 O   0  0  0  0  0  0  0  0  0  0  0  0
   -3.7040   24.6760  -30.6310 N   0  0  0  0  0  0  0  0  0  0  0  0
   -3.0820   23.4340  -30.9930 C   0  0  0  0  0  0  0  0  0  0  0  0
   -3.6920   22.6630  -31.9900 C   0  0  0  0  0  0  0  0  0  0  0  0
   -3.1890   21.3970  -32.3350 C   0  0  0  0  0  0  0  0  0  0  0  0
   -3.8210   20.5800  -33.3380 N   0  0  0  0  0  0  0  0  0  0  0  0
   -5.0890   19.9310  -33.1550 C   0  0  0  0  0  0  0  0  0  0  0  0
   -6.2270   20.6520  -32.7400 C   0  0  0  0  0  0  0  0  0  0  0  0
   -6.1830   22.0720  -32.5460 N   0  0  0  0  0  0  0  0  0  0  0  0
   -7.4300   19.9710  -32.5420 C   0  0  0  0  0  0  0  0  0  0  0  0
   -7.5000   18.5990  -32.7850 C   0  0  0  0  0  0  0  0  0  0  0  0
   -6.4050   17.9120  -33.2250 N   0  0  0  0  0  0  0  0  0  0  0  0
   -6.5100   16.4680  -33.4700 C   0  0  0  0  0  0  0  0  0  0  0  0
   -5.2070   18.5530  -33.4070 C   0  0  0  0  0  0  0  0  0  0  0  0
   -4.1930   17.9070  -33.7920 O   0  0  0  0  0  0  0  0  0  0  0  0
   -2.0650   20.9070  -31.6620 C   0  0  0  0  0  0  0  0  0  0  0  0
   -1.4250   21.6800  -30.6930 C   0  0  0  0  0  0  0  0  0  0  0  0
   -1.9040   22.9590  -30.3630 C   0  0  0  0  0  0  0  0  0  0  0  0
   -1.1200   23.7880  -29.4190 C   0  0  0  0  0  0  0  0  0  0  0  0
   -0.1190   23.3000  -28.8280 O   0  0  0  0  0  0  0  0  0  0  0  0
   -1.5190   25.1380  -29.1560 N   0  0  0  0  0  0  0  0  0  0  0  0
   -1.5420   25.7290  -27.8230 C   0  0  0  0  0  0  0  0  0  0  0  0
   -2.3930   24.8790  -26.8760 C   0  0  0  0  0  0  0  0  0  0  0  0
   -3.7070   24.4590  -27.5460 C   0  0  0  0  0  0  0  0  0  0  0  0
   -3.8530   22.9400  -27.5690 C   0  0  0  0  0  0  0  0  0  0  0  0
   -7.3812   26.4611  -28.7115 H   0  0  0  0  0  0  0  0  0  0  0  0
   -7.2583   24.6636  -29.3312 H   0  0  0  0  0  0  0  0  0  0  0  0
   -5.4423   27.0550  -30.0035 H   0  0  0  0  0  0  0  0  0  0  0  0
   -4.5783   23.0542  -32.5110 H   0  0  0  0  0  0  0  0  0  0  0  0
   -3.2810   20.3460  -34.2020 H   0  0  0  0  0  0  0  0  0  0  0  0
   -5.7010   22.6860  -33.2380 H   0  0  0  0  0  0  0  0  0  0  0  0
   -6.5780   22.5230  -31.6920 H   0  0  0  0  0  0  0  0  0  0  0  0
   -8.3207   20.5153  -32.1951 H   0  0  0  0  0  0  0  0  0  0  0  0
   -8.4474   18.0649  -32.6204 H   0  0  0  0  0  0  0  0  0  0  0  0
   -6.5488   15.9348  -32.5086 H   0  0  0  0  0  0  0  0  0  0  0  0
   -7.4257   16.2589  -34.0425 H   0  0  0  0  0  0  0  0  0  0  0  0
   -5.6342   16.1286  -34.0425 H   0  0  0  0  0  0  0  0  0  0  0  0
   -1.6823   19.9033  -31.8989 H   0  0  0  0  0  0  0  0  0  0  0  0
   -0.5354   21.2838  -30.1816 H   0  0  0  0  0  0  0  0  0  0  0  0
   -0.5146   25.7860  -27.4342 H   0  0  0  0  0  0  0  0  0  0  0  0
   -1.9787   26.7365  -27.8873 H   0  0  0  0  0  0  0  0  0  0  0  0
   -1.8280   23.9778  -26.5956 H   0  0  0  0  0  0  0  0  0  0  0  0
   -2.6299   25.4781  -25.9844 H   0  0  0  0  0  0  0  0  0  0  0  0
   -4.5495   24.8921  -26.9869 H   0  0  0  0  0  0  0  0  0  0  0  0
   -3.7017   24.8245  -28.5835 H   0  0  0  0  0  0  0  0  0  0  0  0
   -3.8896   22.5595  -26.5376 H   0  0  0  0  0  0  0  0  0  0  0  0
   -4.7814   22.6688  -28.0930 H   0  0  0  0  0  0  0  0  0  0  0  0
   -2.9933   22.4969  -28.0930 H   0  0  0  0  0  0  0  0  0  0  0  0
  1  2  2  0
  2  3  1  0
  3  4  2  0
  3  5  1  0
  5  6  1  0
  6  7  2  0
  7  8  1  0
  8  9  1  0
  9 10  1  0
 10 11  2  0
 11 12  1  0
 11 13  1  0
 13 14  2  0
 14 15  1  0
 15 16  1  0
 15 17  1  0
 17 18  2  0
  8 19  2  0
 19 20  1  0
 20 21  2  0
 21 22  1  0
 22 23  2  0
 22 24  1  0
 24 25  1  0
 25 26  1  0
 26 27  1  0
 27 28  1  0
 21  6  1  0
 17 10  1  0
  1 29  1  0
  1 30  1  0
  2 31  1  0
  7 32  1  0
  9 33  1  0
 12 34  1  0
 12 35  1  0
 13 36  1  0
 14 37  1  0
 16 38  1  0
 16 39  1  0
 16 40  1  0
 19 41  1  0
 20 42  1  0
 25 43  1  0
 25 44  1  0
 26 45  1  0
 26 46  1  0
 27 47  1  0
 27 48  1  0
 28 49  1  0
 28 50  1  0
 28 51  1  0
M  CHG  2   5  -1  24  -1
M  END
>  <UniqueID>  (30) 
28

>  <SMILES>  (30) 
C=CC(=O)[N-]c1cc(Nc2c(N)ccn(C)c2=O)ccc1C(=O)[N-]CCCC

>  <Energy>  (30) 
62.168448147287805

>  <Genealogy>  (30) 
C=CC(=O)[N-]c1cc(Nc2c(N)ccn(C)c2=O)ccc1C(=O)[N-]CCCC (protonated)
C=CC(=O)[N-]c1cc(Nc2c(N)ccn(C)c2=O)ccc1C(=O)[N-]CCCC (3D coordinates assigned)
C=CC(=O)[N-]c1cc(Nc2c(N)ccn(C)c2=O)ccc1C(=O)[N-]CCCC (optimized conformer: 62.168448147287805 kcal/mol)

>  <smiles>  (30) 
C=CC(=O)Nc1cc(Nc2c(N)ccn(C)c2=O)ccc1C(=O)NCCCC

>  <score_type>  (30) 
oracle

>  <origin>  (30) 
adgpu

>  <m_score__min__energy>  (30) 
-10.69

>  <m_primary>  (30) 
energy

$$$$
30:0
     RDKit          3D

 55 57  0  0  0  0  0  0  0  0999 V2000
    4.7960   26.5820  -38.0470 C   0  0  0  0  0  0  0  0  0  0  0  0
    3.0220   26.6910  -37.9450 S   0  0  0  0  0  0  0  0  0  0  0  0
    2.6230   28.0150  -37.3650 O   0  0  0  0  0  0  0  0  0  0  0  0
    2.4630   26.6200  -39.3380 O   0  0  0  0  0  0  0  0  0  0  0  0
    2.4000   25.3170  -37.0050 C   0  0  0  0  0  0  0  0  0  0  0  0
    3.3250   24.3000  -36.7170 C   0  0  0  0  0  0  0  0  0  0  0  0
    2.9600   23.1820  -35.9730 C   0  0  0  0  0  0  0  0  0  0  0  0
    1.6550   23.0450  -35.4900 C   0  0  0  0  0  0  0  0  0  0  0  0
    1.2780   21.8510  -34.6960 C   0  0  0  0  0  0  0  0  0  0  0  0
    2.1880   21.1120  -34.2290 O   0  0  0  0  0  0  0  0  0  0  0  0
   -0.1050   21.5210  -34.4710 N   0  0  0  0  0  0  0  0  0  0  0  0
   -0.5470   20.5150  -33.5410 C   0  0  0  0  0  0  0  0  0  0  0  0
    0.2870   19.7210  -33.0250 O   0  0  0  0  0  0  0  0  0  0  0  0
   -1.9810   20.3820  -33.1900 C   0  0  0  0  0  0  0  0  0  0  0  0
   -2.4260   20.7300  -31.9020 C   0  0  0  0  0  0  0  0  0  0  0  0
   -3.7760   20.6160  -31.5610 C   0  0  0  0  0  0  0  0  0  0  0  0
   -4.7080   20.1700  -32.5070 C   0  0  0  0  0  0  0  0  0  0  0  0
   -6.1350   20.0460  -32.1500 C   0  0  0  0  0  0  0  0  0  0  0  0
   -6.7490   18.7880  -32.2790 C   0  0  0  0  0  0  0  0  0  0  0  0
   -8.0890   18.6140  -31.9270 C   0  0  0  0  0  0  0  0  0  0  0  0
   -8.8290   19.6920  -31.4440 C   0  0  0  0  0  0  0  0  0  0  0  0
   -8.2370   20.9500  -31.3210 C   0  0  0  0  0  0  0  0  0  0  0  0
   -6.8940   21.1470  -31.6820 C   0  0  0  0  0  0  0  0  0  0  0  0
   -6.2120   22.7770  -31.5600 S   0  0  0  0  0  0  0  0  0  0  0  0
   -5.0660   23.0260  -32.8290 N   0  0  0  0  0  0  0  0  0  0  0  0
   -5.5220   22.9450  -30.2330 O   0  0  0  0  0  0  0  0  0  0  0  0
   -7.3050   23.8040  -31.6570 O   0  0  0  0  0  0  0  0  0  0  0  0
   -4.2730   19.8180  -33.7920 C   0  0  0  0  0  0  0  0  0  0  0  0
   -2.9220   19.9300  -34.1340 C   0  0  0  0  0  0  0  0  0  0  0  0
    0.7270   24.0670  -35.7460 C   0  0  0  0  0  0  0  0  0  0  0  0
    1.0730   25.2070  -36.4980 C   0  0  0  0  0  0  0  0  0  0  0  0
   -0.1960   26.4290  -36.7510 S   0  0  0  0  0  0  0  0  0  0  0  0
   -0.2970   27.5750  -35.3910 C   0  0  0  0  0  0  0  0  0  0  0  0
    0.0370   27.1580  -38.0430 O   0  0  0  0  0  0  0  0  0  0  0  0
   -1.5360   25.7510  -36.8450 O   0  0  0  0  0  0  0  0  0  0  0  0
    5.2207   26.5559  -37.0326 H   0  0  0  0  0  0  0  0  0  0  0  0
    5.0766   25.6649  -38.5857 H   0  0  0  0  0  0  0  0  0  0  0  0
    5.1868   27.4578  -38.5857 H   0  0  0  0  0  0  0  0  0  0  0  0
    4.3573   24.3889  -37.0865 H   0  0  0  0  0  0  0  0  0  0  0  0
    3.7042   22.3997  -35.7632 H   0  0  0  0  0  0  0  0  0  0  0  0
   -0.8230   21.9930  -35.0620 H   0  0  0  0  0  0  0  0  0  0  0  0
   -1.7045   21.0953  -31.1563 H   0  0  0  0  0  0  0  0  0  0  0  0
   -4.1085   20.8775  -30.5456 H   0  0  0  0  0  0  0  0  0  0  0  0
   -6.1695   17.9343  -32.6601 H   0  0  0  0  0  0  0  0  0  0  0  0
   -8.5608   17.6258  -32.0309 H   0  0  0  0  0  0  0  0  0  0  0  0
   -9.8821   19.5509  -31.1591 H   0  0  0  0  0  0  0  0  0  0  0  0
   -8.8278   21.7951  -30.9378 H   0  0  0  0  0  0  0  0  0  0  0  0
   -5.4280   23.8100  -33.4180 H   0  0  0  0  0  0  0  0  0  0  0  0
   -5.0780   22.1690  -33.4260 H   0  0  0  0  0  0  0  0  0  0  0  0
   -4.9975   19.4521  -34.5345 H   0  0  0  0  0  0  0  0  0  0  0  0
   -2.5920   19.6628  -35.1487 H   0  0  0  0  0  0  0  0  0  0  0  0
   -0.2951   23.9754  -35.3498 H   0  0  0  0  0  0  0  0  0  0  0  0
   -0.2483   27.0222  -34.4413 H   0  0  0  0  0  0  0  0  0  0  0  0
    0.5421   28.2841  -35.4460 H   0  0  0  0  0  0  0  0  0  0  0  0
   -1.2472   28.1264  -35.4460 H   0  0  0  0  0  0  0  0  0  0  0  0
  1  2  1  0
  2  3  2  0
  2  4  2  0
  2  5  1  0
  5  6  2  0
  6  7  1  0
  7  8  2  0
  8  9  1  0
  9 10  2  0
  9 11  1  0
 11 12  1  0
 12 13  2  0
 12 14  1  0
 14 15  2  0
 15 16  1  0
 16 17  2  0
 17 18  1  0
 18 19  2  0
 19 20  1  0
 20 21  2  0
 21 22  1  0
 22 23  2  0
 23 24  1  0
 24 25  1  0
 24 26  2  0
 24 27  2  0
 17 28  1  0
 28 29  2  0
  8 30  1  0
 30 31  2  0
 31 32  1  0
 32 33  1  0
 32 34  2  0
 32 35  2  0
 31  5  1  0
 29 14  1  0
 23 18  1  0
  1 36  1  0
  1 37  1  0
  1 38  1  0
  6 39  1  0
  7 40  1  0
 11 41  1  0
 15 42  1  0
 16 43  1  0
 19 44  1  0
 20 45  1  0
 21 46  1  0
 22 47  1  0
 25 48  1  0
 25 49  1  0
 28 50  1  0
 29 51  1  0
 30 52  1  0
 33 53  1  0
 33 54  1  0
 33 55  1  0
M  END
>  <UniqueID>  (31) 
29

>  <SMILES>  (31) 
CS(=O)(=O)c1ccc(C(=O)NC(=O)c2ccc(-c3ccccc3S(N)(=O)=O)cc2)cc1S(C)(=O)=O

>  <Energy>  (31) 
72.00412156039594

>  <Genealogy>  (31) 
CS(=O)(=O)c1ccc(C(=O)NC(=O)c2ccc(-c3ccccc3S(N)(=O)=O)cc2)cc1S(C)(=O)=O (3D coordinates assigned)
CS(=O)(=O)c1ccc(C(=O)NC(=O)c2ccc(-c3ccccc3S(N)(=O)=O)cc2)cc1S(C)(=O)=O (optimized conformer: 72.00412156039594 kcal/mol)

>  <smiles>  (31) 
CS(=O)(=O)c1ccc(C(=O)NC(=O)c2ccc(-c3ccccc3S(N)(=O)=O)cc2)cc1S(C)(=O)=O

>  <score_type>  (31) 
oracle

>  <origin>  (31) 
adgpu

>  <m_score__min__energy>  (31) 
-10.279999999999999

>  <m_primary>  (31) 
energy

$$$$
31:0
     RDKit          3D

 42 45  0  0  0  0  0  0  0  0999 V2000
   -9.4400   21.7080  -31.2720 N   0  0  0  0  0  0  0  0  0  0  0  0
   -8.5330   21.1100  -31.6710 C   0  0  0  0  0  0  0  0  0  0  0  0
   -7.4060   20.3650  -32.1660 C   0  0  0  0  0  0  0  0  0  0  0  0
   -7.4600   19.0750  -32.6500 C   0  0  0  0  0  0  0  0  0  0  0  0
   -6.2130   18.6420  -32.9330 N   0  0  0  0  0  0  0  0  0  0  0  0
   -5.8550   17.3440  -33.4530 C   0  0  0  0  0  0  0  0  0  0  0  0
   -6.8350   16.3540  -33.6460 C   0  0  0  0  0  0  0  0  0  0  0  0
   -6.4850   15.0980  -34.1510 C   0  0  0  0  0  0  0  0  0  0  0  0
   -5.1580   14.8110  -34.4820 C   0  0  0  0  0  0  0  0  0  0  0  0
   -4.8460   13.5340  -34.9720 O   0  0  0  0  0  0  0  0  0  0  0  0
   -4.2230   13.2620  -36.1980 C   0  0  0  0  0  0  0  0  0  0  0  0
   -4.7010   12.2680  -37.0730 C   0  0  0  0  0  0  0  0  0  0  0  0
   -4.0400   12.0170  -38.2800 C   0  0  0  0  0  0  0  0  0  0  0  0
   -2.8950   12.7430  -38.6160 C   0  0  0  0  0  0  0  0  0  0  0  0
   -2.4040   13.7180  -37.7420 C   0  0  0  0  0  0  0  0  0  0  0  0
   -3.0620   13.9710  -36.5350 C   0  0  0  0  0  0  0  0  0  0  0  0
   -4.1700   15.7880  -34.2720 C   0  0  0  0  0  0  0  0  0  0  0  0
   -4.5180   17.0450  -33.7700 C   0  0  0  0  0  0  0  0  0  0  0  0
   -5.3630   19.6470  -32.6250 C   0  0  0  0  0  0  0  0  0  0  0  0
   -6.0700   20.7390  -32.1470 C   0  0  0  0  0  0  0  0  0  0  0  0
   -5.4830   22.0230  -31.6960 C   0  0  0  0  0  0  0  0  0  0  0  0
   -4.1680   22.0830  -31.2010 C   0  0  0  0  0  0  0  0  0  0  0  0
   -3.6280   23.2990  -30.7710 C   0  0  0  0  0  0  0  0  0  0  0  0
   -4.3960   24.4650  -30.8240 C   0  0  0  0  0  0  0  0  0  0  0  0
   -3.8570   25.6730  -30.3970 O   0  0  0  0  0  0  0  0  0  0  0  0
   -5.7080   24.4150  -31.3040 C   0  0  0  0  0  0  0  0  0  0  0  0
   -6.2520   23.2010  -31.7330 C   0  0  0  0  0  0  0  0  0  0  0  0
   -8.3801   18.4875  -32.7851 H   0  0  0  0  0  0  0  0  0  0  0  0
   -7.8848   16.5694  -33.3978 H   0  0  0  0  0  0  0  0  0  0  0  0
   -7.2602   14.3299  -34.2888 H   0  0  0  0  0  0  0  0  0  0  0  0
   -5.5965   11.6873  -36.8068 H   0  0  0  0  0  0  0  0  0  0  0  0
   -4.4226   11.2466  -38.9657 H   0  0  0  0  0  0  0  0  0  0  0  0
   -2.3796   12.5478  -39.5680 H   0  0  0  0  0  0  0  0  0  0  0  0
   -1.4994   14.2862  -38.0045 H   0  0  0  0  0  0  0  0  0  0  0  0
   -2.6662   14.7312  -35.8455 H   0  0  0  0  0  0  0  0  0  0  0  0
   -3.1186   15.5625  -34.5036 H   0  0  0  0  0  0  0  0  0  0  0  0
   -3.7390   17.8073  -33.6215 H   0  0  0  0  0  0  0  0  0  0  0  0
   -4.2696   19.6043  -32.7374 H   0  0  0  0  0  0  0  0  0  0  0  0
   -3.5603   21.1674  -31.1518 H   0  0  0  0  0  0  0  0  0  0  0  0
   -2.5967   23.3377  -30.3903 H   0  0  0  0  0  0  0  0  0  0  0  0
   -6.3133   25.3326  -31.3442 H   0  0  0  0  0  0  0  0  0  0  0  0
   -7.2877   23.1662  -32.1019 H   0  0  0  0  0  0  0  0  0  0  0  0
  1  2  3  0
  2  3  1  0
  3  4  2  0
  4  5  1  0
  5  6  1  0
  6  7  2  0
  7  8  1  0
  8  9  2  0
  9 10  1  0
 10 11  1  0
 11 12  2  0
 12 13  1  0
 13 14  2  0
 14 15  1  0
 15 16  2  0
  9 17  1  0
 17 18  2  0
  5 19  1  0
 19 20  2  0
 20 21  1  0
 21 22  2  0
 22 23  1  0
 23 24  2  0
 24 25  1  0
 24 26  1  0
 26 27  2  0
 20  3  1  0
 27 21  1  0
 18  6  1  0
 16 11  1  0
  4 28  1  0
  7 29  1  0
  8 30  1  0
 12 31  1  0
 13 32  1  0
 14 33  1  0
 15 34  1  0
 16 35  1  0
 17 36  1  0
 18 37  1  0
 19 38  1  0
 22 39  1  0
 23 40  1  0
 26 41  1  0
 27 42  1  0
M  CHG  1  25  -1
M  END
>  <UniqueID>  (32) 
30

>  <SMILES>  (32) 
N#Cc1cn(-c2ccc(Oc3ccccc3)cc2)cc1-c1ccc([O-])cc1

>  <Energy>  (32) 
87.36716215695405

>  <Genealogy>  (32) 
N#Cc1cn(-c2ccc(Oc3ccccc3)cc2)cc1-c1ccc([O-])cc1 (protonated)
N#Cc1cn(-c2ccc(Oc3ccccc3)cc2)cc1-c1ccc([O-])cc1 (3D coordinates assigned)
N#Cc1cn(-c2ccc(Oc3ccccc3)cc2)cc1-c1ccc([O-])cc1 (optimized conformer: 87.36716215695405 kcal/mol)

>  <smiles>  (32) 
N#Cc1cn(-c2ccc(Oc3ccccc3)cc2)cc1-c1ccc(O)cc1

>  <score_type>  (32) 
oracle

>  <origin>  (32) 
adgpu

>  <m_score__min__energy>  (32) 
-10.49

>  <m_primary>  (32) 
energy

$$$$
32:0
     RDKit          3D

 57 60  0  0  0  0  0  0  0  0999 V2000
   -5.7760   26.0120  -30.6770 O   0  0  0  0  0  0  0  0  0  0  0  0
   -4.9550   25.0590  -30.7360 C   0  0  0  0  0  0  0  0  0  0  0  0
   -3.6170   25.2750  -30.2640 N   0  0  0  0  0  0  0  0  0  0  0  0
   -2.9160   24.4580  -29.3140 C   0  0  0  0  0  0  0  0  0  0  0  0
   -1.7530   23.7940  -29.7190 C   0  0  0  0  0  0  0  0  0  0  0  0
   -1.0460   22.9910  -28.8190 C   0  0  0  0  0  0  0  0  0  0  0  0
   -1.4920   22.8530  -27.4980 C   0  0  0  0  0  0  0  0  0  0  0  0
   -0.5890   21.8420  -26.3710 S   0  0  0  0  0  0  0  0  0  0  0  0
   -1.5430   21.0510  -25.5170 O   0  0  0  0  0  0  0  0  0  0  0  0
    0.2530   20.8790  -27.1630 O   0  0  0  0  0  0  0  0  0  0  0  0
    0.4420   22.8380  -25.3650 N   0  0  0  0  0  0  0  0  0  0  0  0
   -0.2750   23.2970  -24.1670 C   0  0  0  0  0  0  0  0  0  0  0  0
   -0.8420   24.6790  -24.4660 C   0  0  0  0  0  0  0  0  0  0  0  0
   -0.1370   25.1520  -25.7250 C   0  0  0  0  0  0  0  0  0  0  0  0
    0.8600   24.0550  -26.0720 C   0  0  0  0  0  0  0  0  0  0  0  0
   -2.6380   23.5400  -27.0790 C   0  0  0  0  0  0  0  0  0  0  0  0
   -3.3430   24.3450  -27.9790 C   0  0  0  0  0  0  0  0  0  0  0  0
   -5.3790   23.7690  -31.3270 C   0  0  0  0  0  0  0  0  0  0  0  0
   -6.7450   23.4720  -31.4660 C   0  0  0  0  0  0  0  0  0  0  0  0
   -7.1510   22.2410  -31.9900 C   0  0  0  0  0  0  0  0  0  0  0  0
   -6.1970   21.3000  -32.3970 C   0  0  0  0  0  0  0  0  0  0  0  0
   -6.6890   19.7190  -33.0010 S   0  0  0  0  0  0  0  0  0  0  0  0
   -6.4870   19.6980  -34.4900 O   0  0  0  0  0  0  0  0  0  0  0  0
   -8.1470   19.4890  -32.7130 O   0  0  0  0  0  0  0  0  0  0  0  0
   -5.7160   18.4600  -32.2650 N   0  0  0  0  0  0  0  0  0  0  0  0
   -6.4410   17.1800  -32.1840 C   0  0  0  0  0  0  0  0  0  0  0  0
   -6.5620   16.4860  -33.5620 C   0  0  0  0  0  0  0  0  0  0  0  0
   -5.6300   16.9580  -34.5200 O   0  0  0  0  0  0  0  0  0  0  0  0
   -4.3640   17.1390  -33.9250 C   0  0  0  0  0  0  0  0  0  0  0  0
   -4.4030   18.3180  -32.9340 C   0  0  0  0  0  0  0  0  0  0  0  0
   -4.8340   21.6030  -32.2860 C   0  0  0  0  0  0  0  0  0  0  0  0
   -4.4270   22.8300  -31.7590 C   0  0  0  0  0  0  0  0  0  0  0  0
   -1.3925   23.9045  -30.7524 H   0  0  0  0  0  0  0  0  0  0  0  0
   -0.1373   22.4662  -29.1489 H   0  0  0  0  0  0  0  0  0  0  0  0
    1.2800   22.2730  -25.0920 H   0  0  0  0  0  0  0  0  0  0  0  0
   -1.0925   22.6002  -23.9300 H   0  0  0  0  0  0  0  0  0  0  0  0
    0.4055   23.3389  -23.3038 H   0  0  0  0  0  0  0  0  0  0  0  0
   -1.9274   24.6195  -24.6342 H   0  0  0  0  0  0  0  0  0  0  0  0
   -0.6816   25.3725  -23.6274 H   0  0  0  0  0  0  0  0  0  0  0  0
   -0.8603   25.2863  -26.5428 H   0  0  0  0  0  0  0  0  0  0  0  0
    0.3604   26.1213  -25.5735 H   0  0  0  0  0  0  0  0  0  0  0  0
    0.8600   23.8773  -27.1576 H   0  0  0  0  0  0  0  0  0  0  0  0
    1.8771   24.3471  -25.7717 H   0  0  0  0  0  0  0  0  0  0  0  0
   -2.9845   23.4461  -26.0392 H   0  0  0  0  0  0  0  0  0  0  0  0
   -4.2355   24.8922  -27.6413 H   0  0  0  0  0  0  0  0  0  0  0  0
   -7.4994   24.2121  -31.1609 H   0  0  0  0  0  0  0  0  0  0  0  0
   -8.2227   22.0110  -32.0828 H   0  0  0  0  0  0  0  0  0  0  0  0
   -5.9021   16.5110  -31.4970 H   0  0  0  0  0  0  0  0  0  0  0  0
   -7.4583   17.3914  -31.8229 H   0  0  0  0  0  0  0  0  0  0  0  0
   -6.4011   15.4068  -33.4229 H   0  0  0  0  0  0  0  0  0  0  0  0
   -7.5659   16.7133  -33.9501 H   0  0  0  0  0  0  0  0  0  0  0  0
   -4.0813   16.2220  -33.3872 H   0  0  0  0  0  0  0  0  0  0  0  0
   -3.6266   17.3568  -34.7116 H   0  0  0  0  0  0  0  0  0  0  0  0
   -3.6323   18.1574  -32.1657 H   0  0  0  0  0  0  0  0  0  0  0  0
   -4.2211   19.2392  -33.5069 H   0  0  0  0  0  0  0  0  0  0  0  0
   -4.0815   20.8714  -32.6153 H   0  0  0  0  0  0  0  0  0  0  0  0
   -3.3548   23.0631  -31.6815 H   0  0  0  0  0  0  0  0  0  0  0  0
  1  2  2  0
  2  3  1  0
  3  4  1  0
  4  5  2  0
  5  6  1  0
  6  7  2  0
  7  8  1  0
  8  9  2  0
  8 10  2  0
  8 11  1  0
 11 12  1  0
 12 13  1  0
 13 14  1  0
 14 15  1  0
  7 16  1  0
 16 17  2  0
  2 18  1  0
 18 19  2  0
 19 20  1  0
 20 21  2  0
 21 22  1  0
 22 23  2  0
 22 24  2  0
 22 25  1  0
 25 26  1  0
 26 27  1  0
 27 28  1  0
 28 29  1  0
 29 30  1  0
 21 31  1  0
 31 32  2  0
 17  4  1  0
 32 18  1  0
 15 11  1  0
 30 25  1  0
  5 33  1  0
  6 34  1  0
 11 35  1  0
 12 36  1  0
 12 37  1  0
 13 38  1  0
 13 39  1  0
 14 40  1  0
 14 41  1  0
 15 42  1  0
 15 43  1  0
 16 44  1  0
 17 45  1  0
 19 46  1  0
 20 47  1  0
 26 48  1  0
 26 49  1  0
 27 50  1  0
 27 51  1  0
 29 52  1  0
 29 53  1  0
 30 54  1  0
 30 55  1  0
 31 56  1  0
 32 57  1  0
M  CHG  2   3  -1  11   1
M  END
>  <UniqueID>  (33) 
31

>  <SMILES>  (33) 
O=C([N-]c1ccc(S(=O)(=O)[NH+]2CCCC2)cc1)c1ccc(S(=O)(=O)N2CCOCC2)cc1

>  <Energy>  (33) 
77.6558517262789

>  <Genealogy>  (33) 
O=C([N-]c1ccc(S(=O)(=O)[NH+]2CCCC2)cc1)c1ccc(S(=O)(=O)N2CCOCC2)cc1 (protonated)
O=C([N-]c1ccc(S(=O)(=O)[NH+]2CCCC2)cc1)c1ccc(S(=O)(=O)N2CCOCC2)cc1 (3D coordinates assigned)
O=C([N-]c1ccc(S(=O)(=O)[NH+]2CCCC2)cc1)c1ccc(S(=O)(=O)N2CCOCC2)cc1 (nonaromatic ring conformer: 77.6558517262789 kcal/mol)

>  <smiles>  (33) 
O=C(Nc1ccc(S(=O)(=O)N2CCCC2)cc1)c1ccc(S(=O)(=O)N2CCOCC2)cc1

>  <score_type>  (33) 
oracle

>  <origin>  (33) 
adgpu

>  <m_score__min__energy>  (33) 
-12.24

>  <m_primary>  (33) 
energy

$$$$
33:0
     RDKit          3D

 36 39  0  0  0  0  0  0  0  0999 V2000
   -7.9005   18.6930  -33.3264 H   0  0  0  0  0  0  0  0  0  0  0  0
   -7.2360   19.4230  -32.8410 C   0  0  0  0  0  0  0  0  0  0  0  0
   -6.1100   18.9860  -32.1460 C   0  0  0  0  0  0  0  0  0  0  0  0
   -5.9127   17.9086  -32.0451 H   0  0  0  0  0  0  0  0  0  0  0  0
   -5.2310   19.9100  -31.5770 C   0  0  0  0  0  0  0  0  0  0  0  0
   -4.3678   19.5520  -30.9967 H   0  0  0  0  0  0  0  0  0  0  0  0
   -5.4360   21.2980  -31.7370 C   0  0  0  0  0  0  0  0  0  0  0  0
   -6.6520   21.7250  -32.3410 C   0  0  0  0  0  0  0  0  0  0  0  0
   -7.5200   20.7850  -32.9210 C   0  0  0  0  0  0  0  0  0  0  0  0
   -8.4278   21.1255  -33.4406 H   0  0  0  0  0  0  0  0  0  0  0  0
   -7.0180   23.0760  -32.3100 C   0  0  0  0  0  0  0  0  0  0  0  0
   -7.9398   23.4045  -32.8124 H   0  0  0  0  0  0  0  0  0  0  0  0
   -6.2220   24.0060  -31.6470 C   0  0  0  0  0  0  0  0  0  0  0  0
   -6.5603   25.0487  -31.5552 H   0  0  0  0  0  0  0  0  0  0  0  0
   -4.9970   23.6230  -31.0980 C   0  0  0  0  0  0  0  0  0  0  0  0
   -4.2390   24.5610  -30.4560 N   0  0  0  0  0  0  0  0  0  0  0  0
   -2.9990   24.3150  -29.9490 C   0  0  0  0  0  0  0  0  0  0  0  0
   -2.4150   25.2890  -29.3050 N   0  0  0  0  0  0  0  0  0  0  0  0
   -1.1230   25.3840  -28.6260 C   0  0  0  0  0  0  0  0  0  0  0  0
   -0.7865   26.4312  -28.6387 H   0  0  0  0  0  0  0  0  0  0  0  0
   -0.4031   24.7404  -29.1528 H   0  0  0  0  0  0  0  0  0  0  0  0
   -1.2280   24.9090  -27.1710 C   0  0  0  0  0  0  0  0  0  0  0  0
   -0.4011   25.3558  -26.5995 H   0  0  0  0  0  0  0  0  0  0  0  0
   -1.1815   23.8101  -27.1878 H   0  0  0  0  0  0  0  0  0  0  0  0
   -2.5420   25.2890  -26.4940 C   0  0  0  0  0  0  0  0  0  0  0  0
   -2.4158   25.2525  -25.4019 H   0  0  0  0  0  0  0  0  0  0  0  0
   -2.8291   26.3070  -26.7961 H   0  0  0  0  0  0  0  0  0  0  0  0
   -3.3282   24.5814  -26.7961 H   0  0  0  0  0  0  0  0  0  0  0  0
   -2.4590   23.0290  -30.1800 C   0  0  0  0  0  0  0  0  0  0  0  0
   -1.1960   22.4680  -30.0480 C   0  0  0  0  0  0  0  0  0  0  0  0
   -0.3376   22.9373  -29.5451 H   0  0  0  0  0  0  0  0  0  0  0  0
   -1.1920   21.2550  -30.6360 N   0  0  0  0  0  0  0  0  0  0  0  0
   -2.4030   21.0130  -31.1110 N   0  0  0  0  0  0  0  0  0  0  0  0
   -2.6060   20.1980  -31.7260 H   0  0  0  0  0  0  0  0  0  0  0  0
   -3.2040   22.0570  -30.8200 C   0  0  0  0  0  0  0  0  0  0  0  0
   -4.5410   22.2830  -31.2210 C   0  0  0  0  0  0  0  0  0  0  0  0
  1  2  1  0
  2  3  2  0
  3  4  1  0
  3  5  1  0
  5  6  1  0
  5  7  2  0
  7  8  1  0
  8  9  2  0
  9 10  1  0
  8 11  1  0
 11 12  1  0
 11 13  2  0
 13 14  1  0
 13 15  1  0
 15 16  1  0
 16 17  1  0
 17 18  2  0
 18 19  1  0
 19 20  1  0
 19 21  1  0
 19 22  1  0
 22 23  1  0
 22 24  1  0
 22 25  1  0
 25 26  1  0
 25 27  1  0
 25 28  1  0
 17 29  1  0
 29 30  1  0
 30 31  1  0
 30 32  2  0
 32 33  1  0
 33 34  1  0
 33 35  1  0
 35 36  1  0
  9  2  1  0
 36 15  2  0
 36  7  1  0
 35 29  2  0
M  CHG  1  16  -1
M  END
>  <UniqueID>  (34) 
32

>  <SMILES>  (34) 
CCC/N=c1/[n-]c2ccc3ccccc3c2c2[nH]ncc12

>  <Energy>  (34) 
104.71300935084976

>  <Genealogy>  (34) 
CCCN=c1[n-]c2ccc3ccccc3c2c2[nH]ncc12 (protonated)
CCC/N=c1/[n-]c2ccc3ccccc3c2c2[nH]ncc12 (cis-trans isomerization)
CCC/N=c1/[n-]c2ccc3ccccc3c2c2[nH]ncc12 (3D coordinates assigned)
CCC/N=c1/[n-]c2ccc3ccccc3c2c2[nH]ncc12 (optimized conformer: 104.71300935084976 kcal/mol)

>  <smiles>  (34) 
CCCN=c1[nH]c2ccc3ccccc3c2c2[nH]ncc12

>  <score_type>  (34) 
oracle

>  <origin>  (34) 
adgpu

>  <m_score__min__energy>  (34) 
-9.1099999999999994

>  <m_primary>  (34) 
energy

$$$$
34:0
     RDKit          3D

 47 48  0  0  0  0  0  0  0  0999 V2000
   -5.6740   18.1530  -34.9730 C   0  0  0  0  0  0  0  0  0  0  0  0
   -5.6800   18.7600  -33.6850 O   0  0  0  0  0  0  0  0  0  0  0  0
   -6.8160   19.3070  -33.0680 C   0  0  0  0  0  0  0  0  0  0  0  0
   -7.0110   20.6980  -32.9550 C   0  0  0  0  0  0  0  0  0  0  0  0
   -8.1540   21.2080  -32.3200 C   0  0  0  0  0  0  0  0  0  0  0  0
   -8.3430   22.6980  -32.1880 C   0  0  0  0  0  0  0  0  0  0  0  0
   -7.0900   23.4030  -32.4670 N   0  0  0  0  0  0  0  0  0  0  0  0
   -6.0940   23.7010  -31.4670 C   0  0  0  0  0  0  0  0  0  0  0  0
   -6.3970   24.5180  -30.3630 C   0  0  0  0  0  0  0  0  0  0  0  0
   -5.4330   24.7860  -29.3900 C   0  0  0  0  0  0  0  0  0  0  0  0
   -4.1460   24.2460  -29.4990 C   0  0  0  0  0  0  0  0  0  0  0  0
   -3.1080   24.5240  -28.4310 C   0  0  0  0  0  0  0  0  0  0  0  0
   -1.8310   25.0550  -28.9590 N   0  0  0  0  0  0  0  0  0  0  0  0
   -0.8790   23.9920  -29.3190 C   0  0  0  0  0  0  0  0  0  0  0  0
   -1.2070   26.0350  -28.0570 C   0  0  0  0  0  0  0  0  0  0  0  0
   -3.8280   23.4480  -30.6080 C   0  0  0  0  0  0  0  0  0  0  0  0
   -4.7950   23.1660  -31.5930 C   0  0  0  0  0  0  0  0  0  0  0  0
   -4.5020   22.3510  -32.6990 O   0  0  0  0  0  0  0  0  0  0  0  0
   -3.6060   21.2450  -32.6770 C   0  0  0  0  0  0  0  0  0  0  0  0
   -9.1150   20.3210  -31.8120 C   0  0  0  0  0  0  0  0  0  0  0  0
   -8.9280   18.9420  -31.9260 C   0  0  0  0  0  0  0  0  0  0  0  0
   -7.7820   18.4330  -32.5500 C   0  0  0  0  0  0  0  0  0  0  0  0
   -7.5950   17.0560  -32.6590 O   0  0  0  0  0  0  0  0  0  0  0  0
   -5.6632   17.0586  -34.8625 H   0  0  0  0  0  0  0  0  0  0  0  0
   -6.5752   18.4568  -35.5257 H   0  0  0  0  0  0  0  0  0  0  0  0
   -4.7790   18.4746  -35.5257 H   0  0  0  0  0  0  0  0  0  0  0  0
   -6.2616   21.3895  -33.3677 H   0  0  0  0  0  0  0  0  0  0  0  0
   -9.1112   23.0297  -32.9020 H   0  0  0  0  0  0  0  0  0  0  0  0
   -8.6567   22.9260  -31.1586 H   0  0  0  0  0  0  0  0  0  0  0  0
   -6.8830   23.6160  -33.4680 H   0  0  0  0  0  0  0  0  0  0  0  0
   -7.4039   24.9501  -30.2655 H   0  0  0  0  0  0  0  0  0  0  0  0
   -5.6862   25.4258  -28.5318 H   0  0  0  0  0  0  0  0  0  0  0  0
   -3.5241   25.2595  -27.7268 H   0  0  0  0  0  0  0  0  0  0  0  0
   -2.8790   23.5615  -27.9503 H   0  0  0  0  0  0  0  0  0  0  0  0
   -0.4726   23.5382  -28.4031 H   0  0  0  0  0  0  0  0  0  0  0  0
   -1.3955   23.2225  -29.9115 H   0  0  0  0  0  0  0  0  0  0  0  0
   -0.0574   24.4208  -29.9115 H   0  0  0  0  0  0  0  0  0  0  0  0
   -1.3930   25.7428  -27.0130 H   0  0  0  0  0  0  0  0  0  0  0  0
   -0.1230   26.0652  -28.2417 H   0  0  0  0  0  0  0  0  0  0  0  0
   -1.6382   27.0299  -28.2417 H   0  0  0  0  0  0  0  0  0  0  0  0
   -2.8124   23.0379  -30.7097 H   0  0  0  0  0  0  0  0  0  0  0  0
   -3.3853   20.9726  -31.6344 H   0  0  0  0  0  0  0  0  0  0  0  0
   -4.0680   20.3885  -33.1898 H   0  0  0  0  0  0  0  0  0  0  0  0
   -2.6723   21.5193  -33.1898 H   0  0  0  0  0  0  0  0  0  0  0  0
  -10.0186   20.7132  -31.3224 H   0  0  0  0  0  0  0  0  0  0  0  0
   -9.6844   18.2520  -31.5238 H   0  0  0  0  0  0  0  0  0  0  0  0
   -6.7460   16.6660  -33.0530 H   0  0  0  0  0  0  0  0  0  0  0  0
  1  2  1  0
  2  3  1  0
  3  4  2  0
  4  5  1  0
  5  6  1  0
  6  7  1  0
  7  8  1  0
  8  9  2  0
  9 10  1  0
 10 11  2  0
 11 12  1  0
 12 13  1  0
 13 14  1  0
 13 15  1  0
 11 16  1  0
 16 17  2  0
 17 18  1  0
 18 19  1  0
  5 20  2  0
 20 21  1  0
 21 22  2  0
 22 23  1  0
 22  3  1  0
 17  8  1  0
  1 24  1  0
  1 25  1  0
  1 26  1  0
  4 27  1  0
  6 28  1  0
  6 29  1  0
  7 30  1  0
  9 31  1  0
 10 32  1  0
 12 33  1  0
 12 34  1  0
 14 35  1  0
 14 36  1  0
 14 37  1  0
 15 38  1  0
 15 39  1  0
 15 40  1  0
 16 41  1  0
 19 42  1  0
 19 43  1  0
 19 44  1  0
 20 45  1  0
 21 46  1  0
 23 47  1  0
M  END
>  <UniqueID>  (35) 
33

>  <SMILES>  (35) 
COc1cc(CNc2ccc(CN(C)C)cc2OC)ccc1O

>  <Energy>  (35) 
46.713924542534414

>  <Genealogy>  (35) 
COc1cc(CNc2ccc(CN(C)C)cc2OC)ccc1O (3D coordinates assigned)
COc1cc(CNc2ccc(CN(C)C)cc2OC)ccc1O (optimized conformer: 46.713924542534414 kcal/mol)

>  <smiles>  (35) 
COc1cc(CNc2ccc(CN(C)C)cc2OC)ccc1O

>  <score_type>  (35) 
oracle

>  <origin>  (35) 
adgpu

>  <m_score__min__energy>  (35) 
-7.4500000000000002

>  <m_primary>  (35) 
energy

$$$$
35:0
     RDKit          3D

 56 58  0  0  0  0  0  0  0  0999 V2000
   -8.3620   20.9500  -31.9060 C   0  0  0  0  0  0  0  0  0  0  0  0
   -7.1640   21.7810  -31.5330 C   0  0  0  0  0  0  0  0  0  0  0  0
   -7.3370   23.1330  -31.1970 C   0  0  0  0  0  0  0  0  0  0  0  0
   -6.2410   23.9250  -30.8510 C   0  0  0  0  0  0  0  0  0  0  0  0
   -4.9430   23.3870  -30.8520 C   0  0  0  0  0  0  0  0  0  0  0  0
   -3.7780   24.2280  -30.4900 C   0  0  0  0  0  0  0  0  0  0  0  0
   -3.8900   25.4840  -30.4660 O   0  0  0  0  0  0  0  0  0  0  0  0
   -2.5440   23.6060  -30.1090 N   0  0  0  0  0  0  0  0  0  0  0  0
   -2.3120   22.7350  -28.9900 C   0  0  0  0  0  0  0  0  0  0  0  0
   -2.8490   21.4350  -28.9490 C   0  0  0  0  0  0  0  0  0  0  0  0
   -2.6260   20.6130  -27.8410 C   0  0  0  0  0  0  0  0  0  0  0  0
   -1.8810   21.0830  -26.7600 C   0  0  0  0  0  0  0  0  0  0  0  0
   -1.3650   22.3810  -26.7760 C   0  0  0  0  0  0  0  0  0  0  0  0
   -1.5820   23.2190  -27.8820 C   0  0  0  0  0  0  0  0  0  0  0  0
   -0.9360   24.8670  -27.8970 S   0  0  0  0  0  0  0  0  0  0  0  0
   -1.1770   25.7130  -26.3470 C   0  0  0  0  0  0  0  0  0  0  0  0
    0.5380   24.8150  -28.1820 O   0  0  0  0  0  0  0  0  0  0  0  0
   -1.6240   25.6560  -28.9760 O   0  0  0  0  0  0  0  0  0  0  0  0
   -4.7660   22.0390  -31.2050 C   0  0  0  0  0  0  0  0  0  0  0  0
   -5.8660   21.2260  -31.5340 C   0  0  0  0  0  0  0  0  0  0  0  0
   -5.6590   19.8560  -31.9200 N   0  0  0  0  0  0  0  0  0  0  0  0
   -5.9420   19.3570  -33.2410 C   0  0  0  0  0  0  0  0  0  0  0  0
   -6.3390   20.1490  -34.1400 O   0  0  0  0  0  0  0  0  0  0  0  0
   -5.7780   17.9210  -33.5730 C   0  0  0  0  0  0  0  0  0  0  0  0
   -4.5100   17.4250  -33.9120 C   0  0  0  0  0  0  0  0  0  0  0  0
   -4.3340   16.0750  -34.2250 C   0  0  0  0  0  0  0  0  0  0  0  0
   -5.4210   15.1780  -34.1980 C   0  0  0  0  0  0  0  0  0  0  0  0
   -5.2390   13.7750  -34.5240 N   0  0  0  0  0  0  0  0  0  0  0  0
   -3.9480   13.2860  -35.0230 C   0  0  0  0  0  0  0  0  0  0  0  0
   -6.3430   12.8210  -34.3590 C   0  0  0  0  0  0  0  0  0  0  0  0
   -6.6900   15.6810  -33.8410 C   0  0  0  0  0  0  0  0  0  0  0  0
   -6.8650   17.0320  -33.5300 C   0  0  0  0  0  0  0  0  0  0  0  0
   -8.8651   20.6010  -30.9921 H   0  0  0  0  0  0  0  0  0  0  0  0
   -9.0602   21.5588  -32.4992 H   0  0  0  0  0  0  0  0  0  0  0  0
   -8.0364   20.0828  -32.4992 H   0  0  0  0  0  0  0  0  0  0  0  0
   -8.3455   23.5722  -31.2065 H   0  0  0  0  0  0  0  0  0  0  0  0
   -6.3946   24.9788  -30.5753 H   0  0  0  0  0  0  0  0  0  0  0  0
   -3.4477   21.0637  -29.7938 H   0  0  0  0  0  0  0  0  0  0  0  0
   -3.0388   19.5936  -27.8216 H   0  0  0  0  0  0  0  0  0  0  0  0
   -1.6993   20.4305  -25.8932 H   0  0  0  0  0  0  0  0  0  0  0  0
   -0.7850   22.7491  -25.9169 H   0  0  0  0  0  0  0  0  0  0  0  0
   -0.9795   25.0196  -25.5162 H   0  0  0  0  0  0  0  0  0  0  0  0
   -0.4864   26.5668  -26.2840 H   0  0  0  0  0  0  0  0  0  0  0  0
   -2.2139   26.0747  -26.2840 H   0  0  0  0  0  0  0  0  0  0  0  0
   -3.7522   21.6127  -31.2245 H   0  0  0  0  0  0  0  0  0  0  0  0
   -5.2740   19.2060  -31.2000 H   0  0  0  0  0  0  0  0  0  0  0  0
   -3.6462   18.1058  -33.9315 H   0  0  0  0  0  0  0  0  0  0  0  0
   -3.3335   15.7069  -34.4962 H   0  0  0  0  0  0  0  0  0  0  0  0
   -3.2958   13.0390  -34.1723 H   0  0  0  0  0  0  0  0  0  0  0  0
   -4.1085   12.3864  -35.6353 H   0  0  0  0  0  0  0  0  0  0  0  0
   -3.4722   14.0662  -35.6353 H   0  0  0  0  0  0  0  0  0  0  0  0
   -6.5305   12.6590  -33.2873 H   0  0  0  0  0  0  0  0  0  0  0  0
   -7.2500   13.2243  -34.8331 H   0  0  0  0  0  0  0  0  0  0  0  0
   -6.0755   11.8651  -34.8331 H   0  0  0  0  0  0  0  0  0  0  0  0
   -7.5534   15.0003  -33.8070 H   0  0  0  0  0  0  0  0  0  0  0  0
   -7.8620   17.4025  -33.2492 H   0  0  0  0  0  0  0  0  0  0  0  0
  1  2  1  0
  2  3  2  0
  3  4  1  0
  4  5  2  0
  5  6  1  0
  6  7  2  0
  6  8  1  0
  8  9  1  0
  9 10  2  0
 10 11  1  0
 11 12  2  0
 12 13  1  0
 13 14  2  0
 14 15  1  0
 15 16  1  0
 15 17  2  0
 15 18  2  0
  5 19  1  0
 19 20  2  0
 20 21  1  0
 21 22  1  0
 22 23  2  0
 22 24  1  0
 24 25  2  0
 25 26  1  0
 26 27  2  0
 27 28  1  0
 28 29  1  0
 28 30  1  0
 27 31  1  0
 31 32  2  0
 20  2  1  0
 32 24  1  0
 14  9  1  0
  1 33  1  0
  1 34  1  0
  1 35  1  0
  3 36  1  0
  4 37  1  0
 10 38  1  0
 11 39  1  0
 12 40  1  0
 13 41  1  0
 16 42  1  0
 16 43  1  0
 16 44  1  0
 19 45  1  0
 21 46  1  0
 25 47  1  0
 26 48  1  0
 29 49  1  0
 29 50  1  0
 29 51  1  0
 30 52  1  0
 30 53  1  0
 30 54  1  0
 31 55  1  0
 32 56  1  0
M  CHG  1   8  -1
M  END
>  <UniqueID>  (36) 
34

>  <SMILES>  (36) 
Cc1ccc(C(=O)[N-]c2ccccc2S(C)(=O)=O)cc1NC(=O)c1ccc(N(C)C)cc1

>  <Energy>  (36) 
69.51257366650013

>  <Genealogy>  (36) 
Cc1ccc(C(=O)[N-]c2ccccc2S(C)(=O)=O)cc1NC(=O)c1ccc(N(C)C)cc1 (protonated)
Cc1ccc(C(=O)[N-]c2ccccc2S(C)(=O)=O)cc1NC(=O)c1ccc(N(C)C)cc1 (3D coordinates assigned)
Cc1ccc(C(=O)[N-]c2ccccc2S(C)(=O)=O)cc1NC(=O)c1ccc(N(C)C)cc1 (optimized conformer: 69.51257366650013 kcal/mol)

>  <smiles>  (36) 
Cc1ccc(C(=O)Nc2ccccc2S(C)(=O)=O)cc1NC(=O)c1ccc(N(C)C)cc1

>  <score_type>  (36) 
oracle

>  <origin>  (36) 
adgpu

>  <m_score__min__energy>  (36) 
-11.470000000000001

>  <m_primary>  (36) 
energy

$$$$
36:0
     RDKit          3D

 68 71  0  0  0  0  0  0  0  0999 V2000
   -9.5300   20.4490  -32.1990 C   0  0  0  0  0  0  0  0  0  0  0  0
   -8.2620   21.2380  -32.0040 C   0  0  0  0  0  0  0  0  0  0  0  0
   -8.3710   22.6100  -31.7240 C   0  0  0  0  0  0  0  0  0  0  0  0
   -7.2340   23.3930  -31.5410 C   0  0  0  0  0  0  0  0  0  0  0  0
   -5.9600   22.8180  -31.6150 C   0  0  0  0  0  0  0  0  0  0  0  0
   -4.7760   23.6150  -31.4840 N   0  0  0  0  0  0  0  0  0  0  0  0
   -4.7030   24.8990  -30.8530 C   0  0  0  0  0  0  0  0  0  0  0  0
   -5.6610   25.7050  -30.9960 O   0  0  0  0  0  0  0  0  0  0  0  0
   -3.5120   25.2990  -30.1610 N   0  0  0  0  0  0  0  0  0  0  0  0
   -2.7480   24.4780  -29.2680 C   0  0  0  0  0  0  0  0  0  0  0  0
   -1.3460   24.4010  -29.3490 C   0  0  0  0  0  0  0  0  0  0  0  0
   -0.6320   23.6040  -28.4510 C   0  0  0  0  0  0  0  0  0  0  0  0
   -1.3050   22.8730  -27.4620 C   0  0  0  0  0  0  0  0  0  0  0  0
   -0.4010   21.8440  -26.3490 S   0  0  0  0  0  0  0  0  0  0  0  0
    0.5820   21.0220  -27.1380 O   0  0  0  0  0  0  0  0  0  0  0  0
   -1.3500   20.9080  -25.6520 O   0  0  0  0  0  0  0  0  0  0  0  0
    0.4600   22.8190  -25.1770 N   0  0  0  0  0  0  0  0  0  0  0  0
    1.2330   23.8780  -25.8700 C   0  0  0  0  0  0  0  0  0  0  0  0
    1.6000   25.0270  -24.9240 C   0  0  0  0  0  0  0  0  0  0  0  0
    0.3340   25.7260  -24.3710 C   0  0  0  0  0  0  0  0  0  0  0  0
    0.0090   27.0000  -25.1640 C   0  0  0  0  0  0  0  0  0  0  0  0
   -0.8890   24.7780  -24.3500 C   0  0  0  0  0  0  0  0  0  0  0  0
   -0.4570   23.3230  -24.1230 C   0  0  0  0  0  0  0  0  0  0  0  0
   -2.6980   22.9750  -27.3620 C   0  0  0  0  0  0  0  0  0  0  0  0
   -3.4130   23.7840  -28.2510 C   0  0  0  0  0  0  0  0  0  0  0  0
   -5.8320   21.4510  -31.8950 C   0  0  0  0  0  0  0  0  0  0  0  0
   -4.5550   20.9070  -32.0030 O   0  0  0  0  0  0  0  0  0  0  0  0
   -6.9750   20.6380  -32.0670 C   0  0  0  0  0  0  0  0  0  0  0  0
   -6.7640   18.9050  -32.4200 S   0  0  0  0  0  0  0  0  0  0  0  0
   -6.4860   18.1470  -31.1500 O   0  0  0  0  0  0  0  0  0  0  0  0
   -8.0200   18.3360  -33.0180 O   0  0  0  0  0  0  0  0  0  0  0  0
   -5.3960   18.6880  -33.5610 C   0  0  0  0  0  0  0  0  0  0  0  0
   -5.7670   17.6790  -34.6570 C   0  0  0  0  0  0  0  0  0  0  0  0
   -4.5650   17.4170  -35.5750 C   0  0  0  0  0  0  0  0  0  0  0  0
   -3.3990   16.9490  -34.8130 N   0  0  0  0  0  0  0  0  0  0  0  0
   -2.9950   17.9350  -33.8010 C   0  0  0  0  0  0  0  0  0  0  0  0
   -4.1350   18.2240  -32.8140 C   0  0  0  0  0  0  0  0  0  0  0  0
   -9.9527   20.1860  -31.2181 H   0  0  0  0  0  0  0  0  0  0  0  0
  -10.2562   21.0550  -32.7607 H   0  0  0  0  0  0  0  0  0  0  0  0
   -9.3072   19.5298  -32.7607 H   0  0  0  0  0  0  0  0  0  0  0  0
   -9.3666   23.0717  -31.6483 H   0  0  0  0  0  0  0  0  0  0  0  0
   -7.3377   24.4690  -31.3372 H   0  0  0  0  0  0  0  0  0  0  0  0
   -0.8097   24.9705  -30.1224 H   0  0  0  0  0  0  0  0  0  0  0  0
    0.4645   23.5497  -28.5203 H   0  0  0  0  0  0  0  0  0  0  0  0
    2.1579   23.4385  -26.2718 H   0  0  0  0  0  0  0  0  0  0  0  0
    0.6062   24.2863  -26.6765 H   0  0  0  0  0  0  0  0  0  0  0  0
    2.1843   24.6259  -24.0828 H   0  0  0  0  0  0  0  0  0  0  0  0
    2.1872   25.7670  -25.4876 H   0  0  0  0  0  0  0  0  0  0  0  0
    0.5567   26.0092  -23.3317 H   0  0  0  0  0  0  0  0  0  0  0  0
   -0.2010   27.8232  -24.4653 H   0  0  0  0  0  0  0  0  0  0  0  0
    0.8679   27.2667  -25.7974 H   0  0  0  0  0  0  0  0  0  0  0  0
   -0.8727   26.8227  -25.7974 H   0  0  0  0  0  0  0  0  0  0  0  0
   -1.5657   25.0826  -23.5380 H   0  0  0  0  0  0  0  0  0  0  0  0
   -1.3982   24.8433  -25.3229 H   0  0  0  0  0  0  0  0  0  0  0  0
    0.0552   23.2568  -23.1518 H   0  0  0  0  0  0  0  0  0  0  0  0
   -1.3644   22.7019  -24.1517 H   0  0  0  0  0  0  0  0  0  0  0  0
   -3.2328   22.4159  -26.5801 H   0  0  0  0  0  0  0  0  0  0  0  0
   -4.5046   23.8753  -28.1502 H   0  0  0  0  0  0  0  0  0  0  0  0
   -5.1833   19.6584  -34.0332 H   0  0  0  0  0  0  0  0  0  0  0  0
   -6.0777   16.7335  -34.1886 H   0  0  0  0  0  0  0  0  0  0  0  0
   -6.5903   18.0927  -35.2578 H   0  0  0  0  0  0  0  0  0  0  0  0
   -4.8401   16.6506  -36.3145 H   0  0  0  0  0  0  0  0  0  0  0  0
   -4.2971   18.3612  -36.0717 H   0  0  0  0  0  0  0  0  0  0  0  0
   -3.6450   16.0510  -34.3330 H   0  0  0  0  0  0  0  0  0  0  0  0
   -2.1307   17.5433  -33.2447 H   0  0  0  0  0  0  0  0  0  0  0  0
   -2.7361   18.8724  -34.3150 H   0  0  0  0  0  0  0  0  0  0  0  0
   -4.3657   17.3079  -32.2505 H   0  0  0  0  0  0  0  0  0  0  0  0
   -3.8156   19.0232  -32.1290 H   0  0  0  0  0  0  0  0  0  0  0  0
  1  2  1  0
  2  3  2  0
  3  4  1  0
  4  5  2  0
  5  6  1  0
  6  7  1  0
  7  8  2  0
  7  9  1  0
  9 10  1  0
 10 11  2  0
 11 12  1  0
 12 13  2  0
 13 14  1  0
 14 15  2  0
 14 16  2  0
 14 17  1  0
 17 18  1  0
 18 19  1  0
 19 20  1  0
 20 21  1  0
 20 22  1  0
 22 23  1  0
 13 24  1  0
 24 25  2  0
  5 26  1  0
 26 27  1  0
 26 28  2  0
 28 29  1  0
 29 30  2  0
 29 31  2  0
 29 32  1  0
 32 33  1  0
 33 34  1  0
 34 35  1  0
 35 36  1  0
 36 37  1  0
 28  2  1  0
 37 32  1  0
 25 10  1  0
 23 17  1  0
  1 38  1  0
  1 39  1  0
  1 40  1  0
  3 41  1  0
  4 42  1  0
 11 43  1  0
 12 44  1  0
 18 45  1  0
 18 46  1  0
 19 47  1  0
 19 48  1  0
 20 49  1  0
 21 50  1  0
 21 51  1  0
 21 52  1  0
 22 53  1  0
 22 54  1  0
 23 55  1  0
 23 56  1  0
 24 57  1  0
 25 58  1  0
 32 59  1  0
 33 60  1  0
 33 61  1  0
 34 62  1  0
 34 63  1  0
 35 64  1  0
 36 65  1  0
 36 66  1  0
 37 67  1  0
 37 68  1  0
M  CHG  3   6  -1   9  -1  27  -1
M  END
>  <UniqueID>  (37) 
35

>  <SMILES>  (37) 
Cc1ccc([N-]C(=O)[N-]c2ccc(S(=O)(=O)N3CCC(C)CC3)cc2)c([O-])c1S(=O)(=O)C1CCNCC1

>  <Energy>  (37) 
78.31988540183296

>  <Genealogy>  (37) 
Cc1ccc([N-]C(=O)[N-]c2ccc(S(=O)(=O)N3CCC(C)CC3)cc2)c([O-])c1S(=O)(=O)C1CCNCC1 (protonated)
Cc1ccc([N-]C(=O)[N-]c2ccc(S(=O)(=O)N3CCC(C)CC3)cc2)c([O-])c1S(=O)(=O)C1CCNCC1 (3D coordinates assigned)
Cc1ccc([N-]C(=O)[N-]c2ccc(S(=O)(=O)N3CCC(C)CC3)cc2)c([O-])c1S(=O)(=O)C1CCNCC1 (nonaromatic ring conformer: 78.31988540183296 kcal/mol)

>  <smiles>  (37) 
Cc1ccc(NC(=O)Nc2ccc(S(=O)(=O)N3CCC(C)CC3)cc2)c(O)c1S(=O)(=O)C1CCNCC1

>  <score_type>  (37) 
oracle

>  <origin>  (37) 
adgpu

>  <m_score__min__energy>  (37) 
-18.32

>  <m_primary>  (37) 
energy

$$$$
37:0
     RDKit          3D

 35 37  0  0  0  0  0  0  0  0999 V2000
    0.5040   23.2950  -27.9620 C   0  0  0  0  0  0  0  0  0  0  0  0
   -0.7680   23.1780  -28.7490 C   0  0  0  0  0  0  0  0  0  0  0  0
   -1.1110   21.9640  -29.3600 C   0  0  0  0  0  0  0  0  0  0  0  0
   -2.2760   21.8580  -30.1250 C   0  0  0  0  0  0  0  0  0  0  0  0
   -3.1220   22.9760  -30.3020 C   0  0  0  0  0  0  0  0  0  0  0  0
   -2.7530   24.2030  -29.7040 C   0  0  0  0  0  0  0  0  0  0  0  0
   -1.5860   24.3000  -28.9390 C   0  0  0  0  0  0  0  0  0  0  0  0
   -3.5350   25.2960  -29.8780 N   0  0  0  0  0  0  0  0  0  0  0  0
   -4.6700   25.2430  -30.6160 C   0  0  0  0  0  0  0  0  0  0  0  0
   -5.3720   26.2790  -30.7580 O   0  0  0  0  0  0  0  0  0  0  0  0
   -5.0540   24.0350  -31.2120 C   0  0  0  0  0  0  0  0  0  0  0  0
   -6.1170   23.9880  -31.8930 O   0  0  0  0  0  0  0  0  0  0  0  0
   -4.2800   22.9130  -31.0480 N   0  0  0  0  0  0  0  0  0  0  0  0
   -4.7070   21.6810  -31.6600 C   0  0  0  0  0  0  0  0  0  0  0  0
   -5.9080   21.0760  -31.2630 C   0  0  0  0  0  0  0  0  0  0  0  0
   -6.3240   19.8810  -31.8580 C   0  0  0  0  0  0  0  0  0  0  0  0
   -5.5400   19.2800  -32.8520 C   0  0  0  0  0  0  0  0  0  0  0  0
   -6.0720   17.7830  -33.6140 S   0  0  0  0  0  0  0  0  0  0  0  0
   -5.8120   17.8770  -35.3200 N   0  0  0  0  0  0  0  0  0  0  0  0
   -7.5330   17.5650  -33.3390 O   0  0  0  0  0  0  0  0  0  0  0  0
   -5.2980   16.6240  -33.0530 O   0  0  0  0  0  0  0  0  0  0  0  0
   -4.3450   19.8910  -33.2570 C   0  0  0  0  0  0  0  0  0  0  0  0
   -3.9290   21.0860  -32.6630 C   0  0  0  0  0  0  0  0  0  0  0  0
    0.2731   23.2738  -26.8867 H   0  0  0  0  0  0  0  0  0  0  0  0
    1.1680   22.4541  -28.2111 H   0  0  0  0  0  0  0  0  0  0  0  0
    1.0035   24.2429  -28.2111 H   0  0  0  0  0  0  0  0  0  0  0  0
   -0.4580   21.0875  -29.2364 H   0  0  0  0  0  0  0  0  0  0  0  0
   -2.5363   20.8971  -30.5928 H   0  0  0  0  0  0  0  0  0  0  0  0
   -1.3087   25.2623  -28.4840 H   0  0  0  0  0  0  0  0  0  0  0  0
   -6.5248   21.5429  -30.4810 H   0  0  0  0  0  0  0  0  0  0  0  0
   -7.2685   19.4117  -31.5453 H   0  0  0  0  0  0  0  0  0  0  0  0
   -6.4890   18.5810  -35.6930 H   0  0  0  0  0  0  0  0  0  0  0  0
   -4.8560   18.2720  -35.4620 H   0  0  0  0  0  0  0  0  0  0  0  0
   -3.7326   19.4284  -34.0450 H   0  0  0  0  0  0  0  0  0  0  0  0
   -2.9896   21.5603  -32.9831 H   0  0  0  0  0  0  0  0  0  0  0  0
  1  2  1  0
  2  3  2  0
  3  4  1  0
  4  5  2  0
  5  6  1  0
  6  7  2  0
  6  8  1  0
  8  9  1  0
  9 10  2  0
  9 11  1  0
 11 12  2  0
 11 13  1  0
 13 14  1  0
 14 15  2  0
 15 16  1  0
 16 17  2  0
 17 18  1  0
 18 19  1  0
 18 20  2  0
 18 21  2  0
 17 22  1  0
 22 23  2  0
  7  2  1  0
 23 14  1  0
 13  5  1  0
  1 24  1  0
  1 25  1  0
  1 26  1  0
  3 27  1  0
  4 28  1  0
  7 29  1  0
 15 30  1  0
 16 31  1  0
 19 32  1  0
 19 33  1  0
 22 34  1  0
 23 35  1  0
M  CHG  1   8  -1
M  END
>  <UniqueID>  (38) 
36

>  <SMILES>  (38) 
Cc1ccc2c(c1)[n-]c(=O)c(=O)n2-c1ccc(S(N)(=O)=O)cc1

>  <Energy>  (38) 
51.72010018358033

>  <Genealogy>  (38) 
Cc1ccc2c(c1)[n-]c(=O)c(=O)n2-c1ccc(S(N)(=O)=O)cc1 (protonated)
Cc1ccc2c(c1)[n-]c(=O)c(=O)n2-c1ccc(S(N)(=O)=O)cc1 (3D coordinates assigned)
Cc1ccc2c(c1)[n-]c(=O)c(=O)n2-c1ccc(S(N)(=O)=O)cc1 (optimized conformer: 51.72010018358033 kcal/mol)

>  <smiles>  (38) 
Cc1ccc2c(c1)[nH]c(=O)c(=O)n2-c1ccc(S(N)(=O)=O)cc1

>  <score_type>  (38) 
oracle

>  <origin>  (38) 
adgpu

>  <m_score__min__energy>  (38) 
-8.9399999999999995

>  <m_primary>  (38) 
energy

$$$$
38:0
     RDKit          3D

 61 64  0  0  0  0  0  0  0  0999 V2000
   -2.7268   22.8585  -30.4675 H   0  0  0  0  0  0  0  0  0  0  0  0
   -2.6820   22.0660  -31.2290 C   0  0  0  0  0  0  0  0  0  0  0  0
   -1.8430   20.9620  -31.0410 C   0  0  0  0  0  0  0  0  0  0  0  0
   -1.2295   20.8874  -30.1310 H   0  0  0  0  0  0  0  0  0  0  0  0
   -1.7830   19.9530  -32.0080 C   0  0  0  0  0  0  0  0  0  0  0  0
   -1.1248   19.0851  -31.8543 H   0  0  0  0  0  0  0  0  0  0  0  0
   -2.5610   20.0440  -33.1760 C   0  0  0  0  0  0  0  0  0  0  0  0
   -2.5250   18.9340  -34.1900 C   0  0  0  0  0  0  0  0  0  0  0  0
   -1.4794   18.6602  -34.3943 H   0  0  0  0  0  0  0  0  0  0  0  0
   -3.0079   19.2748  -35.1177 H   0  0  0  0  0  0  0  0  0  0  0  0
   -3.2390   17.7690  -33.6760 N   0  0  0  0  0  0  0  0  0  0  0  0
   -4.2920   17.1120  -34.3870 C   0  0  0  0  0  0  0  0  0  0  0  0
   -4.0410   16.4550  -35.4360 O   0  0  0  0  0  0  0  0  0  0  0  0
   -5.7030   17.2530  -33.8950 C   0  0  0  0  0  0  0  0  0  0  0  0
   -6.1626   16.2550  -33.8414 H   0  0  0  0  0  0  0  0  0  0  0  0
   -6.2464   17.9019  -34.5976 H   0  0  0  0  0  0  0  0  0  0  0  0
   -5.7570   17.8570  -32.6010 O   0  0  0  0  0  0  0  0  0  0  0  0
   -6.6270   18.8940  -32.2210 C   0  0  0  0  0  0  0  0  0  0  0  0
   -8.0290   18.7880  -32.3210 C   0  0  0  0  0  0  0  0  0  0  0  0
   -8.4818   17.8689  -32.7213 H   0  0  0  0  0  0  0  0  0  0  0  0
   -8.8450   19.8450  -31.9140 C   0  0  0  0  0  0  0  0  0  0  0  0
   -9.9387   19.7541  -31.9887 H   0  0  0  0  0  0  0  0  0  0  0  0
   -8.2760   21.0180  -31.4120 C   0  0  0  0  0  0  0  0  0  0  0  0
   -8.9225   21.8464  -31.0868 H   0  0  0  0  0  0  0  0  0  0  0  0
   -6.8830   21.1410  -31.3220 C   0  0  0  0  0  0  0  0  0  0  0  0
   -6.2840   22.3820  -30.8010 C   0  0  0  0  0  0  0  0  0  0  0  0
   -5.4590   22.3050  -29.7250 N   0  0  0  0  0  0  0  0  0  0  0  0
   -4.8450   23.4010  -29.2110 C   0  0  0  0  0  0  0  0  0  0  0  0
   -4.0540   23.2490  -28.1860 N   0  0  0  0  0  0  0  0  0  0  0  0
   -3.2150   24.2430  -27.5760 C   0  0  0  0  0  0  0  0  0  0  0  0
   -3.5740   24.7660  -26.3270 C   0  0  0  0  0  0  0  0  0  0  0  0
   -4.5148   24.4511  -25.8520 H   0  0  0  0  0  0  0  0  0  0  0  0
   -2.7430   25.6860  -25.6810 C   0  0  0  0  0  0  0  0  0  0  0  0
   -3.0384   26.1025  -24.7067 H   0  0  0  0  0  0  0  0  0  0  0  0
   -1.5340   26.0790  -26.2720 C   0  0  0  0  0  0  0  0  0  0  0  0
   -0.4690   27.2220  -25.4580 S   0  0  0  0  0  0  0  0  0  0  0  0
   -1.0920   28.5880  -25.4500 O   0  0  0  0  0  0  0  0  0  0  0  0
    0.8440   27.2940  -26.1840 O   0  0  0  0  0  0  0  0  0  0  0  0
   -0.2010   26.6860  -23.7840 C   0  0  0  0  0  0  0  0  0  0  0  0
   -0.5824   27.4488  -23.0893 H   0  0  0  0  0  0  0  0  0  0  0  0
   -0.7307   25.7371  -23.6136 H   0  0  0  0  0  0  0  0  0  0  0  0
    0.8759   26.5405  -23.6136 H   0  0  0  0  0  0  0  0  0  0  0  0
   -1.1520   25.5250  -27.5000 C   0  0  0  0  0  0  0  0  0  0  0  0
   -0.1959   25.8167  -27.9592 H   0  0  0  0  0  0  0  0  0  0  0  0
   -1.9810   24.6030  -28.1440 C   0  0  0  0  0  0  0  0  0  0  0  0
   -1.6666   24.1572  -29.0992 H   0  0  0  0  0  0  0  0  0  0  0  0
   -5.0900   24.6280  -29.7630 N   0  0  0  0  0  0  0  0  0  0  0  0
   -4.6920   25.5030  -29.3570 H   0  0  0  0  0  0  0  0  0  0  0  0
   -5.9110   24.7570  -30.8390 C   0  0  0  0  0  0  0  0  0  0  0  0
   -6.0822   25.7503  -31.2796 H   0  0  0  0  0  0  0  0  0  0  0  0
   -6.5400   23.6340  -31.3900 C   0  0  0  0  0  0  0  0  0  0  0  0
   -7.4470   23.7860  -32.5810 C   0  0  0  0  0  0  0  0  0  0  0  0
   -8.4776   23.9587  -32.2374 H   0  0  0  0  0  0  0  0  0  0  0  0
   -7.1148   24.6410  -33.1881 H   0  0  0  0  0  0  0  0  0  0  0  0
   -7.4117   22.8694  -33.1881 H   0  0  0  0  0  0  0  0  0  0  0  0
   -6.0650   20.0770  -31.7240 C   0  0  0  0  0  0  0  0  0  0  0  0
   -4.9716   20.1714  -31.6487 H   0  0  0  0  0  0  0  0  0  0  0  0
   -3.4070   21.1510  -33.3540 C   0  0  0  0  0  0  0  0  0  0  0  0
   -4.0285   21.2252  -34.2586 H   0  0  0  0  0  0  0  0  0  0  0  0
   -3.4630   22.1620  -32.3840 C   0  0  0  0  0  0  0  0  0  0  0  0
   -4.1215   23.0306  -32.5321 H   0  0  0  0  0  0  0  0  0  0  0  0
  1  2  1  0
  2  3  2  0
  3  4  1  0
  3  5  1  0
  5  6  1  0
  5  7  2  0
  7  8  1  0
  8  9  1  0
  8 10  1  0
  8 11  1  0
 11 12  1  0
 12 13  2  0
 12 14  1  0
 14 15  1  0
 14 16  1  0
 14 17  1  0
 17 18  1  0
 18 19  2  0
 19 20  1  0
 19 21  1  0
 21 22  1  0
 21 23  2  0
 23 24  1  0
 23 25  1  0
 25 26  1  0
 26 27  2  0
 27 28  1  0
 28 29  2  0
 29 30  1  0
 30 31  2  0
 31 32  1  0
 31 33  1  0
 33 34  1  0
 33 35  2  0
 35 36  1  0
 36 37  2  0
 36 38  2  0
 36 39  1  0
 39 40  1  0
 39 41  1  0
 39 42  1  0
 35 43  1  0
 43 44  1  0
 43 45  2  0
 45 46  1  0
 28 47  1  0
 47 48  1  0
 47 49  1  0
 49 50  1  0
 49 51  2  0
 51 52  1  0
 52 53  1  0
 52 54  1  0
 52 55  1  0
 25 56  2  0
 56 57  1  0
  7 58  1  0
 58 59  1  0
 58 60  2  0
 60 61  1  0
 60  2  1  0
 56 18  1  0
 51 26  1  0
 45 30  1  0
M  CHG  1  11  -1
M  END
>  <UniqueID>  (39) 
37

>  <SMILES>  (39) 
Cc1c[nH]/c(=N\c2ccc(S(C)(=O)=O)cc2)nc1-c1cccc(OCC(=O)[N-]Cc2ccccc2)c1

>  <Energy>  (39) 
77.06532418320273

>  <Genealogy>  (39) 
Cc1c[nH]c(=Nc2ccc(S(C)(=O)=O)cc2)nc1-c1cccc(OCC(=O)[N-]Cc2ccccc2)c1 (protonated)
Cc1c[nH]/c(=N\c2ccc(S(C)(=O)=O)cc2)nc1-c1cccc(OCC(=O)[N-]Cc2ccccc2)c1 (cis-trans isomerization)
Cc1c[nH]/c(=N\c2ccc(S(C)(=O)=O)cc2)nc1-c1cccc(OCC(=O)[N-]Cc2ccccc2)c1 (3D coordinates assigned)
Cc1c[nH]/c(=N\c2ccc(S(C)(=O)=O)cc2)nc1-c1cccc(OCC(=O)[N-]Cc2ccccc2)c1 (optimized conformer: 77.06532418320273 kcal/mol)

>  <smiles>  (39) 
Cc1c[nH]c(=Nc2ccc(S(C)(=O)=O)cc2)nc1-c1cccc(OCC(=O)NCc2ccccc2)c1

>  <score_type>  (39) 
oracle

>  <origin>  (39) 
adgpu

>  <m_score__min__energy>  (39) 
-10.369999999999999

>  <m_primary>  (39) 
energy

$$$$
39:0
     RDKit          3D

 34 36  0  0  0  0  0  0  0  0999 V2000
   -6.9080   13.2820  -34.1870 N   0  0  0  0  0  0  0  0  0  0  0  0
   -6.1260   14.1330  -34.2440 C   0  0  0  0  0  0  0  0  0  0  0  0
   -5.1530   15.1920  -34.3150 C   0  0  0  0  0  0  0  0  0  0  0  0
   -3.9230   14.9710  -34.9450 C   0  0  0  0  0  0  0  0  0  0  0  0
   -2.9770   15.9960  -35.0110 C   0  0  0  0  0  0  0  0  0  0  0  0
   -3.2540   17.2450  -34.4470 C   0  0  0  0  0  0  0  0  0  0  0  0
   -4.4860   17.4830  -33.8110 C   0  0  0  0  0  0  0  0  0  0  0  0
   -4.7830   18.8100  -33.2130 C   0  0  0  0  0  0  0  0  0  0  0  0
   -3.9490   19.9120  -33.4700 C   0  0  0  0  0  0  0  0  0  0  0  0
   -4.2280   21.1600  -32.9070 C   0  0  0  0  0  0  0  0  0  0  0  0
   -5.3490   21.3330  -32.0810 C   0  0  0  0  0  0  0  0  0  0  0  0
   -5.6320   22.6190  -31.4940 N   0  0  0  0  0  0  0  0  0  0  0  0
   -6.9330   22.9520  -31.2340 C   0  0  0  0  0  0  0  0  0  0  0  0
   -7.2540   24.1900  -30.6760 C   0  0  0  0  0  0  0  0  0  0  0  0
   -6.2370   25.0940  -30.3820 C   0  0  0  0  0  0  0  0  0  0  0  0
   -4.9090   24.7540  -30.6390 C   0  0  0  0  0  0  0  0  0  0  0  0
   -3.9020   25.6690  -30.3320 O   0  0  0  0  0  0  0  0  0  0  0  0
   -4.6160   23.4980  -31.1990 C   0  0  0  0  0  0  0  0  0  0  0  0
   -3.4140   23.1790  -31.4120 O   0  0  0  0  0  0  0  0  0  0  0  0
   -6.1820   20.2330  -31.8180 C   0  0  0  0  0  0  0  0  0  0  0  0
   -5.9030   18.9840  -32.3800 C   0  0  0  0  0  0  0  0  0  0  0  0
   -5.4340   16.4430  -33.7500 C   0  0  0  0  0  0  0  0  0  0  0  0
   -3.7013   13.9891  -35.3885 H   0  0  0  0  0  0  0  0  0  0  0  0
   -2.0115   15.8204  -35.5079 H   0  0  0  0  0  0  0  0  0  0  0  0
   -2.5033   18.0472  -34.5010 H   0  0  0  0  0  0  0  0  0  0  0  0
   -3.0696   19.7909  -34.1196 H   0  0  0  0  0  0  0  0  0  0  0  0
   -3.5643   22.0127  -33.1127 H   0  0  0  0  0  0  0  0  0  0  0  0
   -7.7349   22.2361  -31.4673 H   0  0  0  0  0  0  0  0  0  0  0  0
   -8.3029   24.4497  -30.4700 H   0  0  0  0  0  0  0  0  0  0  0  0
   -6.4804   26.0749  -29.9477 H   0  0  0  0  0  0  0  0  0  0  0  0
   -3.0070   25.6660  -30.8080 H   0  0  0  0  0  0  0  0  0  0  0  0
   -7.0593   20.3553  -31.1658 H   0  0  0  0  0  0  0  0  0  0  0  0
   -6.5643   18.1306  -32.1693 H   0  0  0  0  0  0  0  0  0  0  0  0
   -6.4015   16.6141  -33.2554 H   0  0  0  0  0  0  0  0  0  0  0  0
  1  2  3  0
  2  3  1  0
  3  4  2  0
  4  5  1  0
  5  6  2  0
  6  7  1  0
  7  8  1  0
  8  9  2  0
  9 10  1  0
 10 11  2  0
 11 12  1  0
 12 13  1  0
 13 14  2  0
 14 15  1  0
 15 16  2  0
 16 17  1  0
 16 18  1  0
 18 19  2  0
 11 20  1  0
 20 21  2  0
  7 22  2  0
 22  3  1  0
 21  8  1  0
 18 12  1  0
  4 23  1  0
  5 24  1  0
  6 25  1  0
  9 26  1  0
 10 27  1  0
 13 28  1  0
 14 29  1  0
 15 30  1  0
 17 31  1  0
 20 32  1  0
 21 33  1  0
 22 34  1  0
M  END
>  <UniqueID>  (40) 
38

>  <SMILES>  (40) 
N#Cc1cccc(-c2ccc(-n3cccc(O)c3=O)cc2)c1

>  <Energy>  (40) 
50.720893188969484

>  <Genealogy>  (40) 
N#Cc1cccc(-c2ccc(-n3cccc(O)c3=O)cc2)c1 (3D coordinates assigned)
N#Cc1cccc(-c2ccc(-n3cccc(O)c3=O)cc2)c1 (optimized conformer: 50.720893188969484 kcal/mol)

>  <smiles>  (40) 
N#Cc1cccc(-c2ccc(-n3cccc(O)c3=O)cc2)c1

>  <score_type>  (40) 
oracle

>  <origin>  (40) 
adgpu

>  <m_score__min__energy>  (40) 
-9.0099999999999998

>  <m_primary>  (40) 
energy

$$$$
40:0
     RDKit          3D

 48 51  0  0  0  0  0  0  0  0999 V2000
   -6.2261   24.3788  -31.9641 H   0  0  0  0  0  0  0  0  0  0  0  0
   -5.7950   23.4590  -31.5420 C   0  0  0  0  0  0  0  0  0  0  0  0
   -6.2720   22.1650  -32.0720 C   0  0  0  0  0  0  0  0  0  0  0  0
   -7.5420   21.6530  -31.8800 C   0  0  0  0  0  0  0  0  0  0  0  0
   -8.3450   22.0962  -31.2727 H   0  0  0  0  0  0  0  0  0  0  0  0
   -7.6050   20.4730  -32.6020 C   0  0  0  0  0  0  0  0  0  0  0  0
   -8.8320   19.6240  -32.7320 C   0  0  0  0  0  0  0  0  0  0  0  0
   -9.2064   19.3649  -31.7306 H   0  0  0  0  0  0  0  0  0  0  0  0
   -9.6064   20.1803  -33.2804 H   0  0  0  0  0  0  0  0  0  0  0  0
   -8.5843   18.7032  -33.2804 H   0  0  0  0  0  0  0  0  0  0  0  0
   -6.4380   20.2590  -33.2540 N   0  0  0  0  0  0  0  0  0  0  0  0
   -6.1300   19.1830  -34.2010 C   0  0  0  0  0  0  0  0  0  0  0  0
   -7.0213   18.9699  -34.8094 H   0  0  0  0  0  0  0  0  0  0  0  0
   -5.2987   19.5037  -34.8461 H   0  0  0  0  0  0  0  0  0  0  0  0
   -5.7220   17.9340  -33.4650 C   0  0  0  0  0  0  0  0  0  0  0  0
   -4.9490   16.9570  -34.1120 C   0  0  0  0  0  0  0  0  0  0  0  0
   -4.6291   17.1126  -35.1529 H   0  0  0  0  0  0  0  0  0  0  0  0
   -4.5840   15.7870  -33.4390 C   0  0  0  0  0  0  0  0  0  0  0  0
   -3.9764   15.0257  -33.9501 H   0  0  0  0  0  0  0  0  0  0  0  0
   -4.9910   15.5840  -32.1160 C   0  0  0  0  0  0  0  0  0  0  0  0
   -4.7039   14.6632  -31.5871 H   0  0  0  0  0  0  0  0  0  0  0  0
   -5.7620   16.5510  -31.4670 C   0  0  0  0  0  0  0  0  0  0  0  0
   -6.0819   16.3904  -30.4268 H   0  0  0  0  0  0  0  0  0  0  0  0
   -6.1280   17.7220  -32.1360 C   0  0  0  0  0  0  0  0  0  0  0  0
   -6.7358   18.4804  -31.6209 H   0  0  0  0  0  0  0  0  0  0  0  0
   -5.6350   21.2970  -32.9430 C   0  0  0  0  0  0  0  0  0  0  0  0
   -4.3690   21.4820  -33.4880 O   0  0  0  0  0  0  0  0  0  0  0  0
   -4.8660   23.5840  -30.5750 C   0  0  0  0  0  0  0  0  0  0  0  0
   -4.3420   22.4790  -29.9780 N   0  0  0  0  0  0  0  0  0  0  0  0
   -3.4190   22.5560  -28.9850 C   0  0  0  0  0  0  0  0  0  0  0  0
   -2.9710   21.4910  -28.4790 O   0  0  0  0  0  0  0  0  0  0  0  0
   -2.9790   23.8210  -28.5450 C   0  0  0  0  0  0  0  0  0  0  0  0
   -2.0770   23.9470  -27.5500 C   0  0  0  0  0  0  0  0  0  0  0  0
   -1.6987   23.0282  -27.0781 H   0  0  0  0  0  0  0  0  0  0  0  0
   -1.5630   25.2460  -27.0520 C   0  0  0  0  0  0  0  0  0  0  0  0
   -1.5290   25.5390  -25.6750 C   0  0  0  0  0  0  0  0  0  0  0  0
   -1.8645   24.7850  -24.9477 H   0  0  0  0  0  0  0  0  0  0  0  0
   -1.0720   26.7810  -25.2260 C   0  0  0  0  0  0  0  0  0  0  0  0
   -1.0375   26.9965  -24.1479 H   0  0  0  0  0  0  0  0  0  0  0  0
   -0.6590   27.7490  -26.1440 C   0  0  0  0  0  0  0  0  0  0  0  0
   -0.2927   28.7234  -25.7884 H   0  0  0  0  0  0  0  0  0  0  0  0
   -0.7110   27.4800  -27.5140 C   0  0  0  0  0  0  0  0  0  0  0  0
   -0.3933   28.2469  -28.2357 H   0  0  0  0  0  0  0  0  0  0  0  0
   -1.1660   26.2380  -27.9710 C   0  0  0  0  0  0  0  0  0  0  0  0
   -1.2120   25.9930  -29.3400 O   0  0  0  0  0  0  0  0  0  0  0  0
   -3.5160   24.9270  -29.1300 N   0  0  0  0  0  0  0  0  0  0  0  0
   -4.4390   24.8500  -30.1230 C   0  0  0  0  0  0  0  0  0  0  0  0
   -4.8940   25.9150  -30.6240 O   0  0  0  0  0  0  0  0  0  0  0  0
  1  2  1  0
  2  3  1  0
  3  4  1  0
  4  5  1  0
  4  6  2  0
  6  7  1  0
  7  8  1  0
  7  9  1  0
  7 10  1  0
  6 11  1  0
 11 12  1  0
 12 13  1  0
 12 14  1  0
 12 15  1  0
 15 16  2  0
 16 17  1  0
 16 18  1  0
 18 19  1  0
 18 20  2  0
 20 21  1  0
 20 22  1  0
 22 23  1  0
 22 24  2  0
 24 25  1  0
 11 26  1  0
 26 27  1  0
  2 28  2  3
 28 29  1  0
 29 30  1  0
 30 31  2  0
 30 32  1  0
 32 33  2  0
 33 34  1  0
 33 35  1  0
 35 36  2  0
 36 37  1  0
 36 38  1  0
 38 39  1  0
 38 40  2  0
 40 41  1  0
 40 42  1  0
 42 43  1  0
 42 44  2  0
 44 45  1  0
 32 46  1  0
 46 47  1  0
 47 48  2  0
 26  3  2  0
 47 28  1  0
 24 15  1  0
 44 35  1  0
M  CHG  4  27  -1  29  -1  45  -1  46  -1
M  END
>  <UniqueID>  (41) 
39

>  <SMILES>  (41) 
Cc1cc(C=c2[n-]c(=O)/c(=C/c3ccccc3[O-])[n-]c2=O)c([O-])n1Cc1ccccc1

>  <Energy>  (41) 
94.66808890841317

>  <Genealogy>  (41) 
Cc1cc(C=c2[n-]c(=O)c(=Cc3ccccc3[O-])[n-]c2=O)c([O-])n1Cc1ccccc1 (protonated)
Cc1cc(C=c2[n-]c(=O)/c(=C/c3ccccc3[O-])[n-]c2=O)c([O-])n1Cc1ccccc1 (cis-trans isomerization)
Cc1cc(C=c2[n-]c(=O)/c(=C/c3ccccc3[O-])[n-]c2=O)c([O-])n1Cc1ccccc1 (3D coordinates assigned)
Cc1cc(C=c2[n-]c(=O)/c(=C/c3ccccc3[O-])[n-]c2=O)c([O-])n1Cc1ccccc1 (optimized conformer: 94.66808890841317 kcal/mol)

>  <smiles>  (41) 
Cc1cc(C=c2[nH]c(=O)c(=Cc3ccccc3O)[nH]c2=O)c(O)n1Cc1ccccc1

>  <score_type>  (41) 
oracle

>  <origin>  (41) 
adgpu

>  <m_score__min__energy>  (41) 
-14.300000000000001

>  <m_primary>  (41) 
energy

$$$$
41:0
     RDKit          3D

 45 48  0  0  0  0  0  0  0  0999 V2000
   -1.5190   24.2810  -29.1400 O   0  0  0  0  0  0  0  0  0  0  0  0
   -2.2220   23.2560  -29.3590 C   0  0  0  0  0  0  0  0  0  0  0  0
   -3.5050   23.4090  -30.0700 C   0  0  0  0  0  0  0  0  0  0  0  0
   -4.5000   22.4560  -30.1550 C   0  0  0  0  0  0  0  0  0  0  0  0
   -5.4680   23.0590  -30.9410 C   0  0  0  0  0  0  0  0  0  0  0  0
   -6.7720   22.4980  -31.3740 C   0  0  0  0  0  0  0  0  0  0  0  0
   -7.8600   23.3750  -31.5540 C   0  0  0  0  0  0  0  0  0  0  0  0
   -9.1050   22.8870  -31.9650 C   0  0  0  0  0  0  0  0  0  0  0  0
   -9.2810   21.5230  -32.1960 C   0  0  0  0  0  0  0  0  0  0  0  0
   -8.2150   20.6390  -32.0110 C   0  0  0  0  0  0  0  0  0  0  0  0
   -6.9650   21.1160  -31.5980 C   0  0  0  0  0  0  0  0  0  0  0  0
   -5.9710   20.2180  -31.3880 F   0  0  0  0  0  0  0  0  0  0  0  0
   -5.0380   24.2550  -31.2780 O   0  0  0  0  0  0  0  0  0  0  0  0
   -3.8620   24.4990  -30.7770 N   0  0  0  0  0  0  0  0  0  0  0  0
   -1.7680   21.9710  -28.8900 N   0  0  0  0  0  0  0  0  0  0  0  0
   -1.0820   21.8510  -27.5970 C   0  0  0  0  0  0  0  0  0  0  0  0
    0.2840   21.1960  -27.7990 C   0  0  0  0  0  0  0  0  0  0  0  0
    0.1330   19.9700  -28.5920 N   0  0  0  0  0  0  0  0  0  0  0  0
    0.9560   18.8250  -28.3000 C   0  0  0  0  0  0  0  0  0  0  0  0
    2.2650   18.7440  -28.8070 C   0  0  0  0  0  0  0  0  0  0  0  0
    3.0690   17.6380  -28.5170 C   0  0  0  0  0  0  0  0  0  0  0  0
    2.5740   16.6010  -27.7220 C   0  0  0  0  0  0  0  0  0  0  0  0
    1.2700   16.6670  -27.2200 C   0  0  0  0  0  0  0  0  0  0  0  0
    0.4540   17.7730  -27.5090 C   0  0  0  0  0  0  0  0  0  0  0  0
   -0.8540   17.8230  -27.0280 O   0  0  0  0  0  0  0  0  0  0  0  0
   -0.5690   20.0650  -29.8790 C   0  0  0  0  0  0  0  0  0  0  0  0
   -1.9260   20.7530  -29.6970 C   0  0  0  0  0  0  0  0  0  0  0  0
   -4.5195   21.4528  -29.7042 H   0  0  0  0  0  0  0  0  0  0  0  0
   -7.7295   24.4516  -31.3700 H   0  0  0  0  0  0  0  0  0  0  0  0
   -9.9469   23.5807  -32.1063 H   0  0  0  0  0  0  0  0  0  0  0  0
  -10.2597   21.1429  -32.5241 H   0  0  0  0  0  0  0  0  0  0  0  0
   -8.3584   19.5633  -32.1906 H   0  0  0  0  0  0  0  0  0  0  0  0
   -0.9470   22.8515  -27.1602 H   0  0  0  0  0  0  0  0  0  0  0  0
   -1.6872   21.2312  -26.9190 H   0  0  0  0  0  0  0  0  0  0  0  0
    0.9494   21.8940  -28.3282 H   0  0  0  0  0  0  0  0  0  0  0  0
    0.7158   20.9448  -26.8190 H   0  0  0  0  0  0  0  0  0  0  0  0
    2.6588   19.5561  -29.4358 H   0  0  0  0  0  0  0  0  0  0  0  0
    4.0930   17.5839  -28.9152 H   0  0  0  0  0  0  0  0  0  0  0  0
    3.2094   15.7333  -27.4910 H   0  0  0  0  0  0  0  0  0  0  0  0
    0.8818   15.8487  -26.5958 H   0  0  0  0  0  0  0  0  0  0  0  0
   -1.1940   17.1600  -26.3400 H   0  0  0  0  0  0  0  0  0  0  0  0
    0.0420   20.6489  -30.5830 H   0  0  0  0  0  0  0  0  0  0  0  0
   -0.7327   19.0508  -30.2722 H   0  0  0  0  0  0  0  0  0  0  0  0
   -2.3343   21.0198  -30.6830 H   0  0  0  0  0  0  0  0  0  0  0  0
   -2.6132   20.0654  -29.1821 H   0  0  0  0  0  0  0  0  0  0  0  0
  1  2  2  0
  2  3  1  0
  3  4  1  0
  4  5  2  0
  5  6  1  0
  6  7  2  0
  7  8  1  0
  8  9  2  0
  9 10  1  0
 10 11  2  0
 11 12  1  0
  5 13  1  0
 13 14  1  0
  2 15  1  0
 15 16  1  0
 16 17  1  0
 17 18  1  0
 18 19  1  0
 19 20  2  0
 20 21  1  0
 21 22  2  0
 22 23  1  0
 23 24  2  0
 24 25  1  0
 18 26  1  0
 26 27  1  0
 14  3  2  0
 27 15  1  0
 11  6  1  0
 24 19  1  0
  4 28  1  0
  7 29  1  0
  8 30  1  0
  9 31  1  0
 10 32  1  0
 16 33  1  0
 16 34  1  0
 17 35  1  0
 17 36  1  0
 20 37  1  0
 21 38  1  0
 22 39  1  0
 23 40  1  0
 25 41  1  0
 26 42  1  0
 26 43  1  0
 27 44  1  0
 27 45  1  0
M  END
>  <UniqueID>  (42) 
40

>  <SMILES>  (42) 
O=C(c1cc(-c2ccccc2F)on1)N1CCN(c2ccccc2O)CC1

>  <Energy>  (42) 
88.4281588683381

>  <Genealogy>  (42) 
O=C(c1cc(-c2ccccc2F)on1)N1CCN(c2ccccc2O)CC1 (3D coordinates assigned)
O=C(c1cc(-c2ccccc2F)on1)N1CCN(c2ccccc2O)CC1 (nonaromatic ring conformer: 88.4281588683381 kcal/mol)

>  <smiles>  (42) 
O=C(c1cc(-c2ccccc2F)on1)N1CCN(c2ccccc2O)CC1

>  <score_type>  (42) 
oracle

>  <origin>  (42) 
adgpu

>  <m_score__min__energy>  (42) 
-8.2400000000000002

>  <m_primary>  (42) 
energy

$$$$
42:0
     RDKit          3D

 53 56  0  0  0  0  0  0  0  0999 V2000
   -7.1290   23.0200  -30.7460 C   0  0  0  0  0  0  0  0  0  0  0  0
   -6.8420   21.8180  -31.6010 C   0  0  0  0  0  0  0  0  0  0  0  0
   -5.8660   21.8840  -32.6060 C   0  0  0  0  0  0  0  0  0  0  0  0
   -5.6420   20.7870  -33.4460 C   0  0  0  0  0  0  0  0  0  0  0  0
   -6.3950   19.6080  -33.2920 C   0  0  0  0  0  0  0  0  0  0  0  0
   -6.2360   18.5010  -34.1440 O   0  0  0  0  0  0  0  0  0  0  0  0
   -5.6120   17.2920  -33.8090 C   0  0  0  0  0  0  0  0  0  0  0  0
   -6.3480   16.0950  -33.8290 C   0  0  0  0  0  0  0  0  0  0  0  0
   -5.7330   14.8800  -33.5240 C   0  0  0  0  0  0  0  0  0  0  0  0
   -4.3770   14.8450  -33.2040 C   0  0  0  0  0  0  0  0  0  0  0  0
   -3.6260   16.0230  -33.1960 C   0  0  0  0  0  0  0  0  0  0  0  0
   -4.2270   17.2620  -33.5000 C   0  0  0  0  0  0  0  0  0  0  0  0
   -3.4020   18.5010  -33.4580 C   0  0  0  0  0  0  0  0  0  0  0  0
   -3.1450   19.1130  -34.5300 O   0  0  0  0  0  0  0  0  0  0  0  0
   -2.8680   18.9790  -32.2130 N   0  0  0  0  0  0  0  0  0  0  0  0
   -3.0420   20.2650  -31.6010 C   0  0  0  0  0  0  0  0  0  0  0  0
   -3.5610   20.4250  -30.3030 C   0  0  0  0  0  0  0  0  0  0  0  0
   -3.7140   21.7070  -29.7610 C   0  0  0  0  0  0  0  0  0  0  0  0
   -3.3410   22.8370  -30.4990 C   0  0  0  0  0  0  0  0  0  0  0  0
   -3.5660   24.4390  -29.8080 S   0  0  0  0  0  0  0  0  0  0  0  0
   -4.4590   24.3290  -28.6060 O   0  0  0  0  0  0  0  0  0  0  0  0
   -4.2030   25.3510  -30.8210 O   0  0  0  0  0  0  0  0  0  0  0  0
   -2.0220   25.0760  -29.3480 N   0  0  0  0  0  0  0  0  0  0  0  0
   -1.6570   25.4780  -28.0210 C   0  0  0  0  0  0  0  0  0  0  0  0
   -0.7530   26.5390  -27.8640 C   0  0  0  0  0  0  0  0  0  0  0  0
   -0.3560   26.9510  -26.5880 C   0  0  0  0  0  0  0  0  0  0  0  0
   -0.8620   26.3060  -25.4550 C   0  0  0  0  0  0  0  0  0  0  0  0
   -1.7680   25.2510  -25.6000 C   0  0  0  0  0  0  0  0  0  0  0  0
   -2.1670   24.8360  -26.8760 C   0  0  0  0  0  0  0  0  0  0  0  0
   -2.7910   22.6760  -31.7790 C   0  0  0  0  0  0  0  0  0  0  0  0
   -2.6380   21.3970  -32.3200 C   0  0  0  0  0  0  0  0  0  0  0  0
   -7.3850   19.5530  -32.3000 C   0  0  0  0  0  0  0  0  0  0  0  0
   -8.3650   18.1080  -32.0970 Cl  0  0  0  0  0  0  0  0  0  0  0  0
   -7.6110   20.6540  -31.4650 C   0  0  0  0  0  0  0  0  0  0  0  0
   -7.0620   22.7394  -29.6845 H   0  0  0  0  0  0  0  0  0  0  0  0
   -6.3940   23.8088  -30.9638 H   0  0  0  0  0  0  0  0  0  0  0  0
   -8.1411   23.3917  -30.9638 H   0  0  0  0  0  0  0  0  0  0  0  0
   -5.2738   22.8020  -32.7347 H   0  0  0  0  0  0  0  0  0  0  0  0
   -4.8734   20.8467  -34.2306 H   0  0  0  0  0  0  0  0  0  0  0  0
   -7.4171   16.1159  -34.0871 H   0  0  0  0  0  0  0  0  0  0  0  0
   -6.3190   13.9491  -33.5362 H   0  0  0  0  0  0  0  0  0  0  0  0
   -3.8965   13.8868  -32.9569 H   0  0  0  0  0  0  0  0  0  0  0  0
   -2.5546   15.9837  -32.9500 H   0  0  0  0  0  0  0  0  0  0  0  0
   -3.8470   19.5417  -29.7131 H   0  0  0  0  0  0  0  0  0  0  0  0
   -4.1296   21.8271  -28.7496 H   0  0  0  0  0  0  0  0  0  0  0  0
   -0.3532   27.0510  -28.7517 H   0  0  0  0  0  0  0  0  0  0  0  0
    0.3547   27.7830  -26.4754 H   0  0  0  0  0  0  0  0  0  0  0  0
   -0.5477   26.6282  -24.4513 H   0  0  0  0  0  0  0  0  0  0  0  0
   -2.1684   24.7456  -24.7088 H   0  0  0  0  0  0  0  0  0  0  0  0
   -2.8808   24.0062  -26.9846 H   0  0  0  0  0  0  0  0  0  0  0  0
   -2.4796   23.5580  -32.3579 H   0  0  0  0  0  0  0  0  0  0  0  0
   -2.1960   21.2779  -33.3202 H   0  0  0  0  0  0  0  0  0  0  0  0
   -8.3972   20.6052  -30.6972 H   0  0  0  0  0  0  0  0  0  0  0  0
  1  2  1  0
  2  3  2  0
  3  4  1  0
  4  5  2  0
  5  6  1  0
  6  7  1  0
  7  8  2  0
  8  9  1  0
  9 10  2  0
 10 11  1  0
 11 12  2  0
 12 13  1  0
 13 14  2  0
 13 15  1  0
 15 16  1  0
 16 17  2  0
 17 18  1  0
 18 19  2  0
 19 20  1  0
 20 21  2  0
 20 22  2  0
 20 23  1  0
 23 24  1  0
 24 25  2  0
 25 26  1  0
 26 27  2  0
 27 28  1  0
 28 29  2  0
 19 30  1  0
 30 31  2  0
  5 32  1  0
 32 33  1  0
 32 34  2  0
 34  2  1  0
 12  7  1  0
 31 16  1  0
 29 24  1  0
  1 35  1  0
  1 36  1  0
  1 37  1  0
  3 38  1  0
  4 39  1  0
  8 40  1  0
  9 41  1  0
 10 42  1  0
 11 43  1  0
 17 44  1  0
 18 45  1  0
 25 46  1  0
 26 47  1  0
 27 48  1  0
 28 49  1  0
 29 50  1  0
 30 51  1  0
 31 52  1  0
 34 53  1  0
M  CHG  2  15  -1  23  -1
M  END
>  <UniqueID>  (43) 
41

>  <SMILES>  (43) 
Cc1ccc(Oc2ccccc2C(=O)[N-]c2ccc(S(=O)(=O)[N-]c3ccccc3)cc2)c(Cl)c1

>  <Energy>  (43) 
74.13579428877604

>  <Genealogy>  (43) 
Cc1ccc(Oc2ccccc2C(=O)[N-]c2ccc(S(=O)(=O)[N-]c3ccccc3)cc2)c(Cl)c1 (protonated)
Cc1ccc(Oc2ccccc2C(=O)[N-]c2ccc(S(=O)(=O)[N-]c3ccccc3)cc2)c(Cl)c1 (3D coordinates assigned)
Cc1ccc(Oc2ccccc2C(=O)[N-]c2ccc(S(=O)(=O)[N-]c3ccccc3)cc2)c(Cl)c1 (optimized conformer: 74.13579428877604 kcal/mol)

>  <smiles>  (43) 
Cc1ccc(Oc2ccccc2C(=O)Nc2ccc(S(=O)(=O)Nc3ccccc3)cc2)c(Cl)c1

>  <score_type>  (43) 
oracle

>  <origin>  (43) 
adgpu

>  <m_score__min__energy>  (43) 
-12.26

>  <m_primary>  (43) 
energy

$$$$
43:0
     RDKit          3D

 50 52  0  0  0  0  0  0  0  0999 V2000
   -4.6310   26.4130  -31.3570 H   0  0  0  0  0  0  0  0  0  0  0  0
   -4.3660   25.5550  -30.8210 N   0  0  0  0  0  0  0  0  0  0  0  0
   -4.9510   24.4180  -31.0300 C   0  0  0  0  0  0  0  0  0  0  0  0
   -5.9440   24.3350  -31.9550 N   0  0  0  0  0  0  0  0  0  0  0  0
   -6.6140   23.1800  -32.2000 C   0  0  0  0  0  0  0  0  0  0  0  0
   -7.4068   23.1581  -32.9622 H   0  0  0  0  0  0  0  0  0  0  0  0
   -6.3000   22.0150  -31.4860 C   0  0  0  0  0  0  0  0  0  0  0  0
   -7.0340   20.7500  -31.7310 C   0  0  0  0  0  0  0  0  0  0  0  0
   -6.3220   19.5490  -31.9120 C   0  0  0  0  0  0  0  0  0  0  0  0
   -5.2227   19.5547  -31.8746 H   0  0  0  0  0  0  0  0  0  0  0  0
   -7.0030   18.3490  -32.1390 C   0  0  0  0  0  0  0  0  0  0  0  0
   -6.3080   17.1970  -32.3050 F   0  0  0  0  0  0  0  0  0  0  0  0
   -8.3980   18.3350  -32.1910 C   0  0  0  0  0  0  0  0  0  0  0  0
   -8.9321   17.3894  -32.3660 H   0  0  0  0  0  0  0  0  0  0  0  0
   -9.1160   19.5210  -32.0210 C   0  0  0  0  0  0  0  0  0  0  0  0
  -10.2149   19.5079  -32.0673 H   0  0  0  0  0  0  0  0  0  0  0  0
   -8.4420   20.7260  -31.7920 C   0  0  0  0  0  0  0  0  0  0  0  0
   -9.1640   21.8680  -31.6690 F   0  0  0  0  0  0  0  0  0  0  0  0
   -5.2840   22.0760  -30.5210 C   0  0  0  0  0  0  0  0  0  0  0  0
   -5.0288   21.1759  -29.9425 H   0  0  0  0  0  0  0  0  0  0  0  0
   -4.5890   23.2730  -30.2850 C   0  0  0  0  0  0  0  0  0  0  0  0
   -3.5070   23.3020  -29.2690 C   0  0  0  0  0  0  0  0  0  0  0  0
   -3.4410   22.3220  -28.2670 C   0  0  0  0  0  0  0  0  0  0  0  0
   -4.1906   21.5175  -28.2389 H   0  0  0  0  0  0  0  0  0  0  0  0
   -2.4280   22.3620  -27.3040 C   0  0  0  0  0  0  0  0  0  0  0  0
   -2.3906   21.5911  -26.5202 H   0  0  0  0  0  0  0  0  0  0  0  0
   -1.4570   23.3780  -27.3280 C   0  0  0  0  0  0  0  0  0  0  0  0
   -0.3930   23.3920  -26.2990 C   0  0  0  0  0  0  0  0  0  0  0  0
    0.1100   22.3000  -25.9150 O   0  0  0  0  0  0  0  0  0  0  0  0
    0.1000   24.6280  -25.7610 N   0  0  0  0  0  0  0  0  0  0  0  0
   -0.1870   25.5260  -26.2110 H   0  0  0  0  0  0  0  0  0  0  0  0
    1.0700   24.6450  -24.6640 C   0  0  0  0  0  0  0  0  0  0  0  0
    0.7356   23.9456  -23.8836 H   0  0  0  0  0  0  0  0  0  0  0  0
    2.0482   24.3493  -25.0711 H   0  0  0  0  0  0  0  0  0  0  0  0
    1.2170   26.0470  -24.0450 C   0  0  0  0  0  0  0  0  0  0  0  0
    1.0729   25.9724  -22.9570 H   0  0  0  0  0  0  0  0  0  0  0  0
    2.2221   26.4231  -24.2867 H   0  0  0  0  0  0  0  0  0  0  0  0
    0.2260   26.9990  -24.5950 N   0  0  0  0  0  0  0  0  0  0  0  0
    0.6600   28.3950  -24.4090 C   0  0  0  0  0  0  0  0  0  0  0  0
    0.7291   28.6173  -23.3339 H   0  0  0  0  0  0  0  0  0  0  0  0
    1.6451   28.5382  -24.8771 H   0  0  0  0  0  0  0  0  0  0  0  0
   -0.0702   29.0715  -24.8771 H   0  0  0  0  0  0  0  0  0  0  0  0
   -1.0750   26.8000  -23.9350 C   0  0  0  0  0  0  0  0  0  0  0  0
   -0.9394   26.8207  -22.8436 H   0  0  0  0  0  0  0  0  0  0  0  0
   -1.7646   27.6031  -24.2342 H   0  0  0  0  0  0  0  0  0  0  0  0
   -1.4930   25.8275  -24.2342 H   0  0  0  0  0  0  0  0  0  0  0  0
   -1.5380   24.3760  -28.3190 C   0  0  0  0  0  0  0  0  0  0  0  0
   -0.6720   25.4190  -28.3350 F   0  0  0  0  0  0  0  0  0  0  0  0
   -2.5540   24.3340  -29.2790 C   0  0  0  0  0  0  0  0  0  0  0  0
   -2.6075   25.1170  -30.0498 H   0  0  0  0  0  0  0  0  0  0  0  0
  1  2  1  0
  2  3  2  0
  3  4  1  0
  4  5  1  0
  5  6  1  0
  5  7  2  0
  7  8  1  0
  8  9  2  0
  9 10  1  0
  9 11  1  0
 11 12  1  0
 11 13  2  0
 13 14  1  0
 13 15  1  0
 15 16  1  0
 15 17  2  0
 17 18  1  0
  7 19  1  0
 19 20  1  0
 19 21  2  0
 21 22  1  0
 22 23  2  0
 23 24  1  0
 23 25  1  0
 25 26  1  0
 25 27  2  0
 27 28  1  0
 28 29  2  0
 28 30  1  0
 30 31  1  0
 30 32  1  0
 32 33  1  0
 32 34  1  0
 32 35  1  0
 35 36  1  0
 35 37  1  0
 35 38  1  0
 38 39  1  0
 39 40  1  0
 39 41  1  0
 39 42  1  0
 38 43  1  0
 43 44  1  0
 43 45  1  0
 43 46  1  0
 27 47  1  0
 47 48  1  0
 47 49  2  0
 49 50  1  0
 21  3  1  0
 49 22  1  0
 17  8  1  0
M  CHG  1   4  -1
M  END
>  <UniqueID>  (44) 
42

>  <SMILES>  (44) 
[H]/N=c1\[n-]cc(-c2cc(F)ccc2F)cc1-c1ccc(C(=O)NCCN(C)C)c(F)c1

>  <Energy>  (44) 
68.41443014404767

>  <Genealogy>  (44) 
CN(C)CCNC(=O)c1ccc(-c2cc(-c3cc(F)ccc3F)c[n-]c2=N)cc1F (protonated)
[H]/N=c1\[n-]cc(-c2cc(F)ccc2F)cc1-c1ccc(C(=O)NCCN(C)C)c(F)c1 (cis-trans isomerization)
[H]/N=c1\[n-]cc(-c2cc(F)ccc2F)cc1-c1ccc(C(=O)NCCN(C)C)c(F)c1 (3D coordinates assigned)
[H]/N=c1\[n-]cc(-c2cc(F)ccc2F)cc1-c1ccc(C(=O)NCCN(C)C)c(F)c1 (optimized conformer: 68.41443014404767 kcal/mol)

>  <smiles>  (44) 
CN(C)CCNC(=O)c1ccc(-c2cc(-c3cc(F)ccc3F)c[nH]c2=N)cc1F

>  <score_type>  (44) 
oracle

>  <origin>  (44) 
adgpu

>  <m_score__min__energy>  (44) 
-9.6199999999999992

>  <m_primary>  (44) 
energy

$$$$
44:0
     RDKit          3D

 37 39  0  0  0  0  0  0  0  0999 V2000
   -2.9090   19.0770  -33.1660 O   0  0  0  0  0  0  0  0  0  0  0  0
   -4.0970   19.4510  -33.3400 C   0  0  0  0  0  0  0  0  0  0  0  0
   -4.3670   20.8520  -33.4970 N   0  0  0  0  0  0  0  0  0  0  0  0
   -5.2620   21.6350  -32.6950 C   0  0  0  0  0  0  0  0  0  0  0  0
   -6.6310   21.3450  -32.7240 C   0  0  0  0  0  0  0  0  0  0  0  0
   -7.5260   22.0880  -31.9490 C   0  0  0  0  0  0  0  0  0  0  0  0
   -7.0590   23.1290  -31.1430 C   0  0  0  0  0  0  0  0  0  0  0  0
   -5.6940   23.4440  -31.1230 C   0  0  0  0  0  0  0  0  0  0  0  0
   -5.0720   24.7270  -30.0950 S   0  0  0  0  0  0  0  0  0  0  0  0
   -6.1680   25.6990  -29.7540 O   0  0  0  0  0  0  0  0  0  0  0  0
   -3.9680   25.4360  -30.8290 O   0  0  0  0  0  0  0  0  0  0  0  0
   -4.4630   23.9970  -28.6430 N   0  0  0  0  0  0  0  0  0  0  0  0
   -3.1260   23.5460  -28.3770 C   0  0  0  0  0  0  0  0  0  0  0  0
   -2.9780   22.2580  -27.8410 C   0  0  0  0  0  0  0  0  0  0  0  0
   -1.7100   21.7430  -27.5610 C   0  0  0  0  0  0  0  0  0  0  0  0
   -0.5720   22.5140  -27.8050 C   0  0  0  0  0  0  0  0  0  0  0  0
   -0.7010   23.8050  -28.3220 C   0  0  0  0  0  0  0  0  0  0  0  0
   -1.9710   24.3360  -28.6050 C   0  0  0  0  0  0  0  0  0  0  0  0
   -2.0680   25.6380  -29.0880 O   0  0  0  0  0  0  0  0  0  0  0  0
   -4.8030   22.7110  -31.9160 C   0  0  0  0  0  0  0  0  0  0  0  0
   -5.1610   18.4300  -33.4160 C   0  0  0  0  0  0  0  0  0  0  0  0
   -6.0190   18.0510  -32.4000 C   0  0  0  0  0  0  0  0  0  0  0  0
   -6.8310   17.0780  -32.9410 C   0  0  0  0  0  0  0  0  0  0  0  0
   -6.4290   16.9310  -34.2530 C   0  0  0  0  0  0  0  0  0  0  0  0
   -5.4350   17.7510  -34.5060 O   0  0  0  0  0  0  0  0  0  0  0  0
   -7.0043   20.5286  -33.3597 H   0  0  0  0  0  0  0  0  0  0  0  0
   -8.6002   21.8525  -31.9738 H   0  0  0  0  0  0  0  0  0  0  0  0
   -7.7640   23.7023  -30.5231 H   0  0  0  0  0  0  0  0  0  0  0  0
   -3.8701   21.6470  -27.6390 H   0  0  0  0  0  0  0  0  0  0  0  0
   -1.6081   20.7287  -27.1477 H   0  0  0  0  0  0  0  0  0  0  0  0
    0.4262   22.1047  -27.5901 H   0  0  0  0  0  0  0  0  0  0  0  0
    0.1980   24.4106  -28.5090 H   0  0  0  0  0  0  0  0  0  0  0  0
   -2.9620   26.0500  -29.3400 H   0  0  0  0  0  0  0  0  0  0  0  0
   -3.7363   22.9791  -31.9295 H   0  0  0  0  0  0  0  0  0  0  0  0
   -6.0474   18.4445  -31.3732 H   0  0  0  0  0  0  0  0  0  0  0  0
   -7.6364   16.5296  -32.4306 H   0  0  0  0  0  0  0  0  0  0  0  0
   -6.8739   16.2327  -34.9772 H   0  0  0  0  0  0  0  0  0  0  0  0
  1  2  2  0
  2  3  1  0
  3  4  1  0
  4  5  2  0
  5  6  1  0
  6  7  2  0
  7  8  1  0
  8  9  1  0
  9 10  2  0
  9 11  2  0
  9 12  1  0
 12 13  1  0
 13 14  2  0
 14 15  1  0
 15 16  2  0
 16 17  1  0
 17 18  2  0
 18 19  1  0
  8 20  2  0
  2 21  1  0
 21 22  2  0
 22 23  1  0
 23 24  2  0
 24 25  1  0
 20  4  1  0
 25 21  1  0
 18 13  1  0
  5 26  1  0
  6 27  1  0
  7 28  1  0
 14 29  1  0
 15 30  1  0
 16 31  1  0
 17 32  1  0
 19 33  1  0
 20 34  1  0
 22 35  1  0
 23 36  1  0
 24 37  1  0
M  CHG  2   3  -1  12  -1
M  END
>  <UniqueID>  (45) 
43

>  <SMILES>  (45) 
O=C([N-]c1cccc(S(=O)(=O)[N-]c2ccccc2O)c1)c1ccco1

>  <Energy>  (45) 
76.44382661926764

>  <Genealogy>  (45) 
O=C([N-]c1cccc(S(=O)(=O)[N-]c2ccccc2O)c1)c1ccco1 (protonated)
O=C([N-]c1cccc(S(=O)(=O)[N-]c2ccccc2O)c1)c1ccco1 (3D coordinates assigned)
O=C([N-]c1cccc(S(=O)(=O)[N-]c2ccccc2O)c1)c1ccco1 (optimized conformer: 76.44382661926764 kcal/mol)

>  <smiles>  (45) 
O=C(Nc1cccc(S(=O)(=O)Nc2ccccc2O)c1)c1ccco1

>  <score_type>  (45) 
oracle

>  <origin>  (45) 
adgpu

>  <m_score__min__energy>  (45) 
-9.8100000000000005

>  <m_primary>  (45) 
energy

$$$$
45:0
     RDKit          3D

 50 54  0  0  0  0  0  0  0  0999 V2000
   -0.6130   21.7070  -30.8560 O   0  0  0  0  0  0  0  0  0  0  0  0
   -1.5810   22.4030  -30.4440 C   0  0  0  0  0  0  0  0  0  0  0  0
   -2.7950   22.3820  -31.2090 N   0  0  0  0  0  0  0  0  0  0  0  0
   -4.0390   23.0050  -30.8570 C   0  0  0  0  0  0  0  0  0  0  0  0
   -5.2360   22.3820  -31.2500 C   0  0  0  0  0  0  0  0  0  0  0  0
   -6.4760   23.0150  -31.0620 C   0  0  0  0  0  0  0  0  0  0  0  0
   -7.7090   22.3710  -31.4290 N   0  0  0  0  0  0  0  0  0  0  0  0
   -7.8110   21.0080  -31.8770 C   0  0  0  0  0  0  0  0  0  0  0  0
   -8.8240   20.1590  -31.3980 C   0  0  0  0  0  0  0  0  0  0  0  0
   -8.8800   18.8270  -31.8140 C   0  0  0  0  0  0  0  0  0  0  0  0
   -7.9260   18.3280  -32.7040 C   0  0  0  0  0  0  0  0  0  0  0  0
   -6.9080   19.1620  -33.1970 C   0  0  0  0  0  0  0  0  0  0  0  0
   -5.8430   18.6100  -34.1100 C   0  0  0  0  0  0  0  0  0  0  0  0
   -5.7920   17.2360  -33.9710 F   0  0  0  0  0  0  0  0  0  0  0  0
   -6.1190   18.9210  -35.4300 F   0  0  0  0  0  0  0  0  0  0  0  0
   -4.6040   19.1410  -33.7920 F   0  0  0  0  0  0  0  0  0  0  0  0
   -6.8430   20.4950  -32.7520 C   0  0  0  0  0  0  0  0  0  0  0  0
   -6.5130   24.2760  -30.4580 C   0  0  0  0  0  0  0  0  0  0  0  0
   -5.3290   24.9090  -30.0790 C   0  0  0  0  0  0  0  0  0  0  0  0
   -4.0920   24.2790  -30.2650 C   0  0  0  0  0  0  0  0  0  0  0  0
   -2.9470   24.9570  -29.8600 O   0  0  0  0  0  0  0  0  0  0  0  0
   -2.0290   24.4120  -28.9660 C   0  0  0  0  0  0  0  0  0  0  0  0
   -1.7120   25.1600  -27.8260 C   0  0  0  0  0  0  0  0  0  0  0  0
   -0.8190   24.6670  -26.8620 C   0  0  0  0  0  0  0  0  0  0  0  0
   -0.4990   25.4600  -25.6510 C   0  0  0  0  0  0  0  0  0  0  0  0
   -1.5370   26.0300  -24.8900 C   0  0  0  0  0  0  0  0  0  0  0  0
   -1.2460   26.7750  -23.7430 C   0  0  0  0  0  0  0  0  0  0  0  0
    0.0790   26.9630  -23.3470 C   0  0  0  0  0  0  0  0  0  0  0  0
    1.1190   26.4080  -24.0970 C   0  0  0  0  0  0  0  0  0  0  0  0
    2.4050   26.6030  -23.7130 F   0  0  0  0  0  0  0  0  0  0  0  0
    0.8370   25.6600  -25.2460 C   0  0  0  0  0  0  0  0  0  0  0  0
    1.8670   25.1640  -25.9790 F   0  0  0  0  0  0  0  0  0  0  0  0
   -0.2210   23.4170  -27.0710 C   0  0  0  0  0  0  0  0  0  0  0  0
   -0.5090   22.6780  -28.2190 C   0  0  0  0  0  0  0  0  0  0  0  0
   -1.4150   23.1620  -29.1820 C   0  0  0  0  0  0  0  0  0  0  0  0
   -2.8080   21.7340  -32.0280 H   0  0  0  0  0  0  0  0  0  0  0  0
   -5.2014   21.3841  -31.7116 H   0  0  0  0  0  0  0  0  0  0  0  0
   -8.5890   22.9320  -31.3670 H   0  0  0  0  0  0  0  0  0  0  0  0
   -9.5751   20.5452  -30.6932 H   0  0  0  0  0  0  0  0  0  0  0  0
   -9.6779   18.1688  -31.4396 H   0  0  0  0  0  0  0  0  0  0  0  0
   -7.9719   17.2757  -33.0210 H   0  0  0  0  0  0  0  0  0  0  0  0
   -6.0227   21.1428  -33.0947 H   0  0  0  0  0  0  0  0  0  0  0  0
   -7.4795   24.7706  -30.2811 H   0  0  0  0  0  0  0  0  0  0  0  0
   -5.3673   25.9124  -29.6298 H   0  0  0  0  0  0  0  0  0  0  0  0
   -2.1701   26.1499  -27.6835 H   0  0  0  0  0  0  0  0  0  0  0  0
   -2.5831   25.8886  -25.1994 H   0  0  0  0  0  0  0  0  0  0  0  0
   -2.0631   27.2138  -23.1516 H   0  0  0  0  0  0  0  0  0  0  0  0
    0.3047   27.5486  -22.4436 H   0  0  0  0  0  0  0  0  0  0  0  0
    0.4804   23.0155  -26.3248 H   0  0  0  0  0  0  0  0  0  0  0  0
   -0.0216   21.7041  -28.3738 H   0  0  0  0  0  0  0  0  0  0  0  0
  1  2  2  0
  2  3  1  0
  3  4  1  0
  4  5  2  0
  5  6  1  0
  6  7  1  0
  7  8  1  0
  8  9  2  0
  9 10  1  0
 10 11  2  0
 11 12  1  0
 12 13  1  0
 13 14  1  0
 13 15  1  0
 13 16  1  0
 12 17  2  0
  6 18  2  0
 18 19  1  0
 19 20  2  0
 20 21  1  0
 21 22  1  0
 22 23  2  0
 23 24  1  0
 24 25  1  0
 25 26  2  0
 26 27  1  0
 27 28  2  0
 28 29  1  0
 29 30  1  0
 29 31  2  0
 31 32  1  0
 24 33  2  0
 33 34  1  0
 34 35  2  0
 35  2  1  0
 20  4  1  0
 35 22  1  0
 17  8  1  0
 31 25  1  0
  3 36  1  0
  5 37  1  0
  7 38  1  0
  9 39  1  0
 10 40  1  0
 11 41  1  0
 17 42  1  0
 18 43  1  0
 19 44  1  0
 23 45  1  0
 26 46  1  0
 27 47  1  0
 28 48  1  0
 33 49  1  0
 34 50  1  0
M  END
>  <UniqueID>  (46) 
44

>  <SMILES>  (46) 
O=C1Nc2cc(Nc3cccc(C(F)(F)F)c3)ccc2Oc2cc(-c3cccc(F)c3F)ccc21

>  <Energy>  (46) 
91.68975490840322

>  <Genealogy>  (46) 
O=C1Nc2cc(Nc3cccc(C(F)(F)F)c3)ccc2Oc2cc(-c3cccc(F)c3F)ccc21 (3D coordinates assigned)
O=C1Nc2cc(Nc3cccc(C(F)(F)F)c3)ccc2Oc2cc(-c3cccc(F)c3F)ccc21 (nonaromatic ring conformer: 91.68975490840322 kcal/mol)

>  <smiles>  (46) 
O=C1Nc2cc(Nc3cccc(C(F)(F)F)c3)ccc2Oc2cc(-c3cccc(F)c3F)ccc21

>  <score_type>  (46) 
oracle

>  <origin>  (46) 
adgpu

>  <m_score__min__energy>  (46) 
-10.91

>  <m_primary>  (46) 
energy

$$$$
46:0
     RDKit          3D

 37 39  0  0  0  0  0  0  0  0999 V2000
   -7.1850   22.8860  -32.2620 Br  0  0  0  0  0  0  0  0  0  0  0  0
   -7.5280   21.0070  -32.1460 C   0  0  0  0  0  0  0  0  0  0  0  0
   -8.8400   20.5400  -32.2850 C   0  0  0  0  0  0  0  0  0  0  0  0
   -9.1080   19.1700  -32.2170 C   0  0  0  0  0  0  0  0  0  0  0  0
   -8.0660   18.2650  -32.0010 C   0  0  0  0  0  0  0  0  0  0  0  0
   -6.7520   18.7250  -31.8650 C   0  0  0  0  0  0  0  0  0  0  0  0
   -6.4710   20.1020  -31.9450 C   0  0  0  0  0  0  0  0  0  0  0  0
   -5.1670   20.6060  -31.8490 O   0  0  0  0  0  0  0  0  0  0  0  0
   -4.1100   20.1930  -32.6640 C   0  0  0  0  0  0  0  0  0  0  0  0
   -4.2230   19.0370  -33.3740 N   0  0  0  0  0  0  0  0  0  0  0  0
   -3.2100   18.5640  -34.1450 C   0  0  0  0  0  0  0  0  0  0  0  0
   -1.9960   19.2510  -34.2040 C   0  0  0  0  0  0  0  0  0  0  0  0
   -1.8440   20.4330  -33.4760 C   0  0  0  0  0  0  0  0  0  0  0  0
   -2.9140   20.9380  -32.7170 C   0  0  0  0  0  0  0  0  0  0  0  0
   -2.7460   22.2230  -31.9300 C   0  0  0  0  0  0  0  0  0  0  0  0
   -3.0160   22.0310  -30.4970 N   0  0  0  0  0  0  0  0  0  0  0  0
   -2.8340   23.2670  -29.7160 C   0  0  0  0  0  0  0  0  0  0  0  0
   -4.0290   24.1500  -29.8730 C   0  0  0  0  0  0  0  0  0  0  0  0
   -5.2830   23.9210  -29.3410 C   0  0  0  0  0  0  0  0  0  0  0  0
   -6.0510   24.9970  -29.7330 C   0  0  0  0  0  0  0  0  0  0  0  0
   -5.2170   25.8180  -30.4680 C   0  0  0  0  0  0  0  0  0  0  0  0
   -4.0190   25.2880  -30.5270 O   0  0  0  0  0  0  0  0  0  0  0  0
   -9.6619   21.2526  -32.4481 H   0  0  0  0  0  0  0  0  0  0  0  0
  -10.1390   18.8045  -32.3335 H   0  0  0  0  0  0  0  0  0  0  0  0
   -8.2794   17.1877  -31.9377 H   0  0  0  0  0  0  0  0  0  0  0  0
   -5.9353   18.0080  -31.6949 H   0  0  0  0  0  0  0  0  0  0  0  0
   -3.3461   17.6385  -34.7237 H   0  0  0  0  0  0  0  0  0  0  0  0
   -1.1682   18.8654  -34.8173 H   0  0  0  0  0  0  0  0  0  0  0  0
   -0.8844   20.9703  -33.4966 H   0  0  0  0  0  0  0  0  0  0  0  0
   -1.7132   22.5816  -32.0518 H   0  0  0  0  0  0  0  0  0  0  0  0
   -3.4698   22.9554  -32.3169 H   0  0  0  0  0  0  0  0  0  0  0  0
   -4.0210   21.7450  -30.4120 H   0  0  0  0  0  0  0  0  0  0  0  0
   -2.7067   23.0115  -28.6537 H   0  0  0  0  0  0  0  0  0  0  0  0
   -1.9421   23.7973  -30.0811 H   0  0  0  0  0  0  0  0  0  0  0  0
   -5.6017   23.0616  -28.7329 H   0  0  0  0  0  0  0  0  0  0  0  0
   -7.1138   25.1676  -29.5063 H   0  0  0  0  0  0  0  0  0  0  0  0
   -5.5128   26.7703  -30.9324 H   0  0  0  0  0  0  0  0  0  0  0  0
  1  2  1  0
  2  3  2  0
  3  4  1  0
  4  5  2  0
  5  6  1  0
  6  7  2  0
  7  8  1  0
  8  9  1  0
  9 10  2  0
 10 11  1  0
 11 12  2  0
 12 13  1  0
 13 14  2  0
 14 15  1  0
 15 16  1  0
 16 17  1  0
 17 18  1  0
 18 19  2  0
 19 20  1  0
 20 21  2  0
 21 22  1  0
  7  2  1  0
 14  9  1  0
 22 18  1  0
  3 23  1  0
  4 24  1  0
  5 25  1  0
  6 26  1  0
 11 27  1  0
 12 28  1  0
 13 29  1  0
 15 30  1  0
 15 31  1  0
 16 32  1  0
 17 33  1  0
 17 34  1  0
 19 35  1  0
 20 36  1  0
 21 37  1  0
M  END
>  <UniqueID>  (47) 
45

>  <SMILES>  (47) 
Brc1ccccc1Oc1ncccc1CNCc1ccco1

>  <Energy>  (47) 
72.93966024868172

>  <Genealogy>  (47) 
Brc1ccccc1Oc1ncccc1CNCc1ccco1 (3D coordinates assigned)
Brc1ccccc1Oc1ncccc1CNCc1ccco1 (optimized conformer: 72.93966024868172 kcal/mol)

>  <smiles>  (47) 
Brc1ccccc1Oc1ncccc1CNCc1ccco1

>  <score_type>  (47) 
oracle

>  <origin>  (47) 
adgpu

>  <m_score__min__energy>  (47) 
-8.7799999999999994

>  <m_primary>  (47) 
energy

$$$$
