0:0
     RDKit          3D

 57 60  0  0  0  0  0  0  0  0999 V2000
   -5.4660   15.9780  -34.0630 C   0  0  0  0  0  0  0  0  0  0  0  0
   -5.3500   17.4480  -33.7910 C   0  0  0  0  0  0  0  0  0  0  0  0
   -6.4880   18.2660  -33.8200 C   0  0  0  0  0  0  0  0  0  0  0  0
   -6.3770   19.6370  -33.5800 C   0  0  0  0  0  0  0  0  0  0  0  0
   -5.1250   20.2190  -33.3240 C   0  0  0  0  0  0  0  0  0  0  0  0
   -5.0460   21.6290  -33.0410 N   0  0  0  0  0  0  0  0  0  0  0  0
   -5.8040   22.2720  -32.0060 C   0  0  0  0  0  0  0  0  0  0  0  0
   -7.1770   22.0140  -31.9230 C   0  0  0  0  0  0  0  0  0  0  0  0
   -7.9370   22.5710  -30.8980 C   0  0  0  0  0  0  0  0  0  0  0  0
   -7.3440   23.4160  -29.9650 C   0  0  0  0  0  0  0  0  0  0  0  0
   -5.9790   23.7240  -30.0500 C   0  0  0  0  0  0  0  0  0  0  0  0
   -5.4240   24.6570  -29.1120 N   0  0  0  0  0  0  0  0  0  0  0  0
   -5.1880   23.1380  -31.0700 C   0  0  0  0  0  0  0  0  0  0  0  0
   -3.7420   23.4220  -31.1660 C   0  0  0  0  0  0  0  0  0  0  0  0
   -3.0040   22.6890  -31.8810 O   0  0  0  0  0  0  0  0  0  0  0  0
   -3.1740   24.4870  -30.3960 N   0  0  0  0  0  0  0  0  0  0  0  0
   -2.4650   24.3340  -29.1570 C   0  0  0  0  0  0  0  0  0  0  0  0
   -2.7940   23.3230  -28.2390 C   0  0  0  0  0  0  0  0  0  0  0  0
   -2.0570   23.1760  -27.0600 C   0  0  0  0  0  0  0  0  0  0  0  0
   -0.9880   24.0380  -26.7820 C   0  0  0  0  0  0  0  0  0  0  0  0
   -0.0470   23.8400  -25.3000 S   0  0  0  0  0  0  0  0  0  0  0  0
   -0.4950   22.5870  -24.6010 O   0  0  0  0  0  0  0  0  0  0  0  0
    1.4060   23.6790  -25.6580 O   0  0  0  0  0  0  0  0  0  0  0  0
   -0.2120   25.1930  -24.2070 N   0  0  0  0  0  0  0  0  0  0  0  0
   -1.2360   26.1350  -24.6500 C   0  0  0  0  0  0  0  0  0  0  0  0
   -0.8610   27.4880  -24.0610 C   0  0  0  0  0  0  0  0  0  0  0  0
    0.6050   27.3670  -23.6710 C   0  0  0  0  0  0  0  0  0  0  0  0
    1.0180   25.9710  -24.1100 C   0  0  0  0  0  0  0  0  0  0  0  0
   -0.6430   25.0320  -27.7100 C   0  0  0  0  0  0  0  0  0  0  0  0
   -1.3730   25.1720  -28.8930 C   0  0  0  0  0  0  0  0  0  0  0  0
   -3.9810   19.3970  -33.3190 C   0  0  0  0  0  0  0  0  0  0  0  0
   -4.0940   18.0250  -33.5590 C   0  0  0  0  0  0  0  0  0  0  0  0
   -5.5092   15.4310  -33.1096 H   0  0  0  0  0  0  0  0  0  0  0  0
   -6.3823   15.7830  -34.6395 H   0  0  0  0  0  0  0  0  0  0  0  0
   -4.5916   15.6416  -34.6395 H   0  0  0  0  0  0  0  0  0  0  0  0
   -7.4733   17.8256  -34.0329 H   0  0  0  0  0  0  0  0  0  0  0  0
   -7.2787   20.2670  -33.5916 H   0  0  0  0  0  0  0  0  0  0  0  0
   -4.5100   22.2380  -33.6980 H   0  0  0  0  0  0  0  0  0  0  0  0
   -7.6584   21.3676  -32.6717 H   0  0  0  0  0  0  0  0  0  0  0  0
   -9.0105   22.3422  -30.8255 H   0  0  0  0  0  0  0  0  0  0  0  0
   -7.9510   23.8457  -29.1545 H   0  0  0  0  0  0  0  0  0  0  0  0
   -4.6430   25.3000  -29.3680 H   0  0  0  0  0  0  0  0  0  0  0  0
   -5.8650   24.7870  -28.1750 H   0  0  0  0  0  0  0  0  0  0  0  0
   -3.6343   22.6447  -28.4484 H   0  0  0  0  0  0  0  0  0  0  0  0
   -2.3177   22.3798  -26.3472 H   0  0  0  0  0  0  0  0  0  0  0  0
   -1.2524   26.1899  -25.7485 H   0  0  0  0  0  0  0  0  0  0  0  0
   -2.2367   25.8201  -24.3191 H   0  0  0  0  0  0  0  0  0  0  0  0
   -0.9960   28.2838  -24.8084 H   0  0  0  0  0  0  0  0  0  0  0  0
   -1.4933   27.7483  -23.1993 H   0  0  0  0  0  0  0  0  0  0  0  0
    1.2065   28.1285  -24.1891 H   0  0  0  0  0  0  0  0  0  0  0  0
    0.7588   27.5223  -22.5929 H   0  0  0  0  0  0  0  0  0  0  0  0
    1.5210   26.0121  -25.0874 H   0  0  0  0  0  0  0  0  0  0  0  0
    1.7224   25.5189  -23.3962 H   0  0  0  0  0  0  0  0  0  0  0  0
    0.2045   25.7029  -27.5057 H   0  0  0  0  0  0  0  0  0  0  0  0
   -1.0888   25.9451  -29.6221 H   0  0  0  0  0  0  0  0  0  0  0  0
   -2.9922   19.8381  -33.1249 H   0  0  0  0  0  0  0  0  0  0  0  0
   -3.1926   17.3946  -33.5659 H   0  0  0  0  0  0  0  0  0  0  0  0
  1  2  1  0
  2  3  2  0
  3  4  1  0
  4  5  2  0
  5  6  1  0
  6  7  1  0
  7  8  2  0
  8  9  1  0
  9 10  2  0
 10 11  1  0
 11 12  1  0
 11 13  2  0
 13 14  1  0
 14 15  2  0
 14 16  1  0
 16 17  1  0
 17 18  2  0
 18 19  1  0
 19 20  2  0
 20 21  1  0
 21 22  2  0
 21 23  2  0
 21 24  1  0
 24 25  1  0
 25 26  1  0
 26 27  1  0
 27 28  1  0
 20 29  1  0
 29 30  2  0
  5 31  1  0
 31 32  2  0
 32  2  1  0
 13  7  1  0
 30 17  1  0
 28 24  1  0
  1 33  1  0
  1 34  1  0
  1 35  1  0
  3 36  1  0
  4 37  1  0
  6 38  1  0
  8 39  1  0
  9 40  1  0
 10 41  1  0
 12 42  1  0
 12 43  1  0
 18 44  1  0
 19 45  1  0
 25 46  1  0
 25 47  1  0
 26 48  1  0
 26 49  1  0
 27 50  1  0
 27 51  1  0
 28 52  1  0
 28 53  1  0
 29 54  1  0
 30 55  1  0
 31 56  1  0
 32 57  1  0
M  CHG  1  16  -1
M  END
>  <UniqueID>  (1) 
1

>  <SMILES>  (1) 
Cc1ccc(Nc2cccc(N)c2C(=O)[N-]c2ccc(S(=O)(=O)N3CCCC3)cc2)cc1

>  <Energy>  (1) 
77.08833578791679

>  <Genealogy>  (1) 
Cc1ccc(Nc2cccc(N)c2C(=O)[N-]c2ccc(S(=O)(=O)N3CCCC3)cc2)cc1 (protonated)
Cc1ccc(Nc2cccc(N)c2C(=O)[N-]c2ccc(S(=O)(=O)N3CCCC3)cc2)cc1 (3D coordinates assigned)
Cc1ccc(Nc2cccc(N)c2C(=O)[N-]c2ccc(S(=O)(=O)N3CCCC3)cc2)cc1 (nonaromatic ring conformer: 77.08833578791679 kcal/mol)

>  <smiles>  (1) 
Cc1ccc(Nc2cccc(N)c2C(=O)Nc2ccc(S(=O)(=O)N3CCCC3)cc2)cc1

>  <score_type>  (1) 
oracle

>  <origin>  (1) 
adgpu

>  <m_score__min__energy>  (1) 
-11.16

>  <m_primary>  (1) 
energy

$$$$
1:0
     RDKit          3D

 46 49  0  0  0  0  0  0  0  0999 V2000
   -0.2385   21.6977  -28.6384 H   0  0  0  0  0  0  0  0  0  0  0  0
   -1.0510   22.4040  -28.8640 C   0  0  0  0  0  0  0  0  0  0  0  0
   -2.3280   21.9220  -29.1630 C   0  0  0  0  0  0  0  0  0  0  0  0
   -2.5125   20.8377  -29.1812 H   0  0  0  0  0  0  0  0  0  0  0  0
   -3.3760   22.8120  -29.4400 C   0  0  0  0  0  0  0  0  0  0  0  0
   -4.7360   22.2920  -29.8070 C   0  0  0  0  0  0  0  0  0  0  0  0
   -5.2035   21.8242  -28.9280 H   0  0  0  0  0  0  0  0  0  0  0  0
   -5.3741   23.1189  -30.1520 H   0  0  0  0  0  0  0  0  0  0  0  0
   -4.5850   21.3030  -30.8680 N   0  0  0  0  0  0  0  0  0  0  0  0
   -5.4310   20.7470  -31.7000 C   0  0  0  0  0  0  0  0  0  0  0  0
   -4.9220   19.7000  -32.5030 C   0  0  0  0  0  0  0  0  0  0  0  0
   -5.7950   18.8840  -33.2320 C   0  0  0  0  0  0  0  0  0  0  0  0
   -7.1340   19.1040  -33.1930 N   0  0  0  0  0  0  0  0  0  0  0  0
   -7.7650   18.4580  -33.7200 H   0  0  0  0  0  0  0  0  0  0  0  0
   -7.6680   20.1610  -32.5210 C   0  0  0  0  0  0  0  0  0  0  0  0
   -9.0560   20.3730  -32.5770 C   0  0  0  0  0  0  0  0  0  0  0  0
   -9.6955   19.6547  -33.1109 H   0  0  0  0  0  0  0  0  0  0  0  0
   -9.6290   21.4820  -31.9640 C   0  0  0  0  0  0  0  0  0  0  0  0
  -10.7190   21.6271  -31.9940 H   0  0  0  0  0  0  0  0  0  0  0  0
   -8.8200   22.4070  -31.3130 C   0  0  0  0  0  0  0  0  0  0  0  0
   -9.2697   23.3005  -30.8554 H   0  0  0  0  0  0  0  0  0  0  0  0
   -7.4400   22.2080  -31.2370 C   0  0  0  0  0  0  0  0  0  0  0  0
   -6.8128   22.9633  -30.7409 H   0  0  0  0  0  0  0  0  0  0  0  0
   -6.8310   21.0510  -31.7870 C   0  0  0  0  0  0  0  0  0  0  0  0
   -5.2340   17.7150  -33.9930 C   0  0  0  0  0  0  0  0  0  0  0  0
   -4.9748   16.9126  -33.2866 H   0  0  0  0  0  0  0  0  0  0  0  0
   -5.9894   17.3573  -34.7082 H   0  0  0  0  0  0  0  0  0  0  0  0
   -3.9760   18.1370  -34.7640 C   0  0  0  0  0  0  0  0  0  0  0  0
   -3.4752   17.2298  -35.1330 H   0  0  0  0  0  0  0  0  0  0  0  0
   -4.3072   18.7974  -35.5790 H   0  0  0  0  0  0  0  0  0  0  0  0
   -2.9620   18.9430  -33.9160 C   0  0  0  0  0  0  0  0  0  0  0  0
   -2.0479   18.3400  -33.8114 H   0  0  0  0  0  0  0  0  0  0  0  0
   -2.7982   19.8914  -34.4486 H   0  0  0  0  0  0  0  0  0  0  0  0
   -3.4530   19.3180  -32.5040 C   0  0  0  0  0  0  0  0  0  0  0  0
   -3.3084   18.4562  -31.8358 H   0  0  0  0  0  0  0  0  0  0  0  0
   -2.8728   20.1865  -32.1588 H   0  0  0  0  0  0  0  0  0  0  0  0
   -3.1210   24.1920  -29.4440 C   0  0  0  0  0  0  0  0  0  0  0  0
   -3.9308   24.8968  -29.6837 H   0  0  0  0  0  0  0  0  0  0  0  0
   -1.8430   24.6770  -29.1450 C   0  0  0  0  0  0  0  0  0  0  0  0
   -1.6120   26.0470  -29.1450 O   0  0  0  0  0  0  0  0  0  0  0  0
   -0.7990   23.7890  -28.8500 C   0  0  0  0  0  0  0  0  0  0  0  0
    0.4670   24.3170  -28.5540 O   0  0  0  0  0  0  0  0  0  0  0  0
    0.8220   24.9100  -27.3090 C   0  0  0  0  0  0  0  0  0  0  0  0
    0.4477   24.2847  -26.4851 H   0  0  0  0  0  0  0  0  0  0  0  0
    1.9169   24.9904  -27.2401 H   0  0  0  0  0  0  0  0  0  0  0  0
    0.3757   25.9130  -27.2401 H   0  0  0  0  0  0  0  0  0  0  0  0
  1  2  1  0
  2  3  2  0
  3  4  1  0
  3  5  1  0
  5  6  1  0
  6  7  1  0
  6  8  1  0
  6  9  1  0
  9 10  2  0
 10 11  1  0
 11 12  2  0
 12 13  1  0
 13 14  1  0
 13 15  1  0
 15 16  2  0
 16 17  1  0
 16 18  1  0
 18 19  1  0
 18 20  2  0
 20 21  1  0
 20 22  1  0
 22 23  1  0
 22 24  2  0
 12 25  1  0
 25 26  1  0
 25 27  1  0
 25 28  1  0
 28 29  1  0
 28 30  1  0
 28 31  1  0
 31 32  1  0
 31 33  1  0
 31 34  1  0
 34 35  1  0
 34 36  1  0
  5 37  2  0
 37 38  1  0
 37 39  1  0
 39 40  1  0
 39 41  2  0
 41 42  1  0
 42 43  1  0
 43 44  1  0
 43 45  1  0
 43 46  1  0
 41  2  1  0
 24 10  1  0
 34 11  1  0
 24 15  1  0
M  CHG  1  40  -1
M  END
>  <UniqueID>  (2) 
2

>  <SMILES>  (2) 
COc1ccc(C/N=c2/c3c([nH]c4ccccc24)CCCC3)cc1[O-]

>  <Energy>  (2) 
73.03695572325772

>  <Genealogy>  (2) 
COc1ccc(CN=c2c3c([nH]c4ccccc24)CCCC3)cc1[O-] (protonated)
COc1ccc(C/N=c2/c3c([nH]c4ccccc24)CCCC3)cc1[O-] (cis-trans isomerization)
COc1ccc(C/N=c2/c3c([nH]c4ccccc24)CCCC3)cc1[O-] (3D coordinates assigned)
COc1ccc(C/N=c2/c3c([nH]c4ccccc24)CCCC3)cc1[O-] (nonaromatic ring conformer: 73.03695572325772 kcal/mol)

>  <smiles>  (2) 
COc1ccc(CN=c2c3c([nH]c4ccccc24)CCCC3)cc1O

>  <score_type>  (2) 
oracle

>  <origin>  (2) 
adgpu

>  <m_score__min__energy>  (2) 
-12.15

>  <m_primary>  (2) 
energy

$$$$
2:0
     RDKit          3D

 66 69  0  0  0  0  0  0  0  0999 V2000
   -7.6890   21.9730  -31.0480 C   0  0  0  0  0  0  0  0  0  0  0  0
   -8.3020   20.8940  -31.8290 N   0  0  0  0  0  0  0  0  0  0  0  0
   -9.7580   20.8880  -32.0060 C   0  0  0  0  0  0  0  0  0  0  0  0
   -7.4830   19.8430  -32.4110 C   0  0  0  0  0  0  0  0  0  0  0  0
   -6.8470   20.0250  -33.6590 C   0  0  0  0  0  0  0  0  0  0  0  0
   -6.0570   19.0160  -34.2170 C   0  0  0  0  0  0  0  0  0  0  0  0
   -5.8830   17.7970  -33.5470 C   0  0  0  0  0  0  0  0  0  0  0  0
   -5.0320   16.7010  -34.1480 C   0  0  0  0  0  0  0  0  0  0  0  0
   -3.6550   16.7490  -33.6240 N   0  0  0  0  0  0  0  0  0  0  0  0
   -3.1500   15.5690  -32.9100 C   0  0  0  0  0  0  0  0  0  0  0  0
   -2.7840   17.8880  -33.8530 C   0  0  0  0  0  0  0  0  0  0  0  0
   -1.6110   17.7520  -34.6230 C   0  0  0  0  0  0  0  0  0  0  0  0
   -0.7510   18.8360  -34.8210 C   0  0  0  0  0  0  0  0  0  0  0  0
   -1.0390   20.0890  -34.2570 C   0  0  0  0  0  0  0  0  0  0  0  0
   -0.1240   21.2460  -34.4200 C   0  0  0  0  0  0  0  0  0  0  0  0
    0.6570   21.5410  -33.4720 O   0  0  0  0  0  0  0  0  0  0  0  0
   -0.1010   22.0220  -35.6350 N   0  0  0  0  0  0  0  0  0  0  0  0
    0.7160   23.1930  -35.8140 C   0  0  0  0  0  0  0  0  0  0  0  0
    2.1120   23.0760  -35.7580 C   0  0  0  0  0  0  0  0  0  0  0  0
    2.9250   24.1980  -35.9390 C   0  0  0  0  0  0  0  0  0  0  0  0
    2.3500   25.4460  -36.1900 C   0  0  0  0  0  0  0  0  0  0  0  0
    0.9540   25.5830  -36.2700 C   0  0  0  0  0  0  0  0  0  0  0  0
    0.3600   26.8640  -36.5620 N   0  0  0  0  0  0  0  0  0  0  0  0
    0.2420   27.9000  -35.5290 C   0  0  0  0  0  0  0  0  0  0  0  0
   -1.2240   28.3600  -35.4010 C   0  0  0  0  0  0  0  0  0  0  0  0
   -1.9920   28.2670  -36.6620 N   0  0  0  0  0  0  0  0  0  0  0  0
   -1.1380   28.3400  -37.8560 C   0  0  0  0  0  0  0  0  0  0  0  0
   -0.1730   27.1450  -37.9010 C   0  0  0  0  0  0  0  0  0  0  0  0
    0.1440   24.4450  -36.1010 C   0  0  0  0  0  0  0  0  0  0  0  0
   -2.2020   20.2310  -33.4860 C   0  0  0  0  0  0  0  0  0  0  0  0
   -3.0640   19.1500  -33.2900 C   0  0  0  0  0  0  0  0  0  0  0  0
   -6.5160   17.6020  -32.3100 C   0  0  0  0  0  0  0  0  0  0  0  0
   -7.3040   18.6120  -31.7470 C   0  0  0  0  0  0  0  0  0  0  0  0
   -7.8086   21.7625  -29.9750 H   0  0  0  0  0  0  0  0  0  0  0  0
   -6.6184   22.0393  -31.2916 H   0  0  0  0  0  0  0  0  0  0  0  0
   -8.1802   22.9266  -31.2916 H   0  0  0  0  0  0  0  0  0  0  0  0
  -10.2471   20.8860  -31.0207 H   0  0  0  0  0  0  0  0  0  0  0  0
  -10.0631   21.7849  -32.5650 H   0  0  0  0  0  0  0  0  0  0  0  0
  -10.0557   19.9886  -32.5650 H   0  0  0  0  0  0  0  0  0  0  0  0
   -6.9753   20.9744  -34.1995 H   0  0  0  0  0  0  0  0  0  0  0  0
   -5.5683   19.1796  -35.1888 H   0  0  0  0  0  0  0  0  0  0  0  0
   -5.4762   15.7254  -33.9013 H   0  0  0  0  0  0  0  0  0  0  0  0
   -4.9958   16.8455  -35.2379 H   0  0  0  0  0  0  0  0  0  0  0  0
   -3.2223   15.7379  -31.8255 H   0  0  0  0  0  0  0  0  0  0  0  0
   -3.7505   14.6893  -33.1849 H   0  0  0  0  0  0  0  0  0  0  0  0
   -2.0990   15.3960  -33.1849 H   0  0  0  0  0  0  0  0  0  0  0  0
   -1.3690   16.7786  -35.0746 H   0  0  0  0  0  0  0  0  0  0  0  0
    0.1597   18.7061  -35.4242 H   0  0  0  0  0  0  0  0  0  0  0  0
   -0.6440   21.6920  -36.4640 H   0  0  0  0  0  0  0  0  0  0  0  0
    2.5706   22.0939  -35.5702 H   0  0  0  0  0  0  0  0  0  0  0  0
    4.0191   24.0983  -35.8838 H   0  0  0  0  0  0  0  0  0  0  0  0
    2.9943   26.3272  -36.3259 H   0  0  0  0  0  0  0  0  0  0  0  0
    0.5803   27.4921  -34.5651 H   0  0  0  0  0  0  0  0  0  0  0  0
    0.8650   28.7613  -35.8118 H   0  0  0  0  0  0  0  0  0  0  0  0
   -1.7197   27.7320  -34.6461 H   0  0  0  0  0  0  0  0  0  0  0  0
   -1.2024   29.4225  -35.1171 H   0  0  0  0  0  0  0  0  0  0  0  0
   -2.5030   27.3500  -36.6810 H   0  0  0  0  0  0  0  0  0  0  0  0
   -1.7713   28.3280  -38.7553 H   0  0  0  0  0  0  0  0  0  0  0  0
   -0.5515   29.2698  -37.8177 H   0  0  0  0  0  0  0  0  0  0  0  0
   -0.7107   26.2591  -38.2699 H   0  0  0  0  0  0  0  0  0  0  0  0
    0.6632   27.3880  -38.5731 H   0  0  0  0  0  0  0  0  0  0  0  0
   -0.9483   24.5357  -36.1944 H   0  0  0  0  0  0  0  0  0  0  0  0
   -2.4376   21.2043  -33.0308 H   0  0  0  0  0  0  0  0  0  0  0  0
   -3.9745   19.2850  -32.6877 H   0  0  0  0  0  0  0  0  0  0  0  0
   -6.3917   16.6471  -31.7783 H   0  0  0  0  0  0  0  0  0  0  0  0
   -7.7898   18.4436  -30.7745 H   0  0  0  0  0  0  0  0  0  0  0  0
  1  2  1  0
  2  3  1  0
  2  4  1  0
  4  5  2  0
  5  6  1  0
  6  7  2  0
  7  8  1  0
  8  9  1  0
  9 10  1  0
  9 11  1  0
 11 12  2  0
 12 13  1  0
 13 14  2  0
 14 15  1  0
 15 16  2  0
 15 17  1  0
 17 18  1  0
 18 19  2  0
 19 20  1  0
 20 21  2  0
 21 22  1  0
 22 23  1  0
 23 24  1  0
 24 25  1  0
 25 26  1  0
 26 27  1  0
 27 28  1  0
 22 29  2  0
 14 30  1  0
 30 31  2  0
  7 32  1  0
 32 33  2  0
 33  4  1  0
 31 11  1  0
 29 18  1  0
 28 23  1  0
  1 34  1  0
  1 35  1  0
  1 36  1  0
  3 37  1  0
  3 38  1  0
  3 39  1  0
  5 40  1  0
  6 41  1  0
  8 42  1  0
  8 43  1  0
 10 44  1  0
 10 45  1  0
 10 46  1  0
 12 47  1  0
 13 48  1  0
 17 49  1  0
 19 50  1  0
 20 51  1  0
 21 52  1  0
 24 53  1  0
 24 54  1  0
 25 55  1  0
 25 56  1  0
 26 57  1  0
 27 58  1  0
 27 59  1  0
 28 60  1  0
 28 61  1  0
 29 62  1  0
 30 63  1  0
 31 64  1  0
 32 65  1  0
 33 66  1  0
M  END
>  <UniqueID>  (3) 
3

>  <SMILES>  (3) 
CN(C)c1ccc(CN(C)c2ccc(C(=O)Nc3cccc(N4CCNCC4)c3)cc2)cc1

>  <Energy>  (3) 
88.92381100164278

>  <Genealogy>  (3) 
CN(C)c1ccc(CN(C)c2ccc(C(=O)Nc3cccc(N4CCNCC4)c3)cc2)cc1 (3D coordinates assigned)
CN(C)c1ccc(CN(C)c2ccc(C(=O)Nc3cccc(N4CCNCC4)c3)cc2)cc1 (nonaromatic ring conformer: 88.92381100164278 kcal/mol)

>  <smiles>  (3) 
CN(C)c1ccc(CN(C)c2ccc(C(=O)Nc3cccc(N4CCNCC4)c3)cc2)cc1

>  <score_type>  (3) 
oracle

>  <origin>  (3) 
adgpu

>  <m_score__min__energy>  (3) 
-10.210000000000001

>  <m_primary>  (3) 
energy

$$$$
3:0
     RDKit          3D

 55 58  0  0  0  0  0  0  0  0999 V2000
   -2.3070   24.1010  -29.3280 C   0  0  0  0  0  0  0  0  0  0  0  0
   -3.1670   24.9280  -30.1040 O   0  0  0  0  0  0  0  0  0  0  0  0
   -4.5350   24.6830  -30.3120 C   0  0  0  0  0  0  0  0  0  0  0  0
   -5.5310   25.4250  -29.6530 C   0  0  0  0  0  0  0  0  0  0  0  0
   -6.8770   25.1570  -29.8860 C   0  0  0  0  0  0  0  0  0  0  0  0
   -7.2490   24.1520  -30.7780 C   0  0  0  0  0  0  0  0  0  0  0  0
   -6.2750   23.3940  -31.4470 C   0  0  0  0  0  0  0  0  0  0  0  0
   -6.7260   22.3340  -32.4140 C   0  0  0  0  0  0  0  0  0  0  0  0
   -4.9040   23.6510  -31.1940 C   0  0  0  0  0  0  0  0  0  0  0  0
   -3.8590   22.9320  -31.8660 N   0  0  0  0  0  0  0  0  0  0  0  0
   -3.5540   21.5370  -31.7240 C   0  0  0  0  0  0  0  0  0  0  0  0
   -4.0840   20.9060  -30.7720 O   0  0  0  0  0  0  0  0  0  0  0  0
   -2.6820   20.8100  -32.6800 C   0  0  0  0  0  0  0  0  0  0  0  0
   -1.7620   21.5240  -33.4660 C   0  0  0  0  0  0  0  0  0  0  0  0
   -0.8970   20.8510  -34.3310 C   0  0  0  0  0  0  0  0  0  0  0  0
   -0.9400   19.4590  -34.4220 C   0  0  0  0  0  0  0  0  0  0  0  0
   -1.8620   18.7310  -33.6610 C   0  0  0  0  0  0  0  0  0  0  0  0
   -1.9430   16.9730  -33.8100 S   0  0  0  0  0  0  0  0  0  0  0  0
   -2.0010   16.3550  -32.4410 O   0  0  0  0  0  0  0  0  0  0  0  0
   -0.6970   16.4790  -34.4910 O   0  0  0  0  0  0  0  0  0  0  0  0
   -3.3500   16.4790  -34.7310 N   0  0  1  0  0  0  0  0  0  0  0  0
   -4.0910   15.4060  -34.0020 C   0  0  0  0  0  0  0  0  0  0  0  0
   -5.6130   15.4770  -34.1930 C   0  0  0  0  0  0  0  0  0  0  0  0
   -6.0710   16.8410  -33.7800 C   0  0  0  0  0  0  0  0  0  0  0  0
   -7.2050   17.0420  -32.9810 C   0  0  0  0  0  0  0  0  0  0  0  0
   -7.5650   18.3380  -32.5980 C   0  0  0  0  0  0  0  0  0  0  0  0
   -6.8100   19.4330  -33.0320 C   0  0  0  0  0  0  0  0  0  0  0  0
   -5.6930   19.2350  -33.8500 C   0  0  0  0  0  0  0  0  0  0  0  0
   -5.3130   17.9340  -34.2110 C   0  0  0  0  0  0  0  0  0  0  0  0
   -4.1530   17.6680  -35.1370 C   0  0  0  0  0  0  0  0  0  0  0  0
   -2.7160   19.4070  -32.7770 C   0  0  0  0  0  0  0  0  0  0  0  0
   -2.4930   24.2799  -28.2587 H   0  0  0  0  0  0  0  0  0  0  0  0
   -2.5042   23.0446  -29.5628 H   0  0  0  0  0  0  0  0  0  0  0  0
   -1.2591   24.3394  -29.5628 H   0  0  0  0  0  0  0  0  0  0  0  0
   -5.2452   26.2212  -28.9499 H   0  0  0  0  0  0  0  0  0  0  0  0
   -7.6501   25.7403  -29.3644 H   0  0  0  0  0  0  0  0  0  0  0  0
   -8.3153   23.9513  -30.9592 H   0  0  0  0  0  0  0  0  0  0  0  0
   -7.0970   21.4620  -31.8554 H   0  0  0  0  0  0  0  0  0  0  0  0
   -7.5319   22.7340  -33.0469 H   0  0  0  0  0  0  0  0  0  0  0  0
   -5.8790   22.0307  -33.0469 H   0  0  0  0  0  0  0  0  0  0  0  0
   -1.7229   22.6213  -33.3994 H   0  0  0  0  0  0  0  0  0  0  0  0
   -0.1801   21.4191  -34.9420 H   0  0  0  0  0  0  0  0  0  0  0  0
   -0.2468   18.9321  -35.0942 H   0  0  0  0  0  0  0  0  0  0  0  0
   -2.9730   16.0550  -35.6110 H   0  0  0  0  0  0  0  0  0  0  0  0
   -3.7391   14.4298  -34.3670 H   0  0  0  0  0  0  0  0  0  0  0  0
   -3.8919   15.5457  -32.9292 H   0  0  0  0  0  0  0  0  0  0  0  0
   -5.8646   15.3034  -35.2497 H   0  0  0  0  0  0  0  0  0  0  0  0
   -6.1096   14.7077  -33.5834 H   0  0  0  0  0  0  0  0  0  0  0  0
   -7.8101   16.1828  -32.6561 H   0  0  0  0  0  0  0  0  0  0  0  0
   -8.4430   18.4966  -31.9546 H   0  0  0  0  0  0  0  0  0  0  0  0
   -7.0954   20.4513  -32.7294 H   0  0  0  0  0  0  0  0  0  0  0  0
   -5.1135   20.0981  -34.2096 H   0  0  0  0  0  0  0  0  0  0  0  0
   -4.5445   17.4981  -36.1508 H   0  0  0  0  0  0  0  0  0  0  0  0
   -3.4898   18.5447  -35.0971 H   0  0  0  0  0  0  0  0  0  0  0  0
   -3.4189   18.8347  -32.1538 H   0  0  0  0  0  0  0  0  0  0  0  0
  1  2  1  0
  2  3  1  0
  3  4  2  0
  4  5  1  0
  5  6  2  0
  6  7  1  0
  7  8  1  0
  7  9  2  0
  9 10  1  0
 10 11  1  0
 11 12  2  0
 11 13  1  0
 13 14  2  0
 14 15  1  0
 15 16  2  0
 16 17  1  0
 17 18  1  0
 18 19  2  0
 18 20  2  0
 18 21  1  0
 21 22  1  0
 22 23  1  0
 23 24  1  0
 24 25  2  0
 25 26  1  0
 26 27  2  0
 27 28  1  0
 28 29  2  0
 29 30  1  0
 17 31  2  0
  9  3  1  0
 31 13  1  0
 30 21  1  0
 29 24  1  0
  1 32  1  0
  1 33  1  0
  1 34  1  0
  4 35  1  0
  5 36  1  0
  6 37  1  0
  8 38  1  0
  8 39  1  0
  8 40  1  0
 14 41  1  0
 15 42  1  0
 16 43  1  0
 21 44  1  6
 22 45  1  0
 22 46  1  0
 23 47  1  0
 23 48  1  0
 25 49  1  0
 26 50  1  0
 27 51  1  0
 28 52  1  0
 30 53  1  0
 30 54  1  0
 31 55  1  0
M  CHG  2  10  -1  21   1
M  END
>  <UniqueID>  (4) 
4

>  <SMILES>  (4) 
COc1cccc(C)c1[N-]C(=O)c1cccc(S(=O)(=O)[N@H+]2CCc3ccccc3C2)c1

>  <Energy>  (4) 
70.37433406246025

>  <Genealogy>  (4) 
COc1cccc(C)c1[N-]C(=O)c1cccc(S(=O)(=O)[NH+]2CCc3ccccc3C2)c1 (protonated)
COc1cccc(C)c1[N-]C(=O)c1cccc(S(=O)(=O)[N@H+]2CCc3ccccc3C2)c1 (chirality)
COc1cccc(C)c1[N-]C(=O)c1cccc(S(=O)(=O)[N@H+]2CCc3ccccc3C2)c1 (3D coordinates assigned)
COc1cccc(C)c1[N-]C(=O)c1cccc(S(=O)(=O)[N@H+]2CCc3ccccc3C2)c1 (nonaromatic ring conformer: 70.37433406246025 kcal/mol)

>  <smiles>  (4) 
COc1cccc(C)c1NC(=O)c1cccc(S(=O)(=O)N2CCc3ccccc3C2)c1

>  <score_type>  (4) 
oracle

>  <origin>  (4) 
adgpu

>  <m_score__min__energy>  (4) 
-10.65

>  <m_primary>  (4) 
energy

$$$$
4:0
     RDKit          3D

 23 24  0  0  0  0  0  0  0  0999 V2000
   -1.9584   20.5978  -29.9945 H   0  0  0  0  0  0  0  0  0  0  0  0
   -2.6230   21.4680  -30.0990 C   0  0  0  0  0  0  0  0  0  0  0  0
   -3.5640   21.4100  -30.9990 N   0  0  0  0  0  0  0  0  0  0  0  0
   -4.6430   22.3360  -31.2000 C   0  0  0  0  0  0  0  0  0  0  0  0
   -4.4230   23.6600  -30.9880 N   0  0  0  0  0  0  0  0  0  0  0  0
   -5.4000   24.5800  -31.2020 C   0  0  0  0  0  0  0  0  0  0  0  0
   -5.1740   25.7980  -30.9850 O   0  0  0  0  0  0  0  0  0  0  0  0
   -6.6190   24.1860  -31.6510 N   0  0  0  0  0  0  0  0  0  0  0  0
   -6.8790   22.8770  -31.9030 C   0  0  0  0  0  0  0  0  0  0  0  0
   -8.0130   22.5340  -32.3300 O   0  0  0  0  0  0  0  0  0  0  0  0
   -5.8880   21.9170  -31.6940 C   0  0  0  0  0  0  0  0  0  0  0  0
   -6.0784   20.8557  -31.9116 H   0  0  0  0  0  0  0  0  0  0  0  0
   -2.3890   22.6270  -29.2080 C   0  0  0  0  0  0  0  0  0  0  0  0
   -2.5620   22.4720  -27.8240 C   0  0  0  0  0  0  0  0  0  0  0  0
   -2.8871   21.5027  -27.4180 H   0  0  0  0  0  0  0  0  0  0  0  0
   -2.3230   23.5440  -26.9590 C   0  0  0  0  0  0  0  0  0  0  0  0
   -2.4762   23.4205  -25.8767 H   0  0  0  0  0  0  0  0  0  0  0  0
   -1.8900   24.7720  -27.4660 C   0  0  0  0  0  0  0  0  0  0  0  0
   -1.7105   25.6163  -26.7842 H   0  0  0  0  0  0  0  0  0  0  0  0
   -1.6850   24.9270  -28.8400 C   0  0  0  0  0  0  0  0  0  0  0  0
   -1.2390   26.1430  -29.3420 O   0  0  0  0  0  0  0  0  0  0  0  0
   -1.9240   23.8570  -29.7090 C   0  0  0  0  0  0  0  0  0  0  0  0
   -1.7477   23.9776  -30.7881 H   0  0  0  0  0  0  0  0  0  0  0  0
  1  2  1  0
  2  3  2  0
  3  4  1  0
  4  5  1  0
  5  6  1  0
  6  7  2  0
  6  8  1  0
  8  9  1  0
  9 10  2  0
  9 11  1  0
 11 12  1  0
  2 13  1  0
 13 14  2  0
 14 15  1  0
 14 16  1  0
 16 17  1  0
 16 18  2  0
 18 19  1  0
 18 20  1  0
 20 21  1  0
 20 22  2  0
 22 23  1  0
 11  4  2  0
 22 13  1  0
M  CHG  3   5  -1   8  -1  21  -1
M  END
>  <UniqueID>  (5) 
5

>  <SMILES>  (5) 
O=c1cc(/N=C\c2cccc([O-])c2)[n-]c(=O)[n-]1

>  <Energy>  (5) 
36.525740077291445

>  <Genealogy>  (5) 
O=c1cc(N=Cc2cccc([O-])c2)[n-]c(=O)[n-]1 (protonated)
O=c1cc(/N=C\c2cccc([O-])c2)[n-]c(=O)[n-]1 (cis-trans isomerization)
O=c1cc(/N=C\c2cccc([O-])c2)[n-]c(=O)[n-]1 (3D coordinates assigned)
O=c1cc(/N=C\c2cccc([O-])c2)[n-]c(=O)[n-]1 (optimized conformer: 36.525740077291445 kcal/mol)

>  <smiles>  (5) 
O=c1cc(N=Cc2cccc(O)c2)[nH]c(=O)[nH]1

>  <score_type>  (5) 
oracle

>  <origin>  (5) 
adgpu

>  <m_score__min__energy>  (5) 
-9.4000000000000004

>  <m_primary>  (5) 
energy

$$$$
5:0
     RDKit          3D

 35 37  0  0  0  0  0  0  0  0999 V2000
   -6.9066   19.1192  -33.8097 H   0  0  0  0  0  0  0  0  0  0  0  0
   -6.7600   20.0560  -33.2520 C   0  0  0  0  0  0  0  0  0  0  0  0
   -7.8290   20.7430  -32.7770 N   0  0  0  0  0  0  0  0  0  0  0  0
   -7.6960   21.8800  -32.0860 N   0  0  0  0  0  0  0  0  0  0  0  0
   -8.9120   22.5470  -31.6170 C   0  0  0  0  0  0  0  0  0  0  0  0
   -8.9253   22.5543  -30.5171 H   0  0  0  0  0  0  0  0  0  0  0  0
   -8.9302   23.5814  -31.9908 H   0  0  0  0  0  0  0  0  0  0  0  0
   -9.7941   22.0065  -31.9908 H   0  0  0  0  0  0  0  0  0  0  0  0
   -6.4520   22.3990  -31.8130 C   0  0  0  0  0  0  0  0  0  0  0  0
   -6.3620   23.5160  -31.1350 N   0  0  0  0  0  0  0  0  0  0  0  0
   -5.1950   24.2000  -30.6500 C   0  0  0  0  0  0  0  0  0  0  0  0
   -4.8130   25.2830  -31.1700 O   0  0  0  0  0  0  0  0  0  0  0  0
   -4.3830   23.5770  -29.5960 C   0  0  0  0  0  0  0  0  0  0  0  0
   -3.9000   22.2810  -29.6110 C   0  0  0  0  0  0  0  0  0  0  0  0
   -4.0514   21.5289  -30.3993 H   0  0  0  0  0  0  0  0  0  0  0  0
   -3.1860   22.1200  -28.4320 C   0  0  0  0  0  0  0  0  0  0  0  0
   -2.4730   20.8950  -27.9850 C   0  0  0  0  0  0  0  0  0  0  0  0
   -3.0870   19.9920  -27.0940 C   0  0  0  0  0  0  0  0  0  0  0  0
   -4.1036   20.1948  -26.7260 H   0  0  0  0  0  0  0  0  0  0  0  0
   -2.4140   18.8400  -26.6740 C   0  0  0  0  0  0  0  0  0  0  0  0
   -2.9026   18.1419  -25.9783 H   0  0  0  0  0  0  0  0  0  0  0  0
   -1.1230   18.5740  -27.1360 C   0  0  0  0  0  0  0  0  0  0  0  0
   -0.4740   17.4570  -26.7270 F   0  0  0  0  0  0  0  0  0  0  0  0
   -0.5030   19.4600  -28.0180 C   0  0  0  0  0  0  0  0  0  0  0  0
    0.5137   19.2500  -28.3817 H   0  0  0  0  0  0  0  0  0  0  0  0
   -1.1700   20.6140  -28.4410 C   0  0  0  0  0  0  0  0  0  0  0  0
   -0.6734   21.3078  -29.1353 H   0  0  0  0  0  0  0  0  0  0  0  0
   -3.2710   23.3280  -27.7550 C   0  0  0  0  0  0  0  0  0  0  0  0
   -2.8109   23.5373  -26.7780 H   0  0  0  0  0  0  0  0  0  0  0  0
   -3.9990   24.2060  -28.4690 N   0  0  0  0  0  0  0  0  0  0  0  0
   -4.2200   25.1880  -28.1910 H   0  0  0  0  0  0  0  0  0  0  0  0
   -5.3190   21.7240  -32.3110 C   0  0  0  0  0  0  0  0  0  0  0  0
   -4.3120   22.1289  -32.1324 H   0  0  0  0  0  0  0  0  0  0  0  0
   -5.4800   20.5440  -33.0290 C   0  0  0  0  0  0  0  0  0  0  0  0
   -4.6033   20.0038  -33.4156 H   0  0  0  0  0  0  0  0  0  0  0  0
  1  2  1  0
  2  3  2  0
  3  4  1  0
  4  5  1  0
  5  6  1  0
  5  7  1  0
  5  8  1  0
  4  9  1  0
  9 10  2  0
 10 11  1  0
 11 12  2  0
 11 13  1  0
 13 14  2  0
 14 15  1  0
 14 16  1  0
 16 17  1  0
 17 18  2  0
 18 19  1  0
 18 20  1  0
 20 21  1  0
 20 22  2  0
 22 23  1  0
 22 24  1  0
 24 25  1  0
 24 26  2  0
 26 27  1  0
 16 28  2  0
 28 29  1  0
 28 30  1  0
 30 31  1  0
  9 32  1  0
 32 33  1  0
 32 34  2  0
 34 35  1  0
 34  2  1  0
 30 13  1  0
 26 17  1  0
M  END
>  <UniqueID>  (6) 
6

>  <SMILES>  (6) 
Cn1nccc/c1=N\C(=O)c1cc(-c2ccc(F)cc2)c[nH]1

>  <Energy>  (6) 
73.84834002190765

>  <Genealogy>  (6) 
Cn1nccc/c1=N\C(=O)c1cc(-c2ccc(F)cc2)c[nH]1 (cis-trans isomerization)
Cn1nccc/c1=N\C(=O)c1cc(-c2ccc(F)cc2)c[nH]1 (3D coordinates assigned)
Cn1nccc/c1=N\C(=O)c1cc(-c2ccc(F)cc2)c[nH]1 (optimized conformer: 73.84834002190765 kcal/mol)

>  <smiles>  (6) 
Cn1ncccc1=NC(=O)c1cc(-c2ccc(F)cc2)c[nH]1

>  <score_type>  (6) 
oracle

>  <origin>  (6) 
adgpu

>  <m_score__min__energy>  (6) 
-8.0199999999999996

>  <m_primary>  (6) 
energy

$$$$
6:0
     RDKit          3D

 35 37  0  0  0  0  0  0  0  0999 V2000
   -6.8820   19.8190  -33.1070 C   0  0  0  0  0  0  0  0  0  0  0  0
   -6.4740   21.1820  -33.1650 O   0  0  0  0  0  0  0  0  0  0  0  0
   -6.5770   22.0860  -32.0970 C   0  0  0  0  0  0  0  0  0  0  0  0
   -7.4890   21.8030  -31.0730 C   0  0  0  0  0  0  0  0  0  0  0  0
   -7.6280   22.6710  -29.9880 C   0  0  0  0  0  0  0  0  0  0  0  0
   -6.8580   23.8340  -29.9170 C   0  0  0  0  0  0  0  0  0  0  0  0
   -5.9450   24.1400  -30.9380 C   0  0  0  0  0  0  0  0  0  0  0  0
   -5.1170   25.3940  -30.8520 C   0  0  0  0  0  0  0  0  0  0  0  0
   -3.7970   25.1000  -30.3910 O   0  0  0  0  0  0  0  0  0  0  0  0
   -3.4310   23.9660  -29.6480 C   0  0  0  0  0  0  0  0  0  0  0  0
   -2.8210   22.9030  -30.3210 C   0  0  0  0  0  0  0  0  0  0  0  0
   -2.4410   21.7480  -29.6330 C   0  0  0  0  0  0  0  0  0  0  0  0
   -2.6630   21.6340  -28.2500 C   0  0  0  0  0  0  0  0  0  0  0  0
   -2.2680   20.4350  -27.5530 N   0  0  0  0  0  0  0  0  0  0  0  0
   -1.0560   19.8480  -27.4920 C   0  0  0  0  0  0  0  0  0  0  0  0
   -1.1240   18.7410  -26.7290 N   0  0  0  0  0  0  0  0  0  0  0  0
   -2.3870   18.6650  -26.3330 N   0  0  0  0  0  0  0  0  0  0  0  0
   -3.0760   19.6830  -26.8260 N   0  0  0  0  0  0  0  0  0  0  0  0
   -3.2710   22.7060  -27.5720 C   0  0  0  0  0  0  0  0  0  0  0  0
   -3.6500   23.8610  -28.2620 C   0  0  0  0  0  0  0  0  0  0  0  0
   -5.7990   23.2580  -32.0210 C   0  0  0  0  0  0  0  0  0  0  0  0
   -6.9749   19.5085  -32.0558 H   0  0  0  0  0  0  0  0  0  0  0  0
   -7.8535   19.7053  -33.6102 H   0  0  0  0  0  0  0  0  0  0  0  0
   -6.1327   19.1902  -33.6102 H   0  0  0  0  0  0  0  0  0  0  0  0
   -8.1006   20.8901  -31.1236 H   0  0  0  0  0  0  0  0  0  0  0  0
   -8.3456   22.4382  -29.1874 H   0  0  0  0  0  0  0  0  0  0  0  0
   -6.9675   24.5124  -29.0580 H   0  0  0  0  0  0  0  0  0  0  0  0
   -5.0565   25.8552  -31.8488 H   0  0  0  0  0  0  0  0  0  0  0  0
   -5.5939   26.0831  -30.1395 H   0  0  0  0  0  0  0  0  0  0  0  0
   -2.6384   22.9769  -31.4032 H   0  0  0  0  0  0  0  0  0  0  0  0
   -1.9638   20.9206  -30.1786 H   0  0  0  0  0  0  0  0  0  0  0  0
   -0.1480   20.2179  -27.9907 H   0  0  0  0  0  0  0  0  0  0  0  0
   -3.4498   22.6347  -26.4890 H   0  0  0  0  0  0  0  0  0  0  0  0
   -4.1222   24.6926  -27.7184 H   0  0  0  0  0  0  0  0  0  0  0  0
   -5.0723   23.4838  -32.8153 H   0  0  0  0  0  0  0  0  0  0  0  0
  1  2  1  0
  2  3  1  0
  3  4  2  0
  4  5  1  0
  5  6  2  0
  6  7  1  0
  7  8  1  0
  8  9  1  0
  9 10  1  0
 10 11  2  0
 11 12  1  0
 12 13  2  0
 13 14  1  0
 14 15  1  0
 15 16  2  0
 16 17  1  0
 17 18  2  0
 13 19  1  0
 19 20  2  0
  7 21  2  0
 21  3  1  0
 20 10  1  0
 18 14  1  0
  1 22  1  0
  1 23  1  0
  1 24  1  0
  4 25  1  0
  5 26  1  0
  6 27  1  0
  8 28  1  0
  8 29  1  0
 11 30  1  0
 12 31  1  0
 15 32  1  0
 19 33  1  0
 20 34  1  0
 21 35  1  0
M  END
>  <UniqueID>  (7) 
7

>  <SMILES>  (7) 
COc1cccc(COc2ccc(-n3cnnn3)cc2)c1

>  <Energy>  (7) 
78.3058378892695

>  <Genealogy>  (7) 
COc1cccc(COc2ccc(-n3cnnn3)cc2)c1 (3D coordinates assigned)
COc1cccc(COc2ccc(-n3cnnn3)cc2)c1 (optimized conformer: 78.3058378892695 kcal/mol)

>  <smiles>  (7) 
COc1cccc(COc2ccc(-n3cnnn3)cc2)c1

>  <score_type>  (7) 
oracle

>  <origin>  (7) 
adgpu

>  <m_score__min__energy>  (7) 
-7.7599999999999998

>  <m_primary>  (7) 
energy

$$$$
7:0
     RDKit          3D

 32 34  0  0  0  0  0  0  0  0999 V2000
   -8.6003   18.1178  -33.0459 H   0  0  0  0  0  0  0  0  0  0  0  0
   -7.6690   18.6100  -32.7290 C   0  0  0  0  0  0  0  0  0  0  0  0
   -7.5230   20.2050  -32.2140 S   0  0  0  0  0  0  0  0  0  0  0  0
   -5.8650   20.0760  -31.9440 C   0  0  0  0  0  0  0  0  0  0  0  0
   -5.0700   21.0280  -31.5530 N   0  0  0  0  0  0  0  0  0  0  0  0
   -5.4540   22.3560  -31.1630 C   0  0  0  0  0  0  0  0  0  0  0  0
   -6.7460   22.6400  -30.6820 C   0  0  0  0  0  0  0  0  0  0  0  0
   -7.4999   21.8406  -30.6299 H   0  0  0  0  0  0  0  0  0  0  0  0
   -7.0740   23.9360  -30.2700 C   0  0  0  0  0  0  0  0  0  0  0  0
   -8.0896   24.1577  -29.9102 H   0  0  0  0  0  0  0  0  0  0  0  0
   -6.1130   24.9490  -30.3150 C   0  0  0  0  0  0  0  0  0  0  0  0
   -6.3757   25.9700  -30.0010 H   0  0  0  0  0  0  0  0  0  0  0  0
   -4.8170   24.6660  -30.7590 C   0  0  0  0  0  0  0  0  0  0  0  0
   -3.8580   25.6700  -30.7880 O   0  0  0  0  0  0  0  0  0  0  0  0
   -4.4880   23.3700  -31.1710 C   0  0  0  0  0  0  0  0  0  0  0  0
   -3.4636   23.1460  -31.5035 H   0  0  0  0  0  0  0  0  0  0  0  0
   -5.4090   18.8450  -32.2520 N   0  0  0  0  0  0  0  0  0  0  0  0
   -6.4020   18.0170  -32.6850 C   0  0  0  0  0  0  0  0  0  0  0  0
   -6.1220   16.6080  -33.0650 C   0  0  0  0  0  0  0  0  0  0  0  0
   -6.8900   15.9900  -34.0700 C   0  0  0  0  0  0  0  0  0  0  0  0
   -7.6871   16.5575  -34.5727 H   0  0  0  0  0  0  0  0  0  0  0  0
   -6.6500   14.6640  -34.4350 C   0  0  0  0  0  0  0  0  0  0  0  0
   -7.2580   14.1931  -35.2215 H   0  0  0  0  0  0  0  0  0  0  0  0
   -5.6410   13.9340  -33.8050 C   0  0  0  0  0  0  0  0  0  0  0  0
   -5.4608   12.8873  -34.0912 H   0  0  0  0  0  0  0  0  0  0  0  0
   -4.8570   14.5310  -32.8090 C   0  0  0  0  0  0  0  0  0  0  0  0
   -3.8040   13.7310  -32.0990 C   0  0  0  0  0  0  0  0  0  0  0  0
   -3.9374   13.8323  -31.0118 H   0  0  0  0  0  0  0  0  0  0  0  0
   -3.8948   12.6720  -32.3824 H   0  0  0  0  0  0  0  0  0  0  0  0
   -2.8081   14.1023  -32.3824 H   0  0  0  0  0  0  0  0  0  0  0  0
   -5.1100   15.8590  -32.4310 C   0  0  0  0  0  0  0  0  0  0  0  0
   -4.5120   16.3203  -31.6313 H   0  0  0  0  0  0  0  0  0  0  0  0
  1  2  1  0
  2  3  1  0
  3  4  1  0
  4  5  2  0
  5  6  1  0
  6  7  2  0
  7  8  1  0
  7  9  1  0
  9 10  1  0
  9 11  2  0
 11 12  1  0
 11 13  1  0
 13 14  1  0
 13 15  2  0
 15 16  1  0
  4 17  1  0
 17 18  1  0
 18 19  1  0
 19 20  2  0
 20 21  1  0
 20 22  1  0
 22 23  1  0
 22 24  2  0
 24 25  1  0
 24 26  1  0
 26 27  1  0
 27 28  1  0
 27 29  1  0
 27 30  1  0
 26 31  2  0
 31 32  1  0
 18  2  2  0
 31 19  1  0
 15  6  1  0
M  CHG  2  14  -1  17  -1
M  END
>  <UniqueID>  (8) 
8

>  <SMILES>  (8) 
Cc1cccc(-c2cs/c(=N\c3cccc([O-])c3)[n-]2)c1

>  <Energy>  (8) 
73.73386764882528

>  <Genealogy>  (8) 
Cc1cccc(-c2csc(=Nc3cccc([O-])c3)[n-]2)c1 (protonated)
Cc1cccc(-c2cs/c(=N\c3cccc([O-])c3)[n-]2)c1 (cis-trans isomerization)
Cc1cccc(-c2cs/c(=N\c3cccc([O-])c3)[n-]2)c1 (3D coordinates assigned)
Cc1cccc(-c2cs/c(=N\c3cccc([O-])c3)[n-]2)c1 (optimized conformer: 73.73386764882528 kcal/mol)

>  <smiles>  (8) 
Cc1cccc(-c2csc(=Nc3cccc(O)c3)[nH]2)c1

>  <score_type>  (8) 
oracle

>  <origin>  (8) 
adgpu

>  <m_score__min__energy>  (8) 
-10.49

>  <m_primary>  (8) 
energy

$$$$
8:0
     RDKit          3D

 65 69  0  0  0  0  0  0  0  0999 V2000
   -5.4690   21.7050  -32.4540 C   0  0  0  0  0  0  0  0  0  0  0  0
   -5.8430   23.1860  -32.3430 C   0  0  0  0  0  0  0  0  0  0  0  0
   -7.3650   23.3660  -32.3140 C   0  0  0  0  0  0  0  0  0  0  0  0
   -5.2290   23.7830  -31.1100 C   0  0  0  0  0  0  0  0  0  0  0  0
   -5.5870   23.5110  -29.8060 C   0  0  0  0  0  0  0  0  0  0  0  0
   -4.7090   24.2790  -29.0690 C   0  0  0  0  0  0  0  0  0  0  0  0
   -4.5940   24.3000  -27.5770 C   0  0  0  0  0  0  0  0  0  0  0  0
   -3.2100   24.5550  -27.1820 N   0  0  0  0  0  0  0  0  0  0  0  0
   -2.8680   25.5330  -26.3600 N   0  0  0  0  0  0  0  0  0  0  0  0
   -1.5240   25.5340  -26.2440 C   0  0  0  0  0  0  0  0  0  0  0  0
   -0.7720   26.5030  -25.4110 C   0  0  0  0  0  0  0  0  0  0  0  0
   -0.3010   27.7020  -25.9810 C   0  0  0  0  0  0  0  0  0  0  0  0
    0.4140   28.6220  -25.2080 C   0  0  0  0  0  0  0  0  0  0  0  0
    0.6660   28.3600  -23.8600 C   0  0  0  0  0  0  0  0  0  0  0  0
    0.2030   27.1760  -23.2820 C   0  0  0  0  0  0  0  0  0  0  0  0
   -0.5120   26.2520  -24.0490 C   0  0  0  0  0  0  0  0  0  0  0  0
   -0.9950   24.5220  -27.0300 C   0  0  0  0  0  0  0  0  0  0  0  0
   -2.0950   23.9180  -27.6110 C   0  0  0  0  0  0  0  0  0  0  0  0
   -2.0440   22.8010  -28.6310 C   0  0  0  0  0  0  0  0  0  0  0  0
   -2.7590   21.5240  -28.1230 C   0  0  0  0  0  0  0  0  0  0  0  0
   -1.7710   20.3950  -27.8040 C   0  0  0  0  0  0  0  0  0  0  0  0
   -0.9760   20.0120  -29.0010 N   0  0  0  0  0  0  0  0  0  0  0  0
    0.1200   19.0660  -28.6570 C   0  0  0  0  0  0  0  0  0  0  0  0
   -0.2120   18.1810  -27.4540 C   0  0  0  0  0  0  0  0  0  0  0  0
    0.6330   16.9340  -27.6250 C   0  0  0  0  0  0  0  0  0  0  0  0
    0.7750   16.7340  -29.1260 C   0  0  0  0  0  0  0  0  0  0  0  0
    0.3840   18.0560  -29.7850 C   0  0  0  0  0  0  0  0  0  0  0  0
   -0.4800   21.1860  -29.7840 C   0  0  0  0  0  0  0  0  0  0  0  0
   -0.5850   22.5210  -29.0350 C   0  0  0  0  0  0  0  0  0  0  0  0
   -3.8960   24.9670  -29.8950 N   0  0  0  0  0  0  0  0  0  0  0  0
   -4.2380   24.6470  -31.1100 O   0  0  0  0  0  0  0  0  0  0  0  0
   -5.3611   21.2776  -31.4462 H   0  0  0  0  0  0  0  0  0  0  0  0
   -6.2595   21.1670  -32.9978 H   0  0  0  0  0  0  0  0  0  0  0  0
   -4.5179   21.6068  -32.9978 H   0  0  0  0  0  0  0  0  0  0  0  0
   -5.4511   23.7074  -33.2288 H   0  0  0  0  0  0  0  0  0  0  0  0
   -7.7096   23.4068  -31.2702 H   0  0  0  0  0  0  0  0  0  0  0  0
   -7.6333   24.3021  -32.8255 H   0  0  0  0  0  0  0  0  0  0  0  0
   -7.8443   22.5183  -32.8255 H   0  0  0  0  0  0  0  0  0  0  0  0
   -6.3811   22.8428  -29.4415 H   0  0  0  0  0  0  0  0  0  0  0  0
   -5.2394   25.0943  -27.1738 H   0  0  0  0  0  0  0  0  0  0  0  0
   -4.9074   23.3237  -27.1786 H   0  0  0  0  0  0  0  0  0  0  0  0
   -0.4971   27.9161  -27.0420 H   0  0  0  0  0  0  0  0  0  0  0  0
    0.7789   29.5546  -25.6631 H   0  0  0  0  0  0  0  0  0  0  0  0
    1.2286   29.0853  -23.2539 H   0  0  0  0  0  0  0  0  0  0  0  0
    0.4017   26.9700  -22.2199 H   0  0  0  0  0  0  0  0  0  0  0  0
   -0.8744   25.3222  -23.5862 H   0  0  0  0  0  0  0  0  0  0  0  0
    0.0646   24.2580  -27.1622 H   0  0  0  0  0  0  0  0  0  0  0  0
   -2.5925   23.1261  -29.5274 H   0  0  0  0  0  0  0  0  0  0  0  0
   -3.3206   21.7718  -27.2102 H   0  0  0  0  0  0  0  0  0  0  0  0
   -3.4284   21.1714  -28.9215 H   0  0  0  0  0  0  0  0  0  0  0  0
   -1.0855   20.7328  -27.0128 H   0  0  0  0  0  0  0  0  0  0  0  0
   -2.3454   19.5163  -27.4756 H   0  0  0  0  0  0  0  0  0  0  0  0
    0.9786   19.7249  -28.4606 H   0  0  0  0  0  0  0  0  0  0  0  0
    0.0455   18.6945  -26.5159 H   0  0  0  0  0  0  0  0  0  0  0  0
   -1.2850   17.9440  -27.4047 H   0  0  0  0  0  0  0  0  0  0  0  0
    1.6209   17.0739  -27.1618 H   0  0  0  0  0  0  0  0  0  0  0  0
    0.1700   16.0611  -27.1417 H   0  0  0  0  0  0  0  0  0  0  0  0
    1.8149   16.4782  -29.3775 H   0  0  0  0  0  0  0  0  0  0  0  0
    0.1339   15.9122  -29.4777 H   0  0  0  0  0  0  0  0  0  0  0  0
    1.2025   18.4136  -30.4270 H   0  0  0  0  0  0  0  0  0  0  0  0
   -0.5103   17.9296  -30.4129 H   0  0  0  0  0  0  0  0  0  0  0  0
    0.5765   21.0126  -30.0367 H   0  0  0  0  0  0  0  0  0  0  0  0
   -1.1190   21.2686  -30.6756 H   0  0  0  0  0  0  0  0  0  0  0  0
    0.0390   22.4782  -28.1302 H   0  0  0  0  0  0  0  0  0  0  0  0
   -0.2388   23.3281  -29.6974 H   0  0  0  0  0  0  0  0  0  0  0  0
  1  2  1  0
  2  3  1  0
  2  4  1  0
  4  5  2  0
  5  6  1  0
  6  7  1  0
  7  8  1  0
  8  9  1  0
  9 10  2  0
 10 11  1  0
 11 12  2  0
 12 13  1  0
 13 14  2  0
 14 15  1  0
 15 16  2  0
 10 17  1  0
 17 18  2  0
 18 19  1  0
 19 20  1  0
 20 21  1  0
 21 22  1  0
 22 23  1  0
 23 24  1  0
 24 25  1  0
 25 26  1  0
 26 27  1  0
 22 28  1  0
 28 29  1  0
  6 30  2  0
 30 31  1  0
 31  4  1  0
 18  8  1  0
 29 19  1  0
 16 11  1  0
 27 23  1  0
  1 32  1  0
  1 33  1  0
  1 34  1  0
  2 35  1  0
  3 36  1  0
  3 37  1  0
  3 38  1  0
  5 39  1  0
  7 40  1  0
  7 41  1  0
 12 42  1  0
 13 43  1  0
 14 44  1  0
 15 45  1  0
 16 46  1  0
 17 47  1  0
 19 48  1  0
 20 49  1  0
 20 50  1  0
 21 51  1  0
 21 52  1  0
 23 53  1  0
 24 54  1  0
 24 55  1  0
 25 56  1  0
 25 57  1  0
 26 58  1  0
 26 59  1  0
 27 60  1  0
 27 61  1  0
 28 62  1  0
 28 63  1  0
 29 64  1  0
 29 65  1  0
M  END
>  <UniqueID>  (9) 
9

>  <SMILES>  (9) 
CC(C)c1cc(Cn2nc(-c3ccccc3)cc2C2CCN(C3CCCC3)CC2)no1

>  <Energy>  (9) 
132.74536658000133

>  <Genealogy>  (9) 
CC(C)c1cc(Cn2nc(-c3ccccc3)cc2C2CCN(C3CCCC3)CC2)no1 (3D coordinates assigned)
CC(C)c1cc(Cn2nc(-c3ccccc3)cc2C2CCN(C3CCCC3)CC2)no1 (nonaromatic ring conformer: 132.74536658000133 kcal/mol)

>  <smiles>  (9) 
CC(C)c1cc(Cn2nc(-c3ccccc3)cc2C2CCN(C3CCCC3)CC2)no1

>  <score_type>  (9) 
oracle

>  <origin>  (9) 
adgpu

>  <m_score__min__energy>  (9) 
-10.27

>  <m_primary>  (9) 
energy

$$$$
9:0
     RDKit          3D

 41 44  0  0  0  0  0  0  0  0999 V2000
   -8.9300   19.2120  -32.6750 C   0  0  0  0  0  0  0  0  0  0  0  0
   -7.8860   20.2450  -32.3480 C   0  0  0  0  0  0  0  0  0  0  0  0
   -8.2730   21.5780  -32.1460 C   0  0  0  0  0  0  0  0  0  0  0  0
   -7.3270   22.5510  -31.8210 C   0  0  0  0  0  0  0  0  0  0  0  0
   -5.9710   22.2110  -31.6930 C   0  0  0  0  0  0  0  0  0  0  0  0
   -4.9710   23.2480  -31.3440 C   0  0  0  0  0  0  0  0  0  0  0  0
   -5.2630   24.4630  -31.5100 O   0  0  0  0  0  0  0  0  0  0  0  0
   -3.6550   22.9180  -30.8710 N   0  0  0  0  0  0  0  0  0  0  0  0
   -2.9130   23.6700  -30.1120 C   0  0  0  0  0  0  0  0  0  0  0  0
   -1.6730   23.3150  -29.6390 C   0  0  0  0  0  0  0  0  0  0  0  0
   -1.2790   24.4260  -28.9210 C   0  0  0  0  0  0  0  0  0  0  0  0
   -2.2290   25.3330  -28.9970 O   0  0  0  0  0  0  0  0  0  0  0  0
   -3.2310   24.9150  -29.7130 N   0  0  0  0  0  0  0  0  0  0  0  0
   -5.5740   20.8870  -31.9420 C   0  0  0  0  0  0  0  0  0  0  0  0
   -6.5180   19.9020  -32.2690 C   0  0  0  0  0  0  0  0  0  0  0  0
   -6.0780   18.5530  -32.4980 N   0  0  0  0  0  0  0  0  0  0  0  0
   -5.6360   18.1640  -33.8440 C   0  0  0  0  0  0  0  0  0  0  0  0
   -4.7460   16.9450  -33.8280 C   0  0  0  0  0  0  0  0  0  0  0  0
   -3.9110   16.6800  -34.9250 C   0  0  0  0  0  0  0  0  0  0  0  0
   -3.1410   15.5140  -34.9630 C   0  0  0  0  0  0  0  0  0  0  0  0
   -2.0020   15.1700  -36.4570 Br  0  0  0  0  0  0  0  0  0  0  0  0
   -3.2130   14.5950  -33.9130 C   0  0  0  0  0  0  0  0  0  0  0  0
   -4.0530   14.8400  -32.8230 C   0  0  0  0  0  0  0  0  0  0  0  0
   -4.8220   16.0100  -32.7750 C   0  0  0  0  0  0  0  0  0  0  0  0
   -5.6690   16.2660  -31.6490 N   0  0  0  0  0  0  0  0  0  0  0  0
   -6.2770   17.5470  -31.4910 C   0  0  0  0  0  0  0  0  0  0  0  0
   -6.9710   17.7890  -30.4670 O   0  0  0  0  0  0  0  0  0  0  0  0
   -9.3446   18.8017  -31.7424 H   0  0  0  0  0  0  0  0  0  0  0  0
   -9.7360   19.6780  -33.2608 H   0  0  0  0  0  0  0  0  0  0  0  0
   -8.4726   18.4011  -33.2608 H   0  0  0  0  0  0  0  0  0  0  0  0
   -9.3319   21.8590  -32.2447 H   0  0  0  0  0  0  0  0  0  0  0  0
   -7.6461   23.5919  -31.6640 H   0  0  0  0  0  0  0  0  0  0  0  0
   -1.1264   22.3732  -29.7948 H   0  0  0  0  0  0  0  0  0  0  0  0
   -0.3295   24.5349  -28.3763 H   0  0  0  0  0  0  0  0  0  0  0  0
   -4.5090   20.6188  -31.8798 H   0  0  0  0  0  0  0  0  0  0  0  0
   -6.5225   17.9460  -34.4576 H   0  0  0  0  0  0  0  0  0  0  0  0
   -5.0532   18.9991  -34.2598 H   0  0  0  0  0  0  0  0  0  0  0  0
   -3.8624   17.3945  -35.7600 H   0  0  0  0  0  0  0  0  0  0  0  0
   -2.6076   13.6771  -33.9442 H   0  0  0  0  0  0  0  0  0  0  0  0
   -4.1104   14.1119  -32.0004 H   0  0  0  0  0  0  0  0  0  0  0  0
   -5.7900   15.5430  -30.9030 H   0  0  0  0  0  0  0  0  0  0  0  0
  1  2  1  0
  2  3  2  0
  3  4  1  0
  4  5  2  0
  5  6  1  0
  6  7  2  0
  6  8  1  0
  8  9  2  3
  9 10  1  0
 10 11  2  0
 11 12  1  0
 12 13  1  0
  5 14  1  0
 14 15  2  0
 15 16  1  0
 16 17  1  0
 17 18  1  0
 18 19  2  0
 19 20  1  0
 20 21  1  0
 20 22  2  0
 22 23  1  0
 23 24  2  0
 24 25  1  0
 25 26  1  0
 26 27  2  0
 15  2  1  0
 26 16  1  0
 13  9  1  0
 24 18  1  0
  1 28  1  0
  1 29  1  0
  1 30  1  0
  3 31  1  0
  4 32  1  0
 10 33  1  0
 11 34  1  0
 14 35  1  0
 17 36  1  0
 17 37  1  0
 19 38  1  0
 22 39  1  0
 23 40  1  0
 25 41  1  0
M  CHG  1  13  -1
M  END
>  <UniqueID>  (10) 
10

>  <SMILES>  (10) 
Cc1ccc(C(=O)N=c2cco[n-]2)cc1N1Cc2cc(Br)ccc2NC1=O

>  <Energy>  (10) 
90.00173679890175

>  <Genealogy>  (10) 
Cc1ccc(C(=O)N=c2cco[n-]2)cc1N1Cc2cc(Br)ccc2NC1=O (protonated)
Cc1ccc(C(=O)N=c2cco[n-]2)cc1N1Cc2cc(Br)ccc2NC1=O (3D coordinates assigned)
Cc1ccc(C(=O)N=c2cco[n-]2)cc1N1Cc2cc(Br)ccc2NC1=O (nonaromatic ring conformer: 90.00173679890175 kcal/mol)

>  <smiles>  (10) 
Cc1ccc(C(=O)N=c2cco[nH]2)cc1N1Cc2cc(Br)ccc2NC1=O

>  <score_type>  (10) 
oracle

>  <origin>  (10) 
adgpu

>  <m_score__min__energy>  (10) 
-11.44

>  <m_primary>  (10) 
energy

$$$$
10:0
     RDKit          3D

 60 62  0  0  1  0  0  0  0  0999 V2000
   -5.8040   17.0860  -32.0480 C   0  0  0  0  0  0  0  0  0  0  0  0
   -7.1710   17.6960  -32.0700 C   0  0  0  0  0  0  0  0  0  0  0  0
   -7.1800   19.1290  -32.1580 N   0  0  0  0  0  0  0  0  0  0  0  0
   -6.8590   19.6390  -33.4480 C   0  0  0  0  0  0  0  0  0  0  0  0
   -5.4050   20.0700  -33.4540 C   0  0  0  0  0  0  0  0  0  0  0  0
   -8.3090   19.7340  -31.5040 C   0  0  0  0  0  0  0  0  0  0  0  0
   -9.1160   20.6620  -32.3370 C   0  0  0  0  0  0  0  0  0  0  0  0
   -8.9920   21.9720  -31.9120 O   0  0  0  0  0  0  0  0  0  0  0  0
   -7.8800   22.6010  -31.4700 C   0  0  0  0  0  0  0  0  0  0  0  0
   -6.8870   22.8690  -32.4320 C   0  0  0  0  0  0  0  0  0  0  0  0
   -5.7100   23.5000  -32.1110 C   0  0  0  0  0  0  0  0  0  0  0  0
   -5.4380   23.9040  -30.8300 C   0  0  0  0  0  0  0  0  0  0  0  0
   -4.2160   24.5550  -30.5150 N   0  0  0  0  0  0  0  0  0  0  0  0
   -3.4650   24.1800  -29.5560 C   0  0  0  0  0  0  0  0  0  0  0  0
   -3.7930   23.1320  -28.7820 N   0  0  0  0  0  0  0  0  0  0  0  0
   -2.9570   22.7910  -27.7900 C   0  0  0  0  0  0  0  0  0  0  0  0
   -1.8060   23.4630  -27.5500 C   0  0  0  0  0  0  0  0  0  0  0  0
   -0.6540   22.9490  -26.1390 Br  0  0  0  0  0  0  0  0  0  0  0  0
   -1.4650   24.5300  -28.3340 C   0  0  0  0  0  0  0  0  0  0  0  0
   -0.4260   25.2270  -28.2070 N   0  0  0  0  0  0  0  0  0  0  0  0
    0.5770   25.0370  -27.2330 C   0  0  0  0  0  0  0  0  0  0  0  0
    1.6970   24.2400  -27.5190 C   0  0  0  0  0  0  0  0  0  0  0  0
    2.7190   24.0710  -26.6060 C   0  0  0  0  0  0  0  0  0  0  0  0
    2.6420   24.6950  -25.3870 C   0  0  0  0  0  0  0  0  0  0  0  0
    1.5460   25.4970  -25.0610 C   0  0  0  0  0  0  0  0  0  0  0  0
    0.5040   25.6730  -25.9830 C   0  0  0  0  0  0  0  0  0  0  0  0
   -0.8570   26.6700  -25.6020 S   0  0  0  0  0  0  0  0  0  0  0  0
   -0.8670   27.1790  -23.9570 N   0  0  0  0  0  0  0  0  0  0  0  0
   -2.1190   25.8470  -25.7860 O   0  0  0  0  0  0  0  0  0  0  0  0
   -1.0020   27.8360  -26.5360 O   0  0  0  0  0  0  0  0  0  0  0  0
   -2.3270   24.8630  -29.3380 N   0  0  0  0  0  0  0  0  0  0  0  0
   -6.3890   23.6560  -29.8680 C   0  0  0  0  0  0  0  0  0  0  0  0
   -7.5880   23.0130  -30.1980 C   0  0  0  0  0  0  0  0  0  0  0  0
   -5.4831   16.9428  -31.0056 H   0  0  0  0  0  0  0  0  0  0  0  0
   -5.8282   16.1133  -32.5611 H   0  0  0  0  0  0  0  0  0  0  0  0
   -5.0962   17.7537  -32.5611 H   0  0  0  0  0  0  0  0  0  0  0  0
   -7.7128   17.2946  -32.9391 H   0  0  0  0  0  0  0  0  0  0  0  0
   -7.6454   17.4375  -31.1118 H   0  0  0  0  0  0  0  0  0  0  0  0
   -7.0159   18.8563  -34.2048 H   0  0  0  0  0  0  0  0  0  0  0  0
   -7.5049   20.4981  -33.6821 H   0  0  0  0  0  0  0  0  0  0  0  0
   -5.0495   20.1754  -32.4184 H   0  0  0  0  0  0  0  0  0  0  0  0
   -4.8002   19.3125  -33.9740 H   0  0  0  0  0  0  0  0  0  0  0  0
   -5.3107   21.0347  -33.9740 H   0  0  0  0  0  0  0  0  0  0  0  0
   -8.9718   18.9268  -31.1588 H   0  0  0  0  0  0  0  0  0  0  0  0
   -7.8913   20.3471  -30.6918 H   0  0  0  0  0  0  0  0  0  0  0  0
   -8.7749   20.5922  -33.3804 H   0  0  0  0  0  0  0  0  0  0  0  0
  -10.1731   20.3715  -32.2469 H   0  0  0  0  0  0  0  0  0  0  0  0
   -7.0596   22.5630  -33.4744 H   0  0  0  0  0  0  0  0  0  0  0  0
   -4.9677   23.6856  -32.9013 H   0  0  0  0  0  0  0  0  0  0  0  0
   -4.6770   22.6160  -28.9650 H   0  0  0  0  0  0  0  0  0  0  0  0
   -3.2154   21.9354  -27.1488 H   0  0  0  0  0  0  0  0  0  0  0  0
    1.7619   23.7374  -28.4953 H   0  0  0  0  0  0  0  0  0  0  0  0
    3.5866   23.4419  -26.8539 H   0  0  0  0  0  0  0  0  0  0  0  0
    3.4538   24.5621  -24.6568 H   0  0  0  0  0  0  0  0  0  0  0  0
    1.5000   25.9914  -24.0795 H   0  0  0  0  0  0  0  0  0  0  0  0
   -0.4620   26.4650  -23.3130 H   0  0  0  0  0  0  0  0  0  0  0  0
   -1.7840   27.5530  -23.6460 H   0  0  0  0  0  0  0  0  0  0  0  0
   -2.0980   25.6730  -29.9560 H   0  0  0  0  0  0  0  0  0  0  0  0
   -6.2057   23.9660  -28.8286 H   0  0  0  0  0  0  0  0  0  0  0  0
   -8.3256   22.8315  -29.4024 H   0  0  0  0  0  0  0  0  0  0  0  0
  1  2  1  0
  2  3  1  0
  3  4  1  0
  4  5  1  0
  3  6  1  0
  6  7  1  0
  7  8  1  0
  8  9  1  0
  9 10  2  0
 10 11  1  0
 11 12  2  0
 12 13  1  0
 13 14  2  0
 14 15  1  0
 15 16  1  0
 16 17  2  0
 17 18  1  0
 17 19  1  0
 19 20  2  0
 20 21  1  0
 21 22  2  0
 22 23  1  0
 23 24  2  0
 24 25  1  0
 25 26  2  0
 26 27  1  0
 27 28  1  0
 27 29  2  0
 27 30  2  0
 19 31  1  0
 12 32  1  0
 32 33  2  0
 33  9  1  0
 31 14  1  0
 26 21  1  0
  1 34  1  0
  1 35  1  0
  1 36  1  0
  2 37  1  0
  2 38  1  0
  4 39  1  0
  4 40  1  0
  5 41  1  0
  5 42  1  0
  5 43  1  0
  6 44  1  0
  6 45  1  0
  7 46  1  0
  7 47  1  0
 10 48  1  0
 11 49  1  0
 15 50  1  0
 16 51  1  0
 22 52  1  0
 23 53  1  0
 24 54  1  0
 25 55  1  0
 28 56  1  0
 28 57  1  0
 31 58  1  0
 32 59  1  0
 33 60  1  0
M  END
>  <smiles>  (11) 
CCN(CC)CCOc1ccc(N=c2[nH]cc(Br)c(=Nc3ccccc3S(N)(=O)=O)[nH]2)cc1

>  <score_type>  (11) 
oracle

>  <origin>  (11) 
adgpu

>  <m_score__min__energy>  (11) 
-11.01

>  <m_primary>  (11) 
energy

$$$$
11:0
     RDKit          3D

 31 32  0  0  0  0  0  0  0  0999 V2000
   -7.2790   18.6440  -32.6570 C   0  0  0  0  0  0  0  0  0  0  0  0
   -7.2650   19.9670  -33.2730 N   0  0  0  0  0  0  0  0  0  0  0  0
   -6.7680   21.1470  -32.6130 C   0  0  0  0  0  0  0  0  0  0  0  0
   -5.4100   21.5120  -32.6730 C   0  0  0  0  0  0  0  0  0  0  0  0
   -4.9590   22.6630  -32.0190 C   0  0  0  0  0  0  0  0  0  0  0  0
   -5.8520   23.4600  -31.2950 C   0  0  0  0  0  0  0  0  0  0  0  0
   -5.2740   24.9010  -30.4640 S   0  0  0  0  0  0  0  0  0  0  0  0
   -5.7660   26.1160  -31.1980 O   0  0  0  0  0  0  0  0  0  0  0  0
   -5.7880   24.9400  -29.0510 O   0  0  0  0  0  0  0  0  0  0  0  0
   -3.5410   24.9180  -30.4360 N   0  0  0  0  0  0  0  0  0  0  0  0
   -2.7190   24.1560  -29.5400 C   0  0  0  0  0  0  0  0  0  0  0  0
   -3.0330   22.8300  -29.1860 C   0  0  0  0  0  0  0  0  0  0  0  0
   -2.2030   22.1190  -28.3160 C   0  0  0  0  0  0  0  0  0  0  0  0
   -1.0560   22.7200  -27.7910 C   0  0  0  0  0  0  0  0  0  0  0  0
   -0.7390   24.0360  -28.1350 C   0  0  0  0  0  0  0  0  0  0  0  0
   -1.5660   24.7540  -29.0060 C   0  0  0  0  0  0  0  0  0  0  0  0
   -1.2370   26.0630  -29.3410 O   0  0  0  0  0  0  0  0  0  0  0  0
   -7.2060   23.1050  -31.2370 C   0  0  0  0  0  0  0  0  0  0  0  0
   -7.6590   21.9550  -31.8900 C   0  0  0  0  0  0  0  0  0  0  0  0
   -7.2779   18.7493  -31.5621 H   0  0  0  0  0  0  0  0  0  0  0  0
   -8.1829   18.1023  -32.9723 H   0  0  0  0  0  0  0  0  0  0  0  0
   -6.3867   18.0833  -32.9723 H   0  0  0  0  0  0  0  0  0  0  0  0
   -7.6400   20.0520  -34.2450 H   0  0  0  0  0  0  0  0  0  0  0  0
   -4.7001   20.8891  -33.2369 H   0  0  0  0  0  0  0  0  0  0  0  0
   -3.8967   22.9430  -32.0742 H   0  0  0  0  0  0  0  0  0  0  0  0
   -3.9350   22.3522  -29.5959 H   0  0  0  0  0  0  0  0  0  0  0  0
   -2.4531   21.0831  -28.0434 H   0  0  0  0  0  0  0  0  0  0  0  0
   -0.4033   22.1572  -27.1074 H   0  0  0  0  0  0  0  0  0  0  0  0
    0.1632   24.5093  -27.7201 H   0  0  0  0  0  0  0  0  0  0  0  0
   -7.9143   23.7326  -30.6763 H   0  0  0  0  0  0  0  0  0  0  0  0
   -8.7230   21.6810  -31.8367 H   0  0  0  0  0  0  0  0  0  0  0  0
  1  2  1  0
  2  3  1  0
  3  4  2  0
  4  5  1  0
  5  6  2  0
  6  7  1  0
  7  8  2  0
  7  9  2  0
  7 10  1  0
 10 11  1  0
 11 12  2  0
 12 13  1  0
 13 14  2  0
 14 15  1  0
 15 16  2  0
 16 17  1  0
  6 18  1  0
 18 19  2  0
 19  3  1  0
 16 11  1  0
  1 20  1  0
  1 21  1  0
  1 22  1  0
  2 23  1  0
  4 24  1  0
  5 25  1  0
 12 26  1  0
 13 27  1  0
 14 28  1  0
 15 29  1  0
 18 30  1  0
 19 31  1  0
M  CHG  2  10  -1  17  -1
M  END
>  <UniqueID>  (12) 
11

>  <SMILES>  (12) 
CNc1ccc(S(=O)(=O)[N-]c2ccccc2[O-])cc1

>  <Energy>  (12) 
33.458918480591386

>  <Genealogy>  (12) 
CNc1ccc(S(=O)(=O)[N-]c2ccccc2[O-])cc1 (protonated)
CNc1ccc(S(=O)(=O)[N-]c2ccccc2[O-])cc1 (3D coordinates assigned)
CNc1ccc(S(=O)(=O)[N-]c2ccccc2[O-])cc1 (optimized conformer: 33.458918480591386 kcal/mol)

>  <smiles>  (12) 
CNc1ccc(S(=O)(=O)Nc2ccccc2O)cc1

>  <score_type>  (12) 
oracle

>  <origin>  (12) 
adgpu

>  <m_score__min__energy>  (12) 
-12.289999999999999

>  <m_primary>  (12) 
energy

$$$$
12:0
     RDKit          3D

 46 48  0  0  0  0  0  0  0  0999 V2000
   -5.3510   16.0080  -32.1430 C   0  0  0  0  0  0  0  0  0  0  0  0
   -5.7820   17.3440  -32.6540 C   0  0  0  0  0  0  0  0  0  0  0  0
   -6.6450   18.1260  -32.0560 O   0  0  0  0  0  0  0  0  0  0  0  0
   -6.7740   19.2010  -32.8040 C   0  0  0  0  0  0  0  0  0  0  0  0
   -7.6670   20.3280  -32.4700 C   0  0  0  0  0  0  0  0  0  0  0  0
   -7.1380   21.6170  -32.2800 C   0  0  0  0  0  0  0  0  0  0  0  0
   -7.9820   22.6860  -31.9630 C   0  0  0  0  0  0  0  0  0  0  0  0
   -9.3570   22.4800  -31.8340 C   0  0  0  0  0  0  0  0  0  0  0  0
   -9.8930   21.2030  -32.0220 C   0  0  0  0  0  0  0  0  0  0  0  0
   -9.0530   20.1300  -32.3380 C   0  0  0  0  0  0  0  0  0  0  0  0
   -6.0010   19.1580  -33.9140 N   0  0  0  0  0  0  0  0  0  0  0  0
   -5.3640   17.9760  -33.8050 C   0  0  0  0  0  0  0  0  0  0  0  0
   -4.4260   17.4390  -34.8420 C   0  0  0  0  0  0  0  0  0  0  0  0
   -3.0020   17.9390  -34.5870 C   0  0  0  0  0  0  0  0  0  0  0  0
   -2.9750   19.3650  -34.5180 O   0  0  0  0  0  0  0  0  0  0  0  0
   -2.9560   20.1250  -33.3370 C   0  0  0  0  0  0  0  0  0  0  0  0
   -3.9450   21.0800  -33.0290 C   0  0  0  0  0  0  0  0  0  0  0  0
   -3.8740   21.8090  -31.8380 C   0  0  0  0  0  0  0  0  0  0  0  0
   -2.8200   21.5970  -30.9380 C   0  0  0  0  0  0  0  0  0  0  0  0
   -2.7300   22.4080  -29.6700 C   0  0  0  0  0  0  0  0  0  0  0  0
   -3.8490   23.4540  -29.5830 C   0  0  0  0  0  0  0  0  0  0  0  0
   -3.3480   24.8260  -29.9110 C   0  0  0  0  0  0  0  0  0  0  0  0
   -2.3360   25.2890  -29.3240 O   0  0  0  0  0  0  0  0  0  0  0  0
   -4.0250   25.6100  -30.8370 O   0  0  0  0  0  0  0  0  0  0  0  0
   -1.8290   20.6550  -31.2510 C   0  0  0  0  0  0  0  0  0  0  0  0
   -1.8990   19.9260  -32.4410 C   0  0  0  0  0  0  0  0  0  0  0  0
   -5.3541   16.0177  -31.0430 H   0  0  0  0  0  0  0  0  0  0  0  0
   -6.0455   15.2355  -32.5048 H   0  0  0  0  0  0  0  0  0  0  0  0
   -4.3360   15.7870  -32.5048 H   0  0  0  0  0  0  0  0  0  0  0  0
   -6.0556   21.7852  -32.3812 H   0  0  0  0  0  0  0  0  0  0  0  0
   -7.5616   23.6917  -31.8149 H   0  0  0  0  0  0  0  0  0  0  0  0
  -10.0184   23.3228  -31.5844 H   0  0  0  0  0  0  0  0  0  0  0  0
  -10.9764   21.0416  -31.9214 H   0  0  0  0  0  0  0  0  0  0  0  0
   -9.4787   19.1263  -32.4840 H   0  0  0  0  0  0  0  0  0  0  0  0
   -4.4358   16.3397  -34.8045 H   0  0  0  0  0  0  0  0  0  0  0  0
   -4.7534   17.7875  -35.8326 H   0  0  0  0  0  0  0  0  0  0  0  0
   -2.6381   17.5240  -33.6355 H   0  0  0  0  0  0  0  0  0  0  0  0
   -2.3574   17.6117  -35.4161 H   0  0  0  0  0  0  0  0  0  0  0  0
   -4.7763   21.2528  -33.7283 H   0  0  0  0  0  0  0  0  0  0  0  0
   -4.6498   22.5534  -31.6057 H   0  0  0  0  0  0  0  0  0  0  0  0
   -2.8082   21.7301  -28.8073 H   0  0  0  0  0  0  0  0  0  0  0  0
   -1.7658   22.9375  -29.6701 H   0  0  0  0  0  0  0  0  0  0  0  0
   -4.6447   23.1853  -30.2934 H   0  0  0  0  0  0  0  0  0  0  0  0
   -4.2303   23.4647  -28.5513 H   0  0  0  0  0  0  0  0  0  0  0  0
   -0.9925   20.4893  -30.5562 H   0  0  0  0  0  0  0  0  0  0  0  0
   -1.1167   19.1893  -32.6758 H   0  0  0  0  0  0  0  0  0  0  0  0
  1  2  1  0
  2  3  1  0
  3  4  1  0
  4  5  1  0
  5  6  2  0
  6  7  1  0
  7  8  2  0
  8  9  1  0
  9 10  2  0
  4 11  2  0
 11 12  1  0
 12 13  1  0
 13 14  1  0
 14 15  1  0
 15 16  1  0
 16 17  2  0
 17 18  1  0
 18 19  2  0
 19 20  1  0
 20 21  1  0
 21 22  1  0
 22 23  2  0
 22 24  1  0
 19 25  1  0
 25 26  2  0
 12  2  2  0
 26 16  1  0
 10  5  1  0
  1 27  1  0
  1 28  1  0
  1 29  1  0
  6 30  1  0
  7 31  1  0
  8 32  1  0
  9 33  1  0
 10 34  1  0
 13 35  1  0
 13 36  1  0
 14 37  1  0
 14 38  1  0
 17 39  1  0
 18 40  1  0
 20 41  1  0
 20 42  1  0
 21 43  1  0
 21 44  1  0
 25 45  1  0
 26 46  1  0
M  CHG  1  24  -1
M  END
>  <UniqueID>  (13) 
12

>  <SMILES>  (13) 
Cc1oc(-c2ccccc2)nc1CCOc1ccc(CCC(=O)[O-])cc1

>  <Energy>  (13) 
70.54922899816017

>  <Genealogy>  (13) 
Cc1oc(-c2ccccc2)nc1CCOc1ccc(CCC(=O)[O-])cc1 (protonated)
Cc1oc(-c2ccccc2)nc1CCOc1ccc(CCC(=O)[O-])cc1 (3D coordinates assigned)
Cc1oc(-c2ccccc2)nc1CCOc1ccc(CCC(=O)[O-])cc1 (optimized conformer: 70.54922899816017 kcal/mol)

>  <smiles>  (13) 
Cc1oc(-c2ccccc2)nc1CCOc1ccc(CCC(=O)O)cc1

>  <score_type>  (13) 
oracle

>  <origin>  (13) 
adgpu

>  <m_score__min__energy>  (13) 
-10.960000000000001

>  <m_primary>  (13) 
energy

$$$$
13:0
     RDKit          3D

 53 56  0  0  0  0  0  0  0  0999 V2000
   -6.8340   25.7160  -29.9740 O   0  0  0  0  0  0  0  0  0  0  0  0
   -5.7200   24.7380  -30.2220 S   0  0  0  0  0  0  0  0  0  0  0  0
   -4.7300   25.3560  -31.1700 O   0  0  0  0  0  0  0  0  0  0  0  0
   -4.9270   24.3720  -28.7230 N   0  0  0  0  0  0  0  0  0  0  0  0
   -3.7450   23.5530  -28.6300 C   0  0  0  0  0  0  0  0  0  0  0  0
   -3.7910   22.2660  -28.0630 C   0  0  0  0  0  0  0  0  0  0  0  0
   -2.6380   21.4710  -27.9790 C   0  0  0  0  0  0  0  0  0  0  0  0
   -1.4070   21.9790  -28.4530 C   0  0  0  0  0  0  0  0  0  0  0  0
   -1.3670   23.2520  -29.0380 C   0  0  0  0  0  0  0  0  0  0  0  0
   -2.5210   24.0350  -29.1240 C   0  0  0  0  0  0  0  0  0  0  0  0
   -2.4390   25.2990  -29.6980 O   0  0  0  0  0  0  0  0  0  0  0  0
   -0.1540   21.1350  -28.4630 C   0  0  0  0  0  0  0  0  0  0  0  0
   -0.2250   19.9540  -27.4900 C   0  0  0  0  0  0  0  0  0  0  0  0
   -1.5520   19.2110  -27.6430 C   0  0  0  0  0  0  0  0  0  0  0  0
   -2.7260   20.1280  -27.2910 C   0  0  0  0  0  0  0  0  0  0  0  0
   -6.4030   23.2630  -30.8960 C   0  0  0  0  0  0  0  0  0  0  0  0
   -5.6360   22.0920  -30.9850 C   0  0  0  0  0  0  0  0  0  0  0  0
   -6.2160   20.9070  -31.4420 C   0  0  0  0  0  0  0  0  0  0  0  0
   -7.5690   20.8790  -31.8130 C   0  0  0  0  0  0  0  0  0  0  0  0
   -8.3250   19.3630  -32.3080 S   0  0  0  0  0  0  0  0  0  0  0  0
   -9.5720   19.6620  -33.0960 O   0  0  0  0  0  0  0  0  0  0  0  0
   -8.7210   18.5820  -31.0860 O   0  0  0  0  0  0  0  0  0  0  0  0
   -7.2390   18.4000  -33.2840 N   0  0  0  0  0  0  0  0  0  0  0  0
   -6.4040   19.2700  -34.1340 C   0  0  0  0  0  0  0  0  0  0  0  0
   -5.1600   18.5120  -34.6290 C   0  0  0  0  0  0  0  0  0  0  0  0
   -4.3300   17.9980  -33.5930 O   0  0  0  0  0  0  0  0  0  0  0  0
   -4.9770   17.9010  -32.3340 C   0  0  0  0  0  0  0  0  0  0  0  0
   -6.4460   17.4640  -32.4560 C   0  0  0  0  0  0  0  0  0  0  0  0
   -8.3260   22.0580  -31.7510 C   0  0  0  0  0  0  0  0  0  0  0  0
   -7.7460   23.2420  -31.2900 C   0  0  0  0  0  0  0  0  0  0  0  0
   -5.4180   24.6690  -27.8500 H   0  0  0  0  0  0  0  0  0  0  0  0
   -4.7459   21.8771  -27.6796 H   0  0  0  0  0  0  0  0  0  0  0  0
   -0.4165   23.6390  -29.4339 H   0  0  0  0  0  0  0  0  0  0  0  0
   -0.0021   20.7438  -29.4798 H   0  0  0  0  0  0  0  0  0  0  0  0
    0.6800   21.7772  -28.1435 H   0  0  0  0  0  0  0  0  0  0  0  0
    0.6035   19.2617  -27.7005 H   0  0  0  0  0  0  0  0  0  0  0  0
   -0.1488   20.3364  -26.4614 H   0  0  0  0  0  0  0  0  0  0  0  0
   -1.6581   18.8710  -28.6837 H   0  0  0  0  0  0  0  0  0  0  0  0
   -1.5572   18.3495  -26.9591 H   0  0  0  0  0  0  0  0  0  0  0  0
   -3.6615   19.6361  -27.5958 H   0  0  0  0  0  0  0  0  0  0  0  0
   -2.6975   20.3059  -26.2059 H   0  0  0  0  0  0  0  0  0  0  0  0
   -4.5753   22.1073  -30.6941 H   0  0  0  0  0  0  0  0  0  0  0  0
   -5.6099   19.9917  -31.5115 H   0  0  0  0  0  0  0  0  0  0  0  0
   -6.9939   19.6017  -35.0012 H   0  0  0  0  0  0  0  0  0  0  0  0
   -6.0779   20.1372  -33.5410 H   0  0  0  0  0  0  0  0  0  0  0  0
   -5.4963   17.6686  -35.2499 H   0  0  0  0  0  0  0  0  0  0  0  0
   -4.5511   19.2401  -35.1850 H   0  0  0  0  0  0  0  0  0  0  0  0
   -4.4404   17.1644  -31.7180 H   0  0  0  0  0  0  0  0  0  0  0  0
   -4.9639   18.9005  -31.8749 H   0  0  0  0  0  0  0  0  0  0  0  0
   -6.4819   16.4656  -32.9164 H   0  0  0  0  0  0  0  0  0  0  0  0
   -6.8811   17.4538  -31.4458 H   0  0  0  0  0  0  0  0  0  0  0  0
   -9.3798   22.0502  -32.0664 H   0  0  0  0  0  0  0  0  0  0  0  0
   -8.3470   24.1617  -31.2363 H   0  0  0  0  0  0  0  0  0  0  0  0
  1  2  2  0
  2  3  2  0
  2  4  1  0
  4  5  1  0
  5  6  2  0
  6  7  1  0
  7  8  2  0
  8  9  1  0
  9 10  2  0
 10 11  1  0
  8 12  1  0
 12 13  1  0
 13 14  1  0
 14 15  1  0
  2 16  1  0
 16 17  2  0
 17 18  1  0
 18 19  2  0
 19 20  1  0
 20 21  2  0
 20 22  2  0
 20 23  1  0
 23 24  1  0
 24 25  1  0
 25 26  1  0
 26 27  1  0
 27 28  1  0
 19 29  1  0
 29 30  2  0
 10  5  1  0
 30 16  1  0
 15  7  1  0
 28 23  1  0
  4 31  1  0
  6 32  1  0
  9 33  1  0
 12 34  1  0
 12 35  1  0
 13 36  1  0
 13 37  1  0
 14 38  1  0
 14 39  1  0
 15 40  1  0
 15 41  1  0
 17 42  1  0
 18 43  1  0
 24 44  1  0
 24 45  1  0
 25 46  1  0
 25 47  1  0
 27 48  1  0
 27 49  1  0
 28 50  1  0
 28 51  1  0
 29 52  1  0
 30 53  1  0
M  CHG  1  11  -1
M  END
>  <UniqueID>  (14) 
13

>  <SMILES>  (14) 
O=S(=O)(Nc1cc2c(cc1[O-])CCCC2)c1ccc(S(=O)(=O)N2CCOCC2)cc1

>  <Energy>  (14) 
65.99688379263824

>  <Genealogy>  (14) 
O=S(=O)(Nc1cc2c(cc1[O-])CCCC2)c1ccc(S(=O)(=O)N2CCOCC2)cc1 (protonated)
O=S(=O)(Nc1cc2c(cc1[O-])CCCC2)c1ccc(S(=O)(=O)N2CCOCC2)cc1 (3D coordinates assigned)
O=S(=O)(Nc1cc2c(cc1[O-])CCCC2)c1ccc(S(=O)(=O)N2CCOCC2)cc1 (nonaromatic ring conformer: 65.99688379263824 kcal/mol)

>  <smiles>  (14) 
O=S(=O)(Nc1cc2c(cc1O)CCCC2)c1ccc(S(=O)(=O)N2CCOCC2)cc1

>  <score_type>  (14) 
oracle

>  <origin>  (14) 
adgpu

>  <m_score__min__energy>  (14) 
-14.970000000000001

>  <m_primary>  (14) 
energy

$$$$
14:0
     RDKit          3D

 57 60  0  0  0  0  0  0  0  0999 V2000
   -1.6452   28.4645  -25.0508 H   0  0  0  0  0  0  0  0  0  0  0  0
   -1.2280   27.4500  -25.1330 C   0  0  0  0  0  0  0  0  0  0  0  0
   -1.1360   26.6370  -23.9980 C   0  0  0  0  0  0  0  0  0  0  0  0
   -1.4770   27.0150  -23.0229 H   0  0  0  0  0  0  0  0  0  0  0  0
   -0.6110   25.3440  -24.1010 C   0  0  0  0  0  0  0  0  0  0  0  0
   -0.5436   24.7074  -23.2065 H   0  0  0  0  0  0  0  0  0  0  0  0
   -0.1700   24.8560  -25.3410 C   0  0  0  0  0  0  0  0  0  0  0  0
    0.4490   23.4860  -25.4450 C   0  0  0  0  0  0  0  0  0  0  0  0
    1.2256   23.3829  -24.6729 H   0  0  0  0  0  0  0  0  0  0  0  0
    0.8852   23.3745  -26.4487 H   0  0  0  0  0  0  0  0  0  0  0  0
   -0.6050   22.3880  -25.2460 C   0  0  0  0  0  0  0  0  0  0  0  0
   -1.4696   22.8093  -24.7122 H   0  0  0  0  0  0  0  0  0  0  0  0
   -0.1589   21.5698  -24.6616 H   0  0  0  0  0  0  0  0  0  0  0  0
   -1.0470   21.8600  -26.5350 N   0  0  0  0  0  0  0  0  0  0  0  0
   -2.0490   21.5730  -26.6390 H   0  0  0  0  0  0  0  0  0  0  0  0
   -0.1820   21.7850  -27.6740 C   0  0  0  0  0  0  0  0  0  0  0  0
    1.0200   22.1600  -27.5910 O   0  0  0  0  0  0  0  0  0  0  0  0
   -0.7230   21.3970  -28.9810 C   0  0  0  0  0  0  0  0  0  0  0  0
   -0.0430   20.2840  -29.6060 C   0  0  0  0  0  0  0  0  0  0  0  0
    0.5040   19.3940  -30.1050 N   0  0  0  0  0  0  0  0  0  0  0  0
   -1.7940   21.9710  -29.5950 C   0  0  0  0  0  0  0  0  0  0  0  0
   -2.4020   21.3970  -31.0580 S   0  0  0  0  0  0  0  0  0  0  0  0
   -3.6690   22.4890  -31.1840 C   0  0  0  0  0  0  0  0  0  0  0  0
   -4.5650   22.4890  -32.1990 C   0  0  0  0  0  0  0  0  0  0  0  0
   -4.5720   21.1770  -33.4150 S   0  0  0  0  0  0  0  0  0  0  0  0
   -5.9460   20.4060  -32.5550 C   0  0  0  0  0  0  0  0  0  0  0  0
   -5.9080   19.0270  -32.3130 C   0  0  0  0  0  0  0  0  0  0  0  0
   -5.0346   18.4379  -32.6294 H   0  0  0  0  0  0  0  0  0  0  0  0
   -6.9750   18.4000  -31.6720 C   0  0  0  0  0  0  0  0  0  0  0  0
   -6.9470   17.0620  -31.4610 F   0  0  0  0  0  0  0  0  0  0  0  0
   -8.0730   19.1460  -31.2430 C   0  0  0  0  0  0  0  0  0  0  0  0
   -8.9140   18.6461  -30.7402 H   0  0  0  0  0  0  0  0  0  0  0  0
   -8.1060   20.5270  -31.4510 C   0  0  0  0  0  0  0  0  0  0  0  0
   -8.9701   21.1108  -31.1011 H   0  0  0  0  0  0  0  0  0  0  0  0
   -7.0420   21.1780  -32.1050 C   0  0  0  0  0  0  0  0  0  0  0  0
   -7.0220   22.6260  -32.2260 N   0  0  0  0  0  0  0  0  0  0  0  0
   -8.2820   23.3700  -32.3340 C   0  0  0  0  0  0  0  0  0  0  0  0
   -8.6626   23.5947  -31.3267 H   0  0  0  0  0  0  0  0  0  0  0  0
   -8.1073   24.3099  -32.8781 H   0  0  0  0  0  0  0  0  0  0  0  0
   -9.0207   22.7631  -32.8781 H   0  0  0  0  0  0  0  0  0  0  0  0
   -5.7640   23.3910  -32.3410 C   0  0  0  0  0  0  0  0  0  0  0  0
   -5.7345   24.1548  -31.5500 H   0  0  0  0  0  0  0  0  0  0  0  0
   -5.7311   23.8617  -33.3347 H   0  0  0  0  0  0  0  0  0  0  0  0
   -3.5870   23.3110  -30.0460 C   0  0  0  0  0  0  0  0  0  0  0  0
   -4.4120   24.2320  -29.8080 O   0  0  0  0  0  0  0  0  0  0  0  0
   -2.5520   23.0410  -29.1790 N   0  0  0  0  0  0  0  0  0  0  0  0
   -2.3910   23.8300  -27.9430 C   0  0  0  0  0  0  0  0  0  0  0  0
   -2.1349   24.8668  -28.2064 H   0  0  0  0  0  0  0  0  0  0  0  0
   -1.5887   23.3826  -27.3379 H   0  0  0  0  0  0  0  0  0  0  0  0
   -3.6830   23.8230  -27.1310 C   0  0  0  0  0  0  0  0  0  0  0  0
   -3.4416   23.8243  -26.0578 H   0  0  0  0  0  0  0  0  0  0  0  0
   -4.2742   24.7180  -27.3749 H   0  0  0  0  0  0  0  0  0  0  0  0
   -4.2645   22.9217  -27.3749 H   0  0  0  0  0  0  0  0  0  0  0  0
   -0.2550   25.6830  -26.4740 C   0  0  0  0  0  0  0  0  0  0  0  0
    0.1009   25.3141  -27.4473 H   0  0  0  0  0  0  0  0  0  0  0  0
   -0.7890   26.9720  -26.3730 C   0  0  0  0  0  0  0  0  0  0  0  0
   -0.8638   27.6089  -27.2667 H   0  0  0  0  0  0  0  0  0  0  0  0
  1  2  1  0
  2  3  2  0
  3  4  1  0
  3  5  1  0
  5  6  1  0
  5  7  2  0
  7  8  1  0
  8  9  1  0
  8 10  1  0
  8 11  1  0
 11 12  1  0
 11 13  1  0
 11 14  1  0
 14 15  1  0
 14 16  1  0
 16 17  2  0
 16 18  1  0
 18 19  1  0
 19 20  3  0
 18 21  2  3
 21 22  1  0
 22 23  1  0
 23 24  2  0
 24 25  1  0
 25 26  1  0
 26 27  2  0
 27 28  1  0
 27 29  1  0
 29 30  1  0
 29 31  2  0
 31 32  1  0
 31 33  1  0
 33 34  1  0
 33 35  2  0
 35 36  1  0
 36 37  1  0
 37 38  1  0
 37 39  1  0
 37 40  1  0
 36 41  1  0
 41 42  1  0
 41 43  1  0
 23 44  1  0
 44 45  2  0
 44 46  1  0
 46 47  1  0
 47 48  1  0
 47 49  1  0
 47 50  1  0
 50 51  1  0
 50 52  1  0
 50 53  1  0
  7 54  1  0
 54 55  1  0
 54 56  2  0
 56 57  1  0
 56  2  1  0
 46 21  1  0
 41 24  1  0
 35 26  1  0
M  END
>  <UniqueID>  (15) 
14

>  <SMILES>  (15) 
CCn1c(=C(C#N)C(=O)NCCc2ccccc2)s/c(=C2/CN(C)c3ccc(F)cc3S2)c1=O

>  <Energy>  (15) 
116.34455725107108

>  <Genealogy>  (15) 
CCn1c(=C(C#N)C(=O)NCCc2ccccc2)s/c(=C2/CN(C)c3ccc(F)cc3S2)c1=O (cis-trans isomerization)
CCn1c(=C(C#N)C(=O)NCCc2ccccc2)s/c(=C2/CN(C)c3ccc(F)cc3S2)c1=O (3D coordinates assigned)
CCn1c(=C(C#N)C(=O)NCCc2ccccc2)s/c(=C2/CN(C)c3ccc(F)cc3S2)c1=O (nonaromatic ring conformer: 116.34455725107108 kcal/mol)

>  <smiles>  (15) 
CCn1c(=C(C#N)C(=O)NCCc2ccccc2)sc(=C2CN(C)c3ccc(F)cc3S2)c1=O

>  <score_type>  (15) 
oracle

>  <origin>  (15) 
adgpu

>  <m_score__min__energy>  (15) 
-9.1400000000000006

>  <m_primary>  (15) 
energy

$$$$
15:0
     RDKit          3D

 55 58  0  0  0  0  0  0  0  0999 V2000
   -5.5000   15.0150  -33.6960 C   0  0  0  0  0  0  0  0  0  0  0  0
   -6.8640   15.4740  -34.2060 C   0  0  0  0  0  0  0  0  0  0  0  0
   -7.4290   16.4550  -33.3350 O   0  0  0  0  0  0  0  0  0  0  0  0
   -6.9360   17.7570  -33.1400 C   0  0  0  0  0  0  0  0  0  0  0  0
   -7.2790   18.4210  -31.9570 C   0  0  0  0  0  0  0  0  0  0  0  0
   -6.8140   19.7150  -31.7060 C   0  0  0  0  0  0  0  0  0  0  0  0
   -6.0130   20.3760  -32.6520 C   0  0  0  0  0  0  0  0  0  0  0  0
   -5.5250   21.7050  -32.4230 N   0  0  0  0  0  0  0  0  0  0  0  0
   -6.2810   22.8280  -31.9480 C   0  0  0  0  0  0  0  0  0  0  0  0
   -7.1570   23.3280  -32.7010 O   0  0  0  0  0  0  0  0  0  0  0  0
   -6.1250   23.3690  -30.5530 C   0  0  0  0  0  0  0  0  0  0  0  0
   -5.0300   24.8300  -30.5370 S   0  0  0  0  0  0  0  0  0  0  0  0
   -3.4910   23.9010  -30.5250 C   0  0  0  0  0  0  0  0  0  0  0  0
   -3.3590   22.7770  -31.2800 N   0  0  0  0  0  0  0  0  0  0  0  0
   -2.2180   22.0170  -31.2090 C   0  0  0  0  0  0  0  0  0  0  0  0
   -2.0630   20.8190  -32.0560 C   0  0  0  0  0  0  0  0  0  0  0  0
   -2.5670   20.8070  -33.3630 C   0  0  0  0  0  0  0  0  0  0  0  0
   -2.4680   19.6550  -34.1470 C   0  0  0  0  0  0  0  0  0  0  0  0
   -1.8940   18.4880  -33.6290 C   0  0  0  0  0  0  0  0  0  0  0  0
   -1.8630   17.3400  -34.4280 O   0  0  0  0  0  0  0  0  0  0  0  0
   -3.0330   16.8320  -35.0660 C   0  0  0  0  0  0  0  0  0  0  0  0
   -1.3570   18.4930  -32.3270 C   0  0  0  0  0  0  0  0  0  0  0  0
   -0.7440   17.3250  -31.8420 O   0  0  0  0  0  0  0  0  0  0  0  0
    0.4620   16.7780  -32.3630 C   0  0  0  0  0  0  0  0  0  0  0  0
   -1.4400   19.6660  -31.5470 C   0  0  0  0  0  0  0  0  0  0  0  0
   -1.2010   22.3840  -30.3710 N   0  0  0  0  0  0  0  0  0  0  0  0
   -1.3550   23.5090  -29.6360 C   0  0  0  0  0  0  0  0  0  0  0  0
   -0.4590   24.0830  -28.7680 C   0  0  0  0  0  0  0  0  0  0  0  0
   -1.1480   25.2220  -28.3570 C   0  0  0  0  0  0  0  0  0  0  0  0
   -0.6950   26.0860  -27.5650 O   0  0  0  0  0  0  0  0  0  0  0  0
   -2.3680   25.3120  -28.9360 N   0  0  0  0  0  0  0  0  0  0  0  0
   -2.4620   24.2520  -29.7200 N   0  0  0  0  0  0  0  0  0  0  0  0
   -5.6470   19.7070  -33.8250 C   0  0  0  0  0  0  0  0  0  0  0  0
   -6.1070   18.4090  -34.0740 C   0  0  0  0  0  0  0  0  0  0  0  0
   -5.5008   15.0153  -32.5960 H   0  0  0  0  0  0  0  0  0  0  0  0
   -5.2947   13.9983  -34.0623 H   0  0  0  0  0  0  0  0  0  0  0  0
   -4.7218   15.7008  -34.0623 H   0  0  0  0  0  0  0  0  0  0  0  0
   -6.7459   15.9085  -35.2096 H   0  0  0  0  0  0  0  0  0  0  0  0
   -7.5373   14.6049  -34.2409 H   0  0  0  0  0  0  0  0  0  0  0  0
   -7.9208   17.9198  -31.2175 H   0  0  0  0  0  0  0  0  0  0  0  0
   -7.0764   20.2180  -30.7636 H   0  0  0  0  0  0  0  0  0  0  0  0
   -7.1137   23.6562  -30.1658 H   0  0  0  0  0  0  0  0  0  0  0  0
   -5.6763   22.5876  -29.9220 H   0  0  0  0  0  0  0  0  0  0  0  0
   -3.0432   21.7094  -33.7741 H   0  0  0  0  0  0  0  0  0  0  0  0
   -2.8444   19.6650  -35.1805 H   0  0  0  0  0  0  0  0  0  0  0  0
   -3.7594   16.5166  -34.3025 H   0  0  0  0  0  0  0  0  0  0  0  0
   -3.4787   17.6176  -35.6938 H   0  0  0  0  0  0  0  0  0  0  0  0
   -2.7633   15.9699  -35.6938 H   0  0  0  0  0  0  0  0  0  0  0  0
    1.1185   16.4802  -31.5322 H   0  0  0  0  0  0  0  0  0  0  0  0
    0.2289   15.8975  -32.9798 H   0  0  0  0  0  0  0  0  0  0  0  0
    0.9708   17.5334  -32.9798 H   0  0  0  0  0  0  0  0  0  0  0  0
   -1.0140   19.6784  -30.5329 H   0  0  0  0  0  0  0  0  0  0  0  0
    0.5420   23.7343  -28.4738 H   0  0  0  0  0  0  0  0  0  0  0  0
   -4.9933   20.2046  -34.5564 H   0  0  0  0  0  0  0  0  0  0  0  0
   -5.8199   17.8954  -35.0034 H   0  0  0  0  0  0  0  0  0  0  0  0
  1  2  1  0
  2  3  1  0
  3  4  1  0
  4  5  2  0
  5  6  1  0
  6  7  2  0
  7  8  1  0
  8  9  1  0
  9 10  2  0
  9 11  1  0
 11 12  1  0
 12 13  1  0
 13 14  2  0
 14 15  1  0
 15 16  1  0
 16 17  2  0
 17 18  1  0
 18 19  2  0
 19 20  1  0
 20 21  1  0
 19 22  1  0
 22 23  1  0
 23 24  1  0
 22 25  2  0
 15 26  2  0
 26 27  1  0
 27 28  2  0
 28 29  1  0
 29 30  2  0
 29 31  1  0
 31 32  1  0
  7 33  1  0
 33 34  2  0
 34  4  1  0
 32 13  1  0
 25 16  1  0
 32 27  1  0
  1 35  1  0
  1 36  1  0
  1 37  1  0
  2 38  1  0
  2 39  1  0
  5 40  1  0
  6 41  1  0
 11 42  1  0
 11 43  1  0
 17 44  1  0
 18 45  1  0
 21 46  1  0
 21 47  1  0
 21 48  1  0
 24 49  1  0
 24 50  1  0
 24 51  1  0
 25 52  1  0
 28 53  1  0
 33 54  1  0
 34 55  1  0
M  CHG  2   8  -1  31  -1
M  END
>  <UniqueID>  (16) 
15

>  <SMILES>  (16) 
CCOc1ccc([N-]C(=O)CSc2nc(-c3ccc(OC)c(OC)c3)nc3cc(=O)[n-]n23)cc1

>  <Energy>  (16) 
106.05752241151963

>  <Genealogy>  (16) 
CCOc1ccc([N-]C(=O)CSc2nc(-c3ccc(OC)c(OC)c3)nc3cc(=O)[n-]n23)cc1 (protonated)
CCOc1ccc([N-]C(=O)CSc2nc(-c3ccc(OC)c(OC)c3)nc3cc(=O)[n-]n23)cc1 (3D coordinates assigned)
CCOc1ccc([N-]C(=O)CSc2nc(-c3ccc(OC)c(OC)c3)nc3cc(=O)[n-]n23)cc1 (optimized conformer: 106.05752241151963 kcal/mol)

>  <smiles>  (16) 
CCOc1ccc(NC(=O)CSc2nc(-c3ccc(OC)c(OC)c3)nc3cc(=O)[nH]n23)cc1

>  <score_type>  (16) 
oracle

>  <origin>  (16) 
adgpu

>  <m_score__min__energy>  (16) 
-10.140000000000001

>  <m_primary>  (16) 
energy

$$$$
16:0
     RDKit          3D

 38 40  0  0  0  0  0  0  0  0999 V2000
   -0.4960   25.9510  -24.1360 C   0  0  0  0  0  0  0  0  0  0  0  0
   -0.1810   25.1320  -25.2570 O   0  0  0  0  0  0  0  0  0  0  0  0
   -0.9620   25.0470  -26.4190 C   0  0  0  0  0  0  0  0  0  0  0  0
   -2.2970   24.6030  -26.4030 C   0  0  0  0  0  0  0  0  0  0  0  0
   -3.0350   24.5380  -27.5900 C   0  0  0  0  0  0  0  0  0  0  0  0
   -2.4550   24.9240  -28.8110 C   0  0  0  0  0  0  0  0  0  0  0  0
   -3.1540   24.8640  -30.0640 N   0  0  0  0  0  0  0  0  0  0  0  0
   -4.8630   24.7080  -30.3460 S   0  0  0  0  0  0  0  0  0  0  0  0
   -5.6610   24.7810  -29.0750 O   0  0  0  0  0  0  0  0  0  0  0  0
   -5.2900   25.8550  -31.2170 O   0  0  0  0  0  0  0  0  0  0  0  0
   -5.1940   23.1700  -31.1680 C   0  0  0  0  0  0  0  0  0  0  0  0
   -6.5260   22.8400  -31.4690 C   0  0  0  0  0  0  0  0  0  0  0  0
   -6.8400   21.6410  -32.1130 C   0  0  0  0  0  0  0  0  0  0  0  0
   -5.8110   20.7710  -32.5060 C   0  0  0  0  0  0  0  0  0  0  0  0
   -4.4850   21.0740  -32.1890 C   0  0  0  0  0  0  0  0  0  0  0  0
   -4.1590   22.2680  -31.5210 C   0  0  0  0  0  0  0  0  0  0  0  0
   -2.7140   22.5590  -31.2210 C   0  0  0  0  0  0  0  0  0  0  0  0
   -6.1750   19.3080  -33.4900 S   0  0  0  0  0  0  0  0  0  0  0  0
   -7.6100   18.8170  -32.4880 C   0  0  0  0  0  0  0  0  0  0  0  0
   -8.6210   19.9220  -32.5150 C   0  0  0  0  0  0  0  0  0  0  0  0
   -9.8390   19.6600  -32.6930 O   0  0  0  0  0  0  0  0  0  0  0  0
   -8.2130   21.2740  -32.2840 N   0  0  0  0  0  0  0  0  0  0  0  0
   -1.1190   25.3460  -28.8230 C   0  0  0  0  0  0  0  0  0  0  0  0
   -0.3810   25.4130  -27.6380 C   0  0  0  0  0  0  0  0  0  0  0  0
   -0.2840   25.3997  -23.2080 H   0  0  0  0  0  0  0  0  0  0  0  0
    0.1146   26.8655  -24.1669 H   0  0  0  0  0  0  0  0  0  0  0  0
   -1.5620   26.2206  -24.1669 H   0  0  0  0  0  0  0  0  0  0  0  0
   -2.7631   24.3053  -25.4521 H   0  0  0  0  0  0  0  0  0  0  0  0
   -4.0758   24.1826  -27.5676 H   0  0  0  0  0  0  0  0  0  0  0  0
   -7.3327   23.5354  -31.1937 H   0  0  0  0  0  0  0  0  0  0  0  0
   -3.6859   20.3703  -32.4651 H   0  0  0  0  0  0  0  0  0  0  0  0
   -2.5645   22.5891  -30.1316 H   0  0  0  0  0  0  0  0  0  0  0  0
   -2.0831   21.7699  -31.6560 H   0  0  0  0  0  0  0  0  0  0  0  0
   -2.4377   23.5308  -31.6560 H   0  0  0  0  0  0  0  0  0  0  0  0
   -8.0539   17.9001  -32.9030 H   0  0  0  0  0  0  0  0  0  0  0  0
   -7.2936   18.6263  -31.4519 H   0  0  0  0  0  0  0  0  0  0  0  0
   -0.6459   25.6276  -29.7753 H   0  0  0  0  0  0  0  0  0  0  0  0
    0.6639   25.7559  -27.6639 H   0  0  0  0  0  0  0  0  0  0  0  0
  1  2  1  0
  2  3  1  0
  3  4  2  0
  4  5  1  0
  5  6  2  0
  6  7  1  0
  7  8  1  0
  8  9  2  0
  8 10  2  0
  8 11  1  0
 11 12  2  0
 12 13  1  0
 13 14  2  0
 14 15  1  0
 15 16  2  0
 16 17  1  0
 14 18  1  0
 18 19  1  0
 19 20  1  0
 20 21  2  0
 20 22  1  0
  6 23  1  0
 23 24  2  0
 24  3  1  0
 16 11  1  0
 22 13  1  0
  1 25  1  0
  1 26  1  0
  1 27  1  0
  4 28  1  0
  5 29  1  0
 12 30  1  0
 15 31  1  0
 17 32  1  0
 17 33  1  0
 17 34  1  0
 19 35  1  0
 19 36  1  0
 23 37  1  0
 24 38  1  0
M  CHG  2   7  -1  22  -1
M  END
>  <UniqueID>  (17) 
16

>  <SMILES>  (17) 
COc1ccc([N-]S(=O)(=O)c2cc3c(cc2C)SCC(=O)[N-]3)cc1

>  <Energy>  (17) 
52.58299148465909

>  <Genealogy>  (17) 
COc1ccc([N-]S(=O)(=O)c2cc3c(cc2C)SCC(=O)[N-]3)cc1 (protonated)
COc1ccc([N-]S(=O)(=O)c2cc3c(cc2C)SCC(=O)[N-]3)cc1 (3D coordinates assigned)
COc1ccc([N-]S(=O)(=O)c2cc3c(cc2C)SCC(=O)[N-]3)cc1 (nonaromatic ring conformer: 52.58299148465909 kcal/mol)

>  <smiles>  (17) 
COc1ccc(NS(=O)(=O)c2cc3c(cc2C)SCC(=O)N3)cc1

>  <score_type>  (17) 
oracle

>  <origin>  (17) 
adgpu

>  <m_score__min__energy>  (17) 
-9.6400000000000006

>  <m_primary>  (17) 
energy

$$$$
17:0
     RDKit          3D

 62 65  0  0  0  0  0  0  0  0999 V2000
   -2.0750   16.8210  -33.1550 C   0  0  0  0  0  0  0  0  0  0  0  0
   -2.3260   18.2220  -33.1790 O   0  0  0  0  0  0  0  0  0  0  0  0
   -1.3950   19.1940  -33.5820 C   0  0  0  0  0  0  0  0  0  0  0  0
   -0.6600   19.0620  -34.7780 C   0  0  0  0  0  0  0  0  0  0  0  0
    0.2560   20.0440  -35.1560 C   0  0  0  0  0  0  0  0  0  0  0  0
    0.4520   21.1630  -34.3500 C   0  0  0  0  0  0  0  0  0  0  0  0
   -0.2650   21.3080  -33.1620 C   0  0  0  0  0  0  0  0  0  0  0  0
   -1.1990   20.3300  -32.7660 C   0  0  0  0  0  0  0  0  0  0  0  0
   -1.9370   20.4560  -31.5340 N   0  0  0  0  0  0  0  0  0  0  0  0
   -1.2050   20.7510  -29.9860 S   0  0  0  0  0  0  0  0  0  0  0  0
   -1.6140   19.6730  -29.0210 O   0  0  0  0  0  0  0  0  0  0  0  0
    0.2880   20.7110  -30.1540 O   0  0  0  0  0  0  0  0  0  0  0  0
   -1.6610   22.3310  -29.3580 C   0  0  0  0  0  0  0  0  0  0  0  0
   -1.3200   22.7140  -28.0530 C   0  0  0  0  0  0  0  0  0  0  0  0
   -1.7430   23.9460  -27.5490 C   0  0  0  0  0  0  0  0  0  0  0  0
   -2.5100   24.8010  -28.3420 C   0  0  0  0  0  0  0  0  0  0  0  0
   -2.8520   24.4300  -29.6540 C   0  0  0  0  0  0  0  0  0  0  0  0
   -3.6320   25.2960  -30.4900 N   0  0  0  0  0  0  0  0  0  0  0  0
   -5.0650   25.3260  -30.5060 C   0  0  0  0  0  0  0  0  0  0  0  0
   -5.6560   26.3970  -30.2070 O   0  0  0  0  0  0  0  0  0  0  0  0
   -5.8530   24.1410  -30.9100 C   0  0  0  0  0  0  0  0  0  0  0  0
   -7.2550   24.1580  -30.8290 C   0  0  0  0  0  0  0  0  0  0  0  0
   -7.9960   23.0310  -31.1970 C   0  0  0  0  0  0  0  0  0  0  0  0
   -7.3470   21.8850  -31.6660 C   0  0  0  0  0  0  0  0  0  0  0  0
   -5.9510   21.8650  -31.7780 C   0  0  0  0  0  0  0  0  0  0  0  0
   -5.1310   20.4360  -32.4090 S   0  0  0  0  0  0  0  0  0  0  0  0
   -4.0760   20.8780  -33.3840 O   0  0  0  0  0  0  0  0  0  0  0  0
   -4.4590   19.7050  -31.2810 O   0  0  0  0  0  0  0  0  0  0  0  0
   -6.2640   19.3790  -33.2170 N   0  0  0  0  0  0  0  0  0  0  0  0
   -6.6620   18.2720  -32.3170 C   0  0  0  0  0  0  0  0  0  0  0  0
   -7.2330   17.0890  -33.1060 C   0  0  0  0  0  0  0  0  0  0  0  0
   -6.1680   16.4880  -34.0370 C   0  0  0  0  0  0  0  0  0  0  0  0
   -5.1290   17.5280  -34.4930 C   0  0  0  0  0  0  0  0  0  0  0  0
   -5.7320   18.9400  -34.5330 C   0  0  0  0  0  0  0  0  0  0  0  0
   -5.2090   22.9900  -31.3960 C   0  0  0  0  0  0  0  0  0  0  0  0
   -2.4100   23.2030  -30.1620 C   0  0  0  0  0  0  0  0  0  0  0  0
   -2.0134   16.4773  -32.1119 H   0  0  0  0  0  0  0  0  0  0  0  0
   -2.8929   16.2931  -33.6673 H   0  0  0  0  0  0  0  0  0  0  0  0
   -1.1247   16.6099  -33.6673 H   0  0  0  0  0  0  0  0  0  0  0  0
   -0.8098   18.1792  -35.4170 H   0  0  0  0  0  0  0  0  0  0  0  0
    0.8241   19.9345  -36.0916 H   0  0  0  0  0  0  0  0  0  0  0  0
    1.1749   21.9354  -34.6513 H   0  0  0  0  0  0  0  0  0  0  0  0
   -0.0999   22.1927  -32.5295 H   0  0  0  0  0  0  0  0  0  0  0  0
   -2.9800   20.4380  -31.5530 H   0  0  0  0  0  0  0  0  0  0  0  0
   -0.7174   22.0421  -27.4242 H   0  0  0  0  0  0  0  0  0  0  0  0
   -1.4712   24.2430  -26.5253 H   0  0  0  0  0  0  0  0  0  0  0  0
   -2.8476   25.7674  -27.9393 H   0  0  0  0  0  0  0  0  0  0  0  0
   -7.7722   25.0618  -30.4745 H   0  0  0  0  0  0  0  0  0  0  0  0
   -9.0930   23.0460  -31.1173 H   0  0  0  0  0  0  0  0  0  0  0  0
   -7.9334   20.9979  -31.9474 H   0  0  0  0  0  0  0  0  0  0  0  0
   -5.7799   17.9341  -31.7533 H   0  0  0  0  0  0  0  0  0  0  0  0
   -7.4418   18.6427  -31.6354 H   0  0  0  0  0  0  0  0  0  0  0  0
   -7.5732   16.3161  -32.4011 H   0  0  0  0  0  0  0  0  0  0  0  0
   -8.0743   17.4468  -33.7178 H   0  0  0  0  0  0  0  0  0  0  0  0
   -5.6472   15.6802  -33.5021 H   0  0  0  0  0  0  0  0  0  0  0  0
   -6.6818   16.1132  -34.9345 H   0  0  0  0  0  0  0  0  0  0  0  0
   -4.2822   17.5199  -33.7910 H   0  0  0  0  0  0  0  0  0  0  0  0
   -4.7963   17.2640  -35.5077 H   0  0  0  0  0  0  0  0  0  0  0  0
   -4.9504   19.6466  -34.8490 H   0  0  0  0  0  0  0  0  0  0  0  0
   -6.5749   18.9191  -35.2395 H   0  0  0  0  0  0  0  0  0  0  0  0
   -4.1121   22.9725  -31.4771 H   0  0  0  0  0  0  0  0  0  0  0  0
   -2.6513   22.9209  -31.1975 H   0  0  0  0  0  0  0  0  0  0  0  0
  1  2  1  0
  2  3  1  0
  3  4  2  0
  4  5  1  0
  5  6  2  0
  6  7  1  0
  7  8  2  0
  8  9  1  0
  9 10  1  0
 10 11  2  0
 10 12  2  0
 10 13  1  0
 13 14  2  0
 14 15  1  0
 15 16  2  0
 16 17  1  0
 17 18  1  0
 18 19  1  0
 19 20  2  0
 19 21  1  0
 21 22  2  0
 22 23  1  0
 23 24  2  0
 24 25  1  0
 25 26  1  0
 26 27  2  0
 26 28  2  0
 26 29  1  0
 29 30  1  0
 30 31  1  0
 31 32  1  0
 32 33  1  0
 33 34  1  0
 25 35  2  0
 17 36  2  0
  8  3  1  0
 36 13  1  0
 35 21  1  0
 34 29  1  0
  1 37  1  0
  1 38  1  0
  1 39  1  0
  4 40  1  0
  5 41  1  0
  6 42  1  0
  7 43  1  0
  9 44  1  0
 14 45  1  0
 15 46  1  0
 16 47  1  0
 22 48  1  0
 23 49  1  0
 24 50  1  0
 30 51  1  0
 30 52  1  0
 31 53  1  0
 31 54  1  0
 32 55  1  0
 32 56  1  0
 33 57  1  0
 33 58  1  0
 34 59  1  0
 34 60  1  0
 35 61  1  0
 36 62  1  0
M  CHG  1  18  -1
M  END
>  <UniqueID>  (18) 
17

>  <SMILES>  (18) 
COc1ccccc1NS(=O)(=O)c1cccc([N-]C(=O)c2cccc(S(=O)(=O)N3CCCCC3)c2)c1

>  <Energy>  (18) 
76.42807210669135

>  <Genealogy>  (18) 
COc1ccccc1NS(=O)(=O)c1cccc([N-]C(=O)c2cccc(S(=O)(=O)N3CCCCC3)c2)c1 (protonated)
COc1ccccc1NS(=O)(=O)c1cccc([N-]C(=O)c2cccc(S(=O)(=O)N3CCCCC3)c2)c1 (3D coordinates assigned)
COc1ccccc1NS(=O)(=O)c1cccc([N-]C(=O)c2cccc(S(=O)(=O)N3CCCCC3)c2)c1 (nonaromatic ring conformer: 76.42807210669135 kcal/mol)

>  <smiles>  (18) 
COc1ccccc1NS(=O)(=O)c1cccc(NC(=O)c2cccc(S(=O)(=O)N3CCCCC3)c2)c1

>  <score_type>  (18) 
oracle

>  <origin>  (18) 
adgpu

>  <m_score__min__energy>  (18) 
-12.34

>  <m_primary>  (18) 
energy

$$$$
18:0
     RDKit          3D

 45 47  0  0  0  0  0  0  0  0999 V2000
   -6.5210   16.0820  -34.0050 C   0  0  0  0  0  0  0  0  0  0  0  0
   -6.8500   17.1470  -32.9610 C   0  0  0  0  0  0  0  0  0  0  0  0
   -6.4610   18.4850  -33.4310 N   0  0  0  0  0  0  0  0  0  0  0  0
   -5.5660   18.5990  -34.5960 C   0  0  0  0  0  0  0  0  0  0  0  0
   -4.1030   18.5740  -34.1620 C   0  0  0  0  0  0  0  0  0  0  0  0
   -6.9540   19.6670  -32.7580 C   0  0  0  0  0  0  0  0  0  0  0  0
   -8.3360   19.8840  -32.6150 C   0  0  0  0  0  0  0  0  0  0  0  0
   -8.8130   21.0340  -31.9830 C   0  0  0  0  0  0  0  0  0  0  0  0
   -7.9190   21.9800  -31.4780 C   0  0  0  0  0  0  0  0  0  0  0  0
   -6.5360   21.7750  -31.5900 C   0  0  0  0  0  0  0  0  0  0  0  0
   -5.6070   22.7510  -31.0870 N   0  0  0  0  0  0  0  0  0  0  0  0
   -5.7290   24.0880  -31.2190 C   0  0  0  0  0  0  0  0  0  0  0  0
   -4.6490   24.6770  -30.6010 C   0  0  0  0  0  0  0  0  0  0  0  0
   -4.4020   26.0440  -30.5220 O   0  0  0  0  0  0  0  0  0  0  0  0
   -3.8400   23.7240  -30.0950 N   0  0  0  0  0  0  0  0  0  0  0  0
   -2.6050   23.9400  -29.3900 C   0  0  0  0  0  0  0  0  0  0  0  0
   -1.4420   23.2420  -29.7550 C   0  0  0  0  0  0  0  0  0  0  0  0
   -0.2420   23.4660  -29.0730 C   0  0  0  0  0  0  0  0  0  0  0  0
   -0.1920   24.3910  -28.0280 C   0  0  0  0  0  0  0  0  0  0  0  0
   -1.3430   25.0990  -27.6650 C   0  0  0  0  0  0  0  0  0  0  0  0
   -2.5440   24.8770  -28.3450 C   0  0  0  0  0  0  0  0  0  0  0  0
   -4.4490   22.5530  -30.4050 C   0  0  0  0  0  0  0  0  0  0  0  0
   -3.8470   21.0720  -30.0140 S   0  0  0  0  0  0  0  0  0  0  0  0
   -6.0610   20.6250  -32.2390 C   0  0  0  0  0  0  0  0  0  0  0  0
   -6.2328   15.1489  -33.4987 H   0  0  0  0  0  0  0  0  0  0  0  0
   -7.4048   15.8999  -34.6341 H   0  0  0  0  0  0  0  0  0  0  0  0
   -5.6885   16.4301  -34.6341 H   0  0  0  0  0  0  0  0  0  0  0  0
   -7.9322   17.1355  -32.7644 H   0  0  0  0  0  0  0  0  0  0  0  0
   -6.2885   16.9218  -32.0423 H   0  0  0  0  0  0  0  0  0  0  0  0
   -5.7538   17.7570  -35.2785 H   0  0  0  0  0  0  0  0  0  0  0  0
   -5.7667   19.5550  -35.1018 H   0  0  0  0  0  0  0  0  0  0  0  0
   -4.0464   18.5730  -33.0635 H   0  0  0  0  0  0  0  0  0  0  0  0
   -3.6194   17.6675  -34.5549 H   0  0  0  0  0  0  0  0  0  0  0  0
   -3.5887   19.4635  -34.5549 H   0  0  0  0  0  0  0  0  0  0  0  0
   -9.0476   19.1411  -33.0045 H   0  0  0  0  0  0  0  0  0  0  0  0
   -9.8965   21.1952  -31.8827 H   0  0  0  0  0  0  0  0  0  0  0  0
   -8.3006   22.8893  -30.9906 H   0  0  0  0  0  0  0  0  0  0  0  0
   -6.5478   24.6151  -31.7307 H   0  0  0  0  0  0  0  0  0  0  0  0
   -3.8680   26.4320  -29.7540 H   0  0  0  0  0  0  0  0  0  0  0  0
   -1.4754   22.5161  -30.5808 H   0  0  0  0  0  0  0  0  0  0  0  0
    0.6642   22.9126  -29.3602 H   0  0  0  0  0  0  0  0  0  0  0  0
    0.7521   24.5630  -27.4903 H   0  0  0  0  0  0  0  0  0  0  0  0
   -1.3028   25.8304  -26.8444 H   0  0  0  0  0  0  0  0  0  0  0  0
   -3.4459   25.4388  -28.0604 H   0  0  0  0  0  0  0  0  0  0  0  0
   -4.9771   20.4696  -32.3438 H   0  0  0  0  0  0  0  0  0  0  0  0
  1  2  1  0
  2  3  1  0
  3  4  1  0
  4  5  1  0
  3  6  1  0
  6  7  2  0
  7  8  1  0
  8  9  2  0
  9 10  1  0
 10 11  1  0
 11 12  1  0
 12 13  2  0
 13 14  1  0
 13 15  1  0
 15 16  1  0
 16 17  2  0
 17 18  1  0
 18 19  2  0
 19 20  1  0
 20 21  2  0
 15 22  1  0
 22 23  2  0
 10 24  2  0
 24  6  1  0
 22 11  1  0
 21 16  1  0
  1 25  1  0
  1 26  1  0
  1 27  1  0
  2 28  1  0
  2 29  1  0
  4 30  1  0
  4 31  1  0
  5 32  1  0
  5 33  1  0
  5 34  1  0
  7 35  1  0
  8 36  1  0
  9 37  1  0
 12 38  1  0
 14 39  1  0
 17 40  1  0
 18 41  1  0
 19 42  1  0
 20 43  1  0
 21 44  1  0
 24 45  1  0
M  END
>  <UniqueID>  (19) 
18

>  <SMILES>  (19) 
CCN(CC)c1cccc(-n2cc(O)n(-c3ccccc3)c2=S)c1

>  <Energy>  (19) 
90.33968646370988

>  <Genealogy>  (19) 
CCN(CC)c1cccc(-n2cc(O)n(-c3ccccc3)c2=S)c1 (3D coordinates assigned)
CCN(CC)c1cccc(-n2cc(O)n(-c3ccccc3)c2=S)c1 (optimized conformer: 90.33968646370988 kcal/mol)

>  <smiles>  (19) 
CCN(CC)c1cccc(-n2cc(O)n(-c3ccccc3)c2=S)c1

>  <score_type>  (19) 
oracle

>  <origin>  (19) 
adgpu

>  <m_score__min__energy>  (19) 
-8.4900000000000002

>  <m_primary>  (19) 
energy

$$$$
19:0
     RDKit          3D

 37 39  0  0  0  0  0  0  0  0999 V2000
   -7.8170   22.6500  -30.7800 O   0  0  0  0  0  0  0  0  0  0  0  0
   -6.6170   22.9690  -31.6290 S   0  0  0  0  0  0  0  0  0  0  0  0
   -6.9080   24.1940  -32.4470 O   0  0  0  0  0  0  0  0  0  0  0  0
   -6.3060   21.6370  -32.6940 N   0  0  0  0  0  0  0  0  0  0  0  0
   -6.8630   20.3200  -32.5640 C   0  0  0  0  0  0  0  0  0  0  0  0
   -6.0490   19.1710  -32.5620 C   0  0  0  0  0  0  0  0  0  0  0  0
   -6.6190   17.9010  -32.4430 C   0  0  0  0  0  0  0  0  0  0  0  0
   -8.0020   17.7620  -32.3210 C   0  0  0  0  0  0  0  0  0  0  0  0
   -8.8190   18.8950  -32.3170 C   0  0  0  0  0  0  0  0  0  0  0  0
   -8.2600   20.1720  -32.4380 C   0  0  0  0  0  0  0  0  0  0  0  0
   -9.1090   21.2790  -32.4320 O   0  0  0  0  0  0  0  0  0  0  0  0
   -5.2070   23.2790  -30.6220 C   0  0  0  0  0  0  0  0  0  0  0  0
   -3.9450   22.8230  -31.0240 C   0  0  0  0  0  0  0  0  0  0  0  0
   -2.8250   23.0550  -30.2220 C   0  0  0  0  0  0  0  0  0  0  0  0
   -2.9520   23.7450  -29.0050 C   0  0  0  0  0  0  0  0  0  0  0  0
   -1.7600   23.9950  -28.1580 C   0  0  0  0  0  0  0  0  0  0  0  0
   -1.4420   23.0980  -27.1200 C   0  0  0  0  0  0  0  0  0  0  0  0
   -0.3170   23.3120  -26.3190 C   0  0  0  0  0  0  0  0  0  0  0  0
    0.4990   24.4230  -26.5400 C   0  0  0  0  0  0  0  0  0  0  0  0
    0.1910   25.3250  -27.5590 C   0  0  0  0  0  0  0  0  0  0  0  0
   -0.9360   25.1210  -28.3650 C   0  0  0  0  0  0  0  0  0  0  0  0
   -1.2370   26.0540  -29.3520 O   0  0  0  0  0  0  0  0  0  0  0  0
   -4.2180   24.2130  -28.6120 C   0  0  0  0  0  0  0  0  0  0  0  0
   -5.3380   23.9810  -29.4160 C   0  0  0  0  0  0  0  0  0  0  0  0
   -4.9578   19.2740  -32.6547 H   0  0  0  0  0  0  0  0  0  0  0  0
   -5.9760   17.0085  -32.4455 H   0  0  0  0  0  0  0  0  0  0  0  0
   -8.4485   16.7610  -32.2280 H   0  0  0  0  0  0  0  0  0  0  0  0
   -9.9088   18.7826  -32.2181 H   0  0  0  0  0  0  0  0  0  0  0  0
   -8.7630   22.2300  -32.3810 H   0  0  0  0  0  0  0  0  0  0  0  0
   -3.8355   22.2803  -31.9745 H   0  0  0  0  0  0  0  0  0  0  0  0
   -1.8372   22.6950  -30.5456 H   0  0  0  0  0  0  0  0  0  0  0  0
   -2.0834   22.2230  -26.9385 H   0  0  0  0  0  0  0  0  0  0  0  0
   -0.0740   22.6039  -25.5131 H   0  0  0  0  0  0  0  0  0  0  0  0
    1.3857   24.5874  -25.9101 H   0  0  0  0  0  0  0  0  0  0  0  0
    0.8358   26.1996  -27.7299 H   0  0  0  0  0  0  0  0  0  0  0  0
   -4.3280   24.7647  -27.6668 H   0  0  0  0  0  0  0  0  0  0  0  0
   -6.3251   24.3506  -29.1011 H   0  0  0  0  0  0  0  0  0  0  0  0
  1  2  2  0
  2  3  2  0
  2  4  1  0
  4  5  1  0
  5  6  2  0
  6  7  1  0
  7  8  2  0
  8  9  1  0
  9 10  2  0
 10 11  1  0
  2 12  1  0
 12 13  2  0
 13 14  1  0
 14 15  2  0
 15 16  1  0
 16 17  2  0
 17 18  1  0
 18 19  2  0
 19 20  1  0
 20 21  2  0
 21 22  1  0
 15 23  1  0
 23 24  2  0
 10  5  1  0
 24 12  1  0
 21 16  1  0
  6 25  1  0
  7 26  1  0
  8 27  1  0
  9 28  1  0
 11 29  1  0
 13 30  1  0
 14 31  1  0
 17 32  1  0
 18 33  1  0
 19 34  1  0
 20 35  1  0
 23 36  1  0
 24 37  1  0
M  CHG  2   4  -1  22  -1
M  END
>  <UniqueID>  (20) 
19

>  <SMILES>  (20) 
O=S(=O)([N-]c1ccccc1O)c1ccc(-c2ccccc2[O-])cc1

>  <Energy>  (20) 
50.06115196028367

>  <Genealogy>  (20) 
O=S(=O)([N-]c1ccccc1O)c1ccc(-c2ccccc2[O-])cc1 (protonated)
O=S(=O)([N-]c1ccccc1O)c1ccc(-c2ccccc2[O-])cc1 (3D coordinates assigned)
O=S(=O)([N-]c1ccccc1O)c1ccc(-c2ccccc2[O-])cc1 (optimized conformer: 50.06115196028367 kcal/mol)

>  <smiles>  (20) 
O=S(=O)(Nc1ccccc1O)c1ccc(-c2ccccc2O)cc1

>  <score_type>  (20) 
oracle

>  <origin>  (20) 
adgpu

>  <m_score__min__energy>  (20) 
-10.94

>  <m_primary>  (20) 
energy

$$$$
20:0
     RDKit          3D

 54 56  0  0  0  0  0  0  0  0999 V2000
    1.6220   19.0200  -28.6490 C   0  0  0  0  0  0  0  0  0  0  0  0
    0.5670   19.9750  -28.6700 O   0  0  0  0  0  0  0  0  0  0  0  0
   -0.6740   19.8100  -28.0320 C   0  0  0  0  0  0  0  0  0  0  0  0
   -0.9250   18.7230  -27.1730 C   0  0  0  0  0  0  0  0  0  0  0  0
   -2.1780   18.5660  -26.5770 C   0  0  0  0  0  0  0  0  0  0  0  0
   -3.1940   19.4830  -26.8340 C   0  0  0  0  0  0  0  0  0  0  0  0
   -2.9600   20.5680  -27.6800 C   0  0  0  0  0  0  0  0  0  0  0  0
   -1.6950   20.7590  -28.2630 C   0  0  0  0  0  0  0  0  0  0  0  0
   -1.4680   21.9290  -29.1900 C   0  0  0  0  0  0  0  0  0  0  0  0
   -2.7050   22.2790  -29.9160 N   0  0  0  0  0  0  0  0  0  0  0  0
   -2.9070   23.7320  -30.0940 C   0  0  0  0  0  0  0  0  0  0  0  0
   -4.2840   24.1060  -30.5760 C   0  0  0  0  0  0  0  0  0  0  0  0
   -4.5340   25.3140  -30.8380 O   0  0  0  0  0  0  0  0  0  0  0  0
   -5.2900   23.1040  -30.7750 N   0  0  0  0  0  0  0  0  0  0  0  0
   -6.6860   23.4340  -31.0420 C   0  0  0  0  0  0  0  0  0  0  0  0
   -7.4010   22.2280  -31.5830 C   0  0  0  0  0  0  0  0  0  0  0  0
   -8.7930   22.0960  -31.4290 C   0  0  0  0  0  0  0  0  0  0  0  0
   -9.4590   20.9930  -31.9730 C   0  0  0  0  0  0  0  0  0  0  0  0
   -8.7440   20.0180  -32.6780 C   0  0  0  0  0  0  0  0  0  0  0  0
   -7.3610   20.1480  -32.8440 C   0  0  0  0  0  0  0  0  0  0  0  0
   -6.6920   21.2540  -32.3080 C   0  0  0  0  0  0  0  0  0  0  0  0
   -2.9370   21.3530  -31.3900 S   0  0  0  0  0  0  0  0  0  0  0  0
   -3.5210   22.2530  -32.4460 O   0  0  0  0  0  0  0  0  0  0  0  0
   -3.9300   20.2530  -31.1310 O   0  0  0  0  0  0  0  0  0  0  0  0
   -1.4500   20.6230  -32.0140 C   0  0  0  0  0  0  0  0  0  0  0  0
   -0.7670   21.2180  -33.0870 C   0  0  0  0  0  0  0  0  0  0  0  0
    0.4130   20.6490  -33.5770 C   0  0  0  0  0  0  0  0  0  0  0  0
    0.9310   19.4940  -32.9830 C   0  0  0  0  0  0  0  0  0  0  0  0
    0.2770   18.9160  -31.8900 C   0  0  0  0  0  0  0  0  0  0  0  0
   -0.9040   19.4830  -31.4000 C   0  0  0  0  0  0  0  0  0  0  0  0
    1.8825   18.7842  -27.6066 H   0  0  0  0  0  0  0  0  0  0  0  0
    1.2967   18.1030  -29.1621 H   0  0  0  0  0  0  0  0  0  0  0  0
    2.5022   19.4347  -29.1621 H   0  0  0  0  0  0  0  0  0  0  0  0
   -0.1283   17.9922  -26.9699 H   0  0  0  0  0  0  0  0  0  0  0  0
   -2.3628   17.7164  -25.9032 H   0  0  0  0  0  0  0  0  0  0  0  0
   -4.1825   19.3520  -26.3695 H   0  0  0  0  0  0  0  0  0  0  0  0
   -3.7717   21.2794  -27.8923 H   0  0  0  0  0  0  0  0  0  0  0  0
   -1.1401   22.7971  -28.5994 H   0  0  0  0  0  0  0  0  0  0  0  0
   -0.6988   21.6488  -29.9247 H   0  0  0  0  0  0  0  0  0  0  0  0
   -2.7334   24.2261  -29.1267 H   0  0  0  0  0  0  0  0  0  0  0  0
   -2.1993   24.0583  -30.8703 H   0  0  0  0  0  0  0  0  0  0  0  0
   -5.0040   22.1020  -30.8370 H   0  0  0  0  0  0  0  0  0  0  0  0
   -7.1697   23.7567  -30.1083 H   0  0  0  0  0  0  0  0  0  0  0  0
   -6.7314   24.2454  -31.7833 H   0  0  0  0  0  0  0  0  0  0  0  0
   -9.3592   22.8623  -30.8793 H   0  0  0  0  0  0  0  0  0  0  0  0
  -10.5470   20.8916  -31.8465 H   0  0  0  0  0  0  0  0  0  0  0  0
   -9.2695   19.1494  -33.1016 H   0  0  0  0  0  0  0  0  0  0  0  0
   -6.7991   19.3803  -33.3962 H   0  0  0  0  0  0  0  0  0  0  0  0
   -5.6071   21.3619  -32.4544 H   0  0  0  0  0  0  0  0  0  0  0  0
   -1.1622   22.1368  -33.5448 H   0  0  0  0  0  0  0  0  0  0  0  0
    0.9334   21.1100  -34.4294 H   0  0  0  0  0  0  0  0  0  0  0  0
    1.8529   19.0399  -33.3753 H   0  0  0  0  0  0  0  0  0  0  0  0
    0.6919   18.0146  -31.4153 H   0  0  0  0  0  0  0  0  0  0  0  0
   -1.4073   19.0348  -30.5306 H   0  0  0  0  0  0  0  0  0  0  0  0
  1  2  1  0
  2  3  1  0
  3  4  2  0
  4  5  1  0
  5  6  2  0
  6  7  1  0
  7  8  2  0
  8  9  1  0
  9 10  1  0
 10 11  1  0
 11 12  1  0
 12 13  2  0
 12 14  1  0
 14 15  1  0
 15 16  1  0
 16 17  2  0
 17 18  1  0
 18 19  2  0
 19 20  1  0
 20 21  2  0
 10 22  1  0
 22 23  2  0
 22 24  2  0
 22 25  1  0
 25 26  2  0
 26 27  1  0
 27 28  2  0
 28 29  1  0
 29 30  2  0
  8  3  1  0
 21 16  1  0
 30 25  1  0
  1 31  1  0
  1 32  1  0
  1 33  1  0
  4 34  1  0
  5 35  1  0
  6 36  1  0
  7 37  1  0
  9 38  1  0
  9 39  1  0
 11 40  1  0
 11 41  1  0
 14 42  1  0
 15 43  1  0
 15 44  1  0
 17 45  1  0
 18 46  1  0
 19 47  1  0
 20 48  1  0
 21 49  1  0
 26 50  1  0
 27 51  1  0
 28 52  1  0
 29 53  1  0
 30 54  1  0
M  END
>  <UniqueID>  (21) 
20

>  <SMILES>  (21) 
COc1ccccc1CN(CC(=O)NCc1ccccc1)S(=O)(=O)c1ccccc1

>  <Energy>  (21) 
55.724556953860514

>  <Genealogy>  (21) 
COc1ccccc1CN(CC(=O)NCc1ccccc1)S(=O)(=O)c1ccccc1 (3D coordinates assigned)
COc1ccccc1CN(CC(=O)NCc1ccccc1)S(=O)(=O)c1ccccc1 (optimized conformer: 55.724556953860514 kcal/mol)

>  <smiles>  (21) 
COc1ccccc1CN(CC(=O)NCc1ccccc1)S(=O)(=O)c1ccccc1

>  <score_type>  (21) 
oracle

>  <origin>  (21) 
adgpu

>  <m_score__min__energy>  (21) 
-9.4000000000000004

>  <m_primary>  (21) 
energy

$$$$
21:0
     RDKit          3D

 32 33  0  0  0  0  0  0  0  0999 V2000
   -1.6960   20.4610  -27.0700 C   0  0  0  0  0  0  0  0  0  0  0  0
   -1.7190   21.8480  -27.6450 C   0  0  0  0  0  0  0  0  0  0  0  0
   -0.6830   22.7360  -27.3440 C   0  0  0  0  0  0  0  0  0  0  0  0
   -0.6460   23.9960  -27.9420 C   0  0  0  0  0  0  0  0  0  0  0  0
   -1.6410   24.3880  -28.8460 C   0  0  0  0  0  0  0  0  0  0  0  0
   -1.6030   25.6880  -29.3440 O   0  0  0  0  0  0  0  0  0  0  0  0
   -2.6860   23.4980  -29.1810 C   0  0  0  0  0  0  0  0  0  0  0  0
   -3.6540   23.7440  -30.2860 C   0  0  0  0  0  0  0  0  0  0  0  0
   -3.9850   24.9320  -30.5200 O   0  0  0  0  0  0  0  0  0  0  0  0
   -4.2040   22.6670  -31.0710 N   0  0  0  0  0  0  0  0  0  0  0  0
   -5.6090   22.5180  -31.3920 C   0  0  0  0  0  0  0  0  0  0  0  0
   -6.5130   23.5920  -31.2430 C   0  0  0  0  0  0  0  0  0  0  0  0
   -7.8660   23.4360  -31.5530 C   0  0  0  0  0  0  0  0  0  0  0  0
   -8.3450   22.2110  -32.0090 C   0  0  0  0  0  0  0  0  0  0  0  0
   -9.6540   22.0650  -32.3190 F   0  0  0  0  0  0  0  0  0  0  0  0
   -7.4730   21.1320  -32.1590 C   0  0  0  0  0  0  0  0  0  0  0  0
   -6.1040   21.2750  -31.8750 C   0  0  0  0  0  0  0  0  0  0  0  0
   -5.1930   20.0940  -32.0880 C   0  0  0  0  0  0  0  0  0  0  0  0
   -2.7130   22.2280  -28.5630 C   0  0  0  0  0  0  0  0  0  0  0  0
   -1.6970   20.5194  -25.9716 H   0  0  0  0  0  0  0  0  0  0  0  0
   -2.5851   19.9089  -27.4086 H   0  0  0  0  0  0  0  0  0  0  0  0
   -0.7891   19.9387  -27.4086 H   0  0  0  0  0  0  0  0  0  0  0  0
    0.1044   22.4413  -26.6347 H   0  0  0  0  0  0  0  0  0  0  0  0
    0.1736   24.6889  -27.7008 H   0  0  0  0  0  0  0  0  0  0  0  0
   -3.5870   21.8520  -31.2610 H   0  0  0  0  0  0  0  0  0  0  0  0
   -6.1475   24.5633  -30.8784 H   0  0  0  0  0  0  0  0  0  0  0  0
   -8.5560   24.2847  -31.4363 H   0  0  0  0  0  0  0  0  0  0  0  0
   -7.8603   20.1614  -32.5024 H   0  0  0  0  0  0  0  0  0  0  0  0
   -4.8817   19.6905  -31.1132 H   0  0  0  0  0  0  0  0  0  0  0  0
   -5.7272   19.3161  -32.6532 H   0  0  0  0  0  0  0  0  0  0  0  0
   -4.3049   20.4132  -32.6532 H   0  0  0  0  0  0  0  0  0  0  0  0
   -3.5246   21.5257  -28.8040 H   0  0  0  0  0  0  0  0  0  0  0  0
  1  2  1  0
  2  3  2  0
  3  4  1  0
  4  5  2  0
  5  6  1  0
  5  7  1  0
  7  8  1  0
  8  9  2  0
  8 10  1  0
 10 11  1  0
 11 12  2  0
 12 13  1  0
 13 14  2  0
 14 15  1  0
 14 16  1  0
 16 17  2  0
 17 18  1  0
  7 19  2  0
 19  2  1  0
 17 11  1  0
  1 20  1  0
  1 21  1  0
  1 22  1  0
  3 23  1  0
  4 24  1  0
 10 25  1  0
 12 26  1  0
 13 27  1  0
 16 28  1  0
 18 29  1  0
 18 30  1  0
 18 31  1  0
 19 32  1  0
M  CHG  1   6  -1
M  END
>  <UniqueID>  (22) 
21

>  <SMILES>  (22) 
Cc1ccc([O-])c(C(=O)Nc2ccc(F)cc2C)c1

>  <Energy>  (22) 
48.52507621444986

>  <Genealogy>  (22) 
Cc1ccc([O-])c(C(=O)Nc2ccc(F)cc2C)c1 (protonated)
Cc1ccc([O-])c(C(=O)Nc2ccc(F)cc2C)c1 (3D coordinates assigned)
Cc1ccc([O-])c(C(=O)Nc2ccc(F)cc2C)c1 (optimized conformer: 48.52507621444986 kcal/mol)

>  <smiles>  (22) 
Cc1ccc(O)c(C(=O)Nc2ccc(F)cc2C)c1

>  <score_type>  (22) 
oracle

>  <origin>  (22) 
adgpu

>  <m_score__min__energy>  (22) 
-10.34

>  <m_primary>  (22) 
energy

$$$$
22:0
     RDKit          3D

 41 43  0  0  0  0  0  0  0  0999 V2000
   -5.3450   15.3430  -34.2130 N   0  0  0  0  0  0  0  0  0  0  0  0
   -5.8390   16.3200  -33.8400 C   0  0  0  0  0  0  0  0  0  0  0  0
   -6.4550   17.5350  -33.3750 C   0  0  0  0  0  0  0  0  0  0  0  0
   -6.2000   18.7460  -34.0310 C   0  0  0  0  0  0  0  0  0  0  0  0
   -6.7970   19.9270  -33.5790 C   0  0  0  0  0  0  0  0  0  0  0  0
   -7.6670   19.9040  -32.4720 C   0  0  0  0  0  0  0  0  0  0  0  0
   -8.2730   21.0710  -31.9810 O   0  0  0  0  0  0  0  0  0  0  0  0
   -7.5830   22.2110  -31.5520 C   0  0  0  0  0  0  0  0  0  0  0  0
   -7.5930   22.5420  -30.1920 C   0  0  0  0  0  0  0  0  0  0  0  0
   -6.8640   23.6400  -29.7270 C   0  0  0  0  0  0  0  0  0  0  0  0
   -6.1330   24.4350  -30.6230 C   0  0  0  0  0  0  0  0  0  0  0  0
   -5.2260   25.5210  -30.1030 C   0  0  0  0  0  0  0  0  0  0  0  0
   -3.8440   25.2650  -30.5010 N   0  0  0  0  0  0  0  0  0  0  0  0
   -2.8870   24.6070  -29.6650 C   0  0  0  0  0  0  0  0  0  0  0  0
   -2.0210   25.2920  -29.0610 O   0  0  0  0  0  0  0  0  0  0  0  0
   -2.9080   23.1810  -29.5300 N   0  0  0  0  0  0  0  0  0  0  0  0
   -3.0980   22.2330  -30.5890 C   0  0  0  0  0  0  0  0  0  0  0  0
   -4.2330   21.4120  -30.5610 C   0  0  0  0  0  0  0  0  0  0  0  0
   -4.4230   20.4340  -31.5420 C   0  0  0  0  0  0  0  0  0  0  0  0
   -3.4740   20.2620  -32.5520 C   0  0  0  0  0  0  0  0  0  0  0  0
   -2.3290   21.0620  -32.5780 C   0  0  0  0  0  0  0  0  0  0  0  0
   -2.1350   22.0410  -31.5980 C   0  0  0  0  0  0  0  0  0  0  0  0
   -6.1790   24.1430  -31.9960 C   0  0  0  0  0  0  0  0  0  0  0  0
   -6.8990   23.0400  -32.4580 C   0  0  0  0  0  0  0  0  0  0  0  0
   -7.9010   18.6930  -31.8100 C   0  0  0  0  0  0  0  0  0  0  0  0
   -7.3040   17.5120  -32.2620 C   0  0  0  0  0  0  0  0  0  0  0  0
   -5.5294   18.7681  -34.9027 H   0  0  0  0  0  0  0  0  0  0  0  0
   -6.5861   20.8779  -34.0903 H   0  0  0  0  0  0  0  0  0  0  0  0
   -8.1778   21.9347  -29.4854 H   0  0  0  0  0  0  0  0  0  0  0  0
   -6.8632   23.8821  -28.6540 H   0  0  0  0  0  0  0  0  0  0  0  0
   -5.5479   26.4894  -30.5136 H   0  0  0  0  0  0  0  0  0  0  0  0
   -5.2834   25.5380  -29.0046 H   0  0  0  0  0  0  0  0  0  0  0  0
   -4.9791   21.5376  -29.7625 H   0  0  0  0  0  0  0  0  0  0  0  0
   -5.3211   19.7993  -31.5182 H   0  0  0  0  0  0  0  0  0  0  0  0
   -3.6280   19.4967  -33.3270 H   0  0  0  0  0  0  0  0  0  0  0  0
   -1.5789   20.9218  -33.3703 H   0  0  0  0  0  0  0  0  0  0  0  0
   -1.2276   22.6626  -31.6157 H   0  0  0  0  0  0  0  0  0  0  0  0
   -5.6451   24.7866  -32.7107 H   0  0  0  0  0  0  0  0  0  0  0  0
   -6.9313   22.8187  -33.5350 H   0  0  0  0  0  0  0  0  0  0  0  0
   -8.5587   18.6702  -30.9286 H   0  0  0  0  0  0  0  0  0  0  0  0
   -7.5018   16.5630  -31.7420 H   0  0  0  0  0  0  0  0  0  0  0  0
  1  2  3  0
  2  3  1  0
  3  4  2  0
  4  5  1  0
  5  6  2  0
  6  7  1  0
  7  8  1  0
  8  9  2  0
  9 10  1  0
 10 11  2  0
 11 12  1  0
 12 13  1  0
 13 14  1  0
 14 15  2  0
 14 16  1  0
 16 17  1  0
 17 18  2  0
 18 19  1  0
 19 20  2  0
 20 21  1  0
 21 22  2  0
 11 23  1  0
 23 24  2  0
  6 25  1  0
 25 26  2  0
 26  3  1  0
 24  8  1  0
 22 17  1  0
  4 27  1  0
  5 28  1  0
  9 29  1  0
 10 30  1  0
 12 31  1  0
 12 32  1  0
 18 33  1  0
 19 34  1  0
 20 35  1  0
 21 36  1  0
 22 37  1  0
 23 38  1  0
 24 39  1  0
 25 40  1  0
 26 41  1  0
M  CHG  2  13  -1  16  -1
M  END
>  <UniqueID>  (23) 
22

>  <SMILES>  (23) 
N#Cc1ccc(Oc2ccc(C[N-]C(=O)[N-]c3ccccc3)cc2)cc1

>  <Energy>  (23) 
48.34740936599559

>  <Genealogy>  (23) 
N#Cc1ccc(Oc2ccc(C[N-]C(=O)[N-]c3ccccc3)cc2)cc1 (protonated)
N#Cc1ccc(Oc2ccc(C[N-]C(=O)[N-]c3ccccc3)cc2)cc1 (3D coordinates assigned)
N#Cc1ccc(Oc2ccc(C[N-]C(=O)[N-]c3ccccc3)cc2)cc1 (optimized conformer: 48.34740936599559 kcal/mol)

>  <smiles>  (23) 
N#Cc1ccc(Oc2ccc(CNC(=O)Nc3ccccc3)cc2)cc1

>  <score_type>  (23) 
oracle

>  <origin>  (23) 
adgpu

>  <m_score__min__energy>  (23) 
-12.58

>  <m_primary>  (23) 
energy

$$$$
23:0
     RDKit          3D

 29 30  0  0  0  0  0  0  0  0999 V2000
   -5.2880   24.8860  -28.3610 N   0  0  0  0  0  0  0  0  0  0  0  0
   -5.6360   24.1550  -29.5440 C   0  0  0  0  0  0  0  0  0  0  0  0
   -6.6640   23.2020  -29.4690 C   0  0  0  0  0  0  0  0  0  0  0  0
   -7.0510   22.4760  -30.5960 C   0  0  0  0  0  0  0  0  0  0  0  0
   -6.4260   22.7020  -31.8320 C   0  0  0  0  0  0  0  0  0  0  0  0
   -6.7900   21.9480  -33.0010 N   0  0  0  0  0  0  0  0  0  0  0  0
   -6.6920   20.5170  -33.1090 C   0  0  0  0  0  0  0  0  0  0  0  0
   -7.6700   19.6740  -32.5570 C   0  0  0  0  0  0  0  0  0  0  0  0
   -7.5690   18.2870  -32.6970 C   0  0  0  0  0  0  0  0  0  0  0  0
   -6.4970   17.7160  -33.4060 C   0  0  0  0  0  0  0  0  0  0  0  0
   -6.3950   16.2880  -33.5480 N   0  0  0  0  0  0  0  0  0  0  0  0
   -7.1690   15.6650  -34.3040 O   0  0  0  0  0  0  0  0  0  0  0  0
   -5.4390   15.5820  -32.8510 O   0  0  0  0  0  0  0  0  0  0  0  0
   -5.5320   18.5660  -33.9770 C   0  0  0  0  0  0  0  0  0  0  0  0
   -5.6350   19.9520  -33.8360 C   0  0  0  0  0  0  0  0  0  0  0  0
   -5.3800   23.6300  -31.9090 C   0  0  0  0  0  0  0  0  0  0  0  0
   -4.9790   24.3610  -30.7820 C   0  0  0  0  0  0  0  0  0  0  0  0
   -3.9280   25.2660  -30.9400 O   0  0  0  0  0  0  0  0  0  0  0  0
   -4.6040   25.6730  -28.4120 H   0  0  0  0  0  0  0  0  0  0  0  0
   -5.6570   24.6500  -27.4170 H   0  0  0  0  0  0  0  0  0  0  0  0
   -7.1712   23.0252  -28.5090 H   0  0  0  0  0  0  0  0  0  0  0  0
   -7.8492   21.7235  -30.5153 H   0  0  0  0  0  0  0  0  0  0  0  0
   -7.1520   22.4750  -33.8290 H   0  0  0  0  0  0  0  0  0  0  0  0
   -8.5208   20.1078  -32.0111 H   0  0  0  0  0  0  0  0  0  0  0  0
   -8.3345   17.6365  -32.2488 H   0  0  0  0  0  0  0  0  0  0  0  0
   -4.6899   18.1358  -34.5389 H   0  0  0  0  0  0  0  0  0  0  0  0
   -4.8807   20.6052  -34.2991 H   0  0  0  0  0  0  0  0  0  0  0  0
   -4.8653   23.7877  -32.8683 H   0  0  0  0  0  0  0  0  0  0  0  0
   -3.1550   25.1310  -31.5760 H   0  0  0  0  0  0  0  0  0  0  0  0
  1  2  1  0
  2  3  2  0
  3  4  1  0
  4  5  2  0
  5  6  1  0
  6  7  1  0
  7  8  2  0
  8  9  1  0
  9 10  2  0
 10 11  1  0
 11 12  2  0
 11 13  1  0
 10 14  1  0
 14 15  2  0
  5 16  1  0
 16 17  2  0
 17 18  1  0
 17  2  1  0
 15  7  1  0
  1 19  1  0
  1 20  1  0
  3 21  1  0
  4 22  1  0
  6 23  1  0
  8 24  1  0
  9 25  1  0
 14 26  1  0
 15 27  1  0
 16 28  1  0
 18 29  1  0
M  CHG  2  11   1  13  -1
M  END
>  <UniqueID>  (24) 
23

>  <SMILES>  (24) 
Nc1ccc(Nc2ccc([N+](=O)[O-])cc2)cc1O

>  <Energy>  (24) 
37.92732485935572

>  <Genealogy>  (24) 
Nc1ccc(Nc2ccc([N+](=O)[O-])cc2)cc1O (3D coordinates assigned)
Nc1ccc(Nc2ccc([N+](=O)[O-])cc2)cc1O (optimized conformer: 37.92732485935572 kcal/mol)

>  <smiles>  (24) 
Nc1ccc(Nc2ccc([N+](=O)[O-])cc2)cc1O

>  <score_type>  (24) 
oracle

>  <origin>  (24) 
adgpu

>  <m_score__min__energy>  (24) 
-7.3300000000000001

>  <m_primary>  (24) 
energy

$$$$
24:0
     RDKit          3D

 60 63  0  0  0  0  0  0  0  0999 V2000
   -1.4540   17.4250  -34.1530 C   0  0  0  0  0  0  0  0  0  0  0  0
   -1.6560   18.8130  -34.3990 O   0  0  0  0  0  0  0  0  0  0  0  0
   -2.1550   19.7200  -33.4510 C   0  0  0  0  0  0  0  0  0  0  0  0
   -1.6860   21.0440  -33.3520 C   0  0  0  0  0  0  0  0  0  0  0  0
   -2.2190   21.9100  -32.3940 C   0  0  0  0  0  0  0  0  0  0  0  0
   -3.2400   21.4770  -31.5360 C   0  0  0  0  0  0  0  0  0  0  0  0
   -3.7740   22.3680  -30.5340 N   0  0  0  0  0  0  0  0  0  0  0  0
   -4.7270   23.3200  -30.8500 C   0  0  0  0  0  0  0  0  0  0  0  0
   -5.3650   23.4210  -32.2300 C   0  0  0  0  0  0  0  0  0  0  0  0
   -6.7690   22.7750  -32.3490 C   0  0  2  0  0  0  0  0  0  0  0  0
   -7.8700   23.5530  -31.6110 C   0  0  0  0  0  0  0  0  0  0  0  0
   -9.2580   22.9890  -31.9650 C   0  0  0  0  0  0  0  0  0  0  0  0
   -9.2210   21.4810  -32.2760 C   0  0  0  0  0  0  0  0  0  0  0  0
   -8.1470   20.8300  -31.5070 N   0  0  0  0  0  0  0  0  0  0  0  0
   -8.2610   19.0930  -31.6490 S   0  0  0  0  0  0  0  0  0  0  0  0
   -8.7090   18.7320  -33.0390 O   0  0  0  0  0  0  0  0  0  0  0  0
   -9.2560   18.5570  -30.6570 O   0  0  0  0  0  0  0  0  0  0  0  0
   -6.6620   18.3530  -31.3500 C   0  0  0  0  0  0  0  0  0  0  0  0
   -6.0500   17.8900  -32.6430 C   0  0  0  0  0  0  0  0  0  0  0  0
   -5.4350   16.6280  -32.7240 C   0  0  0  0  0  0  0  0  0  0  0  0
   -4.8390   16.2140  -33.9190 C   0  0  0  0  0  0  0  0  0  0  0  0
   -4.8440   17.0540  -35.0350 C   0  0  0  0  0  0  0  0  0  0  0  0
   -5.4430   18.3150  -34.9570 C   0  0  0  0  0  0  0  0  0  0  0  0
   -6.0410   18.7350  -33.7650 C   0  0  0  0  0  0  0  0  0  0  0  0
   -6.8020   21.2790  -31.9380 C   0  0  0  0  0  0  0  0  0  0  0  0
   -5.1430   24.2330  -29.8660 C   0  0  0  0  0  0  0  0  0  0  0  0
   -4.6370   24.1470  -28.5750 C   0  0  0  0  0  0  0  0  0  0  0  0
   -3.7080   23.1630  -28.2620 C   0  0  0  0  0  0  0  0  0  0  0  0
   -3.2750   22.2820  -29.2550 C   0  0  0  0  0  0  0  0  0  0  0  0
   -2.4090   21.4140  -28.9590 O   0  0  0  0  0  0  0  0  0  0  0  0
   -3.6860   20.1480  -31.6150 C   0  0  0  0  0  0  0  0  0  0  0  0
   -3.1530   19.2810  -32.5730 C   0  0  0  0  0  0  0  0  0  0  0  0
   -1.4278   17.2449  -33.0682 H   0  0  0  0  0  0  0  0  0  0  0  0
   -2.2779   16.8496  -34.6004 H   0  0  0  0  0  0  0  0  0  0  0  0
   -0.5003   17.1083  -34.6004 H   0  0  0  0  0  0  0  0  0  0  0  0
   -0.8968   21.3979  -34.0317 H   0  0  0  0  0  0  0  0  0  0  0  0
   -1.8354   22.9377  -32.3123 H   0  0  0  0  0  0  0  0  0  0  0  0
   -5.4563   24.4866  -32.4870 H   0  0  0  0  0  0  0  0  0  0  0  0
   -4.7095   22.8625  -32.9144 H   0  0  0  0  0  0  0  0  0  0  0  0
   -6.9892   22.8288  -33.4254 H   0  0  0  0  0  0  0  0  0  0  0  0
   -7.7098   23.4660  -30.5262 H   0  0  0  0  0  0  0  0  0  0  0  0
   -7.8261   24.6086  -31.9172 H   0  0  0  0  0  0  0  0  0  0  0  0
   -9.9344   23.1570  -31.1140 H   0  0  0  0  0  0  0  0  0  0  0  0
   -9.6085   23.5079  -32.8694 H   0  0  0  0  0  0  0  0  0  0  0  0
  -10.1870   21.0301  -32.0047 H   0  0  0  0  0  0  0  0  0  0  0  0
   -9.0297   21.3403  -33.3501 H   0  0  0  0  0  0  0  0  0  0  0  0
   -6.0003   19.0963  -30.8813 H   0  0  0  0  0  0  0  0  0  0  0  0
   -6.7881   17.4867  -30.6840 H   0  0  0  0  0  0  0  0  0  0  0  0
   -5.4228   15.9656  -31.8459 H   0  0  0  0  0  0  0  0  0  0  0  0
   -4.3646   15.2235  -33.9806 H   0  0  0  0  0  0  0  0  0  0  0  0
   -4.3770   16.7237  -35.9746 H   0  0  0  0  0  0  0  0  0  0  0  0
   -5.4438   18.9777  -35.8349 H   0  0  0  0  0  0  0  0  0  0  0  0
   -6.5058   19.7302  -33.7057 H   0  0  0  0  0  0  0  0  0  0  0  0
   -6.0980   21.1276  -31.1064 H   0  0  0  0  0  0  0  0  0  0  0  0
   -6.5235   20.6870  -32.8223 H   0  0  0  0  0  0  0  0  0  0  0  0
   -5.8712   25.0178  -30.1186 H   0  0  0  0  0  0  0  0  0  0  0  0
   -4.9710   24.8560  -27.8031 H   0  0  0  0  0  0  0  0  0  0  0  0
   -3.3157   23.0783  -27.2378 H   0  0  0  0  0  0  0  0  0  0  0  0
   -4.4584   19.7875  -30.9197 H   0  0  0  0  0  0  0  0  0  0  0  0
   -3.5204   18.2462  -32.6375 H   0  0  0  0  0  0  0  0  0  0  0  0
  1  2  1  0
  2  3  1  0
  3  4  2  0
  4  5  1  0
  5  6  2  0
  6  7  1  0
  7  8  1  0
  8  9  1  0
  9 10  1  0
 10 11  1  0
 11 12  1  0
 12 13  1  0
 13 14  1  0
 14 15  1  0
 15 16  2  0
 15 17  2  0
 15 18  1  0
 18 19  1  0
 19 20  2  0
 20 21  1  0
 21 22  2  0
 22 23  1  0
 23 24  2  0
 14 25  1  0
  8 26  2  0
 26 27  1  0
 27 28  2  0
 28 29  1  0
 29 30  2  0
  6 31  1  0
 31 32  2  0
 32  3  1  0
 29  7  1  0
 25 10  1  0
 24 19  1  0
  1 33  1  0
  1 34  1  0
  1 35  1  0
  4 36  1  0
  5 37  1  0
  9 38  1  0
  9 39  1  0
 10 40  1  6
 11 41  1  0
 11 42  1  0
 12 43  1  0
 12 44  1  0
 13 45  1  0
 13 46  1  0
 18 47  1  0
 18 48  1  0
 20 49  1  0
 21 50  1  0
 22 51  1  0
 23 52  1  0
 24 53  1  0
 25 54  1  0
 25 55  1  0
 26 56  1  0
 27 57  1  0
 28 58  1  0
 31 59  1  0
 32 60  1  0
M  END
>  <UniqueID>  (25) 
24

>  <SMILES>  (25) 
COc1ccc(-n2c(C[C@@H]3CCCN(S(=O)(=O)Cc4ccccc4)C3)cccc2=O)cc1

>  <Energy>  (25) 
73.33257903121053

>  <Genealogy>  (25) 
COc1ccc(-n2c(C[C@@H]3CCCN(S(=O)(=O)Cc4ccccc4)C3)cccc2=O)cc1 (chirality)
COc1ccc(-n2c(C[C@@H]3CCCN(S(=O)(=O)Cc4ccccc4)C3)cccc2=O)cc1 (3D coordinates assigned)
COc1ccc(-n2c(C[C@@H]3CCCN(S(=O)(=O)Cc4ccccc4)C3)cccc2=O)cc1 (nonaromatic ring conformer: 73.33257903121053 kcal/mol)

>  <smiles>  (25) 
COc1ccc(-n2c(CC3CCCN(S(=O)(=O)Cc4ccccc4)C3)cccc2=O)cc1

>  <score_type>  (25) 
oracle

>  <origin>  (25) 
adgpu

>  <m_score__min__energy>  (25) 
-10.59

>  <m_primary>  (25) 
energy

$$$$
25:0
     RDKit          3D

 43 45  0  0  0  0  0  0  0  0999 V2000
   -1.7390   20.3350  -26.7730 C   0  0  0  0  0  0  0  0  0  0  0  0
   -1.2200   21.6120  -27.1330 O   0  0  0  0  0  0  0  0  0  0  0  0
   -1.8500   22.5060  -28.0130 C   0  0  0  0  0  0  0  0  0  0  0  0
   -1.3600   23.8130  -28.0880 C   0  0  0  0  0  0  0  0  0  0  0  0
   -1.9500   24.7550  -28.9360 C   0  0  0  0  0  0  0  0  0  0  0  0
   -1.4150   26.0510  -28.9620 O   0  0  0  0  0  0  0  0  0  0  0  0
   -0.8280   26.7040  -27.8410 C   0  0  0  0  0  0  0  0  0  0  0  0
   -3.0480   24.3750  -29.7290 C   0  0  0  0  0  0  0  0  0  0  0  0
   -3.5450   23.0610  -29.6820 C   0  0  0  0  0  0  0  0  0  0  0  0
   -4.7030   22.6850  -30.5300 C   0  0  0  0  0  0  0  0  0  0  0  0
   -4.4880   22.1790  -31.6650 O   0  0  0  0  0  0  0  0  0  0  0  0
   -6.0550   22.8970  -30.0820 N   0  0  0  0  0  0  0  0  0  0  0  0
   -7.2140   22.4550  -30.8100 C   0  0  0  0  0  0  0  0  0  0  0  0
   -8.0600   23.4080  -31.4000 C   0  0  0  0  0  0  0  0  0  0  0  0
   -9.2010   23.0030  -32.0990 C   0  0  0  0  0  0  0  0  0  0  0  0
   -9.5170   21.6470  -32.2000 C   0  0  0  0  0  0  0  0  0  0  0  0
   -8.6970   20.6900  -31.5920 C   0  0  0  0  0  0  0  0  0  0  0  0
   -9.1150   18.9500  -31.7010 S   0  0  0  0  0  0  0  0  0  0  0  0
   -7.6720   18.5800  -32.6910 C   0  0  0  0  0  0  0  0  0  0  0  0
   -7.1430   17.3280  -32.6780 N   0  0  0  0  0  0  0  0  0  0  0  0
   -6.0420   17.0290  -33.4150 C   0  0  0  0  0  0  0  0  0  0  0  0
   -5.4430   18.0140  -34.2010 C   0  0  0  0  0  0  0  0  0  0  0  0
   -6.0020   19.2920  -34.2030 C   0  0  0  0  0  0  0  0  0  0  0  0
   -7.1030   19.5520  -33.4520 N   0  0  0  0  0  0  0  0  0  0  0  0
   -7.5540   21.0920  -30.8900 C   0  0  0  0  0  0  0  0  0  0  0  0
   -2.9480   22.1330  -28.8110 C   0  0  0  0  0  0  0  0  0  0  0  0
   -1.7739   20.2491  -25.6769 H   0  0  0  0  0  0  0  0  0  0  0  0
   -2.7540   20.2231  -27.1821 H   0  0  0  0  0  0  0  0  0  0  0  0
   -1.0899   19.5468  -27.1821 H   0  0  0  0  0  0  0  0  0  0  0  0
   -0.4975   24.1046  -27.4707 H   0  0  0  0  0  0  0  0  0  0  0  0
   -1.2227   26.2650  -26.9128 H   0  0  0  0  0  0  0  0  0  0  0  0
    0.2640   26.5753  -27.8721 H   0  0  0  0  0  0  0  0  0  0  0  0
   -1.0719   27.7762  -27.8721 H   0  0  0  0  0  0  0  0  0  0  0  0
   -3.5223   25.1133  -30.3923 H   0  0  0  0  0  0  0  0  0  0  0  0
   -6.2260   23.4370  -29.2070 H   0  0  0  0  0  0  0  0  0  0  0  0
   -7.8237   24.4787  -31.3117 H   0  0  0  0  0  0  0  0  0  0  0  0
   -9.8513   23.7546  -32.5705 H   0  0  0  0  0  0  0  0  0  0  0  0
  -10.4109   21.3308  -32.7577 H   0  0  0  0  0  0  0  0  0  0  0  0
   -5.6233   16.0121  -33.3923 H   0  0  0  0  0  0  0  0  0  0  0  0
   -4.5515   17.7882  -34.8045 H   0  0  0  0  0  0  0  0  0  0  0  0
   -5.5511   20.0888  -34.8127 H   0  0  0  0  0  0  0  0  0  0  0  0
   -6.9195   20.3393  -30.3992 H   0  0  0  0  0  0  0  0  0  0  0  0
   -3.3419   21.1076  -28.7526 H   0  0  0  0  0  0  0  0  0  0  0  0
  1  2  1  0
  2  3  1  0
  3  4  2  0
  4  5  1  0
  5  6  1  0
  6  7  1  0
  5  8  2  0
  8  9  1  0
  9 10  1  0
 10 11  2  0
 10 12  1  0
 12 13  1  0
 13 14  2  0
 14 15  1  0
 15 16  2  0
 16 17  1  0
 17 18  1  0
 18 19  1  0
 19 20  2  0
 20 21  1  0
 21 22  2  0
 22 23  1  0
 23 24  2  0
 17 25  2  0
  9 26  2  0
 26  3  1  0
 25 13  1  0
 24 19  1  0
  1 27  1  0
  1 28  1  0
  1 29  1  0
  4 30  1  0
  7 31  1  0
  7 32  1  0
  7 33  1  0
  8 34  1  0
 12 35  1  0
 14 36  1  0
 15 37  1  0
 16 38  1  0
 21 39  1  0
 22 40  1  0
 23 41  1  0
 25 42  1  0
 26 43  1  0
M  END
>  <UniqueID>  (26) 
25

>  <SMILES>  (26) 
COc1cc(OC)cc(C(=O)Nc2cccc(Sc3ncccn3)c2)c1

>  <Energy>  (26) 
47.979673000399465

>  <Genealogy>  (26) 
COc1cc(OC)cc(C(=O)Nc2cccc(Sc3ncccn3)c2)c1 (3D coordinates assigned)
COc1cc(OC)cc(C(=O)Nc2cccc(Sc3ncccn3)c2)c1 (optimized conformer: 47.979673000399465 kcal/mol)

>  <smiles>  (26) 
COc1cc(OC)cc(C(=O)Nc2cccc(Sc3ncccn3)c2)c1

>  <score_type>  (26) 
oracle

>  <origin>  (26) 
adgpu

>  <m_score__min__energy>  (26) 
-8.1999999999999993

>  <m_primary>  (26) 
energy

$$$$
26:0
     RDKit          3D

 43 45  0  0  0  0  0  0  0  0999 V2000
    0.2930   21.1390  -35.2680 C   0  0  0  0  0  0  0  0  0  0  0  0
   -0.9430   21.2120  -34.5640 O   0  0  0  0  0  0  0  0  0  0  0  0
   -1.0750   21.1070  -33.1690 C   0  0  0  0  0  0  0  0  0  0  0  0
    0.0500   21.1060  -32.3190 C   0  0  0  0  0  0  0  0  0  0  0  0
   -0.1070   20.9920  -30.9380 C   0  0  0  0  0  0  0  0  0  0  0  0
   -1.3820   20.8770  -30.3860 C   0  0  0  0  0  0  0  0  0  0  0  0
   -2.5060   20.8780  -31.2130 C   0  0  0  0  0  0  0  0  0  0  0  0
   -2.3690   20.9970  -32.6120 C   0  0  0  0  0  0  0  0  0  0  0  0
   -3.5200   21.0040  -33.4790 N   0  0  0  0  0  0  0  0  0  0  0  0
   -5.1060   20.4790  -33.0050 S   0  0  0  0  0  0  0  0  0  0  0  0
   -5.0060   19.3360  -32.0350 O   0  0  0  0  0  0  0  0  0  0  0  0
   -5.8800   20.0440  -34.2170 O   0  0  0  0  0  0  0  0  0  0  0  0
   -5.9230   21.8250  -32.2190 C   0  0  0  0  0  0  0  0  0  0  0  0
   -7.3190   21.8560  -32.1120 C   0  0  0  0  0  0  0  0  0  0  0  0
   -7.9510   22.9570  -31.5310 C   0  0  0  0  0  0  0  0  0  0  0  0
   -7.1970   24.0420  -31.0730 C   0  0  0  0  0  0  0  0  0  0  0  0
   -5.7960   24.0340  -31.1940 C   0  0  0  0  0  0  0  0  0  0  0  0
   -5.0020   25.1990  -30.7330 C   0  0  0  0  0  0  0  0  0  0  0  0
   -5.5860   26.2920  -30.5100 O   0  0  0  0  0  0  0  0  0  0  0  0
   -3.5920   25.1120  -30.4800 N   0  0  0  0  0  0  0  0  0  0  0  0
   -2.9580   24.4000  -29.4050 C   0  0  0  0  0  0  0  0  0  0  0  0
   -3.4950   23.2080  -28.8890 C   0  0  0  0  0  0  0  0  0  0  0  0
   -2.8500   22.5480  -27.8420 C   0  0  0  0  0  0  0  0  0  0  0  0
   -1.6610   23.0720  -27.3330 C   0  0  0  0  0  0  0  0  0  0  0  0
   -1.1390   24.2110  -27.8580 N   0  0  0  0  0  0  0  0  0  0  0  0
   -1.7490   24.8780  -28.8740 C   0  0  0  0  0  0  0  0  0  0  0  0
   -1.2260   25.9300  -29.3290 O   0  0  0  0  0  0  0  0  0  0  0  0
   -5.1660   22.9030  -31.7450 C   0  0  0  0  0  0  0  0  0  0  0  0
    1.1229   21.0900  -34.5477 H   0  0  0  0  0  0  0  0  0  0  0  0
    0.3024   20.2387  -35.9000 H   0  0  0  0  0  0  0  0  0  0  0  0
    0.4083   22.0319  -35.9000 H   0  0  0  0  0  0  0  0  0  0  0  0
    1.0588   21.1958  -32.7483 H   0  0  0  0  0  0  0  0  0  0  0  0
    0.7768   20.9928  -30.2831 H   0  0  0  0  0  0  0  0  0  0  0  0
   -1.5022   20.7853  -29.2964 H   0  0  0  0  0  0  0  0  0  0  0  0
   -3.5085   20.7851  -30.7698 H   0  0  0  0  0  0  0  0  0  0  0  0
   -3.4240   21.3440  -34.4620 H   0  0  0  0  0  0  0  0  0  0  0  0
   -7.9179   21.0125  -32.4859 H   0  0  0  0  0  0  0  0  0  0  0  0
   -9.0465   22.9710  -31.4331 H   0  0  0  0  0  0  0  0  0  0  0  0
   -7.7021   24.9057  -30.6160 H   0  0  0  0  0  0  0  0  0  0  0  0
   -4.4235   22.7953  -29.3103 H   0  0  0  0  0  0  0  0  0  0  0  0
   -3.2746   21.6241  -27.4223 H   0  0  0  0  0  0  0  0  0  0  0  0
   -1.1458   22.5621  -26.5056 H   0  0  0  0  0  0  0  0  0  0  0  0
   -4.0682   22.8655  -31.8039 H   0  0  0  0  0  0  0  0  0  0  0  0
  1  2  1  0
  2  3  1  0
  3  4  2  0
  4  5  1  0
  5  6  2  0
  6  7  1  0
  7  8  2  0
  8  9  1  0
  9 10  1  0
 10 11  2  0
 10 12  2  0
 10 13  1  0
 13 14  2  0
 14 15  1  0
 15 16  2  0
 16 17  1  0
 17 18  1  0
 18 19  2  0
 18 20  1  0
 20 21  1  0
 21 22  2  0
 22 23  1  0
 23 24  2  0
 24 25  1  0
 25 26  1  0
 26 27  2  0
 17 28  2  0
  8  3  1  0
 28 13  1  0
 26 21  1  0
  1 29  1  0
  1 30  1  0
  1 31  1  0
  4 32  1  0
  5 33  1  0
  6 34  1  0
  7 35  1  0
  9 36  1  0
 14 37  1  0
 15 38  1  0
 16 39  1  0
 22 40  1  0
 23 41  1  0
 24 42  1  0
 28 43  1  0
M  CHG  2  20  -1  25  -1
M  END
>  <UniqueID>  (27) 
26

>  <SMILES>  (27) 
COc1ccccc1NS(=O)(=O)c1cccc(C(=O)[N-]c2ccc[n-]c2=O)c1

>  <Energy>  (27) 
55.48861245452412

>  <Genealogy>  (27) 
COc1ccccc1NS(=O)(=O)c1cccc(C(=O)[N-]c2ccc[n-]c2=O)c1 (protonated)
COc1ccccc1NS(=O)(=O)c1cccc(C(=O)[N-]c2ccc[n-]c2=O)c1 (3D coordinates assigned)
COc1ccccc1NS(=O)(=O)c1cccc(C(=O)[N-]c2ccc[n-]c2=O)c1 (optimized conformer: 55.48861245452412 kcal/mol)

>  <smiles>  (27) 
COc1ccccc1NS(=O)(=O)c1cccc(C(=O)Nc2ccc[nH]c2=O)c1

>  <score_type>  (27) 
oracle

>  <origin>  (27) 
adgpu

>  <m_score__min__energy>  (27) 
-11.1

>  <m_primary>  (27) 
energy

$$$$
27:0
     RDKit          3D

 59 63  0  0  1  0  0  0  0  0999 V2000
   -6.8630   25.6730  -29.5000 C   0  0  0  0  0  0  0  0  0  0  0  0
   -5.9050   24.5750  -29.7370 C   0  0  0  0  0  0  0  0  0  0  0  0
   -6.2560   23.5590  -30.5690 N   0  0  0  0  0  0  0  0  0  0  0  0
   -5.4260   22.5320  -30.8240 C   0  0  0  0  0  0  0  0  0  0  0  0
   -5.8900   21.4880  -31.7310 C   0  0  0  0  0  0  0  0  0  0  0  0
   -7.2400   21.3930  -31.9990 C   0  0  0  0  0  0  0  0  0  0  0  0
   -7.7130   20.4050  -32.8630 C   0  0  0  0  0  0  0  0  0  0  0  0
   -6.8460   19.5130  -33.4630 C   0  0  0  0  0  0  0  0  0  0  0  0
   -5.4900   19.6000  -33.2000 C   0  0  0  0  0  0  0  0  0  0  0  0
   -4.5240   18.6730  -33.8140 C   0  0  0  0  0  0  0  0  0  0  0  0
   -4.9220   17.5970  -34.5800 C   0  0  0  0  0  0  0  0  0  0  0  0
   -4.0160   16.7240  -35.1580 C   0  0  0  0  0  0  0  0  0  0  0  0
   -2.6550   16.9260  -34.9670 C   0  0  0  0  0  0  0  0  0  0  0  0
   -1.6960   16.0780  -35.5230 O   0  0  0  0  0  0  0  0  0  0  0  0
   -2.2340   18.0060  -34.1950 C   0  0  0  0  0  0  0  0  0  0  0  0
   -3.1690   18.8680  -33.6270 C   0  0  0  0  0  0  0  0  0  0  0  0
   -5.0460   20.5870  -32.3400 C   0  0  0  0  0  0  0  0  0  0  0  0
   -4.2070   22.5270  -30.2230 C   0  0  0  0  0  0  0  0  0  0  0  0
   -3.8770   23.5710  -29.3850 C   0  0  0  0  0  0  0  0  0  0  0  0
   -2.7330   23.5560  -28.8300 N   0  0  0  0  0  0  0  0  0  0  0  0
   -2.2260   24.5420  -27.9410 C   0  0  0  0  0  0  0  0  0  0  0  0
   -2.8130   24.7080  -26.7060 C   0  0  0  0  0  0  0  0  0  0  0  0
   -2.3610   25.6550  -25.7870 C   0  0  0  0  0  0  0  0  0  0  0  0
   -1.2760   26.4860  -26.0940 C   0  0  0  0  0  0  0  0  0  0  0  0
   -0.8030   27.4450  -25.1630 N   0  0  0  0  0  0  0  0  0  0  0  0
   -0.6540   27.1760  -23.7370 C   0  0  0  0  0  0  0  0  0  0  0  0
    0.8330   27.4400  -23.4540 C   0  0  0  0  0  0  0  0  0  0  0  0
    1.1090   28.7530  -23.8180 O   0  0  0  0  0  0  0  0  0  0  0  0
    1.0260   28.9480  -25.2160 C   0  0  0  0  0  0  0  0  0  0  0  0
   -0.4250   28.8090  -25.5630 C   0  0  0  0  0  0  0  0  0  0  0  0
   -0.7090   26.3050  -27.3220 C   0  0  0  0  0  0  0  0  0  0  0  0
   -1.1590   25.3580  -28.2430 C   0  0  0  0  0  0  0  0  0  0  0  0
   -4.6960   24.5990  -29.1240 N   0  0  0  0  0  0  0  0  0  0  0  0
   -6.9915   25.8203  -28.4175 H   0  0  0  0  0  0  0  0  0  0  0  0
   -6.4789   26.5989  -29.9530 H   0  0  0  0  0  0  0  0  0  0  0  0
   -7.8324   25.4180  -29.9530 H   0  0  0  0  0  0  0  0  0  0  0  0
   -7.9440   22.0968  -31.5311 H   0  0  0  0  0  0  0  0  0  0  0  0
   -8.7913   20.3355  -33.0692 H   0  0  0  0  0  0  0  0  0  0  0  0
   -7.2301   18.7396  -34.1444 H   0  0  0  0  0  0  0  0  0  0  0  0
   -5.9973   17.4265  -34.7372 H   0  0  0  0  0  0  0  0  0  0  0  0
   -4.3711   15.8772  -35.7636 H   0  0  0  0  0  0  0  0  0  0  0  0
   -1.3050   16.2760  -36.4450 H   0  0  0  0  0  0  0  0  0  0  0  0
   -1.1597   18.1788  -34.0333 H   0  0  0  0  0  0  0  0  0  0  0  0
   -2.8232   19.7176  -33.0199 H   0  0  0  0  0  0  0  0  0  0  0  0
   -3.9679   20.6556  -32.1326 H   0  0  0  0  0  0  0  0  0  0  0  0
   -3.4973   21.7058  -30.4017 H   0  0  0  0  0  0  0  0  0  0  0  0
   -3.6682   24.0714  -26.4350 H   0  0  0  0  0  0  0  0  0  0  0  0
   -2.8613   25.7501  -24.8120 H   0  0  0  0  0  0  0  0  0  0  0  0
   -1.2892   27.8511  -23.1447 H   0  0  0  0  0  0  0  0  0  0  0  0
   -0.9578   26.1535  -23.4683 H   0  0  0  0  0  0  0  0  0  0  0  0
    1.0412   27.2970  -22.3834 H   0  0  0  0  0  0  0  0  0  0  0  0
    1.4624   26.7426  -24.0262 H   0  0  0  0  0  0  0  0  0  0  0  0
    1.3897   29.9507  -25.4850 H   0  0  0  0  0  0  0  0  0  0  0  0
    1.6442   28.2211  -25.7632 H   0  0  0  0  0  0  0  0  0  0  0  0
   -1.0234   29.5496  -25.0121 H   0  0  0  0  0  0  0  0  0  0  0  0
   -0.6036   28.9812  -26.6347 H   0  0  0  0  0  0  0  0  0  0  0  0
    0.1466   26.9380  -27.6002 H   0  0  0  0  0  0  0  0  0  0  0  0
   -0.6575   25.2628  -29.2174 H   0  0  0  0  0  0  0  0  0  0  0  0
   -4.4050   25.3670  -28.4840 H   0  0  0  0  0  0  0  0  0  0  0  0
  1  2  1  0
  2  3  2  0
  3  4  1  0
  4  5  1  0
  5  6  2  0
  6  7  1  0
  7  8  2  0
  8  9  1  0
  9 10  1  0
 10 11  2  0
 11 12  1  0
 12 13  2  0
 13 14  1  0
 13 15  1  0
 15 16  2  0
  9 17  2  0
  4 18  2  0
 18 19  1  0
 19 20  2  0
 20 21  1  0
 21 22  2  0
 22 23  1  0
 23 24  2  0
 24 25  1  0
 25 26  1  0
 26 27  1  0
 27 28  1  0
 28 29  1  0
 29 30  1  0
 24 31  1  0
 31 32  2  0
 19 33  1  0
 33  2  1  0
 17  5  1  0
 32 21  1  0
 16 10  1  0
 30 25  1  0
  1 34  1  0
  1 35  1  0
  1 36  1  0
  6 37  1  0
  7 38  1  0
  8 39  1  0
 11 40  1  0
 12 41  1  0
 14 42  1  0
 15 43  1  0
 16 44  1  0
 17 45  1  0
 18 46  1  0
 22 47  1  0
 23 48  1  0
 26 49  1  0
 26 50  1  0
 27 51  1  0
 27 52  1  0
 29 53  1  0
 29 54  1  0
 30 55  1  0
 30 56  1  0
 31 57  1  0
 32 58  1  0
 33 59  1  0
M  END
>  <smiles>  (28) 
Cc1nc(-c2cccc(-c3ccc(O)cc3)c2)cc(=Nc2ccc(N3CCOCC3)cc2)[nH]1

>  <score_type>  (28) 
oracle

>  <origin>  (28) 
adgpu

>  <m_score__min__energy>  (28) 
-9.6999999999999993

>  <m_primary>  (28) 
energy

$$$$
28:0
     RDKit          3D

 48 51  0  0  0  0  0  0  0  0999 V2000
   -1.7550   20.0100  -26.8640 C   0  0  0  0  0  0  0  0  0  0  0  0
   -1.0670   20.9530  -27.6810 O   0  0  0  0  0  0  0  0  0  0  0  0
   -1.6910   21.9990  -28.3790 C   0  0  0  0  0  0  0  0  0  0  0  0
   -2.0670   23.1430  -27.6670 C   0  0  0  0  0  0  0  0  0  0  0  0
   -2.6810   24.2160  -28.3200 C   0  0  0  0  0  0  0  0  0  0  0  0
   -2.9170   24.1660  -29.6970 C   0  0  0  0  0  0  0  0  0  0  0  0
   -3.5440   25.2860  -30.3390 N   0  0  0  0  0  0  0  0  0  0  0  0
   -4.9550   25.4700  -30.5220 C   0  0  0  0  0  0  0  0  0  0  0  0
   -5.4240   26.6380  -30.4760 O   0  0  0  0  0  0  0  0  0  0  0  0
   -5.8620   24.3330  -30.8000 C   0  0  0  0  0  0  0  0  0  0  0  0
   -6.4420   24.1730  -32.0700 C   0  0  0  0  0  0  0  0  0  0  0  0
   -7.2540   23.0690  -32.3410 C   0  0  0  0  0  0  0  0  0  0  0  0
   -7.5070   22.1180  -31.3450 C   0  0  0  0  0  0  0  0  0  0  0  0
   -8.4500   20.6810  -31.7260 S   0  0  0  0  0  0  0  0  0  0  0  0
   -9.5200   21.0390  -32.7190 O   0  0  0  0  0  0  0  0  0  0  0  0
   -9.0950   20.1520  -30.4760 O   0  0  0  0  0  0  0  0  0  0  0  0
   -7.4080   19.4700  -32.3990 N   0  0  0  0  0  0  0  0  0  0  0  0
   -7.7980   18.0860  -32.6620 C   0  0  0  0  0  0  0  0  0  0  0  0
   -6.5440   17.4020  -33.2610 C   0  0  0  0  0  0  0  0  0  0  0  0
   -5.5300   18.4940  -33.2810 C   0  0  0  0  0  0  0  0  0  0  0  0
   -4.2070   18.4350  -33.7240 C   0  0  0  0  0  0  0  0  0  0  0  0
   -3.4230   19.5980  -33.6490 C   0  0  0  0  0  0  0  0  0  0  0  0
   -3.9700   20.7910  -33.1370 C   0  0  0  0  0  0  0  0  0  0  0  0
   -5.3040   20.8250  -32.6960 C   0  0  0  0  0  0  0  0  0  0  0  0
   -6.0600   19.6530  -32.7830 C   0  0  0  0  0  0  0  0  0  0  0  0
   -6.9530   22.2870  -30.0700 C   0  0  0  0  0  0  0  0  0  0  0  0
   -6.1450   23.3930  -29.7950 C   0  0  0  0  0  0  0  0  0  0  0  0
   -2.5710   23.0050  -30.4120 C   0  0  0  0  0  0  0  0  0  0  0  0
   -1.9530   21.9330  -29.7610 C   0  0  0  0  0  0  0  0  0  0  0  0
   -1.5816   20.2477  -25.8041 H   0  0  0  0  0  0  0  0  0  0  0  0
   -2.8329   20.0565  -27.0786 H   0  0  0  0  0  0  0  0  0  0  0  0
   -1.3817   18.9978  -27.0786 H   0  0  0  0  0  0  0  0  0  0  0  0
   -1.8781   23.1988  -26.5848 H   0  0  0  0  0  0  0  0  0  0  0  0
   -2.9804   25.1056  -27.7464 H   0  0  0  0  0  0  0  0  0  0  0  0
   -6.2557   24.9209  -32.8548 H   0  0  0  0  0  0  0  0  0  0  0  0
   -7.6963   22.9464  -33.3407 H   0  0  0  0  0  0  0  0  0  0  0  0
   -8.0968   17.5879  -31.7279 H   0  0  0  0  0  0  0  0  0  0  0  0
   -8.6566   18.0301  -33.3474 H   0  0  0  0  0  0  0  0  0  0  0  0
   -6.2106   16.5671  -32.6271 H   0  0  0  0  0  0  0  0  0  0  0  0
   -6.7260   16.9673  -34.2549 H   0  0  0  0  0  0  0  0  0  0  0  0
   -3.7884   17.4991  -34.1226 H   0  0  0  0  0  0  0  0  0  0  0  0
   -2.3778   19.5772  -33.9914 H   0  0  0  0  0  0  0  0  0  0  0  0
   -3.3511   21.6987  -33.0822 H   0  0  0  0  0  0  0  0  0  0  0  0
   -5.7416   21.7502  -32.2928 H   0  0  0  0  0  0  0  0  0  0  0  0
   -7.1548   21.5463  -29.2822 H   0  0  0  0  0  0  0  0  0  0  0  0
   -5.7281   23.5286  -28.7861 H   0  0  0  0  0  0  0  0  0  0  0  0
   -2.7877   22.9402  -31.4885 H   0  0  0  0  0  0  0  0  0  0  0  0
   -1.6705   21.0351  -30.3303 H   0  0  0  0  0  0  0  0  0  0  0  0
  1  2  1  0
  2  3  1  0
  3  4  2  0
  4  5  1  0
  5  6  2  0
  6  7  1  0
  7  8  1  0
  8  9  2  0
  8 10  1  0
 10 11  2  0
 11 12  1  0
 12 13  2  0
 13 14  1  0
 14 15  2  0
 14 16  2  0
 14 17  1  0
 17 18  1  0
 18 19  1  0
 19 20  1  0
 20 21  2  0
 21 22  1  0
 22 23  2  0
 23 24  1  0
 24 25  2  0
 13 26  1  0
 26 27  2  0
  6 28  1  0
 28 29  2  0
 29  3  1  0
 27 10  1  0
 25 17  1  0
 25 20  1  0
  1 30  1  0
  1 31  1  0
  1 32  1  0
  4 33  1  0
  5 34  1  0
 11 35  1  0
 12 36  1  0
 18 37  1  0
 18 38  1  0
 19 39  1  0
 19 40  1  0
 21 41  1  0
 22 42  1  0
 23 43  1  0
 24 44  1  0
 26 45  1  0
 27 46  1  0
 28 47  1  0
 29 48  1  0
M  CHG  1   7  -1
M  END
>  <UniqueID>  (29) 
27

>  <SMILES>  (29) 
COc1ccc([N-]C(=O)c2ccc(S(=O)(=O)N3CCc4ccccc43)cc2)cc1

>  <Energy>  (29) 
73.79217186693347

>  <Genealogy>  (29) 
COc1ccc([N-]C(=O)c2ccc(S(=O)(=O)N3CCc4ccccc43)cc2)cc1 (protonated)
COc1ccc([N-]C(=O)c2ccc(S(=O)(=O)N3CCc4ccccc43)cc2)cc1 (3D coordinates assigned)
COc1ccc([N-]C(=O)c2ccc(S(=O)(=O)N3CCc4ccccc43)cc2)cc1 (nonaromatic ring conformer: 73.79217186693347 kcal/mol)

>  <smiles>  (29) 
COc1ccc(NC(=O)c2ccc(S(=O)(=O)N3CCc4ccccc43)cc2)cc1

>  <score_type>  (29) 
oracle

>  <origin>  (29) 
adgpu

>  <m_score__min__energy>  (29) 
-11.470000000000001

>  <m_primary>  (29) 
energy

$$$$
29:0
     RDKit          3D

 43 45  0  0  0  0  0  0  0  0999 V2000
   -0.5950   22.5260  -29.2730 C   0  0  0  0  0  0  0  0  0  0  0  0
   -2.0140   22.9150  -29.1920 N   0  0  0  0  0  0  0  0  0  0  0  0
   -2.6320   22.2910  -28.0070 C   0  0  0  0  0  0  0  0  0  0  0  0
   -2.7170   22.5260  -30.4380 C   0  0  0  0  0  0  0  0  0  0  0  0
   -3.9180   23.4190  -30.7210 C   0  0  0  0  0  0  0  0  0  0  0  0
   -3.8780   24.7690  -30.3080 C   0  0  0  0  0  0  0  0  0  0  0  0
   -2.7360   25.2960  -29.7140 O   0  0  0  0  0  0  0  0  0  0  0  0
   -4.9880   25.5990  -30.4860 C   0  0  0  0  0  0  0  0  0  0  0  0
   -6.1510   25.1010  -31.0690 C   0  0  0  0  0  0  0  0  0  0  0  0
   -6.2090   23.7730  -31.4900 C   0  0  0  0  0  0  0  0  0  0  0  0
   -5.1010   22.9250  -31.3330 C   0  0  0  0  0  0  0  0  0  0  0  0
   -5.2200   21.5360  -31.8250 C   0  0  0  0  0  0  0  0  0  0  0  0
   -6.3380   20.7630  -31.4880 C   0  0  0  0  0  0  0  0  0  0  0  0
   -6.4600   19.4540  -31.9630 C   0  0  0  0  0  0  0  0  0  0  0  0
   -5.4730   18.9030  -32.8000 C   0  0  0  0  0  0  0  0  0  0  0  0
   -5.6170   17.5130  -33.2970 C   0  0  0  0  0  0  0  0  0  0  0  0
   -6.8360   17.0440  -33.8060 C   0  0  0  0  0  0  0  0  0  0  0  0
   -6.9440   15.7630  -34.2460 N   0  0  0  0  0  0  0  0  0  0  0  0
   -5.8820   14.9160  -34.2030 C   0  0  0  0  0  0  0  0  0  0  0  0
   -6.0000   13.7010  -34.6270 N   0  0  0  0  0  0  0  0  0  0  0  0
   -4.6920   15.3460  -33.7090 N   0  0  0  0  0  0  0  0  0  0  0  0
   -4.5410   16.6160  -33.2550 C   0  0  0  0  0  0  0  0  0  0  0  0
   -4.3580   19.6900  -33.1510 C   0  0  0  0  0  0  0  0  0  0  0  0
   -3.3650   19.1840  -33.9260 F   0  0  0  0  0  0  0  0  0  0  0  0
   -4.2400   20.9980  -32.6720 C   0  0  0  0  0  0  0  0  0  0  0  0
   -0.1869   22.4141  -28.2576 H   0  0  0  0  0  0  0  0  0  0  0  0
   -0.5069   21.5706  -29.8109 H   0  0  0  0  0  0  0  0  0  0  0  0
   -0.0319   23.3029  -29.8109 H   0  0  0  0  0  0  0  0  0  0  0  0
   -2.0520   23.9550  -29.0750 H   0  0  0  0  0  0  0  0  0  0  0  0
   -2.1993   22.7279  -27.0949 H   0  0  0  0  0  0  0  0  0  0  0  0
   -3.7169   22.4719  -28.0212 H   0  0  0  0  0  0  0  0  0  0  0  0
   -2.4406   21.2079  -28.0212 H   0  0  0  0  0  0  0  0  0  0  0  0
   -2.0134   22.6004  -31.2802 H   0  0  0  0  0  0  0  0  0  0  0  0
   -3.0826   21.4961  -30.3132 H   0  0  0  0  0  0  0  0  0  0  0  0
   -4.9432   26.6500  -30.1644 H   0  0  0  0  0  0  0  0  0  0  0  0
   -7.0250   25.7565  -31.1974 H   0  0  0  0  0  0  0  0  0  0  0  0
   -7.1308   23.3863  -31.9491 H   0  0  0  0  0  0  0  0  0  0  0  0
   -7.1240   21.1879  -30.8464 H   0  0  0  0  0  0  0  0  0  0  0  0
   -7.3348   18.8501  -31.6800 H   0  0  0  0  0  0  0  0  0  0  0  0
   -7.7070   17.7144  -33.8493 H   0  0  0  0  0  0  0  0  0  0  0  0
   -6.9030   13.3410  -35.0120 H   0  0  0  0  0  0  0  0  0  0  0  0
   -3.5707   16.9425  -32.8526 H   0  0  0  0  0  0  0  0  0  0  0  0
   -3.3726   21.6095  -32.9613 H   0  0  0  0  0  0  0  0  0  0  0  0
  1  2  1  0
  2  3  1  0
  2  4  1  0
  4  5  1  0
  5  6  2  0
  6  7  1  0
  6  8  1  0
  8  9  2  0
  9 10  1  0
 10 11  2  0
 11 12  1  0
 12 13  2  0
 13 14  1  0
 14 15  2  0
 15 16  1  0
 16 17  1  0
 17 18  2  0
 18 19  1  0
 19 20  2  3
 19 21  1  0
 21 22  1  0
 15 23  1  0
 23 24  1  0
 23 25  2  0
 11  5  1  0
 25 12  1  0
 22 16  2  0
  1 26  1  0
  1 27  1  0
  1 28  1  0
  2 29  1  0
  3 30  1  0
  3 31  1  0
  3 32  1  0
  4 33  1  0
  4 34  1  0
  8 35  1  0
  9 36  1  0
 10 37  1  0
 13 38  1  0
 14 39  1  0
 17 40  1  0
 20 41  1  0
 22 42  1  0
 25 43  1  0
M  CHG  3   2   1   7  -1  21  -1
M  END
>  <UniqueID>  (30) 
28

>  <SMILES>  (30) 
C[NH+](C)Cc1c([O-])cccc1-c1ccc(-c2cnc(=N)[n-]c2)c(F)c1

>  <Energy>  (30) 
61.60757727200748

>  <Genealogy>  (30) 
C[NH+](C)Cc1c([O-])cccc1-c1ccc(-c2cnc(=N)[n-]c2)c(F)c1 (protonated)
C[NH+](C)Cc1c([O-])cccc1-c1ccc(-c2cnc(=N)[n-]c2)c(F)c1 (3D coordinates assigned)
C[NH+](C)Cc1c([O-])cccc1-c1ccc(-c2cnc(=N)[n-]c2)c(F)c1 (optimized conformer: 61.60757727200748 kcal/mol)

>  <smiles>  (30) 
CN(C)Cc1c(O)cccc1-c1ccc(-c2cnc(=N)[nH]c2)c(F)c1

>  <score_type>  (30) 
oracle

>  <origin>  (30) 
adgpu

>  <m_score__min__energy>  (30) 
-9.2699999999999996

>  <m_primary>  (30) 
energy

$$$$
30:0
     RDKit          3D

 50 53  0  0  0  0  0  0  0  0999 V2000
    1.3994   19.1791  -30.8875 H   0  0  0  0  0  0  0  0  0  0  0  0
    0.7240   19.6620  -31.6090 C   0  0  0  0  0  0  0  0  0  0  0  0
   -0.6170   19.8750  -31.2750 C   0  0  0  0  0  0  0  0  0  0  0  0
   -0.9947   19.5464  -30.2955 H   0  0  0  0  0  0  0  0  0  0  0  0
   -1.4830   20.5040  -32.1790 C   0  0  0  0  0  0  0  0  0  0  0  0
   -2.8640   20.6520  -31.8110 N   0  0  0  0  0  0  0  0  0  0  0  0
   -3.8690   19.8900  -32.1390 C   0  0  0  0  0  0  0  0  0  0  0  0
   -3.6870   18.8440  -32.9950 N   0  0  0  0  0  0  0  0  0  0  0  0
   -4.7050   18.0270  -33.3610 C   0  0  0  0  0  0  0  0  0  0  0  0
   -4.4840   16.9550  -34.2350 C   0  0  0  0  0  0  0  0  0  0  0  0
   -3.4766   16.7686  -34.6356 H   0  0  0  0  0  0  0  0  0  0  0  0
   -5.5480   16.1220  -34.5970 C   0  0  0  0  0  0  0  0  0  0  0  0
   -5.3768   15.2805  -35.2845 H   0  0  0  0  0  0  0  0  0  0  0  0
   -6.8310   16.3570  -34.0860 C   0  0  0  0  0  0  0  0  0  0  0  0
   -7.6647   15.6986  -34.3714 H   0  0  0  0  0  0  0  0  0  0  0  0
   -7.0540   17.4280  -33.2130 C   0  0  0  0  0  0  0  0  0  0  0  0
   -8.0622   17.6122  -32.8136 H   0  0  0  0  0  0  0  0  0  0  0  0
   -5.9930   18.2640  -32.8490 C   0  0  0  0  0  0  0  0  0  0  0  0
   -6.1890   19.3100  -32.0090 N   0  0  0  0  0  0  0  0  0  0  0  0
   -5.1800   20.1440  -31.6370 C   0  0  0  0  0  0  0  0  0  0  0  0
   -5.4780   21.1260  -30.8280 N   0  0  0  0  0  0  0  0  0  0  0  0
   -4.6090   22.1530  -30.3360 C   0  0  0  0  0  0  0  0  0  0  0  0
   -3.7320   21.8880  -29.2750 C   0  0  0  0  0  0  0  0  0  0  0  0
   -3.7071   20.8864  -28.8210 H   0  0  0  0  0  0  0  0  0  0  0  0
   -2.8900   22.8920  -28.7930 C   0  0  0  0  0  0  0  0  0  0  0  0
   -2.2197   22.6838  -27.9460 H   0  0  0  0  0  0  0  0  0  0  0  0
   -2.8940   24.1630  -29.3820 C   0  0  0  0  0  0  0  0  0  0  0  0
   -2.0350   25.1770  -28.8480 N   0  0  0  0  0  0  0  0  0  0  0  0
   -0.9200   24.9540  -27.9730 C   0  0  0  0  0  0  0  0  0  0  0  0
    0.2400   24.9240  -28.4620 O   0  0  0  0  0  0  0  0  0  0  0  0
   -1.0840   24.8770  -26.4770 C   0  0  0  0  0  0  0  0  0  0  0  0
   -0.1014   24.6895  -26.0194 H   0  0  0  0  0  0  0  0  0  0  0  0
   -1.7856   24.0609  -26.2494 H   0  0  0  0  0  0  0  0  0  0  0  0
   -1.6600   26.1790  -25.9040 C   0  0  0  0  0  0  0  0  0  0  0  0
   -2.7554   26.0902  -25.8562 H   0  0  0  0  0  0  0  0  0  0  0  0
   -1.3519   27.0026  -26.5649 H   0  0  0  0  0  0  0  0  0  0  0  0
   -1.1300   26.4810  -24.5030 C   0  0  0  0  0  0  0  0  0  0  0  0
   -1.8290   26.0827  -23.7528 H   0  0  0  0  0  0  0  0  0  0  0  0
   -0.1451   26.0085  -24.3738 H   0  0  0  0  0  0  0  0  0  0  0  0
   -1.0344   27.5692  -24.3738 H   0  0  0  0  0  0  0  0  0  0  0  0
   -3.7930   24.4370  -30.4320 C   0  0  0  0  0  0  0  0  0  0  0  0
   -3.8770   25.7130  -30.9790 O   0  0  0  0  0  0  0  0  0  0  0  0
   -4.6290   23.4260  -30.9190 C   0  0  0  0  0  0  0  0  0  0  0  0
   -5.3042   23.6320  -31.7626 H   0  0  0  0  0  0  0  0  0  0  0  0
   -0.9970   20.8760  -33.4480 C   0  0  0  0  0  0  0  0  0  0  0  0
   -1.6758   21.3327  -34.1833 H   0  0  0  0  0  0  0  0  0  0  0  0
    0.3460   20.6660  -33.7750 C   0  0  0  0  0  0  0  0  0  0  0  0
    0.7260   20.9781  -34.7590 H   0  0  0  0  0  0  0  0  0  0  0  0
    1.2070   20.0610  -32.8560 C   0  0  0  0  0  0  0  0  0  0  0  0
    2.5080   19.8500  -33.1790 F   0  0  0  0  0  0  0  0  0  0  0  0
  1  2  1  0
  2  3  2  0
  3  4  1  0
  3  5  1  0
  5  6  1  0
  6  7  2  3
  7  8  1  0
  8  9  1  0
  9 10  2  0
 10 11  1  0
 10 12  1  0
 12 13  1  0
 12 14  2  0
 14 15  1  0
 14 16  1  0
 16 17  1  0
 16 18  2  0
 18 19  1  0
 19 20  1  0
 20 21  2  0
 21 22  1  0
 22 23  2  0
 23 24  1  0
 23 25  1  0
 25 26  1  0
 25 27  2  0
 27 28  1  0
 28 29  1  0
 29 30  2  0
 29 31  1  0
 31 32  1  0
 31 33  1  0
 31 34  1  0
 34 35  1  0
 34 36  1  0
 34 37  1  0
 37 38  1  0
 37 39  1  0
 37 40  1  0
 27 41  1  0
 41 42  1  0
 41 43  2  0
 43 44  1  0
  5 45  2  0
 45 46  1  0
 45 47  1  0
 47 48  1  0
 47 49  2  0
 49 50  1  0
 49  2  1  0
 20  7  1  0
 43 22  1  0
 18  9  1  0
M  CHG  4   8  -1  19  -1  28  -1  42  -1
M  END
>  <UniqueID>  (31) 
29

>  <SMILES>  (31) 
CCCC(=O)[N-]c1ccc(/N=c2/[n-]c3ccccc3[n-]c2=Nc2ccc(F)cc2)cc1[O-]

>  <Energy>  (31) 
79.22304237562548

>  <Genealogy>  (31) 
CCCC(=O)[N-]c1ccc(N=c2[n-]c3ccccc3[n-]c2=Nc2ccc(F)cc2)cc1[O-] (protonated)
CCCC(=O)[N-]c1ccc(/N=c2/[n-]c3ccccc3[n-]c2=Nc2ccc(F)cc2)cc1[O-] (cis-trans isomerization)
CCCC(=O)[N-]c1ccc(/N=c2/[n-]c3ccccc3[n-]c2=Nc2ccc(F)cc2)cc1[O-] (3D coordinates assigned)
CCCC(=O)[N-]c1ccc(/N=c2/[n-]c3ccccc3[n-]c2=Nc2ccc(F)cc2)cc1[O-] (optimized conformer: 79.22304237562548 kcal/mol)

>  <smiles>  (31) 
CCCC(=O)Nc1ccc(N=c2[nH]c3ccccc3[nH]c2=Nc2ccc(F)cc2)cc1O

>  <score_type>  (31) 
oracle

>  <origin>  (31) 
adgpu

>  <m_score__min__energy>  (31) 
-13.24

>  <m_primary>  (31) 
energy

$$$$
31:0
     RDKit          3D

 62 66  0  0  0  0  0  0  0  0999 V2000
   -1.2930   16.4740  -33.4590 O   0  0  0  0  0  0  0  0  0  0  0  0
   -2.0680   17.4510  -33.6430 C   0  0  0  0  0  0  0  0  0  0  0  0
   -3.3940   17.2310  -34.1430 N   0  0  0  0  0  0  0  0  0  0  0  0
   -4.6160   17.7510  -33.5930 C   0  0  0  0  0  0  0  0  0  0  0  0
   -5.2660   18.7920  -34.2700 C   0  0  0  0  0  0  0  0  0  0  0  0
   -6.4570   19.3270  -33.7700 C   0  0  0  0  0  0  0  0  0  0  0  0
   -7.0220   18.8180  -32.5940 C   0  0  0  0  0  0  0  0  0  0  0  0
   -8.5180   19.5080  -31.9710 S   0  0  0  0  0  0  0  0  0  0  0  0
   -9.4980   19.7100  -33.0970 O   0  0  0  0  0  0  0  0  0  0  0  0
   -9.1190   18.5480  -30.9790 O   0  0  0  0  0  0  0  0  0  0  0  0
   -8.1800   21.0380  -31.1900 N   0  0  0  0  0  0  0  0  0  0  0  0
   -9.4030   21.8550  -31.0670 C   0  0  0  0  0  0  0  0  0  0  0  0
   -9.2550   23.0480  -31.9940 C   0  0  0  0  0  0  0  0  0  0  0  0
   -7.7610   23.2260  -32.1360 C   0  0  0  0  0  0  0  0  0  0  0  0
   -7.1970   21.8280  -31.9590 C   0  0  0  0  0  0  0  0  0  0  0  0
   -6.3980   17.7530  -31.9330 C   0  0  0  0  0  0  0  0  0  0  0  0
   -5.2060   17.2170  -32.4320 C   0  0  0  0  0  0  0  0  0  0  0  0
   -1.6270   18.8180  -33.2790 C   0  0  0  0  0  0  0  0  0  0  0  0
   -1.3820   19.7750  -34.2800 C   0  0  0  0  0  0  0  0  0  0  0  0
   -0.9420   21.0540  -33.9430 C   0  0  0  0  0  0  0  0  0  0  0  0
   -0.7380   21.4000  -32.6050 C   0  0  0  0  0  0  0  0  0  0  0  0
   -0.9960   20.4680  -31.5810 C   0  0  0  0  0  0  0  0  0  0  0  0
   -0.7090   20.7860  -30.1270 C   0  0  0  0  0  0  0  0  0  0  0  0
   -1.0560   22.2100  -29.7550 C   0  0  0  0  0  0  0  0  0  0  0  0
   -0.0500   23.0120  -29.3130 N   0  0  0  0  0  0  0  0  0  0  0  0
   -0.2580   24.2770  -28.9510 N   0  0  0  0  0  0  0  0  0  0  0  0
   -1.4900   24.8370  -29.0060 C   0  0  0  0  0  0  0  0  0  0  0  0
   -1.6400   26.0340  -28.6400 O   0  0  0  0  0  0  0  0  0  0  0  0
   -2.5840   24.0800  -29.4620 C   0  0  0  0  0  0  0  0  0  0  0  0
   -2.3750   22.7240  -29.8160 C   0  0  0  0  0  0  0  0  0  0  0  0
   -3.5220   21.8770  -30.3440 C   0  0  0  0  0  0  0  0  0  0  0  0
   -4.9000   22.4370  -29.9820 C   0  0  0  0  0  0  0  0  0  0  0  0
   -4.9700   23.9220  -30.3110 C   0  0  0  0  0  0  0  0  0  0  0  0
   -3.9710   24.6980  -29.4570 C   0  0  0  0  0  0  0  0  0  0  0  0
   -1.4270   19.1760  -31.9310 C   0  0  0  0  0  0  0  0  0  0  0  0
   -4.8363   19.1907  -35.2008 H   0  0  0  0  0  0  0  0  0  0  0  0
   -6.9527   20.1518  -34.3029 H   0  0  0  0  0  0  0  0  0  0  0  0
   -7.7990   20.8320  -30.2360 H   0  0  0  0  0  0  0  0  0  0  0  0
  -10.2816   21.2607  -31.3583 H   0  0  0  0  0  0  0  0  0  0  0  0
   -9.5410   22.1887  -30.0280 H   0  0  0  0  0  0  0  0  0  0  0  0
   -9.7177   22.8427  -32.9706 H   0  0  0  0  0  0  0  0  0  0  0  0
   -9.7507   23.9487  -31.6029 H   0  0  0  0  0  0  0  0  0  0  0  0
   -7.5090   23.6247  -33.1298 H   0  0  0  0  0  0  0  0  0  0  0  0
   -7.3519   23.9393  -31.4054 H   0  0  0  0  0  0  0  0  0  0  0  0
   -7.0315   21.3641  -32.9426 H   0  0  0  0  0  0  0  0  0  0  0  0
   -6.2349   21.8666  -31.4271 H   0  0  0  0  0  0  0  0  0  0  0  0
   -6.8463   17.3366  -31.0188 H   0  0  0  0  0  0  0  0  0  0  0  0
   -4.7270   16.3731  -31.9139 H   0  0  0  0  0  0  0  0  0  0  0  0
   -1.5387   19.5123  -35.3366 H   0  0  0  0  0  0  0  0  0  0  0  0
   -0.7545   21.7945  -34.7345 H   0  0  0  0  0  0  0  0  0  0  0  0
   -0.3738   22.4061  -32.3497 H   0  0  0  0  0  0  0  0  0  0  0  0
   -1.2990   20.1050  -29.4960 H   0  0  0  0  0  0  0  0  0  0  0  0
    0.3721   20.6583  -29.9690 H   0  0  0  0  0  0  0  0  0  0  0  0
   -3.4426   21.8246  -31.4399 H   0  0  0  0  0  0  0  0  0  0  0  0
   -3.4386   20.8848  -29.8764 H   0  0  0  0  0  0  0  0  0  0  0  0
   -5.6713   21.9016  -30.5551 H   0  0  0  0  0  0  0  0  0  0  0  0
   -5.0695   22.3010  -28.9037 H   0  0  0  0  0  0  0  0  0  0  0  0
   -4.7314   24.0703  -31.3745 H   0  0  0  0  0  0  0  0  0  0  0  0
   -5.9850   24.2894  -30.0994 H   0  0  0  0  0  0  0  0  0  0  0  0
   -3.8994   25.7244  -29.8461 H   0  0  0  0  0  0  0  0  0  0  0  0
   -4.3376   24.6780  -28.4201 H   0  0  0  0  0  0  0  0  0  0  0  0
   -1.6108   18.4336  -31.1404 H   0  0  0  0  0  0  0  0  0  0  0  0
  1  2  2  0
  2  3  1  0
  3  4  1  0
  4  5  2  0
  5  6  1  0
  6  7  2  0
  7  8  1  0
  8  9  2  0
  8 10  2  0
  8 11  1  0
 11 12  1  0
 12 13  1  0
 13 14  1  0
 14 15  1  0
  7 16  1  0
 16 17  2  0
  2 18  1  0
 18 19  2  0
 19 20  1  0
 20 21  2  0
 21 22  1  0
 22 23  1  0
 23 24  1  0
 24 25  2  0
 25 26  1  0
 26 27  1  0
 27 28  2  0
 27 29  1  0
 29 30  2  0
 30 31  1  0
 31 32  1  0
 32 33  1  0
 33 34  1  0
 22 35  2  0
 17  4  1  0
 35 18  1  0
 15 11  1  0
 30 24  1  0
 34 29  1  0
  5 36  1  0
  6 37  1  0
 11 38  1  0
 12 39  1  0
 12 40  1  0
 13 41  1  0
 13 42  1  0
 14 43  1  0
 14 44  1  0
 15 45  1  0
 15 46  1  0
 16 47  1  0
 17 48  1  0
 19 49  1  0
 20 50  1  0
 21 51  1  0
 23 52  1  0
 23 53  1  0
 31 54  1  0
 31 55  1  0
 32 56  1  0
 32 57  1  0
 33 58  1  0
 33 59  1  0
 34 60  1  0
 34 61  1  0
 35 62  1  0
M  CHG  3   3  -1  11   1  26  -1
M  END
>  <UniqueID>  (32) 
30

>  <SMILES>  (32) 
O=C([N-]c1ccc(S(=O)(=O)[NH+]2CCCC2)cc1)c1cccc(Cc2n[n-]c(=O)c3c2CCCC3)c1

>  <Energy>  (32) 
76.33480674378679

>  <Genealogy>  (32) 
O=C([N-]c1ccc(S(=O)(=O)[NH+]2CCCC2)cc1)c1cccc(Cc2n[n-]c(=O)c3c2CCCC3)c1 (protonated)
O=C([N-]c1ccc(S(=O)(=O)[NH+]2CCCC2)cc1)c1cccc(Cc2n[n-]c(=O)c3c2CCCC3)c1 (3D coordinates assigned)
O=C([N-]c1ccc(S(=O)(=O)[NH+]2CCCC2)cc1)c1cccc(Cc2n[n-]c(=O)c3c2CCCC3)c1 (nonaromatic ring conformer: 76.33480674378679 kcal/mol)

>  <smiles>  (32) 
O=C(Nc1ccc(S(=O)(=O)N2CCCC2)cc1)c1cccc(Cc2n[nH]c(=O)c3c2CCCC3)c1

>  <score_type>  (32) 
oracle

>  <origin>  (32) 
adgpu

>  <m_score__min__energy>  (32) 
-13.210000000000001

>  <m_primary>  (32) 
energy

$$$$
32:0
     RDKit          3D

 65 68  0  0  0  0  0  0  0  0999 V2000
    1.3980   25.6960  -38.3550 C   0  0  0  0  0  0  0  0  0  0  0  0
    1.8290   24.5510  -37.5640 N   0  0  0  0  0  0  0  0  0  0  0  0
    1.1320   23.9720  -36.4510 C   0  0  0  0  0  0  0  0  0  0  0  0
    0.4100   24.7310  -35.7510 O   0  0  0  0  0  0  0  0  0  0  0  0
    1.2300   22.5340  -36.0880 C   0  0  0  0  0  0  0  0  0  0  0  0
    0.2590   21.9440  -35.2600 C   0  0  0  0  0  0  0  0  0  0  0  0
    0.3470   20.5780  -34.9370 C   0  0  0  0  0  0  0  0  0  0  0  0
   -0.5880   19.9480  -34.1010 O   0  0  0  0  0  0  0  0  0  0  0  0
   -0.5860   20.0540  -32.7040 C   0  0  0  0  0  0  0  0  0  0  0  0
   -1.0020   21.2320  -32.0660 C   0  0  0  0  0  0  0  0  0  0  0  0
   -0.9030   21.3520  -30.6770 C   0  0  0  0  0  0  0  0  0  0  0  0
   -0.3710   20.2980  -29.9110 C   0  0  0  0  0  0  0  0  0  0  0  0
   -0.1080   20.4510  -28.5050 N   0  0  0  0  0  0  0  0  0  0  0  0
   -1.1190   20.1940  -27.5200 C   0  0  0  0  0  0  0  0  0  0  0  0
   -1.9730   19.2820  -27.6980 O   0  0  0  0  0  0  0  0  0  0  0  0
   -1.1690   20.9970  -26.3360 N   0  0  0  0  0  0  0  0  0  0  0  0
   -1.0380   22.4260  -26.3280 C   0  0  0  0  0  0  0  0  0  0  0  0
   -0.5100   23.0600  -25.1970 C   0  0  0  0  0  0  0  0  0  0  0  0
   -0.3660   24.4510  -25.1710 C   0  0  0  0  0  0  0  0  0  0  0  0
   -0.7320   25.2190  -26.2810 C   0  0  0  0  0  0  0  0  0  0  0  0
   -0.5870   26.5690  -26.2340 F   0  0  0  0  0  0  0  0  0  0  0  0
   -1.2150   24.5920  -27.4420 C   0  0  0  0  0  0  0  0  0  0  0  0
   -1.6020   25.3850  -28.6280 C   0  0  0  0  0  0  0  0  0  0  0  0
   -1.1180   26.5360  -28.7840 O   0  0  0  0  0  0  0  0  0  0  0  0
   -2.5580   24.9010  -29.5800 N   0  0  0  0  0  0  0  0  0  0  0  0
   -3.9330   24.5380  -29.2470 C   0  0  0  0  0  0  0  0  0  0  0  0
   -4.8760   24.8830  -30.4060 C   0  0  0  0  0  0  0  0  0  0  0  0
   -4.9890   23.7750  -31.3780 N   0  0  0  0  0  0  0  0  0  0  0  0
   -6.3980   23.3500  -31.5000 C   0  0  0  0  0  0  0  0  0  0  0  0
   -6.5180   22.0640  -32.3430 C   0  0  0  0  0  0  0  0  0  0  0  0
   -5.2990   21.7740  -33.0000 O   0  0  0  0  0  0  0  0  0  0  0  0
   -4.2960   21.4930  -32.0400 C   0  0  0  0  0  0  0  0  0  0  0  0
   -4.1540   22.6210  -30.9960 C   0  0  0  0  0  0  0  0  0  0  0  0
   -1.3750   23.1990  -27.4530 C   0  0  0  0  0  0  0  0  0  0  0  0
   -0.0410   19.0900  -30.5470 C   0  0  0  0  0  0  0  0  0  0  0  0
   -0.1570   18.9680  -31.9350 C   0  0  0  0  0  0  0  0  0  0  0  0
    1.4220   19.8320  -35.4260 C   0  0  0  0  0  0  0  0  0  0  0  0
    2.3680   20.4470  -36.2490 C   0  0  0  0  0  0  0  0  0  0  0  0
    2.2490   21.7640  -36.5610 N   0  0  0  0  0  0  0  0  0  0  0  0
    1.0912   26.5112  -37.6832 H   0  0  0  0  0  0  0  0  0  0  0  0
    2.2293   26.0371  -38.9895 H   0  0  0  0  0  0  0  0  0  0  0  0
    0.5481   25.4043  -38.9895 H   0  0  0  0  0  0  0  0  0  0  0  0
   -0.5693   22.5505  -34.8649 H   0  0  0  0  0  0  0  0  0  0  0  0
   -1.4074   22.0639  -32.6607 H   0  0  0  0  0  0  0  0  0  0  0  0
   -1.2420   22.2734  -30.1809 H   0  0  0  0  0  0  0  0  0  0  0  0
    0.6640   21.0980  -28.2250 H   0  0  0  0  0  0  0  0  0  0  0  0
   -0.2071   22.4617  -24.3251 H   0  0  0  0  0  0  0  0  0  0  0  0
    0.0369   24.9431  -24.2735 H   0  0  0  0  0  0  0  0  0  0  0  0
   -3.9840   23.4573  -29.0484 H   0  0  0  0  0  0  0  0  0  0  0  0
   -4.2438   25.1028  -28.3557 H   0  0  0  0  0  0  0  0  0  0  0  0
   -5.8742   25.1009  -29.9985 H   0  0  0  0  0  0  0  0  0  0  0  0
   -4.4614   25.7553  -30.9325 H   0  0  0  0  0  0  0  0  0  0  0  0
   -6.8046   23.1606  -30.4956 H   0  0  0  0  0  0  0  0  0  0  0  0
   -6.9627   24.1504  -32.0005 H   0  0  0  0  0  0  0  0  0  0  0  0
   -6.7797   21.2240  -31.6828 H   0  0  0  0  0  0  0  0  0  0  0  0
   -7.2991   22.2141  -33.1028 H   0  0  0  0  0  0  0  0  0  0  0  0
   -4.5558   20.5595  -31.5194 H   0  0  0  0  0  0  0  0  0  0  0  0
   -3.3369   21.4024  -32.5710 H   0  0  0  0  0  0  0  0  0  0  0  0
   -4.4764   22.2487  -30.0124 H   0  0  0  0  0  0  0  0  0  0  0  0
   -3.1017   22.9382  -30.9504 H   0  0  0  0  0  0  0  0  0  0  0  0
   -1.7692   22.7047  -28.3532 H   0  0  0  0  0  0  0  0  0  0  0  0
    0.3105   18.2355  -29.9501 H   0  0  0  0  0  0  0  0  0  0  0  0
    0.0902   18.0141  -32.4238 H   0  0  0  0  0  0  0  0  0  0  0  0
    1.5227   18.7682  -35.1648 H   0  0  0  0  0  0  0  0  0  0  0  0
    3.2118   19.8635  -36.6458 H   0  0  0  0  0  0  0  0  0  0  0  0
  1  2  1  0
  2  3  1  0
  3  4  2  0
  3  5  1  0
  5  6  2  0
  6  7  1  0
  7  8  1  0
  8  9  1  0
  9 10  2  0
 10 11  1  0
 11 12  2  0
 12 13  1  0
 13 14  1  0
 14 15  2  0
 14 16  1  0
 16 17  1  0
 17 18  2  0
 18 19  1  0
 19 20  2  0
 20 21  1  0
 20 22  1  0
 22 23  1  0
 23 24  2  0
 23 25  1  0
 25 26  1  0
 26 27  1  0
 27 28  1  0
 28 29  1  0
 29 30  1  0
 30 31  1  0
 31 32  1  0
 32 33  1  0
 22 34  2  0
 12 35  1  0
 35 36  2  0
  7 37  2  0
 37 38  1  0
 38 39  2  0
 39  5  1  0
 36  9  1  0
 34 17  1  0
 33 28  1  0
  1 40  1  0
  1 41  1  0
  1 42  1  0
  6 43  1  0
 10 44  1  0
 11 45  1  0
 13 46  1  0
 18 47  1  0
 19 48  1  0
 26 49  1  0
 26 50  1  0
 27 51  1  0
 27 52  1  0
 29 53  1  0
 29 54  1  0
 30 55  1  0
 30 56  1  0
 32 57  1  0
 32 58  1  0
 33 59  1  0
 33 60  1  0
 34 61  1  0
 35 62  1  0
 36 63  1  0
 37 64  1  0
 38 65  1  0
M  CHG  3   2  -1  16  -1  25  -1
M  END
>  <UniqueID>  (33) 
31

>  <SMILES>  (33) 
C[N-]C(=O)c1cc(Oc2ccc(NC(=O)[N-]c3ccc(F)c(C(=O)[N-]CCN4CCOCC4)c3)cc2)ccn1

>  <Energy>  (33) 
98.65090585408285

>  <Genealogy>  (33) 
C[N-]C(=O)c1cc(Oc2ccc(NC(=O)[N-]c3ccc(F)c(C(=O)[N-]CCN4CCOCC4)c3)cc2)ccn1 (protonated)
C[N-]C(=O)c1cc(Oc2ccc(NC(=O)[N-]c3ccc(F)c(C(=O)[N-]CCN4CCOCC4)c3)cc2)ccn1 (3D coordinates assigned)
C[N-]C(=O)c1cc(Oc2ccc(NC(=O)[N-]c3ccc(F)c(C(=O)[N-]CCN4CCOCC4)c3)cc2)ccn1 (nonaromatic ring conformer: 98.65090585408285 kcal/mol)

>  <smiles>  (33) 
CNC(=O)c1cc(Oc2ccc(NC(=O)Nc3ccc(F)c(C(=O)NCCN4CCOCC4)c3)cc2)ccn1

>  <score_type>  (33) 
oracle

>  <origin>  (33) 
adgpu

>  <m_score__min__energy>  (33) 
-12.34

>  <m_primary>  (33) 
energy

$$$$
33:0
     RDKit          3D

 55 58  0  0  0  0  0  0  0  0999 V2000
   -8.6660   20.2730  -32.3190 C   0  0  0  0  0  0  0  0  0  0  0  0
   -7.4620   20.8810  -32.7790 O   0  0  0  0  0  0  0  0  0  0  0  0
   -6.7370   21.8460  -32.0660 C   0  0  0  0  0  0  0  0  0  0  0  0
   -7.4440   22.7720  -31.2920 C   0  0  0  0  0  0  0  0  0  0  0  0
   -6.7650   23.7420  -30.5530 C   0  0  0  0  0  0  0  0  0  0  0  0
   -5.3640   23.8140  -30.5920 C   0  0  0  0  0  0  0  0  0  0  0  0
   -4.6350   24.8030  -29.7230 C   0  0  0  0  0  0  0  0  0  0  0  0
   -3.2520   24.9180  -30.1720 N   0  0  0  0  0  0  0  0  0  0  0  0
   -2.1430   24.8880  -29.2640 C   0  0  0  0  0  0  0  0  0  0  0  0
   -1.5770   25.9640  -28.9240 O   0  0  0  0  0  0  0  0  0  0  0  0
   -1.6440   23.5860  -28.6950 C   0  0  0  0  0  0  0  0  0  0  0  0
   -0.2840   23.7460  -28.0240 C   0  0  0  0  0  0  0  0  0  0  0  0
    0.2970   22.3510  -27.7310 C   0  0  0  0  0  0  0  0  0  0  0  0
   -0.6910   21.3920  -27.1740 N   0  0  0  0  0  0  0  0  0  0  0  0
   -0.8740   19.9340  -28.1300 S   0  0  0  0  0  0  0  0  0  0  0  0
   -2.2430   19.3570  -27.9010 O   0  0  0  0  0  0  0  0  0  0  0  0
    0.1330   18.9150  -27.6740 O   0  0  0  0  0  0  0  0  0  0  0  0
   -0.6490   20.2270  -29.8550 C   0  0  0  0  0  0  0  0  0  0  0  0
    0.4760   19.7160  -30.5160 C   0  0  0  0  0  0  0  0  0  0  0  0
    0.7150   20.0400  -31.8560 C   0  0  0  0  0  0  0  0  0  0  0  0
   -0.1760   20.8750  -32.5580 C   0  0  0  0  0  0  0  0  0  0  0  0
    0.0840   21.2680  -33.9210 N   0  0  0  0  0  0  0  0  0  0  0  0
   -0.4520   20.7930  -35.0620 C   0  0  0  0  0  0  0  0  0  0  0  0
    0.0810   21.4300  -36.1190 N   0  0  0  0  0  0  0  0  0  0  0  0
    0.9420   22.2970  -35.6050 N   0  0  0  0  0  0  0  0  0  0  0  0
    0.9450   22.2040  -34.2860 N   0  0  0  0  0  0  0  0  0  0  0  0
   -1.3270   21.3450  -31.8990 C   0  0  0  0  0  0  0  0  0  0  0  0
   -1.5650   21.0150  -30.5620 C   0  0  0  0  0  0  0  0  0  0  0  0
   -1.9760   21.9610  -26.7170 C   0  0  0  0  0  0  0  0  0  0  0  0
   -2.6450   22.9270  -27.7240 C   0  0  0  0  0  0  0  0  0  0  0  0
   -4.6500   22.8840  -31.3670 C   0  0  0  0  0  0  0  0  0  0  0  0
   -5.3280   21.9060  -32.1020 C   0  0  0  0  0  0  0  0  0  0  0  0
   -8.6770   20.2675  -31.2191 H   0  0  0  0  0  0  0  0  0  0  0  0
   -9.5300   20.8428  -32.6914 H   0  0  0  0  0  0  0  0  0  0  0  0
   -8.7203   19.2394  -32.6914 H   0  0  0  0  0  0  0  0  0  0  0  0
   -8.5431   22.7355  -31.2655 H   0  0  0  0  0  0  0  0  0  0  0  0
   -7.3317   24.4548  -29.9359 H   0  0  0  0  0  0  0  0  0  0  0  0
   -5.1262   25.7847  -29.7933 H   0  0  0  0  0  0  0  0  0  0  0  0
   -4.6540   24.4574  -28.6789 H   0  0  0  0  0  0  0  0  0  0  0  0
   -1.5338   22.9108  -29.5564 H   0  0  0  0  0  0  0  0  0  0  0  0
    0.3949   24.2953  -28.6928 H   0  0  0  0  0  0  0  0  0  0  0  0
   -0.3967   24.3067  -27.0844 H   0  0  0  0  0  0  0  0  0  0  0  0
    0.6911   21.9358  -28.6703 H   0  0  0  0  0  0  0  0  0  0  0  0
    1.0777   22.4844  -26.9676 H   0  0  0  0  0  0  0  0  0  0  0  0
    1.1743   19.0572  -29.9790 H   0  0  0  0  0  0  0  0  0  0  0  0
    1.6046   19.6400  -32.3646 H   0  0  0  0  0  0  0  0  0  0  0  0
   -1.2132   20.0010  -35.1202 H   0  0  0  0  0  0  0  0  0  0  0  0
   -2.0456   21.9775  -32.4408 H   0  0  0  0  0  0  0  0  0  0  0  0
   -2.4763   21.3761  -30.0629 H   0  0  0  0  0  0  0  0  0  0  0  0
   -2.6706   21.1300  -26.5249 H   0  0  0  0  0  0  0  0  0  0  0  0
   -1.7533   22.5528  -25.8169 H   0  0  0  0  0  0  0  0  0  0  0  0
   -3.3821   22.3616  -28.3131 H   0  0  0  0  0  0  0  0  0  0  0  0
   -3.1117   23.7340  -27.1402 H   0  0  0  0  0  0  0  0  0  0  0  0
   -3.5512   22.9255  -31.3957 H   0  0  0  0  0  0  0  0  0  0  0  0
   -4.7623   21.1833  -32.7084 H   0  0  0  0  0  0  0  0  0  0  0  0
  1  2  1  0
  2  3  1  0
  3  4  2  0
  4  5  1  0
  5  6  2  0
  6  7  1  0
  7  8  1  0
  8  9  1  0
  9 10  2  0
  9 11  1  0
 11 12  1  0
 12 13  1  0
 13 14  1  0
 14 15  1  0
 15 16  2  0
 15 17  2  0
 15 18  1  0
 18 19  2  0
 19 20  1  0
 20 21  2  0
 21 22  1  0
 22 23  1  0
 23 24  2  0
 24 25  1  0
 25 26  2  0
 21 27  1  0
 27 28  2  0
 14 29  1  0
 29 30  1  0
  6 31  1  0
 31 32  2  0
 32  3  1  0
 30 11  1  0
 28 18  1  0
 26 22  1  0
  1 33  1  0
  1 34  1  0
  1 35  1  0
  4 36  1  0
  5 37  1  0
  7 38  1  0
  7 39  1  0
 11 40  1  0
 12 41  1  0
 12 42  1  0
 13 43  1  0
 13 44  1  0
 19 45  1  0
 20 46  1  0
 23 47  1  0
 27 48  1  0
 28 49  1  0
 29 50  1  0
 29 51  1  0
 30 52  1  0
 30 53  1  0
 31 54  1  0
 32 55  1  0
M  CHG  1   8  -1
M  END
>  <UniqueID>  (34) 
32

>  <SMILES>  (34) 
COc1ccc(C[N-]C(=O)C2CCN(S(=O)(=O)c3ccc(-n4cnnn4)cc3)CC2)cc1

>  <Energy>  (34) 
105.51269103381767

>  <Genealogy>  (34) 
COc1ccc(C[N-]C(=O)C2CCN(S(=O)(=O)c3ccc(-n4cnnn4)cc3)CC2)cc1 (protonated)
COc1ccc(C[N-]C(=O)C2CCN(S(=O)(=O)c3ccc(-n4cnnn4)cc3)CC2)cc1 (3D coordinates assigned)
COc1ccc(C[N-]C(=O)C2CCN(S(=O)(=O)c3ccc(-n4cnnn4)cc3)CC2)cc1 (nonaromatic ring conformer: 105.51269103381767 kcal/mol)

>  <smiles>  (34) 
COc1ccc(CNC(=O)C2CCN(S(=O)(=O)c3ccc(-n4cnnn4)cc3)CC2)cc1

>  <score_type>  (34) 
oracle

>  <origin>  (34) 
adgpu

>  <m_score__min__energy>  (34) 
-11.59

>  <m_primary>  (34) 
energy

$$$$
34:0
     RDKit          3D

 47 50  0  0  0  0  0  0  0  0999 V2000
    0.1190   20.6700  -31.6980 C   0  0  0  0  0  0  0  0  0  0  0  0
   -1.0840   20.1950  -32.4450 C   0  0  0  0  0  0  0  0  0  0  0  0
   -1.9780   21.0620  -33.0670 C   0  0  0  0  0  0  0  0  0  0  0  0
   -3.1440   20.1260  -33.8340 S   0  0  0  0  0  0  0  0  0  0  0  0
   -2.4600   18.6630  -33.3530 C   0  0  0  0  0  0  0  0  0  0  0  0
   -2.9820   17.3230  -33.6920 C   0  0  0  0  0  0  0  0  0  0  0  0
   -2.1790   16.1710  -33.7350 C   0  0  0  0  0  0  0  0  0  0  0  0
   -2.8690   15.0160  -34.0860 C   0  0  0  0  0  0  0  0  0  0  0  0
   -4.4800   15.4150  -34.3500 S   0  0  0  0  0  0  0  0  0  0  0  0
   -4.3150   17.0540  -33.9980 C   0  0  0  0  0  0  0  0  0  0  0  0
   -5.3520   18.0370  -34.1050 N   0  0  0  0  0  0  0  0  0  0  0  0
   -6.4920   18.1340  -33.2420 C   0  0  0  0  0  0  0  0  0  0  0  0
   -7.1190   17.0820  -32.9510 O   0  0  0  0  0  0  0  0  0  0  0  0
   -6.9800   19.4350  -32.7320 C   0  0  0  0  0  0  0  0  0  0  0  0
   -8.3550   19.7140  -32.6850 C   0  0  0  0  0  0  0  0  0  0  0  0
   -8.8200   20.9460  -32.2060 C   0  0  0  0  0  0  0  0  0  0  0  0
  -10.2270   21.2100  -32.1930 N   0  0  0  0  0  0  0  0  0  0  0  0
   -7.9040   21.9140  -31.7530 C   0  0  0  0  0  0  0  0  0  0  0  0
   -8.3890   23.1550  -31.3320 O   0  0  0  0  0  0  0  0  0  0  0  0
   -6.5200   21.6240  -31.7540 C   0  0  0  0  0  0  0  0  0  0  0  0
   -5.5220   22.5800  -31.2280 C   0  0  0  0  0  0  0  0  0  0  0  0
   -5.8430   23.9400  -31.1000 C   0  0  0  0  0  0  0  0  0  0  0  0
   -4.9090   24.8380  -30.5780 C   0  0  0  0  0  0  0  0  0  0  0  0
   -3.6490   24.3880  -30.1710 C   0  0  0  0  0  0  0  0  0  0  0  0
   -2.7360   25.2980  -29.6500 O   0  0  0  0  0  0  0  0  0  0  0  0
   -3.3150   23.0270  -30.2900 C   0  0  0  0  0  0  0  0  0  0  0  0
   -1.9690   22.5350  -29.8390 C   0  0  0  0  0  0  0  0  0  0  0  0
   -4.2600   22.1270  -30.8090 C   0  0  0  0  0  0  0  0  0  0  0  0
   -6.0730   20.3890  -32.2510 C   0  0  0  0  0  0  0  0  0  0  0  0
   -1.3480   18.8720  -32.6130 N   0  0  0  0  0  0  0  0  0  0  0  0
   -0.0681   20.5961  -30.6166 H   0  0  0  0  0  0  0  0  0  0  0  0
    0.9854   20.0465  -31.9637 H   0  0  0  0  0  0  0  0  0  0  0  0
    0.3257   21.7172  -31.9637 H   0  0  0  0  0  0  0  0  0  0  0  0
   -1.9299   22.1609  -33.0581 H   0  0  0  0  0  0  0  0  0  0  0  0
   -1.1020   16.1818  -33.5113 H   0  0  0  0  0  0  0  0  0  0  0  0
   -2.4335   14.0099  -34.1758 H   0  0  0  0  0  0  0  0  0  0  0  0
   -9.0755   18.9569  -33.0281 H   0  0  0  0  0  0  0  0  0  0  0  0
  -10.6100   22.0310  -31.6720 H   0  0  0  0  0  0  0  0  0  0  0  0
  -10.9030   20.5950  -32.6990 H   0  0  0  0  0  0  0  0  0  0  0  0
   -8.5100   23.9430  -31.9540 H   0  0  0  0  0  0  0  0  0  0  0  0
   -6.8343   24.3005  -31.4120 H   0  0  0  0  0  0  0  0  0  0  0  0
   -5.1657   25.9037  -30.4867 H   0  0  0  0  0  0  0  0  0  0  0  0
   -1.9329   22.5218  -28.7397 H   0  0  0  0  0  0  0  0  0  0  0  0
   -1.8026   21.5179  -30.2236 H   0  0  0  0  0  0  0  0  0  0  0  0
   -1.1860   23.2050  -30.2236 H   0  0  0  0  0  0  0  0  0  0  0  0
   -4.0099   21.0587  -30.8880 H   0  0  0  0  0  0  0  0  0  0  0  0
   -4.9957   20.1672  -32.2629 H   0  0  0  0  0  0  0  0  0  0  0  0
  1  2  1  0
  2  3  2  0
  3  4  1  0
  4  5  1  0
  5  6  1  0
  6  7  1  0
  7  8  2  0
  8  9  1  0
  9 10  1  0
 10 11  1  0
 11 12  1  0
 12 13  2  0
 12 14  1  0
 14 15  2  0
 15 16  1  0
 16 17  1  0
 16 18  2  0
 18 19  1  0
 18 20  1  0
 20 21  1  0
 21 22  2  0
 22 23  1  0
 23 24  2  0
 24 25  1  0
 24 26  1  0
 26 27  1  0
 26 28  2  0
 20 29  2  0
  5 30  2  0
 30  2  1  0
 10  6  2  0
 29 14  1  0
 28 21  1  0
  1 31  1  0
  1 32  1  0
  1 33  1  0
  3 34  1  0
  7 35  1  0
  8 36  1  0
 15 37  1  0
 17 38  1  0
 17 39  1  0
 19 40  1  0
 22 41  1  0
 23 42  1  0
 27 43  1  0
 27 44  1  0
 27 45  1  0
 28 46  1  0
 29 47  1  0
M  CHG  2  11  -1  25  -1
M  END
>  <UniqueID>  (35) 
33

>  <SMILES>  (35) 
Cc1csc(-c2ccsc2[N-]C(=O)c2cc(N)c(O)c(-c3ccc([O-])c(C)c3)c2)n1

>  <Energy>  (35) 
119.44219096860336

>  <Genealogy>  (35) 
Cc1csc(-c2ccsc2[N-]C(=O)c2cc(N)c(O)c(-c3ccc([O-])c(C)c3)c2)n1 (protonated)
Cc1csc(-c2ccsc2[N-]C(=O)c2cc(N)c(O)c(-c3ccc([O-])c(C)c3)c2)n1 (3D coordinates assigned)
Cc1csc(-c2ccsc2[N-]C(=O)c2cc(N)c(O)c(-c3ccc([O-])c(C)c3)c2)n1 (optimized conformer: 119.44219096860336 kcal/mol)

>  <smiles>  (35) 
Cc1csc(-c2ccsc2NC(=O)c2cc(N)c(O)c(-c3ccc(O)c(C)c3)c2)n1

>  <score_type>  (35) 
oracle

>  <origin>  (35) 
adgpu

>  <m_score__min__energy>  (35) 
-10.789999999999999

>  <m_primary>  (35) 
energy

$$$$
35:0
     RDKit          3D

 46 48  0  0  0  0  0  0  0  0999 V2000
   -7.8311   16.4244  -32.2097 H   0  0  0  0  0  0  0  0  0  0  0  0
   -7.1830   17.1200  -32.7630 C   0  0  0  0  0  0  0  0  0  0  0  0
   -7.4250   18.4950  -32.7040 C   0  0  0  0  0  0  0  0  0  0  0  0
   -8.2721   18.8780  -32.1161 H   0  0  0  0  0  0  0  0  0  0  0  0
   -6.5900   19.3890  -33.3930 C   0  0  0  0  0  0  0  0  0  0  0  0
   -6.8580   20.8010  -33.4000 N   0  0  0  0  0  0  0  0  0  0  0  0
   -6.4070   21.7000  -32.5680 C   0  0  0  0  0  0  0  0  0  0  0  0
   -5.4440   21.4010  -31.5820 C   0  0  0  0  0  0  0  0  0  0  0  0
   -5.0563   20.3766  -31.4799 H   0  0  0  0  0  0  0  0  0  0  0  0
   -4.9860   22.4120  -30.7370 C   0  0  0  0  0  0  0  0  0  0  0  0
   -4.2408   22.1835  -29.9608 H   0  0  0  0  0  0  0  0  0  0  0  0
   -5.4720   23.7130  -30.8750 C   0  0  0  0  0  0  0  0  0  0  0  0
   -4.8240   25.0120  -29.8790 S   0  0  0  0  0  0  0  0  0  0  0  0
   -5.3680   24.9160  -28.4820 O   0  0  0  0  0  0  0  0  0  0  0  0
   -5.2230   26.3380  -30.4630 O   0  0  0  0  0  0  0  0  0  0  0  0
   -3.0990   24.8990  -29.8510 N   0  0  0  0  0  0  0  0  0  0  0  0
   -2.4490   23.9240  -29.0340 C   0  0  0  0  0  0  0  0  0  0  0  0
   -1.7680   22.8030  -29.4650 C   0  0  0  0  0  0  0  0  0  0  0  0
   -1.6740   22.3000  -30.8680 C   0  0  0  0  0  0  0  0  0  0  0  0
   -1.4719   21.2188  -30.8571 H   0  0  0  0  0  0  0  0  0  0  0  0
   -2.6233   22.4904  -31.3901 H   0  0  0  0  0  0  0  0  0  0  0  0
   -0.8575   22.8204  -31.3901 H   0  0  0  0  0  0  0  0  0  0  0  0
   -1.0590   22.2940  -28.4370 N   0  0  0  0  0  0  0  0  0  0  0  0
   -1.2910   23.0510  -27.3740 N   0  0  0  0  0  0  0  0  0  0  0  0
   -0.6110   22.8690  -26.0960 C   0  0  0  0  0  0  0  0  0  0  0  0
   -1.3176   23.0581  -25.2745 H   0  0  0  0  0  0  0  0  0  0  0  0
   -0.2336   21.8382  -26.0250 H   0  0  0  0  0  0  0  0  0  0  0  0
    0.2309   23.5734  -26.0250 H   0  0  0  0  0  0  0  0  0  0  0  0
   -2.1240   24.0630  -27.7020 C   0  0  0  0  0  0  0  0  0  0  0  0
   -2.4540   25.2290  -26.8200 C   0  0  0  0  0  0  0  0  0  0  0  0
   -2.3685   24.9270  -25.7657 H   0  0  0  0  0  0  0  0  0  0  0  0
   -1.7536   26.0525  -27.0235 H   0  0  0  0  0  0  0  0  0  0  0  0
   -3.4820   25.5633  -27.0235 H   0  0  0  0  0  0  0  0  0  0  0  0
   -6.4110   23.9830  -31.8760 C   0  0  0  0  0  0  0  0  0  0  0  0
   -6.7960   25.0053  -32.0050 H   0  0  0  0  0  0  0  0  0  0  0  0
   -6.8500   22.9850  -32.6910 N   0  0  0  0  0  0  0  0  0  0  0  0
   -7.5480   23.2220  -33.4330 H   0  0  0  0  0  0  0  0  0  0  0  0
   -5.5480   18.8890  -34.1830 C   0  0  0  0  0  0  0  0  0  0  0  0
   -4.9277   19.5815  -34.7710 H   0  0  0  0  0  0  0  0  0  0  0  0
   -5.2890   17.5090  -34.2300 C   0  0  0  0  0  0  0  0  0  0  0  0
   -4.1820   16.9770  -35.0920 C   0  0  0  0  0  0  0  0  0  0  0  0
   -3.3745   16.5889  -34.4538 H   0  0  0  0  0  0  0  0  0  0  0  0
   -4.5690   16.1665  -35.7271 H   0  0  0  0  0  0  0  0  0  0  0  0
   -3.7909   17.7855  -35.7271 H   0  0  0  0  0  0  0  0  0  0  0  0
   -6.1200   16.6270  -33.5230 C   0  0  0  0  0  0  0  0  0  0  0  0
   -5.9337   15.5438  -33.5674 H   0  0  0  0  0  0  0  0  0  0  0  0
  1  2  1  0
  2  3  2  0
  3  4  1  0
  3  5  1  0
  5  6  1  0
  6  7  2  0
  7  8  1  0
  8  9  1  0
  8 10  2  0
 10 11  1  0
 10 12  1  0
 12 13  1  0
 13 14  2  0
 13 15  2  0
 13 16  1  0
 16 17  1  0
 17 18  1  0
 18 19  1  0
 19 20  1  0
 19 21  1  0
 19 22  1  0
 18 23  2  0
 23 24  1  0
 24 25  1  0
 25 26  1  0
 25 27  1  0
 25 28  1  0
 24 29  1  0
 29 30  1  0
 30 31  1  0
 30 32  1  0
 30 33  1  0
 12 34  2  0
 34 35  1  0
 34 36  1  0
 36 37  1  0
  5 38  2  0
 38 39  1  0
 38 40  1  0
 40 41  1  0
 41 42  1  0
 41 43  1  0
 41 44  1  0
 40 45  2  0
 45 46  1  0
 45  2  1  0
 36  7  1  0
 29 17  2  0
M  CHG  1  16  -1
M  END
>  <UniqueID>  (36) 
34

>  <SMILES>  (36) 
Cc1cccc(/N=c2\ccc(S(=O)(=O)[N-]c3c(C)nn(C)c3C)c[nH]2)c1

>  <Energy>  (36) 
93.33277799826102

>  <Genealogy>  (36) 
Cc1cccc(N=c2ccc(S(=O)(=O)[N-]c3c(C)nn(C)c3C)c[nH]2)c1 (protonated)
Cc1cccc(/N=c2\ccc(S(=O)(=O)[N-]c3c(C)nn(C)c3C)c[nH]2)c1 (cis-trans isomerization)
Cc1cccc(/N=c2\ccc(S(=O)(=O)[N-]c3c(C)nn(C)c3C)c[nH]2)c1 (3D coordinates assigned)
Cc1cccc(/N=c2\ccc(S(=O)(=O)[N-]c3c(C)nn(C)c3C)c[nH]2)c1 (optimized conformer: 93.33277799826102 kcal/mol)

>  <smiles>  (36) 
Cc1cccc(N=c2ccc(S(=O)(=O)Nc3c(C)nn(C)c3C)c[nH]2)c1

>  <score_type>  (36) 
oracle

>  <origin>  (36) 
adgpu

>  <m_score__min__energy>  (36) 
-9.9900000000000002

>  <m_primary>  (36) 
energy

$$$$
36:0
     RDKit          3D

 30 31  0  0  0  0  0  0  0  0999 V2000
   -2.7210   18.7860  -34.1180 H   0  0  0  0  0  0  0  0  0  0  0  0
   -3.2270   19.6900  -33.9860 N   0  0  0  0  0  0  0  0  0  0  0  0
   -4.4290   19.7300  -33.5050 C   0  0  0  0  0  0  0  0  0  0  0  0
   -5.0610   18.5780  -33.1580 N   0  0  0  0  0  0  0  0  0  0  0  0
   -6.3170   18.5930  -32.6460 C   0  0  0  0  0  0  0  0  0  0  0  0
   -6.8700   17.5080  -32.3220 O   0  0  0  0  0  0  0  0  0  0  0  0
   -6.9880   19.8100  -32.4750 C   0  0  0  0  0  0  0  0  0  0  0  0
   -8.7320   19.8470  -31.6710 Br  0  0  0  0  0  0  0  0  0  0  0  0
   -6.3280   20.9900  -32.8570 C   0  0  0  0  0  0  0  0  0  0  0  0
   -6.9400   22.2420  -32.7210 O   0  0  0  0  0  0  0  0  0  0  0  0
   -6.5630   23.2100  -31.7780 C   0  0  0  0  0  0  0  0  0  0  0  0
   -7.5570   23.7890  -30.9820 C   0  0  0  0  0  0  0  0  0  0  0  0
   -8.6058   23.4815  -31.1062 H   0  0  0  0  0  0  0  0  0  0  0  0
   -7.2240   24.7560  -30.0300 C   0  0  0  0  0  0  0  0  0  0  0  0
   -8.0122   25.2095  -29.4111 H   0  0  0  0  0  0  0  0  0  0  0  0
   -5.8950   25.1490  -29.8610 C   0  0  0  0  0  0  0  0  0  0  0  0
   -5.6397   25.9132  -29.1122 H   0  0  0  0  0  0  0  0  0  0  0  0
   -4.8820   24.5700  -30.6460 C   0  0  0  0  0  0  0  0  0  0  0  0
   -3.5020   24.9350  -30.5080 N   0  0  0  0  0  0  0  0  0  0  0  0
   -2.4700   24.5190  -29.1770 S   0  0  0  0  0  0  0  0  0  0  0  0
   -1.6210   23.3330  -29.5350 O   0  0  0  0  0  0  0  0  0  0  0  0
   -1.5710   25.6860  -28.8820 O   0  0  0  0  0  0  0  0  0  0  0  0
   -3.4470   24.1720  -27.7300 C   0  0  0  0  0  0  0  0  0  0  0  0
   -2.8538   24.3827  -26.8279 H   0  0  0  0  0  0  0  0  0  0  0  0
   -4.3460   24.8058  -27.7340 H   0  0  0  0  0  0  0  0  0  0  0  0
   -3.7449   23.1131  -27.7340 H   0  0  0  0  0  0  0  0  0  0  0  0
   -5.2220   23.5980  -31.5960 C   0  0  0  0  0  0  0  0  0  0  0  0
   -4.4332   23.1333  -32.2058 H   0  0  0  0  0  0  0  0  0  0  0  0
   -5.0600   20.9250  -33.3460 N   0  0  0  0  0  0  0  0  0  0  0  0
   -4.5720   21.8100  -33.6160 H   0  0  0  0  0  0  0  0  0  0  0  0
  1  2  1  0
  2  3  2  0
  3  4  1  0
  4  5  1  0
  5  6  2  0
  5  7  1  0
  7  8  1  0
  7  9  2  0
  9 10  1  0
 10 11  1  0
 11 12  2  0
 12 13  1  0
 12 14  1  0
 14 15  1  0
 14 16  2  0
 16 17  1  0
 16 18  1  0
 18 19  1  0
 19 20  1  0
 20 21  2  0
 20 22  2  0
 20 23  1  0
 23 24  1  0
 23 25  1  0
 23 26  1  0
 18 27  2  0
 27 28  1  0
  9 29  1  0
 29 30  1  0
 29  3  1  0
 27 11  1  0
M  CHG  2   4  -1  19  -1
M  END
>  <UniqueID>  (37) 
35

>  <SMILES>  (37) 
[H]/N=c1\[n-]c(=O)c(Br)c(Oc2cccc([N-]S(C)(=O)=O)c2)[nH]1

>  <Energy>  (37) 
39.396162114522454

>  <Genealogy>  (37) 
CS(=O)(=O)[N-]c1cccc(Oc2[nH]c(=N)[n-]c(=O)c2Br)c1 (protonated)
[H]/N=c1\[n-]c(=O)c(Br)c(Oc2cccc([N-]S(C)(=O)=O)c2)[nH]1 (cis-trans isomerization)
[H]/N=c1\[n-]c(=O)c(Br)c(Oc2cccc([N-]S(C)(=O)=O)c2)[nH]1 (3D coordinates assigned)
[H]/N=c1\[n-]c(=O)c(Br)c(Oc2cccc([N-]S(C)(=O)=O)c2)[nH]1 (optimized conformer: 39.396162114522454 kcal/mol)

>  <smiles>  (37) 
CS(=O)(=O)Nc1cccc(Oc2[nH]c(=N)[nH]c(=O)c2Br)c1

>  <score_type>  (37) 
oracle

>  <origin>  (37) 
adgpu

>  <m_score__min__energy>  (37) 
-9.6799999999999997

>  <m_primary>  (37) 
energy

$$$$
37:0
     RDKit          3D

 31 32  0  0  0  0  0  0  0  0999 V2000
   -4.9890   15.4800  -31.7620 N   0  0  0  0  0  0  0  0  0  0  0  0
   -5.6240   16.7160  -32.1030 C   0  0  0  0  0  0  0  0  0  0  0  0
   -6.4010   17.3950  -31.1560 C   0  0  0  0  0  0  0  0  0  0  0  0
   -7.0220   18.6020  -31.4890 C   0  0  0  0  0  0  0  0  0  0  0  0
   -6.8690   19.1480  -32.7760 C   0  0  0  0  0  0  0  0  0  0  0  0
   -7.5590   20.4390  -33.1430 C   0  0  0  0  0  0  0  0  0  0  0  0
   -6.9140   21.6200  -32.4490 C   0  0  0  0  0  0  0  0  0  0  0  0
   -5.5100   21.6820  -32.4150 C   0  0  0  0  0  0  0  0  0  0  0  0
   -4.8530   22.7760  -31.8540 C   0  0  0  0  0  0  0  0  0  0  0  0
   -5.5820   23.8490  -31.3230 C   0  0  0  0  0  0  0  0  0  0  0  0
   -4.8990   24.9790  -30.7500 N   0  0  0  0  0  0  0  0  0  0  0  0
   -5.5170   26.0320  -30.4890 O   0  0  0  0  0  0  0  0  0  0  0  0
   -3.5500   24.9200  -30.4810 O   0  0  0  0  0  0  0  0  0  0  0  0
   -6.9850   23.8010  -31.3610 C   0  0  0  0  0  0  0  0  0  0  0  0
   -7.6620   22.6970  -31.9070 C   0  0  0  0  0  0  0  0  0  0  0  0
   -9.0970   22.7080  -31.9140 N   0  0  0  0  0  0  0  0  0  0  0  0
   -9.7360   21.9060  -31.2040 O   0  0  0  0  0  0  0  0  0  0  0  0
   -9.7660   23.7700  -32.4790 O   0  0  0  0  0  0  0  0  0  0  0  0
   -6.0950   18.4610  -33.7240 C   0  0  0  0  0  0  0  0  0  0  0  0
   -5.4730   17.2540  -33.3890 C   0  0  0  0  0  0  0  0  0  0  0  0
   -4.3850   14.9810  -32.4530 H   0  0  0  0  0  0  0  0  0  0  0  0
   -5.1160   15.0570  -30.8160 H   0  0  0  0  0  0  0  0  0  0  0  0
   -6.5230   16.9766  -30.1460 H   0  0  0  0  0  0  0  0  0  0  0  0
   -7.6335   19.1275  -30.7407 H   0  0  0  0  0  0  0  0  0  0  0  0
   -7.4949   20.5834  -34.2316 H   0  0  0  0  0  0  0  0  0  0  0  0
   -8.6092   20.3767  -32.8217 H   0  0  0  0  0  0  0  0  0  0  0  0
   -4.9209   20.8547  -32.8375 H   0  0  0  0  0  0  0  0  0  0  0  0
   -3.7535   22.7974  -31.8278 H   0  0  0  0  0  0  0  0  0  0  0  0
   -7.5650   24.6433  -30.9558 H   0  0  0  0  0  0  0  0  0  0  0  0
   -5.9769   18.8743  -34.7365 H   0  0  0  0  0  0  0  0  0  0  0  0
   -4.8635   16.7252  -34.1366 H   0  0  0  0  0  0  0  0  0  0  0  0
  1  2  1  0
  2  3  2  0
  3  4  1  0
  4  5  2  0
  5  6  1  0
  6  7  1  0
  7  8  2  0
  8  9  1  0
  9 10  2  0
 10 11  1  0
 11 12  2  0
 11 13  1  0
 10 14  1  0
 14 15  2  0
 15 16  1  0
 16 17  2  0
 16 18  1  0
  5 19  1  0
 19 20  2  0
 20  2  1  0
 15  7  1  0
  1 21  1  0
  1 22  1  0
  3 23  1  0
  4 24  1  0
  6 25  1  0
  6 26  1  0
  8 27  1  0
  9 28  1  0
 14 29  1  0
 19 30  1  0
 20 31  1  0
M  CHG  4  11   1  13  -1  16   1  18  -1
M  END
>  <UniqueID>  (38) 
36

>  <SMILES>  (38) 
Nc1ccc(Cc2ccc([N+](=O)[O-])cc2[N+](=O)[O-])cc1

>  <Energy>  (38) 
38.56163462518054

>  <Genealogy>  (38) 
Nc1ccc(Cc2ccc([N+](=O)[O-])cc2[N+](=O)[O-])cc1 (3D coordinates assigned)
Nc1ccc(Cc2ccc([N+](=O)[O-])cc2[N+](=O)[O-])cc1 (optimized conformer: 38.56163462518054 kcal/mol)

>  <smiles>  (38) 
Nc1ccc(Cc2ccc([N+](=O)[O-])cc2[N+](=O)[O-])cc1

>  <score_type>  (38) 
oracle

>  <origin>  (38) 
adgpu

>  <m_score__min__energy>  (38) 
-8.1300000000000008

>  <m_primary>  (38) 
energy

$$$$
38:0
     RDKit          3D

 47 49  0  0  0  0  0  0  0  0999 V2000
   -8.7970   18.4060  -31.8220 C   0  0  0  0  0  0  0  0  0  0  0  0
   -8.8610   19.7340  -32.3320 O   0  0  0  0  0  0  0  0  0  0  0  0
   -7.9800   20.7640  -31.9730 C   0  0  0  0  0  0  0  0  0  0  0  0
   -6.7260   20.9360  -32.5910 C   0  0  0  0  0  0  0  0  0  0  0  0
   -5.8840   21.9820  -32.2010 C   0  0  0  0  0  0  0  0  0  0  0  0
   -6.2830   22.8780  -31.1980 C   0  0  0  0  0  0  0  0  0  0  0  0
   -5.3870   23.9850  -30.7940 C   0  0  0  0  0  0  0  0  0  0  0  0
   -5.7050   25.3270  -30.7810 C   0  0  0  0  0  0  0  0  0  0  0  0
   -4.6090   26.0420  -30.4640 N   0  0  0  0  0  0  0  0  0  0  0  0
   -3.6020   25.2060  -30.2610 N   0  0  0  0  0  0  0  0  0  0  0  0
   -4.0420   23.9470  -30.4480 C   0  0  0  0  0  0  0  0  0  0  0  0
   -3.1940   22.7550  -30.2400 C   0  0  0  0  0  0  0  0  0  0  0  0
   -3.6580   21.6950  -29.4490 C   0  0  0  0  0  0  0  0  0  0  0  0
   -2.8440   20.5830  -29.2120 C   0  0  0  0  0  0  0  0  0  0  0  0
   -1.5570   20.5140  -29.7600 C   0  0  0  0  0  0  0  0  0  0  0  0
   -0.7580   19.4060  -29.4400 O   0  0  0  0  0  0  0  0  0  0  0  0
   -0.0550   19.2180  -28.2090 C   0  0  0  0  0  0  0  0  0  0  0  0
   -0.9330   18.4880  -27.1840 C   0  0  0  0  0  0  0  0  0  0  0  0
   -2.0610   19.3410  -26.7490 N   0  0  0  0  0  0  0  0  0  0  0  0
   -3.0300   18.5640  -25.9610 C   0  0  0  0  0  0  0  0  0  0  0  0
   -1.5850   20.4880  -25.9580 C   0  0  0  0  0  0  0  0  0  0  0  0
   -1.1180   21.5470  -30.6080 C   0  0  0  0  0  0  0  0  0  0  0  0
   -1.9310   22.6570  -30.8460 C   0  0  0  0  0  0  0  0  0  0  0  0
   -7.5250   22.6910  -30.5680 C   0  0  0  0  0  0  0  0  0  0  0  0
   -8.3660   21.6460  -30.9600 C   0  0  0  0  0  0  0  0  0  0  0  0
   -8.7984   18.4351  -30.7224 H   0  0  0  0  0  0  0  0  0  0  0  0
   -9.6687   17.8353  -32.1748 H   0  0  0  0  0  0  0  0  0  0  0  0
   -7.8745   17.9218  -32.1748 H   0  0  0  0  0  0  0  0  0  0  0  0
   -6.4075   20.2439  -33.3845 H   0  0  0  0  0  0  0  0  0  0  0  0
   -4.9029   22.1030  -32.6835 H   0  0  0  0  0  0  0  0  0  0  0  0
   -6.6985   25.7474  -30.9960 H   0  0  0  0  0  0  0  0  0  0  0  0
   -4.6669   21.7381  -29.0128 H   0  0  0  0  0  0  0  0  0  0  0  0
   -3.2174   19.7560  -28.5903 H   0  0  0  0  0  0  0  0  0  0  0  0
    0.8497   18.6216  -28.3982 H   0  0  0  0  0  0  0  0  0  0  0  0
    0.2136   20.2044  -27.8030 H   0  0  0  0  0  0  0  0  0  0  0  0
   -1.3314   17.5700  -27.6406 H   0  0  0  0  0  0  0  0  0  0  0  0
   -0.3177   18.2455  -26.3050 H   0  0  0  0  0  0  0  0  0  0  0  0
   -2.8381   18.7179  -24.8889 H   0  0  0  0  0  0  0  0  0  0  0  0
   -4.0501   18.8972  -26.2024 H   0  0  0  0  0  0  0  0  0  0  0  0
   -2.9264   17.4958  -26.2024 H   0  0  0  0  0  0  0  0  0  0  0  0
   -1.6800   20.2590  -24.8863 H   0  0  0  0  0  0  0  0  0  0  0  0
   -0.5301   20.6867  -26.1984 H   0  0  0  0  0  0  0  0  0  0  0  0
   -2.1892   21.3752  -26.1984 H   0  0  0  0  0  0  0  0  0  0  0  0
   -0.1295   21.4800  -31.0859 H   0  0  0  0  0  0  0  0  0  0  0  0
   -1.5802   23.4592  -31.5119 H   0  0  0  0  0  0  0  0  0  0  0  0
   -7.8371   23.3710  -29.7617 H   0  0  0  0  0  0  0  0  0  0  0  0
   -9.3406   21.5165  -30.4667 H   0  0  0  0  0  0  0  0  0  0  0  0
  1  2  1  0
  2  3  1  0
  3  4  2  0
  4  5  1  0
  5  6  2  0
  6  7  1  0
  7  8  1  0
  8  9  2  0
  9 10  1  0
 10 11  1  0
 11 12  1  0
 12 13  2  0
 13 14  1  0
 14 15  2  0
 15 16  1  0
 16 17  1  0
 17 18  1  0
 18 19  1  0
 19 20  1  0
 19 21  1  0
 15 22  1  0
 22 23  2  0
  6 24  1  0
 24 25  2  0
 25  3  1  0
 11  7  2  0
 23 12  1  0
  1 26  1  0
  1 27  1  0
  1 28  1  0
  4 29  1  0
  5 30  1  0
  8 31  1  0
 13 32  1  0
 14 33  1  0
 17 34  1  0
 17 35  1  0
 18 36  1  0
 18 37  1  0
 20 38  1  0
 20 39  1  0
 20 40  1  0
 21 41  1  0
 21 42  1  0
 21 43  1  0
 22 44  1  0
 23 45  1  0
 24 46  1  0
 25 47  1  0
M  CHG  1  10  -1
M  END
>  <UniqueID>  (39) 
37

>  <SMILES>  (39) 
COc1ccc(-c2cn[n-]c2-c2ccc(OCCN(C)C)cc2)cc1

>  <Energy>  (39) 
84.64678015362597

>  <Genealogy>  (39) 
COc1ccc(-c2cn[n-]c2-c2ccc(OCCN(C)C)cc2)cc1 (protonated)
COc1ccc(-c2cn[n-]c2-c2ccc(OCCN(C)C)cc2)cc1 (3D coordinates assigned)
COc1ccc(-c2cn[n-]c2-c2ccc(OCCN(C)C)cc2)cc1 (optimized conformer: 84.64678015362597 kcal/mol)

>  <smiles>  (39) 
COc1ccc(-c2cn[nH]c2-c2ccc(OCCN(C)C)cc2)cc1

>  <score_type>  (39) 
oracle

>  <origin>  (39) 
adgpu

>  <m_score__min__energy>  (39) 
-9.2599999999999998

>  <m_primary>  (39) 
energy

$$$$
39:0
     RDKit          3D

 50 53  0  0  0  0  0  0  0  0999 V2000
   -0.8230   26.8310  -23.3320 C   0  0  0  0  0  0  0  0  0  0  0  0
   -0.9460   25.9770  -24.5570 C   0  0  0  0  0  0  0  0  0  0  0  0
   -0.4500   24.6650  -24.5540 C   0  0  0  0  0  0  0  0  0  0  0  0
   -0.5890   23.8560  -25.6850 C   0  0  0  0  0  0  0  0  0  0  0  0
   -1.2570   24.3370  -26.8240 C   0  0  0  0  0  0  0  0  0  0  0  0
   -1.4140   23.5580  -27.9810 O   0  0  0  0  0  0  0  0  0  0  0  0
   -2.6140   23.3820  -28.6860 C   0  0  0  0  0  0  0  0  0  0  0  0
   -3.8480   23.2150  -28.0310 C   0  0  0  0  0  0  0  0  0  0  0  0
   -5.0220   23.0470  -28.7720 C   0  0  0  0  0  0  0  0  0  0  0  0
   -4.9860   23.0650  -30.1770 C   0  0  0  0  0  0  0  0  0  0  0  0
   -6.2220   22.8810  -30.9600 C   0  0  0  0  0  0  0  0  0  0  0  0
   -6.9700   21.7570  -30.9280 N   0  0  0  0  0  0  0  0  0  0  0  0
   -7.9670   22.0290  -31.7900 C   0  0  0  0  0  0  0  0  0  0  0  0
   -9.0870   21.0800  -32.0960 C   0  0  0  0  0  0  0  0  0  0  0  0
   -8.6410   19.8700  -32.8180 N   0  0  0  0  0  0  0  0  0  0  0  0
   -7.2950   19.3300  -32.5130 C   0  0  0  0  0  0  0  0  0  0  0  0
   -6.2840   19.4860  -33.6520 C   0  0  0  0  0  0  0  0  0  0  0  0
   -6.1390   18.1090  -34.2830 C   0  0  0  0  0  0  0  0  0  0  0  0
   -6.5170   17.0960  -33.2080 C   0  0  0  0  0  0  0  0  0  0  0  0
   -7.2920   17.8460  -32.1250 C   0  0  0  0  0  0  0  0  0  0  0  0
   -7.8080   23.3000  -32.2960 C   0  0  0  0  0  0  0  0  0  0  0  0
   -6.7160   23.7960  -31.7690 O   0  0  0  0  0  0  0  0  0  0  0  0
   -3.7570   23.2570  -30.8260 C   0  0  0  0  0  0  0  0  0  0  0  0
   -2.5830   23.4180  -30.0850 C   0  0  0  0  0  0  0  0  0  0  0  0
   -1.7480   25.6480  -26.8260 C   0  0  0  0  0  0  0  0  0  0  0  0
   -1.6060   26.4600  -25.6980 C   0  0  0  0  0  0  0  0  0  0  0  0
   -0.9138   26.2008  -22.4350 H   0  0  0  0  0  0  0  0  0  0  0  0
    0.1565   27.3316  -23.3308 H   0  0  0  0  0  0  0  0  0  0  0  0
   -1.6214   27.5876  -23.3308 H   0  0  0  0  0  0  0  0  0  0  0  0
    0.0507   24.2711  -23.6573 H   0  0  0  0  0  0  0  0  0  0  0  0
   -0.1734   22.8375  -25.6837 H   0  0  0  0  0  0  0  0  0  0  0  0
   -3.8894   23.2166  -26.9318 H   0  0  0  0  0  0  0  0  0  0  0  0
   -5.9800   22.8998  -28.2519 H   0  0  0  0  0  0  0  0  0  0  0  0
   -9.5524   20.7707  -31.1485 H   0  0  0  0  0  0  0  0  0  0  0  0
   -9.7959   21.6093  -32.7497 H   0  0  0  0  0  0  0  0  0  0  0  0
   -8.7410   20.0060  -33.8510 H   0  0  0  0  0  0  0  0  0  0  0  0
   -6.9921   19.9475  -31.6545 H   0  0  0  0  0  0  0  0  0  0  0  0
   -6.6544   20.2084  -34.3942 H   0  0  0  0  0  0  0  0  0  0  0  0
   -5.3183   19.8609  -33.2820 H   0  0  0  0  0  0  0  0  0  0  0  0
   -6.8128   18.0146  -35.1474 H   0  0  0  0  0  0  0  0  0  0  0  0
   -5.1125   17.9428  -34.6417 H   0  0  0  0  0  0  0  0  0  0  0  0
   -7.1468   16.3052  -33.6415 H   0  0  0  0  0  0  0  0  0  0  0  0
   -5.6175   16.6243  -32.7856 H   0  0  0  0  0  0  0  0  0  0  0  0
   -8.3239   17.4688  -32.0706 H   0  0  0  0  0  0  0  0  0  0  0  0
   -6.8244   17.7014  -31.1399 H   0  0  0  0  0  0  0  0  0  0  0  0
   -8.4746   23.8052  -33.0105 H   0  0  0  0  0  0  0  0  0  0  0  0
   -3.7172   23.2810  -31.9250 H   0  0  0  0  0  0  0  0  0  0  0  0
   -1.6266   23.5743  -30.6055 H   0  0  0  0  0  0  0  0  0  0  0  0
   -2.2494   26.0418  -27.7224 H   0  0  0  0  0  0  0  0  0  0  0  0
   -2.0130   27.4819  -25.7039 H   0  0  0  0  0  0  0  0  0  0  0  0
  1  2  1  0
  2  3  2  0
  3  4  1  0
  4  5  2  0
  5  6  1  0
  6  7  1  0
  7  8  2  0
  8  9  1  0
  9 10  2  0
 10 11  1  0
 11 12  2  0
 12 13  1  0
 13 14  1  0
 14 15  1  0
 15 16  1  0
 16 17  1  0
 17 18  1  0
 18 19  1  0
 19 20  1  0
 13 21  2  0
 21 22  1  0
 10 23  1  0
 23 24  2  0
  5 25  1  0
 25 26  2  0
 26  2  1  0
 24  7  1  0
 22 11  1  0
 20 16  1  0
  1 27  1  0
  1 28  1  0
  1 29  1  0
  3 30  1  0
  4 31  1  0
  8 32  1  0
  9 33  1  0
 14 34  1  0
 14 35  1  0
 15 36  1  0
 16 37  1  0
 17 38  1  0
 17 39  1  0
 18 40  1  0
 18 41  1  0
 19 42  1  0
 19 43  1  0
 20 44  1  0
 20 45  1  0
 21 46  1  0
 23 47  1  0
 24 48  1  0
 25 49  1  0
 26 50  1  0
M  END
>  <UniqueID>  (40) 
38

>  <SMILES>  (40) 
Cc1ccc(Oc2ccc(-c3nc(CNC4CCCC4)co3)cc2)cc1

>  <Energy>  (40) 
94.91085309937255

>  <Genealogy>  (40) 
Cc1ccc(Oc2ccc(-c3nc(CNC4CCCC4)co3)cc2)cc1 (3D coordinates assigned)
Cc1ccc(Oc2ccc(-c3nc(CNC4CCCC4)co3)cc2)cc1 (nonaromatic ring conformer: 94.91085309937255 kcal/mol)

>  <smiles>  (40) 
Cc1ccc(Oc2ccc(-c3nc(CNC4CCCC4)co3)cc2)cc1

>  <score_type>  (40) 
oracle

>  <origin>  (40) 
adgpu

>  <m_score__min__energy>  (40) 
-9.8000000000000007

>  <m_primary>  (40) 
energy

$$$$
40:0
     RDKit          3D

 34 35  0  0  0  0  0  0  0  0999 V2000
   -6.3890   16.6040  -33.5860 C   0  0  0  0  0  0  0  0  0  0  0  0
   -7.2690   17.1750  -32.6230 O   0  0  0  0  0  0  0  0  0  0  0  0
   -7.4970   18.5520  -32.4780 C   0  0  0  0  0  0  0  0  0  0  0  0
   -8.7010   19.0680  -31.9620 C   0  0  0  0  0  0  0  0  0  0  0  0
   -8.8790   20.4500  -31.8360 C   0  0  0  0  0  0  0  0  0  0  0  0
   -7.8600   21.3300  -32.2200 C   0  0  0  0  0  0  0  0  0  0  0  0
   -8.0730   23.0690  -32.0490 S   0  0  0  0  0  0  0  0  0  0  0  0
   -9.5180   23.4460  -32.2200 O   0  0  0  0  0  0  0  0  0  0  0  0
   -7.2580   23.7650  -33.1030 O   0  0  0  0  0  0  0  0  0  0  0  0
   -7.5350   23.5860  -30.4840 N   0  0  0  0  0  0  0  0  0  0  0  0
   -6.1640   23.7020  -30.0790 C   0  0  0  0  0  0  0  0  0  0  0  0
   -5.4430   24.8360  -30.4750 C   0  0  0  0  0  0  0  0  0  0  0  0
   -4.1020   24.9860  -30.1100 C   0  0  0  0  0  0  0  0  0  0  0  0
   -3.4640   24.0000  -29.3470 C   0  0  0  0  0  0  0  0  0  0  0  0
   -1.7770   24.1870  -28.8790 S   0  0  0  0  0  0  0  0  0  0  0  0
   -1.3050   25.8430  -29.0310 N   0  0  0  0  0  0  0  0  0  0  0  0
   -0.9150   23.3360  -29.7680 O   0  0  0  0  0  0  0  0  0  0  0  0
   -1.5920   23.7610  -27.4490 O   0  0  0  0  0  0  0  0  0  0  0  0
   -4.1840   22.8690  -28.9400 C   0  0  0  0  0  0  0  0  0  0  0  0
   -5.5260   22.7190  -29.3020 C   0  0  0  0  0  0  0  0  0  0  0  0
   -6.6630   20.8190  -32.7400 C   0  0  0  0  0  0  0  0  0  0  0  0
   -6.4850   19.4380  -32.8660 C   0  0  0  0  0  0  0  0  0  0  0  0
   -5.5741   16.0752  -33.0700 H   0  0  0  0  0  0  0  0  0  0  0  0
   -6.9455   15.8944  -34.2160 H   0  0  0  0  0  0  0  0  0  0  0  0
   -5.9677   17.4013  -34.2160 H   0  0  0  0  0  0  0  0  0  0  0  0
   -9.5048   18.3820  -31.6567 H   0  0  0  0  0  0  0  0  0  0  0  0
   -9.8229   20.8466  -31.4338 H   0  0  0  0  0  0  0  0  0  0  0  0
   -5.9355   25.6137  -31.0773 H   0  0  0  0  0  0  0  0  0  0  0  0
   -3.5458   25.8818  -30.4232 H   0  0  0  0  0  0  0  0  0  0  0  0
   -1.2390   26.0490  -30.0530 H   0  0  0  0  0  0  0  0  0  0  0  0
   -3.6910   22.0955  -28.3328 H   0  0  0  0  0  0  0  0  0  0  0  0
   -6.0848   21.8287  -28.9778 H   0  0  0  0  0  0  0  0  0  0  0  0
   -5.8617   21.5061  -33.0497 H   0  0  0  0  0  0  0  0  0  0  0  0
   -5.5420   19.0444  -33.2733 H   0  0  0  0  0  0  0  0  0  0  0  0
  1  2  1  0
  2  3  1  0
  3  4  2  0
  4  5  1  0
  5  6  2  0
  6  7  1  0
  7  8  2  0
  7  9  2  0
  7 10  1  0
 10 11  1  0
 11 12  2  0
 12 13  1  0
 13 14  2  0
 14 15  1  0
 15 16  1  0
 15 17  2  0
 15 18  2  0
 14 19  1  0
 19 20  2  0
  6 21  1  0
 21 22  2  0
 22  3  1  0
 20 11  1  0
  1 23  1  0
  1 24  1  0
  1 25  1  0
  4 26  1  0
  5 27  1  0
 12 28  1  0
 13 29  1  0
 16 30  1  0
 19 31  1  0
 20 32  1  0
 21 33  1  0
 22 34  1  0
M  CHG  2  10  -1  16  -1
M  END
>  <UniqueID>  (41) 
39

>  <SMILES>  (41) 
COc1ccc(S(=O)(=O)[N-]c2ccc(S([NH-])(=O)=O)cc2)cc1

>  <Energy>  (41) 
36.529664055781566

>  <Genealogy>  (41) 
COc1ccc(S(=O)(=O)[N-]c2ccc(S([NH-])(=O)=O)cc2)cc1 (protonated)
COc1ccc(S(=O)(=O)[N-]c2ccc(S([NH-])(=O)=O)cc2)cc1 (3D coordinates assigned)
COc1ccc(S(=O)(=O)[N-]c2ccc(S([NH-])(=O)=O)cc2)cc1 (optimized conformer: 36.529664055781566 kcal/mol)

>  <smiles>  (41) 
COc1ccc(S(=O)(=O)Nc2ccc(S(N)(=O)=O)cc2)cc1

>  <score_type>  (41) 
oracle

>  <origin>  (41) 
adgpu

>  <m_score__min__energy>  (41) 
-10.18

>  <m_primary>  (41) 
energy

$$$$
41:0
     RDKit          3D

 30 31  0  0  0  0  0  0  0  0999 V2000
   -2.9940   20.8570  -27.6320 C   0  0  0  0  0  0  0  0  0  0  0  0
   -3.2470   22.1020  -28.4280 C   0  0  0  0  0  0  0  0  0  0  0  0
   -2.8400   23.3480  -27.9360 C   0  0  0  0  0  0  0  0  0  0  0  0
   -3.0430   24.5020  -28.6930 C   0  0  0  0  0  0  0  0  0  0  0  0
   -3.6440   24.4310  -29.9550 C   0  0  0  0  0  0  0  0  0  0  0  0
   -3.8640   25.6280  -30.6400 O   0  0  0  0  0  0  0  0  0  0  0  0
   -4.0240   23.1740  -30.4850 C   0  0  0  0  0  0  0  0  0  0  0  0
   -4.5680   23.0730  -31.8160 N   0  0  0  0  0  0  0  0  0  0  0  0
   -4.9560   21.8090  -32.4450 C   0  0  0  0  0  0  0  0  0  0  0  0
   -6.4350   21.5680  -32.2900 C   0  0  0  0  0  0  0  0  0  0  0  0
   -7.2650   22.5590  -31.7430 C   0  0  0  0  0  0  0  0  0  0  0  0
   -8.6310   22.3200  -31.5890 C   0  0  0  0  0  0  0  0  0  0  0  0
   -9.1570   21.0860  -31.9750 C   0  0  0  0  0  0  0  0  0  0  0  0
   -8.3410   20.1290  -32.4900 N   0  0  0  0  0  0  0  0  0  0  0  0
   -7.0070   20.3370  -32.6510 C   0  0  0  0  0  0  0  0  0  0  0  0
   -3.8200   22.0180  -29.7050 C   0  0  0  0  0  0  0  0  0  0  0  0
   -3.0418   21.0921  -26.5585 H   0  0  0  0  0  0  0  0  0  0  0  0
   -3.7575   20.1038  -27.8767 H   0  0  0  0  0  0  0  0  0  0  0  0
   -1.9971   20.4616  -27.8767 H   0  0  0  0  0  0  0  0  0  0  0  0
   -2.3586   23.4172  -26.9494 H   0  0  0  0  0  0  0  0  0  0  0  0
   -2.7276   25.4774  -28.2941 H   0  0  0  0  0  0  0  0  0  0  0  0
   -4.1670   25.6720  -31.6040 H   0  0  0  0  0  0  0  0  0  0  0  0
   -4.6460   23.9320  -32.4040 H   0  0  0  0  0  0  0  0  0  0  0  0
   -4.7068   21.8472  -33.5157 H   0  0  0  0  0  0  0  0  0  0  0  0
   -4.4111   20.9887  -31.9549 H   0  0  0  0  0  0  0  0  0  0  0  0
   -6.8381   23.5250  -31.4354 H   0  0  0  0  0  0  0  0  0  0  0  0
   -9.2868   23.0962  -31.1677 H   0  0  0  0  0  0  0  0  0  0  0  0
  -10.2331   20.8879  -31.8622 H   0  0  0  0  0  0  0  0  0  0  0  0
   -6.3737   19.5387  -33.0653 H   0  0  0  0  0  0  0  0  0  0  0  0
   -4.1145   21.0360  -30.1037 H   0  0  0  0  0  0  0  0  0  0  0  0
  1  2  1  0
  2  3  2  0
  3  4  1  0
  4  5  2  0
  5  6  1  0
  5  7  1  0
  7  8  1  0
  8  9  1  0
  9 10  1  0
 10 11  2  0
 11 12  1  0
 12 13  2  0
 13 14  1  0
 14 15  2  0
  7 16  2  0
 16  2  1  0
 15 10  1  0
  1 17  1  0
  1 18  1  0
  1 19  1  0
  3 20  1  0
  4 21  1  0
  6 22  1  0
  8 23  1  0
  9 24  1  0
  9 25  1  0
 11 26  1  0
 12 27  1  0
 13 28  1  0
 15 29  1  0
 16 30  1  0
M  END
>  <UniqueID>  (42) 
40

>  <SMILES>  (42) 
Cc1ccc(O)c(NCc2cccnc2)c1

>  <Energy>  (42) 
33.093362761950495

>  <Genealogy>  (42) 
Cc1ccc(O)c(NCc2cccnc2)c1 (3D coordinates assigned)
Cc1ccc(O)c(NCc2cccnc2)c1 (optimized conformer: 33.093362761950495 kcal/mol)

>  <smiles>  (42) 
Cc1ccc(O)c(NCc2cccnc2)c1

>  <score_type>  (42) 
oracle

>  <origin>  (42) 
adgpu

>  <m_score__min__energy>  (42) 
-7.0599999999999996

>  <m_primary>  (42) 
energy

$$$$
42:0
     RDKit          3D

 36 38  0  0  0  0  0  0  0  0999 V2000
  -10.2346   20.5425  -32.0850 H   0  0  0  0  0  0  0  0  0  0  0  0
   -9.1930   20.8960  -32.0960 C   0  0  0  0  0  0  0  0  0  0  0  0
   -8.8840   22.1660  -31.6040 C   0  0  0  0  0  0  0  0  0  0  0  0
   -9.6841   22.8142  -31.2171 H   0  0  0  0  0  0  0  0  0  0  0  0
   -7.5500   22.6190  -31.6020 C   0  0  0  0  0  0  0  0  0  0  0  0
   -7.1900   23.9330  -31.1430 N   0  0  0  0  0  0  0  0  0  0  0  0
   -5.9860   24.3780  -30.9270 C   0  0  0  0  0  0  0  0  0  0  0  0
   -4.8530   23.6960  -31.1860 N   0  0  0  0  0  0  0  0  0  0  0  0
   -3.8830   24.5360  -30.8610 N   0  0  0  0  0  0  0  0  0  0  0  0
   -4.4140   25.6700  -30.4350 N   0  0  0  0  0  0  0  0  0  0  0  0
   -3.8640   26.5000  -30.1210 H   0  0  0  0  0  0  0  0  0  0  0  0
   -5.7350   25.6150  -30.4670 N   0  0  0  0  0  0  0  0  0  0  0  0
   -6.5490   21.8000  -32.1400 C   0  0  0  0  0  0  0  0  0  0  0  0
   -5.5114   22.1627  -32.1818 H   0  0  0  0  0  0  0  0  0  0  0  0
   -6.8590   20.5210  -32.6260 C   0  0  0  0  0  0  0  0  0  0  0  0
   -5.5990   19.4960  -33.3100 S   0  0  0  0  0  0  0  0  0  0  0  0
   -5.9490   19.1870  -34.7390 O   0  0  0  0  0  0  0  0  0  0  0  0
   -5.5230   18.2020  -32.5450 O   0  0  0  0  0  0  0  0  0  0  0  0
   -4.0620   20.3220  -33.2470 N   0  0  0  0  0  0  0  0  0  0  0  0
   -3.7280   20.6540  -31.8450 C   0  0  0  0  0  0  0  0  0  0  0  0
   -4.3683   21.4864  -31.5178 H   0  0  0  0  0  0  0  0  0  0  0  0
   -3.8959   19.7512  -31.2394 H   0  0  0  0  0  0  0  0  0  0  0  0
   -2.2490   21.0680  -31.6690 C   0  0  0  0  0  0  0  0  0  0  0  0
   -2.1992   21.9370  -30.9964 H   0  0  0  0  0  0  0  0  0  0  0  0
   -1.7003   20.2128  -31.2475 H   0  0  0  0  0  0  0  0  0  0  0  0
   -1.6040   21.4380  -33.0070 C   0  0  0  0  0  0  0  0  0  0  0  0
   -2.1171   22.3175  -33.4230 H   0  0  0  0  0  0  0  0  0  0  0  0
   -0.5403   21.6591  -32.8349 H   0  0  0  0  0  0  0  0  0  0  0  0
   -1.7080   20.2750  -34.0070 C   0  0  0  0  0  0  0  0  0  0  0  0
   -1.6604   20.6822  -35.0278 H   0  0  0  0  0  0  0  0  0  0  0  0
   -0.8738   19.5865  -33.8068 H   0  0  0  0  0  0  0  0  0  0  0  0
   -3.0180   19.4800  -33.8530 C   0  0  0  0  0  0  0  0  0  0  0  0
   -3.3552   19.1419  -34.8439 H   0  0  0  0  0  0  0  0  0  0  0  0
   -2.8347   18.6141  -33.1998 H   0  0  0  0  0  0  0  0  0  0  0  0
   -8.1840   20.0730  -32.6020 C   0  0  0  0  0  0  0  0  0  0  0  0
   -8.4318   19.0710  -32.9822 H   0  0  0  0  0  0  0  0  0  0  0  0
  1  2  1  0
  2  3  2  0
  3  4  1  0
  3  5  1  0
  5  6  1  0
  6  7  2  0
  7  8  1  0
  8  9  2  0
  9 10  1  0
 10 11  1  0
 10 12  1  0
  5 13  2  0
 13 14  1  0
 13 15  1  0
 15 16  1  0
 16 17  2  0
 16 18  2  0
 16 19  1  0
 19 20  1  0
 20 21  1  0
 20 22  1  0
 20 23  1  0
 23 24  1  0
 23 25  1  0
 23 26  1  0
 26 27  1  0
 26 28  1  0
 26 29  1  0
 29 30  1  0
 29 31  1  0
 29 32  1  0
 32 33  1  0
 32 34  1  0
 15 35  2  0
 35 36  1  0
 35  2  1  0
 12  7  1  0
 32 19  1  0
M  CHG  1  12  -1
M  END
>  <UniqueID>  (43) 
41

>  <SMILES>  (43) 
O=S(=O)(c1cccc(/N=c2\nn[nH][n-]2)c1)N1CCCCC1

>  <Energy>  (43) 
84.31722430322918

>  <Genealogy>  (43) 
O=S(=O)(c1cccc(N=c2nn[nH][n-]2)c1)N1CCCCC1 (protonated)
O=S(=O)(c1cccc(/N=c2\nn[nH][n-]2)c1)N1CCCCC1 (cis-trans isomerization)
O=S(=O)(c1cccc(/N=c2\nn[nH][n-]2)c1)N1CCCCC1 (3D coordinates assigned)
O=S(=O)(c1cccc(/N=c2\nn[nH][n-]2)c1)N1CCCCC1 (nonaromatic ring conformer: 84.31722430322918 kcal/mol)

>  <smiles>  (43) 
O=S(=O)(c1cccc(N=c2nn[nH][nH]2)c1)N1CCCCC1

>  <score_type>  (43) 
oracle

>  <origin>  (43) 
adgpu

>  <m_score__min__energy>  (43) 
-10.1

>  <m_primary>  (43) 
energy

$$$$
43:0
     RDKit          3D

 35 37  0  0  0  0  0  0  0  0999 V2000
   -9.1110   18.4690  -31.9980 C   0  0  0  0  0  0  0  0  0  0  0  0
   -9.0120   19.8110  -32.4640 O   0  0  0  0  0  0  0  0  0  0  0  0
   -8.0810   20.7470  -31.9890 C   0  0  0  0  0  0  0  0  0  0  0  0
   -8.4590   21.8780  -31.2430 C   0  0  0  0  0  0  0  0  0  0  0  0
   -7.4930   22.7830  -30.7930 C   0  0  0  0  0  0  0  0  0  0  0  0
   -6.1310   22.5760  -31.0760 C   0  0  0  0  0  0  0  0  0  0  0  0
   -5.0910   23.5250  -30.6070 C   0  0  0  0  0  0  0  0  0  0  0  0
   -4.2610   23.3770  -29.5080 C   0  0  0  0  0  0  0  0  0  0  0  0
   -3.4880   24.5210  -29.5160 C   0  0  0  0  0  0  0  0  0  0  0  0
   -2.4220   24.8710  -28.5630 C   0  0  0  0  0  0  0  0  0  0  0  0
   -1.2260   24.8900  -28.9640 O   0  0  0  0  0  0  0  0  0  0  0  0
   -2.7340   25.2300  -27.2060 N   0  0  0  0  0  0  0  0  0  0  0  0
   -1.7650   25.2650  -26.1440 C   0  0  0  0  0  0  0  0  0  0  0  0
   -1.6660   26.3610  -25.2690 C   0  0  0  0  0  0  0  0  0  0  0  0
   -0.6950   26.3660  -24.2660 C   0  0  0  0  0  0  0  0  0  0  0  0
    0.1800   25.2850  -24.1520 C   0  0  0  0  0  0  0  0  0  0  0  0
    0.0870   24.2420  -25.0180 N   0  0  0  0  0  0  0  0  0  0  0  0
   -0.8500   24.2110  -26.0040 C   0  0  0  0  0  0  0  0  0  0  0  0
   -3.8370   25.2970  -30.5590 N   0  0  0  0  0  0  0  0  0  0  0  0
   -4.8130   24.6940  -31.2200 N   0  0  0  0  0  0  0  0  0  0  0  0
   -5.7600   21.4440  -31.8220 C   0  0  0  0  0  0  0  0  0  0  0  0
   -6.7280   20.5400  -32.2720 C   0  0  0  0  0  0  0  0  0  0  0  0
   -9.1115   18.4619  -30.8980 H   0  0  0  0  0  0  0  0  0  0  0  0
  -10.0447   18.0203  -32.3680 H   0  0  0  0  0  0  0  0  0  0  0  0
   -8.2533   17.8882  -32.3680 H   0  0  0  0  0  0  0  0  0  0  0  0
   -9.5205   22.0514  -31.0124 H   0  0  0  0  0  0  0  0  0  0  0  0
   -7.8010   23.6650  -30.2123 H   0  0  0  0  0  0  0  0  0  0  0  0
   -4.2258   22.5411  -28.7938 H   0  0  0  0  0  0  0  0  0  0  0  0
   -3.6960   25.5780  -26.9970 H   0  0  0  0  0  0  0  0  0  0  0  0
   -2.3529   27.2136  -25.3746 H   0  0  0  0  0  0  0  0  0  0  0  0
   -0.6202   27.2154  -23.5710 H   0  0  0  0  0  0  0  0  0  0  0  0
    0.9448   25.2772  -23.3614 H   0  0  0  0  0  0  0  0  0  0  0  0
   -0.8902   23.3556  -26.6945 H   0  0  0  0  0  0  0  0  0  0  0  0
   -4.6993   21.2674  -32.0540 H   0  0  0  0  0  0  0  0  0  0  0  0
   -6.4216   19.6582  -32.8539 H   0  0  0  0  0  0  0  0  0  0  0  0
  1  2  1  0
  2  3  1  0
  3  4  2  0
  4  5  1  0
  5  6  2  0
  6  7  1  0
  7  8  1  0
  8  9  2  0
  9 10  1  0
 10 11  2  0
 10 12  1  0
 12 13  1  0
 13 14  2  0
 14 15  1  0
 15 16  2  0
 16 17  1  0
 17 18  2  0
  9 19  1  0
 19 20  1  0
  6 21  1  0
 21 22  2  0
 22  3  1  0
 20  7  2  0
 18 13  1  0
  1 23  1  0
  1 24  1  0
  1 25  1  0
  4 26  1  0
  5 27  1  0
  8 28  1  0
 12 29  1  0
 14 30  1  0
 15 31  1  0
 16 32  1  0
 18 33  1  0
 21 34  1  0
 22 35  1  0
M  CHG  1  19  -1
M  END
>  <UniqueID>  (44) 
42

>  <SMILES>  (44) 
COc1ccc(-c2cc(C(=O)Nc3cccnc3)[n-]n2)cc1

>  <Energy>  (44) 
71.72038816156585

>  <Genealogy>  (44) 
COc1ccc(-c2cc(C(=O)Nc3cccnc3)[n-]n2)cc1 (protonated)
COc1ccc(-c2cc(C(=O)Nc3cccnc3)[n-]n2)cc1 (3D coordinates assigned)
COc1ccc(-c2cc(C(=O)Nc3cccnc3)[n-]n2)cc1 (optimized conformer: 71.72038816156585 kcal/mol)

>  <smiles>  (44) 
COc1ccc(-c2cc(C(=O)Nc3cccnc3)[nH]n2)cc1

>  <score_type>  (44) 
oracle

>  <origin>  (44) 
adgpu

>  <m_score__min__energy>  (44) 
-9.9800000000000004

>  <m_primary>  (44) 
energy

$$$$
44:0
     RDKit          3D

 38 40  0  0  0  0  0  0  0  0999 V2000
    0.8750   23.0509  -29.2469 H   0  0  0  0  0  0  0  0  0  0  0  0
    0.2470   23.8340  -28.7970 C   0  0  0  0  0  0  0  0  0  0  0  0
   -0.9810   24.0960  -29.3110 N   0  0  0  0  0  0  0  0  0  0  0  0
   -1.7760   25.0630  -28.7850 C   0  0  0  0  0  0  0  0  0  0  0  0
   -3.0850   25.2620  -29.3420 N   0  0  0  0  0  0  0  0  0  0  0  0
   -3.7610   24.4190  -30.0700 C   0  0  0  0  0  0  0  0  0  0  0  0
   -3.2960   23.1610  -30.3130 N   0  0  0  0  0  0  0  0  0  0  0  0
   -4.0000   22.2610  -31.0500 C   0  0  0  0  0  0  0  0  0  0  0  0
   -3.5836   21.2603  -31.2379 H   0  0  0  0  0  0  0  0  0  0  0  0
   -5.2550   22.6050  -31.5710 C   0  0  0  0  0  0  0  0  0  0  0  0
   -6.0220   21.6350  -32.4190 C   0  0  0  0  0  0  0  0  0  0  0  0
   -6.5733   20.9377  -31.7711 H   0  0  0  0  0  0  0  0  0  0  0  0
   -6.7322   22.1849  -33.0540 H   0  0  0  0  0  0  0  0  0  0  0  0
   -5.3232   21.0708  -33.0540 H   0  0  0  0  0  0  0  0  0  0  0  0
   -5.7490   23.8950  -31.3380 C   0  0  0  0  0  0  0  0  0  0  0  0
   -6.7218   24.1944  -31.7551 H   0  0  0  0  0  0  0  0  0  0  0  0
   -5.0080   24.8010  -30.5770 C   0  0  0  0  0  0  0  0  0  0  0  0
   -5.4018   25.8085  -30.3773 H   0  0  0  0  0  0  0  0  0  0  0  0
   -1.3320   25.7760  -27.6590 C   0  0  0  0  0  0  0  0  0  0  0  0
   -1.9774   26.5297  -27.1843 H   0  0  0  0  0  0  0  0  0  0  0  0
   -0.0520   25.5110  -27.1500 C   0  0  0  0  0  0  0  0  0  0  0  0
    0.4510   26.2140  -25.9980 N   0  0  0  0  0  0  0  0  0  0  0  0
   -0.3850   27.1680  -25.2580 C   0  0  0  0  0  0  0  0  0  0  0  0
   -0.0964   28.1922  -25.5369 H   0  0  0  0  0  0  0  0  0  0  0  0
   -1.4392   26.9840  -25.5127 H   0  0  0  0  0  0  0  0  0  0  0  0
   -0.2060   26.9890  -23.7360 C   0  0  0  0  0  0  0  0  0  0  0  0
   -0.3061   27.9737  -23.2561 H   0  0  0  0  0  0  0  0  0  0  0  0
   -0.9777   26.2798  -23.4022 H   0  0  0  0  0  0  0  0  0  0  0  0
    1.1030   26.4150  -23.3560 N   0  0  0  0  0  0  0  0  0  0  0  0
    1.0220   25.3720  -23.2930 H   0  0  0  0  0  0  0  0  0  0  0  0
    1.3690   26.7700  -22.4090 H   0  0  0  0  0  0  0  0  0  0  0  0
    2.1700   26.7590  -24.3060 C   0  0  0  0  0  0  0  0  0  0  0  0
    2.2238   27.8526  -24.4120 H   0  0  0  0  0  0  0  0  0  0  0  0
    3.1273   26.3716  -23.9272 H   0  0  0  0  0  0  0  0  0  0  0  0
    1.8810   26.1300  -25.6760 C   0  0  0  0  0  0  0  0  0  0  0  0
    2.4560   26.6644  -26.4465 H   0  0  0  0  0  0  0  0  0  0  0  0
    2.1735   25.0700  -25.6457 H   0  0  0  0  0  0  0  0  0  0  0  0
    0.7020   24.5370  -27.7280 N   0  0  0  0  0  0  0  0  0  0  0  0
  1  2  1  0
  2  3  2  0
  3  4  1  0
  4  5  1  0
  5  6  2  0
  6  7  1  0
  7  8  1  0
  8  9  1  0
  8 10  2  0
 10 11  1  0
 11 12  1  0
 11 13  1  0
 11 14  1  0
 10 15  1  0
 15 16  1  0
 15 17  2  0
 17 18  1  0
  4 19  2  0
 19 20  1  0
 19 21  1  0
 21 22  1  0
 22 23  1  0
 23 24  1  0
 23 25  1  0
 23 26  1  0
 26 27  1  0
 26 28  1  0
 26 29  1  0
 29 30  1  0
 29 31  1  0
 29 32  1  0
 32 33  1  0
 32 34  1  0
 32 35  1  0
 35 36  1  0
 35 37  1  0
 21 38  2  0
 38  2  1  0
 17  6  1  0
 35 22  1  0
M  CHG  2   7  -1  29   1
M  END
>  <UniqueID>  (45) 
43

>  <SMILES>  (45) 
Cc1cc/c(=N/c2cc(N3CC[NH2+]CC3)ncn2)[n-]c1

>  <Energy>  (45) 
53.662167173717854

>  <Genealogy>  (45) 
Cc1ccc(=Nc2cc(N3CC[NH2+]CC3)ncn2)[n-]c1 (protonated)
Cc1cc/c(=N/c2cc(N3CC[NH2+]CC3)ncn2)[n-]c1 (cis-trans isomerization)
Cc1cc/c(=N/c2cc(N3CC[NH2+]CC3)ncn2)[n-]c1 (3D coordinates assigned)
Cc1cc/c(=N/c2cc(N3CC[NH2+]CC3)ncn2)[n-]c1 (nonaromatic ring conformer: 53.662167173717854 kcal/mol)

>  <smiles>  (45) 
Cc1ccc(=Nc2cc(N3CCNCC3)ncn2)[nH]c1

>  <score_type>  (45) 
oracle

>  <origin>  (45) 
adgpu

>  <m_score__min__energy>  (45) 
-8.5999999999999996

>  <m_primary>  (45) 
energy

$$$$
45:0
     RDKit          3D

 59 62  0  0  0  0  0  0  0  0999 V2000
   -2.7300   20.0240  -27.2920 C   0  0  0  0  0  0  0  0  0  0  0  0
   -2.7290   21.0440  -28.2870 O   0  0  0  0  0  0  0  0  0  0  0  0
   -2.2920   22.3610  -28.0790 C   0  0  0  0  0  0  0  0  0  0  0  0
   -1.3780   22.6870  -27.0580 C   0  0  0  0  0  0  0  0  0  0  0  0
   -0.9590   24.0070  -26.8840 C   0  0  0  0  0  0  0  0  0  0  0  0
   -1.4440   25.0170  -27.7230 C   0  0  0  0  0  0  0  0  0  0  0  0
   -2.3500   24.7060  -28.7370 C   0  0  0  0  0  0  0  0  0  0  0  0
   -2.7760   23.3780  -28.9280 C   0  0  0  0  0  0  0  0  0  0  0  0
   -3.7490   23.0630  -29.9370 N   0  0  0  0  0  0  0  0  0  0  0  0
   -4.4880   24.0540  -30.6650 C   0  0  0  0  0  0  0  0  0  0  0  0
   -4.0110   25.2100  -30.8240 O   0  0  0  0  0  0  0  0  0  0  0  0
   -5.8140   23.7090  -31.2690 C   0  0  0  0  0  0  0  0  0  0  0  0
   -6.6060   22.3830  -30.2860 S   0  0  0  0  0  0  0  0  0  0  0  0
   -6.9880   21.3390  -31.6950 C   0  0  0  0  0  0  0  0  0  0  0  0
   -8.2410   21.0310  -32.0820 N   0  0  0  0  0  0  0  0  0  0  0  0
   -8.1330   20.2410  -33.1410 N   0  0  0  0  0  0  0  0  0  0  0  0
   -6.8160   20.0660  -33.3740 C   0  0  0  0  0  0  0  0  0  0  0  0
   -6.2730   19.2930  -34.5410 C   0  0  0  0  0  0  0  0  0  0  0  0
   -5.2310   18.3110  -34.0780 C   0  0  0  0  0  0  0  0  0  0  0  0
   -3.8790   18.5270  -34.3770 C   0  0  0  0  0  0  0  0  0  0  0  0
   -2.8900   17.6650  -33.8770 C   0  0  0  0  0  0  0  0  0  0  0  0
   -1.4380   17.9000  -34.1980 C   0  0  0  0  0  0  0  0  0  0  0  0
   -3.2640   16.5600  -33.1000 C   0  0  0  0  0  0  0  0  0  0  0  0
   -4.6150   16.3250  -32.8070 C   0  0  0  0  0  0  0  0  0  0  0  0
   -5.0020   15.1860  -31.9100 C   0  0  0  0  0  0  0  0  0  0  0  0
   -5.5930   17.2060  -33.2910 C   0  0  0  0  0  0  0  0  0  0  0  0
   -6.0720   20.7460  -32.4810 N   0  0  0  0  0  0  0  0  0  0  0  0
   -4.6440   20.8100  -32.3780 C   0  0  0  0  0  0  0  0  0  0  0  0
   -3.9820   20.1460  -31.3340 C   0  0  0  0  0  0  0  0  0  0  0  0
   -2.5910   20.2440  -31.2040 C   0  0  0  0  0  0  0  0  0  0  0  0
   -1.8570   21.0050  -32.1200 C   0  0  0  0  0  0  0  0  0  0  0  0
   -0.1160   21.1310  -31.9530 Cl  0  0  0  0  0  0  0  0  0  0  0  0
   -2.5150   21.6730  -33.1620 C   0  0  0  0  0  0  0  0  0  0  0  0
   -3.9060   21.5770  -33.2910 C   0  0  0  0  0  0  0  0  0  0  0  0
   -2.7295   20.4857  -26.2936 H   0  0  0  0  0  0  0  0  0  0  0  0
   -3.6288   19.4003  -27.4072 H   0  0  0  0  0  0  0  0  0  0  0  0
   -1.8325   19.3986  -27.4072 H   0  0  0  0  0  0  0  0  0  0  0  0
   -0.9929   21.8981  -26.3951 H   0  0  0  0  0  0  0  0  0  0  0  0
   -0.2450   24.2544  -26.0846 H   0  0  0  0  0  0  0  0  0  0  0  0
   -1.1107   26.0559  -27.5827 H   0  0  0  0  0  0  0  0  0  0  0  0
   -2.7337   25.5029  -29.3910 H   0  0  0  0  0  0  0  0  0  0  0  0
   -3.9410   22.0570  -30.1450 H   0  0  0  0  0  0  0  0  0  0  0  0
   -6.4593   24.5998  -31.2701 H   0  0  0  0  0  0  0  0  0  0  0  0
   -5.6669   23.3614  -32.3022 H   0  0  0  0  0  0  0  0  0  0  0  0
   -7.0944   18.7475  -35.0286 H   0  0  0  0  0  0  0  0  0  0  0  0
   -5.8123   19.9949  -35.2517 H   0  0  0  0  0  0  0  0  0  0  0  0
   -3.5900   19.3796  -35.0091 H   0  0  0  0  0  0  0  0  0  0  0  0
   -0.8661   17.9926  -33.2629 H   0  0  0  0  0  0  0  0  0  0  0  0
   -1.0500   17.0530  -34.7828 H   0  0  0  0  0  0  0  0  0  0  0  0
   -1.3370   18.8262  -34.7828 H   0  0  0  0  0  0  0  0  0  0  0  0
   -2.4938   15.8737  -32.7181 H   0  0  0  0  0  0  0  0  0  0  0  0
   -4.8971   15.4947  -30.8594 H   0  0  0  0  0  0  0  0  0  0  0  0
   -6.0467   14.9031  -32.1065 H   0  0  0  0  0  0  0  0  0  0  0  0
   -4.3459   14.3252  -32.1065 H   0  0  0  0  0  0  0  0  0  0  0  0
   -6.6522   17.0299  -33.0521 H   0  0  0  0  0  0  0  0  0  0  0  0
   -4.5582   19.5458  -30.6145 H   0  0  0  0  0  0  0  0  0  0  0  0
   -2.0764   19.7234  -30.3829 H   0  0  0  0  0  0  0  0  0  0  0  0
   -1.9374   22.2739  -33.8799 H   0  0  0  0  0  0  0  0  0  0  0  0
   -4.4200   22.1034  -34.1088 H   0  0  0  0  0  0  0  0  0  0  0  0
  1  2  1  0
  2  3  1  0
  3  4  2  0
  4  5  1  0
  5  6  2  0
  6  7  1  0
  7  8  2  0
  8  9  1  0
  9 10  1  0
 10 11  2  0
 10 12  1  0
 12 13  1  0
 13 14  1  0
 14 15  2  0
 15 16  1  0
 16 17  2  0
 17 18  1  0
 18 19  1  0
 19 20  2  0
 20 21  1  0
 21 22  1  0
 21 23  2  0
 23 24  1  0
 24 25  1  0
 24 26  2  0
 17 27  1  0
 27 28  1  0
 28 29  2  0
 29 30  1  0
 30 31  2  0
 31 32  1  0
 31 33  1  0
 33 34  2  0
  8  3  1  0
 27 14  1  0
 34 28  1  0
 26 19  1  0
  1 35  1  0
  1 36  1  0
  1 37  1  0
  4 38  1  0
  5 39  1  0
  6 40  1  0
  7 41  1  0
  9 42  1  0
 12 43  1  0
 12 44  1  0
 18 45  1  0
 18 46  1  0
 20 47  1  0
 22 48  1  0
 22 49  1  0
 22 50  1  0
 23 51  1  0
 25 52  1  0
 25 53  1  0
 25 54  1  0
 26 55  1  0
 29 56  1  0
 30 57  1  0
 33 58  1  0
 34 59  1  0
M  END
>  <UniqueID>  (46) 
44

>  <SMILES>  (46) 
COc1ccccc1NC(=O)CSc1nnc(Cc2cc(C)cc(C)c2)n1-c1ccc(Cl)cc1

>  <Energy>  (46) 
95.56940359212619

>  <Genealogy>  (46) 
COc1ccccc1NC(=O)CSc1nnc(Cc2cc(C)cc(C)c2)n1-c1ccc(Cl)cc1 (3D coordinates assigned)
COc1ccccc1NC(=O)CSc1nnc(Cc2cc(C)cc(C)c2)n1-c1ccc(Cl)cc1 (optimized conformer: 95.56940359212619 kcal/mol)

>  <smiles>  (46) 
COc1ccccc1NC(=O)CSc1nnc(Cc2cc(C)cc(C)c2)n1-c1ccc(Cl)cc1

>  <score_type>  (46) 
oracle

>  <origin>  (46) 
adgpu

>  <m_score__min__energy>  (46) 
-10.17

>  <m_primary>  (46) 
energy

$$$$
46:0
     RDKit          3D

 45 47  0  0  0  0  0  0  0  0999 V2000
   -2.2390   23.7580  -29.7000 C   0  0  0  0  0  0  0  0  0  0  0  0
   -3.1580   24.5710  -30.4230 O   0  0  0  0  0  0  0  0  0  0  0  0
   -4.5500   24.3910  -30.4180 C   0  0  0  0  0  0  0  0  0  0  0  0
   -5.4290   25.3270  -29.8410 C   0  0  0  0  0  0  0  0  0  0  0  0
   -6.8060   25.0980  -29.8550 C   0  0  0  0  0  0  0  0  0  0  0  0
   -7.3210   23.9400  -30.4440 C   0  0  0  0  0  0  0  0  0  0  0  0
   -6.4590   23.0000  -31.0320 C   0  0  0  0  0  0  0  0  0  0  0  0
   -7.0060   21.7660  -31.6490 C   0  0  0  0  0  0  0  0  0  0  0  0
   -8.2360   21.2590  -31.2100 C   0  0  0  0  0  0  0  0  0  0  0  0
   -8.7490   20.0920  -31.7650 C   0  0  0  0  0  0  0  0  0  0  0  0
   -8.0350   19.4340  -32.7630 C   0  0  0  0  0  0  0  0  0  0  0  0
   -6.8430   19.9300  -33.2140 N   0  0  0  0  0  0  0  0  0  0  0  0
   -6.1100   19.1820  -34.2500 C   0  0  0  0  0  0  0  0  0  0  0  0
   -5.7110   17.8260  -33.7290 C   0  0  0  0  0  0  0  0  0  0  0  0
   -5.2350   16.8380  -34.6060 C   0  0  0  0  0  0  0  0  0  0  0  0
   -4.8310   15.5930  -34.1140 C   0  0  0  0  0  0  0  0  0  0  0  0
   -4.8880   15.3260  -32.7400 C   0  0  0  0  0  0  0  0  0  0  0  0
   -4.3930   13.7540  -32.1230 S   0  0  0  0  0  0  0  0  0  0  0  0
   -4.9310   12.4840  -33.2430 C   0  0  0  0  0  0  0  0  0  0  0  0
   -5.0040   13.5220  -30.7690 O   0  0  0  0  0  0  0  0  0  0  0  0
   -2.8960   13.7060  -31.9900 O   0  0  0  0  0  0  0  0  0  0  0  0
   -5.3620   16.3100  -31.8630 C   0  0  0  0  0  0  0  0  0  0  0  0
   -5.7670   17.5540  -32.3540 C   0  0  0  0  0  0  0  0  0  0  0  0
   -6.3190   21.0810  -32.6740 C   0  0  0  0  0  0  0  0  0  0  0  0
   -5.2260   21.5420  -33.1090 O   0  0  0  0  0  0  0  0  0  0  0  0
   -5.0720   23.2330  -31.0060 C   0  0  0  0  0  0  0  0  0  0  0  0
   -2.3967   23.8975  -28.6203 H   0  0  0  0  0  0  0  0  0  0  0  0
   -2.4003   22.7016  -29.9606 H   0  0  0  0  0  0  0  0  0  0  0  0
   -1.2101   24.0470  -29.9606 H   0  0  0  0  0  0  0  0  0  0  0  0
   -5.0297   26.2414  -29.3778 H   0  0  0  0  0  0  0  0  0  0  0  0
   -7.4882   25.8317  -29.4008 H   0  0  0  0  0  0  0  0  0  0  0  0
   -8.4068   23.7639  -30.4471 H   0  0  0  0  0  0  0  0  0  0  0  0
   -8.7974   21.7856  -30.4241 H   0  0  0  0  0  0  0  0  0  0  0  0
   -9.7127   19.6911  -31.4179 H   0  0  0  0  0  0  0  0  0  0  0  0
   -8.4345   18.5041  -33.1938 H   0  0  0  0  0  0  0  0  0  0  0  0
   -6.7548   19.0568  -35.1324 H   0  0  0  0  0  0  0  0  0  0  0  0
   -5.2037   19.7422  -34.5233 H   0  0  0  0  0  0  0  0  0  0  0  0
   -5.1797   17.0444  -35.6850 H   0  0  0  0  0  0  0  0  0  0  0  0
   -4.4673   14.8209  -34.8080 H   0  0  0  0  0  0  0  0  0  0  0  0
   -5.2970   11.6199  -32.6690 H   0  0  0  0  0  0  0  0  0  0  0  0
   -5.7415   12.8732  -33.8767 H   0  0  0  0  0  0  0  0  0  0  0  0
   -4.0875   12.1726  -33.8767 H   0  0  0  0  0  0  0  0  0  0  0  0
   -5.4156   16.1027  -30.7840 H   0  0  0  0  0  0  0  0  0  0  0  0
   -6.1317   18.3242  -31.6585 H   0  0  0  0  0  0  0  0  0  0  0  0
   -4.3890   22.4959  -31.4534 H   0  0  0  0  0  0  0  0  0  0  0  0
  1  2  1  0
  2  3  1  0
  3  4  2  0
  4  5  1  0
  5  6  2  0
  6  7  1  0
  7  8  1  0
  8  9  2  0
  9 10  1  0
 10 11  2  0
 11 12  1  0
 12 13  1  0
 13 14  1  0
 14 15  2  0
 15 16  1  0
 16 17  2  0
 17 18  1  0
 18 19  1  0
 18 20  2  0
 18 21  2  0
 17 22  1  0
 22 23  2  0
 12 24  1  0
 24 25  2  0
  7 26  2  0
 26  3  1  0
 24  8  1  0
 23 14  1  0
  1 27  1  0
  1 28  1  0
  1 29  1  0
  4 30  1  0
  5 31  1  0
  6 32  1  0
  9 33  1  0
 10 34  1  0
 11 35  1  0
 13 36  1  0
 13 37  1  0
 15 38  1  0
 16 39  1  0
 19 40  1  0
 19 41  1  0
 19 42  1  0
 22 43  1  0
 23 44  1  0
 26 45  1  0
M  END
>  <UniqueID>  (47) 
45

>  <SMILES>  (47) 
COc1cccc(-c2cccn(Cc3ccc(S(C)(=O)=O)cc3)c2=O)c1

>  <Energy>  (47) 
52.338115587889895

>  <Genealogy>  (47) 
COc1cccc(-c2cccn(Cc3ccc(S(C)(=O)=O)cc3)c2=O)c1 (3D coordinates assigned)
COc1cccc(-c2cccn(Cc3ccc(S(C)(=O)=O)cc3)c2=O)c1 (optimized conformer: 52.338115587889895 kcal/mol)

>  <smiles>  (47) 
COc1cccc(-c2cccn(Cc3ccc(S(C)(=O)=O)cc3)c2=O)c1

>  <score_type>  (47) 
oracle

>  <origin>  (47) 
adgpu

>  <m_score__min__energy>  (47) 
-9.2699999999999996

>  <m_primary>  (47) 
energy

$$$$
47:0
     RDKit          3D

 40 42  0  0  0  0  0  0  0  0999 V2000
   -6.1490   25.7370  -29.2630 O   0  0  0  0  0  0  0  0  0  0  0  0
   -5.0120   24.8980  -29.7770 S   0  0  0  0  0  0  0  0  0  0  0  0
   -4.2530   25.6550  -30.8300 O   0  0  0  0  0  0  0  0  0  0  0  0
   -3.8970   24.4910  -28.4490 C   0  0  0  0  0  0  0  0  0  0  0  0
   -4.1110   23.0310  -28.0470 C   0  0  0  0  0  0  0  0  0  0  0  0
   -3.8590   22.0450  -29.2090 C   0  0  0  0  0  0  0  0  0  0  0  0
   -4.4890   22.4500  -30.5650 C   0  0  0  0  0  0  0  0  0  0  0  0
   -5.6150   23.3790  -30.3830 N   0  0  0  0  0  0  0  0  0  0  0  0
   -6.4970   23.5160  -31.5620 C   0  0  0  0  0  0  0  0  0  0  0  0
   -7.3260   22.2880  -31.8790 C   0  0  0  0  0  0  0  0  0  0  0  0
   -8.7140   22.2870  -31.6650 C   0  0  0  0  0  0  0  0  0  0  0  0
   -9.4740   21.1570  -31.9700 C   0  0  0  0  0  0  0  0  0  0  0  0
   -8.8620   20.0220  -32.5050 C   0  0  0  0  0  0  0  0  0  0  0  0
   -7.4790   20.0080  -32.7530 C   0  0  0  0  0  0  0  0  0  0  0  0
   -6.8280   18.8030  -33.3280 C   0  0  0  0  0  0  0  0  0  0  0  0
   -7.1940   17.5150  -32.8940 C   0  0  0  0  0  0  0  0  0  0  0  0
   -6.5780   16.3840  -33.4350 C   0  0  0  0  0  0  0  0  0  0  0  0
   -5.5910   16.5230  -34.4140 C   0  0  0  0  0  0  0  0  0  0  0  0
   -5.2180   17.7950  -34.8530 C   0  0  0  0  0  0  0  0  0  0  0  0
   -5.8310   18.9310  -34.3150 C   0  0  0  0  0  0  0  0  0  0  0  0
   -6.7200   21.1520  -32.4450 C   0  0  0  0  0  0  0  0  0  0  0  0
   -2.8586   24.6329  -28.7831 H   0  0  0  0  0  0  0  0  0  0  0  0
   -4.0922   25.1457  -27.5868 H   0  0  0  0  0  0  0  0  0  0  0  0
   -3.4214   22.7885  -27.2250 H   0  0  0  0  0  0  0  0  0  0  0  0
   -5.1629   22.9226  -27.7440 H   0  0  0  0  0  0  0  0  0  0  0  0
   -2.7718   21.9573  -29.3514 H   0  0  0  0  0  0  0  0  0  0  0  0
   -4.3412   21.1001  -28.9180 H   0  0  0  0  0  0  0  0  0  0  0  0
   -3.7211   22.9368  -31.1842 H   0  0  0  0  0  0  0  0  0  0  0  0
   -4.8689   21.5404  -31.0532 H   0  0  0  0  0  0  0  0  0  0  0  0
   -7.1841   24.3556  -31.3801 H   0  0  0  0  0  0  0  0  0  0  0  0
   -5.8366   23.6766  -32.4269 H   0  0  0  0  0  0  0  0  0  0  0  0
   -9.2048   23.1819  -31.2547 H   0  0  0  0  0  0  0  0  0  0  0  0
  -10.5589   21.1606  -31.7883 H   0  0  0  0  0  0  0  0  0  0  0  0
   -9.4668   19.1322  -32.7341 H   0  0  0  0  0  0  0  0  0  0  0  0
   -7.9704   17.3983  -32.1236 H   0  0  0  0  0  0  0  0  0  0  0  0
   -6.8707   15.3816  -33.0894 H   0  0  0  0  0  0  0  0  0  0  0  0
   -5.1079   15.6307  -34.8388 H   0  0  0  0  0  0  0  0  0  0  0  0
   -4.4405   17.9037  -35.6235 H   0  0  0  0  0  0  0  0  0  0  0  0
   -5.5329   19.9305  -34.6646 H   0  0  0  0  0  0  0  0  0  0  0  0
   -5.6392   21.1580  -32.6494 H   0  0  0  0  0  0  0  0  0  0  0  0
  1  2  2  0
  2  3  2  0
  2  4  1  0
  4  5  1  0
  5  6  1  0
  6  7  1  0
  7  8  1  0
  8  9  1  0
  9 10  1  0
 10 11  2  0
 11 12  1  0
 12 13  2  0
 13 14  1  0
 14 15  1  0
 15 16  2  0
 16 17  1  0
 17 18  2  0
 18 19  1  0
 19 20  2  0
 14 21  2  0
  8  2  1  0
 21 10  1  0
 20 15  1  0
  4 22  1  0
  4 23  1  0
  5 24  1  0
  5 25  1  0
  6 26  1  0
  6 27  1  0
  7 28  1  0
  7 29  1  0
  9 30  1  0
  9 31  1  0
 11 32  1  0
 12 33  1  0
 13 34  1  0
 16 35  1  0
 17 36  1  0
 18 37  1  0
 19 38  1  0
 20 39  1  0
 21 40  1  0
M  END
>  <UniqueID>  (48) 
46

>  <SMILES>  (48) 
O=S1(=O)CCCCN1Cc1cccc(-c2ccccc2)c1

>  <Energy>  (48) 
49.04783487388809

>  <Genealogy>  (48) 
O=S1(=O)CCCCN1Cc1cccc(-c2ccccc2)c1 (3D coordinates assigned)
O=S1(=O)CCCCN1Cc1cccc(-c2ccccc2)c1 (nonaromatic ring conformer: 49.04783487388809 kcal/mol)

>  <smiles>  (48) 
O=S1(=O)CCCCN1Cc1cccc(-c2ccccc2)c1

>  <score_type>  (48) 
oracle

>  <origin>  (48) 
adgpu

>  <m_score__min__energy>  (48) 
-9.7400000000000002

>  <m_primary>  (48) 
energy

$$$$
48:0
     RDKit          3D

 43 45  0  0  0  0  0  0  0  0999 V2000
   -3.3460   21.9720  -28.6940 O   0  0  0  0  0  0  0  0  0  0  0  0
   -3.3500   22.4470  -29.8630 C   0  0  0  0  0  0  0  0  0  0  0  0
   -2.1810   22.3120  -30.6800 N   0  0  0  0  0  0  0  0  0  0  0  0
   -1.7600   21.0920  -31.3020 C   0  0  0  0  0  0  0  0  0  0  0  0
   -0.8670   20.2610  -30.6110 C   0  0  0  0  0  0  0  0  0  0  0  0
   -0.4310   19.0620  -31.1780 C   0  0  0  0  0  0  0  0  0  0  0  0
   -0.9010   18.6710  -32.4350 C   0  0  0  0  0  0  0  0  0  0  0  0
   -0.4660   17.4790  -33.0000 O   0  0  0  0  0  0  0  0  0  0  0  0
   -1.8170   19.4770  -33.1200 C   0  0  0  0  0  0  0  0  0  0  0  0
   -2.2580   20.6820  -32.5570 C   0  0  0  0  0  0  0  0  0  0  0  0
   -3.4990   21.5940  -33.4080 Cl  0  0  0  0  0  0  0  0  0  0  0  0
   -4.5660   23.1100  -30.4050 C   0  0  0  0  0  0  0  0  0  0  0  0
   -5.7230   22.3450  -30.6500 C   0  0  0  0  0  0  0  0  0  0  0  0
   -6.8890   22.9440  -31.1470 C   0  0  0  0  0  0  0  0  0  0  0  0
   -8.3410   21.9740  -31.4160 S   0  0  0  0  0  0  0  0  0  0  0  0
   -8.9010   21.5400  -30.0890 O   0  0  0  0  0  0  0  0  0  0  0  0
   -9.3780   22.8150  -32.1060 O   0  0  0  0  0  0  0  0  0  0  0  0
   -7.9970   20.5630  -32.3920 N   0  0  0  0  0  0  0  0  0  0  0  0
   -8.4970   19.3430  -31.7220 C   0  0  0  0  0  0  0  0  0  0  0  0
   -7.8650   18.0810  -32.3170 C   0  0  0  0  0  0  0  0  0  0  0  0
   -6.3390   18.0790  -32.1160 C   0  0  0  0  0  0  0  0  0  0  0  0
   -5.7530   19.4950  -31.9830 C   0  0  0  0  0  0  0  0  0  0  0  0
   -6.5700   20.5110  -32.7960 C   0  0  0  0  0  0  0  0  0  0  0  0
   -6.8990   24.3160  -31.4200 C   0  0  0  0  0  0  0  0  0  0  0  0
   -5.7600   25.0850  -31.1890 C   0  0  0  0  0  0  0  0  0  0  0  0
   -4.5970   24.4960  -30.6840 C   0  0  0  0  0  0  0  0  0  0  0  0
   -3.4850   25.3030  -30.4640 O   0  0  0  0  0  0  0  0  0  0  0  0
   -0.5070   20.5560  -29.6143 H   0  0  0  0  0  0  0  0  0  0  0  0
    0.2827   18.4247  -30.6353 H   0  0  0  0  0  0  0  0  0  0  0  0
   -2.1927   19.1632  -34.1051 H   0  0  0  0  0  0  0  0  0  0  0  0
   -5.7115   21.2636  -30.4488 H   0  0  0  0  0  0  0  0  0  0  0  0
   -8.2508   19.3961  -30.6512 H   0  0  0  0  0  0  0  0  0  0  0  0
   -9.5857   19.2880  -31.8694 H   0  0  0  0  0  0  0  0  0  0  0  0
   -8.2938   17.1969  -31.8225 H   0  0  0  0  0  0  0  0  0  0  0  0
   -8.0756   18.0599  -33.3964 H   0  0  0  0  0  0  0  0  0  0  0  0
   -6.1059   17.5149  -31.2009 H   0  0  0  0  0  0  0  0  0  0  0  0
   -5.8884   17.6166  -33.0066 H   0  0  0  0  0  0  0  0  0  0  0  0
   -5.7646   19.7904  -30.9235 H   0  0  0  0  0  0  0  0  0  0  0  0
   -4.7236   19.4847  -32.3706 H   0  0  0  0  0  0  0  0  0  0  0  0
   -6.1290   21.5088  -32.6548 H   0  0  0  0  0  0  0  0  0  0  0  0
   -6.5372   20.1930  -33.8485 H   0  0  0  0  0  0  0  0  0  0  0  0
   -7.8087   24.7892  -31.8182 H   0  0  0  0  0  0  0  0  0  0  0  0
   -5.7761   26.1633  -31.4056 H   0  0  0  0  0  0  0  0  0  0  0  0
  1  2  2  0
  2  3  1  0
  3  4  1  0
  4  5  2  0
  5  6  1  0
  6  7  2  0
  7  8  1  0
  7  9  1  0
  9 10  2  0
 10 11  1  0
  2 12  1  0
 12 13  2  0
 13 14  1  0
 14 15  1  0
 15 16  2  0
 15 17  2  0
 15 18  1  0
 18 19  1  0
 19 20  1  0
 20 21  1  0
 21 22  1  0
 22 23  1  0
 14 24  2  0
 24 25  1  0
 25 26  2  0
 26 27  1  0
 10  4  1  0
 26 12  1  0
 23 18  1  0
  5 28  1  0
  6 29  1  0
  9 30  1  0
 13 31  1  0
 19 32  1  0
 19 33  1  0
 20 34  1  0
 20 35  1  0
 21 36  1  0
 21 37  1  0
 22 38  1  0
 22 39  1  0
 23 40  1  0
 23 41  1  0
 24 42  1  0
 25 43  1  0
M  CHG  3   3  -1   8  -1  27  -1
M  END
>  <UniqueID>  (49) 
47

>  <SMILES>  (49) 
O=C([N-]c1ccc([O-])cc1Cl)c1cc(S(=O)(=O)N2CCCCC2)ccc1[O-]

>  <Energy>  (49) 
58.377739678820824

>  <Genealogy>  (49) 
O=C([N-]c1ccc([O-])cc1Cl)c1cc(S(=O)(=O)N2CCCCC2)ccc1[O-] (protonated)
O=C([N-]c1ccc([O-])cc1Cl)c1cc(S(=O)(=O)N2CCCCC2)ccc1[O-] (3D coordinates assigned)
O=C([N-]c1ccc([O-])cc1Cl)c1cc(S(=O)(=O)N2CCCCC2)ccc1[O-] (nonaromatic ring conformer: 58.377739678820824 kcal/mol)

>  <smiles>  (49) 
O=C(Nc1ccc(O)cc1Cl)c1cc(S(=O)(=O)N2CCCCC2)ccc1O

>  <score_type>  (49) 
oracle

>  <origin>  (49) 
adgpu

>  <m_score__min__energy>  (49) 
-12.619999999999999

>  <m_primary>  (49) 
energy

$$$$
49:0
     RDKit          3D

 41 43  0  0  0  0  0  0  0  0999 V2000
   -4.2860   21.1310  -33.4380 N   0  0  0  0  0  0  0  0  0  0  0  0
   -3.3830   21.5240  -32.4010 C   0  0  0  0  0  0  0  0  0  0  0  0
   -2.2250   20.7770  -32.1580 C   0  0  0  0  0  0  0  0  0  0  0  0
   -1.3400   21.1650  -31.1530 C   0  0  0  0  0  0  0  0  0  0  0  0
   -1.6050   22.3010  -30.3850 C   0  0  0  0  0  0  0  0  0  0  0  0
   -2.7610   23.0700  -30.6120 C   0  0  0  0  0  0  0  0  0  0  0  0
   -2.9920   24.2960  -29.7340 C   0  0  2  0  0  0  0  0  0  0  0  0
   -3.5030   24.0690  -28.2880 C   0  0  0  0  0  0  0  0  0  0  0  0
   -2.3880   23.9720  -27.2690 C   0  0  0  0  0  0  0  0  0  0  0  0
   -1.6930   22.7640  -27.0830 C   0  0  0  0  0  0  0  0  0  0  0  0
   -0.6760   22.6720  -26.1280 C   0  0  0  0  0  0  0  0  0  0  0  0
   -0.3550   23.7780  -25.3320 C   0  0  0  0  0  0  0  0  0  0  0  0
    0.6580   23.6990  -24.3790 O   0  0  0  0  0  0  0  0  0  0  0  0
   -1.0610   24.9740  -25.4910 C   0  0  0  0  0  0  0  0  0  0  0  0
   -2.0770   25.0700  -26.4460 C   0  0  0  0  0  0  0  0  0  0  0  0
   -3.8170   25.2930  -30.4220 N   0  0  0  0  0  0  0  0  0  0  0  0
   -5.2450   25.4530  -30.4920 C   0  0  0  0  0  0  0  0  0  0  0  0
   -5.7300   26.5590  -30.1350 O   0  0  0  0  0  0  0  0  0  0  0  0
   -6.1700   24.4050  -30.9640 C   0  0  0  0  0  0  0  0  0  0  0  0
   -6.9040   23.5640  -30.1460 C   0  0  0  0  0  0  0  0  0  0  0  0
   -7.6140   22.7400  -30.9910 C   0  0  0  0  0  0  0  0  0  0  0  0
   -7.2690   23.1200  -32.2700 C   0  0  0  0  0  0  0  0  0  0  0  0
   -6.4080   24.1100  -32.2190 O   0  0  0  0  0  0  0  0  0  0  0  0
   -3.6510   22.6620  -31.6270 C   0  0  0  0  0  0  0  0  0  0  0  0
   -4.5900   21.8130  -34.1690 H   0  0  0  0  0  0  0  0  0  0  0  0
   -4.6570   20.1560  -33.4840 H   0  0  0  0  0  0  0  0  0  0  0  0
   -2.0125   19.8819  -32.7611 H   0  0  0  0  0  0  0  0  0  0  0  0
   -0.4309   20.5750  -30.9645 H   0  0  0  0  0  0  0  0  0  0  0  0
   -0.9015   22.5980  -29.5932 H   0  0  0  0  0  0  0  0  0  0  0  0
   -1.9687   24.6685  -29.5790 H   0  0  0  0  0  0  0  0  0  0  0  0
   -4.1563   24.9099  -28.0122 H   0  0  0  0  0  0  0  0  0  0  0  0
   -4.0388   23.1084  -28.2781 H   0  0  0  0  0  0  0  0  0  0  0  0
   -1.9511   21.8856  -27.6928 H   0  0  0  0  0  0  0  0  0  0  0  0
   -0.1263   21.7276  -26.0017 H   0  0  0  0  0  0  0  0  0  0  0  0
    0.5720   24.1520  -23.4760 H   0  0  0  0  0  0  0  0  0  0  0  0
   -0.8160   25.8427  -24.8622 H   0  0  0  0  0  0  0  0  0  0  0  0
   -2.6373   26.0103  -26.5549 H   0  0  0  0  0  0  0  0  0  0  0  0
   -6.9176   23.5554  -29.0461 H   0  0  0  0  0  0  0  0  0  0  0  0
   -8.3137   21.9414  -30.7036 H   0  0  0  0  0  0  0  0  0  0  0  0
   -7.6560   22.6635  -33.1930 H   0  0  0  0  0  0  0  0  0  0  0  0
   -4.5660   23.2433  -31.8136 H   0  0  0  0  0  0  0  0  0  0  0  0
  1  2  1  0
  2  3  2  0
  3  4  1  0
  4  5  2  0
  5  6  1  0
  6  7  1  0
  7  8  1  0
  8  9  1  0
  9 10  2  0
 10 11  1  0
 11 12  2  0
 12 13  1  0
 12 14  1  0
 14 15  2  0
  7 16  1  0
 16 17  1  0
 17 18  2  0
 17 19  1  0
 19 20  2  0
 20 21  1  0
 21 22  2  0
 22 23  1  0
  6 24  2  0
 24  2  1  0
 15  9  1  0
 23 19  1  0
  1 25  1  0
  1 26  1  0
  3 27  1  0
  4 28  1  0
  5 29  1  0
  7 30  1  1
  8 31  1  0
  8 32  1  0
 10 33  1  0
 11 34  1  0
 13 35  1  0
 14 36  1  0
 15 37  1  0
 20 38  1  0
 21 39  1  0
 22 40  1  0
 24 41  1  0
M  CHG  1  16  -1
M  END
>  <UniqueID>  (50) 
48

>  <SMILES>  (50) 
Nc1cccc([C@H](Cc2ccc(O)cc2)[N-]C(=O)c2ccco2)c1

>  <Energy>  (50) 
73.94822410311927

>  <Genealogy>  (50) 
Nc1cccc(C(Cc2ccc(O)cc2)[N-]C(=O)c2ccco2)c1 (protonated)
Nc1cccc([C@H](Cc2ccc(O)cc2)[N-]C(=O)c2ccco2)c1 (chirality)
Nc1cccc([C@H](Cc2ccc(O)cc2)[N-]C(=O)c2ccco2)c1 (3D coordinates assigned)
Nc1cccc([C@H](Cc2ccc(O)cc2)[N-]C(=O)c2ccco2)c1 (optimized conformer: 73.94822410311927 kcal/mol)

>  <smiles>  (50) 
Nc1cccc(C(Cc2ccc(O)cc2)NC(=O)c2ccco2)c1

>  <score_type>  (50) 
oracle

>  <origin>  (50) 
adgpu

>  <m_score__min__energy>  (50) 
-9.25

>  <m_primary>  (50) 
energy

$$$$
