0:0
     RDKit          3D

 48 52  0  0  0  0  0  0  0  0999 V2000
    0.5550   16.9340  -33.0510 O   0  0  0  0  0  0  0  0  0  0  0  0
    0.4200   18.1380  -33.4050 C   0  0  0  0  0  0  0  0  0  0  0  0
    0.6390   18.5220  -34.8190 C   0  0  0  0  0  0  0  0  0  0  0  0
    0.9820   17.5540  -35.7800 C   0  0  0  0  0  0  0  0  0  0  0  0
    1.1810   17.9190  -37.1130 C   0  0  0  0  0  0  0  0  0  0  0  0
    1.0400   19.2500  -37.5020 C   0  0  0  0  0  0  0  0  0  0  0  0
    0.7020   20.2230  -36.5590 C   0  0  0  0  0  0  0  0  0  0  0  0
    0.4980   19.8710  -35.2130 C   0  0  0  0  0  0  0  0  0  0  0  0
    0.1360   20.9000  -34.2100 C   0  0  0  0  0  0  0  0  0  0  0  0
    0.0200   22.1060  -34.5600 O   0  0  0  0  0  0  0  0  0  0  0  0
   -0.0930   20.5130  -32.7970 C   0  0  0  0  0  0  0  0  0  0  0  0
   -0.4460   21.4810  -31.8390 C   0  0  0  0  0  0  0  0  0  0  0  0
   -0.6590   21.1170  -30.5040 C   0  0  0  0  0  0  0  0  0  0  0  0
   -1.0490   22.3330  -29.2910 S   0  0  0  0  0  0  0  0  0  0  0  0
    0.2290   22.9500  -28.7990 O   0  0  0  0  0  0  0  0  0  0  0  0
   -1.7740   21.7170  -28.1270 O   0  0  0  0  0  0  0  0  0  0  0  0
   -2.0490   23.5650  -29.9960 N   0  0  0  0  0  0  0  0  0  0  0  0
   -3.3590   23.3100  -30.5380 C   0  0  0  0  0  0  0  0  0  0  0  0
   -3.7800   22.0030  -30.8490 C   0  0  0  0  0  0  0  0  0  0  0  0
   -5.0420   21.7690  -31.4110 C   0  0  0  0  0  0  0  0  0  0  0  0
   -5.9260   22.8460  -31.6140 C   0  0  0  0  0  0  0  0  0  0  0  0
   -5.5110   24.1470  -31.3010 C   0  0  0  0  0  0  0  0  0  0  0  0
   -4.2420   24.3800  -30.7650 C   0  0  0  0  0  0  0  0  0  0  0  0
   -3.8620   25.6840  -30.4670 O   0  0  0  0  0  0  0  0  0  0  0  0
   -7.2790   22.6290  -32.2520 C   0  0  0  0  0  0  0  0  0  0  0  0
   -7.7340   21.2360  -32.1420 N   0  0  0  0  0  0  0  0  0  0  0  0
   -6.7010   20.3100  -32.6180 C   0  0  0  0  0  0  0  0  0  0  0  0
   -5.4660   20.3540  -31.7080 C   0  0  0  0  0  0  0  0  0  0  0  0
   -0.5280   19.7780  -30.1220 C   0  0  0  0  0  0  0  0  0  0  0  0
   -0.1780   18.8080  -31.0630 C   0  0  0  0  0  0  0  0  0  0  0  0
    0.0450   19.1640  -32.4040 C   0  0  0  0  0  0  0  0  0  0  0  0
    1.0943   16.5019  -35.4793 H   0  0  0  0  0  0  0  0  0  0  0  0
    1.4495   17.1549  -37.8573 H   0  0  0  0  0  0  0  0  0  0  0  0
    1.1952   19.5344  -38.5532 H   0  0  0  0  0  0  0  0  0  0  0  0
    0.5946   21.2722  -36.8714 H   0  0  0  0  0  0  0  0  0  0  0  0
   -0.5556   22.5329  -32.1415 H   0  0  0  0  0  0  0  0  0  0  0  0
   -1.6150   24.5060  -30.1170 H   0  0  0  0  0  0  0  0  0  0  0  0
   -3.1094   21.1545  -30.6482 H   0  0  0  0  0  0  0  0  0  0  0  0
   -6.1909   24.9932  -31.4790 H   0  0  0  0  0  0  0  0  0  0  0  0
   -8.0126   23.2804  -31.7545 H   0  0  0  0  0  0  0  0  0  0  0  0
   -7.1873   22.8681  -33.3218 H   0  0  0  0  0  0  0  0  0  0  0  0
   -7.9460   21.0270  -31.1370 H   0  0  0  0  0  0  0  0  0  0  0  0
   -7.1081   19.2881  -32.6238 H   0  0  0  0  0  0  0  0  0  0  0  0
   -6.4009   20.6093  -33.6331 H   0  0  0  0  0  0  0  0  0  0  0  0
   -5.7028   19.8467  -30.7611 H   0  0  0  0  0  0  0  0  0  0  0  0
   -4.6383   19.8505  -32.2290 H   0  0  0  0  0  0  0  0  0  0  0  0
   -0.7016   19.4878  -29.0753 H   0  0  0  0  0  0  0  0  0  0  0  0
   -0.0761   17.7576  -30.7526 H   0  0  0  0  0  0  0  0  0  0  0  0
  1  2  2  0
  2  3  1  0
  3  4  2  0
  4  5  1  0
  5  6  2  0
  6  7  1  0
  7  8  2  0
  8  9  1  0
  9 10  2  0
  9 11  1  0
 11 12  2  0
 12 13  1  0
 13 14  1  0
 14 15  2  0
 14 16  2  0
 14 17  1  0
 17 18  1  0
 18 19  2  0
 19 20  1  0
 20 21  2  0
 21 22  1  0
 22 23  2  0
 23 24  1  0
 21 25  1  0
 25 26  1  0
 26 27  1  0
 27 28  1  0
 13 29  2  0
 29 30  1  0
 30 31  2  0
 31  2  1  0
  8  3  1  0
 31 11  1  0
 23 18  1  0
 28 20  1  0
  4 32  1  0
  5 33  1  0
  6 34  1  0
  7 35  1  0
 12 36  1  0
 17 37  1  0
 19 38  1  0
 22 39  1  0
 25 40  1  0
 25 41  1  0
 26 42  1  0
 27 43  1  0
 27 44  1  0
 28 45  1  0
 28 46  1  0
 29 47  1  0
 30 48  1  0
M  CHG  1  24  -1
M  END
>  <UniqueID>  (1) 
1

>  <SMILES>  (1) 
O=C1c2ccccc2C(=O)c2cc(S(=O)(=O)Nc3cc4c(cc3[O-])CNCC4)ccc21

>  <Energy>  (1) 
63.4606781679666

>  <Genealogy>  (1) 
O=C1c2ccccc2C(=O)c2cc(S(=O)(=O)Nc3cc4c(cc3[O-])CNCC4)ccc21 (protonated)
O=C1c2ccccc2C(=O)c2cc(S(=O)(=O)Nc3cc4c(cc3[O-])CNCC4)ccc21 (3D coordinates assigned)
O=C1c2ccccc2C(=O)c2cc(S(=O)(=O)Nc3cc4c(cc3[O-])CNCC4)ccc21 (nonaromatic ring conformer: 63.4606781679666 kcal/mol)

>  <smiles>  (1) 
O=C1c2ccccc2C(=O)c2cc(S(=O)(=O)Nc3cc4c(cc3O)CNCC4)ccc21

>  <score_type>  (1) 
oracle

>  <origin>  (1) 
adgpu

>  <m_score__min__energy>  (1) 
-15.539999999999999

>  <m_primary>  (1) 
energy

$$$$
1:0
     RDKit          3D

 45 47  0  0  0  0  0  0  0  0999 V2000
   -2.9630   24.7180  -29.4730 C   0  0  0  0  0  0  0  0  0  0  0  0
   -3.8490   25.2580  -30.4960 N   0  0  0  0  0  0  0  0  0  0  0  0
   -5.1010   24.6770  -30.8840 C   0  0  0  0  0  0  0  0  0  0  0  0
   -6.1420   25.3830  -30.8180 O   0  0  0  0  0  0  0  0  0  0  0  0
   -5.2040   23.2950  -31.3950 C   0  0  0  0  0  0  0  0  0  0  0  0
   -4.1490   22.7130  -32.1140 C   0  0  0  0  0  0  0  0  0  0  0  0
   -4.2500   21.3980  -32.5790 C   0  0  0  0  0  0  0  0  0  0  0  0
   -5.4160   20.6470  -32.3350 C   0  0  0  0  0  0  0  0  0  0  0  0
   -5.5460   19.2820  -32.7630 N   0  0  0  0  0  0  0  0  0  0  0  0
   -4.5830   18.4250  -32.9640 C   0  0  0  0  0  0  0  0  0  0  0  0
   -3.2810   18.8100  -32.8470 N   0  0  0  0  0  0  0  0  0  0  0  0
   -2.2480   17.9550  -33.0480 C   0  0  0  0  0  0  0  0  0  0  0  0
   -2.4970   16.6340  -33.4050 C   0  0  0  0  0  0  0  0  0  0  0  0
   -3.8170   16.1920  -33.5600 C   0  0  0  0  0  0  0  0  0  0  0  0
   -4.0370   14.8010  -34.0190 C   0  0  0  0  0  0  0  0  0  0  0  0
   -3.8920   14.5130  -35.3860 C   0  0  0  0  0  0  0  0  0  0  0  0
   -4.0690   13.2110  -35.8580 C   0  0  0  0  0  0  0  0  0  0  0  0
   -4.3990   12.1850  -34.9730 C   0  0  0  0  0  0  0  0  0  0  0  0
   -4.5710   12.4590  -33.6150 C   0  0  0  0  0  0  0  0  0  0  0  0
   -4.4150   13.7670  -33.1250 C   0  0  0  0  0  0  0  0  0  0  0  0
   -4.6270   14.0240  -31.6550 C   0  0  0  0  0  0  0  0  0  0  0  0
   -4.8870   17.0920  -33.3250 C   0  0  0  0  0  0  0  0  0  0  0  0
   -6.3010   16.6530  -33.4410 C   0  0  0  0  0  0  0  0  0  0  0  0
   -7.3120   17.2060  -32.5960 N   0  0  0  0  0  0  0  0  0  0  0  0
   -6.6240   15.8000  -34.3110 O   0  0  0  0  0  0  0  0  0  0  0  0
   -6.4420   21.2120  -31.5680 C   0  0  0  0  0  0  0  0  0  0  0  0
   -6.3410   22.5260  -31.1030 C   0  0  0  0  0  0  0  0  0  0  0  0
   -3.3618   24.9611  -28.4771 H   0  0  0  0  0  0  0  0  0  0  0  0
   -2.8966   23.6257  -29.5848 H   0  0  0  0  0  0  0  0  0  0  0  0
   -1.9617   25.1596  -29.5848 H   0  0  0  0  0  0  0  0  0  0  0  0
   -3.2369   23.2947  -32.3131 H   0  0  0  0  0  0  0  0  0  0  0  0
   -3.4156   20.9486  -33.1374 H   0  0  0  0  0  0  0  0  0  0  0  0
   -1.2125   18.3063  -32.9287 H   0  0  0  0  0  0  0  0  0  0  0  0
   -1.6599   15.9386  -33.5651 H   0  0  0  0  0  0  0  0  0  0  0  0
   -3.6372   15.3190  -36.0898 H   0  0  0  0  0  0  0  0  0  0  0  0
   -3.9480   12.9942  -36.9296 H   0  0  0  0  0  0  0  0  0  0  0  0
   -4.5240   11.1577  -35.3458 H   0  0  0  0  0  0  0  0  0  0  0  0
   -4.8307   11.6445  -32.9228 H   0  0  0  0  0  0  0  0  0  0  0  0
   -4.0350   13.3063  -31.0682 H   0  0  0  0  0  0  0  0  0  0  0  0
   -4.3075   15.0482  -31.4120 H   0  0  0  0  0  0  0  0  0  0  0  0
   -5.6932   13.9051  -31.4120 H   0  0  0  0  0  0  0  0  0  0  0  0
   -7.1050   18.0130  -31.9680 H   0  0  0  0  0  0  0  0  0  0  0  0
   -8.2930   16.8520  -32.6510 H   0  0  0  0  0  0  0  0  0  0  0  0
   -7.3355   20.6164  -31.3293 H   0  0  0  0  0  0  0  0  0  0  0  0
   -7.1564   22.9595  -30.5054 H   0  0  0  0  0  0  0  0  0  0  0  0
  1  2  1  0
  2  3  1  0
  3  4  2  0
  3  5  1  0
  5  6  2  0
  6  7  1  0
  7  8  2  0
  8  9  1  0
  9 10  2  3
 10 11  1  0
 11 12  1  0
 12 13  2  0
 13 14  1  0
 14 15  1  0
 15 16  2  0
 16 17  1  0
 17 18  2  0
 18 19  1  0
 19 20  2  0
 20 21  1  0
 14 22  2  0
 22 23  1  0
 23 24  1  0
 23 25  2  0
  8 26  1  0
 26 27  2  0
 27  5  1  0
 22 10  1  0
 20 15  1  0
  1 28  1  0
  1 29  1  0
  1 30  1  0
  6 31  1  0
  7 32  1  0
 12 33  1  0
 13 34  1  0
 16 35  1  0
 17 36  1  0
 18 37  1  0
 19 38  1  0
 21 39  1  0
 21 40  1  0
 21 41  1  0
 24 42  1  0
 24 43  1  0
 26 44  1  0
 27 45  1  0
M  CHG  2   2  -1  11  -1
M  END
>  <UniqueID>  (2) 
2

>  <SMILES>  (2) 
C[N-]C(=O)c1ccc(N=c2[n-]ccc(-c3ccccc3C)c2C(N)=O)cc1

>  <Energy>  (2) 
71.43863685657992

>  <Genealogy>  (2) 
C[N-]C(=O)c1ccc(N=c2[n-]ccc(-c3ccccc3C)c2C(N)=O)cc1 (protonated)
C[N-]C(=O)c1ccc(N=c2[n-]ccc(-c3ccccc3C)c2C(N)=O)cc1 (3D coordinates assigned)
C[N-]C(=O)c1ccc(N=c2[n-]ccc(-c3ccccc3C)c2C(N)=O)cc1 (optimized conformer: 71.43863685657992 kcal/mol)

>  <smiles>  (2) 
CNC(=O)c1ccc(N=c2[nH]ccc(-c3ccccc3C)c2C(N)=O)cc1

>  <score_type>  (2) 
oracle

>  <origin>  (2) 
adgpu

>  <m_score__min__energy>  (2) 
-8.4299999999999997

>  <m_primary>  (2) 
energy

$$$$
2:0
     RDKit          3D

 51 53  0  0  0  0  0  0  0  0999 V2000
   -4.3870   17.2350  -33.3230 C   0  0  0  0  0  0  0  0  0  0  0  0
   -4.9800   18.5290  -33.6820 N   0  0  0  0  0  0  0  0  0  0  0  0
   -5.7430   18.4070  -34.9310 C   0  0  0  0  0  0  0  0  0  0  0  0
   -6.0290   19.0790  -32.3980 S   0  0  0  0  0  0  0  0  0  0  0  0
   -5.9220   18.1390  -31.2290 O   0  0  0  0  0  0  0  0  0  0  0  0
   -7.4540   19.0640  -32.8760 O   0  0  0  0  0  0  0  0  0  0  0  0
   -5.6100   20.7110  -31.8710 C   0  0  0  0  0  0  0  0  0  0  0  0
   -6.5930   21.5520  -31.3360 C   0  0  0  0  0  0  0  0  0  0  0  0
   -6.2620   22.8430  -30.9110 C   0  0  0  0  0  0  0  0  0  0  0  0
   -4.9390   23.3110  -31.0140 C   0  0  0  0  0  0  0  0  0  0  0  0
   -4.5830   24.6760  -30.5620 C   0  0  0  0  0  0  0  0  0  0  0  0
   -4.9830   25.6800  -31.2130 O   0  0  0  0  0  0  0  0  0  0  0  0
   -3.8290   24.8620  -29.3560 N   0  0  0  0  0  0  0  0  0  0  0  0
   -2.6290   24.1570  -29.0080 C   0  0  0  0  0  0  0  0  0  0  0  0
   -2.7130   22.7840  -28.7450 C   0  0  0  0  0  0  0  0  0  0  0  0
   -1.5650   22.0510  -28.4090 C   0  0  0  0  0  0  0  0  0  0  0  0
   -1.6710   20.3300  -28.0550 S   0  0  0  0  0  0  0  0  0  0  0  0
   -0.8990   20.0440  -26.7970 O   0  0  0  0  0  0  0  0  0  0  0  0
   -3.1100   19.9370  -27.8490 O   0  0  0  0  0  0  0  0  0  0  0  0
   -0.9880   19.4200  -29.3790 N   0  0  0  0  0  0  0  0  0  0  0  0
    0.4670   19.3170  -29.2630 C   0  0  0  0  0  0  0  0  0  0  0  0
    1.0090   19.1760  -30.6780 C   0  0  0  0  0  0  0  0  0  0  0  0
   -0.1120   19.6480  -31.5910 C   0  0  0  0  0  0  0  0  0  0  0  0
   -1.2330   20.0830  -30.6600 C   0  0  0  0  0  0  0  0  0  0  0  0
   -0.3250   22.6990  -28.3460 C   0  0  0  0  0  0  0  0  0  0  0  0
   -0.2280   24.0600  -28.6430 C   0  0  0  0  0  0  0  0  0  0  0  0
   -1.3690   24.7900  -28.9880 C   0  0  0  0  0  0  0  0  0  0  0  0
   -1.2350   26.1280  -29.3410 O   0  0  0  0  0  0  0  0  0  0  0  0
   -3.9570   22.4590  -31.5520 C   0  0  0  0  0  0  0  0  0  0  0  0
   -4.2910   21.1700  -31.9770 C   0  0  0  0  0  0  0  0  0  0  0  0
   -4.3445   17.1424  -32.2277 H   0  0  0  0  0  0  0  0  0  0  0  0
   -5.0025   16.4223  -33.7361 H   0  0  0  0  0  0  0  0  0  0  0  0
   -3.3696   17.1707  -33.7361 H   0  0  0  0  0  0  0  0  0  0  0  0
   -6.8044   18.2373  -34.6972 H   0  0  0  0  0  0  0  0  0  0  0  0
   -5.6398   19.3330  -35.5156 H   0  0  0  0  0  0  0  0  0  0  0  0
   -5.3562   17.5593  -35.5156 H   0  0  0  0  0  0  0  0  0  0  0  0
   -7.6302   21.1961  -31.2494 H   0  0  0  0  0  0  0  0  0  0  0  0
   -7.0416   23.4970  -30.4933 H   0  0  0  0  0  0  0  0  0  0  0  0
   -3.6871   22.2762  -28.8024 H   0  0  0  0  0  0  0  0  0  0  0  0
    0.8747   20.2222  -28.7892 H   0  0  0  0  0  0  0  0  0  0  0  0
    0.7547   18.4564  -28.6413 H   0  0  0  0  0  0  0  0  0  0  0  0
    1.9032   19.8026  -30.8115 H   0  0  0  0  0  0  0  0  0  0  0  0
    1.3074   18.1407  -30.8996 H   0  0  0  0  0  0  0  0  0  0  0  0
    0.2249   20.4931  -32.2093 H   0  0  0  0  0  0  0  0  0  0  0  0
   -0.4376   18.8570  -32.2826 H   0  0  0  0  0  0  0  0  0  0  0  0
   -1.2184   21.1754  -30.5317 H   0  0  0  0  0  0  0  0  0  0  0  0
   -2.2177   19.8106  -31.0677 H   0  0  0  0  0  0  0  0  0  0  0  0
    0.5751   22.1342  -28.0617 H   0  0  0  0  0  0  0  0  0  0  0  0
    0.7510   24.5600  -28.6053 H   0  0  0  0  0  0  0  0  0  0  0  0
   -2.9182   22.8101  -31.6388 H   0  0  0  0  0  0  0  0  0  0  0  0
   -3.5146   20.5133  -32.3965 H   0  0  0  0  0  0  0  0  0  0  0  0
  1  2  1  0
  2  3  1  0
  2  4  1  0
  4  5  2  0
  4  6  2  0
  4  7  1  0
  7  8  2  0
  8  9  1  0
  9 10  2  0
 10 11  1  0
 11 12  2  0
 11 13  1  0
 13 14  1  0
 14 15  2  0
 15 16  1  0
 16 17  1  0
 17 18  2  0
 17 19  2  0
 17 20  1  0
 20 21  1  0
 21 22  1  0
 22 23  1  0
 23 24  1  0
 16 25  2  0
 25 26  1  0
 26 27  2  0
 27 28  1  0
 10 29  1  0
 29 30  2  0
 30  7  1  0
 27 14  1  0
 24 20  1  0
  1 31  1  0
  1 32  1  0
  1 33  1  0
  3 34  1  0
  3 35  1  0
  3 36  1  0
  8 37  1  0
  9 38  1  0
 15 39  1  0
 21 40  1  0
 21 41  1  0
 22 42  1  0
 22 43  1  0
 23 44  1  0
 23 45  1  0
 24 46  1  0
 24 47  1  0
 25 48  1  0
 26 49  1  0
 29 50  1  0
 30 51  1  0
M  CHG  2  13  -1  28  -1
M  END
>  <UniqueID>  (3) 
3

>  <SMILES>  (3) 
CN(C)S(=O)(=O)c1ccc(C(=O)[N-]c2cc(S(=O)(=O)N3CCCC3)ccc2[O-])cc1

>  <Energy>  (3) 
56.60899105191595

>  <Genealogy>  (3) 
CN(C)S(=O)(=O)c1ccc(C(=O)[N-]c2cc(S(=O)(=O)N3CCCC3)ccc2[O-])cc1 (protonated)
CN(C)S(=O)(=O)c1ccc(C(=O)[N-]c2cc(S(=O)(=O)N3CCCC3)ccc2[O-])cc1 (3D coordinates assigned)
CN(C)S(=O)(=O)c1ccc(C(=O)[N-]c2cc(S(=O)(=O)N3CCCC3)ccc2[O-])cc1 (nonaromatic ring conformer: 56.60899105191595 kcal/mol)

>  <smiles>  (3) 
CN(C)S(=O)(=O)c1ccc(C(=O)Nc2cc(S(=O)(=O)N3CCCC3)ccc2O)cc1

>  <score_type>  (3) 
oracle

>  <origin>  (3) 
adgpu

>  <m_score__min__energy>  (3) 
-14.539999999999999

>  <m_primary>  (3) 
energy

$$$$
3:0
     RDKit          3D

 64 68  0  0  0  0  0  0  0  0999 V2000
   -0.8410   22.5270  -25.5220 C   0  0  0  0  0  0  0  0  0  0  0  0
   -0.3370   21.4850  -26.4250 N   0  0  0  0  0  0  0  0  0  0  0  0
    0.2470   22.0850  -27.6560 C   0  0  0  0  0  0  0  0  0  0  0  0
   -0.0800   21.3170  -28.9520 C   0  0  0  0  0  0  0  0  0  0  0  0
   -0.1140   19.8720  -28.7000 N   0  0  0  0  0  0  0  0  0  0  0  0
    0.4530   18.9540  -29.6430 C   0  0  0  0  0  0  0  0  0  0  0  0
    1.5190   18.3580  -29.3370 O   0  0  0  0  0  0  0  0  0  0  0  0
   -0.2310   18.6660  -30.9360 C   0  0  0  0  0  0  0  0  0  0  0  0
   -0.9070   19.6960  -31.6140 C   0  0  0  0  0  0  0  0  0  0  0  0
   -1.5680   19.4480  -32.8170 C   0  0  0  0  0  0  0  0  0  0  0  0
   -1.5900   18.1620  -33.3580 C   0  0  0  0  0  0  0  0  0  0  0  0
   -2.2770   17.9330  -34.5900 N   0  0  0  0  0  0  0  0  0  0  0  0
   -3.8270   17.1600  -34.6720 S   0  0  0  0  0  0  0  0  0  0  0  0
   -4.2600   17.0850  -36.1080 O   0  0  0  0  0  0  0  0  0  0  0  0
   -3.7060   15.7590  -34.1360 O   0  0  0  0  0  0  0  0  0  0  0  0
   -5.0370   18.0480  -33.7510 C   0  0  0  0  0  0  0  0  0  0  0  0
   -6.3230   17.5150  -33.5710 C   0  0  0  0  0  0  0  0  0  0  0  0
   -7.3020   18.2450  -32.8890 C   0  0  0  0  0  0  0  0  0  0  0  0
   -7.0060   19.5200  -32.3920 C   0  0  0  0  0  0  0  0  0  0  0  0
   -7.9430   20.2240  -31.7640 O   0  0  0  0  0  0  0  0  0  0  0  0
   -7.7220   21.4450  -31.2840 C   0  0  0  0  0  0  0  0  0  0  0  0
   -8.6600   22.0570  -30.7100 O   0  0  0  0  0  0  0  0  0  0  0  0
   -6.4580   22.0450  -31.4210 C   0  0  0  0  0  0  0  0  0  0  0  0
   -6.1570   23.6820  -30.8240 S   0  0  0  0  0  0  0  0  0  0  0  0
   -5.8670   24.6070  -31.9720 O   0  0  0  0  0  0  0  0  0  0  0  0
   -7.4000   24.1490  -30.1200 O   0  0  0  0  0  0  0  0  0  0  0  0
   -4.7750   23.7030  -29.7240 C   0  0  0  0  0  0  0  0  0  0  0  0
   -4.6530   22.7020  -28.7480 C   0  0  0  0  0  0  0  0  0  0  0  0
   -3.5590   22.6930  -27.8770 C   0  0  0  0  0  0  0  0  0  0  0  0
   -2.5740   23.6780  -27.9790 C   0  0  0  0  0  0  0  0  0  0  0  0
   -2.6810   24.6730  -28.9540 C   0  0  0  0  0  0  0  0  0  0  0  0
   -3.7720   24.6870  -29.8320 C   0  0  0  0  0  0  0  0  0  0  0  0
   -3.8440   25.6740  -30.8090 O   0  0  0  0  0  0  0  0  0  0  0  0
   -5.4470   21.3330  -32.0690 C   0  0  0  0  0  0  0  0  0  0  0  0
   -5.7140   20.0560  -32.5660 C   0  0  0  0  0  0  0  0  0  0  0  0
   -4.7330   19.3170  -33.2400 C   0  0  0  0  0  0  0  0  0  0  0  0
   -0.9620   17.1120  -32.6730 C   0  0  0  0  0  0  0  0  0  0  0  0
   -0.2650   17.3580  -31.4810 C   0  0  0  0  0  0  0  0  0  0  0  0
    0.3970   16.3020  -30.8500 O   0  0  0  0  0  0  0  0  0  0  0  0
   -0.8060   19.3420  -27.5250 C   0  0  0  0  0  0  0  0  0  0  0  0
   -1.3890   20.4840  -26.6870 C   0  0  0  0  0  0  0  0  0  0  0  0
   -0.6891   22.2130  -24.4788 H   0  0  0  0  0  0  0  0  0  0  0  0
   -0.2972   23.4655  -25.7053 H   0  0  0  0  0  0  0  0  0  0  0  0
   -1.9143   22.6833  -25.7053 H   0  0  0  0  0  0  0  0  0  0  0  0
   -0.1390   23.1102  -27.7562 H   0  0  0  0  0  0  0  0  0  0  0  0
    1.3399   22.0498  -27.5359 H   0  0  0  0  0  0  0  0  0  0  0  0
   -1.0617   21.6420  -29.3271 H   0  0  0  0  0  0  0  0  0  0  0  0
    0.7008   21.5293  -29.6972 H   0  0  0  0  0  0  0  0  0  0  0  0
   -0.9146   20.7109  -31.1899 H   0  0  0  0  0  0  0  0  0  0  0  0
   -2.0748   20.2710  -33.3422 H   0  0  0  0  0  0  0  0  0  0  0  0
   -6.5622   16.5176  -33.9685 H   0  0  0  0  0  0  0  0  0  0  0  0
   -8.3048   17.8172  -32.7431 H   0  0  0  0  0  0  0  0  0  0  0  0
   -5.4224   21.9199  -28.6677 H   0  0  0  0  0  0  0  0  0  0  0  0
   -3.4741   21.9089  -27.1102 H   0  0  0  0  0  0  0  0  0  0  0  0
   -1.7147   23.6704  -27.2923 H   0  0  0  0  0  0  0  0  0  0  0  0
   -1.9050   25.4487  -29.0323 H   0  0  0  0  0  0  0  0  0  0  0  0
   -4.4468   21.7752  -32.1872 H   0  0  0  0  0  0  0  0  0  0  0  0
   -3.7229   19.7333  -33.3683 H   0  0  0  0  0  0  0  0  0  0  0  0
   -1.0163   16.0888  -33.0731 H   0  0  0  0  0  0  0  0  0  0  0  0
    1.1240   16.4610  -30.1610 H   0  0  0  0  0  0  0  0  0  0  0  0
   -1.6214   18.6803  -27.8526 H   0  0  0  0  0  0  0  0  0  0  0  0
   -0.0865   18.7806  -26.9108 H   0  0  0  0  0  0  0  0  0  0  0  0
   -2.2169   20.9565  -27.2358 H   0  0  0  0  0  0  0  0  0  0  0  0
   -1.7636   20.0857  -25.7325 H   0  0  0  0  0  0  0  0  0  0  0  0
  1  2  1  0
  2  3  1  0
  3  4  1  0
  4  5  1  0
  5  6  1  0
  6  7  2  0
  6  8  1  0
  8  9  2  0
  9 10  1  0
 10 11  2  0
 11 12  1  0
 12 13  1  0
 13 14  2  0
 13 15  2  0
 13 16  1  0
 16 17  2  0
 17 18  1  0
 18 19  2  0
 19 20  1  0
 20 21  1  0
 21 22  2  0
 21 23  1  0
 23 24  1  0
 24 25  2  0
 24 26  2  0
 24 27  1  0
 27 28  2  0
 28 29  1  0
 29 30  2  0
 30 31  1  0
 31 32  2  0
 32 33  1  0
 23 34  2  0
 34 35  1  0
 35 36  2  0
 11 37  1  0
 37 38  2  0
 38 39  1  0
  5 40  1  0
 40 41  1  0
 41  2  1  0
 38  8  1  0
 36 16  1  0
 35 19  1  0
 32 27  1  0
  1 42  1  0
  1 43  1  0
  1 44  1  0
  3 45  1  0
  3 46  1  0
  4 47  1  0
  4 48  1  0
  9 49  1  0
 10 50  1  0
 17 51  1  0
 18 52  1  0
 28 53  1  0
 29 54  1  0
 30 55  1  0
 31 56  1  0
 34 57  1  0
 36 58  1  0
 37 59  1  0
 39 60  1  0
 40 61  1  0
 40 62  1  0
 41 63  1  0
 41 64  1  0
M  CHG  2  12  -1  33  -1
M  END
>  <UniqueID>  (4) 
4

>  <SMILES>  (4) 
CN1CCN(C(=O)c2ccc([N-]S(=O)(=O)c3ccc4oc(=O)c(S(=O)(=O)c5ccccc5[O-])cc4c3)cc2O)CC1

>  <Energy>  (4) 
99.2533991883297

>  <Genealogy>  (4) 
CN1CCN(C(=O)c2ccc([N-]S(=O)(=O)c3ccc4oc(=O)c(S(=O)(=O)c5ccccc5[O-])cc4c3)cc2O)CC1 (protonated)
CN1CCN(C(=O)c2ccc([N-]S(=O)(=O)c3ccc4oc(=O)c(S(=O)(=O)c5ccccc5[O-])cc4c3)cc2O)CC1 (3D coordinates assigned)
CN1CCN(C(=O)c2ccc([N-]S(=O)(=O)c3ccc4oc(=O)c(S(=O)(=O)c5ccccc5[O-])cc4c3)cc2O)CC1 (nonaromatic ring conformer: 99.2533991883297 kcal/mol)

>  <smiles>  (4) 
CN1CCN(C(=O)c2ccc(NS(=O)(=O)c3ccc4oc(=O)c(S(=O)(=O)c5ccccc5O)cc4c3)cc2O)CC1

>  <score_type>  (4) 
oracle

>  <origin>  (4) 
adgpu

>  <m_score__min__energy>  (4) 
-14.02

>  <m_primary>  (4) 
energy

$$$$
4:0
     RDKit          3D

 61 64  0  0  0  0  0  0  0  0999 V2000
   -0.7980   26.7290  -27.2740 C   0  0  0  0  0  0  0  0  0  0  0  0
   -0.6780   25.9660  -28.4700 O   0  0  0  0  0  0  0  0  0  0  0  0
   -0.7910   24.5670  -28.5390 C   0  0  0  0  0  0  0  0  0  0  0  0
    0.2640   23.7140  -28.1580 C   0  0  0  0  0  0  0  0  0  0  0  0
    0.1170   22.3170  -28.2210 C   0  0  0  0  0  0  0  0  0  0  0  0
    1.1750   21.4190  -27.8380 N   0  0  0  0  0  0  0  0  0  0  0  0
    1.1520   19.7030  -28.1040 S   0  0  0  0  0  0  0  0  0  0  0  0
    1.1060   19.3510  -29.8490 C   0  0  0  0  0  0  0  0  0  0  0  0
    2.4070   19.1070  -27.5320 O   0  0  0  0  0  0  0  0  0  0  0  0
   -0.0330   19.0900  -27.4130 O   0  0  0  0  0  0  0  0  0  0  0  0
   -1.0950   21.7830  -28.6770 C   0  0  0  0  0  0  0  0  0  0  0  0
   -2.1440   22.6200  -29.0570 C   0  0  0  0  0  0  0  0  0  0  0  0
   -1.9920   24.0170  -29.0130 C   0  0  0  0  0  0  0  0  0  0  0  0
   -3.0690   24.9030  -29.3680 N   0  0  0  0  0  0  0  0  0  0  0  0
   -4.0810   24.6270  -30.1400 C   0  0  0  0  0  0  0  0  0  0  0  0
   -5.0690   25.5950  -30.3460 C   0  0  0  0  0  0  0  0  0  0  0  0
   -6.1360   25.3130  -31.1990 C   0  0  0  0  0  0  0  0  0  0  0  0
   -6.2100   24.0760  -31.8410 C   0  0  0  0  0  0  0  0  0  0  0  0
   -5.2040   23.1190  -31.6180 C   0  0  0  0  0  0  0  0  0  0  0  0
   -5.2240   21.7870  -32.2780 C   0  0  0  0  0  0  0  0  0  0  0  0
   -6.4010   21.0200  -32.3510 C   0  0  0  0  0  0  0  0  0  0  0  0
   -6.3940   19.7650  -32.9670 C   0  0  0  0  0  0  0  0  0  0  0  0
   -5.2120   19.2500  -33.5240 C   0  0  0  0  0  0  0  0  0  0  0  0
   -5.2040   17.9500  -34.1460 N   0  0  0  0  0  0  0  0  0  0  0  0
   -3.9310   17.2810  -34.4410 C   0  0  0  0  0  0  0  0  0  0  0  0
   -4.1450   15.7700  -34.6420 C   0  0  0  0  0  0  0  0  0  0  0  0
   -5.1540   15.2280  -33.7090 N   0  0  0  0  0  0  0  0  0  0  0  0
   -4.6800   15.2520  -32.3150 C   0  0  0  0  0  0  0  0  0  0  0  0
   -6.4910   15.8660  -33.8490 C   0  0  0  0  0  0  0  0  0  0  0  0
   -6.4520   17.2640  -34.4940 C   0  0  0  0  0  0  0  0  0  0  0  0
   -4.0320   20.0040  -33.4330 C   0  0  0  0  0  0  0  0  0  0  0  0
   -4.0370   21.2580  -32.8170 C   0  0  0  0  0  0  0  0  0  0  0  0
   -4.1710   23.4320  -30.7870 N   0  0  0  0  0  0  0  0  0  0  0  0
   -0.6935   26.0649  -26.4034 H   0  0  0  0  0  0  0  0  0  0  0  0
   -0.0093   27.4954  -27.2473 H   0  0  0  0  0  0  0  0  0  0  0  0
   -1.7838   27.2163  -27.2473 H   0  0  0  0  0  0  0  0  0  0  0  0
    1.2130   24.1458  -27.8074 H   0  0  0  0  0  0  0  0  0  0  0  0
    2.0600   21.8200  -27.4550 H   0  0  0  0  0  0  0  0  0  0  0  0
    0.9648   18.2708  -30.0016 H   0  0  0  0  0  0  0  0  0  0  0  0
    0.2718   19.8988  -30.3117 H   0  0  0  0  0  0  0  0  0  0  0  0
    2.0529   19.6660  -30.3117 H   0  0  0  0  0  0  0  0  0  0  0  0
   -1.2208   20.6918  -28.7360 H   0  0  0  0  0  0  0  0  0  0  0  0
   -3.0964   22.1843  -29.3933 H   0  0  0  0  0  0  0  0  0  0  0  0
   -5.0053   26.5697  -29.8401 H   0  0  0  0  0  0  0  0  0  0  0  0
   -6.9200   26.0664  -31.3659 H   0  0  0  0  0  0  0  0  0  0  0  0
   -7.0488   23.8513  -32.5163 H   0  0  0  0  0  0  0  0  0  0  0  0
   -7.3345   21.4109  -31.9199 H   0  0  0  0  0  0  0  0  0  0  0  0
   -7.3218   19.1761  -33.0158 H   0  0  0  0  0  0  0  0  0  0  0  0
   -3.5015   17.7101  -35.3583 H   0  0  0  0  0  0  0  0  0  0  0  0
   -3.2470   17.4319  -33.5928 H   0  0  0  0  0  0  0  0  0  0  0  0
   -4.4830   15.5928  -35.6737 H   0  0  0  0  0  0  0  0  0  0  0  0
   -3.1900   15.2611  -34.4448 H   0  0  0  0  0  0  0  0  0  0  0  0
   -5.5425   15.2083  -31.6337 H   0  0  0  0  0  0  0  0  0  0  0  0
   -4.0263   14.3858  -32.1350 H   0  0  0  0  0  0  0  0  0  0  0  0
   -4.1171   16.1798  -32.1350 H   0  0  0  0  0  0  0  0  0  0  0  0
   -7.1218   15.2148  -34.4720 H   0  0  0  0  0  0  0  0  0  0  0  0
   -6.8908   15.9949  -32.8324 H   0  0  0  0  0  0  0  0  0  0  0  0
   -6.5170   17.1612  -35.5873 H   0  0  0  0  0  0  0  0  0  0  0  0
   -7.3013   17.8545  -34.1200 H   0  0  0  0  0  0  0  0  0  0  0  0
   -3.0957   19.6046  -33.8499 H   0  0  0  0  0  0  0  0  0  0  0  0
   -3.1040   21.8372  -32.7528 H   0  0  0  0  0  0  0  0  0  0  0  0
  1  2  1  0
  2  3  1  0
  3  4  2  0
  4  5  1  0
  5  6  1  0
  6  7  1  0
  7  8  1  0
  7  9  2  0
  7 10  2  0
  5 11  2  0
 11 12  1  0
 12 13  2  0
 13 14  1  0
 14 15  2  3
 15 16  1  0
 16 17  2  0
 17 18  1  0
 18 19  2  0
 19 20  1  0
 20 21  2  0
 21 22  1  0
 22 23  2  0
 23 24  1  0
 24 25  1  0
 25 26  1  0
 26 27  1  0
 27 28  1  0
 27 29  1  0
 29 30  1  0
 23 31  1  0
 31 32  2  0
 19 33  1  0
 13  3  1  0
 33 15  1  0
 32 20  1  0
 30 24  1  0
  1 34  1  0
  1 35  1  0
  1 36  1  0
  4 37  1  0
  6 38  1  0
  8 39  1  0
  8 40  1  0
  8 41  1  0
 11 42  1  0
 12 43  1  0
 16 44  1  0
 17 45  1  0
 18 46  1  0
 21 47  1  0
 22 48  1  0
 25 49  1  0
 25 50  1  0
 26 51  1  0
 26 52  1  0
 28 53  1  0
 28 54  1  0
 28 55  1  0
 29 56  1  0
 29 57  1  0
 30 58  1  0
 30 59  1  0
 31 60  1  0
 32 61  1  0
M  CHG  1  33  -1
M  END
>  <UniqueID>  (5) 
5

>  <SMILES>  (5) 
COc1cc(NS(C)(=O)=O)ccc1N=c1cccc(-c2ccc(N3CCN(C)CC3)cc2)[n-]1

>  <Energy>  (5) 
84.01810465953207

>  <Genealogy>  (5) 
COc1cc(NS(C)(=O)=O)ccc1N=c1cccc(-c2ccc(N3CCN(C)CC3)cc2)[n-]1 (protonated)
COc1cc(NS(C)(=O)=O)ccc1N=c1cccc(-c2ccc(N3CCN(C)CC3)cc2)[n-]1 (3D coordinates assigned)
COc1cc(NS(C)(=O)=O)ccc1N=c1cccc(-c2ccc(N3CCN(C)CC3)cc2)[n-]1 (nonaromatic ring conformer: 84.01810465953207 kcal/mol)

>  <smiles>  (5) 
COc1cc(NS(C)(=O)=O)ccc1N=c1cccc(-c2ccc(N3CCN(C)CC3)cc2)[nH]1

>  <score_type>  (5) 
oracle

>  <origin>  (5) 
adgpu

>  <m_score__min__energy>  (5) 
-10.27

>  <m_primary>  (5) 
energy

$$$$
5:0
     RDKit          3D

 62 65  0  0  0  0  0  0  0  0999 V2000
   -3.3460   20.9200  -30.6650 C   0  0  0  0  0  0  0  0  0  0  0  0
   -4.5610   21.2390  -31.1420 C   0  0  0  0  0  0  0  0  0  0  0  0
   -5.4040   22.2720  -30.6960 C   0  0  0  0  0  0  0  0  0  0  0  0
   -5.1780   23.2950  -29.8500 C   0  0  0  0  0  0  0  0  0  0  0  0
   -3.8540   23.7230  -29.3550 C   0  0  0  0  0  0  0  0  0  0  0  0
   -3.2420   24.8960  -29.8280 C   0  0  0  0  0  0  0  0  0  0  0  0
   -3.8540   25.6720  -30.8070 O   0  0  0  0  0  0  0  0  0  0  0  0
   -2.0450   25.2870  -29.3200 N   0  0  0  0  0  0  0  0  0  0  0  0
   -1.4300   24.5720  -28.3450 C   0  0  0  0  0  0  0  0  0  0  0  0
   -0.3190   24.9520  -27.8920 O   0  0  0  0  0  0  0  0  0  0  0  0
   -2.0140   23.4510  -27.8510 N   0  0  0  0  0  0  0  0  0  0  0  0
   -3.2120   23.0170  -28.3260 C   0  0  0  0  0  0  0  0  0  0  0  0
   -3.7290   21.9760  -27.8390 O   0  0  0  0  0  0  0  0  0  0  0  0
   -6.6210   22.0780  -31.3290 C   0  0  0  0  0  0  0  0  0  0  0  0
   -6.4680   20.9970  -32.1720 C   0  0  0  0  0  0  0  0  0  0  0  0
   -7.5450   20.4550  -33.0620 C   0  0  0  0  0  0  0  0  0  0  0  0
   -5.2190   20.4880  -32.0620 N   0  0  0  0  0  0  0  0  0  0  0  0
   -4.7150   19.3400  -32.7700 C   0  0  0  0  0  0  0  0  0  0  0  0
   -5.5470   18.2460  -33.0230 C   0  0  0  0  0  0  0  0  0  0  0  0
   -5.0610   17.1400  -33.7220 C   0  0  0  0  0  0  0  0  0  0  0  0
   -3.7340   17.1110  -34.1870 C   0  0  0  0  0  0  0  0  0  0  0  0
   -3.2580   15.8960  -34.9390 C   0  0  0  0  0  0  0  0  0  0  0  0
   -2.8790   18.2070  -33.9080 C   0  0  0  0  0  0  0  0  0  0  0  0
   -1.1850   18.2560  -34.4410 S   0  0  0  0  0  0  0  0  0  0  0  0
   -0.8390   19.6620  -34.8480 O   0  0  0  0  0  0  0  0  0  0  0  0
   -1.0460   17.3920  -35.6650 O   0  0  0  0  0  0  0  0  0  0  0  0
   -0.0640   17.7320  -33.1880 N   0  0  0  0  0  0  0  0  0  0  0  0
   -0.6940   17.7470  -31.8490 C   0  0  0  0  0  0  0  0  0  0  0  0
   -0.6710   19.1440  -31.1830 C   0  0  0  0  0  0  0  0  0  0  0  0
   -0.2880   20.1880  -32.1530 N   0  0  0  0  0  0  0  0  0  0  0  0
   -0.3740   21.5390  -31.5600 C   0  0  0  0  0  0  0  0  0  0  0  0
   -0.3160   21.4570  -30.0380 C   0  0  0  0  0  0  0  0  0  0  0  0
    1.0700   19.9230  -32.6600 C   0  0  0  0  0  0  0  0  0  0  0  0
    1.2120   18.4790  -33.1880 C   0  0  0  0  0  0  0  0  0  0  0  0
   -3.3860   19.3120  -33.2060 C   0  0  0  0  0  0  0  0  0  0  0  0
   -2.7848   20.0826  -31.1052 H   0  0  0  0  0  0  0  0  0  0  0  0
   -2.9126   21.4963  -29.8343 H   0  0  0  0  0  0  0  0  0  0  0  0
   -6.0538   23.8598  -29.4977 H   0  0  0  0  0  0  0  0  0  0  0  0
   -7.5353   22.6728  -31.1865 H   0  0  0  0  0  0  0  0  0  0  0  0
   -8.3587   20.0455  -32.4454 H   0  0  0  0  0  0  0  0  0  0  0  0
   -7.9372   21.2631  -33.6970 H   0  0  0  0  0  0  0  0  0  0  0  0
   -7.1297   19.6585  -33.6970 H   0  0  0  0  0  0  0  0  0  0  0  0
   -6.5887   18.2566  -32.6699 H   0  0  0  0  0  0  0  0  0  0  0  0
   -5.7228   16.2820  -33.9112 H   0  0  0  0  0  0  0  0  0  0  0  0
   -2.9532   15.1181  -34.2235 H   0  0  0  0  0  0  0  0  0  0  0  0
   -4.0728   15.5137  -35.5714 H   0  0  0  0  0  0  0  0  0  0  0  0
   -2.4003   16.1689  -35.5714 H   0  0  0  0  0  0  0  0  0  0  0  0
    0.1680   16.7340  -33.4080 H   0  0  0  0  0  0  0  0  0  0  0  0
   -1.7408   17.4249  -31.9510 H   0  0  0  0  0  0  0  0  0  0  0  0
   -0.1149   17.0676  -31.2063 H   0  0  0  0  0  0  0  0  0  0  0  0
   -1.6724   19.3704  -30.7880 H   0  0  0  0  0  0  0  0  0  0  0  0
    0.0709   19.1321  -30.3710 H   0  0  0  0  0  0  0  0  0  0  0  0
    0.4673   22.1480  -31.9224 H   0  0  0  0  0  0  0  0  0  0  0  0
   -1.3286   21.9983  -31.8562 H   0  0  0  0  0  0  0  0  0  0  0  0
   -0.8996   22.2821  -29.6038 H   0  0  0  0  0  0  0  0  0  0  0  0
   -0.7365   20.4962  -29.7063 H   0  0  0  0  0  0  0  0  0  0  0  0
    0.7300   21.5335  -29.7063 H   0  0  0  0  0  0  0  0  0  0  0  0
    1.2879   20.6247  -33.4786 H   0  0  0  0  0  0  0  0  0  0  0  0
    1.7778   20.0546  -31.8283 H   0  0  0  0  0  0  0  0  0  0  0  0
    1.5937   18.5194  -34.2188 H   0  0  0  0  0  0  0  0  0  0  0  0
    1.9011   17.9499  -32.5133 H   0  0  0  0  0  0  0  0  0  0  0  0
   -2.7286   20.1685  -32.9957 H   0  0  0  0  0  0  0  0  0  0  0  0
  1  2  2  0
  2  3  1  0
  3  4  2  3
  4  5  1  0
  5  6  2  0
  6  7  1  0
  6  8  1  0
  8  9  1  0
  9 10  2  0
  9 11  1  0
 11 12  1  0
 12 13  2  0
  3 14  1  0
 14 15  2  0
 15 16  1  0
 15 17  1  0
 17 18  1  0
 18 19  2  0
 19 20  1  0
 20 21  2  0
 21 22  1  0
 21 23  1  0
 23 24  1  0
 24 25  2  0
 24 26  2  0
 24 27  1  0
 27 28  1  0
 28 29  1  0
 29 30  1  0
 30 31  1  0
 31 32  1  0
 30 33  1  0
 33 34  1  0
 23 35  2  0
 17  2  1  0
 35 18  1  0
 12  5  1  0
 34 27  1  0
  1 36  1  0
  1 37  1  0
  4 38  1  0
 14 39  1  0
 16 40  1  0
 16 41  1  0
 16 42  1  0
 19 43  1  0
 20 44  1  0
 22 45  1  0
 22 46  1  0
 22 47  1  0
 27 48  1  0
 28 49  1  0
 28 50  1  0
 29 51  1  0
 29 52  1  0
 31 53  1  0
 31 54  1  0
 32 55  1  0
 32 56  1  0
 32 57  1  0
 33 58  1  0
 33 59  1  0
 34 60  1  0
 34 61  1  0
 35 62  1  0
M  CHG  4   7  -1   8  -1  11  -1  27   1
M  END
>  <UniqueID>  (6) 
6

>  <SMILES>  (6) 
C=c1c(=Cc2c([O-])[n-]c(=O)[n-]c2=O)cc(C)n1-c1ccc(C)c(S(=O)(=O)[NH+]2CCN(CC)CC2)c1

>  <Energy>  (6) 
122.6607096024175

>  <Genealogy>  (6) 
C=c1c(=Cc2c([O-])[n-]c(=O)[n-]c2=O)cc(C)n1-c1ccc(C)c(S(=O)(=O)[NH+]2CCN(CC)CC2)c1 (protonated)
C=c1c(=Cc2c([O-])[n-]c(=O)[n-]c2=O)cc(C)n1-c1ccc(C)c(S(=O)(=O)[NH+]2CCN(CC)CC2)c1 (3D coordinates assigned)
C=c1c(=Cc2c([O-])[n-]c(=O)[n-]c2=O)cc(C)n1-c1ccc(C)c(S(=O)(=O)[NH+]2CCN(CC)CC2)c1 (nonaromatic ring conformer: 122.6607096024175 kcal/mol)

>  <smiles>  (6) 
C=c1c(=Cc2c(O)[nH]c(=O)[nH]c2=O)cc(C)n1-c1ccc(C)c(S(=O)(=O)N2CCN(CC)CC2)c1

>  <score_type>  (6) 
oracle

>  <origin>  (6) 
adgpu

>  <m_score__min__energy>  (6) 
-14.6

>  <m_primary>  (6) 
energy

$$$$
6:0
     RDKit          3D

 56 59  0  0  0  0  0  0  0  0999 V2000
    0.0790   19.8020  -27.9870 C   0  0  0  0  0  0  0  0  0  0  0  0
   -0.5620   20.4790  -26.8500 N   0  0  0  0  0  0  0  0  0  0  0  0
   -2.0070   20.1950  -26.7640 C   0  0  0  0  0  0  0  0  0  0  0  0
   -2.7850   20.7550  -27.9600 C   0  0  0  0  0  0  0  0  0  0  0  0
   -2.3800   22.1700  -28.2790 C   0  0  0  0  0  0  0  0  0  0  0  0
   -3.1830   22.9250  -29.1460 C   0  0  0  0  0  0  0  0  0  0  0  0
   -2.8000   24.2250  -29.5210 C   0  0  0  0  0  0  0  0  0  0  0  0
   -3.5710   24.9730  -30.4680 N   0  0  0  0  0  0  0  0  0  0  0  0
   -5.2860   25.1570  -30.3140 S   0  0  0  0  0  0  0  0  0  0  0  0
   -5.6770   25.2330  -28.8670 O   0  0  0  0  0  0  0  0  0  0  0  0
   -5.7180   26.4210  -31.0010 O   0  0  0  0  0  0  0  0  0  0  0  0
   -6.0440   23.7780  -31.1000 C   0  0  0  0  0  0  0  0  0  0  0  0
   -7.4380   23.6090  -31.0500 C   0  0  0  0  0  0  0  0  0  0  0  0
   -8.0170   22.4160  -31.4960 C   0  0  0  0  0  0  0  0  0  0  0  0
   -7.2080   21.3890  -32.0070 C   0  0  0  0  0  0  0  0  0  0  0  0
   -7.9150   19.8220  -32.3900 S   0  0  0  0  0  0  0  0  0  0  0  0
   -8.9790   19.9910  -33.4390 O   0  0  0  0  0  0  0  0  0  0  0  0
   -8.5480   19.2500  -31.1520 O   0  0  0  0  0  0  0  0  0  0  0  0
   -6.6710   18.7390  -32.9640 N   0  0  0  0  0  0  0  0  0  0  0  0
   -6.1430   19.2200  -34.2590 C   0  0  0  0  0  0  0  0  0  0  0  0
   -5.2460   18.1740  -34.9590 C   0  0  0  0  0  0  0  0  0  0  0  0
   -4.8540   17.0390  -34.0110 C   0  0  0  0  0  0  0  0  0  0  0  0
   -6.0980   16.3680  -33.4110 C   0  0  0  0  0  0  0  0  0  0  0  0
   -7.2180   17.3780  -33.0970 C   0  0  0  0  0  0  0  0  0  0  0  0
   -5.8190   21.5750  -32.0920 C   0  0  0  0  0  0  0  0  0  0  0  0
   -5.2400   22.7620  -31.6370 C   0  0  0  0  0  0  0  0  0  0  0  0
   -1.6240   24.7760  -29.0000 C   0  0  0  0  0  0  0  0  0  0  0  0
   -1.2450   26.0680  -29.3430 O   0  0  0  0  0  0  0  0  0  0  0  0
   -0.8110   24.0190  -28.1480 C   0  0  0  0  0  0  0  0  0  0  0  0
   -1.1650   22.7050  -27.8050 C   0  0  0  0  0  0  0  0  0  0  0  0
   -0.2900   21.9310  -26.8450 C   0  0  0  0  0  0  0  0  0  0  0  0
    0.7902   19.0508  -27.6129 H   0  0  0  0  0  0  0  0  0  0  0  0
   -0.6890   19.3068  -28.5993 H   0  0  0  0  0  0  0  0  0  0  0  0
    0.6153   20.5419  -28.5993 H   0  0  0  0  0  0  0  0  0  0  0  0
   -2.1512   19.1051  -26.7279 H   0  0  0  0  0  0  0  0  0  0  0  0
   -2.3911   20.6829  -25.8560 H   0  0  0  0  0  0  0  0  0  0  0  0
   -2.5905   20.1225  -28.8387 H   0  0  0  0  0  0  0  0  0  0  0  0
   -3.8542   20.7559  -27.7016 H   0  0  0  0  0  0  0  0  0  0  0  0
   -4.1187   22.4974  -29.5353 H   0  0  0  0  0  0  0  0  0  0  0  0
   -8.0752   24.4161  -30.6595 H   0  0  0  0  0  0  0  0  0  0  0  0
   -9.1077   22.2826  -31.4461 H   0  0  0  0  0  0  0  0  0  0  0  0
   -6.9904   19.4562  -34.9194 H   0  0  0  0  0  0  0  0  0  0  0  0
   -5.5259   20.1082  -34.0586 H   0  0  0  0  0  0  0  0  0  0  0  0
   -5.7929   17.7509  -35.8145 H   0  0  0  0  0  0  0  0  0  0  0  0
   -4.3257   18.6779  -35.2893 H   0  0  0  0  0  0  0  0  0  0  0  0
   -4.2744   16.2887  -34.5687 H   0  0  0  0  0  0  0  0  0  0  0  0
   -4.2530   17.4593  -33.1912 H   0  0  0  0  0  0  0  0  0  0  0  0
   -6.4811   15.6281  -34.1292 H   0  0  0  0  0  0  0  0  0  0  0  0
   -5.7991   15.8945  -32.4642 H   0  0  0  0  0  0  0  0  0  0  0  0
   -7.9559   17.3638  -33.9127 H   0  0  0  0  0  0  0  0  0  0  0  0
   -7.6934   17.0940  -32.1465 H   0  0  0  0  0  0  0  0  0  0  0  0
   -5.1848   20.7837  -32.5182 H   0  0  0  0  0  0  0  0  0  0  0  0
   -4.1505   22.9002  -31.7000 H   0  0  0  0  0  0  0  0  0  0  0  0
    0.1132   24.4579  -27.7439 H   0  0  0  0  0  0  0  0  0  0  0  0
    0.7618   22.0905  -27.1247 H   0  0  0  0  0  0  0  0  0  0  0  0
   -0.5094   22.3008  -25.8325 H   0  0  0  0  0  0  0  0  0  0  0  0
  1  2  1  0
  2  3  1  0
  3  4  1  0
  4  5  1  0
  5  6  2  0
  6  7  1  0
  7  8  1  0
  8  9  1  0
  9 10  2  0
  9 11  2  0
  9 12  1  0
 12 13  2  0
 13 14  1  0
 14 15  2  0
 15 16  1  0
 16 17  2  0
 16 18  2  0
 16 19  1  0
 19 20  1  0
 20 21  1  0
 21 22  1  0
 22 23  1  0
 23 24  1  0
 15 25  1  0
 25 26  2  0
  7 27  2  0
 27 28  1  0
 27 29  1  0
 29 30  2  0
 30 31  1  0
 31  2  1  0
 30  5  1  0
 26 12  1  0
 24 19  1  0
  1 32  1  0
  1 33  1  0
  1 34  1  0
  3 35  1  0
  3 36  1  0
  4 37  1  0
  4 38  1  0
  6 39  1  0
 13 40  1  0
 14 41  1  0
 20 42  1  0
 20 43  1  0
 21 44  1  0
 21 45  1  0
 22 46  1  0
 22 47  1  0
 23 48  1  0
 23 49  1  0
 24 50  1  0
 24 51  1  0
 25 52  1  0
 26 53  1  0
 29 54  1  0
 31 55  1  0
 31 56  1  0
M  CHG  2   8  -1  28  -1
M  END
>  <UniqueID>  (7) 
7

>  <SMILES>  (7) 
CN1CCc2cc([N-]S(=O)(=O)c3ccc(S(=O)(=O)N4CCCCC4)cc3)c([O-])cc2C1

>  <Energy>  (7) 
69.86301114240136

>  <Genealogy>  (7) 
CN1CCc2cc([N-]S(=O)(=O)c3ccc(S(=O)(=O)N4CCCCC4)cc3)c([O-])cc2C1 (protonated)
CN1CCc2cc([N-]S(=O)(=O)c3ccc(S(=O)(=O)N4CCCCC4)cc3)c([O-])cc2C1 (3D coordinates assigned)
CN1CCc2cc([N-]S(=O)(=O)c3ccc(S(=O)(=O)N4CCCCC4)cc3)c([O-])cc2C1 (nonaromatic ring conformer: 69.86301114240136 kcal/mol)

>  <smiles>  (7) 
CN1CCc2cc(NS(=O)(=O)c3ccc(S(=O)(=O)N4CCCCC4)cc3)c(O)cc2C1

>  <score_type>  (7) 
oracle

>  <origin>  (7) 
adgpu

>  <m_score__min__energy>  (7) 
-16.379999999999999

>  <m_primary>  (7) 
energy

$$$$
7:0
     RDKit          3D

 45 48  0  0  0  0  0  0  0  0999 V2000
   -6.8600   22.6190  -32.3220 O   0  0  0  0  0  0  0  0  0  0  0  0
   -5.7180   22.8490  -31.8410 C   0  0  0  0  0  0  0  0  0  0  0  0
   -5.4210   24.1370  -31.3820 C   0  0  0  0  0  0  0  0  0  0  0  0
   -4.1680   24.3990  -30.8290 C   0  0  0  0  0  0  0  0  0  0  0  0
   -3.8640   25.6710  -30.3630 O   0  0  0  0  0  0  0  0  0  0  0  0
   -3.2250   23.3790  -30.7410 C   0  0  0  0  0  0  0  0  0  0  0  0
   -3.5480   22.1040  -31.2120 C   0  0  0  0  0  0  0  0  0  0  0  0
   -4.7790   21.8510  -31.7540 N   0  0  0  0  0  0  0  0  0  0  0  0
   -5.0610   20.5260  -32.2400 C   0  0  0  0  0  0  0  0  0  0  0  0
   -5.2500   20.2970  -33.6120 C   0  0  0  0  0  0  0  0  0  0  0  0
   -5.4650   19.0030  -34.0860 C   0  0  0  0  0  0  0  0  0  0  0  0
   -5.4620   17.9150  -33.2010 C   0  0  0  0  0  0  0  0  0  0  0  0
   -5.6200   16.2670  -33.8230 S   0  0  0  0  0  0  0  0  0  0  0  0
   -5.7410   15.3130  -32.6680 O   0  0  0  0  0  0  0  0  0  0  0  0
   -6.8970   16.1950  -34.6110 O   0  0  0  0  0  0  0  0  0  0  0  0
   -4.2930   15.7660  -34.8590 N   0  0  2  0  0  0  0  0  0  0  0  0
   -3.4350   14.7240  -34.2560 C   0  0  0  0  0  0  0  0  0  0  0  0
   -2.6030   15.2310  -33.0690 C   0  0  0  0  0  0  0  0  0  0  0  0
   -2.0680   16.6240  -33.2740 C   0  0  0  0  0  0  0  0  0  0  0  0
   -1.1730   17.1610  -32.3330 C   0  0  0  0  0  0  0  0  0  0  0  0
   -0.6960   18.4670  -32.4760 C   0  0  0  0  0  0  0  0  0  0  0  0
   -1.1040   19.2480  -33.5600 C   0  0  0  0  0  0  0  0  0  0  0  0
   -2.0010   18.7290  -34.4940 C   0  0  0  0  0  0  0  0  0  0  0  0
   -2.5110   17.4290  -34.3460 C   0  0  0  0  0  0  0  0  0  0  0  0
   -3.4990   16.9050  -35.3590 C   0  0  0  0  0  0  0  0  0  0  0  0
   -5.3280   18.1480  -31.8260 C   0  0  0  0  0  0  0  0  0  0  0  0
   -5.1150   19.4430  -31.3500 C   0  0  0  0  0  0  0  0  0  0  0  0
   -6.1713   24.9379  -31.4569 H   0  0  0  0  0  0  0  0  0  0  0  0
   -2.2345   23.5750  -30.3046 H   0  0  0  0  0  0  0  0  0  0  0  0
   -2.8053   21.2952  -31.1466 H   0  0  0  0  0  0  0  0  0  0  0  0
   -5.2284   21.1417  -34.3163 H   0  0  0  0  0  0  0  0  0  0  0  0
   -5.6378   18.8350  -35.1593 H   0  0  0  0  0  0  0  0  0  0  0  0
   -4.7480   15.3280  -35.6950 H   0  0  0  0  0  0  0  0  0  0  0  0
   -4.0776   13.9027  -33.9059 H   0  0  0  0  0  0  0  0  0  0  0  0
   -2.7276   14.3965  -35.0321 H   0  0  0  0  0  0  0  0  0  0  0  0
   -3.2375   15.2285  -32.1704 H   0  0  0  0  0  0  0  0  0  0  0  0
   -1.7379   14.5597  -32.9646 H   0  0  0  0  0  0  0  0  0  0  0  0
   -0.8459   16.5499  -31.4788 H   0  0  0  0  0  0  0  0  0  0  0  0
    0.0021   18.8807  -31.7334 H   0  0  0  0  0  0  0  0  0  0  0  0
   -0.7183   20.2715  -33.6771 H   0  0  0  0  0  0  0  0  0  0  0  0
   -2.3110   19.3426  -35.3527 H   0  0  0  0  0  0  0  0  0  0  0  0
   -4.1873   17.7191  -35.6301 H   0  0  0  0  0  0  0  0  0  0  0  0
   -2.9221   16.5473  -36.2246 H   0  0  0  0  0  0  0  0  0  0  0  0
   -5.3908   17.3076  -31.1190 H   0  0  0  0  0  0  0  0  0  0  0  0
   -4.9888   19.6151  -30.2709 H   0  0  0  0  0  0  0  0  0  0  0  0
  1  2  2  0
  2  3  1  0
  3  4  2  0
  4  5  1  0
  4  6  1  0
  6  7  2  0
  7  8  1  0
  8  9  1  0
  9 10  2  0
 10 11  1  0
 11 12  2  0
 12 13  1  0
 13 14  2  0
 13 15  2  0
 13 16  1  0
 16 17  1  0
 17 18  1  0
 18 19  1  0
 19 20  2  0
 20 21  1  0
 21 22  2  0
 22 23  1  0
 23 24  2  0
 24 25  1  0
 12 26  1  0
 26 27  2  0
  8  2  1  0
 27  9  1  0
 25 16  1  0
 24 19  1  0
  3 28  1  0
  6 29  1  0
  7 30  1  0
 10 31  1  0
 11 32  1  0
 16 33  1  6
 17 34  1  0
 17 35  1  0
 18 36  1  0
 18 37  1  0
 20 38  1  0
 21 39  1  0
 22 40  1  0
 23 41  1  0
 25 42  1  0
 25 43  1  0
 26 44  1  0
 27 45  1  0
M  CHG  2   5  -1  16   1
M  END
>  <UniqueID>  (8) 
8

>  <SMILES>  (8) 
O=c1cc([O-])ccn1-c1ccc(S(=O)(=O)[N@@H+]2CCc3ccccc3C2)cc1

>  <Energy>  (8) 
60.50215027591902

>  <Genealogy>  (8) 
O=c1cc([O-])ccn1-c1ccc(S(=O)(=O)[NH+]2CCc3ccccc3C2)cc1 (protonated)
O=c1cc([O-])ccn1-c1ccc(S(=O)(=O)[N@@H+]2CCc3ccccc3C2)cc1 (chirality)
O=c1cc([O-])ccn1-c1ccc(S(=O)(=O)[N@@H+]2CCc3ccccc3C2)cc1 (3D coordinates assigned)
O=c1cc([O-])ccn1-c1ccc(S(=O)(=O)[N@@H+]2CCc3ccccc3C2)cc1 (nonaromatic ring conformer: 60.50215027591902 kcal/mol)

>  <smiles>  (8) 
O=c1cc(O)ccn1-c1ccc(S(=O)(=O)N2CCc3ccccc3C2)cc1

>  <score_type>  (8) 
oracle

>  <origin>  (8) 
adgpu

>  <m_score__min__energy>  (8) 
-9.6500000000000004

>  <m_primary>  (8) 
energy

$$$$
8:0
     RDKit          3D

 56 59  0  0  0  0  0  0  0  0999 V2000
   -3.1910   19.4120  -26.9510 C   0  0  0  0  0  0  0  0  0  0  0  0
   -1.8770   19.7730  -27.5060 N   0  0  0  0  0  0  0  0  0  0  0  0
   -1.0940   20.5730  -26.5200 C   0  0  0  0  0  0  0  0  0  0  0  0
   -0.2080   21.6500  -27.1620 C   0  0  0  0  0  0  0  0  0  0  0  0
   -1.0610   22.5030  -28.0470 C   0  0  0  0  0  0  0  0  0  0  0  0
   -0.9380   23.8990  -28.0800 C   0  0  0  0  0  0  0  0  0  0  0  0
   -1.7650   24.6540  -28.9200 C   0  0  0  0  0  0  0  0  0  0  0  0
   -1.6080   26.0340  -28.9730 O   0  0  0  0  0  0  0  0  0  0  0  0
   -2.7260   24.0120  -29.7230 C   0  0  0  0  0  0  0  0  0  0  0  0
   -3.5790   24.7590  -30.5920 N   0  0  0  0  0  0  0  0  0  0  0  0
   -5.2730   24.9510  -30.2860 S   0  0  0  0  0  0  0  0  0  0  0  0
   -5.7480   26.2360  -30.9030 O   0  0  0  0  0  0  0  0  0  0  0  0
   -5.5290   25.0070  -28.8050 O   0  0  0  0  0  0  0  0  0  0  0  0
   -6.1380   23.5970  -31.0030 C   0  0  0  0  0  0  0  0  0  0  0  0
   -7.5320   23.6490  -31.1110 C   0  0  0  0  0  0  0  0  0  0  0  0
   -8.2310   22.5870  -31.6900 C   0  0  0  0  0  0  0  0  0  0  0  0
   -7.5440   21.4660  -32.1650 C   0  0  0  0  0  0  0  0  0  0  0  0
   -8.2650   20.4250  -32.7390 O   0  0  0  0  0  0  0  0  0  0  0  0
   -6.1420   21.4030  -32.0610 C   0  0  0  0  0  0  0  0  0  0  0  0
   -5.2360   20.0030  -32.6530 S   0  0  0  0  0  0  0  0  0  0  0  0
   -5.7260   18.7680  -31.9500 O   0  0  0  0  0  0  0  0  0  0  0  0
   -5.4880   19.8200  -34.1250 O   0  0  0  0  0  0  0  0  0  0  0  0
   -3.5210   20.1790  -32.3740 N   0  0  0  0  0  0  0  0  0  0  0  0
   -3.0020   21.3270  -33.1380 C   0  0  0  0  0  0  0  0  0  0  0  0
   -1.5190   21.5430  -32.8180 C   0  0  0  0  0  0  0  0  0  0  0  0
   -0.7160   20.2760  -33.1290 C   0  0  0  0  0  0  0  0  0  0  0  0
   -1.3250   19.0610  -32.4240 C   0  0  0  0  0  0  0  0  0  0  0  0
   -2.8170   18.9420  -32.7560 C   0  0  0  0  0  0  0  0  0  0  0  0
   -5.4460   22.4760  -31.4830 C   0  0  0  0  0  0  0  0  0  0  0  0
   -2.8170   22.6150  -29.7140 C   0  0  0  0  0  0  0  0  0  0  0  0
   -1.9950   21.8610  -28.8650 C   0  0  0  0  0  0  0  0  0  0  0  0
   -2.0180   20.3540  -28.8680 C   0  0  0  0  0  0  0  0  0  0  0  0
   -3.1412   19.4257  -25.8522 H   0  0  0  0  0  0  0  0  0  0  0  0
   -3.9450   20.1363  -27.2929 H   0  0  0  0  0  0  0  0  0  0  0  0
   -3.4691   18.4042  -27.2929 H   0  0  0  0  0  0  0  0  0  0  0  0
   -1.7994   21.0667  -25.8353 H   0  0  0  0  0  0  0  0  0  0  0  0
   -0.4230   19.8736  -25.9998 H   0  0  0  0  0  0  0  0  0  0  0  0
    0.2487   22.2707  -26.3771 H   0  0  0  0  0  0  0  0  0  0  0  0
    0.5912   21.1773  -27.7518 H   0  0  0  0  0  0  0  0  0  0  0  0
   -0.1921   24.4009  -27.4462 H   0  0  0  0  0  0  0  0  0  0  0  0
   -8.0788   24.5281  -30.7392 H   0  0  0  0  0  0  0  0  0  0  0  0
   -9.3269   22.6331  -31.7725 H   0  0  0  0  0  0  0  0  0  0  0  0
   -3.1175   21.1304  -34.2141 H   0  0  0  0  0  0  0  0  0  0  0  0
   -3.5662   22.2297  -32.8607 H   0  0  0  0  0  0  0  0  0  0  0  0
   -1.1342   22.3746  -33.4266 H   0  0  0  0  0  0  0  0  0  0  0  0
   -1.4151   21.7780  -31.7484 H   0  0  0  0  0  0  0  0  0  0  0  0
   -0.7213   20.1030  -34.2153 H   0  0  0  0  0  0  0  0  0  0  0  0
    0.3142   20.4136  -32.7688 H   0  0  0  0  0  0  0  0  0  0  0  0
   -0.8058   18.1505  -32.7578 H   0  0  0  0  0  0  0  0  0  0  0  0
   -1.2104   19.1849  -31.3370 H   0  0  0  0  0  0  0  0  0  0  0  0
   -2.9370   18.7739  -33.8364 H   0  0  0  0  0  0  0  0  0  0  0  0
   -3.2442   18.0970  -32.1960 H   0  0  0  0  0  0  0  0  0  0  0  0
   -4.3494   22.4372  -31.4060 H   0  0  0  0  0  0  0  0  0  0  0  0
   -3.5353   22.1077  -30.3748 H   0  0  0  0  0  0  0  0  0  0  0  0
   -2.9738   20.0179  -29.2963 H   0  0  0  0  0  0  0  0  0  0  0  0
   -1.1603   20.0107  -29.4651 H   0  0  0  0  0  0  0  0  0  0  0  0
  1  2  1  0
  2  3  1  0
  3  4  1  0
  4  5  1  0
  5  6  2  0
  6  7  1  0
  7  8  1  0
  7  9  2  0
  9 10  1  0
 10 11  1  0
 11 12  2  0
 11 13  2  0
 11 14  1  0
 14 15  2  0
 15 16  1  0
 16 17  2  0
 17 18  1  0
 17 19  1  0
 19 20  1  0
 20 21  2  0
 20 22  2  0
 20 23  1  0
 23 24  1  0
 24 25  1  0
 25 26  1  0
 26 27  1  0
 27 28  1  0
 19 29  2  0
  9 30  1  0
 30 31  2  0
 31 32  1  0
 32  2  1  0
 31  5  1  0
 29 14  1  0
 28 23  1  0
  1 33  1  0
  1 34  1  0
  1 35  1  0
  3 36  1  0
  3 37  1  0
  4 38  1  0
  4 39  1  0
  6 40  1  0
 15 41  1  0
 16 42  1  0
 24 43  1  0
 24 44  1  0
 25 45  1  0
 25 46  1  0
 26 47  1  0
 26 48  1  0
 27 49  1  0
 27 50  1  0
 28 51  1  0
 28 52  1  0
 29 53  1  0
 30 54  1  0
 32 55  1  0
 32 56  1  0
M  CHG  3   8  -1  10  -1  18  -1
M  END
>  <UniqueID>  (9) 
9

>  <SMILES>  (9) 
CN1CCc2cc([O-])c([N-]S(=O)(=O)c3ccc([O-])c(S(=O)(=O)N4CCCCC4)c3)cc2C1

>  <Energy>  (9) 
71.92817043263814

>  <Genealogy>  (9) 
CN1CCc2cc([O-])c([N-]S(=O)(=O)c3ccc([O-])c(S(=O)(=O)N4CCCCC4)c3)cc2C1 (protonated)
CN1CCc2cc([O-])c([N-]S(=O)(=O)c3ccc([O-])c(S(=O)(=O)N4CCCCC4)c3)cc2C1 (3D coordinates assigned)
CN1CCc2cc([O-])c([N-]S(=O)(=O)c3ccc([O-])c(S(=O)(=O)N4CCCCC4)c3)cc2C1 (nonaromatic ring conformer: 71.92817043263814 kcal/mol)

>  <smiles>  (9) 
CN1CCc2cc(O)c(NS(=O)(=O)c3ccc(O)c(S(=O)(=O)N4CCCCC4)c3)cc2C1

>  <score_type>  (9) 
oracle

>  <origin>  (9) 
adgpu

>  <m_score__min__energy>  (9) 
-14.539999999999999

>  <m_primary>  (9) 
energy

$$$$
9:0
     RDKit          3D

 59 63  0  0  0  0  0  0  0  0999 V2000
   -4.9110   16.0900  -34.3490 O   0  0  0  0  0  0  0  0  0  0  0  0
   -4.8170   17.5620  -34.6490 S   0  0  0  0  0  0  0  0  0  0  0  0
   -5.3280   17.7890  -36.0430 O   0  0  0  0  0  0  0  0  0  0  0  0
   -3.1520   18.0440  -34.5750 N   0  0  0  0  0  0  0  0  0  0  0  0
   -2.6190   19.0110  -33.6600 C   0  0  0  0  0  0  0  0  0  0  0  0
   -1.8070   18.5700  -32.6060 C   0  0  0  0  0  0  0  0  0  0  0  0
   -1.2690   19.4870  -31.6940 C   0  0  0  0  0  0  0  0  0  0  0  0
   -1.5050   20.8600  -31.8520 C   0  0  0  0  0  0  0  0  0  0  0  0
   -0.9390   21.7920  -30.9190 N   0  0  0  0  0  0  0  0  0  0  0  0
   -1.7280   22.5790  -30.0140 C   0  0  0  0  0  0  0  0  0  0  0  0
   -3.0570   22.8950  -30.3210 C   0  0  0  0  0  0  0  0  0  0  0  0
   -3.8200   23.7040  -29.4670 C   0  0  0  0  0  0  0  0  0  0  0  0
   -5.1780   24.1040  -29.9010 C   0  0  0  0  0  0  0  0  0  0  0  0
   -6.1120   23.3170  -30.5470 C   0  0  0  0  0  0  0  0  0  0  0  0
   -7.2490   24.0910  -30.6450 C   0  0  0  0  0  0  0  0  0  0  0  0
   -7.0410   25.2610  -30.0860 O   0  0  0  0  0  0  0  0  0  0  0  0
   -5.8130   25.2990  -29.6210 C   0  0  0  0  0  0  0  0  0  0  0  0
   -3.2530   24.1560  -28.2500 C   0  0  0  0  0  0  0  0  0  0  0  0
   -4.0030   24.8970  -27.3340 O   0  0  0  0  0  0  0  0  0  0  0  0
   -1.9080   23.8480  -27.9450 C   0  0  0  0  0  0  0  0  0  0  0  0
   -1.3030   24.3020  -26.7150 N   0  0  0  0  0  0  0  0  0  0  0  0
   -0.7230   23.3260  -25.7840 C   0  0  0  0  0  0  0  0  0  0  0  0
    0.0550   24.0610  -24.6880 C   0  0  0  0  0  0  0  0  0  0  0  0
   -0.7950   24.9870  -24.0420 O   0  0  0  0  0  0  0  0  0  0  0  0
   -1.2430   26.0270  -24.9210 C   0  0  0  0  0  0  0  0  0  0  0  0
   -1.1410   25.7360  -26.4400 C   0  0  0  0  0  0  0  0  0  0  0  0
   -1.1520   23.0820  -28.8450 C   0  0  0  0  0  0  0  0  0  0  0  0
   -2.3130   21.3030  -32.9150 C   0  0  0  0  0  0  0  0  0  0  0  0
   -2.8690   20.3850  -33.8110 C   0  0  0  0  0  0  0  0  0  0  0  0
   -5.8220   18.4810  -33.5250 C   0  0  0  0  0  0  0  0  0  0  0  0
   -5.9740   19.8670  -33.6870 C   0  0  0  0  0  0  0  0  0  0  0  0
   -6.7870   20.5890  -32.8070 C   0  0  0  0  0  0  0  0  0  0  0  0
   -7.4430   19.9350  -31.7600 C   0  0  0  0  0  0  0  0  0  0  0  0
   -7.2890   18.5550  -31.5910 C   0  0  0  0  0  0  0  0  0  0  0  0
   -6.4780   17.8280  -32.4710 C   0  0  0  0  0  0  0  0  0  0  0  0
   -1.5909   17.4972  -32.4944 H   0  0  0  0  0  0  0  0  0  0  0  0
   -0.6595   19.1288  -30.8513 H   0  0  0  0  0  0  0  0  0  0  0  0
    0.0930   21.9410  -30.9260 H   0  0  0  0  0  0  0  0  0  0  0  0
   -3.5085   22.5034  -31.2444 H   0  0  0  0  0  0  0  0  0  0  0  0
   -5.9767   22.2868  -30.9082 H   0  0  0  0  0  0  0  0  0  0  0  0
   -8.1895   23.7756  -31.1203 H   0  0  0  0  0  0  0  0  0  0  0  0
   -5.3604   26.1500  -29.0910 H   0  0  0  0  0  0  0  0  0  0  0  0
   -4.6060   25.6650  -27.5970 H   0  0  0  0  0  0  0  0  0  0  0  0
   -1.5286   22.7331  -25.3263 H   0  0  0  0  0  0  0  0  0  0  0  0
   -0.0408   22.6592  -26.3318 H   0  0  0  0  0  0  0  0  0  0  0  0
    0.4284   23.3326  -23.9531 H   0  0  0  0  0  0  0  0  0  0  0  0
    0.9029   24.5971  -25.1393 H   0  0  0  0  0  0  0  0  0  0  0  0
   -2.2990   26.2296  -24.6891 H   0  0  0  0  0  0  0  0  0  0  0  0
   -0.5664   26.8751  -24.7395 H   0  0  0  0  0  0  0  0  0  0  0  0
   -1.9291   26.2942  -26.9666 H   0  0  0  0  0  0  0  0  0  0  0  0
   -0.1463   26.0491  -26.7901 H   0  0  0  0  0  0  0  0  0  0  0  0
   -0.0937   22.8752  -28.6277 H   0  0  0  0  0  0  0  0  0  0  0  0
   -2.5085   22.3780  -33.0420 H   0  0  0  0  0  0  0  0  0  0  0  0
   -3.5039   20.7396  -34.6363 H   0  0  0  0  0  0  0  0  0  0  0  0
   -5.4538   20.3854  -34.5060 H   0  0  0  0  0  0  0  0  0  0  0  0
   -6.9104   21.6740  -32.9392 H   0  0  0  0  0  0  0  0  0  0  0  0
   -8.0805   20.5058  -31.0688 H   0  0  0  0  0  0  0  0  0  0  0  0
   -7.8050   18.0409  -30.7667 H   0  0  0  0  0  0  0  0  0  0  0  0
   -6.3551   16.7433  -32.3356 H   0  0  0  0  0  0  0  0  0  0  0  0
  1  2  2  0
  2  3  2  0
  2  4  1  0
  4  5  1  0
  5  6  2  0
  6  7  1  0
  7  8  2  0
  8  9  1  0
  9 10  1  0
 10 11  2  0
 11 12  1  0
 12 13  1  0
 13 14  1  0
 14 15  2  0
 15 16  1  0
 16 17  1  0
 12 18  2  0
 18 19  1  0
 18 20  1  0
 20 21  1  0
 21 22  1  0
 22 23  1  0
 23 24  1  0
 24 25  1  0
 25 26  1  0
 20 27  2  0
  8 28  1  0
 28 29  2  0
  2 30  1  0
 30 31  2  0
 31 32  1  0
 32 33  2  0
 33 34  1  0
 34 35  2  0
 29  5  1  0
 35 30  1  0
 27 10  1  0
 17 13  2  0
 26 21  1  0
  6 36  1  0
  7 37  1  0
  9 38  1  0
 11 39  1  0
 14 40  1  0
 15 41  1  0
 17 42  1  0
 19 43  1  0
 22 44  1  0
 22 45  1  0
 23 46  1  0
 23 47  1  0
 25 48  1  0
 25 49  1  0
 26 50  1  0
 26 51  1  0
 27 52  1  0
 28 53  1  0
 29 54  1  0
 31 55  1  0
 32 56  1  0
 33 57  1  0
 34 58  1  0
 35 59  1  0
M  CHG  1   4  -1
M  END
>  <UniqueID>  (10) 
10

>  <SMILES>  (10) 
O=S(=O)([N-]c1ccc(Nc2cc(-c3ccoc3)c(O)c(N3CCOCC3)c2)cc1)c1ccccc1

>  <Energy>  (10) 
122.07057842393866

>  <Genealogy>  (10) 
O=S(=O)([N-]c1ccc(Nc2cc(-c3ccoc3)c(O)c(N3CCOCC3)c2)cc1)c1ccccc1 (protonated)
O=S(=O)([N-]c1ccc(Nc2cc(-c3ccoc3)c(O)c(N3CCOCC3)c2)cc1)c1ccccc1 (3D coordinates assigned)
O=S(=O)([N-]c1ccc(Nc2cc(-c3ccoc3)c(O)c(N3CCOCC3)c2)cc1)c1ccccc1 (nonaromatic ring conformer: 122.07057842393866 kcal/mol)

>  <smiles>  (10) 
O=S(=O)(Nc1ccc(Nc2cc(-c3ccoc3)c(O)c(N3CCOCC3)c2)cc1)c1ccccc1

>  <score_type>  (10) 
oracle

>  <origin>  (10) 
adgpu

>  <m_score__min__energy>  (10) 
-10.81

>  <m_primary>  (10) 
energy

$$$$
10:0
     RDKit          3D

 64 68  0  0  0  0  0  0  0  0999 V2000
   -3.0770   21.1680  -33.0030 C   0  0  0  0  0  0  0  0  0  0  0  0
   -4.1930   21.8580  -32.2840 C   0  0  0  0  0  0  0  0  0  0  0  0
   -5.4510   21.2540  -32.1870 C   0  0  0  0  0  0  0  0  0  0  0  0
   -6.5010   21.9100  -31.5110 C   0  0  0  0  0  0  0  0  0  0  0  0
   -7.6900   21.3810  -31.4060 N   0  0  0  0  0  0  0  0  0  0  0  0
   -8.2070   19.8460  -32.0340 S   0  0  0  0  0  0  0  0  0  0  0  0
   -8.8240   19.0230  -30.9380 O   0  0  0  0  0  0  0  0  0  0  0  0
   -9.2160   20.0510  -33.1310 O   0  0  0  0  0  0  0  0  0  0  0  0
   -6.8080   19.0010  -32.6860 C   0  0  0  0  0  0  0  0  0  0  0  0
   -6.4570   19.1550  -34.0340 C   0  0  0  0  0  0  0  0  0  0  0  0
   -5.3480   18.4780  -34.5540 C   0  0  0  0  0  0  0  0  0  0  0  0
   -4.5850   17.6280  -33.7320 C   0  0  0  0  0  0  0  0  0  0  0  0
   -3.4440   16.9110  -34.2370 N   0  0  0  0  0  0  0  0  0  0  0  0
   -3.0450   15.6070  -33.7830 C   0  0  0  0  0  0  0  0  0  0  0  0
   -3.7330   14.9820  -32.9310 O   0  0  0  0  0  0  0  0  0  0  0  0
   -1.7510   15.0050  -34.2740 C   0  0  0  0  0  0  0  0  0  0  0  0
   -0.7010   16.0180  -34.5210 N   0  0  0  0  0  0  0  0  0  0  0  0
   -0.8140   16.6440  -35.8560 C   0  0  0  0  0  0  0  0  0  0  0  0
    0.2510   17.7250  -36.0450 C   0  0  0  0  0  0  0  0  0  0  0  0
    0.1640   18.7270  -34.9740 N   0  0  0  0  0  0  0  0  0  0  0  0
    0.7980   20.0130  -35.1420 C   0  0  0  0  0  0  0  0  0  0  0  0
    0.0370   21.1270  -35.5370 C   0  0  0  0  0  0  0  0  0  0  0  0
    0.6530   22.3720  -35.6820 C   0  0  0  0  0  0  0  0  0  0  0  0
    1.9830   22.5080  -35.4440 N   0  0  0  0  0  0  0  0  0  0  0  0
    2.7500   21.4500  -35.0670 C   0  0  0  0  0  0  0  0  0  0  0  0
    2.1750   20.1880  -34.9020 C   0  0  0  0  0  0  0  0  0  0  0  0
    2.9520   19.1620  -34.4730 F   0  0  0  0  0  0  0  0  0  0  0  0
   -0.6410   18.4340  -33.7800 C   0  0  0  0  0  0  0  0  0  0  0  0
   -0.4980   16.9570  -33.3880 C   0  0  0  0  0  0  0  0  0  0  0  0
   -4.9200   17.5130  -32.3740 C   0  0  0  0  0  0  0  0  0  0  0  0
   -6.0240   18.1920  -31.8560 C   0  0  0  0  0  0  0  0  0  0  0  0
   -6.2490   23.1760  -30.9340 C   0  0  0  0  0  0  0  0  0  0  0  0
   -7.2470   23.8950  -30.2410 C   0  0  0  0  0  0  0  0  0  0  0  0
   -6.9550   25.1410  -29.6770 C   0  0  0  0  0  0  0  0  0  0  0  0
   -5.6720   25.6820  -29.7890 C   0  0  0  0  0  0  0  0  0  0  0  0
   -4.6760   24.9860  -30.4750 C   0  0  0  0  0  0  0  0  0  0  0  0
   -4.9560   23.7400  -31.0490 C   0  0  0  0  0  0  0  0  0  0  0  0
   -3.9790   23.0740  -31.7150 N   0  0  0  0  0  0  0  0  0  0  0  0
   -2.3796   20.7368  -32.2697 H   0  0  0  0  0  0  0  0  0  0  0  0
   -3.4878   20.3660  -33.6339 H   0  0  0  0  0  0  0  0  0  0  0  0
   -2.5431   21.8939  -33.6339 H   0  0  0  0  0  0  0  0  0  0  0  0
   -5.6218   20.2657  -32.6387 H   0  0  0  0  0  0  0  0  0  0  0  0
   -7.0548   19.8098  -34.6851 H   0  0  0  0  0  0  0  0  0  0  0  0
   -5.0714   18.6109  -35.6103 H   0  0  0  0  0  0  0  0  0  0  0  0
   -2.7550   17.4480  -34.8070 H   0  0  0  0  0  0  0  0  0  0  0  0
   -1.3839   14.2967  -33.5167 H   0  0  0  0  0  0  0  0  0  0  0  0
   -1.9614   14.5076  -35.2323 H   0  0  0  0  0  0  0  0  0  0  0  0
   -0.6836   15.8714  -36.6280 H   0  0  0  0  0  0  0  0  0  0  0  0
   -1.8065   17.1103  -35.9421 H   0  0  0  0  0  0  0  0  0  0  0  0
    1.2472   17.2590  -36.0245 H   0  0  0  0  0  0  0  0  0  0  0  0
    0.0846   18.2227  -37.0117 H   0  0  0  0  0  0  0  0  0  0  0  0
   -1.0403   21.0185  -35.7313 H   0  0  0  0  0  0  0  0  0  0  0  0
    0.0590   23.2451  -35.9899 H   0  0  0  0  0  0  0  0  0  0  0  0
    3.8270   21.5888  -34.8914 H   0  0  0  0  0  0  0  0  0  0  0  0
   -0.2972   19.0650  -32.9472 H   0  0  0  0  0  0  0  0  0  0  0  0
   -1.6978   18.6438  -34.0017 H   0  0  0  0  0  0  0  0  0  0  0  0
    0.5131   16.8009  -32.9840 H   0  0  0  0  0  0  0  0  0  0  0  0
   -1.2825   16.7427  -32.6473 H   0  0  0  0  0  0  0  0  0  0  0  0
   -4.3076   16.8827  -31.7125 H   0  0  0  0  0  0  0  0  0  0  0  0
   -6.2788   18.0907  -30.7907 H   0  0  0  0  0  0  0  0  0  0  0  0
   -8.2584   23.4734  -30.1443 H   0  0  0  0  0  0  0  0  0  0  0  0
   -7.7392   25.6975  -29.1428 H   0  0  0  0  0  0  0  0  0  0  0  0
   -5.4464   26.6585  -29.3356 H   0  0  0  0  0  0  0  0  0  0  0  0
   -3.6681   25.4174  -30.5651 H   0  0  0  0  0  0  0  0  0  0  0  0
  1  2  1  0
  2  3  2  0
  3  4  1  0
  4  5  2  3
  5  6  1  0
  6  7  2  0
  6  8  2  0
  6  9  1  0
  9 10  2  0
 10 11  1  0
 11 12  2  0
 12 13  1  0
 13 14  1  0
 14 15  2  0
 14 16  1  0
 16 17  1  0
 17 18  1  0
 18 19  1  0
 19 20  1  0
 20 21  1  0
 21 22  2  0
 22 23  1  0
 23 24  2  0
 24 25  1  0
 25 26  2  0
 26 27  1  0
 20 28  1  0
 28 29  1  0
 12 30  1  0
 30 31  2  0
  4 32  1  0
 32 33  2  0
 33 34  1  0
 34 35  2  0
 35 36  1  0
 36 37  2  0
 37 38  1  0
 38  2  1  0
 31  9  1  0
 37 32  1  0
 29 17  1  0
 26 21  1  0
  1 39  1  0
  1 40  1  0
  1 41  1  0
  3 42  1  0
 10 43  1  0
 11 44  1  0
 13 45  1  0
 16 46  1  0
 16 47  1  0
 18 48  1  0
 18 49  1  0
 19 50  1  0
 19 51  1  0
 22 52  1  0
 23 53  1  0
 25 54  1  0
 28 55  1  0
 28 56  1  0
 29 57  1  0
 29 58  1  0
 30 59  1  0
 31 60  1  0
 33 61  1  0
 34 62  1  0
 35 63  1  0
 36 64  1  0
M  CHG  1  38  -1
M  END
>  <UniqueID>  (11) 
11

>  <SMILES>  (11) 
Cc1cc(=NS(=O)(=O)c2ccc(NC(=O)CN3CCN(c4ccncc4F)CC3)cc2)c2ccccc2[n-]1

>  <Energy>  (11) 
96.1941192172017

>  <Genealogy>  (11) 
Cc1cc(=NS(=O)(=O)c2ccc(NC(=O)CN3CCN(c4ccncc4F)CC3)cc2)c2ccccc2[n-]1 (protonated)
Cc1cc(=NS(=O)(=O)c2ccc(NC(=O)CN3CCN(c4ccncc4F)CC3)cc2)c2ccccc2[n-]1 (3D coordinates assigned)
Cc1cc(=NS(=O)(=O)c2ccc(NC(=O)CN3CCN(c4ccncc4F)CC3)cc2)c2ccccc2[n-]1 (nonaromatic ring conformer: 96.1941192172017 kcal/mol)

>  <smiles>  (11) 
Cc1cc(=NS(=O)(=O)c2ccc(NC(=O)CN3CCN(c4ccncc4F)CC3)cc2)c2ccccc2[nH]1

>  <score_type>  (11) 
oracle

>  <origin>  (11) 
adgpu

>  <m_score__min__energy>  (11) 
-9.9700000000000006

>  <m_primary>  (11) 
energy

$$$$
11:0
     RDKit          3D

 59 62  0  0  0  0  0  0  0  0999 V2000
   -0.8220   24.2200  -27.8250 C   0  0  0  0  0  0  0  0  0  0  0  0
   -1.8340   23.8940  -28.8850 C   0  0  0  0  0  0  0  0  0  0  0  0
   -2.6000   24.9040  -29.3750 N   0  0  0  0  0  0  0  0  0  0  0  0
   -3.5350   24.7140  -30.3380 C   0  0  0  0  0  0  0  0  0  0  0  0
   -4.2190   25.6910  -30.7450 O   0  0  0  0  0  0  0  0  0  0  0  0
   -3.7360   23.4400  -30.8790 C   0  0  0  0  0  0  0  0  0  0  0  0
   -4.7540   23.2550  -31.8740 N   0  0  0  0  0  0  0  0  0  0  0  0
   -6.1490   23.5690  -31.7610 C   0  0  0  0  0  0  0  0  0  0  0  0
   -6.5180   24.7590  -31.5670 O   0  0  0  0  0  0  0  0  0  0  0  0
   -7.1550   22.4820  -31.8070 C   0  0  0  0  0  0  0  0  0  0  0  0
   -8.5260   22.7650  -31.6680 C   0  0  0  0  0  0  0  0  0  0  0  0
   -9.4690   21.7350  -31.6910 C   0  0  0  0  0  0  0  0  0  0  0  0
   -9.0570   20.4100  -31.8510 C   0  0  0  0  0  0  0  0  0  0  0  0
   -7.6970   20.1070  -31.9900 C   0  0  0  0  0  0  0  0  0  0  0  0
   -7.1700   18.4310  -32.1530 S   0  0  0  0  0  0  0  0  0  0  0  0
   -8.3690   17.5260  -32.0950 O   0  0  0  0  0  0  0  0  0  0  0  0
   -6.2660   18.0800  -31.0030 O   0  0  0  0  0  0  0  0  0  0  0  0
   -6.3150   18.1720  -33.6560 N   0  0  0  0  0  0  0  0  0  0  0  0
   -4.9130   18.6320  -33.5370 C   0  0  0  0  0  0  0  0  0  0  0  0
   -4.0360   18.0490  -34.6500 C   0  0  0  0  0  0  0  0  0  0  0  0
   -3.9790   16.5140  -34.5580 C   0  0  0  0  0  0  0  0  0  0  0  0
   -5.2280   15.9100  -33.8900 C   0  0  0  0  0  0  0  0  0  0  0  0
   -6.4710   16.7770  -34.1410 C   0  0  0  0  0  0  0  0  0  0  0  0
   -6.7520   21.1440  -31.9790 C   0  0  0  0  0  0  0  0  0  0  0  0
   -2.9750   22.3700  -30.3820 C   0  0  0  0  0  0  0  0  0  0  0  0
   -2.0010   22.5870  -29.3950 C   0  0  0  0  0  0  0  0  0  0  0  0
   -1.0540   21.2140  -28.8000 S   0  0  0  0  0  0  0  0  0  0  0  0
    0.3080   21.7060  -28.3950 O   0  0  0  0  0  0  0  0  0  0  0  0
   -1.7360   20.5920  -27.6150 O   0  0  0  0  0  0  0  0  0  0  0  0
   -0.9120   20.0220  -30.0520 N   0  0  0  0  0  0  0  0  0  0  0  0
   -0.8990   20.3010  -31.4550 C   0  0  0  0  0  0  0  0  0  0  0  0
    0.2590   20.8520  -32.0200 C   0  0  0  0  0  0  0  0  0  0  0  0
    0.3280   21.1010  -33.3940 C   0  0  0  0  0  0  0  0  0  0  0  0
   -0.7680   20.8200  -34.2120 C   0  0  0  0  0  0  0  0  0  0  0  0
   -1.9350   20.2930  -33.6550 C   0  0  0  0  0  0  0  0  0  0  0  0
   -2.0070   20.0360  -32.2820 C   0  0  0  0  0  0  0  0  0  0  0  0
   -1.2718   24.0751  -26.8317 H   0  0  0  0  0  0  0  0  0  0  0  0
    0.0490   23.5570  -27.9333 H   0  0  0  0  0  0  0  0  0  0  0  0
   -0.5018   25.2668  -27.9333 H   0  0  0  0  0  0  0  0  0  0  0  0
   -8.8580   23.8059  -31.5402 H   0  0  0  0  0  0  0  0  0  0  0  0
  -10.5386   21.9678  -31.5829 H   0  0  0  0  0  0  0  0  0  0  0  0
   -9.8032   19.6020  -31.8679 H   0  0  0  0  0  0  0  0  0  0  0  0
   -4.8900   19.7299  -33.6015 H   0  0  0  0  0  0  0  0  0  0  0  0
   -4.5174   18.2890  -32.5696 H   0  0  0  0  0  0  0  0  0  0  0  0
   -4.4548   18.3359  -35.6259 H   0  0  0  0  0  0  0  0  0  0  0  0
   -3.0162   18.4456  -34.5376 H   0  0  0  0  0  0  0  0  0  0  0  0
   -3.8911   16.1039  -35.5749 H   0  0  0  0  0  0  0  0  0  0  0  0
   -3.1107   16.2513  -33.9359 H   0  0  0  0  0  0  0  0  0  0  0  0
   -5.4034   14.9050  -34.3012 H   0  0  0  0  0  0  0  0  0  0  0  0
   -5.0521   15.8620  -32.8052 H   0  0  0  0  0  0  0  0  0  0  0  0
   -6.6677   16.8023  -35.2230 H   0  0  0  0  0  0  0  0  0  0  0  0
   -7.3041   16.3262  -33.5818 H   0  0  0  0  0  0  0  0  0  0  0  0
   -5.6849   20.9092  -32.1061 H   0  0  0  0  0  0  0  0  0  0  0  0
   -3.1433   21.3542  -30.7690 H   0  0  0  0  0  0  0  0  0  0  0  0
    1.1198   21.0903  -31.3779 H   0  0  0  0  0  0  0  0  0  0  0  0
    1.2469   21.5188  -33.8311 H   0  0  0  0  0  0  0  0  0  0  0  0
   -0.7123   21.0134  -35.2934 H   0  0  0  0  0  0  0  0  0  0  0  0
   -2.8011   20.0791  -34.2985 H   0  0  0  0  0  0  0  0  0  0  0  0
   -2.9308   19.6262  -31.8477 H   0  0  0  0  0  0  0  0  0  0  0  0
  1  2  1  0
  2  3  1  0
  3  4  1  0
  4  5  2  0
  4  6  1  0
  6  7  1  0
  7  8  1  0
  8  9  2  0
  8 10  1  0
 10 11  2  0
 11 12  1  0
 12 13  2  0
 13 14  1  0
 14 15  1  0
 15 16  2  0
 15 17  2  0
 15 18  1  0
 18 19  1  0
 19 20  1  0
 20 21  1  0
 21 22  1  0
 22 23  1  0
 14 24  2  0
  6 25  2  0
 25 26  1  0
 26 27  1  0
 27 28  2  0
 27 29  2  0
 27 30  1  0
 30 31  1  0
 31 32  2  0
 32 33  1  0
 33 34  2  0
 34 35  1  0
 35 36  2  0
 26  2  2  0
 36 31  1  0
 24 10  1  0
 23 18  1  0
  1 37  1  0
  1 38  1  0
  1 39  1  0
 11 40  1  0
 12 41  1  0
 13 42  1  0
 19 43  1  0
 19 44  1  0
 20 45  1  0
 20 46  1  0
 21 47  1  0
 21 48  1  0
 22 49  1  0
 22 50  1  0
 23 51  1  0
 23 52  1  0
 24 53  1  0
 25 54  1  0
 32 55  1  0
 33 56  1  0
 34 57  1  0
 35 58  1  0
 36 59  1  0
M  CHG  3   3  -1   7  -1  30  -1
M  END
>  <UniqueID>  (12) 
12

>  <SMILES>  (12) 
Cc1[n-]c(=O)c([N-]C(=O)c2cccc(S(=O)(=O)N3CCCCC3)c2)cc1S(=O)(=O)[N-]c1ccccc1

>  <Energy>  (12) 
77.26168101569374

>  <Genealogy>  (12) 
Cc1[n-]c(=O)c([N-]C(=O)c2cccc(S(=O)(=O)N3CCCCC3)c2)cc1S(=O)(=O)[N-]c1ccccc1 (protonated)
Cc1[n-]c(=O)c([N-]C(=O)c2cccc(S(=O)(=O)N3CCCCC3)c2)cc1S(=O)(=O)[N-]c1ccccc1 (3D coordinates assigned)
Cc1[n-]c(=O)c([N-]C(=O)c2cccc(S(=O)(=O)N3CCCCC3)c2)cc1S(=O)(=O)[N-]c1ccccc1 (nonaromatic ring conformer: 77.26168101569374 kcal/mol)

>  <smiles>  (12) 
Cc1[nH]c(=O)c(NC(=O)c2cccc(S(=O)(=O)N3CCCCC3)c2)cc1S(=O)(=O)Nc1ccccc1

>  <score_type>  (12) 
oracle

>  <origin>  (12) 
adgpu

>  <m_score__min__energy>  (12) 
-14.06

>  <m_primary>  (12) 
energy

$$$$
12:0
     RDKit          3D

 58 61  0  0  0  0  0  0  0  0999 V2000
   -6.9620   24.4470  -30.6150 C   0  0  0  0  0  0  0  0  0  0  0  0
   -5.7210   23.6630  -30.9550 C   0  0  0  0  0  0  0  0  0  0  0  0
   -5.6530   22.9740  -32.1780 C   0  0  0  0  0  0  0  0  0  0  0  0
   -4.5260   22.2160  -32.5060 C   0  0  0  0  0  0  0  0  0  0  0  0
   -3.4520   22.1320  -31.6170 C   0  0  0  0  0  0  0  0  0  0  0  0
   -2.0740   21.1090  -32.0070 S   0  0  0  0  0  0  0  0  0  0  0  0
   -1.3520   20.6800  -30.7610 O   0  0  0  0  0  0  0  0  0  0  0  0
   -1.1230   21.9260  -32.8390 O   0  0  0  0  0  0  0  0  0  0  0  0
   -2.5920   19.6730  -32.9080 C   0  0  0  0  0  0  0  0  0  0  0  0
   -3.8480   19.1180  -32.6110 C   0  0  0  0  0  0  0  0  0  0  0  0
   -4.3140   17.9880  -33.2930 C   0  0  0  0  0  0  0  0  0  0  0  0
   -5.9240   17.3520  -32.9670 S   0  0  0  0  0  0  0  0  0  0  0  0
   -5.8250   16.1420  -32.0780 O   0  0  0  0  0  0  0  0  0  0  0  0
   -6.5670   16.9430  -34.2640 O   0  0  0  0  0  0  0  0  0  0  0  0
   -6.8780   18.6020  -32.2090 N   0  0  0  0  0  0  0  0  0  0  0  0
   -8.2470   18.1510  -31.9600 C   0  0  0  0  0  0  0  0  0  0  0  0
   -9.1280   19.3950  -31.9840 C   0  0  0  0  0  0  0  0  0  0  0  0
   -8.2770   20.4800  -32.6270 C   0  0  0  0  0  0  0  0  0  0  0  0
   -7.0080   19.7730  -33.0710 C   0  0  0  0  0  0  0  0  0  0  0  0
   -3.5260   17.4070  -34.2890 C   0  0  0  0  0  0  0  0  0  0  0  0
   -2.2790   17.9470  -34.5970 C   0  0  0  0  0  0  0  0  0  0  0  0
   -1.7980   19.0790  -33.9190 C   0  0  0  0  0  0  0  0  0  0  0  0
   -0.5230   19.6170  -34.3120 N   0  0  0  0  0  0  0  0  0  0  0  0
    0.6290   19.3740  -33.4250 C   0  0  0  0  0  0  0  0  0  0  0  0
    1.7510   20.4370  -33.5530 C   0  0  0  0  0  0  0  0  0  0  0  0
    1.3180   21.6200  -34.1920 O   0  0  0  0  0  0  0  0  0  0  0  0
    0.8540   21.2980  -35.4820 C   0  0  0  0  0  0  0  0  0  0  0  0
   -0.5100   20.6370  -35.3710 C   0  0  0  0  0  0  0  0  0  0  0  0
   -3.4920   22.8450  -30.4120 C   0  0  0  0  0  0  0  0  0  0  0  0
   -4.6150   23.6150  -30.0720 C   0  0  0  0  0  0  0  0  0  0  0  0
   -4.6160   24.3300  -28.8290 N   0  0  0  0  0  0  0  0  0  0  0  0
   -7.0661   24.5128  -29.5219 H   0  0  0  0  0  0  0  0  0  0  0  0
   -6.8832   25.4596  -31.0374 H   0  0  0  0  0  0  0  0  0  0  0  0
   -7.8426   23.9410  -31.0374 H   0  0  0  0  0  0  0  0  0  0  0  0
   -6.4949   23.0320  -32.8836 H   0  0  0  0  0  0  0  0  0  0  0  0
   -4.4844   21.6836  -33.4677 H   0  0  0  0  0  0  0  0  0  0  0  0
   -4.4737   19.5778  -31.8319 H   0  0  0  0  0  0  0  0  0  0  0  0
   -8.5630   17.4472  -32.7441 H   0  0  0  0  0  0  0  0  0  0  0  0
   -8.3230   17.6303  -30.9940 H   0  0  0  0  0  0  0  0  0  0  0  0
  -10.0346   19.2132  -32.5799 H   0  0  0  0  0  0  0  0  0  0  0  0
   -9.4609   19.6802  -30.9751 H   0  0  0  0  0  0  0  0  0  0  0  0
   -8.7977   20.9185  -33.4910 H   0  0  0  0  0  0  0  0  0  0  0  0
   -8.0678   21.3069  -31.9324 H   0  0  0  0  0  0  0  0  0  0  0  0
   -7.0901   19.4654  -34.1239 H   0  0  0  0  0  0  0  0  0  0  0  0
   -6.1306   20.4316  -32.9914 H   0  0  0  0  0  0  0  0  0  0  0  0
   -3.8903   16.5219  -34.8311 H   0  0  0  0  0  0  0  0  0  0  0  0
   -1.6638   17.4810  -35.3808 H   0  0  0  0  0  0  0  0  0  0  0  0
    0.2714   19.3704  -32.3848 H   0  0  0  0  0  0  0  0  0  0  0  0
    1.0655   18.4092  -33.7228 H   0  0  0  0  0  0  0  0  0  0  0  0
    2.1081   20.6934  -32.5447 H   0  0  0  0  0  0  0  0  0  0  0  0
    2.5492   20.0011  -34.1718 H   0  0  0  0  0  0  0  0  0  0  0  0
    0.7705   22.2156  -36.0828 H   0  0  0  0  0  0  0  0  0  0  0  0
    1.5605   20.6090  -35.9680 H   0  0  0  0  0  0  0  0  0  0  0  0
   -1.2627   21.4047  -35.1387 H   0  0  0  0  0  0  0  0  0  0  0  0
   -0.7381   20.1468  -36.3290 H   0  0  0  0  0  0  0  0  0  0  0  0
   -2.6341   22.8009  -29.7249 H   0  0  0  0  0  0  0  0  0  0  0  0
   -3.8730   25.0200  -28.5810 H   0  0  0  0  0  0  0  0  0  0  0  0
   -5.3590   24.1510  -28.1180 H   0  0  0  0  0  0  0  0  0  0  0  0
  1  2  1  0
  2  3  2  0
  3  4  1  0
  4  5  2  0
  5  6  1  0
  6  7  2  0
  6  8  2  0
  6  9  1  0
  9 10  2  0
 10 11  1  0
 11 12  1  0
 12 13  2  0
 12 14  2  0
 12 15  1  0
 15 16  1  0
 16 17  1  0
 17 18  1  0
 18 19  1  0
 11 20  2  0
 20 21  1  0
 21 22  2  0
 22 23  1  0
 23 24  1  0
 24 25  1  0
 25 26  1  0
 26 27  1  0
 27 28  1  0
  5 29  1  0
 29 30  2  0
 30 31  1  0
 30  2  1  0
 22  9  1  0
 28 23  1  0
 19 15  1  0
  1 32  1  0
  1 33  1  0
  1 34  1  0
  3 35  1  0
  4 36  1  0
 10 37  1  0
 16 38  1  0
 16 39  1  0
 17 40  1  0
 17 41  1  0
 18 42  1  0
 18 43  1  0
 19 44  1  0
 19 45  1  0
 20 46  1  0
 21 47  1  0
 24 48  1  0
 24 49  1  0
 25 50  1  0
 25 51  1  0
 27 52  1  0
 27 53  1  0
 28 54  1  0
 28 55  1  0
 29 56  1  0
 31 57  1  0
 31 58  1  0
M  END
>  <UniqueID>  (13) 
13

>  <SMILES>  (13) 
Cc1ccc(S(=O)(=O)c2cc(S(=O)(=O)N3CCCC3)ccc2N2CCOCC2)cc1N

>  <Energy>  (13) 
72.01815380068955

>  <Genealogy>  (13) 
Cc1ccc(S(=O)(=O)c2cc(S(=O)(=O)N3CCCC3)ccc2N2CCOCC2)cc1N (3D coordinates assigned)
Cc1ccc(S(=O)(=O)c2cc(S(=O)(=O)N3CCCC3)ccc2N2CCOCC2)cc1N (nonaromatic ring conformer: 72.01815380068955 kcal/mol)

>  <smiles>  (13) 
Cc1ccc(S(=O)(=O)c2cc(S(=O)(=O)N3CCCC3)ccc2N2CCOCC2)cc1N

>  <score_type>  (13) 
oracle

>  <origin>  (13) 
adgpu

>  <m_score__min__energy>  (13) 
-9.8900000000000006

>  <m_primary>  (13) 
energy

$$$$
13:0
     RDKit          3D

 34 35  0  0  0  0  0  0  0  0999 V2000
   -7.0020   24.9220  -30.1050 C   0  0  0  0  0  0  0  0  0  0  0  0
   -6.6790   23.6870  -30.8840 C   0  0  0  0  0  0  0  0  0  0  0  0
   -7.8380   22.7140  -31.6020 S   0  0  0  0  0  0  0  0  0  0  0  0
   -6.7810   21.5750  -32.2460 C   0  0  0  0  0  0  0  0  0  0  0  0
   -7.2200   20.3780  -32.9970 C   0  0  0  0  0  0  0  0  0  0  0  0
   -6.8700   20.2000  -34.1920 O   0  0  0  0  0  0  0  0  0  0  0  0
   -8.2570   19.1350  -32.2200 S   0  0  0  0  0  0  0  0  0  0  0  0
   -7.0500   17.8320  -32.4700 C   0  0  0  0  0  0  0  0  0  0  0  0
   -6.3120   17.3380  -31.3870 C   0  0  0  0  0  0  0  0  0  0  0  0
   -5.3680   16.3250  -31.5850 C   0  0  0  0  0  0  0  0  0  0  0  0
   -5.1640   15.7980  -32.8650 C   0  0  0  0  0  0  0  0  0  0  0  0
   -3.9800   14.5280  -33.1130 Cl  0  0  0  0  0  0  0  0  0  0  0  0
   -5.9070   16.2850  -33.9470 C   0  0  0  0  0  0  0  0  0  0  0  0
   -6.8490   17.2980  -33.7490 C   0  0  0  0  0  0  0  0  0  0  0  0
   -5.4690   21.9600  -31.9180 C   0  0  0  0  0  0  0  0  0  0  0  0
   -4.2540   21.1950  -32.3740 C   0  0  0  0  0  0  0  0  0  0  0  0
   -5.4170   23.1260  -31.1100 C   0  0  0  0  0  0  0  0  0  0  0  0
   -3.9210   23.8160  -30.4500 S   0  0  0  0  0  0  0  0  0  0  0  0
   -3.8750   23.5530  -28.6910 C   0  0  0  0  0  0  0  0  0  0  0  0
   -3.8530   25.2860  -30.7510 O   0  0  0  0  0  0  0  0  0  0  0  0
   -2.7180   23.1620  -31.0710 O   0  0  0  0  0  0  0  0  0  0  0  0
   -6.9445   24.7022  -29.0287 H   0  0  0  0  0  0  0  0  0  0  0  0
   -6.2806   25.7134  -30.3566 H   0  0  0  0  0  0  0  0  0  0  0  0
   -8.0185   25.2589  -30.3566 H   0  0  0  0  0  0  0  0  0  0  0  0
   -6.4750   17.7473  -30.3791 H   0  0  0  0  0  0  0  0  0  0  0  0
   -4.7856   15.9424  -30.7338 H   0  0  0  0  0  0  0  0  0  0  0  0
   -5.7492   15.8701  -34.9534 H   0  0  0  0  0  0  0  0  0  0  0  0
   -7.4341   17.6770  -34.5999 H   0  0  0  0  0  0  0  0  0  0  0  0
   -3.6926   20.8415  -31.4966 H   0  0  0  0  0  0  0  0  0  0  0  0
   -4.5696   20.3324  -32.9792 H   0  0  0  0  0  0  0  0  0  0  0  0
   -3.6126   21.8525  -32.9792 H   0  0  0  0  0  0  0  0  0  0  0  0
   -4.0422   24.5088  -28.1729 H   0  0  0  0  0  0  0  0  0  0  0  0
   -4.6619   22.8390  -28.4063 H   0  0  0  0  0  0  0  0  0  0  0  0
   -2.8925   23.1485  -28.4063 H   0  0  0  0  0  0  0  0  0  0  0  0
  1  2  1  0
  2  3  1  0
  3  4  1  0
  4  5  1  0
  5  6  2  0
  5  7  1  0
  7  8  1  0
  8  9  2  0
  9 10  1  0
 10 11  2  0
 11 12  1  0
 11 13  1  0
 13 14  2  0
  4 15  2  0
 15 16  1  0
 15 17  1  0
 17 18  1  0
 18 19  1  0
 18 20  2  0
 18 21  2  0
 17  2  2  0
 14  8  1  0
  1 22  1  0
  1 23  1  0
  1 24  1  0
  9 25  1  0
 10 26  1  0
 13 27  1  0
 14 28  1  0
 16 29  1  0
 16 30  1  0
 16 31  1  0
 19 32  1  0
 19 33  1  0
 19 34  1  0
M  END
>  <UniqueID>  (14) 
14

>  <SMILES>  (14) 
Cc1sc(C(=O)Sc2ccc(Cl)cc2)c(C)c1S(C)(=O)=O

>  <Energy>  (14) 
54.998322625674284

>  <Genealogy>  (14) 
Cc1sc(C(=O)Sc2ccc(Cl)cc2)c(C)c1S(C)(=O)=O (3D coordinates assigned)
Cc1sc(C(=O)Sc2ccc(Cl)cc2)c(C)c1S(C)(=O)=O (optimized conformer: 54.998322625674284 kcal/mol)

>  <smiles>  (14) 
Cc1sc(C(=O)Sc2ccc(Cl)cc2)c(C)c1S(C)(=O)=O

>  <score_type>  (14) 
oracle

>  <origin>  (14) 
adgpu

>  <m_score__min__energy>  (14) 
-8.9100000000000001

>  <m_primary>  (14) 
energy

$$$$
14:0
     RDKit          3D

 52 56  0  0  0  0  0  0  0  0999 V2000
    2.1120   25.0460  -24.1700 N   0  0  0  0  0  0  0  0  0  0  0  0
    1.2710   24.5290  -24.9790 C   0  0  0  0  0  0  0  0  0  0  0  0
    0.2620   23.7860  -24.4610 N   0  0  0  0  0  0  0  0  0  0  0  0
   -0.6290   23.2350  -25.2750 C   0  0  0  0  0  0  0  0  0  0  0  0
   -0.5280   23.4180  -26.6380 C   0  0  0  0  0  0  0  0  0  0  0  0
   -1.5260   22.8050  -27.5660 C   0  0  0  0  0  0  0  0  0  0  0  0
   -0.8010   22.0710  -28.5060 O   0  0  0  0  0  0  0  0  0  0  0  0
   -1.3270   21.7610  -29.7540 C   0  0  0  0  0  0  0  0  0  0  0  0
   -0.4660   21.3130  -30.7170 C   0  0  0  0  0  0  0  0  0  0  0  0
   -0.9990   21.0080  -31.9510 C   0  0  0  0  0  0  0  0  0  0  0  0
   -2.3720   21.1520  -32.2020 C   0  0  0  0  0  0  0  0  0  0  0  0
   -2.9030   20.6700  -33.8360 S   0  0  0  0  0  0  0  0  0  0  0  0
   -3.9430   19.2190  -33.7700 C   0  0  0  0  0  0  0  0  0  0  0  0
   -5.2660   19.2820  -34.2210 C   0  0  0  0  0  0  0  0  0  0  0  0
   -6.0850   18.1500  -34.1710 C   0  0  0  0  0  0  0  0  0  0  0  0
   -5.5230   16.9970  -33.6620 C   0  0  0  0  0  0  0  0  0  0  0  0
   -4.2210   16.9250  -33.2140 C   0  0  0  0  0  0  0  0  0  0  0  0
   -3.4100   18.0530  -33.2670 C   0  0  0  0  0  0  0  0  0  0  0  0
   -3.2470   21.6010  -31.2440 C   0  0  0  0  0  0  0  0  0  0  0  0
   -4.6290   21.8180  -31.4350 N   0  0  0  0  0  0  0  0  0  0  0  0
   -5.5930   20.7620  -31.4370 C   0  0  0  0  0  0  0  0  0  0  0  0
   -5.4080   19.5130  -31.3150 O   0  0  0  0  0  0  0  0  0  0  0  0
   -6.9390   21.3040  -31.6090 C   0  0  0  0  0  0  0  0  0  0  0  0
   -8.2020   20.7100  -31.6780 C   0  0  0  0  0  0  0  0  0  0  0  0
   -9.3010   21.5260  -31.8490 C   0  0  0  0  0  0  0  0  0  0  0  0
   -9.1640   22.8960  -31.9520 C   0  0  0  0  0  0  0  0  0  0  0  0
   -7.9350   23.4330  -31.8830 N   0  0  0  0  0  0  0  0  0  0  0  0
   -6.8250   22.6690  -31.7140 C   0  0  0  0  0  0  0  0  0  0  0  0
   -5.3850   23.0040  -31.6060 C   0  0  0  0  0  0  0  0  0  0  0  0
   -5.0110   24.1980  -31.6700 O   0  0  0  0  0  0  0  0  0  0  0  0
   -2.6750   21.9030  -30.0000 C   0  0  0  0  0  0  0  0  0  0  0  0
    0.4930   24.1710  -27.1680 C   0  0  0  0  0  0  0  0  0  0  0  0
    0.6630   24.3940  -28.4220 N   0  0  0  0  0  0  0  0  0  0  0  0
    1.3750   24.7110  -26.3020 N   0  0  0  0  0  0  0  0  0  0  0  0
    2.0100   24.8900  -23.1400 H   0  0  0  0  0  0  0  0  0  0  0  0
    0.1760   23.6410  -23.4330 H   0  0  0  0  0  0  0  0  0  0  0  0
   -1.4501   22.6309  -24.8617 H   0  0  0  0  0  0  0  0  0  0  0  0
   -2.2047   22.1423  -27.0090 H   0  0  0  0  0  0  0  0  0  0  0  0
   -2.1391   23.5770  -28.0540 H   0  0  0  0  0  0  0  0  0  0  0  0
    0.6094   21.2004  -30.5150 H   0  0  0  0  0  0  0  0  0  0  0  0
   -0.3375   20.6459  -32.7518 H   0  0  0  0  0  0  0  0  0  0  0  0
   -5.6641   20.2278  -34.6173 H   0  0  0  0  0  0  0  0  0  0  0  0
   -7.1276   18.1771  -34.5207 H   0  0  0  0  0  0  0  0  0  0  0  0
   -6.1444   16.0907  -33.6112 H   0  0  0  0  0  0  0  0  0  0  0  0
   -3.8255   15.9788  -32.8162 H   0  0  0  0  0  0  0  0  0  0  0  0
   -2.3683   18.0151  -32.9158 H   0  0  0  0  0  0  0  0  0  0  0  0
   -8.3170   19.6190  -31.5980 H   0  0  0  0  0  0  0  0  0  0  0  0
  -10.3039   21.0774  -31.9043 H   0  0  0  0  0  0  0  0  0  0  0  0
  -10.0473   23.5373  -32.0884 H   0  0  0  0  0  0  0  0  0  0  0  0
   -3.3261   22.2664  -29.1913 H   0  0  0  0  0  0  0  0  0  0  0  0
   -0.0150   23.9820  -29.1110 H   0  0  0  0  0  0  0  0  0  0  0  0
    2.1610   25.2880  -26.6890 H   0  0  0  0  0  0  0  0  0  0  0  0
  1  2  2  3
  2  3  1  0
  3  4  1  0
  4  5  2  0
  5  6  1  0
  6  7  1  0
  7  8  1  0
  8  9  2  0
  9 10  1  0
 10 11  2  0
 11 12  1  0
 12 13  1  0
 13 14  2  0
 14 15  1  0
 15 16  2  0
 16 17  1  0
 17 18  2  0
 11 19  1  0
 19 20  1  0
 20 21  1  0
 21 22  2  0
 21 23  1  0
 23 24  2  0
 24 25  1  0
 25 26  2  0
 26 27  1  0
 27 28  2  0
 28 29  1  0
 29 30  2  0
 19 31  2  0
  5 32  1  0
 32 33  2  3
 32 34  1  0
 34  2  1  0
 31  8  1  0
 18 13  1  0
 29 20  1  0
 28 23  1  0
  1 35  1  0
  3 36  1  0
  4 37  1  0
  6 38  1  0
  6 39  1  0
  9 40  1  0
 10 41  1  0
 14 42  1  0
 15 43  1  0
 16 44  1  0
 17 45  1  0
 18 46  1  0
 24 47  1  0
 25 48  1  0
 26 49  1  0
 31 50  1  0
 33 51  1  0
 34 52  1  0
M  END
>  <smiles>  (15) 
N=c1[nH]cc(COc2ccc(Sc3ccccc3)c(N3C(=O)c4cccnc4C3=O)c2)c(=N)[nH]1

>  <score_type>  (15) 
oracle

>  <origin>  (15) 
adgpu

>  <m_score__min__energy>  (15) 
-9.75

>  <m_primary>  (15) 
energy

$$$$
15:0
     RDKit          3D

 62 65  0  0  0  0  0  0  0  0999 V2000
   -4.9910   15.4620  -32.2390 C   0  0  0  0  0  0  0  0  0  0  0  0
   -5.3450   16.7210  -32.9690 C   0  0  0  0  0  0  0  0  0  0  0  0
   -5.0470   16.8720  -34.3330 C   0  0  0  0  0  0  0  0  0  0  0  0
   -5.3980   18.0440  -35.0000 C   0  0  0  0  0  0  0  0  0  0  0  0
   -6.0420   19.0800  -34.3180 C   0  0  0  0  0  0  0  0  0  0  0  0
   -6.3370   18.9590  -32.9440 C   0  0  0  0  0  0  0  0  0  0  0  0
   -7.0020   20.0380  -32.2500 N   0  0  0  0  0  0  0  0  0  0  0  0
   -8.3350   20.2220  -32.0970 C   0  0  0  0  0  0  0  0  0  0  0  0
   -8.5370   21.3880  -31.3830 C   0  0  0  0  0  0  0  0  0  0  0  0
   -9.8430   21.9120  -30.8750 C   0  0  0  0  0  0  0  0  0  0  0  0
   -7.2680   21.8550  -31.1040 C   0  0  0  0  0  0  0  0  0  0  0  0
   -6.8480   23.3360  -30.1760 S   0  0  0  0  0  0  0  0  0  0  0  0
   -5.4540   23.8090  -31.2640 C   0  0  0  0  0  0  0  0  0  0  0  0
   -4.3730   24.4880  -30.4850 C   0  0  0  0  0  0  0  0  0  0  0  0
   -3.9750   25.6300  -30.8460 O   0  0  0  0  0  0  0  0  0  0  0  0
   -3.8260   23.8400  -29.3300 N   0  0  0  0  0  0  0  0  0  0  0  0
   -2.5780   24.0740  -28.6560 C   0  0  0  0  0  0  0  0  0  0  0  0
   -1.4030   23.6900  -29.3070 C   0  0  0  0  0  0  0  0  0  0  0  0
   -0.1600   23.8940  -28.7080 C   0  0  0  0  0  0  0  0  0  0  0  0
   -0.0630   24.4920  -27.4370 C   0  0  0  0  0  0  0  0  0  0  0  0
    1.3000   24.6640  -26.8210 C   0  0  0  0  0  0  0  0  0  0  0  0
   -1.2510   24.8810  -26.7630 C   0  0  0  0  0  0  0  0  0  0  0  0
   -1.2540   25.6090  -25.1310 S   0  0  0  0  0  0  0  0  0  0  0  0
   -2.6420   26.1240  -24.8600 O   0  0  0  0  0  0  0  0  0  0  0  0
   -0.9650   24.5590  -24.0910 O   0  0  0  0  0  0  0  0  0  0  0  0
   -0.1280   26.9530  -24.9780 N   0  0  0  0  0  0  0  0  0  0  0  0
    0.5720   26.9470  -23.6730 C   0  0  0  0  0  0  0  0  0  0  0  0
    1.2700   28.2980  -23.4000 C   0  0  0  0  0  0  0  0  0  0  0  0
    1.4510   29.0280  -24.5990 O   0  0  0  0  0  0  0  0  0  0  0  0
    0.1910   29.4120  -25.1340 C   0  0  0  0  0  0  0  0  0  0  0  0
   -0.8180   28.2390  -25.1950 C   0  0  0  0  0  0  0  0  0  0  0  0
   -2.4900   24.7000  -27.3990 C   0  0  0  0  0  0  0  0  0  0  0  0
   -6.3510   21.0240  -31.6410 N   0  0  0  0  0  0  0  0  0  0  0  0
   -5.9830   17.7640  -32.2770 C   0  0  0  0  0  0  0  0  0  0  0  0
   -5.0412   15.6404  -31.1547 H   0  0  0  0  0  0  0  0  0  0  0  0
   -5.7005   14.6674  -32.5131 H   0  0  0  0  0  0  0  0  0  0  0  0
   -3.9713   15.1536  -32.5131 H   0  0  0  0  0  0  0  0  0  0  0  0
   -4.5355   16.0635  -34.8759 H   0  0  0  0  0  0  0  0  0  0  0  0
   -5.1668   18.1544  -36.0697 H   0  0  0  0  0  0  0  0  0  0  0  0
   -6.3211   19.9973  -34.8571 H   0  0  0  0  0  0  0  0  0  0  0  0
   -9.1237   19.5559  -32.4768 H   0  0  0  0  0  0  0  0  0  0  0  0
   -9.8363   21.9093  -29.7750 H   0  0  0  0  0  0  0  0  0  0  0  0
   -9.9920   22.9395  -31.2382 H   0  0  0  0  0  0  0  0  0  0  0  0
  -10.6609   21.2724  -31.2382 H   0  0  0  0  0  0  0  0  0  0  0  0
   -5.0432   22.9044  -31.7362 H   0  0  0  0  0  0  0  0  0  0  0  0
   -5.8268   24.5070  -32.0280 H   0  0  0  0  0  0  0  0  0  0  0  0
   -1.4587   23.2225  -30.3011 H   0  0  0  0  0  0  0  0  0  0  0  0
    0.7548   23.5842  -29.2345 H   0  0  0  0  0  0  0  0  0  0  0  0
    1.2110   24.6528  -25.7247 H   0  0  0  0  0  0  0  0  0  0  0  0
    1.9549   23.8414  -27.1441 H   0  0  0  0  0  0  0  0  0  0  0  0
    1.7300   25.6235  -27.1441 H   0  0  0  0  0  0  0  0  0  0  0  0
    0.5880   26.8350  -25.7360 H   0  0  0  0  0  0  0  0  0  0  0  0
   -0.1605   26.7552  -22.8751 H   0  0  0  0  0  0  0  0  0  0  0  0
    1.3399   26.1597  -23.6963 H   0  0  0  0  0  0  0  0  0  0  0  0
    0.6511   28.8893  -22.7091 H   0  0  0  0  0  0  0  0  0  0  0  0
    2.2579   28.0987  -22.9591 H   0  0  0  0  0  0  0  0  0  0  0  0
   -0.2318   30.2067  -24.5017 H   0  0  0  0  0  0  0  0  0  0  0  0
    0.3602   29.7570  -26.1647 H   0  0  0  0  0  0  0  0  0  0  0  0
   -1.5810   28.3767  -24.4147 H   0  0  0  0  0  0  0  0  0  0  0  0
   -1.2900   28.2266  -26.1885 H   0  0  0  0  0  0  0  0  0  0  0  0
   -3.4075   25.0537  -26.9059 H   0  0  0  0  0  0  0  0  0  0  0  0
   -6.2091   17.6497  -31.2066 H   0  0  0  0  0  0  0  0  0  0  0  0
  1  2  1  0
  2  3  2  0
  3  4  1  0
  4  5  2  0
  5  6  1  0
  6  7  1  0
  7  8  1  0
  8  9  2  0
  9 10  1  0
  9 11  1  0
 11 12  1  0
 12 13  1  0
 13 14  1  0
 14 15  2  0
 14 16  1  0
 16 17  1  0
 17 18  2  0
 18 19  1  0
 19 20  2  0
 20 21  1  0
 20 22  1  0
 22 23  1  0
 23 24  2  0
 23 25  2  0
 23 26  1  0
 26 27  1  0
 27 28  1  0
 28 29  1  0
 29 30  1  0
 30 31  1  0
 22 32  2  0
 11 33  2  0
  6 34  2  0
 34  2  1  0
 33  7  1  0
 32 17  1  0
 31 26  1  0
  1 35  1  0
  1 36  1  0
  1 37  1  0
  3 38  1  0
  4 39  1  0
  5 40  1  0
  8 41  1  0
 10 42  1  0
 10 43  1  0
 10 44  1  0
 13 45  1  0
 13 46  1  0
 18 47  1  0
 19 48  1  0
 21 49  1  0
 21 50  1  0
 21 51  1  0
 26 52  1  0
 27 53  1  0
 27 54  1  0
 28 55  1  0
 28 56  1  0
 30 57  1  0
 30 58  1  0
 31 59  1  0
 31 60  1  0
 32 61  1  0
 34 62  1  0
M  CHG  2  16  -1  26   1
M  END
>  <UniqueID>  (16) 
15

>  <SMILES>  (16) 
Cc1cccc(-n2cc(C)c(SCC(=O)[N-]c3ccc(C)c(S(=O)(=O)[NH+]4CCOCC4)c3)n2)c1

>  <Energy>  (16) 
106.70069557119452

>  <Genealogy>  (16) 
Cc1cccc(-n2cc(C)c(SCC(=O)[N-]c3ccc(C)c(S(=O)(=O)[NH+]4CCOCC4)c3)n2)c1 (protonated)
Cc1cccc(-n2cc(C)c(SCC(=O)[N-]c3ccc(C)c(S(=O)(=O)[NH+]4CCOCC4)c3)n2)c1 (3D coordinates assigned)
Cc1cccc(-n2cc(C)c(SCC(=O)[N-]c3ccc(C)c(S(=O)(=O)[NH+]4CCOCC4)c3)n2)c1 (nonaromatic ring conformer: 106.70069557119452 kcal/mol)

>  <smiles>  (16) 
Cc1cccc(-n2cc(C)c(SCC(=O)Nc3ccc(C)c(S(=O)(=O)N4CCOCC4)c3)n2)c1

>  <score_type>  (16) 
oracle

>  <origin>  (16) 
adgpu

>  <m_score__min__energy>  (16) 
-12.27

>  <m_primary>  (16) 
energy

$$$$
16:0
     RDKit          3D

 56 58  0  0  0  0  0  0  0  0999 V2000
   -1.7841   24.7021  -24.9148 H   0  0  0  0  0  0  0  0  0  0  0  0
   -0.6910   24.6100  -24.9960 C   0  0  0  0  0  0  0  0  0  0  0  0
    0.1420   25.5530  -24.2920 N   0  0  0  0  0  0  0  0  0  0  0  0
    1.5980   25.5780  -24.4620 C   0  0  0  0  0  0  0  0  0  0  0  0
    2.0824   25.5863  -23.4744 H   0  0  0  0  0  0  0  0  0  0  0  0
    1.9174   24.6852  -25.0196 H   0  0  0  0  0  0  0  0  0  0  0  0
    1.8866   26.4812  -25.0196 H   0  0  0  0  0  0  0  0  0  0  0  0
   -0.5130   26.4930  -23.3810 C   0  0  0  0  0  0  0  0  0  0  0  0
   -0.3081   26.1989  -22.3410 H   0  0  0  0  0  0  0  0  0  0  0  0
   -0.1247   27.5067  -23.5587 H   0  0  0  0  0  0  0  0  0  0  0  0
   -1.5985   26.4798  -23.5587 H   0  0  0  0  0  0  0  0  0  0  0  0
   -0.1910   23.6500  -25.7270 N   0  0  0  0  0  0  0  0  0  0  0  0
    0.8430   23.5540  -25.8220 H   0  0  0  0  0  0  0  0  0  0  0  0
   -1.0120   22.7030  -26.4390 C   0  0  0  0  0  0  0  0  0  0  0  0
   -1.0650   21.3550  -26.0280 C   0  0  0  0  0  0  0  0  0  0  0  0
   -0.5089   21.0359  -25.1342 H   0  0  0  0  0  0  0  0  0  0  0  0
   -1.8160   20.4220  -26.7440 C   0  0  0  0  0  0  0  0  0  0  0  0
   -1.8615   19.3768  -26.4043 H   0  0  0  0  0  0  0  0  0  0  0  0
   -2.5080   20.8120  -27.8880 C   0  0  0  0  0  0  0  0  0  0  0  0
   -3.0948   20.0732  -28.4535 H   0  0  0  0  0  0  0  0  0  0  0  0
   -2.4580   22.1390  -28.3180 C   0  0  0  0  0  0  0  0  0  0  0  0
   -3.0003   22.4379  -29.2272 H   0  0  0  0  0  0  0  0  0  0  0  0
   -1.7220   23.0960  -27.6010 C   0  0  0  0  0  0  0  0  0  0  0  0
   -1.7100   24.7740  -28.1660 S   0  0  0  0  0  0  0  0  0  0  0  0
   -0.2860   25.2120  -28.3630 O   0  0  0  0  0  0  0  0  0  0  0  0
   -2.3670   25.6710  -27.1540 O   0  0  0  0  0  0  0  0  0  0  0  0
   -2.5410   24.9260  -29.6810 N   0  0  0  0  0  0  0  0  0  0  0  0
   -3.7740   24.2780  -30.0220 C   0  0  0  0  0  0  0  0  0  0  0  0
   -4.9940   24.6120  -29.4060 C   0  0  0  0  0  0  0  0  0  0  0  0
   -5.0207   25.3859  -28.6247 H   0  0  0  0  0  0  0  0  0  0  0  0
   -6.1730   23.9620  -29.7850 C   0  0  0  0  0  0  0  0  0  0  0  0
   -7.1260   24.2377  -29.3098 H   0  0  0  0  0  0  0  0  0  0  0  0
   -6.1480   22.9630  -30.7650 C   0  0  0  0  0  0  0  0  0  0  0  0
   -7.6370   22.1520  -31.2490 S   0  0  0  0  0  0  0  0  0  0  0  0
   -8.5950   22.1280  -30.0900 O   0  0  0  0  0  0  0  0  0  0  0  0
   -8.2720   22.9300  -32.3700 O   0  0  0  0  0  0  0  0  0  0  0  0
   -7.2900   20.5260  -31.7850 N   0  0  0  0  0  0  0  0  0  0  0  0
   -8.5460   19.7720  -31.9510 C   0  0  0  0  0  0  0  0  0  0  0  0
   -9.1458   19.8625  -31.0334 H   0  0  0  0  0  0  0  0  0  0  0  0
   -9.0971   20.1857  -32.8084 H   0  0  0  0  0  0  0  0  0  0  0  0
   -8.2540   18.2840  -32.2200 C   0  0  0  0  0  0  0  0  0  0  0  0
   -8.2933   17.7386  -31.2655 H   0  0  0  0  0  0  0  0  0  0  0  0
   -9.0126   17.9170  -32.9270 H   0  0  0  0  0  0  0  0  0  0  0  0
   -6.8730   18.0610  -32.8590 C   0  0  0  0  0  0  0  0  0  0  0  0
   -6.1160   17.9884  -32.0642 H   0  0  0  0  0  0  0  0  0  0  0  0
   -6.9037   17.1316  -33.4466 H   0  0  0  0  0  0  0  0  0  0  0  0
   -6.5100   19.2170  -33.7920 C   0  0  0  0  0  0  0  0  0  0  0  0
   -5.5027   19.0444  -34.1988 H   0  0  0  0  0  0  0  0  0  0  0  0
   -7.2580   19.2564  -34.5976 H   0  0  0  0  0  0  0  0  0  0  0  0
   -6.5260   20.5740  -33.0510 C   0  0  0  0  0  0  0  0  0  0  0  0
   -5.4891   20.8635  -32.8252 H   0  0  0  0  0  0  0  0  0  0  0  0
   -7.0194   21.3050  -33.7085 H   0  0  0  0  0  0  0  0  0  0  0  0
   -4.9290   22.6160  -31.3630 C   0  0  0  0  0  0  0  0  0  0  0  0
   -4.8976   21.8202  -32.1217 H   0  0  0  0  0  0  0  0  0  0  0  0
   -3.7540   23.2770  -30.9990 C   0  0  0  0  0  0  0  0  0  0  0  0
   -2.8044   23.0082  -31.4848 H   0  0  0  0  0  0  0  0  0  0  0  0
  1  2  1  0
  2  3  1  0
  3  4  1  0
  4  5  1  0
  4  6  1  0
  4  7  1  0
  3  8  1  0
  8  9  1  0
  8 10  1  0
  8 11  1  0
  2 12  2  0
 12 13  1  0
 12 14  1  0
 14 15  2  0
 15 16  1  0
 15 17  1  0
 17 18  1  0
 17 19  2  0
 19 20  1  0
 19 21  1  0
 21 22  1  0
 21 23  2  0
 23 24  1  0
 24 25  2  0
 24 26  2  0
 24 27  1  0
 27 28  1  0
 28 29  2  0
 29 30  1  0
 29 31  1  0
 31 32  1  0
 31 33  2  0
 33 34  1  0
 34 35  2  0
 34 36  2  0
 34 37  1  0
 37 38  1  0
 38 39  1  0
 38 40  1  0
 38 41  1  0
 41 42  1  0
 41 43  1  0
 41 44  1  0
 44 45  1  0
 44 46  1  0
 44 47  1  0
 47 48  1  0
 47 49  1  0
 47 50  1  0
 50 51  1  0
 50 52  1  0
 33 53  1  0
 53 54  1  0
 53 55  2  0
 55 56  1  0
 23 14  1  0
 55 28  1  0
 50 37  1  0
M  CHG  2  12   1  27  -1
M  END
>  <UniqueID>  (17) 
16

>  <SMILES>  (17) 
CN(C)/C=[NH+]/c1ccccc1S(=O)(=O)[N-]c1ccc(S(=O)(=O)N2CCCCC2)cc1

>  <Energy>  (17) 
65.5796933056991

>  <Genealogy>  (17) 
CN(C)C=[NH+]c1ccccc1S(=O)(=O)[N-]c1ccc(S(=O)(=O)N2CCCCC2)cc1 (protonated)
CN(C)/C=[NH+]/c1ccccc1S(=O)(=O)[N-]c1ccc(S(=O)(=O)N2CCCCC2)cc1 (cis-trans isomerization)
CN(C)/C=[NH+]/c1ccccc1S(=O)(=O)[N-]c1ccc(S(=O)(=O)N2CCCCC2)cc1 (3D coordinates assigned)
CN(C)/C=[NH+]/c1ccccc1S(=O)(=O)[N-]c1ccc(S(=O)(=O)N2CCCCC2)cc1 (nonaromatic ring conformer: 65.5796933056991 kcal/mol)

>  <smiles>  (17) 
CN(C)C=Nc1ccccc1S(=O)(=O)Nc1ccc(S(=O)(=O)N2CCCCC2)cc1

>  <score_type>  (17) 
oracle

>  <origin>  (17) 
adgpu

>  <m_score__min__energy>  (17) 
-11.27

>  <m_primary>  (17) 
energy

$$$$
17:0
     RDKit          3D

 34 36  0  0  0  0  0  0  0  0999 V2000
   -6.3620   23.1480  -29.6910 O   0  0  0  0  0  0  0  0  0  0  0  0
   -6.0250   23.4820  -31.1160 S   0  0  0  0  0  0  0  0  0  0  0  0
   -7.2040   24.1820  -31.7340 O   0  0  0  0  0  0  0  0  0  0  0  0
   -4.6430   24.5400  -31.1400 N   0  0  0  0  0  0  0  0  0  0  0  0
   -4.1470   24.8090  -29.7880 C   0  0  0  0  0  0  0  0  0  0  0  0
   -2.8890   24.0230  -29.5090 C   0  0  0  0  0  0  0  0  0  0  0  0
   -2.9090   22.6220  -29.6390 C   0  0  0  0  0  0  0  0  0  0  0  0
   -1.7450   21.8760  -29.4320 C   0  0  0  0  0  0  0  0  0  0  0  0
   -0.5570   22.5170  -29.0800 C   0  0  0  0  0  0  0  0  0  0  0  0
   -0.5300   23.9050  -28.9250 C   0  0  0  0  0  0  0  0  0  0  0  0
   -1.6890   24.6610  -29.1310 C   0  0  0  0  0  0  0  0  0  0  0  0
   -1.6350   26.0400  -28.9690 O   0  0  0  0  0  0  0  0  0  0  0  0
   -5.6770   21.9800  -31.9810 C   0  0  0  0  0  0  0  0  0  0  0  0
   -4.4010   21.7620  -32.5220 C   0  0  0  0  0  0  0  0  0  0  0  0
   -4.0940   20.5540  -33.1530 C   0  0  0  0  0  0  0  0  0  0  0  0
   -5.0570   19.5480  -33.2550 C   0  0  0  0  0  0  0  0  0  0  0  0
   -6.3400   19.7510  -32.7320 C   0  0  0  0  0  0  0  0  0  0  0  0
   -7.3200   18.7520  -32.8130 C   0  0  0  0  0  0  0  0  0  0  0  0
   -8.5890   18.9800  -32.2790 C   0  0  0  0  0  0  0  0  0  0  0  0
   -8.8690   20.2040  -31.6700 C   0  0  0  0  0  0  0  0  0  0  0  0
   -7.9100   21.1650  -31.5940 N   0  0  0  0  0  0  0  0  0  0  0  0
   -6.6590   20.9770  -32.1000 C   0  0  0  0  0  0  0  0  0  0  0  0
   -3.9295   25.8829  -29.6913 H   0  0  0  0  0  0  0  0  0  0  0  0
   -4.9181   24.5063  -29.0643 H   0  0  0  0  0  0  0  0  0  0  0  0
   -3.8460   22.1109  -29.9050 H   0  0  0  0  0  0  0  0  0  0  0  0
   -1.7659   20.7822  -29.5468 H   0  0  0  0  0  0  0  0  0  0  0  0
    0.3594   21.9288  -28.9243 H   0  0  0  0  0  0  0  0  0  0  0  0
    0.4069   24.4059  -28.6397 H   0  0  0  0  0  0  0  0  0  0  0  0
   -3.6358   22.5489  -32.4487 H   0  0  0  0  0  0  0  0  0  0  0  0
   -3.0892   20.3946  -33.5713 H   0  0  0  0  0  0  0  0  0  0  0  0
   -4.8077   18.5959  -33.7463 H   0  0  0  0  0  0  0  0  0  0  0  0
   -7.0894   17.7911  -33.2961 H   0  0  0  0  0  0  0  0  0  0  0  0
   -9.3630   18.2005  -32.3377 H   0  0  0  0  0  0  0  0  0  0  0  0
   -9.8683   20.3919  -31.2503 H   0  0  0  0  0  0  0  0  0  0  0  0
  1  2  2  0
  2  3  2  0
  2  4  1  0
  4  5  1  0
  5  6  1  0
  6  7  2  0
  7  8  1  0
  8  9  2  0
  9 10  1  0
 10 11  2  0
 11 12  1  0
  2 13  1  0
 13 14  2  0
 14 15  1  0
 15 16  2  0
 16 17  1  0
 17 18  2  0
 18 19  1  0
 19 20  2  0
 20 21  1  0
 21 22  2  0
 11  6  1  0
 22 13  1  0
 22 17  1  0
  5 23  1  0
  5 24  1  0
  7 25  1  0
  8 26  1  0
  9 27  1  0
 10 28  1  0
 14 29  1  0
 15 30  1  0
 16 31  1  0
 18 32  1  0
 19 33  1  0
 20 34  1  0
M  CHG  2   4  -1  12  -1
M  END
>  <UniqueID>  (18) 
17

>  <SMILES>  (18) 
O=S(=O)([N-]Cc1ccccc1[O-])c1cccc2cccnc12

>  <Energy>  (18) 
36.28920297787984

>  <Genealogy>  (18) 
O=S(=O)([N-]Cc1ccccc1[O-])c1cccc2cccnc12 (protonated)
O=S(=O)([N-]Cc1ccccc1[O-])c1cccc2cccnc12 (3D coordinates assigned)
O=S(=O)([N-]Cc1ccccc1[O-])c1cccc2cccnc12 (optimized conformer: 36.28920297787984 kcal/mol)

>  <smiles>  (18) 
O=S(=O)(NCc1ccccc1O)c1cccc2cccnc12

>  <score_type>  (18) 
oracle

>  <origin>  (18) 
adgpu

>  <m_score__min__energy>  (18) 
-12.67

>  <m_primary>  (18) 
energy

$$$$
18:0
     RDKit          3D

 46 49  0  0  0  0  0  0  0  0999 V2000
   -7.9630   20.9340  -32.2930 C   0  0  0  0  0  0  0  0  0  0  0  0
   -6.8390   20.0070  -32.2560 N   0  0  0  0  0  0  0  0  0  0  0  0
   -6.9300   18.5840  -32.3630 C   0  0  0  0  0  0  0  0  0  0  0  0
   -7.9920   17.9280  -32.1990 O   0  0  0  0  0  0  0  0  0  0  0  0
   -5.6360   18.0230  -32.7170 C   0  0  0  0  0  0  0  0  0  0  0  0
   -5.3520   16.8090  -32.8840 O   0  0  0  0  0  0  0  0  0  0  0  0
   -4.7460   19.1630  -32.8640 C   0  0  0  0  0  0  0  0  0  0  0  0
   -3.4030   19.2170  -33.2290 C   0  0  0  0  0  0  0  0  0  0  0  0
   -2.7920   20.4820  -33.3330 C   0  0  0  0  0  0  0  0  0  0  0  0
   -1.0940   20.6090  -33.7790 S   0  0  0  0  0  0  0  0  0  0  0  0
   -0.8480   21.9300  -34.4520 O   0  0  0  0  0  0  0  0  0  0  0  0
   -0.7490   19.4830  -34.7140 O   0  0  0  0  0  0  0  0  0  0  0  0
   -0.1210   20.5100  -32.3470 N   0  0  0  0  0  0  0  0  0  0  0  0
   -0.5490   20.8770  -31.0290 C   0  0  0  0  0  0  0  0  0  0  0  0
   -0.4960   19.9120  -30.0170 C   0  0  0  0  0  0  0  0  0  0  0  0
   -0.9000   20.2260  -28.7180 C   0  0  0  0  0  0  0  0  0  0  0  0
   -1.3670   21.5070  -28.4190 C   0  0  0  0  0  0  0  0  0  0  0  0
   -1.4430   22.4870  -29.4230 C   0  0  0  0  0  0  0  0  0  0  0  0
   -1.9350   23.8510  -29.1140 C   0  0  0  0  0  0  0  0  0  0  0  0
   -1.1530   24.8310  -29.2370 O   0  0  0  0  0  0  0  0  0  0  0  0
   -3.2620   24.0890  -28.6270 N   0  0  0  0  0  0  0  0  0  0  0  0
   -4.4820   23.8840  -29.3560 C   0  0  0  0  0  0  0  0  0  0  0  0
   -5.3830   22.8600  -29.0070 C   0  0  0  0  0  0  0  0  0  0  0  0
   -6.5550   22.6720  -29.7440 C   0  0  0  0  0  0  0  0  0  0  0  0
   -6.8300   23.4910  -30.8430 C   0  0  0  0  0  0  0  0  0  0  0  0
   -5.9300   24.4940  -31.2090 C   0  0  0  0  0  0  0  0  0  0  0  0
   -4.7550   24.6880  -30.4740 C   0  0  0  0  0  0  0  0  0  0  0  0
   -3.8660   25.6870  -30.8510 O   0  0  0  0  0  0  0  0  0  0  0  0
   -1.0190   22.1680  -30.7260 C   0  0  0  0  0  0  0  0  0  0  0  0
   -3.5390   21.6530  -33.0670 C   0  0  0  0  0  0  0  0  0  0  0  0
   -4.8950   21.5710  -32.7050 C   0  0  0  0  0  0  0  0  0  0  0  0
   -5.4800   20.3070  -32.6050 C   0  0  0  0  0  0  0  0  0  0  0  0
   -8.2661   21.1840  -31.2656 H   0  0  0  0  0  0  0  0  0  0  0  0
   -7.6642   21.8517  -32.8207 H   0  0  0  0  0  0  0  0  0  0  0  0
   -8.8071   20.4660  -32.8207 H   0  0  0  0  0  0  0  0  0  0  0  0
   -2.8349   18.2969  -33.4306 H   0  0  0  0  0  0  0  0  0  0  0  0
   -0.1336   18.8991  -30.2465 H   0  0  0  0  0  0  0  0  0  0  0  0
   -0.8502   19.4620  -27.9282 H   0  0  0  0  0  0  0  0  0  0  0  0
   -1.6771   21.7505  -27.3921 H   0  0  0  0  0  0  0  0  0  0  0  0
   -5.1634   22.2054  -28.1507 H   0  0  0  0  0  0  0  0  0  0  0  0
   -7.2619   21.8788  -29.4592 H   0  0  0  0  0  0  0  0  0  0  0  0
   -7.7554   23.3453  -31.4195 H   0  0  0  0  0  0  0  0  0  0  0  0
   -6.1453   25.1336  -32.0777 H   0  0  0  0  0  0  0  0  0  0  0  0
   -1.0553   22.9343  -31.5144 H   0  0  0  0  0  0  0  0  0  0  0  0
   -3.0544   22.6375  -33.1441 H   0  0  0  0  0  0  0  0  0  0  0  0
   -5.4809   22.4804  -32.5054 H   0  0  0  0  0  0  0  0  0  0  0  0
  1  2  1  0
  2  3  1  0
  3  4  2  0
  3  5  1  0
  5  6  2  0
  5  7  1  0
  7  8  2  0
  8  9  1  0
  9 10  1  0
 10 11  2  0
 10 12  2  0
 10 13  1  0
 13 14  1  0
 14 15  2  0
 15 16  1  0
 16 17  2  0
 17 18  1  0
 18 19  1  0
 19 20  2  0
 19 21  1  0
 21 22  1  0
 22 23  2  0
 23 24  1  0
 24 25  2  0
 25 26  1  0
 26 27  2  0
 27 28  1  0
 18 29  2  0
  9 30  2  0
 30 31  1  0
 31 32  2  0
 32  2  1  0
 32  7  1  0
 29 14  1  0
 27 22  1  0
  1 33  1  0
  1 34  1  0
  1 35  1  0
  8 36  1  0
 15 37  1  0
 16 38  1  0
 17 39  1  0
 23 40  1  0
 24 41  1  0
 25 42  1  0
 26 43  1  0
 29 44  1  0
 30 45  1  0
 31 46  1  0
M  CHG  3  13  -1  21  -1  28  -1
M  END
>  <UniqueID>  (19) 
18

>  <SMILES>  (19) 
CN1C(=O)C(=O)c2cc(S(=O)(=O)[N-]c3cccc(C(=O)[N-]c4ccccc4[O-])c3)ccc21

>  <Energy>  (19) 
93.28968450204398

>  <Genealogy>  (19) 
CN1C(=O)C(=O)c2cc(S(=O)(=O)[N-]c3cccc(C(=O)[N-]c4ccccc4[O-])c3)ccc21 (protonated)
CN1C(=O)C(=O)c2cc(S(=O)(=O)[N-]c3cccc(C(=O)[N-]c4ccccc4[O-])c3)ccc21 (3D coordinates assigned)
CN1C(=O)C(=O)c2cc(S(=O)(=O)[N-]c3cccc(C(=O)[N-]c4ccccc4[O-])c3)ccc21 (nonaromatic ring conformer: 93.28968450204398 kcal/mol)

>  <smiles>  (19) 
CN1C(=O)C(=O)c2cc(S(=O)(=O)Nc3cccc(C(=O)Nc4ccccc4O)c3)ccc21

>  <score_type>  (19) 
oracle

>  <origin>  (19) 
adgpu

>  <m_score__min__energy>  (19) 
-14.76

>  <m_primary>  (19) 
energy

$$$$
19:0
     RDKit          3D

 34 35  0  0  0  0  0  0  0  0999 V2000
   -1.7320   25.2820  -26.8040 C   0  0  0  0  0  0  0  0  0  0  0  0
   -1.3010   25.1550  -28.2330 C   0  0  0  0  0  0  0  0  0  0  0  0
   -0.0890   24.9310  -28.4910 O   0  0  0  0  0  0  0  0  0  0  0  0
   -2.2230   25.2990  -29.3170 N   0  0  0  0  0  0  0  0  0  0  0  0
   -3.3840   24.0970  -29.7830 S   0  0  0  0  0  0  0  0  0  0  0  0
   -4.2610   24.6800  -30.8530 O   0  0  0  0  0  0  0  0  0  0  0  0
   -4.2230   23.7700  -28.5820 O   0  0  0  0  0  0  0  0  0  0  0  0
   -2.5580   22.6620  -30.4280 C   0  0  0  0  0  0  0  0  0  0  0  0
   -1.1890   22.5240  -30.1370 C   0  0  0  0  0  0  0  0  0  0  0  0
   -0.4660   21.4250  -30.5970 C   0  0  0  0  0  0  0  0  0  0  0  0
   -1.0930   20.4490  -31.3630 C   0  0  0  0  0  0  0  0  0  0  0  0
   -2.4450   20.5740  -31.6810 C   0  0  0  0  0  0  0  0  0  0  0  0
   -3.1950   21.6760  -31.2340 C   0  0  0  0  0  0  0  0  0  0  0  0
   -4.8990   21.7670  -31.7250 S   0  0  0  0  0  0  0  0  0  0  0  0
   -5.7660   22.0690  -30.5340 O   0  0  0  0  0  0  0  0  0  0  0  0
   -5.0680   22.8800  -32.7200 O   0  0  0  0  0  0  0  0  0  0  0  0
   -5.4450   20.2310  -32.3920 C   0  0  0  0  0  0  0  0  0  0  0  0
   -6.3760   19.4400  -31.7030 C   0  0  0  0  0  0  0  0  0  0  0  0
   -6.8030   18.2250  -32.2450 C   0  0  0  0  0  0  0  0  0  0  0  0
   -6.2970   17.7900  -33.4750 C   0  0  0  0  0  0  0  0  0  0  0  0
   -6.8360   16.2660  -34.1560 Cl  0  0  0  0  0  0  0  0  0  0  0  0
   -5.3590   18.5700  -34.1590 C   0  0  0  0  0  0  0  0  0  0  0  0
   -4.9310   19.7850  -33.6190 C   0  0  0  0  0  0  0  0  0  0  0  0
   -0.8885   25.0335  -26.1431 H   0  0  0  0  0  0  0  0  0  0  0  0
   -2.0581   26.3144  -26.6098 H   0  0  0  0  0  0  0  0  0  0  0  0
   -2.5659   24.5914  -26.6098 H   0  0  0  0  0  0  0  0  0  0  0  0
   -0.6817   23.2945  -29.5378 H   0  0  0  0  0  0  0  0  0  0  0  0
    0.6025   21.3297  -30.3536 H   0  0  0  0  0  0  0  0  0  0  0  0
   -0.5227   19.5781  -31.7183 H   0  0  0  0  0  0  0  0  0  0  0  0
   -2.9320   19.7987  -32.2907 H   0  0  0  0  0  0  0  0  0  0  0  0
   -6.7711   19.7771  -30.7333 H   0  0  0  0  0  0  0  0  0  0  0  0
   -7.5375   17.6100  -31.7044 H   0  0  0  0  0  0  0  0  0  0  0  0
   -4.9577   18.2261  -35.1237 H   0  0  0  0  0  0  0  0  0  0  0  0
   -4.1892   20.3936  -34.1569 H   0  0  0  0  0  0  0  0  0  0  0  0
  1  2  1  0
  2  3  2  0
  2  4  1  0
  4  5  1  0
  5  6  2  0
  5  7  2  0
  5  8  1  0
  8  9  2  0
  9 10  1  0
 10 11  2  0
 11 12  1  0
 12 13  2  0
 13 14  1  0
 14 15  2  0
 14 16  2  0
 14 17  1  0
 17 18  2  0
 18 19  1  0
 19 20  2  0
 20 21  1  0
 20 22  1  0
 22 23  2  0
 13  8  1  0
 23 17  1  0
  1 24  1  0
  1 25  1  0
  1 26  1  0
  9 27  1  0
 10 28  1  0
 11 29  1  0
 12 30  1  0
 18 31  1  0
 19 32  1  0
 22 33  1  0
 23 34  1  0
M  CHG  1   4  -1
M  END
>  <UniqueID>  (20) 
19

>  <SMILES>  (20) 
CC(=O)[N-]S(=O)(=O)c1ccccc1S(=O)(=O)c1ccc(Cl)cc1

>  <Energy>  (20) 
40.87261935175557

>  <Genealogy>  (20) 
CC(=O)[N-]S(=O)(=O)c1ccccc1S(=O)(=O)c1ccc(Cl)cc1 (protonated)
CC(=O)[N-]S(=O)(=O)c1ccccc1S(=O)(=O)c1ccc(Cl)cc1 (3D coordinates assigned)
CC(=O)[N-]S(=O)(=O)c1ccccc1S(=O)(=O)c1ccc(Cl)cc1 (optimized conformer: 40.87261935175557 kcal/mol)

>  <smiles>  (20) 
CC(=O)NS(=O)(=O)c1ccccc1S(=O)(=O)c1ccc(Cl)cc1

>  <score_type>  (20) 
oracle

>  <origin>  (20) 
adgpu

>  <m_score__min__energy>  (20) 
-9.9900000000000002

>  <m_primary>  (20) 
energy

$$$$
20:0
     RDKit          3D

 46 49  0  0  0  0  0  0  0  0999 V2000
   -1.2120   19.6790  -28.6580 C   0  0  0  0  0  0  0  0  0  0  0  0
   -2.1150   20.8260  -28.9620 C   0  0  0  0  0  0  0  0  0  0  0  0
   -2.8220   21.4190  -27.9650 N   0  0  0  0  0  0  0  0  0  0  0  0
   -3.6810   22.4380  -28.2270 C   0  0  0  0  0  0  0  0  0  0  0  0
   -3.8540   22.8880  -29.5400 C   0  0  0  0  0  0  0  0  0  0  0  0
   -5.0460   24.1350  -29.9140 S   0  0  0  0  0  0  0  0  0  0  0  0
   -5.3920   24.9000  -28.6680 O   0  0  0  0  0  0  0  0  0  0  0  0
   -4.4530   25.0840  -30.9170 O   0  0  0  0  0  0  0  0  0  0  0  0
   -6.5160   23.4150  -30.5720 C   0  0  0  0  0  0  0  0  0  0  0  0
   -7.2430   22.4640  -29.8380 C   0  0  0  0  0  0  0  0  0  0  0  0
   -8.4210   21.9230  -30.3620 C   0  0  0  0  0  0  0  0  0  0  0  0
   -8.8830   22.3340  -31.6160 C   0  0  0  0  0  0  0  0  0  0  0  0
   -8.1610   23.2780  -32.3510 C   0  0  0  0  0  0  0  0  0  0  0  0
   -6.9800   23.8170  -31.8320 C   0  0  0  0  0  0  0  0  0  0  0  0
   -3.1290   22.2560  -30.5580 C   0  0  0  0  0  0  0  0  0  0  0  0
   -3.2830   22.6700  -31.8860 O   0  0  0  0  0  0  0  0  0  0  0  0
   -4.3480   22.2270  -32.7230 C   0  0  0  0  0  0  0  0  0  0  0  0
   -4.1800   20.7570  -33.0250 C   0  0  0  0  0  0  0  0  0  0  0  0
   -2.9030   20.2860  -33.3730 C   0  0  0  0  0  0  0  0  0  0  0  0
   -2.6860   18.9340  -33.6340 C   0  0  0  0  0  0  0  0  0  0  0  0
   -3.7390   18.0240  -33.5540 C   0  0  0  0  0  0  0  0  0  0  0  0
   -5.0230   18.4600  -33.1990 C   0  0  0  0  0  0  0  0  0  0  0  0
   -6.0780   17.5370  -33.1210 C   0  0  0  0  0  0  0  0  0  0  0  0
   -7.3580   17.9610  -32.7670 C   0  0  0  0  0  0  0  0  0  0  0  0
   -7.5960   19.3030  -32.4730 C   0  0  0  0  0  0  0  0  0  0  0  0
   -6.5560   20.2340  -32.5400 C   0  0  0  0  0  0  0  0  0  0  0  0
   -5.2560   19.8340  -32.9180 C   0  0  0  0  0  0  0  0  0  0  0  0
   -2.2820   21.2380  -30.2450 N   0  0  0  0  0  0  0  0  0  0  0  0
   -1.1207   19.5631  -27.5679 H   0  0  0  0  0  0  0  0  0  0  0  0
   -1.6302   18.7583  -29.0909 H   0  0  0  0  0  0  0  0  0  0  0  0
   -0.2189   19.8695  -29.0909 H   0  0  0  0  0  0  0  0  0  0  0  0
   -4.2410   22.9097  -27.4060 H   0  0  0  0  0  0  0  0  0  0  0  0
   -6.8849   22.1439  -28.8484 H   0  0  0  0  0  0  0  0  0  0  0  0
   -8.9847   21.1734  -29.7872 H   0  0  0  0  0  0  0  0  0  0  0  0
   -9.8145   21.9144  -32.0238 H   0  0  0  0  0  0  0  0  0  0  0  0
   -8.5224   23.5976  -33.3396 H   0  0  0  0  0  0  0  0  0  0  0  0
   -6.4134   24.5586  -32.4141 H   0  0  0  0  0  0  0  0  0  0  0  0
   -5.3075   22.3875  -32.2097 H   0  0  0  0  0  0  0  0  0  0  0  0
   -4.3328   22.7964  -33.6641 H   0  0  0  0  0  0  0  0  0  0  0  0
   -2.0633   20.9934  -33.4404 H   0  0  0  0  0  0  0  0  0  0  0  0
   -1.6790   18.5835  -33.9044 H   0  0  0  0  0  0  0  0  0  0  0  0
   -3.5617   16.9601  -33.7702 H   0  0  0  0  0  0  0  0  0  0  0  0
   -5.8939   16.4749  -33.3401 H   0  0  0  0  0  0  0  0  0  0  0  0
   -8.1827   17.2346  -32.7195 H   0  0  0  0  0  0  0  0  0  0  0  0
   -8.6065   19.6302  -32.1871 H   0  0  0  0  0  0  0  0  0  0  0  0
   -6.7522   21.2885  -32.2959 H   0  0  0  0  0  0  0  0  0  0  0  0
  1  2  1  0
  2  3  2  0
  3  4  1  0
  4  5  2  0
  5  6  1  0
  6  7  2  0
  6  8  2  0
  6  9  1  0
  9 10  2  0
 10 11  1  0
 11 12  2  0
 12 13  1  0
 13 14  2  0
  5 15  1  0
 15 16  1  0
 16 17  1  0
 17 18  1  0
 18 19  2  0
 19 20  1  0
 20 21  2  0
 21 22  1  0
 22 23  2  0
 23 24  1  0
 24 25  2  0
 25 26  1  0
 26 27  2  0
 15 28  2  0
 28  2  1  0
 14  9  1  0
 27 18  1  0
 27 22  1  0
  1 29  1  0
  1 30  1  0
  1 31  1  0
  4 32  1  0
 10 33  1  0
 11 34  1  0
 12 35  1  0
 13 36  1  0
 14 37  1  0
 17 38  1  0
 17 39  1  0
 19 40  1  0
 20 41  1  0
 21 42  1  0
 23 43  1  0
 24 44  1  0
 25 45  1  0
 26 46  1  0
M  END
>  <UniqueID>  (21) 
20

>  <SMILES>  (21) 
Cc1ncc(S(=O)(=O)c2ccccc2)c(OCc2cccc3ccccc23)n1

>  <Energy>  (21) 
51.02778069849188

>  <Genealogy>  (21) 
Cc1ncc(S(=O)(=O)c2ccccc2)c(OCc2cccc3ccccc23)n1 (3D coordinates assigned)
Cc1ncc(S(=O)(=O)c2ccccc2)c(OCc2cccc3ccccc23)n1 (optimized conformer: 51.02778069849188 kcal/mol)

>  <smiles>  (21) 
Cc1ncc(S(=O)(=O)c2ccccc2)c(OCc2cccc3ccccc23)n1

>  <score_type>  (21) 
oracle

>  <origin>  (21) 
adgpu

>  <m_score__min__energy>  (21) 
-9.8599999999999994

>  <m_primary>  (21) 
energy

$$$$
21:0
     RDKit          3D

 53 56  0  0  0  0  0  0  0  0999 V2000
   -2.7470   22.5540  -29.7970 C   0  0  0  0  0  0  0  0  0  0  0  0
   -3.3470   23.9230  -29.8620 C   0  0  0  0  0  0  0  0  0  0  0  0
   -2.5950   24.9230  -29.7150 O   0  0  0  0  0  0  0  0  0  0  0  0
   -4.7670   24.0930  -30.0400 N   0  0  0  0  0  0  0  0  0  0  0  0
   -5.5340   25.1980  -29.4570 C   0  0  0  0  0  0  0  0  0  0  0  0
   -6.9680   25.0780  -30.0230 C   0  0  0  0  0  0  0  0  0  0  0  0
   -6.9010   23.8600  -30.8730 C   0  0  0  0  0  0  0  0  0  0  0  0
   -7.9320   23.2800  -31.6090 C   0  0  0  0  0  0  0  0  0  0  0  0
   -7.6650   22.1120  -32.3370 C   0  0  0  0  0  0  0  0  0  0  0  0
   -6.3830   21.5230  -32.3030 C   0  0  0  0  0  0  0  0  0  0  0  0
   -6.1370   20.3290  -33.0670 N   0  0  0  0  0  0  0  0  0  0  0  0
   -6.6890   19.0450  -32.7380 C   0  0  0  0  0  0  0  0  0  0  0  0
   -7.7390   18.9760  -32.0420 O   0  0  0  0  0  0  0  0  0  0  0  0
   -6.0690   17.7970  -33.2480 C   0  0  0  0  0  0  0  0  0  0  0  0
   -4.6820   17.7370  -33.4730 C   0  0  0  0  0  0  0  0  0  0  0  0
   -4.0920   16.5660  -33.9590 C   0  0  0  0  0  0  0  0  0  0  0  0
   -4.8790   15.4430  -34.2380 C   0  0  0  0  0  0  0  0  0  0  0  0
   -4.1220   13.9650  -34.8270 S   0  0  0  0  0  0  0  0  0  0  0  0
   -5.0700   13.2300  -35.7350 O   0  0  0  0  0  0  0  0  0  0  0  0
   -2.8930   14.3310  -35.6140 O   0  0  0  0  0  0  0  0  0  0  0  0
   -3.6730   12.9470  -33.4810 N   0  0  0  0  0  0  0  0  0  0  0  0
   -2.4730   13.4920  -32.8150 C   0  0  0  0  0  0  0  0  0  0  0  0
   -2.3630   12.9620  -31.3770 C   0  0  0  0  0  0  0  0  0  0  0  0
   -3.4690   13.2950  -30.5460 O   0  0  0  0  0  0  0  0  0  0  0  0
   -4.6580   13.5900  -31.2670 C   0  0  0  0  0  0  0  0  0  0  0  0
   -4.8110   12.7570  -32.5520 C   0  0  0  0  0  0  0  0  0  0  0  0
   -6.2610   15.4960  -34.0190 C   0  0  0  0  0  0  0  0  0  0  0  0
   -6.8530   16.6650  -33.5310 C   0  0  0  0  0  0  0  0  0  0  0  0
   -5.3520   22.1440  -31.5620 C   0  0  0  0  0  0  0  0  0  0  0  0
   -5.6410   23.3230  -30.8590 C   0  0  0  0  0  0  0  0  0  0  0  0
   -2.6180   22.2598  -28.7450 H   0  0  0  0  0  0  0  0  0  0  0  0
   -3.4135   21.8373  -30.2991 H   0  0  0  0  0  0  0  0  0  0  0  0
   -1.7683   22.5584  -30.2991 H   0  0  0  0  0  0  0  0  0  0  0  0
   -5.5492   25.1140  -28.3603 H   0  0  0  0  0  0  0  0  0  0  0  0
   -5.0859   26.1710  -29.7070 H   0  0  0  0  0  0  0  0  0  0  0  0
   -7.7018   24.9531  -29.2131 H   0  0  0  0  0  0  0  0  0  0  0  0
   -7.2873   25.9724  -30.5780 H   0  0  0  0  0  0  0  0  0  0  0  0
   -8.9358   23.7297  -31.6187 H   0  0  0  0  0  0  0  0  0  0  0  0
   -8.4613   21.6509  -32.9397 H   0  0  0  0  0  0  0  0  0  0  0  0
   -5.6190   20.4250  -33.9700 H   0  0  0  0  0  0  0  0  0  0  0  0
   -4.0566   18.6177  -33.2651 H   0  0  0  0  0  0  0  0  0  0  0  0
   -3.0049   16.5275  -34.1226 H   0  0  0  0  0  0  0  0  0  0  0  0
   -1.5784   13.1916  -33.3801 H   0  0  0  0  0  0  0  0  0  0  0  0
   -2.5533   14.5886  -32.7829 H   0  0  0  0  0  0  0  0  0  0  0  0
   -2.2807   11.8659  -31.4188 H   0  0  0  0  0  0  0  0  0  0  0  0
   -1.4779   13.4394  -30.9312 H   0  0  0  0  0  0  0  0  0  0  0  0
   -5.5210   13.3888  -30.6152 H   0  0  0  0  0  0  0  0  0  0  0  0
   -4.6041   14.6468  -31.5673 H   0  0  0  0  0  0  0  0  0  0  0  0
   -4.8718   11.6931  -32.2793 H   0  0  0  0  0  0  0  0  0  0  0  0
   -5.7248   13.0919  -33.0646 H   0  0  0  0  0  0  0  0  0  0  0  0
   -6.8835   14.6144  -34.2317 H   0  0  0  0  0  0  0  0  0  0  0  0
   -7.9402   16.6991  -33.3673 H   0  0  0  0  0  0  0  0  0  0  0  0
   -4.3413   21.7106  -31.5370 H   0  0  0  0  0  0  0  0  0  0  0  0
  1  2  1  0
  2  3  2  0
  2  4  1  0
  4  5  1  0
  5  6  1  0
  6  7  1  0
  7  8  2  0
  8  9  1  0
  9 10  2  0
 10 11  1  0
 11 12  1  0
 12 13  2  0
 12 14  1  0
 14 15  2  0
 15 16  1  0
 16 17  2  0
 17 18  1  0
 18 19  2  0
 18 20  2  0
 18 21  1  0
 21 22  1  0
 22 23  1  0
 23 24  1  0
 24 25  1  0
 25 26  1  0
 17 27  1  0
 27 28  2  0
 10 29  1  0
 29 30  2  0
 30  4  1  0
 30  7  1  0
 28 14  1  0
 26 21  1  0
  1 31  1  0
  1 32  1  0
  1 33  1  0
  5 34  1  0
  5 35  1  0
  6 36  1  0
  6 37  1  0
  8 38  1  0
  9 39  1  0
 11 40  1  0
 15 41  1  0
 16 42  1  0
 22 43  1  0
 22 44  1  0
 23 45  1  0
 23 46  1  0
 25 47  1  0
 25 48  1  0
 26 49  1  0
 26 50  1  0
 27 51  1  0
 28 52  1  0
 29 53  1  0
M  END
>  <UniqueID>  (22) 
21

>  <SMILES>  (22) 
CC(=O)N1CCc2ccc(NC(=O)c3ccc(S(=O)(=O)N4CCOCC4)cc3)cc21

>  <Energy>  (22) 
88.21551985663696

>  <Genealogy>  (22) 
CC(=O)N1CCc2ccc(NC(=O)c3ccc(S(=O)(=O)N4CCOCC4)cc3)cc21 (3D coordinates assigned)
CC(=O)N1CCc2ccc(NC(=O)c3ccc(S(=O)(=O)N4CCOCC4)cc3)cc21 (nonaromatic ring conformer: 88.21551985663696 kcal/mol)

>  <smiles>  (22) 
CC(=O)N1CCc2ccc(NC(=O)c3ccc(S(=O)(=O)N4CCOCC4)cc3)cc21

>  <score_type>  (22) 
oracle

>  <origin>  (22) 
adgpu

>  <m_score__min__energy>  (22) 
-9.4399999999999995

>  <m_primary>  (22) 
energy

$$$$
22:0
     RDKit          3D

 50 52  0  0  1  0  0  0  0  0999 V2000
   -0.8280   20.0160  -33.3020 C   0  0  0  0  0  0  0  0  0  0  0  0
   -1.8890   20.8670  -32.7380 C   0  0  0  0  0  0  0  0  0  0  0  0
   -3.0250   21.1200  -33.4760 C   0  0  0  0  0  0  0  0  0  0  0  0
   -3.9890   21.9040  -32.9420 N   0  0  0  0  0  0  0  0  0  0  0  0
   -3.9000   22.4540  -31.7210 C   0  0  0  0  0  0  0  0  0  0  0  0
   -4.9400   23.2960  -31.1530 C   0  0  0  0  0  0  0  0  0  0  0  0
   -6.2860   23.0140  -31.2520 C   0  0  0  0  0  0  0  0  0  0  0  0
   -7.2650   23.8240  -30.7070 C   0  0  0  0  0  0  0  0  0  0  0  0
   -6.9180   24.9660  -30.0300 C   0  0  0  0  0  0  0  0  0  0  0  0
   -5.5810   25.2730  -29.9140 C   0  0  0  0  0  0  0  0  0  0  0  0
   -4.6030   24.4500  -30.4680 C   0  0  0  0  0  0  0  0  0  0  0  0
   -3.2880   24.8570  -30.2910 O   0  0  0  0  0  0  0  0  0  0  0  0
   -2.7910   22.2060  -31.0010 N   0  0  0  0  0  0  0  0  0  0  0  0
   -1.8220   21.4430  -31.4850 C   0  0  0  0  0  0  0  0  0  0  0  0
   -0.7490   21.1980  -30.8010 N   0  0  0  0  0  0  0  0  0  0  0  0
   -0.5650   21.7360  -29.4990 C   0  0  0  0  0  0  0  0  0  0  0  0
   -0.7110   23.0860  -29.2570 C   0  0  0  0  0  0  0  0  0  0  0  0
   -0.5340   23.6090  -27.9920 C   0  0  0  0  0  0  0  0  0  0  0  0
   -0.7110   25.3180  -27.6510 S   0  0  0  0  0  0  0  0  0  0  0  0
   -1.5600   25.4450  -26.0830 C   0  0  0  0  0  0  0  0  0  0  0  0
    0.6340   25.9430  -27.4960 O   0  0  0  0  0  0  0  0  0  0  0  0
   -1.4530   26.0460  -28.7270 O   0  0  0  0  0  0  0  0  0  0  0  0
   -0.2030   22.7630  -26.9500 C   0  0  0  0  0  0  0  0  0  0  0  0
   -0.0500   21.3970  -27.1630 C   0  0  0  0  0  0  0  0  0  0  0  0
   -0.2370   20.8980  -28.4560 C   0  0  0  0  0  0  0  0  0  0  0  0
   -0.0650   19.4940  -28.6060 N   0  0  0  0  0  0  0  0  0  0  0  0
   -0.8300   18.5440  -27.8000 C   0  0  0  0  0  0  0  0  0  0  0  0
    0.8850   19.0250  -29.5790 C   0  0  0  0  0  0  0  0  0  0  0  0
   -0.2539   19.5555  -32.4845 H   0  0  0  0  0  0  0  0  0  0  0  0
   -1.2807   19.2277  -33.9214 H   0  0  0  0  0  0  0  0  0  0  0  0
   -0.1568   20.6290  -33.9214 H   0  0  0  0  0  0  0  0  0  0  0  0
   -3.1456   20.6917  -34.4820 H   0  0  0  0  0  0  0  0  0  0  0  0
   -4.8260   22.0620  -33.5440 H   0  0  0  0  0  0  0  0  0  0  0  0
   -6.5946   22.1045  -31.7882 H   0  0  0  0  0  0  0  0  0  0  0  0
   -8.3252   23.5522  -30.8164 H   0  0  0  0  0  0  0  0  0  0  0  0
   -7.6874   25.6186  -29.5918 H   0  0  0  0  0  0  0  0  0  0  0  0
   -5.2799   26.1833  -29.3749 H   0  0  0  0  0  0  0  0  0  0  0  0
   -2.9800   25.6710  -30.8250 H   0  0  0  0  0  0  0  0  0  0  0  0
   -0.9733   23.7581  -30.0873 H   0  0  0  0  0  0  0  0  0  0  0  0
   -0.8345   25.3365  -25.2634 H   0  0  0  0  0  0  0  0  0  0  0  0
   -2.0511   26.4266  -26.0104 H   0  0  0  0  0  0  0  0  0  0  0  0
   -2.3169   24.6501  -26.0104 H   0  0  0  0  0  0  0  0  0  0  0  0
   -0.0589   23.1750  -25.9403 H   0  0  0  0  0  0  0  0  0  0  0  0
    0.2122   20.7243  -26.3331 H   0  0  0  0  0  0  0  0  0  0  0  0
   -0.6633   18.7511  -26.7326 H   0  0  0  0  0  0  0  0  0  0  0  0
   -1.9007   18.6464  -28.0305 H   0  0  0  0  0  0  0  0  0  0  0  0
   -0.5016   17.5198  -28.0305 H   0  0  0  0  0  0  0  0  0  0  0  0
    1.7562   18.5949  -29.0632 H   0  0  0  0  0  0  0  0  0  0  0  0
    0.4151   18.2554  -30.2089 H   0  0  0  0  0  0  0  0  0  0  0  0
    1.2102   19.8661  -30.2089 H   0  0  0  0  0  0  0  0  0  0  0  0
  1  2  1  0
  2  3  2  0
  3  4  1  0
  4  5  1  0
  5  6  1  0
  6  7  2  0
  7  8  1  0
  8  9  2  0
  9 10  1  0
 10 11  2  0
 11 12  1  0
  5 13  2  0
 13 14  1  0
 14 15  2  0
 15 16  1  0
 16 17  2  0
 17 18  1  0
 18 19  1  0
 19 20  1  0
 19 21  2  0
 19 22  2  0
 18 23  2  0
 23 24  1  0
 24 25  2  0
 25 26  1  0
 26 27  1  0
 26 28  1  0
 14  2  1  0
 25 16  1  0
 11  6  1  0
  1 29  1  0
  1 30  1  0
  1 31  1  0
  3 32  1  0
  4 33  1  0
  7 34  1  0
  8 35  1  0
  9 36  1  0
 10 37  1  0
 12 38  1  0
 17 39  1  0
 20 40  1  0
 20 41  1  0
 20 42  1  0
 23 43  1  0
 24 44  1  0
 27 45  1  0
 27 46  1  0
 27 47  1  0
 28 48  1  0
 28 49  1  0
 28 50  1  0
M  END
>  <smiles>  (23) 
Cc1c[nH]c(-c2ccccc2O)nc1=Nc1cc(S(C)(=O)=O)ccc1N(C)C

>  <score_type>  (23) 
oracle

>  <origin>  (23) 
adgpu

>  <m_score__min__energy>  (23) 
-10.44

>  <m_primary>  (23) 
energy

$$$$
23:0
     RDKit          3D

 62 64  0  0  0  0  0  0  0  0999 V2000
   -0.1470   19.4820  -27.9770 C   0  0  0  0  0  0  0  0  0  0  0  0
   -0.1630   21.0120  -27.9000 C   0  0  0  0  0  0  0  0  0  0  0  0
   -0.4970   21.6120  -29.2700 C   0  0  0  0  0  0  0  0  0  0  0  0
   -1.3510   21.5590  -26.6630 S   0  0  0  0  0  0  0  0  0  0  0  0
   -1.2410   20.6770  -25.4490 O   0  0  0  0  0  0  0  0  0  0  0  0
   -2.7290   21.4150  -27.2520 O   0  0  0  0  0  0  0  0  0  0  0  0
   -1.1070   23.2410  -26.1550 C   0  0  0  0  0  0  0  0  0  0  0  0
   -0.1140   23.5500  -25.2120 C   0  0  0  0  0  0  0  0  0  0  0  0
    0.1010   24.8700  -24.8130 C   0  0  0  0  0  0  0  0  0  0  0  0
   -0.6760   25.8970  -25.3490 C   0  0  0  0  0  0  0  0  0  0  0  0
   -1.6790   25.6050  -26.2730 C   0  0  0  0  0  0  0  0  0  0  0  0
   -1.9090   24.2810  -26.6820 C   0  0  0  0  0  0  0  0  0  0  0  0
   -3.0140   23.9830  -27.5530 N   0  0  0  0  0  0  0  0  0  0  0  0
   -3.1390   24.5190  -28.8820 C   0  0  0  0  0  0  0  0  0  0  0  0
   -2.2460   25.2860  -29.3390 O   0  0  0  0  0  0  0  0  0  0  0  0
   -4.3050   24.1830  -29.7330 C   0  0  0  0  0  0  0  0  0  0  0  0
   -4.2290   23.1040  -30.6320 C   0  0  0  0  0  0  0  0  0  0  0  0
   -5.3170   22.7850  -31.4510 C   0  0  0  0  0  0  0  0  0  0  0  0
   -6.5050   23.5170  -31.3690 C   0  0  0  0  0  0  0  0  0  0  0  0
   -7.5960   23.1740  -32.2380 N   0  0  0  0  0  0  0  0  0  0  0  0
   -8.5330   22.1110  -32.0190 C   0  0  0  0  0  0  0  0  0  0  0  0
   -9.7060   22.4030  -31.6620 O   0  0  0  0  0  0  0  0  0  0  0  0
   -8.1680   20.6920  -32.2390 C   0  0  0  0  0  0  0  0  0  0  0  0
   -8.8920   19.6620  -31.6130 C   0  0  0  0  0  0  0  0  0  0  0  0
   -8.5520   18.3250  -31.8350 C   0  0  0  0  0  0  0  0  0  0  0  0
   -7.4910   18.0020  -32.6800 C   0  0  0  0  0  0  0  0  0  0  0  0
   -6.7530   19.0190  -33.3090 C   0  0  0  0  0  0  0  0  0  0  0  0
   -5.6160   18.6670  -34.2470 C   0  0  0  0  0  0  0  0  0  0  0  0
   -4.2840   18.6670  -33.6000 N   0  0  0  0  0  0  0  0  0  0  0  0
   -3.7610   20.0230  -33.3790 C   0  0  0  0  0  0  0  0  0  0  0  0
   -3.3040   17.8370  -34.3170 C   0  0  0  0  0  0  0  0  0  0  0  0
   -7.0870   20.3620  -33.0720 C   0  0  0  0  0  0  0  0  0  0  0  0
   -6.5860   24.5980  -30.4740 C   0  0  0  0  0  0  0  0  0  0  0  0
   -5.5000   24.9210  -29.6570 C   0  0  0  0  0  0  0  0  0  0  0  0
   -0.1426   19.0637  -26.9596 H   0  0  0  0  0  0  0  0  0  0  0  0
   -1.0415   19.1325  -28.5133 H   0  0  0  0  0  0  0  0  0  0  0  0
    0.7547   19.1513  -28.5133 H   0  0  0  0  0  0  0  0  0  0  0  0
    0.8370   21.3616  -27.6036 H   0  0  0  0  0  0  0  0  0  0  0  0
   -1.0279   22.5656  -29.1331 H   0  0  0  0  0  0  0  0  0  0  0  0
    0.4333   21.7874  -29.8302 H   0  0  0  0  0  0  0  0  0  0  0  0
   -1.1362   20.9137  -29.8302 H   0  0  0  0  0  0  0  0  0  0  0  0
    0.5003   22.7443  -24.7836 H   0  0  0  0  0  0  0  0  0  0  0  0
    0.8837   25.1007  -24.0753 H   0  0  0  0  0  0  0  0  0  0  0  0
   -0.4975   26.9383  -25.0426 H   0  0  0  0  0  0  0  0  0  0  0  0
   -2.2949   26.4180  -26.6848 H   0  0  0  0  0  0  0  0  0  0  0  0
   -3.7580   23.3520  -27.1830 H   0  0  0  0  0  0  0  0  0  0  0  0
   -3.3072   22.5067  -30.6914 H   0  0  0  0  0  0  0  0  0  0  0  0
   -5.2372   21.9519  -32.1649 H   0  0  0  0  0  0  0  0  0  0  0  0
   -9.7302   19.9099  -30.9452 H   0  0  0  0  0  0  0  0  0  0  0  0
   -9.1232   17.5248  -31.3416 H   0  0  0  0  0  0  0  0  0  0  0  0
   -7.2308   16.9476  -32.8548 H   0  0  0  0  0  0  0  0  0  0  0  0
   -5.8025   17.6631  -34.6563 H   0  0  0  0  0  0  0  0  0  0  0  0
   -5.5928   19.4426  -35.0267 H   0  0  0  0  0  0  0  0  0  0  0  0
   -3.6867   20.2158  -32.2986 H   0  0  0  0  0  0  0  0  0  0  0  0
   -2.7645   20.1107  -33.8365 H   0  0  0  0  0  0  0  0  0  0  0  0
   -4.4405   20.7572  -33.8365 H   0  0  0  0  0  0  0  0  0  0  0  0
   -2.6739   17.3034  -33.5902 H   0  0  0  0  0  0  0  0  0  0  0  0
   -3.8331   17.1081  -34.9485 H   0  0  0  0  0  0  0  0  0  0  0  0
   -2.6721   18.4788  -34.9485 H   0  0  0  0  0  0  0  0  0  0  0  0
   -6.4970   21.1621  -33.5428 H   0  0  0  0  0  0  0  0  0  0  0  0
   -7.5096   25.1927  -30.4167 H   0  0  0  0  0  0  0  0  0  0  0  0
   -5.5799   25.7589  -28.9488 H   0  0  0  0  0  0  0  0  0  0  0  0
  1  2  1  0
  2  3  1  0
  2  4  1  0
  4  5  2  0
  4  6  2  0
  4  7  1  0
  7  8  2  0
  8  9  1  0
  9 10  2  0
 10 11  1  0
 11 12  2  0
 12 13  1  0
 13 14  1  0
 14 15  2  0
 14 16  1  0
 16 17  2  0
 17 18  1  0
 18 19  2  0
 19 20  1  0
 20 21  1  0
 21 22  2  0
 21 23  1  0
 23 24  2  0
 24 25  1  0
 25 26  2  0
 26 27  1  0
 27 28  1  0
 28 29  1  0
 29 30  1  0
 29 31  1  0
 27 32  2  0
 19 33  1  0
 33 34  2  0
 12  7  1  0
 34 16  1  0
 32 23  1  0
  1 35  1  0
  1 36  1  0
  1 37  1  0
  2 38  1  0
  3 39  1  0
  3 40  1  0
  3 41  1  0
  8 42  1  0
  9 43  1  0
 10 44  1  0
 11 45  1  0
 13 46  1  0
 17 47  1  0
 18 48  1  0
 24 49  1  0
 25 50  1  0
 26 51  1  0
 28 52  1  0
 28 53  1  0
 30 54  1  0
 30 55  1  0
 30 56  1  0
 31 57  1  0
 31 58  1  0
 31 59  1  0
 32 60  1  0
 33 61  1  0
 34 62  1  0
M  CHG  1  20  -1
M  END
>  <UniqueID>  (24) 
22

>  <SMILES>  (24) 
CC(C)S(=O)(=O)c1ccccc1NC(=O)c1ccc([N-]C(=O)c2cccc(CN(C)C)c2)cc1

>  <Energy>  (24) 
74.49008447950159

>  <Genealogy>  (24) 
CC(C)S(=O)(=O)c1ccccc1NC(=O)c1ccc([N-]C(=O)c2cccc(CN(C)C)c2)cc1 (protonated)
CC(C)S(=O)(=O)c1ccccc1NC(=O)c1ccc([N-]C(=O)c2cccc(CN(C)C)c2)cc1 (3D coordinates assigned)
CC(C)S(=O)(=O)c1ccccc1NC(=O)c1ccc([N-]C(=O)c2cccc(CN(C)C)c2)cc1 (optimized conformer: 74.49008447950159 kcal/mol)

>  <smiles>  (24) 
CC(C)S(=O)(=O)c1ccccc1NC(=O)c1ccc(NC(=O)c2cccc(CN(C)C)c2)cc1

>  <score_type>  (24) 
oracle

>  <origin>  (24) 
adgpu

>  <m_score__min__energy>  (24) 
-11.23

>  <m_primary>  (24) 
energy

$$$$
24:0
     RDKit          3D

 55 58  0  0  0  0  0  0  0  0999 V2000
   -1.9130   20.1240  -25.8760 C   0  0  0  0  0  0  0  0  0  0  0  0
   -2.0330   21.2340  -26.7600 O   0  0  0  0  0  0  0  0  0  0  0  0
   -1.8590   21.1670  -28.1520 C   0  0  0  0  0  0  0  0  0  0  0  0
   -1.4010   19.9980  -28.7860 C   0  0  0  0  0  0  0  0  0  0  0  0
   -1.2380   19.9580  -30.1720 C   0  0  0  0  0  0  0  0  0  0  0  0
   -1.5380   21.0830  -30.9560 C   0  0  0  0  0  0  0  0  0  0  0  0
   -1.3250   21.0850  -32.4210 C   0  0  0  0  0  0  0  0  0  0  0  0
   -2.1670   20.5970  -33.4030 C   0  0  0  0  0  0  0  0  0  0  0  0
   -1.5830   20.7740  -34.6040 N   0  0  0  0  0  0  0  0  0  0  0  0
   -0.4110   21.3670  -34.2990 C   0  0  0  0  0  0  0  0  0  0  0  0
    0.6090   21.7420  -35.3190 C   0  0  0  0  0  0  0  0  0  0  0  0
   -0.2510   21.5500  -33.0090 O   0  0  0  0  0  0  0  0  0  0  0  0
   -2.0160   22.2430  -30.3270 C   0  0  0  0  0  0  0  0  0  0  0  0
   -2.1560   22.3000  -28.9330 C   0  0  0  0  0  0  0  0  0  0  0  0
   -2.6980   23.8000  -28.1700 S   0  0  0  0  0  0  0  0  0  0  0  0
   -2.3010   23.7700  -26.7210 O   0  0  0  0  0  0  0  0  0  0  0  0
   -2.0570   24.9890  -28.8310 O   0  0  0  0  0  0  0  0  0  0  0  0
   -4.4230   23.9690  -28.2780 N   0  0  0  0  0  0  0  0  0  0  0  0
   -5.1740   23.8520  -29.5040 C   0  0  0  0  0  0  0  0  0  0  0  0
   -6.2080   22.9050  -29.6450 C   0  0  0  0  0  0  0  0  0  0  0  0
   -6.9590   22.8370  -30.8240 C   0  0  0  0  0  0  0  0  0  0  0  0
   -8.2730   21.6710  -30.9520 S   0  0  0  0  0  0  0  0  0  0  0  0
   -9.2650   21.8870  -29.8430 O   0  0  0  0  0  0  0  0  0  0  0  0
   -8.9620   21.8740  -32.2720 O   0  0  0  0  0  0  0  0  0  0  0  0
   -7.6260   20.0440  -30.8670 N   0  0  0  0  0  0  0  0  0  0  0  0
   -8.6480   19.0630  -31.2490 C   0  0  0  0  0  0  0  0  0  0  0  0
   -8.5220   18.8060  -32.7420 C   0  0  0  0  0  0  0  0  0  0  0  0
   -7.1410   19.3040  -33.1210 C   0  0  0  0  0  0  0  0  0  0  0  0
   -6.5420   19.8730  -31.8410 C   0  0  0  0  0  0  0  0  0  0  0  0
   -6.6660   23.7020  -31.8850 C   0  0  0  0  0  0  0  0  0  0  0  0
   -5.6330   24.6330  -31.7630 C   0  0  0  0  0  0  0  0  0  0  0  0
   -4.8920   24.7130  -30.5810 C   0  0  0  0  0  0  0  0  0  0  0  0
   -3.8760   25.6600  -30.4830 O   0  0  0  0  0  0  0  0  0  0  0  0
   -1.9513   20.4783  -24.8353 H   0  0  0  0  0  0  0  0  0  0  0  0
   -2.7404   19.4216  -26.0549 H   0  0  0  0  0  0  0  0  0  0  0  0
   -0.9546   19.6147  -26.0549 H   0  0  0  0  0  0  0  0  0  0  0  0
   -1.1691   19.1069  -28.1842 H   0  0  0  0  0  0  0  0  0  0  0  0
   -0.8721   19.0388  -30.6528 H   0  0  0  0  0  0  0  0  0  0  0  0
   -3.1524   20.1392  -33.2317 H   0  0  0  0  0  0  0  0  0  0  0  0
    1.5261   22.0792  -34.8137 H   0  0  0  0  0  0  0  0  0  0  0  0
    0.8368   20.8688  -35.9480 H   0  0  0  0  0  0  0  0  0  0  0  0
    0.2169   22.5548  -35.9480 H   0  0  0  0  0  0  0  0  0  0  0  0
   -2.2844   23.1191  -30.9357 H   0  0  0  0  0  0  0  0  0  0  0  0
   -4.9310   24.1180  -27.3770 H   0  0  0  0  0  0  0  0  0  0  0  0
   -6.4272   22.2118  -28.8195 H   0  0  0  0  0  0  0  0  0  0  0  0
   -8.4907   18.1259  -30.6949 H   0  0  0  0  0  0  0  0  0  0  0  0
   -9.6514   19.4463  -31.0119 H   0  0  0  0  0  0  0  0  0  0  0  0
   -8.6160   17.7313  -32.9568 H   0  0  0  0  0  0  0  0  0  0  0  0
   -9.3118   19.3160  -33.3130 H   0  0  0  0  0  0  0  0  0  0  0  0
   -6.5242   18.4746  -33.4974 H   0  0  0  0  0  0  0  0  0  0  0  0
   -7.1869   20.0600  -33.9187 H   0  0  0  0  0  0  0  0  0  0  0  0
   -5.7880   19.1788  -31.4416 H   0  0  0  0  0  0  0  0  0  0  0  0
   -6.0564   20.8389  -32.0441 H   0  0  0  0  0  0  0  0  0  0  0  0
   -7.2502   23.6480  -32.8155 H   0  0  0  0  0  0  0  0  0  0  0  0
   -5.4013   25.3067  -32.6011 H   0  0  0  0  0  0  0  0  0  0  0  0
  1  2  1  0
  2  3  1  0
  3  4  2  0
  4  5  1  0
  5  6  2  0
  6  7  1  0
  7  8  2  0
  8  9  1  0
  9 10  2  0
 10 11  1  0
 10 12  1  0
  6 13  1  0
 13 14  2  0
 14 15  1  0
 15 16  2  0
 15 17  2  0
 15 18  1  0
 18 19  1  0
 19 20  2  0
 20 21  1  0
 21 22  1  0
 22 23  2  0
 22 24  2  0
 22 25  1  0
 25 26  1  0
 26 27  1  0
 27 28  1  0
 28 29  1  0
 21 30  2  0
 30 31  1  0
 31 32  2  0
 32 33  1  0
 14  3  1  0
 32 19  1  0
 12  7  1  0
 29 25  1  0
  1 34  1  0
  1 35  1  0
  1 36  1  0
  4 37  1  0
  5 38  1  0
  8 39  1  0
 11 40  1  0
 11 41  1  0
 11 42  1  0
 13 43  1  0
 18 44  1  0
 20 45  1  0
 26 46  1  0
 26 47  1  0
 27 48  1  0
 27 49  1  0
 28 50  1  0
 28 51  1  0
 29 52  1  0
 29 53  1  0
 30 54  1  0
 31 55  1  0
M  CHG  1  33  -1
M  END
>  <UniqueID>  (25) 
23

>  <SMILES>  (25) 
COc1ccc(-c2cnc(C)o2)cc1S(=O)(=O)Nc1cc(S(=O)(=O)N2CCCC2)ccc1[O-]

>  <Energy>  (25) 
87.48411605626652

>  <Genealogy>  (25) 
COc1ccc(-c2cnc(C)o2)cc1S(=O)(=O)Nc1cc(S(=O)(=O)N2CCCC2)ccc1[O-] (protonated)
COc1ccc(-c2cnc(C)o2)cc1S(=O)(=O)Nc1cc(S(=O)(=O)N2CCCC2)ccc1[O-] (3D coordinates assigned)
COc1ccc(-c2cnc(C)o2)cc1S(=O)(=O)Nc1cc(S(=O)(=O)N2CCCC2)ccc1[O-] (nonaromatic ring conformer: 87.48411605626652 kcal/mol)

>  <smiles>  (25) 
COc1ccc(-c2cnc(C)o2)cc1S(=O)(=O)Nc1cc(S(=O)(=O)N2CCCC2)ccc1O

>  <score_type>  (25) 
oracle

>  <origin>  (25) 
adgpu

>  <m_score__min__energy>  (25) 
-12.449999999999999

>  <m_primary>  (25) 
energy

$$$$
25:0
     RDKit          3D

 47 50  0  0  0  0  0  0  0  0999 V2000
   -7.6100   25.1710  -29.2680 O   0  0  0  0  0  0  0  0  0  0  0  0
   -6.8690   24.7220  -30.1810 C   0  0  0  0  0  0  0  0  0  0  0  0
   -7.4770   24.1420  -31.3420 N   0  0  0  0  0  0  0  0  0  0  0  0
   -7.7070   22.7440  -31.5660 C   0  0  0  0  0  0  0  0  0  0  0  0
   -9.0070   22.2150  -31.6370 C   0  0  0  0  0  0  0  0  0  0  0  0
   -9.1980   20.8470  -31.8360 C   0  0  0  0  0  0  0  0  0  0  0  0
   -8.0990   19.9890  -31.9440 C   0  0  0  0  0  0  0  0  0  0  0  0
   -8.3150   18.6320  -32.1600 O   0  0  0  0  0  0  0  0  0  0  0  0
   -6.7930   20.5020  -31.8340 C   0  0  0  0  0  0  0  0  0  0  0  0
   -5.3900   19.4370  -31.9580 S   0  0  0  0  0  0  0  0  0  0  0  0
   -5.7490   18.1100  -31.3500 O   0  0  0  0  0  0  0  0  0  0  0  0
   -4.2390   20.0360  -31.2000 O   0  0  0  0  0  0  0  0  0  0  0  0
   -4.9490   19.2270  -33.6420 N   0  0  0  0  0  0  0  0  0  0  0  0
   -3.6990   18.4470  -33.7920 C   0  0  0  0  0  0  0  0  0  0  0  0
   -3.9570   16.9710  -34.1430 C   0  0  0  0  0  0  0  0  0  0  0  0
   -5.1530   16.5270  -33.5410 O   0  0  0  0  0  0  0  0  0  0  0  0
   -6.2690   17.1550  -34.1470 C   0  0  0  0  0  0  0  0  0  0  0  0
   -6.0580   18.6610  -34.4300 C   0  0  0  0  0  0  0  0  0  0  0  0
   -6.6080   21.8800  -31.6480 C   0  0  0  0  0  0  0  0  0  0  0  0
   -5.4050   24.7410  -29.9990 C   0  0  0  0  0  0  0  0  0  0  0  0
   -4.7320   24.4310  -28.8360 C   0  0  0  0  0  0  0  0  0  0  0  0
   -3.3950   24.5570  -29.1750 C   0  0  0  0  0  0  0  0  0  0  0  0
   -2.2250   24.3410  -28.2820 C   0  0  0  0  0  0  0  0  0  0  0  0
   -2.1470   23.1820  -27.4820 C   0  0  0  0  0  0  0  0  0  0  0  0
   -1.0550   22.9710  -26.6370 C   0  0  0  0  0  0  0  0  0  0  0  0
   -0.0270   23.9110  -26.5730 C   0  0  0  0  0  0  0  0  0  0  0  0
   -0.0870   25.0640  -27.3560 C   0  0  0  0  0  0  0  0  0  0  0  0
   -1.1740   25.2850  -28.2080 C   0  0  0  0  0  0  0  0  0  0  0  0
   -1.1920   26.4420  -28.9790 O   0  0  0  0  0  0  0  0  0  0  0  0
   -3.3010   24.9140  -30.4730 N   0  0  0  0  0  0  0  0  0  0  0  0
   -4.5220   25.0220  -30.9740 N   0  0  0  0  0  0  0  0  0  0  0  0
   -9.8765   22.8811  -31.5354 H   0  0  0  0  0  0  0  0  0  0  0  0
  -10.2180   20.4416  -31.9083 H   0  0  0  0  0  0  0  0  0  0  0  0
   -3.0965   18.8990  -34.5937 H   0  0  0  0  0  0  0  0  0  0  0  0
   -3.1748   18.4713  -32.8252 H   0  0  0  0  0  0  0  0  0  0  0  0
   -4.0397   16.8667  -35.2349 H   0  0  0  0  0  0  0  0  0  0  0  0
   -3.1205   16.3625  -33.7689 H   0  0  0  0  0  0  0  0  0  0  0  0
   -6.4768   16.6483  -35.1010 H   0  0  0  0  0  0  0  0  0  0  0  0
   -7.1063   17.0756  -33.4381 H   0  0  0  0  0  0  0  0  0  0  0  0
   -5.8356   18.7924  -35.4992 H   0  0  0  0  0  0  0  0  0  0  0  0
   -6.9790   19.1899  -34.1438 H   0  0  0  0  0  0  0  0  0  0  0  0
   -5.5890   22.2861  -31.5657 H   0  0  0  0  0  0  0  0  0  0  0  0
   -5.1590   24.1485  -27.8624 H   0  0  0  0  0  0  0  0  0  0  0  0
   -2.9547   22.4364  -27.5240 H   0  0  0  0  0  0  0  0  0  0  0  0
   -1.0058   22.0612  -26.0206 H   0  0  0  0  0  0  0  0  0  0  0  0
    0.8310   23.7434  -25.9053 H   0  0  0  0  0  0  0  0  0  0  0  0
    0.7254   25.8037  -27.3030 H   0  0  0  0  0  0  0  0  0  0  0  0
  1  2  2  0
  2  3  1  0
  3  4  1  0
  4  5  2  0
  5  6  1  0
  6  7  2  0
  7  8  1  0
  7  9  1  0
  9 10  1  0
 10 11  2  0
 10 12  2  0
 10 13  1  0
 13 14  1  0
 14 15  1  0
 15 16  1  0
 16 17  1  0
 17 18  1  0
  9 19  2  0
  2 20  1  0
 20 21  1  0
 21 22  2  0
 22 23  1  0
 23 24  2  0
 24 25  1  0
 25 26  2  0
 26 27  1  0
 27 28  2  0
 28 29  1  0
 22 30  1  0
 30 31  1  0
 19  4  1  0
 31 20  2  0
 18 13  1  0
 28 23  1  0
  5 32  1  0
  6 33  1  0
 14 34  1  0
 14 35  1  0
 15 36  1  0
 15 37  1  0
 17 38  1  0
 17 39  1  0
 18 40  1  0
 18 41  1  0
 19 42  1  0
 21 43  1  0
 24 44  1  0
 25 45  1  0
 26 46  1  0
 27 47  1  0
M  CHG  4   3  -1   8  -1  29  -1  30  -1
M  END
>  <UniqueID>  (26) 
24

>  <SMILES>  (26) 
O=C([N-]c1ccc([O-])c(S(=O)(=O)N2CCOCC2)c1)c1cc(-c2ccccc2[O-])[n-]n1

>  <Energy>  (26) 
100.14206018621844

>  <Genealogy>  (26) 
O=C([N-]c1ccc([O-])c(S(=O)(=O)N2CCOCC2)c1)c1cc(-c2ccccc2[O-])[n-]n1 (protonated)
O=C([N-]c1ccc([O-])c(S(=O)(=O)N2CCOCC2)c1)c1cc(-c2ccccc2[O-])[n-]n1 (3D coordinates assigned)
O=C([N-]c1ccc([O-])c(S(=O)(=O)N2CCOCC2)c1)c1cc(-c2ccccc2[O-])[n-]n1 (nonaromatic ring conformer: 100.14206018621844 kcal/mol)

>  <smiles>  (26) 
O=C(Nc1ccc(O)c(S(=O)(=O)N2CCOCC2)c1)c1cc(-c2ccccc2O)[nH]n1

>  <score_type>  (26) 
oracle

>  <origin>  (26) 
adgpu

>  <m_score__min__energy>  (26) 
-14.9

>  <m_primary>  (26) 
energy

$$$$
26:0
     RDKit          3D

 60 63  0  0  0  0  0  0  0  0999 V2000
   -5.8730   26.1180  -30.5880 O   0  0  0  0  0  0  0  0  0  0  0  0
   -5.2150   24.8970  -30.0030 S   0  0  0  0  0  0  0  0  0  0  0  0
   -5.3050   24.9710  -28.5030 O   0  0  0  0  0  0  0  0  0  0  0  0
   -3.5380   24.8790  -30.4740 N   0  0  0  0  0  0  0  0  0  0  0  0
   -2.5300   24.1690  -29.7480 C   0  0  0  0  0  0  0  0  0  0  0  0
   -2.5060   22.7690  -29.7420 C   0  0  0  0  0  0  0  0  0  0  0  0
   -1.4690   22.0830  -29.0910 C   0  0  0  0  0  0  0  0  0  0  0  0
   -1.4560   20.3160  -29.0840 S   0  0  0  0  0  0  0  0  0  0  0  0
   -1.8450   19.7910  -30.4400 O   0  0  0  0  0  0  0  0  0  0  0  0
   -2.4570   19.8220  -28.0730 O   0  0  0  0  0  0  0  0  0  0  0  0
    0.1400   19.7540  -28.6570 N   0  0  0  0  0  0  0  0  0  0  0  0
    0.9390   19.5240  -29.8810 C   0  0  0  0  0  0  0  0  0  0  0  0
    2.2030   18.6990  -29.5740 C   0  0  0  0  0  0  0  0  0  0  0  0
    2.4880   18.7210  -28.1880 O   0  0  0  0  0  0  0  0  0  0  0  0
    1.4650   18.0350  -27.4670 C   0  0  0  0  0  0  0  0  0  0  0  0
    0.0460   18.5150  -27.8640 C   0  0  0  0  0  0  0  0  0  0  0  0
   -0.4880   22.8090  -28.3920 C   0  0  0  0  0  0  0  0  0  0  0  0
   -0.5440   24.2030  -28.3380 C   0  0  0  0  0  0  0  0  0  0  0  0
   -1.5650   24.8860  -29.0070 C   0  0  0  0  0  0  0  0  0  0  0  0
   -1.6080   26.2760  -28.9470 O   0  0  0  0  0  0  0  0  0  0  0  0
   -6.0740   23.4640  -30.5730 C   0  0  0  0  0  0  0  0  0  0  0  0
   -7.4340   23.5560  -30.9020 C   0  0  0  0  0  0  0  0  0  0  0  0
   -8.1060   22.4480  -31.4230 C   0  0  0  0  0  0  0  0  0  0  0  0
   -7.4280   21.2320  -31.6030 C   0  0  0  0  0  0  0  0  0  0  0  0
   -8.2840   19.8170  -32.2220 S   0  0  0  0  0  0  0  0  0  0  0  0
   -8.7370   18.9660  -31.0650 O   0  0  0  0  0  0  0  0  0  0  0  0
   -9.5100   20.2700  -32.9700 O   0  0  0  0  0  0  0  0  0  0  0  0
   -7.2740   18.8630  -33.2910 N   0  0  0  0  0  0  0  0  0  0  0  0
   -6.1820   19.6830  -33.8630 C   0  0  0  0  0  0  0  0  0  0  0  0
   -4.9380   18.8500  -34.2040 C   0  0  0  0  0  0  0  0  0  0  0  0
   -4.3670   18.2030  -32.9240 C   0  0  0  0  0  0  0  0  0  0  0  0
   -5.4710   17.6510  -32.0000 C   0  0  0  0  0  0  0  0  0  0  0  0
   -6.8530   17.5800  -32.6740 C   0  0  0  0  0  0  0  0  0  0  0  0
   -6.0680   21.1450  -31.2760 C   0  0  0  0  0  0  0  0  0  0  0  0
   -5.3940   22.2550  -30.7640 C   0  0  0  0  0  0  0  0  0  0  0  0
   -3.3026   22.2049  -30.2492 H   0  0  0  0  0  0  0  0  0  0  0  0
    0.3247   18.9801  -30.6136 H   0  0  0  0  0  0  0  0  0  0  0  0
    1.2490   20.4998  -30.2832 H   0  0  0  0  0  0  0  0  0  0  0  0
    2.0421   17.6588  -29.8935 H   0  0  0  0  0  0  0  0  0  0  0  0
    3.0530   19.1371  -30.1177 H   0  0  0  0  0  0  0  0  0  0  0  0
    1.5459   16.9580  -27.6758 H   0  0  0  0  0  0  0  0  0  0  0  0
    1.6060   18.2472  -26.3969 H   0  0  0  0  0  0  0  0  0  0  0  0
   -0.4488   17.7356  -28.4621 H   0  0  0  0  0  0  0  0  0  0  0  0
   -0.5385   18.7111  -26.9530 H   0  0  0  0  0  0  0  0  0  0  0  0
    0.3288   22.2750  -27.8845 H   0  0  0  0  0  0  0  0  0  0  0  0
    0.2135   24.7632  -27.7703 H   0  0  0  0  0  0  0  0  0  0  0  0
   -7.9727   24.5028  -30.7494 H   0  0  0  0  0  0  0  0  0  0  0  0
   -9.1693   22.5284  -31.6930 H   0  0  0  0  0  0  0  0  0  0  0  0
   -6.5469   20.1647  -34.7822 H   0  0  0  0  0  0  0  0  0  0  0  0
   -5.8898   20.4256  -33.1059 H   0  0  0  0  0  0  0  0  0  0  0  0
   -5.2132   18.0608  -34.9192 H   0  0  0  0  0  0  0  0  0  0  0  0
   -4.1749   19.5066  -34.6473 H   0  0  0  0  0  0  0  0  0  0  0  0
   -3.7022   17.3756  -33.2130 H   0  0  0  0  0  0  0  0  0  0  0  0
   -3.8241   18.9820  -32.3686 H   0  0  0  0  0  0  0  0  0  0  0  0
   -5.1854   16.6373  -31.6824 H   0  0  0  0  0  0  0  0  0  0  0  0
   -5.5594   18.3435  -31.1499 H   0  0  0  0  0  0  0  0  0  0  0  0
   -6.8191   16.8101  -33.4589 H   0  0  0  0  0  0  0  0  0  0  0  0
   -7.5856   17.3411  -31.8890 H   0  0  0  0  0  0  0  0  0  0  0  0
   -5.5291   20.1975  -31.4235 H   0  0  0  0  0  0  0  0  0  0  0  0
   -4.3264   22.1798  -30.5100 H   0  0  0  0  0  0  0  0  0  0  0  0
  1  2  2  0
  2  3  2  0
  2  4  1  0
  4  5  1  0
  5  6  2  0
  6  7  1  0
  7  8  1  0
  8  9  2  0
  8 10  2  0
  8 11  1  0
 11 12  1  0
 12 13  1  0
 13 14  1  0
 14 15  1  0
 15 16  1  0
  7 17  2  0
 17 18  1  0
 18 19  2  0
 19 20  1  0
  2 21  1  0
 21 22  2  0
 22 23  1  0
 23 24  2  0
 24 25  1  0
 25 26  2  0
 25 27  2  0
 25 28  1  0
 28 29  1  0
 29 30  1  0
 30 31  1  0
 31 32  1  0
 32 33  1  0
 24 34  1  0
 34 35  2  0
 19  5  1  0
 35 21  1  0
 16 11  1  0
 33 28  1  0
  6 36  1  0
 12 37  1  0
 12 38  1  0
 13 39  1  0
 13 40  1  0
 15 41  1  0
 15 42  1  0
 16 43  1  0
 16 44  1  0
 17 45  1  0
 18 46  1  0
 22 47  1  0
 23 48  1  0
 29 49  1  0
 29 50  1  0
 30 51  1  0
 30 52  1  0
 31 53  1  0
 31 54  1  0
 32 55  1  0
 32 56  1  0
 33 57  1  0
 33 58  1  0
 34 59  1  0
 35 60  1  0
M  CHG  2   4  -1  20  -1
M  END
>  <UniqueID>  (27) 
25

>  <SMILES>  (27) 
O=S(=O)([N-]c1cc(S(=O)(=O)N2CCOCC2)ccc1[O-])c1ccc(S(=O)(=O)N2CCCCC2)cc1

>  <Energy>  (27) 
82.72149784766826

>  <Genealogy>  (27) 
O=S(=O)([N-]c1cc(S(=O)(=O)N2CCOCC2)ccc1[O-])c1ccc(S(=O)(=O)N2CCCCC2)cc1 (protonated)
O=S(=O)([N-]c1cc(S(=O)(=O)N2CCOCC2)ccc1[O-])c1ccc(S(=O)(=O)N2CCCCC2)cc1 (3D coordinates assigned)
O=S(=O)([N-]c1cc(S(=O)(=O)N2CCOCC2)ccc1[O-])c1ccc(S(=O)(=O)N2CCCCC2)cc1 (nonaromatic ring conformer: 82.72149784766826 kcal/mol)

>  <smiles>  (27) 
O=S(=O)(Nc1cc(S(=O)(=O)N2CCOCC2)ccc1O)c1ccc(S(=O)(=O)N2CCCCC2)cc1

>  <score_type>  (27) 
oracle

>  <origin>  (27) 
adgpu

>  <m_score__min__energy>  (27) 
-16.07

>  <m_primary>  (27) 
energy

$$$$
27:0
     RDKit          3D

 76 81  0  0  0  0  0  0  0  0999 V2000
    0.1200   28.6610  -34.2330 C   0  0  0  0  0  0  0  0  0  0  0  0
   -0.5430   28.9500  -35.5210 N   0  0  0  0  0  0  0  0  0  0  0  0
    0.4270   29.3290  -36.5670 C   0  0  0  0  0  0  0  0  0  0  0  0
    1.3430   28.1570  -36.9500 C   0  0  0  0  0  0  0  0  0  0  0  0
    0.5870   26.9030  -37.0170 N   0  0  0  0  0  0  0  0  0  0  0  0
    1.2800   25.7150  -37.4260 C   0  0  0  0  0  0  0  0  0  0  0  0
    1.8710   25.7080  -38.5380 O   0  0  0  0  0  0  0  0  0  0  0  0
    1.3390   24.5110  -36.5560 C   0  0  0  0  0  0  0  0  0  0  0  0
    2.5660   24.0020  -36.0910 C   0  0  0  0  0  0  0  0  0  0  0  0
    2.6030   22.8570  -35.2910 C   0  0  0  0  0  0  0  0  0  0  0  0
    1.4200   22.1960  -34.9370 C   0  0  0  0  0  0  0  0  0  0  0  0
    1.5200   21.0230  -34.1120 N   0  0  0  0  0  0  0  0  0  0  0  0
    0.6180   19.9070  -34.0210 C   0  0  0  0  0  0  0  0  0  0  0  0
    0.9990   18.7410  -34.3080 O   0  0  0  0  0  0  0  0  0  0  0  0
   -0.7420   20.1270  -33.6270 N   0  0  0  0  0  0  0  0  0  0  0  0
   -1.8750   19.3830  -34.1760 C   0  0  0  0  0  0  0  0  0  0  0  0
   -3.0410   20.0530  -33.5520 C   0  0  0  0  0  0  0  0  0  0  0  0
   -4.3900   19.7860  -33.7700 C   0  0  0  0  0  0  0  0  0  0  0  0
   -5.3440   20.6030  -33.1460 C   0  0  0  0  0  0  0  0  0  0  0  0
   -4.9380   21.6760  -32.3210 C   0  0  0  0  0  0  0  0  0  0  0  0
   -6.1380   22.7470  -31.5990 S   0  0  0  0  0  0  0  0  0  0  0  0
   -7.3840   21.9580  -31.3030 O   0  0  0  0  0  0  0  0  0  0  0  0
   -6.4830   23.8220  -32.5920 O   0  0  0  0  0  0  0  0  0  0  0  0
   -5.5970   23.4940  -30.1250 N   0  0  0  0  0  0  0  0  0  0  0  0
   -4.2630   23.4380  -29.6130 C   0  0  0  0  0  0  0  0  0  0  0  0
   -3.8130   22.3370  -28.8670 C   0  0  0  0  0  0  0  0  0  0  0  0
   -2.5110   22.3310  -28.3430 C   0  0  0  0  0  0  0  0  0  0  0  0
   -1.6670   23.4310  -28.5380 C   0  0  0  0  0  0  0  0  0  0  0  0
   -2.1190   24.5340  -29.2760 C   0  0  0  0  0  0  0  0  0  0  0  0
   -3.4180   24.5430  -29.7980 C   0  0  0  0  0  0  0  0  0  0  0  0
   -3.8630   25.6490  -30.5160 O   0  0  0  0  0  0  0  0  0  0  0  0
   -0.2540   23.3540  -28.0220 C   0  0  0  0  0  0  0  0  0  0  0  0
   -0.1530   22.7020  -26.6850 N   0  0  0  0  0  0  0  0  0  0  0  0
    0.0340   23.7010  -25.6190 C   0  0  0  0  0  0  0  0  0  0  0  0
   -1.2400   21.7460  -26.3250 C   0  0  0  0  0  0  0  0  0  0  0  0
   -1.9860   21.1840  -27.5410 C   0  0  0  0  0  0  0  0  0  0  0  0
   -3.5670   21.9170  -32.1100 C   0  0  0  0  0  0  0  0  0  0  0  0
   -2.6370   21.0840  -32.7340 C   0  0  0  0  0  0  0  0  0  0  0  0
   -1.1580   21.1870  -32.7060 C   0  0  0  0  0  0  0  0  0  0  0  0
    0.1960   22.6760  -35.4380 C   0  0  0  0  0  0  0  0  0  0  0  0
    0.1570   23.8270  -36.2250 C   0  0  0  0  0  0  0  0  0  0  0  0
   -0.8780   26.9480  -37.0630 C   0  0  0  0  0  0  0  0  0  0  0  0
   -1.4460   27.8470  -35.9410 C   0  0  0  0  0  0  0  0  0  0  0  0
   -0.5444   28.9506  -33.4055 H   0  0  0  0  0  0  0  0  0  0  0  0
    0.3402   27.5853  -34.1672 H   0  0  0  0  0  0  0  0  0  0  0  0
    1.0579   29.2319  -34.1672 H   0  0  0  0  0  0  0  0  0  0  0  0
   -0.1238   29.6568  -37.4610 H   0  0  0  0  0  0  0  0  0  0  0  0
    1.0571   30.1388  -36.1705 H   0  0  0  0  0  0  0  0  0  0  0  0
    1.7941   28.3586  -37.9328 H   0  0  0  0  0  0  0  0  0  0  0  0
    2.1243   28.0560  -36.1823 H   0  0  0  0  0  0  0  0  0  0  0  0
    3.5040   24.5100  -36.3597 H   0  0  0  0  0  0  0  0  0  0  0  0
    3.5700   22.4712  -34.9360 H   0  0  0  0  0  0  0  0  0  0  0  0
   -1.9100   19.4663  -35.2723 H   0  0  0  0  0  0  0  0  0  0  0  0
   -1.8297   18.3039  -33.9675 H   0  0  0  0  0  0  0  0  0  0  0  0
   -4.7007   18.9527  -34.4173 H   0  0  0  0  0  0  0  0  0  0  0  0
   -6.4154   20.4072  -33.2998 H   0  0  0  0  0  0  0  0  0  0  0  0
   -4.4803   21.4799  -28.6934 H   0  0  0  0  0  0  0  0  0  0  0  0
   -1.4527   25.3928  -29.4450 H   0  0  0  0  0  0  0  0  0  0  0  0
    0.3493   22.7776  -28.7388 H   0  0  0  0  0  0  0  0  0  0  0  0
    0.1109   24.3858  -27.9115 H   0  0  0  0  0  0  0  0  0  0  0  0
   -0.0576   23.2119  -24.6380 H   0  0  0  0  0  0  0  0  0  0  0  0
    1.0324   24.1533  -25.7114 H   0  0  0  0  0  0  0  0  0  0  0  0
   -0.7332   24.4838  -25.7114 H   0  0  0  0  0  0  0  0  0  0  0  0
   -0.7960   20.9064  -25.7701 H   0  0  0  0  0  0  0  0  0  0  0  0
   -1.9740   22.3016  -25.7228 H   0  0  0  0  0  0  0  0  0  0  0  0
   -1.2974   20.5853  -28.1553 H   0  0  0  0  0  0  0  0  0  0  0  0
   -2.8158   20.5413  -27.2119 H   0  0  0  0  0  0  0  0  0  0  0  0
   -3.2354   22.7451  -31.4663 H   0  0  0  0  0  0  0  0  0  0  0  0
   -0.8226   22.1732  -33.0594 H   0  0  0  0  0  0  0  0  0  0  0  0
   -0.7328   21.0794  -31.6972 H   0  0  0  0  0  0  0  0  0  0  0  0
   -0.7365   22.1400  -35.2075 H   0  0  0  0  0  0  0  0  0  0  0  0
   -0.8098   24.2034  -36.5906 H   0  0  0  0  0  0  0  0  0  0  0  0
   -1.1941   27.3480  -38.0377 H   0  0  0  0  0  0  0  0  0  0  0  0
   -1.2622   25.9274  -36.9191 H   0  0  0  0  0  0  0  0  0  0  0  0
   -2.3870   28.2903  -36.2987 H   0  0  0  0  0  0  0  0  0  0  0  0
   -1.5830   27.2014  -35.0609 H   0  0  0  0  0  0  0  0  0  0  0  0
  1  2  1  0
  2  3  1  0
  3  4  1  0
  4  5  1  0
  5  6  1  0
  6  7  2  0
  6  8  1  0
  8  9  2  0
  9 10  1  0
 10 11  2  0
 11 12  1  0
 12 13  1  0
 13 14  2  0
 13 15  1  0
 15 16  1  0
 16 17  1  0
 17 18  2  0
 18 19  1  0
 19 20  2  0
 20 21  1  0
 21 22  2  0
 21 23  2  0
 21 24  1  0
 24 25  1  0
 25 26  2  0
 26 27  1  0
 27 28  2  0
 28 29  1  0
 29 30  2  0
 30 31  1  0
 28 32  1  0
 32 33  1  0
 33 34  1  0
 33 35  1  0
 35 36  1  0
 20 37  1  0
 37 38  2  0
 38 39  1  0
 11 40  1  0
 40 41  2  0
  5 42  1  0
 42 43  1  0
 43  2  1  0
 41  8  1  0
 39 15  1  0
 38 17  1  0
 30 25  1  0
 36 27  1  0
  1 44  1  0
  1 45  1  0
  1 46  1  0
  3 47  1  0
  3 48  1  0
  4 49  1  0
  4 50  1  0
  9 51  1  0
 10 52  1  0
 16 53  1  0
 16 54  1  0
 18 55  1  0
 19 56  1  0
 26 57  1  0
 29 58  1  0
 32 59  1  0
 32 60  1  0
 34 61  1  0
 34 62  1  0
 34 63  1  0
 35 64  1  0
 35 65  1  0
 36 66  1  0
 36 67  1  0
 37 68  1  0
 39 69  1  0
 39 70  1  0
 40 71  1  0
 41 72  1  0
 42 73  1  0
 42 74  1  0
 43 75  1  0
 43 76  1  0
M  CHG  3  12  -1  24  -1  31  -1
M  END
>  <UniqueID>  (28) 
26

>  <SMILES>  (28) 
CN1CCN(C(=O)c2ccc([N-]C(=O)N3Cc4ccc(S(=O)(=O)[N-]c5cc6c(cc5[O-])CN(C)CC6)cc4C3)cc2)CC1

>  <Energy>  (28) 
127.28703741958515

>  <Genealogy>  (28) 
CN1CCN(C(=O)c2ccc([N-]C(=O)N3Cc4ccc(S(=O)(=O)[N-]c5cc6c(cc5[O-])CN(C)CC6)cc4C3)cc2)CC1 (protonated)
CN1CCN(C(=O)c2ccc([N-]C(=O)N3Cc4ccc(S(=O)(=O)[N-]c5cc6c(cc5[O-])CN(C)CC6)cc4C3)cc2)CC1 (3D coordinates assigned)
CN1CCN(C(=O)c2ccc([N-]C(=O)N3Cc4ccc(S(=O)(=O)[N-]c5cc6c(cc5[O-])CN(C)CC6)cc4C3)cc2)CC1 (nonaromatic ring conformer: 127.28703741958515 kcal/mol)

>  <smiles>  (28) 
CN1CCN(C(=O)c2ccc(NC(=O)N3Cc4ccc(S(=O)(=O)Nc5cc6c(cc5O)CN(C)CC6)cc4C3)cc2)CC1

>  <score_type>  (28) 
oracle

>  <origin>  (28) 
adgpu

>  <m_score__min__energy>  (28) 
-15.369999999999999

>  <m_primary>  (28) 
energy

$$$$
28:0
     RDKit          3D

 58 62  0  0  0  0  0  0  0  0999 V2000
   -6.4600   17.2220  -30.7750 O   0  0  0  0  0  0  0  0  0  0  0  0
   -6.6170   17.8110  -31.8800 C   0  0  0  0  0  0  0  0  0  0  0  0
   -7.1500   19.1850  -31.8450 C   0  0  0  0  0  0  0  0  0  0  0  0
   -8.5300   19.4130  -31.7400 C   0  0  0  0  0  0  0  0  0  0  0  0
   -9.0210   20.7210  -31.6980 C   0  0  0  0  0  0  0  0  0  0  0  0
   -8.1390   21.8050  -31.7670 C   0  0  0  0  0  0  0  0  0  0  0  0
   -6.7580   21.5860  -31.8650 C   0  0  0  0  0  0  0  0  0  0  0  0
   -5.6580   22.9480  -32.0320 S   0  0  0  0  0  0  0  0  0  0  0  0
   -6.4240   24.1760  -32.4420 O   0  0  0  0  0  0  0  0  0  0  0  0
   -4.6330   22.6640  -33.0940 O   0  0  0  0  0  0  0  0  0  0  0  0
   -4.8910   23.2480  -30.5050 N   0  0  0  0  0  0  0  0  0  0  0  0
   -5.3780   24.2420  -29.5550 C   0  0  0  0  0  0  0  0  0  0  0  0
   -4.5790   24.0170  -28.2480 C   0  0  0  0  0  0  0  0  0  0  0  0
   -3.7610   22.8110  -28.5520 C   0  0  0  0  0  0  0  0  0  0  0  0
   -2.8790   22.1360  -27.7040 C   0  0  0  0  0  0  0  0  0  0  0  0
   -2.1940   21.0160  -28.2050 C   0  0  0  0  0  0  0  0  0  0  0  0
   -2.4010   20.5950  -29.5320 C   0  0  0  0  0  0  0  0  0  0  0  0
   -3.2950   21.2880  -30.3650 C   0  0  0  0  0  0  0  0  0  0  0  0
   -3.9610   22.4030  -29.8440 C   0  0  0  0  0  0  0  0  0  0  0  0
   -6.2660   20.2740  -31.8840 C   0  0  0  0  0  0  0  0  0  0  0  0
   -6.2740   17.1150  -33.1150 N   0  0  0  0  0  0  0  0  0  0  0  0
   -5.0160   16.3570  -32.9730 C   0  0  0  0  0  0  0  0  0  0  0  0
   -3.8270   17.2870  -32.7310 C   0  0  0  0  0  0  0  0  0  0  0  0
   -3.7770   18.3820  -33.7120 N   0  0  0  0  0  0  0  0  0  0  0  0
   -2.5620   19.1500  -33.8210 C   0  0  0  0  0  0  0  0  0  0  0  0
   -1.3670   18.5470  -34.2600 C   0  0  0  0  0  0  0  0  0  0  0  0
   -0.1850   19.2890  -34.3290 C   0  0  0  0  0  0  0  0  0  0  0  0
   -0.1800   20.6350  -33.9590 C   0  0  0  0  0  0  0  0  0  0  0  0
   -1.3620   21.2470  -33.5310 C   0  0  0  0  0  0  0  0  0  0  0  0
   -2.5470   20.5100  -33.4620 C   0  0  0  0  0  0  0  0  0  0  0  0
   -4.9900   18.9160  -34.3600 C   0  0  0  0  0  0  0  0  0  0  0  0
   -6.1990   17.9580  -34.3280 C   0  0  0  0  0  0  0  0  0  0  0  0
   -9.2258   18.5625  -31.6907 H   0  0  0  0  0  0  0  0  0  0  0  0
  -10.1030   20.8985  -31.6105 H   0  0  0  0  0  0  0  0  0  0  0  0
   -8.5307   22.8326  -31.7443 H   0  0  0  0  0  0  0  0  0  0  0  0
   -5.2009   25.2569  -29.9404 H   0  0  0  0  0  0  0  0  0  0  0  0
   -6.4601   24.1394  -29.3864 H   0  0  0  0  0  0  0  0  0  0  0  0
   -3.9378   24.8822  -28.0239 H   0  0  0  0  0  0  0  0  0  0  0  0
   -5.2231   23.8898  -27.3654 H   0  0  0  0  0  0  0  0  0  0  0  0
   -2.7245   22.4735  -26.6685 H   0  0  0  0  0  0  0  0  0  0  0  0
   -1.4940   20.4667  -27.5582 H   0  0  0  0  0  0  0  0  0  0  0  0
   -1.8600   19.7188  -29.9188 H   0  0  0  0  0  0  0  0  0  0  0  0
   -3.4673   20.9622  -31.4014 H   0  0  0  0  0  0  0  0  0  0  0  0
   -5.1813   20.0969  -31.9297 H   0  0  0  0  0  0  0  0  0  0  0  0
   -7.0380   16.4170  -33.2770 H   0  0  0  0  0  0  0  0  0  0  0  0
   -5.1088   15.6663  -32.1219 H   0  0  0  0  0  0  0  0  0  0  0  0
   -4.8380   15.8046  -33.9074 H   0  0  0  0  0  0  0  0  0  0  0  0
   -3.9119   17.7172  -31.7222 H   0  0  0  0  0  0  0  0  0  0  0  0
   -2.9055   16.6952  -32.8342 H   0  0  0  0  0  0  0  0  0  0  0  0
   -1.3643   17.4860  -34.5501 H   0  0  0  0  0  0  0  0  0  0  0  0
    0.7434   18.8115  -34.6756 H   0  0  0  0  0  0  0  0  0  0  0  0
    0.7540   21.2143  -34.0042 H   0  0  0  0  0  0  0  0  0  0  0  0
   -1.3590   22.3100  -33.2482 H   0  0  0  0  0  0  0  0  0  0  0  0
   -3.4742   20.9964  -33.1248 H   0  0  0  0  0  0  0  0  0  0  0  0
   -5.2738   19.8466  -33.8468 H   0  0  0  0  0  0  0  0  0  0  0  0
   -4.7391   19.0725  -35.4195 H   0  0  0  0  0  0  0  0  0  0  0  0
   -7.1177   18.5602  -34.3867 H   0  0  0  0  0  0  0  0  0  0  0  0
   -6.0820   17.2736  -35.1812 H   0  0  0  0  0  0  0  0  0  0  0  0
  1  2  2  0
  2  3  1  0
  3  4  2  0
  4  5  1  0
  5  6  2  0
  6  7  1  0
  7  8  1  0
  8  9  2  0
  8 10  2  0
  8 11  1  0
 11 12  1  0
 12 13  1  0
 13 14  1  0
 14 15  2  0
 15 16  1  0
 16 17  2  0
 17 18  1  0
 18 19  2  0
  7 20  2  0
  2 21  1  0
 21 22  1  0
 22 23  1  0
 23 24  1  0
 24 25  1  0
 25 26  2  0
 26 27  1  0
 27 28  2  0
 28 29  1  0
 29 30  2  0
 24 31  1  0
 31 32  1  0
 20  3  1  0
 32 21  1  0
 19 11  1  0
 30 25  1  0
 19 14  1  0
  4 33  1  0
  5 34  1  0
  6 35  1  0
 12 36  1  0
 12 37  1  0
 13 38  1  0
 13 39  1  0
 15 40  1  0
 16 41  1  0
 17 42  1  0
 18 43  1  0
 20 44  1  0
 21 45  1  0
 22 46  1  0
 22 47  1  0
 23 48  1  0
 23 49  1  0
 26 50  1  0
 27 51  1  0
 28 52  1  0
 29 53  1  0
 30 54  1  0
 31 55  1  0
 31 56  1  0
 32 57  1  0
 32 58  1  0
M  CHG  1  21   1
M  END
>  <UniqueID>  (29) 
27

>  <SMILES>  (29) 
O=C(c1cccc(S(=O)(=O)N2CCc3ccccc32)c1)[NH+]1CCN(c2ccccc2)CC1

>  <Energy>  (29) 
95.95023151598807

>  <Genealogy>  (29) 
O=C(c1cccc(S(=O)(=O)N2CCc3ccccc32)c1)[NH+]1CCN(c2ccccc2)CC1 (protonated)
O=C(c1cccc(S(=O)(=O)N2CCc3ccccc32)c1)[NH+]1CCN(c2ccccc2)CC1 (3D coordinates assigned)
O=C(c1cccc(S(=O)(=O)N2CCc3ccccc32)c1)[NH+]1CCN(c2ccccc2)CC1 (nonaromatic ring conformer: 95.95023151598807 kcal/mol)

>  <smiles>  (29) 
O=C(c1cccc(S(=O)(=O)N2CCc3ccccc32)c1)N1CCN(c2ccccc2)CC1

>  <score_type>  (29) 
oracle

>  <origin>  (29) 
adgpu

>  <m_score__min__energy>  (29) 
-10.09

>  <m_primary>  (29) 
energy

$$$$
29:0
     RDKit          3D

 44 46  0  0  0  0  0  0  0  0999 V2000
   -1.7040   20.6110  -31.6480 C   0  0  0  0  0  0  0  0  0  0  0  0
   -1.8490   19.3310  -32.4650 C   0  0  0  0  0  0  0  0  0  0  0  0
   -2.7820   19.5460  -33.6250 C   0  0  0  0  0  0  0  0  0  0  0  0
   -2.8300   20.6790  -34.1710 O   0  0  0  0  0  0  0  0  0  0  0  0
   -3.6910   18.5280  -34.0640 N   0  0  0  0  0  0  0  0  0  0  0  0
   -5.0150   18.3250  -33.5550 C   0  0  0  0  0  0  0  0  0  0  0  0
   -5.4440   17.0140  -33.3130 C   0  0  0  0  0  0  0  0  0  0  0  0
   -6.7420   16.7670  -32.8620 C   0  0  0  0  0  0  0  0  0  0  0  0
   -7.6200   17.8290  -32.6410 C   0  0  0  0  0  0  0  0  0  0  0  0
   -7.1940   19.1440  -32.8480 C   0  0  0  0  0  0  0  0  0  0  0  0
   -5.8830   19.4070  -33.2730 C   0  0  0  0  0  0  0  0  0  0  0  0
   -5.4690   20.7760  -33.4280 N   0  0  0  0  0  0  0  0  0  0  0  0
   -5.7670   21.8200  -32.4870 C   0  0  0  0  0  0  0  0  0  0  0  0
   -7.0120   22.4700  -32.4880 C   0  0  0  0  0  0  0  0  0  0  0  0
   -7.2810   23.4800  -31.5640 C   0  0  0  0  0  0  0  0  0  0  0  0
   -6.3120   23.8610  -30.6260 C   0  0  0  0  0  0  0  0  0  0  0  0
   -6.6190   24.9440  -29.7220 C   0  0  0  0  0  0  0  0  0  0  0  0
   -6.8640   25.8110  -28.9960 N   0  0  0  0  0  0  0  0  0  0  0  0
   -5.0520   23.2200  -30.6180 C   0  0  0  0  0  0  0  0  0  0  0  0
   -3.9970   23.5750  -29.6380 C   0  0  0  0  0  0  0  0  0  0  0  0
   -3.8430   22.8340  -28.4540 C   0  0  0  0  0  0  0  0  0  0  0  0
   -2.8350   23.1640  -27.5420 C   0  0  0  0  0  0  0  0  0  0  0  0
   -1.9710   24.2290  -27.8060 C   0  0  0  0  0  0  0  0  0  0  0  0
   -2.1100   24.9650  -28.9870 C   0  0  0  0  0  0  0  0  0  0  0  0
   -1.2460   26.0220  -29.2520 O   0  0  0  0  0  0  0  0  0  0  0  0
   -3.1150   24.6380  -29.9030 C   0  0  0  0  0  0  0  0  0  0  0  0
   -4.7900   22.2140  -31.5650 C   0  0  0  0  0  0  0  0  0  0  0  0
   -1.7317   20.3667  -30.5758 H   0  0  0  0  0  0  0  0  0  0  0  0
   -0.7454   21.0935  -31.8895 H   0  0  0  0  0  0  0  0  0  0  0  0
   -2.5303   21.2957  -31.8895 H   0  0  0  0  0  0  0  0  0  0  0  0
   -0.8615   19.0316  -32.8460 H   0  0  0  0  0  0  0  0  0  0  0  0
   -2.2626   18.5428  -31.8187 H   0  0  0  0  0  0  0  0  0  0  0  0
   -4.7540   16.1736  -33.4793 H   0  0  0  0  0  0  0  0  0  0  0  0
   -7.0731   15.7338  -32.6806 H   0  0  0  0  0  0  0  0  0  0  0  0
   -8.6481   17.6310  -32.3036 H   0  0  0  0  0  0  0  0  0  0  0  0
   -7.8908   19.9778  -32.6767 H   0  0  0  0  0  0  0  0  0  0  0  0
   -4.9680   21.0350  -34.3080 H   0  0  0  0  0  0  0  0  0  0  0  0
   -7.7792   22.1811  -33.2214 H   0  0  0  0  0  0  0  0  0  0  0  0
   -8.2604   23.9807  -31.5717 H   0  0  0  0  0  0  0  0  0  0  0  0
   -4.5178   21.9911  -28.2435 H   0  0  0  0  0  0  0  0  0  0  0  0
   -2.7226   22.5832  -26.6146 H   0  0  0  0  0  0  0  0  0  0  0  0
   -1.1816   24.4888  -27.0854 H   0  0  0  0  0  0  0  0  0  0  0  0
   -3.2160   25.2145  -30.8344 H   0  0  0  0  0  0  0  0  0  0  0  0
   -3.8026   21.7294  -31.5816 H   0  0  0  0  0  0  0  0  0  0  0  0
  1  2  1  0
  2  3  1  0
  3  4  2  0
  3  5  1  0
  5  6  1  0
  6  7  2  0
  7  8  1  0
  8  9  2  0
  9 10  1  0
 10 11  2  0
 11 12  1  0
 12 13  1  0
 13 14  2  0
 14 15  1  0
 15 16  2  0
 16 17  1  0
 17 18  3  0
 16 19  1  0
 19 20  1  0
 20 21  2  0
 21 22  1  0
 22 23  2  0
 23 24  1  0
 24 25  1  0
 24 26  2  0
 19 27  2  0
 11  6  1  0
 27 13  1  0
 26 20  1  0
  1 28  1  0
  1 29  1  0
  1 30  1  0
  2 31  1  0
  2 32  1  0
  7 33  1  0
  8 34  1  0
  9 35  1  0
 10 36  1  0
 12 37  1  0
 14 38  1  0
 15 39  1  0
 21 40  1  0
 22 41  1  0
 23 42  1  0
 26 43  1  0
 27 44  1  0
M  CHG  2   5  -1  25  -1
M  END
>  <UniqueID>  (30) 
28

>  <SMILES>  (30) 
CCC(=O)[N-]c1ccccc1Nc1ccc(C#N)c(-c2cccc([O-])c2)c1

>  <Energy>  (30) 
61.76104917244597

>  <Genealogy>  (30) 
CCC(=O)[N-]c1ccccc1Nc1ccc(C#N)c(-c2cccc([O-])c2)c1 (protonated)
CCC(=O)[N-]c1ccccc1Nc1ccc(C#N)c(-c2cccc([O-])c2)c1 (3D coordinates assigned)
CCC(=O)[N-]c1ccccc1Nc1ccc(C#N)c(-c2cccc([O-])c2)c1 (optimized conformer: 61.76104917244597 kcal/mol)

>  <smiles>  (30) 
CCC(=O)Nc1ccccc1Nc1ccc(C#N)c(-c2cccc(O)c2)c1

>  <score_type>  (30) 
oracle

>  <origin>  (30) 
adgpu

>  <m_score__min__energy>  (30) 
-12.84

>  <m_primary>  (30) 
energy

$$$$
30:0
     RDKit          3D

 59 62  0  0  0  0  0  0  0  0999 V2000
    1.0930   15.3770  -26.9690 C   0  0  0  0  0  0  0  0  0  0  0  0
    2.4710   16.3530  -27.5390 S   0  0  0  0  0  0  0  0  0  0  0  0
    2.9040   17.2700  -26.4300 O   0  0  0  0  0  0  0  0  0  0  0  0
    3.6130   15.4370  -27.8730 O   0  0  0  0  0  0  0  0  0  0  0  0
    2.0600   17.3040  -28.9490 N   0  0  0  0  0  0  0  0  0  0  0  0
    2.6260   18.6740  -28.8900 C   0  0  0  0  0  0  0  0  0  0  0  0
    1.6380   19.7360  -28.3630 C   0  0  0  0  0  0  0  0  0  0  0  0
    0.3040   19.5940  -28.9560 N   0  0  0  0  0  0  0  0  0  0  0  0
   -0.8240   20.1900  -28.2990 C   0  0  0  0  0  0  0  0  0  0  0  0
   -1.5850   19.4670  -27.6030 O   0  0  0  0  0  0  0  0  0  0  0  0
   -1.1410   21.6190  -28.4640 C   0  0  0  0  0  0  0  0  0  0  0  0
   -0.0990   22.5390  -28.6760 C   0  0  0  0  0  0  0  0  0  0  0  0
   -0.3810   23.9010  -28.8400 C   0  0  0  0  0  0  0  0  0  0  0  0
   -1.7070   24.3540  -28.8110 C   0  0  0  0  0  0  0  0  0  0  0  0
   -1.9890   25.7100  -28.9740 O   0  0  0  0  0  0  0  0  0  0  0  0
   -2.7590   23.4350  -28.6380 C   0  0  0  0  0  0  0  0  0  0  0  0
   -4.1100   23.9090  -28.6380 N   0  0  0  0  0  0  0  0  0  0  0  0
   -4.8760   24.5940  -30.0340 S   0  0  0  0  0  0  0  0  0  0  0  0
   -5.9470   25.5710  -29.6310 O   0  0  0  0  0  0  0  0  0  0  0  0
   -3.8440   25.3310  -30.8390 O   0  0  0  0  0  0  0  0  0  0  0  0
   -5.5580   23.2890  -31.0010 C   0  0  0  0  0  0  0  0  0  0  0  0
   -4.7450   22.5520  -31.8690 C   0  0  0  0  0  0  0  0  0  0  0  0
   -5.2670   21.4600  -32.5690 C   0  0  0  0  0  0  0  0  0  0  0  0
   -6.6070   21.0770  -32.3980 C   0  0  0  0  0  0  0  0  0  0  0  0
   -7.4420   21.8360  -31.5420 C   0  0  0  0  0  0  0  0  0  0  0  0
   -6.9030   22.9290  -30.8400 C   0  0  0  0  0  0  0  0  0  0  0  0
   -8.8710   21.4310  -31.2730 C   0  0  0  0  0  0  0  0  0  0  0  0
   -9.4410   20.5370  -32.3780 C   0  0  0  0  0  0  0  0  0  0  0  0
   -8.4800   19.3900  -32.6840 C   0  0  0  0  0  0  0  0  0  0  0  0
   -7.1480   19.9280  -33.2190 C   0  0  0  0  0  0  0  0  0  0  0  0
   -2.4710   22.0720  -28.4620 C   0  0  0  0  0  0  0  0  0  0  0  0
    0.0730   18.4910  -29.8900 C   0  0  0  0  0  0  0  0  0  0  0  0
    0.6160   17.2090  -29.2600 C   0  0  0  0  0  0  0  0  0  0  0  0
    1.0802   15.3679  -25.8691 H   0  0  0  0  0  0  0  0  0  0  0  0
    0.1550   15.8133  -27.3430 H   0  0  0  0  0  0  0  0  0  0  0  0
    1.1933   14.3474  -27.3430 H   0  0  0  0  0  0  0  0  0  0  0  0
    3.5036   18.6580  -28.2270 H   0  0  0  0  0  0  0  0  0  0  0  0
    2.8813   18.9589  -29.9213 H   0  0  0  0  0  0  0  0  0  0  0  0
    1.5535   19.6305  -27.2713 H   0  0  0  0  0  0  0  0  0  0  0  0
    2.0273   20.7267  -28.6404 H   0  0  0  0  0  0  0  0  0  0  0  0
    0.9426   22.1873  -28.7132 H   0  0  0  0  0  0  0  0  0  0  0  0
    0.4402   24.6169  -28.9919 H   0  0  0  0  0  0  0  0  0  0  0  0
   -2.8840   26.0350  -29.3330 H   0  0  0  0  0  0  0  0  0  0  0  0
   -3.6898   22.8331  -32.0014 H   0  0  0  0  0  0  0  0  0  0  0  0
   -4.6225   20.8962  -33.2595 H   0  0  0  0  0  0  0  0  0  0  0  0
   -7.5435   23.5072  -30.1577 H   0  0  0  0  0  0  0  0  0  0  0  0
   -8.9097   20.8832  -30.3199 H   0  0  0  0  0  0  0  0  0  0  0  0
   -9.4784   22.3473  -31.2355 H   0  0  0  0  0  0  0  0  0  0  0  0
  -10.4055   20.1235  -32.0482 H   0  0  0  0  0  0  0  0  0  0  0  0
   -9.5791   21.1391  -33.2882 H   0  0  0  0  0  0  0  0  0  0  0  0
   -8.2947   18.8184  -31.7626 H   0  0  0  0  0  0  0  0  0  0  0  0
   -8.9334   18.7431  -33.4494 H   0  0  0  0  0  0  0  0  0  0  0  0
   -6.4105   19.1119  -33.2100 H   0  0  0  0  0  0  0  0  0  0  0  0
   -7.3281   20.3046  -34.2367 H   0  0  0  0  0  0  0  0  0  0  0  0
   -3.2924   21.3539  -28.3216 H   0  0  0  0  0  0  0  0  0  0  0  0
   -1.0051   18.3843  -30.0807 H   0  0  0  0  0  0  0  0  0  0  0  0
    0.5814   18.6895  -30.8450 H   0  0  0  0  0  0  0  0  0  0  0  0
    0.0656   17.0121  -28.3282 H   0  0  0  0  0  0  0  0  0  0  0  0
    0.4810   16.3938  -29.9861 H   0  0  0  0  0  0  0  0  0  0  0  0
  1  2  1  0
  2  3  2  0
  2  4  2  0
  2  5  1  0
  5  6  1  0
  6  7  1  0
  7  8  1  0
  8  9  1  0
  9 10  2  0
  9 11  1  0
 11 12  2  0
 12 13  1  0
 13 14  2  0
 14 15  1  0
 14 16  1  0
 16 17  1  0
 17 18  1  0
 18 19  2  0
 18 20  2  0
 18 21  1  0
 21 22  2  0
 22 23  1  0
 23 24  2  0
 24 25  1  0
 25 26  2  0
 25 27  1  0
 27 28  1  0
 28 29  1  0
 29 30  1  0
 16 31  2  0
  8 32  1  0
 32 33  1  0
 33  5  1  0
 31 11  1  0
 26 21  1  0
 30 24  1  0
  1 34  1  0
  1 35  1  0
  1 36  1  0
  6 37  1  0
  6 38  1  0
  7 39  1  0
  7 40  1  0
 12 41  1  0
 13 42  1  0
 15 43  1  0
 22 44  1  0
 23 45  1  0
 26 46  1  0
 27 47  1  0
 27 48  1  0
 28 49  1  0
 28 50  1  0
 29 51  1  0
 29 52  1  0
 30 53  1  0
 30 54  1  0
 31 55  1  0
 32 56  1  0
 32 57  1  0
 33 58  1  0
 33 59  1  0
M  CHG  1  17  -1
M  END
>  <UniqueID>  (31) 
29

>  <SMILES>  (31) 
CS(=O)(=O)N1CCN(C(=O)c2ccc(O)c([N-]S(=O)(=O)c3ccc4c(c3)CCCC4)c2)CC1

>  <Energy>  (31) 
80.59589131792568

>  <Genealogy>  (31) 
CS(=O)(=O)N1CCN(C(=O)c2ccc(O)c([N-]S(=O)(=O)c3ccc4c(c3)CCCC4)c2)CC1 (protonated)
CS(=O)(=O)N1CCN(C(=O)c2ccc(O)c([N-]S(=O)(=O)c3ccc4c(c3)CCCC4)c2)CC1 (3D coordinates assigned)
CS(=O)(=O)N1CCN(C(=O)c2ccc(O)c([N-]S(=O)(=O)c3ccc4c(c3)CCCC4)c2)CC1 (nonaromatic ring conformer: 80.59589131792568 kcal/mol)

>  <smiles>  (31) 
CS(=O)(=O)N1CCN(C(=O)c2ccc(O)c(NS(=O)(=O)c3ccc4c(c3)CCCC4)c2)CC1

>  <score_type>  (31) 
oracle

>  <origin>  (31) 
adgpu

>  <m_score__min__energy>  (31) 
-12.800000000000001

>  <m_primary>  (31) 
energy

$$$$
31:0
     RDKit          3D

 28 29  0  0  0  0  0  0  0  0999 V2000
   -6.5361   22.6302  -32.2152 H   0  0  0  0  0  0  0  0  0  0  0  0
   -6.2960   21.5800  -31.9930 C   0  0  0  0  0  0  0  0  0  0  0  0
   -7.1790   20.5240  -32.5300 C   0  0  0  0  0  0  0  0  0  0  0  0
   -8.4230   20.7290  -32.5320 O   0  0  0  0  0  0  0  0  0  0  0  0
   -6.6700   19.2370  -33.0560 C   0  0  0  0  0  0  0  0  0  0  0  0
   -5.8600   19.2360  -34.2050 C   0  0  0  0  0  0  0  0  0  0  0  0
   -5.6150   20.1863  -34.7019 H   0  0  0  0  0  0  0  0  0  0  0  0
   -5.3640   18.0350  -34.7200 C   0  0  0  0  0  0  0  0  0  0  0  0
   -4.7394   18.0424  -35.6254 H   0  0  0  0  0  0  0  0  0  0  0  0
   -5.6600   16.8250  -34.0870 C   0  0  0  0  0  0  0  0  0  0  0  0
   -5.1680   15.6320  -34.6020 O   0  0  0  0  0  0  0  0  0  0  0  0
   -6.4460   16.8160  -32.9320 C   0  0  0  0  0  0  0  0  0  0  0  0
   -6.6745   15.8631  -32.4323 H   0  0  0  0  0  0  0  0  0  0  0  0
   -6.9440   18.0150  -32.4080 C   0  0  0  0  0  0  0  0  0  0  0  0
   -7.6880   17.9820  -31.2330 O   0  0  0  0  0  0  0  0  0  0  0  0
   -5.2140   21.3130  -31.2460 C   0  0  0  0  0  0  0  0  0  0  0  0
   -4.9810   20.2597  -31.0308 H   0  0  0  0  0  0  0  0  0  0  0  0
   -4.3130   22.3540  -30.6930 C   0  0  0  0  0  0  0  0  0  0  0  0
   -3.0910   22.0450  -30.0640 C   0  0  0  0  0  0  0  0  0  0  0  0
   -2.7786   20.9953  -29.9617 H   0  0  0  0  0  0  0  0  0  0  0  0
   -2.2730   23.0650  -29.5690 C   0  0  0  0  0  0  0  0  0  0  0  0
   -1.3238   22.8141  -29.0730 H   0  0  0  0  0  0  0  0  0  0  0  0
   -2.6570   24.4030  -29.7020 C   0  0  0  0  0  0  0  0  0  0  0  0
   -1.8380   25.4100  -29.2050 O   0  0  0  0  0  0  0  0  0  0  0  0
   -3.8610   24.7220  -30.3380 C   0  0  0  0  0  0  0  0  0  0  0  0
   -4.2470   26.0500  -30.4770 O   0  0  0  0  0  0  0  0  0  0  0  0
   -4.6810   23.7040  -30.8350 C   0  0  0  0  0  0  0  0  0  0  0  0
   -5.6227   23.9616  -31.3418 H   0  0  0  0  0  0  0  0  0  0  0  0
  1  2  1  0
  2  3  1  0
  3  4  2  0
  3  5  1  0
  5  6  2  0
  6  7  1  0
  6  8  1  0
  8  9  1  0
  8 10  2  0
 10 11  1  0
 10 12  1  0
 12 13  1  0
 12 14  2  0
 14 15  1  0
  2 16  2  0
 16 17  1  0
 16 18  1  0
 18 19  2  0
 19 20  1  0
 19 21  1  0
 21 22  1  0
 21 23  2  0
 23 24  1  0
 23 25  1  0
 25 26  1  0
 25 27  2  0
 27 28  1  0
 14  5  1  0
 27 18  1  0
M  CHG  4  11  -1  15  -1  24  -1  26  -1
M  END
>  <UniqueID>  (32) 
30

>  <SMILES>  (32) 
O=C(/C=C/c1ccc([O-])c([O-])c1)c1ccc([O-])cc1[O-]

>  <Energy>  (32) 
38.08367530952151

>  <Genealogy>  (32) 
O=C(C=Cc1ccc([O-])c([O-])c1)c1ccc([O-])cc1[O-] (protonated)
O=C(/C=C/c1ccc([O-])c([O-])c1)c1ccc([O-])cc1[O-] (cis-trans isomerization)
O=C(/C=C/c1ccc([O-])c([O-])c1)c1ccc([O-])cc1[O-] (3D coordinates assigned)
O=C(/C=C/c1ccc([O-])c([O-])c1)c1ccc([O-])cc1[O-] (optimized conformer: 38.08367530952151 kcal/mol)

>  <smiles>  (32) 
O=C(C=Cc1ccc(O)c(O)c1)c1ccc(O)cc1O

>  <score_type>  (32) 
oracle

>  <origin>  (32) 
adgpu

>  <m_score__min__energy>  (32) 
-12.23

>  <m_primary>  (32) 
energy

$$$$
32:0
     RDKit          3D

 47 49  0  0  0  0  0  0  0  0999 V2000
   -1.2730   24.3780  -29.4640 O   0  0  0  0  0  0  0  0  0  0  0  0
   -1.8490   23.0630  -29.0160 S   0  0  0  0  0  0  0  0  0  0  0  0
   -1.0440   22.5570  -27.8500 O   0  0  0  0  0  0  0  0  0  0  0  0
   -3.5520   23.2810  -28.5290 C   0  0  0  0  0  0  0  0  0  0  0  0
   -4.4400   23.3400  -29.7440 C   0  0  0  0  0  0  0  0  0  0  0  0
   -5.1920   22.2100  -30.1040 C   0  0  0  0  0  0  0  0  0  0  0  0
   -6.0710   22.2600  -31.1940 C   0  0  0  0  0  0  0  0  0  0  0  0
   -7.0570   20.8570  -31.6030 S   0  0  0  0  0  0  0  0  0  0  0  0
   -8.2220   20.8010  -30.6540 O   0  0  0  0  0  0  0  0  0  0  0  0
   -7.5950   21.0210  -32.9970 O   0  0  0  0  0  0  0  0  0  0  0  0
   -6.1050   19.3920  -31.4480 N   0  0  0  0  0  0  0  0  0  0  0  0
   -4.9360   19.3650  -32.3560 C   0  0  0  0  0  0  0  0  0  0  0  0
   -5.3110   19.0590  -33.8120 C   0  0  0  0  0  0  0  0  0  0  0  0
   -6.1110   17.7610  -33.9010 C   0  0  0  0  0  0  0  0  0  0  0  0
   -7.3340   17.8150  -32.9880 C   0  0  0  0  0  0  0  0  0  0  0  0
   -6.9330   18.1690  -31.5450 C   0  0  0  0  0  0  0  0  0  0  0  0
   -6.2010   23.4450  -31.9270 C   0  0  0  0  0  0  0  0  0  0  0  0
   -5.4590   24.5730  -31.5740 C   0  0  0  0  0  0  0  0  0  0  0  0
   -4.5840   24.5300  -30.4830 C   0  0  0  0  0  0  0  0  0  0  0  0
   -3.8710   25.6730  -30.1370 O   0  0  0  0  0  0  0  0  0  0  0  0
   -1.7730   21.9020  -30.3360 C   0  0  0  0  0  0  0  0  0  0  0  0
   -1.1840   20.6460  -30.1360 C   0  0  0  0  0  0  0  0  0  0  0  0
   -1.1090   19.7290  -31.1900 C   0  0  0  0  0  0  0  0  0  0  0  0
   -1.6180   20.0660  -32.4490 C   0  0  0  0  0  0  0  0  0  0  0  0
   -1.5140   18.8130  -33.8870 Br  0  0  0  0  0  0  0  0  0  0  0  0
   -2.1990   21.3210  -32.6540 C   0  0  0  0  0  0  0  0  0  0  0  0
   -2.2740   22.2390  -31.6010 C   0  0  0  0  0  0  0  0  0  0  0  0
   -3.8593   22.4357  -27.8957 H   0  0  0  0  0  0  0  0  0  0  0  0
   -3.6465   24.2241  -27.9708 H   0  0  0  0  0  0  0  0  0  0  0  0
   -5.0903   21.2794  -29.5264 H   0  0  0  0  0  0  0  0  0  0  0  0
   -5.7250   19.4180  -30.4730 H   0  0  0  0  0  0  0  0  0  0  0  0
   -4.4427   20.3476  -32.3207 H   0  0  0  0  0  0  0  0  0  0  0  0
   -4.2723   18.5580  -32.0120 H   0  0  0  0  0  0  0  0  0  0  0  0
   -5.9180   19.8855  -34.2101 H   0  0  0  0  0  0  0  0  0  0  0  0
   -4.3877   18.9469  -34.3994 H   0  0  0  0  0  0  0  0  0  0  0  0
   -6.4422   17.6118  -34.9393 H   0  0  0  0  0  0  0  0  0  0  0  0
   -5.4682   16.9276  -33.5810 H   0  0  0  0  0  0  0  0  0  0  0  0
   -8.0303   18.5786  -33.3650 H   0  0  0  0  0  0  0  0  0  0  0  0
   -7.8116   16.8241  -32.9848 H   0  0  0  0  0  0  0  0  0  0  0  0
   -7.8494   18.3207  -30.9558 H   0  0  0  0  0  0  0  0  0  0  0  0
   -6.3261   17.3349  -31.1628 H   0  0  0  0  0  0  0  0  0  0  0  0
   -6.8898   23.4874  -32.7836 H   0  0  0  0  0  0  0  0  0  0  0  0
   -5.5625   25.5005  -32.1563 H   0  0  0  0  0  0  0  0  0  0  0  0
   -0.7797   20.3806  -29.1480 H   0  0  0  0  0  0  0  0  0  0  0  0
   -0.6496   18.7426  -31.0288 H   0  0  0  0  0  0  0  0  0  0  0  0
   -2.5975   21.5869  -33.6442 H   0  0  0  0  0  0  0  0  0  0  0  0
   -2.7272   23.2276  -31.7661 H   0  0  0  0  0  0  0  0  0  0  0  0
  1  2  2  0
  2  3  2  0
  2  4  1  0
  4  5  1  0
  5  6  2  0
  6  7  1  0
  7  8  1  0
  8  9  2  0
  8 10  2  0
  8 11  1  0
 11 12  1  0
 12 13  1  0
 13 14  1  0
 14 15  1  0
 15 16  1  0
  7 17  2  0
 17 18  1  0
 18 19  2  0
 19 20  1  0
  2 21  1  0
 21 22  2  0
 22 23  1  0
 23 24  2  0
 24 25  1  0
 24 26  1  0
 26 27  2  0
 19  5  1  0
 27 21  1  0
 16 11  1  0
  4 28  1  0
  4 29  1  0
  6 30  1  0
 11 31  1  0
 12 32  1  0
 12 33  1  0
 13 34  1  0
 13 35  1  0
 14 36  1  0
 14 37  1  0
 15 38  1  0
 15 39  1  0
 16 40  1  0
 16 41  1  0
 17 42  1  0
 18 43  1  0
 22 44  1  0
 23 45  1  0
 26 46  1  0
 27 47  1  0
M  CHG  2  11   1  20  -1
M  END
>  <UniqueID>  (33) 
31

>  <SMILES>  (33) 
O=S(=O)(Cc1cc(S(=O)(=O)[NH+]2CCCCC2)ccc1[O-])c1ccc(Br)cc1

>  <Energy>  (33) 
43.85917093234037

>  <Genealogy>  (33) 
O=S(=O)(Cc1cc(S(=O)(=O)[NH+]2CCCCC2)ccc1[O-])c1ccc(Br)cc1 (protonated)
O=S(=O)(Cc1cc(S(=O)(=O)[NH+]2CCCCC2)ccc1[O-])c1ccc(Br)cc1 (3D coordinates assigned)
O=S(=O)(Cc1cc(S(=O)(=O)[NH+]2CCCCC2)ccc1[O-])c1ccc(Br)cc1 (nonaromatic ring conformer: 43.85917093234037 kcal/mol)

>  <smiles>  (33) 
O=S(=O)(Cc1cc(S(=O)(=O)N2CCCCC2)ccc1O)c1ccc(Br)cc1

>  <score_type>  (33) 
oracle

>  <origin>  (33) 
adgpu

>  <m_score__min__energy>  (33) 
-12.18

>  <m_primary>  (33) 
energy

$$$$
33:0
     RDKit          3D

 41 44  0  0  0  0  0  0  0  0999 V2000
   -8.1490   19.8290  -30.8520 O   0  0  0  0  0  0  0  0  0  0  0  0
   -7.5400   20.4010  -32.1020 S   0  0  0  0  0  0  0  0  0  0  0  0
   -8.6510   20.7000  -33.0710 O   0  0  0  0  0  0  0  0  0  0  0  0
   -6.4230   19.2460  -32.8180 C   0  0  0  0  0  0  0  0  0  0  0  0
   -6.8650   17.9790  -33.2040 C   0  0  0  0  0  0  0  0  0  0  0  0
   -5.9650   17.0580  -33.7370 C   0  0  0  0  0  0  0  0  0  0  0  0
   -4.6100   17.3800  -33.8900 C   0  0  0  0  0  0  0  0  0  0  0  0
   -3.7800   16.3840  -34.4060 O   0  0  0  0  0  0  0  0  0  0  0  0
   -4.1530   18.6720  -33.5130 C   0  0  0  0  0  0  0  0  0  0  0  0
   -2.4730   19.2290  -33.6610 S   0  0  0  0  0  0  0  0  0  0  0  0
   -1.6520   18.3400  -34.5550 O   0  0  0  0  0  0  0  0  0  0  0  0
   -2.4900   20.5980  -34.2820 O   0  0  0  0  0  0  0  0  0  0  0  0
   -1.7630   19.3560  -32.0660 N   0  0  0  0  0  0  0  0  0  0  0  0
   -0.4830   20.0720  -32.0990 C   0  0  0  0  0  0  0  0  0  0  0  0
   -1.0360   21.2660  -31.3470 C   0  0  0  0  0  0  0  0  0  0  0  0
   -2.3360   20.4880  -31.3270 C   0  0  0  0  0  0  0  0  0  0  0  0
   -5.0730   19.5830  -32.9670 C   0  0  0  0  0  0  0  0  0  0  0  0
   -6.6630   21.8760  -31.7160 C   0  0  0  0  0  0  0  0  0  0  0  0
   -7.1290   23.1230  -32.1970 C   0  0  0  0  0  0  0  0  0  0  0  0
   -6.4220   24.3070  -31.9170 C   0  0  0  0  0  0  0  0  0  0  0  0
   -5.2560   24.2100  -31.1630 C   0  0  0  0  0  0  0  0  0  0  0  0
   -4.4460   25.2220  -30.8000 N   0  0  0  0  0  0  0  0  0  0  0  0
   -3.4640   24.6110  -30.0940 C   0  0  0  0  0  0  0  0  0  0  0  0
   -2.4020   25.2990  -29.5260 O   0  0  0  0  0  0  0  0  0  0  0  0
   -3.6390   23.2370  -30.0080 C   0  0  0  0  0  0  0  0  0  0  0  0
   -4.7990   23.0020  -30.7030 C   0  0  0  0  0  0  0  0  0  0  0  0
   -5.4740   21.8100  -30.9620 C   0  0  0  0  0  0  0  0  0  0  0  0
   -7.9246   17.7075  -33.0873 H   0  0  0  0  0  0  0  0  0  0  0  0
   -6.3237   16.0638  -34.0420 H   0  0  0  0  0  0  0  0  0  0  0  0
   -2.8300   16.5260  -34.7080 H   0  0  0  0  0  0  0  0  0  0  0  0
    0.3224   19.5515  -31.5601 H   0  0  0  0  0  0  0  0  0  0  0  0
    0.0039   20.2392  -33.0711 H   0  0  0  0  0  0  0  0  0  0  0  0
   -0.5844   21.4476  -30.3606 H   0  0  0  0  0  0  0  0  0  0  0  0
   -0.9611   22.2972  -31.7225 H   0  0  0  0  0  0  0  0  0  0  0  0
   -2.6708   20.2231  -30.3132 H   0  0  0  0  0  0  0  0  0  0  0  0
   -3.2455   20.9681  -31.7173 H   0  0  0  0  0  0  0  0  0  0  0  0
   -4.7261   20.5780  -32.6513 H   0  0  0  0  0  0  0  0  0  0  0  0
   -8.0515   23.1669  -32.7946 H   0  0  0  0  0  0  0  0  0  0  0  0
   -6.7802   25.2805  -32.2832 H   0  0  0  0  0  0  0  0  0  0  0  0
   -2.9955   22.5041  -29.4993 H   0  0  0  0  0  0  0  0  0  0  0  0
   -5.0908   20.8485  -30.5897 H   0  0  0  0  0  0  0  0  0  0  0  0
  1  2  2  0
  2  3  2  0
  2  4  1  0
  4  5  2  0
  5  6  1  0
  6  7  2  0
  7  8  1  0
  7  9  1  0
  9 10  1  0
 10 11  2  0
 10 12  2  0
 10 13  1  0
 13 14  1  0
 14 15  1  0
 15 16  1  0
  9 17  2  0
  2 18  1  0
 18 19  2  0
 19 20  1  0
 20 21  2  0
 21 22  1  0
 22 23  1  0
 23 24  1  0
 23 25  2  0
 25 26  1  0
 26 27  2  0
 17  4  1  0
 27 18  1  0
 16 13  1  0
 26 21  1  0
  5 28  1  0
  6 29  1  0
  8 30  1  0
 14 31  1  0
 14 32  1  0
 15 33  1  0
 15 34  1  0
 16 35  1  0
 16 36  1  0
 17 37  1  0
 19 38  1  0
 20 39  1  0
 25 40  1  0
 27 41  1  0
M  CHG  2  22  -1  24  -1
M  END
>  <UniqueID>  (34) 
32

>  <SMILES>  (34) 
O=S(=O)(c1ccc(O)c(S(=O)(=O)N2CCC2)c1)c1ccc2[n-]c([O-])cc2c1

>  <Energy>  (34) 
150.73499519800063

>  <Genealogy>  (34) 
O=S(=O)(c1ccc(O)c(S(=O)(=O)N2CCC2)c1)c1ccc2[n-]c([O-])cc2c1 (protonated)
O=S(=O)(c1ccc(O)c(S(=O)(=O)N2CCC2)c1)c1ccc2[n-]c([O-])cc2c1 (3D coordinates assigned)
O=S(=O)(c1ccc(O)c(S(=O)(=O)N2CCC2)c1)c1ccc2[n-]c([O-])cc2c1 (nonaromatic ring conformer: 150.73499519800063 kcal/mol)

>  <smiles>  (34) 
O=S(=O)(c1ccc(O)c(S(=O)(=O)N2CCC2)c1)c1ccc2[nH]c(O)cc2c1

>  <score_type>  (34) 
oracle

>  <origin>  (34) 
adgpu

>  <m_score__min__energy>  (34) 
-12.640000000000001

>  <m_primary>  (34) 
energy

$$$$
34:0
     RDKit          3D

 38 39  0  0  0  0  0  0  0  0999 V2000
   -6.6770   17.2130  -33.1770 C   0  0  0  0  0  0  0  0  0  0  0  0
   -7.4720   18.3510  -32.6210 C   0  0  0  0  0  0  0  0  0  0  0  0
   -8.6540   18.1960  -31.9920 N   0  0  0  0  0  0  0  0  0  0  0  0
   -9.1270   19.3940  -31.6840 N   0  0  0  0  0  0  0  0  0  0  0  0
   -8.2540   20.3230  -32.1210 C   0  0  0  0  0  0  0  0  0  0  0  0
   -8.4690   21.7940  -31.9740 C   0  0  0  0  0  0  0  0  0  0  0  0
   -7.1820   19.7000  -32.7330 C   0  0  0  0  0  0  0  0  0  0  0  0
   -6.0100   20.3390  -33.4310 C   0  0  0  0  0  0  0  0  0  0  0  0
   -5.5240   21.5970  -32.7000 C   0  0  0  0  0  0  0  0  0  0  0  0
   -4.1590   21.3990  -32.1090 C   0  0  0  0  0  0  0  0  0  0  0  0
   -3.3210   20.6830  -32.7200 O   0  0  0  0  0  0  0  0  0  0  0  0
   -3.7950   22.0850  -30.9000 N   0  0  0  0  0  0  0  0  0  0  0  0
   -2.5540   21.8750  -30.2000 C   0  0  0  0  0  0  0  0  0  0  0  0
   -1.9110   20.6230  -30.2640 C   0  0  0  0  0  0  0  0  0  0  0  0
   -0.7210   20.3990  -29.5690 C   0  0  0  0  0  0  0  0  0  0  0  0
   -0.1650   21.4110  -28.7890 C   0  0  0  0  0  0  0  0  0  0  0  0
   -0.8000   22.6500  -28.6950 C   0  0  0  0  0  0  0  0  0  0  0  0
   -1.9960   22.8950  -29.3910 C   0  0  0  0  0  0  0  0  0  0  0  0
   -2.7660   24.4810  -29.2380 S   0  0  0  0  0  0  0  0  0  0  0  0
   -1.5620   25.6990  -29.0010 N   0  0  0  0  0  0  0  0  0  0  0  0
   -3.7010   24.4960  -28.0610 O   0  0  0  0  0  0  0  0  0  0  0  0
   -3.5480   24.7810  -30.4860 O   0  0  0  0  0  0  0  0  0  0  0  0
   -6.2612   16.6179  -32.3506 H   0  0  0  0  0  0  0  0  0  0  0  0
   -7.3288   16.5777  -33.7947 H   0  0  0  0  0  0  0  0  0  0  0  0
   -5.8562   17.6064  -33.7947 H   0  0  0  0  0  0  0  0  0  0  0  0
   -8.5070   22.0541  -30.9059 H   0  0  0  0  0  0  0  0  0  0  0  0
   -7.6404   22.3354  -32.4539 H   0  0  0  0  0  0  0  0  0  0  0  0
   -9.4179   22.0757  -32.4539 H   0  0  0  0  0  0  0  0  0  0  0  0
   -5.1846   19.6133  -33.4766 H   0  0  0  0  0  0  0  0  0  0  0  0
   -6.3345   20.6352  -34.4394 H   0  0  0  0  0  0  0  0  0  0  0  0
   -5.4861   22.4328  -33.4142 H   0  0  0  0  0  0  0  0  0  0  0  0
   -6.2260   21.8121  -31.8809 H   0  0  0  0  0  0  0  0  0  0  0  0
   -4.4630   22.7990  -30.5340 H   0  0  0  0  0  0  0  0  0  0  0  0
   -2.3505   19.8147  -30.8670 H   0  0  0  0  0  0  0  0  0  0  0  0
   -0.2212   19.4215  -29.6373 H   0  0  0  0  0  0  0  0  0  0  0  0
    0.7754   21.2330  -28.2468 H   0  0  0  0  0  0  0  0  0  0  0  0
   -0.3605   23.4419  -28.0706 H   0  0  0  0  0  0  0  0  0  0  0  0
   -1.2380   25.9910  -29.9490 H   0  0  0  0  0  0  0  0  0  0  0  0
  1  2  1  0
  2  3  2  0
  3  4  1  0
  4  5  1  0
  5  6  1  0
  5  7  2  0
  7  8  1  0
  8  9  1  0
  9 10  1  0
 10 11  2  0
 10 12  1  0
 12 13  1  0
 13 14  2  0
 14 15  1  0
 15 16  2  0
 16 17  1  0
 17 18  2  0
 18 19  1  0
 19 20  1  0
 19 21  2  0
 19 22  2  0
  7  2  1  0
 18 13  1  0
  1 23  1  0
  1 24  1  0
  1 25  1  0
  6 26  1  0
  6 27  1  0
  6 28  1  0
  8 29  1  0
  8 30  1  0
  9 31  1  0
  9 32  1  0
 12 33  1  0
 14 34  1  0
 15 35  1  0
 16 36  1  0
 17 37  1  0
 20 38  1  0
M  CHG  2   4  -1  20  -1
M  END
>  <UniqueID>  (35) 
33

>  <SMILES>  (35) 
Cc1n[n-]c(C)c1CCC(=O)Nc1ccccc1S([NH-])(=O)=O

>  <Energy>  (35) 
64.63663509215444

>  <Genealogy>  (35) 
Cc1n[n-]c(C)c1CCC(=O)Nc1ccccc1S([NH-])(=O)=O (protonated)
Cc1n[n-]c(C)c1CCC(=O)Nc1ccccc1S([NH-])(=O)=O (3D coordinates assigned)
Cc1n[n-]c(C)c1CCC(=O)Nc1ccccc1S([NH-])(=O)=O (optimized conformer: 64.63663509215444 kcal/mol)

>  <smiles>  (35) 
Cc1n[nH]c(C)c1CCC(=O)Nc1ccccc1S(N)(=O)=O

>  <score_type>  (35) 
oracle

>  <origin>  (35) 
adgpu

>  <m_score__min__energy>  (35) 
-10.07

>  <m_primary>  (35) 
energy

$$$$
35:0
     RDKit          3D

 65 68  0  0  0  0  0  0  0  0999 V2000
   -1.0260   25.9360  -27.7570 C   0  0  0  0  0  0  0  0  0  0  0  0
   -1.3140   25.3250  -29.0090 O   0  0  0  0  0  0  0  0  0  0  0  0
   -1.7810   24.0100  -29.1680 C   0  0  0  0  0  0  0  0  0  0  0  0
   -1.0910   22.9030  -28.6320 C   0  0  0  0  0  0  0  0  0  0  0  0
   -1.5810   21.6000  -28.8160 C   0  0  0  0  0  0  0  0  0  0  0  0
   -0.8410   20.4710  -28.3210 N   0  0  0  0  0  0  0  0  0  0  0  0
    0.6170   20.5780  -28.1530 C   0  0  0  0  0  0  0  0  0  0  0  0
    1.3290   19.2080  -28.2380 C   0  0  0  0  0  0  0  0  0  0  0  0
    0.4080   18.0560  -28.1040 N   0  0  0  0  0  0  0  0  0  0  0  0
    1.1490   16.8370  -27.7520 C   0  0  0  0  0  0  0  0  0  0  0  0
   -0.6420   18.3270  -27.1100 C   0  0  0  0  0  0  0  0  0  0  0  0
   -1.5870   19.3780  -27.6850 C   0  0  0  0  0  0  0  0  0  0  0  0
   -2.7720   21.4080  -29.5280 C   0  0  0  0  0  0  0  0  0  0  0  0
   -3.4550   22.4970  -30.0680 C   0  0  0  0  0  0  0  0  0  0  0  0
   -2.9580   23.8000  -29.9070 C   0  0  0  0  0  0  0  0  0  0  0  0
   -3.6440   24.9270  -30.4640 N   0  0  0  0  0  0  0  0  0  0  0  0
   -5.3640   25.1480  -30.3890 S   0  0  0  0  0  0  0  0  0  0  0  0
   -5.7610   25.4100  -28.9640 O   0  0  0  0  0  0  0  0  0  0  0  0
   -5.7360   26.3500  -31.2160 O   0  0  0  0  0  0  0  0  0  0  0  0
   -6.2190   23.7200  -30.9590 C   0  0  0  0  0  0  0  0  0  0  0  0
   -5.8930   23.1420  -32.1960 C   0  0  0  0  0  0  0  0  0  0  0  0
   -6.5060   21.9530  -32.6000 C   0  0  0  0  0  0  0  0  0  0  0  0
   -7.4540   21.3360  -31.7740 C   0  0  0  0  0  0  0  0  0  0  0  0
   -8.1830   19.8170  -32.2880 S   0  0  0  0  0  0  0  0  0  0  0  0
   -9.1180   20.0500  -33.4450 O   0  0  0  0  0  0  0  0  0  0  0  0
   -8.9670   19.2520  -31.1340 O   0  0  0  0  0  0  0  0  0  0  0  0
   -6.9260   18.7000  -32.7590 N   0  0  0  0  0  0  0  0  0  0  0  0
   -5.8910   18.5760  -31.7020 C   0  0  0  0  0  0  0  0  0  0  0  0
   -4.6310   19.4020  -31.9960 C   0  0  0  0  0  0  0  0  0  0  0  0
   -3.9930   18.9910  -33.3320 C   0  0  0  0  0  0  0  0  0  0  0  0
   -5.0210   18.4540  -34.3440 C   0  0  0  0  0  0  0  0  0  0  0  0
   -6.4020   19.0680  -34.0930 C   0  0  0  0  0  0  0  0  0  0  0  0
   -7.8000   21.9240  -30.5490 C   0  0  0  0  0  0  0  0  0  0  0  0
   -7.1820   23.1120  -30.1420 C   0  0  0  0  0  0  0  0  0  0  0  0
   -1.3409   25.2679  -26.9419 H   0  0  0  0  0  0  0  0  0  0  0  0
    0.0552   26.1233  -27.6805 H   0  0  0  0  0  0  0  0  0  0  0  0
   -1.5696   26.8892  -27.6805 H   0  0  0  0  0  0  0  0  0  0  0  0
   -0.1616   23.0615  -28.0653 H   0  0  0  0  0  0  0  0  0  0  0  0
    1.0154   21.2314  -28.9432 H   0  0  0  0  0  0  0  0  0  0  0  0
    0.8069   20.9898  -27.1508 H   0  0  0  0  0  0  0  0  0  0  0  0
    1.8350   19.1381  -29.2122 H   0  0  0  0  0  0  0  0  0  0  0  0
    2.0361   19.1573  -27.3969 H   0  0  0  0  0  0  0  0  0  0  0  0
    1.2049   16.7451  -26.6573 H   0  0  0  0  0  0  0  0  0  0  0  0
    0.6310   15.9601  -28.1676 H   0  0  0  0  0  0  0  0  0  0  0  0
    2.1659   16.8932  -28.1676 H   0  0  0  0  0  0  0  0  0  0  0  0
   -1.1992   17.4030  -26.8964 H   0  0  0  0  0  0  0  0  0  0  0  0
   -0.1929   18.6925  -26.1747 H   0  0  0  0  0  0  0  0  0  0  0  0
   -2.2377   18.9039  -28.4345 H   0  0  0  0  0  0  0  0  0  0  0  0
   -2.1848   19.7967  -26.8620 H   0  0  0  0  0  0  0  0  0  0  0  0
   -3.1709   20.3917  -29.6619 H   0  0  0  0  0  0  0  0  0  0  0  0
   -4.3899   22.3340  -30.6242 H   0  0  0  0  0  0  0  0  0  0  0  0
   -5.1526   23.6266  -32.8494 H   0  0  0  0  0  0  0  0  0  0  0  0
   -6.2437   21.5011  -33.5680 H   0  0  0  0  0  0  0  0  0  0  0  0
   -6.3204   18.9189  -30.7491 H   0  0  0  0  0  0  0  0  0  0  0  0
   -5.5890   17.5191  -31.6598 H   0  0  0  0  0  0  0  0  0  0  0  0
   -4.9032   20.4668  -32.0415 H   0  0  0  0  0  0  0  0  0  0  0  0
   -3.9017   19.2206  -31.1927 H   0  0  0  0  0  0  0  0  0  0  0  0
   -3.4956   19.8695  -33.7689 H   0  0  0  0  0  0  0  0  0  0  0  0
   -3.2797   18.1802  -33.1227 H   0  0  0  0  0  0  0  0  0  0  0  0
   -4.6923   18.7093  -35.3622 H   0  0  0  0  0  0  0  0  0  0  0  0
   -5.0936   17.3625  -34.2280 H   0  0  0  0  0  0  0  0  0  0  0  0
   -6.3227   20.1633  -34.1559 H   0  0  0  0  0  0  0  0  0  0  0  0
   -7.0950   18.6805  -34.8544 H   0  0  0  0  0  0  0  0  0  0  0  0
   -8.5579   21.4511  -29.9072 H   0  0  0  0  0  0  0  0  0  0  0  0
   -7.4526   23.5695  -29.1789 H   0  0  0  0  0  0  0  0  0  0  0  0
  1  2  1  0
  2  3  1  0
  3  4  2  0
  4  5  1  0
  5  6  1  0
  6  7  1  0
  7  8  1  0
  8  9  1  0
  9 10  1  0
  9 11  1  0
 11 12  1  0
  5 13  2  0
 13 14  1  0
 14 15  2  0
 15 16  1  0
 16 17  1  0
 17 18  2  0
 17 19  2  0
 17 20  1  0
 20 21  2  0
 21 22  1  0
 22 23  2  0
 23 24  1  0
 24 25  2  0
 24 26  2  0
 24 27  1  0
 27 28  1  0
 28 29  1  0
 29 30  1  0
 30 31  1  0
 31 32  1  0
 23 33  1  0
 33 34  2  0
 15  3  1  0
 34 20  1  0
 12  6  1  0
 32 27  1  0
  1 35  1  0
  1 36  1  0
  1 37  1  0
  4 38  1  0
  7 39  1  0
  7 40  1  0
  8 41  1  0
  8 42  1  0
 10 43  1  0
 10 44  1  0
 10 45  1  0
 11 46  1  0
 11 47  1  0
 12 48  1  0
 12 49  1  0
 13 50  1  0
 14 51  1  0
 21 52  1  0
 22 53  1  0
 28 54  1  0
 28 55  1  0
 29 56  1  0
 29 57  1  0
 30 58  1  0
 30 59  1  0
 31 60  1  0
 31 61  1  0
 32 62  1  0
 32 63  1  0
 33 64  1  0
 34 65  1  0
M  CHG  1  16  -1
M  END
>  <UniqueID>  (36) 
34

>  <SMILES>  (36) 
COc1cc(N2CCN(C)CC2)ccc1[N-]S(=O)(=O)c1ccc(S(=O)(=O)N2CCCCC2)cc1

>  <Energy>  (36) 
87.91437638687441

>  <Genealogy>  (36) 
COc1cc(N2CCN(C)CC2)ccc1[N-]S(=O)(=O)c1ccc(S(=O)(=O)N2CCCCC2)cc1 (protonated)
COc1cc(N2CCN(C)CC2)ccc1[N-]S(=O)(=O)c1ccc(S(=O)(=O)N2CCCCC2)cc1 (3D coordinates assigned)
COc1cc(N2CCN(C)CC2)ccc1[N-]S(=O)(=O)c1ccc(S(=O)(=O)N2CCCCC2)cc1 (nonaromatic ring conformer: 87.91437638687441 kcal/mol)

>  <smiles>  (36) 
COc1cc(N2CCN(C)CC2)ccc1NS(=O)(=O)c1ccc(S(=O)(=O)N2CCCCC2)cc1

>  <score_type>  (36) 
oracle

>  <origin>  (36) 
adgpu

>  <m_score__min__energy>  (36) 
-12.66

>  <m_primary>  (36) 
energy

$$$$
36:0
     RDKit          3D

 34 35  0  0  0  0  0  0  0  0999 V2000
   -0.9560   22.0380  -28.3950 C   0  0  0  0  0  0  0  0  0  0  0  0
   -1.9560   22.9000  -29.1190 C   0  0  0  0  0  0  0  0  0  0  0  0
   -2.7770   22.3310  -30.1010 C   0  0  0  0  0  0  0  0  0  0  0  0
   -3.7070   23.1130  -30.7920 C   0  0  0  0  0  0  0  0  0  0  0  0
   -4.6950   22.3740  -32.0600 S   0  0  0  0  0  0  0  0  0  0  0  0
   -5.7820   23.3300  -32.4650 O   0  0  0  0  0  0  0  0  0  0  0  0
   -3.8500   22.0840  -33.2680 O   0  0  0  0  0  0  0  0  0  0  0  0
   -5.4430   20.8640  -31.4600 C   0  0  0  0  0  0  0  0  0  0  0  0
   -6.9340   20.8680  -31.7030 C   0  0  0  0  0  0  0  0  0  0  0  0
   -7.7470   21.7980  -31.0230 C   0  0  0  0  0  0  0  0  0  0  0  0
   -7.2010   22.7130  -30.1830 F   0  0  0  0  0  0  0  0  0  0  0  0
   -9.1340   21.7810  -31.1930 C   0  0  0  0  0  0  0  0  0  0  0  0
   -9.7270   20.8430  -32.0390 C   0  0  0  0  0  0  0  0  0  0  0  0
   -8.9340   19.9170  -32.7180 C   0  0  0  0  0  0  0  0  0  0  0  0
   -7.5440   19.9190  -32.5560 C   0  0  0  0  0  0  0  0  0  0  0  0
   -6.6070   18.7170  -33.4390 Cl  0  0  0  0  0  0  0  0  0  0  0  0
   -3.7930   24.4830  -30.4960 C   0  0  0  0  0  0  0  0  0  0  0  0
   -4.6050   25.2210  -31.1160 O   0  0  0  0  0  0  0  0  0  0  0  0
   -2.9870   25.0260  -29.5420 N   0  0  0  0  0  0  0  0  0  0  0  0
   -2.0740   24.2820  -28.8530 C   0  0  0  0  0  0  0  0  0  0  0  0
   -1.2110   24.9470  -27.8120 C   0  0  0  0  0  0  0  0  0  0  0  0
   -1.0902   22.1537  -27.3094 H   0  0  0  0  0  0  0  0  0  0  0  0
   -1.1100   20.9850  -28.6734 H   0  0  0  0  0  0  0  0  0  0  0  0
    0.0628   22.3456  -28.6734 H   0  0  0  0  0  0  0  0  0  0  0  0
   -2.6891   21.2588  -30.3305 H   0  0  0  0  0  0  0  0  0  0  0  0
   -4.9949   20.0070  -31.9842 H   0  0  0  0  0  0  0  0  0  0  0  0
   -5.2634   20.7886  -30.3774 H   0  0  0  0  0  0  0  0  0  0  0  0
   -9.7606   22.5097  -30.6579 H   0  0  0  0  0  0  0  0  0  0  0  0
  -10.8191   20.8335  -32.1706 H   0  0  0  0  0  0  0  0  0  0  0  0
   -9.4049   19.1802  -33.3854 H   0  0  0  0  0  0  0  0  0  0  0  0
   -3.0750   26.0490  -29.3430 H   0  0  0  0  0  0  0  0  0  0  0  0
   -1.5685   24.6715  -26.8089 H   0  0  0  0  0  0  0  0  0  0  0  0
   -0.1690   24.6160  -27.9336 H   0  0  0  0  0  0  0  0  0  0  0  0
   -1.2655   26.0389  -27.9336 H   0  0  0  0  0  0  0  0  0  0  0  0
  1  2  1  0
  2  3  1  0
  3  4  2  0
  4  5  1  0
  5  6  2  0
  5  7  2  0
  5  8  1  0
  8  9  1  0
  9 10  2  0
 10 11  1  0
 10 12  1  0
 12 13  2  0
 13 14  1  0
 14 15  2  0
 15 16  1  0
  4 17  1  0
 17 18  2  0
 17 19  1  0
 19 20  1  0
 20 21  1  0
 20  2  2  0
 15  9  1  0
  1 22  1  0
  1 23  1  0
  1 24  1  0
  3 25  1  0
  8 26  1  0
  8 27  1  0
 12 28  1  0
 13 29  1  0
 14 30  1  0
 19 31  1  0
 21 32  1  0
 21 33  1  0
 21 34  1  0
M  END
>  <UniqueID>  (37) 
35

>  <SMILES>  (37) 
Cc1cc(S(=O)(=O)Cc2c(F)cccc2Cl)c(=O)[nH]c1C

>  <Energy>  (37) 
33.06550906049208

>  <Genealogy>  (37) 
Cc1cc(S(=O)(=O)Cc2c(F)cccc2Cl)c(=O)[nH]c1C (3D coordinates assigned)
Cc1cc(S(=O)(=O)Cc2c(F)cccc2Cl)c(=O)[nH]c1C (optimized conformer: 33.06550906049208 kcal/mol)

>  <smiles>  (37) 
Cc1cc(S(=O)(=O)Cc2c(F)cccc2Cl)c(=O)[nH]c1C

>  <score_type>  (37) 
oracle

>  <origin>  (37) 
adgpu

>  <m_score__min__energy>  (37) 
-9.0299999999999994

>  <m_primary>  (37) 
energy

$$$$
37:0
     RDKit          3D

 59 62  0  0  0  0  0  0  0  0999 V2000
   -5.6900   25.2110  -28.9720 O   0  0  0  0  0  0  0  0  0  0  0  0
   -5.2770   24.9730  -30.3970 S   0  0  0  0  0  0  0  0  0  0  0  0
   -5.7330   26.1420  -31.2260 O   0  0  0  0  0  0  0  0  0  0  0  0
   -3.5460   24.8680  -30.4670 N   0  0  0  0  0  0  0  0  0  0  0  0
   -2.7770   23.7910  -29.9200 C   0  0  0  0  0  0  0  0  0  0  0  0
   -2.2950   22.7620  -30.7450 C   0  0  0  0  0  0  0  0  0  0  0  0
   -1.5470   21.7080  -30.2060 C   0  0  0  0  0  0  0  0  0  0  0  0
   -0.9110   20.4450  -31.2640 S   0  0  0  0  0  0  0  0  0  0  0  0
    0.0080   19.5580  -30.4720 O   0  0  0  0  0  0  0  0  0  0  0  0
   -2.0490   19.6000  -31.7680 O   0  0  0  0  0  0  0  0  0  0  0  0
   -0.0430   21.1070  -32.6270 N   0  0  0  0  0  0  0  0  0  0  0  0
    1.1430   20.2870  -32.9300 C   0  0  0  0  0  0  0  0  0  0  0  0
    1.7650   20.7050  -34.2780 C   0  0  0  0  0  0  0  0  0  0  0  0
    1.2470   21.9480  -34.7110 O   0  0  0  0  0  0  0  0  0  0  0  0
   -0.1390   21.8260  -34.9810 C   0  0  0  0  0  0  0  0  0  0  0  0
   -0.9150   21.1950  -33.8060 C   0  0  0  0  0  0  0  0  0  0  0  0
   -1.3100   21.6620  -28.8270 C   0  0  0  0  0  0  0  0  0  0  0  0
   -1.8220   22.6600  -27.9940 C   0  0  0  0  0  0  0  0  0  0  0  0
   -2.5580   23.7220  -28.5310 C   0  0  0  0  0  0  0  0  0  0  0  0
   -3.0540   24.6990  -27.6680 O   0  0  0  0  0  0  0  0  0  0  0  0
   -6.0600   23.5070  -30.9820 C   0  0  0  0  0  0  0  0  0  0  0  0
   -7.3500   23.5630  -31.5300 C   0  0  0  0  0  0  0  0  0  0  0  0
   -7.9930   22.3890  -31.9330 C   0  0  0  0  0  0  0  0  0  0  0  0
   -7.3520   21.1500  -31.7970 C   0  0  0  0  0  0  0  0  0  0  0  0
   -8.1720   19.6700  -32.2950 S   0  0  0  0  0  0  0  0  0  0  0  0
   -9.4970   20.0340  -32.9050 O   0  0  0  0  0  0  0  0  0  0  0  0
   -8.4440   18.8250  -31.0820 O   0  0  0  0  0  0  0  0  0  0  0  0
   -7.2400   18.7410  -33.4520 N   0  0  0  0  0  0  0  0  0  0  0  0
   -6.0450   19.4630  -33.9390 C   0  0  0  0  0  0  0  0  0  0  0  0
   -4.7430   18.9810  -33.2780 C   0  0  0  0  0  0  0  0  0  0  0  0
   -4.9980   18.5190  -31.9720 O   0  0  0  0  0  0  0  0  0  0  0  0
   -5.7320   17.3120  -32.0250 C   0  0  0  0  0  0  0  0  0  0  0  0
   -6.9500   17.3760  -32.9780 C   0  0  0  0  0  0  0  0  0  0  0  0
   -6.0640   21.0950  -31.2480 C   0  0  0  0  0  0  0  0  0  0  0  0
   -5.4200   22.2680  -30.8450 C   0  0  0  0  0  0  0  0  0  0  0  0
   -2.5069   22.7841  -31.8242 H   0  0  0  0  0  0  0  0  0  0  0  0
    1.8879   20.4207  -32.1317 H   0  0  0  0  0  0  0  0  0  0  0  0
    0.8368   19.2324  -32.9937 H   0  0  0  0  0  0  0  0  0  0  0  0
    2.8553   20.7910  -34.1599 H   0  0  0  0  0  0  0  0  0  0  0  0
    1.5181   19.9411  -35.0300 H   0  0  0  0  0  0  0  0  0  0  0  0
   -0.5497   22.8272  -35.1782 H   0  0  0  0  0  0  0  0  0  0  0  0
   -0.2535   21.1640  -35.8520 H   0  0  0  0  0  0  0  0  0  0  0  0
   -1.7894   21.8187  -33.5683 H   0  0  0  0  0  0  0  0  0  0  0  0
   -1.2474   20.1854  -34.0894 H   0  0  0  0  0  0  0  0  0  0  0  0
   -0.7196   20.8387  -28.3986 H   0  0  0  0  0  0  0  0  0  0  0  0
   -1.6454   22.6106  -26.9094 H   0  0  0  0  0  0  0  0  0  0  0  0
   -3.8070   25.3240  -27.9330 H   0  0  0  0  0  0  0  0  0  0  0  0
   -7.8567   24.5328  -31.6429 H   0  0  0  0  0  0  0  0  0  0  0  0
   -9.0062   22.4378  -32.3586 H   0  0  0  0  0  0  0  0  0  0  0  0
   -5.9632   19.3131  -35.0257 H   0  0  0  0  0  0  0  0  0  0  0  0
   -6.1728   20.5245  -33.6803 H   0  0  0  0  0  0  0  0  0  0  0  0
   -4.3147   18.1624  -33.8750 H   0  0  0  0  0  0  0  0  0  0  0  0
   -4.0355   19.8218  -33.2276 H   0  0  0  0  0  0  0  0  0  0  0  0
   -5.0615   16.5107  -32.3691 H   0  0  0  0  0  0  0  0  0  0  0  0
   -6.1202   17.1227  -31.0133 H   0  0  0  0  0  0  0  0  0  0  0  0
   -6.7461   16.7380  -33.8506 H   0  0  0  0  0  0  0  0  0  0  0  0
   -7.8282   17.0308  -32.4127 H   0  0  0  0  0  0  0  0  0  0  0  0
   -5.5579   20.1250  -31.1338 H   0  0  0  0  0  0  0  0  0  0  0  0
   -4.4072   22.2185  -30.4188 H   0  0  0  0  0  0  0  0  0  0  0  0
  1  2  2  0
  2  3  2  0
  2  4  1  0
  4  5  1  0
  5  6  2  0
  6  7  1  0
  7  8  1  0
  8  9  2  0
  8 10  2  0
  8 11  1  0
 11 12  1  0
 12 13  1  0
 13 14  1  0
 14 15  1  0
 15 16  1  0
  7 17  2  0
 17 18  1  0
 18 19  2  0
 19 20  1  0
  2 21  1  0
 21 22  2  0
 22 23  1  0
 23 24  2  0
 24 25  1  0
 25 26  2  0
 25 27  2  0
 25 28  1  0
 28 29  1  0
 29 30  1  0
 30 31  1  0
 31 32  1  0
 32 33  1  0
 24 34  1  0
 34 35  2  0
 19  5  1  0
 35 21  1  0
 16 11  1  0
 33 28  1  0
  6 36  1  0
 12 37  1  0
 12 38  1  0
 13 39  1  0
 13 40  1  0
 15 41  1  0
 15 42  1  0
 16 43  1  0
 16 44  1  0
 17 45  1  0
 18 46  1  0
 20 47  1  0
 22 48  1  0
 23 49  1  0
 29 50  1  0
 29 51  1  0
 30 52  1  0
 30 53  1  0
 32 54  1  0
 32 55  1  0
 33 56  1  0
 33 57  1  0
 34 58  1  0
 35 59  1  0
M  CHG  1   4  -1
M  END
>  <UniqueID>  (38) 
36

>  <SMILES>  (38) 
O=S(=O)([N-]c1cc(S(=O)(=O)N2CCOCC2)ccc1O)c1ccc(S(=O)(=O)N2CCOCC2)cc1

>  <Energy>  (38) 
85.58258255018933

>  <Genealogy>  (38) 
O=S(=O)([N-]c1cc(S(=O)(=O)N2CCOCC2)ccc1O)c1ccc(S(=O)(=O)N2CCOCC2)cc1 (protonated)
O=S(=O)([N-]c1cc(S(=O)(=O)N2CCOCC2)ccc1O)c1ccc(S(=O)(=O)N2CCOCC2)cc1 (3D coordinates assigned)
O=S(=O)([N-]c1cc(S(=O)(=O)N2CCOCC2)ccc1O)c1ccc(S(=O)(=O)N2CCOCC2)cc1 (nonaromatic ring conformer: 85.58258255018933 kcal/mol)

>  <smiles>  (38) 
O=S(=O)(Nc1cc(S(=O)(=O)N2CCOCC2)ccc1O)c1ccc(S(=O)(=O)N2CCOCC2)cc1

>  <score_type>  (38) 
oracle

>  <origin>  (38) 
adgpu

>  <m_score__min__energy>  (38) 
-12.34

>  <m_primary>  (38) 
energy

$$$$
38:0
     RDKit          3D

 56 59  0  0  0  0  0  0  0  0999 V2000
   -5.6940   26.0890  -30.9220 O   0  0  0  0  0  0  0  0  0  0  0  0
   -5.1240   24.8900  -30.1900 S   0  0  0  0  0  0  0  0  0  0  0  0
   -5.5340   24.9710  -28.7370 O   0  0  0  0  0  0  0  0  0  0  0  0
   -3.3870   24.9370  -30.2890 N   0  0  0  0  0  0  0  0  0  0  0  0
   -2.4540   24.3270  -29.3860 C   0  0  0  0  0  0  0  0  0  0  0  0
   -2.5500   22.9730  -29.0040 C   0  0  0  0  0  0  0  0  0  0  0  0
   -1.6640   22.4340  -28.0600 C   0  0  0  0  0  0  0  0  0  0  0  0
   -1.8330   20.7610  -27.5240 S   0  0  0  0  0  0  0  0  0  0  0  0
   -1.9450   20.7300  -26.0180 O   0  0  0  0  0  0  0  0  0  0  0  0
   -3.0910   20.1710  -28.1100 O   0  0  0  0  0  0  0  0  0  0  0  0
   -0.4460   19.8400  -28.0660 N   0  0  0  0  0  0  0  0  0  0  0  0
   -0.4540   18.4890  -27.5040 C   0  0  0  0  0  0  0  0  0  0  0  0
    0.3100   17.6100  -28.4800 C   0  0  0  0  0  0  0  0  0  0  0  0
    0.1860   18.3120  -29.8170 C   0  0  0  0  0  0  0  0  0  0  0  0
   -0.4530   19.6660  -29.5220 C   0  0  0  0  0  0  0  0  0  0  0  0
   -0.6270   23.2260  -27.5500 C   0  0  0  0  0  0  0  0  0  0  0  0
   -0.4770   24.5450  -27.9840 C   0  0  0  0  0  0  0  0  0  0  0  0
   -1.3880   25.0990  -28.8940 C   0  0  0  0  0  0  0  0  0  0  0  0
   -1.2370   26.4240  -29.3040 O   0  0  0  0  0  0  0  0  0  0  0  0
   -5.7940   23.3940  -30.8460 C   0  0  0  0  0  0  0  0  0  0  0  0
   -5.0600   22.2030  -30.7670 C   0  0  0  0  0  0  0  0  0  0  0  0
   -5.5700   21.0170  -31.3090 C   0  0  0  0  0  0  0  0  0  0  0  0
   -6.8220   21.0190  -31.9460 C   0  0  0  0  0  0  0  0  0  0  0  0
   -7.4840   19.5400  -32.6380 S   0  0  0  0  0  0  0  0  0  0  0  0
   -7.5120   18.4590  -31.5980 O   0  0  0  0  0  0  0  0  0  0  0  0
   -8.8910   19.8140  -33.0710 O   0  0  0  0  0  0  0  0  0  0  0  0
   -6.5310   19.0390  -34.0110 N   0  0  0  0  0  0  0  0  0  0  0  0
   -5.1380   19.4630  -33.8470 C   0  0  0  0  0  0  0  0  0  0  0  0
   -4.3650   18.3270  -33.1800 C   0  0  0  0  0  0  0  0  0  0  0  0
   -5.2410   17.1000  -33.3280 C   0  0  0  0  0  0  0  0  0  0  0  0
   -6.4830   17.5720  -34.0820 C   0  0  0  0  0  0  0  0  0  0  0  0
   -7.5540   22.2090  -32.0280 C   0  0  0  0  0  0  0  0  0  0  0  0
   -7.0480   23.3900  -31.4730 C   0  0  0  0  0  0  0  0  0  0  0  0
   -3.3264   22.3342  -29.4502 H   0  0  0  0  0  0  0  0  0  0  0  0
    0.0399   18.4836  -26.5211 H   0  0  0  0  0  0  0  0  0  0  0  0
   -1.4819   18.1241  -27.3613 H   0  0  0  0  0  0  0  0  0  0  0  0
    1.3658   17.5283  -28.1823 H   0  0  0  0  0  0  0  0  0  0  0  0
   -0.0875   16.5849  -28.5123 H   0  0  0  0  0  0  0  0  0  0  0  0
    1.1787   18.4484  -30.2709 H   0  0  0  0  0  0  0  0  0  0  0  0
   -0.4183   17.7265  -30.5256 H   0  0  0  0  0  0  0  0  0  0  0  0
    0.1271   20.4689  -30.0004 H   0  0  0  0  0  0  0  0  0  0  0  0
   -1.4793   19.7078  -29.9156 H   0  0  0  0  0  0  0  0  0  0  0  0
    0.0693   22.8089  -26.8075 H   0  0  0  0  0  0  0  0  0  0  0  0
    0.3604   25.1523  -27.6098 H   0  0  0  0  0  0  0  0  0  0  0  0
   -4.0759   22.1998  -30.2756 H   0  0  0  0  0  0  0  0  0  0  0  0
   -4.9909   20.0846  -31.2361 H   0  0  0  0  0  0  0  0  0  0  0  0
   -4.6985   19.6842  -34.8308 H   0  0  0  0  0  0  0  0  0  0  0  0
   -5.0890   20.3698  -33.2262 H   0  0  0  0  0  0  0  0  0  0  0  0
   -3.3988   18.1725  -33.6826 H   0  0  0  0  0  0  0  0  0  0  0  0
   -4.1457   18.5470  -32.1248 H   0  0  0  0  0  0  0  0  0  0  0  0
   -4.7170   16.3206  -33.9007 H   0  0  0  0  0  0  0  0  0  0  0  0
   -5.4984   16.6629  -32.3519 H   0  0  0  0  0  0  0  0  0  0  0  0
   -6.4255   17.2514  -35.1327 H   0  0  0  0  0  0  0  0  0  0  0  0
   -7.3888   17.1392  -33.6324 H   0  0  0  0  0  0  0  0  0  0  0  0
   -8.5321   22.2162  -32.5313 H   0  0  0  0  0  0  0  0  0  0  0  0
   -7.6360   24.3180  -31.5289 H   0  0  0  0  0  0  0  0  0  0  0  0
  1  2  2  0
  2  3  2  0
  2  4  1  0
  4  5  1  0
  5  6  2  0
  6  7  1  0
  7  8  1  0
  8  9  2  0
  8 10  2  0
  8 11  1  0
 11 12  1  0
 12 13  1  0
 13 14  1  0
 14 15  1  0
  7 16  2  0
 16 17  1  0
 17 18  2  0
 18 19  1  0
  2 20  1  0
 20 21  2  0
 21 22  1  0
 22 23  2  0
 23 24  1  0
 24 25  2  0
 24 26  2  0
 24 27  1  0
 27 28  1  0
 28 29  1  0
 29 30  1  0
 30 31  1  0
 23 32  1  0
 32 33  2  0
 18  5  1  0
 33 20  1  0
 15 11  1  0
 31 27  1  0
  6 34  1  0
 12 35  1  0
 12 36  1  0
 13 37  1  0
 13 38  1  0
 14 39  1  0
 14 40  1  0
 15 41  1  0
 15 42  1  0
 16 43  1  0
 17 44  1  0
 21 45  1  0
 22 46  1  0
 28 47  1  0
 28 48  1  0
 29 49  1  0
 29 50  1  0
 30 51  1  0
 30 52  1  0
 31 53  1  0
 31 54  1  0
 32 55  1  0
 33 56  1  0
M  CHG  2   4  -1  19  -1
M  END
>  <UniqueID>  (39) 
37

>  <SMILES>  (39) 
O=S(=O)([N-]c1cc(S(=O)(=O)N2CCCC2)ccc1[O-])c1ccc(S(=O)(=O)N2CCCC2)cc1

>  <Energy>  (39) 
64.18685137823731

>  <Genealogy>  (39) 
O=S(=O)([N-]c1cc(S(=O)(=O)N2CCCC2)ccc1[O-])c1ccc(S(=O)(=O)N2CCCC2)cc1 (protonated)
O=S(=O)([N-]c1cc(S(=O)(=O)N2CCCC2)ccc1[O-])c1ccc(S(=O)(=O)N2CCCC2)cc1 (3D coordinates assigned)
O=S(=O)([N-]c1cc(S(=O)(=O)N2CCCC2)ccc1[O-])c1ccc(S(=O)(=O)N2CCCC2)cc1 (nonaromatic ring conformer: 64.18685137823731 kcal/mol)

>  <smiles>  (39) 
O=S(=O)(Nc1cc(S(=O)(=O)N2CCCC2)ccc1O)c1ccc(S(=O)(=O)N2CCCC2)cc1

>  <score_type>  (39) 
oracle

>  <origin>  (39) 
adgpu

>  <m_score__min__energy>  (39) 
-15.49

>  <m_primary>  (39) 
energy

$$$$
39:0
     RDKit          3D

 54 57  0  0  0  0  0  0  0  0999 V2000
   -9.8160   21.1880  -31.9300 C   0  0  0  0  0  0  0  0  0  0  0  0
   -8.4550   20.6960  -32.2160 N   0  0  0  0  0  0  0  0  0  0  0  0
   -7.4230   21.5850  -32.3400 C   0  0  0  0  0  0  0  0  0  0  0  0
   -7.6390   22.8250  -32.2260 O   0  0  0  0  0  0  0  0  0  0  0  0
   -6.1230   21.1270  -32.5880 C   0  0  0  0  0  0  0  0  0  0  0  0
   -5.0490   22.0280  -32.7380 C   0  0  0  0  0  0  0  0  0  0  0  0
   -3.7590   21.5580  -32.9760 C   0  0  0  0  0  0  0  0  0  0  0  0
   -3.5140   20.1850  -33.0580 C   0  0  0  0  0  0  0  0  0  0  0  0
   -2.1900   19.6880  -33.2920 N   0  0  0  0  0  0  0  0  0  0  0  0
   -0.7750   20.6200  -32.9170 S   0  0  0  0  0  0  0  0  0  0  0  0
   -0.6790   21.8390  -33.7920 O   0  0  0  0  0  0  0  0  0  0  0  0
    0.4400   19.7730  -33.1680 O   0  0  0  0  0  0  0  0  0  0  0  0
   -0.8400   21.1080  -31.2190 C   0  0  0  0  0  0  0  0  0  0  0  0
   -1.6400   22.2020  -30.8520 C   0  0  0  0  0  0  0  0  0  0  0  0
   -1.6980   22.6320  -29.5200 C   0  0  0  0  0  0  0  0  0  0  0  0
   -2.7210   23.9960  -29.0780 S   0  0  0  0  0  0  0  0  0  0  0  0
   -1.9730   25.2770  -29.3300 O   0  0  0  0  0  0  0  0  0  0  0  0
   -3.0600   23.9230  -27.6140 O   0  0  0  0  0  0  0  0  0  0  0  0
   -4.1720   23.9680  -30.0490 N   0  0  0  0  0  0  0  0  0  0  0  0
   -5.2800   23.3360  -29.3310 C   0  0  0  0  0  0  0  0  0  0  0  0
   -6.5590   23.9400  -29.8910 C   0  0  0  0  0  0  0  0  0  0  0  0
   -6.1330   25.2360  -30.5660 C   0  0  0  0  0  0  0  0  0  0  0  0
   -4.6290   25.3230  -30.3580 C   0  0  0  0  0  0  0  0  0  0  0  0
   -0.9580   21.9560  -28.5430 C   0  0  0  0  0  0  0  0  0  0  0  0
   -0.1550   20.8710  -28.8970 C   0  0  0  0  0  0  0  0  0  0  0  0
   -0.0830   20.4450  -30.2280 C   0  0  0  0  0  0  0  0  0  0  0  0
    0.9680   19.0830  -30.6010 Cl  0  0  0  0  0  0  0  0  0  0  0  0
   -4.5790   19.2830  -32.9360 C   0  0  0  0  0  0  0  0  0  0  0  0
   -5.8990   19.7350  -32.6870 C   0  0  0  0  0  0  0  0  0  0  0  0
   -6.9530   18.8600  -32.5300 N   0  0  0  0  0  0  0  0  0  0  0  0
   -6.7330   17.4000  -32.6190 C   0  0  0  0  0  0  0  0  0  0  0  0
   -8.2170   19.3460  -32.2800 C   0  0  0  0  0  0  0  0  0  0  0  0
   -9.1760   18.5410  -32.1020 O   0  0  0  0  0  0  0  0  0  0  0  0
   -9.9652   21.2419  -30.8415 H   0  0  0  0  0  0  0  0  0  0  0  0
   -9.9435   22.1891  -32.3676 H   0  0  0  0  0  0  0  0  0  0  0  0
  -10.5542   20.4998  -32.3676 H   0  0  0  0  0  0  0  0  0  0  0  0
   -5.2308   23.1105  -32.6666 H   0  0  0  0  0  0  0  0  0  0  0  0
   -2.9304   22.2708  -33.0998 H   0  0  0  0  0  0  0  0  0  0  0  0
   -2.0540   18.6550  -33.3670 H   0  0  0  0  0  0  0  0  0  0  0  0
   -2.2279   22.7274  -31.6191 H   0  0  0  0  0  0  0  0  0  0  0  0
   -5.2691   22.2486  -29.4968 H   0  0  0  0  0  0  0  0  0  0  0  0
   -5.2007   23.5075  -28.2473 H   0  0  0  0  0  0  0  0  0  0  0  0
   -7.0184   23.2584  -30.6220 H   0  0  0  0  0  0  0  0  0  0  0  0
   -7.3069   24.1157  -29.1038 H   0  0  0  0  0  0  0  0  0  0  0  0
   -6.3723   25.2079  -31.6393 H   0  0  0  0  0  0  0  0  0  0  0  0
   -6.6557   26.1078  -30.1455 H   0  0  0  0  0  0  0  0  0  0  0  0
   -4.1397   25.6895  -31.2725 H   0  0  0  0  0  0  0  0  0  0  0  0
   -4.3801   26.0212  -29.5452 H   0  0  0  0  0  0  0  0  0  0  0  0
   -1.0096   22.2809  -27.4933 H   0  0  0  0  0  0  0  0  0  0  0  0
    0.4258   20.3466  -28.1239 H   0  0  0  0  0  0  0  0  0  0  0  0
   -4.3872   18.2044  -33.0353 H   0  0  0  0  0  0  0  0  0  0  0  0
   -6.6692   16.9764  -31.6058 H   0  0  0  0  0  0  0  0  0  0  0  0
   -7.5712   16.9351  -33.1587 H   0  0  0  0  0  0  0  0  0  0  0  0
   -5.7950   17.2028  -33.1587 H   0  0  0  0  0  0  0  0  0  0  0  0
  1  2  1  0
  2  3  1  0
  3  4  2  0
  3  5  1  0
  5  6  2  0
  6  7  1  0
  7  8  2  0
  8  9  1  0
  9 10  1  0
 10 11  2  0
 10 12  2  0
 10 13  1  0
 13 14  2  0
 14 15  1  0
 15 16  1  0
 16 17  2  0
 16 18  2  0
 16 19  1  0
 19 20  1  0
 20 21  1  0
 21 22  1  0
 22 23  1  0
 15 24  2  0
 24 25  1  0
 25 26  2  0
 26 27  1  0
  8 28  1  0
 28 29  2  0
 29 30  1  0
 30 31  1  0
 30 32  1  0
 32 33  2  0
 32  2  1  0
 29  5  1  0
 26 13  1  0
 23 19  1  0
  1 34  1  0
  1 35  1  0
  1 36  1  0
  6 37  1  0
  7 38  1  0
  9 39  1  0
 14 40  1  0
 20 41  1  0
 20 42  1  0
 21 43  1  0
 21 44  1  0
 22 45  1  0
 22 46  1  0
 23 47  1  0
 23 48  1  0
 24 49  1  0
 25 50  1  0
 28 51  1  0
 31 52  1  0
 31 53  1  0
 31 54  1  0
M  END
>  <UniqueID>  (40) 
38

>  <SMILES>  (40) 
Cn1c(=O)c2ccc(NS(=O)(=O)c3cc(S(=O)(=O)N4CCCC4)ccc3Cl)cc2n(C)c1=O

>  <Energy>  (40) 
79.9184853832108

>  <Genealogy>  (40) 
Cn1c(=O)c2ccc(NS(=O)(=O)c3cc(S(=O)(=O)N4CCCC4)ccc3Cl)cc2n(C)c1=O (3D coordinates assigned)
Cn1c(=O)c2ccc(NS(=O)(=O)c3cc(S(=O)(=O)N4CCCC4)ccc3Cl)cc2n(C)c1=O (nonaromatic ring conformer: 79.9184853832108 kcal/mol)

>  <smiles>  (40) 
Cn1c(=O)c2ccc(NS(=O)(=O)c3cc(S(=O)(=O)N4CCCC4)ccc3Cl)cc2n(C)c1=O

>  <score_type>  (40) 
oracle

>  <origin>  (40) 
adgpu

>  <m_score__min__energy>  (40) 
-10.789999999999999

>  <m_primary>  (40) 
energy

$$$$
40:0
     RDKit          3D

 54 57  0  0  0  0  0  0  0  0999 V2000
    0.0120   20.0080  -28.1970 C   0  0  0  0  0  0  0  0  0  0  0  0
   -0.5290   20.6180  -26.9700 N   0  0  0  0  0  0  0  0  0  0  0  0
   -1.9640   20.3340  -26.7820 C   0  0  0  0  0  0  0  0  0  0  0  0
   -2.8360   20.9670  -27.8750 C   0  0  0  0  0  0  0  0  0  0  0  0
   -2.4250   22.3790  -28.1910 C   0  0  0  0  0  0  0  0  0  0  0  0
   -3.2620   23.1660  -28.9960 C   0  0  0  0  0  0  0  0  0  0  0  0
   -2.8550   24.4380  -29.4150 C   0  0  0  0  0  0  0  0  0  0  0  0
   -3.6810   25.2130  -30.2880 N   0  0  0  0  0  0  0  0  0  0  0  0
   -5.3820   24.9200  -30.4670 S   0  0  0  0  0  0  0  0  0  0  0  0
   -6.0130   24.8900  -29.1040 O   0  0  0  0  0  0  0  0  0  0  0  0
   -5.9980   26.0420  -31.2530 O   0  0  0  0  0  0  0  0  0  0  0  0
   -5.6950   23.3900  -31.2870 C   0  0  0  0  0  0  0  0  0  0  0  0
   -6.9430   22.7680  -31.1790 C   0  0  0  0  0  0  0  0  0  0  0  0
   -7.1720   21.5420  -31.8070 C   0  0  0  0  0  0  0  0  0  0  0  0
   -6.1590   20.9090  -32.5430 C   0  0  0  0  0  0  0  0  0  0  0  0
   -6.5490   19.3470  -33.2870 S   0  0  0  0  0  0  0  0  0  0  0  0
   -8.0230   19.1130  -33.1050 O   0  0  0  0  0  0  0  0  0  0  0  0
   -6.2610   19.3370  -34.7610 O   0  0  0  0  0  0  0  0  0  0  0  0
   -5.6720   18.0580  -32.4870 N   0  0  0  0  0  0  0  0  0  0  0  0
   -4.3590   17.8160  -33.1110 C   0  0  0  0  0  0  0  0  0  0  0  0
   -4.4780   17.0700  -34.4620 C   0  0  0  0  0  0  0  0  0  0  0  0
   -5.7250   16.4250  -34.6470 O   0  0  0  0  0  0  0  0  0  0  0  0
   -6.1230   15.7830  -33.4570 C   0  0  0  0  0  0  0  0  0  0  0  0
   -6.4800   16.8230  -32.3800 C   0  0  0  0  0  0  0  0  0  0  0  0
   -4.8880   21.5290  -32.6330 C   0  0  0  0  0  0  0  0  0  0  0  0
   -3.5180   20.8030  -33.4630 Cl  0  0  0  0  0  0  0  0  0  0  0  0
   -4.6760   22.7700  -32.0200 C   0  0  0  0  0  0  0  0  0  0  0  0
   -1.6330   24.9560  -28.9720 C   0  0  0  0  0  0  0  0  0  0  0  0
   -1.2370   26.2350  -29.3460 O   0  0  0  0  0  0  0  0  0  0  0  0
   -0.7960   24.1820  -28.1620 C   0  0  0  0  0  0  0  0  0  0  0  0
   -1.1680   22.8800  -27.7970 C   0  0  0  0  0  0  0  0  0  0  0  0
   -0.2550   22.0680  -26.9050 C   0  0  0  0  0  0  0  0  0  0  0  0
    0.7198   19.2099  -27.9284 H   0  0  0  0  0  0  0  0  0  0  0  0
   -0.8119   19.5834  -28.7894 H   0  0  0  0  0  0  0  0  0  0  0  0
    0.5320   20.7752  -28.7894 H   0  0  0  0  0  0  0  0  0  0  0  0
   -2.1132   19.2443  -26.7986 H   0  0  0  0  0  0  0  0  0  0  0  0
   -2.2676   20.7689  -25.8183 H   0  0  0  0  0  0  0  0  0  0  0  0
   -2.7511   20.3614  -28.7894 H   0  0  0  0  0  0  0  0  0  0  0  0
   -3.8712   20.9943  -27.5040 H   0  0  0  0  0  0  0  0  0  0  0  0
   -4.2462   22.7803  -29.3004 H   0  0  0  0  0  0  0  0  0  0  0  0
   -7.7458   23.2456  -30.5981 H   0  0  0  0  0  0  0  0  0  0  0  0
   -8.1601   21.0660  -31.7235 H   0  0  0  0  0  0  0  0  0  0  0  0
   -3.8659   18.7840  -33.2839 H   0  0  0  0  0  0  0  0  0  0  0  0
   -3.7739   17.1828  -32.4279 H   0  0  0  0  0  0  0  0  0  0  0  0
   -4.3396   17.7984  -35.2745 H   0  0  0  0  0  0  0  0  0  0  0  0
   -3.7063   16.2861  -34.4660 H   0  0  0  0  0  0  0  0  0  0  0  0
   -7.0031   15.1553  -33.6606 H   0  0  0  0  0  0  0  0  0  0  0  0
   -5.2921   15.1617  -33.0916 H   0  0  0  0  0  0  0  0  0  0  0  0
   -7.5425   17.0877  -32.4852 H   0  0  0  0  0  0  0  0  0  0  0  0
   -6.2677   16.3716  -31.3996 H   0  0  0  0  0  0  0  0  0  0  0  0
   -3.6975   23.2634  -32.1155 H   0  0  0  0  0  0  0  0  0  0  0  0
    0.1597   24.5968  -27.8091 H   0  0  0  0  0  0  0  0  0  0  0  0
    0.7856   22.2429  -27.2156 H   0  0  0  0  0  0  0  0  0  0  0  0
   -0.4326   22.3915  -25.8687 H   0  0  0  0  0  0  0  0  0  0  0  0
  1  2  1  0
  2  3  1  0
  3  4  1  0
  4  5  1  0
  5  6  2  0
  6  7  1  0
  7  8  1  0
  8  9  1  0
  9 10  2  0
  9 11  2  0
  9 12  1  0
 12 13  2  0
 13 14  1  0
 14 15  2  0
 15 16  1  0
 16 17  2  0
 16 18  2  0
 16 19  1  0
 19 20  1  0
 20 21  1  0
 21 22  1  0
 22 23  1  0
 23 24  1  0
 15 25  1  0
 25 26  1  0
 25 27  2  0
  7 28  2  0
 28 29  1  0
 28 30  1  0
 30 31  2  0
 31 32  1  0
 32  2  1  0
 31  5  1  0
 27 12  1  0
 24 19  1  0
  1 33  1  0
  1 34  1  0
  1 35  1  0
  3 36  1  0
  3 37  1  0
  4 38  1  0
  4 39  1  0
  6 40  1  0
 13 41  1  0
 14 42  1  0
 20 43  1  0
 20 44  1  0
 21 45  1  0
 21 46  1  0
 23 47  1  0
 23 48  1  0
 24 49  1  0
 24 50  1  0
 27 51  1  0
 30 52  1  0
 32 53  1  0
 32 54  1  0
M  CHG  2   8  -1  29  -1
M  END
>  <UniqueID>  (41) 
39

>  <SMILES>  (41) 
CN1CCc2cc([N-]S(=O)(=O)c3ccc(S(=O)(=O)N4CCOCC4)c(Cl)c3)c([O-])cc2C1

>  <Energy>  (41) 
80.91028717509933

>  <Genealogy>  (41) 
CN1CCc2cc([N-]S(=O)(=O)c3ccc(S(=O)(=O)N4CCOCC4)c(Cl)c3)c([O-])cc2C1 (protonated)
CN1CCc2cc([N-]S(=O)(=O)c3ccc(S(=O)(=O)N4CCOCC4)c(Cl)c3)c([O-])cc2C1 (3D coordinates assigned)
CN1CCc2cc([N-]S(=O)(=O)c3ccc(S(=O)(=O)N4CCOCC4)c(Cl)c3)c([O-])cc2C1 (nonaromatic ring conformer: 80.91028717509933 kcal/mol)

>  <smiles>  (41) 
CN1CCc2cc(NS(=O)(=O)c3ccc(S(=O)(=O)N4CCOCC4)c(Cl)c3)c(O)cc2C1

>  <score_type>  (41) 
oracle

>  <origin>  (41) 
adgpu

>  <m_score__min__energy>  (41) 
-15.91

>  <m_primary>  (41) 
energy

$$$$
41:0
     RDKit          3D

 31 32  0  0  0  0  0  0  0  0999 V2000
   -2.0590   22.6320  -30.0100 C   0  0  0  0  0  0  0  0  0  0  0  0
   -3.4570   22.9960  -30.4260 C   0  0  0  0  0  0  0  0  0  0  0  0
   -4.3180   22.0130  -30.9370 C   0  0  0  0  0  0  0  0  0  0  0  0
   -5.6310   22.3380  -31.3110 C   0  0  0  0  0  0  0  0  0  0  0  0
   -6.5610   21.2730  -31.8290 C   0  0  0  0  0  0  0  0  0  0  0  0
   -5.7990   20.2340  -32.6040 C   0  0  0  0  0  0  0  0  0  0  0  0
   -6.0070   18.8630  -32.6570 C   0  0  0  0  0  0  0  0  0  0  0  0
   -7.0800   18.0860  -31.9490 C   0  0  0  0  0  0  0  0  0  0  0  0
   -7.5790   17.1070  -32.7860 F   0  0  0  0  0  0  0  0  0  0  0  0
   -6.5520   17.4940  -30.8170 F   0  0  0  0  0  0  0  0  0  0  0  0
   -8.1160   18.9220  -31.5740 F   0  0  0  0  0  0  0  0  0  0  0  0
   -5.0980   18.3200  -33.4930 N   0  0  0  0  0  0  0  0  0  0  0  0
   -4.3150   19.2690  -33.9840 N   0  0  0  0  0  0  0  0  0  0  0  0
   -4.7310   20.4350  -33.4560 C   0  0  0  0  0  0  0  0  0  0  0  0
   -4.2040   21.5460  -33.7230 O   0  0  0  0  0  0  0  0  0  0  0  0
   -6.0850   23.6560  -31.1570 C   0  0  0  0  0  0  0  0  0  0  0  0
   -5.2350   24.6500  -30.6470 C   0  0  0  0  0  0  0  0  0  0  0  0
   -5.7370   26.0550  -30.4710 C   0  0  0  0  0  0  0  0  0  0  0  0
   -3.9220   24.3140  -30.2730 C   0  0  0  0  0  0  0  0  0  0  0  0
   -3.0790   25.2900  -29.7450 O   0  0  0  0  0  0  0  0  0  0  0  0
   -1.9958   22.6155  -28.9119 H   0  0  0  0  0  0  0  0  0  0  0  0
   -1.8055   21.6379  -30.4068 H   0  0  0  0  0  0  0  0  0  0  0  0
   -1.3528   23.3762  -30.4068 H   0  0  0  0  0  0  0  0  0  0  0  0
   -3.9606   20.9783  -31.0454 H   0  0  0  0  0  0  0  0  0  0  0  0
   -7.0670   20.7910  -30.9795 H   0  0  0  0  0  0  0  0  0  0  0  0
   -7.2991   21.7418  -32.4965 H   0  0  0  0  0  0  0  0  0  0  0  0
   -5.0060   17.3100  -33.7400 H   0  0  0  0  0  0  0  0  0  0  0  0
   -7.1168   23.9133  -31.4385 H   0  0  0  0  0  0  0  0  0  0  0  0
   -5.8186   26.2835  -29.3981 H   0  0  0  0  0  0  0  0  0  0  0  0
   -5.0342   26.7573  -30.9430 H   0  0  0  0  0  0  0  0  0  0  0  0
   -6.7257   26.1529  -30.9430 H   0  0  0  0  0  0  0  0  0  0  0  0
  1  2  1  0
  2  3  2  0
  3  4  1  0
  4  5  1  0
  5  6  1  0
  6  7  2  0
  7  8  1  0
  8  9  1  0
  8 10  1  0
  8 11  1  0
  7 12  1  0
 12 13  1  0
 13 14  1  0
 14 15  2  0
  4 16  2  0
 16 17  1  0
 17 18  1  0
 17 19  2  0
 19 20  1  0
 19  2  1  0
 14  6  1  0
  1 21  1  0
  1 22  1  0
  1 23  1  0
  3 24  1  0
  5 25  1  0
  5 26  1  0
 12 27  1  0
 16 28  1  0
 18 29  1  0
 18 30  1  0
 18 31  1  0
M  CHG  2  13  -1  20  -1
M  END
>  <UniqueID>  (42) 
40

>  <SMILES>  (42) 
Cc1cc(Cc2c(C(F)(F)F)[nH][n-]c2=O)cc(C)c1[O-]

>  <Energy>  (42) 
60.85470798098342

>  <Genealogy>  (42) 
Cc1cc(Cc2c(C(F)(F)F)[nH][n-]c2=O)cc(C)c1[O-] (protonated)
Cc1cc(Cc2c(C(F)(F)F)[nH][n-]c2=O)cc(C)c1[O-] (3D coordinates assigned)
Cc1cc(Cc2c(C(F)(F)F)[nH][n-]c2=O)cc(C)c1[O-] (optimized conformer: 60.85470798098342 kcal/mol)

>  <smiles>  (42) 
Cc1cc(Cc2c(C(F)(F)F)[nH][nH]c2=O)cc(C)c1O

>  <score_type>  (42) 
oracle

>  <origin>  (42) 
adgpu

>  <m_score__min__energy>  (42) 
-8.9399999999999995

>  <m_primary>  (42) 
energy

$$$$
42:0
     RDKit          3D

 67 71  0  0  0  0  0  0  0  0999 V2000
    0.5890   16.8650  -31.9010 C   0  0  0  0  0  0  0  0  0  0  0  0
    0.2770   17.5060  -30.6290 N   0  0  0  0  0  0  0  0  0  0  0  0
    0.9210   17.2420  -29.3830 C   0  0  0  0  0  0  0  0  0  0  0  0
    1.6490   16.2320  -29.1860 O   0  0  0  0  0  0  0  0  0  0  0  0
    0.6390   18.2990  -28.3430 C   0  0  0  0  0  0  0  0  0  0  0  0
    1.9380   18.9660  -27.8660 C   0  0  0  0  0  0  0  0  0  0  0  0
   -0.1690   17.7210  -27.1720 C   0  0  0  0  0  0  0  0  0  0  0  0
   -0.1950   19.2450  -29.1660 C   0  0  0  0  0  0  0  0  0  0  0  0
   -0.7570   20.4640  -28.7800 C   0  0  0  0  0  0  0  0  0  0  0  0
   -1.5000   21.1930  -29.7220 C   0  0  0  0  0  0  0  0  0  0  0  0
   -1.6670   20.7040  -31.0350 C   0  0  0  0  0  0  0  0  0  0  0  0
   -2.6410   21.5890  -32.2040 S   0  0  0  0  0  0  0  0  0  0  0  0
   -3.8090   20.7490  -32.6420 O   0  0  0  0  0  0  0  0  0  0  0  0
   -1.8170   21.9170  -33.4190 O   0  0  0  0  0  0  0  0  0  0  0  0
   -3.1670   23.0730  -31.4770 N   0  0  0  0  0  0  0  0  0  0  0  0
   -4.5220   23.3710  -31.1220 C   0  0  0  0  0  0  0  0  0  0  0  0
   -5.5370   22.4010  -31.2070 C   0  0  0  0  0  0  0  0  0  0  0  0
   -6.8700   22.7260  -30.8970 C   0  0  0  0  0  0  0  0  0  0  0  0
   -7.9440   21.7150  -31.0700 C   0  0  0  0  0  0  0  0  0  0  0  0
   -9.0530   21.8810  -30.4890 O   0  0  0  0  0  0  0  0  0  0  0  0
   -7.7320   20.5180  -31.8370 N   0  0  0  0  0  0  0  0  0  0  0  0
   -7.4120   20.6090  -33.2680 C   0  0  0  0  0  0  0  0  0  0  0  0
   -6.4260   19.5030  -33.6660 C   0  0  0  0  0  0  0  0  0  0  0  0
   -6.7820   18.2150  -33.0510 N   0  0  0  0  0  0  0  0  0  0  0  0
   -5.9510   17.0680  -33.2840 C   0  0  0  0  0  0  0  0  0  0  0  0
   -6.4980   15.9160  -33.8700 C   0  0  0  0  0  0  0  0  0  0  0  0
   -5.7000   14.7860  -34.0730 C   0  0  0  0  0  0  0  0  0  0  0  0
   -4.3500   14.8050  -33.7070 C   0  0  0  0  0  0  0  0  0  0  0  0
   -3.7940   15.9580  -33.1460 C   0  0  0  0  0  0  0  0  0  0  0  0
   -4.5910   17.0920  -32.9300 C   0  0  0  0  0  0  0  0  0  0  0  0
   -4.0360   18.2420  -32.3680 O   0  0  0  0  0  0  0  0  0  0  0  0
   -8.0020   18.0840  -32.2470 C   0  0  0  0  0  0  0  0  0  0  0  0
   -8.0830   19.2260  -31.2300 C   0  0  0  0  0  0  0  0  0  0  0  0
   -7.1760   24.0410  -30.5030 C   0  0  0  0  0  0  0  0  0  0  0  0
   -6.1700   25.0070  -30.4160 C   0  0  0  0  0  0  0  0  0  0  0  0
   -4.8500   24.6780  -30.7360 C   0  0  0  0  0  0  0  0  0  0  0  0
   -3.8640   25.6570  -30.6680 O   0  0  0  0  0  0  0  0  0  0  0  0
   -1.0900   19.4760  -31.4060 C   0  0  0  0  0  0  0  0  0  0  0  0
   -0.3620   18.7620  -30.4500 C   0  0  0  0  0  0  0  0  0  0  0  0
    1.0634   15.8904  -31.7138 H   0  0  0  0  0  0  0  0  0  0  0  0
   -0.3381   16.7175  -32.4744 H   0  0  0  0  0  0  0  0  0  0  0  0
    1.2771   17.5036  -32.4744 H   0  0  0  0  0  0  0  0  0  0  0  0
    1.9616   18.9781  -26.7663 H   0  0  0  0  0  0  0  0  0  0  0  0
    2.8015   18.3998  -28.2451 H   0  0  0  0  0  0  0  0  0  0  0  0
    1.9810   19.9977  -28.2451 H   0  0  0  0  0  0  0  0  0  0  0  0
    0.2813   18.0431  -26.2215 H   0  0  0  0  0  0  0  0  0  0  0  0
   -1.2061   18.0834  -27.2279 H   0  0  0  0  0  0  0  0  0  0  0  0
   -0.1610   16.6224  -27.2279 H   0  0  0  0  0  0  0  0  0  0  0  0
   -0.6201   20.8456  -27.7574 H   0  0  0  0  0  0  0  0  0  0  0  0
   -1.9552   22.1522  -29.4345 H   0  0  0  0  0  0  0  0  0  0  0  0
   -5.2855   21.3767  -31.5194 H   0  0  0  0  0  0  0  0  0  0  0  0
   -8.3364   20.4988  -33.8540 H   0  0  0  0  0  0  0  0  0  0  0  0
   -6.9516   21.5875  -33.4696 H   0  0  0  0  0  0  0  0  0  0  0  0
   -6.4369   19.3915  -34.7603 H   0  0  0  0  0  0  0  0  0  0  0  0
   -5.4251   19.7895  -33.3110 H   0  0  0  0  0  0  0  0  0  0  0  0
   -7.5562   15.9021  -34.1700 H   0  0  0  0  0  0  0  0  0  0  0  0
   -6.1346   13.8804  -34.5213 H   0  0  0  0  0  0  0  0  0  0  0  0
   -3.7259   13.9123  -33.8608 H   0  0  0  0  0  0  0  0  0  0  0  0
   -2.7285   15.9763  -32.8731 H   0  0  0  0  0  0  0  0  0  0  0  0
   -4.2100   19.1630  -32.7570 H   0  0  0  0  0  0  0  0  0  0  0  0
   -8.8802   18.1220  -32.9084 H   0  0  0  0  0  0  0  0  0  0  0  0
   -7.9804   17.1236  -31.7111 H   0  0  0  0  0  0  0  0  0  0  0  0
   -9.1093   19.2829  -30.8383 H   0  0  0  0  0  0  0  0  0  0  0  0
   -7.3649   19.0190  -30.4228 H   0  0  0  0  0  0  0  0  0  0  0  0
   -8.2147   24.3110  -30.2616 H   0  0  0  0  0  0  0  0  0  0  0  0
   -6.4178   26.0294  -30.0947 H   0  0  0  0  0  0  0  0  0  0  0  0
   -1.2092   19.0856  -32.4275 H   0  0  0  0  0  0  0  0  0  0  0  0
  1  2  1  0
  2  3  1  0
  3  4  2  0
  3  5  1  0
  5  6  1  0
  5  7  1  0
  5  8  1  0
  8  9  2  0
  9 10  1  0
 10 11  2  0
 11 12  1  0
 12 13  2  0
 12 14  2  0
 12 15  1  0
 15 16  1  0
 16 17  2  0
 17 18  1  0
 18 19  1  0
 19 20  2  0
 19 21  1  0
 21 22  1  0
 22 23  1  0
 23 24  1  0
 24 25  1  0
 25 26  2  0
 26 27  1  0
 27 28  2  0
 28 29  1  0
 29 30  2  0
 30 31  1  0
 24 32  1  0
 32 33  1  0
 18 34  2  0
 34 35  1  0
 35 36  2  0
 36 37  1  0
 11 38  1  0
 38 39  2  0
 39  2  1  0
 39  8  1  0
 36 16  1  0
 33 21  1  0
 30 25  1  0
  1 40  1  0
  1 41  1  0
  1 42  1  0
  6 43  1  0
  6 44  1  0
  6 45  1  0
  7 46  1  0
  7 47  1  0
  7 48  1  0
  9 49  1  0
 10 50  1  0
 17 51  1  0
 22 52  1  0
 22 53  1  0
 23 54  1  0
 23 55  1  0
 26 56  1  0
 27 57  1  0
 28 58  1  0
 29 59  1  0
 31 60  1  0
 32 61  1  0
 32 62  1  0
 33 63  1  0
 33 64  1  0
 34 65  1  0
 35 66  1  0
 38 67  1  0
M  CHG  2  15  -1  37  -1
M  END
>  <UniqueID>  (43) 
41

>  <SMILES>  (43) 
CN1C(=O)C(C)(C)c2ccc(S(=O)(=O)[N-]c3cc(C(=O)N4CCN(c5ccccc5O)CC4)ccc3[O-])cc21

>  <Energy>  (43) 
104.65284036457841

>  <Genealogy>  (43) 
CN1C(=O)C(C)(C)c2ccc(S(=O)(=O)[N-]c3cc(C(=O)N4CCN(c5ccccc5O)CC4)ccc3[O-])cc21 (protonated)
CN1C(=O)C(C)(C)c2ccc(S(=O)(=O)[N-]c3cc(C(=O)N4CCN(c5ccccc5O)CC4)ccc3[O-])cc21 (3D coordinates assigned)
CN1C(=O)C(C)(C)c2ccc(S(=O)(=O)[N-]c3cc(C(=O)N4CCN(c5ccccc5O)CC4)ccc3[O-])cc21 (nonaromatic ring conformer: 104.65284036457841 kcal/mol)

>  <smiles>  (43) 
CN1C(=O)C(C)(C)c2ccc(S(=O)(=O)Nc3cc(C(=O)N4CCN(c5ccccc5O)CC4)ccc3O)cc21

>  <score_type>  (43) 
oracle

>  <origin>  (43) 
adgpu

>  <m_score__min__energy>  (43) 
-15.039999999999999

>  <m_primary>  (43) 
energy

$$$$
43:0
     RDKit          3D

 60 64  0  0  0  0  0  0  0  0999 V2000
   -9.0630   19.8010  -33.0830 N   0  0  0  0  0  0  0  0  0  0  0  0
   -7.6560   20.0600  -33.0790 C   0  0  0  0  0  0  0  0  0  0  0  0
   -6.8960   19.2820  -33.7180 O   0  0  0  0  0  0  0  0  0  0  0  0
   -7.0780   21.2240  -32.3570 C   0  0  0  0  0  0  0  0  0  0  0  0
   -5.7230   21.5730  -32.4990 C   0  0  0  0  0  0  0  0  0  0  0  0
   -5.1950   22.6670  -31.8080 C   0  0  0  0  0  0  0  0  0  0  0  0
   -6.0110   23.4360  -30.9700 C   0  0  0  0  0  0  0  0  0  0  0  0
   -5.3650   24.8640  -30.1580 S   0  0  0  0  0  0  0  0  0  0  0  0
   -6.1130   26.0810  -30.6310 O   0  0  0  0  0  0  0  0  0  0  0  0
   -5.5710   24.7220  -28.6750 O   0  0  0  0  0  0  0  0  0  0  0  0
   -3.6680   25.0900  -30.4650 N   0  0  0  0  0  0  0  0  0  0  0  0
   -2.6230   24.2660  -29.9380 C   0  0  0  0  0  0  0  0  0  0  0  0
   -2.6290   22.8730  -30.1240 C   0  0  0  0  0  0  0  0  0  0  0  0
   -1.5880   22.0750  -29.6220 C   0  0  0  0  0  0  0  0  0  0  0  0
   -1.6280   20.6160  -29.8750 C   0  0  0  0  0  0  0  0  0  0  0  0
   -2.6410   19.9680  -29.4900 O   0  0  0  0  0  0  0  0  0  0  0  0
   -0.6220   19.9400  -30.6600 N   0  0  0  0  0  0  0  0  0  0  0  0
   -1.0350   18.9890  -31.7010 C   0  0  0  0  0  0  0  0  0  0  0  0
   -0.4880   17.5850  -31.4020 C   0  0  0  0  0  0  0  0  0  0  0  0
    0.9920   17.5880  -30.8840 C   0  0  0  0  0  0  0  0  0  0  0  0
    1.6530   18.9910  -31.0190 C   0  0  0  0  0  0  0  0  0  0  0  0
    0.8100   20.1040  -30.3750 C   0  0  0  0  0  0  0  0  0  0  0  0
    1.8780   16.5220  -31.6320 C   0  0  0  0  0  0  0  0  0  0  0  0
    2.5470   15.7440  -30.5950 N   0  0  0  0  0  0  0  0  0  0  0  0
    1.9860   16.0800  -29.3480 C   0  0  0  0  0  0  0  0  0  0  0  0
    2.2520   15.4500  -28.1330 C   0  0  0  0  0  0  0  0  0  0  0  0
    1.5560   15.8790  -26.9910 C   0  0  0  0  0  0  0  0  0  0  0  0
    0.6110   16.9210  -27.0900 C   0  0  0  0  0  0  0  0  0  0  0  0
    0.3620   17.5350  -28.3280 C   0  0  0  0  0  0  0  0  0  0  0  0
    1.0770   17.1010  -29.4540 C   0  0  0  0  0  0  0  0  0  0  0  0
   -0.5750   22.6820  -28.8590 C   0  0  0  0  0  0  0  0  0  0  0  0
   -0.5900   24.0610  -28.6340 C   0  0  0  0  0  0  0  0  0  0  0  0
   -1.6080   24.8520  -29.1710 C   0  0  0  0  0  0  0  0  0  0  0  0
   -1.6030   26.2240  -28.9450 O   0  0  0  0  0  0  0  0  0  0  0  0
   -7.3630   23.1010  -30.8290 C   0  0  0  0  0  0  0  0  0  0  0  0
   -7.8950   22.0120  -31.5250 C   0  0  0  0  0  0  0  0  0  0  0  0
   -9.4280   18.9270  -33.5220 H   0  0  0  0  0  0  0  0  0  0  0  0
   -9.7570   20.4820  -32.7040 H   0  0  0  0  0  0  0  0  0  0  0  0
   -5.0734   20.9799  -33.1595 H   0  0  0  0  0  0  0  0  0  0  0  0
   -4.1320   22.9253  -31.9233 H   0  0  0  0  0  0  0  0  0  0  0  0
   -3.4597   22.4017  -30.6697 H   0  0  0  0  0  0  0  0  0  0  0  0
   -2.1336   18.9482  -31.7375 H   0  0  0  0  0  0  0  0  0  0  0  0
   -0.6332   19.3265  -32.6678 H   0  0  0  0  0  0  0  0  0  0  0  0
   -1.1244   17.1193  -30.6351 H   0  0  0  0  0  0  0  0  0  0  0  0
   -0.4985   17.0251  -32.3488 H   0  0  0  0  0  0  0  0  0  0  0  0
    2.6374   18.9657  -30.5288 H   0  0  0  0  0  0  0  0  0  0  0  0
    1.7409   19.2170  -32.0919 H   0  0  0  0  0  0  0  0  0  0  0  0
    0.9610   20.0796  -29.2857 H   0  0  0  0  0  0  0  0  0  0  0  0
    1.1343   21.0661  -30.7984 H   0  0  0  0  0  0  0  0  0  0  0  0
    1.2457   15.8679  -32.2504 H   0  0  0  0  0  0  0  0  0  0  0  0
    2.6056   17.0056  -32.3004 H   0  0  0  0  0  0  0  0  0  0  0  0
    3.2130   14.9580  -30.7650 H   0  0  0  0  0  0  0  0  0  0  0  0
    2.9895   14.6363  -28.0703 H   0  0  0  0  0  0  0  0  0  0  0  0
    1.7482   15.4018  -26.0187 H   0  0  0  0  0  0  0  0  0  0  0  0
    0.0668   17.2541  -26.1939 H   0  0  0  0  0  0  0  0  0  0  0  0
   -0.3806   18.3420  -28.4133 H   0  0  0  0  0  0  0  0  0  0  0  0
    0.2340   22.0678  -28.4368 H   0  0  0  0  0  0  0  0  0  0  0  0
    0.2039   24.5258  -28.0310 H   0  0  0  0  0  0  0  0  0  0  0  0
   -8.0091   23.6972  -30.1679 H   0  0  0  0  0  0  0  0  0  0  0  0
   -8.9627   21.7684  -31.4215 H   0  0  0  0  0  0  0  0  0  0  0  0
  1  2  1  0
  2  3  2  0
  2  4  1  0
  4  5  2  0
  5  6  1  0
  6  7  2  0
  7  8  1  0
  8  9  2  0
  8 10  2  0
  8 11  1  0
 11 12  1  0
 12 13  2  0
 13 14  1  0
 14 15  1  0
 15 16  2  0
 15 17  1  0
 17 18  1  0
 18 19  1  0
 19 20  1  0
 20 21  1  0
 21 22  1  0
 20 23  1  0
 23 24  1  0
 24 25  1  0
 25 26  2  0
 26 27  1  0
 27 28  2  0
 28 29  1  0
 29 30  2  0
 14 31  2  0
 31 32  1  0
 32 33  2  0
 33 34  1  0
  7 35  1  0
 35 36  2  0
 36  4  1  0
 33 12  1  0
 22 17  1  0
 30 25  1  0
 30 20  1  0
  1 37  1  0
  1 38  1  0
  5 39  1  0
  6 40  1  0
 13 41  1  0
 18 42  1  0
 18 43  1  0
 19 44  1  0
 19 45  1  0
 21 46  1  0
 21 47  1  0
 22 48  1  0
 22 49  1  0
 23 50  1  0
 23 51  1  0
 24 52  1  0
 26 53  1  0
 27 54  1  0
 28 55  1  0
 29 56  1  0
 31 57  1  0
 32 58  1  0
 35 59  1  0
 36 60  1  0
M  CHG  2  11  -1  34  -1
M  END
>  <UniqueID>  (44) 
42

>  <SMILES>  (44) 
NC(=O)c1ccc(S(=O)(=O)[N-]c2cc(C(=O)N3CCC4(CC3)CNc3ccccc34)ccc2[O-])cc1

>  <Energy>  (44) 
104.34739407313695

>  <Genealogy>  (44) 
NC(=O)c1ccc(S(=O)(=O)[N-]c2cc(C(=O)N3CCC4(CC3)CNc3ccccc34)ccc2[O-])cc1 (protonated)
NC(=O)c1ccc(S(=O)(=O)[N-]c2cc(C(=O)N3CCC4(CC3)CNc3ccccc34)ccc2[O-])cc1 (3D coordinates assigned)
NC(=O)c1ccc(S(=O)(=O)[N-]c2cc(C(=O)N3CCC4(CC3)CNc3ccccc34)ccc2[O-])cc1 (nonaromatic ring conformer: 104.34739407313695 kcal/mol)

>  <smiles>  (44) 
NC(=O)c1ccc(S(=O)(=O)Nc2cc(C(=O)N3CCC4(CC3)CNc3ccccc34)ccc2O)cc1

>  <score_type>  (44) 
oracle

>  <origin>  (44) 
adgpu

>  <m_score__min__energy>  (44) 
-13.369999999999999

>  <m_primary>  (44) 
energy

$$$$
44:0
     RDKit          3D

 72 75  0  0  1  0  0  0  0  0999 V2000
   -1.3420   24.6830  -28.6060 C   0  0  0  0  0  0  0  0  0  0  0  0
   -2.3720   25.2720  -29.3380 O   0  0  0  0  0  0  0  0  0  0  0  0
   -3.5100   24.5500  -29.3870 C   0  0  0  0  0  0  0  0  0  0  0  0
   -4.5010   24.9020  -30.4560 C   0  0  0  0  0  0  0  0  0  0  0  0
   -4.7470   24.0420  -31.4550 O   0  0  0  0  0  0  0  0  0  0  0  0
   -5.6340   23.0720  -31.7160 C   0  0  0  0  0  0  0  0  0  0  0  0
   -6.9850   23.1640  -31.5780 C   0  0  0  0  0  0  0  0  0  0  0  0
   -7.7500   22.0690  -31.8880 C   0  0  0  0  0  0  0  0  0  0  0  0
   -9.1040   22.1930  -31.7410 N   0  0  0  0  0  0  0  0  0  0  0  0
   -9.9290   21.1720  -32.0200 C   0  0  0  0  0  0  0  0  0  0  0  0
   -9.3790   20.0320  -32.4460 N   0  0  0  0  0  0  0  0  0  0  0  0
   -8.0480   19.8720  -32.6030 C   0  0  0  0  0  0  0  0  0  0  0  0
   -7.6240   18.7810  -33.0050 N   0  0  0  0  0  0  0  0  0  0  0  0
   -6.3820   18.2870  -33.2700 C   0  0  0  0  0  0  0  0  0  0  0  0
   -5.8890   18.3890  -34.5960 C   0  0  0  0  0  0  0  0  0  0  0  0
   -4.6910   17.8010  -34.9440 C   0  0  0  0  0  0  0  0  0  0  0  0
   -3.9450   17.1020  -34.0190 C   0  0  0  0  0  0  0  0  0  0  0  0
   -2.4390   16.3890  -34.5570 S   0  0  0  0  0  0  0  0  0  0  0  0
   -1.2710   16.4160  -33.2600 N   0  0  0  0  0  0  0  0  0  0  0  0
   -2.6180   15.0000  -35.0950 O   0  0  0  0  0  0  0  0  0  0  0  0
   -1.9020   17.2580  -35.6630 O   0  0  0  0  0  0  0  0  0  0  0  0
   -4.4070   16.9920  -32.7250 C   0  0  0  0  0  0  0  0  0  0  0  0
   -5.6150   17.5670  -32.3180 C   0  0  0  0  0  0  0  0  0  0  0  0
   -7.1900   20.8950  -32.3260 C   0  0  0  0  0  0  0  0  0  0  0  0
   -5.8470   20.7700  -32.4710 C   0  0  0  0  0  0  0  0  0  0  0  0
   -5.0600   21.8690  -32.1630 C   0  0  0  0  0  0  0  0  0  0  0  0
   -3.6150   21.7900  -32.2980 N   0  0  0  0  0  0  0  0  0  0  0  0
   -2.8440   21.5960  -31.1510 C   0  0  0  0  0  0  0  0  0  0  0  0
   -3.5480   21.5140  -30.0670 O   0  0  0  0  0  0  0  0  0  0  0  0
   -1.4410   21.4730  -30.9790 C   0  0  0  0  0  0  0  0  0  0  0  0
   -0.6200   20.4970  -31.1190 C   0  0  0  0  0  0  0  0  0  0  0  0
   -0.8440   19.1160  -31.5130 C   0  0  0  0  0  0  0  0  0  0  0  0
   -0.6310   18.9700  -32.9530 N   0  0  0  0  0  0  0  0  0  0  0  0
   -1.6620   19.5260  -33.7610 C   0  0  0  0  0  0  0  0  0  0  0  0
   -1.2120   20.9470  -34.1280 C   0  0  0  0  0  0  0  0  0  0  0  0
   -0.1430   20.8420  -35.0720 N   0  0  0  0  0  0  0  0  0  0  0  0
    0.4030   22.1310  -35.4090 C   0  0  0  0  0  0  0  0  0  0  0  0
    0.8300   19.8490  -34.7390 C   0  0  0  0  0  0  0  0  0  0  0  0
    0.6950   19.2840  -33.3630 C   0  0  0  0  0  0  0  0  0  0  0  0
   -1.5438   24.7984  -27.5308 H   0  0  0  0  0  0  0  0  0  0  0  0
   -1.2806   23.6133  -28.8548 H   0  0  0  0  0  0  0  0  0  0  0  0
   -0.3889   25.1726  -28.8548 H   0  0  0  0  0  0  0  0  0  0  0  0
   -3.2274   23.4968  -29.5319 H   0  0  0  0  0  0  0  0  0  0  0  0
   -4.0252   24.7694  -28.4402 H   0  0  0  0  0  0  0  0  0  0  0  0
   -5.4610   25.0840  -29.9508 H   0  0  0  0  0  0  0  0  0  0  0  0
   -4.0276   25.7530  -30.9675 H   0  0  0  0  0  0  0  0  0  0  0  0
   -7.4524   24.0954  -31.2259 H   0  0  0  0  0  0  0  0  0  0  0  0
   -9.5440   23.0800  -31.4090 H   0  0  0  0  0  0  0  0  0  0  0  0
  -11.0182   21.2705  -31.9021 H   0  0  0  0  0  0  0  0  0  0  0  0
   -6.4663   18.9411  -35.3523 H   0  0  0  0  0  0  0  0  0  0  0  0
   -4.3244   17.8913  -35.9772 H   0  0  0  0  0  0  0  0  0  0  0  0
   -1.6550   17.0670  -32.5260 H   0  0  0  0  0  0  0  0  0  0  0  0
   -0.3900   16.8920  -33.5860 H   0  0  0  0  0  0  0  0  0  0  0  0
   -3.8072   16.4350  -31.9902 H   0  0  0  0  0  0  0  0  0  0  0  0
   -5.9638   17.4631  -31.2799 H   0  0  0  0  0  0  0  0  0  0  0  0
   -5.3978   19.8289  -32.8210 H   0  0  0  0  0  0  0  0  0  0  0  0
   -3.2480   21.8910  -33.2320 H   0  0  0  0  0  0  0  0  0  0  0  0
   -0.9571   22.4077  -30.6596 H   0  0  0  0  0  0  0  0  0  0  0  0
    0.4295   20.7474  -30.9049 H   0  0  0  0  0  0  0  0  0  0  0  0
   -0.1425   18.4637  -30.9722 H   0  0  0  0  0  0  0  0  0  0  0  0
   -1.8782   18.8321  -31.2685 H   0  0  0  0  0  0  0  0  0  0  0  0
   -1.7975   18.9236  -34.6714 H   0  0  0  0  0  0  0  0  0  0  0  0
   -2.6226   19.5396  -33.2253 H   0  0  0  0  0  0  0  0  0  0  0  0
   -2.0511   21.5007  -34.5744 H   0  0  0  0  0  0  0  0  0  0  0  0
   -0.8768   21.4857  -33.2294 H   0  0  0  0  0  0  0  0  0  0  0  0
    0.6367   22.6828  -34.4865 H   0  0  0  0  0  0  0  0  0  0  0  0
    1.3217   21.9972  -35.9990 H   0  0  0  0  0  0  0  0  0  0  0  0
   -0.3323   22.6978  -35.9990 H   0  0  0  0  0  0  0  0  0  0  0  0
    0.7381   19.0231  -35.4597 H   0  0  0  0  0  0  0  0  0  0  0  0
    1.8100   20.3472  -34.7770 H   0  0  0  0  0  0  0  0  0  0  0  0
    1.2908   18.3605  -33.3167 H   0  0  0  0  0  0  0  0  0  0  0  0
    1.0418   20.0728  -32.6792 H   0  0  0  0  0  0  0  0  0  0  0  0
  1  2  1  0
  2  3  1  0
  3  4  1  0
  4  5  1  0
  5  6  1  0
  6  7  2  0
  7  8  1  0
  8  9  1  0
  9 10  1  0
 10 11  2  0
 11 12  1  0
 12 13  2  0
 13 14  1  0
 14 15  2  0
 15 16  1  0
 16 17  2  0
 17 18  1  0
 18 19  1  0
 18 20  2  0
 18 21  2  0
 17 22  1  0
 22 23  2  0
 12 24  1  0
 24 25  1  0
 25 26  2  0
 26 27  1  0
 27 28  1  0
 28 29  2  0
 28 30  1  0
 30 31  2  0
 31 32  1  0
 32 33  1  0
 33 34  1  0
 34 35  1  0
 35 36  1  0
 36 37  1  0
 36 38  1  0
 38 39  1  0
 26  6  1  0
 39 33  1  0
 24  8  2  0
 23 14  1  0
  1 40  1  0
  1 41  1  0
  1 42  1  0
  3 43  1  0
  3 44  1  0
  4 45  1  0
  4 46  1  0
  7 47  1  0
  9 48  1  0
 10 49  1  0
 15 50  1  0
 16 51  1  0
 19 52  1  0
 19 53  1  0
 22 54  1  0
 23 55  1  0
 25 56  1  0
 27 57  1  0
 30 58  1  0
 31 59  1  0
 32 60  1  0
 32 61  1  0
 34 62  1  0
 34 63  1  0
 35 64  1  0
 35 65  1  0
 37 66  1  0
 37 67  1  0
 37 68  1  0
 38 69  1  0
 38 70  1  0
 39 71  1  0
 39 72  1  0
M  END
>  <smiles>  (45) 
COCCOc1cc2[nH]cnc(=Nc3ccc(S(N)(=O)=O)cc3)c2cc1NC(=O)C=CCN1CCN(C)CC1

>  <score_type>  (45) 
oracle

>  <origin>  (45) 
adgpu

>  <m_score__min__energy>  (45) 
-10.16

>  <m_primary>  (45) 
energy

$$$$
45:0
     RDKit          3D

 38 40  0  0  0  0  0  0  0  0999 V2000
   -6.3850   16.4850  -33.9860 C   0  0  0  0  0  0  0  0  0  0  0  0
   -6.1490   17.9270  -33.6860 C   0  0  0  0  0  0  0  0  0  0  0  0
   -6.8660   18.6970  -32.7970 C   0  0  0  0  0  0  0  0  0  0  0  0
   -6.3130   19.9570  -32.9380 C   0  0  0  0  0  0  0  0  0  0  0  0
   -6.6900   21.1950  -32.2170 C   0  0  0  0  0  0  0  0  0  0  0  0
   -8.0370   21.5150  -31.9670 C   0  0  0  0  0  0  0  0  0  0  0  0
   -8.3680   22.6860  -31.2790 C   0  0  0  0  0  0  0  0  0  0  0  0
   -7.3630   23.5470  -30.8340 C   0  0  0  0  0  0  0  0  0  0  0  0
   -6.0200   23.2460  -31.0800 C   0  0  0  0  0  0  0  0  0  0  0  0
   -4.7600   24.3280  -30.4900 S   0  0  0  0  0  0  0  0  0  0  0  0
   -3.4020   23.7920  -30.8510 O   0  0  0  0  0  0  0  0  0  0  0  0
   -4.9290   25.6730  -31.1380 O   0  0  0  0  0  0  0  0  0  0  0  0
   -4.8880   24.5020  -28.7670 N   0  0  0  0  0  0  0  0  0  0  0  0
   -3.8770   23.6740  -28.1070 C   0  0  0  0  0  0  0  0  0  0  0  0
   -2.6910   24.5200  -27.7410 C   0  0  0  0  0  0  0  0  0  0  0  0
   -2.6580   25.2180  -26.5250 C   0  0  0  0  0  0  0  0  0  0  0  0
   -1.5330   25.9710  -26.1830 C   0  0  0  0  0  0  0  0  0  0  0  0
   -0.4440   26.0110  -27.0580 C   0  0  0  0  0  0  0  0  0  0  0  0
   -0.4840   25.3150  -28.2260 N   0  0  0  0  0  0  0  0  0  0  0  0
   -1.5680   24.5760  -28.5810 C   0  0  0  0  0  0  0  0  0  0  0  0
   -5.6850   22.0690  -31.7660 C   0  0  0  0  0  0  0  0  0  0  0  0
   -5.3650   19.8960  -33.8480 O   0  0  0  0  0  0  0  0  0  0  0  0
   -5.2430   18.6910  -34.3250 N   0  0  0  0  0  0  0  0  0  0  0  0
   -6.4767   15.9247  -33.0438 H   0  0  0  0  0  0  0  0  0  0  0  0
   -7.3125   16.3785  -34.5677 H   0  0  0  0  0  0  0  0  0  0  0  0
   -5.5398   16.0884  -34.5677 H   0  0  0  0  0  0  0  0  0  0  0  0
   -7.6846   18.3840  -32.1323 H   0  0  0  0  0  0  0  0  0  0  0  0
   -8.8335   20.8406  -32.3145 H   0  0  0  0  0  0  0  0  0  0  0  0
   -9.4234   22.9298  -31.0876 H   0  0  0  0  0  0  0  0  0  0  0  0
   -7.6285   24.4645  -30.2884 H   0  0  0  0  0  0  0  0  0  0  0  0
   -4.6810   25.5050  -28.5490 H   0  0  0  0  0  0  0  0  0  0  0  0
   -4.3052   23.2307  -27.1959 H   0  0  0  0  0  0  0  0  0  0  0  0
   -3.5572   22.8744  -28.7913 H   0  0  0  0  0  0  0  0  0  0  0  0
   -3.5182   25.1723  -25.8409 H   0  0  0  0  0  0  0  0  0  0  0  0
   -1.5041   26.5272  -25.2344 H   0  0  0  0  0  0  0  0  0  0  0  0
    0.4455   26.6054  -26.8021 H   0  0  0  0  0  0  0  0  0  0  0  0
   -1.5652   24.0198  -29.5300 H   0  0  0  0  0  0  0  0  0  0  0  0
   -4.6281   21.8280  -31.9525 H   0  0  0  0  0  0  0  0  0  0  0  0
  1  2  1  0
  2  3  1  0
  3  4  2  0
  4  5  1  0
  5  6  2  0
  6  7  1  0
  7  8  2  0
  8  9  1  0
  9 10  1  0
 10 11  2  0
 10 12  2  0
 10 13  1  0
 13 14  1  0
 14 15  1  0
 15 16  2  0
 16 17  1  0
 17 18  2  0
 18 19  1  0
 19 20  2  0
  9 21  2  0
  4 22  1  0
 22 23  1  0
 23  2  2  0
 21  5  1  0
 20 15  1  0
  1 24  1  0
  1 25  1  0
  1 26  1  0
  3 27  1  0
  6 28  1  0
  7 29  1  0
  8 30  1  0
 13 31  1  0
 14 32  1  0
 14 33  1  0
 16 34  1  0
 17 35  1  0
 18 36  1  0
 20 37  1  0
 21 38  1  0
M  END
>  <UniqueID>  (46) 
43

>  <SMILES>  (46) 
Cc1cc(-c2cccc(S(=O)(=O)NCc3cccnc3)c2)on1

>  <Energy>  (46) 
67.98889288755835

>  <Genealogy>  (46) 
Cc1cc(-c2cccc(S(=O)(=O)NCc3cccnc3)c2)on1 (3D coordinates assigned)
Cc1cc(-c2cccc(S(=O)(=O)NCc3cccnc3)c2)on1 (optimized conformer: 67.98889288755835 kcal/mol)

>  <smiles>  (46) 
Cc1cc(-c2cccc(S(=O)(=O)NCc3cccnc3)c2)on1

>  <score_type>  (46) 
oracle

>  <origin>  (46) 
adgpu

>  <m_score__min__energy>  (46) 
-9.6899999999999995

>  <m_primary>  (46) 
energy

$$$$
46:0
     RDKit          3D

 62 65  0  0  0  0  0  0  0  0999 V2000
   -0.2300   18.8430  -34.0230 O   0  0  0  0  0  0  0  0  0  0  0  0
   -1.4870   18.7900  -33.9800 C   0  0  0  0  0  0  0  0  0  0  0  0
   -2.2420   19.9940  -34.1740 N   0  0  0  0  0  0  0  0  0  0  0  0
   -2.6530   20.8820  -33.1270 C   0  0  0  0  0  0  0  0  0  0  0  0
   -1.9460   20.9550  -31.9140 C   0  0  0  0  0  0  0  0  0  0  0  0
   -2.3410   21.8550  -30.9220 C   0  0  0  0  0  0  0  0  0  0  0  0
   -3.4520   22.6840  -31.1240 C   0  0  0  0  0  0  0  0  0  0  0  0
   -3.8930   23.8890  -29.9150 S   0  0  0  0  0  0  0  0  0  0  0  0
   -5.2870   23.6220  -29.4150 O   0  0  0  0  0  0  0  0  0  0  0  0
   -3.8660   25.2520  -30.5490 O   0  0  0  0  0  0  0  0  0  0  0  0
   -2.7550   23.8380  -28.5880 N   0  0  0  0  0  0  0  0  0  0  0  0
   -3.3170   24.5480  -27.4190 C   0  0  0  0  0  0  0  0  0  0  0  0
   -2.2550   24.8500  -26.3380 C   0  0  0  0  0  0  0  0  0  0  0  0
   -0.9990   23.9970  -26.5280 C   0  0  0  0  0  0  0  0  0  0  0  0
   -0.3980   24.2110  -27.9270 C   0  0  0  0  0  0  0  0  0  0  0  0
   -1.4750   24.4340  -29.0050 C   0  0  0  0  0  0  0  0  0  0  0  0
   -4.1790   22.5880  -32.3190 C   0  0  0  0  0  0  0  0  0  0  0  0
   -3.7890   21.6800  -33.3090 C   0  0  0  0  0  0  0  0  0  0  0  0
   -2.1480   17.5070  -33.6890 C   0  0  0  0  0  0  0  0  0  0  0  0
   -1.5430   16.6300  -33.0140 O   0  0  0  0  0  0  0  0  0  0  0  0
   -3.4530   17.2400  -34.2160 N   0  0  0  0  0  0  0  0  0  0  0  0
   -4.6800   17.7430  -33.6690 C   0  0  0  0  0  0  0  0  0  0  0  0
   -5.2840   18.8560  -34.2640 C   0  0  0  0  0  0  0  0  0  0  0  0
   -6.4870   19.3610  -33.7610 C   0  0  0  0  0  0  0  0  0  0  0  0
   -7.0880   18.7710  -32.6420 C   0  0  0  0  0  0  0  0  0  0  0  0
   -8.6190   19.3880  -32.0230 S   0  0  0  0  0  0  0  0  0  0  0  0
   -9.3800   18.2520  -31.3940 O   0  0  0  0  0  0  0  0  0  0  0  0
   -9.4400   19.9090  -33.1710 O   0  0  0  0  0  0  0  0  0  0  0  0
   -8.4000   20.6610  -30.8360 N   0  0  0  0  0  0  0  0  0  0  0  0
   -9.5220   21.6200  -30.8160 C   0  0  0  0  0  0  0  0  0  0  0  0
   -9.4110   22.7050  -31.9150 C   0  0  0  0  0  0  0  0  0  0  0  0
   -8.1600   22.7070  -32.5750 O   0  0  0  0  0  0  0  0  0  0  0  0
   -7.1190   22.6760  -31.6250 C   0  0  0  0  0  0  0  0  0  0  0  0
   -7.0720   21.3080  -30.9270 C   0  0  0  0  0  0  0  0  0  0  0  0
   -6.4600   17.6850  -32.0150 C   0  0  0  0  0  0  0  0  0  0  0  0
   -5.2650   17.1720  -32.5240 C   0  0  0  0  0  0  0  0  0  0  0  0
   -1.0781   20.3005  -31.7456 H   0  0  0  0  0  0  0  0  0  0  0  0
   -1.7779   21.9132  -29.9789 H   0  0  0  0  0  0  0  0  0  0  0  0
   -3.7520   25.4989  -27.7604 H   0  0  0  0  0  0  0  0  0  0  0  0
   -4.0758   23.8933  -26.9657 H   0  0  0  0  0  0  0  0  0  0  0  0
   -1.9771   25.9127  -26.3977 H   0  0  0  0  0  0  0  0  0  0  0  0
   -2.6873   24.6114  -25.3551 H   0  0  0  0  0  0  0  0  0  0  0  0
   -0.2542   24.2783  -25.7690 H   0  0  0  0  0  0  0  0  0  0  0  0
   -1.2740   22.9373  -26.4215 H   0  0  0  0  0  0  0  0  0  0  0  0
    0.2590   25.0927  -27.8973 H   0  0  0  0  0  0  0  0  0  0  0  0
    0.1581   23.3003  -28.1942 H   0  0  0  0  0  0  0  0  0  0  0  0
   -1.6126   25.5142  -29.1608 H   0  0  0  0  0  0  0  0  0  0  0  0
   -1.1473   23.9542  -29.9390 H   0  0  0  0  0  0  0  0  0  0  0  0
   -5.0588   23.2287  -32.4785 H   0  0  0  0  0  0  0  0  0  0  0  0
   -4.3772   21.5925  -34.2344 H   0  0  0  0  0  0  0  0  0  0  0  0
   -4.8098   19.3365  -35.1325 H   0  0  0  0  0  0  0  0  0  0  0  0
   -6.9635   20.2255  -34.2464 H   0  0  0  0  0  0  0  0  0  0  0  0
  -10.4600   21.0650  -30.9650 H   0  0  0  0  0  0  0  0  0  0  0  0
   -9.4983   22.1335  -29.8435 H   0  0  0  0  0  0  0  0  0  0  0  0
  -10.1993   22.5278  -32.6615 H   0  0  0  0  0  0  0  0  0  0  0  0
   -9.5201   23.6816  -31.4208 H   0  0  0  0  0  0  0  0  0  0  0  0
   -6.1599   22.8574  -32.1321 H   0  0  0  0  0  0  0  0  0  0  0  0
   -7.3008   23.4556  -30.8706 H   0  0  0  0  0  0  0  0  0  0  0  0
   -6.3983   20.6481  -31.4934 H   0  0  0  0  0  0  0  0  0  0  0  0
   -6.7150   21.4740  -29.8999 H   0  0  0  0  0  0  0  0  0  0  0  0
   -6.9108   17.2352  -31.1181 H   0  0  0  0  0  0  0  0  0  0  0  0
   -4.7795   16.3186  -32.0280 H   0  0  0  0  0  0  0  0  0  0  0  0
  1  2  2  0
  2  3  1  0
  3  4  1  0
  4  5  2  0
  5  6  1  0
  6  7  2  0
  7  8  1  0
  8  9  2  0
  8 10  2  0
  8 11  1  0
 11 12  1  0
 12 13  1  0
 13 14  1  0
 14 15  1  0
 15 16  1  0
  7 17  1  0
 17 18  2  0
  2 19  1  0
 19 20  2  0
 19 21  1  0
 21 22  1  0
 22 23  2  0
 23 24  1  0
 24 25  2  0
 25 26  1  0
 26 27  2  0
 26 28  2  0
 26 29  1  0
 29 30  1  0
 30 31  1  0
 31 32  1  0
 32 33  1  0
 33 34  1  0
 25 35  1  0
 35 36  2  0
 18  4  1  0
 36 22  1  0
 16 11  1  0
 34 29  1  0
  5 37  1  0
  6 38  1  0
 12 39  1  0
 12 40  1  0
 13 41  1  0
 13 42  1  0
 14 43  1  0
 14 44  1  0
 15 45  1  0
 15 46  1  0
 16 47  1  0
 16 48  1  0
 17 49  1  0
 18 50  1  0
 23 51  1  0
 24 52  1  0
 30 53  1  0
 30 54  1  0
 31 55  1  0
 31 56  1  0
 33 57  1  0
 33 58  1  0
 34 59  1  0
 34 60  1  0
 35 61  1  0
 36 62  1  0
M  CHG  2   3  -1  21  -1
M  END
>  <UniqueID>  (47) 
44

>  <SMILES>  (47) 
O=C([N-]c1ccc(S(=O)(=O)N2CCCCC2)cc1)C(=O)[N-]c1ccc(S(=O)(=O)N2CCOCC2)cc1

>  <Energy>  (47) 
85.19152273959624

>  <Genealogy>  (47) 
O=C([N-]c1ccc(S(=O)(=O)N2CCCCC2)cc1)C(=O)[N-]c1ccc(S(=O)(=O)N2CCOCC2)cc1 (protonated)
O=C([N-]c1ccc(S(=O)(=O)N2CCCCC2)cc1)C(=O)[N-]c1ccc(S(=O)(=O)N2CCOCC2)cc1 (3D coordinates assigned)
O=C([N-]c1ccc(S(=O)(=O)N2CCCCC2)cc1)C(=O)[N-]c1ccc(S(=O)(=O)N2CCOCC2)cc1 (nonaromatic ring conformer: 85.19152273959624 kcal/mol)

>  <smiles>  (47) 
O=C(Nc1ccc(S(=O)(=O)N2CCCCC2)cc1)C(=O)Nc1ccc(S(=O)(=O)N2CCOCC2)cc1

>  <score_type>  (47) 
oracle

>  <origin>  (47) 
adgpu

>  <m_score__min__energy>  (47) 
-12.49

>  <m_primary>  (47) 
energy

$$$$
47:0
     RDKit          3D

 50 53  0  0  0  0  0  0  0  0999 V2000
   -8.9580   19.7220  -32.9770 C   0  0  0  0  0  0  0  0  0  0  0  0
   -7.5700   20.0400  -32.6640 N   0  0  0  0  0  0  0  0  0  0  0  0
   -6.4300   19.6070  -33.4120 C   0  0  0  0  0  0  0  0  0  0  0  0
   -6.4380   18.6510  -34.2300 O   0  0  0  0  0  0  0  0  0  0  0  0
   -5.2830   20.4500  -33.1100 C   0  0  0  0  0  0  0  0  0  0  0  0
   -4.1190   20.3500  -33.5830 O   0  0  0  0  0  0  0  0  0  0  0  0
   -5.7690   21.4450  -32.1710 C   0  0  0  0  0  0  0  0  0  0  0  0
   -5.1140   22.5240  -31.5830 C   0  0  0  0  0  0  0  0  0  0  0  0
   -5.8520   23.3630  -30.7270 C   0  0  0  0  0  0  0  0  0  0  0  0
   -5.0590   24.7490  -29.9860 S   0  0  0  0  0  0  0  0  0  0  0  0
   -6.0610   25.8560  -29.8260 O   0  0  0  0  0  0  0  0  0  0  0  0
   -3.9270   25.2450  -30.8430 O   0  0  0  0  0  0  0  0  0  0  0  0
   -4.4430   24.3100  -28.4260 N   0  0  0  0  0  0  0  0  0  0  0  0
   -3.1770   23.6760  -28.1840 C   0  0  0  0  0  0  0  0  0  0  0  0
   -3.0890   22.3790  -27.6480 C   0  0  0  0  0  0  0  0  0  0  0  0
   -1.8410   21.7770  -27.4430 C   0  0  0  0  0  0  0  0  0  0  0  0
   -1.7480   20.1370  -26.7920 S   0  0  0  0  0  0  0  0  0  0  0  0
   -1.6630   20.2060  -25.2930 O   0  0  0  0  0  0  0  0  0  0  0  0
   -3.0020   19.3920  -27.1540 O   0  0  0  0  0  0  0  0  0  0  0  0
   -0.3600   19.2730  -27.4080 N   0  0  0  0  0  0  0  0  0  0  0  0
   -0.2230   19.4880  -28.8540 C   0  0  0  0  0  0  0  0  0  0  0  0
    1.0080   18.7240  -29.3890 C   0  0  0  0  0  0  0  0  0  0  0  0
    1.6010   17.9030  -28.3980 O   0  0  0  0  0  0  0  0  0  0  0  0
    0.6260   17.0400  -27.8460 C   0  0  0  0  0  0  0  0  0  0  0  0
   -0.4750   17.8340  -27.1160 C   0  0  0  0  0  0  0  0  0  0  0  0
   -0.6730   22.4740  -27.7740 C   0  0  0  0  0  0  0  0  0  0  0  0
   -0.7520   23.7640  -28.3020 C   0  0  0  0  0  0  0  0  0  0  0  0
   -2.0000   24.3670  -28.5080 C   0  0  0  0  0  0  0  0  0  0  0  0
   -2.0780   25.6520  -29.0450 O   0  0  0  0  0  0  0  0  0  0  0  0
   -7.2240   23.1040  -30.4910 C   0  0  0  0  0  0  0  0  0  0  0  0
   -7.8630   22.0160  -31.1060 C   0  0  0  0  0  0  0  0  0  0  0  0
   -7.1100   21.1890  -31.9430 C   0  0  0  0  0  0  0  0  0  0  0  0
   -9.5241   19.5923  -32.0428 H   0  0  0  0  0  0  0  0  0  0  0  0
   -9.3991   20.5423  -33.5622 H   0  0  0  0  0  0  0  0  0  0  0  0
   -8.9980   18.7914  -33.5622 H   0  0  0  0  0  0  0  0  0  0  0  0
   -4.0492   22.7154  -31.7820 H   0  0  0  0  0  0  0  0  0  0  0  0
   -4.0076   21.8328  -27.3876 H   0  0  0  0  0  0  0  0  0  0  0  0
   -1.1272   19.1236  -29.3634 H   0  0  0  0  0  0  0  0  0  0  0  0
   -0.0922   20.5629  -29.0477 H   0  0  0  0  0  0  0  0  0  0  0  0
    0.6932   18.0908  -30.2316 H   0  0  0  0  0  0  0  0  0  0  0  0
    1.7558   19.4668  -29.7037 H   0  0  0  0  0  0  0  0  0  0  0  0
    0.1676   16.4528  -28.6554 H   0  0  0  0  0  0  0  0  0  0  0  0
    1.1191   16.3795  -27.1175 H   0  0  0  0  0  0  0  0  0  0  0  0
   -1.4600   17.4755  -27.4495 H   0  0  0  0  0  0  0  0  0  0  0  0
   -0.3605   17.6829  -26.0325 H   0  0  0  0  0  0  0  0  0  0  0  0
    0.3093   22.0042  -27.6177 H   0  0  0  0  0  0  0  0  0  0  0  0
    0.1688   24.3090  -28.5572 H   0  0  0  0  0  0  0  0  0  0  0  0
   -2.9620   26.0500  -29.3400 H   0  0  0  0  0  0  0  0  0  0  0  0
   -7.7947   23.7619  -29.8191 H   0  0  0  0  0  0  0  0  0  0  0  0
   -8.9313   21.8192  -30.9330 H   0  0  0  0  0  0  0  0  0  0  0  0
  1  2  1  0
  2  3  1  0
  3  4  2  0
  3  5  1  0
  5  6  2  0
  5  7  1  0
  7  8  2  0
  8  9  1  0
  9 10  1  0
 10 11  2  0
 10 12  2  0
 10 13  1  0
 13 14  1  0
 14 15  2  0
 15 16  1  0
 16 17  1  0
 17 18  2  0
 17 19  2  0
 17 20  1  0
 20 21  1  0
 21 22  1  0
 22 23  1  0
 23 24  1  0
 24 25  1  0
 16 26  2  0
 26 27  1  0
 27 28  2  0
 28 29  1  0
  9 30  2  0
 30 31  1  0
 31 32  2  0
 32  2  1  0
 32  7  1  0
 28 14  1  0
 25 20  1  0
  1 33  1  0
  1 34  1  0
  1 35  1  0
  8 36  1  0
 15 37  1  0
 21 38  1  0
 21 39  1  0
 22 40  1  0
 22 41  1  0
 24 42  1  0
 24 43  1  0
 25 44  1  0
 25 45  1  0
 26 46  1  0
 27 47  1  0
 29 48  1  0
 30 49  1  0
 31 50  1  0
M  CHG  1  13  -1
M  END
>  <UniqueID>  (48) 
45

>  <SMILES>  (48) 
CN1C(=O)C(=O)c2cc(S(=O)(=O)[N-]c3cc(S(=O)(=O)N4CCOCC4)ccc3O)ccc21

>  <Energy>  (48) 
93.57747063292122

>  <Genealogy>  (48) 
CN1C(=O)C(=O)c2cc(S(=O)(=O)[N-]c3cc(S(=O)(=O)N4CCOCC4)ccc3O)ccc21 (protonated)
CN1C(=O)C(=O)c2cc(S(=O)(=O)[N-]c3cc(S(=O)(=O)N4CCOCC4)ccc3O)ccc21 (3D coordinates assigned)
CN1C(=O)C(=O)c2cc(S(=O)(=O)[N-]c3cc(S(=O)(=O)N4CCOCC4)ccc3O)ccc21 (nonaromatic ring conformer: 93.57747063292122 kcal/mol)

>  <smiles>  (48) 
CN1C(=O)C(=O)c2cc(S(=O)(=O)Nc3cc(S(=O)(=O)N4CCOCC4)ccc3O)ccc21

>  <score_type>  (48) 
oracle

>  <origin>  (48) 
adgpu

>  <m_score__min__energy>  (48) 
-12.94

>  <m_primary>  (48) 
energy

$$$$
48:0
     RDKit          3D

 45 48  0  0  0  0  0  0  0  0999 V2000
   -4.1950   22.5780  -27.4810 C   0  0  0  0  0  0  0  0  0  0  0  0
   -2.8470   22.0370  -27.8810 C   0  0  0  0  0  0  0  0  0  0  0  0
   -2.5190   20.7170  -27.5260 C   0  0  0  0  0  0  0  0  0  0  0  0
   -1.2720   20.1820  -27.8560 C   0  0  0  0  0  0  0  0  0  0  0  0
   -0.3340   20.9600  -28.5400 C   0  0  0  0  0  0  0  0  0  0  0  0
   -0.6340   22.2800  -28.8750 C   0  0  0  0  0  0  0  0  0  0  0  0
   -1.8820   22.8370  -28.5440 C   0  0  0  0  0  0  0  0  0  0  0  0
   -2.1840   24.5390  -28.9400 S   0  0  0  0  0  0  0  0  0  0  0  0
   -2.7380   25.2740  -27.7520 O   0  0  0  0  0  0  0  0  0  0  0  0
   -0.8880   25.1850  -29.3420 O   0  0  0  0  0  0  0  0  0  0  0  0
   -3.3160   24.6580  -30.2490 N   0  0  0  0  0  0  0  0  0  0  0  0
   -4.4830   23.8380  -30.4050 C   0  0  0  0  0  0  0  0  0  0  0  0
   -4.4790   22.6910  -31.2170 C   0  0  0  0  0  0  0  0  0  0  0  0
   -5.6490   21.9380  -31.3850 C   0  0  0  0  0  0  0  0  0  0  0  0
   -6.8220   22.3110  -30.7170 C   0  0  0  0  0  0  0  0  0  0  0  0
   -6.8230   23.4350  -29.8800 C   0  0  0  0  0  0  0  0  0  0  0  0
   -5.6580   24.2010  -29.7280 C   0  0  0  0  0  0  0  0  0  0  0  0
   -5.6640   25.3290  -28.9090 O   0  0  0  0  0  0  0  0  0  0  0  0
   -8.0490   21.4600  -30.8900 C   0  0  0  0  0  0  0  0  0  0  0  0
   -8.2340   21.0860  -32.3700 C   0  0  0  0  0  0  0  0  0  0  0  0
   -6.9400   20.5960  -33.0750 C   0  0  0  0  0  0  0  0  0  0  0  0
   -5.6610   20.6860  -32.2200 C   0  0  0  0  0  0  0  0  0  0  0  0
    0.9200   20.4220  -28.8580 O   0  0  0  0  0  0  0  0  0  0  0  0
    1.1980   19.0180  -28.8360 C   0  0  0  0  0  0  0  0  0  0  0  0
    0.3280   18.2950  -27.8460 C   0  0  0  0  0  0  0  0  0  0  0  0
    0.6690   17.1630  -27.4130 O   0  0  0  0  0  0  0  0  0  0  0  0
   -0.9250   18.8560  -27.4560 N   0  0  0  0  0  0  0  0  0  0  0  0
   -4.2675   22.6071  -26.3838 H   0  0  0  0  0  0  0  0  0  0  0  0
   -4.3163   23.5945  -27.8836 H   0  0  0  0  0  0  0  0  0  0  0  0
   -4.9854   21.9274  -27.8836 H   0  0  0  0  0  0  0  0  0  0  0  0
   -3.2508   20.1003  -26.9837 H   0  0  0  0  0  0  0  0  0  0  0  0
    0.1126   22.8912  -29.4031 H   0  0  0  0  0  0  0  0  0  0  0  0
   -3.5525   22.3826  -31.7235 H   0  0  0  0  0  0  0  0  0  0  0  0
   -7.7395   23.7171  -29.3411 H   0  0  0  0  0  0  0  0  0  0  0  0
   -4.8220   25.6600  -28.4520 H   0  0  0  0  0  0  0  0  0  0  0  0
   -7.9407   20.5416  -30.2943 H   0  0  0  0  0  0  0  0  0  0  0  0
   -8.9287   22.0270  -30.5513 H   0  0  0  0  0  0  0  0  0  0  0  0
   -8.9838   20.2834  -32.4308 H   0  0  0  0  0  0  0  0  0  0  0  0
   -8.5455   22.0044  -32.8891 H   0  0  0  0  0  0  0  0  0  0  0  0
   -7.0851   19.5443  -33.3630 H   0  0  0  0  0  0  0  0  0  0  0  0
   -6.7845   21.2654  -33.9339 H   0  0  0  0  0  0  0  0  0  0  0  0
   -5.6122   19.8112  -31.5550 H   0  0  0  0  0  0  0  0  0  0  0  0
   -4.7928   20.7103  -32.8951 H   0  0  0  0  0  0  0  0  0  0  0  0
    1.0179   18.6031  -29.8387 H   0  0  0  0  0  0  0  0  0  0  0  0
    2.2472   18.8806  -28.5354 H   0  0  0  0  0  0  0  0  0  0  0  0
  1  2  1  0
  2  3  2  0
  3  4  1  0
  4  5  2  0
  5  6  1  0
  6  7  2  0
  7  8  1  0
  8  9  2  0
  8 10  2  0
  8 11  1  0
 11 12  1  0
 12 13  2  0
 13 14  1  0
 14 15  2  0
 15 16  1  0
 16 17  2  0
 17 18  1  0
 15 19  1  0
 19 20  1  0
 20 21  1  0
 21 22  1  0
  5 23  1  0
 23 24  1  0
 24 25  1  0
 25 26  2  0
 25 27  1  0
  7  2  1  0
 17 12  1  0
 27  4  1  0
 22 14  1  0
  1 28  1  0
  1 29  1  0
  1 30  1  0
  3 31  1  0
  6 32  1  0
 13 33  1  0
 16 34  1  0
 18 35  1  0
 19 36  1  0
 19 37  1  0
 20 38  1  0
 20 39  1  0
 21 40  1  0
 21 41  1  0
 22 42  1  0
 22 43  1  0
 24 44  1  0
 24 45  1  0
M  CHG  2  11  -1  27  -1
M  END
>  <UniqueID>  (49) 
46

>  <SMILES>  (49) 
Cc1cc2c(cc1S(=O)(=O)[N-]c1cc3c(cc1O)CCCC3)OCC(=O)[N-]2

>  <Energy>  (49) 
57.69396489346801

>  <Genealogy>  (49) 
Cc1cc2c(cc1S(=O)(=O)[N-]c1cc3c(cc1O)CCCC3)OCC(=O)[N-]2 (protonated)
Cc1cc2c(cc1S(=O)(=O)[N-]c1cc3c(cc1O)CCCC3)OCC(=O)[N-]2 (3D coordinates assigned)
Cc1cc2c(cc1S(=O)(=O)[N-]c1cc3c(cc1O)CCCC3)OCC(=O)[N-]2 (nonaromatic ring conformer: 57.69396489346801 kcal/mol)

>  <smiles>  (49) 
Cc1cc2c(cc1S(=O)(=O)Nc1cc3c(cc1O)CCCC3)OCC(=O)N2

>  <score_type>  (49) 
oracle

>  <origin>  (49) 
adgpu

>  <m_score__min__energy>  (49) 
-11.630000000000001

>  <m_primary>  (49) 
energy

$$$$
