0:0
     RDKit          3D

 38 40  0  0  0  0  0  0  0  0999 V2000
   -3.2760   19.5060  -26.7700 O   0  0  0  0  0  0  0  0  0  0  0  0
   -2.1960   20.0970  -27.0400 C   0  0  0  0  0  0  0  0  0  0  0  0
   -0.9940   19.4560  -26.7690 O   0  0  0  0  0  0  0  0  0  0  0  0
   -2.2060   21.4510  -27.6390 C   0  0  0  0  0  0  0  0  0  0  0  0
   -1.0050   22.0830  -28.0030 C   0  0  0  0  0  0  0  0  0  0  0  0
   -1.0240   23.3580  -28.5730 C   0  0  0  0  0  0  0  0  0  0  0  0
   -2.2400   24.0240  -28.7780 C   0  0  0  0  0  0  0  0  0  0  0  0
   -2.2530   25.2950  -29.3480 O   0  0  0  0  0  0  0  0  0  0  0  0
   -3.4490   23.4100  -28.4120 C   0  0  0  0  0  0  0  0  0  0  0  0
   -4.6770   24.1200  -28.6290 N   0  0  0  0  0  0  0  0  0  0  0  0
   -5.4070   24.4240  -30.1730 S   0  0  0  0  0  0  0  0  0  0  0  0
   -4.5020   25.3070  -30.9870 O   0  0  0  0  0  0  0  0  0  0  0  0
   -6.7130   25.1380  -29.9660 O   0  0  0  0  0  0  0  0  0  0  0  0
   -5.7160   22.9030  -31.0020 C   0  0  0  0  0  0  0  0  0  0  0  0
   -4.6400   22.1200  -31.4360 C   0  0  0  0  0  0  0  0  0  0  0  0
   -4.8730   20.9200  -32.1130 C   0  0  0  0  0  0  0  0  0  0  0  0
   -6.1870   20.4870  -32.3660 C   0  0  0  0  0  0  0  0  0  0  0  0
   -6.4390   19.2690  -33.0930 N   0  0  0  0  0  0  0  0  0  0  0  0
   -5.7150   18.8360  -34.2820 C   0  0  0  0  0  0  0  0  0  0  0  0
   -6.1690   17.3800  -34.5410 C   0  0  0  0  0  0  0  0  0  0  0  0
   -7.2250   17.0980  -33.5740 N   0  0  0  0  0  0  0  0  0  0  0  0
   -7.3290   18.2290  -32.7370 C   0  0  0  0  0  0  0  0  0  0  0  0
   -8.1710   18.3140  -31.8050 O   0  0  0  0  0  0  0  0  0  0  0  0
   -7.2610   21.2810  -31.9330 C   0  0  0  0  0  0  0  0  0  0  0  0
   -7.0270   22.4760  -31.2480 C   0  0  0  0  0  0  0  0  0  0  0  0
   -3.4230   22.1220  -27.8510 C   0  0  0  0  0  0  0  0  0  0  0  0
   -0.0453   21.5712  -27.8383 H   0  0  0  0  0  0  0  0  0  0  0  0
   -0.0796   23.8420  -28.8625 H   0  0  0  0  0  0  0  0  0  0  0  0
   -3.0910   25.6810  -29.7680 H   0  0  0  0  0  0  0  0  0  0  0  0
   -3.6085   22.4501  -31.2437 H   0  0  0  0  0  0  0  0  0  0  0  0
   -4.0225   20.3095  -32.4505 H   0  0  0  0  0  0  0  0  0  0  0  0
   -5.9693   19.4755  -35.1401 H   0  0  0  0  0  0  0  0  0  0  0  0
   -4.6261   18.9030  -34.1413 H   0  0  0  0  0  0  0  0  0  0  0  0
   -6.5552   17.2788  -35.5660 H   0  0  0  0  0  0  0  0  0  0  0  0
   -5.3308   16.6761  -34.4318 H   0  0  0  0  0  0  0  0  0  0  0  0
   -8.2937   20.9600  -32.1345 H   0  0  0  0  0  0  0  0  0  0  0  0
   -7.8755   23.0837  -30.9006 H   0  0  0  0  0  0  0  0  0  0  0  0
   -4.3680   21.6319  -27.5739 H   0  0  0  0  0  0  0  0  0  0  0  0
  1  2  2  0
  2  3  1  0
  2  4  1  0
  4  5  2  0
  5  6  1  0
  6  7  2  0
  7  8  1  0
  7  9  1  0
  9 10  1  0
 10 11  1  0
 11 12  2  0
 11 13  2  0
 11 14  1  0
 14 15  2  0
 15 16  1  0
 16 17  2  0
 17 18  1  0
 18 19  1  0
 19 20  1  0
 20 21  1  0
 21 22  1  0
 22 23  2  0
 17 24  1  0
 24 25  2  0
  9 26  2  0
 26  4  1  0
 25 14  1  0
 22 18  1  0
  5 27  1  0
  6 28  1  0
  8 29  1  0
 15 30  1  0
 16 31  1  0
 19 32  1  0
 19 33  1  0
 20 34  1  0
 20 35  1  0
 24 36  1  0
 25 37  1  0
 26 38  1  0
M  CHG  3   3  -1  10  -1  21  -1
M  END
>  <UniqueID>  (1) 
1

>  <SMILES>  (1) 
O=C([O-])c1ccc(O)c([N-]S(=O)(=O)c2ccc(N3CC[N-]C3=O)cc2)c1

>  <Energy>  (1) 
61.14124780214485

>  <Genealogy>  (1) 
O=C([O-])c1ccc(O)c([N-]S(=O)(=O)c2ccc(N3CC[N-]C3=O)cc2)c1 (protonated)
O=C([O-])c1ccc(O)c([N-]S(=O)(=O)c2ccc(N3CC[N-]C3=O)cc2)c1 (3D coordinates assigned)
O=C([O-])c1ccc(O)c([N-]S(=O)(=O)c2ccc(N3CC[N-]C3=O)cc2)c1 (nonaromatic ring conformer: 61.14124780214485 kcal/mol)

>  <smiles>  (1) 
O=C(O)c1ccc(O)c(NS(=O)(=O)c2ccc(N3CCNC3=O)cc2)c1

>  <score_type>  (1) 
oracle

>  <origin>  (1) 
adgpu

>  <m_score__min__energy>  (1) 
-11.210000000000001

>  <m_primary>  (1) 
energy

$$$$
1:0
     RDKit          3D

 42 44  0  0  0  0  0  0  0  0999 V2000
   -1.0750   21.1290  -30.1090 O   0  0  0  0  0  0  0  0  0  0  0  0
   -1.7440   21.6100  -31.0610 C   0  0  0  0  0  0  0  0  0  0  0  0
   -1.6150   21.0200  -32.3630 N   0  0  0  0  0  0  0  0  0  0  0  0
   -2.1230   19.7430  -32.7750 C   0  0  0  0  0  0  0  0  0  0  0  0
   -1.2370   18.6630  -32.8750 C   0  0  0  0  0  0  0  0  0  0  0  0
   -1.7000   17.4040  -33.2690 C   0  0  0  0  0  0  0  0  0  0  0  0
   -3.0540   17.2130  -33.5550 C   0  0  0  0  0  0  0  0  0  0  0  0
   -3.9550   18.2780  -33.4400 C   0  0  0  0  0  0  0  0  0  0  0  0
   -5.6630   18.0210  -33.7800 S   0  0  0  0  0  0  0  0  0  0  0  0
   -6.0780   18.8300  -34.9790 O   0  0  0  0  0  0  0  0  0  0  0  0
   -5.8770   16.5650  -34.0880 O   0  0  0  0  0  0  0  0  0  0  0  0
   -6.6160   18.4820  -32.3910 N   0  0  0  0  0  0  0  0  0  0  0  0
   -7.9860   17.9380  -32.5210 C   0  0  0  0  0  0  0  0  0  0  0  0
   -8.9680   18.6610  -31.5940 C   0  0  0  0  0  0  0  0  0  0  0  0
   -9.0720   20.1550  -31.9540 C   0  0  0  0  0  0  0  0  0  0  0  0
   -7.8080   20.6880  -32.6490 C   0  0  0  0  0  0  0  0  0  0  0  0
   -6.5540   19.9490  -32.1610 C   0  0  0  0  0  0  0  0  0  0  0  0
   -3.4910   19.5380  -33.0320 C   0  0  0  0  0  0  0  0  0  0  0  0
   -2.6210   22.7770  -30.8080 C   0  0  0  0  0  0  0  0  0  0  0  0
   -2.2570   23.8080  -29.9140 C   0  0  0  0  0  0  0  0  0  0  0  0
   -1.0990   23.7450  -29.1390 O   0  0  0  0  0  0  0  0  0  0  0  0
   -3.0650   24.8920  -29.7760 N   0  0  0  0  0  0  0  0  0  0  0  0
   -4.2310   24.9980  -30.4610 C   0  0  0  0  0  0  0  0  0  0  0  0
   -4.9570   26.0150  -30.3130 O   0  0  0  0  0  0  0  0  0  0  0  0
   -4.6160   24.0070  -31.3030 N   0  0  0  0  0  0  0  0  0  0  0  0
   -3.8470   22.9050  -31.4890 C   0  0  0  0  0  0  0  0  0  0  0  0
   -4.2320   22.0140  -32.2920 O   0  0  0  0  0  0  0  0  0  0  0  0
   -0.1714   18.8060  -32.6424 H   0  0  0  0  0  0  0  0  0  0  0  0
   -0.9969   16.5623  -33.3539 H   0  0  0  0  0  0  0  0  0  0  0  0
   -3.4132   16.2226  -33.8715 H   0  0  0  0  0  0  0  0  0  0  0  0
   -8.3215   18.0594  -33.5615 H   0  0  0  0  0  0  0  0  0  0  0  0
   -7.9634   16.8752  -32.2381 H   0  0  0  0  0  0  0  0  0  0  0  0
   -9.9611   18.1980  -31.6911 H   0  0  0  0  0  0  0  0  0  0  0  0
   -8.6010   18.5751  -30.5606 H   0  0  0  0  0  0  0  0  0  0  0  0
   -9.9299   20.2956  -32.6280 H   0  0  0  0  0  0  0  0  0  0  0  0
   -9.1958   20.7149  -31.0153 H   0  0  0  0  0  0  0  0  0  0  0  0
   -7.9085   20.5460  -33.7351 H   0  0  0  0  0  0  0  0  0  0  0  0
   -7.7004   21.7555  -32.4063 H   0  0  0  0  0  0  0  0  0  0  0  0
   -5.6805   20.3507  -32.6955 H   0  0  0  0  0  0  0  0  0  0  0  0
   -6.4809   20.1082  -31.0750 H   0  0  0  0  0  0  0  0  0  0  0  0
   -4.2007   20.3699  -32.9125 H   0  0  0  0  0  0  0  0  0  0  0  0
   -0.5440   22.9040  -29.0440 H   0  0  0  0  0  0  0  0  0  0  0  0
  1  2  2  0
  2  3  1  0
  3  4  1  0
  4  5  2  0
  5  6  1  0
  6  7  2  0
  7  8  1  0
  8  9  1  0
  9 10  2  0
  9 11  2  0
  9 12  1  0
 12 13  1  0
 13 14  1  0
 14 15  1  0
 15 16  1  0
 16 17  1  0
  8 18  2  0
  2 19  1  0
 19 20  2  0
 20 21  1  0
 20 22  1  0
 22 23  1  0
 23 24  2  0
 23 25  1  0
 25 26  1  0
 26 27  2  0
 18  4  1  0
 26 19  1  0
 17 12  1  0
  5 28  1  0
  6 29  1  0
  7 30  1  0
 13 31  1  0
 13 32  1  0
 14 33  1  0
 14 34  1  0
 15 35  1  0
 15 36  1  0
 16 37  1  0
 16 38  1  0
 17 39  1  0
 17 40  1  0
 18 41  1  0
 21 42  1  0
M  CHG  3   3  -1  22  -1  25  -1
M  END
>  <UniqueID>  (2) 
2

>  <SMILES>  (2) 
O=C([N-]c1cccc(S(=O)(=O)N2CCCCC2)c1)c1c(O)[n-]c(=O)[n-]c1=O

>  <Energy>  (2) 
59.99966900954389

>  <Genealogy>  (2) 
O=C([N-]c1cccc(S(=O)(=O)N2CCCCC2)c1)c1c(O)[n-]c(=O)[n-]c1=O (protonated)
O=C([N-]c1cccc(S(=O)(=O)N2CCCCC2)c1)c1c(O)[n-]c(=O)[n-]c1=O (3D coordinates assigned)
O=C([N-]c1cccc(S(=O)(=O)N2CCCCC2)c1)c1c(O)[n-]c(=O)[n-]c1=O (nonaromatic ring conformer: 59.99966900954389 kcal/mol)

>  <smiles>  (2) 
O=C(Nc1cccc(S(=O)(=O)N2CCCCC2)c1)c1c(O)[nH]c(=O)[nH]c1=O

>  <score_type>  (2) 
oracle

>  <origin>  (2) 
adgpu

>  <m_score__min__energy>  (2) 
-12.199999999999999

>  <m_primary>  (2) 
energy

$$$$
2:0
     RDKit          3D

 75 80  0  0  0  0  0  0  0  0999 V2000
   -2.0570   17.8170  -25.9800 N   0  0  0  0  0  0  0  0  0  0  0  0
   -2.2050   18.8290  -26.7630 C   0  0  0  0  0  0  0  0  0  0  0  0
   -3.2760   19.6500  -26.6970 N   0  0  0  0  0  0  0  0  0  0  0  0
   -3.4190   20.7050  -27.5230 C   0  0  0  0  0  0  0  0  0  0  0  0
   -2.5150   21.0240  -28.4720 N   0  0  0  0  0  0  0  0  0  0  0  0
   -1.4260   20.2370  -28.5800 C   0  0  0  0  0  0  0  0  0  0  0  0
   -1.2670   19.1560  -27.7450 C   0  0  0  0  0  0  0  0  0  0  0  0
   -0.1090   18.5870  -28.0970 N   0  0  0  0  0  0  0  0  0  0  0  0
    0.4820   19.2350  -29.1040 C   0  0  0  0  0  0  0  0  0  0  0  0
    1.7390   19.0140  -29.8380 C   0  0  0  0  0  0  0  0  0  0  0  0
    1.7400   18.0470  -30.8210 O   0  0  0  0  0  0  0  0  0  0  0  0
    0.8000   17.8010  -31.7470 C   0  0  0  0  0  0  0  0  0  0  0  0
   -0.1770   16.8350  -31.4120 C   0  0  0  0  0  0  0  0  0  0  0  0
   -1.1870   16.5070  -32.2840 C   0  0  0  0  0  0  0  0  0  0  0  0
   -1.3310   17.0750  -33.5270 C   0  0  0  0  0  0  0  0  0  0  0  0
   -2.3630   16.7560  -34.4810 C   0  0  0  0  0  0  0  0  0  0  0  0
   -1.9820   16.3470  -35.6290 O   0  0  0  0  0  0  0  0  0  0  0  0
   -3.7900   16.8490  -34.2770 C   0  0  0  0  0  0  0  0  0  0  0  0
   -4.6720   17.4540  -35.1450 C   0  0  0  0  0  0  0  0  0  0  0  0
   -6.0430   17.5000  -34.9130 C   0  0  0  0  0  0  0  0  0  0  0  0
   -6.5970   16.9240  -33.7650 C   0  0  0  0  0  0  0  0  0  0  0  0
   -5.7150   16.3210  -32.9010 C   0  0  0  0  0  0  0  0  0  0  0  0
   -4.3590   16.2790  -33.1370 C   0  0  0  0  0  0  0  0  0  0  0  0
   -0.3670   18.0330  -33.8650 C   0  0  0  0  0  0  0  0  0  0  0  0
    0.6440   18.3590  -32.9860 C   0  0  0  0  0  0  0  0  0  0  0  0
   -0.3570   20.2640  -29.3930 N   0  0  0  0  0  0  0  0  0  0  0  0
   -0.1840   21.3010  -30.4090 C   0  0  0  0  0  0  0  0  0  0  0  0
   -0.6990   20.7420  -31.6870 C   0  0  0  0  0  0  0  0  0  0  0  0
   -1.7290   21.5760  -32.3970 C   0  0  0  0  0  0  0  0  0  0  0  0
   -2.8410   21.8080  -31.4030 C   0  0  0  0  0  0  0  0  0  0  0  0
   -4.2050   21.7010  -32.0250 C   0  0  0  0  0  0  0  0  0  0  0  0
   -4.4270   20.4610  -32.6910 N   0  0  0  0  0  0  0  0  0  0  0  0
   -5.6260   20.3950  -33.4630 C   0  0  0  0  0  0  0  0  0  0  0  0
   -6.8430   20.6610  -32.6210 C   0  0  0  0  0  0  0  0  0  0  0  0
   -7.5870   19.5770  -32.1470 C   0  0  0  0  0  0  0  0  0  0  0  0
   -8.7150   19.8440  -31.3710 C   0  0  0  0  0  0  0  0  0  0  0  0
   -9.1030   21.1370  -31.0650 C   0  0  0  0  0  0  0  0  0  0  0  0
   -8.3600   22.1980  -31.5380 C   0  0  0  0  0  0  0  0  0  0  0  0
   -7.2460   21.9420  -32.3050 C   0  0  0  0  0  0  0  0  0  0  0  0
   -3.2590   19.9010  -33.2950 C   0  0  0  0  0  0  0  0  0  0  0  0
   -2.2830   20.9760  -33.6420 C   0  0  0  0  0  0  0  0  0  0  0  0
   -1.2510   17.1760  -26.0100 H   0  0  0  0  0  0  0  0  0  0  0  0
   -3.9910   19.4120  -25.9600 H   0  0  0  0  0  0  0  0  0  0  0  0
   -4.3144   21.3353  -27.4186 H   0  0  0  0  0  0  0  0  0  0  0  0
    2.0153   19.9670  -30.3128 H   0  0  0  0  0  0  0  0  0  0  0  0
    2.4452   18.6442  -29.0800 H   0  0  0  0  0  0  0  0  0  0  0  0
   -0.1274   16.3358  -30.4330 H   0  0  0  0  0  0  0  0  0  0  0  0
   -1.9197   15.7489  -31.9702 H   0  0  0  0  0  0  0  0  0  0  0  0
   -4.2760   17.9200  -36.0593 H   0  0  0  0  0  0  0  0  0  0  0  0
   -6.7003   17.9961  -35.6423 H   0  0  0  0  0  0  0  0  0  0  0  0
   -7.6783   16.9522  -33.5651 H   0  0  0  0  0  0  0  0  0  0  0  0
   -6.1072   15.8539  -31.9856 H   0  0  0  0  0  0  0  0  0  0  0  0
   -3.7050   15.7816  -32.4056 H   0  0  0  0  0  0  0  0  0  0  0  0
   -0.4170   18.5317  -34.8442 H   0  0  0  0  0  0  0  0  0  0  0  0
    1.3740   19.1187  -33.3023 H   0  0  0  0  0  0  0  0  0  0  0  0
   -0.7536   22.2005  -30.1325 H   0  0  0  0  0  0  0  0  0  0  0  0
    0.8735   21.5889  -30.5024 H   0  0  0  0  0  0  0  0  0  0  0  0
    0.1558   20.6103  -32.3667 H   0  0  0  0  0  0  0  0  0  0  0  0
   -1.2065   19.8033  -31.4200 H   0  0  0  0  0  0  0  0  0  0  0  0
   -1.2411   22.5017  -32.7362 H   0  0  0  0  0  0  0  0  0  0  0  0
   -2.7594   21.0584  -30.6021 H   0  0  0  0  0  0  0  0  0  0  0  0
   -2.7318   22.8312  -31.0143 H   0  0  0  0  0  0  0  0  0  0  0  0
   -4.9595   21.8110  -31.2321 H   0  0  0  0  0  0  0  0  0  0  0  0
   -4.2798   22.4948  -32.7828 H   0  0  0  0  0  0  0  0  0  0  0  0
   -5.5758   21.1463  -34.2649 H   0  0  0  0  0  0  0  0  0  0  0  0
   -5.7112   19.3804  -33.8793 H   0  0  0  0  0  0  0  0  0  0  0  0
   -7.2916   18.5431  -32.3791 H   0  0  0  0  0  0  0  0  0  0  0  0
   -9.3134   19.0028  -30.9913 H   0  0  0  0  0  0  0  0  0  0  0  0
   -9.9968   21.3167  -30.4495 H   0  0  0  0  0  0  0  0  0  0  0  0
   -8.6529   23.2326  -31.3061 H   0  0  0  0  0  0  0  0  0  0  0  0
   -6.6550   22.7906  -32.6800 H   0  0  0  0  0  0  0  0  0  0  0  0
   -2.7888   19.1987  -32.5910 H   0  0  0  0  0  0  0  0  0  0  0  0
   -3.5519   19.3757  -34.2160 H   0  0  0  0  0  0  0  0  0  0  0  0
   -1.4631   20.5467  -34.2366 H   0  0  0  0  0  0  0  0  0  0  0  0
   -2.7945   21.7564  -34.2246 H   0  0  0  0  0  0  0  0  0  0  0  0
  1  2  2  3
  2  3  1  0
  3  4  1  0
  4  5  2  0
  5  6  1  0
  6  7  2  0
  7  8  1  0
  8  9  2  0
  9 10  1  0
 10 11  1  0
 11 12  1  0
 12 13  2  0
 13 14  1  0
 14 15  2  0
 15 16  1  0
 16 17  2  0
 16 18  1  0
 18 19  2  0
 19 20  1  0
 20 21  2  0
 21 22  1  0
 22 23  2  0
 15 24  1  0
 24 25  2  0
  9 26  1  0
 26 27  1  0
 27 28  1  0
 28 29  1  0
 29 30  1  0
 30 31  1  0
 31 32  1  0
 32 33  1  0
 33 34  1  0
 34 35  2  0
 35 36  1  0
 36 37  2  0
 37 38  1  0
 38 39  2  0
 32 40  1  0
 40 41  1  0
  7  2  1  0
 25 12  1  0
 41 29  1  0
 26  6  1  0
 39 34  1  0
 23 18  1  0
  1 42  1  0
  3 43  1  0
  4 44  1  0
 10 45  1  0
 10 46  1  0
 13 47  1  0
 14 48  1  0
 19 49  1  0
 20 50  1  0
 21 51  1  0
 22 52  1  0
 23 53  1  0
 24 54  1  0
 25 55  1  0
 27 56  1  0
 27 57  1  0
 28 58  1  0
 28 59  1  0
 29 60  1  0
 30 61  1  0
 30 62  1  0
 31 63  1  0
 31 64  1  0
 33 65  1  0
 33 66  1  0
 35 67  1  0
 36 68  1  0
 37 69  1  0
 38 70  1  0
 39 71  1  0
 40 72  1  0
 40 73  1  0
 41 74  1  0
 41 75  1  0
M  END
>  <smiles>  (3) 
N=c1[nH]cnc2c1nc(COc1ccc(C(=O)c3ccccc3)cc1)n2CCC1CCN(Cc2ccccc2)CC1

>  <score_type>  (3) 
oracle

>  <origin>  (3) 
adgpu

>  <m_score__min__energy>  (3) 
-11.44

>  <m_primary>  (3) 
energy

$$$$
3:0
     RDKit          3D

 53 57  0  0  0  0  0  0  0  0999 V2000
   -0.3586   18.4567  -31.7461 H   0  0  0  0  0  0  0  0  0  0  0  0
   -0.5170   19.4220  -31.2430 C   0  0  0  0  0  0  0  0  0  0  0  0
   -0.4920   19.4910  -29.8850 N   0  0  0  0  0  0  0  0  0  0  0  0
   -0.6760   20.6670  -29.2260 C   0  0  0  0  0  0  0  0  0  0  0  0
   -0.6200   20.6970  -27.4760 Cl  0  0  0  0  0  0  0  0  0  0  0  0
   -0.8980   21.8450  -29.9450 C   0  0  0  0  0  0  0  0  0  0  0  0
   -1.0427   22.7996  -29.4179 H   0  0  0  0  0  0  0  0  0  0  0  0
   -0.9340   21.7960  -31.3400 C   0  0  0  0  0  0  0  0  0  0  0  0
   -1.1116   22.7148  -31.9182 H   0  0  0  0  0  0  0  0  0  0  0  0
   -0.7440   20.5770  -32.0030 C   0  0  0  0  0  0  0  0  0  0  0  0
   -0.7880   20.5020  -33.7610 S   0  0  0  0  0  0  0  0  0  0  0  0
    0.2820   19.5780  -34.2720 O   0  0  0  0  0  0  0  0  0  0  0  0
   -0.5210   21.8710  -34.3200 O   0  0  0  0  0  0  0  0  0  0  0  0
   -2.3560   19.9830  -34.2970 N   0  0  0  0  0  0  0  0  0  0  0  0
   -2.9180   20.6820  -34.8310 H   0  0  0  0  0  0  0  0  0  0  0  0
   -2.9940   18.7760  -33.8460 C   0  0  0  0  0  0  0  0  0  0  0  0
   -4.4000   18.7170  -33.7640 C   0  0  0  0  0  0  0  0  0  0  0  0
   -5.1790   19.8580  -33.9870 O   0  0  0  0  0  0  0  0  0  0  0  0
   -5.2160   20.9460  -33.1030 C   0  0  0  0  0  0  0  0  0  0  0  0
   -4.0130   21.4610  -32.6130 C   0  0  0  0  0  0  0  0  0  0  0  0
   -3.0585   21.0136  -32.9273 H   0  0  0  0  0  0  0  0  0  0  0  0
   -4.0150   22.5410  -31.7260 C   0  0  0  0  0  0  0  0  0  0  0  0
   -3.0632   22.9288  -31.3340 H   0  0  0  0  0  0  0  0  0  0  0  0
   -5.2240   23.1330  -31.3330 C   0  0  0  0  0  0  0  0  0  0  0  0
   -5.1920   24.5010  -30.2200 S   0  0  0  0  0  0  0  0  0  0  0  0
   -6.6050   24.9070  -29.9060 O   0  0  0  0  0  0  0  0  0  0  0  0
   -4.4890   25.6810  -30.8300 O   0  0  0  0  0  0  0  0  0  0  0  0
   -4.3960   24.0450  -28.7490 N   0  0  0  0  0  0  0  0  0  0  0  0
   -3.1570   24.3270  -28.4930 C   0  0  0  0  0  0  0  0  0  0  0  0
   -2.3480   25.0070  -29.3340 N   0  0  0  0  0  0  0  0  0  0  0  0
   -1.1020   25.1540  -28.8090 C   0  0  0  0  0  0  0  0  0  0  0  0
   -0.2959   25.6802  -29.3413 H   0  0  0  0  0  0  0  0  0  0  0  0
   -0.9210   24.5910  -27.5510 C   0  0  0  0  0  0  0  0  0  0  0  0
    0.0103   24.6056  -26.9657 H   0  0  0  0  0  0  0  0  0  0  0  0
   -2.3730   23.8830  -27.0780 S   0  0  0  0  0  0  0  0  0  0  0  0
   -6.4330   22.6420  -31.8520 C   0  0  0  0  0  0  0  0  0  0  0  0
   -7.6150   23.2290  -31.5410 F   0  0  0  0  0  0  0  0  0  0  0  0
   -6.4290   21.5450  -32.7180 C   0  0  0  0  0  0  0  0  0  0  0  0
   -7.3805   21.1475  -33.1009 H   0  0  0  0  0  0  0  0  0  0  0  0
   -5.0410   17.5170  -33.4430 C   0  0  0  0  0  0  0  0  0  0  0  0
   -6.1399   17.4739  -33.4172 H   0  0  0  0  0  0  0  0  0  0  0  0
   -4.2920   16.3690  -33.1540 C   0  0  0  0  0  0  0  0  0  0  0  0
   -4.9280   15.1660  -32.8090 C   0  0  0  0  0  0  0  0  0  0  0  0
   -6.0261   15.1185  -32.7653 H   0  0  0  0  0  0  0  0  0  0  0  0
   -4.1690   14.0290  -32.5210 C   0  0  0  0  0  0  0  0  0  0  0  0
   -4.6716   13.0886  -32.2508 H   0  0  0  0  0  0  0  0  0  0  0  0
   -2.7730   14.0820  -32.5750 C   0  0  0  0  0  0  0  0  0  0  0  0
   -2.1804   13.1842  -32.3454 H   0  0  0  0  0  0  0  0  0  0  0  0
   -2.1290   15.2730  -32.9200 C   0  0  0  0  0  0  0  0  0  0  0  0
   -1.0305   15.3093  -32.9644 H   0  0  0  0  0  0  0  0  0  0  0  0
   -2.8790   16.4230  -33.2100 C   0  0  0  0  0  0  0  0  0  0  0  0
   -2.2420   17.6210  -33.5660 C   0  0  0  0  0  0  0  0  0  0  0  0
   -1.1443   17.6574  -33.6267 H   0  0  0  0  0  0  0  0  0  0  0  0
  1  2  1  0
  2  3  2  0
  3  4  1  0
  4  5  1  0
  4  6  2  0
  6  7  1  0
  6  8  1  0
  8  9  1  0
  8 10  2  0
 10 11  1  0
 11 12  2  0
 11 13  2  0
 11 14  1  0
 14 15  1  0
 14 16  1  0
 16 17  1  0
 17 18  1  0
 18 19  1  0
 19 20  2  0
 20 21  1  0
 20 22  1  0
 22 23  1  0
 22 24  2  0
 24 25  1  0
 25 26  2  0
 25 27  2  0
 25 28  1  0
 28 29  2  0
 29 30  1  0
 30 31  1  0
 31 32  1  0
 31 33  2  0
 33 34  1  0
 33 35  1  0
 24 36  1  0
 36 37  1  0
 36 38  2  0
 38 39  1  0
 17 40  2  0
 40 41  1  0
 40 42  1  0
 42 43  2  0
 43 44  1  0
 43 45  1  0
 45 46  1  0
 45 47  2  0
 47 48  1  0
 47 49  1  0
 49 50  1  0
 49 51  2  0
 51 52  1  0
 52 53  1  0
 10  2  1  0
 52 16  2  0
 38 19  1  0
 51 42  1  0
 35 29  1  0
M  CHG  1  30  -1
M  END
>  <UniqueID>  (4) 
3

>  <SMILES>  (4) 
O=S(=O)(/N=c1\[n-]ccs1)c1ccc(Oc2cc3ccccc3cc2NS(=O)(=O)c2ccc(Cl)nc2)cc1F

>  <Energy>  (4) 
106.52581491356652

>  <Genealogy>  (4) 
O=S(=O)(N=c1[n-]ccs1)c1ccc(Oc2cc3ccccc3cc2NS(=O)(=O)c2ccc(Cl)nc2)cc1F (protonated)
O=S(=O)(/N=c1\[n-]ccs1)c1ccc(Oc2cc3ccccc3cc2NS(=O)(=O)c2ccc(Cl)nc2)cc1F (cis-trans isomerization)
O=S(=O)(/N=c1\[n-]ccs1)c1ccc(Oc2cc3ccccc3cc2NS(=O)(=O)c2ccc(Cl)nc2)cc1F (3D coordinates assigned)
O=S(=O)(/N=c1\[n-]ccs1)c1ccc(Oc2cc3ccccc3cc2NS(=O)(=O)c2ccc(Cl)nc2)cc1F (optimized conformer: 106.52581491356652 kcal/mol)

>  <smiles>  (4) 
O=S(=O)(N=c1[nH]ccs1)c1ccc(Oc2cc3ccccc3cc2NS(=O)(=O)c2ccc(Cl)nc2)cc1F

>  <score_type>  (4) 
oracle

>  <origin>  (4) 
adgpu

>  <m_score__min__energy>  (4) 
-11.470000000000001

>  <m_primary>  (4) 
energy

$$$$
4:0
     RDKit          3D

 27 28  0  0  0  0  0  0  0  0999 V2000
   -0.0260   15.3810  -26.5990 H   0  0  0  0  0  0  0  0  0  0  0  0
    0.6370   15.6030  -27.3310 O   0  0  0  0  0  0  0  0  0  0  0  0
    1.0570   16.9110  -27.5630 C   0  0  0  0  0  0  0  0  0  0  0  0
    2.3720   17.2750  -27.2630 C   0  0  0  0  0  0  0  0  0  0  0  0
    3.0632   16.5330  -26.8368 H   0  0  0  0  0  0  0  0  0  0  0  0
    2.8110   18.5790  -27.5030 C   0  0  0  0  0  0  0  0  0  0  0  0
    4.1220   18.9350  -27.2120 O   0  0  0  0  0  0  0  0  0  0  0  0
    1.9330   19.5270  -28.0380 C   0  0  0  0  0  0  0  0  0  0  0  0
    2.2882   20.5494  -28.2343 H   0  0  0  0  0  0  0  0  0  0  0  0
    0.6010   19.1850  -28.3270 C   0  0  0  0  0  0  0  0  0  0  0  0
   -0.2890   20.2230  -28.9020 C   0  0  0  0  0  0  0  0  0  0  0  0
   -0.7496   20.0273  -29.8816 H   0  0  0  0  0  0  0  0  0  0  0  0
   -0.5640   21.3880  -28.2940 C   0  0  0  0  0  0  0  0  0  0  0  0
   -0.1029   21.5833  -27.3146 H   0  0  0  0  0  0  0  0  0  0  0  0
   -1.4550   22.4280  -28.8680 C   0  0  0  0  0  0  0  0  0  0  0  0
   -2.5910   22.1120  -29.6420 C   0  0  0  0  0  0  0  0  0  0  0  0
   -2.8486   21.0594  -29.8310 H   0  0  0  0  0  0  0  0  0  0  0  0
   -3.3910   23.1290  -30.1700 C   0  0  0  0  0  0  0  0  0  0  0  0
   -4.2795   22.8734  -30.7660 H   0  0  0  0  0  0  0  0  0  0  0  0
   -3.0670   24.4680  -29.9440 C   0  0  0  0  0  0  0  0  0  0  0  0
   -3.8680   25.4740  -30.4720 O   0  0  0  0  0  0  0  0  0  0  0  0
   -1.9330   24.7940  -29.1910 C   0  0  0  0  0  0  0  0  0  0  0  0
   -1.6010   26.1250  -28.9690 O   0  0  0  0  0  0  0  0  0  0  0  0
   -1.1290   23.7790  -28.6630 C   0  0  0  0  0  0  0  0  0  0  0  0
   -0.2327   24.0409  -28.0816 H   0  0  0  0  0  0  0  0  0  0  0  0
    0.1730   17.8600  -28.0970 C   0  0  0  0  0  0  0  0  0  0  0  0
   -0.8603   17.5697  -28.3380 H   0  0  0  0  0  0  0  0  0  0  0  0
  1  2  1  0
  2  3  1  0
  3  4  2  0
  4  5  1  0
  4  6  1  0
  6  7  1  0
  6  8  2  0
  8  9  1  0
  8 10  1  0
 10 11  1  0
 11 12  1  0
 11 13  2  0
 13 14  1  0
 13 15  1  0
 15 16  2  0
 16 17  1  0
 16 18  1  0
 18 19  1  0
 18 20  2  0
 20 21  1  0
 20 22  1  0
 22 23  1  0
 22 24  2  0
 24 25  1  0
 10 26  2  0
 26 27  1  0
 26  3  1  0
 24 15  1  0
M  CHG  3   7  -1  21  -1  23  -1
M  END
>  <UniqueID>  (5) 
4

>  <SMILES>  (5) 
[O-]c1cc(O)cc(/C=C/c2ccc([O-])c([O-])c2)c1

>  <Energy>  (5) 
33.11262067210782

>  <Genealogy>  (5) 
[O-]c1cc(O)cc(C=Cc2ccc([O-])c([O-])c2)c1 (protonated)
[O-]c1cc(O)cc(/C=C/c2ccc([O-])c([O-])c2)c1 (cis-trans isomerization)
[O-]c1cc(O)cc(/C=C/c2ccc([O-])c([O-])c2)c1 (3D coordinates assigned)
[O-]c1cc(O)cc(/C=C/c2ccc([O-])c([O-])c2)c1 (optimized conformer: 33.11262067210782 kcal/mol)

>  <smiles>  (5) 
Oc1cc(O)cc(C=Cc2ccc(O)c(O)c2)c1

>  <score_type>  (5) 
oracle

>  <origin>  (5) 
adgpu

>  <m_score__min__energy>  (5) 
-12.01

>  <m_primary>  (5) 
energy

$$$$
5:0
     RDKit          3D

 61 64  0  0  0  0  0  0  0  0999 V2000
   -0.0000   22.8360  -25.6140 C   0  0  0  0  0  0  0  0  0  0  0  0
   -0.9410   23.3190  -26.6850 C   0  0  0  0  0  0  0  0  0  0  0  0
   -2.0090   22.4840  -27.0440 C   0  0  0  0  0  0  0  0  0  0  0  0
   -2.9120   22.8670  -28.0310 C   0  0  0  0  0  0  0  0  0  0  0  0
   -2.7600   24.0830  -28.6970 C   0  0  0  0  0  0  0  0  0  0  0  0
   -3.7070   24.4440  -29.7120 N   0  0  0  0  0  0  0  0  0  0  0  0
   -4.1280   23.5420  -30.7470 C   0  0  0  0  0  0  0  0  0  0  0  0
   -3.5530   22.4320  -30.8960 O   0  0  0  0  0  0  0  0  0  0  0  0
   -5.1840   23.8970  -31.6470 N   0  0  0  0  0  0  0  0  0  0  0  0
   -6.3960   23.1530  -31.8450 C   0  0  0  0  0  0  0  0  0  0  0  0
   -7.6540   23.7730  -31.7950 C   0  0  0  0  0  0  0  0  0  0  0  0
   -8.8180   23.0200  -31.9620 C   0  0  0  0  0  0  0  0  0  0  0  0
   -8.7370   21.6410  -32.1600 C   0  0  0  0  0  0  0  0  0  0  0  0
   -7.4890   21.0070  -32.1790 C   0  0  0  0  0  0  0  0  0  0  0  0
   -7.3880   19.2600  -32.4090 S   0  0  0  0  0  0  0  0  0  0  0  0
   -6.6870   18.6460  -31.2300 O   0  0  0  0  0  0  0  0  0  0  0  0
   -8.7780   18.6900  -32.4660 O   0  0  0  0  0  0  0  0  0  0  0  0
   -6.5320   18.8330  -33.8750 N   0  0  0  0  0  0  0  0  0  0  0  0
   -6.4720   17.3810  -34.0480 C   0  0  0  0  0  0  0  0  0  0  0  0
   -5.1210   16.8940  -33.5410 C   0  0  0  0  0  0  0  0  0  0  0  0
   -4.2580   18.1340  -33.4170 C   0  0  0  0  0  0  0  0  0  0  0  0
   -5.1430   19.2990  -33.8350 C   0  0  0  0  0  0  0  0  0  0  0  0
   -6.3210   21.7670  -32.0180 C   0  0  0  0  0  0  0  0  0  0  0  0
   -1.7240   24.9540  -28.3220 C   0  0  0  0  0  0  0  0  0  0  0  0
   -1.6100   26.1900  -28.9500 O   0  0  0  0  0  0  0  0  0  0  0  0
   -0.8140   24.5910  -27.3050 C   0  0  0  0  0  0  0  0  0  0  0  0
    0.4700   25.7510  -26.8560 S   0  0  0  0  0  0  0  0  0  0  0  0
    1.6030   25.6990  -27.8440 O   0  0  0  0  0  0  0  0  0  0  0  0
    1.0320   25.3400  -25.5260 O   0  0  0  0  0  0  0  0  0  0  0  0
   -0.1420   27.3870  -26.7050 N   0  0  0  0  0  0  0  0  0  0  0  0
   -0.6240   27.6360  -25.3370 C   0  0  0  0  0  0  0  0  0  0  0  0
   -1.2210   29.0560  -25.2360 C   0  0  0  0  0  0  0  0  0  0  0  0
   -0.9520   29.8420  -26.3850 O   0  0  0  0  0  0  0  0  0  0  0  0
    0.4320   29.8070  -26.6770 C   0  0  0  0  0  0  0  0  0  0  0  0
    0.8740   28.3870  -27.0880 C   0  0  0  0  0  0  0  0  0  0  0  0
   -0.4273   23.0553  -24.6244 H   0  0  0  0  0  0  0  0  0  0  0  0
    0.1473   21.7508  -25.7175 H   0  0  0  0  0  0  0  0  0  0  0  0
    0.9676   23.3489  -25.7175 H   0  0  0  0  0  0  0  0  0  0  0  0
   -2.1344   21.5147  -26.5393 H   0  0  0  0  0  0  0  0  0  0  0  0
   -3.7524   22.2055  -28.2880 H   0  0  0  0  0  0  0  0  0  0  0  0
   -4.2080   25.3510  -29.5950 H   0  0  0  0  0  0  0  0  0  0  0  0
   -7.7234   24.8573  -31.6234 H   0  0  0  0  0  0  0  0  0  0  0  0
   -9.8003   23.5145  -31.9374 H   0  0  0  0  0  0  0  0  0  0  0  0
   -9.6549   21.0515  -32.3013 H   0  0  0  0  0  0  0  0  0  0  0  0
   -7.2791   16.9043  -33.4724 H   0  0  0  0  0  0  0  0  0  0  0  0
   -6.5944   17.1206  -35.1097 H   0  0  0  0  0  0  0  0  0  0  0  0
   -5.2324   16.4048  -32.5621 H   0  0  0  0  0  0  0  0  0  0  0  0
   -4.6742   16.1549  -34.2222 H   0  0  0  0  0  0  0  0  0  0  0  0
   -3.9202   18.2632  -32.3782 H   0  0  0  0  0  0  0  0  0  0  0  0
   -3.3572   18.0646  -34.0445 H   0  0  0  0  0  0  0  0  0  0  0  0
   -5.0468   20.1185  -33.1075 H   0  0  0  0  0  0  0  0  0  0  0  0
   -4.8393   19.6682  -34.8257 H   0  0  0  0  0  0  0  0  0  0  0  0
   -5.3398   21.2698  -32.0279 H   0  0  0  0  0  0  0  0  0  0  0  0
   -1.3982   26.8968  -25.0837 H   0  0  0  0  0  0  0  0  0  0  0  0
    0.2195   27.5490  -24.6363 H   0  0  0  0  0  0  0  0  0  0  0  0
   -2.3109   28.9723  -25.1133 H   0  0  0  0  0  0  0  0  0  0  0  0
   -0.7535   29.5541  -24.3738 H   0  0  0  0  0  0  0  0  0  0  0  0
    0.6433   30.5027  -27.5025 H   0  0  0  0  0  0  0  0  0  0  0  0
    0.9884   30.1001  -25.7745 H   0  0  0  0  0  0  0  0  0  0  0  0
    1.0168   28.3558  -28.1782 H   0  0  0  0  0  0  0  0  0  0  0  0
    1.8146   28.1482  -26.5700 H   0  0  0  0  0  0  0  0  0  0  0  0
  1  2  1  0
  2  3  2  0
  3  4  1  0
  4  5  2  0
  5  6  1  0
  6  7  1  0
  7  8  2  0
  7  9  1  0
  9 10  1  0
 10 11  2  0
 11 12  1  0
 12 13  2  0
 13 14  1  0
 14 15  1  0
 15 16  2  0
 15 17  2  0
 15 18  1  0
 18 19  1  0
 19 20  1  0
 20 21  1  0
 21 22  1  0
 14 23  2  0
  5 24  1  0
 24 25  1  0
 24 26  2  0
 26 27  1  0
 27 28  2  0
 27 29  2  0
 27 30  1  0
 30 31  1  0
 31 32  1  0
 32 33  1  0
 33 34  1  0
 34 35  1  0
 26  2  1  0
 35 30  1  0
 23 10  1  0
 22 18  1  0
  1 36  1  0
  1 37  1  0
  1 38  1  0
  3 39  1  0
  4 40  1  0
  6 41  1  0
 11 42  1  0
 12 43  1  0
 13 44  1  0
 19 45  1  0
 19 46  1  0
 20 47  1  0
 20 48  1  0
 21 49  1  0
 21 50  1  0
 22 51  1  0
 22 52  1  0
 23 53  1  0
 31 54  1  0
 31 55  1  0
 32 56  1  0
 32 57  1  0
 34 58  1  0
 34 59  1  0
 35 60  1  0
 35 61  1  0
M  CHG  2   9  -1  25  -1
M  END
>  <UniqueID>  (6) 
5

>  <SMILES>  (6) 
Cc1ccc(NC(=O)[N-]c2cccc(S(=O)(=O)N3CCCC3)c2)c([O-])c1S(=O)(=O)N1CCOCC1

>  <Energy>  (6) 
86.34105934797446

>  <Genealogy>  (6) 
Cc1ccc(NC(=O)[N-]c2cccc(S(=O)(=O)N3CCCC3)c2)c([O-])c1S(=O)(=O)N1CCOCC1 (protonated)
Cc1ccc(NC(=O)[N-]c2cccc(S(=O)(=O)N3CCCC3)c2)c([O-])c1S(=O)(=O)N1CCOCC1 (3D coordinates assigned)
Cc1ccc(NC(=O)[N-]c2cccc(S(=O)(=O)N3CCCC3)c2)c([O-])c1S(=O)(=O)N1CCOCC1 (nonaromatic ring conformer: 86.34105934797446 kcal/mol)

>  <smiles>  (6) 
Cc1ccc(NC(=O)Nc2cccc(S(=O)(=O)N3CCCC3)c2)c(O)c1S(=O)(=O)N1CCOCC1

>  <score_type>  (6) 
oracle

>  <origin>  (6) 
adgpu

>  <m_score__min__energy>  (6) 
-15.07

>  <m_primary>  (6) 
energy

$$$$
6:0
     RDKit          3D

 58 62  0  0  0  0  0  0  0  0999 V2000
   -6.8610   19.6330  -34.1970 N   0  0  0  0  0  0  0  0  0  0  0  0
   -6.0790   20.4640  -33.3390 C   0  0  0  0  0  0  0  0  0  0  0  0
   -6.7050   21.7220  -32.4270 S   0  0  0  0  0  0  0  0  0  0  0  0
   -5.2580   22.1400  -31.6790 C   0  0  0  0  0  0  0  0  0  0  0  0
   -5.1380   23.2930  -30.7690 C   0  0  0  0  0  0  0  0  0  0  0  0
   -5.1610   23.2700  -29.3860 C   0  0  0  0  0  0  0  0  0  0  0  0
   -4.9780   24.5770  -28.9890 C   0  0  0  0  0  0  0  0  0  0  0  0
   -4.8490   25.3150  -30.1470 C   0  0  0  0  0  0  0  0  0  0  0  0
   -4.9440   24.5220  -31.1890 O   0  0  0  0  0  0  0  0  0  0  0  0
   -4.2470   21.2750  -32.1300 C   0  0  0  0  0  0  0  0  0  0  0  0
   -2.8540   21.3210  -31.6300 C   0  0  0  0  0  0  0  0  0  0  0  0
   -2.0280   22.0870  -32.1910 O   0  0  0  0  0  0  0  0  0  0  0  0
   -2.4310   20.5750  -30.4810 N   0  0  0  0  0  0  0  0  0  0  0  0
   -2.0280   21.1220  -29.2180 C   0  0  0  0  0  0  0  0  0  0  0  0
   -1.9510   20.3290  -28.0600 C   0  0  0  0  0  0  0  0  0  0  0  0
   -1.5640   20.8990  -26.8450 C   0  0  0  0  0  0  0  0  0  0  0  0
   -1.2460   22.2580  -26.7770 C   0  0  0  0  0  0  0  0  0  0  0  0
   -1.3060   23.0530  -27.9290 C   0  0  0  0  0  0  0  0  0  0  0  0
   -0.8900   24.7620  -27.8500 S   0  0  0  0  0  0  0  0  0  0  0  0
   -1.6010   25.4950  -28.9530 O   0  0  0  0  0  0  0  0  0  0  0  0
    0.5930   24.9300  -28.0420 O   0  0  0  0  0  0  0  0  0  0  0  0
   -1.3880   25.4090  -26.3070 N   0  0  0  0  0  0  0  0  0  0  0  0
   -0.5530   24.8960  -25.2210 C   0  0  0  0  0  0  0  0  0  0  0  0
   -0.5790   25.9470  -24.1230 C   0  0  0  0  0  0  0  0  0  0  0  0
   -1.0170   27.2340  -24.8060 C   0  0  0  0  0  0  0  0  0  0  0  0
   -1.2320   26.8620  -26.2660 C   0  0  0  0  0  0  0  0  0  0  0  0
   -1.6770   22.4750  -29.1510 C   0  0  0  0  0  0  0  0  0  0  0  0
   -4.7180   20.3210  -33.0700 C   0  0  0  0  0  0  0  0  0  0  0  0
   -3.8810   19.2800  -33.7090 C   0  0  0  0  0  0  0  0  0  0  0  0
   -4.4550   18.3260  -34.3010 O   0  0  0  0  0  0  0  0  0  0  0  0
   -2.3990   19.3340  -33.6830 C   0  0  0  0  0  0  0  0  0  0  0  0
   -1.7140   20.2690  -34.4820 C   0  0  0  0  0  0  0  0  0  0  0  0
   -0.3180   20.3330  -34.4560 C   0  0  0  0  0  0  0  0  0  0  0  0
    0.4090   19.4610  -33.6430 C   0  0  0  0  0  0  0  0  0  0  0  0
   -0.2580   18.5190  -32.8580 C   0  0  0  0  0  0  0  0  0  0  0  0
   -1.6550   18.4510  -32.8790 C   0  0  0  0  0  0  0  0  0  0  0  0
   -7.9010   19.6250  -34.1080 H   0  0  0  0  0  0  0  0  0  0  0  0
   -6.4160   19.0000  -34.8970 H   0  0  0  0  0  0  0  0  0  0  0  0
   -5.2970   22.3915  -28.7381 H   0  0  0  0  0  0  0  0  0  0  0  0
   -4.9421   24.9553  -27.9567 H   0  0  0  0  0  0  0  0  0  0  0  0
   -4.6906   26.4027  -30.1909 H   0  0  0  0  0  0  0  0  0  0  0  0
   -2.1959   19.2578  -28.1107 H   0  0  0  0  0  0  0  0  0  0  0  0
   -1.5094   20.2767  -25.9396 H   0  0  0  0  0  0  0  0  0  0  0  0
   -0.9479   22.7045  -25.8169 H   0  0  0  0  0  0  0  0  0  0  0  0
   -0.9591   23.9448  -24.8463 H   0  0  0  0  0  0  0  0  0  0  0  0
    0.4743   24.7056  -25.5651 H   0  0  0  0  0  0  0  0  0  0  0  0
   -1.2955   25.6652  -23.3373 H   0  0  0  0  0  0  0  0  0  0  0  0
    0.4018   26.0552  -23.6369 H   0  0  0  0  0  0  0  0  0  0  0  0
   -1.9518   27.6068  -24.3619 H   0  0  0  0  0  0  0  0  0  0  0  0
   -0.2694   28.0329  -24.6926 H   0  0  0  0  0  0  0  0  0  0  0  0
   -2.1373   27.3522  -26.6534 H   0  0  0  0  0  0  0  0  0  0  0  0
   -0.3853   27.1883  -26.8878 H   0  0  0  0  0  0  0  0  0  0  0  0
   -1.6923   23.0891  -30.0635 H   0  0  0  0  0  0  0  0  0  0  0  0
   -2.2807   20.9532  -35.1306 H   0  0  0  0  0  0  0  0  0  0  0  0
    0.2091   21.0719  -35.0774 H   0  0  0  0  0  0  0  0  0  0  0  0
    1.5074   19.5164  -33.6212 H   0  0  0  0  0  0  0  0  0  0  0  0
    0.3159   17.8291  -32.2219 H   0  0  0  0  0  0  0  0  0  0  0  0
   -2.1751   17.7026  -32.2631 H   0  0  0  0  0  0  0  0  0  0  0  0
  1  2  1  0
  2  3  1  0
  3  4  1  0
  4  5  1  0
  5  6  2  0
  6  7  1  0
  7  8  2  0
  8  9  1  0
  4 10  2  0
 10 11  1  0
 11 12  2  0
 11 13  1  0
 13 14  1  0
 14 15  2  0
 15 16  1  0
 16 17  2  0
 17 18  1  0
 18 19  1  0
 19 20  2  0
 19 21  2  0
 19 22  1  0
 22 23  1  0
 23 24  1  0
 24 25  1  0
 25 26  1  0
 18 27  2  0
 10 28  1  0
 28 29  1  0
 29 30  2  0
 29 31  1  0
 31 32  2  0
 32 33  1  0
 33 34  2  0
 34 35  1  0
 35 36  2  0
 28  2  2  0
 36 31  1  0
  9  5  1  0
 27 14  1  0
 26 22  1  0
  1 37  1  0
  1 38  1  0
  6 39  1  0
  7 40  1  0
  8 41  1  0
 15 42  1  0
 16 43  1  0
 17 44  1  0
 23 45  1  0
 23 46  1  0
 24 47  1  0
 24 48  1  0
 25 49  1  0
 25 50  1  0
 26 51  1  0
 26 52  1  0
 27 53  1  0
 32 54  1  0
 33 55  1  0
 34 56  1  0
 35 57  1  0
 36 58  1  0
M  CHG  1  13  -1
M  END
>  <UniqueID>  (7) 
6

>  <SMILES>  (7) 
Nc1sc(-c2ccco2)c(C(=O)[N-]c2cccc(S(=O)(=O)N3CCCC3)c2)c1C(=O)c1ccccc1

>  <Energy>  (7) 
130.15369976443742

>  <Genealogy>  (7) 
Nc1sc(-c2ccco2)c(C(=O)[N-]c2cccc(S(=O)(=O)N3CCCC3)c2)c1C(=O)c1ccccc1 (protonated)
Nc1sc(-c2ccco2)c(C(=O)[N-]c2cccc(S(=O)(=O)N3CCCC3)c2)c1C(=O)c1ccccc1 (3D coordinates assigned)
Nc1sc(-c2ccco2)c(C(=O)[N-]c2cccc(S(=O)(=O)N3CCCC3)c2)c1C(=O)c1ccccc1 (nonaromatic ring conformer: 130.15369976443742 kcal/mol)

>  <smiles>  (7) 
Nc1sc(-c2ccco2)c(C(=O)Nc2cccc(S(=O)(=O)N3CCCC3)c2)c1C(=O)c1ccccc1

>  <score_type>  (7) 
oracle

>  <origin>  (7) 
adgpu

>  <m_score__min__energy>  (7) 
-11.68

>  <m_primary>  (7) 
energy

$$$$
7:0
     RDKit          3D

 55 58  0  0  0  0  0  0  0  0999 V2000
   -3.8810   21.8980  -33.6140 O   0  0  0  0  0  0  0  0  0  0  0  0
   -4.2370   21.8060  -32.4120 C   0  0  0  0  0  0  0  0  0  0  0  0
   -3.2760   21.4960  -31.3910 N   0  0  0  0  0  0  0  0  0  0  0  0
   -1.9700   20.9260  -31.5660 C   0  0  0  0  0  0  0  0  0  0  0  0
   -1.4210   20.1820  -30.5140 C   0  0  0  0  0  0  0  0  0  0  0  0
   -0.1620   19.5910  -30.6470 C   0  0  0  0  0  0  0  0  0  0  0  0
    0.5720   19.7610  -31.8240 C   0  0  0  0  0  0  0  0  0  0  0  0
    0.0550   20.5370  -32.8710 C   0  0  0  0  0  0  0  0  0  0  0  0
    0.9830   20.7560  -34.3630 S   0  0  0  0  0  0  0  0  0  0  0  0
    0.2510   20.0890  -35.4960 O   0  0  0  0  0  0  0  0  0  0  0  0
    2.3190   20.0800  -34.2120 O   0  0  0  0  0  0  0  0  0  0  0  0
    1.2380   22.4380  -34.7650 N   0  0  0  0  0  0  0  0  0  0  0  0
    0.2880   22.9100  -35.7670 C   0  0  0  0  0  0  0  0  0  0  0  0
    0.9530   24.0820  -36.4590 C   0  0  0  0  0  0  0  0  0  0  0  0
    2.4410   23.7880  -36.3620 C   0  0  0  0  0  0  0  0  0  0  0  0
    2.5760   22.6880  -35.3120 C   0  0  0  0  0  0  0  0  0  0  0  0
   -1.2140   21.1190  -32.7400 C   0  0  0  0  0  0  0  0  0  0  0  0
   -5.6470   22.0390  -32.0340 C   0  0  0  0  0  0  0  0  0  0  0  0
   -6.6170   21.1970  -32.6110 C   0  0  0  0  0  0  0  0  0  0  0  0
   -7.9640   21.3150  -32.2680 C   0  0  0  0  0  0  0  0  0  0  0  0
   -8.3680   22.2850  -31.3550 C   0  0  0  0  0  0  0  0  0  0  0  0
   -7.4280   23.1490  -30.7900 C   0  0  0  0  0  0  0  0  0  0  0  0
   -6.0620   23.0450  -31.1130 C   0  0  0  0  0  0  0  0  0  0  0  0
   -4.9560   24.2560  -30.4240 S   0  0  0  0  0  0  0  0  0  0  0  0
   -5.5460   25.6340  -30.5080 O   0  0  0  0  0  0  0  0  0  0  0  0
   -3.6790   24.2710  -31.2180 O   0  0  0  0  0  0  0  0  0  0  0  0
   -4.5490   23.8380  -28.7900 N   0  0  0  0  0  0  0  0  0  0  0  0
   -3.2520   23.4090  -28.3650 C   0  0  0  0  0  0  0  0  0  0  0  0
   -3.1300   22.1660  -27.7320 C   0  0  0  0  0  0  0  0  0  0  0  0
   -1.8770   21.6960  -27.3290 C   0  0  0  0  0  0  0  0  0  0  0  0
   -0.7340   22.4660  -27.5670 C   0  0  0  0  0  0  0  0  0  0  0  0
   -0.8420   23.6990  -28.2140 C   0  0  0  0  0  0  0  0  0  0  0  0
   -2.0970   24.1700  -28.6340 C   0  0  0  0  0  0  0  0  0  0  0  0
   -2.1910   25.3720  -29.3350 O   0  0  0  0  0  0  0  0  0  0  0  0
   -1.9847   20.0622  -29.5770 H   0  0  0  0  0  0  0  0  0  0  0  0
    0.2523   18.9907  -29.8236 H   0  0  0  0  0  0  0  0  0  0  0  0
    1.5579   19.2847  -31.9293 H   0  0  0  0  0  0  0  0  0  0  0  0
    0.0704   22.1121  -36.4922 H   0  0  0  0  0  0  0  0  0  0  0  0
   -0.6670   23.2045  -35.3073 H   0  0  0  0  0  0  0  0  0  0  0  0
    0.6366   24.1429  -37.5108 H   0  0  0  0  0  0  0  0  0  0  0  0
    0.6864   25.0450  -35.9990 H   0  0  0  0  0  0  0  0  0  0  0  0
    2.8279   23.4422  -37.3319 H   0  0  0  0  0  0  0  0  0  0  0  0
    3.0155   24.6849  -36.0872 H   0  0  0  0  0  0  0  0  0  0  0  0
    2.9700   21.7717  -35.7758 H   0  0  0  0  0  0  0  0  0  0  0  0
    3.2705   22.9939  -34.5157 H   0  0  0  0  0  0  0  0  0  0  0  0
   -1.6221   21.7300  -33.5586 H   0  0  0  0  0  0  0  0  0  0  0  0
   -6.3083   20.4356  -33.3424 H   0  0  0  0  0  0  0  0  0  0  0  0
   -8.7073   20.6412  -32.7192 H   0  0  0  0  0  0  0  0  0  0  0  0
   -9.4292   22.3709  -31.0783 H   0  0  0  0  0  0  0  0  0  0  0  0
   -7.7599   23.9225  -30.0819 H   0  0  0  0  0  0  0  0  0  0  0  0
   -4.0266   21.5551  -27.5506 H   0  0  0  0  0  0  0  0  0  0  0  0
   -1.7899   20.7219  -26.8254 H   0  0  0  0  0  0  0  0  0  0  0  0
    0.2517   22.0999  -27.2441 H   0  0  0  0  0  0  0  0  0  0  0  0
    0.0589   24.3035  -28.3954 H   0  0  0  0  0  0  0  0  0  0  0  0
   -3.0640   25.6750  -29.7560 H   0  0  0  0  0  0  0  0  0  0  0  0
  1  2  2  0
  2  3  1  0
  3  4  1  0
  4  5  2  0
  5  6  1  0
  6  7  2  0
  7  8  1  0
  8  9  1  0
  9 10  2  0
  9 11  2  0
  9 12  1  0
 12 13  1  0
 13 14  1  0
 14 15  1  0
 15 16  1  0
  8 17  2  0
  2 18  1  0
 18 19  2  0
 19 20  1  0
 20 21  2  0
 21 22  1  0
 22 23  2  0
 23 24  1  0
 24 25  2  0
 24 26  2  0
 24 27  1  0
 27 28  1  0
 28 29  2  0
 29 30  1  0
 30 31  2  0
 31 32  1  0
 32 33  2  0
 33 34  1  0
 17  4  1  0
 23 18  1  0
 33 28  1  0
 16 12  1  0
  5 35  1  0
  6 36  1  0
  7 37  1  0
 13 38  1  0
 13 39  1  0
 14 40  1  0
 14 41  1  0
 15 42  1  0
 15 43  1  0
 16 44  1  0
 16 45  1  0
 17 46  1  0
 19 47  1  0
 20 48  1  0
 21 49  1  0
 22 50  1  0
 29 51  1  0
 30 52  1  0
 31 53  1  0
 32 54  1  0
 34 55  1  0
M  CHG  2   3  -1  27  -1
M  END
>  <UniqueID>  (8) 
7

>  <SMILES>  (8) 
O=C([N-]c1cccc(S(=O)(=O)N2CCCC2)c1)c1ccccc1S(=O)(=O)[N-]c1ccccc1O

>  <Energy>  (8) 
76.8435154609348

>  <Genealogy>  (8) 
O=C([N-]c1cccc(S(=O)(=O)N2CCCC2)c1)c1ccccc1S(=O)(=O)[N-]c1ccccc1O (protonated)
O=C([N-]c1cccc(S(=O)(=O)N2CCCC2)c1)c1ccccc1S(=O)(=O)[N-]c1ccccc1O (3D coordinates assigned)
O=C([N-]c1cccc(S(=O)(=O)N2CCCC2)c1)c1ccccc1S(=O)(=O)[N-]c1ccccc1O (nonaromatic ring conformer: 76.8435154609348 kcal/mol)

>  <smiles>  (8) 
O=C(Nc1cccc(S(=O)(=O)N2CCCC2)c1)c1ccccc1S(=O)(=O)Nc1ccccc1O

>  <score_type>  (8) 
oracle

>  <origin>  (8) 
adgpu

>  <m_score__min__energy>  (8) 
-12.460000000000001

>  <m_primary>  (8) 
energy

$$$$
8:0
     RDKit          3D

 68 71  0  0  0  0  0  0  0  0999 V2000
    0.5130   16.4910  -31.2590 C   0  0  0  0  0  0  0  0  0  0  0  0
   -0.5540   17.3280  -31.6970 O   0  0  0  0  0  0  0  0  0  0  0  0
   -0.5190   18.7330  -31.7020 C   0  0  0  0  0  0  0  0  0  0  0  0
   -0.4950   19.4790  -30.5090 C   0  0  0  0  0  0  0  0  0  0  0  0
   -0.4160   20.8780  -30.5420 C   0  0  0  0  0  0  0  0  0  0  0  0
   -0.4270   21.6580  -29.2890 C   0  0  0  0  0  0  0  0  0  0  0  0
    0.2460   21.2580  -28.2970 O   0  0  0  0  0  0  0  0  0  0  0  0
   -1.2180   22.8560  -29.2080 N   0  0  0  0  0  0  0  0  0  0  0  0
   -2.5800   23.0410  -29.6340 C   0  0  0  0  0  0  0  0  0  0  0  0
   -3.3080   24.2170  -29.3610 C   0  0  0  0  0  0  0  0  0  0  0  0
   -4.6100   24.3690  -29.8480 C   0  0  0  0  0  0  0  0  0  0  0  0
   -5.1920   23.3660  -30.6380 C   0  0  0  0  0  0  0  0  0  0  0  0
   -6.8120   23.5660  -31.3070 S   0  0  0  0  0  0  0  0  0  0  0  0
   -6.6810   24.1330  -32.6950 O   0  0  0  0  0  0  0  0  0  0  0  0
   -7.6040   24.5320  -30.4660 O   0  0  0  0  0  0  0  0  0  0  0  0
   -7.6280   22.0250  -31.3790 N   0  0  0  0  0  0  0  0  0  0  0  0
   -7.0380   21.1920  -32.4420 C   0  0  0  0  0  0  0  0  0  0  0  0
   -7.5790   19.7530  -32.3540 C   0  0  0  0  0  0  0  0  0  0  0  0
   -8.9630   19.6800  -31.6890 C   0  0  0  0  0  0  0  0  0  0  0  0
   -9.7980   20.9230  -32.0160 C   0  0  0  0  0  0  0  0  0  0  0  0
   -9.0770   22.2260  -31.6010 C   0  0  0  0  0  0  0  0  0  0  0  0
   -4.4690   22.2000  -30.9170 C   0  0  0  0  0  0  0  0  0  0  0  0
   -3.1720   22.0410  -30.4190 C   0  0  0  0  0  0  0  0  0  0  0  0
   -0.3690   21.5370  -31.7780 C   0  0  0  0  0  0  0  0  0  0  0  0
   -0.4260   20.8150  -32.9820 C   0  0  0  0  0  0  0  0  0  0  0  0
   -0.4700   21.5160  -34.2430 N   0  0  0  0  0  0  0  0  0  0  0  0
    0.6920   21.9400  -34.9620 C   0  0  0  0  0  0  0  0  0  0  0  0
    0.5580   22.9190  -36.0820 C   0  0  0  0  0  0  0  0  0  0  0  0
    1.8190   21.4180  -34.7280 O   0  0  0  0  0  0  0  0  0  0  0  0
   -0.5020   19.4030  -32.9390 C   0  0  0  0  0  0  0  0  0  0  0  0
   -0.5650   18.4370  -34.4620 S   0  0  0  0  0  0  0  0  0  0  0  0
   -2.3140   18.0680  -34.2980 C   0  0  0  0  0  0  0  0  0  0  0  0
   -3.2050   19.0480  -33.8440 C   0  0  0  0  0  0  0  0  0  0  0  0
   -4.5670   18.7570  -33.7230 C   0  0  0  0  0  0  0  0  0  0  0  0
   -5.0540   17.4850  -34.0640 C   0  0  0  0  0  0  0  0  0  0  0  0
   -6.5100   17.1550  -33.8990 C   0  0  0  0  0  0  0  0  0  0  0  0
   -4.1550   16.5040  -34.5060 C   0  0  0  0  0  0  0  0  0  0  0  0
   -2.7940   16.7980  -34.6310 C   0  0  0  0  0  0  0  0  0  0  0  0
    0.5367   16.4724  -30.1594 H   0  0  0  0  0  0  0  0  0  0  0  0
    0.3586   15.4706  -31.6398 H   0  0  0  0  0  0  0  0  0  0  0  0
    1.4673   16.8839  -31.6398 H   0  0  0  0  0  0  0  0  0  0  0  0
   -0.5387   18.9589  -29.5407 H   0  0  0  0  0  0  0  0  0  0  0  0
   -2.8500   25.0183  -28.7625 H   0  0  0  0  0  0  0  0  0  0  0  0
   -5.1805   25.2790  -29.6107 H   0  0  0  0  0  0  0  0  0  0  0  0
   -7.2967   21.6178  -33.4227 H   0  0  0  0  0  0  0  0  0  0  0  0
   -5.9453   21.1723  -32.3168 H   0  0  0  0  0  0  0  0  0  0  0  0
   -7.6554   19.3427  -33.3718 H   0  0  0  0  0  0  0  0  0  0  0  0
   -6.8807   19.1725  -31.7332 H   0  0  0  0  0  0  0  0  0  0  0  0
   -9.4905   18.7865  -32.0542 H   0  0  0  0  0  0  0  0  0  0  0  0
   -8.8248   19.6285  -30.5989 H   0  0  0  0  0  0  0  0  0  0  0  0
   -9.9864   20.9502  -33.0994 H   0  0  0  0  0  0  0  0  0  0  0  0
  -10.7401   20.8595  -31.4517 H   0  0  0  0  0  0  0  0  0  0  0  0
   -9.2117   22.9728  -32.3973 H   0  0  0  0  0  0  0  0  0  0  0  0
   -9.5172   22.5640  -30.6513 H   0  0  0  0  0  0  0  0  0  0  0  0
   -4.9224   21.4068  -31.5296 H   0  0  0  0  0  0  0  0  0  0  0  0
   -2.6106   21.1225  -30.6452 H   0  0  0  0  0  0  0  0  0  0  0  0
   -0.2864   22.6335  -31.8059 H   0  0  0  0  0  0  0  0  0  0  0  0
   -1.3990   21.7340  -34.6630 H   0  0  0  0  0  0  0  0  0  0  0  0
    0.4196   23.9298  -35.6708 H   0  0  0  0  0  0  0  0  0  0  0  0
    1.4677   22.8959  -36.7000 H   0  0  0  0  0  0  0  0  0  0  0  0
   -0.3120   22.6523  -36.7000 H   0  0  0  0  0  0  0  0  0  0  0  0
   -2.8324   20.0493  -33.5819 H   0  0  0  0  0  0  0  0  0  0  0  0
   -5.2610   19.5288  -33.3586 H   0  0  0  0  0  0  0  0  0  0  0  0
   -6.7543   17.0996  -32.8279 H   0  0  0  0  0  0  0  0  0  0  0  0
   -7.1195   17.9378  -34.3741 H   0  0  0  0  0  0  0  0  0  0  0  0
   -6.7225   16.1859  -34.3741 H   0  0  0  0  0  0  0  0  0  0  0  0
   -4.5225   15.4977  -34.7557 H   0  0  0  0  0  0  0  0  0  0  0  0
   -2.0980   16.0269  -34.9929 H   0  0  0  0  0  0  0  0  0  0  0  0
  1  2  1  0
  2  3  1  0
  3  4  2  0
  4  5  1  0
  5  6  1  0
  6  7  2  0
  6  8  1  0
  8  9  1  0
  9 10  2  0
 10 11  1  0
 11 12  2  0
 12 13  1  0
 13 14  2  0
 13 15  2  0
 13 16  1  0
 16 17  1  0
 17 18  1  0
 18 19  1  0
 19 20  1  0
 20 21  1  0
 12 22  1  0
 22 23  2  0
  5 24  2  0
 24 25  1  0
 25 26  1  0
 26 27  1  0
 27 28  1  0
 27 29  2  0
 25 30  2  0
 30 31  1  0
 31 32  1  0
 32 33  2  0
 33 34  1  0
 34 35  2  0
 35 36  1  0
 35 37  1  0
 37 38  2  0
 30  3  1  0
 38 32  1  0
 23  9  1  0
 21 16  1  0
  1 39  1  0
  1 40  1  0
  1 41  1  0
  4 42  1  0
 10 43  1  0
 11 44  1  0
 17 45  1  0
 17 46  1  0
 18 47  1  0
 18 48  1  0
 19 49  1  0
 19 50  1  0
 20 51  1  0
 20 52  1  0
 21 53  1  0
 21 54  1  0
 22 55  1  0
 23 56  1  0
 24 57  1  0
 26 58  1  0
 28 59  1  0
 28 60  1  0
 28 61  1  0
 33 62  1  0
 34 63  1  0
 36 64  1  0
 36 65  1  0
 36 66  1  0
 37 67  1  0
 38 68  1  0
M  CHG  1   8  -1
M  END
>  <UniqueID>  (9) 
8

>  <SMILES>  (9) 
COc1cc(C(=O)[N-]c2ccc(S(=O)(=O)N3CCCCC3)cc2)cc(NC(C)=O)c1Sc1ccc(C)cc1

>  <Energy>  (9) 
76.33167554378859

>  <Genealogy>  (9) 
COc1cc(C(=O)[N-]c2ccc(S(=O)(=O)N3CCCCC3)cc2)cc(NC(C)=O)c1Sc1ccc(C)cc1 (protonated)
COc1cc(C(=O)[N-]c2ccc(S(=O)(=O)N3CCCCC3)cc2)cc(NC(C)=O)c1Sc1ccc(C)cc1 (3D coordinates assigned)
COc1cc(C(=O)[N-]c2ccc(S(=O)(=O)N3CCCCC3)cc2)cc(NC(C)=O)c1Sc1ccc(C)cc1 (nonaromatic ring conformer: 76.33167554378859 kcal/mol)

>  <smiles>  (9) 
COc1cc(C(=O)Nc2ccc(S(=O)(=O)N3CCCCC3)cc2)cc(NC(C)=O)c1Sc1ccc(C)cc1

>  <score_type>  (9) 
oracle

>  <origin>  (9) 
adgpu

>  <m_score__min__energy>  (9) 
-11.66

>  <m_primary>  (9) 
energy

$$$$
9:0
     RDKit          3D

 59 62  0  0  0  0  0  0  0  0999 V2000
   -5.8310   17.6840  -32.4860 C   0  0  0  0  0  0  0  0  0  0  0  0
   -6.3040   18.8040  -33.3610 C   0  0  0  0  0  0  0  0  0  0  0  0
   -5.8310   18.9060  -34.5260 O   0  0  0  0  0  0  0  0  0  0  0  0
   -7.2300   19.7940  -32.8660 N   0  0  0  0  0  0  0  0  0  0  0  0
   -8.6440   19.3940  -32.7260 C   0  0  0  0  0  0  0  0  0  0  0  0
   -9.5390   20.5440  -32.2520 C   0  0  0  0  0  0  0  0  0  0  0  0
   -8.9260   21.2280  -31.0320 C   0  0  0  0  0  0  0  0  0  0  0  0
   -7.5590   21.7470  -31.3740 C   0  0  0  0  0  0  0  0  0  0  0  0
   -7.0850   22.9250  -30.7790 C   0  0  0  0  0  0  0  0  0  0  0  0
   -5.8230   23.4270  -31.1110 C   0  0  0  0  0  0  0  0  0  0  0  0
   -5.2570   24.9290  -30.3820 S   0  0  0  0  0  0  0  0  0  0  0  0
   -5.7500   26.0880  -31.2000 O   0  0  0  0  0  0  0  0  0  0  0  0
   -5.8020   25.0660  -28.9870 O   0  0  0  0  0  0  0  0  0  0  0  0
   -3.5210   24.9580  -30.3400 N   0  0  0  0  0  0  0  0  0  0  0  0
   -3.0400   24.2220  -29.1750 C   0  0  0  0  0  0  0  0  0  0  0  0
   -2.3360   22.9780  -29.6340 C   0  0  0  0  0  0  0  0  0  0  0  0
   -3.0190   21.7530  -29.6660 C   0  0  0  0  0  0  0  0  0  0  0  0
   -2.3750   20.5990  -30.1230 C   0  0  0  0  0  0  0  0  0  0  0  0
   -1.0440   20.6580  -30.5570 C   0  0  0  0  0  0  0  0  0  0  0  0
   -0.2230   19.1990  -31.1150 S   0  0  0  0  0  0  0  0  0  0  0  0
   -0.4820   18.0920  -30.1320 O   0  0  0  0  0  0  0  0  0  0  0  0
    1.2590   19.4480  -31.1430 O   0  0  0  0  0  0  0  0  0  0  0  0
   -0.7570   18.6930  -32.7050 N   0  0  0  0  0  0  0  0  0  0  0  0
   -0.1280   19.4740  -33.7880 C   0  0  0  0  0  0  0  0  0  0  0  0
   -0.8320   20.8270  -34.0470 C   0  0  0  0  0  0  0  0  0  0  0  0
   -2.0610   20.9600  -33.3600 O   0  0  0  0  0  0  0  0  0  0  0  0
   -2.8430   19.8060  -33.5580 C   0  0  0  0  0  0  0  0  0  0  0  0
   -2.2280   18.6070  -32.8150 C   0  0  0  0  0  0  0  0  0  0  0  0
   -0.3680   21.8860  -30.5490 C   0  0  0  0  0  0  0  0  0  0  0  0
   -1.0120   23.0410  -30.0930 C   0  0  0  0  0  0  0  0  0  0  0  0
   -5.0380   22.7580  -32.0560 C   0  0  0  0  0  0  0  0  0  0  0  0
   -5.4960   21.5740  -32.6400 C   0  0  0  0  0  0  0  0  0  0  0  0
   -6.7460   21.0320  -32.2790 C   0  0  0  0  0  0  0  0  0  0  0  0
   -5.9509   17.9679  -31.4301 H   0  0  0  0  0  0  0  0  0  0  0  0
   -6.4248   16.7814  -32.6927 H   0  0  0  0  0  0  0  0  0  0  0  0
   -4.7700   17.4802  -32.6927 H   0  0  0  0  0  0  0  0  0  0  0  0
   -9.0090   19.0434  -33.7026 H   0  0  0  0  0  0  0  0  0  0  0  0
   -8.6914   18.6005  -31.9656 H   0  0  0  0  0  0  0  0  0  0  0  0
   -9.6456   21.2785  -33.0638 H   0  0  0  0  0  0  0  0  0  0  0  0
  -10.5240   20.1392  -31.9766 H   0  0  0  0  0  0  0  0  0  0  0  0
   -9.5678   22.0658  -30.7220 H   0  0  0  0  0  0  0  0  0  0  0  0
   -8.8438   20.5009  -30.2107 H   0  0  0  0  0  0  0  0  0  0  0  0
   -7.7098   23.4573  -30.0467 H   0  0  0  0  0  0  0  0  0  0  0  0
   -2.3409   24.8515  -28.6049 H   0  0  0  0  0  0  0  0  0  0  0  0
   -3.8903   23.9500  -28.5324 H   0  0  0  0  0  0  0  0  0  0  0  0
   -4.0652   21.7001  -29.3303 H   0  0  0  0  0  0  0  0  0  0  0  0
   -2.9154   19.6411  -30.1419 H   0  0  0  0  0  0  0  0  0  0  0  0
    0.9193   19.6707  -33.5152 H   0  0  0  0  0  0  0  0  0  0  0  0
   -0.2083   18.8802  -34.7104 H   0  0  0  0  0  0  0  0  0  0  0  0
   -0.1617   21.6367  -33.7229 H   0  0  0  0  0  0  0  0  0  0  0  0
   -1.0539   20.8774  -35.1232 H   0  0  0  0  0  0  0  0  0  0  0  0
   -3.8587   19.9866  -33.1763 H   0  0  0  0  0  0  0  0  0  0  0  0
   -2.8781   19.5791  -34.6338 H   0  0  0  0  0  0  0  0  0  0  0  0
   -2.6541   18.5656  -31.8017 H   0  0  0  0  0  0  0  0  0  0  0  0
   -2.4638   17.7025  -33.3949 H   0  0  0  0  0  0  0  0  0  0  0  0
    0.6722   21.9415  -30.9024 H   0  0  0  0  0  0  0  0  0  0  0  0
   -0.4779   24.0027  -30.0944 H   0  0  0  0  0  0  0  0  0  0  0  0
   -4.0566   23.1654  -32.3404 H   0  0  0  0  0  0  0  0  0  0  0  0
   -4.8751   21.0601  -33.3886 H   0  0  0  0  0  0  0  0  0  0  0  0
  1  2  1  0
  2  3  2  0
  2  4  1  0
  4  5  1  0
  5  6  1  0
  6  7  1  0
  7  8  1  0
  8  9  2  0
  9 10  1  0
 10 11  1  0
 11 12  2  0
 11 13  2  0
 11 14  1  0
 14 15  1  0
 15 16  1  0
 16 17  2  0
 17 18  1  0
 18 19  2  0
 19 20  1  0
 20 21  2  0
 20 22  2  0
 20 23  1  0
 23 24  1  0
 24 25  1  0
 25 26  1  0
 26 27  1  0
 27 28  1  0
 19 29  1  0
 29 30  2  0
 10 31  2  0
 31 32  1  0
 32 33  2  0
 33  4  1  0
 33  8  1  0
 30 16  1  0
 28 23  1  0
  1 34  1  0
  1 35  1  0
  1 36  1  0
  5 37  1  0
  5 38  1  0
  6 39  1  0
  6 40  1  0
  7 41  1  0
  7 42  1  0
  9 43  1  0
 15 44  1  0
 15 45  1  0
 17 46  1  0
 18 47  1  0
 24 48  1  0
 24 49  1  0
 25 50  1  0
 25 51  1  0
 27 52  1  0
 27 53  1  0
 28 54  1  0
 28 55  1  0
 29 56  1  0
 30 57  1  0
 31 58  1  0
 32 59  1  0
M  CHG  1  14  -1
M  END
>  <UniqueID>  (10) 
9

>  <SMILES>  (10) 
CC(=O)N1CCCc2cc(S(=O)(=O)[N-]Cc3ccc(S(=O)(=O)N4CCOCC4)cc3)ccc21

>  <Energy>  (10) 
74.20101591006906

>  <Genealogy>  (10) 
CC(=O)N1CCCc2cc(S(=O)(=O)[N-]Cc3ccc(S(=O)(=O)N4CCOCC4)cc3)ccc21 (protonated)
CC(=O)N1CCCc2cc(S(=O)(=O)[N-]Cc3ccc(S(=O)(=O)N4CCOCC4)cc3)ccc21 (3D coordinates assigned)
CC(=O)N1CCCc2cc(S(=O)(=O)[N-]Cc3ccc(S(=O)(=O)N4CCOCC4)cc3)ccc21 (nonaromatic ring conformer: 74.20101591006906 kcal/mol)

>  <smiles>  (10) 
CC(=O)N1CCCc2cc(S(=O)(=O)NCc3ccc(S(=O)(=O)N4CCOCC4)cc3)ccc21

>  <score_type>  (10) 
oracle

>  <origin>  (10) 
adgpu

>  <m_score__min__energy>  (10) 
-11.83

>  <m_primary>  (10) 
energy

$$$$
10:0
     RDKit          3D

 46 48  0  0  0  0  0  0  0  0999 V2000
   -2.2310   25.0930  -28.8670 O   0  0  0  0  0  0  0  0  0  0  0  0
   -2.9330   24.5240  -29.7440 C   0  0  0  0  0  0  0  0  0  0  0  0
   -3.8820   25.2960  -30.4880 N   0  0  0  0  0  0  0  0  0  0  0  0
   -5.2660   25.4980  -30.0780 C   0  0  0  0  0  0  0  0  0  0  0  0
   -6.1110   24.3770  -30.6090 C   0  0  0  0  0  0  0  0  0  0  0  0
   -6.8320   23.5570  -29.7300 C   0  0  0  0  0  0  0  0  0  0  0  0
   -7.5850   22.4960  -30.2410 C   0  0  0  0  0  0  0  0  0  0  0  0
   -7.6060   22.2580  -31.5790 N   0  0  0  0  0  0  0  0  0  0  0  0
   -6.9040   23.0290  -32.4530 C   0  0  0  0  0  0  0  0  0  0  0  0
   -6.1380   24.1000  -31.9830 C   0  0  0  0  0  0  0  0  0  0  0  0
   -2.7810   23.0740  -29.9560 C   0  0  0  0  0  0  0  0  0  0  0  0
   -3.4290   22.4780  -31.0480 C   0  0  0  0  0  0  0  0  0  0  0  0
   -3.2940   21.1050  -31.2930 C   0  0  0  0  0  0  0  0  0  0  0  0
   -4.1130   20.3620  -32.6700 S   0  0  0  0  0  0  0  0  0  0  0  0
   -3.3260   19.1620  -33.1210 O   0  0  0  0  0  0  0  0  0  0  0  0
   -4.1620   21.3410  -33.8090 O   0  0  0  0  0  0  0  0  0  0  0  0
   -5.7370   19.8640  -32.2590 N   0  0  0  0  0  0  0  0  0  0  0  0
   -6.6000   19.8990  -33.4510 C   0  0  0  0  0  0  0  0  0  0  0  0
   -8.0740   19.7060  -33.0500 C   0  0  0  0  0  0  0  0  0  0  0  0
   -8.2260   18.9660  -31.7100 C   0  0  0  0  0  0  0  0  0  0  0  0
   -7.1360   17.9050  -31.5380 C   0  0  0  0  0  0  0  0  0  0  0  0
   -5.7200   18.5140  -31.6590 C   0  0  0  0  0  0  0  0  0  0  0  0
   -2.5090   20.3240  -30.4380 C   0  0  0  0  0  0  0  0  0  0  0  0
   -1.8740   20.9060  -29.3380 C   0  0  0  0  0  0  0  0  0  0  0  0
   -2.0110   22.2750  -29.0820 C   0  0  0  0  0  0  0  0  0  0  0  0
   -1.3910   22.8060  -27.9500 O   0  0  0  0  0  0  0  0  0  0  0  0
   -5.3250   25.5138  -28.9797 H   0  0  0  0  0  0  0  0  0  0  0  0
   -5.6319   26.4554  -30.4773 H   0  0  0  0  0  0  0  0  0  0  0  0
   -6.8054   23.7469  -28.6468 H   0  0  0  0  0  0  0  0  0  0  0  0
   -8.1612   21.8529  -29.5595 H   0  0  0  0  0  0  0  0  0  0  0  0
   -6.9391   22.8095  -33.5303 H   0  0  0  0  0  0  0  0  0  0  0  0
   -5.5615   24.7200  -32.6853 H   0  0  0  0  0  0  0  0  0  0  0  0
   -4.0481   23.0934  -31.7174 H   0  0  0  0  0  0  0  0  0  0  0  0
   -6.4850   20.8706  -33.9537 H   0  0  0  0  0  0  0  0  0  0  0  0
   -6.3047   19.0857  -34.1303 H   0  0  0  0  0  0  0  0  0  0  0  0
   -8.5487   20.6945  -32.9633 H   0  0  0  0  0  0  0  0  0  0  0  0
   -8.5552   19.0941  -33.8271 H   0  0  0  0  0  0  0  0  0  0  0  0
   -8.1521   19.6932  -30.8879 H   0  0  0  0  0  0  0  0  0  0  0  0
   -9.2053   18.4652  -31.6973 H   0  0  0  0  0  0  0  0  0  0  0  0
   -7.2417   17.4432  -30.5452 H   0  0  0  0  0  0  0  0  0  0  0  0
   -7.2567   17.1573  -32.3358 H   0  0  0  0  0  0  0  0  0  0  0  0
   -5.2766   18.5794  -30.6545 H   0  0  0  0  0  0  0  0  0  0  0  0
   -5.1294   17.8612  -32.3186 H   0  0  0  0  0  0  0  0  0  0  0  0
   -2.3913   19.2478  -30.6325 H   0  0  0  0  0  0  0  0  0  0  0  0
   -1.2620   20.2838  -28.6684 H   0  0  0  0  0  0  0  0  0  0  0  0
   -1.4660   23.7810  -27.6920 H   0  0  0  0  0  0  0  0  0  0  0  0
  1  2  2  0
  2  3  1  0
  3  4  1  0
  4  5  1  0
  5  6  2  0
  6  7  1  0
  7  8  2  0
  8  9  1  0
  9 10  2  0
  2 11  1  0
 11 12  2  0
 12 13  1  0
 13 14  1  0
 14 15  2  0
 14 16  2  0
 14 17  1  0
 17 18  1  0
 18 19  1  0
 19 20  1  0
 20 21  1  0
 21 22  1  0
 13 23  2  0
 23 24  1  0
 24 25  2  0
 25 26  1  0
 10  5  1  0
 25 11  1  0
 22 17  1  0
  4 27  1  0
  4 28  1  0
  6 29  1  0
  7 30  1  0
  9 31  1  0
 10 32  1  0
 12 33  1  0
 18 34  1  0
 18 35  1  0
 19 36  1  0
 19 37  1  0
 20 38  1  0
 20 39  1  0
 21 40  1  0
 21 41  1  0
 22 42  1  0
 22 43  1  0
 23 44  1  0
 24 45  1  0
 26 46  1  0
M  CHG  1   3  -1
M  END
>  <UniqueID>  (11) 
10

>  <SMILES>  (11) 
O=C([N-]Cc1ccncc1)c1cc(S(=O)(=O)N2CCCCC2)ccc1O

>  <Energy>  (11) 
55.10758955092301

>  <Genealogy>  (11) 
O=C([N-]Cc1ccncc1)c1cc(S(=O)(=O)N2CCCCC2)ccc1O (protonated)
O=C([N-]Cc1ccncc1)c1cc(S(=O)(=O)N2CCCCC2)ccc1O (3D coordinates assigned)
O=C([N-]Cc1ccncc1)c1cc(S(=O)(=O)N2CCCCC2)ccc1O (nonaromatic ring conformer: 55.10758955092301 kcal/mol)

>  <smiles>  (11) 
O=C(NCc1ccncc1)c1cc(S(=O)(=O)N2CCCCC2)ccc1O

>  <score_type>  (11) 
oracle

>  <origin>  (11) 
adgpu

>  <m_score__min__energy>  (11) 
-9.5

>  <m_primary>  (11) 
energy

$$$$
11:0
     RDKit          3D

 67 71  0  0  0  0  0  0  0  0999 V2000
    3.8894   22.6768  -36.4334 H   0  0  0  0  0  0  0  0  0  0  0  0
    3.0630   22.0010  -36.1680 C   0  0  0  0  0  0  0  0  0  0  0  0
    2.2430   22.3050  -35.1290 N   0  0  0  0  0  0  0  0  0  0  0  0
    1.2100   21.4910  -34.7860 C   0  0  0  0  0  0  0  0  0  0  0  0
    0.4630   21.8070  -33.7690 N   0  0  0  0  0  0  0  0  0  0  0  0
   -0.6880   21.0830  -33.3030 C   0  0  0  0  0  0  0  0  0  0  0  0
   -1.0140   21.1740  -31.8600 C   0  0  0  0  0  0  0  0  0  0  0  0
   -0.6800   20.1260  -30.9970 C   0  0  0  0  0  0  0  0  0  0  0  0
   -0.1870   19.2259  -31.3929 H   0  0  0  0  0  0  0  0  0  0  0  0
   -0.9700   20.2180  -29.6350 C   0  0  0  0  0  0  0  0  0  0  0  0
   -0.6896   19.3949  -28.9613 H   0  0  0  0  0  0  0  0  0  0  0  0
   -1.6150   21.3490  -29.1180 C   0  0  0  0  0  0  0  0  0  0  0  0
   -1.9000   21.3930  -27.3820 Cl  0  0  0  0  0  0  0  0  0  0  0  0
   -1.9970   22.3950  -29.9880 C   0  0  0  0  0  0  0  0  0  0  0  0
   -2.8130   23.8730  -29.4430 S   0  0  0  0  0  0  0  0  0  0  0  0
   -3.3750   23.6180  -28.0720 O   0  0  0  0  0  0  0  0  0  0  0  0
   -1.8580   25.0290  -29.3450 O   0  0  0  0  0  0  0  0  0  0  0  0
   -4.1230   24.2630  -30.5340 N   0  0  0  0  0  0  0  0  0  0  0  0
   -5.1490   25.0630  -29.8390 C   0  0  0  0  0  0  0  0  0  0  0  0
   -5.2329   24.7173  -28.7981 H   0  0  0  0  0  0  0  0  0  0  0  0
   -4.8511   26.1216  -29.8662 H   0  0  0  0  0  0  0  0  0  0  0  0
   -6.5120   24.9150  -30.5310 C   0  0  0  0  0  0  0  0  0  0  0  0
   -7.2366   25.5625  -30.0156 H   0  0  0  0  0  0  0  0  0  0  0  0
   -6.3737   25.2008  -31.5842 H   0  0  0  0  0  0  0  0  0  0  0  0
   -7.0100   23.5840  -30.5200 O   0  0  0  0  0  0  0  0  0  0  0  0
   -5.9910   22.5930  -30.5050 C   0  0  0  0  0  0  0  0  0  0  0  0
   -5.7810   22.3281  -29.4582 H   0  0  0  0  0  0  0  0  0  0  0  0
   -6.3667   21.7403  -31.0896 H   0  0  0  0  0  0  0  0  0  0  0  0
   -4.6720   23.0420  -31.1660 C   0  0  0  0  0  0  0  0  0  0  0  0
   -3.9342   22.2315  -31.0730 H   0  0  0  0  0  0  0  0  0  0  0  0
   -4.8812   23.2702  -32.2215 H   0  0  0  0  0  0  0  0  0  0  0  0
   -1.6930   22.2930  -31.3530 C   0  0  0  0  0  0  0  0  0  0  0  0
   -1.9910   23.1017  -32.0365 H   0  0  0  0  0  0  0  0  0  0  0  0
   -1.4410   20.4150  -34.1450 N   0  0  0  0  0  0  0  0  0  0  0  0
   -1.1700   20.3650  -35.1510 H   0  0  0  0  0  0  0  0  0  0  0  0
   -2.6850   19.7840  -33.8010 C   0  0  0  0  0  0  0  0  0  0  0  0
   -2.9160   18.4340  -34.1110 C   0  0  0  0  0  0  0  0  0  0  0  0
   -2.1471   17.8544  -34.6428 H   0  0  0  0  0  0  0  0  0  0  0  0
   -4.1200   17.8240  -33.7460 C   0  0  0  0  0  0  0  0  0  0  0  0
   -4.2973   16.7677  -33.9964 H   0  0  0  0  0  0  0  0  0  0  0  0
   -5.1020   18.5540  -33.0620 C   0  0  0  0  0  0  0  0  0  0  0  0
   -6.6080   17.7750  -32.5710 S   0  0  0  0  0  0  0  0  0  0  0  0
   -6.6200   17.6210  -31.0760 O   0  0  0  0  0  0  0  0  0  0  0  0
   -6.6600   16.3990  -33.1760 O   0  0  0  0  0  0  0  0  0  0  0  0
   -8.0280   18.6810  -33.0570 N   0  0  0  0  0  0  0  0  0  0  0  0
   -9.1330   18.5510  -32.0900 C   0  0  0  0  0  0  0  0  0  0  0  0
  -10.0791   18.7675  -32.6078 H   0  0  0  0  0  0  0  0  0  0  0  0
   -9.1060   17.5244  -31.6958 H   0  0  0  0  0  0  0  0  0  0  0  0
   -8.9990   19.5130  -30.8850 C   0  0  0  0  0  0  0  0  0  0  0  0
   -9.9692   20.0055  -30.7232 H   0  0  0  0  0  0  0  0  0  0  0  0
   -8.6889   18.9073  -30.0207 H   0  0  0  0  0  0  0  0  0  0  0  0
   -8.0140   20.5130  -31.0670 O   0  0  0  0  0  0  0  0  0  0  0  0
   -8.1460   21.0880  -32.3450 C   0  0  0  0  0  0  0  0  0  0  0  0
   -9.1948   21.3777  -32.5068 H   0  0  0  0  0  0  0  0  0  0  0  0
   -7.4979   21.9745  -32.4089 H   0  0  0  0  0  0  0  0  0  0  0  0
   -7.7250   20.0790  -33.4260 C   0  0  0  0  0  0  0  0  0  0  0  0
   -8.2584   20.3196  -34.3575 H   0  0  0  0  0  0  0  0  0  0  0  0
   -6.6346   20.1597  -33.5460 H   0  0  0  0  0  0  0  0  0  0  0  0
   -4.8740   19.9040  -32.7590 C   0  0  0  0  0  0  0  0  0  0  0  0
   -5.6505   20.4887  -32.2441 H   0  0  0  0  0  0  0  0  0  0  0  0
   -3.6630   20.5100  -33.1090 C   0  0  0  0  0  0  0  0  0  0  0  0
   -3.4779   21.5604  -32.8399 H   0  0  0  0  0  0  0  0  0  0  0  0
    1.0030   20.3390  -35.4850 N   0  0  0  0  0  0  0  0  0  0  0  0
    1.8000   19.9990  -36.5310 C   0  0  0  0  0  0  0  0  0  0  0  0
    1.6123   19.0688  -37.0873 H   0  0  0  0  0  0  0  0  0  0  0  0
    2.8560   20.8310  -36.8980 C   0  0  0  0  0  0  0  0  0  0  0  0
    3.5104   20.5711  -37.7431 H   0  0  0  0  0  0  0  0  0  0  0  0
  1  2  1  0
  2  3  2  0
  3  4  1  0
  4  5  2  0
  5  6  1  0
  6  7  1  0
  7  8  2  0
  8  9  1  0
  8 10  1  0
 10 11  1  0
 10 12  2  0
 12 13  1  0
 12 14  1  0
 14 15  1  0
 15 16  2  0
 15 17  2  0
 15 18  1  0
 18 19  1  0
 19 20  1  0
 19 21  1  0
 19 22  1  0
 22 23  1  0
 22 24  1  0
 22 25  1  0
 25 26  1  0
 26 27  1  0
 26 28  1  0
 26 29  1  0
 29 30  1  0
 29 31  1  0
 14 32  2  0
 32 33  1  0
  6 34  2  0
 34 35  1  0
 34 36  1  0
 36 37  2  0
 37 38  1  0
 37 39  1  0
 39 40  1  0
 39 41  2  0
 41 42  1  0
 42 43  2  0
 42 44  2  0
 42 45  1  0
 45 46  1  0
 46 47  1  0
 46 48  1  0
 46 49  1  0
 49 50  1  0
 49 51  1  0
 49 52  1  0
 52 53  1  0
 53 54  1  0
 53 55  1  0
 53 56  1  0
 56 57  1  0
 56 58  1  0
 41 59  1  0
 59 60  1  0
 59 61  2  0
 61 62  1  0
  4 63  1  0
 63 64  1  0
 64 65  1  0
 64 66  2  0
 66 67  1  0
 66  2  1  0
 32  7  1  0
 61 36  1  0
 29 18  1  0
 56 45  1  0
M  CHG  2  34   1  63  -1
M  END
>  <UniqueID>  (12) 
11

>  <SMILES>  (12) 
O=S(=O)(c1ccc(/[NH+]=C(/N=c2nccc[n-]2)c2ccc(Cl)c(S(=O)(=O)N3CCOCC3)c2)cc1)N1CCOCC1

>  <Energy>  (12) 
113.12754529034218

>  <Genealogy>  (12) 
O=S(=O)(c1ccc([NH+]=C(N=c2nccc[n-]2)c2ccc(Cl)c(S(=O)(=O)N3CCOCC3)c2)cc1)N1CCOCC1 (protonated)
O=S(=O)(c1ccc(/[NH+]=C(/N=c2nccc[n-]2)c2ccc(Cl)c(S(=O)(=O)N3CCOCC3)c2)cc1)N1CCOCC1 (cis-trans isomerization)
O=S(=O)(c1ccc(/[NH+]=C(/N=c2nccc[n-]2)c2ccc(Cl)c(S(=O)(=O)N3CCOCC3)c2)cc1)N1CCOCC1 (3D coordinates assigned)
O=S(=O)(c1ccc(/[NH+]=C(/N=c2nccc[n-]2)c2ccc(Cl)c(S(=O)(=O)N3CCOCC3)c2)cc1)N1CCOCC1 (nonaromatic ring conformer: 113.12754529034218 kcal/mol)

>  <smiles>  (12) 
O=S(=O)(c1ccc(N=C(N=c2nccc[nH]2)c2ccc(Cl)c(S(=O)(=O)N3CCOCC3)c2)cc1)N1CCOCC1

>  <score_type>  (12) 
oracle

>  <origin>  (12) 
adgpu

>  <m_score__min__energy>  (12) 
-11.42

>  <m_primary>  (12) 
energy

$$$$
12:0
     RDKit          3D

 50 53  0  0  0  0  0  0  0  0999 V2000
   -9.7180   20.6380  -32.7280 O   0  0  0  0  0  0  0  0  0  0  0  0
   -8.4860   20.0090  -32.1410 S   0  0  0  0  0  0  0  0  0  0  0  0
   -8.8990   19.0650  -31.0480 O   0  0  0  0  0  0  0  0  0  0  0  0
   -7.6430   19.1340  -33.3840 N   0  0  0  0  0  0  0  0  0  0  0  0
   -6.7550   18.1210  -32.7860 C   0  0  1  0  0  0  0  0  0  0  0  0
   -7.2250   16.6990  -33.1710 C   0  0  0  0  0  0  0  0  0  0  0  0
   -6.1750   16.0990  -34.1240 C   0  0  0  0  0  0  0  0  0  0  0  0
   -5.0730   17.0810  -34.1050 C   0  0  0  0  0  0  0  0  0  0  0  0
   -3.8330   16.9560  -34.7400 C   0  0  0  0  0  0  0  0  0  0  0  0
   -2.8970   17.9910  -34.6000 C   0  0  0  0  0  0  0  0  0  0  0  0
   -3.2080   19.1250  -33.8310 C   0  0  0  0  0  0  0  0  0  0  0  0
   -4.4610   19.2310  -33.2030 C   0  0  0  0  0  0  0  0  0  0  0  0
   -5.3860   18.1960  -33.3670 C   0  0  0  0  0  0  0  0  0  0  0  0
   -7.4470   21.2740  -31.4940 C   0  0  0  0  0  0  0  0  0  0  0  0
   -6.1490   21.4300  -31.9930 C   0  0  0  0  0  0  0  0  0  0  0  0
   -5.3020   22.4070  -31.4660 C   0  0  0  0  0  0  0  0  0  0  0  0
   -5.7480   23.2470  -30.4380 C   0  0  0  0  0  0  0  0  0  0  0  0
   -4.6760   24.4810  -29.7680 S   0  0  0  0  0  0  0  0  0  0  0  0
   -4.2300   25.4060  -30.8710 O   0  0  0  0  0  0  0  0  0  0  0  0
   -5.4370   25.2970  -28.7580 O   0  0  0  0  0  0  0  0  0  0  0  0
   -3.2680   23.7710  -29.0030 N   0  0  0  0  0  0  0  0  0  0  0  0
   -2.2580   23.4120  -30.0150 C   0  0  0  0  0  0  0  0  0  0  0  0
   -0.8750   23.2390  -29.3590 C   0  0  0  0  0  0  0  0  0  0  0  0
   -0.3990   24.3980  -28.6890 O   0  0  0  0  0  0  0  0  0  0  0  0
   -1.4180   25.3220  -28.3450 C   0  0  0  0  0  0  0  0  0  0  0  0
   -2.7340   24.6380  -27.9320 C   0  0  0  0  0  0  0  0  0  0  0  0
   -7.0490   23.0930  -29.9400 C   0  0  0  0  0  0  0  0  0  0  0  0
   -7.8950   22.1120  -30.4660 C   0  0  0  0  0  0  0  0  0  0  0  0
   -7.0790   19.8420  -33.9020 H   0  0  0  0  0  0  0  0  0  0  0  0
   -6.7684   18.3097  -31.7024 H   0  0  0  0  0  0  0  0  0  0  0  0
   -7.3108   16.0760  -32.2685 H   0  0  0  0  0  0  0  0  0  0  0  0
   -8.2097   16.7386  -33.6596 H   0  0  0  0  0  0  0  0  0  0  0  0
   -5.8318   15.1191  -33.7607 H   0  0  0  0  0  0  0  0  0  0  0  0
   -6.5709   15.9265  -35.1357 H   0  0  0  0  0  0  0  0  0  0  0  0
   -3.5966   16.0633  -35.3376 H   0  0  0  0  0  0  0  0  0  0  0  0
   -1.9169   17.9148  -35.0935 H   0  0  0  0  0  0  0  0  0  0  0  0
   -2.4689   19.9321  -33.7201 H   0  0  0  0  0  0  0  0  0  0  0  0
   -4.7091   20.1125  -32.5935 H   0  0  0  0  0  0  0  0  0  0  0  0
   -5.7938   20.7790  -32.8054 H   0  0  0  0  0  0  0  0  0  0  0  0
   -4.2808   22.5173  -31.8597 H   0  0  0  0  0  0  0  0  0  0  0  0
   -2.5498   22.4682  -30.4988 H   0  0  0  0  0  0  0  0  0  0  0  0
   -2.1996   24.2182  -30.7610 H   0  0  0  0  0  0  0  0  0  0  0  0
   -0.9402   22.4200  -28.6275 H   0  0  0  0  0  0  0  0  0  0  0  0
   -0.1638   23.0292  -30.1715 H   0  0  0  0  0  0  0  0  0  0  0  0
   -1.0641   25.9378  -27.5051 H   0  0  0  0  0  0  0  0  0  0  0  0
   -1.6280   25.9287  -29.2382 H   0  0  0  0  0  0  0  0  0  0  0  0
   -2.5499   24.0248  -27.0376 H   0  0  0  0  0  0  0  0  0  0  0  0
   -3.4763   25.4242  -27.7300 H   0  0  0  0  0  0  0  0  0  0  0  0
   -7.4063   23.7473  -29.1312 H   0  0  0  0  0  0  0  0  0  0  0  0
   -8.9153   21.9984  -30.0710 H   0  0  0  0  0  0  0  0  0  0  0  0
  1  2  2  0
  2  3  2  0
  2  4  1  0
  4  5  1  0
  5  6  1  0
  6  7  1  0
  7  8  1  0
  8  9  2  0
  9 10  1  0
 10 11  2  0
 11 12  1  0
 12 13  2  0
  2 14  1  0
 14 15  2  0
 15 16  1  0
 16 17  2  0
 17 18  1  0
 18 19  2  0
 18 20  2  0
 18 21  1  0
 21 22  1  0
 22 23  1  0
 23 24  1  0
 24 25  1  0
 25 26  1  0
 17 27  1  0
 27 28  2  0
 13  5  1  0
 28 14  1  0
 13  8  1  0
 26 21  1  0
  4 29  1  0
  5 30  1  1
  6 31  1  0
  6 32  1  0
  7 33  1  0
  7 34  1  0
  9 35  1  0
 10 36  1  0
 11 37  1  0
 12 38  1  0
 15 39  1  0
 16 40  1  0
 22 41  1  0
 22 42  1  0
 23 43  1  0
 23 44  1  0
 25 45  1  0
 25 46  1  0
 26 47  1  0
 26 48  1  0
 27 49  1  0
 28 50  1  0
M  END
>  <UniqueID>  (13) 
12

>  <SMILES>  (13) 
O=S(=O)(N[C@H]1CCc2ccccc21)c1ccc(S(=O)(=O)N2CCOCC2)cc1

>  <Energy>  (13) 
71.45992627484075

>  <Genealogy>  (13) 
O=S(=O)(N[C@H]1CCc2ccccc21)c1ccc(S(=O)(=O)N2CCOCC2)cc1 (chirality)
O=S(=O)(N[C@H]1CCc2ccccc21)c1ccc(S(=O)(=O)N2CCOCC2)cc1 (3D coordinates assigned)
O=S(=O)(N[C@H]1CCc2ccccc21)c1ccc(S(=O)(=O)N2CCOCC2)cc1 (nonaromatic ring conformer: 71.45992627484075 kcal/mol)

>  <smiles>  (13) 
O=S(=O)(NC1CCc2ccccc21)c1ccc(S(=O)(=O)N2CCOCC2)cc1

>  <score_type>  (13) 
oracle

>  <origin>  (13) 
adgpu

>  <m_score__min__energy>  (13) 
-10.83

>  <m_primary>  (13) 
energy

$$$$
13:0
     RDKit          3D

 59 62  0  0  0  0  0  0  0  0999 V2000
   -0.6690   23.0970  -30.0900 O   0  0  0  0  0  0  0  0  0  0  0  0
   -0.6970   21.8480  -30.2740 C   0  0  0  0  0  0  0  0  0  0  0  0
    0.1090   21.0280  -29.4900 O   0  0  0  0  0  0  0  0  0  0  0  0
   -1.6010   21.2640  -31.2870 C   0  0  0  0  0  0  0  0  0  0  0  0
   -2.7250   20.5150  -30.8860 C   0  0  0  0  0  0  0  0  0  0  0  0
   -3.5980   19.9820  -31.8350 C   0  0  0  0  0  0  0  0  0  0  0  0
   -3.3670   20.2020  -33.2050 C   0  0  0  0  0  0  0  0  0  0  0  0
   -4.2390   19.6690  -34.2070 N   0  0  0  0  0  0  0  0  0  0  0  0
   -5.4750   18.4930  -33.8980 S   0  0  0  0  0  0  0  0  0  0  0  0
   -4.8660   17.3300  -33.1620 O   0  0  0  0  0  0  0  0  0  0  0  0
   -6.0060   17.9920  -35.2110 O   0  0  0  0  0  0  0  0  0  0  0  0
   -6.8090   19.1820  -32.9700 C   0  0  0  0  0  0  0  0  0  0  0  0
   -6.9420   20.5750  -32.8540 C   0  0  0  0  0  0  0  0  0  0  0  0
   -7.9980   21.1330  -32.1260 C   0  0  0  0  0  0  0  0  0  0  0  0
   -8.0980   22.5320  -32.0740 O   0  0  0  0  0  0  0  0  0  0  0  0
   -7.1110   23.4290  -32.5810 C   0  0  0  0  0  0  0  0  0  0  0  0
   -6.0770   23.6710  -31.5190 C   0  0  0  0  0  0  0  0  0  0  0  0
   -4.7860   23.1380  -31.6570 C   0  0  0  0  0  0  0  0  0  0  0  0
   -3.8280   23.3450  -30.6600 C   0  0  0  0  0  0  0  0  0  0  0  0
   -4.1530   24.0750  -29.5090 C   0  0  0  0  0  0  0  0  0  0  0  0
   -2.9490   24.3400  -28.2460 S   0  0  0  0  0  0  0  0  0  0  0  0
   -1.9520   25.3690  -28.7000 O   0  0  0  0  0  0  0  0  0  0  0  0
   -3.6420   24.8570  -27.0160 O   0  0  0  0  0  0  0  0  0  0  0  0
   -2.1330   22.8420  -27.8770 N   0  0  0  0  0  0  0  0  0  0  0  0
   -3.1090   21.7390  -27.8230 C   0  0  0  0  0  0  0  0  0  0  0  0
   -2.4390   20.4220  -27.3670 C   0  0  0  0  0  0  0  0  0  0  0  0
   -1.0640   20.6000  -27.0820 O   0  0  0  0  0  0  0  0  0  0  0  0
   -0.9300   21.5910  -26.0850 C   0  0  0  0  0  0  0  0  0  0  0  0
   -1.3820   22.9680  -26.6120 C   0  0  0  0  0  0  0  0  0  0  0  0
   -5.4500   24.5790  -29.3520 C   0  0  0  0  0  0  0  0  0  0  0  0
   -6.4080   24.3770  -30.3530 C   0  0  0  0  0  0  0  0  0  0  0  0
   -8.9170   20.2820  -31.4820 C   0  0  0  0  0  0  0  0  0  0  0  0
   -8.7800   18.8950  -31.5860 C   0  0  0  0  0  0  0  0  0  0  0  0
   -7.7340   18.3440  -32.3330 C   0  0  0  0  0  0  0  0  0  0  0  0
   -7.6240   16.9950  -32.4320 F   0  0  0  0  0  0  0  0  0  0  0  0
   -2.2690   20.9740  -33.6050 C   0  0  0  0  0  0  0  0  0  0  0  0
   -1.3880   21.4940  -32.6570 C   0  0  0  0  0  0  0  0  0  0  0  0
   -2.9159   20.3490  -29.8155 H   0  0  0  0  0  0  0  0  0  0  0  0
   -4.4668   19.3898  -31.5118 H   0  0  0  0  0  0  0  0  0  0  0  0
   -6.2082   21.2343  -33.3407 H   0  0  0  0  0  0  0  0  0  0  0  0
   -6.6324   22.9876  -33.4676 H   0  0  0  0  0  0  0  0  0  0  0  0
   -7.5843   24.3813  -32.8621 H   0  0  0  0  0  0  0  0  0  0  0  0
   -4.5269   22.5551  -32.5531 H   0  0  0  0  0  0  0  0  0  0  0  0
   -2.8151   22.9331  -30.7796 H   0  0  0  0  0  0  0  0  0  0  0  0
   -1.4590   22.6550  -28.6570 H   0  0  0  0  0  0  0  0  0  0  0  0
   -3.9071   22.0004  -27.1125 H   0  0  0  0  0  0  0  0  0  0  0  0
   -3.5217   21.5891  -28.8316 H   0  0  0  0  0  0  0  0  0  0  0  0
   -2.9461   20.0605  -26.4603 H   0  0  0  0  0  0  0  0  0  0  0  0
   -2.5255   19.6940  -28.1870 H   0  0  0  0  0  0  0  0  0  0  0  0
   -1.5496   21.3161  -25.2187 H   0  0  0  0  0  0  0  0  0  0  0  0
    0.1291   21.6565  -25.7953 H   0  0  0  0  0  0  0  0  0  0  0  0
   -2.0268   23.4450  -25.8592 H   0  0  0  0  0  0  0  0  0  0  0  0
   -0.4857   23.5769  -26.8013 H   0  0  0  0  0  0  0  0  0  0  0  0
   -5.7167   25.1345  -28.4408 H   0  0  0  0  0  0  0  0  0  0  0  0
   -7.4257   24.7741  -30.2243 H   0  0  0  0  0  0  0  0  0  0  0  0
   -9.7440   20.7097  -30.8962 H   0  0  0  0  0  0  0  0  0  0  0  0
   -9.4979   18.2341  -31.0782 H   0  0  0  0  0  0  0  0  0  0  0  0
   -2.1004   21.1715  -34.6739 H   0  0  0  0  0  0  0  0  0  0  0  0
   -0.5214   22.0876  -32.9835 H   0  0  0  0  0  0  0  0  0  0  0  0
  1  2  2  0
  2  3  1  0
  2  4  1  0
  4  5  2  0
  5  6  1  0
  6  7  2  0
  7  8  1  0
  8  9  1  0
  9 10  2  0
  9 11  2  0
  9 12  1  0
 12 13  2  0
 13 14  1  0
 14 15  1  0
 15 16  1  0
 16 17  1  0
 17 18  2  0
 18 19  1  0
 19 20  2  0
 20 21  1  0
 21 22  2  0
 21 23  2  0
 21 24  1  0
 24 25  1  0
 25 26  1  0
 26 27  1  0
 27 28  1  0
 28 29  1  0
 20 30  1  0
 30 31  2  0
 14 32  2  0
 32 33  1  0
 33 34  2  0
 34 35  1  0
  7 36  1  0
 36 37  2  0
 37  4  1  0
 34 12  1  0
 31 17  1  0
 29 24  1  0
  5 38  1  0
  6 39  1  0
 13 40  1  0
 16 41  1  0
 16 42  1  0
 18 43  1  0
 19 44  1  0
 24 45  1  0
 25 46  1  0
 25 47  1  0
 26 48  1  0
 26 49  1  0
 28 50  1  0
 28 51  1  0
 29 52  1  0
 29 53  1  0
 30 54  1  0
 31 55  1  0
 32 56  1  0
 33 57  1  0
 36 58  1  0
 37 59  1  0
M  CHG  3   3  -1   8  -1  24   1
M  END
>  <UniqueID>  (14) 
13

>  <SMILES>  (14) 
O=C([O-])c1ccc([N-]S(=O)(=O)c2cc(OCc3ccc(S(=O)(=O)[NH+]4CCOCC4)cc3)ccc2F)cc1

>  <Energy>  (14) 
75.8654048223101

>  <Genealogy>  (14) 
O=C([O-])c1ccc([N-]S(=O)(=O)c2cc(OCc3ccc(S(=O)(=O)[NH+]4CCOCC4)cc3)ccc2F)cc1 (protonated)
O=C([O-])c1ccc([N-]S(=O)(=O)c2cc(OCc3ccc(S(=O)(=O)[NH+]4CCOCC4)cc3)ccc2F)cc1 (3D coordinates assigned)
O=C([O-])c1ccc([N-]S(=O)(=O)c2cc(OCc3ccc(S(=O)(=O)[NH+]4CCOCC4)cc3)ccc2F)cc1 (nonaromatic ring conformer: 75.8654048223101 kcal/mol)

>  <smiles>  (14) 
O=C(O)c1ccc(NS(=O)(=O)c2cc(OCc3ccc(S(=O)(=O)N4CCOCC4)cc3)ccc2F)cc1

>  <score_type>  (14) 
oracle

>  <origin>  (14) 
adgpu

>  <m_score__min__energy>  (14) 
-10.800000000000001

>  <m_primary>  (14) 
energy

$$$$
14:0
     RDKit          3D

 53 55  0  0  0  0  0  0  0  0999 V2000
   -4.9220   17.1180  -34.1440 C   0  0  0  0  0  0  0  0  0  0  0  0
   -6.2800   17.0650  -33.5090 C   0  0  0  0  0  0  0  0  0  0  0  0
   -6.8350   15.9410  -33.3680 O   0  0  0  0  0  0  0  0  0  0  0  0
   -6.9580   18.2670  -33.0810 N   0  0  0  0  0  0  0  0  0  0  0  0
   -8.2210   18.1750  -32.3300 C   0  0  0  0  0  0  0  0  0  0  0  0
   -8.2680   19.2350  -31.2210 C   0  0  0  0  0  0  0  0  0  0  0  0
   -7.8110   20.5470  -31.6980 N   0  0  0  0  0  0  0  0  0  0  0  0
   -7.9550   21.6910  -30.8360 C   0  0  0  0  0  0  0  0  0  0  0  0
   -9.0000   21.8150  -30.1420 O   0  0  0  0  0  0  0  0  0  0  0  0
   -6.8910   22.7160  -30.7320 C   0  0  0  0  0  0  0  0  0  0  0  0
   -6.9460   23.8850  -31.5060 C   0  0  0  0  0  0  0  0  0  0  0  0
   -5.9420   24.8500  -31.4050 C   0  0  0  0  0  0  0  0  0  0  0  0
   -4.8580   24.6550  -30.5400 C   0  0  0  0  0  0  0  0  0  0  0  0
   -3.8680   25.6330  -30.4320 O   0  0  0  0  0  0  0  0  0  0  0  0
   -4.7710   23.4720  -29.7820 C   0  0  0  0  0  0  0  0  0  0  0  0
   -3.6310   23.2540  -28.8260 C   0  0  0  0  0  0  0  0  0  0  0  0
   -3.4550   21.8210  -28.6080 N   0  0  0  0  0  0  0  0  0  0  0  0
   -1.8070   21.3720  -28.9250 S   0  0  0  0  0  0  0  0  0  0  0  0
   -1.5200   20.0540  -28.2650 O   0  0  0  0  0  0  0  0  0  0  0  0
   -0.8790   22.4060  -28.3470 O   0  0  0  0  0  0  0  0  0  0  0  0
   -1.5430   21.2170  -30.6600 C   0  0  0  0  0  0  0  0  0  0  0  0
   -2.6020   21.3910  -31.5620 C   0  0  0  0  0  0  0  0  0  0  0  0
   -2.3870   21.2460  -32.9350 C   0  0  0  0  0  0  0  0  0  0  0  0
   -1.1120   20.9200  -33.4190 C   0  0  0  0  0  0  0  0  0  0  0  0
   -0.8910   20.7700  -34.8240 N   0  0  0  0  0  0  0  0  0  0  0  0
   -0.0540   20.7400  -32.5170 C   0  0  0  0  0  0  0  0  0  0  0  0
   -0.2710   20.8850  -31.1420 C   0  0  0  0  0  0  0  0  0  0  0  0
   -5.7940   22.5140  -29.8770 C   0  0  0  0  0  0  0  0  0  0  0  0
   -7.4050   20.7160  -33.0990 C   0  0  0  0  0  0  0  0  0  0  0  0
   -6.4570   19.5850  -33.5080 C   0  0  0  0  0  0  0  0  0  0  0  0
   -4.1514   17.1481  -33.3596 H   0  0  0  0  0  0  0  0  0  0  0  0
   -4.7744   16.2249  -34.7690 H   0  0  0  0  0  0  0  0  0  0  0  0
   -4.8444   18.0199  -34.7690 H   0  0  0  0  0  0  0  0  0  0  0  0
   -9.0637   18.3347  -33.0188 H   0  0  0  0  0  0  0  0  0  0  0  0
   -8.2889   17.1778  -31.8708 H   0  0  0  0  0  0  0  0  0  0  0  0
   -9.3035   19.3281  -30.8616 H   0  0  0  0  0  0  0  0  0  0  0  0
   -7.5953   18.9128  -30.4125 H   0  0  0  0  0  0  0  0  0  0  0  0
   -7.7866   24.0424  -32.1978 H   0  0  0  0  0  0  0  0  0  0  0  0
   -6.0027   25.7681  -32.0079 H   0  0  0  0  0  0  0  0  0  0  0  0
   -3.9600   26.4140  -29.7940 H   0  0  0  0  0  0  0  0  0  0  0  0
   -2.7088   23.6777  -29.2503 H   0  0  0  0  0  0  0  0  0  0  0  0
   -3.8513   23.7493  -27.8688 H   0  0  0  0  0  0  0  0  0  0  0  0
   -3.6053   21.6425  -31.1877 H   0  0  0  0  0  0  0  0  0  0  0  0
   -3.2206   21.3880  -33.6385 H   0  0  0  0  0  0  0  0  0  0  0  0
   -0.3700   19.9450  -35.1990 H   0  0  0  0  0  0  0  0  0  0  0  0
   -1.2480   21.4820  -35.5010 H   0  0  0  0  0  0  0  0  0  0  0  0
    0.9485   20.4843  -32.8906 H   0  0  0  0  0  0  0  0  0  0  0  0
    0.5608   20.7376  -30.4374 H   0  0  0  0  0  0  0  0  0  0  0  0
   -5.7358   21.5951  -29.2752 H   0  0  0  0  0  0  0  0  0  0  0  0
   -8.2971   20.6945  -33.7422 H   0  0  0  0  0  0  0  0  0  0  0  0
   -6.8877   21.6802  -33.2119 H   0  0  0  0  0  0  0  0  0  0  0  0
   -6.3516   19.5877  -34.6029 H   0  0  0  0  0  0  0  0  0  0  0  0
   -5.4884   19.7573  -33.0160 H   0  0  0  0  0  0  0  0  0  0  0  0
  1  2  1  0
  2  3  2  0
  2  4  1  0
  4  5  1  0
  5  6  1  0
  6  7  1  0
  7  8  1  0
  8  9  2  0
  8 10  1  0
 10 11  2  0
 11 12  1  0
 12 13  2  0
 13 14  1  0
 13 15  1  0
 15 16  1  0
 16 17  1  0
 17 18  1  0
 18 19  2  0
 18 20  2  0
 18 21  1  0
 21 22  2  0
 22 23  1  0
 23 24  2  0
 24 25  1  0
 24 26  1  0
 26 27  2  0
 15 28  2  0
  7 29  1  0
 29 30  1  0
 30  4  1  0
 28 10  1  0
 27 21  1  0
  1 31  1  0
  1 32  1  0
  1 33  1  0
  5 34  1  0
  5 35  1  0
  6 36  1  0
  6 37  1  0
 11 38  1  0
 12 39  1  0
 14 40  1  0
 16 41  1  0
 16 42  1  0
 22 43  1  0
 23 44  1  0
 25 45  1  0
 25 46  1  0
 26 47  1  0
 27 48  1  0
 28 49  1  0
 29 50  1  0
 29 51  1  0
 30 52  1  0
 30 53  1  0
M  CHG  1  17  -1
M  END
>  <UniqueID>  (15) 
14

>  <SMILES>  (15) 
CC(=O)N1CCN(C(=O)c2ccc(O)c(C[N-]S(=O)(=O)c3ccc(N)cc3)c2)CC1

>  <Energy>  (15) 
54.99316143109722

>  <Genealogy>  (15) 
CC(=O)N1CCN(C(=O)c2ccc(O)c(C[N-]S(=O)(=O)c3ccc(N)cc3)c2)CC1 (protonated)
CC(=O)N1CCN(C(=O)c2ccc(O)c(C[N-]S(=O)(=O)c3ccc(N)cc3)c2)CC1 (3D coordinates assigned)
CC(=O)N1CCN(C(=O)c2ccc(O)c(C[N-]S(=O)(=O)c3ccc(N)cc3)c2)CC1 (nonaromatic ring conformer: 54.99316143109722 kcal/mol)

>  <smiles>  (15) 
CC(=O)N1CCN(C(=O)c2ccc(O)c(CNS(=O)(=O)c3ccc(N)cc3)c2)CC1

>  <score_type>  (15) 
oracle

>  <origin>  (15) 
adgpu

>  <m_score__min__energy>  (15) 
-11.720000000000001

>  <m_primary>  (15) 
energy

$$$$
15:0
     RDKit          3D

 32 34  0  0  0  0  0  0  0  0999 V2000
   -6.1110   18.6310  -34.2390 O   0  0  0  0  0  0  0  0  0  0  0  0
   -6.2530   19.6480  -33.5120 C   0  0  0  0  0  0  0  0  0  0  0  0
   -5.2350   20.6350  -33.3250 N   0  0  0  0  0  0  0  0  0  0  0  0
   -5.8500   21.5740  -32.4360 C   0  0  0  0  0  0  0  0  0  0  0  0
   -5.2610   22.7340  -31.9390 C   0  0  0  0  0  0  0  0  0  0  0  0
   -6.0090   23.5480  -31.0630 C   0  0  0  0  0  0  0  0  0  0  0  0
   -5.3020   25.0080  -30.3800 S   0  0  0  0  0  0  0  0  0  0  0  0
   -5.7820   25.1640  -28.9660 O   0  0  0  0  0  0  0  0  0  0  0  0
   -5.7090   26.2200  -31.1710 O   0  0  0  0  0  0  0  0  0  0  0  0
   -3.5730   24.8810  -30.3850 N   0  0  0  0  0  0  0  0  0  0  0  0
   -2.8120   23.8510  -29.7330 C   0  0  0  0  0  0  0  0  0  0  0  0
   -2.0200   22.9440  -30.4630 C   0  0  0  0  0  0  0  0  0  0  0  0
   -1.2930   21.9340  -29.8090 C   0  0  0  0  0  0  0  0  0  0  0  0
   -0.4720   20.9750  -30.5810 C   0  0  0  0  0  0  0  0  0  0  0  0
   -0.1020   21.2460  -31.7540 O   0  0  0  0  0  0  0  0  0  0  0  0
   -0.1020   19.7560  -30.0230 O   0  0  0  0  0  0  0  0  0  0  0  0
   -1.3570   21.8440  -28.4100 C   0  0  0  0  0  0  0  0  0  0  0  0
   -2.1330   22.7450  -27.6790 C   0  0  0  0  0  0  0  0  0  0  0  0
   -2.8590   23.7470  -28.3290 C   0  0  0  0  0  0  0  0  0  0  0  0
   -3.6230   24.6270  -27.5600 O   0  0  0  0  0  0  0  0  0  0  0  0
   -7.3290   23.1820  -30.7100 C   0  0  0  0  0  0  0  0  0  0  0  0
   -7.9050   22.0070  -31.2230 C   0  0  0  0  0  0  0  0  0  0  0  0
   -7.1390   21.2250  -32.0830 C   0  0  0  0  0  0  0  0  0  0  0  0
   -7.4500   19.9820  -32.7560 C   0  0  0  0  0  0  0  0  0  0  0  0
   -8.5270   19.3310  -32.7030 O   0  0  0  0  0  0  0  0  0  0  0  0
   -4.2347   23.0094  -32.2234 H   0  0  0  0  0  0  0  0  0  0  0  0
   -1.9695   23.0268  -31.5587 H   0  0  0  0  0  0  0  0  0  0  0  0
   -0.7922   21.0587  -27.8863 H   0  0  0  0  0  0  0  0  0  0  0  0
   -2.1735   22.6658  -26.5826 H   0  0  0  0  0  0  0  0  0  0  0  0
   -4.2600   25.2970  -27.9740 H   0  0  0  0  0  0  0  0  0  0  0  0
   -7.9091   23.8219  -30.0288 H   0  0  0  0  0  0  0  0  0  0  0  0
   -8.9303   21.7141  -30.9530 H   0  0  0  0  0  0  0  0  0  0  0  0
  1  2  2  0
  2  3  1  0
  3  4  1  0
  4  5  2  0
  5  6  1  0
  6  7  1  0
  7  8  2  0
  7  9  2  0
  7 10  1  0
 10 11  1  0
 11 12  2  0
 12 13  1  0
 13 14  1  0
 14 15  2  0
 14 16  1  0
 13 17  2  0
 17 18  1  0
 18 19  2  0
 19 20  1  0
  6 21  2  0
 21 22  1  0
 22 23  2  0
 23 24  1  0
 24 25  2  0
 24  2  1  0
 23  4  1  0
 19 11  1  0
  5 26  1  0
 12 27  1  0
 17 28  1  0
 18 29  1  0
 20 30  1  0
 21 31  1  0
 22 32  1  0
M  CHG  3   3  -1  10  -1  16  -1
M  END
>  <UniqueID>  (16) 
15

>  <SMILES>  (16) 
O=C1[N-]c2cc(S(=O)(=O)[N-]c3cc(C(=O)[O-])ccc3O)ccc2C1=O

>  <Energy>  (16) 
69.25973900138008

>  <Genealogy>  (16) 
O=C1[N-]c2cc(S(=O)(=O)[N-]c3cc(C(=O)[O-])ccc3O)ccc2C1=O (protonated)
O=C1[N-]c2cc(S(=O)(=O)[N-]c3cc(C(=O)[O-])ccc3O)ccc2C1=O (3D coordinates assigned)
O=C1[N-]c2cc(S(=O)(=O)[N-]c3cc(C(=O)[O-])ccc3O)ccc2C1=O (nonaromatic ring conformer: 69.25973900138008 kcal/mol)

>  <smiles>  (16) 
O=C1Nc2cc(S(=O)(=O)Nc3cc(C(=O)O)ccc3O)ccc2C1=O

>  <score_type>  (16) 
oracle

>  <origin>  (16) 
adgpu

>  <m_score__min__energy>  (16) 
-11.07

>  <m_primary>  (16) 
energy

$$$$
16:0
     RDKit          3D

 46 48  0  0  0  0  0  0  0  0999 V2000
   -0.9420   30.4160  -24.8340 C   0  0  0  0  0  0  0  0  0  0  0  0
   -0.8300   29.1050  -25.5550 C   0  0  0  0  0  0  0  0  0  0  0  0
   -1.0690   27.8940  -24.8830 C   0  0  0  0  0  0  0  0  0  0  0  0
   -0.9360   26.6750  -25.5570 C   0  0  0  0  0  0  0  0  0  0  0  0
   -0.5440   26.6500  -26.9030 C   0  0  0  0  0  0  0  0  0  0  0  0
   -0.3900   25.1040  -27.7350 S   0  0  0  0  0  0  0  0  0  0  0  0
   -0.9640   24.0310  -26.8550 O   0  0  0  0  0  0  0  0  0  0  0  0
    1.0540   24.7800  -28.0070 O   0  0  0  0  0  0  0  0  0  0  0  0
   -1.2810   25.1500  -29.2220 N   0  0  0  0  0  0  0  0  0  0  0  0
   -2.1330   24.0960  -29.6950 C   0  0  0  0  0  0  0  0  0  0  0  0
   -1.6530   22.7700  -29.6780 C   0  0  0  0  0  0  0  0  0  0  0  0
   -0.3710   22.4650  -29.2170 O   0  0  0  0  0  0  0  0  0  0  0  0
   -2.4730   21.7270  -30.1170 C   0  0  0  0  0  0  0  0  0  0  0  0
   -3.7610   21.9900  -30.5870 C   0  0  0  0  0  0  0  0  0  0  0  0
   -4.2370   23.3070  -30.6580 C   0  0  0  0  0  0  0  0  0  0  0  0
   -5.5970   23.5750  -31.1820 C   0  0  0  0  0  0  0  0  0  0  0  0
   -5.8320   24.6930  -31.7210 O   0  0  0  0  0  0  0  0  0  0  0  0
   -6.6420   22.5820  -31.1080 N   0  0  0  0  0  0  0  0  0  0  0  0
   -6.3150   21.1500  -31.0860 C   0  0  0  0  0  0  0  0  0  0  0  0
   -7.5230   20.3090  -31.5240 C   0  0  0  0  0  0  0  0  0  0  0  0
   -8.2050   20.9440  -32.6590 N   0  0  0  0  0  0  0  0  0  0  0  0
   -8.7850   22.2590  -32.3110 C   0  0  0  0  0  0  0  0  0  0  0  0
   -8.0560   22.9780  -31.1550 C   0  0  0  0  0  0  0  0  0  0  0  0
   -3.4160   24.3630  -30.2180 C   0  0  0  0  0  0  0  0  0  0  0  0
   -3.8580   25.6740  -30.3590 O   0  0  0  0  0  0  0  0  0  0  0  0
   -0.2920   27.8580  -27.5730 C   0  0  0  0  0  0  0  0  0  0  0  0
   -0.4330   29.0790  -26.9020 C   0  0  0  0  0  0  0  0  0  0  0  0
   -0.9269   30.2398  -23.7483 H   0  0  0  0  0  0  0  0  0  0  0  0
   -0.0957   31.0611  -25.1125 H   0  0  0  0  0  0  0  0  0  0  0  0
   -1.8855   30.9082  -25.1125 H   0  0  0  0  0  0  0  0  0  0  0  0
   -1.3618   27.9045  -23.8227 H   0  0  0  0  0  0  0  0  0  0  0  0
   -1.1399   25.7321  -25.0285 H   0  0  0  0  0  0  0  0  0  0  0  0
    0.0840   22.9910  -28.4830 H   0  0  0  0  0  0  0  0  0  0  0  0
   -2.1012   20.6920  -30.0921 H   0  0  0  0  0  0  0  0  0  0  0  0
   -4.4071   21.1581  -30.9039 H   0  0  0  0  0  0  0  0  0  0  0  0
   -5.4760   20.9609  -31.7718 H   0  0  0  0  0  0  0  0  0  0  0  0
   -6.0410   20.8662  -30.0592 H   0  0  0  0  0  0  0  0  0  0  0  0
   -7.1785   19.3078  -31.8223 H   0  0  0  0  0  0  0  0  0  0  0  0
   -8.2274   20.2315  -30.6827 H   0  0  0  0  0  0  0  0  0  0  0  0
   -7.5110   21.0740  -33.4340 H   0  0  0  0  0  0  0  0  0  0  0  0
   -8.7419   22.9032  -33.2016 H   0  0  0  0  0  0  0  0  0  0  0  0
   -9.8154   22.0743  -31.9730 H   0  0  0  0  0  0  0  0  0  0  0  0
   -8.1218   24.0654  -31.3073 H   0  0  0  0  0  0  0  0  0  0  0  0
   -8.5343   22.6965  -30.2053 H   0  0  0  0  0  0  0  0  0  0  0  0
    0.0172   27.8452  -28.6286 H   0  0  0  0  0  0  0  0  0  0  0  0
   -0.2320   30.0217  -27.4321 H   0  0  0  0  0  0  0  0  0  0  0  0
  1  2  1  0
  2  3  2  0
  3  4  1  0
  4  5  2  0
  5  6  1  0
  6  7  2  0
  6  8  2  0
  6  9  1  0
  9 10  1  0
 10 11  2  0
 11 12  1  0
 11 13  1  0
 13 14  2  0
 14 15  1  0
 15 16  1  0
 16 17  2  0
 16 18  1  0
 18 19  1  0
 19 20  1  0
 20 21  1  0
 21 22  1  0
 22 23  1  0
 15 24  2  0
 24 25  1  0
  5 26  1  0
 26 27  2  0
 27  2  1  0
 24 10  1  0
 23 18  1  0
  1 28  1  0
  1 29  1  0
  1 30  1  0
  3 31  1  0
  4 32  1  0
 12 33  1  0
 13 34  1  0
 14 35  1  0
 19 36  1  0
 19 37  1  0
 20 38  1  0
 20 39  1  0
 21 40  1  0
 22 41  1  0
 22 42  1  0
 23 43  1  0
 23 44  1  0
 26 45  1  0
 27 46  1  0
M  CHG  2   9  -1  25  -1
M  END
>  <UniqueID>  (17) 
16

>  <SMILES>  (17) 
Cc1ccc(S(=O)(=O)[N-]c2c(O)ccc(C(=O)N3CCNCC3)c2[O-])cc1

>  <Energy>  (17) 
65.15027568087321

>  <Genealogy>  (17) 
Cc1ccc(S(=O)(=O)[N-]c2c(O)ccc(C(=O)N3CCNCC3)c2[O-])cc1 (protonated)
Cc1ccc(S(=O)(=O)[N-]c2c(O)ccc(C(=O)N3CCNCC3)c2[O-])cc1 (3D coordinates assigned)
Cc1ccc(S(=O)(=O)[N-]c2c(O)ccc(C(=O)N3CCNCC3)c2[O-])cc1 (nonaromatic ring conformer: 65.15027568087321 kcal/mol)

>  <smiles>  (17) 
Cc1ccc(S(=O)(=O)Nc2c(O)ccc(C(=O)N3CCNCC3)c2O)cc1

>  <score_type>  (17) 
oracle

>  <origin>  (17) 
adgpu

>  <m_score__min__energy>  (17) 
-13.140000000000001

>  <m_primary>  (17) 
energy

$$$$
17:0
     RDKit          3D

 62 65  0  0  0  0  0  0  0  0999 V2000
   -0.1170   21.6300  -27.2460 C   0  0  0  0  0  0  0  0  0  0  0  0
   -0.9750   22.5150  -28.1140 C   0  0  0  0  0  0  0  0  0  0  0  0
   -1.9680   21.9150  -28.9010 C   0  0  0  0  0  0  0  0  0  0  0  0
   -2.8060   22.6850  -29.7030 C   0  0  0  0  0  0  0  0  0  0  0  0
   -2.6610   24.0770  -29.7450 C   0  0  0  0  0  0  0  0  0  0  0  0
   -3.5300   24.8960  -30.5440 N   0  0  0  0  0  0  0  0  0  0  0  0
   -4.9280   24.6840  -30.7680 C   0  0  0  0  0  0  0  0  0  0  0  0
   -5.6380   25.6560  -31.1350 O   0  0  0  0  0  0  0  0  0  0  0  0
   -5.5060   23.3840  -30.5820 N   0  0  0  0  0  0  0  0  0  0  0  0
   -6.7450   22.9120  -31.1350 C   0  0  0  0  0  0  0  0  0  0  0  0
   -7.8020   23.7880  -31.4330 C   0  0  0  0  0  0  0  0  0  0  0  0
   -8.9840   23.2980  -31.9920 C   0  0  0  0  0  0  0  0  0  0  0  0
   -9.1210   21.9370  -32.2650 C   0  0  0  0  0  0  0  0  0  0  0  0
   -8.0720   21.0480  -31.9860 C   0  0  0  0  0  0  0  0  0  0  0  0
   -8.2340   19.6070  -32.2870 C   0  0  0  0  0  0  0  0  0  0  0  0
   -9.3120   19.0300  -31.9700 O   0  0  0  0  0  0  0  0  0  0  0  0
   -7.1890   18.8580  -32.9390 N   0  0  0  0  0  0  0  0  0  0  0  0
   -6.4070   19.5160  -34.0090 C   0  0  0  0  0  0  0  0  0  0  0  0
   -5.7370   18.5250  -34.9630 C   0  0  0  0  0  0  0  0  0  0  0  0
   -4.7290   17.3820  -34.0420 S   0  0  0  0  0  0  0  0  0  0  0  0
   -3.3970   18.0060  -33.7340 O   0  0  0  0  0  0  0  0  0  0  0  0
   -4.5240   16.1270  -34.8420 O   0  0  0  0  0  0  0  0  0  0  0  0
   -5.5910   17.0150  -32.5270 C   0  0  0  0  0  0  0  0  0  0  0  0
   -7.0600   17.4170  -32.6560 C   0  0  0  0  0  0  0  0  0  0  0  0
   -6.8750   21.5450  -31.4360 C   0  0  0  0  0  0  0  0  0  0  0  0
   -5.8160   20.6830  -31.1630 O   0  0  0  0  0  0  0  0  0  0  0  0
   -1.7010   24.6970  -28.9350 C   0  0  0  0  0  0  0  0  0  0  0  0
   -1.6030   26.0850  -28.9630 O   0  0  0  0  0  0  0  0  0  0  0  0
   -0.8450   23.9280  -28.1110 C   0  0  0  0  0  0  0  0  0  0  0  0
    0.3550   24.7290  -27.0610 S   0  0  0  0  0  0  0  0  0  0  0  0
    1.5500   25.1950  -27.8480 O   0  0  0  0  0  0  0  0  0  0  0  0
    0.8290   23.7420  -26.0280 O   0  0  0  0  0  0  0  0  0  0  0  0
   -0.3810   26.1040  -26.2750 N   0  0  0  0  0  0  0  0  0  0  0  0
    0.2840   27.3480  -26.7080 C   0  0  0  0  0  0  0  0  0  0  0  0
   -0.2260   28.5510  -25.8880 C   0  0  0  0  0  0  0  0  0  0  0  0
   -1.2990   28.1820  -25.0420 O   0  0  0  0  0  0  0  0  0  0  0  0
   -0.8590   27.2090  -24.1110 C   0  0  0  0  0  0  0  0  0  0  0  0
   -0.2920   25.9560  -24.8120 C   0  0  0  0  0  0  0  0  0  0  0  0
   -0.3240   21.8435  -26.1869 H   0  0  0  0  0  0  0  0  0  0  0  0
   -0.3454   20.5752  -27.4589 H   0  0  0  0  0  0  0  0  0  0  0  0
    0.9443   21.8256  -27.4589 H   0  0  0  0  0  0  0  0  0  0  0  0
   -2.0866   20.8215  -28.8846 H   0  0  0  0  0  0  0  0  0  0  0  0
   -3.5858   22.1974  -30.3065 H   0  0  0  0  0  0  0  0  0  0  0  0
   -7.6982   24.8632  -31.2253 H   0  0  0  0  0  0  0  0  0  0  0  0
   -9.8104   23.9880  -32.2180 H   0  0  0  0  0  0  0  0  0  0  0  0
  -10.0570   21.5584  -32.7016 H   0  0  0  0  0  0  0  0  0  0  0  0
   -7.0834   20.1589  -34.5913 H   0  0  0  0  0  0  0  0  0  0  0  0
   -5.6067   20.0921  -33.5215 H   0  0  0  0  0  0  0  0  0  0  0  0
   -6.5104   17.9682  -35.5124 H   0  0  0  0  0  0  0  0  0  0  0  0
   -5.1021   19.0776  -35.6712 H   0  0  0  0  0  0  0  0  0  0  0  0
   -5.5244   15.9365  -32.3211 H   0  0  0  0  0  0  0  0  0  0  0  0
   -5.1314   17.5792  -31.7021 H   0  0  0  0  0  0  0  0  0  0  0  0
   -7.5186   16.8464  -33.4770 H   0  0  0  0  0  0  0  0  0  0  0  0
   -7.5684   17.1990  -31.7052 H   0  0  0  0  0  0  0  0  0  0  0  0
    1.3697   27.2465  -26.5636 H   0  0  0  0  0  0  0  0  0  0  0  0
    0.0555   27.5207  -27.7700 H   0  0  0  0  0  0  0  0  0  0  0  0
    0.5983   28.9393  -25.2718 H   0  0  0  0  0  0  0  0  0  0  0  0
   -0.5857   29.3194  -26.5881 H   0  0  0  0  0  0  0  0  0  0  0  0
   -0.0729   27.6500  -23.4805 H   0  0  0  0  0  0  0  0  0  0  0  0
   -1.7247   26.8992  -23.5071 H   0  0  0  0  0  0  0  0  0  0  0  0
    0.7615   25.8246  -24.5240 H   0  0  0  0  0  0  0  0  0  0  0  0
   -0.8791   25.0779  -24.5049 H   0  0  0  0  0  0  0  0  0  0  0  0
  1  2  1  0
  2  3  2  0
  3  4  1  0
  4  5  2  0
  5  6  1  0
  6  7  1  0
  7  8  2  0
  7  9  1  0
  9 10  1  0
 10 11  2  0
 11 12  1  0
 12 13  2  0
 13 14  1  0
 14 15  1  0
 15 16  2  0
 15 17  1  0
 17 18  1  0
 18 19  1  0
 19 20  1  0
 20 21  2  0
 20 22  2  0
 20 23  1  0
 23 24  1  0
 14 25  2  0
 25 26  1  0
  5 27  1  0
 27 28  1  0
 27 29  2  0
 29 30  1  0
 30 31  2  0
 30 32  2  0
 30 33  1  0
 33 34  1  0
 34 35  1  0
 35 36  1  0
 36 37  1  0
 37 38  1  0
 29  2  1  0
 38 33  1  0
 25 10  1  0
 24 17  1  0
  1 39  1  0
  1 40  1  0
  1 41  1  0
  3 42  1  0
  4 43  1  0
 11 44  1  0
 12 45  1  0
 13 46  1  0
 18 47  1  0
 18 48  1  0
 19 49  1  0
 19 50  1  0
 23 51  1  0
 23 52  1  0
 24 53  1  0
 24 54  1  0
 34 55  1  0
 34 56  1  0
 35 57  1  0
 35 58  1  0
 37 59  1  0
 37 60  1  0
 38 61  1  0
 38 62  1  0
M  CHG  4   6  -1   9  -1  26  -1  28  -1
M  END
>  <UniqueID>  (18) 
17

>  <SMILES>  (18) 
Cc1ccc([N-]C(=O)[N-]c2cccc(C(=O)N3CCS(=O)(=O)CC3)c2[O-])c([O-])c1S(=O)(=O)N1CCOCC1

>  <Energy>  (18) 
83.8036018614481

>  <Genealogy>  (18) 
Cc1ccc([N-]C(=O)[N-]c2cccc(C(=O)N3CCS(=O)(=O)CC3)c2[O-])c([O-])c1S(=O)(=O)N1CCOCC1 (protonated)
Cc1ccc([N-]C(=O)[N-]c2cccc(C(=O)N3CCS(=O)(=O)CC3)c2[O-])c([O-])c1S(=O)(=O)N1CCOCC1 (3D coordinates assigned)
Cc1ccc([N-]C(=O)[N-]c2cccc(C(=O)N3CCS(=O)(=O)CC3)c2[O-])c([O-])c1S(=O)(=O)N1CCOCC1 (nonaromatic ring conformer: 83.8036018614481 kcal/mol)

>  <smiles>  (18) 
Cc1ccc(NC(=O)Nc2cccc(C(=O)N3CCS(=O)(=O)CC3)c2O)c(O)c1S(=O)(=O)N1CCOCC1

>  <score_type>  (18) 
oracle

>  <origin>  (18) 
adgpu

>  <m_score__min__energy>  (18) 
-17.010000000000002

>  <m_primary>  (18) 
energy

$$$$
18:0
     RDKit          3D

 61 65  0  0  0  0  0  0  0  0999 V2000
   -5.6610   15.8990  -33.8580 C   0  0  0  0  0  0  0  0  0  0  0  0
   -5.7800   17.3000  -33.4290 N   0  0  0  0  0  0  0  0  0  0  0  0
   -6.8740   17.4500  -32.4540 C   0  0  0  0  0  0  0  0  0  0  0  0
   -6.7740   18.8320  -31.8000 C   0  0  0  0  0  0  0  0  0  0  0  0
   -6.2950   19.8280  -32.7630 N   0  0  0  0  0  0  0  0  0  0  0  0
   -5.8870   21.1200  -32.2880 C   0  0  0  0  0  0  0  0  0  0  0  0
   -6.8360   22.0110  -31.8930 N   0  0  0  0  0  0  0  0  0  0  0  0
   -6.5210   23.2520  -31.4390 C   0  0  0  0  0  0  0  0  0  0  0  0
   -5.1820   23.6550  -31.3580 C   0  0  0  0  0  0  0  0  0  0  0  0
   -4.8330   24.9790  -30.7920 C   0  0  0  0  0  0  0  0  0  0  0  0
   -5.7120   25.8810  -30.7470 O   0  0  0  0  0  0  0  0  0  0  0  0
   -3.5110   25.2840  -30.3210 N   0  0  0  0  0  0  0  0  0  0  0  0
   -2.7670   24.5500  -29.3360 C   0  0  0  0  0  0  0  0  0  0  0  0
   -3.1780   23.2810  -28.8950 C   0  0  0  0  0  0  0  0  0  0  0  0
   -2.3990   22.5650  -27.9830 C   0  0  0  0  0  0  0  0  0  0  0  0
   -2.8940   20.9120  -27.4960 S   0  0  0  0  0  0  0  0  0  0  0  0
   -1.3370   20.1980  -28.0130 C   0  0  0  0  0  0  0  0  0  0  0  0
   -0.7490   19.0820  -27.4750 C   0  0  0  0  0  0  0  0  0  0  0  0
    0.4080   18.8530  -28.1210 N   0  0  0  0  0  0  0  0  0  0  0  0
    0.4760   19.8410  -29.0390 C   0  0  0  0  0  0  0  0  0  0  0  0
   -0.5750   20.6870  -29.0050 N   0  0  0  0  0  0  0  0  0  0  0  0
   -1.2300   23.1310  -27.4660 C   0  0  0  0  0  0  0  0  0  0  0  0
   -0.8420   24.4290  -27.8410 C   0  0  0  0  0  0  0  0  0  0  0  0
    0.4420   25.0210  -27.3170 C   0  0  0  0  0  0  0  0  0  0  0  0
    0.4450   26.3970  -27.4680 F   0  0  0  0  0  0  0  0  0  0  0  0
    1.5080   24.4880  -28.0190 F   0  0  0  0  0  0  0  0  0  0  0  0
    0.5980   24.7340  -25.9720 F   0  0  0  0  0  0  0  0  0  0  0  0
   -1.6100   25.1230  -28.7940 C   0  0  0  0  0  0  0  0  0  0  0  0
   -4.1870   22.7680  -31.7900 C   0  0  0  0  0  0  0  0  0  0  0  0
   -4.5220   21.4800  -32.2290 C   0  0  0  0  0  0  0  0  0  0  0  0
   -3.4440   20.5170  -32.5440 C   0  0  0  0  0  0  0  0  0  0  0  0
   -3.3700   19.9260  -33.8150 C   0  0  0  0  0  0  0  0  0  0  0  0
   -2.3510   19.0140  -34.1100 C   0  0  0  0  0  0  0  0  0  0  0  0
   -1.3950   18.6950  -33.1430 C   0  0  0  0  0  0  0  0  0  0  0  0
   -1.4520   19.2900  -31.8790 C   0  0  0  0  0  0  0  0  0  0  0  0
   -2.4690   20.2010  -31.5800 C   0  0  0  0  0  0  0  0  0  0  0  0
   -6.4770   19.5930  -34.2010 C   0  0  0  0  0  0  0  0  0  0  0  0
   -5.9900   18.1820  -34.6000 C   0  0  0  0  0  0  0  0  0  0  0  0
   -5.6057   15.2480  -32.9731 H   0  0  0  0  0  0  0  0  0  0  0  0
   -6.5390   15.6243  -34.4610 H   0  0  0  0  0  0  0  0  0  0  0  0
   -4.7492   15.7763  -34.4610 H   0  0  0  0  0  0  0  0  0  0  0  0
   -7.8418   17.3545  -32.9681 H   0  0  0  0  0  0  0  0  0  0  0  0
   -6.7953   16.6682  -31.6842 H   0  0  0  0  0  0  0  0  0  0  0  0
   -7.7675   19.1314  -31.4350 H   0  0  0  0  0  0  0  0  0  0  0  0
   -6.0608   18.7768  -30.9643 H   0  0  0  0  0  0  0  0  0  0  0  0
   -7.3206   23.9431  -31.1338 H   0  0  0  0  0  0  0  0  0  0  0  0
   -4.1178   22.8492  -29.2697 H   0  0  0  0  0  0  0  0  0  0  0  0
   -1.1558   18.4755  -26.6524 H   0  0  0  0  0  0  0  0  0  0  0  0
    1.3101   19.9464  -29.7483 H   0  0  0  0  0  0  0  0  0  0  0  0
   -0.6100   22.5572  -26.7615 H   0  0  0  0  0  0  0  0  0  0  0  0
   -1.2980   26.1272  -29.1170 H   0  0  0  0  0  0  0  0  0  0  0  0
   -3.1338   23.0854  -31.7845 H   0  0  0  0  0  0  0  0  0  0  0  0
   -4.1161   20.1809  -34.5820 H   0  0  0  0  0  0  0  0  0  0  0  0
   -2.3026   18.5475  -35.1050 H   0  0  0  0  0  0  0  0  0  0  0  0
   -0.5966   17.9751  -33.3760 H   0  0  0  0  0  0  0  0  0  0  0  0
   -0.6962   19.0410  -31.1196 H   0  0  0  0  0  0  0  0  0  0  0  0
   -2.5073   20.6728  -30.5871 H   0  0  0  0  0  0  0  0  0  0  0  0
   -7.5447   19.6878  -34.4482 H   0  0  0  0  0  0  0  0  0  0  0  0
   -5.8845   20.3365  -34.7543 H   0  0  0  0  0  0  0  0  0  0  0  0
   -6.7429   17.7221  -35.2570 H   0  0  0  0  0  0  0  0  0  0  0  0
   -5.0218   18.2953  -35.1097 H   0  0  0  0  0  0  0  0  0  0  0  0
  1  2  1  0
  2  3  1  0
  3  4  1  0
  4  5  1  0
  5  6  1  0
  6  7  2  0
  7  8  1  0
  8  9  2  0
  9 10  1  0
 10 11  2  0
 10 12  1  0
 12 13  1  0
 13 14  2  0
 14 15  1  0
 15 16  1  0
 16 17  1  0
 17 18  2  0
 18 19  1  0
 19 20  1  0
 20 21  2  0
 15 22  2  0
 22 23  1  0
 23 24  1  0
 24 25  1  0
 24 26  1  0
 24 27  1  0
 23 28  2  0
  9 29  1  0
 29 30  2  0
 30 31  1  0
 31 32  2  0
 32 33  1  0
 33 34  2  0
 34 35  1  0
 35 36  2  0
  5 37  1  0
 37 38  1  0
 38  2  1  0
 30  6  1  0
 36 31  1  0
 28 13  1  0
 21 17  1  0
  1 39  1  0
  1 40  1  0
  1 41  1  0
  3 42  1  0
  3 43  1  0
  4 44  1  0
  4 45  1  0
  8 46  1  0
 14 47  1  0
 18 48  1  0
 20 49  1  0
 22 50  1  0
 28 51  1  0
 29 52  1  0
 32 53  1  0
 33 54  1  0
 34 55  1  0
 35 56  1  0
 36 57  1  0
 37 58  1  0
 37 59  1  0
 38 60  1  0
 38 61  1  0
M  CHG  2  12  -1  19  -1
M  END
>  <UniqueID>  (19) 
18

>  <SMILES>  (19) 
CN1CCN(c2ncc(C(=O)[N-]c3cc(Sc4c[n-]cn4)cc(C(F)(F)F)c3)cc2-c2ccccc2)CC1

>  <Energy>  (19) 
109.90922629391747

>  <Genealogy>  (19) 
CN1CCN(c2ncc(C(=O)[N-]c3cc(Sc4c[n-]cn4)cc(C(F)(F)F)c3)cc2-c2ccccc2)CC1 (protonated)
CN1CCN(c2ncc(C(=O)[N-]c3cc(Sc4c[n-]cn4)cc(C(F)(F)F)c3)cc2-c2ccccc2)CC1 (3D coordinates assigned)
CN1CCN(c2ncc(C(=O)[N-]c3cc(Sc4c[n-]cn4)cc(C(F)(F)F)c3)cc2-c2ccccc2)CC1 (nonaromatic ring conformer: 109.90922629391747 kcal/mol)

>  <smiles>  (19) 
CN1CCN(c2ncc(C(=O)Nc3cc(Sc4c[nH]cn4)cc(C(F)(F)F)c3)cc2-c2ccccc2)CC1

>  <score_type>  (19) 
oracle

>  <origin>  (19) 
adgpu

>  <m_score__min__energy>  (19) 
-12.02

>  <m_primary>  (19) 
energy

$$$$
19:0
     RDKit          3D

 61 64  0  0  0  0  0  0  0  0999 V2000
   -0.5300   23.6440  -25.6920 C   0  0  0  0  0  0  0  0  0  0  0  0
   -1.5780   24.5630  -26.1480 N   0  0  0  0  0  0  0  0  0  0  0  0
   -1.7090   25.8900  -25.5390 C   0  0  0  0  0  0  0  0  0  0  0  0
   -2.5870   24.1160  -27.0750 C   0  0  0  0  0  0  0  0  0  0  0  0
   -3.7500   24.6020  -27.0140 O   0  0  0  0  0  0  0  0  0  0  0  0
   -2.2990   23.0920  -28.1020 C   0  0  0  0  0  0  0  0  0  0  0  0
   -3.0530   21.9080  -28.1450 C   0  0  0  0  0  0  0  0  0  0  0  0
   -2.7930   20.9400  -29.1190 C   0  0  0  0  0  0  0  0  0  0  0  0
   -1.8010   21.1520  -30.0830 C   0  0  0  0  0  0  0  0  0  0  0  0
   -1.5600   20.1450  -31.0300 O   0  0  0  0  0  0  0  0  0  0  0  0
   -0.8630   20.3170  -32.2340 C   0  0  0  0  0  0  0  0  0  0  0  0
    0.4940   20.1930  -32.2790 N   0  0  0  0  0  0  0  0  0  0  0  0
    1.1950   20.3760  -33.4280 C   0  0  0  0  0  0  0  0  0  0  0  0
    0.5290   20.6990  -34.6090 C   0  0  0  0  0  0  0  0  0  0  0  0
   -0.8600   20.8390  -34.5930 C   0  0  0  0  0  0  0  0  0  0  0  0
   -1.5690   20.6690  -33.3930 C   0  0  0  0  0  0  0  0  0  0  0  0
   -2.9990   20.7810  -33.3390 N   0  0  0  0  0  0  0  0  0  0  0  0
   -3.9410   19.7180  -33.5370 C   0  0  0  0  0  0  0  0  0  0  0  0
   -3.5470   18.6600  -34.0960 O   0  0  0  0  0  0  0  0  0  0  0  0
   -5.3400   19.8070  -33.0560 C   0  0  0  0  0  0  0  0  0  0  0  0
   -6.2290   18.7320  -33.2230 C   0  0  0  0  0  0  0  0  0  0  0  0
   -7.5510   18.8340  -32.7810 C   0  0  0  0  0  0  0  0  0  0  0  0
   -8.0020   20.0110  -32.1810 C   0  0  0  0  0  0  0  0  0  0  0  0
   -7.1310   21.0980  -32.0210 C   0  0  0  0  0  0  0  0  0  0  0  0
   -7.7040   22.5980  -31.2850 S   0  0  0  0  0  0  0  0  0  0  0  0
   -8.8310   23.1560  -32.1090 O   0  0  0  0  0  0  0  0  0  0  0  0
   -8.2370   22.2990  -29.9120 O   0  0  0  0  0  0  0  0  0  0  0  0
   -6.4330   23.7900  -31.1650 N   0  0  0  0  0  0  0  0  0  0  0  0
   -5.2040   23.1830  -30.6280 C   0  0  0  0  0  0  0  0  0  0  0  0
   -4.1570   24.2690  -30.3040 C   0  0  0  0  0  0  0  0  0  0  0  0
   -4.5310   25.5180  -30.8530 O   0  0  0  0  0  0  0  0  0  0  0  0
   -5.7300   25.9710  -30.2490 C   0  0  0  0  0  0  0  0  0  0  0  0
   -6.8560   24.9160  -30.3200 C   0  0  0  0  0  0  0  0  0  0  0  0
   -5.8040   20.9920  -32.4590 C   0  0  0  0  0  0  0  0  0  0  0  0
   -1.0470   22.3400  -30.0460 C   0  0  0  0  0  0  0  0  0  0  0  0
   -1.3020   23.3060  -29.0680 C   0  0  0  0  0  0  0  0  0  0  0  0
   -0.5104   23.6268  -24.5923 H   0  0  0  0  0  0  0  0  0  0  0  0
   -0.7389   22.6326  -26.0708 H   0  0  0  0  0  0  0  0  0  0  0  0
    0.4454   23.9832  -26.0708 H   0  0  0  0  0  0  0  0  0  0  0  0
   -1.6994   25.7932  -24.4433 H   0  0  0  0  0  0  0  0  0  0  0  0
   -0.8691   26.5245  -25.8584 H   0  0  0  0  0  0  0  0  0  0  0  0
   -2.6567   26.3481  -25.8584 H   0  0  0  0  0  0  0  0  0  0  0  0
   -3.8526   21.7416  -27.4081 H   0  0  0  0  0  0  0  0  0  0  0  0
   -3.3722   20.0049  -29.1279 H   0  0  0  0  0  0  0  0  0  0  0  0
    2.2898   20.2691  -33.4264 H   0  0  0  0  0  0  0  0  0  0  0  0
    1.0916   20.8420  -35.5434 H   0  0  0  0  0  0  0  0  0  0  0  0
   -1.3990   21.0825  -35.5205 H   0  0  0  0  0  0  0  0  0  0  0  0
   -5.8828   17.8053  -33.7041 H   0  0  0  0  0  0  0  0  0  0  0  0
   -8.2382   17.9842  -32.9063 H   0  0  0  0  0  0  0  0  0  0  0  0
   -9.0428   20.0858  -31.8330 H   0  0  0  0  0  0  0  0  0  0  0  0
   -5.4463   22.6292  -29.7090 H   0  0  0  0  0  0  0  0  0  0  0  0
   -4.7857   22.5023  -31.3841 H   0  0  0  0  0  0  0  0  0  0  0  0
   -4.0690   24.3686  -29.2121 H   0  0  0  0  0  0  0  0  0  0  0  0
   -3.1947   23.9684  -30.7440 H   0  0  0  0  0  0  0  0  0  0  0  0
   -5.5285   26.2030  -29.1928 H   0  0  0  0  0  0  0  0  0  0  0  0
   -6.0681   26.8621  -30.7982 H   0  0  0  0  0  0  0  0  0  0  0  0
   -7.0766   24.5491  -29.3067 H   0  0  0  0  0  0  0  0  0  0  0  0
   -7.7567   25.3757  -30.7529 H   0  0  0  0  0  0  0  0  0  0  0  0
   -5.1193   21.8439  -32.3345 H   0  0  0  0  0  0  0  0  0  0  0  0
   -0.2541   22.5090  -30.7894 H   0  0  0  0  0  0  0  0  0  0  0  0
   -0.7188   24.2386  -29.0550 H   0  0  0  0  0  0  0  0  0  0  0  0
  1  2  1  0
  2  3  1  0
  2  4  1  0
  4  5  2  0
  4  6  1  0
  6  7  2  0
  7  8  1  0
  8  9  2  0
  9 10  1  0
 10 11  1  0
 11 12  2  0
 12 13  1  0
 13 14  2  0
 14 15  1  0
 15 16  2  0
 16 17  1  0
 17 18  1  0
 18 19  2  0
 18 20  1  0
 20 21  2  0
 21 22  1  0
 22 23  2  0
 23 24  1  0
 24 25  1  0
 25 26  2  0
 25 27  2  0
 25 28  1  0
 28 29  1  0
 29 30  1  0
 30 31  1  0
 31 32  1  0
 32 33  1  0
 24 34  2  0
  9 35  1  0
 35 36  2  0
 36  6  1  0
 16 11  1  0
 34 20  1  0
 33 28  1  0
  1 37  1  0
  1 38  1  0
  1 39  1  0
  3 40  1  0
  3 41  1  0
  3 42  1  0
  7 43  1  0
  8 44  1  0
 13 45  1  0
 14 46  1  0
 15 47  1  0
 21 48  1  0
 22 49  1  0
 23 50  1  0
 29 51  1  0
 29 52  1  0
 30 53  1  0
 30 54  1  0
 32 55  1  0
 32 56  1  0
 33 57  1  0
 33 58  1  0
 34 59  1  0
 35 60  1  0
 36 61  1  0
M  CHG  1  17  -1
M  END
>  <UniqueID>  (20) 
19

>  <SMILES>  (20) 
CN(C)C(=O)c1ccc(Oc2ncccc2[N-]C(=O)c2cccc(S(=O)(=O)N3CCOCC3)c2)cc1

>  <Energy>  (20) 
86.99975487366746

>  <Genealogy>  (20) 
CN(C)C(=O)c1ccc(Oc2ncccc2[N-]C(=O)c2cccc(S(=O)(=O)N3CCOCC3)c2)cc1 (protonated)
CN(C)C(=O)c1ccc(Oc2ncccc2[N-]C(=O)c2cccc(S(=O)(=O)N3CCOCC3)c2)cc1 (3D coordinates assigned)
CN(C)C(=O)c1ccc(Oc2ncccc2[N-]C(=O)c2cccc(S(=O)(=O)N3CCOCC3)c2)cc1 (nonaromatic ring conformer: 86.99975487366746 kcal/mol)

>  <smiles>  (20) 
CN(C)C(=O)c1ccc(Oc2ncccc2NC(=O)c2cccc(S(=O)(=O)N3CCOCC3)c2)cc1

>  <score_type>  (20) 
oracle

>  <origin>  (20) 
adgpu

>  <m_score__min__energy>  (20) 
-11.199999999999999

>  <m_primary>  (20) 
energy

$$$$
20:0
     RDKit          3D

 64 67  0  0  0  0  0  0  0  0999 V2000
   -3.8500   18.0800  -34.2950 C   0  0  0  0  0  0  0  0  0  0  0  0
   -3.6290   18.9210  -33.0420 C   0  0  0  0  0  0  0  0  0  0  0  0
   -4.1340   20.2860  -33.2380 N   0  0  0  0  0  0  0  0  0  0  0  0
   -3.1720   21.3770  -33.4710 C   0  0  0  0  0  0  0  0  0  0  0  0
   -1.9630   21.2250  -32.5980 C   0  0  0  0  0  0  0  0  0  0  0  0
   -1.9210   21.8160  -31.4840 O   0  0  0  0  0  0  0  0  0  0  0  0
   -0.8520   20.4500  -33.0630 N   0  0  0  0  0  0  0  0  0  0  0  0
    0.1370   20.8510  -34.0220 C   0  0  0  0  0  0  0  0  0  0  0  0
    1.4020   20.2550  -33.9650 C   0  0  0  0  0  0  0  0  0  0  0  0
    2.3970   20.6170  -34.8780 C   0  0  0  0  0  0  0  0  0  0  0  0
    2.1390   21.5930  -35.8480 C   0  0  0  0  0  0  0  0  0  0  0  0
    3.1200   21.9590  -36.7670 O   0  0  0  0  0  0  0  0  0  0  0  0
    0.8860   22.2100  -35.8940 C   0  0  0  0  0  0  0  0  0  0  0  0
   -0.1110   21.8480  -34.9820 C   0  0  0  0  0  0  0  0  0  0  0  0
   -5.5610   20.5150  -33.2960 C   0  0  0  0  0  0  0  0  0  0  0  0
   -6.2510   19.9480  -34.1860 O   0  0  0  0  0  0  0  0  0  0  0  0
   -6.2430   21.4020  -32.3290 C   0  0  0  0  0  0  0  0  0  0  0  0
   -5.5010   22.4100  -31.6950 C   0  0  0  0  0  0  0  0  0  0  0  0
   -6.1000   23.2570  -30.7560 C   0  0  0  0  0  0  0  0  0  0  0  0
   -5.1520   24.5120  -29.9540 S   0  0  0  0  0  0  0  0  0  0  0  0
   -6.0800   25.4620  -29.2500 O   0  0  0  0  0  0  0  0  0  0  0  0
   -4.3840   25.2910  -30.9860 O   0  0  0  0  0  0  0  0  0  0  0  0
   -4.0390   23.8230  -28.7940 N   0  0  0  0  0  0  0  0  0  0  0  0
   -2.7280   24.5320  -28.8030 C   0  0  0  0  0  0  0  0  0  0  0  0
   -1.5320   23.6490  -29.1940 C   0  0  0  0  0  0  0  0  0  0  0  0
   -1.5730   22.3850  -28.3920 C   0  0  0  0  0  0  0  0  0  0  0  0
   -0.4190   21.8240  -27.8260 C   0  0  0  0  0  0  0  0  0  0  0  0
   -0.5100   20.6350  -27.0950 C   0  0  0  0  0  0  0  0  0  0  0  0
   -1.7470   20.0010  -26.9380 C   0  0  0  0  0  0  0  0  0  0  0  0
   -2.8960   20.5530  -27.5130 C   0  0  0  0  0  0  0  0  0  0  0  0
   -2.8100   21.7540  -28.2340 C   0  0  0  0  0  0  0  0  0  0  0  0
   -3.9990   22.3490  -28.9350 C   0  0  0  0  0  0  0  0  0  0  0  0
   -7.4560   23.0960  -30.4500 C   0  0  0  0  0  0  0  0  0  0  0  0
   -8.2050   22.0930  -31.0690 C   0  0  0  0  0  0  0  0  0  0  0  0
   -7.6150   21.2430  -32.0170 C   0  0  0  0  0  0  0  0  0  0  0  0
   -8.4550   20.1740  -32.6670 C   0  0  0  0  0  0  0  0  0  0  0  0
   -4.1197   17.0538  -34.0049 H   0  0  0  0  0  0  0  0  0  0  0  0
   -4.6635   18.5181  -34.8919 H   0  0  0  0  0  0  0  0  0  0  0  0
   -2.9262   18.0616  -34.8919 H   0  0  0  0  0  0  0  0  0  0  0  0
   -4.1598   18.4573  -32.1975 H   0  0  0  0  0  0  0  0  0  0  0  0
   -2.5499   18.9693  -32.8340 H   0  0  0  0  0  0  0  0  0  0  0  0
   -2.8584   21.3606  -34.5252 H   0  0  0  0  0  0  0  0  0  0  0  0
   -3.6608   22.3321  -33.2282 H   0  0  0  0  0  0  0  0  0  0  0  0
    1.6148   19.4969  -33.1969 H   0  0  0  0  0  0  0  0  0  0  0  0
    3.3844   20.1341  -34.8341 H   0  0  0  0  0  0  0  0  0  0  0  0
    4.1060   21.9090  -36.5370 H   0  0  0  0  0  0  0  0  0  0  0  0
    0.6830   22.9829  -36.6499 H   0  0  0  0  0  0  0  0  0  0  0  0
   -1.0919   22.3447  -35.0160 H   0  0  0  0  0  0  0  0  0  0  0  0
   -4.4358   22.5359  -31.9390 H   0  0  0  0  0  0  0  0  0  0  0  0
   -2.7912   25.3633  -29.5206 H   0  0  0  0  0  0  0  0  0  0  0  0
   -2.5459   24.8690  -27.7719 H   0  0  0  0  0  0  0  0  0  0  0  0
   -1.5875   23.4072  -30.2657 H   0  0  0  0  0  0  0  0  0  0  0  0
   -0.5934   24.1858  -28.9918 H   0  0  0  0  0  0  0  0  0  0  0  0
    0.5552   22.3178  -27.9566 H   0  0  0  0  0  0  0  0  0  0  0  0
    0.3925   20.1978  -26.6429 H   0  0  0  0  0  0  0  0  0  0  0  0
   -1.8160   19.0668  -26.3614 H   0  0  0  0  0  0  0  0  0  0  0  0
   -3.8660   20.0465  -27.4003 H   0  0  0  0  0  0  0  0  0  0  0  0
   -3.9463   22.0947  -30.0039 H   0  0  0  0  0  0  0  0  0  0  0  0
   -4.9092   21.9364  -28.4752 H   0  0  0  0  0  0  0  0  0  0  0  0
   -7.9345   23.7631  -29.7179 H   0  0  0  0  0  0  0  0  0  0  0  0
   -9.2670   21.9681  -30.8112 H   0  0  0  0  0  0  0  0  0  0  0  0
   -8.9358   19.5622  -31.8895 H   0  0  0  0  0  0  0  0  0  0  0  0
   -9.2274   20.6447  -33.2930 H   0  0  0  0  0  0  0  0  0  0  0  0
   -7.8150   19.5348  -33.2930 H   0  0  0  0  0  0  0  0  0  0  0  0
  1  2  1  0
  2  3  1  0
  3  4  1  0
  4  5  1  0
  5  6  2  0
  5  7  1  0
  7  8  1  0
  8  9  2  0
  9 10  1  0
 10 11  2  0
 11 12  1  0
 11 13  1  0
 13 14  2  0
  3 15  1  0
 15 16  2  0
 15 17  1  0
 17 18  2  0
 18 19  1  0
 19 20  1  0
 20 21  2  0
 20 22  2  0
 20 23  1  0
 23 24  1  0
 24 25  1  0
 25 26  1  0
 26 27  2  0
 27 28  1  0
 28 29  2  0
 29 30  1  0
 30 31  2  0
 31 32  1  0
 19 33  2  0
 33 34  1  0
 34 35  2  0
 35 36  1  0
 14  8  1  0
 35 17  1  0
 32 23  1  0
 31 26  1  0
  1 37  1  0
  1 38  1  0
  1 39  1  0
  2 40  1  0
  2 41  1  0
  4 42  1  0
  4 43  1  0
  9 44  1  0
 10 45  1  0
 12 46  1  0
 13 47  1  0
 14 48  1  0
 18 49  1  0
 24 50  1  0
 24 51  1  0
 25 52  1  0
 25 53  1  0
 27 54  1  0
 28 55  1  0
 29 56  1  0
 30 57  1  0
 32 58  1  0
 32 59  1  0
 33 60  1  0
 34 61  1  0
 36 62  1  0
 36 63  1  0
 36 64  1  0
M  CHG  1   7  -1
M  END
>  <UniqueID>  (21) 
20

>  <SMILES>  (21) 
CCN(CC(=O)[N-]c1ccc(O)cc1)C(=O)c1cc(S(=O)(=O)N2CCc3ccccc3C2)ccc1C

>  <Energy>  (21) 
78.81831171110964

>  <Genealogy>  (21) 
CCN(CC(=O)[N-]c1ccc(O)cc1)C(=O)c1cc(S(=O)(=O)N2CCc3ccccc3C2)ccc1C (protonated)
CCN(CC(=O)[N-]c1ccc(O)cc1)C(=O)c1cc(S(=O)(=O)N2CCc3ccccc3C2)ccc1C (3D coordinates assigned)
CCN(CC(=O)[N-]c1ccc(O)cc1)C(=O)c1cc(S(=O)(=O)N2CCc3ccccc3C2)ccc1C (nonaromatic ring conformer: 78.81831171110964 kcal/mol)

>  <smiles>  (21) 
CCN(CC(=O)Nc1ccc(O)cc1)C(=O)c1cc(S(=O)(=O)N2CCc3ccccc3C2)ccc1C

>  <score_type>  (21) 
oracle

>  <origin>  (21) 
adgpu

>  <m_score__min__energy>  (21) 
-12.460000000000001

>  <m_primary>  (21) 
energy

$$$$
21:0
     RDKit          3D

 46 48  0  0  0  0  0  0  0  0999 V2000
    0.2850   24.7350  -36.1970 C   0  0  0  0  0  0  0  0  0  0  0  0
    0.7630   23.3250  -36.0750 C   0  0  0  0  0  0  0  0  0  0  0  0
    1.9210   23.0280  -36.4770 O   0  0  0  0  0  0  0  0  0  0  0  0
   -0.0570   22.3460  -35.4200 N   0  0  0  0  0  0  0  0  0  0  0  0
    0.2350   20.9360  -35.4090 C   0  0  0  0  0  0  0  0  0  0  0  0
    0.3150   20.2170  -36.6170 C   0  0  0  0  0  0  0  0  0  0  0  0
    0.6170   18.8540  -36.6150 C   0  0  0  0  0  0  0  0  0  0  0  0
    0.8440   18.1900  -35.4090 C   0  0  0  0  0  0  0  0  0  0  0  0
    0.7490   18.8830  -34.2030 C   0  0  0  0  0  0  0  0  0  0  0  0
    0.4190   20.2460  -34.1890 C   0  0  0  0  0  0  0  0  0  0  0  0
    0.2560   21.0770  -32.5970 S   0  0  0  0  0  0  0  0  0  0  0  0
   -1.5360   21.1020  -32.6930 C   0  0  0  0  0  0  0  0  0  0  0  0
   -2.2360   19.9940  -33.1880 C   0  0  0  0  0  0  0  0  0  0  0  0
   -3.6330   19.9850  -33.1720 C   0  0  0  0  0  0  0  0  0  0  0  0
   -4.3350   21.0770  -32.6540 C   0  0  0  0  0  0  0  0  0  0  0  0
   -3.6390   22.1950  -32.1670 C   0  0  0  0  0  0  0  0  0  0  0  0
   -4.3340   23.3030  -31.5820 N   0  0  0  0  0  0  0  0  0  0  0  0
   -3.7920   24.1450  -30.5560 C   0  0  0  0  0  0  0  0  0  0  0  0
   -4.0180   25.3820  -30.6040 O   0  0  0  0  0  0  0  0  0  0  0  0
   -2.9300   23.5950  -29.4810 C   0  0  0  0  0  0  0  0  0  0  0  0
   -3.1390   22.2830  -29.0170 C   0  0  0  0  0  0  0  0  0  0  0  0
   -2.3500   21.7510  -27.9880 C   0  0  0  0  0  0  0  0  0  0  0  0
   -2.6240   20.3660  -27.4810 C   0  0  0  0  0  0  0  0  0  0  0  0
   -1.3370   22.5360  -27.4200 C   0  0  0  0  0  0  0  0  0  0  0  0
   -1.1070   23.8320  -27.8880 C   0  0  0  0  0  0  0  0  0  0  0  0
   -1.8950   24.3640  -28.9130 C   0  0  0  0  0  0  0  0  0  0  0  0
   -1.6560   25.6660  -29.3430 O   0  0  0  0  0  0  0  0  0  0  0  0
   -2.2410   22.2170  -32.2220 C   0  0  0  0  0  0  0  0  0  0  0  0
    0.1405   25.1613  -35.1933 H   0  0  0  0  0  0  0  0  0  0  0  0
    1.0319   25.3293  -36.7438 H   0  0  0  0  0  0  0  0  0  0  0  0
   -0.6693   24.7526  -36.7438 H   0  0  0  0  0  0  0  0  0  0  0  0
   -0.8690   22.6990  -34.8670 H   0  0  0  0  0  0  0  0  0  0  0  0
    0.1378   20.7342  -37.5715 H   0  0  0  0  0  0  0  0  0  0  0  0
    0.6761   18.3029  -37.5652 H   0  0  0  0  0  0  0  0  0  0  0  0
    1.0979   17.1197  -35.4098 H   0  0  0  0  0  0  0  0  0  0  0  0
    0.9343   18.3566  -33.2551 H   0  0  0  0  0  0  0  0  0  0  0  0
   -1.6854   19.1305  -33.5895 H   0  0  0  0  0  0  0  0  0  0  0  0
   -4.1812   19.1173  -33.5676 H   0  0  0  0  0  0  0  0  0  0  0  0
   -5.4346   21.0605  -32.6278 H   0  0  0  0  0  0  0  0  0  0  0  0
   -3.9315   21.6673  -29.4675 H   0  0  0  0  0  0  0  0  0  0  0  0
   -2.6229   20.3713  -26.3810 H   0  0  0  0  0  0  0  0  0  0  0  0
   -3.6061   20.0299  -27.8451 H   0  0  0  0  0  0  0  0  0  0  0  0
   -1.8439   19.6812  -27.8451 H   0  0  0  0  0  0  0  0  0  0  0  0
   -0.7215   22.1304  -26.6035 H   0  0  0  0  0  0  0  0  0  0  0  0
   -0.3012   24.4375  -27.4475 H   0  0  0  0  0  0  0  0  0  0  0  0
   -1.6937   23.1131  -31.8942 H   0  0  0  0  0  0  0  0  0  0  0  0
  1  2  1  0
  2  3  2  0
  2  4  1  0
  4  5  1  0
  5  6  2  0
  6  7  1  0
  7  8  2  0
  8  9  1  0
  9 10  2  0
 10 11  1  0
 11 12  1  0
 12 13  2  0
 13 14  1  0
 14 15  2  0
 15 16  1  0
 16 17  1  0
 17 18  1  0
 18 19  2  0
 18 20  1  0
 20 21  2  0
 21 22  1  0
 22 23  1  0
 22 24  2  0
 24 25  1  0
 25 26  2  0
 26 27  1  0
 16 28  2  0
 10  5  1  0
 28 12  1  0
 26 20  1  0
  1 29  1  0
  1 30  1  0
  1 31  1  0
  4 32  1  0
  6 33  1  0
  7 34  1  0
  8 35  1  0
  9 36  1  0
 13 37  1  0
 14 38  1  0
 15 39  1  0
 21 40  1  0
 23 41  1  0
 23 42  1  0
 23 43  1  0
 24 44  1  0
 25 45  1  0
 28 46  1  0
M  CHG  2  17  -1  27  -1
M  END
>  <UniqueID>  (22) 
21

>  <SMILES>  (22) 
CC(=O)Nc1ccccc1Sc1cccc([N-]C(=O)c2cc(C)ccc2[O-])c1

>  <Energy>  (22) 
52.84049927869535

>  <Genealogy>  (22) 
CC(=O)Nc1ccccc1Sc1cccc([N-]C(=O)c2cc(C)ccc2[O-])c1 (protonated)
CC(=O)Nc1ccccc1Sc1cccc([N-]C(=O)c2cc(C)ccc2[O-])c1 (3D coordinates assigned)
CC(=O)Nc1ccccc1Sc1cccc([N-]C(=O)c2cc(C)ccc2[O-])c1 (optimized conformer: 52.84049927869535 kcal/mol)

>  <smiles>  (22) 
CC(=O)Nc1ccccc1Sc1cccc(NC(=O)c2cc(C)ccc2O)c1

>  <score_type>  (22) 
oracle

>  <origin>  (22) 
adgpu

>  <m_score__min__energy>  (22) 
-13.890000000000001

>  <m_primary>  (22) 
energy

$$$$
22:0
     RDKit          3D

 39 41  0  0  0  0  0  0  0  0999 V2000
   -6.0850   18.3720  -34.6960 N   0  0  0  0  0  0  0  0  0  0  0  0
   -6.5920   18.2080  -33.0510 S   0  0  0  0  0  0  0  0  0  0  0  0
   -7.6010   17.1010  -32.9490 O   0  0  0  0  0  0  0  0  0  0  0  0
   -5.4090   17.8630  -32.1920 O   0  0  0  0  0  0  0  0  0  0  0  0
   -7.3030   19.7220  -32.5030 C   0  0  0  0  0  0  0  0  0  0  0  0
   -8.5450   19.7260  -31.8530 C   0  0  0  0  0  0  0  0  0  0  0  0
   -9.1100   20.9300  -31.4240 C   0  0  0  0  0  0  0  0  0  0  0  0
   -8.4420   22.1370  -31.6450 C   0  0  0  0  0  0  0  0  0  0  0  0
   -7.2030   22.1470  -32.3060 C   0  0  0  0  0  0  0  0  0  0  0  0
   -6.4670   23.4400  -32.5360 C   0  0  0  0  0  0  0  0  0  0  0  0
   -5.3940   23.5920  -31.5570 N   0  0  0  0  0  0  0  0  0  0  0  0
   -4.2320   22.7490  -31.5520 C   0  0  0  0  0  0  0  0  0  0  0  0
   -4.0690   21.8990  -32.4700 O   0  0  0  0  0  0  0  0  0  0  0  0
   -3.1950   22.8910  -30.5050 C   0  0  0  0  0  0  0  0  0  0  0  0
   -2.5750   21.7370  -29.9990 C   0  0  0  0  0  0  0  0  0  0  0  0
   -1.5830   21.8290  -29.0220 C   0  0  0  0  0  0  0  0  0  0  0  0
   -1.1990   23.0800  -28.5230 C   0  0  0  0  0  0  0  0  0  0  0  0
   -0.1990   23.1750  -27.5420 C   0  0  0  0  0  0  0  0  0  0  0  0
    0.1760   24.4240  -27.0410 C   0  0  0  0  0  0  0  0  0  0  0  0
   -0.4410   25.5840  -27.5120 C   0  0  0  0  0  0  0  0  0  0  0  0
   -1.4390   25.5040  -28.4880 C   0  0  0  0  0  0  0  0  0  0  0  0
   -1.8270   24.2540  -29.0060 C   0  0  0  0  0  0  0  0  0  0  0  0
   -2.8330   24.1530  -29.9900 C   0  0  0  0  0  0  0  0  0  0  0  0
   -3.4910   25.3010  -30.4290 O   0  0  0  0  0  0  0  0  0  0  0  0
   -6.6380   20.9350  -32.7320 C   0  0  0  0  0  0  0  0  0  0  0  0
   -6.8160   18.9370  -35.1840 H   0  0  0  0  0  0  0  0  0  0  0  0
   -9.0765   18.7786  -31.6801 H   0  0  0  0  0  0  0  0  0  0  0  0
  -10.0831   20.9274  -30.9110 H   0  0  0  0  0  0  0  0  0  0  0  0
   -8.8876   23.0818  -31.3004 H   0  0  0  0  0  0  0  0  0  0  0  0
   -6.0371   23.4380  -33.5485 H   0  0  0  0  0  0  0  0  0  0  0  0
   -7.1718   24.2776  -32.4282 H   0  0  0  0  0  0  0  0  0  0  0  0
   -5.4550   24.3900  -30.8850 H   0  0  0  0  0  0  0  0  0  0  0  0
   -2.8750   20.7487  -30.3774 H   0  0  0  0  0  0  0  0  0  0  0  0
   -1.1010   20.9160  -28.6425 H   0  0  0  0  0  0  0  0  0  0  0  0
    0.2903   22.2639  -27.1671 H   0  0  0  0  0  0  0  0  0  0  0  0
    0.9602   24.4935  -26.2727 H   0  0  0  0  0  0  0  0  0  0  0  0
   -0.1411   26.5646  -27.1139 H   0  0  0  0  0  0  0  0  0  0  0  0
   -1.9231   26.4220  -28.8527 H   0  0  0  0  0  0  0  0  0  0  0  0
   -5.6670   20.9367  -33.2490 H   0  0  0  0  0  0  0  0  0  0  0  0
  1  2  1  0
  2  3  2  0
  2  4  2  0
  2  5  1  0
  5  6  2  0
  6  7  1  0
  7  8  2  0
  8  9  1  0
  9 10  1  0
 10 11  1  0
 11 12  1  0
 12 13  2  0
 12 14  1  0
 14 15  2  0
 15 16  1  0
 16 17  2  0
 17 18  1  0
 18 19  2  0
 19 20  1  0
 20 21  2  0
 21 22  1  0
 22 23  2  0
 23 24  1  0
  9 25  2  0
 25  5  1  0
 23 14  1  0
 22 17  1  0
  1 26  1  0
  6 27  1  0
  7 28  1  0
  8 29  1  0
 10 30  1  0
 10 31  1  0
 11 32  1  0
 15 33  1  0
 16 34  1  0
 18 35  1  0
 19 36  1  0
 20 37  1  0
 21 38  1  0
 25 39  1  0
M  CHG  2   1  -1  24  -1
M  END
>  <UniqueID>  (23) 
22

>  <SMILES>  (23) 
[NH-]S(=O)(=O)c1cccc(CNC(=O)c2ccc3ccccc3c2[O-])c1

>  <Energy>  (23) 
47.56606292605376

>  <Genealogy>  (23) 
[NH-]S(=O)(=O)c1cccc(CNC(=O)c2ccc3ccccc3c2[O-])c1 (protonated)
[NH-]S(=O)(=O)c1cccc(CNC(=O)c2ccc3ccccc3c2[O-])c1 (3D coordinates assigned)
[NH-]S(=O)(=O)c1cccc(CNC(=O)c2ccc3ccccc3c2[O-])c1 (optimized conformer: 47.56606292605376 kcal/mol)

>  <smiles>  (23) 
NS(=O)(=O)c1cccc(CNC(=O)c2ccc3ccccc3c2O)c1

>  <score_type>  (23) 
oracle

>  <origin>  (23) 
adgpu

>  <m_score__min__energy>  (23) 
-12.369999999999999

>  <m_primary>  (23) 
energy

$$$$
23:0
     RDKit          3D

 69 72  0  0  0  0  0  0  0  0999 V2000
   -3.0700   18.9040  -26.0310 C   0  0  0  0  0  0  0  0  0  0  0  0
   -1.9230   19.6320  -26.4600 O   0  0  0  0  0  0  0  0  0  0  0  0
   -1.2160   19.3640  -27.6430 C   0  0  0  0  0  0  0  0  0  0  0  0
   -0.1050   18.5160  -27.5740 C   0  0  0  0  0  0  0  0  0  0  0  0
    0.6290   18.2100  -28.7250 C   0  0  0  0  0  0  0  0  0  0  0  0
    0.2630   18.7560  -29.9550 C   0  0  0  0  0  0  0  0  0  0  0  0
   -0.8410   19.6270  -30.0430 C   0  0  0  0  0  0  0  0  0  0  0  0
   -1.1880   20.2660  -31.2430 O   0  0  0  0  0  0  0  0  0  0  0  0
   -2.3300   21.0560  -31.4060 C   0  0  0  0  0  0  0  0  0  0  0  0
   -2.4670   22.2390  -30.6660 C   0  0  0  0  0  0  0  0  0  0  0  0
   -3.5750   23.0700  -30.8590 C   0  0  0  0  0  0  0  0  0  0  0  0
   -3.7460   24.5580  -29.9350 S   0  0  0  0  0  0  0  0  0  0  0  0
   -4.8880   24.2920  -28.5970 C   0  0  0  0  0  0  0  0  0  0  0  0
   -4.2590   25.6510  -30.8290 O   0  0  0  0  0  0  0  0  0  0  0  0
   -2.4110   24.9750  -29.3810 O   0  0  0  0  0  0  0  0  0  0  0  0
   -4.5590   22.7090  -31.7890 C   0  0  0  0  0  0  0  0  0  0  0  0
   -4.4340   21.5280  -32.5260 C   0  0  0  0  0  0  0  0  0  0  0  0
   -3.3240   20.6870  -32.3380 C   0  0  0  0  0  0  0  0  0  0  0  0
   -3.2200   19.4540  -33.0810 N   0  0  0  0  0  0  0  0  0  0  0  0
   -4.1420   18.3540  -32.7450 C   0  0  0  0  0  0  0  0  0  0  0  0
   -5.4050   18.4430  -33.5570 C   0  0  0  0  0  0  0  0  0  0  0  0
   -5.3510   18.2830  -34.8060 O   0  0  0  0  0  0  0  0  0  0  0  0
   -6.6500   18.8240  -32.9510 N   0  0  0  0  0  0  0  0  0  0  0  0
   -7.1710   18.0280  -31.8300 C   0  0  0  0  0  0  0  0  0  0  0  0
   -8.5030   18.5740  -31.3210 C   0  0  0  0  0  0  0  0  0  0  0  0
   -8.4610   19.9850  -31.3070 O   0  0  0  0  0  0  0  0  0  0  0  0
   -8.5420   20.4540  -32.6320 C   0  0  0  0  0  0  0  0  0  0  0  0
   -7.3200   20.0270  -33.4720 C   0  0  0  0  0  0  0  0  0  0  0  0
   -2.4050   19.3980  -34.3110 C   0  0  0  0  0  0  0  0  0  0  0  0
   -0.9500   19.7410  -34.0580 C   0  0  0  0  0  0  0  0  0  0  0  0
   -0.4590   20.9810  -34.5070 C   0  0  0  0  0  0  0  0  0  0  0  0
    0.8800   21.3300  -34.3260 C   0  0  0  0  0  0  0  0  0  0  0  0
    1.7640   20.4330  -33.7290 C   0  0  0  0  0  0  0  0  0  0  0  0
    1.3130   19.1730  -33.3380 C   0  0  0  0  0  0  0  0  0  0  0  0
   -0.0290   18.7970  -33.5250 C   0  0  0  0  0  0  0  0  0  0  0  0
   -0.4340   17.3880  -33.1790 C   0  0  0  0  0  0  0  0  0  0  0  0
   -1.5800   19.9180  -28.8890 C   0  0  0  0  0  0  0  0  0  0  0  0
   -3.1015   18.8840  -24.9316 H   0  0  0  0  0  0  0  0  0  0  0  0
   -3.9783   19.3913  -26.4151 H   0  0  0  0  0  0  0  0  0  0  0  0
   -3.0157   17.8747  -26.4151 H   0  0  0  0  0  0  0  0  0  0  0  0
    0.1938   18.0863  -26.6065 H   0  0  0  0  0  0  0  0  0  0  0  0
    1.4968   17.5372  -28.6597 H   0  0  0  0  0  0  0  0  0  0  0  0
    0.8378   18.5060  -30.8589 H   0  0  0  0  0  0  0  0  0  0  0  0
   -1.6983   22.5151  -29.9292 H   0  0  0  0  0  0  0  0  0  0  0  0
   -4.3637   24.4141  -27.6377 H   0  0  0  0  0  0  0  0  0  0  0  0
   -5.7069   25.0234  -28.6630 H   0  0  0  0  0  0  0  0  0  0  0  0
   -5.2994   23.2740  -28.6630 H   0  0  0  0  0  0  0  0  0  0  0  0
   -5.4341   23.3582  -31.9398 H   0  0  0  0  0  0  0  0  0  0  0  0
   -5.2090   21.2553  -33.2574 H   0  0  0  0  0  0  0  0  0  0  0  0
   -3.6474   17.3937  -32.9530 H   0  0  0  0  0  0  0  0  0  0  0  0
   -4.4042   18.4293  -31.6794 H   0  0  0  0  0  0  0  0  0  0  0  0
   -7.3160   16.9908  -32.1663 H   0  0  0  0  0  0  0  0  0  0  0  0
   -6.4430   18.0773  -31.0068 H   0  0  0  0  0  0  0  0  0  0  0  0
   -9.3139   18.2383  -31.9841 H   0  0  0  0  0  0  0  0  0  0  0  0
   -8.6846   18.2034  -30.3014 H   0  0  0  0  0  0  0  0  0  0  0  0
   -9.4523   20.0480  -33.0974 H   0  0  0  0  0  0  0  0  0  0  0  0
   -8.5666   21.5533  -32.6024 H   0  0  0  0  0  0  0  0  0  0  0  0
   -7.6560   19.8228  -34.4993 H   0  0  0  0  0  0  0  0  0  0  0  0
   -6.5916   20.8503  -33.4315 H   0  0  0  0  0  0  0  0  0  0  0  0
   -2.4609   18.3806  -34.7255 H   0  0  0  0  0  0  0  0  0  0  0  0
   -2.8073   20.1428  -35.0134 H   0  0  0  0  0  0  0  0  0  0  0  0
   -1.1401   21.6849  -35.0076 H   0  0  0  0  0  0  0  0  0  0  0  0
    1.2389   22.3162  -34.6556 H   0  0  0  0  0  0  0  0  0  0  0  0
    2.8139   20.7182  -33.5669 H   0  0  0  0  0  0  0  0  0  0  0  0
    2.0162   18.4637  -32.8772 H   0  0  0  0  0  0  0  0  0  0  0  0
   -0.4668   17.2740  -32.0854 H   0  0  0  0  0  0  0  0  0  0  0  0
   -1.4287   17.1787  -33.5995 H   0  0  0  0  0  0  0  0  0  0  0  0
    0.2977   16.6824  -33.5995 H   0  0  0  0  0  0  0  0  0  0  0  0
   -2.4524   20.5847  -28.9546 H   0  0  0  0  0  0  0  0  0  0  0  0
  1  2  1  0
  2  3  1  0
  3  4  2  0
  4  5  1  0
  5  6  2  0
  6  7  1  0
  7  8  1  0
  8  9  1  0
  9 10  2  0
 10 11  1  0
 11 12  1  0
 12 13  1  0
 12 14  2  0
 12 15  2  0
 11 16  2  0
 16 17  1  0
 17 18  2  0
 18 19  1  0
 19 20  1  0
 20 21  1  0
 21 22  2  0
 21 23  1  0
 23 24  1  0
 24 25  1  0
 25 26  1  0
 26 27  1  0
 27 28  1  0
 19 29  1  0
 29 30  1  0
 30 31  2  0
 31 32  1  0
 32 33  2  0
 33 34  1  0
 34 35  2  0
 35 36  1  0
  7 37  2  0
 37  3  1  0
 18  9  1  0
 28 23  1  0
 35 30  1  0
  1 38  1  0
  1 39  1  0
  1 40  1  0
  4 41  1  0
  5 42  1  0
  6 43  1  0
 10 44  1  0
 13 45  1  0
 13 46  1  0
 13 47  1  0
 16 48  1  0
 17 49  1  0
 20 50  1  0
 20 51  1  0
 24 52  1  0
 24 53  1  0
 25 54  1  0
 25 55  1  0
 27 56  1  0
 27 57  1  0
 28 58  1  0
 28 59  1  0
 29 60  1  0
 29 61  1  0
 31 62  1  0
 32 63  1  0
 33 64  1  0
 34 65  1  0
 36 66  1  0
 36 67  1  0
 36 68  1  0
 37 69  1  0
M  END
>  <UniqueID>  (24) 
23

>  <SMILES>  (24) 
COc1cccc(Oc2cc(S(C)(=O)=O)ccc2N(CC(=O)N2CCOCC2)Cc2ccccc2C)c1

>  <Energy>  (24) 
86.53194883031736

>  <Genealogy>  (24) 
COc1cccc(Oc2cc(S(C)(=O)=O)ccc2N(CC(=O)N2CCOCC2)Cc2ccccc2C)c1 (3D coordinates assigned)
COc1cccc(Oc2cc(S(C)(=O)=O)ccc2N(CC(=O)N2CCOCC2)Cc2ccccc2C)c1 (nonaromatic ring conformer: 86.53194883031736 kcal/mol)

>  <smiles>  (24) 
COc1cccc(Oc2cc(S(C)(=O)=O)ccc2N(CC(=O)N2CCOCC2)Cc2ccccc2C)c1

>  <score_type>  (24) 
oracle

>  <origin>  (24) 
adgpu

>  <m_score__min__energy>  (24) 
-10.460000000000001

>  <m_primary>  (24) 
energy

$$$$
24:0
     RDKit          3D

 54 57  0  0  0  0  0  0  0  0999 V2000
    2.5110   19.4590  -34.6680 C   0  0  0  0  0  0  0  0  0  0  0  0
    1.2610   19.5970  -35.3380 O   0  0  0  0  0  0  0  0  0  0  0  0
    0.0380   19.8310  -34.6920 C   0  0  0  0  0  0  0  0  0  0  0  0
   -0.3540   21.1120  -34.2600 C   0  0  0  0  0  0  0  0  0  0  0  0
   -1.5810   21.2940  -33.6150 C   0  0  0  0  0  0  0  0  0  0  0  0
   -2.4280   20.2010  -33.3800 C   0  0  0  0  0  0  0  0  0  0  0  0
   -3.7330   20.4010  -32.7080 C   0  0  0  0  0  0  0  0  0  0  0  0
   -4.9620   20.0990  -33.2620 C   0  0  0  0  0  0  0  0  0  0  0  0
   -5.8720   20.3560  -32.2500 C   0  0  0  0  0  0  0  0  0  0  0  0
   -7.3410   20.2480  -32.3180 C   0  0  0  0  0  0  0  0  0  0  0  0
   -7.8430   19.2050  -32.8090 O   0  0  0  0  0  0  0  0  0  0  0  0
   -8.2230   21.2950  -31.8950 N   0  0  0  0  0  0  0  0  0  0  0  0
   -8.1950   21.9580  -30.5970 C   0  0  0  0  0  0  0  0  0  0  0  0
   -7.0570   22.9410  -30.5560 C   0  0  0  0  0  0  0  0  0  0  0  0
   -6.7040   23.6570  -31.7120 C   0  0  0  0  0  0  0  0  0  0  0  0
   -5.6460   24.5700  -31.6820 C   0  0  0  0  0  0  0  0  0  0  0  0
   -4.9190   24.7630  -30.5040 C   0  0  0  0  0  0  0  0  0  0  0  0
   -3.8650   25.6690  -30.4840 O   0  0  0  0  0  0  0  0  0  0  0  0
   -5.2490   24.0420  -29.3490 C   0  0  0  0  0  0  0  0  0  0  0  0
   -4.5160   24.2340  -28.1810 O   0  0  0  0  0  0  0  0  0  0  0  0
   -6.3170   23.1320  -29.3770 C   0  0  0  0  0  0  0  0  0  0  0  0
   -5.2220   20.8180  -31.1640 N   0  0  0  0  0  0  0  0  0  0  0  0
   -3.9270   20.8400  -31.4410 N   0  0  0  0  0  0  0  0  0  0  0  0
   -2.9500   21.3560  -30.5220 C   0  0  0  0  0  0  0  0  0  0  0  0
   -2.5600   20.6130  -29.3930 C   0  0  0  0  0  0  0  0  0  0  0  0
   -1.6050   21.1230  -28.5100 C   0  0  0  0  0  0  0  0  0  0  0  0
   -1.0160   22.3710  -28.7520 C   0  0  0  0  0  0  0  0  0  0  0  0
    0.1670   23.0300  -27.6270 S   0  0  0  0  0  0  0  0  0  0  0  0
    0.7520   24.5470  -28.2140 N   0  0  0  0  0  0  0  0  0  0  0  0
   -0.4780   23.2290  -26.2850 O   0  0  0  0  0  0  0  0  0  0  0  0
    1.3290   22.0850  -27.4870 O   0  0  0  0  0  0  0  0  0  0  0  0
   -1.3910   23.1070  -29.8850 C   0  0  0  0  0  0  0  0  0  0  0  0
   -2.3460   22.5970  -30.7700 C   0  0  0  0  0  0  0  0  0  0  0  0
   -2.0450   18.9280  -33.8320 C   0  0  0  0  0  0  0  0  0  0  0  0
   -0.8190   18.7470  -34.4760 C   0  0  0  0  0  0  0  0  0  0  0  0
    2.3480   19.4770  -33.5803 H   0  0  0  0  0  0  0  0  0  0  0  0
    2.9764   18.5040  -34.9532 H   0  0  0  0  0  0  0  0  0  0  0  0
    3.1736   20.2895  -34.9532 H   0  0  0  0  0  0  0  0  0  0  0  0
    0.3080   21.9738  -34.4306 H   0  0  0  0  0  0  0  0  0  0  0  0
   -1.8839   22.3003  -33.2899 H   0  0  0  0  0  0  0  0  0  0  0  0
   -5.1710   19.7358  -34.2790 H   0  0  0  0  0  0  0  0  0  0  0  0
   -9.1443   22.4903  -30.4374 H   0  0  0  0  0  0  0  0  0  0  0  0
   -8.0565   21.2062  -29.8061 H   0  0  0  0  0  0  0  0  0  0  0  0
   -7.2632   23.4983  -32.6458 H   0  0  0  0  0  0  0  0  0  0  0  0
   -5.3851   25.1377  -32.5873 H   0  0  0  0  0  0  0  0  0  0  0  0
   -3.9920   25.0870  -28.0180 H   0  0  0  0  0  0  0  0  0  0  0  0
   -6.5763   22.5650  -28.4707 H   0  0  0  0  0  0  0  0  0  0  0  0
   -3.0087   19.6265  -29.2046 H   0  0  0  0  0  0  0  0  0  0  0  0
   -1.3145   20.5428  -27.6218 H   0  0  0  0  0  0  0  0  0  0  0  0
   -0.0690   25.0690  -28.5900 H   0  0  0  0  0  0  0  0  0  0  0  0
   -0.9327   24.0882  -30.0782 H   0  0  0  0  0  0  0  0  0  0  0  0
   -2.6248   23.1722  -31.6652 H   0  0  0  0  0  0  0  0  0  0  0  0
   -2.7142   18.0686  -33.6781 H   0  0  0  0  0  0  0  0  0  0  0  0
   -0.5249   17.7432  -34.8163 H   0  0  0  0  0  0  0  0  0  0  0  0
  1  2  1  0
  2  3  1  0
  3  4  2  0
  4  5  1  0
  5  6  2  0
  6  7  1  0
  7  8  2  0
  8  9  1  0
  9 10  1  0
 10 11  2  0
 10 12  1  0
 12 13  1  0
 13 14  1  0
 14 15  2  0
 15 16  1  0
 16 17  2  0
 17 18  1  0
 17 19  1  0
 19 20  1  0
 19 21  2  0
  9 22  2  0
 22 23  1  0
 23 24  1  0
 24 25  2  0
 25 26  1  0
 26 27  2  0
 27 28  1  0
 28 29  1  0
 28 30  2  0
 28 31  2  0
 27 32  1  0
 32 33  2  0
  6 34  1  0
 34 35  2  0
 35  3  1  0
 23  7  1  0
 33 24  1  0
 21 14  1  0
  1 36  1  0
  1 37  1  0
  1 38  1  0
  4 39  1  0
  5 40  1  0
  8 41  1  0
 13 42  1  0
 13 43  1  0
 15 44  1  0
 16 45  1  0
 20 46  1  0
 21 47  1  0
 25 48  1  0
 26 49  1  0
 29 50  1  0
 32 51  1  0
 33 52  1  0
 34 53  1  0
 35 54  1  0
M  CHG  3  12  -1  18  -1  29  -1
M  END
>  <UniqueID>  (25) 
24

>  <SMILES>  (25) 
COc1ccc(-c2cc(C(=O)[N-]Cc3ccc([O-])c(O)c3)nn2-c2ccc(S([NH-])(=O)=O)cc2)cc1

>  <Energy>  (25) 
98.62364647968141

>  <Genealogy>  (25) 
COc1ccc(-c2cc(C(=O)[N-]Cc3ccc([O-])c(O)c3)nn2-c2ccc(S([NH-])(=O)=O)cc2)cc1 (protonated)
COc1ccc(-c2cc(C(=O)[N-]Cc3ccc([O-])c(O)c3)nn2-c2ccc(S([NH-])(=O)=O)cc2)cc1 (3D coordinates assigned)
COc1ccc(-c2cc(C(=O)[N-]Cc3ccc([O-])c(O)c3)nn2-c2ccc(S([NH-])(=O)=O)cc2)cc1 (optimized conformer: 98.62364647968141 kcal/mol)

>  <smiles>  (25) 
COc1ccc(-c2cc(C(=O)NCc3ccc(O)c(O)c3)nn2-c2ccc(S(N)(=O)=O)cc2)cc1

>  <score_type>  (25) 
oracle

>  <origin>  (25) 
adgpu

>  <m_score__min__energy>  (25) 
-13.07

>  <m_primary>  (25) 
energy

$$$$
25:0
     RDKit          3D

 37 39  0  0  0  0  0  0  0  0999 V2000
   -2.3360   15.4480  -35.7600 C   0  0  0  0  0  0  0  0  0  0  0  0
   -3.4950   16.2760  -35.8110 O   0  0  0  0  0  0  0  0  0  0  0  0
   -4.1720   16.7580  -34.6810 C   0  0  0  0  0  0  0  0  0  0  0  0
   -5.2400   16.0070  -34.1750 C   0  0  0  0  0  0  0  0  0  0  0  0
   -5.9470   16.4430  -33.0500 C   0  0  0  0  0  0  0  0  0  0  0  0
   -5.5860   17.6370  -32.4090 C   0  0  0  0  0  0  0  0  0  0  0  0
   -6.3700   18.1260  -31.2230 C   0  0  0  0  0  0  0  0  0  0  0  0
   -7.7770   18.2850  -31.5950 N   0  0  0  0  0  0  0  0  0  0  0  0
   -7.9620   19.6810  -32.6150 S   0  0  0  0  0  0  0  0  0  0  0  0
   -7.1610   19.4840  -33.8710 O   0  0  0  0  0  0  0  0  0  0  0  0
   -9.4090   19.8420  -32.9940 O   0  0  0  0  0  0  0  0  0  0  0  0
   -7.3850   21.1250  -31.7870 C   0  0  0  0  0  0  0  0  0  0  0  0
   -8.1940   21.7650  -30.8180 C   0  0  0  0  0  0  0  0  0  0  0  0
   -7.7280   22.9030  -30.1400 C   0  0  0  0  0  0  0  0  0  0  0  0
   -6.4540   23.3730  -30.4470 C   0  0  0  0  0  0  0  0  0  0  0  0
   -5.6540   22.7510  -31.3870 C   0  0  0  0  0  0  0  0  0  0  0  0
   -6.0970   21.6210  -32.0700 C   0  0  0  0  0  0  0  0  0  0  0  0
   -4.3800   23.3840  -31.5480 N   0  0  0  0  0  0  0  0  0  0  0  0
   -4.4370   24.4730  -30.6230 C   0  0  0  0  0  0  0  0  0  0  0  0
   -3.4970   25.2920  -30.4540 O   0  0  0  0  0  0  0  0  0  0  0  0
   -5.7110   24.4970  -29.9210 C   0  0  0  0  0  0  0  0  0  0  0  0
   -6.0840   25.3180  -29.0440 O   0  0  0  0  0  0  0  0  0  0  0  0
   -4.5270   18.4020  -32.9210 C   0  0  0  0  0  0  0  0  0  0  0  0
   -3.8200   17.9640  -34.0460 C   0  0  0  0  0  0  0  0  0  0  0  0
   -2.0680   15.2566  -34.7105 H   0  0  0  0  0  0  0  0  0  0  0  0
   -2.5448   14.4934  -36.2651 H   0  0  0  0  0  0  0  0  0  0  0  0
   -1.5006   15.9550  -36.2651 H   0  0  0  0  0  0  0  0  0  0  0  0
   -5.5255   15.0655  -34.6669 H   0  0  0  0  0  0  0  0  0  0  0  0
   -6.7888   15.8477  -32.6667 H   0  0  0  0  0  0  0  0  0  0  0  0
   -6.2882   17.3961  -30.4041 H   0  0  0  0  0  0  0  0  0  0  0  0
   -5.9677   19.0955  -30.8942 H   0  0  0  0  0  0  0  0  0  0  0  0
   -8.0580   17.4550  -32.1670 H   0  0  0  0  0  0  0  0  0  0  0  0
   -9.1952   21.3681  -30.5943 H   0  0  0  0  0  0  0  0  0  0  0  0
   -8.3516   23.4085  -29.3880 H   0  0  0  0  0  0  0  0  0  0  0  0
   -5.4553   21.1265  -32.8141 H   0  0  0  0  0  0  0  0  0  0  0  0
   -4.2515   19.3500  -32.4358 H   0  0  0  0  0  0  0  0  0  0  0  0
   -2.9852   18.5648  -34.4361 H   0  0  0  0  0  0  0  0  0  0  0  0
  1  2  1  0
  2  3  1  0
  3  4  2  0
  4  5  1  0
  5  6  2  0
  6  7  1  0
  7  8  1  0
  8  9  1  0
  9 10  2  0
  9 11  2  0
  9 12  1  0
 12 13  2  0
 13 14  1  0
 14 15  2  0
 15 16  1  0
 16 17  2  0
 16 18  1  0
 18 19  1  0
 19 20  2  0
 19 21  1  0
 21 22  2  0
  6 23  1  0
 23 24  2  0
 24  3  1  0
 17 12  1  0
 21 15  1  0
  1 25  1  0
  1 26  1  0
  1 27  1  0
  4 28  1  0
  5 29  1  0
  7 30  1  0
  7 31  1  0
  8 32  1  0
 13 33  1  0
 14 34  1  0
 17 35  1  0
 23 36  1  0
 24 37  1  0
M  CHG  1  18  -1
M  END
>  <UniqueID>  (26) 
25

>  <SMILES>  (26) 
COc1ccc(CNS(=O)(=O)c2ccc3c(c2)[N-]C(=O)C3=O)cc1

>  <Energy>  (26) 
66.14683888180858

>  <Genealogy>  (26) 
COc1ccc(CNS(=O)(=O)c2ccc3c(c2)[N-]C(=O)C3=O)cc1 (protonated)
COc1ccc(CNS(=O)(=O)c2ccc3c(c2)[N-]C(=O)C3=O)cc1 (3D coordinates assigned)
COc1ccc(CNS(=O)(=O)c2ccc3c(c2)[N-]C(=O)C3=O)cc1 (nonaromatic ring conformer: 66.14683888180858 kcal/mol)

>  <smiles>  (26) 
COc1ccc(CNS(=O)(=O)c2ccc3c(c2)NC(=O)C3=O)cc1

>  <score_type>  (26) 
oracle

>  <origin>  (26) 
adgpu

>  <m_score__min__energy>  (26) 
-10.130000000000001

>  <m_primary>  (26) 
energy

$$$$
26:0
     RDKit          3D

 45 47  0  0  0  0  0  0  0  0999 V2000
   -8.9690   21.4170  -30.4580 O   0  0  0  0  0  0  0  0  0  0  0  0
   -8.4610   22.0760  -31.7090 S   0  0  0  0  0  0  0  0  0  0  0  0
   -9.5440   22.9510  -32.2750 O   0  0  0  0  0  0  0  0  0  0  0  0
   -8.0510   20.8570  -32.8710 N   0  0  0  0  0  0  0  0  0  0  0  0
   -7.1930   19.7350  -32.6190 C   0  0  0  0  0  0  0  0  0  0  0  0
   -7.5650   18.8150  -31.6320 C   0  0  0  0  0  0  0  0  0  0  0  0
   -6.7510   17.7140  -31.3480 C   0  0  0  0  0  0  0  0  0  0  0  0
   -5.5570   17.5260  -32.0490 C   0  0  0  0  0  0  0  0  0  0  0  0
   -5.1720   18.4410  -33.0380 C   0  0  0  0  0  0  0  0  0  0  0  0
   -3.6800   18.2140  -33.9460 S   0  0  0  0  0  0  0  0  0  0  0  0
   -2.8110   17.2480  -33.1870 O   0  0  0  0  0  0  0  0  0  0  0  0
   -3.9810   17.6230  -35.2940 O   0  0  0  0  0  0  0  0  0  0  0  0
   -2.8310   19.7350  -34.1220 N   0  0  0  0  0  0  0  0  0  0  0  0
   -1.3690   19.5500  -34.2090 C   0  0  0  0  0  0  0  0  0  0  0  0
   -0.7310   19.1830  -32.8560 C   0  0  0  0  0  0  0  0  0  0  0  0
   -1.3380   19.9590  -31.6730 C   0  0  0  0  0  0  0  0  0  0  0  0
   -2.1530   21.1650  -32.1360 C   0  0  0  0  0  0  0  0  0  0  0  0
   -3.2650   20.7310  -33.1090 C   0  0  0  0  0  0  0  0  0  0  0  0
   -5.9950   19.5370  -33.3280 C   0  0  0  0  0  0  0  0  0  0  0  0
   -7.0310   23.0250  -31.3110 C   0  0  0  0  0  0  0  0  0  0  0  0
   -5.7800   22.6340  -31.8050 C   0  0  0  0  0  0  0  0  0  0  0  0
   -4.6440   23.3960  -31.5230 C   0  0  0  0  0  0  0  0  0  0  0  0
   -4.7490   24.5530  -30.7430 C   0  0  0  0  0  0  0  0  0  0  0  0
   -3.6100   25.3010  -30.4710 O   0  0  0  0  0  0  0  0  0  0  0  0
   -6.0010   24.9510  -30.2430 C   0  0  0  0  0  0  0  0  0  0  0  0
   -6.1350   26.1000  -29.4650 O   0  0  0  0  0  0  0  0  0  0  0  0
   -7.1360   24.1830  -30.5270 C   0  0  0  0  0  0  0  0  0  0  0  0
   -8.5034   18.9589  -31.0763 H   0  0  0  0  0  0  0  0  0  0  0  0
   -7.0511   16.9949  -30.5716 H   0  0  0  0  0  0  0  0  0  0  0  0
   -4.9186   16.6588  -31.8243 H   0  0  0  0  0  0  0  0  0  0  0  0
   -1.1592   18.7432  -34.9266 H   0  0  0  0  0  0  0  0  0  0  0  0
   -0.9332   20.5072  -34.5313 H   0  0  0  0  0  0  0  0  0  0  0  0
   -0.8764   18.1069  -32.6806 H   0  0  0  0  0  0  0  0  0  0  0  0
    0.3346   19.4503  -32.9120 H   0  0  0  0  0  0  0  0  0  0  0  0
   -1.9948   19.2836  -31.1052 H   0  0  0  0  0  0  0  0  0  0  0  0
   -0.5106   20.3280  -31.0491 H   0  0  0  0  0  0  0  0  0  0  0  0
   -2.6088   21.6502  -31.2603 H   0  0  0  0  0  0  0  0  0  0  0  0
   -1.4828   21.8657  -32.6556 H   0  0  0  0  0  0  0  0  0  0  0  0
   -4.0852   20.2917  -32.5222 H   0  0  0  0  0  0  0  0  0  0  0  0
   -3.5719   21.6314  -33.6613 H   0  0  0  0  0  0  0  0  0  0  0  0
   -5.7021   20.2472  -34.1153 H   0  0  0  0  0  0  0  0  0  0  0  0
   -5.6920   21.7241  -32.4169 H   0  0  0  0  0  0  0  0  0  0  0  0
   -3.6642   23.0858  -31.9151 H   0  0  0  0  0  0  0  0  0  0  0  0
   -5.3900   26.4340  -28.8660 H   0  0  0  0  0  0  0  0  0  0  0  0
   -8.1162   24.4895  -30.1329 H   0  0  0  0  0  0  0  0  0  0  0  0
  1  2  2  0
  2  3  2  0
  2  4  1  0
  4  5  1  0
  5  6  2  0
  6  7  1  0
  7  8  2  0
  8  9  1  0
  9 10  1  0
 10 11  2  0
 10 12  2  0
 10 13  1  0
 13 14  1  0
 14 15  1  0
 15 16  1  0
 16 17  1  0
 17 18  1  0
  9 19  2  0
  2 20  1  0
 20 21  2  0
 21 22  1  0
 22 23  2  0
 23 24  1  0
 23 25  1  0
 25 26  1  0
 25 27  2  0
 19  5  1  0
 27 20  1  0
 18 13  1  0
  6 28  1  0
  7 29  1  0
  8 30  1  0
 14 31  1  0
 14 32  1  0
 15 33  1  0
 15 34  1  0
 16 35  1  0
 16 36  1  0
 17 37  1  0
 17 38  1  0
 18 39  1  0
 18 40  1  0
 19 41  1  0
 21 42  1  0
 22 43  1  0
 26 44  1  0
 27 45  1  0
M  CHG  2   4  -1  24  -1
M  END
>  <UniqueID>  (27) 
26

>  <SMILES>  (27) 
O=S(=O)([N-]c1cccc(S(=O)(=O)N2CCCCC2)c1)c1ccc([O-])c(O)c1

>  <Energy>  (27) 
55.79261405282177

>  <Genealogy>  (27) 
O=S(=O)([N-]c1cccc(S(=O)(=O)N2CCCCC2)c1)c1ccc([O-])c(O)c1 (protonated)
O=S(=O)([N-]c1cccc(S(=O)(=O)N2CCCCC2)c1)c1ccc([O-])c(O)c1 (3D coordinates assigned)
O=S(=O)([N-]c1cccc(S(=O)(=O)N2CCCCC2)c1)c1ccc([O-])c(O)c1 (nonaromatic ring conformer: 55.79261405282177 kcal/mol)

>  <smiles>  (27) 
O=S(=O)(Nc1cccc(S(=O)(=O)N2CCCCC2)c1)c1ccc(O)c(O)c1

>  <score_type>  (27) 
oracle

>  <origin>  (27) 
adgpu

>  <m_score__min__energy>  (27) 
-12.220000000000001

>  <m_primary>  (27) 
energy

$$$$
27:0
     RDKit          3D

 48 51  0  0  0  0  0  0  0  0999 V2000
   -6.6050   14.8920  -34.2050 C   0  0  0  0  0  0  0  0  0  0  0  0
   -5.8220   16.1630  -34.1310 C   0  0  0  0  0  0  0  0  0  0  0  0
   -6.3560   17.2870  -33.4870 C   0  0  0  0  0  0  0  0  0  0  0  0
   -5.6190   18.4840  -33.4460 C   0  0  0  0  0  0  0  0  0  0  0  0
   -6.1610   19.6890  -32.7760 C   0  0  0  0  0  0  0  0  0  0  0  0
   -7.3840   19.7890  -32.1110 C   0  0  0  0  0  0  0  0  0  0  0  0
   -7.6220   21.0570  -31.5640 C   0  0  0  0  0  0  0  0  0  0  0  0
   -6.5880   21.9520  -31.8010 C   0  0  0  0  0  0  0  0  0  0  0  0
   -6.5470   23.6290  -31.2920 S   0  0  0  0  0  0  0  0  0  0  0  0
   -7.9490   24.1700  -31.2730 O   0  0  0  0  0  0  0  0  0  0  0  0
   -5.7240   24.4420  -32.2550 O   0  0  0  0  0  0  0  0  0  0  0  0
   -5.8640   23.7600  -29.7030 N   0  0  0  0  0  0  0  0  0  0  0  0
   -4.4770   23.5070  -29.4130 C   0  0  0  0  0  0  0  0  0  0  0  0
   -4.0750   22.3420  -28.7340 C   0  0  0  0  0  0  0  0  0  0  0  0
   -2.7200   22.1080  -28.4500 C   0  0  0  0  0  0  0  0  0  0  0  0
   -1.7530   23.0620  -28.8200 C   0  0  0  0  0  0  0  0  0  0  0  0
   -2.1530   24.2190  -29.5020 C   0  0  0  0  0  0  0  0  0  0  0  0
   -3.5020   24.4470  -29.7900 C   0  0  0  0  0  0  0  0  0  0  0  0
   -3.8640   25.6050  -30.4650 O   0  0  0  0  0  0  0  0  0  0  0  0
   -0.2800   22.8150  -28.5860 C   0  0  0  0  0  0  0  0  0  0  0  0
   -0.0200   21.8190  -27.5280 N   0  0  0  0  0  0  0  0  0  0  0  0
   -0.1720   22.3950  -26.1800 C   0  0  0  0  0  0  0  0  0  0  0  0
   -0.8300   20.5990  -27.7220 C   0  0  0  0  0  0  0  0  0  0  0  0
   -2.3390   20.8800  -27.6650 C   0  0  0  0  0  0  0  0  0  0  0  0
   -5.3800   21.1840  -32.6760 S   0  0  0  0  0  0  0  0  0  0  0  0
   -4.3590   18.5250  -34.0680 C   0  0  0  0  0  0  0  0  0  0  0  0
   -3.8610   17.3820  -34.6950 C   0  0  0  0  0  0  0  0  0  0  0  0
   -4.5950   16.2390  -34.7150 N   0  0  0  0  0  0  0  0  0  0  0  0
   -6.8240   14.5365  -33.1873 H   0  0  0  0  0  0  0  0  0  0  0  0
   -7.5483   15.0731  -34.7411 H   0  0  0  0  0  0  0  0  0  0  0  0
   -6.0189   14.1310  -34.7411 H   0  0  0  0  0  0  0  0  0  0  0  0
   -7.3482   17.2333  -33.0152 H   0  0  0  0  0  0  0  0  0  0  0  0
   -8.0932   18.9526  -32.0245 H   0  0  0  0  0  0  0  0  0  0  0  0
   -8.5333   21.3160  -31.0051 H   0  0  0  0  0  0  0  0  0  0  0  0
   -6.4790   24.1670  -28.9620 H   0  0  0  0  0  0  0  0  0  0  0  0
   -4.8309   21.6062  -28.4221 H   0  0  0  0  0  0  0  0  0  0  0  0
   -1.3978   24.9554  -29.8140 H   0  0  0  0  0  0  0  0  0  0  0  0
    0.1676   22.4543  -29.5238 H   0  0  0  0  0  0  0  0  0  0  0  0
    0.1635   23.7662  -28.2566 H   0  0  0  0  0  0  0  0  0  0  0  0
    0.0322   21.6211  -25.4254 H   0  0  0  0  0  0  0  0  0  0  0  0
    0.5376   23.2261  -26.0542 H   0  0  0  0  0  0  0  0  0  0  0  0
   -1.1993   22.7677  -26.0542 H   0  0  0  0  0  0  0  0  0  0  0  0
   -0.5883   20.1676  -28.7046 H   0  0  0  0  0  0  0  0  0  0  0  0
   -0.5883   19.9037  -26.9047 H   0  0  0  0  0  0  0  0  0  0  0  0
   -2.8763   20.0141  -28.0792 H   0  0  0  0  0  0  0  0  0  0  0  0
   -2.6102   21.0543  -26.6133 H   0  0  0  0  0  0  0  0  0  0  0  0
   -3.7687   19.4532  -34.0605 H   0  0  0  0  0  0  0  0  0  0  0  0
   -2.8713   17.4066  -35.1744 H   0  0  0  0  0  0  0  0  0  0  0  0
  1  2  1  0
  2  3  2  0
  3  4  1  0
  4  5  1  0
  5  6  2  0
  6  7  1  0
  7  8  2  0
  8  9  1  0
  9 10  2  0
  9 11  2  0
  9 12  1  0
 12 13  1  0
 13 14  2  0
 14 15  1  0
 15 16  2  0
 16 17  1  0
 17 18  2  0
 18 19  1  0
 16 20  1  0
 20 21  1  0
 21 22  1  0
 21 23  1  0
 23 24  1  0
  8 25  1  0
  4 26  2  0
 26 27  1  0
 27 28  2  0
 28  2  1  0
 25  5  1  0
 18 13  1  0
 24 15  1  0
  1 29  1  0
  1 30  1  0
  1 31  1  0
  3 32  1  0
  6 33  1  0
  7 34  1  0
 12 35  1  0
 14 36  1  0
 17 37  1  0
 20 38  1  0
 20 39  1  0
 22 40  1  0
 22 41  1  0
 22 42  1  0
 23 43  1  0
 23 44  1  0
 24 45  1  0
 24 46  1  0
 26 47  1  0
 27 48  1  0
M  CHG  1  19  -1
M  END
>  <UniqueID>  (28) 
27

>  <SMILES>  (28) 
Cc1cc(-c2ccc(S(=O)(=O)Nc3cc4c(cc3[O-])CN(C)CC4)s2)ccn1

>  <Energy>  (28) 
88.49085860839044

>  <Genealogy>  (28) 
Cc1cc(-c2ccc(S(=O)(=O)Nc3cc4c(cc3[O-])CN(C)CC4)s2)ccn1 (protonated)
Cc1cc(-c2ccc(S(=O)(=O)Nc3cc4c(cc3[O-])CN(C)CC4)s2)ccn1 (3D coordinates assigned)
Cc1cc(-c2ccc(S(=O)(=O)Nc3cc4c(cc3[O-])CN(C)CC4)s2)ccn1 (nonaromatic ring conformer: 88.49085860839044 kcal/mol)

>  <smiles>  (28) 
Cc1cc(-c2ccc(S(=O)(=O)Nc3cc4c(cc3O)CN(C)CC4)s2)ccn1

>  <score_type>  (28) 
oracle

>  <origin>  (28) 
adgpu

>  <m_score__min__energy>  (28) 
-13.33

>  <m_primary>  (28) 
energy

$$$$
28:0
     RDKit          3D

 57 60  0  0  0  0  0  0  0  0999 V2000
   -3.8690   25.2570  -30.8660 O   0  0  0  0  0  0  0  0  0  0  0  0
   -3.6080   24.2810  -30.1130 C   0  0  0  0  0  0  0  0  0  0  0  0
   -3.6490   24.4870  -28.6940 N   0  0  0  0  0  0  0  0  0  0  0  0
   -2.5360   24.7030  -27.8110 C   0  0  0  0  0  0  0  0  0  0  0  0
   -2.2800   23.8710  -26.7050 C   0  0  0  0  0  0  0  0  0  0  0  0
   -1.1380   24.0690  -25.9220 C   0  0  0  0  0  0  0  0  0  0  0  0
   -0.2120   25.0690  -26.2590 C   0  0  0  0  0  0  0  0  0  0  0  0
    1.2950   25.2290  -25.3520 S   0  0  0  0  0  0  0  0  0  0  0  0
    1.8670   23.8580  -25.1160 O   0  0  0  0  0  0  0  0  0  0  0  0
    2.2830   25.9950  -26.1910 O   0  0  0  0  0  0  0  0  0  0  0  0
    1.0910   26.0210  -23.8000 N   0  0  0  0  0  0  0  0  0  0  0  0
    2.0550   27.1360  -23.5910 C   0  0  0  0  0  0  0  0  0  0  0  0
    1.3800   28.5140  -23.5920 C   0  0  0  0  0  0  0  0  0  0  0  0
    0.3940   28.5540  -24.5950 O   0  0  0  0  0  0  0  0  0  0  0  0
   -0.7100   27.7510  -24.2240 C   0  0  0  0  0  0  0  0  0  0  0  0
   -0.3220   26.4000  -23.5690 C   0  0  0  0  0  0  0  0  0  0  0  0
   -0.4570   25.8860  -27.3700 C   0  0  0  0  0  0  0  0  0  0  0  0
   -1.6190   25.7130  -28.1290 C   0  0  0  0  0  0  0  0  0  0  0  0
   -3.3070   22.9620  -30.7160 C   0  0  0  0  0  0  0  0  0  0  0  0
   -1.9870   22.4760  -30.7160 C   0  0  0  0  0  0  0  0  0  0  0  0
   -1.6920   21.2300  -31.2740 C   0  0  0  0  0  0  0  0  0  0  0  0
   -2.7060   20.4630  -31.8500 C   0  0  0  0  0  0  0  0  0  0  0  0
   -4.0210   20.9400  -31.8750 C   0  0  0  0  0  0  0  0  0  0  0  0
   -5.2830   19.9490  -32.5980 S   0  0  0  0  0  0  0  0  0  0  0  0
   -5.4600   20.3170  -34.0480 O   0  0  0  0  0  0  0  0  0  0  0  0
   -4.8750   18.5030  -32.5120 O   0  0  0  0  0  0  0  0  0  0  0  0
   -6.7760   20.1900  -31.7220 N   0  0  0  0  0  0  0  0  0  0  0  0
   -7.7190   19.1000  -31.9740 C   0  0  0  0  0  0  0  0  0  0  0  0
   -9.1150   19.6830  -31.8110 C   0  0  0  0  0  0  0  0  0  0  0  0
   -8.9450   21.1890  -31.9490 C   0  0  0  0  0  0  0  0  0  0  0  0
   -7.4540   21.4120  -32.1580 C   0  0  0  0  0  0  0  0  0  0  0  0
   -4.3220   22.1870  -31.3060 C   0  0  0  0  0  0  0  0  0  0  0  0
   -2.9813   23.0612  -26.4552 H   0  0  0  0  0  0  0  0  0  0  0  0
   -0.9646   23.4381  -25.0378 H   0  0  0  0  0  0  0  0  0  0  0  0
    1.3210   25.2820  -23.0930 H   0  0  0  0  0  0  0  0  0  0  0  0
    2.5558   26.9907  -22.6224 H   0  0  0  0  0  0  0  0  0  0  0  0
    2.7697   27.1168  -24.4270 H   0  0  0  0  0  0  0  0  0  0  0  0
    0.9135   28.6942  -22.6122 H   0  0  0  0  0  0  0  0  0  0  0  0
    2.1337   29.2907  -23.7884 H   0  0  0  0  0  0  0  0  0  0  0  0
   -1.3237   28.3177  -23.5083 H   0  0  0  0  0  0  0  0  0  0  0  0
   -1.2505   27.5091  -25.1510 H   0  0  0  0  0  0  0  0  0  0  0  0
   -0.4900   26.4768  -22.4846 H   0  0  0  0  0  0  0  0  0  0  0  0
   -0.9475   25.6223  -24.0315 H   0  0  0  0  0  0  0  0  0  0  0  0
    0.2671   26.6665  -27.6466 H   0  0  0  0  0  0  0  0  0  0  0  0
   -1.8147   26.3767  -28.9841 H   0  0  0  0  0  0  0  0  0  0  0  0
   -1.1819   23.0811  -30.2737 H   0  0  0  0  0  0  0  0  0  0  0  0
   -0.6589   20.8526  -31.2595 H   0  0  0  0  0  0  0  0  0  0  0  0
   -2.4705   19.4807  -32.2855 H   0  0  0  0  0  0  0  0  0  0  0  0
   -7.5867   18.7128  -32.9951 H   0  0  0  0  0  0  0  0  0  0  0  0
   -7.5548   18.2656  -31.2763 H   0  0  0  0  0  0  0  0  0  0  0  0
   -9.7860   19.2985  -32.5933 H   0  0  0  0  0  0  0  0  0  0  0  0
   -9.5612   19.4095  -30.8435 H   0  0  0  0  0  0  0  0  0  0  0  0
   -9.5145   21.5627  -32.8127 H   0  0  0  0  0  0  0  0  0  0  0  0
   -9.3178   21.7248  -31.0636 H   0  0  0  0  0  0  0  0  0  0  0  0
   -7.2453   21.6016  -33.2212 H   0  0  0  0  0  0  0  0  0  0  0  0
   -7.1022   22.2830  -31.5857 H   0  0  0  0  0  0  0  0  0  0  0  0
   -5.3566   22.5603  -31.3214 H   0  0  0  0  0  0  0  0  0  0  0  0
  1  2  2  0
  2  3  1  0
  3  4  1  0
  4  5  2  0
  5  6  1  0
  6  7  2  0
  7  8  1  0
  8  9  2  0
  8 10  2  0
  8 11  1  0
 11 12  1  0
 12 13  1  0
 13 14  1  0
 14 15  1  0
 15 16  1  0
  7 17  1  0
 17 18  2  0
  2 19  1  0
 19 20  2  0
 20 21  1  0
 21 22  2  0
 22 23  1  0
 23 24  1  0
 24 25  2  0
 24 26  2  0
 24 27  1  0
 27 28  1  0
 28 29  1  0
 29 30  1  0
 30 31  1  0
 23 32  2  0
 18  4  1  0
 32 19  1  0
 16 11  1  0
 31 27  1  0
  5 33  1  0
  6 34  1  0
 11 35  1  0
 12 36  1  0
 12 37  1  0
 13 38  1  0
 13 39  1  0
 15 40  1  0
 15 41  1  0
 16 42  1  0
 16 43  1  0
 17 44  1  0
 18 45  1  0
 20 46  1  0
 21 47  1  0
 22 48  1  0
 28 49  1  0
 28 50  1  0
 29 51  1  0
 29 52  1  0
 30 53  1  0
 30 54  1  0
 31 55  1  0
 31 56  1  0
 32 57  1  0
M  CHG  2   3  -1  11   1
M  END
>  <UniqueID>  (29) 
28

>  <SMILES>  (29) 
O=C([N-]c1ccc(S(=O)(=O)[NH+]2CCOCC2)cc1)c1cccc(S(=O)(=O)N2CCCC2)c1

>  <Energy>  (29) 
76.00718130190212

>  <Genealogy>  (29) 
O=C([N-]c1ccc(S(=O)(=O)[NH+]2CCOCC2)cc1)c1cccc(S(=O)(=O)N2CCCC2)c1 (protonated)
O=C([N-]c1ccc(S(=O)(=O)[NH+]2CCOCC2)cc1)c1cccc(S(=O)(=O)N2CCCC2)c1 (3D coordinates assigned)
O=C([N-]c1ccc(S(=O)(=O)[NH+]2CCOCC2)cc1)c1cccc(S(=O)(=O)N2CCCC2)c1 (nonaromatic ring conformer: 76.00718130190212 kcal/mol)

>  <smiles>  (29) 
O=C(Nc1ccc(S(=O)(=O)N2CCOCC2)cc1)c1cccc(S(=O)(=O)N2CCCC2)c1

>  <score_type>  (29) 
oracle

>  <origin>  (29) 
adgpu

>  <m_score__min__energy>  (29) 
-12.029999999999999

>  <m_primary>  (29) 
energy

$$$$
29:0
     RDKit          3D

 54 57  0  0  0  0  0  0  0  0999 V2000
   -3.0640   19.0420  -26.4300 N   0  0  0  0  0  0  0  0  0  0  0  0
   -2.6700   19.7800  -27.2310 C   0  0  0  0  0  0  0  0  0  0  0  0
   -2.1820   20.7030  -28.2230 C   0  0  0  0  0  0  0  0  0  0  0  0
   -1.3880   20.2450  -29.2820 C   0  0  0  0  0  0  0  0  0  0  0  0
   -0.8970   21.1490  -30.2300 C   0  0  0  0  0  0  0  0  0  0  0  0
   -1.2020   22.5090  -30.1270 C   0  0  0  0  0  0  0  0  0  0  0  0
   -2.0030   22.9730  -29.0710 C   0  0  0  0  0  0  0  0  0  0  0  0
   -2.3380   24.6930  -28.9010 S   0  0  0  0  0  0  0  0  0  0  0  0
   -2.8720   24.9810  -27.5260 O   0  0  0  0  0  0  0  0  0  0  0  0
   -1.0510   25.4490  -29.0760 O   0  0  0  0  0  0  0  0  0  0  0  0
   -3.4800   25.2480  -30.0820 N   0  0  0  0  0  0  0  0  0  0  0  0
   -4.7210   24.5880  -30.3470 C   0  0  0  0  0  0  0  0  0  0  0  0
   -5.9280   25.2970  -30.1680 C   0  0  0  0  0  0  0  0  0  0  0  0
   -7.1660   24.6840  -30.4320 C   0  0  0  0  0  0  0  0  0  0  0  0
   -7.1770   23.3680  -30.8900 C   0  0  0  0  0  0  0  0  0  0  0  0
   -8.2980   22.6750  -31.2040 N   0  0  0  0  0  0  0  0  0  0  0  0
   -7.9870   21.4330  -31.6460 C   0  0  0  0  0  0  0  0  0  0  0  0
   -9.2150   20.2580  -32.1960 S   0  0  0  0  0  0  0  0  0  0  0  0
   -8.3440   18.7750  -31.5680 C   0  0  0  0  0  0  0  0  0  0  0  0
   -7.9550   17.7990  -32.6900 C   0  0  0  0  0  0  0  0  0  0  0  0
   -6.6610   18.1410  -33.2830 N   0  0  0  0  0  0  0  0  0  0  0  0
   -6.0190   17.2800  -34.2270 C   0  0  0  0  0  0  0  0  0  0  0  0
   -6.5650   16.1950  -34.5660 O   0  0  0  0  0  0  0  0  0  0  0  0
   -4.7750   17.6480  -34.7540 O   0  0  0  0  0  0  0  0  0  0  0  0
   -3.5600   17.5980  -34.0120 C   0  0  0  0  0  0  0  0  0  0  0  0
   -3.0250   18.9860  -33.7870 C   0  0  0  0  0  0  0  0  0  0  0  0
   -1.6500   19.2400  -33.9210 C   0  0  0  0  0  0  0  0  0  0  0  0
   -1.1440   20.5240  -33.6860 C   0  0  0  0  0  0  0  0  0  0  0  0
   -2.0050   21.5590  -33.3070 C   0  0  0  0  0  0  0  0  0  0  0  0
   -3.3750   21.3130  -33.1680 C   0  0  0  0  0  0  0  0  0  0  0  0
   -3.8860   20.0310  -33.4060 C   0  0  0  0  0  0  0  0  0  0  0  0
   -6.3200   21.1440  -31.6600 S   0  0  0  0  0  0  0  0  0  0  0  0
   -5.9890   22.6820  -31.0800 C   0  0  0  0  0  0  0  0  0  0  0  0
   -4.7520   23.2650  -30.8300 C   0  0  0  0  0  0  0  0  0  0  0  0
   -2.4890   22.0660  -28.1200 C   0  0  0  0  0  0  0  0  0  0  0  0
   -1.1505   19.1744  -29.3683 H   0  0  0  0  0  0  0  0  0  0  0  0
   -0.2694   20.7886  -31.0584 H   0  0  0  0  0  0  0  0  0  0  0  0
   -0.8141   23.2170  -30.8742 H   0  0  0  0  0  0  0  0  0  0  0  0
   -5.9003   26.3396  -29.8185 H   0  0  0  0  0  0  0  0  0  0  0  0
   -8.1072   25.2327  -30.2799 H   0  0  0  0  0  0  0  0  0  0  0  0
   -7.4295   19.0971  -31.0484 H   0  0  0  0  0  0  0  0  0  0  0  0
   -9.0309   18.2470  -30.8902 H   0  0  0  0  0  0  0  0  0  0  0  0
   -7.8985   16.7823  -32.2739 H   0  0  0  0  0  0  0  0  0  0  0  0
   -8.7198   17.8615  -33.4782 H   0  0  0  0  0  0  0  0  0  0  0  0
   -6.1640   19.0200  -33.0110 H   0  0  0  0  0  0  0  0  0  0  0  0
   -3.7488   17.1203  -33.0393 H   0  0  0  0  0  0  0  0  0  0  0  0
   -2.8184   17.0177  -34.5807 H   0  0  0  0  0  0  0  0  0  0  0  0
   -0.9683   18.4271  -34.2116 H   0  0  0  0  0  0  0  0  0  0  0  0
   -0.0674   20.7192  -33.7996 H   0  0  0  0  0  0  0  0  0  0  0  0
   -1.6050   22.5661  -33.1183 H   0  0  0  0  0  0  0  0  0  0  0  0
   -4.0519   22.1277  -32.8713 H   0  0  0  0  0  0  0  0  0  0  0  0
   -4.9637   19.8407  -33.2947 H   0  0  0  0  0  0  0  0  0  0  0  0
   -3.8203   22.7070  -31.0050 H   0  0  0  0  0  0  0  0  0  0  0  0
   -3.1140   22.4256  -27.2893 H   0  0  0  0  0  0  0  0  0  0  0  0
  1  2  3  0
  2  3  1  0
  3  4  2  0
  4  5  1  0
  5  6  2  0
  6  7  1  0
  7  8  1  0
  8  9  2  0
  8 10  2  0
  8 11  1  0
 11 12  1  0
 12 13  2  0
 13 14  1  0
 14 15  2  0
 15 16  1  0
 16 17  2  0
 17 18  1  0
 18 19  1  0
 19 20  1  0
 20 21  1  0
 21 22  1  0
 22 23  2  0
 22 24  1  0
 24 25  1  0
 25 26  1  0
 26 27  2  0
 27 28  1  0
 28 29  2  0
 29 30  1  0
 30 31  2  0
 17 32  1  0
 32 33  1  0
 33 34  2  0
  7 35  2  0
 35  3  1  0
 34 12  1  0
 33 15  1  0
 31 26  1  0
  4 36  1  0
  5 37  1  0
  6 38  1  0
 13 39  1  0
 14 40  1  0
 19 41  1  0
 19 42  1  0
 20 43  1  0
 20 44  1  0
 21 45  1  0
 25 46  1  0
 25 47  1  0
 27 48  1  0
 28 49  1  0
 29 50  1  0
 30 51  1  0
 31 52  1  0
 34 53  1  0
 35 54  1  0
M  CHG  1  11  -1
M  END
>  <UniqueID>  (30) 
29

>  <SMILES>  (30) 
N#Cc1cccc(S(=O)(=O)[N-]c2ccc3nc(SCCNC(=O)OCc4ccccc4)sc3c2)c1

>  <Energy>  (30) 
88.79789687664176

>  <Genealogy>  (30) 
N#Cc1cccc(S(=O)(=O)[N-]c2ccc3nc(SCCNC(=O)OCc4ccccc4)sc3c2)c1 (protonated)
N#Cc1cccc(S(=O)(=O)[N-]c2ccc3nc(SCCNC(=O)OCc4ccccc4)sc3c2)c1 (3D coordinates assigned)
N#Cc1cccc(S(=O)(=O)[N-]c2ccc3nc(SCCNC(=O)OCc4ccccc4)sc3c2)c1 (optimized conformer: 88.79789687664176 kcal/mol)

>  <smiles>  (30) 
N#Cc1cccc(S(=O)(=O)Nc2ccc3nc(SCCNC(=O)OCc4ccccc4)sc3c2)c1

>  <score_type>  (30) 
oracle

>  <origin>  (30) 
adgpu

>  <m_score__min__energy>  (30) 
-12.19

>  <m_primary>  (30) 
energy

$$$$
30:0
     RDKit          3D

 57 61  0  0  0  0  0  0  0  0999 V2000
   -7.8950   20.3150  -33.4720 O   0  0  0  0  0  0  0  0  0  0  0  0
   -7.1390   20.0270  -32.2040 S   0  0  0  0  0  0  0  0  0  0  0  0
   -7.4720   21.0920  -31.1950 O   0  0  0  0  0  0  0  0  0  0  0  0
   -5.4050   20.0710  -32.5110 C   0  0  0  0  0  0  0  0  0  0  0  0
   -4.8490   19.3630  -33.5820 C   0  0  0  0  0  0  0  0  0  0  0  0
   -3.4690   19.3830  -33.7950 C   0  0  0  0  0  0  0  0  0  0  0  0
   -2.6260   20.1150  -32.9460 C   0  0  0  0  0  0  0  0  0  0  0  0
   -1.2090   20.1120  -33.1880 N   0  0  0  0  0  0  0  0  0  0  0  0
   -0.6470   20.7180  -34.3980 C   0  0  0  0  0  0  0  0  0  0  0  0
    0.7060   21.3520  -34.0640 C   0  0  0  0  0  0  0  0  0  0  0  0
    1.5560   20.4150  -33.4270 O   0  0  0  0  0  0  0  0  0  0  0  0
    1.0140   20.0480  -32.1710 C   0  0  0  0  0  0  0  0  0  0  0  0
   -0.3190   19.3120  -32.3450 C   0  0  0  0  0  0  0  0  0  0  0  0
   -3.1860   20.8550  -31.8850 C   0  0  0  0  0  0  0  0  0  0  0  0
   -2.3350   21.5980  -30.9970 N   0  0  0  0  0  0  0  0  0  0  0  0
   -2.5660   22.7680  -30.4640 C   0  0  0  0  0  0  0  0  0  0  0  0
   -3.6950   23.5370  -30.8160 C   0  0  0  0  0  0  0  0  0  0  0  0
   -3.8950   24.7890  -30.2340 C   0  0  0  0  0  0  0  0  0  0  0  0
   -3.0010   25.2800  -29.3400 N   0  0  0  0  0  0  0  0  0  0  0  0
   -1.8910   24.5840  -28.9810 C   0  0  0  0  0  0  0  0  0  0  0  0
   -0.9950   25.1370  -28.0600 C   0  0  0  0  0  0  0  0  0  0  0  0
    0.1520   24.4340  -27.6840 C   0  0  0  0  0  0  0  0  0  0  0  0
    1.2730   25.1340  -26.5290 Cl  0  0  0  0  0  0  0  0  0  0  0  0
    0.4080   23.1720  -28.2270 C   0  0  0  0  0  0  0  0  0  0  0  0
   -0.4800   22.6060  -29.1470 C   0  0  0  0  0  0  0  0  0  0  0  0
   -1.6400   23.3050  -29.5400 C   0  0  0  0  0  0  0  0  0  0  0  0
   -4.5710   20.8040  -31.6590 C   0  0  0  0  0  0  0  0  0  0  0  0
   -7.5900   18.4560  -31.5770 N   0  0  0  0  0  0  0  0  0  0  0  0
   -6.4530   17.8020  -30.9160 C   0  0  0  0  0  0  0  0  0  0  0  0
   -5.7670   16.9170  -31.9450 C   0  0  0  0  0  0  0  0  0  0  0  0
   -6.7680   16.7520  -33.0770 C   0  0  0  0  0  0  0  0  0  0  0  0
   -7.9940   17.5520  -32.6600 C   0  0  0  0  0  0  0  0  0  0  0  0
   -5.5003   18.7893  -34.2578 H   0  0  0  0  0  0  0  0  0  0  0  0
   -3.0392   18.8195  -34.6363 H   0  0  0  0  0  0  0  0  0  0  0  0
   -0.5102   19.9438  -35.1674 H   0  0  0  0  0  0  0  0  0  0  0  0
   -1.3328   21.4903  -34.7763 H   0  0  0  0  0  0  0  0  0  0  0  0
    1.1820   21.6972  -34.9936 H   0  0  0  0  0  0  0  0  0  0  0  0
    0.5402   22.1989  -33.3819 H   0  0  0  0  0  0  0  0  0  0  0  0
    1.7244   19.3885  -31.6510 H   0  0  0  0  0  0  0  0  0  0  0  0
    0.8374   20.9613  -31.5839 H   0  0  0  0  0  0  0  0  0  0  0  0
   -0.1404   18.3368  -32.8215 H   0  0  0  0  0  0  0  0  0  0  0  0
   -0.7851   19.1579  -31.3606 H   0  0  0  0  0  0  0  0  0  0  0  0
   -4.4176   23.1495  -31.5493 H   0  0  0  0  0  0  0  0  0  0  0  0
   -4.7825   25.3812  -30.5016 H   0  0  0  0  0  0  0  0  0  0  0  0
   -1.1945   26.1296  -27.6301 H   0  0  0  0  0  0  0  0  0  0  0  0
    1.3124   22.6212  -27.9292 H   0  0  0  0  0  0  0  0  0  0  0  0
   -0.2727   21.6104  -29.5663 H   0  0  0  0  0  0  0  0  0  0  0  0
   -5.0043   21.3449  -30.8048 H   0  0  0  0  0  0  0  0  0  0  0  0
   -8.3780   18.5850  -30.9000 H   0  0  0  0  0  0  0  0  0  0  0  0
   -5.7483   18.5607  -30.5449 H   0  0  0  0  0  0  0  0  0  0  0  0
   -6.7973   17.2025  -30.0604 H   0  0  0  0  0  0  0  0  0  0  0  0
   -4.8480   17.3972  -32.3124 H   0  0  0  0  0  0  0  0  0  0  0  0
   -5.4747   15.9470  -31.5164 H   0  0  0  0  0  0  0  0  0  0  0  0
   -6.3535   17.1465  -34.0165 H   0  0  0  0  0  0  0  0  0  0  0  0
   -7.0130   15.6941  -33.2524 H   0  0  0  0  0  0  0  0  0  0  0  0
   -8.3693   18.1349  -33.5141 H   0  0  0  0  0  0  0  0  0  0  0  0
   -8.7959   16.8794  -32.3213 H   0  0  0  0  0  0  0  0  0  0  0  0
  1  2  2  0
  2  3  2  0
  2  4  1  0
  4  5  2  0
  5  6  1  0
  6  7  2  0
  7  8  1  0
  8  9  1  0
  9 10  1  0
 10 11  1  0
 11 12  1  0
 12 13  1  0
  7 14  1  0
 14 15  1  0
 15 16  2  3
 16 17  1  0
 17 18  2  0
 18 19  1  0
 19 20  1  0
 20 21  2  0
 21 22  1  0
 22 23  1  0
 22 24  2  0
 24 25  1  0
 25 26  2  0
 14 27  2  0
  2 28  1  0
 28 29  1  0
 29 30  1  0
 30 31  1  0
 31 32  1  0
 27  4  1  0
 32 28  1  0
 13  8  1  0
 26 16  1  0
 26 20  1  0
  5 33  1  0
  6 34  1  0
  9 35  1  0
  9 36  1  0
 10 37  1  0
 10 38  1  0
 12 39  1  0
 12 40  1  0
 13 41  1  0
 13 42  1  0
 17 43  1  0
 18 44  1  0
 21 45  1  0
 24 46  1  0
 25 47  1  0
 27 48  1  0
 28 49  1  0
 29 50  1  0
 29 51  1  0
 30 52  1  0
 30 53  1  0
 31 54  1  0
 31 55  1  0
 32 56  1  0
 32 57  1  0
M  CHG  2  19  -1  28   1
M  END
>  <UniqueID>  (31) 
30

>  <SMILES>  (31) 
O=S(=O)(c1ccc(N2CCOCC2)c(N=c2cc[n-]c3cc(Cl)ccc23)c1)[NH+]1CCCC1

>  <Energy>  (31) 
82.29456393225874

>  <Genealogy>  (31) 
O=S(=O)(c1ccc(N2CCOCC2)c(N=c2cc[n-]c3cc(Cl)ccc23)c1)[NH+]1CCCC1 (protonated)
O=S(=O)(c1ccc(N2CCOCC2)c(N=c2cc[n-]c3cc(Cl)ccc23)c1)[NH+]1CCCC1 (3D coordinates assigned)
O=S(=O)(c1ccc(N2CCOCC2)c(N=c2cc[n-]c3cc(Cl)ccc23)c1)[NH+]1CCCC1 (nonaromatic ring conformer: 82.29456393225874 kcal/mol)

>  <smiles>  (31) 
O=S(=O)(c1ccc(N2CCOCC2)c(N=c2cc[nH]c3cc(Cl)ccc23)c1)N1CCCC1

>  <score_type>  (31) 
oracle

>  <origin>  (31) 
adgpu

>  <m_score__min__energy>  (31) 
-10.83

>  <m_primary>  (31) 
energy

$$$$
31:0
     RDKit          3D

 55 58  0  0  0  0  0  0  0  0999 V2000
   -3.4280   23.2650  -31.0410 C   0  0  0  0  0  0  0  0  0  0  0  0
   -4.2390   24.0840  -30.1220 N   0  0  0  0  0  0  0  0  0  0  0  0
   -5.0690   23.2560  -29.2120 C   0  0  0  0  0  0  0  0  0  0  0  0
   -6.5120   23.0530  -29.7140 C   0  0  0  0  0  0  0  0  0  0  0  0
   -6.5460   23.1360  -31.1800 N   0  0  0  0  0  0  0  0  0  0  0  0
   -7.7920   22.6090  -31.7810 C   0  0  0  0  0  0  0  0  0  0  0  0
   -7.7380   21.1310  -32.1130 C   0  0  0  0  0  0  0  0  0  0  0  0
   -8.8280   20.2990  -31.8130 C   0  0  0  0  0  0  0  0  0  0  0  0
   -8.7820   18.9390  -32.1260 C   0  0  0  0  0  0  0  0  0  0  0  0
   -7.6520   18.3970  -32.7420 C   0  0  0  0  0  0  0  0  0  0  0  0
   -6.5490   19.2130  -33.0520 C   0  0  0  0  0  0  0  0  0  0  0  0
   -5.3540   18.6320  -33.7090 C   0  0  0  0  0  0  0  0  0  0  0  0
   -5.3090   18.5630  -34.9680 O   0  0  0  0  0  0  0  0  0  0  0  0
   -4.2680   18.1060  -32.9280 N   0  0  0  0  0  0  0  0  0  0  0  0
   -2.9370   17.9120  -33.4450 C   0  0  0  0  0  0  0  0  0  0  0  0
   -2.2180   18.9760  -34.0140 C   0  0  0  0  0  0  0  0  0  0  0  0
   -0.9130   18.7800  -34.4960 C   0  0  0  0  0  0  0  0  0  0  0  0
   -0.1480   19.8990  -35.1030 C   0  0  0  0  0  0  0  0  0  0  0  0
   -0.4720   21.2350  -34.8000 C   0  0  0  0  0  0  0  0  0  0  0  0
    0.2490   22.2860  -35.3750 C   0  0  0  0  0  0  0  0  0  0  0  0
    1.2990   22.0170  -36.2570 C   0  0  0  0  0  0  0  0  0  0  0  0
    2.0130   23.0630  -36.8290 O   0  0  0  0  0  0  0  0  0  0  0  0
    1.6300   20.6950  -36.5640 C   0  0  0  0  0  0  0  0  0  0  0  0
    0.9120   19.6400  -35.9920 C   0  0  0  0  0  0  0  0  0  0  0  0
   -0.3470   17.5000  -34.3810 C   0  0  0  0  0  0  0  0  0  0  0  0
   -1.0480   16.4870  -33.8090 N   0  0  0  0  0  0  0  0  0  0  0  0
   -2.3110   16.6590  -33.3410 C   0  0  0  0  0  0  0  0  0  0  0  0
   -2.9130   15.6820  -32.8220 O   0  0  0  0  0  0  0  0  0  0  0  0
   -6.6110   20.5850  -32.7480 C   0  0  0  0  0  0  0  0  0  0  0  0
   -6.1910   24.4880  -31.6590 C   0  0  0  0  0  0  0  0  0  0  0  0
   -5.0330   25.1010  -30.8400 C   0  0  0  0  0  0  0  0  0  0  0  0
   -2.7714   22.6019  -30.4587 H   0  0  0  0  0  0  0  0  0  0  0  0
   -4.0919   22.6590  -31.6750 H   0  0  0  0  0  0  0  0  0  0  0  0
   -2.8155   23.9230  -31.6750 H   0  0  0  0  0  0  0  0  0  0  0  0
   -4.5940   22.2693  -29.1080 H   0  0  0  0  0  0  0  0  0  0  0  0
   -5.1313   23.7908  -28.2528 H   0  0  0  0  0  0  0  0  0  0  0  0
   -6.8734   22.0639  -29.3959 H   0  0  0  0  0  0  0  0  0  0  0  0
   -7.1570   23.8374  -29.2911 H   0  0  0  0  0  0  0  0  0  0  0  0
   -8.6156   22.7743  -31.0709 H   0  0  0  0  0  0  0  0  0  0  0  0
   -7.9387   23.1439  -32.7309 H   0  0  0  0  0  0  0  0  0  0  0  0
   -9.7218   20.7200  -31.3295 H   0  0  0  0  0  0  0  0  0  0  0  0
   -9.6389   18.2922  -31.8865 H   0  0  0  0  0  0  0  0  0  0  0  0
   -7.6243   17.3249  -32.9864 H   0  0  0  0  0  0  0  0  0  0  0  0
   -4.4810   17.7540  -31.9680 H   0  0  0  0  0  0  0  0  0  0  0  0
   -2.6808   19.9715  -34.0828 H   0  0  0  0  0  0  0  0  0  0  0  0
   -1.2975   21.4535  -34.1066 H   0  0  0  0  0  0  0  0  0  0  0  0
   -0.0109   23.3270  -35.1325 H   0  0  0  0  0  0  0  0  0  0  0  0
    2.4574   20.4834  -37.2573 H   0  0  0  0  0  0  0  0  0  0  0  0
    1.1773   18.6013  -36.2384 H   0  0  0  0  0  0  0  0  0  0  0  0
    0.6705   17.3166  -34.7565 H   0  0  0  0  0  0  0  0  0  0  0  0
   -5.7660   21.2383  -33.0110 H   0  0  0  0  0  0  0  0  0  0  0  0
   -5.8859   24.4233  -32.7139 H   0  0  0  0  0  0  0  0  0  0  0  0
   -7.0729   25.1349  -31.5416 H   0  0  0  0  0  0  0  0  0  0  0  0
   -4.3679   25.6465  -31.5256 H   0  0  0  0  0  0  0  0  0  0  0  0
   -5.4772   25.7674  -30.0860 H   0  0  0  0  0  0  0  0  0  0  0  0
  1  2  1  0
  2  3  1  0
  3  4  1  0
  4  5  1  0
  5  6  1  0
  6  7  1  0
  7  8  2  0
  8  9  1  0
  9 10  2  0
 10 11  1  0
 11 12  1  0
 12 13  2  0
 12 14  1  0
 14 15  1  0
 15 16  2  0
 16 17  1  0
 17 18  1  0
 18 19  2  0
 19 20  1  0
 20 21  2  0
 21 22  1  0
 21 23  1  0
 23 24  2  0
 17 25  2  0
 25 26  1  0
 26 27  1  0
 27 28  2  0
 11 29  2  0
  5 30  1  0
 30 31  1  0
 31  2  1  0
 29  7  1  0
 27 15  1  0
 24 18  1  0
  1 32  1  0
  1 33  1  0
  1 34  1  0
  3 35  1  0
  3 36  1  0
  4 37  1  0
  4 38  1  0
  6 39  1  0
  6 40  1  0
  8 41  1  0
  9 42  1  0
 10 43  1  0
 14 44  1  0
 16 45  1  0
 19 46  1  0
 20 47  1  0
 23 48  1  0
 24 49  1  0
 25 50  1  0
 29 51  1  0
 30 52  1  0
 30 53  1  0
 31 54  1  0
 31 55  1  0
M  CHG  2  22  -1  26  -1
M  END
>  <UniqueID>  (32) 
31

>  <SMILES>  (32) 
CN1CCN(Cc2cccc(C(=O)Nc3cc(-c4ccc([O-])cc4)c[n-]c3=O)c2)CC1

>  <Energy>  (32) 
84.00636777035331

>  <Genealogy>  (32) 
CN1CCN(Cc2cccc(C(=O)Nc3cc(-c4ccc([O-])cc4)c[n-]c3=O)c2)CC1 (protonated)
CN1CCN(Cc2cccc(C(=O)Nc3cc(-c4ccc([O-])cc4)c[n-]c3=O)c2)CC1 (3D coordinates assigned)
CN1CCN(Cc2cccc(C(=O)Nc3cc(-c4ccc([O-])cc4)c[n-]c3=O)c2)CC1 (nonaromatic ring conformer: 84.00636777035331 kcal/mol)

>  <smiles>  (32) 
CN1CCN(Cc2cccc(C(=O)Nc3cc(-c4ccc(O)cc4)c[nH]c3=O)c2)CC1

>  <score_type>  (32) 
oracle

>  <origin>  (32) 
adgpu

>  <m_score__min__energy>  (32) 
-11.69

>  <m_primary>  (32) 
energy

$$$$
32:0
     RDKit          3D

 50 53  0  0  0  0  0  0  0  0999 V2000
   -9.4770   19.4130  -32.7100 C   0  0  0  0  0  0  0  0  0  0  0  0
   -8.1030   19.0560  -32.2410 C   0  0  0  0  0  0  0  0  0  0  0  0
   -7.9440   18.0060  -31.5630 O   0  0  0  0  0  0  0  0  0  0  0  0
   -6.9750   19.9110  -32.4930 N   0  0  0  0  0  0  0  0  0  0  0  0
   -6.7710   21.2310  -32.0050 C   0  0  0  0  0  0  0  0  0  0  0  0
   -7.6690   22.0280  -31.2840 C   0  0  0  0  0  0  0  0  0  0  0  0
   -7.2390   23.2870  -30.8410 C   0  0  0  0  0  0  0  0  0  0  0  0
   -5.9360   23.7400  -31.1330 C   0  0  0  0  0  0  0  0  0  0  0  0
   -5.3260   25.1830  -30.3260 S   0  0  0  0  0  0  0  0  0  0  0  0
   -5.6500   26.4160  -31.1220 O   0  0  0  0  0  0  0  0  0  0  0  0
   -5.9620   25.2870  -28.9670 O   0  0  0  0  0  0  0  0  0  0  0  0
   -3.6030   25.0470  -30.1540 N   0  0  0  0  0  0  0  0  0  0  0  0
   -2.9630   23.9590  -29.4690 C   0  0  0  0  0  0  0  0  0  0  0  0
   -2.1120   23.0740  -30.1540 C   0  0  0  0  0  0  0  0  0  0  0  0
   -1.6280   21.9210  -29.5260 C   0  0  0  0  0  0  0  0  0  0  0  0
   -1.9230   21.6880  -28.1700 C   0  0  0  0  0  0  0  0  0  0  0  0
   -2.7250   22.6000  -27.4700 C   0  0  0  0  0  0  0  0  0  0  0  0
   -3.2450   23.7300  -28.1100 C   0  0  0  0  0  0  0  0  0  0  0  0
   -4.0620   24.5960  -27.3830 O   0  0  0  0  0  0  0  0  0  0  0  0
   -1.4600   20.4200  -27.4930 C   0  0  0  0  0  0  0  0  0  0  0  0
   -0.2340   19.8110  -28.1900 C   0  0  0  0  0  0  0  0  0  0  0  0
   -0.4800   19.6810  -29.6950 C   0  0  0  0  0  0  0  0  0  0  0  0
   -0.8270   20.9840  -30.2610 N   0  0  0  0  0  0  0  0  0  0  0  0
   -5.0830   22.9520  -31.9280 C   0  0  0  0  0  0  0  0  0  0  0  0
   -5.5330   21.7000  -32.3520 C   0  0  0  0  0  0  0  0  0  0  0  0
   -4.7930   20.6970  -33.1600 C   0  0  0  0  0  0  0  0  0  0  0  0
   -5.7750   19.4910  -33.2240 C   0  0  1  0  0  0  0  0  0  0  0  0
   -5.1580   18.2420  -32.5840 C   0  0  0  0  0  0  0  0  0  0  0  0
  -10.1288   19.5824  -31.8403 H   0  0  0  0  0  0  0  0  0  0  0  0
   -9.4307   20.3289  -33.3174 H   0  0  0  0  0  0  0  0  0  0  0  0
   -9.8824   18.5904  -33.3174 H   0  0  0  0  0  0  0  0  0  0  0  0
   -8.6884   21.6744  -31.0701 H   0  0  0  0  0  0  0  0  0  0  0  0
   -7.9225   23.9254  -30.2620 H   0  0  0  0  0  0  0  0  0  0  0  0
   -1.8239   23.2900  -31.1934 H   0  0  0  0  0  0  0  0  0  0  0  0
   -2.9476   22.4254  -26.4070 H   0  0  0  0  0  0  0  0  0  0  0  0
   -4.5450   25.3730  -27.8130 H   0  0  0  0  0  0  0  0  0  0  0  0
   -1.1979   20.6497  -26.4497 H   0  0  0  0  0  0  0  0  0  0  0  0
   -2.2794   19.6880  -27.5452 H   0  0  0  0  0  0  0  0  0  0  0  0
    0.6378   20.4602  -28.0208 H   0  0  0  0  0  0  0  0  0  0  0  0
   -0.0494   18.8101  -27.7728 H   0  0  0  0  0  0  0  0  0  0  0  0
    0.4316   19.3039  -30.1816 H   0  0  0  0  0  0  0  0  0  0  0  0
   -1.3114   18.9812  -29.8652 H   0  0  0  0  0  0  0  0  0  0  0  0
   -0.5270   21.2040  -31.2360 H   0  0  0  0  0  0  0  0  0  0  0  0
   -4.0833   23.3146  -32.2093 H   0  0  0  0  0  0  0  0  0  0  0  0
   -4.5782   21.0837  -34.1671 H   0  0  0  0  0  0  0  0  0  0  0  0
   -3.8162   20.4334  -32.7282 H   0  0  0  0  0  0  0  0  0  0  0  0
   -6.0089   19.2229  -34.2649 H   0  0  0  0  0  0  0  0  0  0  0  0
   -5.2022   18.3314  -31.4885 H   0  0  0  0  0  0  0  0  0  0  0  0
   -5.7198   17.3514  -32.9021 H   0  0  0  0  0  0  0  0  0  0  0  0
   -4.1093   18.1470  -32.9021 H   0  0  0  0  0  0  0  0  0  0  0  0
  1  2  1  0
  2  3  2  0
  2  4  1  0
  4  5  1  0
  5  6  2  0
  6  7  1  0
  7  8  2  0
  8  9  1  0
  9 10  2  0
  9 11  2  0
  9 12  1  0
 12 13  1  0
 13 14  2  0
 14 15  1  0
 15 16  2  0
 16 17  1  0
 17 18  2  0
 18 19  1  0
 16 20  1  0
 20 21  1  0
 21 22  1  0
 22 23  1  0
  8 24  1  0
 24 25  2  0
 25 26  1  0
 26 27  1  0
 27 28  1  0
 27  4  1  0
 25  5  1  0
 18 13  1  0
 23 15  1  0
  1 29  1  0
  1 30  1  0
  1 31  1  0
  6 32  1  0
  7 33  1  0
 14 34  1  0
 17 35  1  0
 19 36  1  0
 20 37  1  0
 20 38  1  0
 21 39  1  0
 21 40  1  0
 22 41  1  0
 22 42  1  0
 23 43  1  0
 24 44  1  0
 26 45  1  0
 26 46  1  0
 27 47  1  6
 28 48  1  0
 28 49  1  0
 28 50  1  0
M  CHG  1  12  -1
M  END
>  <UniqueID>  (33) 
32

>  <SMILES>  (33) 
CC(=O)N1c2ccc(S(=O)(=O)[N-]c3cc4c(cc3O)CCCN4)cc2C[C@H]1C

>  <Energy>  (33) 
71.09607514128173

>  <Genealogy>  (33) 
CC(=O)N1c2ccc(S(=O)(=O)[N-]c3cc4c(cc3O)CCCN4)cc2CC1C (protonated)
CC(=O)N1c2ccc(S(=O)(=O)[N-]c3cc4c(cc3O)CCCN4)cc2C[C@H]1C (chirality)
CC(=O)N1c2ccc(S(=O)(=O)[N-]c3cc4c(cc3O)CCCN4)cc2C[C@H]1C (3D coordinates assigned)
CC(=O)N1c2ccc(S(=O)(=O)[N-]c3cc4c(cc3O)CCCN4)cc2C[C@H]1C (nonaromatic ring conformer: 71.09607514128173 kcal/mol)

>  <smiles>  (33) 
CC(=O)N1c2ccc(S(=O)(=O)Nc3cc4c(cc3O)CCCN4)cc2CC1C

>  <score_type>  (33) 
oracle

>  <origin>  (33) 
adgpu

>  <m_score__min__energy>  (33) 
-12.869999999999999

>  <m_primary>  (33) 
energy

$$$$
33:0
     RDKit          3D

 45 47  0  0  0  0  0  0  0  0999 V2000
   -3.9740   25.5090  -30.8420 N   0  0  0  0  0  0  0  0  0  0  0  0
   -3.9760   23.8320  -30.4180 S   0  0  0  0  0  0  0  0  0  0  0  0
   -4.2740   23.0160  -31.6440 O   0  0  0  0  0  0  0  0  0  0  0  0
   -5.0450   23.5990  -29.3870 O   0  0  0  0  0  0  0  0  0  0  0  0
   -2.4070   23.3550  -29.7650 C   0  0  0  0  0  0  0  0  0  0  0  0
   -2.0020   22.0120  -29.8150 C   0  0  0  0  0  0  0  0  0  0  0  0
   -0.7520   21.6220  -29.2990 C   0  0  0  0  0  0  0  0  0  0  0  0
   -0.3270   20.2480  -29.3280 N   0  0  0  0  0  0  0  0  0  0  0  0
   -0.3980   19.3670  -28.1930 C   0  0  0  0  0  0  0  0  0  0  0  0
   -1.2010   19.6220  -27.2550 O   0  0  0  0  0  0  0  0  0  0  0  0
    0.4250   18.1350  -28.1350 C   0  0  0  0  0  0  0  0  0  0  0  0
    0.2060   17.1630  -27.1410 C   0  0  0  0  0  0  0  0  0  0  0  0
    0.9830   16.0030  -27.0990 C   0  0  0  0  0  0  0  0  0  0  0  0
    1.9950   15.7940  -28.0460 C   0  0  0  0  0  0  0  0  0  0  0  0
    2.9730   14.3220  -27.9950 S   0  0  0  0  0  0  0  0  0  0  0  0
    3.2080   13.8420  -29.4000 O   0  0  0  0  0  0  0  0  0  0  0  0
    4.3080   14.6430  -27.3840 O   0  0  0  0  0  0  0  0  0  0  0  0
    2.2210   13.0400  -27.0760 N   0  0  0  0  0  0  0  0  0  0  0  0
    0.9450   12.6220  -27.6540 C   0  0  0  0  0  0  0  0  0  0  0  0
    0.1320   12.0270  -26.5150 C   0  0  0  0  0  0  0  0  0  0  0  0
    0.7660   12.5690  -25.2420 C   0  0  0  0  0  0  0  0  0  0  0  0
    1.9140   13.4510  -25.7080 C   0  0  0  0  0  0  0  0  0  0  0  0
    2.2050   16.7470  -29.0500 C   0  0  0  0  0  0  0  0  0  0  0  0
    1.4270   17.9080  -29.0960 C   0  0  0  0  0  0  0  0  0  0  0  0
    0.0690   22.5840  -28.6940 C   0  0  0  0  0  0  0  0  0  0  0  0
   -0.3330   23.9190  -28.6330 C   0  0  0  0  0  0  0  0  0  0  0  0
   -1.5660   24.3090  -29.1640 C   0  0  0  0  0  0  0  0  0  0  0  0
   -1.9500   25.6430  -29.0840 O   0  0  0  0  0  0  0  0  0  0  0  0
   -3.8590   26.0490  -29.9550 H   0  0  0  0  0  0  0  0  0  0  0  0
   -2.6671   21.2580  -30.2612 H   0  0  0  0  0  0  0  0  0  0  0  0
   -0.0590   19.8390  -30.2510 H   0  0  0  0  0  0  0  0  0  0  0  0
   -0.5836   17.3181  -26.3910 H   0  0  0  0  0  0  0  0  0  0  0  0
    0.7997   15.2496  -26.3187 H   0  0  0  0  0  0  0  0  0  0  0  0
    0.4203   13.4879  -28.0840 H   0  0  0  0  0  0  0  0  0  0  0  0
    1.0938   11.8907  -28.4621 H   0  0  0  0  0  0  0  0  0  0  0  0
   -0.9193   12.3427  -26.5863 H   0  0  0  0  0  0  0  0  0  0  0  0
    0.1368   10.9273  -26.5390 H   0  0  0  0  0  0  0  0  0  0  0  0
    0.0354   13.1587  -24.6689 H   0  0  0  0  0  0  0  0  0  0  0  0
    1.1125   11.7610  -24.5809 H   0  0  0  0  0  0  0  0  0  0  0  0
    1.6137   14.5090  -25.6870 H   0  0  0  0  0  0  0  0  0  0  0  0
    2.7910   13.3431  -25.0529 H   0  0  0  0  0  0  0  0  0  0  0  0
    2.9861   16.5815  -29.8066 H   0  0  0  0  0  0  0  0  0  0  0  0
    1.5998   18.6496  -29.8898 H   0  0  0  0  0  0  0  0  0  0  0  0
    1.0364   22.2845  -28.2646 H   0  0  0  0  0  0  0  0  0  0  0  0
    0.3232   24.6677  -28.1651 H   0  0  0  0  0  0  0  0  0  0  0  0
  1  2  1  0
  2  3  2  0
  2  4  2  0
  2  5  1  0
  5  6  2  0
  6  7  1  0
  7  8  1  0
  8  9  1  0
  9 10  2  0
  9 11  1  0
 11 12  2  0
 12 13  1  0
 13 14  2  0
 14 15  1  0
 15 16  2  0
 15 17  2  0
 15 18  1  0
 18 19  1  0
 19 20  1  0
 20 21  1  0
 21 22  1  0
 14 23  1  0
 23 24  2  0
  7 25  2  0
 25 26  1  0
 26 27  2  0
 27 28  1  0
 27  5  1  0
 24 11  1  0
 22 18  1  0
  1 29  1  0
  6 30  1  0
  8 31  1  0
 12 32  1  0
 13 33  1  0
 19 34  1  0
 19 35  1  0
 20 36  1  0
 20 37  1  0
 21 38  1  0
 21 39  1  0
 22 40  1  0
 22 41  1  0
 23 42  1  0
 24 43  1  0
 25 44  1  0
 26 45  1  0
M  CHG  2   1  -1  28  -1
M  END
>  <UniqueID>  (34) 
33

>  <SMILES>  (34) 
[NH-]S(=O)(=O)c1cc(NC(=O)c2ccc(S(=O)(=O)N3CCCC3)cc2)ccc1[O-]

>  <Energy>  (34) 
53.60157201862605

>  <Genealogy>  (34) 
[NH-]S(=O)(=O)c1cc(NC(=O)c2ccc(S(=O)(=O)N3CCCC3)cc2)ccc1[O-] (protonated)
[NH-]S(=O)(=O)c1cc(NC(=O)c2ccc(S(=O)(=O)N3CCCC3)cc2)ccc1[O-] (3D coordinates assigned)
[NH-]S(=O)(=O)c1cc(NC(=O)c2ccc(S(=O)(=O)N3CCCC3)cc2)ccc1[O-] (nonaromatic ring conformer: 53.60157201862605 kcal/mol)

>  <smiles>  (34) 
NS(=O)(=O)c1cc(NC(=O)c2ccc(S(=O)(=O)N3CCCC3)cc2)ccc1O

>  <score_type>  (34) 
oracle

>  <origin>  (34) 
adgpu

>  <m_score__min__energy>  (34) 
-11.93

>  <m_primary>  (34) 
energy

$$$$
34:0
     RDKit          3D

 47 50  0  0  0  0  0  0  0  0999 V2000
   -1.5439   19.7082  -32.7820 H   0  0  0  0  0  0  0  0  0  0  0  0
   -2.6230   19.8450  -32.9460 C   0  0  0  0  0  0  0  0  0  0  0  0
   -3.3510   18.8790  -33.6450 C   0  0  0  0  0  0  0  0  0  0  0  0
   -2.8448   17.9813  -34.0297 H   0  0  0  0  0  0  0  0  0  0  0  0
   -4.7220   19.0520  -33.8560 C   0  0  0  0  0  0  0  0  0  0  0  0
   -5.2928   18.2868  -34.4025 H   0  0  0  0  0  0  0  0  0  0  0  0
   -5.3740   20.1990  -33.3730 C   0  0  0  0  0  0  0  0  0  0  0  0
   -6.8440   20.4050  -33.6230 C   0  0  0  0  0  0  0  0  0  0  0  0
   -7.1209   19.9168  -34.5691 H   0  0  0  0  0  0  0  0  0  0  0  0
   -7.0448   21.4852  -33.6768 H   0  0  0  0  0  0  0  0  0  0  0  0
   -7.6430   19.8310  -32.5330 N   0  0  0  0  0  0  0  0  0  0  0  0
   -8.4660   20.4690  -31.6760 C   0  0  0  0  0  0  0  0  0  0  0  0
   -8.7510   22.2420  -31.6470 S   0  0  0  0  0  0  0  0  0  0  0  0
   -7.0940   22.6540  -31.0000 C   0  0  0  0  0  0  0  0  0  0  0  0
   -6.4875   21.7380  -30.9435 H   0  0  0  0  0  0  0  0  0  0  0  0
   -7.1986   23.0963  -29.9983 H   0  0  0  0  0  0  0  0  0  0  0  0
   -6.4210   23.6370  -31.9000 C   0  0  0  0  0  0  0  0  0  0  0  0
   -6.8400   23.7790  -33.0800 O   0  0  0  0  0  0  0  0  0  0  0  0
   -5.3450   24.4360  -31.3840 N   0  0  0  0  0  0  0  0  0  0  0  0
   -4.4650   24.1000  -30.4860 C   0  0  0  0  0  0  0  0  0  0  0  0
   -3.4830   24.9520  -30.1030 N   0  0  0  0  0  0  0  0  0  0  0  0
   -2.6910   24.3860  -29.1560 C   0  0  0  0  0  0  0  0  0  0  0  0
   -1.5910   25.0130  -28.5720 C   0  0  0  0  0  0  0  0  0  0  0  0
   -1.3084   26.0351  -28.8643 H   0  0  0  0  0  0  0  0  0  0  0  0
   -0.8500   24.3150  -27.6030 C   0  0  0  0  0  0  0  0  0  0  0  0
    0.0197   24.7977  -27.1334 H   0  0  0  0  0  0  0  0  0  0  0  0
   -1.2070   23.0020  -27.2240 C   0  0  0  0  0  0  0  0  0  0  0  0
   -0.4270   22.3580  -26.2510 O   0  0  0  0  0  0  0  0  0  0  0  0
   -0.1600   22.8900  -24.9560 C   0  0  0  0  0  0  0  0  0  0  0  0
   -0.5140   22.1847  -24.1897 H   0  0  0  0  0  0  0  0  0  0  0  0
    0.9228   23.0451  -24.8394 H   0  0  0  0  0  0  0  0  0  0  0  0
   -0.6827   23.8508  -24.8394 H   0  0  0  0  0  0  0  0  0  0  0  0
   -2.3250   22.3820  -27.8270 C   0  0  0  0  0  0  0  0  0  0  0  0
   -2.6234   21.3609  -27.5471 H   0  0  0  0  0  0  0  0  0  0  0  0
   -3.0390   23.0980  -28.7850 C   0  0  0  0  0  0  0  0  0  0  0  0
   -4.3870   22.6150  -29.6610 S   0  0  0  0  0  0  0  0  0  0  0  0
   -9.0780   19.6060  -30.8430 N   0  0  0  0  0  0  0  0  0  0  0  0
   -8.6430   18.3950  -31.1560 N   0  0  0  0  0  0  0  0  0  0  0  0
   -7.7740   18.5360  -32.1760 C   0  0  0  0  0  0  0  0  0  0  0  0
   -7.1030   17.3820  -32.8500 C   0  0  0  0  0  0  0  0  0  0  0  0
   -6.7035   16.6950  -32.0895 H   0  0  0  0  0  0  0  0  0  0  0  0
   -7.8324   16.8496  -33.4782 H   0  0  0  0  0  0  0  0  0  0  0  0
   -6.2795   17.7525  -33.4782 H   0  0  0  0  0  0  0  0  0  0  0  0
   -4.6360   21.1640  -32.6660 C   0  0  0  0  0  0  0  0  0  0  0  0
   -5.1381   22.0624  -32.2776 H   0  0  0  0  0  0  0  0  0  0  0  0
   -3.2650   20.9850  -32.4550 C   0  0  0  0  0  0  0  0  0  0  0  0
   -2.6911   21.7429  -31.9016 H   0  0  0  0  0  0  0  0  0  0  0  0
  1  2  1  0
  2  3  2  0
  3  4  1  0
  3  5  1  0
  5  6  1  0
  5  7  2  0
  7  8  1  0
  8  9  1  0
  8 10  1  0
  8 11  1  0
 11 12  1  0
 12 13  1  0
 13 14  1  0
 14 15  1  0
 14 16  1  0
 14 17  1  0
 17 18  2  0
 17 19  1  0
 19 20  2  0
 20 21  1  0
 21 22  1  0
 22 23  2  0
 23 24  1  0
 23 25  1  0
 25 26  1  0
 25 27  2  0
 27 28  1  0
 28 29  1  0
 29 30  1  0
 29 31  1  0
 29 32  1  0
 27 33  1  0
 33 34  1  0
 33 35  2  0
 35 36  1  0
 12 37  2  0
 37 38  1  0
 38 39  2  0
 39 40  1  0
 40 41  1  0
 40 42  1  0
 40 43  1  0
  7 44  1  0
 44 45  1  0
 44 46  2  0
 46 47  1  0
 46  2  1  0
 39 11  1  0
 36 20  1  0
 35 22  1  0
M  CHG  1  21  -1
M  END
>  <UniqueID>  (35) 
34

>  <SMILES>  (35) 
COc1ccc2[n-]/c(=N/C(=O)CSc3nnc(C)n3Cc3ccccc3)sc2c1

>  <Energy>  (35) 
114.84233267772069

>  <Genealogy>  (35) 
COc1ccc2[n-]c(=NC(=O)CSc3nnc(C)n3Cc3ccccc3)sc2c1 (protonated)
COc1ccc2[n-]/c(=N/C(=O)CSc3nnc(C)n3Cc3ccccc3)sc2c1 (cis-trans isomerization)
COc1ccc2[n-]/c(=N/C(=O)CSc3nnc(C)n3Cc3ccccc3)sc2c1 (3D coordinates assigned)
COc1ccc2[n-]/c(=N/C(=O)CSc3nnc(C)n3Cc3ccccc3)sc2c1 (optimized conformer: 114.84233267772069 kcal/mol)

>  <smiles>  (35) 
COc1ccc2[nH]c(=NC(=O)CSc3nnc(C)n3Cc3ccccc3)sc2c1

>  <score_type>  (35) 
oracle

>  <origin>  (35) 
adgpu

>  <m_score__min__energy>  (35) 
-11.01

>  <m_primary>  (35) 
energy

$$$$
35:0
     RDKit          3D

 42 45  0  0  0  0  0  0  0  0999 V2000
   -4.9020   18.5570  -34.0210 C   0  0  0  0  0  0  0  0  0  0  0  0
   -5.7850   19.3930  -33.2110 N   0  0  0  0  0  0  0  0  0  0  0  0
   -7.0270   19.0820  -32.7660 C   0  0  0  0  0  0  0  0  0  0  0  0
   -7.6780   17.8880  -33.0560 O   0  0  0  0  0  0  0  0  0  0  0  0
   -7.5610   20.1010  -31.9890 C   0  0  0  0  0  0  0  0  0  0  0  0
   -6.5780   21.0700  -31.9610 C   0  0  0  0  0  0  0  0  0  0  0  0
   -6.5560   22.3100  -31.3300 C   0  0  0  0  0  0  0  0  0  0  0  0
   -5.3960   23.1020  -31.4650 C   0  0  0  0  0  0  0  0  0  0  0  0
   -5.3230   24.6690  -30.6630 S   0  0  0  0  0  0  0  0  0  0  0  0
   -5.8510   25.7580  -31.5560 O   0  0  0  0  0  0  0  0  0  0  0  0
   -6.1590   24.6150  -29.4160 O   0  0  0  0  0  0  0  0  0  0  0  0
   -3.6820   25.0310  -30.2360 N   0  0  0  0  0  0  0  0  0  0  0  0
   -2.8690   24.2540  -29.3430 C   0  0  0  0  0  0  0  0  0  0  0  0
   -3.2580   22.9750  -28.9050 C   0  0  0  0  0  0  0  0  0  0  0  0
   -2.4400   22.2380  -28.0360 C   0  0  0  0  0  0  0  0  0  0  0  0
   -1.2310   22.7950  -27.5730 C   0  0  0  0  0  0  0  0  0  0  0  0
   -0.8390   24.0650  -28.0220 C   0  0  0  0  0  0  0  0  0  0  0  0
   -1.6510   24.7880  -28.9010 C   0  0  0  0  0  0  0  0  0  0  0  0
   -1.2360   26.0390  -29.3420 O   0  0  0  0  0  0  0  0  0  0  0  0
   -0.2960   21.9960  -26.6890 C   0  0  0  0  0  0  0  0  0  0  0  0
   -0.9720   20.8800  -26.0090 N   0  0  0  0  0  0  0  0  0  0  0  0
   -1.7460   20.0750  -26.9630 C   0  0  0  0  0  0  0  0  0  0  0  0
   -2.9060   20.8910  -27.5440 C   0  0  0  0  0  0  0  0  0  0  0  0
   -4.2990   22.6310  -32.2260 C   0  0  0  0  0  0  0  0  0  0  0  0
   -4.3510   21.3720  -32.8510 C   0  0  0  0  0  0  0  0  0  0  0  0
   -5.5140   20.6130  -32.7020 C   0  0  0  0  0  0  0  0  0  0  0  0
   -4.2629   17.9519  -33.3612 H   0  0  0  0  0  0  0  0  0  0  0  0
   -5.5066   17.8926  -34.6558 H   0  0  0  0  0  0  0  0  0  0  0  0
   -4.2717   19.1970  -34.6558 H   0  0  0  0  0  0  0  0  0  0  0  0
   -8.5477   20.1299  -31.5037 H   0  0  0  0  0  0  0  0  0  0  0  0
   -7.4173   22.6623  -30.7434 H   0  0  0  0  0  0  0  0  0  0  0  0
   -4.2126   22.5489  -29.2472 H   0  0  0  0  0  0  0  0  0  0  0  0
    0.1140   24.4950  -27.6801 H   0  0  0  0  0  0  0  0  0  0  0  0
    0.5149   21.5895  -27.3113 H   0  0  0  0  0  0  0  0  0  0  0  0
    0.0876   22.6744  -25.9127 H   0  0  0  0  0  0  0  0  0  0  0  0
   -1.6190   21.2680  -25.2820 H   0  0  0  0  0  0  0  0  0  0  0  0
   -1.0862   19.7518  -27.7816 H   0  0  0  0  0  0  0  0  0  0  0  0
   -2.1571   19.2010  -26.4366 H   0  0  0  0  0  0  0  0  0  0  0  0
   -3.3478   20.3362  -28.3849 H   0  0  0  0  0  0  0  0  0  0  0  0
   -3.6486   21.0513  -26.7485 H   0  0  0  0  0  0  0  0  0  0  0  0
   -3.3988   23.2546  -32.3293 H   0  0  0  0  0  0  0  0  0  0  0  0
   -3.5010   20.9963  -33.4396 H   0  0  0  0  0  0  0  0  0  0  0  0
  1  2  1  0
  2  3  1  0
  3  4  1  0
  3  5  2  0
  5  6  1  0
  6  7  2  0
  7  8  1  0
  8  9  1  0
  9 10  2  0
  9 11  2  0
  9 12  1  0
 12 13  1  0
 13 14  2  0
 14 15  1  0
 15 16  2  0
 16 17  1  0
 17 18  2  0
 18 19  1  0
 16 20  1  0
 20 21  1  0
 21 22  1  0
 22 23  1  0
  8 24  2  0
 24 25  1  0
 25 26  2  0
 26  2  1  0
 26  6  1  0
 18 13  1  0
 23 15  1  0
  1 27  1  0
  1 28  1  0
  1 29  1  0
  5 30  1  0
  7 31  1  0
 14 32  1  0
 17 33  1  0
 20 34  1  0
 20 35  1  0
 21 36  1  0
 22 37  1  0
 22 38  1  0
 23 39  1  0
 23 40  1  0
 24 41  1  0
 25 42  1  0
M  CHG  3   4  -1  12  -1  19  -1
M  END
>  <UniqueID>  (36) 
35

>  <SMILES>  (36) 
Cn1c([O-])cc2cc(S(=O)(=O)[N-]c3cc4c(cc3[O-])CNCC4)ccc21

>  <Energy>  (36) 
84.62455659208817

>  <Genealogy>  (36) 
Cn1c([O-])cc2cc(S(=O)(=O)[N-]c3cc4c(cc3[O-])CNCC4)ccc21 (protonated)
Cn1c([O-])cc2cc(S(=O)(=O)[N-]c3cc4c(cc3[O-])CNCC4)ccc21 (3D coordinates assigned)
Cn1c([O-])cc2cc(S(=O)(=O)[N-]c3cc4c(cc3[O-])CNCC4)ccc21 (nonaromatic ring conformer: 84.62455659208817 kcal/mol)

>  <smiles>  (36) 
Cn1c(O)cc2cc(S(=O)(=O)Nc3cc4c(cc3O)CNCC4)ccc21

>  <score_type>  (36) 
oracle

>  <origin>  (36) 
adgpu

>  <m_score__min__energy>  (36) 
-14.06

>  <m_primary>  (36) 
energy

$$$$
36:0
     RDKit          3D

 40 42  0  0  0  0  0  0  0  0999 V2000
   -0.9790   21.6190  -25.9320 C   0  0  0  0  0  0  0  0  0  0  0  0
   -1.0340   22.8140  -26.8290 C   0  0  0  0  0  0  0  0  0  0  0  0
   -0.1890   23.9050  -26.6080 C   0  0  0  0  0  0  0  0  0  0  0  0
   -0.2640   25.0080  -27.4560 C   0  0  0  0  0  0  0  0  0  0  0  0
   -1.1770   25.0190  -28.5140 C   0  0  0  0  0  0  0  0  0  0  0  0
   -1.2310   26.1330  -29.3480 O   0  0  0  0  0  0  0  0  0  0  0  0
   -2.0200   23.9050  -28.7130 C   0  0  0  0  0  0  0  0  0  0  0  0
   -3.0180   23.8490  -29.8090 C   0  0  0  0  0  0  0  0  0  0  0  0
   -3.5540   24.9100  -30.2290 O   0  0  0  0  0  0  0  0  0  0  0  0
   -3.3540   22.5890  -30.4160 N   0  0  0  0  0  0  0  0  0  0  0  0
   -4.4820   22.3850  -31.2800 C   0  0  0  0  0  0  0  0  0  0  0  0
   -5.5890   23.1980  -31.4550 C   0  0  0  0  0  0  0  0  0  0  0  0
   -6.4430   22.5850  -32.2990 N   0  0  0  0  0  0  0  0  0  0  0  0
   -5.9040   21.4280  -32.6530 N   0  0  0  0  0  0  0  0  0  0  0  0
   -6.5660   20.4540  -33.5140 C   0  0  0  0  0  0  0  0  0  0  0  0
   -7.5160   19.6170  -32.7070 C   0  0  0  0  0  0  0  0  0  0  0  0
   -7.5080   18.2450  -32.5390 C   0  0  0  0  0  0  0  0  0  0  0  0
   -6.4930   17.2860  -33.0730 C   0  0  0  0  0  0  0  0  0  0  0  0
   -8.5870   17.8760  -31.8230 N   0  0  0  0  0  0  0  0  0  0  0  0
   -9.2570   18.9610  -31.5570 O   0  0  0  0  0  0  0  0  0  0  0  0
   -8.6690   20.0210  -32.0620 C   0  0  0  0  0  0  0  0  0  0  0  0
   -9.2150   21.4070  -31.9680 C   0  0  0  0  0  0  0  0  0  0  0  0
   -4.7160   21.2620  -32.0410 C   0  0  0  0  0  0  0  0  0  0  0  0
   -1.9180   22.8440  -27.8630 N   0  0  0  0  0  0  0  0  0  0  0  0
   -0.9941   21.9475  -24.8823 H   0  0  0  0  0  0  0  0  0  0  0  0
   -1.8484   20.9739  -26.1269 H   0  0  0  0  0  0  0  0  0  0  0  0
   -0.0540   21.0565  -26.1269 H   0  0  0  0  0  0  0  0  0  0  0  0
    0.5276   23.8930  -25.7735 H   0  0  0  0  0  0  0  0  0  0  0  0
    0.3968   25.8720  -27.2924 H   0  0  0  0  0  0  0  0  0  0  0  0
   -2.7260   21.7700  -30.2530 H   0  0  0  0  0  0  0  0  0  0  0  0
   -5.7455   24.1798  -30.9842 H   0  0  0  0  0  0  0  0  0  0  0  0
   -7.1244   20.9831  -34.3003 H   0  0  0  0  0  0  0  0  0  0  0  0
   -5.8074   19.8009  -33.9701 H   0  0  0  0  0  0  0  0  0  0  0  0
   -5.9748   16.7964  -32.2353 H   0  0  0  0  0  0  0  0  0  0  0  0
   -6.9955   16.5252  -33.6883 H   0  0  0  0  0  0  0  0  0  0  0  0
   -5.7619   17.8308  -33.6883 H   0  0  0  0  0  0  0  0  0  0  0  0
   -9.3252   21.6867  -30.9099 H   0  0  0  0  0  0  0  0  0  0  0  0
   -8.5255   22.1070  -32.4624 H   0  0  0  0  0  0  0  0  0  0  0  0
  -10.1967   21.4487  -32.4624 H   0  0  0  0  0  0  0  0  0  0  0  0
   -4.0536   20.3886  -32.1325 H   0  0  0  0  0  0  0  0  0  0  0  0
  1  2  1  0
  2  3  2  0
  3  4  1  0
  4  5  2  0
  5  6  1  0
  5  7  1  0
  7  8  1  0
  8  9  2  0
  8 10  1  0
 10 11  1  0
 11 12  1  0
 12 13  2  0
 13 14  1  0
 14 15  1  0
 15 16  1  0
 16 17  1  0
 17 18  1  0
 17 19  2  0
 19 20  1  0
 20 21  1  0
 21 22  1  0
 14 23  1  0
  7 24  2  0
 24  2  1  0
 23 11  2  0
 21 16  2  0
  1 25  1  0
  1 26  1  0
  1 27  1  0
  3 28  1  0
  4 29  1  0
 10 30  1  0
 12 31  1  0
 15 32  1  0
 15 33  1  0
 18 34  1  0
 18 35  1  0
 18 36  1  0
 22 37  1  0
 22 38  1  0
 22 39  1  0
 23 40  1  0
M  CHG  1   6  -1
M  END
>  <UniqueID>  (37) 
36

>  <SMILES>  (37) 
Cc1ccc([O-])c(C(=O)Nc2cnn(Cc3c(C)noc3C)c2)n1

>  <Energy>  (37) 
101.65560566918754

>  <Genealogy>  (37) 
Cc1ccc([O-])c(C(=O)Nc2cnn(Cc3c(C)noc3C)c2)n1 (protonated)
Cc1ccc([O-])c(C(=O)Nc2cnn(Cc3c(C)noc3C)c2)n1 (3D coordinates assigned)
Cc1ccc([O-])c(C(=O)Nc2cnn(Cc3c(C)noc3C)c2)n1 (optimized conformer: 101.65560566918754 kcal/mol)

>  <smiles>  (37) 
Cc1ccc(O)c(C(=O)Nc2cnn(Cc3c(C)noc3C)c2)n1

>  <score_type>  (37) 
oracle

>  <origin>  (37) 
adgpu

>  <m_score__min__energy>  (37) 
-11.289999999999999

>  <m_primary>  (37) 
energy

$$$$
37:0
     RDKit          3D

 47 49  0  0  0  0  0  0  0  0999 V2000
   -0.9510   21.4110  -33.9940 N   0  0  0  0  0  0  0  0  0  0  0  0
   -1.5800   21.3040  -32.7160 C   0  0  0  0  0  0  0  0  0  0  0  0
   -2.7620   20.5710  -32.5640 C   0  0  0  0  0  0  0  0  0  0  0  0
   -3.3410   20.4990  -31.2960 C   0  0  0  0  0  0  0  0  0  0  0  0
   -4.4060   19.8500  -31.1230 O   0  0  0  0  0  0  0  0  0  0  0  0
   -2.7550   21.1310  -30.2470 N   0  0  0  0  0  0  0  0  0  0  0  0
   -1.6060   21.8380  -30.4110 C   0  0  0  0  0  0  0  0  0  0  0  0
   -0.8550   22.6610  -29.0090 S   0  0  0  0  0  0  0  0  0  0  0  0
   -2.3640   23.5810  -28.5470 C   0  0  0  0  0  0  0  0  0  0  0  0
   -2.4250   24.9220  -29.2280 C   0  0  0  0  0  0  0  0  0  0  0  0
   -1.5540   25.7870  -28.9490 O   0  0  0  0  0  0  0  0  0  0  0  0
   -3.4860   25.2780  -30.1260 N   0  0  0  0  0  0  0  0  0  0  0  0
   -4.6620   24.5030  -30.3900 C   0  0  0  0  0  0  0  0  0  0  0  0
   -5.8590   24.7370  -29.6970 C   0  0  0  0  0  0  0  0  0  0  0  0
   -6.9870   23.9530  -29.9590 C   0  0  0  0  0  0  0  0  0  0  0  0
   -6.9260   22.9220  -30.9040 C   0  0  0  0  0  0  0  0  0  0  0  0
   -8.3500   21.9310  -31.2070 S   0  0  0  0  0  0  0  0  0  0  0  0
   -9.1570   22.5180  -32.3320 O   0  0  0  0  0  0  0  0  0  0  0  0
   -9.1970   21.9140  -29.9660 O   0  0  0  0  0  0  0  0  0  0  0  0
   -7.8550   20.3060  -31.6090 N   0  0  0  0  0  0  0  0  0  0  0  0
   -7.4410   20.2430  -33.0220 C   0  0  0  0  0  0  0  0  0  0  0  0
   -6.8010   18.8760  -33.3340 C   0  0  0  0  0  0  0  0  0  0  0  0
   -7.2600   17.7760  -32.3640 C   0  0  0  0  0  0  0  0  0  0  0  0
   -8.7250   17.9730  -31.9660 C   0  0  0  0  0  0  0  0  0  0  0  0
   -8.9650   19.3670  -31.3440 C   0  0  0  0  0  0  0  0  0  0  0  0
   -5.7190   22.6640  -31.5690 C   0  0  0  0  0  0  0  0  0  0  0  0
   -4.5910   23.4460  -31.3050 C   0  0  0  0  0  0  0  0  0  0  0  0
   -1.0290   21.9240  -31.6380 N   0  0  0  0  0  0  0  0  0  0  0  0
   -1.4580   21.8510  -34.7930 H   0  0  0  0  0  0  0  0  0  0  0  0
    0.0170   21.0530  -34.1480 H   0  0  0  0  0  0  0  0  0  0  0  0
   -3.2241   20.0634  -33.4235 H   0  0  0  0  0  0  0  0  0  0  0  0
   -3.2453   22.9914  -28.8397 H   0  0  0  0  0  0  0  0  0  0  0  0
   -2.3465   23.7474  -27.4598 H   0  0  0  0  0  0  0  0  0  0  0  0
   -5.9105   25.5389  -28.9458 H   0  0  0  0  0  0  0  0  0  0  0  0
   -7.9262   24.1473  -29.4203 H   0  0  0  0  0  0  0  0  0  0  0  0
   -8.3223   20.3857  -33.6646 H   0  0  0  0  0  0  0  0  0  0  0  0
   -6.7018   21.0349  -33.2129 H   0  0  0  0  0  0  0  0  0  0  0  0
   -7.0780   18.5821  -34.3572 H   0  0  0  0  0  0  0  0  0  0  0  0
   -5.7118   18.9843  -33.2251 H   0  0  0  0  0  0  0  0  0  0  0  0
   -7.1482   16.7964  -32.8518 H   0  0  0  0  0  0  0  0  0  0  0  0
   -6.6401   17.8272  -31.4568 H   0  0  0  0  0  0  0  0  0  0  0  0
   -9.3550   17.8689  -32.8617 H   0  0  0  0  0  0  0  0  0  0  0  0
   -8.9815   17.2127  -31.2136 H   0  0  0  0  0  0  0  0  0  0  0  0
   -9.8900   19.7867  -31.7662 H   0  0  0  0  0  0  0  0  0  0  0  0
   -9.0389   19.2374  -30.2542 H   0  0  0  0  0  0  0  0  0  0  0  0
   -5.6596   21.8443  -32.3002 H   0  0  0  0  0  0  0  0  0  0  0  0
   -3.6427   23.2297  -31.8188 H   0  0  0  0  0  0  0  0  0  0  0  0
  1  2  1  0
  2  3  2  0
  3  4  1  0
  4  5  2  0
  4  6  1  0
  6  7  2  0
  7  8  1  0
  8  9  1  0
  9 10  1  0
 10 11  2  0
 10 12  1  0
 12 13  1  0
 13 14  2  0
 14 15  1  0
 15 16  2  0
 16 17  1  0
 17 18  2  0
 17 19  2  0
 17 20  1  0
 20 21  1  0
 21 22  1  0
 22 23  1  0
 23 24  1  0
 24 25  1  0
 16 26  1  0
 26 27  2  0
  7 28  1  0
 28  2  1  0
 27 13  1  0
 25 20  1  0
  1 29  1  0
  1 30  1  0
  3 31  1  0
  9 32  1  0
  9 33  1  0
 14 34  1  0
 15 35  1  0
 21 36  1  0
 21 37  1  0
 22 38  1  0
 22 39  1  0
 23 40  1  0
 23 41  1  0
 24 42  1  0
 24 43  1  0
 25 44  1  0
 25 45  1  0
 26 46  1  0
 27 47  1  0
M  CHG  2  12  -1  28  -1
M  END
>  <UniqueID>  (38) 
37

>  <SMILES>  (38) 
Nc1cc(=O)nc(SCC(=O)[N-]c2ccc(S(=O)(=O)N3CCCCC3)cc2)[n-]1

>  <Energy>  (38) 
51.540499930641644

>  <Genealogy>  (38) 
Nc1cc(=O)nc(SCC(=O)[N-]c2ccc(S(=O)(=O)N3CCCCC3)cc2)[n-]1 (protonated)
Nc1cc(=O)nc(SCC(=O)[N-]c2ccc(S(=O)(=O)N3CCCCC3)cc2)[n-]1 (3D coordinates assigned)
Nc1cc(=O)nc(SCC(=O)[N-]c2ccc(S(=O)(=O)N3CCCCC3)cc2)[n-]1 (nonaromatic ring conformer: 51.540499930641644 kcal/mol)

>  <smiles>  (38) 
Nc1cc(=O)nc(SCC(=O)Nc2ccc(S(=O)(=O)N3CCCCC3)cc2)[nH]1

>  <score_type>  (38) 
oracle

>  <origin>  (38) 
adgpu

>  <m_score__min__energy>  (38) 
-12.16

>  <m_primary>  (38) 
energy

$$$$
38:0
     RDKit          3D

 53 56  0  0  0  0  0  0  0  0999 V2000
   -5.8170   24.8970  -29.0160 O   0  0  0  0  0  0  0  0  0  0  0  0
   -5.4950   24.6770  -30.4680 S   0  0  0  0  0  0  0  0  0  0  0  0
   -5.9470   25.8730  -31.2570 O   0  0  0  0  0  0  0  0  0  0  0  0
   -3.7820   24.4680  -30.6540 N   0  0  0  0  0  0  0  0  0  0  0  0
   -3.0030   23.7410  -29.6890 C   0  0  0  0  0  0  0  0  0  0  0  0
   -3.2940   22.3970  -29.4020 C   0  0  0  0  0  0  0  0  0  0  0  0
   -2.4890   21.6710  -28.5130 C   0  0  0  0  0  0  0  0  0  0  0  0
   -1.3910   22.2880  -27.8960 C   0  0  0  0  0  0  0  0  0  0  0  0
   -1.1080   23.6340  -28.1670 C   0  0  0  0  0  0  0  0  0  0  0  0
   -1.9130   24.3610  -29.0510 C   0  0  0  0  0  0  0  0  0  0  0  0
   -1.6060   25.6920  -29.3140 O   0  0  0  0  0  0  0  0  0  0  0  0
   -0.4660   21.4610  -27.0420 C   0  0  0  0  0  0  0  0  0  0  0  0
   -1.2050   20.4050  -26.1850 C   0  0  0  0  0  0  0  0  0  0  0  0
   -2.5880   19.9630  -26.7230 C   0  0  0  0  0  0  0  0  0  0  0  0
   -2.7660   20.2230  -28.2210 C   0  0  0  0  0  0  0  0  0  0  0  0
   -6.3140   23.2450  -31.0860 C   0  0  0  0  0  0  0  0  0  0  0  0
   -7.7080   23.2190  -31.2280 C   0  0  0  0  0  0  0  0  0  0  0  0
   -8.3540   22.0350  -31.5930 C   0  0  0  0  0  0  0  0  0  0  0  0
   -7.6120   20.8680  -31.8230 C   0  0  0  0  0  0  0  0  0  0  0  0
   -8.4270   19.3570  -32.2300 S   0  0  0  0  0  0  0  0  0  0  0  0
   -9.6230   19.6620  -33.0890 O   0  0  0  0  0  0  0  0  0  0  0  0
   -8.9170   18.7000  -30.9690 O   0  0  0  0  0  0  0  0  0  0  0  0
   -7.3710   18.2590  -33.0830 N   0  0  0  0  0  0  0  0  0  0  0  0
   -6.5620   17.4740  -32.1370 C   0  0  0  0  0  0  0  0  0  0  0  0
   -5.4760   16.6720  -32.8860 C   0  0  0  0  0  0  0  0  0  0  0  0
   -5.7130   16.6760  -34.2810 O   0  0  0  0  0  0  0  0  0  0  0  0
   -5.6110   17.9970  -34.7860 C   0  0  0  0  0  0  0  0  0  0  0  0
   -6.4920   18.9930  -34.0040 C   0  0  0  0  0  0  0  0  0  0  0  0
   -6.2170   20.9020  -31.7040 C   0  0  0  0  0  0  0  0  0  0  0  0
   -5.5720   22.0840  -31.3330 C   0  0  0  0  0  0  0  0  0  0  0  0
   -3.3750   24.6800  -31.5930 H   0  0  0  0  0  0  0  0  0  0  0  0
   -4.1587   21.9113  -29.8777 H   0  0  0  0  0  0  0  0  0  0  0  0
   -0.2490   24.1210  -27.6824 H   0  0  0  0  0  0  0  0  0  0  0  0
    0.2453   20.9408  -27.7003 H   0  0  0  0  0  0  0  0  0  0  0  0
    0.0389   22.1489  -26.3478 H   0  0  0  0  0  0  0  0  0  0  0  0
   -0.5651   19.5126  -26.1199 H   0  0  0  0  0  0  0  0  0  0  0  0
   -1.3965   20.8834  -25.2132 H   0  0  0  0  0  0  0  0  0  0  0  0
   -2.7058   18.8849  -26.5393 H   0  0  0  0  0  0  0  0  0  0  0  0
   -3.3481   20.5586  -26.1963 H   0  0  0  0  0  0  0  0  0  0  0  0
   -2.0648   19.5936  -28.7885 H   0  0  0  0  0  0  0  0  0  0  0  0
   -3.7974   19.9796  -28.5160 H   0  0  0  0  0  0  0  0  0  0  0  0
   -8.2948   24.1326  -31.0518 H   0  0  0  0  0  0  0  0  0  0  0  0
   -9.4486   22.0185  -31.7003 H   0  0  0  0  0  0  0  0  0  0  0  0
   -6.0790   18.1560  -31.4217 H   0  0  0  0  0  0  0  0  0  0  0  0
   -7.2202   16.7701  -31.6066 H   0  0  0  0  0  0  0  0  0  0  0  0
   -4.4934   17.1246  -32.6870 H   0  0  0  0  0  0  0  0  0  0  0  0
   -5.5009   15.6316  -32.5297 H   0  0  0  0  0  0  0  0  0  0  0  0
   -4.5625   18.3222  -34.7165 H   0  0  0  0  0  0  0  0  0  0  0  0
   -5.9603   17.9862  -35.8290 H   0  0  0  0  0  0  0  0  0  0  0  0
   -5.8496   19.6767  -33.4296 H   0  0  0  0  0  0  0  0  0  0  0  0
   -7.1057   19.5700  -34.7114 H   0  0  0  0  0  0  0  0  0  0  0  0
   -5.6274   19.9950  -31.9033 H   0  0  0  0  0  0  0  0  0  0  0  0
   -4.4766   22.1026  -31.2345 H   0  0  0  0  0  0  0  0  0  0  0  0
  1  2  2  0
  2  3  2  0
  2  4  1  0
  4  5  1  0
  5  6  2  0
  6  7  1  0
  7  8  2  0
  8  9  1  0
  9 10  2  0
 10 11  1  0
  8 12  1  0
 12 13  1  0
 13 14  1  0
 14 15  1  0
  2 16  1  0
 16 17  2  0
 17 18  1  0
 18 19  2  0
 19 20  1  0
 20 21  2  0
 20 22  2  0
 20 23  1  0
 23 24  1  0
 24 25  1  0
 25 26  1  0
 26 27  1  0
 27 28  1  0
 19 29  1  0
 29 30  2  0
 10  5  1  0
 30 16  1  0
 15  7  1  0
 28 23  1  0
  4 31  1  0
  6 32  1  0
  9 33  1  0
 12 34  1  0
 12 35  1  0
 13 36  1  0
 13 37  1  0
 14 38  1  0
 14 39  1  0
 15 40  1  0
 15 41  1  0
 17 42  1  0
 18 43  1  0
 24 44  1  0
 24 45  1  0
 25 46  1  0
 25 47  1  0
 27 48  1  0
 27 49  1  0
 28 50  1  0
 28 51  1  0
 29 52  1  0
 30 53  1  0
M  CHG  1  11  -1
M  END
>  <UniqueID>  (39) 
38

>  <SMILES>  (39) 
O=S(=O)(Nc1cc2c(cc1[O-])CCCC2)c1ccc(S(=O)(=O)N2CCOCC2)cc1

>  <Energy>  (39) 
67.2534433964204

>  <Genealogy>  (39) 
O=S(=O)(Nc1cc2c(cc1[O-])CCCC2)c1ccc(S(=O)(=O)N2CCOCC2)cc1 (protonated)
O=S(=O)(Nc1cc2c(cc1[O-])CCCC2)c1ccc(S(=O)(=O)N2CCOCC2)cc1 (3D coordinates assigned)
O=S(=O)(Nc1cc2c(cc1[O-])CCCC2)c1ccc(S(=O)(=O)N2CCOCC2)cc1 (nonaromatic ring conformer: 67.2534433964204 kcal/mol)

>  <smiles>  (39) 
O=S(=O)(Nc1cc2c(cc1O)CCCC2)c1ccc(S(=O)(=O)N2CCOCC2)cc1

>  <score_type>  (39) 
oracle

>  <origin>  (39) 
adgpu

>  <m_score__min__energy>  (39) 
-15.029999999999999

>  <m_primary>  (39) 
energy

$$$$
39:0
     RDKit          3D

 58 61  0  0  0  0  0  0  0  0999 V2000
   -6.2230   17.4000  -33.4450 C   0  0  0  0  0  0  0  0  0  0  0  0
   -6.5000   18.8160  -33.8410 C   0  0  0  0  0  0  0  0  0  0  0  0
   -6.1430   19.2120  -34.9830 O   0  0  0  0  0  0  0  0  0  0  0  0
   -7.1270   19.7320  -32.9230 N   0  0  0  0  0  0  0  0  0  0  0  0
   -6.5080   20.8620  -32.3190 C   0  0  0  0  0  0  0  0  0  0  0  0
   -5.1640   21.2420  -32.3880 C   0  0  0  0  0  0  0  0  0  0  0  0
   -4.7710   22.4390  -31.7690 C   0  0  0  0  0  0  0  0  0  0  0  0
   -5.7200   23.2460  -31.1070 C   0  0  0  0  0  0  0  0  0  0  0  0
   -5.2540   24.8070  -30.4350 S   0  0  0  0  0  0  0  0  0  0  0  0
   -5.7380   24.9050  -29.0110 O   0  0  0  0  0  0  0  0  0  0  0  0
   -5.9150   25.8900  -31.2450 O   0  0  0  0  0  0  0  0  0  0  0  0
   -3.5290   25.0560  -30.4630 N   0  0  0  0  0  0  0  0  0  0  0  0
   -2.5750   24.2960  -29.7100 C   0  0  0  0  0  0  0  0  0  0  0  0
   -2.6240   22.8930  -29.6640 C   0  0  0  0  0  0  0  0  0  0  0  0
   -1.6600   22.1690  -28.9470 C   0  0  0  0  0  0  0  0  0  0  0  0
   -1.6970   20.4010  -28.9420 S   0  0  0  0  0  0  0  0  0  0  0  0
   -2.1350   19.9120  -30.2980 O   0  0  0  0  0  0  0  0  0  0  0  0
   -2.7040   19.9270  -27.9310 O   0  0  0  0  0  0  0  0  0  0  0  0
   -0.1290   19.7260  -28.5630 N   0  0  0  0  0  0  0  0  0  0  0  0
    0.6490   19.4200  -29.7900 C   0  0  0  0  0  0  0  0  0  0  0  0
    0.6930   17.9190  -30.1140 C   0  0  0  0  0  0  0  0  0  0  0  0
    1.3110   17.1250  -28.9520 C   0  0  0  0  0  0  0  0  0  0  0  0
    0.9940   17.7370  -27.5750 C   0  0  0  0  0  0  0  0  0  0  0  0
   -0.2750   18.5910  -27.6250 C   0  0  0  0  0  0  0  0  0  0  0  0
   -0.6680   22.8610  -28.2350 C   0  0  0  0  0  0  0  0  0  0  0  0
   -0.6470   24.2590  -28.2340 C   0  0  0  0  0  0  0  0  0  0  0  0
   -1.5980   24.9760  -28.9650 C   0  0  0  0  0  0  0  0  0  0  0  0
   -1.5590   26.3690  -28.9640 O   0  0  0  0  0  0  0  0  0  0  0  0
   -7.0660   22.8410  -31.0550 C   0  0  0  0  0  0  0  0  0  0  0  0
   -7.4300   21.6450  -31.6740 C   0  0  0  0  0  0  0  0  0  0  0  0
   -8.8020   21.0860  -31.8250 C   0  0  0  0  0  0  0  0  0  0  0  0
   -8.5650   19.7660  -32.6120 C   0  0  2  0  0  0  0  0  0  0  0  0
   -8.9570   18.5450  -31.7650 C   0  0  0  0  0  0  0  0  0  0  0  0
   -6.2078   17.3224  -32.3478 H   0  0  0  0  0  0  0  0  0  0  0  0
   -7.0102   16.7459  -33.8480 H   0  0  0  0  0  0  0  0  0  0  0  0
   -5.2473   17.0907  -33.8480 H   0  0  0  0  0  0  0  0  0  0  0  0
   -4.4300   20.6159  -32.9164 H   0  0  0  0  0  0  0  0  0  0  0  0
   -3.7163   22.7497  -31.8003 H   0  0  0  0  0  0  0  0  0  0  0  0
   -3.4250   22.3575  -30.1947 H   0  0  0  0  0  0  0  0  0  0  0  0
    0.1886   19.9483  -30.6379 H   0  0  0  0  0  0  0  0  0  0  0  0
    1.6838   19.7492  -29.6142 H   0  0  0  0  0  0  0  0  0  0  0  0
   -0.3310   17.5588  -30.2919 H   0  0  0  0  0  0  0  0  0  0  0  0
    1.3135   17.7709  -31.0101 H   0  0  0  0  0  0  0  0  0  0  0  0
    0.9170   16.0983  -28.9793 H   0  0  0  0  0  0  0  0  0  0  0  0
    2.4033   17.1469  -29.0803 H   0  0  0  0  0  0  0  0  0  0  0  0
    0.8512   16.9254  -26.8464 H   0  0  0  0  0  0  0  0  0  0  0  0
    1.8349   18.3816  -27.2796 H   0  0  0  0  0  0  0  0  0  0  0  0
   -1.1160   17.9624  -27.9529 H   0  0  0  0  0  0  0  0  0  0  0  0
   -0.4577   18.9964  -26.6189 H   0  0  0  0  0  0  0  0  0  0  0  0
    0.0960   22.3012  -27.6755 H   0  0  0  0  0  0  0  0  0  0  0  0
    0.1200   24.7958  -27.6564 H   0  0  0  0  0  0  0  0  0  0  0  0
   -7.8168   23.4553  -30.5364 H   0  0  0  0  0  0  0  0  0  0  0  0
   -9.2555   20.8837  -30.8434 H   0  0  0  0  0  0  0  0  0  0  0  0
   -9.4934   21.7732  -32.3347 H   0  0  0  0  0  0  0  0  0  0  0  0
   -9.1791   19.7323  -33.5240 H   0  0  0  0  0  0  0  0  0  0  0  0
   -8.8758   18.7979  -30.6976 H   0  0  0  0  0  0  0  0  0  0  0  0
   -9.9930   18.2561  -31.9956 H   0  0  0  0  0  0  0  0  0  0  0  0
   -8.2827   17.7070  -31.9956 H   0  0  0  0  0  0  0  0  0  0  0  0
  1  2  1  0
  2  3  2  0
  2  4  1  0
  4  5  1  0
  5  6  2  0
  6  7  1  0
  7  8  2  0
  8  9  1  0
  9 10  2  0
  9 11  2  0
  9 12  1  0
 12 13  1  0
 13 14  2  0
 14 15  1  0
 15 16  1  0
 16 17  2  0
 16 18  2  0
 16 19  1  0
 19 20  1  0
 20 21  1  0
 21 22  1  0
 22 23  1  0
 23 24  1  0
 15 25  2  0
 25 26  1  0
 26 27  2  0
 27 28  1  0
  8 29  1  0
 29 30  2  0
 30 31  1  0
 31 32  1  0
 32 33  1  0
 32  4  1  0
 30  5  1  0
 27 13  1  0
 24 19  1  0
  1 34  1  0
  1 35  1  0
  1 36  1  0
  6 37  1  0
  7 38  1  0
 14 39  1  0
 20 40  1  0
 20 41  1  0
 21 42  1  0
 21 43  1  0
 22 44  1  0
 22 45  1  0
 23 46  1  0
 23 47  1  0
 24 48  1  0
 24 49  1  0
 25 50  1  0
 26 51  1  0
 29 52  1  0
 31 53  1  0
 31 54  1  0
 32 55  1  6
 33 56  1  0
 33 57  1  0
 33 58  1  0
M  CHG  2  12  -1  28  -1
M  END
>  <UniqueID>  (40) 
39

>  <SMILES>  (40) 
CC(=O)N1c2ccc(S(=O)(=O)[N-]c3cc(S(=O)(=O)N4CCCCC4)ccc3[O-])cc2C[C@@H]1C

>  <Energy>  (40) 
84.86356884747292

>  <Genealogy>  (40) 
CC(=O)N1c2ccc(S(=O)(=O)[N-]c3cc(S(=O)(=O)N4CCCCC4)ccc3[O-])cc2CC1C (protonated)
CC(=O)N1c2ccc(S(=O)(=O)[N-]c3cc(S(=O)(=O)N4CCCCC4)ccc3[O-])cc2C[C@@H]1C (chirality)
CC(=O)N1c2ccc(S(=O)(=O)[N-]c3cc(S(=O)(=O)N4CCCCC4)ccc3[O-])cc2C[C@@H]1C (3D coordinates assigned)
CC(=O)N1c2ccc(S(=O)(=O)[N-]c3cc(S(=O)(=O)N4CCCCC4)ccc3[O-])cc2C[C@@H]1C (nonaromatic ring conformer: 84.86356884747292 kcal/mol)

>  <smiles>  (40) 
CC(=O)N1c2ccc(S(=O)(=O)Nc3cc(S(=O)(=O)N4CCCCC4)ccc3O)cc2CC1C

>  <score_type>  (40) 
oracle

>  <origin>  (40) 
adgpu

>  <m_score__min__energy>  (40) 
-16.140000000000001

>  <m_primary>  (40) 
energy

$$$$
40:0
     RDKit          3D

 48 50  0  0  0  0  0  0  0  0999 V2000
   -5.6900   26.0450  -29.9710 O   0  0  0  0  0  0  0  0  0  0  0  0
   -5.0940   25.0390  -30.4440 C   0  0  0  0  0  0  0  0  0  0  0  0
   -3.6620   25.0310  -30.5080 N   0  0  0  0  0  0  0  0  0  0  0  0
   -2.8030   24.9040  -29.3320 C   0  0  0  0  0  0  0  0  0  0  0  0
   -2.9340   23.5090  -28.7090 C   0  0  0  0  0  0  0  0  0  0  0  0
   -2.7450   22.4120  -29.7260 C   0  0  0  0  0  0  0  0  0  0  0  0
   -1.6800   22.4640  -30.6390 C   0  0  0  0  0  0  0  0  0  0  0  0
   -1.5390   21.4740  -31.6150 C   0  0  0  0  0  0  0  0  0  0  0  0
   -2.4650   20.4240  -31.6980 C   0  0  0  0  0  0  0  0  0  0  0  0
   -2.2950   19.1750  -32.9340 S   0  0  0  0  0  0  0  0  0  0  0  0
   -1.1950   18.2300  -32.5350 O   0  0  0  0  0  0  0  0  0  0  0  0
   -1.9040   19.8180  -34.2360 O   0  0  0  0  0  0  0  0  0  0  0  0
   -3.7780   18.2740  -33.1530 N   0  0  0  0  0  0  0  0  0  0  0  0
   -4.8410   19.1530  -33.6720 C   0  0  0  0  0  0  0  0  0  0  0  0
   -5.9930   18.3160  -34.2550 C   0  0  0  0  0  0  0  0  0  0  0  0
   -5.6110   17.4250  -35.2980 O   0  0  0  0  0  0  0  0  0  0  0  0
   -4.2140   17.1900  -35.3670 C   0  0  0  0  0  0  0  0  0  0  0  0
   -3.5670   17.0640  -33.9780 C   0  0  0  0  0  0  0  0  0  0  0  0
   -3.5280   20.3700  -30.7850 C   0  0  0  0  0  0  0  0  0  0  0  0
   -3.6690   21.3580  -29.8080 C   0  0  0  0  0  0  0  0  0  0  0  0
   -5.8810   23.8760  -30.9210 C   0  0  0  0  0  0  0  0  0  0  0  0
   -7.2070   23.7110  -30.4740 C   0  0  0  0  0  0  0  0  0  0  0  0
   -7.9830   22.6400  -30.9220 C   0  0  0  0  0  0  0  0  0  0  0  0
   -7.4500   21.7200  -31.8250 C   0  0  0  0  0  0  0  0  0  0  0  0
   -6.1390   21.8660  -32.2790 C   0  0  0  0  0  0  0  0  0  0  0  0
   -5.3480   22.9380  -31.8360 C   0  0  0  0  0  0  0  0  0  0  0  0
   -4.0470   23.0730  -32.3190 O   0  0  0  0  0  0  0  0  0  0  0  0
   -1.7571   25.0689  -29.6301 H   0  0  0  0  0  0  0  0  0  0  0  0
   -3.1120   25.6526  -28.5876 H   0  0  0  0  0  0  0  0  0  0  0  0
   -2.1722   23.3988  -27.9232 H   0  0  0  0  0  0  0  0  0  0  0  0
   -3.9498   23.4167  -28.2970 H   0  0  0  0  0  0  0  0  0  0  0  0
   -0.9531   23.2879  -30.5859 H   0  0  0  0  0  0  0  0  0  0  0  0
   -0.6974   21.5185  -32.3219 H   0  0  0  0  0  0  0  0  0  0  0  0
   -5.2259   19.7785  -32.8531 H   0  0  0  0  0  0  0  0  0  0  0  0
   -4.4227   19.7869  -34.4677 H   0  0  0  0  0  0  0  0  0  0  0  0
   -6.4317   17.7217  -33.4399 H   0  0  0  0  0  0  0  0  0  0  0  0
   -6.7023   19.0297  -34.6995 H   0  0  0  0  0  0  0  0  0  0  0  0
   -4.0407   16.2565  -35.9225 H   0  0  0  0  0  0  0  0  0  0  0  0
   -3.7552   18.0531  -35.8715 H   0  0  0  0  0  0  0  0  0  0  0  0
   -4.0071   16.1998  -33.4589 H   0  0  0  0  0  0  0  0  0  0  0  0
   -2.4837   16.9357  -34.1197 H   0  0  0  0  0  0  0  0  0  0  0  0
   -4.2542   19.5456  -30.8386 H   0  0  0  0  0  0  0  0  0  0  0  0
   -4.5085   21.3102  -29.0989 H   0  0  0  0  0  0  0  0  0  0  0  0
   -7.6357   24.4339  -29.7643 H   0  0  0  0  0  0  0  0  0  0  0  0
   -9.0158   22.5217  -30.5624 H   0  0  0  0  0  0  0  0  0  0  0  0
   -8.0639   20.8788  -32.1793 H   0  0  0  0  0  0  0  0  0  0  0  0
   -5.7222   21.1363  -32.9888 H   0  0  0  0  0  0  0  0  0  0  0  0
   -3.4210   23.7890  -31.9690 H   0  0  0  0  0  0  0  0  0  0  0  0
  1  2  2  0
  2  3  1  0
  3  4  1  0
  4  5  1  0
  5  6  1  0
  6  7  2  0
  7  8  1  0
  8  9  2  0
  9 10  1  0
 10 11  2  0
 10 12  2  0
 10 13  1  0
 13 14  1  0
 14 15  1  0
 15 16  1  0
 16 17  1  0
 17 18  1  0
  9 19  1  0
 19 20  2  0
  2 21  1  0
 21 22  2  0
 22 23  1  0
 23 24  2  0
 24 25  1  0
 25 26  2  0
 26 27  1  0
 20  6  1  0
 26 21  1  0
 18 13  1  0
  4 28  1  0
  4 29  1  0
  5 30  1  0
  5 31  1  0
  7 32  1  0
  8 33  1  0
 14 34  1  0
 14 35  1  0
 15 36  1  0
 15 37  1  0
 17 38  1  0
 17 39  1  0
 18 40  1  0
 18 41  1  0
 19 42  1  0
 20 43  1  0
 22 44  1  0
 23 45  1  0
 24 46  1  0
 25 47  1  0
 27 48  1  0
M  CHG  1   3  -1
M  END
>  <UniqueID>  (41) 
40

>  <SMILES>  (41) 
O=C([N-]CCc1ccc(S(=O)(=O)N2CCOCC2)cc1)c1ccccc1O

>  <Energy>  (41) 
55.77542397460771

>  <Genealogy>  (41) 
O=C([N-]CCc1ccc(S(=O)(=O)N2CCOCC2)cc1)c1ccccc1O (protonated)
O=C([N-]CCc1ccc(S(=O)(=O)N2CCOCC2)cc1)c1ccccc1O (3D coordinates assigned)
O=C([N-]CCc1ccc(S(=O)(=O)N2CCOCC2)cc1)c1ccccc1O (nonaromatic ring conformer: 55.77542397460771 kcal/mol)

>  <smiles>  (41) 
O=C(NCCc1ccc(S(=O)(=O)N2CCOCC2)cc1)c1ccccc1O

>  <score_type>  (41) 
oracle

>  <origin>  (41) 
adgpu

>  <m_score__min__energy>  (41) 
-11.56

>  <m_primary>  (41) 
energy

$$$$
41:0
     RDKit          3D

 41 44  0  0  0  0  0  0  0  0999 V2000
   -6.4610   25.7980  -30.0240 O   0  0  0  0  0  0  0  0  0  0  0  0
   -5.2720   24.9220  -30.2980 S   0  0  0  0  0  0  0  0  0  0  0  0
   -4.3190   25.6680  -31.1920 O   0  0  0  0  0  0  0  0  0  0  0  0
   -4.4820   24.5490  -28.8000 N   0  0  0  0  0  0  0  0  0  0  0  0
   -3.3060   23.7400  -28.6590 C   0  0  0  0  0  0  0  0  0  0  0  0
   -3.3730   22.3940  -28.2590 C   0  0  0  0  0  0  0  0  0  0  0  0
   -2.2050   21.6290  -28.1280 C   0  0  0  0  0  0  0  0  0  0  0  0
   -0.9500   22.2260  -28.3680 C   0  0  0  0  0  0  0  0  0  0  0  0
   -0.8880   23.5630  -28.7850 C   0  0  0  0  0  0  0  0  0  0  0  0
   -2.0560   24.3150  -28.9250 C   0  0  0  0  0  0  0  0  0  0  0  0
   -1.9700   25.6410  -29.3360 O   0  0  0  0  0  0  0  0  0  0  0  0
    0.3190   21.4090  -28.2960 C   0  0  0  0  0  0  0  0  0  0  0  0
    0.1650   20.2030  -27.4680 N   0  0  0  0  0  0  0  0  0  0  0  0
   -1.0100   19.4290  -27.8820 C   0  0  0  0  0  0  0  0  0  0  0  0
   -2.3000   20.2130  -27.6250 C   0  0  0  0  0  0  0  0  0  0  0  0
   -5.8240   23.4380  -31.0700 C   0  0  0  0  0  0  0  0  0  0  0  0
   -4.9350   22.6420  -31.8100 C   0  0  0  0  0  0  0  0  0  0  0  0
   -5.3830   21.4630  -32.4160 C   0  0  0  0  0  0  0  0  0  0  0  0
   -6.7180   21.0760  -32.2820 C   0  0  0  0  0  0  0  0  0  0  0  0
   -7.6130   21.8780  -31.5620 C   0  0  0  0  0  0  0  0  0  0  0  0
   -7.1650   23.0480  -30.9430 C   0  0  0  0  0  0  0  0  0  0  0  0
   -8.9530   21.4890  -31.4760 O   0  0  0  0  0  0  0  0  0  0  0  0
   -9.4820   20.4740  -32.3320 C   0  0  0  0  0  0  0  0  0  0  0  0
   -8.4560   19.3480  -32.5180 C   0  0  0  0  0  0  0  0  0  0  0  0
   -7.1800   19.8930  -32.8640 O   0  0  0  0  0  0  0  0  0  0  0  0
   -4.3506   21.9366  -28.0468 H   0  0  0  0  0  0  0  0  0  0  0  0
    0.0872   24.0226  -29.0033 H   0  0  0  0  0  0  0  0  0  0  0  0
    0.6008   21.1042  -29.3147 H   0  0  0  0  0  0  0  0  0  0  0  0
    1.0950   22.0361  -27.8329 H   0  0  0  0  0  0  0  0  0  0  0  0
    0.0500   20.4930  -26.4670 H   0  0  0  0  0  0  0  0  0  0  0  0
   -0.9331   19.2045  -28.9561 H   0  0  0  0  0  0  0  0  0  0  0  0
   -1.0419   18.4986  -27.2960 H   0  0  0  0  0  0  0  0  0  0  0  0
   -3.1315   19.7081  -28.1384 H   0  0  0  0  0  0  0  0  0  0  0  0
   -2.4678   20.2473  -26.5384 H   0  0  0  0  0  0  0  0  0  0  0  0
   -3.8830   22.9462  -31.9137 H   0  0  0  0  0  0  0  0  0  0  0  0
   -4.6849   20.8422  -32.9968 H   0  0  0  0  0  0  0  0  0  0  0  0
   -7.8638   23.6626  -30.3565 H   0  0  0  0  0  0  0  0  0  0  0  0
  -10.3972   20.0608  -31.8828 H   0  0  0  0  0  0  0  0  0  0  0  0
   -9.7109   20.9159  -33.3130 H   0  0  0  0  0  0  0  0  0  0  0  0
   -8.3661   18.7801  -31.5802 H   0  0  0  0  0  0  0  0  0  0  0  0
   -8.7942   18.6853  -33.3282 H   0  0  0  0  0  0  0  0  0  0  0  0
  1  2  2  0
  2  3  2  0
  2  4  1  0
  4  5  1  0
  5  6  2  0
  6  7  1  0
  7  8  2  0
  8  9  1  0
  9 10  2  0
 10 11  1  0
  8 12  1  0
 12 13  1  0
 13 14  1  0
 14 15  1  0
  2 16  1  0
 16 17  2  0
 17 18  1  0
 18 19  2  0
 19 20  1  0
 20 21  2  0
 20 22  1  0
 22 23  1  0
 23 24  1  0
 24 25  1  0
 10  5  1  0
 21 16  1  0
 15  7  1  0
 25 19  1  0
  6 26  1  0
  9 27  1  0
 12 28  1  0
 12 29  1  0
 13 30  1  0
 14 31  1  0
 14 32  1  0
 15 33  1  0
 15 34  1  0
 17 35  1  0
 18 36  1  0
 21 37  1  0
 23 38  1  0
 23 39  1  0
 24 40  1  0
 24 41  1  0
M  CHG  2   4  -1  11  -1
M  END
>  <UniqueID>  (42) 
41

>  <SMILES>  (42) 
O=S(=O)([N-]c1cc2c(cc1[O-])CNCC2)c1ccc2c(c1)OCCO2

>  <Energy>  (42) 
50.171079804887746

>  <Genealogy>  (42) 
O=S(=O)([N-]c1cc2c(cc1[O-])CNCC2)c1ccc2c(c1)OCCO2 (protonated)
O=S(=O)([N-]c1cc2c(cc1[O-])CNCC2)c1ccc2c(c1)OCCO2 (3D coordinates assigned)
O=S(=O)([N-]c1cc2c(cc1[O-])CNCC2)c1ccc2c(c1)OCCO2 (nonaromatic ring conformer: 50.171079804887746 kcal/mol)

>  <smiles>  (42) 
O=S(=O)(Nc1cc2c(cc1O)CNCC2)c1ccc2c(c1)OCCO2

>  <score_type>  (42) 
oracle

>  <origin>  (42) 
adgpu

>  <m_score__min__energy>  (42) 
-13.359999999999999

>  <m_primary>  (42) 
energy

$$$$
42:0
     RDKit          3D

 33 35  0  0  0  0  0  0  0  0999 V2000
   -1.1430   18.3350  -27.0830 O   0  0  0  0  0  0  0  0  0  0  0  0
   -1.0560   19.4970  -27.5580 C   0  0  0  0  0  0  0  0  0  0  0  0
    0.2040   19.9450  -28.2410 C   0  0  0  0  0  0  0  0  0  0  0  0
    0.4290   21.4520  -28.0430 C   0  0  0  0  0  0  0  0  0  0  0  0
   -0.8230   22.2530  -28.3140 C   0  0  0  0  0  0  0  0  0  0  0  0
   -0.7340   23.5760  -28.7640 C   0  0  0  0  0  0  0  0  0  0  0  0
   -1.8870   24.3540  -28.9220 C   0  0  0  0  0  0  0  0  0  0  0  0
   -1.7410   25.6720  -29.3350 O   0  0  0  0  0  0  0  0  0  0  0  0
   -3.1570   23.8050  -28.6310 C   0  0  0  0  0  0  0  0  0  0  0  0
   -4.3870   24.5290  -28.7870 N   0  0  0  0  0  0  0  0  0  0  0  0
   -5.1580   24.9710  -30.2780 S   0  0  0  0  0  0  0  0  0  0  0  0
   -6.2800   25.9240  -29.9820 O   0  0  0  0  0  0  0  0  0  0  0  0
   -4.1590   25.6550  -31.1700 O   0  0  0  0  0  0  0  0  0  0  0  0
   -5.8340   23.5460  -31.0640 C   0  0  0  0  0  0  0  0  0  0  0  0
   -7.2190   23.3300  -31.0490 C   0  0  0  0  0  0  0  0  0  0  0  0
   -7.7600   22.1970  -31.6650 C   0  0  0  0  0  0  0  0  0  0  0  0
   -6.9210   21.2810  -32.3060 C   0  0  0  0  0  0  0  0  0  0  0  0
   -5.5390   21.4970  -32.3300 C   0  0  0  0  0  0  0  0  0  0  0  0
   -4.9950   22.6270  -31.7110 C   0  0  0  0  0  0  0  0  0  0  0  0
   -3.2340   22.4930  -28.1430 C   0  0  0  0  0  0  0  0  0  0  0  0
   -2.0820   21.7170  -27.9910 C   0  0  0  0  0  0  0  0  0  0  0  0
   -2.1870   20.3700  -27.5210 N   0  0  0  0  0  0  0  0  0  0  0  0
    1.0578   19.3948  -27.8186 H   0  0  0  0  0  0  0  0  0  0  0  0
    0.1111   19.7421  -29.3181 H   0  0  0  0  0  0  0  0  0  0  0  0
    0.7465   21.6300  -27.0050 H   0  0  0  0  0  0  0  0  0  0  0  0
    1.2004   21.7764  -28.7570 H   0  0  0  0  0  0  0  0  0  0  0  0
    0.2508   24.0079  -28.9954 H   0  0  0  0  0  0  0  0  0  0  0  0
   -7.8818   24.0533  -30.5516 H   0  0  0  0  0  0  0  0  0  0  0  0
   -8.8465   22.0266  -31.6451 H   0  0  0  0  0  0  0  0  0  0  0  0
   -7.3472   20.3906  -32.7914 H   0  0  0  0  0  0  0  0  0  0  0  0
   -4.8793   20.7771  -32.8364 H   0  0  0  0  0  0  0  0  0  0  0  0
   -3.9081   22.7952  -31.7316 H   0  0  0  0  0  0  0  0  0  0  0  0
   -4.2135   22.0692  -27.8765 H   0  0  0  0  0  0  0  0  0  0  0  0
  1  2  2  0
  2  3  1  0
  3  4  1  0
  4  5  1  0
  5  6  2  0
  6  7  1  0
  7  8  1  0
  7  9  2  0
  9 10  1  0
 10 11  1  0
 11 12  2  0
 11 13  2  0
 11 14  1  0
 14 15  2  0
 15 16  1  0
 16 17  2  0
 17 18  1  0
 18 19  2  0
  9 20  1  0
 20 21  2  0
 21 22  1  0
 22  2  1  0
 21  5  1  0
 19 14  1  0
  3 23  1  0
  3 24  1  0
  4 25  1  0
  4 26  1  0
  6 27  1  0
 15 28  1  0
 16 29  1  0
 17 30  1  0
 18 31  1  0
 19 32  1  0
 20 33  1  0
M  CHG  3   8  -1  10  -1  22  -1
M  END
>  <UniqueID>  (43) 
42

>  <SMILES>  (43) 
O=C1CCc2cc([O-])c([N-]S(=O)(=O)c3ccccc3)cc2[N-]1

>  <Energy>  (43) 
42.1375198739224

>  <Genealogy>  (43) 
O=C1CCc2cc([O-])c([N-]S(=O)(=O)c3ccccc3)cc2[N-]1 (protonated)
O=C1CCc2cc([O-])c([N-]S(=O)(=O)c3ccccc3)cc2[N-]1 (3D coordinates assigned)
O=C1CCc2cc([O-])c([N-]S(=O)(=O)c3ccccc3)cc2[N-]1 (nonaromatic ring conformer: 42.1375198739224 kcal/mol)

>  <smiles>  (43) 
O=C1CCc2cc(O)c(NS(=O)(=O)c3ccccc3)cc2N1

>  <score_type>  (43) 
oracle

>  <origin>  (43) 
adgpu

>  <m_score__min__energy>  (43) 
-12.49

>  <m_primary>  (43) 
energy

$$$$
43:0
     RDKit          3D

 58 61  0  0  0  0  0  0  0  0999 V2000
    3.2300   16.1210  -28.4410 C   0  0  0  0  0  0  0  0  0  0  0  0
    2.5110   17.0050  -29.4170 C   0  0  0  0  0  0  0  0  0  0  0  0
    2.8570   16.9550  -30.6290 O   0  0  0  0  0  0  0  0  0  0  0  0
    1.4380   17.8850  -29.0060 N   0  0  0  0  0  0  0  0  0  0  0  0
    1.0080   17.9630  -27.6000 C   0  0  0  0  0  0  0  0  0  0  0  0
   -0.5010   18.1950  -27.5070 C   0  0  0  0  0  0  0  0  0  0  0  0
   -0.8950   19.2940  -28.3920 N   0  0  0  0  0  0  0  0  0  0  0  0
   -1.9960   20.1430  -28.0230 C   0  0  0  0  0  0  0  0  0  0  0  0
   -2.9710   19.6590  -27.3850 O   0  0  0  0  0  0  0  0  0  0  0  0
   -1.9960   21.5810  -28.3750 C   0  0  0  0  0  0  0  0  0  0  0  0
   -0.7960   22.2310  -28.7080 C   0  0  0  0  0  0  0  0  0  0  0  0
   -0.7950   23.5940  -29.0170 C   0  0  0  0  0  0  0  0  0  0  0  0
   -1.9900   24.3200  -29.0010 C   0  0  0  0  0  0  0  0  0  0  0  0
   -1.9730   25.6730  -29.3170 O   0  0  0  0  0  0  0  0  0  0  0  0
   -3.1960   23.6790  -28.6800 C   0  0  0  0  0  0  0  0  0  0  0  0
   -4.4210   24.4120  -28.6190 N   0  0  0  0  0  0  0  0  0  0  0  0
   -5.2110   24.8700  -30.0890 S   0  0  0  0  0  0  0  0  0  0  0  0
   -4.2660   25.6860  -30.9260 O   0  0  0  0  0  0  0  0  0  0  0  0
   -6.4240   25.7030  -29.7900 O   0  0  0  0  0  0  0  0  0  0  0  0
   -5.6740   23.4140  -30.9650 C   0  0  0  0  0  0  0  0  0  0  0  0
   -4.6960   22.5390  -31.4540 C   0  0  0  0  0  0  0  0  0  0  0  0
   -5.0680   21.3640  -32.1120 C   0  0  0  0  0  0  0  0  0  0  0  0
   -6.4240   21.0390  -32.2570 C   0  0  0  0  0  0  0  0  0  0  0  0
   -7.4070   21.9090  -31.7630 C   0  0  0  0  0  0  0  0  0  0  0  0
   -7.0310   23.0980  -31.1220 C   0  0  0  0  0  0  0  0  0  0  0  0
   -8.8530   21.5430  -31.9510 C   0  0  0  0  0  0  0  0  0  0  0  0
   -9.0650   20.0580  -31.6230 C   0  0  0  0  0  0  0  0  0  0  0  0
   -8.0490   19.1050  -32.3070 C   0  0  0  0  0  0  0  0  0  0  0  0
   -6.8570   19.8010  -32.9960 C   0  0  0  0  0  0  0  0  0  0  0  0
   -3.1960   22.3100  -28.3840 C   0  0  0  0  0  0  0  0  0  0  0  0
   -0.4900   19.2070  -29.7970 C   0  0  0  0  0  0  0  0  0  0  0  0
    1.0170   18.9760  -29.8990 C   0  0  0  0  0  0  0  0  0  0  0  0
    2.9800   16.4284  -27.4148 H   0  0  0  0  0  0  0  0  0  0  0  0
    2.9218   15.0765  -28.5963 H   0  0  0  0  0  0  0  0  0  0  0  0
    4.3153   16.2100  -28.5963 H   0  0  0  0  0  0  0  0  0  0  0  0
    1.2601   17.0201  -27.0927 H   0  0  0  0  0  0  0  0  0  0  0  0
    1.5253   18.8061  -27.1188 H   0  0  0  0  0  0  0  0  0  0  0  0
   -1.0296   17.2782  -27.8073 H   0  0  0  0  0  0  0  0  0  0  0  0
   -0.7630   18.4546  -26.4707 H   0  0  0  0  0  0  0  0  0  0  0  0
    0.1469   21.6648  -28.7256 H   0  0  0  0  0  0  0  0  0  0  0  0
    0.1489   24.0973  -29.2736 H   0  0  0  0  0  0  0  0  0  0  0  0
   -4.5930   25.0140  -27.7840 H   0  0  0  0  0  0  0  0  0  0  0  0
   -3.6307   22.7778  -31.3195 H   0  0  0  0  0  0  0  0  0  0  0  0
   -4.2960   20.6931  -32.5168 H   0  0  0  0  0  0  0  0  0  0  0  0
   -7.8020   23.7841  -30.7416 H   0  0  0  0  0  0  0  0  0  0  0  0
   -9.4741   22.1563  -31.2816 H   0  0  0  0  0  0  0  0  0  0  0  0
   -9.1392   21.7265  -32.9972 H   0  0  0  0  0  0  0  0  0  0  0  0
   -8.9795   19.9295  -30.5339 H   0  0  0  0  0  0  0  0  0  0  0  0
  -10.0599   19.7881  -32.0067 H   0  0  0  0  0  0  0  0  0  0  0  0
   -7.6493   18.4260  -31.5394 H   0  0  0  0  0  0  0  0  0  0  0  0
   -8.6037   18.5888  -33.1044 H   0  0  0  0  0  0  0  0  0  0  0  0
   -6.0115   19.0986  -33.0384 H   0  0  0  0  0  0  0  0  0  0  0  0
   -7.1754   20.1012  -34.0052 H   0  0  0  0  0  0  0  0  0  0  0  0
   -4.1445   21.8014  -28.1566 H   0  0  0  0  0  0  0  0  0  0  0  0
   -1.0190   18.3702  -30.2764 H   0  0  0  0  0  0  0  0  0  0  0  0
   -0.7433   20.1506  -30.3024 H   0  0  0  0  0  0  0  0  0  0  0  0
    1.2725   18.7127  -30.9360 H   0  0  0  0  0  0  0  0  0  0  0  0
    1.5370   19.8981  -29.6000 H   0  0  0  0  0  0  0  0  0  0  0  0
  1  2  1  0
  2  3  2  0
  2  4  1  0
  4  5  1  0
  5  6  1  0
  6  7  1  0
  7  8  1  0
  8  9  2  0
  8 10  1  0
 10 11  2  0
 11 12  1  0
 12 13  2  0
 13 14  1  0
 13 15  1  0
 15 16  1  0
 16 17  1  0
 17 18  2  0
 17 19  2  0
 17 20  1  0
 20 21  2  0
 21 22  1  0
 22 23  2  0
 23 24  1  0
 24 25  2  0
 24 26  1  0
 26 27  1  0
 27 28  1  0
 28 29  1  0
 15 30  2  0
  7 31  1  0
 31 32  1  0
 32  4  1  0
 30 10  1  0
 25 20  1  0
 29 23  1  0
  1 33  1  0
  1 34  1  0
  1 35  1  0
  5 36  1  0
  5 37  1  0
  6 38  1  0
  6 39  1  0
 11 40  1  0
 12 41  1  0
 16 42  1  0
 21 43  1  0
 22 44  1  0
 25 45  1  0
 26 46  1  0
 26 47  1  0
 27 48  1  0
 27 49  1  0
 28 50  1  0
 28 51  1  0
 29 52  1  0
 29 53  1  0
 30 54  1  0
 31 55  1  0
 31 56  1  0
 32 57  1  0
 32 58  1  0
M  CHG  1  14  -1
M  END
>  <UniqueID>  (44) 
43

>  <SMILES>  (44) 
CC(=O)N1CCN(C(=O)c2ccc([O-])c(NS(=O)(=O)c3ccc4c(c3)CCCC4)c2)CC1

>  <Energy>  (44) 
69.25948175187139

>  <Genealogy>  (44) 
CC(=O)N1CCN(C(=O)c2ccc([O-])c(NS(=O)(=O)c3ccc4c(c3)CCCC4)c2)CC1 (protonated)
CC(=O)N1CCN(C(=O)c2ccc([O-])c(NS(=O)(=O)c3ccc4c(c3)CCCC4)c2)CC1 (3D coordinates assigned)
CC(=O)N1CCN(C(=O)c2ccc([O-])c(NS(=O)(=O)c3ccc4c(c3)CCCC4)c2)CC1 (nonaromatic ring conformer: 69.25948175187139 kcal/mol)

>  <smiles>  (44) 
CC(=O)N1CCN(C(=O)c2ccc(O)c(NS(=O)(=O)c3ccc4c(c3)CCCC4)c2)CC1

>  <score_type>  (44) 
oracle

>  <origin>  (44) 
adgpu

>  <m_score__min__energy>  (44) 
-14.49

>  <m_primary>  (44) 
energy

$$$$
44:0
     RDKit          3D

 61 64  0  0  0  0  0  0  0  0999 V2000
   -3.3520   15.4300  -35.5360 C   0  0  0  0  0  0  0  0  0  0  0  0
   -4.1610   16.2780  -34.6370 N   0  0  0  0  0  0  0  0  0  0  0  0
   -5.2920   15.5010  -34.0710 C   0  0  0  0  0  0  0  0  0  0  0  0
   -6.4410   16.3890  -33.5350 C   0  0  0  0  0  0  0  0  0  0  0  0
   -6.0050   17.7790  -33.3100 N   0  0  0  0  0  0  0  0  0  0  0  0
   -6.2850   18.4380  -32.0570 C   0  0  0  0  0  0  0  0  0  0  0  0
   -6.3030   17.7630  -30.9890 O   0  0  0  0  0  0  0  0  0  0  0  0
   -6.5610   19.8940  -31.9950 C   0  0  0  0  0  0  0  0  0  0  0  0
   -7.8850   20.3600  -31.8960 C   0  0  0  0  0  0  0  0  0  0  0  0
   -8.1510   21.7320  -31.7780 C   0  0  0  0  0  0  0  0  0  0  0  0
   -7.0980   22.6510  -31.7700 C   0  0  0  0  0  0  0  0  0  0  0  0
   -7.3770   24.0130  -31.6340 O   0  0  0  0  0  0  0  0  0  0  0  0
   -5.7690   22.2060  -31.9120 C   0  0  0  0  0  0  0  0  0  0  0  0
   -4.7110   23.1730  -31.8530 N   0  0  0  0  0  0  0  0  0  0  0  0
   -4.2170   24.0710  -30.4520 S   0  0  0  0  0  0  0  0  0  0  0  0
   -4.0560   25.5180  -30.8350 O   0  0  0  0  0  0  0  0  0  0  0  0
   -5.2430   23.9930  -29.3540 O   0  0  0  0  0  0  0  0  0  0  0  0
   -2.6590   23.4490  -29.9020 C   0  0  0  0  0  0  0  0  0  0  0  0
   -2.3390   22.0900  -30.0680 C   0  0  0  0  0  0  0  0  0  0  0  0
   -1.0890   21.5990  -29.6480 C   0  0  0  0  0  0  0  0  0  0  0  0
   -0.6710   19.8960  -29.8510 S   0  0  0  0  0  0  0  0  0  0  0  0
   -1.2330   19.1170  -28.6890 O   0  0  0  0  0  0  0  0  0  0  0  0
    0.8280   19.7240  -29.8770 O   0  0  0  0  0  0  0  0  0  0  0  0
   -1.3620   19.3100  -31.3450 N   0  0  0  0  0  0  0  0  0  0  0  0
   -1.3070   20.3620  -32.3730 C   0  0  0  0  0  0  0  0  0  0  0  0
   -1.9050   19.8370  -33.6980 C   0  0  0  0  0  0  0  0  0  0  0  0
   -2.1900   18.4450  -33.6500 O   0  0  0  0  0  0  0  0  0  0  0  0
   -1.0340   17.7330  -33.2400 C   0  0  0  0  0  0  0  0  0  0  0  0
   -0.6350   18.1070  -31.7970 C   0  0  0  0  0  0  0  0  0  0  0  0
   -0.1580   22.4750  -29.0670 C   0  0  0  0  0  0  0  0  0  0  0  0
   -0.4720   23.8280  -28.9070 C   0  0  0  0  0  0  0  0  0  0  0  0
   -1.7180   24.3190  -29.3250 C   0  0  0  0  0  0  0  0  0  0  0  0
   -2.0060   25.6730  -29.1690 O   0  0  0  0  0  0  0  0  0  0  0  0
   -5.5080   20.8240  -32.0310 C   0  0  0  0  0  0  0  0  0  0  0  0
   -5.2070   18.4690  -34.3360 C   0  0  0  0  0  0  0  0  0  0  0  0
   -4.6390   17.4740  -35.3530 C   0  0  0  0  0  0  0  0  0  0  0  0
   -2.7155   14.7628  -34.9363 H   0  0  0  0  0  0  0  0  0  0  0  0
   -4.0189   14.8279  -36.1706 H   0  0  0  0  0  0  0  0  0  0  0  0
   -2.7192   16.0678  -36.1706 H   0  0  0  0  0  0  0  0  0  0  0  0
   -5.6949   14.8475  -34.8588 H   0  0  0  0  0  0  0  0  0  0  0  0
   -4.8983   14.9295  -33.2176 H   0  0  0  0  0  0  0  0  0  0  0  0
   -7.2618   16.3883  -34.2674 H   0  0  0  0  0  0  0  0  0  0  0  0
   -6.7688   15.9751  -32.5700 H   0  0  0  0  0  0  0  0  0  0  0  0
   -8.7184   19.6422  -31.9113 H   0  0  0  0  0  0  0  0  0  0  0  0
   -9.1892   22.0851  -31.6917 H   0  0  0  0  0  0  0  0  0  0  0  0
   -3.0689   21.4077  -30.5281 H   0  0  0  0  0  0  0  0  0  0  0  0
   -1.8844   21.2343  -32.0330 H   0  0  0  0  0  0  0  0  0  0  0  0
   -0.2586   20.6507  -32.5390 H   0  0  0  0  0  0  0  0  0  0  0  0
   -2.8380   20.3817  -33.9048 H   0  0  0  0  0  0  0  0  0  0  0  0
   -1.1593   19.9996  -34.4902 H   0  0  0  0  0  0  0  0  0  0  0  0
   -1.2410   16.6537  -33.2874 H   0  0  0  0  0  0  0  0  0  0  0  0
   -0.2040   17.9969  -33.9119 H   0  0  0  0  0  0  0  0  0  0  0  0
   -0.8757   17.2679  -31.1277 H   0  0  0  0  0  0  0  0  0  0  0  0
    0.4442   18.3189  -31.7742 H   0  0  0  0  0  0  0  0  0  0  0  0
    0.8205   22.0959  -28.7370 H   0  0  0  0  0  0  0  0  0  0  0  0
    0.2608   24.5103  -28.4515 H   0  0  0  0  0  0  0  0  0  0  0  0
   -4.4729   20.4723  -32.1528 H   0  0  0  0  0  0  0  0  0  0  0  0
   -5.8462   19.1942  -34.8610 H   0  0  0  0  0  0  0  0  0  0  0  0
   -4.3683   18.9807  -33.8413 H   0  0  0  0  0  0  0  0  0  0  0  0
   -5.4250   17.1870  -36.0671 H   0  0  0  0  0  0  0  0  0  0  0  0
   -3.8055   17.9373  -35.9013 H   0  0  0  0  0  0  0  0  0  0  0  0
  1  2  1  0
  2  3  1  0
  3  4  1  0
  4  5  1  0
  5  6  1  0
  6  7  2  0
  6  8  1  0
  8  9  2  0
  9 10  1  0
 10 11  2  0
 11 12  1  0
 11 13  1  0
 13 14  1  0
 14 15  1  0
 15 16  2  0
 15 17  2  0
 15 18  1  0
 18 19  2  0
 19 20  1  0
 20 21  1  0
 21 22  2  0
 21 23  2  0
 21 24  1  0
 24 25  1  0
 25 26  1  0
 26 27  1  0
 27 28  1  0
 28 29  1  0
 20 30  2  0
 30 31  1  0
 31 32  2  0
 32 33  1  0
 13 34  2  0
  5 35  1  0
 35 36  1  0
 36  2  1  0
 34  8  1  0
 32 18  1  0
 29 24  1  0
  1 37  1  0
  1 38  1  0
  1 39  1  0
  3 40  1  0
  3 41  1  0
  4 42  1  0
  4 43  1  0
  9 44  1  0
 10 45  1  0
 19 46  1  0
 25 47  1  0
 25 48  1  0
 26 49  1  0
 26 50  1  0
 28 51  1  0
 28 52  1  0
 29 53  1  0
 29 54  1  0
 30 55  1  0
 31 56  1  0
 34 57  1  0
 35 58  1  0
 35 59  1  0
 36 60  1  0
 36 61  1  0
M  CHG  3  12  -1  14  -1  33  -1
M  END
>  <UniqueID>  (45) 
44

>  <SMILES>  (45) 
CN1CCN(C(=O)c2ccc([O-])c([N-]S(=O)(=O)c3cc(S(=O)(=O)N4CCOCC4)ccc3[O-])c2)CC1

>  <Energy>  (45) 
89.67344961930533

>  <Genealogy>  (45) 
CN1CCN(C(=O)c2ccc([O-])c([N-]S(=O)(=O)c3cc(S(=O)(=O)N4CCOCC4)ccc3[O-])c2)CC1 (protonated)
CN1CCN(C(=O)c2ccc([O-])c([N-]S(=O)(=O)c3cc(S(=O)(=O)N4CCOCC4)ccc3[O-])c2)CC1 (3D coordinates assigned)
CN1CCN(C(=O)c2ccc([O-])c([N-]S(=O)(=O)c3cc(S(=O)(=O)N4CCOCC4)ccc3[O-])c2)CC1 (nonaromatic ring conformer: 89.67344961930533 kcal/mol)

>  <smiles>  (45) 
CN1CCN(C(=O)c2ccc(O)c(NS(=O)(=O)c3cc(S(=O)(=O)N4CCOCC4)ccc3O)c2)CC1

>  <score_type>  (45) 
oracle

>  <origin>  (45) 
adgpu

>  <m_score__min__energy>  (45) 
-14.94

>  <m_primary>  (45) 
energy

$$$$
45:0
     RDKit          3D

 67 70  0  0  0  0  0  0  0  0999 V2000
   -8.6280   20.9390  -31.9730 C   0  0  0  0  0  0  0  0  0  0  0  0
   -7.8080   22.1050  -31.5070 C   0  0  0  0  0  0  0  0  0  0  0  0
   -7.1650   22.9370  -32.4360 C   0  0  0  0  0  0  0  0  0  0  0  0
   -6.3640   23.9970  -31.9990 C   0  0  0  0  0  0  0  0  0  0  0  0
   -6.1930   24.2350  -30.6260 C   0  0  0  0  0  0  0  0  0  0  0  0
   -5.2940   25.3410  -30.1450 C   0  0  0  0  0  0  0  0  0  0  0  0
   -3.9330   25.1120  -30.6140 N   0  0  0  0  0  0  0  0  0  0  0  0
   -2.9050   24.5290  -29.8060 C   0  0  0  0  0  0  0  0  0  0  0  0
   -2.2900   25.2380  -28.9650 O   0  0  0  0  0  0  0  0  0  0  0  0
   -2.5400   23.1060  -29.9900 C   0  0  0  0  0  0  0  0  0  0  0  0
   -3.1270   22.3860  -31.0450 C   0  0  0  0  0  0  0  0  0  0  0  0
   -2.7460   21.0640  -31.3110 C   0  0  0  0  0  0  0  0  0  0  0  0
   -3.5020   20.1900  -32.6420 S   0  0  0  0  0  0  0  0  0  0  0  0
   -3.1500   20.8820  -33.9300 O   0  0  0  0  0  0  0  0  0  0  0  0
   -2.9670   18.7850  -32.6920 O   0  0  0  0  0  0  0  0  0  0  0  0
   -5.2400   20.1800  -32.4120 N   0  0  0  0  0  0  0  0  0  0  0  0
   -5.9500   20.0330  -33.7000 C   0  0  0  0  0  0  0  0  0  0  0  0
   -5.8500   18.6100  -34.2820 C   0  0  0  0  0  0  0  0  0  0  0  0
   -5.9960   17.5090  -33.2160 C   0  0  0  0  0  0  0  0  0  0  0  0
   -6.5410   18.0560  -31.8990 C   0  0  0  0  0  0  0  0  0  0  0  0
   -5.6460   19.1910  -31.3710 C   0  0  0  0  0  0  0  0  0  0  0  0
   -1.7800   20.4470  -30.5090 C   0  0  0  0  0  0  0  0  0  0  0  0
   -1.2040   21.1430  -29.4460 C   0  0  0  0  0  0  0  0  0  0  0  0
   -1.5780   22.4650  -29.1720 C   0  0  0  0  0  0  0  0  0  0  0  0
   -1.0200   23.1220  -28.0230 N   0  0  0  0  0  0  0  0  0  0  0  0
   -1.7700   23.1530  -26.7660 C   0  0  0  0  0  0  0  0  0  0  0  0
   -0.8300   23.4920  -25.6020 C   0  0  0  0  0  0  0  0  0  0  0  0
   -0.0690   24.7510  -25.8110 N   0  0  0  0  0  0  0  0  0  0  0  0
   -0.6680   25.8670  -25.0620 C   0  0  0  0  0  0  0  0  0  0  0  0
    0.1330   25.1320  -27.2310 C   0  0  0  0  0  0  0  0  0  0  0  0
    0.2070   23.9140  -28.1570 C   0  0  0  0  0  0  0  0  0  0  0  0
   -6.8190   23.3890  -29.6970 C   0  0  0  0  0  0  0  0  0  0  0  0
   -7.6180   22.3300  -30.1350 C   0  0  0  0  0  0  0  0  0  0  0  0
   -9.0139   20.3903  -31.1012 H   0  0  0  0  0  0  0  0  0  0  0  0
   -9.4705   21.3024  -32.5798 H   0  0  0  0  0  0  0  0  0  0  0  0
   -8.0011   20.2691  -32.5798 H   0  0  0  0  0  0  0  0  0  0  0  0
   -7.2915   22.7547  -33.5134 H   0  0  0  0  0  0  0  0  0  0  0  0
   -5.8661   24.6467  -32.7339 H   0  0  0  0  0  0  0  0  0  0  0  0
   -5.6576   26.3028  -30.5357 H   0  0  0  0  0  0  0  0  0  0  0  0
   -5.3000   25.3608  -29.0452 H   0  0  0  0  0  0  0  0  0  0  0  0
   -3.8948   22.8662  -31.6694 H   0  0  0  0  0  0  0  0  0  0  0  0
   -5.4760   21.1340  -32.0490 H   0  0  0  0  0  0  0  0  0  0  0  0
   -7.0118   20.2747  -33.5448 H   0  0  0  0  0  0  0  0  0  0  0  0
   -5.4746   20.7171  -34.4184 H   0  0  0  0  0  0  0  0  0  0  0  0
   -6.6464   18.4810  -35.0297 H   0  0  0  0  0  0  0  0  0  0  0  0
   -4.8483   18.5067  -34.7246 H   0  0  0  0  0  0  0  0  0  0  0  0
   -6.6852   16.7390  -33.5930 H   0  0  0  0  0  0  0  0  0  0  0  0
   -4.9978   17.0895  -33.0223 H   0  0  0  0  0  0  0  0  0  0  0  0
   -7.5576   18.4434  -32.0617 H   0  0  0  0  0  0  0  0  0  0  0  0
   -6.5570   17.2435  -31.1576 H   0  0  0  0  0  0  0  0  0  0  0  0
   -6.1952   19.7256  -30.5819 H   0  0  0  0  0  0  0  0  0  0  0  0
   -4.7224   18.7214  -31.0017 H   0  0  0  0  0  0  0  0  0  0  0  0
   -1.4740   19.4111  -30.7170 H   0  0  0  0  0  0  0  0  0  0  0  0
   -0.4489   20.6490  -28.8169 H   0  0  0  0  0  0  0  0  0  0  0  0
   -2.5589   23.9168  -26.8313 H   0  0  0  0  0  0  0  0  0  0  0  0
   -2.2206   22.1651  -26.5901 H   0  0  0  0  0  0  0  0  0  0  0  0
   -1.4307   23.5946  -24.6862 H   0  0  0  0  0  0  0  0  0  0  0  0
   -0.0965   22.6758  -25.5261 H   0  0  0  0  0  0  0  0  0  0  0  0
   -0.5676   25.6800  -23.9827 H   0  0  0  0  0  0  0  0  0  0  0  0
   -0.1507   26.8024  -25.3217 H   0  0  0  0  0  0  0  0  0  0  0  0
   -1.7334   25.9529  -25.3217 H   0  0  0  0  0  0  0  0  0  0  0  0
   -0.7067   25.7673  -27.5493 H   0  0  0  0  0  0  0  0  0  0  0  0
    1.0919   25.6663  -27.3020 H   0  0  0  0  0  0  0  0  0  0  0  0
    0.3136   24.2513  -29.1986 H   0  0  0  0  0  0  0  0  0  0  0  0
    1.0740   23.2959  -27.8809 H   0  0  0  0  0  0  0  0  0  0  0  0
   -6.6798   23.5607  -28.6194 H   0  0  0  0  0  0  0  0  0  0  0  0
   -8.1008   21.6689  -29.4003 H   0  0  0  0  0  0  0  0  0  0  0  0
  1  2  1  0
  2  3  2  0
  3  4  1  0
  4  5  2  0
  5  6  1  0
  6  7  1  0
  7  8  1  0
  8  9  2  0
  8 10  1  0
 10 11  2  0
 11 12  1  0
 12 13  1  0
 13 14  2  0
 13 15  2  0
 13 16  1  0
 16 17  1  0
 17 18  1  0
 18 19  1  0
 19 20  1  0
 20 21  1  0
 12 22  2  0
 22 23  1  0
 23 24  2  0
 24 25  1  0
 25 26  1  0
 26 27  1  0
 27 28  1  0
 28 29  1  0
 28 30  1  0
 30 31  1  0
  5 32  1  0
 32 33  2  0
 33  2  1  0
 24 10  1  0
 31 25  1  0
 21 16  1  0
  1 34  1  0
  1 35  1  0
  1 36  1  0
  3 37  1  0
  4 38  1  0
  6 39  1  0
  6 40  1  0
 11 41  1  0
 16 42  1  0
 17 43  1  0
 17 44  1  0
 18 45  1  0
 18 46  1  0
 19 47  1  0
 19 48  1  0
 20 49  1  0
 20 50  1  0
 21 51  1  0
 21 52  1  0
 22 53  1  0
 23 54  1  0
 26 55  1  0
 26 56  1  0
 27 57  1  0
 27 58  1  0
 29 59  1  0
 29 60  1  0
 29 61  1  0
 30 62  1  0
 30 63  1  0
 31 64  1  0
 31 65  1  0
 32 66  1  0
 33 67  1  0
M  CHG  2   7  -1  16   1
M  END
>  <UniqueID>  (46) 
45

>  <SMILES>  (46) 
Cc1ccc(C[N-]C(=O)c2cc(S(=O)(=O)[NH+]3CCCCC3)ccc2N2CCN(C)CC2)cc1

>  <Energy>  (46) 
86.89617330384185

>  <Genealogy>  (46) 
Cc1ccc(C[N-]C(=O)c2cc(S(=O)(=O)[NH+]3CCCCC3)ccc2N2CCN(C)CC2)cc1 (protonated)
Cc1ccc(C[N-]C(=O)c2cc(S(=O)(=O)[NH+]3CCCCC3)ccc2N2CCN(C)CC2)cc1 (3D coordinates assigned)
Cc1ccc(C[N-]C(=O)c2cc(S(=O)(=O)[NH+]3CCCCC3)ccc2N2CCN(C)CC2)cc1 (nonaromatic ring conformer: 86.89617330384185 kcal/mol)

>  <smiles>  (46) 
Cc1ccc(CNC(=O)c2cc(S(=O)(=O)N3CCCCC3)ccc2N2CCN(C)CC2)cc1

>  <score_type>  (46) 
oracle

>  <origin>  (46) 
adgpu

>  <m_score__min__energy>  (46) 
-11.5

>  <m_primary>  (46) 
energy

$$$$
46:0
     RDKit          3D

 47 50  0  0  0  0  0  0  0  0999 V2000
   -2.6640   21.2370  -33.0440 C   0  0  0  0  0  0  0  0  0  0  0  0
   -3.7010   20.2280  -33.4310 C   0  0  0  0  0  0  0  0  0  0  0  0
   -3.3570   19.2540  -34.1530 O   0  0  0  0  0  0  0  0  0  0  0  0
   -5.0770   20.3570  -33.0340 N   0  0  0  0  0  0  0  0  0  0  0  0
   -6.1220   19.4360  -33.4860 C   0  0  0  0  0  0  0  0  0  0  0  0
   -7.4710   20.0900  -33.1090 C   0  0  0  0  0  0  0  0  0  0  0  0
   -7.0640   21.3310  -32.3980 C   0  0  0  0  0  0  0  0  0  0  0  0
   -7.8920   22.2800  -31.7990 C   0  0  0  0  0  0  0  0  0  0  0  0
   -7.2980   23.3640  -31.1350 C   0  0  0  0  0  0  0  0  0  0  0  0
   -5.8940   23.4660  -31.0520 C   0  0  0  0  0  0  0  0  0  0  0  0
   -5.1730   24.8480  -30.2340 S   0  0  0  0  0  0  0  0  0  0  0  0
   -5.7360   26.1110  -30.8240 O   0  0  0  0  0  0  0  0  0  0  0  0
   -5.4740   24.8240  -28.7610 O   0  0  0  0  0  0  0  0  0  0  0  0
   -3.4550   24.8210  -30.4730 N   0  0  0  0  0  0  0  0  0  0  0  0
   -2.5380   23.9930  -29.7410 C   0  0  0  0  0  0  0  0  0  0  0  0
   -2.5610   22.5910  -29.8450 C   0  0  0  0  0  0  0  0  0  0  0  0
   -1.6380   21.8070  -29.1370 C   0  0  0  0  0  0  0  0  0  0  0  0
   -0.6620   22.4310  -28.3320 C   0  0  0  0  0  0  0  0  0  0  0  0
   -0.6620   23.8260  -28.2050 C   0  0  0  0  0  0  0  0  0  0  0  0
   -1.5900   24.6060  -28.9090 C   0  0  0  0  0  0  0  0  0  0  0  0
   -1.5680   25.9950  -28.7910 O   0  0  0  0  0  0  0  0  0  0  0  0
    0.3140   21.6050  -27.5270 C   0  0  0  0  0  0  0  0  0  0  0  0
    0.4780   20.2590  -28.0940 N   0  0  0  0  0  0  0  0  0  0  0  0
   -0.8250   19.6030  -28.2360 C   0  0  0  0  0  0  0  0  0  0  0  0
   -1.6450   20.3090  -29.3200 C   0  0  0  0  0  0  0  0  0  0  0  0
   -5.0840   22.4860  -31.6550 C   0  0  0  0  0  0  0  0  0  0  0  0
   -5.7000   21.4460  -32.3620 C   0  0  0  0  0  0  0  0  0  0  0  0
   -2.6022   21.2971  -31.9474 H   0  0  0  0  0  0  0  0  0  0  0  0
   -1.6878   20.9337  -33.4502 H   0  0  0  0  0  0  0  0  0  0  0  0
   -2.9404   22.2212  -33.4502 H   0  0  0  0  0  0  0  0  0  0  0  0
   -6.0591   19.2937  -34.5749 H   0  0  0  0  0  0  0  0  0  0  0  0
   -6.0128   18.4470  -33.0171 H   0  0  0  0  0  0  0  0  0  0  0  0
   -8.0591   20.3261  -34.0081 H   0  0  0  0  0  0  0  0  0  0  0  0
   -8.1108   19.4352  -32.4991 H   0  0  0  0  0  0  0  0  0  0  0  0
   -8.9865   22.1809  -31.8461 H   0  0  0  0  0  0  0  0  0  0  0  0
   -7.9309   24.1383  -30.6768 H   0  0  0  0  0  0  0  0  0  0  0  0
   -3.3097   22.1044  -30.4875 H   0  0  0  0  0  0  0  0  0  0  0  0
    0.0725   24.3136  -27.5472 H   0  0  0  0  0  0  0  0  0  0  0  0
   -2.3940   26.5550  -28.9640 H   0  0  0  0  0  0  0  0  0  0  0  0
    1.2905   22.1114  -27.5208 H   0  0  0  0  0  0  0  0  0  0  0  0
   -0.0813   21.5029  -26.5056 H   0  0  0  0  0  0  0  0  0  0  0  0
    1.0490   19.6980  -27.4210 H   0  0  0  0  0  0  0  0  0  0  0  0
   -0.6753   18.5505  -28.5186 H   0  0  0  0  0  0  0  0  0  0  0  0
   -1.3650   19.6563  -27.2792 H   0  0  0  0  0  0  0  0  0  0  0  0
   -1.2174   20.0679  -30.3044 H   0  0  0  0  0  0  0  0  0  0  0  0
   -2.6852   19.9590  -29.2462 H   0  0  0  0  0  0  0  0  0  0  0  0
   -3.9882   22.5359  -31.5726 H   0  0  0  0  0  0  0  0  0  0  0  0
  1  2  1  0
  2  3  2  0
  2  4  1  0
  4  5  1  0
  5  6  1  0
  6  7  1  0
  7  8  2  0
  8  9  1  0
  9 10  2  0
 10 11  1  0
 11 12  2  0
 11 13  2  0
 11 14  1  0
 14 15  1  0
 15 16  2  0
 16 17  1  0
 17 18  2  0
 18 19  1  0
 19 20  2  0
 20 21  1  0
 18 22  1  0
 22 23  1  0
 23 24  1  0
 24 25  1  0
 10 26  1  0
 26 27  2  0
 27  4  1  0
 27  7  1  0
 20 15  1  0
 25 17  1  0
  1 28  1  0
  1 29  1  0
  1 30  1  0
  5 31  1  0
  5 32  1  0
  6 33  1  0
  6 34  1  0
  8 35  1  0
  9 36  1  0
 16 37  1  0
 19 38  1  0
 21 39  1  0
 22 40  1  0
 22 41  1  0
 23 42  1  0
 24 43  1  0
 24 44  1  0
 25 45  1  0
 25 46  1  0
 26 47  1  0
M  CHG  1  14  -1
M  END
>  <UniqueID>  (47) 
46

>  <SMILES>  (47) 
CC(=O)N1CCc2ccc(S(=O)(=O)[N-]c3cc4c(cc3O)CNCC4)cc21

>  <Energy>  (47) 
69.45192342907153

>  <Genealogy>  (47) 
CC(=O)N1CCc2ccc(S(=O)(=O)[N-]c3cc4c(cc3O)CNCC4)cc21 (protonated)
CC(=O)N1CCc2ccc(S(=O)(=O)[N-]c3cc4c(cc3O)CNCC4)cc21 (3D coordinates assigned)
CC(=O)N1CCc2ccc(S(=O)(=O)[N-]c3cc4c(cc3O)CNCC4)cc21 (nonaromatic ring conformer: 69.45192342907153 kcal/mol)

>  <smiles>  (47) 
CC(=O)N1CCc2ccc(S(=O)(=O)Nc3cc4c(cc3O)CNCC4)cc21

>  <score_type>  (47) 
oracle

>  <origin>  (47) 
adgpu

>  <m_score__min__energy>  (47) 
-12.18

>  <m_primary>  (47) 
energy

$$$$
47:0
     RDKit          3D

 51 55  0  0  0  0  0  0  0  0999 V2000
   -3.8990   26.0500  -29.8930 H   0  0  0  0  0  0  0  0  0  0  0  0
   -3.5800   25.2390  -30.4690 N   0  0  0  0  0  0  0  0  0  0  0  0
   -2.5560   24.2790  -29.4620 S   0  0  0  0  0  0  0  0  0  0  0  0
   -3.2180   24.0730  -28.1290 O   0  0  0  0  0  0  0  0  0  0  0  0
   -1.2500   24.9920  -29.2460 O   0  0  0  0  0  0  0  0  0  0  0  0
   -2.2660   22.7230  -30.2330 C   0  0  0  0  0  0  0  0  0  0  0  0
   -2.5800   22.5390  -31.5860 C   0  0  0  0  0  0  0  0  0  0  0  0
   -2.9999   23.3720  -32.1689 H   0  0  0  0  0  0  0  0  0  0  0  0
   -2.3620   21.3020  -32.1980 C   0  0  0  0  0  0  0  0  0  0  0  0
   -2.5929   21.1707  -33.2654 H   0  0  0  0  0  0  0  0  0  0  0  0
   -1.8480   20.2230  -31.4540 C   0  0  0  0  0  0  0  0  0  0  0  0
   -1.5750   18.9450  -32.0530 N   0  0  0  0  0  0  0  0  0  0  0  0
   -2.3480   18.2800  -32.8620 C   0  0  0  0  0  0  0  0  0  0  0  0
   -3.6000   18.7220  -33.1690 N   0  0  0  0  0  0  0  0  0  0  0  0
   -4.3980   18.0000  -33.9920 C   0  0  0  0  0  0  0  0  0  0  0  0
   -5.6860   18.4580  -34.2960 O   0  0  0  0  0  0  0  0  0  0  0  0
   -6.5740   18.9330  -33.3190 C   0  0  0  0  0  0  0  0  0  0  0  0
   -7.5890   18.0810  -32.8790 C   0  0  0  0  0  0  0  0  0  0  0  0
   -7.6324   17.0400  -33.2319 H   0  0  0  0  0  0  0  0  0  0  0  0
   -8.5490   18.5640  -31.9860 C   0  0  0  0  0  0  0  0  0  0  0  0
   -9.4810   17.8130  -31.5990 O   0  0  0  0  0  0  0  0  0  0  0  0
   -8.4910   19.8170  -31.5470 O   0  0  0  0  0  0  0  0  0  0  0  0
   -7.5250   20.6580  -31.9050 C   0  0  0  0  0  0  0  0  0  0  0  0
   -7.5240   21.9630  -31.4010 C   0  0  0  0  0  0  0  0  0  0  0  0
   -8.3312   22.2924  -30.7302 H   0  0  0  0  0  0  0  0  0  0  0  0
   -6.5010   22.8490  -31.7470 C   0  0  0  0  0  0  0  0  0  0  0  0
   -6.5129   23.8791  -31.3613 H   0  0  0  0  0  0  0  0  0  0  0  0
   -5.4630   22.4290  -32.5820 C   0  0  0  0  0  0  0  0  0  0  0  0
   -4.6509   23.1251  -32.8388 H   0  0  0  0  0  0  0  0  0  0  0  0
   -5.4520   21.1270  -33.0930 C   0  0  0  0  0  0  0  0  0  0  0  0
   -4.6214   20.7959  -33.7337 H   0  0  0  0  0  0  0  0  0  0  0  0
   -6.5020   20.2390  -32.7890 C   0  0  0  0  0  0  0  0  0  0  0  0
   -3.9440   16.8300  -34.5040 N   0  0  0  0  0  0  0  0  0  0  0  0
   -2.7020   16.3750  -34.2070 C   0  0  0  0  0  0  0  0  0  0  0  0
   -2.2380   15.2880  -34.7510 N   0  0  0  0  0  0  0  0  0  0  0  0
   -2.9480   14.4240  -35.6590 C   0  0  0  0  0  0  0  0  0  0  0  0
   -3.9280   13.5660  -35.1430 C   0  0  0  0  0  0  0  0  0  0  0  0
   -4.1579   13.5840  -34.0674 H   0  0  0  0  0  0  0  0  0  0  0  0
   -4.6160   12.6870  -35.9850 C   0  0  0  0  0  0  0  0  0  0  0  0
   -5.3735   12.0068  -35.5685 H   0  0  0  0  0  0  0  0  0  0  0  0
   -4.3420   12.6720  -37.3550 C   0  0  0  0  0  0  0  0  0  0  0  0
   -4.8734   11.9706  -38.0151 H   0  0  0  0  0  0  0  0  0  0  0  0
   -3.3920   13.5490  -37.8860 C   0  0  0  0  0  0  0  0  0  0  0  0
   -3.1840   13.5449  -38.9662 H   0  0  0  0  0  0  0  0  0  0  0  0
   -2.7060   14.4310  -37.0470 C   0  0  0  0  0  0  0  0  0  0  0  0
   -1.9741   15.1337  -37.4719 H   0  0  0  0  0  0  0  0  0  0  0  0
   -1.9090   17.1030  -33.3800 N   0  0  0  0  0  0  0  0  0  0  0  0
   -1.5120   20.4200  -30.1100 C   0  0  0  0  0  0  0  0  0  0  0  0
   -1.0721   19.5947  -29.5309 H   0  0  0  0  0  0  0  0  0  0  0  0
   -1.7310   21.6580  -29.4970 C   0  0  0  0  0  0  0  0  0  0  0  0
   -1.4825   21.7956  -28.4343 H   0  0  0  0  0  0  0  0  0  0  0  0
  1  2  1  0
  2  3  1  0
  3  4  2  0
  3  5  2  0
  3  6  1  0
  6  7  2  0
  7  8  1  0
  7  9  1  0
  9 10  1  0
  9 11  2  0
 11 12  1  0
 12 13  2  3
 13 14  1  0
 14 15  2  0
 15 16  1  0
 16 17  1  0
 17 18  2  0
 18 19  1  0
 18 20  1  0
 20 21  2  0
 20 22  1  0
 22 23  1  0
 23 24  2  0
 24 25  1  0
 24 26  1  0
 26 27  1  0
 26 28  2  0
 28 29  1  0
 28 30  1  0
 30 31  1  0
 30 32  2  0
 15 33  1  0
 33 34  1  0
 34 35  2  0
 35 36  1  0
 36 37  2  0
 37 38  1  0
 37 39  1  0
 39 40  1  0
 39 41  2  0
 41 42  1  0
 41 43  1  0
 43 44  1  0
 43 45  2  0
 45 46  1  0
 34 47  1  0
 11 48  1  0
 48 49  1  0
 48 50  2  0
 50 51  1  0
 50  6  1  0
 47 13  1  0
 32 17  1  0
 45 36  1  0
 32 23  1  0
M  CHG  3   2  -1  33  -1  47  -1
M  END
>  <UniqueID>  (48) 
47

>  <SMILES>  (48) 
[NH-]S(=O)(=O)c1ccc(N=c2nc(Oc3cc(=O)oc4ccccc34)[n-]/c(=N\c3ccccc3)[n-]2)cc1

>  <Energy>  (48) 
80.6697360807167

>  <Genealogy>  (48) 
[NH-]S(=O)(=O)c1ccc(N=c2nc(Oc3cc(=O)oc4ccccc34)[n-]c(=Nc3ccccc3)[n-]2)cc1 (protonated)
[NH-]S(=O)(=O)c1ccc(N=c2nc(Oc3cc(=O)oc4ccccc34)[n-]/c(=N\c3ccccc3)[n-]2)cc1 (cis-trans isomerization)
[NH-]S(=O)(=O)c1ccc(N=c2nc(Oc3cc(=O)oc4ccccc34)[n-]/c(=N\c3ccccc3)[n-]2)cc1 (3D coordinates assigned)
[NH-]S(=O)(=O)c1ccc(N=c2nc(Oc3cc(=O)oc4ccccc34)[n-]/c(=N\c3ccccc3)[n-]2)cc1 (optimized conformer: 80.6697360807167 kcal/mol)

>  <smiles>  (48) 
NS(=O)(=O)c1ccc(N=c2nc(Oc3cc(=O)oc4ccccc34)[nH]c(=Nc3ccccc3)[nH]2)cc1

>  <score_type>  (48) 
oracle

>  <origin>  (48) 
adgpu

>  <m_score__min__energy>  (48) 
-11.529999999999999

>  <m_primary>  (48) 
energy

$$$$
48:0
     RDKit          3D

 44 46  0  0  0  0  0  0  0  0999 V2000
    0.4677   21.3404  -27.1587 H   0  0  0  0  0  0  0  0  0  0  0  0
   -0.1650   22.0760  -27.6770 C   0  0  0  0  0  0  0  0  0  0  0  0
   -0.4920   21.8910  -29.0230 C   0  0  0  0  0  0  0  0  0  0  0  0
   -0.1140   21.0097  -29.5619 H   0  0  0  0  0  0  0  0  0  0  0  0
   -1.3020   22.8260  -29.6920 C   0  0  0  0  0  0  0  0  0  0  0  0
   -1.6330   22.6760  -31.0490 O   0  0  0  0  0  0  0  0  0  0  0  0
   -2.3220   21.5890  -31.6110 C   0  0  0  0  0  0  0  0  0  0  0  0
   -3.5110   21.0950  -31.0410 C   0  0  0  0  0  0  0  0  0  0  0  0
   -3.9088   21.5536  -30.1237 H   0  0  0  0  0  0  0  0  0  0  0  0
   -4.1890   20.0260  -31.6330 C   0  0  0  0  0  0  0  0  0  0  0  0
   -5.1105   19.6387  -31.1738 H   0  0  0  0  0  0  0  0  0  0  0  0
   -3.6980   19.4470  -32.8090 C   0  0  0  0  0  0  0  0  0  0  0  0
   -4.5560   18.1170  -33.5830 S   0  0  0  0  0  0  0  0  0  0  0  0
   -3.7180   16.8680  -33.5940 O   0  0  0  0  0  0  0  0  0  0  0  0
   -4.8700   18.5020  -35.0000 O   0  0  0  0  0  0  0  0  0  0  0  0
   -6.0410   17.8050  -32.7340 N   0  0  0  0  0  0  0  0  0  0  0  0
   -7.0060   18.6540  -32.5150 C   0  0  0  0  0  0  0  0  0  0  0  0
   -6.9450   19.9940  -32.9550 C   0  0  0  0  0  0  0  0  0  0  0  0
   -6.0631   20.3577  -33.5027 H   0  0  0  0  0  0  0  0  0  0  0  0
   -8.0120   20.8540  -32.6900 C   0  0  0  0  0  0  0  0  0  0  0  0
   -7.9720   21.9005  -33.0264 H   0  0  0  0  0  0  0  0  0  0  0  0
   -9.1280   20.3860  -31.9990 C   0  0  0  0  0  0  0  0  0  0  0  0
  -10.1690   21.2150  -31.7380 F   0  0  0  0  0  0  0  0  0  0  0  0
   -9.1610   19.0580  -31.5780 C   0  0  0  0  0  0  0  0  0  0  0  0
  -10.0381   18.6779  -31.0338 H   0  0  0  0  0  0  0  0  0  0  0  0
   -8.1130   18.2290  -31.8370 N   0  0  0  0  0  0  0  0  0  0  0  0
   -8.1670   17.2390  -31.5020 H   0  0  0  0  0  0  0  0  0  0  0  0
   -2.5280   19.9460  -33.3920 C   0  0  0  0  0  0  0  0  0  0  0  0
   -2.1431   19.4950  -34.3185 H   0  0  0  0  0  0  0  0  0  0  0  0
   -1.8440   21.0170  -32.8020 C   0  0  0  0  0  0  0  0  0  0  0  0
   -0.6420   21.5180  -33.4220 C   0  0  0  0  0  0  0  0  0  0  0  0
    0.3210   21.9200  -33.9210 N   0  0  0  0  0  0  0  0  0  0  0  0
   -1.7400   23.9750  -29.0130 C   0  0  0  0  0  0  0  0  0  0  0  0
   -2.5640   24.9240  -29.7050 N   0  0  0  0  0  0  0  0  0  0  0  0
   -3.9290   24.7330  -30.1030 C   0  0  0  0  0  0  0  0  0  0  0  0
   -4.3560   25.3360  -31.1240 O   0  0  0  0  0  0  0  0  0  0  0  0
   -4.8740   23.8770  -29.3190 C   0  0  0  0  0  0  0  0  0  0  0  0
   -4.7029   24.0320  -28.2435 H   0  0  0  0  0  0  0  0  0  0  0  0
   -5.9098   24.1506  -29.5687 H   0  0  0  0  0  0  0  0  0  0  0  0
   -4.7038   22.8193  -29.5687 H   0  0  0  0  0  0  0  0  0  0  0  0
   -1.4280   24.1400  -27.6510 C   0  0  0  0  0  0  0  0  0  0  0  0
   -1.8052   25.0171  -27.1047 H   0  0  0  0  0  0  0  0  0  0  0  0
   -0.6410   23.1940  -26.9900 C   0  0  0  0  0  0  0  0  0  0  0  0
   -0.3420   23.3610  -25.6770 F   0  0  0  0  0  0  0  0  0  0  0  0
  1  2  1  0
  2  3  2  0
  3  4  1  0
  3  5  1  0
  5  6  1  0
  6  7  1  0
  7  8  2  0
  8  9  1  0
  8 10  1  0
 10 11  1  0
 10 12  2  0
 12 13  1  0
 13 14  2  0
 13 15  2  0
 13 16  1  0
 16 17  2  0
 17 18  1  0
 18 19  1  0
 18 20  2  0
 20 21  1  0
 20 22  1  0
 22 23  1  0
 22 24  2  0
 24 25  1  0
 24 26  1  0
 26 27  1  0
 12 28  1  0
 28 29  1  0
 28 30  2  0
 30 31  1  0
 31 32  3  0
  5 33  2  0
 33 34  1  0
 34 35  1  0
 35 36  2  0
 35 37  1  0
 37 38  1  0
 37 39  1  0
 37 40  1  0
 33 41  1  0
 41 42  1  0
 41 43  2  0
 43 44  1  0
 43  2  1  0
 30  7  1  0
 26 17  1  0
M  CHG  1  34  -1
M  END
>  <UniqueID>  (49) 
48

>  <SMILES>  (49) 
CC(=O)[N-]c1cc(F)ccc1Oc1ccc(S(=O)(=O)/N=c2\ccc(F)c[nH]2)cc1C#N

>  <Energy>  (49) 
62.071766186296166

>  <Genealogy>  (49) 
CC(=O)[N-]c1cc(F)ccc1Oc1ccc(S(=O)(=O)N=c2ccc(F)c[nH]2)cc1C#N (protonated)
CC(=O)[N-]c1cc(F)ccc1Oc1ccc(S(=O)(=O)/N=c2\ccc(F)c[nH]2)cc1C#N (cis-trans isomerization)
CC(=O)[N-]c1cc(F)ccc1Oc1ccc(S(=O)(=O)/N=c2\ccc(F)c[nH]2)cc1C#N (3D coordinates assigned)
CC(=O)[N-]c1cc(F)ccc1Oc1ccc(S(=O)(=O)/N=c2\ccc(F)c[nH]2)cc1C#N (optimized conformer: 62.071766186296166 kcal/mol)

>  <smiles>  (49) 
CC(=O)Nc1cc(F)ccc1Oc1ccc(S(=O)(=O)N=c2ccc(F)c[nH]2)cc1C#N

>  <score_type>  (49) 
oracle

>  <origin>  (49) 
adgpu

>  <m_score__min__energy>  (49) 
-10.789999999999999

>  <m_primary>  (49) 
energy

$$$$
