0:0
     RDKit          3D

 39 41  0  0  0  0  0  0  0  0999 V2000
    0.1290   21.5040  -28.0870 C   0  0  0  0  0  0  0  0  0  0  0  0
   -0.6410   22.6210  -28.6190 N   0  0  0  0  0  0  0  0  0  0  0  0
   -1.9180   22.5710  -29.0590 C   0  0  0  0  0  0  0  0  0  0  0  0
   -2.3430   23.8450  -29.4130 C   0  0  0  0  0  0  0  0  0  0  0  0
   -3.6700   24.2080  -29.9340 C   0  0  0  0  0  0  0  0  0  0  0  0
   -4.4500   24.8970  -29.2240 O   0  0  0  0  0  0  0  0  0  0  0  0
   -4.0840   23.7320  -31.2220 N   0  0  0  0  0  0  0  0  0  0  0  0
   -5.3820   23.2270  -31.5700 C   0  0  0  0  0  0  0  0  0  0  0  0
   -6.5120   23.8820  -31.0670 C   0  0  0  0  0  0  0  0  0  0  0  0
   -7.7940   23.4200  -31.3750 C   0  0  0  0  0  0  0  0  0  0  0  0
   -7.9560   22.2810  -32.1680 C   0  0  0  0  0  0  0  0  0  0  0  0
   -6.8330   21.5810  -32.6400 C   0  0  0  0  0  0  0  0  0  0  0  0
   -6.9750   20.4110  -33.4630 N   0  0  0  0  0  0  0  0  0  0  0  0
   -6.4270   19.1200  -33.1430 C   0  0  0  0  0  0  0  0  0  0  0  0
   -6.6790   18.5060  -31.9020 C   0  0  0  0  0  0  0  0  0  0  0  0
   -6.1120   17.2630  -31.6030 C   0  0  0  0  0  0  0  0  0  0  0  0
   -5.2790   16.6320  -32.5310 C   0  0  0  0  0  0  0  0  0  0  0  0
   -5.0060   17.2450  -33.7550 C   0  0  0  0  0  0  0  0  0  0  0  0
   -5.5710   18.4880  -34.0580 C   0  0  0  0  0  0  0  0  0  0  0  0
   -5.5480   22.0660  -32.3480 C   0  0  0  0  0  0  0  0  0  0  0  0
   -1.2800   24.6910  -29.1570 C   0  0  0  0  0  0  0  0  0  0  0  0
   -1.2440   26.0670  -29.3480 O   0  0  0  0  0  0  0  0  0  0  0  0
   -0.2560   23.9120  -28.6640 C   0  0  0  0  0  0  0  0  0  0  0  0
    0.9950   24.3680  -28.2580 O   0  0  0  0  0  0  0  0  0  0  0  0
    0.1079   21.5347  -26.9876 H   0  0  0  0  0  0  0  0  0  0  0  0
   -0.3093   20.5573  -28.4359 H   0  0  0  0  0  0  0  0  0  0  0  0
    1.1697   21.5768  -28.4359 H   0  0  0  0  0  0  0  0  0  0  0  0
   -2.5288   21.6586  -29.1266 H   0  0  0  0  0  0  0  0  0  0  0  0
   -6.3899   24.7666  -30.4247 H   0  0  0  0  0  0  0  0  0  0  0  0
   -8.6768   23.9535  -30.9928 H   0  0  0  0  0  0  0  0  0  0  0  0
   -8.9670   21.9309  -32.4238 H   0  0  0  0  0  0  0  0  0  0  0  0
   -7.5120   20.5050  -34.3550 H   0  0  0  0  0  0  0  0  0  0  0  0
   -7.3243   19.0056  -31.1645 H   0  0  0  0  0  0  0  0  0  0  0  0
   -6.3219   16.7815  -30.6365 H   0  0  0  0  0  0  0  0  0  0  0  0
   -4.8383   15.6518  -32.2967 H   0  0  0  0  0  0  0  0  0  0  0  0
   -4.3457   16.7498  -34.4822 H   0  0  0  0  0  0  0  0  0  0  0  0
   -5.3432   18.9729  -35.0187 H   0  0  0  0  0  0  0  0  0  0  0  0
   -4.6642   21.5343  -32.7303 H   0  0  0  0  0  0  0  0  0  0  0  0
    1.2130   25.3570  -28.2530 H   0  0  0  0  0  0  0  0  0  0  0  0
  1  2  1  0
  2  3  1  0
  3  4  2  0
  4  5  1  0
  5  6  2  0
  5  7  1  0
  7  8  1  0
  8  9  2  0
  9 10  1  0
 10 11  2  0
 11 12  1  0
 12 13  1  0
 13 14  1  0
 14 15  2  0
 15 16  1  0
 16 17  2  0
 17 18  1  0
 18 19  2  0
 12 20  2  0
  4 21  1  0
 21 22  1  0
 21 23  2  0
 23 24  1  0
 23  2  1  0
 20  8  1  0
 19 14  1  0
  1 25  1  0
  1 26  1  0
  1 27  1  0
  3 28  1  0
  9 29  1  0
 10 30  1  0
 11 31  1  0
 13 32  1  0
 15 33  1  0
 16 34  1  0
 17 35  1  0
 18 36  1  0
 19 37  1  0
 20 38  1  0
 24 39  1  0
M  CHG  2   7  -1  22  -1
M  END
>  <UniqueID>  (1) 
1

>  <SMILES>  (1) 
Cn1cc(C(=O)[N-]c2cccc(Nc3ccccc3)c2)c([O-])c1O

>  <Energy>  (1) 
77.62192600187966

>  <Genealogy>  (1) 
Cn1cc(C(=O)[N-]c2cccc(Nc3ccccc3)c2)c([O-])c1O (protonated)
Cn1cc(C(=O)[N-]c2cccc(Nc3ccccc3)c2)c([O-])c1O (3D coordinates assigned)
Cn1cc(C(=O)[N-]c2cccc(Nc3ccccc3)c2)c([O-])c1O (optimized conformer: 77.62192600187966 kcal/mol)

>  <smiles>  (1) 
Cn1cc(C(=O)Nc2cccc(Nc3ccccc3)c2)c(O)c1O

>  <score_type>  (1) 
oracle

>  <origin>  (1) 
adgpu

>  <m_score__min__energy>  (1) 
-12.130000000000001

>  <m_primary>  (1) 
energy

$$$$
1:0
     RDKit          3D

 42 45  0  0  0  0  0  0  0  0999 V2000
   -0.9680   23.1320  -26.0160 H   0  0  0  0  0  0  0  0  0  0  0  0
   -1.4950   23.9060  -26.4790 N   0  0  0  0  0  0  0  0  0  0  0  0
   -1.8600   23.8220  -27.7150 C   0  0  0  0  0  0  0  0  0  0  0  0
   -2.5440   24.8000  -28.3450 N   0  0  0  0  0  0  0  0  0  0  0  0
   -2.8050   24.4590  -29.6340 C   0  0  0  0  0  0  0  0  0  0  0  0
   -3.5110   25.3030  -30.4820 O   0  0  0  0  0  0  0  0  0  0  0  0
   -2.3200   23.2150  -30.0320 C   0  0  0  0  0  0  0  0  0  0  0  0
   -2.5190   22.5710  -31.3670 C   0  0  0  0  0  0  0  0  0  0  0  0
   -2.1923   23.2631  -32.1571 H   0  0  0  0  0  0  0  0  0  0  0  0
   -1.9267   21.6451  -31.4118 H   0  0  0  0  0  0  0  0  0  0  0  0
   -3.9680   22.2370  -31.5680 C   0  0  0  0  0  0  0  0  0  0  0  0
   -4.4860   21.2370  -32.4000 C   0  0  0  0  0  0  0  0  0  0  0  0
   -3.7390   20.3570  -33.3660 C   0  0  0  0  0  0  0  0  0  0  0  0
   -4.2865   20.3298  -34.3197 H   0  0  0  0  0  0  0  0  0  0  0  0
   -2.7308   20.7757  -33.5013 H   0  0  0  0  0  0  0  0  0  0  0  0
   -3.5940   18.9240  -32.8350 C   0  0  0  0  0  0  0  0  0  0  0  0
   -2.7448   18.4409  -33.3405 H   0  0  0  0  0  0  0  0  0  0  0  0
   -3.4288   18.9762  -31.7487 H   0  0  0  0  0  0  0  0  0  0  0  0
   -4.8370   18.1090  -33.0820 C   0  0  0  0  0  0  0  0  0  0  0  0
   -5.1750   17.7080  -34.3820 C   0  0  0  0  0  0  0  0  0  0  0  0
   -4.5128   17.9499  -35.2264 H   0  0  0  0  0  0  0  0  0  0  0  0
   -6.3590   16.9990  -34.5970 C   0  0  0  0  0  0  0  0  0  0  0  0
   -6.6281   16.6760  -35.6135 H   0  0  0  0  0  0  0  0  0  0  0  0
   -7.1800   16.7070  -33.5530 N   0  0  0  0  0  0  0  0  0  0  0  0
   -6.8800   17.0900  -32.2830 C   0  0  0  0  0  0  0  0  0  0  0  0
   -7.5640   16.8409  -31.4584 H   0  0  0  0  0  0  0  0  0  0  0  0
   -5.7050   17.7990  -32.0240 C   0  0  0  0  0  0  0  0  0  0  0  0
   -5.4617   18.1122  -30.9980 H   0  0  0  0  0  0  0  0  0  0  0  0
   -5.8550   21.2890  -32.2210 C   0  0  0  0  0  0  0  0  0  0  0  0
   -6.8850   20.5500  -32.8040 C   0  0  0  0  0  0  0  0  0  0  0  0
   -6.6706   19.7642  -33.5432 H   0  0  0  0  0  0  0  0  0  0  0  0
   -8.2080   20.8410  -32.4170 C   0  0  0  0  0  0  0  0  0  0  0  0
   -9.2580   20.1220  -32.9800 O   0  0  0  0  0  0  0  0  0  0  0  0
   -9.1750   19.6900  -33.8930 H   0  0  0  0  0  0  0  0  0  0  0  0
   -8.4620   21.8570  -31.4640 C   0  0  0  0  0  0  0  0  0  0  0  0
   -9.4975   22.0787  -31.1662 H   0  0  0  0  0  0  0  0  0  0  0  0
   -7.4020   22.5850  -30.8950 C   0  0  0  0  0  0  0  0  0  0  0  0
   -7.5905   23.3753  -30.1534 H   0  0  0  0  0  0  0  0  0  0  0  0
   -6.1050   22.2740  -31.3000 C   0  0  0  0  0  0  0  0  0  0  0  0
   -4.9660   22.8540  -30.8910 N   0  0  0  0  0  0  0  0  0  0  0  0
   -4.8690   23.6280  -30.1950 H   0  0  0  0  0  0  0  0  0  0  0  0
   -1.5520   22.5010  -28.7140 S   0  0  0  0  0  0  0  0  0  0  0  0
  1  2  1  0
  2  3  2  0
  3  4  1  0
  4  5  1  0
  5  6  1  0
  5  7  2  0
  7  8  1  0
  8  9  1  0
  8 10  1  0
  8 11  1  0
 11 12  2  0
 12 13  1  0
 13 14  1  0
 13 15  1  0
 13 16  1  0
 16 17  1  0
 16 18  1  0
 16 19  1  0
 19 20  2  0
 20 21  1  0
 20 22  1  0
 22 23  1  0
 22 24  2  0
 24 25  1  0
 25 26  1  0
 25 27  2  0
 27 28  1  0
 12 29  1  0
 29 30  2  0
 30 31  1  0
 30 32  1  0
 32 33  1  0
 33 34  1  0
 32 35  2  0
 35 36  1  0
 35 37  1  0
 37 38  1  0
 37 39  2  0
 39 40  1  0
 40 41  1  0
  7 42  1  0
 42  3  1  0
 40 11  1  0
 27 19  1  0
 39 29  1  0
M  CHG  2   4  -1   6  -1
M  END
>  <UniqueID>  (2) 
2

>  <SMILES>  (2) 
[H]/N=c1/[n-]c([O-])c(Cc2[nH]c3ccc(O)cc3c2CCc2ccncc2)s1

>  <Energy>  (2) 
102.0360363294905

>  <Genealogy>  (2) 
N=c1[n-]c([O-])c(Cc2[nH]c3ccc(O)cc3c2CCc2ccncc2)s1 (protonated)
[H]/N=c1/[n-]c([O-])c(Cc2[nH]c3ccc(O)cc3c2CCc2ccncc2)s1 (cis-trans isomerization)
[H]/N=c1/[n-]c([O-])c(Cc2[nH]c3ccc(O)cc3c2CCc2ccncc2)s1 (3D coordinates assigned)
[H]/N=c1/[n-]c([O-])c(Cc2[nH]c3ccc(O)cc3c2CCc2ccncc2)s1 (optimized conformer: 102.0360363294905 kcal/mol)

>  <smiles>  (2) 
N=c1[nH]c(O)c(Cc2[nH]c3ccc(O)cc3c2CCc2ccncc2)s1

>  <score_type>  (2) 
oracle

>  <origin>  (2) 
adgpu

>  <m_score__min__energy>  (2) 
-12.18

>  <m_primary>  (2) 
energy

$$$$
2:0
     RDKit          3D

 30 32  0  0  0  0  0  0  0  0999 V2000
   -7.2156   20.3260  -32.8771 H   0  0  0  0  0  0  0  0  0  0  0  0
   -6.3400   20.9710  -32.7120 C   0  0  0  0  0  0  0  0  0  0  0  0
   -5.1140   20.5610  -33.1230 N   0  0  0  0  0  0  0  0  0  0  0  0
   -4.0210   21.3390  -32.9280 C   0  0  0  0  0  0  0  0  0  0  0  0
   -2.4130   20.7760  -33.4740 S   0  0  0  0  0  0  0  0  0  0  0  0
   -1.5510   21.4800  -32.0350 C   0  0  0  0  0  0  0  0  0  0  0  0
   -2.0126   21.1030  -31.1105 H   0  0  0  0  0  0  0  0  0  0  0  0
   -0.4914   21.1857  -32.0622 H   0  0  0  0  0  0  0  0  0  0  0  0
   -1.6277   22.5770  -32.0622 H   0  0  0  0  0  0  0  0  0  0  0  0
   -4.1460   22.5470  -32.3220 N   0  0  0  0  0  0  0  0  0  0  0  0
   -5.3510   23.0150  -31.8950 C   0  0  0  0  0  0  0  0  0  0  0  0
   -5.3790   24.3500  -31.2520 C   0  0  0  0  0  0  0  0  0  0  0  0
   -6.4880   24.9390  -31.1350 O   0  0  0  0  0  0  0  0  0  0  0  0
   -4.1790   24.9420  -30.7280 N   0  0  0  0  0  0  0  0  0  0  0  0
   -3.4740   24.5490  -29.7070 C   0  0  0  0  0  0  0  0  0  0  0  0
   -2.3570   25.1980  -29.3210 N   0  0  0  0  0  0  0  0  0  0  0  0
   -1.7830   24.6190  -28.2300 C   0  0  0  0  0  0  0  0  0  0  0  0
   -0.5540   25.1490  -27.6240 C   0  0  0  0  0  0  0  0  0  0  0  0
    0.6570   24.8620  -28.0450 O   0  0  0  0  0  0  0  0  0  0  0  0
    1.5240   25.4960  -27.2880 C   0  0  0  0  0  0  0  0  0  0  0  0
    2.6172   25.4477  -27.3997 H   0  0  0  0  0  0  0  0  0  0  0  0
    0.8540   26.2320  -26.3310 C   0  0  0  0  0  0  0  0  0  0  0  0
    1.3017   26.8680  -25.5531 H   0  0  0  0  0  0  0  0  0  0  0  0
   -0.4890   26.0090  -26.5470 C   0  0  0  0  0  0  0  0  0  0  0  0
   -1.3325   26.4289  -25.9794 H   0  0  0  0  0  0  0  0  0  0  0  0
   -2.4460   23.4950  -27.7400 C   0  0  0  0  0  0  0  0  0  0  0  0
   -2.1411   22.8903  -26.8732 H   0  0  0  0  0  0  0  0  0  0  0  0
   -3.7940   23.2270  -28.7080 S   0  0  0  0  0  0  0  0  0  0  0  0
   -6.4980   22.2080  -32.0800 C   0  0  0  0  0  0  0  0  0  0  0  0
   -8.1080   22.6370  -31.5120 Cl  0  0  0  0  0  0  0  0  0  0  0  0
  1  2  1  0
  2  3  2  0
  3  4  1  0
  4  5  1  0
  5  6  1  0
  6  7  1  0
  6  8  1  0
  6  9  1  0
  4 10  2  0
 10 11  1  0
 11 12  1  0
 12 13  2  0
 12 14  1  0
 14 15  2  0
 15 16  1  0
 16 17  1  0
 17 18  1  0
 18 19  1  0
 19 20  1  0
 20 21  1  0
 20 22  2  0
 22 23  1  0
 22 24  1  0
 24 25  1  0
 17 26  2  0
 26 27  1  0
 26 28  1  0
 11 29  2  0
 29 30  1  0
 29  2  1  0
 28 15  1  0
 24 18  2  0
M  CHG  1  16  -1
M  END
>  <UniqueID>  (3) 
3

>  <SMILES>  (3) 
CSc1ncc(Cl)c(C(=O)/N=c2/[n-]c(-c3ccco3)cs2)n1

>  <Energy>  (3) 
91.6855082561668

>  <Genealogy>  (3) 
CSc1ncc(Cl)c(C(=O)N=c2[n-]c(-c3ccco3)cs2)n1 (protonated)
CSc1ncc(Cl)c(C(=O)/N=c2/[n-]c(-c3ccco3)cs2)n1 (cis-trans isomerization)
CSc1ncc(Cl)c(C(=O)/N=c2/[n-]c(-c3ccco3)cs2)n1 (3D coordinates assigned)
CSc1ncc(Cl)c(C(=O)/N=c2/[n-]c(-c3ccco3)cs2)n1 (optimized conformer: 91.6855082561668 kcal/mol)

>  <smiles>  (3) 
CSc1ncc(Cl)c(C(=O)N=c2[nH]c(-c3ccco3)cs2)n1

>  <score_type>  (3) 
oracle

>  <origin>  (3) 
adgpu

>  <m_score__min__energy>  (3) 
-9.4000000000000004

>  <m_primary>  (3) 
energy

$$$$
3:0
     RDKit          3D

 48 51  0  0  0  0  0  0  0  0999 V2000
   -4.9730   14.8370  -34.2550 N   0  0  0  0  0  0  0  0  0  0  0  0
   -4.5930   15.8390  -32.8990 S   0  0  0  0  0  0  0  0  0  0  0  0
   -4.8650   15.0690  -31.6370 O   0  0  0  0  0  0  0  0  0  0  0  0
   -3.1400   16.2190  -32.9470 O   0  0  0  0  0  0  0  0  0  0  0  0
   -5.5780   17.2960  -32.9440 C   0  0  0  0  0  0  0  0  0  0  0  0
   -6.6870   17.4320  -32.0980 C   0  0  0  0  0  0  0  0  0  0  0  0
   -7.4620   18.5950  -32.1330 C   0  0  0  0  0  0  0  0  0  0  0  0
   -7.1270   19.6450  -33.0070 C   0  0  0  0  0  0  0  0  0  0  0  0
   -7.8840   20.8620  -33.0640 N   0  0  0  0  0  0  0  0  0  0  0  0
   -8.2170   21.9030  -31.7160 S   0  0  0  0  0  0  0  0  0  0  0  0
   -9.3830   22.7890  -32.0550 O   0  0  0  0  0  0  0  0  0  0  0  0
   -8.5820   21.0690  -30.5190 O   0  0  0  0  0  0  0  0  0  0  0  0
   -6.8170   22.9160  -31.3780 C   0  0  0  0  0  0  0  0  0  0  0  0
   -6.9490   24.3060  -31.2670 C   0  0  0  0  0  0  0  0  0  0  0  0
   -5.8380   25.0930  -30.9620 C   0  0  0  0  0  0  0  0  0  0  0  0
   -4.5830   24.5020  -30.7870 C   0  0  0  0  0  0  0  0  0  0  0  0
   -3.4870   25.2960  -30.4760 O   0  0  0  0  0  0  0  0  0  0  0  0
   -4.4290   23.1180  -30.9360 C   0  0  0  0  0  0  0  0  0  0  0  0
   -3.1350   22.5310  -30.7350 N   0  0  0  0  0  0  0  0  0  0  0  0
   -2.4670   21.8210  -31.6000 C   0  0  0  0  0  0  0  0  0  0  0  0
   -2.9100   21.5480  -33.2080 S   0  0  0  0  0  0  0  0  0  0  0  0
   -1.4960   20.7160  -33.5810 C   0  0  0  0  0  0  0  0  0  0  0  0
   -0.7080   20.6840  -32.4360 C   0  0  0  0  0  0  0  0  0  0  0  0
    0.5330   20.0580  -32.4120 O   0  0  0  0  0  0  0  0  0  0  0  0
   -1.2410   21.2980  -31.3380 N   0  0  0  0  0  0  0  0  0  0  0  0
   -0.5730   21.3870  -30.0670 C   0  0  0  0  0  0  0  0  0  0  0  0
   -0.4680   22.6220  -29.4050 C   0  0  0  0  0  0  0  0  0  0  0  0
    0.1700   22.7050  -28.1630 C   0  0  0  0  0  0  0  0  0  0  0  0
    0.7090   21.5590  -27.5750 C   0  0  0  0  0  0  0  0  0  0  0  0
    0.6090   20.3260  -28.2250 C   0  0  0  0  0  0  0  0  0  0  0  0
   -0.0310   20.2380  -29.4650 C   0  0  0  0  0  0  0  0  0  0  0  0
   -5.5600   22.3230  -31.2030 C   0  0  0  0  0  0  0  0  0  0  0  0
   -6.0160   19.5060  -33.8470 C   0  0  0  0  0  0  0  0  0  0  0  0
   -5.2450   18.3400  -33.8150 C   0  0  0  0  0  0  0  0  0  0  0  0
   -4.1320   14.8290  -34.8740 H   0  0  0  0  0  0  0  0  0  0  0  0
   -6.9488   16.6202  -31.4035 H   0  0  0  0  0  0  0  0  0  0  0  0
   -8.3377   18.6894  -31.4741 H   0  0  0  0  0  0  0  0  0  0  0  0
   -7.9306   24.7781  -31.4206 H   0  0  0  0  0  0  0  0  0  0  0  0
   -5.9499   26.1824  -30.8588 H   0  0  0  0  0  0  0  0  0  0  0  0
   -1.2407   20.2761  -34.5563 H   0  0  0  0  0  0  0  0  0  0  0  0
   -0.8895   23.5277  -29.8656 H   0  0  0  0  0  0  0  0  0  0  0  0
    0.2472   23.6744  -27.6488 H   0  0  0  0  0  0  0  0  0  0  0  0
    1.2127   21.6268  -26.5994 H   0  0  0  0  0  0  0  0  0  0  0  0
    1.0341   19.4239  -27.7607 H   0  0  0  0  0  0  0  0  0  0  0  0
   -0.1108   19.2650  -29.9719 H   0  0  0  0  0  0  0  0  0  0  0  0
   -5.4560   21.2303  -31.2746 H   0  0  0  0  0  0  0  0  0  0  0  0
   -5.7476   20.3196  -34.5370 H   0  0  0  0  0  0  0  0  0  0  0  0
   -4.3724   18.2426  -34.4776 H   0  0  0  0  0  0  0  0  0  0  0  0
  1  2  1  0
  2  3  2  0
  2  4  2  0
  2  5  1  0
  5  6  2  0
  6  7  1  0
  7  8  2  0
  8  9  1  0
  9 10  1  0
 10 11  2  0
 10 12  2  0
 10 13  1  0
 13 14  2  0
 14 15  1  0
 15 16  2  0
 16 17  1  0
 16 18  1  0
 18 19  1  0
 19 20  2  3
 20 21  1  0
 21 22  1  0
 22 23  2  0
 23 24  1  0
 23 25  1  0
 25 26  1  0
 26 27  2  0
 27 28  1  0
 28 29  2  0
 29 30  1  0
 30 31  2  0
 18 32  2  0
  8 33  1  0
 33 34  2  0
 34  5  1  0
 32 13  1  0
 25 20  1  0
 31 26  1  0
  1 35  1  0
  6 36  1  0
  7 37  1  0
 14 38  1  0
 15 39  1  0
 22 40  1  0
 27 41  1  0
 28 42  1  0
 29 43  1  0
 30 44  1  0
 31 45  1  0
 32 46  1  0
 33 47  1  0
 34 48  1  0
M  CHG  4   1  -1   9  -1  17  -1  24  -1
M  END
>  <UniqueID>  (4) 
4

>  <SMILES>  (4) 
[NH-]S(=O)(=O)c1ccc([N-]S(=O)(=O)c2ccc([O-])c(N=c3scc([O-])n3-c3ccccc3)c2)cc1

>  <Energy>  (4) 
100.41729181886791

>  <Genealogy>  (4) 
[NH-]S(=O)(=O)c1ccc([N-]S(=O)(=O)c2ccc([O-])c(N=c3scc([O-])n3-c3ccccc3)c2)cc1 (protonated)
[NH-]S(=O)(=O)c1ccc([N-]S(=O)(=O)c2ccc([O-])c(N=c3scc([O-])n3-c3ccccc3)c2)cc1 (3D coordinates assigned)
[NH-]S(=O)(=O)c1ccc([N-]S(=O)(=O)c2ccc([O-])c(N=c3scc([O-])n3-c3ccccc3)c2)cc1 (optimized conformer: 100.41729181886791 kcal/mol)

>  <smiles>  (4) 
NS(=O)(=O)c1ccc(NS(=O)(=O)c2ccc(O)c(N=c3scc(O)n3-c3ccccc3)c2)cc1

>  <score_type>  (4) 
oracle

>  <origin>  (4) 
adgpu

>  <m_score__min__energy>  (4) 
-12.609999999999999

>  <m_primary>  (4) 
energy

$$$$
4:0
     RDKit          3D

 50 52  0  0  0  0  0  0  0  0999 V2000
   -8.6960   20.2720  -32.5650 C   0  0  0  0  0  0  0  0  0  0  0  0
   -7.7410   21.2760  -31.9740 C   0  0  0  0  0  0  0  0  0  0  0  0
   -8.2060   22.2200  -31.0470 C   0  0  0  0  0  0  0  0  0  0  0  0
   -7.3280   23.1450  -30.4840 C   0  0  0  0  0  0  0  0  0  0  0  0
   -5.9810   23.1230  -30.8510 C   0  0  0  0  0  0  0  0  0  0  0  0
   -4.8480   24.2630  -30.1450 S   0  0  0  0  0  0  0  0  0  0  0  0
   -4.4460   25.2770  -31.1810 O   0  0  0  0  0  0  0  0  0  0  0  0
   -5.5020   24.9600  -28.9870 O   0  0  0  0  0  0  0  0  0  0  0  0
   -3.3890   23.4010  -29.5840 C   0  0  0  0  0  0  0  0  0  0  0  0
   -2.7180   24.1680  -28.4790 C   0  0  0  0  0  0  0  0  0  0  0  0
   -1.4660   24.7670  -28.6920 C   0  0  0  0  0  0  0  0  0  0  0  0
   -0.8270   25.4500  -27.6540 C   0  0  0  0  0  0  0  0  0  0  0  0
   -1.4260   25.5370  -26.3910 C   0  0  0  0  0  0  0  0  0  0  0  0
   -0.5920   26.3800  -25.0880 S   0  0  0  0  0  0  0  0  0  0  0  0
   -1.5890   27.1400  -24.2580 O   0  0  0  0  0  0  0  0  0  0  0  0
    0.3700   27.3630  -25.6970 O   0  0  0  0  0  0  0  0  0  0  0  0
    0.2770   25.2180  -24.1040 N   0  0  0  0  0  0  0  0  0  0  0  0
   -0.0370   23.8320  -24.5010 C   0  0  0  0  0  0  0  0  0  0  0  0
    0.6380   23.4340  -25.8370 C   0  0  0  0  0  0  0  0  0  0  0  0
    1.6970   24.2950  -26.2150 O   0  0  0  0  0  0  0  0  0  0  0  0
    2.5040   24.5930  -25.0990 C   0  0  0  0  0  0  0  0  0  0  0  0
    1.7380   25.4810  -24.1020 C   0  0  0  0  0  0  0  0  0  0  0  0
   -2.6690   24.9260  -26.1710 C   0  0  0  0  0  0  0  0  0  0  0  0
   -3.3100   24.2450  -27.2080 C   0  0  0  0  0  0  0  0  0  0  0  0
   -5.5410   22.1990  -31.7460 N   0  0  0  0  0  0  0  0  0  0  0  0
   -6.3710   21.2820  -32.3160 C   0  0  0  0  0  0  0  0  0  0  0  0
   -5.7940   20.2930  -33.2840 C   0  0  0  0  0  0  0  0  0  0  0  0
   -9.2089   19.7328  -31.7549 H   0  0  0  0  0  0  0  0  0  0  0  0
   -9.4390   20.7940  -33.1858 H   0  0  0  0  0  0  0  0  0  0  0  0
   -8.1375   19.5560  -33.1858 H   0  0  0  0  0  0  0  0  0  0  0  0
   -9.2686   22.2306  -30.7628 H   0  0  0  0  0  0  0  0  0  0  0  0
   -7.6931   23.8855  -29.7572 H   0  0  0  0  0  0  0  0  0  0  0  0
   -3.6765   22.4066  -29.2119 H   0  0  0  0  0  0  0  0  0  0  0  0
   -2.6878   23.3022  -30.4258 H   0  0  0  0  0  0  0  0  0  0  0  0
   -0.9865   24.6983  -29.6796 H   0  0  0  0  0  0  0  0  0  0  0  0
    0.1511   25.9216  -27.8296 H   0  0  0  0  0  0  0  0  0  0  0  0
   -0.0740   25.3490  -23.1270 H   0  0  0  0  0  0  0  0  0  0  0  0
    0.3127   23.1504  -23.7116 H   0  0  0  0  0  0  0  0  0  0  0  0
   -1.1258   23.7613  -24.6408 H   0  0  0  0  0  0  0  0  0  0  0  0
    1.0382   22.4145  -25.7344 H   0  0  0  0  0  0  0  0  0  0  0  0
   -0.1307   23.5044  -26.6207 H   0  0  0  0  0  0  0  0  0  0  0  0
    2.7935   23.6559  -24.6009 H   0  0  0  0  0  0  0  0  0  0  0  0
    3.3994   25.1326  -25.4412 H   0  0  0  0  0  0  0  0  0  0  0  0
    2.1280   25.2919  -23.0910 H   0  0  0  0  0  0  0  0  0  0  0  0
    1.8871   26.5273  -24.4071 H   0  0  0  0  0  0  0  0  0  0  0  0
   -3.1404   24.9834  -25.1788 H   0  0  0  0  0  0  0  0  0  0  0  0
   -4.2839   23.7663  -27.0283 H   0  0  0  0  0  0  0  0  0  0  0  0
   -5.3155   19.4728  -32.7287 H   0  0  0  0  0  0  0  0  0  0  0  0
   -6.5974   19.8877  -33.9167 H   0  0  0  0  0  0  0  0  0  0  0  0
   -5.0458   20.7929  -33.9167 H   0  0  0  0  0  0  0  0  0  0  0  0
  1  2  1  0
  2  3  2  0
  3  4  1  0
  4  5  2  0
  5  6  1  0
  6  7  2  0
  6  8  2  0
  6  9  1  0
  9 10  1  0
 10 11  2  0
 11 12  1  0
 12 13  2  0
 13 14  1  0
 14 15  2  0
 14 16  2  0
 14 17  1  0
 17 18  1  0
 18 19  1  0
 19 20  1  0
 20 21  1  0
 21 22  1  0
 13 23  1  0
 23 24  2  0
  5 25  1  0
 25 26  2  0
 26 27  1  0
 26  2  1  0
 24 10  1  0
 22 17  1  0
  1 28  1  0
  1 29  1  0
  1 30  1  0
  3 31  1  0
  4 32  1  0
  9 33  1  0
  9 34  1  0
 11 35  1  0
 12 36  1  0
 17 37  1  0
 18 38  1  0
 18 39  1  0
 19 40  1  0
 19 41  1  0
 21 42  1  0
 21 43  1  0
 22 44  1  0
 22 45  1  0
 23 46  1  0
 24 47  1  0
 27 48  1  0
 27 49  1  0
 27 50  1  0
M  CHG  1  17   1
M  END
>  <UniqueID>  (5) 
5

>  <SMILES>  (5) 
Cc1ccc(S(=O)(=O)Cc2ccc(S(=O)(=O)[NH+]3CCOCC3)cc2)nc1C

>  <Energy>  (5) 
58.04407461332933

>  <Genealogy>  (5) 
Cc1ccc(S(=O)(=O)Cc2ccc(S(=O)(=O)[NH+]3CCOCC3)cc2)nc1C (protonated)
Cc1ccc(S(=O)(=O)Cc2ccc(S(=O)(=O)[NH+]3CCOCC3)cc2)nc1C (3D coordinates assigned)
Cc1ccc(S(=O)(=O)Cc2ccc(S(=O)(=O)[NH+]3CCOCC3)cc2)nc1C (nonaromatic ring conformer: 58.04407461332933 kcal/mol)

>  <smiles>  (5) 
Cc1ccc(S(=O)(=O)Cc2ccc(S(=O)(=O)N3CCOCC3)cc2)nc1C

>  <score_type>  (5) 
oracle

>  <origin>  (5) 
adgpu

>  <m_score__min__energy>  (5) 
-9.7200000000000006

>  <m_primary>  (5) 
energy

$$$$
5:0
     RDKit          3D

 50 53  0  0  0  0  0  0  0  0999 V2000
    3.3470   24.1800  -25.4680 N   0  0  0  0  0  0  0  0  0  0  0  0
    1.7420   24.3230  -24.8440 S   0  0  0  0  0  0  0  0  0  0  0  0
    1.6740   25.4790  -23.8870 O   0  0  0  0  0  0  0  0  0  0  0  0
    1.3800   23.0630  -24.1090 O   0  0  0  0  0  0  0  0  0  0  0  0
    0.6220   24.5950  -26.1740 C   0  0  0  0  0  0  0  0  0  0  0  0
   -0.4740   25.4510  -25.9960 C   0  0  0  0  0  0  0  0  0  0  0  0
   -1.3650   25.6810  -27.0500 C   0  0  0  0  0  0  0  0  0  0  0  0
   -1.1570   25.0820  -28.2980 C   0  0  0  0  0  0  0  0  0  0  0  0
   -2.1220   25.2920  -29.3420 N   0  0  0  0  0  0  0  0  0  0  0  0
   -3.0830   24.4940  -29.7150 C   0  0  0  0  0  0  0  0  0  0  0  0
   -3.2380   23.1920  -29.2080 C   0  0  0  0  0  0  0  0  0  0  0  0
   -4.2870   22.3990  -29.6680 C   0  0  0  0  0  0  0  0  0  0  0  0
   -5.1620   22.9060  -30.6380 C   0  0  0  0  0  0  0  0  0  0  0  0
   -6.2900   22.1030  -31.1700 C   0  0  0  0  0  0  0  0  0  0  0  0
   -7.5920   22.2450  -30.6560 C   0  0  0  0  0  0  0  0  0  0  0  0
   -8.6440   21.4890  -31.1780 C   0  0  0  0  0  0  0  0  0  0  0  0
   -8.4150   20.5870  -32.2190 C   0  0  0  0  0  0  0  0  0  0  0  0
   -7.1240   20.4330  -32.7530 C   0  0  0  0  0  0  0  0  0  0  0  0
   -6.8470   19.5050  -33.8180 N   0  0  0  0  0  0  0  0  0  0  0  0
   -5.9520   18.0290  -33.6190 S   0  0  0  0  0  0  0  0  0  0  0  0
   -6.4590   17.0160  -34.6100 O   0  0  0  0  0  0  0  0  0  0  0  0
   -6.1720   17.5020  -32.2280 O   0  0  0  0  0  0  0  0  0  0  0  0
   -4.2290   18.3320  -33.8410 C   0  0  0  0  0  0  0  0  0  0  0  0
   -3.6970   19.5780  -33.4710 C   0  0  0  0  0  0  0  0  0  0  0  0
   -2.3330   19.8370  -33.6360 C   0  0  0  0  0  0  0  0  0  0  0  0
   -1.4930   18.8550  -34.1680 C   0  0  0  0  0  0  0  0  0  0  0  0
   -2.0140   17.6100  -34.5320 C   0  0  0  0  0  0  0  0  0  0  0  0
   -3.3770   17.3420  -34.3660 C   0  0  0  0  0  0  0  0  0  0  0  0
   -3.8580   16.1230  -34.7170 F   0  0  0  0  0  0  0  0  0  0  0  0
   -6.0710   21.1980  -32.2250 C   0  0  0  0  0  0  0  0  0  0  0  0
   -4.9470   24.1600  -31.1170 N   0  0  0  0  0  0  0  0  0  0  0  0
   -3.9460   24.9230  -30.6730 N   0  0  0  0  0  0  0  0  0  0  0  0
   -0.0770   24.1980  -28.4650 C   0  0  0  0  0  0  0  0  0  0  0  0
    0.8160   23.9680  -27.4140 C   0  0  0  0  0  0  0  0  0  0  0  0
    3.2970   23.5480  -26.2980 H   0  0  0  0  0  0  0  0  0  0  0  0
   -0.6338   25.9430  -25.0253 H   0  0  0  0  0  0  0  0  0  0  0  0
   -2.2347   26.3369  -26.8969 H   0  0  0  0  0  0  0  0  0  0  0  0
   -2.5372   22.8028  -28.4547 H   0  0  0  0  0  0  0  0  0  0  0  0
   -4.4274   21.3822  -29.2726 H   0  0  0  0  0  0  0  0  0  0  0  0
   -7.7825   22.9556  -29.8382 H   0  0  0  0  0  0  0  0  0  0  0  0
   -9.6578   21.6047  -30.7671 H   0  0  0  0  0  0  0  0  0  0  0  0
   -9.2488   19.9942  -32.6231 H   0  0  0  0  0  0  0  0  0  0  0  0
   -7.2260   19.6990  -34.7710 H   0  0  0  0  0  0  0  0  0  0  0  0
   -4.3553   20.3523  -33.0502 H   0  0  0  0  0  0  0  0  0  0  0  0
   -1.9206   20.8149  -33.3467 H   0  0  0  0  0  0  0  0  0  0  0  0
   -0.4208   19.0620  -34.3004 H   0  0  0  0  0  0  0  0  0  0  0  0
   -1.3504   16.8388  -34.9502 H   0  0  0  0  0  0  0  0  0  0  0  0
   -5.0594   21.0879  -32.6427 H   0  0  0  0  0  0  0  0  0  0  0  0
    0.0663   23.6846  -29.4272 H   0  0  0  0  0  0  0  0  0  0  0  0
    1.6728   23.2937  -27.5597 H   0  0  0  0  0  0  0  0  0  0  0  0
  1  2  1  0
  2  3  2  0
  2  4  2  0
  2  5  1  0
  5  6  2  0
  6  7  1  0
  7  8  2  0
  8  9  1  0
  9 10  2  3
 10 11  1  0
 11 12  2  0
 12 13  1  0
 13 14  1  0
 14 15  2  0
 15 16  1  0
 16 17  2  0
 17 18  1  0
 18 19  1  0
 19 20  1  0
 20 21  2  0
 20 22  2  0
 20 23  1  0
 23 24  2  0
 24 25  1  0
 25 26  2  0
 26 27  1  0
 27 28  2  0
 28 29  1  0
 18 30  2  0
 13 31  2  0
 31 32  1  0
  8 33  1  0
 33 34  2  0
 34  5  1  0
 32 10  1  0
 30 14  1  0
 28 23  1  0
  1 35  1  0
  6 36  1  0
  7 37  1  0
 11 38  1  0
 12 39  1  0
 15 40  1  0
 16 41  1  0
 17 42  1  0
 19 43  1  0
 24 44  1  0
 25 45  1  0
 26 46  1  0
 27 47  1  0
 30 48  1  0
 33 49  1  0
 34 50  1  0
M  CHG  2   1  -1  32  -1
M  END
>  <UniqueID>  (6) 
6

>  <SMILES>  (6) 
[NH-]S(=O)(=O)c1ccc(N=c2ccc(-c3cccc(NS(=O)(=O)c4ccccc4F)c3)n[n-]2)cc1

>  <Energy>  (6) 
73.09508732408717

>  <Genealogy>  (6) 
[NH-]S(=O)(=O)c1ccc(N=c2ccc(-c3cccc(NS(=O)(=O)c4ccccc4F)c3)n[n-]2)cc1 (protonated)
[NH-]S(=O)(=O)c1ccc(N=c2ccc(-c3cccc(NS(=O)(=O)c4ccccc4F)c3)n[n-]2)cc1 (3D coordinates assigned)
[NH-]S(=O)(=O)c1ccc(N=c2ccc(-c3cccc(NS(=O)(=O)c4ccccc4F)c3)n[n-]2)cc1 (optimized conformer: 73.09508732408717 kcal/mol)

>  <smiles>  (6) 
NS(=O)(=O)c1ccc(N=c2ccc(-c3cccc(NS(=O)(=O)c4ccccc4F)c3)n[nH]2)cc1

>  <score_type>  (6) 
oracle

>  <origin>  (6) 
adgpu

>  <m_score__min__energy>  (6) 
-12.720000000000001

>  <m_primary>  (6) 
energy

$$$$
6:0
     RDKit          3D

 46 49  0  0  0  0  0  0  0  0999 V2000
    0.3830   24.5870  -28.2090 O   0  0  0  0  0  0  0  0  0  0  0  0
   -1.0170   24.0390  -28.2240 S   0  0  0  0  0  0  0  0  0  0  0  0
   -1.4480   23.7780  -26.8080 O   0  0  0  0  0  0  0  0  0  0  0  0
   -2.0800   25.1990  -28.9440 N   0  0  0  0  0  0  0  0  0  0  0  0
   -3.3760   24.8470  -29.4300 C   0  0  0  0  0  0  0  0  0  0  0  0
   -4.2300   24.0150  -28.7170 C   0  0  0  0  0  0  0  0  0  0  0  0
   -5.6390   23.8560  -29.6180 S   0  0  0  0  0  0  0  0  0  0  0  0
   -5.1030   24.8430  -30.8680 C   0  0  0  0  0  0  0  0  0  0  0  0
   -3.8580   25.3040  -30.6170 N   0  0  0  0  0  0  0  0  0  0  0  0
   -1.0440   22.5570  -29.1720 C   0  0  0  0  0  0  0  0  0  0  0  0
   -1.1880   22.6270  -30.5630 C   0  0  0  0  0  0  0  0  0  0  0  0
   -1.2670   21.4570  -31.3220 C   0  0  0  0  0  0  0  0  0  0  0  0
   -1.2200   20.2000  -30.6930 C   0  0  0  0  0  0  0  0  0  0  0  0
   -1.3390   19.0000  -31.4070 O   0  0  0  0  0  0  0  0  0  0  0  0
   -0.7410   18.7600  -32.6490 C   0  0  0  0  0  0  0  0  0  0  0  0
    0.6480   18.9040  -32.7540 C   0  0  0  0  0  0  0  0  0  0  0  0
    1.2920   18.6880  -33.9730 C   0  0  0  0  0  0  0  0  0  0  0  0
    0.5530   18.3170  -35.0980 C   0  0  0  0  0  0  0  0  0  0  0  0
    1.3630   18.0510  -36.6310 Cl  0  0  0  0  0  0  0  0  0  0  0  0
   -0.8310   18.1490  -35.0000 C   0  0  0  0  0  0  0  0  0  0  0  0
   -1.4920   18.3540  -33.7780 C   0  0  0  0  0  0  0  0  0  0  0  0
   -3.2400   18.0760  -33.7000 S   0  0  0  0  0  0  0  0  0  0  0  0
   -3.5370   16.9860  -32.7080 O   0  0  0  0  0  0  0  0  0  0  0  0
   -3.7200   17.6400  -35.0550 O   0  0  0  0  0  0  0  0  0  0  0  0
   -4.1080   19.5180  -33.1780 C   0  0  0  0  0  0  0  0  0  0  0  0
   -5.3590   19.3950  -32.5590 C   0  0  0  0  0  0  0  0  0  0  0  0
   -6.0460   20.5350  -32.1280 C   0  0  0  0  0  0  0  0  0  0  0  0
   -5.4880   21.8020  -32.3230 C   0  0  0  0  0  0  0  0  0  0  0  0
   -4.2470   21.9320  -32.9520 C   0  0  0  0  0  0  0  0  0  0  0  0
   -3.5590   20.7930  -33.3840 C   0  0  0  0  0  0  0  0  0  0  0  0
   -1.0470   20.1350  -29.3050 C   0  0  0  0  0  0  0  0  0  0  0  0
   -0.9690   21.3060  -28.5460 C   0  0  0  0  0  0  0  0  0  0  0  0
   -4.0222   23.5472  -27.7433 H   0  0  0  0  0  0  0  0  0  0  0  0
   -5.6870   25.0816  -31.7691 H   0  0  0  0  0  0  0  0  0  0  0  0
   -1.2391   23.6070  -31.0599 H   0  0  0  0  0  0  0  0  0  0  0  0
   -1.3663   21.5190  -32.4157 H   0  0  0  0  0  0  0  0  0  0  0  0
    1.2357   19.1895  -31.8691 H   0  0  0  0  0  0  0  0  0  0  0  0
    2.3827   18.8101  -34.0476 H   0  0  0  0  0  0  0  0  0  0  0  0
   -1.4081   17.8534  -35.8886 H   0  0  0  0  0  0  0  0  0  0  0  0
   -5.8023   18.3991  -32.4115 H   0  0  0  0  0  0  0  0  0  0  0  0
   -7.0247   20.4345  -31.6360 H   0  0  0  0  0  0  0  0  0  0  0  0
   -6.0267   22.6979  -31.9808 H   0  0  0  0  0  0  0  0  0  0  0  0
   -3.8110   22.9299  -33.1075 H   0  0  0  0  0  0  0  0  0  0  0  0
   -2.5858   20.8970  -33.8861 H   0  0  0  0  0  0  0  0  0  0  0  0
   -0.9720   19.1561  -28.8088 H   0  0  0  0  0  0  0  0  0  0  0  0
   -0.8484   21.2452  -27.4543 H   0  0  0  0  0  0  0  0  0  0  0  0
  1  2  2  0
  2  3  2  0
  2  4  1  0
  4  5  1  0
  5  6  2  0
  6  7  1  0
  7  8  1  0
  8  9  2  0
  2 10  1  0
 10 11  2  0
 11 12  1  0
 12 13  2  0
 13 14  1  0
 14 15  1  0
 15 16  2  0
 16 17  1  0
 17 18  2  0
 18 19  1  0
 18 20  1  0
 20 21  2  0
 21 22  1  0
 22 23  2  0
 22 24  2  0
 22 25  1  0
 25 26  2  0
 26 27  1  0
 27 28  2  0
 28 29  1  0
 29 30  2  0
 13 31  1  0
 31 32  2  0
  9  5  1  0
 32 10  1  0
 21 15  1  0
 30 25  1  0
  6 33  1  0
  8 34  1  0
 11 35  1  0
 12 36  1  0
 16 37  1  0
 17 38  1  0
 20 39  1  0
 26 40  1  0
 27 41  1  0
 28 42  1  0
 29 43  1  0
 30 44  1  0
 31 45  1  0
 32 46  1  0
M  CHG  1   4  -1
M  END
>  <UniqueID>  (7) 
7

>  <SMILES>  (7) 
O=S(=O)([N-]c1cscn1)c1ccc(Oc2ccc(Cl)cc2S(=O)(=O)c2ccccc2)cc1

>  <Energy>  (7) 
89.19651300135682

>  <Genealogy>  (7) 
O=S(=O)([N-]c1cscn1)c1ccc(Oc2ccc(Cl)cc2S(=O)(=O)c2ccccc2)cc1 (protonated)
O=S(=O)([N-]c1cscn1)c1ccc(Oc2ccc(Cl)cc2S(=O)(=O)c2ccccc2)cc1 (3D coordinates assigned)
O=S(=O)([N-]c1cscn1)c1ccc(Oc2ccc(Cl)cc2S(=O)(=O)c2ccccc2)cc1 (optimized conformer: 89.19651300135682 kcal/mol)

>  <smiles>  (7) 
O=S(=O)(Nc1cscn1)c1ccc(Oc2ccc(Cl)cc2S(=O)(=O)c2ccccc2)cc1

>  <score_type>  (7) 
oracle

>  <origin>  (7) 
adgpu

>  <m_score__min__energy>  (7) 
-11.18

>  <m_primary>  (7) 
energy

$$$$
7:0
     RDKit          3D

 57 60  0  0  0  0  0  0  0  0999 V2000
    0.2210   18.2390  -28.6010 C   0  0  0  0  0  0  0  0  0  0  0  0
    0.3560   19.3100  -29.5290 O   0  0  0  0  0  0  0  0  0  0  0  0
   -0.3130   20.5400  -29.4320 C   0  0  0  0  0  0  0  0  0  0  0  0
   -0.4910   21.1880  -28.1930 C   0  0  0  0  0  0  0  0  0  0  0  0
   -1.1400   22.4230  -28.1250 C   0  0  0  0  0  0  0  0  0  0  0  0
   -1.6060   23.0400  -29.2900 C   0  0  0  0  0  0  0  0  0  0  0  0
   -2.3300   24.6440  -29.2010 S   0  0  0  0  0  0  0  0  0  0  0  0
   -3.0140   24.8190  -27.8720 O   0  0  0  0  0  0  0  0  0  0  0  0
   -1.2390   25.6740  -29.3260 O   0  0  0  0  0  0  0  0  0  0  0  0
   -3.4900   24.8920  -30.4700 N   0  0  0  0  0  0  0  0  0  0  0  0
   -4.6820   24.1160  -30.6240 C   0  0  0  0  0  0  0  0  0  0  0  0
   -4.7340   23.0500  -31.5340 C   0  0  0  0  0  0  0  0  0  0  0  0
   -5.9140   22.3050  -31.7040 C   0  0  0  0  0  0  0  0  0  0  0  0
   -7.0600   22.6400  -30.9490 C   0  0  0  0  0  0  0  0  0  0  0  0
   -6.9830   23.6730  -30.0030 C   0  0  0  0  0  0  0  0  0  0  0  0
   -5.8060   24.4090  -29.8380 C   0  0  0  0  0  0  0  0  0  0  0  0
   -5.7810   25.4400  -28.8960 O   0  0  0  0  0  0  0  0  0  0  0  0
   -8.3410   21.8430  -31.0550 C   0  0  0  0  0  0  0  0  0  0  0  0
   -8.4240   21.0240  -32.3450 C   0  0  0  0  0  0  0  0  0  0  0  0
   -7.1240   20.2550  -32.5710 C   0  0  0  0  0  0  0  0  0  0  0  0
   -5.9560   21.2280  -32.7650 C   0  0  0  0  0  0  0  0  0  0  0  0
   -1.4410   22.3990  -30.5250 C   0  0  0  0  0  0  0  0  0  0  0  0
   -0.8120   21.1490  -30.6030 C   0  0  0  0  0  0  0  0  0  0  0  0
   -0.6210   20.3960  -32.1920 S   0  0  0  0  0  0  0  0  0  0  0  0
   -0.5850   21.4460  -33.2680 O   0  0  0  0  0  0  0  0  0  0  0  0
    0.6870   19.6530  -32.2150 O   0  0  0  0  0  0  0  0  0  0  0  0
   -1.9230   19.2730  -32.4930 N   0  0  0  0  0  0  0  0  0  0  0  0
   -2.9650   19.9200  -33.3100 C   0  0  0  0  0  0  0  0  0  0  0  0
   -3.9460   18.8740  -33.8730 C   0  0  0  0  0  0  0  0  0  0  0  0
   -3.3460   17.7710  -34.5530 O   0  0  0  0  0  0  0  0  0  0  0  0
   -1.9300   17.7830  -34.5100 C   0  0  0  0  0  0  0  0  0  0  0  0
   -1.4130   18.0150  -33.0830 C   0  0  0  0  0  0  0  0  0  0  0  0
    0.2708   18.6339  -27.5755 H   0  0  0  0  0  0  0  0  0  0  0  0
   -0.7471   17.7401  -28.7552 H   0  0  0  0  0  0  0  0  0  0  0  0
    1.0350   17.5154  -28.7552 H   0  0  0  0  0  0  0  0  0  0  0  0
   -0.1158   20.7174  -27.2723 H   0  0  0  0  0  0  0  0  0  0  0  0
   -1.2851   22.9124  -27.1506 H   0  0  0  0  0  0  0  0  0  0  0  0
   -3.8404   22.7937  -32.1220 H   0  0  0  0  0  0  0  0  0  0  0  0
   -7.8607   23.9071  -29.3826 H   0  0  0  0  0  0  0  0  0  0  0  0
   -4.9520   25.6710  -28.3630 H   0  0  0  0  0  0  0  0  0  0  0  0
   -8.3995   21.1559  -30.1980 H   0  0  0  0  0  0  0  0  0  0  0  0
   -9.1768   22.5582  -31.0620 H   0  0  0  0  0  0  0  0  0  0  0  0
   -9.2584   20.3112  -32.2689 H   0  0  0  0  0  0  0  0  0  0  0  0
   -8.5868   21.7069  -33.1918 H   0  0  0  0  0  0  0  0  0  0  0  0
   -6.9234   19.6171  -31.6976 H   0  0  0  0  0  0  0  0  0  0  0  0
   -7.2274   19.6361  -33.4745 H   0  0  0  0  0  0  0  0  0  0  0  0
   -5.0146   20.6602  -32.7281 H   0  0  0  0  0  0  0  0  0  0  0  0
   -6.0931   21.7235  -33.7375 H   0  0  0  0  0  0  0  0  0  0  0  0
   -1.8088   22.8817  -31.4425 H   0  0  0  0  0  0  0  0  0  0  0  0
   -3.5200   20.6359  -32.6859 H   0  0  0  0  0  0  0  0  0  0  0  0
   -2.4822   20.4394  -34.1509 H   0  0  0  0  0  0  0  0  0  0  0  0
   -4.5343   18.4750  -33.0336 H   0  0  0  0  0  0  0  0  0  0  0  0
   -4.5493   19.4011  -34.6268 H   0  0  0  0  0  0  0  0  0  0  0  0
   -1.5530   16.8159  -34.8741 H   0  0  0  0  0  0  0  0  0  0  0  0
   -1.5721   18.6066  -35.1452 H   0  0  0  0  0  0  0  0  0  0  0  0
   -1.7330   17.1737  -32.4507 H   0  0  0  0  0  0  0  0  0  0  0  0
   -0.3166   18.0894  -33.1326 H   0  0  0  0  0  0  0  0  0  0  0  0
  1  2  1  0
  2  3  1  0
  3  4  2  0
  4  5  1  0
  5  6  2  0
  6  7  1  0
  7  8  2  0
  7  9  2  0
  7 10  1  0
 10 11  1  0
 11 12  2  0
 12 13  1  0
 13 14  2  0
 14 15  1  0
 15 16  2  0
 16 17  1  0
 14 18  1  0
 18 19  1  0
 19 20  1  0
 20 21  1  0
  6 22  1  0
 22 23  2  0
 23 24  1  0
 24 25  2  0
 24 26  2  0
 24 27  1  0
 27 28  1  0
 28 29  1  0
 29 30  1  0
 30 31  1  0
 31 32  1  0
 23  3  1  0
 32 27  1  0
 16 11  1  0
 21 13  1  0
  1 33  1  0
  1 34  1  0
  1 35  1  0
  4 36  1  0
  5 37  1  0
 12 38  1  0
 15 39  1  0
 17 40  1  0
 18 41  1  0
 18 42  1  0
 19 43  1  0
 19 44  1  0
 20 45  1  0
 20 46  1  0
 21 47  1  0
 21 48  1  0
 22 49  1  0
 28 50  1  0
 28 51  1  0
 29 52  1  0
 29 53  1  0
 31 54  1  0
 31 55  1  0
 32 56  1  0
 32 57  1  0
M  CHG  1  10  -1
M  END
>  <UniqueID>  (8) 
8

>  <SMILES>  (8) 
COc1ccc(S(=O)(=O)[N-]c2cc3c(cc2O)CCCC3)cc1S(=O)(=O)N1CCOCC1

>  <Energy>  (8) 
76.39442401857195

>  <Genealogy>  (8) 
COc1ccc(S(=O)(=O)[N-]c2cc3c(cc2O)CCCC3)cc1S(=O)(=O)N1CCOCC1 (protonated)
COc1ccc(S(=O)(=O)[N-]c2cc3c(cc2O)CCCC3)cc1S(=O)(=O)N1CCOCC1 (3D coordinates assigned)
COc1ccc(S(=O)(=O)[N-]c2cc3c(cc2O)CCCC3)cc1S(=O)(=O)N1CCOCC1 (nonaromatic ring conformer: 76.39442401857195 kcal/mol)

>  <smiles>  (8) 
COc1ccc(S(=O)(=O)Nc2cc3c(cc2O)CCCC3)cc1S(=O)(=O)N1CCOCC1

>  <score_type>  (8) 
oracle

>  <origin>  (8) 
adgpu

>  <m_score__min__energy>  (8) 
-12.869999999999999

>  <m_primary>  (8) 
energy

$$$$
8:0
     RDKit          3D

 38 39  0  0  0  0  0  0  0  0999 V2000
   -8.2180   19.6160  -32.2350 C   0  0  0  0  0  0  0  0  0  0  0  0
   -7.2940   20.0370  -33.0970 C   0  0  0  0  0  0  0  0  0  0  0  0
   -5.8690   19.6600  -32.9790 C   0  0  0  0  0  0  0  0  0  0  0  0
   -5.5510   18.5150  -32.5580 O   0  0  0  0  0  0  0  0  0  0  0  0
   -4.8270   20.5990  -33.2720 N   0  0  0  0  0  0  0  0  0  0  0  0
   -4.3240   21.6020  -32.3770 C   0  0  0  0  0  0  0  0  0  0  0  0
   -5.2060   22.5670  -31.8810 C   0  0  0  0  0  0  0  0  0  0  0  0
   -4.7610   23.5600  -30.9960 C   0  0  0  0  0  0  0  0  0  0  0  0
   -5.8870   24.7920  -30.4200 S   0  0  0  0  0  0  0  0  0  0  0  0
   -5.5630   25.1310  -28.7550 N   0  0  0  0  0  0  0  0  0  0  0  0
   -7.2950   24.2890  -30.5680 O   0  0  0  0  0  0  0  0  0  0  0  0
   -5.7350   26.0570  -31.2170 O   0  0  0  0  0  0  0  0  0  0  0  0
   -3.4140   23.5760  -30.5840 C   0  0  0  0  0  0  0  0  0  0  0  0
   -2.9640   24.6040  -29.6890 N   0  0  0  0  0  0  0  0  0  0  0  0
   -2.4960   24.3600  -28.0370 S   0  0  0  0  0  0  0  0  0  0  0  0
   -3.6410   24.7360  -27.1390 O   0  0  0  0  0  0  0  0  0  0  0  0
   -1.3170   25.2370  -27.7250 O   0  0  0  0  0  0  0  0  0  0  0  0
   -2.0360   22.6790  -27.7930 C   0  0  0  0  0  0  0  0  0  0  0  0
   -0.6840   22.3170  -27.7000 C   0  0  0  0  0  0  0  0  0  0  0  0
   -0.3280   20.9820  -27.4860 C   0  0  0  0  0  0  0  0  0  0  0  0
   -1.3200   20.0020  -27.3650 C   0  0  0  0  0  0  0  0  0  0  0  0
   -0.8710   18.3280  -27.0920 Cl  0  0  0  0  0  0  0  0  0  0  0  0
   -2.6690   20.3580  -27.4610 C   0  0  0  0  0  0  0  0  0  0  0  0
   -3.0270   21.6930  -27.6760 C   0  0  0  0  0  0  0  0  0  0  0  0
   -2.5390   22.5790  -31.0520 C   0  0  0  0  0  0  0  0  0  0  0  0
   -2.9900   21.5940  -31.9340 C   0  0  0  0  0  0  0  0  0  0  0  0
   -2.1370   20.6110  -32.3140 F   0  0  0  0  0  0  0  0  0  0  0  0
   -9.2673   19.9212  -32.3608 H   0  0  0  0  0  0  0  0  0  0  0  0
   -7.9318   18.9631  -31.3973 H   0  0  0  0  0  0  0  0  0  0  0  0
   -7.6023   20.6892  -33.9274 H   0  0  0  0  0  0  0  0  0  0  0  0
   -6.2619   22.5471  -32.1887 H   0  0  0  0  0  0  0  0  0  0  0  0
   -5.4440   24.2120  -28.2740 H   0  0  0  0  0  0  0  0  0  0  0  0
   -4.6390   25.6160  -28.7160 H   0  0  0  0  0  0  0  0  0  0  0  0
    0.0977   23.0850  -27.7956 H   0  0  0  0  0  0  0  0  0  0  0  0
    0.7331   20.7015  -27.4126 H   0  0  0  0  0  0  0  0  0  0  0  0
   -3.4488   19.5879  -27.3674 H   0  0  0  0  0  0  0  0  0  0  0  0
   -4.0886   21.9705  -27.7536 H   0  0  0  0  0  0  0  0  0  0  0  0
   -1.4902   22.5749  -30.7205 H   0  0  0  0  0  0  0  0  0  0  0  0
  1  2  2  0
  2  3  1  0
  3  4  2  0
  3  5  1  0
  5  6  1  0
  6  7  2  0
  7  8  1  0
  8  9  1  0
  9 10  1  0
  9 11  2  0
  9 12  2  0
  8 13  2  0
 13 14  1  0
 14 15  1  0
 15 16  2  0
 15 17  2  0
 15 18  1  0
 18 19  2  0
 19 20  1  0
 20 21  2  0
 21 22  1  0
 21 23  1  0
 23 24  2  0
 13 25  1  0
 25 26  2  0
 26 27  1  0
 26  6  1  0
 24 18  1  0
  1 28  1  0
  1 29  1  0
  2 30  1  0
  7 31  1  0
 10 32  1  0
 10 33  1  0
 19 34  1  0
 20 35  1  0
 23 36  1  0
 24 37  1  0
 25 38  1  0
M  CHG  2   5  -1  14  -1
M  END
>  <UniqueID>  (9) 
9

>  <SMILES>  (9) 
C=CC(=O)[N-]c1cc(S(N)(=O)=O)c([N-]S(=O)(=O)c2ccc(Cl)cc2)cc1F

>  <Energy>  (9) 
44.81319223033643

>  <Genealogy>  (9) 
C=CC(=O)[N-]c1cc(S(N)(=O)=O)c([N-]S(=O)(=O)c2ccc(Cl)cc2)cc1F (protonated)
C=CC(=O)[N-]c1cc(S(N)(=O)=O)c([N-]S(=O)(=O)c2ccc(Cl)cc2)cc1F (3D coordinates assigned)
C=CC(=O)[N-]c1cc(S(N)(=O)=O)c([N-]S(=O)(=O)c2ccc(Cl)cc2)cc1F (optimized conformer: 44.81319223033643 kcal/mol)

>  <smiles>  (9) 
C=CC(=O)Nc1cc(S(N)(=O)=O)c(NS(=O)(=O)c2ccc(Cl)cc2)cc1F

>  <score_type>  (9) 
oracle

>  <origin>  (9) 
adgpu

>  <m_score__min__energy>  (9) 
-10.390000000000001

>  <m_primary>  (9) 
energy

$$$$
9:0
     RDKit          3D

 67 71  0  0  0  0  0  0  0  0999 V2000
   -3.7150   24.1080  -27.4840 C   0  0  0  0  0  0  0  0  0  0  0  0
   -2.9890   24.3090  -28.6930 O   0  0  0  0  0  0  0  0  0  0  0  0
   -2.4510   23.2740  -29.4780 C   0  0  0  0  0  0  0  0  0  0  0  0
   -1.1340   22.8060  -29.2920 C   0  0  0  0  0  0  0  0  0  0  0  0
   -0.6370   21.7610  -30.0760 C   0  0  0  0  0  0  0  0  0  0  0  0
   -1.4430   21.1720  -31.0490 C   0  0  0  0  0  0  0  0  0  0  0  0
   -2.7500   21.6220  -31.2430 C   0  0  0  0  0  0  0  0  0  0  0  0
   -3.2600   22.6760  -30.4660 C   0  0  0  0  0  0  0  0  0  0  0  0
   -4.6440   23.1400  -30.6980 C   0  0  0  0  0  0  0  0  0  0  0  0
   -5.6790   22.2050  -30.8650 C   0  0  0  0  0  0  0  0  0  0  0  0
   -7.0060   22.6310  -31.0430 C   0  0  0  0  0  0  0  0  0  0  0  0
   -8.0720   21.6680  -31.1400 N   0  0  0  0  0  0  0  0  0  0  0  0
   -9.0690   21.6210  -30.0680 C   0  0  0  0  0  0  0  0  0  0  0  0
   -8.3240   20.9670  -32.4080 C   0  0  0  0  0  0  0  0  0  0  0  0
   -7.2750   19.9180  -32.6610 C   0  0  0  0  0  0  0  0  0  0  0  0
   -6.5060   19.9520  -33.8300 C   0  0  0  0  0  0  0  0  0  0  0  0
   -5.5520   18.9610  -34.0700 C   0  0  0  0  0  0  0  0  0  0  0  0
   -5.3660   17.9350  -33.1270 C   0  0  0  0  0  0  0  0  0  0  0  0
   -4.3980   16.8370  -33.3720 C   0  0  0  0  0  0  0  0  0  0  0  0
   -4.8020   15.6380  -33.3280 O   0  0  0  0  0  0  0  0  0  0  0  0
   -2.9850   17.1170  -33.5500 N   0  0  2  0  0  0  0  0  0  0  0  0
   -2.1420   15.9850  -33.0700 C   0  0  0  0  0  0  0  0  0  0  0  0
   -0.7010   15.9980  -33.6170 C   0  0  0  0  0  0  0  0  0  0  0  0
    0.0320   17.1960  -33.1930 N   0  0  0  0  0  0  0  0  0  0  0  0
   -0.2290   18.5390  -33.6530 C   0  0  0  0  0  0  0  0  0  0  0  0
    0.8350   19.2780  -34.1970 C   0  0  0  0  0  0  0  0  0  0  0  0
    0.6250   20.5570  -34.7170 C   0  0  0  0  0  0  0  0  0  0  0  0
   -0.6510   21.1160  -34.7020 C   0  0  0  0  0  0  0  0  0  0  0  0
   -1.7180   20.4050  -34.1500 C   0  0  0  0  0  0  0  0  0  0  0  0
   -1.5200   19.1240  -33.6050 C   0  0  0  0  0  0  0  0  0  0  0  0
   -2.6750   18.4250  -32.9300 C   0  0  0  0  0  0  0  0  0  0  0  0
   -6.1120   17.9380  -31.9880 N   0  0  0  0  0  0  0  0  0  0  0  0
   -7.0450   18.8920  -31.7330 C   0  0  0  0  0  0  0  0  0  0  0  0
   -7.2830   24.0090  -31.0650 C   0  0  0  0  0  0  0  0  0  0  0  0
   -6.2560   24.9420  -30.9070 C   0  0  0  0  0  0  0  0  0  0  0  0
   -4.9400   24.5130  -30.7170 C   0  0  0  0  0  0  0  0  0  0  0  0
   -3.9570   25.4370  -30.5570 F   0  0  0  0  0  0  0  0  0  0  0  0
   -3.0536   24.2911  -26.6244 H   0  0  0  0  0  0  0  0  0  0  0  0
   -4.5657   24.8044  -27.4470 H   0  0  0  0  0  0  0  0  0  0  0  0
   -4.0864   23.0732  -27.4470 H   0  0  0  0  0  0  0  0  0  0  0  0
   -0.4937   23.2662  -28.5251 H   0  0  0  0  0  0  0  0  0  0  0  0
    0.3920   21.4027  -29.9249 H   0  0  0  0  0  0  0  0  0  0  0  0
   -1.0482   20.3508  -31.6652 H   0  0  0  0  0  0  0  0  0  0  0  0
   -3.3838   21.1493  -32.0078 H   0  0  0  0  0  0  0  0  0  0  0  0
   -5.4484   21.1295  -30.8563 H   0  0  0  0  0  0  0  0  0  0  0  0
   -8.5604   21.6450  -29.0929 H   0  0  0  0  0  0  0  0  0  0  0  0
   -9.7400   22.4885  -30.1530 H   0  0  0  0  0  0  0  0  0  0  0  0
   -9.6554   20.6942  -30.1530 H   0  0  0  0  0  0  0  0  0  0  0  0
   -9.3116   20.4847  -32.3625 H   0  0  0  0  0  0  0  0  0  0  0  0
   -8.2912   21.7006  -33.2270 H   0  0  0  0  0  0  0  0  0  0  0  0
   -6.6534   20.7608  -34.5609 H   0  0  0  0  0  0  0  0  0  0  0  0
   -4.9502   18.9829  -34.9905 H   0  0  0  0  0  0  0  0  0  0  0  0
   -2.7980   17.2030  -34.5780 H   0  0  0  0  0  0  0  0  0  0  0  0
   -2.0952   16.0304  -31.9719 H   0  0  0  0  0  0  0  0  0  0  0  0
   -2.6125   15.0609  -33.4371 H   0  0  0  0  0  0  0  0  0  0  0  0
   -0.1718   15.1074  -33.2473 H   0  0  0  0  0  0  0  0  0  0  0  0
   -0.7524   15.9997  -34.7158 H   0  0  0  0  0  0  0  0  0  0  0  0
    0.9040   17.0320  -32.6410 H   0  0  0  0  0  0  0  0  0  0  0  0
    1.8456   18.8439  -34.2135 H   0  0  0  0  0  0  0  0  0  0  0  0
    1.4681   21.1237  -35.1389 H   0  0  0  0  0  0  0  0  0  0  0  0
   -0.8177   22.1176  -35.1251 H   0  0  0  0  0  0  0  0  0  0  0  0
   -2.7234   20.8512  -34.1413 H   0  0  0  0  0  0  0  0  0  0  0  0
   -2.4200   18.2627  -31.8723 H   0  0  0  0  0  0  0  0  0  0  0  0
   -3.5629   19.0653  -33.0376 H   0  0  0  0  0  0  0  0  0  0  0  0
   -7.6213   18.8596  -30.7966 H   0  0  0  0  0  0  0  0  0  0  0  0
   -8.3173   24.3552  -31.2079 H   0  0  0  0  0  0  0  0  0  0  0  0
   -6.4838   26.0179  -30.9322 H   0  0  0  0  0  0  0  0  0  0  0  0
  1  2  1  0
  2  3  1  0
  3  4  2  0
  4  5  1  0
  5  6  2  0
  6  7  1  0
  7  8  2  0
  8  9  1  0
  9 10  2  0
 10 11  1  0
 11 12  1  0
 12 13  1  0
 12 14  1  0
 14 15  1  0
 15 16  2  0
 16 17  1  0
 17 18  2  0
 18 19  1  0
 19 20  2  0
 19 21  1  0
 21 22  1  0
 22 23  1  0
 23 24  1  0
 24 25  1  0
 25 26  2  0
 26 27  1  0
 27 28  2  0
 28 29  1  0
 29 30  2  0
 30 31  1  0
 18 32  1  0
 32 33  2  0
 11 34  2  0
 34 35  1  0
 35 36  2  0
 36 37  1  0
  8  3  1  0
 36  9  1  0
 33 15  1  0
 31 21  1  0
 30 25  1  0
  1 38  1  0
  1 39  1  0
  1 40  1  0
  4 41  1  0
  5 42  1  0
  6 43  1  0
  7 44  1  0
 10 45  1  0
 13 46  1  0
 13 47  1  0
 13 48  1  0
 14 49  1  0
 14 50  1  0
 16 51  1  0
 17 52  1  0
 21 53  1  6
 22 54  1  0
 22 55  1  0
 23 56  1  0
 23 57  1  0
 24 58  1  0
 26 59  1  0
 27 60  1  0
 28 61  1  0
 29 62  1  0
 31 63  1  0
 31 64  1  0
 33 65  1  0
 34 66  1  0
 35 67  1  0
M  CHG  1  21   1
M  END
>  <UniqueID>  (10) 
10

>  <SMILES>  (10) 
COc1ccccc1-c1cc(N(C)Cc2ccc(C(=O)[N@@H+]3CCNc4ccccc4C3)nc2)ccc1F

>  <Energy>  (10) 
97.89402279657622

>  <Genealogy>  (10) 
COc1ccccc1-c1cc(N(C)Cc2ccc(C(=O)[NH+]3CCNc4ccccc4C3)nc2)ccc1F (protonated)
COc1ccccc1-c1cc(N(C)Cc2ccc(C(=O)[N@@H+]3CCNc4ccccc4C3)nc2)ccc1F (chirality)
COc1ccccc1-c1cc(N(C)Cc2ccc(C(=O)[N@@H+]3CCNc4ccccc4C3)nc2)ccc1F (3D coordinates assigned)
COc1ccccc1-c1cc(N(C)Cc2ccc(C(=O)[N@@H+]3CCNc4ccccc4C3)nc2)ccc1F (nonaromatic ring conformer: 97.89402279657622 kcal/mol)

>  <smiles>  (10) 
COc1ccccc1-c1cc(N(C)Cc2ccc(C(=O)N3CCNc4ccccc4C3)nc2)ccc1F

>  <score_type>  (10) 
oracle

>  <origin>  (10) 
adgpu

>  <m_score__min__energy>  (10) 
-7.5599999999999996

>  <m_primary>  (10) 
energy

$$$$
10:0
     RDKit          3D

 52 55  0  0  0  0  0  0  0  0999 V2000
   -2.7510   21.0240  -29.0350 C   0  0  0  0  0  0  0  0  0  0  0  0
   -2.0220   22.2710  -28.6110 C   0  0  0  0  0  0  0  0  0  0  0  0
   -2.6010   23.5620  -28.7300 C   0  0  0  0  0  0  0  0  0  0  0  0
   -3.9190   23.6970  -29.2840 N   0  0  0  0  0  0  0  0  0  0  0  0
   -4.2670   24.4130  -30.4730 C   0  0  0  0  0  0  0  0  0  0  0  0
   -4.2340   25.6720  -30.4570 O   0  0  0  0  0  0  0  0  0  0  0  0
   -4.6360   23.7130  -31.6670 N   0  0  0  0  0  0  0  0  0  0  0  0
   -5.7190   22.7800  -31.7690 C   0  0  0  0  0  0  0  0  0  0  0  0
   -6.9290   23.0900  -31.1450 C   0  0  0  0  0  0  0  0  0  0  0  0
   -8.0160   22.2250  -31.2470 C   0  0  0  0  0  0  0  0  0  0  0  0
   -7.9010   21.0200  -31.9440 C   0  0  0  0  0  0  0  0  0  0  0  0
   -9.3420   20.0190  -32.0830 Cl  0  0  0  0  0  0  0  0  0  0  0  0
   -6.6620   20.6490  -32.5170 C   0  0  0  0  0  0  0  0  0  0  0  0
   -6.4810   19.0930  -33.3580 S   0  0  0  0  0  0  0  0  0  0  0  0
   -7.6280   18.1780  -33.0330 O   0  0  0  0  0  0  0  0  0  0  0  0
   -6.4850   19.3200  -34.8450 O   0  0  0  0  0  0  0  0  0  0  0  0
   -4.9370   18.3150  -32.8700 C   0  0  0  0  0  0  0  0  0  0  0  0
   -3.8340   18.5450  -33.9300 C   0  0  0  0  0  0  0  0  0  0  0  0
   -3.6880   17.3330  -34.8590 C   0  0  0  0  0  0  0  0  0  0  0  0
   -3.2980   16.1110  -34.1120 N   0  0  0  0  0  0  0  0  0  0  0  0
   -3.6180   14.9100  -34.9000 C   0  0  0  0  0  0  0  0  0  0  0  0
   -3.8590   16.0230  -32.7390 C   0  0  0  0  0  0  0  0  0  0  0  0
   -5.1640   16.8140  -32.5820 C   0  0  0  0  0  0  0  0  0  0  0  0
   -5.5720   21.5440  -32.4280 C   0  0  0  0  0  0  0  0  0  0  0  0
   -4.3360   21.2030  -32.9720 O   0  0  0  0  0  0  0  0  0  0  0  0
   -1.8440   24.7110  -28.3710 C   0  0  0  0  0  0  0  0  0  0  0  0
   -0.5330   24.5860  -27.8790 C   0  0  0  0  0  0  0  0  0  0  0  0
    0.0000   23.3080  -27.7740 C   0  0  0  0  0  0  0  0  0  0  0  0
    1.2320   22.9640  -27.3610 N   0  0  0  0  0  0  0  0  0  0  0  0
    1.3190   21.6400  -27.4470 N   0  0  0  0  0  0  0  0  0  0  0  0
    0.1500   21.1450  -27.9160 C   0  0  0  0  0  0  0  0  0  0  0  0
   -0.7090   22.1990  -28.1310 C   0  0  0  0  0  0  0  0  0  0  0  0
   -3.0760   20.4681  -28.1432 H   0  0  0  0  0  0  0  0  0  0  0  0
   -3.6302   21.2996  -29.6358 H   0  0  0  0  0  0  0  0  0  0  0  0
   -2.0795   20.3931  -29.6358 H   0  0  0  0  0  0  0  0  0  0  0  0
   -7.0244   24.0226  -30.5696 H   0  0  0  0  0  0  0  0  0  0  0  0
   -8.9727   22.4930  -30.7749 H   0  0  0  0  0  0  0  0  0  0  0  0
   -4.5831   18.7851  -31.9406 H   0  0  0  0  0  0  0  0  0  0  0  0
   -4.0949   19.4279  -34.5321 H   0  0  0  0  0  0  0  0  0  0  0  0
   -2.8782   18.6972  -33.4072 H   0  0  0  0  0  0  0  0  0  0  0  0
   -4.6494   17.1516  -35.3617 H   0  0  0  0  0  0  0  0  0  0  0  0
   -2.8962   17.5550  -35.5896 H   0  0  0  0  0  0  0  0  0  0  0  0
   -3.8407   14.0742  -34.2204 H   0  0  0  0  0  0  0  0  0  0  0  0
   -4.4941   15.1103  -35.5343 H   0  0  0  0  0  0  0  0  0  0  0  0
   -2.7584   14.6478  -35.5343 H   0  0  0  0  0  0  0  0  0  0  0  0
   -4.0577   14.9663  -32.5069 H   0  0  0  0  0  0  0  0  0  0  0  0
   -3.1209   16.4586  -32.0495 H   0  0  0  0  0  0  0  0  0  0  0  0
   -5.9106   16.4208  -33.2877 H   0  0  0  0  0  0  0  0  0  0  0  0
   -5.5189   16.7046  -31.5466 H   0  0  0  0  0  0  0  0  0  0  0  0
   -2.2900   25.7106  -28.4797 H   0  0  0  0  0  0  0  0  0  0  0  0
    0.0512   25.4711  -27.5869 H   0  0  0  0  0  0  0  0  0  0  0  0
   -0.0750   20.0832  -28.0947 H   0  0  0  0  0  0  0  0  0  0  0  0
  1  2  1  0
  2  3  2  0
  3  4  1  0
  4  5  1  0
  5  6  2  0
  5  7  1  0
  7  8  1  0
  8  9  2  0
  9 10  1  0
 10 11  2  0
 11 12  1  0
 11 13  1  0
 13 14  1  0
 14 15  2  0
 14 16  2  0
 14 17  1  0
 17 18  1  0
 18 19  1  0
 19 20  1  0
 20 21  1  0
 20 22  1  0
 22 23  1  0
 13 24  2  0
 24 25  1  0
  3 26  1  0
 26 27  2  0
 27 28  1  0
 28 29  1  0
 29 30  1  0
 30 31  2  0
 31 32  1  0
 32  2  1  0
 24  8  1  0
 32 28  2  0
 23 17  1  0
  1 33  1  0
  1 34  1  0
  1 35  1  0
  9 36  1  0
 10 37  1  0
 17 38  1  0
 18 39  1  0
 18 40  1  0
 19 41  1  0
 19 42  1  0
 21 43  1  0
 21 44  1  0
 21 45  1  0
 22 46  1  0
 22 47  1  0
 23 48  1  0
 23 49  1  0
 26 50  1  0
 27 51  1  0
 31 52  1  0
M  CHG  4   4  -1   7  -1  25  -1  29  -1
M  END
>  <UniqueID>  (11) 
11

>  <SMILES>  (11) 
Cc1c([N-]C(=O)[N-]c2ccc(Cl)c(S(=O)(=O)C3CCN(C)CC3)c2[O-])ccc2[n-]ncc12

>  <Energy>  (11) 
110.41584256437334

>  <Genealogy>  (11) 
Cc1c([N-]C(=O)[N-]c2ccc(Cl)c(S(=O)(=O)C3CCN(C)CC3)c2[O-])ccc2[n-]ncc12 (protonated)
Cc1c([N-]C(=O)[N-]c2ccc(Cl)c(S(=O)(=O)C3CCN(C)CC3)c2[O-])ccc2[n-]ncc12 (3D coordinates assigned)
Cc1c([N-]C(=O)[N-]c2ccc(Cl)c(S(=O)(=O)C3CCN(C)CC3)c2[O-])ccc2[n-]ncc12 (nonaromatic ring conformer: 110.41584256437334 kcal/mol)

>  <smiles>  (11) 
Cc1c(NC(=O)Nc2ccc(Cl)c(S(=O)(=O)C3CCN(C)CC3)c2O)ccc2[nH]ncc12

>  <score_type>  (11) 
oracle

>  <origin>  (11) 
adgpu

>  <m_score__min__energy>  (11) 
-15.9

>  <m_primary>  (11) 
energy

$$$$
11:0
     RDKit          3D

 36 37  0  0  0  0  0  0  0  0999 V2000
   -1.2410   26.0280  -28.9690 N   0  0  0  0  0  0  0  0  0  0  0  0
   -2.0390   24.8530  -29.1020 C   0  0  0  0  0  0  0  0  0  0  0  0
   -3.1370   24.9240  -29.7180 O   0  0  0  0  0  0  0  0  0  0  0  0
   -1.5630   23.5600  -28.5540 C   0  0  0  0  0  0  0  0  0  0  0  0
   -0.5040   23.5610  -27.6260 C   0  0  0  0  0  0  0  0  0  0  0  0
    0.0310   22.3590  -27.1540 C   0  0  0  0  0  0  0  0  0  0  0  0
   -0.4770   21.1420  -27.6040 C   0  0  0  0  0  0  0  0  0  0  0  0
   -1.5380   21.1200  -28.5100 C   0  0  0  0  0  0  0  0  0  0  0  0
   -2.1050   22.3180  -28.9750 C   0  0  0  0  0  0  0  0  0  0  0  0
   -3.2410   22.2460  -29.8460 N   0  0  0  0  0  0  0  0  0  0  0  0
   -3.1520   21.5720  -31.1390 C   0  0  0  0  0  0  0  0  0  0  0  0
   -4.0310   22.2600  -32.1320 C   0  0  0  0  0  0  0  0  0  0  0  0
   -4.1930   21.7640  -33.2790 O   0  0  0  0  0  0  0  0  0  0  0  0
   -4.7170   23.4570  -31.7580 N   0  0  0  0  0  0  0  0  0  0  0  0
   -6.1330   23.4320  -30.7610 S   0  0  0  0  0  0  0  0  0  0  0  0
   -6.7770   24.7900  -30.7950 O   0  0  0  0  0  0  0  0  0  0  0  0
   -5.7380   23.1040  -29.3500 O   0  0  0  0  0  0  0  0  0  0  0  0
   -7.2510   22.2050  -31.3490 C   0  0  0  0  0  0  0  0  0  0  0  0
   -8.5990   22.5220  -31.5600 C   0  0  0  0  0  0  0  0  0  0  0  0
   -9.4820   21.5510  -32.0420 C   0  0  0  0  0  0  0  0  0  0  0  0
   -9.0230   20.2580  -32.3130 C   0  0  0  0  0  0  0  0  0  0  0  0
   -7.6780   19.9350  -32.0990 C   0  0  0  0  0  0  0  0  0  0  0  0
   -7.0450   18.1730  -32.4780 Br  0  0  0  0  0  0  0  0  0  0  0  0
   -6.7950   20.9050  -31.6130 C   0  0  0  0  0  0  0  0  0  0  0  0
   -0.8600   26.5160  -29.8100 H   0  0  0  0  0  0  0  0  0  0  0  0
   -0.0937   24.5171  -27.2690 H   0  0  0  0  0  0  0  0  0  0  0  0
    0.8551   22.3738  -26.4255 H   0  0  0  0  0  0  0  0  0  0  0  0
   -0.0413   20.1980  -27.2448 H   0  0  0  0  0  0  0  0  0  0  0  0
   -1.9337   20.1563  -28.8631 H   0  0  0  0  0  0  0  0  0  0  0  0
   -3.9690   22.9900  -29.7470 H   0  0  0  0  0  0  0  0  0  0  0  0
   -2.1110   21.5984  -31.4933 H   0  0  0  0  0  0  0  0  0  0  0  0
   -3.4799   20.5280  -31.0268 H   0  0  0  0  0  0  0  0  0  0  0  0
   -8.9638   23.5374  -31.3459 H   0  0  0  0  0  0  0  0  0  0  0  0
  -10.5394   21.8044  -32.2083 H   0  0  0  0  0  0  0  0  0  0  0  0
   -9.7184   19.4956  -32.6940 H   0  0  0  0  0  0  0  0  0  0  0  0
   -5.7401   20.6476  -31.4374 H   0  0  0  0  0  0  0  0  0  0  0  0
  1  2  1  0
  2  3  2  0
  2  4  1  0
  4  5  2  0
  5  6  1  0
  6  7  2  0
  7  8  1  0
  8  9  2  0
  9 10  1  0
 10 11  1  0
 11 12  1  0
 12 13  2  0
 12 14  1  0
 14 15  1  0
 15 16  2  0
 15 17  2  0
 15 18  1  0
 18 19  2  0
 19 20  1  0
 20 21  2  0
 21 22  1  0
 22 23  1  0
 22 24  2  0
  9  4  1  0
 24 18  1  0
  1 25  1  0
  5 26  1  0
  6 27  1  0
  7 28  1  0
  8 29  1  0
 10 30  1  0
 11 31  1  0
 11 32  1  0
 19 33  1  0
 20 34  1  0
 21 35  1  0
 24 36  1  0
M  CHG  2   1  -1  14  -1
M  END
>  <UniqueID>  (12) 
12

>  <SMILES>  (12) 
[NH-]C(=O)c1ccccc1NCC(=O)[N-]S(=O)(=O)c1cccc(Br)c1

>  <Energy>  (12) 
43.28364096389237

>  <Genealogy>  (12) 
[NH-]C(=O)c1ccccc1NCC(=O)[N-]S(=O)(=O)c1cccc(Br)c1 (protonated)
[NH-]C(=O)c1ccccc1NCC(=O)[N-]S(=O)(=O)c1cccc(Br)c1 (3D coordinates assigned)
[NH-]C(=O)c1ccccc1NCC(=O)[N-]S(=O)(=O)c1cccc(Br)c1 (optimized conformer: 43.28364096389237 kcal/mol)

>  <smiles>  (12) 
NC(=O)c1ccccc1NCC(=O)NS(=O)(=O)c1cccc(Br)c1

>  <score_type>  (12) 
oracle

>  <origin>  (12) 
adgpu

>  <m_score__min__energy>  (12) 
-11.960000000000001

>  <m_primary>  (12) 
energy

$$$$
12:0
     RDKit          3D

 42 44  0  0  0  0  0  0  0  0999 V2000
   -0.7200   21.7730  -29.7390 O   0  0  0  0  0  0  0  0  0  0  0  0
   -1.3420   22.8690  -29.7260 C   0  0  0  0  0  0  0  0  0  0  0  0
   -0.6840   24.0250  -29.1870 N   0  0  0  0  0  0  0  0  0  0  0  0
   -0.7670   24.4860  -27.8300 C   0  0  0  0  0  0  0  0  0  0  0  0
   -0.6610   23.5460  -26.7970 C   0  0  0  0  0  0  0  0  0  0  0  0
   -0.7270   23.9520  -25.4610 C   0  0  0  0  0  0  0  0  0  0  0  0
   -0.9150   25.2980  -25.1480 C   0  0  0  0  0  0  0  0  0  0  0  0
   -1.0530   26.2400  -26.1700 C   0  0  0  0  0  0  0  0  0  0  0  0
   -0.9980   25.8420  -27.5120 C   0  0  0  0  0  0  0  0  0  0  0  0
   -1.2010   26.7830  -28.5210 O   0  0  0  0  0  0  0  0  0  0  0  0
   -2.7000   22.9470  -30.3160 C   0  0  0  0  0  0  0  0  0  0  0  0
   -3.2780   21.8110  -30.9050 C   0  0  0  0  0  0  0  0  0  0  0  0
   -4.5540   21.8750  -31.4700 C   0  0  0  0  0  0  0  0  0  0  0  0
   -5.2780   23.0710  -31.4540 C   0  0  0  0  0  0  0  0  0  0  0  0
   -6.5810   23.0910  -32.0540 N   0  0  0  0  0  0  0  0  0  0  0  0
   -7.9670   22.2370  -31.4610 S   0  0  0  0  0  0  0  0  0  0  0  0
   -7.9950   22.3220  -29.9610 O   0  0  0  0  0  0  0  0  0  0  0  0
   -9.2170   22.8740  -32.0020 O   0  0  0  0  0  0  0  0  0  0  0  0
   -7.8640   20.5430  -31.9330 C   0  0  0  0  0  0  0  0  0  0  0  0
   -8.7830   19.6260  -31.4100 C   0  0  0  0  0  0  0  0  0  0  0  0
   -8.7030   18.2760  -31.7570 C   0  0  0  0  0  0  0  0  0  0  0  0
   -7.7030   17.8340  -32.6270 C   0  0  0  0  0  0  0  0  0  0  0  0
   -6.7680   18.7410  -33.1600 C   0  0  0  0  0  0  0  0  0  0  0  0
   -5.7310   18.2890  -34.0490 N   0  0  0  0  0  0  0  0  0  0  0  0
   -4.7360   17.6790  -33.6070 O   0  0  0  0  0  0  0  0  0  0  0  0
   -5.8120   18.5300  -35.4010 O   0  0  0  0  0  0  0  0  0  0  0  0
   -6.8610   20.0990  -32.8070 C   0  0  0  0  0  0  0  0  0  0  0  0
   -4.7130   24.2080  -30.8520 C   0  0  0  0  0  0  0  0  0  0  0  0
   -3.4360   24.1480  -30.2850 C   0  0  0  0  0  0  0  0  0  0  0  0
   -2.9020   25.2950  -29.7050 O   0  0  0  0  0  0  0  0  0  0  0  0
   -0.5250   22.4815  -27.0386 H   0  0  0  0  0  0  0  0  0  0  0  0
   -0.6305   23.2090  -24.6556 H   0  0  0  0  0  0  0  0  0  0  0  0
   -0.9546   25.6178  -24.0962 H   0  0  0  0  0  0  0  0  0  0  0  0
   -1.2057   27.3002  -25.9197 H   0  0  0  0  0  0  0  0  0  0  0  0
   -1.6120   26.5260  -29.4110 H   0  0  0  0  0  0  0  0  0  0  0  0
   -2.7213   20.8624  -30.9217 H   0  0  0  0  0  0  0  0  0  0  0  0
   -4.9925   20.9776  -31.9310 H   0  0  0  0  0  0  0  0  0  0  0  0
   -9.5707   19.9700  -30.7235 H   0  0  0  0  0  0  0  0  0  0  0  0
   -9.4284   17.5592  -31.3448 H   0  0  0  0  0  0  0  0  0  0  0  0
   -7.6461   16.7693  -32.8974 H   0  0  0  0  0  0  0  0  0  0  0  0
   -6.1402   20.8199  -33.2203 H   0  0  0  0  0  0  0  0  0  0  0  0
   -5.2786   25.1511  -30.8265 H   0  0  0  0  0  0  0  0  0  0  0  0
  1  2  2  0
  2  3  1  0
  3  4  1  0
  4  5  2  0
  5  6  1  0
  6  7  2  0
  7  8  1  0
  8  9  2  0
  9 10  1  0
  2 11  1  0
 11 12  2  0
 12 13  1  0
 13 14  2  0
 14 15  1  0
 15 16  1  0
 16 17  2  0
 16 18  2  0
 16 19  1  0
 19 20  2  0
 20 21  1  0
 21 22  2  0
 22 23  1  0
 23 24  1  0
 24 25  2  0
 24 26  1  0
 23 27  2  0
 14 28  1  0
 28 29  2  0
 29 30  1  0
  9  4  1  0
 29 11  1  0
 27 19  1  0
  5 31  1  0
  6 32  1  0
  7 33  1  0
  8 34  1  0
 10 35  1  0
 12 36  1  0
 13 37  1  0
 20 38  1  0
 21 39  1  0
 22 40  1  0
 27 41  1  0
 28 42  1  0
M  CHG  5   3  -1  15  -1  24   1  26  -1  30  -1
M  END
>  <UniqueID>  (13) 
13

>  <SMILES>  (13) 
O=C([N-]c1ccccc1O)c1ccc([N-]S(=O)(=O)c2cccc([N+](=O)[O-])c2)cc1[O-]

>  <Energy>  (13) 
58.46025624429454

>  <Genealogy>  (13) 
O=C([N-]c1ccccc1O)c1ccc([N-]S(=O)(=O)c2cccc([N+](=O)[O-])c2)cc1[O-] (protonated)
O=C([N-]c1ccccc1O)c1ccc([N-]S(=O)(=O)c2cccc([N+](=O)[O-])c2)cc1[O-] (3D coordinates assigned)
O=C([N-]c1ccccc1O)c1ccc([N-]S(=O)(=O)c2cccc([N+](=O)[O-])c2)cc1[O-] (optimized conformer: 58.46025624429454 kcal/mol)

>  <smiles>  (13) 
O=C(Nc1ccccc1O)c1ccc(NS(=O)(=O)c2cccc([N+](=O)[O-])c2)cc1O

>  <score_type>  (13) 
oracle

>  <origin>  (13) 
adgpu

>  <m_score__min__energy>  (13) 
-14.050000000000001

>  <m_primary>  (13) 
energy

$$$$
13:0
     RDKit          3D

 66 70  0  0  0  0  0  0  0  0999 V2000
   -1.2560   16.1590  -34.7640 C   0  0  0  0  0  0  0  0  0  0  0  0
   -2.6800   15.9070  -34.4950 N   0  0  0  0  0  0  0  0  0  0  0  0
   -3.0020   16.2360  -33.0930 C   0  0  0  0  0  0  0  0  0  0  0  0
   -4.3990   15.7230  -32.6730 C   0  0  0  0  0  0  0  0  0  0  0  0
   -5.2220   15.2430  -33.8050 N   0  0  0  0  0  0  0  0  0  0  0  0
   -6.1010   16.2570  -34.4260 C   0  0  0  0  0  0  0  0  0  0  0  0
   -7.2210   16.7540  -33.4980 C   0  0  0  0  0  0  0  0  0  0  0  0
   -6.8620   18.0860  -32.9080 C   0  0  0  0  0  0  0  0  0  0  0  0
   -5.5740   18.4600  -32.6940 N   0  0  0  0  0  0  0  0  0  0  0  0
   -5.6990   19.6870  -32.1560 C   0  0  0  0  0  0  0  0  0  0  0  0
   -4.6780   20.5260  -31.7200 C   0  0  0  0  0  0  0  0  0  0  0  0
   -5.0360   21.7650  -31.1350 C   0  0  0  0  0  0  0  0  0  0  0  0
   -4.0370   22.6900  -30.6670 N   0  0  0  0  0  0  0  0  0  0  0  0
   -4.2310   24.1100  -30.5780 C   0  0  0  0  0  0  0  0  0  0  0  0
   -5.1390   24.6710  -31.2470 O   0  0  0  0  0  0  0  0  0  0  0  0
   -3.3330   24.9270  -29.8180 N   0  0  0  0  0  0  0  0  0  0  0  0
   -2.5160   24.4980  -28.7180 C   0  0  0  0  0  0  0  0  0  0  0  0
   -2.7800   23.3030  -28.0350 C   0  0  0  0  0  0  0  0  0  0  0  0
   -1.9790   22.9170  -26.9620 C   0  0  0  0  0  0  0  0  0  0  0  0
   -0.9220   23.7260  -26.5350 C   0  0  0  0  0  0  0  0  0  0  0  0
    0.0660   23.1340  -25.2040 Cl  0  0  0  0  0  0  0  0  0  0  0  0
   -0.6690   24.9580  -27.1820 C   0  0  0  0  0  0  0  0  0  0  0  0
    0.6420   26.0320  -26.6310 S   0  0  0  0  0  0  0  0  0  0  0  0
    0.9970   25.7140  -25.2070 O   0  0  0  0  0  0  0  0  0  0  0  0
    1.8710   25.7880  -27.4620 O   0  0  0  0  0  0  0  0  0  0  0  0
    0.2320   27.7780  -26.7190 C   0  0  0  0  0  0  0  0  0  0  0  0
    0.6120   28.5710  -25.4790 C   0  0  0  0  0  0  0  0  0  0  0  0
   -0.8510   28.2780  -25.7760 C   0  0  0  0  0  0  0  0  0  0  0  0
   -1.4730   25.3300  -28.2820 C   0  0  0  0  0  0  0  0  0  0  0  0
   -1.2370   26.5210  -28.9630 O   0  0  0  0  0  0  0  0  0  0  0  0
   -6.4040   22.1250  -31.0490 C   0  0  0  0  0  0  0  0  0  0  0  0
   -7.4100   21.2550  -31.5060 C   0  0  0  0  0  0  0  0  0  0  0  0
   -7.0130   20.0360  -32.0580 C   0  0  0  0  0  0  0  0  0  0  0  0
   -7.7660   19.0400  -32.5540 N   0  0  0  0  0  0  0  0  0  0  0  0
   -9.2260   18.9510  -32.5930 C   0  0  0  0  0  0  0  0  0  0  0  0
   -4.5430   14.3260  -34.7500 C   0  0  0  0  0  0  0  0  0  0  0  0
   -3.0180   14.5060  -34.7750 C   0  0  0  0  0  0  0  0  0  0  0  0
   -0.7143   16.2549  -33.8115 H   0  0  0  0  0  0  0  0  0  0  0  0
   -0.8379   15.3209  -35.3409 H   0  0  0  0  0  0  0  0  0  0  0  0
   -1.1509   17.0897  -35.3409 H   0  0  0  0  0  0  0  0  0  0  0  0
   -2.2458   15.7764  -32.4396 H   0  0  0  0  0  0  0  0  0  0  0  0
   -3.0046   17.3319  -32.9977 H   0  0  0  0  0  0  0  0  0  0  0  0
   -4.2652   14.8924  -31.9643 H   0  0  0  0  0  0  0  0  0  0  0  0
   -4.9329   16.5746  -32.2261 H   0  0  0  0  0  0  0  0  0  0  0  0
   -5.4840   17.1193  -34.7187 H   0  0  0  0  0  0  0  0  0  0  0  0
   -6.5867   15.7772  -35.2884 H   0  0  0  0  0  0  0  0  0  0  0  0
   -8.1522   16.8528  -34.0752 H   0  0  0  0  0  0  0  0  0  0  0  0
   -7.3557   16.0282  -32.6824 H   0  0  0  0  0  0  0  0  0  0  0  0
   -3.6226   20.2350  -31.8267 H   0  0  0  0  0  0  0  0  0  0  0  0
   -3.0820   22.3170  -30.4680 H   0  0  0  0  0  0  0  0  0  0  0  0
   -3.6221   22.6678  -28.3469 H   0  0  0  0  0  0  0  0  0  0  0  0
   -2.1804   21.9666  -26.4461 H   0  0  0  0  0  0  0  0  0  0  0  0
    0.4026   27.8669  -27.8020 H   0  0  0  0  0  0  0  0  0  0  0  0
    1.1136   28.0699  -24.6380 H   0  0  0  0  0  0  0  0  0  0  0  0
    1.1998   29.4809  -25.2874 H   0  0  0  0  0  0  0  0  0  0  0  0
   -1.4073   27.5650  -25.1498 H   0  0  0  0  0  0  0  0  0  0  0  0
   -1.7594   28.8880  -25.8882 H   0  0  0  0  0  0  0  0  0  0  0  0
   -6.6828   23.0983  -30.6189 H   0  0  0  0  0  0  0  0  0  0  0  0
   -8.4735   21.5259  -31.4310 H   0  0  0  0  0  0  0  0  0  0  0  0
   -9.6194   18.9270  -31.5660 H   0  0  0  0  0  0  0  0  0  0  0  0
   -9.6327   19.8260  -33.1211 H   0  0  0  0  0  0  0  0  0  0  0  0
   -9.5234   18.0331  -33.1211 H   0  0  0  0  0  0  0  0  0  0  0  0
   -4.7683   13.2904  -34.4555 H   0  0  0  0  0  0  0  0  0  0  0  0
   -4.9169   14.5587  -35.7580 H   0  0  0  0  0  0  0  0  0  0  0  0
   -2.5611   13.8600  -34.0109 H   0  0  0  0  0  0  0  0  0  0  0  0
   -2.6351   14.2307  -35.7688 H   0  0  0  0  0  0  0  0  0  0  0  0
  1  2  1  0
  2  3  1  0
  3  4  1  0
  4  5  1  0
  5  6  1  0
  6  7  1  0
  7  8  1  0
  8  9  2  0
  9 10  1  0
 10 11  2  0
 11 12  1  0
 12 13  1  0
 13 14  1  0
 14 15  2  0
 14 16  1  0
 16 17  1  0
 17 18  2  0
 18 19  1  0
 19 20  2  0
 20 21  1  0
 20 22  1  0
 22 23  1  0
 23 24  2  0
 23 25  2  0
 23 26  1  0
 26 27  1  0
 27 28  1  0
 22 29  2  0
 29 30  1  0
 12 31  2  0
 31 32  1  0
 32 33  2  0
 33 34  1  0
 34 35  1  0
  5 36  1  0
 36 37  1  0
 37  2  1  0
 34  8  1  0
 33 10  1  0
 29 17  1  0
 28 26  1  0
  1 38  1  0
  1 39  1  0
  1 40  1  0
  3 41  1  0
  3 42  1  0
  4 43  1  0
  4 44  1  0
  6 45  1  0
  6 46  1  0
  7 47  1  0
  7 48  1  0
 11 49  1  0
 13 50  1  0
 18 51  1  0
 19 52  1  0
 26 53  1  0
 27 54  1  0
 27 55  1  0
 28 56  1  0
 28 57  1  0
 31 58  1  0
 32 59  1  0
 35 60  1  0
 35 61  1  0
 35 62  1  0
 36 63  1  0
 36 64  1  0
 37 65  1  0
 37 66  1  0
M  CHG  2  16  -1  30  -1
M  END
>  <UniqueID>  (14) 
14

>  <SMILES>  (14) 
CN1CCN(CCc2nc3cc(NC(=O)[N-]c4ccc(Cl)c(S(=O)(=O)C5CC5)c4[O-])ccc3n2C)CC1

>  <Energy>  (14) 
392.61922533395233

>  <Genealogy>  (14) 
CN1CCN(CCc2nc3cc(NC(=O)[N-]c4ccc(Cl)c(S(=O)(=O)C5CC5)c4[O-])ccc3n2C)CC1 (protonated)
CN1CCN(CCc2nc3cc(NC(=O)[N-]c4ccc(Cl)c(S(=O)(=O)C5CC5)c4[O-])ccc3n2C)CC1 (3D coordinates assigned)
CN1CCN(CCc2nc3cc(NC(=O)[N-]c4ccc(Cl)c(S(=O)(=O)C5CC5)c4[O-])ccc3n2C)CC1 (nonaromatic ring conformer: 392.61922533395233 kcal/mol)

>  <smiles>  (14) 
CN1CCN(CCc2nc3cc(NC(=O)Nc4ccc(Cl)c(S(=O)(=O)C5CC5)c4O)ccc3n2C)CC1

>  <score_type>  (14) 
oracle

>  <origin>  (14) 
adgpu

>  <m_score__min__energy>  (14) 
-13.640000000000001

>  <m_primary>  (14) 
energy

$$$$
14:0
     RDKit          3D

 32 34  0  0  0  0  0  0  0  0999 V2000
   -9.6330   22.0820  -32.2570 O   0  0  0  0  0  0  0  0  0  0  0  0
   -8.2400   21.8700  -31.7360 S   0  0  0  0  0  0  0  0  0  0  0  0
   -8.2610   21.9510  -30.2350 O   0  0  0  0  0  0  0  0  0  0  0  0
   -7.2050   23.1150  -32.3540 N   0  0  0  0  0  0  0  0  0  0  0  0
   -6.0490   23.6370  -31.6840 C   0  0  0  0  0  0  0  0  0  0  0  0
   -6.0900   24.9510  -31.2030 C   0  0  0  0  0  0  0  0  0  0  0  0
   -4.9830   25.5010  -30.5490 C   0  0  0  0  0  0  0  0  0  0  0  0
   -3.8240   24.7400  -30.3680 C   0  0  0  0  0  0  0  0  0  0  0  0
   -2.7300   25.2990  -29.7170 O   0  0  0  0  0  0  0  0  0  0  0  0
   -3.7730   23.4220  -30.8430 C   0  0  0  0  0  0  0  0  0  0  0  0
   -2.2960   22.4260  -30.6220 S   0  0  0  0  0  0  0  0  0  0  0  0
   -2.7600   21.2960  -31.9280 C   0  0  0  0  0  0  0  0  0  0  0  0
   -2.5290   21.5320  -33.2320 N   0  0  0  0  0  0  0  0  0  0  0  0
   -3.0490   20.4290  -33.8060 C   0  0  0  0  0  0  0  0  0  0  0  0
   -3.5650   19.5770  -32.9010 N   0  0  0  0  0  0  0  0  0  0  0  0
   -3.3820   20.1250  -31.7130 N   0  0  0  0  0  0  0  0  0  0  0  0
   -4.8820   22.8720  -31.5000 C   0  0  0  0  0  0  0  0  0  0  0  0
   -7.6680   20.2900  -32.2640 C   0  0  0  0  0  0  0  0  0  0  0  0
   -8.0690   19.1340  -31.5780 C   0  0  0  0  0  0  0  0  0  0  0  0
   -7.6280   17.8770  -32.0030 C   0  0  0  0  0  0  0  0  0  0  0  0
   -6.7820   17.7690  -33.1100 C   0  0  0  0  0  0  0  0  0  0  0  0
   -6.3760   18.9190  -33.7940 C   0  0  0  0  0  0  0  0  0  0  0  0
   -6.8160   20.1780  -33.3720 C   0  0  0  0  0  0  0  0  0  0  0  0
   -6.9991   25.5549  -31.3404 H   0  0  0  0  0  0  0  0  0  0  0  0
   -5.0241   26.5350  -30.1760 H   0  0  0  0  0  0  0  0  0  0  0  0
   -3.0514   20.2460  -34.8907 H   0  0  0  0  0  0  0  0  0  0  0  0
   -4.8402   21.8382  -31.8734 H   0  0  0  0  0  0  0  0  0  0  0  0
   -8.7317   19.2165  -30.7039 H   0  0  0  0  0  0  0  0  0  0  0  0
   -7.9474   16.9721  -31.4653 H   0  0  0  0  0  0  0  0  0  0  0  0
   -6.4356   16.7796  -33.4432 H   0  0  0  0  0  0  0  0  0  0  0  0
   -5.7097   18.8335  -34.6651 H   0  0  0  0  0  0  0  0  0  0  0  0
   -6.4932   21.0814  -33.9101 H   0  0  0  0  0  0  0  0  0  0  0  0
  1  2  2  0
  2  3  2  0
  2  4  1  0
  4  5  1  0
  5  6  2  0
  6  7  1  0
  7  8  2  0
  8  9  1  0
  8 10  1  0
 10 11  1  0
 11 12  1  0
 12 13  1  0
 13 14  2  0
 14 15  1  0
 15 16  1  0
 10 17  2  0
  2 18  1  0
 18 19  2  0
 19 20  1  0
 20 21  2  0
 21 22  1  0
 22 23  2  0
 17  5  1  0
 23 18  1  0
 16 12  2  0
  6 24  1  0
  7 25  1  0
 14 26  1  0
 17 27  1  0
 19 28  1  0
 20 29  1  0
 21 30  1  0
 22 31  1  0
 23 32  1  0
M  CHG  3   4  -1   9  -1  15  -1
M  END
>  <UniqueID>  (15) 
15

>  <SMILES>  (15) 
O=S(=O)([N-]c1ccc([O-])c(Sc2nc[n-]n2)c1)c1ccccc1

>  <Energy>  (15) 
65.56763571450658

>  <Genealogy>  (15) 
O=S(=O)([N-]c1ccc([O-])c(Sc2nc[n-]n2)c1)c1ccccc1 (protonated)
O=S(=O)([N-]c1ccc([O-])c(Sc2nc[n-]n2)c1)c1ccccc1 (3D coordinates assigned)
O=S(=O)([N-]c1ccc([O-])c(Sc2nc[n-]n2)c1)c1ccccc1 (optimized conformer: 65.56763571450658 kcal/mol)

>  <smiles>  (15) 
O=S(=O)(Nc1ccc(O)c(Sc2nc[nH]n2)c1)c1ccccc1

>  <score_type>  (15) 
oracle

>  <origin>  (15) 
adgpu

>  <m_score__min__energy>  (15) 
-11.26

>  <m_primary>  (15) 
energy

$$$$
15:0
     RDKit          3D

 46 48  0  0  0  0  0  0  0  0999 V2000
   -0.1760   21.8750  -26.3270 C   0  0  0  0  0  0  0  0  0  0  0  0
   -1.2210   22.4470  -27.2490 C   0  0  0  0  0  0  0  0  0  0  0  0
   -2.2680   21.6020  -27.6460 C   0  0  0  0  0  0  0  0  0  0  0  0
   -3.3240   22.0830  -28.4110 C   0  0  0  0  0  0  0  0  0  0  0  0
   -3.3770   23.4260  -28.7770 C   0  0  0  0  0  0  0  0  0  0  0  0
   -4.5740   23.9040  -29.4070 N   0  0  0  0  0  0  0  0  0  0  0  0
   -4.6530   24.5390  -30.6930 C   0  0  0  0  0  0  0  0  0  0  0  0
   -4.0360   25.6190  -30.8770 O   0  0  0  0  0  0  0  0  0  0  0  0
   -5.4470   24.0030  -31.7620 N   0  0  0  0  0  0  0  0  0  0  0  0
   -6.3220   22.8720  -31.6700 C   0  0  0  0  0  0  0  0  0  0  0  0
   -7.6740   23.0210  -31.3210 C   0  0  0  0  0  0  0  0  0  0  0  0
   -8.5160   21.9050  -31.2820 C   0  0  0  0  0  0  0  0  0  0  0  0
   -8.0090   20.6350  -31.5730 C   0  0  0  0  0  0  0  0  0  0  0  0
   -6.6560   20.4780  -31.8890 C   0  0  0  0  0  0  0  0  0  0  0  0
   -5.8130   21.5920  -31.9270 C   0  0  0  0  0  0  0  0  0  0  0  0
   -2.2930   24.2770  -28.4680 C   0  0  0  0  0  0  0  0  0  0  0  0
   -2.2670   25.5870  -28.9490 O   0  0  0  0  0  0  0  0  0  0  0  0
   -1.2140   23.8040  -27.6820 C   0  0  0  0  0  0  0  0  0  0  0  0
    0.0960   24.9470  -27.2510 S   0  0  0  0  0  0  0  0  0  0  0  0
   -0.2250   26.3310  -27.7370 O   0  0  0  0  0  0  0  0  0  0  0  0
    1.3470   24.5240  -27.9720 O   0  0  0  0  0  0  0  0  0  0  0  0
    0.4370   25.0280  -25.5300 N   0  0  0  0  0  0  0  0  0  0  0  0
    1.4120   26.0730  -25.1780 C   0  0  0  0  0  0  0  0  0  0  0  0
    0.7700   27.4770  -25.0790 C   0  0  0  0  0  0  0  0  0  0  0  0
   -0.6420   27.4470  -25.1630 O   0  0  0  0  0  0  0  0  0  0  0  0
   -1.1550   26.4970  -24.2580 C   0  0  0  0  0  0  0  0  0  0  0  0
   -0.7720   25.0670  -24.6840 C   0  0  0  0  0  0  0  0  0  0  0  0
   -0.4784   22.0405  -25.2824 H   0  0  0  0  0  0  0  0  0  0  0  0
   -0.0745   20.7955  -26.5127 H   0  0  0  0  0  0  0  0  0  0  0  0
    0.7880   22.3712  -26.5127 H   0  0  0  0  0  0  0  0  0  0  0  0
   -2.2530   20.5434  -27.3475 H   0  0  0  0  0  0  0  0  0  0  0  0
   -4.1237   21.3982  -28.7297 H   0  0  0  0  0  0  0  0  0  0  0  0
   -8.0716   24.0174  -31.0778 H   0  0  0  0  0  0  0  0  0  0  0  0
   -9.5779   22.0266  -31.0222 H   0  0  0  0  0  0  0  0  0  0  0  0
   -8.6745   19.7593  -31.5534 H   0  0  0  0  0  0  0  0  0  0  0  0
   -6.2550   19.4773  -32.1078 H   0  0  0  0  0  0  0  0  0  0  0  0
   -4.7456   21.4635  -32.1596 H   0  0  0  0  0  0  0  0  0  0  0  0
   -3.0770   26.0490  -29.3390 H   0  0  0  0  0  0  0  0  0  0  0  0
    1.8619   25.8220  -24.2061 H   0  0  0  0  0  0  0  0  0  0  0  0
    2.1665   26.1075  -25.9777 H   0  0  0  0  0  0  0  0  0  0  0  0
    1.0543   27.9251  -24.1155 H   0  0  0  0  0  0  0  0  0  0  0  0
    1.1376   28.0674  -25.9312 H   0  0  0  0  0  0  0  0  0  0  0  0
   -0.7455   26.6961  -23.2567 H   0  0  0  0  0  0  0  0  0  0  0  0
   -2.2520   26.5783  -24.2484 H   0  0  0  0  0  0  0  0  0  0  0  0
   -0.5881   24.4681  -23.7799 H   0  0  0  0  0  0  0  0  0  0  0  0
   -1.6054   24.6632  -25.2776 H   0  0  0  0  0  0  0  0  0  0  0  0
  1  2  1  0
  2  3  2  0
  3  4  1  0
  4  5  2  0
  5  6  1  0
  6  7  1  0
  7  8  2  0
  7  9  1  0
  9 10  1  0
 10 11  2  0
 11 12  1  0
 12 13  2  0
 13 14  1  0
 14 15  2  0
  5 16  1  0
 16 17  1  0
 16 18  2  0
 18 19  1  0
 19 20  2  0
 19 21  2  0
 19 22  1  0
 22 23  1  0
 23 24  1  0
 24 25  1  0
 25 26  1  0
 26 27  1  0
 18  2  1  0
 27 22  1  0
 15 10  1  0
  1 28  1  0
  1 29  1  0
  1 30  1  0
  3 31  1  0
  4 32  1  0
 11 33  1  0
 12 34  1  0
 13 35  1  0
 14 36  1  0
 15 37  1  0
 17 38  1  0
 23 39  1  0
 23 40  1  0
 24 41  1  0
 24 42  1  0
 26 43  1  0
 26 44  1  0
 27 45  1  0
 27 46  1  0
M  CHG  2   6  -1   9  -1
M  END
>  <UniqueID>  (16) 
16

>  <SMILES>  (16) 
Cc1ccc([N-]C(=O)[N-]c2ccccc2)c(O)c1S(=O)(=O)N1CCOCC1

>  <Energy>  (16) 
72.86504902853659

>  <Genealogy>  (16) 
Cc1ccc([N-]C(=O)[N-]c2ccccc2)c(O)c1S(=O)(=O)N1CCOCC1 (protonated)
Cc1ccc([N-]C(=O)[N-]c2ccccc2)c(O)c1S(=O)(=O)N1CCOCC1 (3D coordinates assigned)
Cc1ccc([N-]C(=O)[N-]c2ccccc2)c(O)c1S(=O)(=O)N1CCOCC1 (nonaromatic ring conformer: 72.86504902853659 kcal/mol)

>  <smiles>  (16) 
Cc1ccc(NC(=O)Nc2ccccc2)c(O)c1S(=O)(=O)N1CCOCC1

>  <score_type>  (16) 
oracle

>  <origin>  (16) 
adgpu

>  <m_score__min__energy>  (16) 
-11.73

>  <m_primary>  (16) 
energy

$$$$
16:0
     RDKit          3D

 64 67  0  0  0  0  0  0  0  0999 V2000
   -1.2370   26.8950  -29.7520 H   0  0  0  0  0  0  0  0  0  0  0  0
   -1.2570   26.5830  -28.7900 O   0  0  0  0  0  0  0  0  0  0  0  0
   -1.4290   25.2450  -28.4320 C   0  0  0  0  0  0  0  0  0  0  0  0
   -0.6370   24.7240  -27.4020 C   0  0  0  0  0  0  0  0  0  0  0  0
    0.0754   25.3773  -26.8769 H   0  0  0  0  0  0  0  0  0  0  0  0
   -0.7450   23.3820  -27.0370 C   0  0  0  0  0  0  0  0  0  0  0  0
   -0.1261   22.9853  -26.2187 H   0  0  0  0  0  0  0  0  0  0  0  0
   -1.6380   22.5380  -27.7080 C   0  0  0  0  0  0  0  0  0  0  0  0
   -1.8230   20.8580  -27.1980 S   0  0  0  0  0  0  0  0  0  0  0  0
   -3.2270   20.4050  -27.4880 O   0  0  0  0  0  0  0  0  0  0  0  0
   -1.6020   20.7620  -25.7140 O   0  0  0  0  0  0  0  0  0  0  0  0
   -0.6920   19.8120  -28.0230 N   0  0  0  0  0  0  0  0  0  0  0  0
   -0.9590   19.8250  -29.4740 C   0  0  0  0  0  0  0  0  0  0  0  0
   -2.0104   19.5498  -29.6436 H   0  0  0  0  0  0  0  0  0  0  0  0
   -0.7458   20.8371  -29.8486 H   0  0  0  0  0  0  0  0  0  0  0  0
   -0.0540   18.8330  -30.2410 C   0  0  0  0  0  0  0  0  0  0  0  0
   -0.6863   18.0567  -30.6965 H   0  0  0  0  0  0  0  0  0  0  0  0
    0.4969   19.4012  -31.0049 H   0  0  0  0  0  0  0  0  0  0  0  0
    0.9720   18.1590  -29.3280 C   0  0  0  0  0  0  0  0  0  0  0  0
    1.4963   17.3748  -29.8938 H   0  0  0  0  0  0  0  0  0  0  0  0
    1.6824   18.9219  -28.9767 H   0  0  0  0  0  0  0  0  0  0  0  0
    0.2910   17.5260  -28.1060 C   0  0  0  0  0  0  0  0  0  0  0  0
   -0.1831   16.5829  -28.4155 H   0  0  0  0  0  0  0  0  0  0  0  0
    1.0643   17.3582  -27.3419 H   0  0  0  0  0  0  0  0  0  0  0  0
   -0.7870   18.4430  -27.4890 C   0  0  0  0  0  0  0  0  0  0  0  0
   -1.7815   18.0351  -27.7228 H   0  0  0  0  0  0  0  0  0  0  0  0
   -0.6293   18.4822  -26.4011 H   0  0  0  0  0  0  0  0  0  0  0  0
   -2.4240   23.0500  -28.7490 C   0  0  0  0  0  0  0  0  0  0  0  0
   -3.0999   22.3811  -29.3020 H   0  0  0  0  0  0  0  0  0  0  0  0
   -2.3560   24.4060  -29.0910 C   0  0  0  0  0  0  0  0  0  0  0  0
   -3.2710   24.9120  -30.0710 N   0  0  0  0  0  0  0  0  0  0  0  0
   -4.6040   24.4210  -30.2790 C   0  0  0  0  0  0  0  0  0  0  0  0
   -5.5760   25.1270  -29.9050 O   0  0  0  0  0  0  0  0  0  0  0  0
   -4.8790   23.1130  -30.9060 C   0  0  0  0  0  0  0  0  0  0  0  0
   -5.8140   22.5898  -30.6572 H   0  0  0  0  0  0  0  0  0  0  0  0
   -4.0260   22.5420  -31.7690 C   0  0  0  0  0  0  0  0  0  0  0  0
   -3.1154   23.0977  -32.0375 H   0  0  0  0  0  0  0  0  0  0  0  0
   -4.2330   21.2090  -32.3840 C   0  0  0  0  0  0  0  0  0  0  0  0
   -3.2170   20.5220  -33.0760 C   0  0  0  0  0  0  0  0  0  0  0  0
   -2.2226   20.9797  -33.1843 H   0  0  0  0  0  0  0  0  0  0  0  0
   -3.4660   19.2610  -33.6260 C   0  0  0  0  0  0  0  0  0  0  0  0
   -2.6690   18.7353  -34.1723 H   0  0  0  0  0  0  0  0  0  0  0  0
   -4.7260   18.6630  -33.4850 C   0  0  0  0  0  0  0  0  0  0  0  0
   -5.0330   17.0650  -34.1680 S   0  0  0  0  0  0  0  0  0  0  0  0
   -4.6580   17.0700  -35.6230 O   0  0  0  0  0  0  0  0  0  0  0  0
   -6.5010   16.7580  -34.0670 O   0  0  0  0  0  0  0  0  0  0  0  0
   -4.1230   15.8210  -33.3440 N   0  0  0  0  0  0  0  0  0  0  0  0
   -3.3560   15.0170  -34.3090 C   0  0  0  0  0  0  0  0  0  0  0  0
   -4.0284   14.6757  -35.1099 H   0  0  0  0  0  0  0  0  0  0  0  0
   -2.5504   15.6389  -34.7265 H   0  0  0  0  0  0  0  0  0  0  0  0
   -2.7280   13.7900  -33.6180 C   0  0  0  0  0  0  0  0  0  0  0  0
   -3.2478   12.8819  -33.9573 H   0  0  0  0  0  0  0  0  0  0  0  0
   -1.6614   13.7483  -33.8837 H   0  0  0  0  0  0  0  0  0  0  0  0
   -2.8360   13.8850  -32.2100 O   0  0  0  0  0  0  0  0  0  0  0  0
   -4.2020   13.8730  -31.8310 C   0  0  0  0  0  0  0  0  0  0  0  0
   -4.6271   12.8868  -32.0693 H   0  0  0  0  0  0  0  0  0  0  0  0
   -4.2549   14.0818  -30.7523 H   0  0  0  0  0  0  0  0  0  0  0  0
   -5.0200   14.9570  -32.5640 C   0  0  0  0  0  0  0  0  0  0  0  0
   -5.7406   14.4744  -33.2407 H   0  0  0  0  0  0  0  0  0  0  0  0
   -5.5561   15.5680  -31.8229 H   0  0  0  0  0  0  0  0  0  0  0  0
   -5.7360   19.3390  -32.7900 C   0  0  0  0  0  0  0  0  0  0  0  0
   -6.7275   18.8763  -32.6767 H   0  0  0  0  0  0  0  0  0  0  0  0
   -5.4890   20.5990  -32.2400 C   0  0  0  0  0  0  0  0  0  0  0  0
   -6.2866   21.1184  -31.6886 H   0  0  0  0  0  0  0  0  0  0  0  0
  1  2  1  0
  2  3  1  0
  3  4  2  0
  4  5  1  0
  4  6  1  0
  6  7  1  0
  6  8  2  0
  8  9  1  0
  9 10  2  0
  9 11  2  0
  9 12  1  0
 12 13  1  0
 13 14  1  0
 13 15  1  0
 13 16  1  0
 16 17  1  0
 16 18  1  0
 16 19  1  0
 19 20  1  0
 19 21  1  0
 19 22  1  0
 22 23  1  0
 22 24  1  0
 22 25  1  0
 25 26  1  0
 25 27  1  0
  8 28  1  0
 28 29  1  0
 28 30  2  0
 30 31  1  0
 31 32  1  0
 32 33  2  0
 32 34  1  0
 34 35  1  0
 34 36  2  0
 36 37  1  0
 36 38  1  0
 38 39  2  0
 39 40  1  0
 39 41  1  0
 41 42  1  0
 41 43  2  0
 43 44  1  0
 44 45  2  0
 44 46  2  0
 44 47  1  0
 47 48  1  0
 48 49  1  0
 48 50  1  0
 48 51  1  0
 51 52  1  0
 51 53  1  0
 51 54  1  0
 54 55  1  0
 55 56  1  0
 55 57  1  0
 55 58  1  0
 58 59  1  0
 58 60  1  0
 43 61  1  0
 61 62  1  0
 61 63  2  0
 63 64  1  0
 30  3  1  0
 63 38  1  0
 25 12  1  0
 58 47  1  0
M  CHG  1  31  -1
M  END
>  <UniqueID>  (17) 
17

>  <SMILES>  (17) 
O=C(/C=C/c1ccc(S(=O)(=O)N2CCOCC2)cc1)[N-]c1cc(S(=O)(=O)N2CCCCC2)ccc1O

>  <Energy>  (17) 
83.51710669852055

>  <Genealogy>  (17) 
O=C(C=Cc1ccc(S(=O)(=O)N2CCOCC2)cc1)[N-]c1cc(S(=O)(=O)N2CCCCC2)ccc1O (protonated)
O=C(/C=C/c1ccc(S(=O)(=O)N2CCOCC2)cc1)[N-]c1cc(S(=O)(=O)N2CCCCC2)ccc1O (cis-trans isomerization)
O=C(/C=C/c1ccc(S(=O)(=O)N2CCOCC2)cc1)[N-]c1cc(S(=O)(=O)N2CCCCC2)ccc1O (3D coordinates assigned)
O=C(/C=C/c1ccc(S(=O)(=O)N2CCOCC2)cc1)[N-]c1cc(S(=O)(=O)N2CCCCC2)ccc1O (nonaromatic ring conformer: 83.51710669852055 kcal/mol)

>  <smiles>  (17) 
O=C(C=Cc1ccc(S(=O)(=O)N2CCOCC2)cc1)Nc1cc(S(=O)(=O)N2CCCCC2)ccc1O

>  <score_type>  (17) 
oracle

>  <origin>  (17) 
adgpu

>  <m_score__min__energy>  (17) 
-12.06

>  <m_primary>  (17) 
energy

$$$$
17:0
     RDKit          3D

 44 46  0  0  0  0  0  0  0  0999 V2000
   -0.6160   22.9320  -30.3450 O   0  0  0  0  0  0  0  0  0  0  0  0
   -2.0500   22.8440  -29.9030 S   0  0  0  0  0  0  0  0  0  0  0  0
   -2.3360   21.4170  -29.5290 O   0  0  0  0  0  0  0  0  0  0  0  0
   -3.0620   23.3770  -31.2090 N   0  0  0  0  0  0  0  0  0  0  0  0
   -4.4880   23.4940  -31.1460 C   0  0  0  0  0  0  0  0  0  0  0  0
   -5.3270   22.4100  -31.4540 C   0  0  0  0  0  0  0  0  0  0  0  0
   -6.7200   22.5430  -31.3650 C   0  0  0  0  0  0  0  0  0  0  0  0
   -7.7620   21.1620  -31.7220 S   0  0  0  0  0  0  0  0  0  0  0  0
   -8.8060   21.5800  -32.7200 O   0  0  0  0  0  0  0  0  0  0  0  0
   -8.4670   20.7320  -30.4650 O   0  0  0  0  0  0  0  0  0  0  0  0
   -6.8510   19.8160  -32.3600 N   0  0  0  0  0  0  0  0  0  0  0  0
   -6.4760   20.0780  -33.7670 C   0  0  0  0  0  0  0  0  0  0  0  0
   -5.9370   18.8160  -34.4780 C   0  0  0  0  0  0  0  0  0  0  0  0
   -5.5490   17.7230  -33.4780 C   0  0  0  0  0  0  0  0  0  0  0  0
   -6.7370   17.3550  -32.5740 C   0  0  0  0  0  0  0  0  0  0  0  0
   -7.6240   18.5700  -32.2440 C   0  0  0  0  0  0  0  0  0  0  0  0
   -7.2760   23.7730  -30.9920 C   0  0  0  0  0  0  0  0  0  0  0  0
   -6.4460   24.8650  -30.7230 C   0  0  0  0  0  0  0  0  0  0  0  0
   -5.0580   24.7290  -30.8040 C   0  0  0  0  0  0  0  0  0  0  0  0
   -4.2430   25.8220  -30.5290 O   0  0  0  0  0  0  0  0  0  0  0  0
   -2.3170   23.8860  -28.5040 C   0  0  0  0  0  0  0  0  0  0  0  0
   -3.5120   23.7920  -27.7740 C   0  0  0  0  0  0  0  0  0  0  0  0
   -3.7240   24.6090  -26.6600 C   0  0  0  0  0  0  0  0  0  0  0  0
   -2.7440   25.5220  -26.2640 C   0  0  0  0  0  0  0  0  0  0  0  0
   -1.5490   25.6190  -26.9820 C   0  0  0  0  0  0  0  0  0  0  0  0
   -1.3310   24.8040  -28.0990 C   0  0  0  0  0  0  0  0  0  0  0  0
   -0.1330   24.9150  -28.7960 O   0  0  0  0  0  0  0  0  0  0  0  0
   -4.8884   21.4510  -31.7669 H   0  0  0  0  0  0  0  0  0  0  0  0
   -7.3640   20.4363  -34.3084 H   0  0  0  0  0  0  0  0  0  0  0  0
   -5.6737   20.8306  -33.7657 H   0  0  0  0  0  0  0  0  0  0  0  0
   -6.7162   18.4248  -35.1487 H   0  0  0  0  0  0  0  0  0  0  0  0
   -5.0361   19.0993  -35.0421 H   0  0  0  0  0  0  0  0  0  0  0  0
   -5.2269   16.8280  -34.0306 H   0  0  0  0  0  0  0  0  0  0  0  0
   -4.7320   18.1010  -32.8458 H   0  0  0  0  0  0  0  0  0  0  0  0
   -7.3501   16.5993  -33.0869 H   0  0  0  0  0  0  0  0  0  0  0  0
   -6.3305   16.9703  -31.6270 H   0  0  0  0  0  0  0  0  0  0  0  0
   -8.4705   18.6020  -32.9457 H   0  0  0  0  0  0  0  0  0  0  0  0
   -7.9920   18.4732  -31.2119 H   0  0  0  0  0  0  0  0  0  0  0  0
   -8.3678   23.8799  -30.9106 H   0  0  0  0  0  0  0  0  0  0  0  0
   -6.8869   25.8342  -30.4468 H   0  0  0  0  0  0  0  0  0  0  0  0
   -4.2853   23.0720  -28.0800 H   0  0  0  0  0  0  0  0  0  0  0  0
   -4.6642   24.5328  -26.0942 H   0  0  0  0  0  0  0  0  0  0  0  0
   -2.9128   26.1645  -25.3872 H   0  0  0  0  0  0  0  0  0  0  0  0
   -0.7776   26.3378  -26.6685 H   0  0  0  0  0  0  0  0  0  0  0  0
  1  2  2  0
  2  3  2  0
  2  4  1  0
  4  5  1  0
  5  6  2  0
  6  7  1  0
  7  8  1  0
  8  9  2  0
  8 10  2  0
  8 11  1  0
 11 12  1  0
 12 13  1  0
 13 14  1  0
 14 15  1  0
 15 16  1  0
  7 17  2  0
 17 18  1  0
 18 19  2  0
 19 20  1  0
  2 21  1  0
 21 22  2  0
 22 23  1  0
 23 24  2  0
 24 25  1  0
 25 26  2  0
 26 27  1  0
 19  5  1  0
 26 21  1  0
 16 11  1  0
  6 28  1  0
 12 29  1  0
 12 30  1  0
 13 31  1  0
 13 32  1  0
 14 33  1  0
 14 34  1  0
 15 35  1  0
 15 36  1  0
 16 37  1  0
 16 38  1  0
 17 39  1  0
 18 40  1  0
 22 41  1  0
 23 42  1  0
 24 43  1  0
 25 44  1  0
M  CHG  3   4  -1  20  -1  27  -1
M  END
>  <UniqueID>  (18) 
18

>  <SMILES>  (18) 
O=S(=O)([N-]c1cc(S(=O)(=O)N2CCCCC2)ccc1[O-])c1ccccc1[O-]

>  <Energy>  (18) 
55.80392649977089

>  <Genealogy>  (18) 
O=S(=O)([N-]c1cc(S(=O)(=O)N2CCCCC2)ccc1[O-])c1ccccc1[O-] (protonated)
O=S(=O)([N-]c1cc(S(=O)(=O)N2CCCCC2)ccc1[O-])c1ccccc1[O-] (3D coordinates assigned)
O=S(=O)([N-]c1cc(S(=O)(=O)N2CCCCC2)ccc1[O-])c1ccccc1[O-] (nonaromatic ring conformer: 55.80392649977089 kcal/mol)

>  <smiles>  (18) 
O=S(=O)(Nc1cc(S(=O)(=O)N2CCCCC2)ccc1O)c1ccccc1O

>  <score_type>  (18) 
oracle

>  <origin>  (18) 
adgpu

>  <m_score__min__energy>  (18) 
-15.699999999999999

>  <m_primary>  (18) 
energy

$$$$
18:0
     RDKit          3D

 41 43  0  0  0  0  0  0  0  0999 V2000
   -4.3950   25.7630  -30.4570 O   0  0  0  0  0  0  0  0  0  0  0  0
   -4.1810   24.5220  -30.5080 C   0  0  0  0  0  0  0  0  0  0  0  0
   -4.6250   23.7960  -31.6620 N   0  0  0  0  0  0  0  0  0  0  0  0
   -5.1640   22.4670  -31.6470 C   0  0  0  0  0  0  0  0  0  0  0  0
   -4.3310   21.3380  -31.7210 C   0  0  0  0  0  0  0  0  0  0  0  0
   -4.8840   20.0580  -31.7770 C   0  0  0  0  0  0  0  0  0  0  0  0
   -6.2750   19.8900  -31.7550 C   0  0  0  0  0  0  0  0  0  0  0  0
   -6.9730   18.2840  -31.9520 S   0  0  0  0  0  0  0  0  0  0  0  0
   -8.3920   18.2950  -31.4590 O   0  0  0  0  0  0  0  0  0  0  0  0
   -6.1990   17.3110  -31.1050 O   0  0  0  0  0  0  0  0  0  0  0  0
   -6.9420   17.7470  -33.6210 N   0  0  0  0  0  0  0  0  0  0  0  0
   -6.6860   16.2960  -33.7530 C   0  0  0  0  0  0  0  0  0  0  0  0
   -5.2340   15.9750  -34.1470 C   0  0  0  0  0  0  0  0  0  0  0  0
   -4.3610   16.9700  -33.6670 O   0  0  0  0  0  0  0  0  0  0  0  0
   -4.5730   18.1740  -34.3770 C   0  0  0  0  0  0  0  0  0  0  0  0
   -6.0650   18.5770  -34.4660 C   0  0  0  0  0  0  0  0  0  0  0  0
   -7.1040   21.0120  -31.6170 C   0  0  0  0  0  0  0  0  0  0  0  0
   -6.5490   22.2940  -31.5560 C   0  0  0  0  0  0  0  0  0  0  0  0
   -3.4310   23.8640  -29.4090 C   0  0  0  0  0  0  0  0  0  0  0  0
   -3.8740   22.6310  -28.8940 C   0  0  0  0  0  0  0  0  0  0  0  0
   -3.1870   22.0120  -27.8470 C   0  0  0  0  0  0  0  0  0  0  0  0
   -2.0440   22.6060  -27.3110 C   0  0  0  0  0  0  0  0  0  0  0  0
   -1.5840   23.8210  -27.8230 C   0  0  0  0  0  0  0  0  0  0  0  0
   -2.2690   24.4530  -28.8670 C   0  0  0  0  0  0  0  0  0  0  0  0
   -1.8000   25.6710  -29.3450 O   0  0  0  0  0  0  0  0  0  0  0  0
   -3.2383   21.4636  -31.7349 H   0  0  0  0  0  0  0  0  0  0  0  0
   -4.2262   19.1785  -31.8386 H   0  0  0  0  0  0  0  0  0  0  0  0
   -6.9026   15.8128  -32.7889 H   0  0  0  0  0  0  0  0  0  0  0  0
   -7.3359   15.9191  -34.5565 H   0  0  0  0  0  0  0  0  0  0  0  0
   -4.9482   15.0042  -33.7160 H   0  0  0  0  0  0  0  0  0  0  0  0
   -5.1630   15.9387  -35.2441 H   0  0  0  0  0  0  0  0  0  0  0  0
   -4.0231   18.9802  -33.8694 H   0  0  0  0  0  0  0  0  0  0  0  0
   -4.2167   18.0133  -35.4052 H   0  0  0  0  0  0  0  0  0  0  0  0
   -6.1635   19.6255  -34.1481 H   0  0  0  0  0  0  0  0  0  0  0  0
   -6.3816   18.4300  -35.5091 H   0  0  0  0  0  0  0  0  0  0  0  0
   -8.1948   20.8835  -31.5565 H   0  0  0  0  0  0  0  0  0  0  0  0
   -7.2039   23.1696  -31.4360 H   0  0  0  0  0  0  0  0  0  0  0  0
   -4.7679   22.1514  -29.3193 H   0  0  0  0  0  0  0  0  0  0  0  0
   -3.5480   21.0541  -27.4442 H   0  0  0  0  0  0  0  0  0  0  0  0
   -1.5055   22.1175  -26.4855 H   0  0  0  0  0  0  0  0  0  0  0  0
   -0.6785   24.2838  -27.4035 H   0  0  0  0  0  0  0  0  0  0  0  0
  1  2  2  0
  2  3  1  0
  3  4  1  0
  4  5  2  0
  5  6  1  0
  6  7  2  0
  7  8  1  0
  8  9  2  0
  8 10  2  0
  8 11  1  0
 11 12  1  0
 12 13  1  0
 13 14  1  0
 14 15  1  0
 15 16  1  0
  7 17  1  0
 17 18  2  0
  2 19  1  0
 19 20  2  0
 20 21  1  0
 21 22  2  0
 22 23  1  0
 23 24  2  0
 24 25  1  0
 18  4  1  0
 24 19  1  0
 16 11  1  0
  5 26  1  0
  6 27  1  0
 12 28  1  0
 12 29  1  0
 13 30  1  0
 13 31  1  0
 15 32  1  0
 15 33  1  0
 16 34  1  0
 16 35  1  0
 17 36  1  0
 18 37  1  0
 20 38  1  0
 21 39  1  0
 22 40  1  0
 23 41  1  0
M  CHG  2   3  -1  25  -1
M  END
>  <UniqueID>  (19) 
19

>  <SMILES>  (19) 
O=C([N-]c1ccc(S(=O)(=O)N2CCOCC2)cc1)c1ccccc1[O-]

>  <Energy>  (19) 
60.08380855105221

>  <Genealogy>  (19) 
O=C([N-]c1ccc(S(=O)(=O)N2CCOCC2)cc1)c1ccccc1[O-] (protonated)
O=C([N-]c1ccc(S(=O)(=O)N2CCOCC2)cc1)c1ccccc1[O-] (3D coordinates assigned)
O=C([N-]c1ccc(S(=O)(=O)N2CCOCC2)cc1)c1ccccc1[O-] (nonaromatic ring conformer: 60.08380855105221 kcal/mol)

>  <smiles>  (19) 
O=C(Nc1ccc(S(=O)(=O)N2CCOCC2)cc1)c1ccccc1O

>  <score_type>  (19) 
oracle

>  <origin>  (19) 
adgpu

>  <m_score__min__energy>  (19) 
-12.869999999999999

>  <m_primary>  (19) 
energy

$$$$
19:0
     RDKit          3D

 49 51  0  0  0  0  0  0  0  0999 V2000
   -3.1930   20.7580  -30.7620 C   0  0  0  0  0  0  0  0  0  0  0  0
   -2.5680   22.2840  -31.5310 S   0  0  0  0  0  0  0  0  0  0  0  0
   -2.1430   23.0450  -29.9580 C   0  0  0  0  0  0  0  0  0  0  0  0
   -1.2460   22.3900  -29.1040 C   0  0  0  0  0  0  0  0  0  0  0  0
   -0.8990   22.9600  -27.8770 C   0  0  0  0  0  0  0  0  0  0  0  0
   -1.4400   24.1890  -27.5000 C   0  0  0  0  0  0  0  0  0  0  0  0
   -2.3390   24.8490  -28.3440 C   0  0  0  0  0  0  0  0  0  0  0  0
   -2.7150   24.2730  -29.5720 C   0  0  0  0  0  0  0  0  0  0  0  0
   -3.6190   24.9400  -30.4680 N   0  0  0  0  0  0  0  0  0  0  0  0
   -4.9440   24.5180  -30.8130 C   0  0  0  0  0  0  0  0  0  0  0  0
   -5.7890   25.3520  -31.2360 O   0  0  0  0  0  0  0  0  0  0  0  0
   -5.3220   23.1540  -30.5790 N   0  0  0  0  0  0  0  0  0  0  0  0
   -6.5480   22.5650  -31.0450 C   0  0  0  0  0  0  0  0  0  0  0  0
   -7.6690   23.3530  -31.3630 C   0  0  0  0  0  0  0  0  0  0  0  0
   -8.8370   22.7560  -31.8430 C   0  0  0  0  0  0  0  0  0  0  0  0
   -8.8970   21.3720  -32.0210 C   0  0  0  0  0  0  0  0  0  0  0  0
   -7.7820   20.5770  -31.7230 C   0  0  0  0  0  0  0  0  0  0  0  0
   -7.8300   18.8340  -31.9820 S   0  0  0  0  0  0  0  0  0  0  0  0
   -7.1090   18.1590  -30.8490 O   0  0  0  0  0  0  0  0  0  0  0  0
   -9.2570   18.3560  -31.9950 O   0  0  0  0  0  0  0  0  0  0  0  0
   -7.0540   18.4340  -33.4960 N   0  0  0  0  0  0  0  0  0  0  0  0
   -6.3620   17.1300  -33.3780 C   0  0  0  0  0  0  0  0  0  0  0  0
   -5.3130   16.9500  -34.4790 C   0  0  0  0  0  0  0  0  0  0  0  0
   -4.2130   18.0200  -34.3750 C   0  0  0  0  0  0  0  0  0  0  0  0
   -4.7000   19.3100  -33.6940 C   0  0  0  0  0  0  0  0  0  0  0  0
   -6.1930   19.5500  -33.9630 C   0  0  0  0  0  0  0  0  0  0  0  0
   -6.6090   21.1770  -31.2490 C   0  0  0  0  0  0  0  0  0  0  0  0
   -3.1528   20.8561  -29.6671 H   0  0  0  0  0  0  0  0  0  0  0  0
   -4.2331   20.5881  -31.0770 H   0  0  0  0  0  0  0  0  0  0  0  0
   -2.5709   19.9073  -31.0770 H   0  0  0  0  0  0  0  0  0  0  0  0
   -0.8134   21.4232  -29.4010 H   0  0  0  0  0  0  0  0  0  0  0  0
   -0.1985   22.4392  -27.2075 H   0  0  0  0  0  0  0  0  0  0  0  0
   -1.1591   24.6401  -26.5369 H   0  0  0  0  0  0  0  0  0  0  0  0
   -2.7543   25.8232  -28.0466 H   0  0  0  0  0  0  0  0  0  0  0  0
   -4.6990   22.5810  -29.9660 H   0  0  0  0  0  0  0  0  0  0  0  0
   -7.6256   24.4444  -31.2331 H   0  0  0  0  0  0  0  0  0  0  0  0
   -9.7124   23.3779  -32.0816 H   0  0  0  0  0  0  0  0  0  0  0  0
   -9.8202   20.9056  -32.3954 H   0  0  0  0  0  0  0  0  0  0  0  0
   -5.8647   17.0765  -32.3983 H   0  0  0  0  0  0  0  0  0  0  0  0
   -7.1111   16.3311  -33.4809 H   0  0  0  0  0  0  0  0  0  0  0  0
   -4.8562   15.9542  -34.3808 H   0  0  0  0  0  0  0  0  0  0  0  0
   -5.8095   17.0526  -35.4552 H   0  0  0  0  0  0  0  0  0  0  0  0
   -3.3763   17.6086  -33.7913 H   0  0  0  0  0  0  0  0  0  0  0  0
   -3.9065   18.2809  -35.3987 H   0  0  0  0  0  0  0  0  0  0  0  0
   -4.5399   19.2255  -32.6090 H   0  0  0  0  0  0  0  0  0  0  0  0
   -4.1313   20.1571  -34.1050 H   0  0  0  0  0  0  0  0  0  0  0  0
   -6.4992   20.4699  -33.4434 H   0  0  0  0  0  0  0  0  0  0  0  0
   -6.3219   19.6310  -35.0524 H   0  0  0  0  0  0  0  0  0  0  0  0
   -5.7272   20.5554  -31.0345 H   0  0  0  0  0  0  0  0  0  0  0  0
  1  2  1  0
  2  3  1  0
  3  4  2  0
  4  5  1  0
  5  6  2  0
  6  7  1  0
  7  8  2  0
  8  9  1  0
  9 10  1  0
 10 11  2  0
 10 12  1  0
 12 13  1  0
 13 14  2  0
 14 15  1  0
 15 16  2  0
 16 17  1  0
 17 18  1  0
 18 19  2  0
 18 20  2  0
 18 21  1  0
 21 22  1  0
 22 23  1  0
 23 24  1  0
 24 25  1  0
 25 26  1  0
 17 27  2  0
  8  3  1  0
 27 13  1  0
 26 21  1  0
  1 28  1  0
  1 29  1  0
  1 30  1  0
  4 31  1  0
  5 32  1  0
  6 33  1  0
  7 34  1  0
 12 35  1  0
 14 36  1  0
 15 37  1  0
 16 38  1  0
 22 39  1  0
 22 40  1  0
 23 41  1  0
 23 42  1  0
 24 43  1  0
 24 44  1  0
 25 45  1  0
 25 46  1  0
 26 47  1  0
 26 48  1  0
 27 49  1  0
M  CHG  1   9  -1
M  END
>  <UniqueID>  (20) 
20

>  <SMILES>  (20) 
CSc1ccccc1[N-]C(=O)Nc1cccc(S(=O)(=O)N2CCCCC2)c1

>  <Energy>  (20) 
57.93379517260414

>  <Genealogy>  (20) 
CSc1ccccc1[N-]C(=O)Nc1cccc(S(=O)(=O)N2CCCCC2)c1 (protonated)
CSc1ccccc1[N-]C(=O)Nc1cccc(S(=O)(=O)N2CCCCC2)c1 (3D coordinates assigned)
CSc1ccccc1[N-]C(=O)Nc1cccc(S(=O)(=O)N2CCCCC2)c1 (nonaromatic ring conformer: 57.93379517260414 kcal/mol)

>  <smiles>  (20) 
CSc1ccccc1NC(=O)Nc1cccc(S(=O)(=O)N2CCCCC2)c1

>  <score_type>  (20) 
oracle

>  <origin>  (20) 
adgpu

>  <m_score__min__energy>  (20) 
-11.24

>  <m_primary>  (20) 
energy

$$$$
20:0
     RDKit          3D

 46 48  0  0  0  0  0  0  0  0999 V2000
    1.4380   24.1070  -25.6970 C   0  0  0  0  0  0  0  0  0  0  0  0
    0.4480   24.1090  -26.8330 C   0  0  0  0  0  0  0  0  0  0  0  0
    0.1140   22.8800  -27.4240 C   0  0  0  0  0  0  0  0  0  0  0  0
   -0.7900   22.8200  -28.4820 C   0  0  0  0  0  0  0  0  0  0  0  0
   -1.3900   23.9840  -28.9660 C   0  0  0  0  0  0  0  0  0  0  0  0
   -2.2980   23.8880  -30.0730 N   0  0  0  0  0  0  0  0  0  0  0  0
   -3.7090   24.1390  -29.9510 C   0  0  0  0  0  0  0  0  0  0  0  0
   -4.1850   24.5710  -28.8690 O   0  0  0  0  0  0  0  0  0  0  0  0
   -4.5890   23.9380  -31.0610 N   0  0  0  0  0  0  0  0  0  0  0  0
   -4.7990   22.7000  -31.7520 C   0  0  0  0  0  0  0  0  0  0  0  0
   -3.6990   22.0370  -32.3080 C   0  0  0  0  0  0  0  0  0  0  0  0
   -3.8730   20.8440  -33.0150 C   0  0  0  0  0  0  0  0  0  0  0  0
   -5.1580   20.3030  -33.1940 C   0  0  0  0  0  0  0  0  0  0  0  0
   -5.3520   19.0390  -33.9480 C   0  0  0  0  0  0  0  0  0  0  0  0
   -4.4900   17.9210  -33.7010 N   0  0  0  0  0  0  0  0  0  0  0  0
   -6.2940   18.9360  -34.8380 N   0  0  0  0  0  0  0  0  0  0  0  0
   -6.2650   20.9870  -32.6610 C   0  0  0  0  0  0  0  0  0  0  0  0
   -6.0880   22.1800  -31.9540 C   0  0  0  0  0  0  0  0  0  0  0  0
   -1.0510   25.2270  -28.4040 C   0  0  0  0  0  0  0  0  0  0  0  0
   -1.5700   26.3890  -28.9650 O   0  0  0  0  0  0  0  0  0  0  0  0
   -0.1650   25.3000  -27.3050 C   0  0  0  0  0  0  0  0  0  0  0  0
    0.2080   26.8870  -26.5890 S   0  0  0  0  0  0  0  0  0  0  0  0
    1.6760   26.9810  -26.2700 O   0  0  0  0  0  0  0  0  0  0  0  0
   -0.1160   27.9900  -27.5550 O   0  0  0  0  0  0  0  0  0  0  0  0
   -0.7820   27.0910  -25.1090 C   0  0  0  0  0  0  0  0  0  0  0  0
   -2.0200   26.2130  -25.0440 C   0  0  0  0  0  0  0  0  0  0  0  0
   -0.8090   25.8860  -24.1820 C   0  0  0  0  0  0  0  0  0  0  0  0
    0.8970   24.1081  -24.7392 H   0  0  0  0  0  0  0  0  0  0  0  0
    2.0680   23.2076  -25.7613 H   0  0  0  0  0  0  0  0  0  0  0  0
    2.0716   25.0039  -25.7613 H   0  0  0  0  0  0  0  0  0  0  0  0
    0.5717   21.9535  -27.0470 H   0  0  0  0  0  0  0  0  0  0  0  0
   -1.0327   21.8493  -28.9391 H   0  0  0  0  0  0  0  0  0  0  0  0
   -1.9250   23.5090  -30.9720 H   0  0  0  0  0  0  0  0  0  0  0  0
   -2.6899   22.4580  -32.1877 H   0  0  0  0  0  0  0  0  0  0  0  0
   -2.9985   20.3249  -33.4342 H   0  0  0  0  0  0  0  0  0  0  0  0
   -3.7860   17.9420  -32.9310 H   0  0  0  0  0  0  0  0  0  0  0  0
   -4.5850   17.0410  -34.2550 H   0  0  0  0  0  0  0  0  0  0  0  0
   -6.9200   19.7390  -35.0730 H   0  0  0  0  0  0  0  0  0  0  0  0
   -6.4340   18.0460  -35.3670 H   0  0  0  0  0  0  0  0  0  0  0  0
   -7.2774   20.5805  -32.8014 H   0  0  0  0  0  0  0  0  0  0  0  0
   -6.9625   22.7140  -31.5540 H   0  0  0  0  0  0  0  0  0  0  0  0
   -0.5792   28.1648  -24.9836 H   0  0  0  0  0  0  0  0  0  0  0  0
   -2.9405   26.5938  -24.5775 H   0  0  0  0  0  0  0  0  0  0  0  0
   -2.6219   25.6613  -25.7811 H   0  0  0  0  0  0  0  0  0  0  0  0
   -0.8538   26.0308  -23.0925 H   0  0  0  0  0  0  0  0  0  0  0  0
   -0.1725   25.0005  -24.0377 H   0  0  0  0  0  0  0  0  0  0  0  0
  1  2  1  0
  2  3  2  0
  3  4  1  0
  4  5  2  0
  5  6  1  0
  6  7  1  0
  7  8  2  0
  7  9  1  0
  9 10  1  0
 10 11  2  0
 11 12  1  0
 12 13  2  0
 13 14  1  0
 14 15  1  0
 14 16  2  0
 13 17  1  0
 17 18  2  0
  5 19  1  0
 19 20  1  0
 19 21  2  0
 21 22  1  0
 22 23  2  0
 22 24  2  0
 22 25  1  0
 25 26  1  0
 26 27  1  0
 21  2  1  0
 27 25  1  0
 18 10  1  0
  1 28  1  0
  1 29  1  0
  1 30  1  0
  3 31  1  0
  4 32  1  0
  6 33  1  0
 11 34  1  0
 12 35  1  0
 15 36  1  0
 15 37  1  0
 16 38  1  0
 16 39  1  0
 17 40  1  0
 18 41  1  0
 25 42  1  0
 26 43  1  0
 26 44  1  0
 27 45  1  0
 27 46  1  0
M  CHG  3   9  -1  16   1  20  -1
M  END
>  <UniqueID>  (21) 
21

>  <SMILES>  (21) 
Cc1ccc(NC(=O)[N-]c2ccc(C(N)=[NH2+])cc2)c([O-])c1S(=O)(=O)C1CC1

>  <Energy>  (21) 
325.2836552541803

>  <Genealogy>  (21) 
Cc1ccc(NC(=O)[N-]c2ccc(C(N)=[NH2+])cc2)c([O-])c1S(=O)(=O)C1CC1 (protonated)
Cc1ccc(NC(=O)[N-]c2ccc(C(N)=[NH2+])cc2)c([O-])c1S(=O)(=O)C1CC1 (3D coordinates assigned)
Cc1ccc(NC(=O)[N-]c2ccc(C(N)=[NH2+])cc2)c([O-])c1S(=O)(=O)C1CC1 (nonaromatic ring conformer: 325.2836552541803 kcal/mol)

>  <smiles>  (21) 
Cc1ccc(NC(=O)Nc2ccc(C(=N)N)cc2)c(O)c1S(=O)(=O)C1CC1

>  <score_type>  (21) 
oracle

>  <origin>  (21) 
adgpu

>  <m_score__min__energy>  (21) 
-13.050000000000001

>  <m_primary>  (21) 
energy

$$$$
21:0
     RDKit          3D

 63 67  0  0  0  0  0  0  0  0999 V2000
   -8.9410   22.7310  -32.0800 O   0  0  0  0  0  0  0  0  0  0  0  0
   -7.7330   21.9900  -31.5860 S   0  0  0  0  0  0  0  0  0  0  0  0
   -8.1360   21.2090  -30.3690 O   0  0  0  0  0  0  0  0  0  0  0  0
   -6.4840   23.1540  -31.1450 C   0  0  0  0  0  0  0  0  0  0  0  0
   -6.7340   24.5300  -31.2510 C   0  0  0  0  0  0  0  0  0  0  0  0
   -5.7720   25.4520  -30.8280 C   0  0  0  0  0  0  0  0  0  0  0  0
   -4.5570   25.0080  -30.3040 C   0  0  0  0  0  0  0  0  0  0  0  0
   -4.2850   23.6340  -30.2200 C   0  0  0  0  0  0  0  0  0  0  0  0
   -3.0510   23.1750  -29.6460 N   0  0  0  0  0  0  0  0  0  0  0  0
   -2.0270   23.9500  -29.2370 C   0  0  0  0  0  0  0  0  0  0  0  0
   -2.0080   25.3360  -29.3420 O   0  0  0  0  0  0  0  0  0  0  0  0
   -1.0170   23.1940  -28.6840 C   0  0  0  0  0  0  0  0  0  0  0  0
   -1.4510   21.8800  -28.7600 C   0  0  0  0  0  0  0  0  0  0  0  0
   -0.7160   20.7190  -28.3210 N   0  0  0  0  0  0  0  0  0  0  0  0
    0.5770   20.3980  -28.9500 C   0  0  0  0  0  0  0  0  0  0  0  0
    1.3640   19.3940  -28.1070 C   0  0  0  0  0  0  0  0  0  0  0  0
    0.4990   18.2520  -27.7860 N   0  0  0  0  0  0  0  0  0  0  0  0
    0.8920   16.9090  -28.1310 C   0  0  0  0  0  0  0  0  0  0  0  0
    1.1340   15.9560  -27.1240 C   0  0  0  0  0  0  0  0  0  0  0  0
    1.4910   14.6450  -27.4600 C   0  0  0  0  0  0  0  0  0  0  0  0
    1.6070   14.2710  -28.7980 C   0  0  0  0  0  0  0  0  0  0  0  0
    1.3660   15.2060  -29.8070 C   0  0  0  0  0  0  0  0  0  0  0  0
    1.0040   16.5180  -29.4770 C   0  0  0  0  0  0  0  0  0  0  0  0
   -0.8430   18.4960  -27.2340 C   0  0  0  0  0  0  0  0  0  0  0  0
   -1.1540   19.9940  -27.1170 C   0  0  0  0  0  0  0  0  0  0  0  0
   -2.7000   21.9030  -29.3570 C   0  0  0  0  0  0  0  0  0  0  0  0
   -3.4830   20.7850  -29.6380 O   0  0  0  0  0  0  0  0  0  0  0  0
   -5.2510   22.7110  -30.6480 C   0  0  0  0  0  0  0  0  0  0  0  0
   -7.1820   20.8790  -32.8200 N   0  0  0  0  0  0  0  0  0  0  0  0
   -8.1430   19.7840  -33.0700 C   0  0  0  0  0  0  0  0  0  0  0  0
   -7.9320   18.5450  -32.1770 C   0  0  0  0  0  0  0  0  0  0  0  0
   -6.4550   18.1820  -31.9480 C   0  0  0  0  0  0  0  0  0  0  0  0
   -5.5220   18.9840  -32.8480 C   0  0  0  0  0  0  0  0  0  0  0  0
   -5.7660   20.4800  -32.6310 C   0  0  0  0  0  0  0  0  0  0  0  0
   -7.6884   24.8843  -31.6676 H   0  0  0  0  0  0  0  0  0  0  0  0
   -5.9732   26.5304  -30.9084 H   0  0  0  0  0  0  0  0  0  0  0  0
   -3.8106   25.7372  -29.9559 H   0  0  0  0  0  0  0  0  0  0  0  0
   -0.0652   23.5572  -28.2690 H   0  0  0  0  0  0  0  0  0  0  0  0
    0.3952   19.9670  -29.9456 H   0  0  0  0  0  0  0  0  0  0  0  0
    1.1657   21.3236  -29.0316 H   0  0  0  0  0  0  0  0  0  0  0  0
    2.2400   19.0446  -28.6732 H   0  0  0  0  0  0  0  0  0  0  0  0
    1.7014   19.8755  -27.1773 H   0  0  0  0  0  0  0  0  0  0  0  0
    1.0420   16.2433  -26.0662 H   0  0  0  0  0  0  0  0  0  0  0  0
    1.6806   13.9076  -26.6660 H   0  0  0  0  0  0  0  0  0  0  0  0
    1.8882   13.2400  -29.0588 H   0  0  0  0  0  0  0  0  0  0  0  0
    1.4607   14.9115  -30.8626 H   0  0  0  0  0  0  0  0  0  0  0  0
    0.8060   17.2475  -30.2761 H   0  0  0  0  0  0  0  0  0  0  0  0
   -1.5887   18.0292  -27.8944 H   0  0  0  0  0  0  0  0  0  0  0  0
   -0.8783   18.0622  -26.2238 H   0  0  0  0  0  0  0  0  0  0  0  0
   -2.2386   20.1275  -26.9913 H   0  0  0  0  0  0  0  0  0  0  0  0
   -0.6129   20.3976  -26.2485 H   0  0  0  0  0  0  0  0  0  0  0  0
   -3.3950   19.9260  -29.1100 H   0  0  0  0  0  0  0  0  0  0  0  0
   -5.0392   21.6330  -30.5931 H   0  0  0  0  0  0  0  0  0  0  0  0
   -9.1583   20.1684  -32.8931 H   0  0  0  0  0  0  0  0  0  0  0  0
   -7.9876   19.4566  -34.1086 H   0  0  0  0  0  0  0  0  0  0  0  0
   -8.3956   18.7408  -31.1989 H   0  0  0  0  0  0  0  0  0  0  0  0
   -8.3910   17.6937  -32.7010 H   0  0  0  0  0  0  0  0  0  0  0  0
   -6.1980   18.3866  -30.8982 H   0  0  0  0  0  0  0  0  0  0  0  0
   -6.3263   17.1166  -32.1897 H   0  0  0  0  0  0  0  0  0  0  0  0
   -4.4775   18.7431  -32.6011 H   0  0  0  0  0  0  0  0  0  0  0  0
   -5.7179   18.7290  -33.8999 H   0  0  0  0  0  0  0  0  0  0  0  0
   -5.4652   20.7371  -31.6046 H   0  0  0  0  0  0  0  0  0  0  0  0
   -5.1733   21.0186  -33.3850 H   0  0  0  0  0  0  0  0  0  0  0  0
  1  2  2  0
  2  3  2  0
  2  4  1  0
  4  5  2  0
  5  6  1  0
  6  7  2  0
  7  8  1  0
  8  9  1  0
  9 10  1  0
 10 11  1  0
 10 12  2  0
 12 13  1  0
 13 14  1  0
 14 15  1  0
 15 16  1  0
 16 17  1  0
 17 18  1  0
 18 19  2  0
 19 20  1  0
 20 21  2  0
 21 22  1  0
 22 23  2  0
 17 24  1  0
 24 25  1  0
 13 26  2  0
 26 27  1  0
  8 28  2  0
  2 29  1  0
 29 30  1  0
 30 31  1  0
 31 32  1  0
 32 33  1  0
 33 34  1  0
 28  4  1  0
 34 29  1  0
 26  9  1  0
 25 14  1  0
 23 18  1  0
  5 35  1  0
  6 36  1  0
  7 37  1  0
 12 38  1  0
 15 39  1  0
 15 40  1  0
 16 41  1  0
 16 42  1  0
 19 43  1  0
 20 44  1  0
 21 45  1  0
 22 46  1  0
 23 47  1  0
 24 48  1  0
 24 49  1  0
 25 50  1  0
 25 51  1  0
 27 52  1  0
 28 53  1  0
 30 54  1  0
 30 55  1  0
 31 56  1  0
 31 57  1  0
 32 58  1  0
 32 59  1  0
 33 60  1  0
 33 61  1  0
 34 62  1  0
 34 63  1  0
M  CHG  1  11  -1
M  END
>  <UniqueID>  (22) 
22

>  <SMILES>  (22) 
O=S(=O)(c1cccc(-n2c([O-])cc(N3CCN(c4ccccc4)CC3)c2O)c1)N1CCCCC1

>  <Energy>  (22) 
115.44008957717098

>  <Genealogy>  (22) 
O=S(=O)(c1cccc(-n2c([O-])cc(N3CCN(c4ccccc4)CC3)c2O)c1)N1CCCCC1 (protonated)
O=S(=O)(c1cccc(-n2c([O-])cc(N3CCN(c4ccccc4)CC3)c2O)c1)N1CCCCC1 (3D coordinates assigned)
O=S(=O)(c1cccc(-n2c([O-])cc(N3CCN(c4ccccc4)CC3)c2O)c1)N1CCCCC1 (nonaromatic ring conformer: 115.44008957717098 kcal/mol)

>  <smiles>  (22) 
O=S(=O)(c1cccc(-n2c(O)cc(N3CCN(c4ccccc4)CC3)c2O)c1)N1CCCCC1

>  <score_type>  (22) 
oracle

>  <origin>  (22) 
adgpu

>  <m_score__min__energy>  (22) 
-12.050000000000001

>  <m_primary>  (22) 
energy

$$$$
22:0
     RDKit          3D

 49 52  0  0  0  0  0  0  0  0999 V2000
    0.7970   25.9880  -27.4750 O   0  0  0  0  0  0  0  0  0  0  0  0
   -0.3640   25.5780  -27.7370 C   0  0  0  0  0  0  0  0  0  0  0  0
   -1.2870   25.3470  -26.7690 N   0  0  0  0  0  0  0  0  0  0  0  0
   -2.3440   24.9340  -27.4850 C   0  0  0  0  0  0  0  0  0  0  0  0
   -3.5970   24.5550  -27.0120 C   0  0  0  0  0  0  0  0  0  0  0  0
   -4.5610   24.1580  -27.9570 C   0  0  0  0  0  0  0  0  0  0  0  0
   -4.2530   24.1510  -29.3410 C   0  0  0  0  0  0  0  0  0  0  0  0
   -5.4730   23.6620  -30.5180 S   0  0  0  0  0  0  0  0  0  0  0  0
   -6.7960   23.5090  -29.8200 O   0  0  0  0  0  0  0  0  0  0  0  0
   -5.6180   24.7370  -31.5580 O   0  0  0  0  0  0  0  0  0  0  0  0
   -5.0540   22.1540  -31.2950 N   0  0  0  0  0  0  0  0  0  0  0  0
   -4.7320   22.3830  -32.7150 C   0  0  0  0  0  0  0  0  0  0  0  0
   -4.1230   21.1210  -33.3700 C   0  0  0  0  0  0  0  0  0  0  0  0
   -4.3100   19.9260  -32.5160 N   0  0  0  0  0  0  0  0  0  0  0  0
   -3.7800   18.7070  -33.1730 C   0  0  0  0  0  0  0  0  0  0  0  0
   -4.5170   18.3970  -34.4550 C   0  0  0  0  0  0  0  0  0  0  0  0
   -5.8500   18.4210  -34.6070 C   0  0  0  0  0  0  0  0  0  0  0  0
   -6.8220   18.7910  -33.5560 C   0  0  0  0  0  0  0  0  0  0  0  0
   -7.2620   20.1210  -33.4700 C   0  0  0  0  0  0  0  0  0  0  0  0
   -8.1560   20.5050  -32.4670 C   0  0  0  0  0  0  0  0  0  0  0  0
   -8.6010   19.5700  -31.5290 C   0  0  0  0  0  0  0  0  0  0  0  0
   -8.1460   18.2510  -31.5880 C   0  0  0  0  0  0  0  0  0  0  0  0
   -7.2510   17.8620  -32.5900 C   0  0  0  0  0  0  0  0  0  0  0  0
   -3.6490   20.1230  -31.2030 C   0  0  0  0  0  0  0  0  0  0  0  0
   -3.9210   21.5210  -30.6080 C   0  0  0  0  0  0  0  0  0  0  0  0
   -2.9690   24.5410  -29.7780 C   0  0  0  0  0  0  0  0  0  0  0  0
   -2.0420   24.9280  -28.8130 C   0  0  0  0  0  0  0  0  0  0  0  0
   -0.7790   25.3360  -29.0060 N   0  0  0  0  0  0  0  0  0  0  0  0
   -3.8258   24.5655  -25.9361 H   0  0  0  0  0  0  0  0  0  0  0  0
   -5.5617   23.8506  -27.6193 H   0  0  0  0  0  0  0  0  0  0  0  0
   -5.6535   22.6544  -33.2510 H   0  0  0  0  0  0  0  0  0  0  0  0
   -3.9908   23.1937  -32.7739 H   0  0  0  0  0  0  0  0  0  0  0  0
   -4.6136   20.9486  -34.3393 H   0  0  0  0  0  0  0  0  0  0  0  0
   -3.0437   21.2863  -33.5030 H   0  0  0  0  0  0  0  0  0  0  0  0
   -5.3370   19.7980  -32.3480 H   0  0  0  0  0  0  0  0  0  0  0  0
   -2.7151   18.8601  -33.4022 H   0  0  0  0  0  0  0  0  0  0  0  0
   -3.9177   17.8597  -32.4852 H   0  0  0  0  0  0  0  0  0  0  0  0
   -3.9123   18.1302  -35.3343 H   0  0  0  0  0  0  0  0  0  0  0  0
   -6.2519   18.1431  -35.5925 H   0  0  0  0  0  0  0  0  0  0  0  0
   -6.9013   20.8648  -34.1957 H   0  0  0  0  0  0  0  0  0  0  0  0
   -8.5100   21.5452  -32.4159 H   0  0  0  0  0  0  0  0  0  0  0  0
   -9.3097   19.8728  -30.7441 H   0  0  0  0  0  0  0  0  0  0  0  0
   -8.4920   17.5169  -30.8454 H   0  0  0  0  0  0  0  0  0  0  0  0
   -6.8813   16.8265  -32.6230 H   0  0  0  0  0  0  0  0  0  0  0  0
   -4.0233   19.3624  -30.5020 H   0  0  0  0  0  0  0  0  0  0  0  0
   -2.5639   20.0312  -31.3580 H   0  0  0  0  0  0  0  0  0  0  0  0
   -4.1551   21.4209  -29.5379 H   0  0  0  0  0  0  0  0  0  0  0  0
   -3.0263   22.1472  -30.7403 H   0  0  0  0  0  0  0  0  0  0  0  0
   -2.7085   24.5394  -30.8467 H   0  0  0  0  0  0  0  0  0  0  0  0
  1  2  2  0
  2  3  1  0
  3  4  1  0
  4  5  2  0
  5  6  1  0
  6  7  2  0
  7  8  1  0
  8  9  2  0
  8 10  2  0
  8 11  1  0
 11 12  1  0
 12 13  1  0
 13 14  1  0
 14 15  1  0
 15 16  1  0
 16 17  2  3
 17 18  1  0
 18 19  2  0
 19 20  1  0
 20 21  2  0
 21 22  1  0
 22 23  2  0
 14 24  1  0
 24 25  1  0
  7 26  1  0
 26 27  2  0
 27 28  1  0
 28  2  1  0
 27  4  1  0
 25 11  1  0
 23 18  1  0
  5 29  1  0
  6 30  1  0
 12 31  1  0
 12 32  1  0
 13 33  1  0
 13 34  1  0
 14 35  1  0
 15 36  1  0
 15 37  1  0
 16 38  1  0
 17 39  1  0
 19 40  1  0
 20 41  1  0
 21 42  1  0
 22 43  1  0
 23 44  1  0
 24 45  1  0
 24 46  1  0
 25 47  1  0
 25 48  1  0
 26 49  1  0
M  CHG  3   3  -1  14   1  28  -1
M  END
>  <UniqueID>  (23) 
23

>  <SMILES>  (23) 
O=c1[n-]c2ccc(S(=O)(=O)N3CC[NH+](CC=Cc4ccccc4)CC3)cc2[n-]1

>  <Energy>  (23) 
101.60679490213911

>  <Genealogy>  (23) 
O=c1[n-]c2ccc(S(=O)(=O)N3CC[NH+](CC=Cc4ccccc4)CC3)cc2[n-]1 (protonated)
O=c1[n-]c2ccc(S(=O)(=O)N3CC[NH+](CC=Cc4ccccc4)CC3)cc2[n-]1 (3D coordinates assigned)
O=c1[n-]c2ccc(S(=O)(=O)N3CC[NH+](CC=Cc4ccccc4)CC3)cc2[n-]1 (nonaromatic ring conformer: 101.60679490213911 kcal/mol)

>  <smiles>  (23) 
O=c1[nH]c2ccc(S(=O)(=O)N3CCN(CC=Cc4ccccc4)CC3)cc2[nH]1

>  <score_type>  (23) 
oracle

>  <origin>  (23) 
adgpu

>  <m_score__min__energy>  (23) 
-10.970000000000001

>  <m_primary>  (23) 
energy

$$$$
23:0
     RDKit          3D

 59 62  0  0  0  0  0  0  0  0999 V2000
   -0.7790   21.5070  -33.1150 C   0  0  0  0  0  0  0  0  0  0  0  0
   -1.7190   20.3360  -33.2320 C   0  0  0  0  0  0  0  0  0  0  0  0
   -1.4070   19.3050  -34.1340 C   0  0  0  0  0  0  0  0  0  0  0  0
   -2.2430   18.1960  -34.2650 C   0  0  0  0  0  0  0  0  0  0  0  0
   -3.4250   18.1080  -33.5140 C   0  0  0  0  0  0  0  0  0  0  0  0
   -4.2890   16.9640  -33.5950 N   0  0  0  0  0  0  0  0  0  0  0  0
   -5.7200   16.9850  -33.6930 C   0  0  0  0  0  0  0  0  0  0  0  0
   -6.3260   16.0530  -34.2890 O   0  0  0  0  0  0  0  0  0  0  0  0
   -6.4880   18.1210  -33.1280 C   0  0  0  0  0  0  0  0  0  0  0  0
   -6.5080   19.3650  -33.7860 C   0  0  0  0  0  0  0  0  0  0  0  0
   -7.2480   20.4310  -33.2680 C   0  0  0  0  0  0  0  0  0  0  0  0
   -7.9730   20.2770  -32.0790 C   0  0  0  0  0  0  0  0  0  0  0  0
   -8.9290   21.6180  -31.4390 S   0  0  0  0  0  0  0  0  0  0  0  0
  -10.0710   21.8930  -32.3760 O   0  0  0  0  0  0  0  0  0  0  0  0
   -9.5050   21.2170  -30.1090 O   0  0  0  0  0  0  0  0  0  0  0  0
   -7.9970   23.0830  -31.2390 N   0  0  0  0  0  0  0  0  0  0  0  0
   -7.0620   23.2980  -32.3410 C   0  0  0  0  0  0  0  0  0  0  0  0
   -5.9260   24.1440  -31.7840 C   0  0  0  0  0  0  0  0  0  0  0  0
   -6.0300   24.0170  -30.2700 C   0  0  0  0  0  0  0  0  0  0  0  0
   -7.1770   23.0510  -30.0290 C   0  0  0  0  0  0  0  0  0  0  0  0
   -7.9610   19.0390  -31.4210 C   0  0  0  0  0  0  0  0  0  0  0  0
   -7.2220   17.9700  -31.9380 C   0  0  0  0  0  0  0  0  0  0  0  0
   -3.7410   19.1270  -32.6110 C   0  0  0  0  0  0  0  0  0  0  0  0
   -2.9120   20.2530  -32.4720 C   0  0  0  0  0  0  0  0  0  0  0  0
   -3.3650   21.5100  -31.3050 S   0  0  0  0  0  0  0  0  0  0  0  0
   -4.7960   21.3290  -30.8800 O   0  0  0  0  0  0  0  0  0  0  0  0
   -3.2440   22.8540  -31.9690 O   0  0  0  0  0  0  0  0  0  0  0  0
   -2.3020   21.4390  -29.9140 N   0  0  0  0  0  0  0  0  0  0  0  0
   -3.0180   21.7610  -28.6650 C   0  0  0  0  0  0  0  0  0  0  0  0
   -3.3030   23.2750  -28.5230 C   0  0  0  0  0  0  0  0  0  0  0  0
   -2.4940   24.0890  -29.3550 O   0  0  0  0  0  0  0  0  0  0  0  0
   -1.1670   23.6140  -29.3610 C   0  0  0  0  0  0  0  0  0  0  0  0
   -1.0880   22.2650  -30.0990 C   0  0  0  0  0  0  0  0  0  0  0  0
   -0.6006   21.7292  -32.0526 H   0  0  0  0  0  0  0  0  0  0  0  0
    0.1755   21.2613  -33.6035 H   0  0  0  0  0  0  0  0  0  0  0  0
   -1.2253   22.3857  -33.6035 H   0  0  0  0  0  0  0  0  0  0  0  0
   -0.4938   19.3730  -34.7434 H   0  0  0  0  0  0  0  0  0  0  0  0
   -1.9744   17.3869  -34.9601 H   0  0  0  0  0  0  0  0  0  0  0  0
   -5.9361   19.4992  -34.7160 H   0  0  0  0  0  0  0  0  0  0  0  0
   -7.2614   21.3958  -33.7962 H   0  0  0  0  0  0  0  0  0  0  0  0
   -6.6754   22.3346  -32.7050 H   0  0  0  0  0  0  0  0  0  0  0  0
   -7.5534   23.7992  -33.1880 H   0  0  0  0  0  0  0  0  0  0  0  0
   -4.9554   23.7644  -32.1360 H   0  0  0  0  0  0  0  0  0  0  0  0
   -5.9980   25.1915  -32.1120 H   0  0  0  0  0  0  0  0  0  0  0  0
   -5.0946   23.6172  -29.8513 H   0  0  0  0  0  0  0  0  0  0  0  0
   -6.2036   24.9899  -29.7869 H   0  0  0  0  0  0  0  0  0  0  0  0
   -6.7908   22.0356  -29.8566 H   0  0  0  0  0  0  0  0  0  0  0  0
   -7.7608   23.3349  -29.1410 H   0  0  0  0  0  0  0  0  0  0  0  0
   -8.5362   18.9077  -30.4926 H   0  0  0  0  0  0  0  0  0  0  0  0
   -7.2149   17.0048  -31.4104 H   0  0  0  0  0  0  0  0  0  0  0  0
   -4.6522   19.0463  -32.0001 H   0  0  0  0  0  0  0  0  0  0  0  0
   -3.9751   21.2189  -28.6565 H   0  0  0  0  0  0  0  0  0  0  0  0
   -2.3771   21.4597  -27.8234 H   0  0  0  0  0  0  0  0  0  0  0  0
   -4.3571   23.4553  -28.7804 H   0  0  0  0  0  0  0  0  0  0  0  0
   -3.0713   23.5489  -27.4832 H   0  0  0  0  0  0  0  0  0  0  0  0
   -0.5218   24.3450  -29.8702 H   0  0  0  0  0  0  0  0  0  0  0  0
   -0.8309   23.4752  -28.3228 H   0  0  0  0  0  0  0  0  0  0  0  0
   -0.9553   22.4593  -31.1735 H   0  0  0  0  0  0  0  0  0  0  0  0
   -0.2393   21.7060  -29.6780 H   0  0  0  0  0  0  0  0  0  0  0  0
  1  2  1  0
  2  3  2  0
  3  4  1  0
  4  5  2  0
  5  6  1  0
  6  7  1  0
  7  8  2  0
  7  9  1  0
  9 10  2  0
 10 11  1  0
 11 12  2  0
 12 13  1  0
 13 14  2  0
 13 15  2  0
 13 16  1  0
 16 17  1  0
 17 18  1  0
 18 19  1  0
 19 20  1  0
 12 21  1  0
 21 22  2  0
  5 23  1  0
 23 24  2  0
 24 25  1  0
 25 26  2  0
 25 27  2  0
 25 28  1  0
 28 29  1  0
 29 30  1  0
 30 31  1  0
 31 32  1  0
 32 33  1  0
 24  2  1  0
 33 28  1  0
 22  9  1  0
 20 16  1  0
  1 34  1  0
  1 35  1  0
  1 36  1  0
  3 37  1  0
  4 38  1  0
 10 39  1  0
 11 40  1  0
 17 41  1  0
 17 42  1  0
 18 43  1  0
 18 44  1  0
 19 45  1  0
 19 46  1  0
 20 47  1  0
 20 48  1  0
 21 49  1  0
 22 50  1  0
 23 51  1  0
 29 52  1  0
 29 53  1  0
 30 54  1  0
 30 55  1  0
 32 56  1  0
 32 57  1  0
 33 58  1  0
 33 59  1  0
M  CHG  1   6  -1
M  END
>  <UniqueID>  (24) 
24

>  <SMILES>  (24) 
Cc1ccc([N-]C(=O)c2ccc(S(=O)(=O)N3CCCC3)cc2)cc1S(=O)(=O)N1CCOCC1

>  <Energy>  (24) 
78.54072242092163

>  <Genealogy>  (24) 
Cc1ccc([N-]C(=O)c2ccc(S(=O)(=O)N3CCCC3)cc2)cc1S(=O)(=O)N1CCOCC1 (protonated)
Cc1ccc([N-]C(=O)c2ccc(S(=O)(=O)N3CCCC3)cc2)cc1S(=O)(=O)N1CCOCC1 (3D coordinates assigned)
Cc1ccc([N-]C(=O)c2ccc(S(=O)(=O)N3CCCC3)cc2)cc1S(=O)(=O)N1CCOCC1 (nonaromatic ring conformer: 78.54072242092163 kcal/mol)

>  <smiles>  (24) 
Cc1ccc(NC(=O)c2ccc(S(=O)(=O)N3CCCC3)cc2)cc1S(=O)(=O)N1CCOCC1

>  <score_type>  (24) 
oracle

>  <origin>  (24) 
adgpu

>  <m_score__min__energy>  (24) 
-13.1

>  <m_primary>  (24) 
energy

$$$$
24:0
     RDKit          3D

 62 65  0  0  0  0  0  0  0  0999 V2000
   -1.5870   16.2770  -33.6370 C   0  0  0  0  0  0  0  0  0  0  0  0
   -2.8910   17.0230  -33.6970 C   0  0  0  0  0  0  0  0  0  0  0  0
   -2.9120   18.4200  -33.5850 C   0  0  0  0  0  0  0  0  0  0  0  0
   -4.1170   19.1160  -33.6860 C   0  0  0  0  0  0  0  0  0  0  0  0
   -5.3150   18.4260  -33.9320 C   0  0  0  0  0  0  0  0  0  0  0  0
   -6.5560   19.1270  -34.0790 N   0  0  0  0  0  0  0  0  0  0  0  0
   -7.5600   19.6810  -32.7720 S   0  0  0  0  0  0  0  0  0  0  0  0
   -7.7360   18.5570  -31.7880 O   0  0  0  0  0  0  0  0  0  0  0  0
   -8.9140   20.0420  -33.3210 O   0  0  0  0  0  0  0  0  0  0  0  0
   -6.8830   21.1000  -31.9450 C   0  0  0  0  0  0  0  0  0  0  0  0
   -5.5240   21.3890  -32.1270 C   0  0  0  0  0  0  0  0  0  0  0  0
   -4.9190   22.4720  -31.4710 C   0  0  0  0  0  0  0  0  0  0  0  0
   -3.5480   22.7340  -31.6190 O   0  0  0  0  0  0  0  0  0  0  0  0
   -2.5310   21.7680  -31.6110 C   0  0  0  0  0  0  0  0  0  0  0  0
   -2.2750   20.9610  -30.4860 C   0  0  0  0  0  0  0  0  0  0  0  0
   -1.2540   20.0050  -30.5210 C   0  0  0  0  0  0  0  0  0  0  0  0
   -0.4710   19.8590  -31.6700 C   0  0  0  0  0  0  0  0  0  0  0  0
    0.5790   18.8710  -31.7100 C   0  0  0  0  0  0  0  0  0  0  0  0
    1.4220   18.0780  -31.7410 N   0  0  0  0  0  0  0  0  0  0  0  0
   -0.6990   20.6880  -32.7780 C   0  0  0  0  0  0  0  0  0  0  0  0
   -1.7210   21.6410  -32.7430 C   0  0  0  0  0  0  0  0  0  0  0  0
   -5.7050   23.3250  -30.6800 C   0  0  0  0  0  0  0  0  0  0  0  0
   -4.9640   24.7110  -29.8770 S   0  0  0  0  0  0  0  0  0  0  0  0
   -6.0190   25.7450  -29.5960 O   0  0  0  0  0  0  0  0  0  0  0  0
   -3.9100   25.2780  -30.7870 O   0  0  0  0  0  0  0  0  0  0  0  0
   -4.2390   24.2190  -28.3780 N   0  0  0  0  0  0  0  0  0  0  0  0
   -2.9840   23.5500  -28.2140 C   0  0  0  0  0  0  0  0  0  0  0  0
   -2.9850   22.3510  -27.4950 C   0  0  0  0  0  0  0  0  0  0  0  0
   -1.7930   21.6340  -27.3060 C   0  0  0  0  0  0  0  0  0  0  0  0
   -0.5910   22.1160  -27.8320 C   0  0  0  0  0  0  0  0  0  0  0  0
   -0.5700   23.3230  -28.5260 C   0  0  0  0  0  0  0  0  0  0  0  0
   -1.7540   24.0570  -28.7100 C   0  0  0  0  0  0  0  0  0  0  0  0
   -1.6900   25.2860  -29.3530 O   0  0  0  0  0  0  0  0  0  0  0  0
   -7.0650   23.0450  -30.4920 C   0  0  0  0  0  0  0  0  0  0  0  0
   -7.6660   21.9350  -31.1100 C   0  0  0  0  0  0  0  0  0  0  0  0
   -9.1100   21.6290  -30.8090 C   0  0  0  0  0  0  0  0  0  0  0  0
   -5.3060   17.0210  -34.0230 C   0  0  0  0  0  0  0  0  0  0  0  0
   -6.5850   16.2710  -34.2710 C   0  0  0  0  0  0  0  0  0  0  0  0
   -4.0910   16.3280  -33.9220 C   0  0  0  0  0  0  0  0  0  0  0  0
   -1.3049   16.1156  -32.5861 H   0  0  0  0  0  0  0  0  0  0  0  0
   -1.6970   15.3052  -34.1405 H   0  0  0  0  0  0  0  0  0  0  0  0
   -0.8050   16.8644  -34.1405 H   0  0  0  0  0  0  0  0  0  0  0  0
   -1.9744   18.9700  -33.4167 H   0  0  0  0  0  0  0  0  0  0  0  0
   -4.1286   20.2101  -33.5724 H   0  0  0  0  0  0  0  0  0  0  0  0
   -4.9213   20.7564  -32.7953 H   0  0  0  0  0  0  0  0  0  0  0  0
   -2.8803   21.0827  -29.5756 H   0  0  0  0  0  0  0  0  0  0  0  0
   -1.0672   19.3679  -29.6440 H   0  0  0  0  0  0  0  0  0  0  0  0
   -0.0723   20.5881  -33.6765 H   0  0  0  0  0  0  0  0  0  0  0  0
   -1.8888   22.2949  -33.6115 H   0  0  0  0  0  0  0  0  0  0  0  0
   -3.9261   21.9669  -27.0746 H   0  0  0  0  0  0  0  0  0  0  0  0
   -1.8049   20.6896  -26.7420 H   0  0  0  0  0  0  0  0  0  0  0  0
    0.3378   21.5421  -27.6978 H   0  0  0  0  0  0  0  0  0  0  0  0
    0.3785   23.7039  -28.9324 H   0  0  0  0  0  0  0  0  0  0  0  0
   -2.4810   25.6730  -29.8490 H   0  0  0  0  0  0  0  0  0  0  0  0
   -7.6707   23.7032  -29.8518 H   0  0  0  0  0  0  0  0  0  0  0  0
   -9.2587   21.5975  -29.7196 H   0  0  0  0  0  0  0  0  0  0  0  0
   -9.7490   22.4117  -31.2438 H   0  0  0  0  0  0  0  0  0  0  0  0
   -9.3766   20.6544  -31.2438 H   0  0  0  0  0  0  0  0  0  0  0  0
   -7.0445   16.0015  -33.3086 H   0  0  0  0  0  0  0  0  0  0  0  0
   -7.2775   16.9061  -34.8429 H   0  0  0  0  0  0  0  0  0  0  0  0
   -6.3689   15.3566  -34.8429 H   0  0  0  0  0  0  0  0  0  0  0  0
   -4.0775   15.2324  -34.0197 H   0  0  0  0  0  0  0  0  0  0  0  0
  1  2  1  0
  2  3  2  0
  3  4  1  0
  4  5  2  0
  5  6  1  0
  6  7  1  0
  7  8  2  0
  7  9  2  0
  7 10  1  0
 10 11  2  0
 11 12  1  0
 12 13  1  0
 13 14  1  0
 14 15  2  0
 15 16  1  0
 16 17  2  0
 17 18  1  0
 18 19  3  0
 17 20  1  0
 20 21  2  0
 12 22  2  0
 22 23  1  0
 23 24  2  0
 23 25  2  0
 23 26  1  0
 26 27  1  0
 27 28  2  0
 28 29  1  0
 29 30  2  0
 30 31  1  0
 31 32  2  0
 32 33  1  0
 22 34  1  0
 34 35  2  0
 35 36  1  0
  5 37  1  0
 37 38  1  0
 37 39  2  0
 39  2  1  0
 35 10  1  0
 21 14  1  0
 32 27  1  0
  1 40  1  0
  1 41  1  0
  1 42  1  0
  3 43  1  0
  4 44  1  0
 11 45  1  0
 15 46  1  0
 16 47  1  0
 20 48  1  0
 21 49  1  0
 28 50  1  0
 29 51  1  0
 30 52  1  0
 31 53  1  0
 33 54  1  0
 34 55  1  0
 36 56  1  0
 36 57  1  0
 36 58  1  0
 38 59  1  0
 38 60  1  0
 38 61  1  0
 39 62  1  0
M  CHG  2   6  -1  26  -1
M  END
>  <UniqueID>  (25) 
25

>  <SMILES>  (25) 
Cc1ccc([N-]S(=O)(=O)c2cc(Oc3ccc(C#N)cc3)c(S(=O)(=O)[N-]c3ccccc3O)cc2C)c(C)c1

>  <Energy>  (25) 
87.21490407721464

>  <Genealogy>  (25) 
Cc1ccc([N-]S(=O)(=O)c2cc(Oc3ccc(C#N)cc3)c(S(=O)(=O)[N-]c3ccccc3O)cc2C)c(C)c1 (protonated)
Cc1ccc([N-]S(=O)(=O)c2cc(Oc3ccc(C#N)cc3)c(S(=O)(=O)[N-]c3ccccc3O)cc2C)c(C)c1 (3D coordinates assigned)
Cc1ccc([N-]S(=O)(=O)c2cc(Oc3ccc(C#N)cc3)c(S(=O)(=O)[N-]c3ccccc3O)cc2C)c(C)c1 (optimized conformer: 87.21490407721464 kcal/mol)

>  <smiles>  (25) 
Cc1ccc(NS(=O)(=O)c2cc(Oc3ccc(C#N)cc3)c(S(=O)(=O)Nc3ccccc3O)cc2C)c(C)c1

>  <score_type>  (25) 
oracle

>  <origin>  (25) 
adgpu

>  <m_score__min__energy>  (25) 
-13.93

>  <m_primary>  (25) 
energy

$$$$
25:0
     RDKit          3D

 67 71  0  0  1  0  0  0  0  0999 V2000
   -2.8090   19.7050  -32.6460 C   0  0  0  0  0  0  0  0  0  0  0  0
   -4.0550   19.8980  -32.0840 O   0  0  0  0  0  0  0  0  0  0  0  0
   -4.6210   21.0750  -31.7420 C   0  0  0  0  0  0  0  0  0  0  0  0
   -4.2560   21.8530  -30.6350 C   0  0  0  0  0  0  0  0  0  0  0  0
   -4.9040   23.0300  -30.3940 C   0  0  0  0  0  0  0  0  0  0  0  0
   -4.5550   23.7950  -29.3170 C   0  0  0  0  0  0  0  0  0  0  0  0
   -3.5990   23.5200  -28.6010 N   0  0  0  0  0  0  0  0  0  0  0  0
   -2.6540   22.5310  -28.5830 C   0  0  0  0  0  0  0  0  0  0  0  0
   -1.5730   22.5760  -29.5000 C   0  0  0  0  0  0  0  0  0  0  0  0
   -0.6780   21.5270  -29.5590 C   0  0  0  0  0  0  0  0  0  0  0  0
   -0.7930   20.4050  -28.7390 C   0  0  0  0  0  0  0  0  0  0  0  0
    0.2000   19.3680  -28.9170 C   0  0  0  0  0  0  0  0  0  0  0  0
   -0.0940   18.1860  -29.6130 C   0  0  0  0  0  0  0  0  0  0  0  0
    1.0330   17.3950  -29.6530 C   0  0  0  0  0  0  0  0  0  0  0  0
    2.0010   18.0960  -28.9860 C   0  0  0  0  0  0  0  0  0  0  0  0
    1.4740   19.2670  -28.5600 N   0  0  0  0  0  0  0  0  0  0  0  0
    2.2620   20.2430  -27.8410 C   0  0  0  0  0  0  0  0  0  0  0  0
   -1.8390   20.3630  -27.8540 C   0  0  0  0  0  0  0  0  0  0  0  0
   -2.1040   18.8560  -26.7230 Br  0  0  0  0  0  0  0  0  0  0  0  0
   -2.7760   21.3910  -27.7470 C   0  0  0  0  0  0  0  0  0  0  0  0
   -5.2240   24.9660  -29.0840 N   0  0  0  0  0  0  0  0  0  0  0  0
   -6.2130   25.3970  -29.8800 C   0  0  0  0  0  0  0  0  0  0  0  0
   -6.5640   24.6590  -30.9440 N   0  0  0  0  0  0  0  0  0  0  0  0
   -5.9080   23.4900  -31.1890 C   0  0  0  0  0  0  0  0  0  0  0  0
   -6.2910   22.7650  -32.2720 C   0  0  0  0  0  0  0  0  0  0  0  0
   -5.6440   21.5800  -32.5250 C   0  0  0  0  0  0  0  0  0  0  0  0
   -5.9840   20.7940  -33.6020 O   0  0  0  0  0  0  0  0  0  0  0  0
   -6.3860   19.4800  -33.4720 C   0  0  0  0  0  0  0  0  0  0  0  0
   -6.0970   18.6150  -34.6410 C   0  0  0  0  0  0  0  0  0  0  0  0
   -5.8280   17.2390  -34.3020 N   0  0  0  0  0  0  0  0  0  0  0  0
   -4.4780   16.8690  -34.5140 C   0  0  0  0  0  0  0  0  0  0  0  0
   -3.6940   16.4840  -33.3090 C   0  0  0  0  0  0  0  0  0  0  0  0
   -4.4840   15.7290  -32.3420 N   0  0  0  0  0  0  0  0  0  0  0  0
   -4.9640   14.4910  -32.8940 C   0  0  0  0  0  0  0  0  0  0  0  0
   -5.5590   16.6190  -31.9420 C   0  0  0  0  0  0  0  0  0  0  0  0
   -6.4630   16.8160  -33.1100 C   0  0  0  0  0  0  0  0  0  0  0  0
   -2.0608   19.5891  -31.8480 H   0  0  0  0  0  0  0  0  0  0  0  0
   -2.8241   18.7985  -33.2689 H   0  0  0  0  0  0  0  0  0  0  0  0
   -2.5492   20.5736  -33.2689 H   0  0  0  0  0  0  0  0  0  0  0  0
   -3.4517   21.5170  -29.9640 H   0  0  0  0  0  0  0  0  0  0  0  0
   -1.4482   23.4450  -30.1627 H   0  0  0  0  0  0  0  0  0  0  0  0
    0.1539   21.5777  -30.2769 H   0  0  0  0  0  0  0  0  0  0  0  0
   -1.0683   17.9316  -30.0558 H   0  0  0  0  0  0  0  0  0  0  0  0
    1.1340   16.4057  -30.1232 H   0  0  0  0  0  0  0  0  0  0  0  0
    3.0365   17.7624  -28.8232 H   0  0  0  0  0  0  0  0  0  0  0  0
    2.1379   20.0892  -26.7589 H   0  0  0  0  0  0  0  0  0  0  0  0
    3.3226   20.1269  -28.1085 H   0  0  0  0  0  0  0  0  0  0  0  0
    1.9250   21.2554  -28.1085 H   0  0  0  0  0  0  0  0  0  0  0  0
   -3.6004   21.3186  -27.0224 H   0  0  0  0  0  0  0  0  0  0  0  0
   -4.9870   25.5750  -28.2690 H   0  0  0  0  0  0  0  0  0  0  0  0
   -6.7300   26.3435  -29.6635 H   0  0  0  0  0  0  0  0  0  0  0  0
   -7.0989   23.1180  -32.9298 H   0  0  0  0  0  0  0  0  0  0  0  0
   -5.8747   19.0523  -32.5970 H   0  0  0  0  0  0  0  0  0  0  0  0
   -7.4812   19.5033  -33.3716 H   0  0  0  0  0  0  0  0  0  0  0  0
   -6.9667   18.6415  -35.3140 H   0  0  0  0  0  0  0  0  0  0  0  0
   -5.1845   19.0106  -35.1110 H   0  0  0  0  0  0  0  0  0  0  0  0
   -4.4715   16.0122  -35.2038 H   0  0  0  0  0  0  0  0  0  0  0  0
   -3.9873   17.7741  -34.9015 H   0  0  0  0  0  0  0  0  0  0  0  0
   -2.8413   15.8658  -33.6264 H   0  0  0  0  0  0  0  0  0  0  0  0
   -3.3631   17.4107  -32.8173 H   0  0  0  0  0  0  0  0  0  0  0  0
   -5.2303   13.8041  -32.0771 H   0  0  0  0  0  0  0  0  0  0  0  0
   -5.8518   14.6856  -33.5136 H   0  0  0  0  0  0  0  0  0  0  0  0
   -4.1770   14.0362  -33.5136 H   0  0  0  0  0  0  0  0  0  0  0  0
   -6.1206   16.1725  -31.1082 H   0  0  0  0  0  0  0  0  0  0  0  0
   -5.1484   17.5852  -31.6136 H   0  0  0  0  0  0  0  0  0  0  0  0
   -6.9672   15.8600  -33.3144 H   0  0  0  0  0  0  0  0  0  0  0  0
   -7.1516   17.6262  -32.8283 H   0  0  0  0  0  0  0  0  0  0  0  0
  1  2  1  0
  2  3  1  0
  3  4  2  0
  4  5  1  0
  5  6  1  0
  6  7  2  0
  7  8  1  0
  8  9  2  0
  9 10  1  0
 10 11  2  0
 11 12  1  0
 12 13  2  0
 13 14  1  0
 14 15  2  0
 15 16  1  0
 16 17  1  0
 11 18  1  0
 18 19  1  0
 18 20  2  0
  6 21  1  0
 21 22  1  0
 22 23  2  0
 23 24  1  0
 24 25  1  0
 25 26  2  0
 26 27  1  0
 27 28  1  0
 28 29  1  0
 29 30  1  0
 30 31  1  0
 31 32  1  0
 32 33  1  0
 33 34  1  0
 33 35  1  0
 35 36  1  0
 26  3  1  0
 36 30  1  0
 24  5  2  0
 20  8  1  0
 16 12  1  0
  1 37  1  0
  1 38  1  0
  1 39  1  0
  4 40  1  0
  9 41  1  0
 10 42  1  0
 13 43  1  0
 14 44  1  0
 15 45  1  0
 17 46  1  0
 17 47  1  0
 17 48  1  0
 20 49  1  0
 21 50  1  0
 22 51  1  0
 25 52  1  0
 28 53  1  0
 28 54  1  0
 29 55  1  0
 29 56  1  0
 31 57  1  0
 31 58  1  0
 32 59  1  0
 32 60  1  0
 34 61  1  0
 34 62  1  0
 34 63  1  0
 35 64  1  0
 35 65  1  0
 36 66  1  0
 36 67  1  0
M  END
>  <smiles>  (26) 
COc1cc2c(=Nc3ccc(-c4cccn4C)c(Br)c3)[nH]cnc2cc1OCCN1CCN(C)CC1

>  <score_type>  (26) 
oracle

>  <origin>  (26) 
adgpu

>  <m_score__min__energy>  (26) 
-9.6699999999999999

>  <m_primary>  (26) 
energy

$$$$
26:0
     RDKit          3D

 50 53  0  0  0  0  0  0  0  0999 V2000
   -7.3450   23.4750  -32.3450 C   0  0  0  0  0  0  0  0  0  0  0  0
   -6.5240   24.5460  -31.8980 O   0  0  0  0  0  0  0  0  0  0  0  0
   -5.5530   24.3770  -30.9100 C   0  0  0  0  0  0  0  0  0  0  0  0
   -5.8040   24.4530  -29.5430 C   0  0  0  0  0  0  0  0  0  0  0  0
   -4.5610   24.2240  -29.0040 C   0  0  0  0  0  0  0  0  0  0  0  0
   -4.2110   24.1910  -27.6960 N   0  0  0  0  0  0  0  0  0  0  0  0
   -2.9040   23.9630  -27.3730 C   0  0  0  0  0  0  0  0  0  0  0  0
   -1.9340   23.7820  -28.3860 C   0  0  0  0  0  0  0  0  0  0  0  0
   -0.5150   23.6100  -28.0300 C   0  0  0  0  0  0  0  0  0  0  0  0
    0.3170   24.4750  -28.4080 O   0  0  0  0  0  0  0  0  0  0  0  0
   -0.0420   22.4560  -27.3190 N   0  0  0  0  0  0  0  0  0  0  0  0
   -0.1450   21.0670  -27.7660 C   0  0  0  0  0  0  0  0  0  0  0  0
   -0.9900   20.9560  -29.0100 C   0  0  0  0  0  0  0  0  0  0  0  0
   -0.4170   21.1550  -30.2760 C   0  0  0  0  0  0  0  0  0  0  0  0
   -1.2130   21.1160  -31.4240 C   0  0  0  0  0  0  0  0  0  0  0  0
   -2.5890   20.8680  -31.3220 C   0  0  0  0  0  0  0  0  0  0  0  0
   -3.6030   20.8610  -32.7590 S   0  0  0  0  0  0  0  0  0  0  0  0
   -2.8540   20.2710  -33.9210 O   0  0  0  0  0  0  0  0  0  0  0  0
   -3.9860   22.2740  -33.0990 O   0  0  0  0  0  0  0  0  0  0  0  0
   -5.0420   19.8880  -32.4700 C   0  0  0  0  0  0  0  0  0  0  0  0
   -4.9400   18.4910  -32.4300 C   0  0  0  0  0  0  0  0  0  0  0  0
   -6.0690   17.7120  -32.1630 C   0  0  0  0  0  0  0  0  0  0  0  0
   -7.3050   18.3220  -31.9350 C   0  0  0  0  0  0  0  0  0  0  0  0
   -7.4210   19.7190  -31.9840 C   0  0  0  0  0  0  0  0  0  0  0  0
   -8.7350   20.3790  -31.6930 C   0  0  0  0  0  0  0  0  0  0  0  0
   -6.2820   20.5000  -32.2360 C   0  0  0  0  0  0  0  0  0  0  0  0
   -3.1600   20.6520  -30.0610 C   0  0  0  0  0  0  0  0  0  0  0  0
   -2.3650   20.6840  -28.9130 C   0  0  0  0  0  0  0  0  0  0  0  0
   -2.3540   23.8020  -29.7280 C   0  0  0  0  0  0  0  0  0  0  0  0
   -3.6640   24.0320  -29.9770 N   0  0  0  0  0  0  0  0  0  0  0  0
   -4.2460   24.1210  -31.1600 N   0  0  0  0  0  0  0  0  0  0  0  0
   -7.7552   22.9400  -31.4758 H   0  0  0  0  0  0  0  0  0  0  0  0
   -8.1704   23.8746  -32.9525 H   0  0  0  0  0  0  0  0  0  0  0  0
   -6.7448   22.7817  -32.9525 H   0  0  0  0  0  0  0  0  0  0  0  0
   -6.7553   24.6470  -29.0259 H   0  0  0  0  0  0  0  0  0  0  0  0
   -2.6031   23.9198  -26.3158 H   0  0  0  0  0  0  0  0  0  0  0  0
    0.8633   20.6837  -27.9817 H   0  0  0  0  0  0  0  0  0  0  0  0
   -0.6210   20.4785  -26.9678 H   0  0  0  0  0  0  0  0  0  0  0  0
    0.6633   21.3425  -30.3648 H   0  0  0  0  0  0  0  0  0  0  0  0
   -0.7579   21.2806  -32.4118 H   0  0  0  0  0  0  0  0  0  0  0  0
   -3.9689   18.0064  -32.6092 H   0  0  0  0  0  0  0  0  0  0  0  0
   -5.9843   16.6157  -32.1323 H   0  0  0  0  0  0  0  0  0  0  0  0
   -8.1893   17.7053  -31.7165 H   0  0  0  0  0  0  0  0  0  0  0  0
   -8.8765   20.4501  -30.6045 H   0  0  0  0  0  0  0  0  0  0  0  0
   -8.7433   21.3882  -32.1305 H   0  0  0  0  0  0  0  0  0  0  0  0
   -9.5495   19.7830  -32.1305 H   0  0  0  0  0  0  0  0  0  0  0  0
   -6.3625   21.5970  -32.2500 H   0  0  0  0  0  0  0  0  0  0  0  0
   -4.2390   20.4564  -29.9746 H   0  0  0  0  0  0  0  0  0  0  0  0
   -2.8176   20.4954  -27.9283 H   0  0  0  0  0  0  0  0  0  0  0  0
   -1.6407   23.6360  -30.5487 H   0  0  0  0  0  0  0  0  0  0  0  0
  1  2  1  0
  2  3  1  0
  3  4  1  0
  4  5  2  0
  5  6  1  0
  6  7  2  0
  7  8  1  0
  8  9  1  0
  9 10  2  0
  9 11  1  0
 11 12  1  0
 12 13  1  0
 13 14  2  0
 14 15  1  0
 15 16  2  0
 16 17  1  0
 17 18  2  0
 17 19  2  0
 17 20  1  0
 20 21  2  0
 21 22  1  0
 22 23  2  0
 23 24  1  0
 24 25  1  0
 24 26  2  0
 16 27  1  0
 27 28  2  0
  8 29  2  0
 29 30  1  0
 30 31  1  0
 31  3  2  0
 30  5  1  0
 28 13  1  0
 26 20  1  0
  1 32  1  0
  1 33  1  0
  1 34  1  0
  4 35  1  0
  7 36  1  0
 12 37  1  0
 12 38  1  0
 14 39  1  0
 15 40  1  0
 21 41  1  0
 22 42  1  0
 23 43  1  0
 25 44  1  0
 25 45  1  0
 25 46  1  0
 26 47  1  0
 27 48  1  0
 28 49  1  0
 29 50  1  0
M  CHG  1  11  -1
M  END
>  <UniqueID>  (27) 
26

>  <SMILES>  (27) 
COc1cc2ncc(C(=O)[N-]Cc3ccc(S(=O)(=O)c4cccc(C)c4)cc3)cn2n1

>  <Energy>  (27) 
92.14723930397095

>  <Genealogy>  (27) 
COc1cc2ncc(C(=O)[N-]Cc3ccc(S(=O)(=O)c4cccc(C)c4)cc3)cn2n1 (protonated)
COc1cc2ncc(C(=O)[N-]Cc3ccc(S(=O)(=O)c4cccc(C)c4)cc3)cn2n1 (3D coordinates assigned)
COc1cc2ncc(C(=O)[N-]Cc3ccc(S(=O)(=O)c4cccc(C)c4)cc3)cn2n1 (optimized conformer: 92.14723930397095 kcal/mol)

>  <smiles>  (27) 
COc1cc2ncc(C(=O)NCc3ccc(S(=O)(=O)c4cccc(C)c4)cc3)cn2n1

>  <score_type>  (27) 
oracle

>  <origin>  (27) 
adgpu

>  <m_score__min__energy>  (27) 
-11.82

>  <m_primary>  (27) 
energy

$$$$
27:0
     RDKit          3D

 45 47  0  0  0  0  0  0  0  0999 V2000
   -3.5280   18.9190  -26.3390 C   0  0  0  0  0  0  0  0  0  0  0  0
   -2.3220   19.3310  -27.1310 C   0  0  0  0  0  0  0  0  0  0  0  0
   -1.1630   18.5420  -27.1070 C   0  0  0  0  0  0  0  0  0  0  0  0
   -0.0590   18.8890  -27.8890 C   0  0  0  0  0  0  0  0  0  0  0  0
   -0.1160   20.0070  -28.7240 C   0  0  0  0  0  0  0  0  0  0  0  0
   -1.2730   20.8010  -28.7700 C   0  0  0  0  0  0  0  0  0  0  0  0
   -1.3710   21.9520  -29.7370 C   0  0  0  0  0  0  0  0  0  0  0  0
   -1.6610   23.5430  -28.8860 S   0  0  0  0  0  0  0  0  0  0  0  0
   -3.2410   23.8530  -29.6670 C   0  0  0  0  0  0  0  0  0  0  0  0
   -3.4850   24.9120  -30.4680 N   0  0  0  0  0  0  0  0  0  0  0  0
   -4.7500   24.9780  -30.8770 N   0  0  0  0  0  0  0  0  0  0  0  0
   -5.5140   23.9720  -30.3990 C   0  0  0  0  0  0  0  0  0  0  0  0
   -7.2750   23.8430  -30.6890 S   0  0  0  0  0  0  0  0  0  0  0  0
   -7.1250   23.2430  -32.4080 C   0  0  0  0  0  0  0  0  0  0  0  0
   -6.5790   21.8420  -32.4620 C   0  0  0  0  0  0  0  0  0  0  0  0
   -5.3260   21.6950  -32.4200 O   0  0  0  0  0  0  0  0  0  0  0  0
   -7.4330   20.6770  -32.5330 N   0  0  0  0  0  0  0  0  0  0  0  0
   -8.7890   20.6760  -31.9730 C   0  0  0  0  0  0  0  0  0  0  0  0
   -6.8970   19.4370  -33.0190 C   0  0  0  0  0  0  0  0  0  0  0  0
   -6.1350   19.4090  -34.1980 C   0  0  0  0  0  0  0  0  0  0  0  0
   -5.5960   18.2040  -34.6590 C   0  0  0  0  0  0  0  0  0  0  0  0
   -5.8060   17.0240  -33.9400 C   0  0  0  0  0  0  0  0  0  0  0  0
   -6.5620   17.0450  -32.7650 C   0  0  0  0  0  0  0  0  0  0  0  0
   -7.1110   18.2460  -32.3070 C   0  0  0  0  0  0  0  0  0  0  0  0
   -4.6270   22.9330  -29.4130 S   0  0  0  0  0  0  0  0  0  0  0  0
   -2.3760   20.4530  -27.9700 C   0  0  0  0  0  0  0  0  0  0  0  0
   -3.3047   18.9953  -25.2646 H   0  0  0  0  0  0  0  0  0  0  0  0
   -4.3721   19.5798  -26.5859 H   0  0  0  0  0  0  0  0  0  0  0  0
   -3.7914   17.8799  -26.5859 H   0  0  0  0  0  0  0  0  0  0  0  0
   -1.1232   17.6463  -26.4698 H   0  0  0  0  0  0  0  0  0  0  0  0
    0.8566   18.2809  -27.8471 H   0  0  0  0  0  0  0  0  0  0  0  0
    0.7508   20.2671  -29.3494 H   0  0  0  0  0  0  0  0  0  0  0  0
   -0.4310   22.0195  -30.3043 H   0  0  0  0  0  0  0  0  0  0  0  0
   -2.2264   21.7632  -30.4023 H   0  0  0  0  0  0  0  0  0  0  0  0
   -8.1192   23.2567  -32.8785 H   0  0  0  0  0  0  0  0  0  0  0  0
   -6.4271   23.9042  -32.9426 H   0  0  0  0  0  0  0  0  0  0  0  0
   -8.7320   20.6760  -30.8745 H   0  0  0  0  0  0  0  0  0  0  0  0
   -9.3265   21.5737  -32.3123 H   0  0  0  0  0  0  0  0  0  0  0  0
   -9.3252   19.7775  -32.3123 H   0  0  0  0  0  0  0  0  0  0  0  0
   -5.9615   20.3381  -34.7608 H   0  0  0  0  0  0  0  0  0  0  0  0
   -5.0067   18.1847  -35.5876 H   0  0  0  0  0  0  0  0  0  0  0  0
   -5.3756   16.0777  -34.2995 H   0  0  0  0  0  0  0  0  0  0  0  0
   -6.7252   16.1154  -32.1999 H   0  0  0  0  0  0  0  0  0  0  0  0
   -7.7125   18.2581  -31.3861 H   0  0  0  0  0  0  0  0  0  0  0  0
   -3.2887   21.0662  -28.0028 H   0  0  0  0  0  0  0  0  0  0  0  0
  1  2  1  0
  2  3  2  0
  3  4  1  0
  4  5  2  0
  5  6  1  0
  6  7  1  0
  7  8  1  0
  8  9  1  0
  9 10  2  0
 10 11  1  0
 11 12  2  0
 12 13  1  0
 13 14  1  0
 14 15  1  0
 15 16  2  0
 15 17  1  0
 17 18  1  0
 17 19  1  0
 19 20  2  0
 20 21  1  0
 21 22  2  0
 22 23  1  0
 23 24  2  0
 12 25  1  0
  6 26  2  0
 26  2  1  0
 25  9  1  0
 24 19  1  0
  1 27  1  0
  1 28  1  0
  1 29  1  0
  3 30  1  0
  4 31  1  0
  5 32  1  0
  7 33  1  0
  7 34  1  0
 14 35  1  0
 14 36  1  0
 18 37  1  0
 18 38  1  0
 18 39  1  0
 20 40  1  0
 21 41  1  0
 22 42  1  0
 23 43  1  0
 24 44  1  0
 26 45  1  0
M  END
>  <UniqueID>  (28) 
27

>  <SMILES>  (28) 
Cc1cccc(CSc2nnc(SCC(=O)N(C)c3ccccc3)s2)c1

>  <Energy>  (28) 
73.49025280817244

>  <Genealogy>  (28) 
Cc1cccc(CSc2nnc(SCC(=O)N(C)c3ccccc3)s2)c1 (3D coordinates assigned)
Cc1cccc(CSc2nnc(SCC(=O)N(C)c3ccccc3)s2)c1 (optimized conformer: 73.49025280817244 kcal/mol)

>  <smiles>  (28) 
Cc1cccc(CSc2nnc(SCC(=O)N(C)c3ccccc3)s2)c1

>  <score_type>  (28) 
oracle

>  <origin>  (28) 
adgpu

>  <m_score__min__energy>  (28) 
-9.7400000000000002

>  <m_primary>  (28) 
energy

$$$$
28:0
     RDKit          3D

 74 78  0  0  0  0  0  0  0  0999 V2000
   -6.8940   24.4730  -30.6000 C   0  0  0  0  0  0  0  0  0  0  0  0
   -7.1360   23.1250  -31.2100 C   0  0  0  0  0  0  0  0  0  0  0  0
   -8.4460   22.6640  -31.4130 C   0  0  0  0  0  0  0  0  0  0  0  0
   -8.6720   21.4220  -32.0150 C   0  0  0  0  0  0  0  0  0  0  0  0
   -7.5900   20.6210  -32.4180 C   0  0  0  0  0  0  0  0  0  0  0  0
   -7.7970   19.3510  -33.0610 N   0  0  0  0  0  0  0  0  0  0  0  0
   -6.7930   18.3290  -33.2000 C   0  0  0  0  0  0  0  0  0  0  0  0
   -6.4620   17.4770  -32.1370 C   0  0  0  0  0  0  0  0  0  0  0  0
   -5.4560   16.5210  -32.2850 C   0  0  0  0  0  0  0  0  0  0  0  0
   -4.7400   16.4050  -33.4890 C   0  0  0  0  0  0  0  0  0  0  0  0
   -3.7130   15.3420  -33.6040 C   0  0  0  0  0  0  0  0  0  0  0  0
   -3.9870   14.1540  -33.2800 O   0  0  0  0  0  0  0  0  0  0  0  0
   -2.3790   15.6830  -34.0020 N   0  0  0  0  0  0  0  0  0  0  0  0
   -1.8510   17.0110  -34.1240 C   0  0  0  0  0  0  0  0  0  0  0  0
   -2.1640   18.0200  -33.1990 C   0  0  0  0  0  0  0  0  0  0  0  0
   -1.5770   19.2840  -33.3070 C   0  0  0  0  0  0  0  0  0  0  0  0
   -0.6660   19.5660  -34.3430 C   0  0  0  0  0  0  0  0  0  0  0  0
    0.0060   20.8860  -34.4480 C   0  0  0  0  0  0  0  0  0  0  0  0
   -0.4720   21.8640  -33.8070 O   0  0  0  0  0  0  0  0  0  0  0  0
    1.1630   21.0740  -35.2830 N   0  0  0  0  0  0  0  0  0  0  0  0
    1.7080   22.3670  -35.5920 C   0  0  0  0  0  0  0  0  0  0  0  0
    3.0590   22.6680  -35.3470 C   0  0  0  0  0  0  0  0  0  0  0  0
    3.5630   23.9370  -35.6490 C   0  0  0  0  0  0  0  0  0  0  0  0
    2.7260   24.9110  -36.2000 C   0  0  0  0  0  0  0  0  0  0  0  0
    1.3850   24.6140  -36.4730 C   0  0  0  0  0  0  0  0  0  0  0  0
    0.3190   25.8640  -37.1110 S   0  0  0  0  0  0  0  0  0  0  0  0
   -1.0940   25.6080  -36.6620 O   0  0  0  0  0  0  0  0  0  0  0  0
    0.3610   25.8150  -38.6130 O   0  0  0  0  0  0  0  0  0  0  0  0
    0.8470   27.4360  -36.5580 N   0  0  0  0  0  0  0  0  0  0  0  0
   -0.0280   27.9040  -35.4600 C   0  0  0  0  0  0  0  0  0  0  0  0
    0.0850   29.4180  -35.2570 C   0  0  0  0  0  0  0  0  0  0  0  0
   -0.3760   30.1780  -36.5110 C   0  0  0  0  0  0  0  0  0  0  0  0
   -0.2130   29.3540  -37.8000 C   0  0  0  0  0  0  0  0  0  0  0  0
    0.9740   28.3850  -37.6930 C   0  0  0  0  0  0  0  0  0  0  0  0
    0.8820   23.3390  -36.1750 C   0  0  0  0  0  0  0  0  0  0  0  0
   -0.3460   18.5440  -35.2550 C   0  0  0  0  0  0  0  0  0  0  0  0
   -0.9270   17.2790  -35.1400 C   0  0  0  0  0  0  0  0  0  0  0  0
   -5.0330   17.3050  -34.5480 C   0  0  0  0  0  0  0  0  0  0  0  0
   -4.2600   17.3330  -35.7570 N   0  0  0  0  0  0  0  0  0  0  0  0
   -6.0660   18.2420  -34.3940 C   0  0  0  0  0  0  0  0  0  0  0  0
   -6.2830   21.1040  -32.2530 C   0  0  0  0  0  0  0  0  0  0  0  0
   -6.0570   22.3450  -31.6530 C   0  0  0  0  0  0  0  0  0  0  0  0
   -6.9094   24.3874  -29.5034 H   0  0  0  0  0  0  0  0  0  0  0  0
   -5.9135   24.8516  -30.9245 H   0  0  0  0  0  0  0  0  0  0  0  0
   -7.6815   25.1690  -30.9245 H   0  0  0  0  0  0  0  0  0  0  0  0
   -9.2990   23.2825  -31.0971 H   0  0  0  0  0  0  0  0  0  0  0  0
   -9.7021   21.0703  -32.1738 H   0  0  0  0  0  0  0  0  0  0  0  0
   -8.7350   19.1720  -33.4880 H   0  0  0  0  0  0  0  0  0  0  0  0
   -6.9984   17.5625  -31.1805 H   0  0  0  0  0  0  0  0  0  0  0  0
   -5.2200   15.8485  -31.4472 H   0  0  0  0  0  0  0  0  0  0  0  0
   -2.8749   17.8147  -32.3851 H   0  0  0  0  0  0  0  0  0  0  0  0
   -1.8292   20.0660  -32.5756 H   0  0  0  0  0  0  0  0  0  0  0  0
    1.5580   20.2610  -35.8040 H   0  0  0  0  0  0  0  0  0  0  0  0
    3.7218   21.9030  -34.9164 H   0  0  0  0  0  0  0  0  0  0  0  0
    4.6202   24.1689  -35.4525 H   0  0  0  0  0  0  0  0  0  0  0  0
    3.1216   25.9136  -36.4199 H   0  0  0  0  0  0  0  0  0  0  0  0
   -1.0711   27.6530  -35.7028 H   0  0  0  0  0  0  0  0  0  0  0  0
    0.2889   27.4072  -34.5312 H   0  0  0  0  0  0  0  0  0  0  0  0
   -0.5443   29.7146  -34.4050 H   0  0  0  0  0  0  0  0  0  0  0  0
    1.1386   29.6679  -35.0634 H   0  0  0  0  0  0  0  0  0  0  0  0
   -1.4378   30.4398  -36.3930 H   0  0  0  0  0  0  0  0  0  0  0  0
    0.2562   31.0730  -36.6074 H   0  0  0  0  0  0  0  0  0  0  0  0
   -1.1328   28.7768  -37.9757 H   0  0  0  0  0  0  0  0  0  0  0  0
   -0.0241   30.0457  -38.6342 H   0  0  0  0  0  0  0  0  0  0  0  0
    1.0407   27.8077  -38.6270 H   0  0  0  0  0  0  0  0  0  0  0  0
    1.8770   28.9884  -37.5183 H   0  0  0  0  0  0  0  0  0  0  0  0
   -0.1678   23.0998  -36.4002 H   0  0  0  0  0  0  0  0  0  0  0  0
    0.3690   18.7430  -36.0669 H   0  0  0  0  0  0  0  0  0  0  0  0
   -0.6560   16.4872  -35.8538 H   0  0  0  0  0  0  0  0  0  0  0  0
   -4.6430   17.7150  -36.6490 H   0  0  0  0  0  0  0  0  0  0  0  0
   -3.3530   16.8220  -35.8160 H   0  0  0  0  0  0  0  0  0  0  0  0
   -6.3091   18.9200  -35.2254 H   0  0  0  0  0  0  0  0  0  0  0  0
   -5.4303   20.5011  -32.5986 H   0  0  0  0  0  0  0  0  0  0  0  0
   -5.0279   22.7127  -31.5272 H   0  0  0  0  0  0  0  0  0  0  0  0
  1  2  1  0
  2  3  2  0
  3  4  1  0
  4  5  2  0
  5  6  1  0
  6  7  1  0
  7  8  2  0
  8  9  1  0
  9 10  2  0
 10 11  1  0
 11 12  2  0
 11 13  1  0
 13 14  1  0
 14 15  2  0
 15 16  1  0
 16 17  2  0
 17 18  1  0
 18 19  2  0
 18 20  1  0
 20 21  1  0
 21 22  2  0
 22 23  1  0
 23 24  2  0
 24 25  1  0
 25 26  1  0
 26 27  2  0
 26 28  2  0
 26 29  1  0
 29 30  1  0
 30 31  1  0
 31 32  1  0
 32 33  1  0
 33 34  1  0
 25 35  2  0
 17 36  1  0
 36 37  2  0
 10 38  1  0
 38 39  1  0
 38 40  2  0
  5 41  1  0
 41 42  2  0
 42  2  1  0
 40  7  1  0
 37 14  1  0
 35 21  1  0
 34 29  1  0
  1 43  1  0
  1 44  1  0
  1 45  1  0
  3 46  1  0
  4 47  1  0
  6 48  1  0
  8 49  1  0
  9 50  1  0
 15 51  1  0
 16 52  1  0
 20 53  1  0
 22 54  1  0
 23 55  1  0
 24 56  1  0
 30 57  1  0
 30 58  1  0
 31 59  1  0
 31 60  1  0
 32 61  1  0
 32 62  1  0
 33 63  1  0
 33 64  1  0
 34 65  1  0
 34 66  1  0
 35 67  1  0
 36 68  1  0
 37 69  1  0
 39 70  1  0
 39 71  1  0
 40 72  1  0
 41 73  1  0
 42 74  1  0
M  CHG  1  13  -1
M  END
>  <UniqueID>  (29) 
28

>  <SMILES>  (29) 
Cc1ccc(Nc2ccc(C(=O)[N-]c3ccc(C(=O)Nc4cccc(S(=O)(=O)N5CCCCC5)c4)cc3)c(N)c2)cc1

>  <Energy>  (29) 
105.14767157574606

>  <Genealogy>  (29) 
Cc1ccc(Nc2ccc(C(=O)[N-]c3ccc(C(=O)Nc4cccc(S(=O)(=O)N5CCCCC5)c4)cc3)c(N)c2)cc1 (protonated)
Cc1ccc(Nc2ccc(C(=O)[N-]c3ccc(C(=O)Nc4cccc(S(=O)(=O)N5CCCCC5)c4)cc3)c(N)c2)cc1 (3D coordinates assigned)
Cc1ccc(Nc2ccc(C(=O)[N-]c3ccc(C(=O)Nc4cccc(S(=O)(=O)N5CCCCC5)c4)cc3)c(N)c2)cc1 (nonaromatic ring conformer: 105.14767157574606 kcal/mol)

>  <smiles>  (29) 
Cc1ccc(Nc2ccc(C(=O)Nc3ccc(C(=O)Nc4cccc(S(=O)(=O)N5CCCCC5)c4)cc3)c(N)c2)cc1

>  <score_type>  (29) 
oracle

>  <origin>  (29) 
adgpu

>  <m_score__min__energy>  (29) 
-11.68

>  <m_primary>  (29) 
energy

$$$$
29:0
     RDKit          3D

 44 46  0  0  0  0  0  0  0  0999 V2000
   -9.5860   20.7900  -32.1050 C   0  0  0  0  0  0  0  0  0  0  0  0
   -9.2970   22.0110  -31.4330 O   0  0  0  0  0  0  0  0  0  0  0  0
   -8.0030   22.5060  -31.2110 C   0  0  0  0  0  0  0  0  0  0  0  0
   -7.4570   22.6400  -29.9200 C   0  0  0  0  0  0  0  0  0  0  0  0
   -6.1630   23.1400  -29.7510 C   0  0  0  0  0  0  0  0  0  0  0  0
   -5.3890   23.5140  -30.8640 C   0  0  0  0  0  0  0  0  0  0  0  0
   -4.0280   24.0660  -30.6800 C   0  0  0  0  0  0  0  0  0  0  0  0
   -3.8710   25.2990  -30.4630 O   0  0  0  0  0  0  0  0  0  0  0  0
   -2.8830   23.2070  -30.7690 N   0  0  0  0  0  0  0  0  0  0  0  0
   -2.1460   22.7130  -29.6110 C   0  0  0  0  0  0  0  0  0  0  0  0
   -0.8240   23.4670  -29.4390 C   0  0  0  0  0  0  0  0  0  0  0  0
   -0.8720   24.4130  -28.2750 C   0  0  0  0  0  0  0  0  0  0  0  0
   -0.7680   25.7240  -28.4060 O   0  0  0  0  0  0  0  0  0  0  0  0
   -0.8200   26.2480  -27.2050 C   0  0  0  0  0  0  0  0  0  0  0  0
   -0.7540   27.5980  -26.8680 C   0  0  0  0  0  0  0  0  0  0  0  0
   -0.8240   27.9460  -25.5000 C   0  0  0  0  0  0  0  0  0  0  0  0
   -0.7970   29.3870  -25.0900 C   0  0  0  0  0  0  0  0  0  0  0  0
   -0.9880   26.9320  -24.5220 C   0  0  0  0  0  0  0  0  0  0  0  0
   -1.0520   25.5780  -24.8970 C   0  0  0  0  0  0  0  0  0  0  0  0
   -0.9590   25.2720  -26.2540 C   0  0  0  0  0  0  0  0  0  0  0  0
   -0.9830   24.0690  -26.9240 C   0  0  0  0  0  0  0  0  0  0  0  0
   -1.1680   22.7060  -26.3320 C   0  0  0  0  0  0  0  0  0  0  0  0
   -5.9400   23.3780  -32.1500 C   0  0  0  0  0  0  0  0  0  0  0  0
   -7.2350   22.8780  -32.3170 C   0  0  0  0  0  0  0  0  0  0  0  0
   -9.7732   19.9990  -31.3639 H   0  0  0  0  0  0  0  0  0  0  0  0
  -10.4781   20.9206  -32.7352 H   0  0  0  0  0  0  0  0  0  0  0  0
   -8.7301   20.5068  -32.7352 H   0  0  0  0  0  0  0  0  0  0  0  0
   -8.0514   22.3500  -29.0410 H   0  0  0  0  0  0  0  0  0  0  0  0
   -5.7461   23.2419  -28.7382 H   0  0  0  0  0  0  0  0  0  0  0  0
   -2.7593   22.8517  -28.7084 H   0  0  0  0  0  0  0  0  0  0  0  0
   -1.9237   21.6469  -29.7659 H   0  0  0  0  0  0  0  0  0  0  0  0
   -0.0169   22.7382  -29.2730 H   0  0  0  0  0  0  0  0  0  0  0  0
   -0.6431   24.0546  -30.3512 H   0  0  0  0  0  0  0  0  0  0  0  0
   -0.6504   28.3707  -27.6440 H   0  0  0  0  0  0  0  0  0  0  0  0
   -0.7957   29.4559  -23.9922 H   0  0  0  0  0  0  0  0  0  0  0  0
    0.1103   29.8646  -25.4884 H   0  0  0  0  0  0  0  0  0  0  0  0
   -1.6857   29.8983  -25.4884 H   0  0  0  0  0  0  0  0  0  0  0  0
   -1.0659   27.2072  -23.4598 H   0  0  0  0  0  0  0  0  0  0  0  0
   -1.1716   24.7856  -24.1435 H   0  0  0  0  0  0  0  0  0  0  0  0
   -1.1582   22.7785  -25.2344 H   0  0  0  0  0  0  0  0  0  0  0  0
   -2.1309   22.2899  -26.6634 H   0  0  0  0  0  0  0  0  0  0  0  0
   -0.3509   22.0483  -26.6634 H   0  0  0  0  0  0  0  0  0  0  0  0
   -5.3482   23.6670  -33.0311 H   0  0  0  0  0  0  0  0  0  0  0  0
   -7.6532   22.7766  -33.3293 H   0  0  0  0  0  0  0  0  0  0  0  0
  1  2  1  0
  2  3  1  0
  3  4  2  0
  4  5  1  0
  5  6  2  0
  6  7  1  0
  7  8  2  0
  7  9  1  0
  9 10  1  0
 10 11  1  0
 11 12  1  0
 12 13  1  0
 13 14  1  0
 14 15  2  0
 15 16  1  0
 16 17  1  0
 16 18  2  0
 18 19  1  0
 19 20  2  0
 20 21  1  0
 21 22  1  0
  6 23  1  0
 23 24  2  0
 24  3  1  0
 21 12  2  0
 20 14  1  0
  1 25  1  0
  1 26  1  0
  1 27  1  0
  4 28  1  0
  5 29  1  0
 10 30  1  0
 10 31  1  0
 11 32  1  0
 11 33  1  0
 15 34  1  0
 17 35  1  0
 17 36  1  0
 17 37  1  0
 18 38  1  0
 19 39  1  0
 22 40  1  0
 22 41  1  0
 22 42  1  0
 23 43  1  0
 24 44  1  0
M  CHG  1   9  -1
M  END
>  <UniqueID>  (30) 
29

>  <SMILES>  (30) 
COc1ccc(C(=O)[N-]CCc2oc3cc(C)ccc3c2C)cc1

>  <Energy>  (30) 
72.66904296948574

>  <Genealogy>  (30) 
COc1ccc(C(=O)[N-]CCc2oc3cc(C)ccc3c2C)cc1 (protonated)
COc1ccc(C(=O)[N-]CCc2oc3cc(C)ccc3c2C)cc1 (3D coordinates assigned)
COc1ccc(C(=O)[N-]CCc2oc3cc(C)ccc3c2C)cc1 (optimized conformer: 72.66904296948574 kcal/mol)

>  <smiles>  (30) 
COc1ccc(C(=O)NCCc2oc3cc(C)ccc3c2C)cc1

>  <score_type>  (30) 
oracle

>  <origin>  (30) 
adgpu

>  <m_score__min__energy>  (30) 
-10.24

>  <m_primary>  (30) 
energy

$$$$
30:0
     RDKit          3D

 39 41  0  0  0  0  0  0  0  0999 V2000
   -5.7120   25.4770  -30.9200 O   0  0  0  0  0  0  0  0  0  0  0  0
   -4.7930   24.6200  -30.8420 C   0  0  0  0  0  0  0  0  0  0  0  0
   -3.5100   25.0320  -30.3500 N   0  0  0  0  0  0  0  0  0  0  0  0
   -2.8630   24.5510  -29.1620 C   0  0  0  0  0  0  0  0  0  0  0  0
   -3.3180   23.3990  -28.4920 C   0  0  0  0  0  0  0  0  0  0  0  0
   -2.6590   22.9430  -27.3470 C   0  0  0  0  0  0  0  0  0  0  0  0
   -1.5340   23.6210  -26.8710 C   0  0  0  0  0  0  0  0  0  0  0  0
   -1.0620   24.7510  -27.5430 C   0  0  0  0  0  0  0  0  0  0  0  0
   -1.7190   25.2130  -28.6890 C   0  0  0  0  0  0  0  0  0  0  0  0
   -1.2370   26.3360  -29.3520 O   0  0  0  0  0  0  0  0  0  0  0  0
   -5.0780   23.2110  -31.2090 C   0  0  0  0  0  0  0  0  0  0  0  0
   -6.3990   22.7710  -31.4000 C   0  0  0  0  0  0  0  0  0  0  0  0
   -6.6550   21.4430  -31.7490 C   0  0  0  0  0  0  0  0  0  0  0  0
   -5.6000   20.5430  -31.9190 C   0  0  0  0  0  0  0  0  0  0  0  0
   -4.2720   20.9710  -31.7460 C   0  0  0  0  0  0  0  0  0  0  0  0
   -3.1590   20.0850  -31.9140 N   0  0  0  0  0  0  0  0  0  0  0  0
   -2.8200   19.1630  -33.3430 S   0  0  0  0  0  0  0  0  0  0  0  0
   -1.5300   18.4180  -33.1530 O   0  0  0  0  0  0  0  0  0  0  0  0
   -2.7160   20.0790  -34.5310 O   0  0  0  0  0  0  0  0  0  0  0  0
   -4.1270   18.0180  -33.6180 C   0  0  0  0  0  0  0  0  0  0  0  0
   -5.2480   18.3960  -34.3700 C   0  0  0  0  0  0  0  0  0  0  0  0
   -6.2840   17.4830  -34.5960 C   0  0  0  0  0  0  0  0  0  0  0  0
   -6.2030   16.1880  -34.0760 C   0  0  0  0  0  0  0  0  0  0  0  0
   -7.2340   15.2850  -34.3030 O   0  0  0  0  0  0  0  0  0  0  0  0
   -5.0830   15.8030  -33.3310 C   0  0  0  0  0  0  0  0  0  0  0  0
   -4.9980   14.5470  -32.8270 F   0  0  0  0  0  0  0  0  0  0  0  0
   -4.0460   16.7150  -33.1040 C   0  0  0  0  0  0  0  0  0  0  0  0
   -4.0210   22.3040  -31.3970 C   0  0  0  0  0  0  0  0  0  0  0  0
   -4.1959   22.8557  -28.8715 H   0  0  0  0  0  0  0  0  0  0  0  0
   -3.0263   22.0498  -26.8203 H   0  0  0  0  0  0  0  0  0  0  0  0
   -1.0195   23.2647  -25.9664 H   0  0  0  0  0  0  0  0  0  0  0  0
   -0.1718   25.2790  -27.1705 H   0  0  0  0  0  0  0  0  0  0  0  0
   -7.2346   23.4752  -31.2742 H   0  0  0  0  0  0  0  0  0  0  0  0
   -7.6919   21.1042  -31.8906 H   0  0  0  0  0  0  0  0  0  0  0  0
   -5.8088   19.4972  -32.1888 H   0  0  0  0  0  0  0  0  0  0  0  0
   -5.3134   19.4132  -34.7836 H   0  0  0  0  0  0  0  0  0  0  0  0
   -7.1635   17.7848  -35.1837 H   0  0  0  0  0  0  0  0  0  0  0  0
   -3.1648   16.4094  -32.5209 H   0  0  0  0  0  0  0  0  0  0  0  0
   -2.9833   22.6454  -31.2684 H   0  0  0  0  0  0  0  0  0  0  0  0
  1  2  2  0
  2  3  1  0
  3  4  1  0
  4  5  2  0
  5  6  1  0
  6  7  2  0
  7  8  1  0
  8  9  2  0
  9 10  1  0
  2 11  1  0
 11 12  2  0
 12 13  1  0
 13 14  2  0
 14 15  1  0
 15 16  1  0
 16 17  1  0
 17 18  2  0
 17 19  2  0
 17 20  1  0
 20 21  2  0
 21 22  1  0
 22 23  2  0
 23 24  1  0
 23 25  1  0
 25 26  1  0
 25 27  2  0
 15 28  2  0
  9  4  1  0
 28 11  1  0
 27 20  1  0
  5 29  1  0
  6 30  1  0
  7 31  1  0
  8 32  1  0
 12 33  1  0
 13 34  1  0
 14 35  1  0
 21 36  1  0
 22 37  1  0
 27 38  1  0
 28 39  1  0
M  CHG  4   3  -1  10  -1  16  -1  24  -1
M  END
>  <UniqueID>  (31) 
30

>  <SMILES>  (31) 
O=C([N-]c1ccccc1[O-])c1cccc([N-]S(=O)(=O)c2ccc([O-])c(F)c2)c1

>  <Energy>  (31) 
53.67545190948844

>  <Genealogy>  (31) 
O=C([N-]c1ccccc1[O-])c1cccc([N-]S(=O)(=O)c2ccc([O-])c(F)c2)c1 (protonated)
O=C([N-]c1ccccc1[O-])c1cccc([N-]S(=O)(=O)c2ccc([O-])c(F)c2)c1 (3D coordinates assigned)
O=C([N-]c1ccccc1[O-])c1cccc([N-]S(=O)(=O)c2ccc([O-])c(F)c2)c1 (optimized conformer: 53.67545190948844 kcal/mol)

>  <smiles>  (31) 
O=C(Nc1ccccc1O)c1cccc(NS(=O)(=O)c2ccc(O)c(F)c2)c1

>  <score_type>  (31) 
oracle

>  <origin>  (31) 
adgpu

>  <m_score__min__energy>  (31) 
-14.07

>  <m_primary>  (31) 
energy

$$$$
31:0
     RDKit          3D

 59 61  0  0  1  0  0  0  0  0999 V2000
   -0.0730   25.9220  -24.1660 C   0  0  0  0  0  0  0  0  0  0  0  0
   -0.8330   24.9100  -24.9600 C   0  0  0  0  0  0  0  0  0  0  0  0
    0.0880   23.9370  -25.6960 C   0  0  0  0  0  0  0  0  0  0  0  0
   -0.0500   24.0910  -27.1620 C   0  0  0  0  0  0  0  0  0  0  0  0
    0.8980   24.5680  -27.8730 O   0  0  0  0  0  0  0  0  0  0  0  0
   -1.2520   23.7150  -27.8490 N   0  0  0  0  0  0  0  0  0  0  0  0
   -1.2700   23.9300  -29.2800 C   0  0  0  0  0  0  0  0  0  0  0  0
   -2.1770   22.8810  -29.8840 C   0  0  0  0  0  0  0  0  0  0  0  0
   -3.4720   23.0550  -29.2520 N   0  0  0  0  0  0  0  0  0  0  0  0
   -4.5820   23.4690  -30.0380 C   0  0  0  0  0  0  0  0  0  0  0  0
   -5.1330   22.5410  -30.8460 N   0  0  0  0  0  0  0  0  0  0  0  0
   -6.1880   22.8950  -31.6000 C   0  0  0  0  0  0  0  0  0  0  0  0
   -6.6930   21.9970  -32.3640 N   0  0  0  0  0  0  0  0  0  0  0  0
   -6.1690   20.6730  -32.4200 C   0  0  0  0  0  0  0  0  0  0  0  0
   -6.9040   19.6000  -31.9600 C   0  0  0  0  0  0  0  0  0  0  0  0
   -8.2600   19.7820  -31.3950 C   0  0  0  0  0  0  0  0  0  0  0  0
   -9.3190   20.0680  -32.4070 C   0  0  0  0  0  0  0  0  0  0  0  0
   -6.3970   18.3210  -32.0130 C   0  0  0  0  0  0  0  0  0  0  0  0
   -5.1280   18.1130  -32.5370 C   0  0  0  0  0  0  0  0  0  0  0  0
   -4.4170   19.2090  -32.9900 C   0  0  0  0  0  0  0  0  0  0  0  0
   -4.9160   20.4890  -32.9410 C   0  0  0  0  0  0  0  0  0  0  0  0
   -4.1300   21.6640  -33.4370 C   0  0  0  0  0  0  0  0  0  0  0  0
   -2.6830   21.4410  -33.0470 C   0  0  0  0  0  0  0  0  0  0  0  0
   -6.7080   24.1710  -31.5640 C   0  0  0  0  0  0  0  0  0  0  0  0
   -6.1350   25.1170  -30.7320 C   0  0  0  0  0  0  0  0  0  0  0  0
   -5.0830   24.7170  -29.9960 N   0  0  0  0  0  0  0  0  0  0  0  0
   -3.5500   22.7950  -27.8310 C   0  0  0  0  0  0  0  0  0  0  0  0
   -2.3210   23.1600  -27.0830 C   0  0  0  0  0  0  0  0  0  0  0  0
   -0.2175   25.7296  -23.0926 H   0  0  0  0  0  0  0  0  0  0  0  0
    0.9972   25.8514  -24.4104 H   0  0  0  0  0  0  0  0  0  0  0  0
   -0.4392   26.9301  -24.4104 H   0  0  0  0  0  0  0  0  0  0  0  0
   -1.4788   24.3378  -24.2777 H   0  0  0  0  0  0  0  0  0  0  0  0
   -1.4233   25.4499  -25.7150 H   0  0  0  0  0  0  0  0  0  0  0  0
    1.1303   24.1392  -25.4085 H   0  0  0  0  0  0  0  0  0  0  0  0
   -0.1920   22.9094  -25.4211 H   0  0  0  0  0  0  0  0  0  0  0  0
   -1.6563   24.9352  -29.5043 H   0  0  0  0  0  0  0  0  0  0  0  0
   -0.2551   23.8524  -29.6971 H   0  0  0  0  0  0  0  0  0  0  0  0
   -2.2600   23.0284  -30.9709 H   0  0  0  0  0  0  0  0  0  0  0  0
   -1.7832   21.8671  -29.7199 H   0  0  0  0  0  0  0  0  0  0  0  0
   -8.5357   18.8612  -30.8601 H   0  0  0  0  0  0  0  0  0  0  0  0
   -8.2094   20.6626  -30.7378 H   0  0  0  0  0  0  0  0  0  0  0  0
  -10.2581   20.3216  -31.8934 H   0  0  0  0  0  0  0  0  0  0  0  0
   -9.0056   20.9137  -33.0368 H   0  0  0  0  0  0  0  0  0  0  0  0
   -9.4739   19.1795  -33.0368 H   0  0  0  0  0  0  0  0  0  0  0  0
   -6.9914   17.4722  -31.6439 H   0  0  0  0  0  0  0  0  0  0  0  0
   -4.6990   17.1015  -32.5904 H   0  0  0  0  0  0  0  0  0  0  0  0
   -3.4113   19.0502  -33.4065 H   0  0  0  0  0  0  0  0  0  0  0  0
   -4.2169   21.7392  -34.5310 H   0  0  0  0  0  0  0  0  0  0  0  0
   -4.5103   22.5980  -32.9976 H   0  0  0  0  0  0  0  0  0  0  0  0
   -2.5967   21.4277  -31.9505 H   0  0  0  0  0  0  0  0  0  0  0  0
   -2.3377   20.4790  -33.4537 H   0  0  0  0  0  0  0  0  0  0  0  0
   -2.0641   22.2544  -33.4537 H   0  0  0  0  0  0  0  0  0  0  0  0
   -7.5718   24.4354  -32.1917 H   0  0  0  0  0  0  0  0  0  0  0  0
   -6.5211   26.1455  -30.6755 H   0  0  0  0  0  0  0  0  0  0  0  0
   -4.6020   25.3920  -29.3410 H   0  0  0  0  0  0  0  0  0  0  0  0
   -4.3903   23.3730  -27.4190 H   0  0  0  0  0  0  0  0  0  0  0  0
   -3.6846   21.7097  -27.7126 H   0  0  0  0  0  0  0  0  0  0  0  0
   -2.6022   23.8981  -26.3174 H   0  0  0  0  0  0  0  0  0  0  0  0
   -1.9314   22.2127  -26.6820 H   0  0  0  0  0  0  0  0  0  0  0  0
  1  2  1  0
  2  3  1  0
  3  4  1  0
  4  5  2  0
  4  6  1  0
  6  7  1  0
  7  8  1  0
  8  9  1  0
  9 10  1  0
 10 11  2  0
 11 12  1  0
 12 13  2  0
 13 14  1  0
 14 15  2  0
 15 16  1  0
 16 17  1  0
 15 18  1  0
 18 19  2  0
 19 20  1  0
 20 21  2  0
 21 22  1  0
 22 23  1  0
 12 24  1  0
 24 25  2  0
 25 26  1  0
  9 27  1  0
 27 28  1  0
 28  6  1  0
 26 10  1  0
 21 14  1  0
  1 29  1  0
  1 30  1  0
  1 31  1  0
  2 32  1  0
  2 33  1  0
  3 34  1  0
  3 35  1  0
  7 36  1  0
  7 37  1  0
  8 38  1  0
  8 39  1  0
 16 40  1  0
 16 41  1  0
 17 42  1  0
 17 43  1  0
 17 44  1  0
 18 45  1  0
 19 46  1  0
 20 47  1  0
 22 48  1  0
 22 49  1  0
 23 50  1  0
 23 51  1  0
 23 52  1  0
 24 53  1  0
 25 54  1  0
 26 55  1  0
 27 56  1  0
 27 57  1  0
 28 58  1  0
 28 59  1  0
M  END
>  <smiles>  (32) 
CCCC(=O)N1CCN(c2nc(=Nc3c(CC)cccc3CC)cc[nH]2)CC1

>  <score_type>  (32) 
oracle

>  <origin>  (32) 
adgpu

>  <m_score__min__energy>  (32) 
-8.8100000000000005

>  <m_primary>  (32) 
energy

$$$$
32:0
     RDKit          3D

 54 57  0  0  0  0  0  0  0  0999 V2000
   -4.1260   24.1200  -30.8740 N   0  0  0  0  0  0  0  0  0  0  0  0
   -3.9250   23.0460  -31.2570 C   0  0  0  0  0  0  0  0  0  0  0  0
   -3.6750   21.7090  -31.7330 C   0  0  0  0  0  0  0  0  0  0  0  0
   -4.7510   20.9420  -32.1990 C   0  0  0  0  0  0  0  0  0  0  0  0
   -4.5350   19.6640  -32.7330 C   0  0  0  0  0  0  0  0  0  0  0  0
   -5.6420   18.8960  -33.2320 N   0  0  0  0  0  0  0  0  0  0  0  0
   -5.6470   18.4060  -34.6140 C   0  0  0  0  0  0  0  0  0  0  0  0
   -5.0090   17.0440  -34.6850 C   0  0  0  0  0  0  0  0  0  0  0  0
   -5.6640   15.9240  -34.1480 C   0  0  0  0  0  0  0  0  0  0  0  0
   -5.0970   14.6510  -34.2660 C   0  0  0  0  0  0  0  0  0  0  0  0
   -3.8750   14.4880  -34.9240 C   0  0  0  0  0  0  0  0  0  0  0  0
   -3.2190   15.5970  -35.4650 C   0  0  0  0  0  0  0  0  0  0  0  0
   -3.7840   16.8710  -35.3500 C   0  0  0  0  0  0  0  0  0  0  0  0
   -6.9710   18.5090  -32.1790 S   0  0  0  0  0  0  0  0  0  0  0  0
   -7.7880   17.4090  -32.7970 O   0  0  0  0  0  0  0  0  0  0  0  0
   -6.4610   18.0280  -30.8490 O   0  0  0  0  0  0  0  0  0  0  0  0
   -7.9670   19.9390  -31.9300 C   0  0  0  0  0  0  0  0  0  0  0  0
   -7.4850   21.0120  -31.1720 C   0  0  0  0  0  0  0  0  0  0  0  0
   -8.2670   22.1570  -31.0110 C   0  0  0  0  0  0  0  0  0  0  0  0
   -9.5270   22.2150  -31.6130 C   0  0  0  0  0  0  0  0  0  0  0  0
   -9.9810   21.1640  -32.3460 N   0  0  0  0  0  0  0  0  0  0  0  0
   -9.2360   20.0380  -32.5170 C   0  0  0  0  0  0  0  0  0  0  0  0
   -3.2290   19.1630  -32.8170 C   0  0  0  0  0  0  0  0  0  0  0  0
   -2.1520   19.9230  -32.3540 C   0  0  0  0  0  0  0  0  0  0  0  0
   -2.3650   21.1870  -31.7920 C   0  0  0  0  0  0  0  0  0  0  0  0
   -1.2550   21.9120  -31.3360 O   0  0  0  0  0  0  0  0  0  0  0  0
   -0.9920   22.2070  -29.9900 C   0  0  0  0  0  0  0  0  0  0  0  0
   -0.5840   21.2180  -29.0760 C   0  0  0  0  0  0  0  0  0  0  0  0
   -0.3390   21.5540  -27.7430 C   0  0  0  0  0  0  0  0  0  0  0  0
   -0.4800   22.8750  -27.3130 C   0  0  0  0  0  0  0  0  0  0  0  0
   -0.8470   23.8820  -28.2230 C   0  0  0  0  0  0  0  0  0  0  0  0
   -1.0440   25.3000  -27.7470 C   0  0  0  0  0  0  0  0  0  0  0  0
    0.1790   25.8330  -27.3860 F   0  0  0  0  0  0  0  0  0  0  0  0
   -1.8930   25.3370  -26.6540 F   0  0  0  0  0  0  0  0  0  0  0  0
   -1.5970   26.0780  -28.7500 F   0  0  0  0  0  0  0  0  0  0  0  0
   -1.1170   23.5320  -29.5580 C   0  0  0  0  0  0  0  0  0  0  0  0
   -5.7728   21.3457  -32.1454 H   0  0  0  0  0  0  0  0  0  0  0  0
   -6.6849   18.3402  -34.9725 H   0  0  0  0  0  0  0  0  0  0  0  0
   -5.0756   19.1034  -35.2442 H   0  0  0  0  0  0  0  0  0  0  0  0
   -6.6275   16.0485  -33.6321 H   0  0  0  0  0  0  0  0  0  0  0  0
   -5.6132   13.7777  -33.8407 H   0  0  0  0  0  0  0  0  0  0  0  0
   -3.4294   13.4865  -35.0161 H   0  0  0  0  0  0  0  0  0  0  0  0
   -2.2568   15.4676  -35.9821 H   0  0  0  0  0  0  0  0  0  0  0  0
   -3.2672   17.7407  -35.7819 H   0  0  0  0  0  0  0  0  0  0  0  0
   -6.4914   20.9532  -30.7037 H   0  0  0  0  0  0  0  0  0  0  0  0
   -7.8955   23.0047  -30.4166 H   0  0  0  0  0  0  0  0  0  0  0  0
  -10.1521   23.1122  -31.4935 H   0  0  0  0  0  0  0  0  0  0  0  0
   -9.6303   19.2044  -33.1167 H   0  0  0  0  0  0  0  0  0  0  0  0
   -3.0511   18.1673  -33.2493 H   0  0  0  0  0  0  0  0  0  0  0  0
   -1.1294   19.5252  -32.4317 H   0  0  0  0  0  0  0  0  0  0  0  0
   -0.4578   20.1783  -29.4122 H   0  0  0  0  0  0  0  0  0  0  0  0
   -0.0337   20.7750  -27.0289 H   0  0  0  0  0  0  0  0  0  0  0  0
   -0.3031   23.1290  -26.2574 H   0  0  0  0  0  0  0  0  0  0  0  0
   -1.4301   24.3089  -30.2710 H   0  0  0  0  0  0  0  0  0  0  0  0
  1  2  3  0
  2  3  1  0
  3  4  2  0
  4  5  1  0
  5  6  1  0
  6  7  1  0
  7  8  1  0
  8  9  2  0
  9 10  1  0
 10 11  2  0
 11 12  1  0
 12 13  2  0
  6 14  1  0
 14 15  2  0
 14 16  2  0
 14 17  1  0
 17 18  2  0
 18 19  1  0
 19 20  2  0
 20 21  1  0
 21 22  2  0
  5 23  2  0
 23 24  1  0
 24 25  2  0
 25 26  1  0
 26 27  1  0
 27 28  2  0
 28 29  1  0
 29 30  2  0
 30 31  1  0
 31 32  1  0
 32 33  1  0
 32 34  1  0
 32 35  1  0
 31 36  2  0
 25  3  1  0
 36 27  1  0
 13  8  1  0
 22 17  1  0
  4 37  1  0
  7 38  1  0
  7 39  1  0
  9 40  1  0
 10 41  1  0
 11 42  1  0
 12 43  1  0
 13 44  1  0
 18 45  1  0
 19 46  1  0
 20 47  1  0
 22 48  1  0
 23 49  1  0
 24 50  1  0
 28 51  1  0
 29 52  1  0
 30 53  1  0
 36 54  1  0
M  END
>  <UniqueID>  (33) 
31

>  <SMILES>  (33) 
N#Cc1cc(N(Cc2ccccc2)S(=O)(=O)c2cccnc2)ccc1Oc1cccc(C(F)(F)F)c1

>  <Energy>  (33) 
70.17280284117517

>  <Genealogy>  (33) 
N#Cc1cc(N(Cc2ccccc2)S(=O)(=O)c2cccnc2)ccc1Oc1cccc(C(F)(F)F)c1 (3D coordinates assigned)
N#Cc1cc(N(Cc2ccccc2)S(=O)(=O)c2cccnc2)ccc1Oc1cccc(C(F)(F)F)c1 (optimized conformer: 70.17280284117517 kcal/mol)

>  <smiles>  (33) 
N#Cc1cc(N(Cc2ccccc2)S(=O)(=O)c2cccnc2)ccc1Oc1cccc(C(F)(F)F)c1

>  <score_type>  (33) 
oracle

>  <origin>  (33) 
adgpu

>  <m_score__min__energy>  (33) 
-10.76

>  <m_primary>  (33) 
energy

$$$$
33:0
     RDKit          3D

 49 52  0  0  0  0  0  0  0  0999 V2000
   -5.6600   17.3990  -34.1890 C   0  0  0  0  0  0  0  0  0  0  0  0
   -6.1100   18.6570  -33.5080 C   0  0  0  0  0  0  0  0  0  0  0  0
   -5.1900   19.6710  -33.2230 C   0  0  0  0  0  0  0  0  0  0  0  0
   -5.6000   20.8310  -32.5640 C   0  0  0  0  0  0  0  0  0  0  0  0
   -6.9380   20.9970  -32.1670 C   0  0  0  0  0  0  0  0  0  0  0  0
   -7.4160   22.4980  -31.3500 S   0  0  0  0  0  0  0  0  0  0  0  0
   -8.0970   23.4210  -32.3210 O   0  0  0  0  0  0  0  0  0  0  0  0
   -8.3700   22.1720  -30.2350 O   0  0  0  0  0  0  0  0  0  0  0  0
   -6.0120   23.3410  -30.6970 C   0  0  0  0  0  0  0  0  0  0  0  0
   -5.1540   22.7050  -29.7890 C   0  0  0  0  0  0  0  0  0  0  0  0
   -4.0110   23.3610  -29.3250 C   0  0  0  0  0  0  0  0  0  0  0  0
   -3.7000   24.6490  -29.7800 C   0  0  0  0  0  0  0  0  0  0  0  0
   -2.5020   25.2840  -29.3110 N   0  0  0  0  0  0  0  0  0  0  0  0
   -1.2580   24.6250  -29.0380 C   0  0  0  0  0  0  0  0  0  0  0  0
   -0.3680   25.2510  -28.4060 O   0  0  0  0  0  0  0  0  0  0  0  0
   -0.9990   23.2270  -29.4400 C   0  0  0  0  0  0  0  0  0  0  0  0
   -0.3170   22.3350  -28.5950 C   0  0  0  0  0  0  0  0  0  0  0  0
   -0.1060   21.0220  -29.0150 C   0  0  0  0  0  0  0  0  0  0  0  0
    0.4980   20.2140  -28.2560 O   0  0  0  0  0  0  0  0  0  0  0  0
   -0.5660   20.6220  -30.2790 C   0  0  0  0  0  0  0  0  0  0  0  0
   -0.3850   19.3150  -30.7660 C   0  0  0  0  0  0  0  0  0  0  0  0
   -0.8570   18.9690  -32.0360 C   0  0  0  0  0  0  0  0  0  0  0  0
   -1.5080   19.9190  -32.8280 C   0  0  0  0  0  0  0  0  0  0  0  0
   -1.6920   21.2220  -32.3540 C   0  0  0  0  0  0  0  0  0  0  0  0
   -1.2260   21.5790  -31.0830 C   0  0  0  0  0  0  0  0  0  0  0  0
   -1.4090   22.8190  -30.6390 O   0  0  0  0  0  0  0  0  0  0  0  0
   -4.5790   25.2970  -30.6650 C   0  0  0  0  0  0  0  0  0  0  0  0
   -5.7230   24.6420  -31.1270 C   0  0  0  0  0  0  0  0  0  0  0  0
   -7.8650   19.9530  -32.4110 C   0  0  0  0  0  0  0  0  0  0  0  0
   -9.3100   20.0600  -31.9960 C   0  0  0  0  0  0  0  0  0  0  0  0
   -7.4390   18.7960  -33.0880 C   0  0  0  0  0  0  0  0  0  0  0  0
   -5.3913   16.6480  -33.4315 H   0  0  0  0  0  0  0  0  0  0  0  0
   -6.4750   17.0106  -34.8175 H   0  0  0  0  0  0  0  0  0  0  0  0
   -4.7836   17.6156  -34.8175 H   0  0  0  0  0  0  0  0  0  0  0  0
   -4.1373   19.5537  -33.5199 H   0  0  0  0  0  0  0  0  0  0  0  0
   -4.8677   21.6242  -32.3530 H   0  0  0  0  0  0  0  0  0  0  0  0
   -5.3813   21.6866  -29.4408 H   0  0  0  0  0  0  0  0  0  0  0  0
   -3.3517   22.8635  -28.5985 H   0  0  0  0  0  0  0  0  0  0  0  0
    0.0468   22.6691  -27.6121 H   0  0  0  0  0  0  0  0  0  0  0  0
    0.1284   18.5643  -30.1473 H   0  0  0  0  0  0  0  0  0  0  0  0
   -0.7154   17.9454  -32.4131 H   0  0  0  0  0  0  0  0  0  0  0  0
   -1.8765   19.6412  -33.8265 H   0  0  0  0  0  0  0  0  0  0  0  0
   -2.2036   21.9673  -32.9807 H   0  0  0  0  0  0  0  0  0  0  0  0
   -4.3651   26.3243  -30.9952 H   0  0  0  0  0  0  0  0  0  0  0  0
   -6.3990   25.1497  -31.8308 H   0  0  0  0  0  0  0  0  0  0  0  0
   -9.3768   20.0649  -30.8980 H   0  0  0  0  0  0  0  0  0  0  0  0
   -9.7376   20.9923  -32.3935 H   0  0  0  0  0  0  0  0  0  0  0  0
   -9.8702   19.2009  -32.3935 H   0  0  0  0  0  0  0  0  0  0  0  0
   -8.1592   17.9895  -33.2903 H   0  0  0  0  0  0  0  0  0  0  0  0
  1  2  1  0
  2  3  2  0
  3  4  1  0
  4  5  2  0
  5  6  1  0
  6  7  2  0
  6  8  2  0
  6  9  1  0
  9 10  2  0
 10 11  1  0
 11 12  2  0
 12 13  1  0
 13 14  1  0
 14 15  2  0
 14 16  1  0
 16 17  2  0
 17 18  1  0
 18 19  2  0
 18 20  1  0
 20 21  2  0
 21 22  1  0
 22 23  2  0
 23 24  1  0
 24 25  2  0
 25 26  1  0
 12 27  1  0
 27 28  2  0
  5 29  1  0
 29 30  1  0
 29 31  2  0
 31  2  1  0
 28  9  1  0
 26 16  1  0
 25 20  1  0
  1 32  1  0
  1 33  1  0
  1 34  1  0
  3 35  1  0
  4 36  1  0
 10 37  1  0
 11 38  1  0
 17 39  1  0
 21 40  1  0
 22 41  1  0
 23 42  1  0
 24 43  1  0
 27 44  1  0
 28 45  1  0
 30 46  1  0
 30 47  1  0
 30 48  1  0
 31 49  1  0
M  CHG  1  13  -1
M  END
>  <UniqueID>  (34) 
32

>  <SMILES>  (34) 
Cc1ccc(S(=O)(=O)c2ccc([N-]C(=O)c3cc(=O)c4ccccc4o3)cc2)c(C)c1

>  <Energy>  (34) 
67.6286719238944

>  <Genealogy>  (34) 
Cc1ccc(S(=O)(=O)c2ccc([N-]C(=O)c3cc(=O)c4ccccc4o3)cc2)c(C)c1 (protonated)
Cc1ccc(S(=O)(=O)c2ccc([N-]C(=O)c3cc(=O)c4ccccc4o3)cc2)c(C)c1 (3D coordinates assigned)
Cc1ccc(S(=O)(=O)c2ccc([N-]C(=O)c3cc(=O)c4ccccc4o3)cc2)c(C)c1 (optimized conformer: 67.6286719238944 kcal/mol)

>  <smiles>  (34) 
Cc1ccc(S(=O)(=O)c2ccc(NC(=O)c3cc(=O)c4ccccc4o3)cc2)c(C)c1

>  <score_type>  (34) 
oracle

>  <origin>  (34) 
adgpu

>  <m_score__min__energy>  (34) 
-12.07

>  <m_primary>  (34) 
energy

$$$$
34:0
     RDKit          3D

 59 62  0  0  0  0  0  0  0  0999 V2000
   -0.1380   28.6760  -24.4800 C   0  0  0  0  0  0  0  0  0  0  0  0
   -0.8460   27.3940  -24.3490 N   0  0  0  0  0  0  0  0  0  0  0  0
    0.0500   26.3330  -23.8170 C   0  0  0  0  0  0  0  0  0  0  0  0
    0.5530   25.3770  -24.9080 C   0  0  0  0  0  0  0  0  0  0  0  0
   -0.6280   24.6620  -25.5960 C   0  0  0  0  0  0  0  0  0  0  0  0
   -0.1340   24.0650  -27.2170 S   0  0  0  0  0  0  0  0  0  0  0  0
    0.7990   22.8960  -27.0640 O   0  0  0  0  0  0  0  0  0  0  0  0
    0.6040   25.1540  -27.9440 O   0  0  0  0  0  0  0  0  0  0  0  0
   -1.5740   23.5560  -28.1270 C   0  0  0  0  0  0  0  0  0  0  0  0
   -2.1800   22.3050  -27.8680 C   0  0  0  0  0  0  0  0  0  0  0  0
   -1.5560   21.1830  -26.6630 Cl  0  0  0  0  0  0  0  0  0  0  0  0
   -3.3270   21.9250  -28.5720 C   0  0  0  0  0  0  0  0  0  0  0  0
   -3.8930   22.7790  -29.5150 C   0  0  0  0  0  0  0  0  0  0  0  0
   -3.3290   24.0390  -29.7570 C   0  0  0  0  0  0  0  0  0  0  0  0
   -3.9230   24.9480  -30.6950 N   0  0  0  0  0  0  0  0  0  0  0  0
   -5.3190   25.2680  -30.7670 C   0  0  0  0  0  0  0  0  0  0  0  0
   -5.6930   26.4390  -30.5000 O   0  0  0  0  0  0  0  0  0  0  0  0
   -6.3010   24.2910  -31.1370 N   0  0  0  0  0  0  0  0  0  0  0  0
   -6.0220   23.0320  -31.7670 C   0  0  0  0  0  0  0  0  0  0  0  0
   -4.8140   22.8020  -32.4440 C   0  0  0  0  0  0  0  0  0  0  0  0
   -4.5770   21.5730  -33.0620 C   0  0  0  0  0  0  0  0  0  0  0  0
   -5.5390   20.5550  -33.0110 C   0  0  0  0  0  0  0  0  0  0  0  0
   -6.7360   20.7650  -32.2940 C   0  0  0  0  0  0  0  0  0  0  0  0
   -6.9690   22.0060  -31.6820 C   0  0  0  0  0  0  0  0  0  0  0  0
   -7.8210   19.7130  -32.2680 C   0  0  0  0  0  0  0  0  0  0  0  0
   -7.3180   18.3550  -32.5540 N   0  0  0  0  0  0  0  0  0  0  0  0
   -6.6420   17.7610  -31.3870 C   0  0  0  0  0  0  0  0  0  0  0  0
   -6.4790   18.3350  -33.7680 C   0  0  0  0  0  0  0  0  0  0  0  0
   -5.2300   19.2200  -33.6340 C   0  0  0  0  0  0  0  0  0  0  0  0
   -2.1630   24.4170  -29.0800 C   0  0  0  0  0  0  0  0  0  0  0  0
   -1.6130   25.6680  -29.3430 O   0  0  0  0  0  0  0  0  0  0  0  0
   -1.8850   25.5610  -25.6820 C   0  0  0  0  0  0  0  0  0  0  0  0
   -1.5180   27.0470  -25.6250 C   0  0  0  0  0  0  0  0  0  0  0  0
    0.0832   29.0766  -23.4797 H   0  0  0  0  0  0  0  0  0  0  0  0
    0.8024   28.5211  -25.0292 H   0  0  0  0  0  0  0  0  0  0  0  0
   -0.7700   29.3895  -25.0292 H   0  0  0  0  0  0  0  0  0  0  0  0
    0.9186   26.8122  -23.3418 H   0  0  0  0  0  0  0  0  0  0  0  0
   -0.5319   25.7380  -23.0977 H   0  0  0  0  0  0  0  0  0  0  0  0
    1.1146   25.9510  -25.6598 H   0  0  0  0  0  0  0  0  0  0  0  0
    1.2009   24.6198  -24.4423 H   0  0  0  0  0  0  0  0  0  0  0  0
   -0.9053   23.7976  -24.9748 H   0  0  0  0  0  0  0  0  0  0  0  0
   -3.7856   20.9439  -28.3793 H   0  0  0  0  0  0  0  0  0  0  0  0
   -4.7870   22.4632  -30.0727 H   0  0  0  0  0  0  0  0  0  0  0  0
   -4.0512   23.5933  -32.4877 H   0  0  0  0  0  0  0  0  0  0  0  0
   -3.6287   21.4023  -33.5927 H   0  0  0  0  0  0  0  0  0  0  0  0
   -7.9056   22.1737  -31.1300 H   0  0  0  0  0  0  0  0  0  0  0  0
   -8.2837   19.7119  -31.2701 H   0  0  0  0  0  0  0  0  0  0  0  0
   -8.5439   19.9679  -33.0570 H   0  0  0  0  0  0  0  0  0  0  0  0
   -7.0907   18.1553  -30.4633 H   0  0  0  0  0  0  0  0  0  0  0  0
   -6.7582   16.6675  -31.4133 H   0  0  0  0  0  0  0  0  0  0  0  0
   -5.5725   18.0168  -31.4133 H   0  0  0  0  0  0  0  0  0  0  0  0
   -6.1593   17.3000  -33.9590 H   0  0  0  0  0  0  0  0  0  0  0  0
   -7.0823   18.7313  -34.5981 H   0  0  0  0  0  0  0  0  0  0  0  0
   -4.4930   18.6986  -33.0055 H   0  0  0  0  0  0  0  0  0  0  0  0
   -4.8380   19.4036  -34.6453 H   0  0  0  0  0  0  0  0  0  0  0  0
   -2.4057   25.3576  -26.6294 H   0  0  0  0  0  0  0  0  0  0  0  0
   -2.5320   25.3323  -24.8223 H   0  0  0  0  0  0  0  0  0  0  0  0
   -0.8410   27.2800  -26.4601 H   0  0  0  0  0  0  0  0  0  0  0  0
   -2.4456   27.6339  -25.6965 H   0  0  0  0  0  0  0  0  0  0  0  0
  1  2  1  0
  2  3  1  0
  3  4  1  0
  4  5  1  0
  5  6  1  0
  6  7  2  0
  6  8  2  0
  6  9  1  0
  9 10  2  0
 10 11  1  0
 10 12  1  0
 12 13  2  0
 13 14  1  0
 14 15  1  0
 15 16  1  0
 16 17  2  0
 16 18  1  0
 18 19  1  0
 19 20  2  0
 20 21  1  0
 21 22  2  0
 22 23  1  0
 23 24  2  0
 23 25  1  0
 25 26  1  0
 26 27  1  0
 26 28  1  0
 28 29  1  0
 14 30  2  0
 30 31  1  0
  5 32  1  0
 32 33  1  0
 33  2  1  0
 30  9  1  0
 24 19  1  0
 29 22  1  0
  1 34  1  0
  1 35  1  0
  1 36  1  0
  3 37  1  0
  3 38  1  0
  4 39  1  0
  4 40  1  0
  5 41  1  0
 12 42  1  0
 13 43  1  0
 20 44  1  0
 21 45  1  0
 24 46  1  0
 25 47  1  0
 25 48  1  0
 27 49  1  0
 27 50  1  0
 27 51  1  0
 28 52  1  0
 28 53  1  0
 29 54  1  0
 29 55  1  0
 32 56  1  0
 32 57  1  0
 33 58  1  0
 33 59  1  0
M  CHG  3  15  -1  18  -1  31  -1
M  END
>  <UniqueID>  (35) 
33

>  <SMILES>  (35) 
CN1CCC(S(=O)(=O)c2c(Cl)ccc([N-]C(=O)[N-]c3ccc4c(c3)CN(C)CC4)c2[O-])CC1

>  <Energy>  (35) 
79.02684302040205

>  <Genealogy>  (35) 
CN1CCC(S(=O)(=O)c2c(Cl)ccc([N-]C(=O)[N-]c3ccc4c(c3)CN(C)CC4)c2[O-])CC1 (protonated)
CN1CCC(S(=O)(=O)c2c(Cl)ccc([N-]C(=O)[N-]c3ccc4c(c3)CN(C)CC4)c2[O-])CC1 (3D coordinates assigned)
CN1CCC(S(=O)(=O)c2c(Cl)ccc([N-]C(=O)[N-]c3ccc4c(c3)CN(C)CC4)c2[O-])CC1 (nonaromatic ring conformer: 79.02684302040205 kcal/mol)

>  <smiles>  (35) 
CN1CCC(S(=O)(=O)c2c(Cl)ccc(NC(=O)Nc3ccc4c(c3)CN(C)CC4)c2O)CC1

>  <score_type>  (35) 
oracle

>  <origin>  (35) 
adgpu

>  <m_score__min__energy>  (35) 
-17.149999999999999

>  <m_primary>  (35) 
energy

$$$$
35:0
     RDKit          3D

 46 49  0  0  0  0  0  0  0  0999 V2000
   -0.9420   26.5250  -24.3770 C   0  0  0  0  0  0  0  0  0  0  0  0
   -1.2850   26.0750  -25.7670 C   0  0  0  0  0  0  0  0  0  0  0  0
   -2.4150   25.2760  -25.9920 C   0  0  0  0  0  0  0  0  0  0  0  0
   -2.7570   24.8890  -27.2910 C   0  0  0  0  0  0  0  0  0  0  0  0
   -1.9740   25.2920  -28.3810 C   0  0  0  0  0  0  0  0  0  0  0  0
   -2.3770   24.8970  -29.6980 N   0  0  0  0  0  0  0  0  0  0  0  0
   -3.7220   24.7430  -30.1680 C   0  0  0  0  0  0  0  0  0  0  0  0
   -4.2740   25.6580  -30.8390 O   0  0  0  0  0  0  0  0  0  0  0  0
   -4.4950   23.4850  -29.8650 C   0  0  2  0  0  0  0  0  0  0  0  0
   -3.5360   22.3440  -29.4990 C   0  0  0  0  0  0  0  0  0  0  0  0
   -2.7410   21.9230  -30.7030 C   0  0  0  0  0  0  0  0  0  0  0  0
   -1.4120   21.4950  -30.5600 C   0  0  0  0  0  0  0  0  0  0  0  0
   -0.6760   21.1050  -31.6820 C   0  0  0  0  0  0  0  0  0  0  0  0
   -1.2650   21.1280  -32.9480 C   0  0  0  0  0  0  0  0  0  0  0  0
   -2.5920   21.5380  -33.0970 C   0  0  0  0  0  0  0  0  0  0  0  0
   -3.3380   21.9420  -31.9790 C   0  0  0  0  0  0  0  0  0  0  0  0
   -4.7860   22.3420  -32.1570 C   0  0  0  0  0  0  0  0  0  0  0  0
   -5.3410   23.0810  -31.0050 N   0  0  0  0  0  0  0  0  0  0  0  0
   -6.7720   23.2510  -30.9350 C   0  0  0  0  0  0  0  0  0  0  0  0
   -7.2490   24.3480  -30.5390 O   0  0  0  0  0  0  0  0  0  0  0  0
   -7.7090   22.1870  -31.3330 C   0  0  0  0  0  0  0  0  0  0  0  0
   -9.0610   22.3260  -31.5870 C   0  0  0  0  0  0  0  0  0  0  0  0
   -9.5020   21.0720  -31.9490 C   0  0  0  0  0  0  0  0  0  0  0  0
   -8.3970   20.2480  -31.9000 C   0  0  0  0  0  0  0  0  0  0  0  0
   -7.3440   20.9420  -31.5360 O   0  0  0  0  0  0  0  0  0  0  0  0
   -0.8650   26.1270  -28.1590 C   0  0  0  0  0  0  0  0  0  0  0  0
   -0.5240   26.5150  -26.8600 C   0  0  0  0  0  0  0  0  0  0  0  0
   -1.4405   25.8710  -23.6464 H   0  0  0  0  0  0  0  0  0  0  0  0
    0.1473   26.4725  -24.2329 H   0  0  0  0  0  0  0  0  0  0  0  0
   -1.2814   27.5614  -24.2329 H   0  0  0  0  0  0  0  0  0  0  0  0
   -3.0349   24.9524  -25.1429 H   0  0  0  0  0  0  0  0  0  0  0  0
   -3.6466   24.2640  -27.4586 H   0  0  0  0  0  0  0  0  0  0  0  0
   -5.1524   23.6976  -29.0091 H   0  0  0  0  0  0  0  0  0  0  0  0
   -2.8482   22.6867  -28.7119 H   0  0  0  0  0  0  0  0  0  0  0  0
   -4.1225   21.4855  -29.1400 H   0  0  0  0  0  0  0  0  0  0  0  0
   -0.9488   21.4665  -29.5627 H   0  0  0  0  0  0  0  0  0  0  0  0
    0.3685   20.7795  -31.5679 H   0  0  0  0  0  0  0  0  0  0  0  0
   -0.6827   20.8226  -33.8298 H   0  0  0  0  0  0  0  0  0  0  0  0
   -3.0544   21.5442  -34.0951 H   0  0  0  0  0  0  0  0  0  0  0  0
   -4.8633   22.9803  -33.0496 H   0  0  0  0  0  0  0  0  0  0  0  0
   -5.3675   21.4134  -32.2551 H   0  0  0  0  0  0  0  0  0  0  0  0
   -9.6597   23.2460  -31.5150 H   0  0  0  0  0  0  0  0  0  0  0  0
  -10.5284   20.7857  -32.2220 H   0  0  0  0  0  0  0  0  0  0  0  0
   -8.3980   19.1725  -32.1309 H   0  0  0  0  0  0  0  0  0  0  0  0
   -0.2632   26.4764  -29.0109 H   0  0  0  0  0  0  0  0  0  0  0  0
    0.3452   27.1684  -26.6942 H   0  0  0  0  0  0  0  0  0  0  0  0
  1  2  1  0
  2  3  2  0
  3  4  1  0
  4  5  2  0
  5  6  1  0
  6  7  1  0
  7  8  2  0
  7  9  1  0
  9 10  1  0
 10 11  1  0
 11 12  2  0
 12 13  1  0
 13 14  2  0
 14 15  1  0
 15 16  2  0
 16 17  1  0
 17 18  1  0
 18 19  1  0
 19 20  2  0
 19 21  1  0
 21 22  2  0
 22 23  1  0
 23 24  2  0
 24 25  1  0
  5 26  1  0
 26 27  2  0
 27  2  1  0
 18  9  1  0
 25 21  1  0
 16 11  1  0
  1 28  1  0
  1 29  1  0
  1 30  1  0
  3 31  1  0
  4 32  1  0
  9 33  1  1
 10 34  1  0
 10 35  1  0
 12 36  1  0
 13 37  1  0
 14 38  1  0
 15 39  1  0
 17 40  1  0
 17 41  1  0
 22 42  1  0
 23 43  1  0
 24 44  1  0
 26 45  1  0
 27 46  1  0
M  CHG  1   6  -1
M  END
>  <UniqueID>  (36) 
34

>  <SMILES>  (36) 
Cc1ccc([N-]C(=O)[C@@H]2Cc3ccccc3CN2C(=O)c2ccco2)cc1

>  <Energy>  (36) 
84.00727485586904

>  <Genealogy>  (36) 
Cc1ccc([N-]C(=O)C2Cc3ccccc3CN2C(=O)c2ccco2)cc1 (protonated)
Cc1ccc([N-]C(=O)[C@@H]2Cc3ccccc3CN2C(=O)c2ccco2)cc1 (chirality)
Cc1ccc([N-]C(=O)[C@@H]2Cc3ccccc3CN2C(=O)c2ccco2)cc1 (3D coordinates assigned)
Cc1ccc([N-]C(=O)[C@@H]2Cc3ccccc3CN2C(=O)c2ccco2)cc1 (nonaromatic ring conformer: 84.00727485586904 kcal/mol)

>  <smiles>  (36) 
Cc1ccc(NC(=O)C2Cc3ccccc3CN2C(=O)c2ccco2)cc1

>  <score_type>  (36) 
oracle

>  <origin>  (36) 
adgpu

>  <m_score__min__energy>  (36) 
-10.84

>  <m_primary>  (36) 
energy

$$$$
36:0
     RDKit          3D

 60 65  0  0  0  0  0  0  0  0999 V2000
    0.9247   28.2051  -26.1243 H   0  0  0  0  0  0  0  0  0  0  0  0
    0.0890   27.4950  -26.2100 C   0  0  0  0  0  0  0  0  0  0  0  0
   -0.9110   27.4760  -25.2380 C   0  0  0  0  0  0  0  0  0  0  0  0
   -0.8626   28.1709  -24.3867 H   0  0  0  0  0  0  0  0  0  0  0  0
   -1.9750   26.5750  -25.3440 C   0  0  0  0  0  0  0  0  0  0  0  0
   -2.7555   26.5536  -24.5692 H   0  0  0  0  0  0  0  0  0  0  0  0
   -2.0490   25.6980  -26.4370 C   0  0  0  0  0  0  0  0  0  0  0  0
   -1.0390   25.7140  -27.4170 C   0  0  0  0  0  0  0  0  0  0  0  0
    0.0310   26.6130  -27.2930 C   0  0  0  0  0  0  0  0  0  0  0  0
    0.8278   26.6239  -28.0513 H   0  0  0  0  0  0  0  0  0  0  0  0
   -1.0560   24.7310  -28.5620 C   0  0  0  0  0  0  0  0  0  0  0  0
   -0.7265   25.2523  -29.4729 H   0  0  0  0  0  0  0  0  0  0  0  0
   -0.3847   23.9040  -28.2874 H   0  0  0  0  0  0  0  0  0  0  0  0
   -2.3860   24.1430  -28.8160 N   0  0  0  0  0  0  0  0  0  0  0  0
   -2.5550   23.3220  -29.9890 C   0  0  0  0  0  0  0  0  0  0  0  0
   -1.6340   22.3740  -30.3120 N   0  0  0  0  0  0  0  0  0  0  0  0
   -1.8090   21.5850  -31.4030 C   0  0  0  0  0  0  0  0  0  0  0  0
   -0.9210   20.6720  -31.6740 N   0  0  0  0  0  0  0  0  0  0  0  0
   -0.9170   19.7820  -32.8020 C   0  0  0  0  0  0  0  0  0  0  0  0
   -1.7580   18.6640  -32.7800 C   0  0  0  0  0  0  0  0  0  0  0  0
   -2.4169   18.4942  -31.9157 H   0  0  0  0  0  0  0  0  0  0  0  0
   -1.7680   17.7610  -33.8470 C   0  0  0  0  0  0  0  0  0  0  0  0
   -2.4470   16.8958  -33.8264 H   0  0  0  0  0  0  0  0  0  0  0  0
   -0.9120   17.9550  -34.9480 C   0  0  0  0  0  0  0  0  0  0  0  0
   -0.8860   17.0810  -36.0450 O   0  0  0  0  0  0  0  0  0  0  0  0
   -0.9880   15.6640  -35.9470 C   0  0  0  0  0  0  0  0  0  0  0  0
   -1.0091   15.3703  -34.8871 H   0  0  0  0  0  0  0  0  0  0  0  0
   -1.9127   15.3280  -36.4391 H   0  0  0  0  0  0  0  0  0  0  0  0
   -0.1210   15.1991  -36.4391 H   0  0  0  0  0  0  0  0  0  0  0  0
   -0.0460   19.0540  -34.9530 C   0  0  0  0  0  0  0  0  0  0  0  0
    0.6345   19.2079  -35.8034 H   0  0  0  0  0  0  0  0  0  0  0  0
   -0.0380   19.9580  -33.8870 C   0  0  0  0  0  0  0  0  0  0  0  0
    0.6577   20.8100  -33.8961 H   0  0  0  0  0  0  0  0  0  0  0  0
   -2.9290   21.7280  -32.1620 N   0  0  0  0  0  0  0  0  0  0  0  0
   -3.8540   22.6680  -31.8470 C   0  0  0  0  0  0  0  0  0  0  0  0
   -5.0010   22.8020  -32.6380 O   0  0  0  0  0  0  0  0  0  0  0  0
   -6.2060   22.1480  -32.3540 C   0  0  0  0  0  0  0  0  0  0  0  0
   -7.2250   22.8850  -31.7400 C   0  0  0  0  0  0  0  0  0  0  0  0
   -7.0803   23.9582  -31.5471 H   0  0  0  0  0  0  0  0  0  0  0  0
   -8.4230   22.2720  -31.3700 C   0  0  0  0  0  0  0  0  0  0  0  0
   -9.2122   22.8624  -30.8815 H   0  0  0  0  0  0  0  0  0  0  0  0
   -8.6240   20.9140  -31.6170 C   0  0  0  0  0  0  0  0  0  0  0  0
   -9.5619   20.4325  -31.3031 H   0  0  0  0  0  0  0  0  0  0  0  0
   -7.6330   20.1600  -32.2650 C   0  0  0  0  0  0  0  0  0  0  0  0
   -7.8440   18.7980  -32.5320 C   0  0  0  0  0  0  0  0  0  0  0  0
   -8.7794   18.3152  -32.2127 H   0  0  0  0  0  0  0  0  0  0  0  0
   -6.8710   18.0550  -33.2010 C   0  0  0  0  0  0  0  0  0  0  0  0
   -7.0351   16.9847  -33.3948 H   0  0  0  0  0  0  0  0  0  0  0  0
   -5.6900   18.6660  -33.6250 C   0  0  0  0  0  0  0  0  0  0  0  0
   -4.9324   18.0786  -34.1645 H   0  0  0  0  0  0  0  0  0  0  0  0
   -5.4660   20.0210  -33.3670 C   0  0  0  0  0  0  0  0  0  0  0  0
   -4.5389   20.4979  -33.7178 H   0  0  0  0  0  0  0  0  0  0  0  0
   -6.4190   20.7800  -32.6610 C   0  0  0  0  0  0  0  0  0  0  0  0
   -3.6580   23.4660  -30.7660 N   0  0  0  0  0  0  0  0  0  0  0  0
   -3.5570   24.5060  -28.0030 C   0  0  0  0  0  0  0  0  0  0  0  0
   -3.9882   25.4407  -28.3908 H   0  0  0  0  0  0  0  0  0  0  0  0
   -4.2911   23.6889  -28.0620 H   0  0  0  0  0  0  0  0  0  0  0  0
   -3.1680   24.7050  -26.5400 C   0  0  0  0  0  0  0  0  0  0  0  0
   -4.0380   25.0772  -25.9792 H   0  0  0  0  0  0  0  0  0  0  0  0
   -2.8371   23.7435  -26.1205 H   0  0  0  0  0  0  0  0  0  0  0  0
  1  2  1  0
  2  3  2  0
  3  4  1  0
  3  5  1  0
  5  6  1  0
  5  7  2  0
  7  8  1  0
  8  9  2  0
  9 10  1  0
  8 11  1  0
 11 12  1  0
 11 13  1  0
 11 14  1  0
 14 15  1  0
 15 16  2  0
 16 17  1  0
 17 18  2  0
 18 19  1  0
 19 20  2  0
 20 21  1  0
 20 22  1  0
 22 23  1  0
 22 24  2  0
 24 25  1  0
 25 26  1  0
 26 27  1  0
 26 28  1  0
 26 29  1  0
 24 30  1  0
 30 31  1  0
 30 32  2  0
 32 33  1  0
 17 34  1  0
 34 35  2  0
 35 36  1  0
 36 37  1  0
 37 38  2  0
 38 39  1  0
 38 40  1  0
 40 41  1  0
 40 42  2  0
 42 43  1  0
 42 44  1  0
 44 45  2  0
 45 46  1  0
 45 47  1  0
 47 48  1  0
 47 49  2  0
 49 50  1  0
 49 51  1  0
 51 52  1  0
 51 53  2  0
 35 54  1  0
 14 55  1  0
 55 56  1  0
 55 57  1  0
 55 58  1  0
 58 59  1  0
 58 60  1  0
  9  2  1  0
 54 15  1  0
 58  7  1  0
 32 19  1  0
 53 37  1  0
 53 44  1  0
M  CHG  1  54  -1
M  END
>  <UniqueID>  (37) 
35

>  <SMILES>  (37) 
COc1ccc(/N=c2\nc(Oc3cccc4ccccc34)[n-]c(N3CCc4ccccc4C3)n2)cc1

>  <Energy>  (37) 
86.57356357488366

>  <Genealogy>  (37) 
COc1ccc(N=c2nc(Oc3cccc4ccccc34)[n-]c(N3CCc4ccccc4C3)n2)cc1 (protonated)
COc1ccc(/N=c2\nc(Oc3cccc4ccccc34)[n-]c(N3CCc4ccccc4C3)n2)cc1 (cis-trans isomerization)
COc1ccc(/N=c2\nc(Oc3cccc4ccccc34)[n-]c(N3CCc4ccccc4C3)n2)cc1 (3D coordinates assigned)
COc1ccc(/N=c2\nc(Oc3cccc4ccccc34)[n-]c(N3CCc4ccccc4C3)n2)cc1 (nonaromatic ring conformer: 86.57356357488366 kcal/mol)

>  <smiles>  (37) 
COc1ccc(N=c2nc(Oc3cccc4ccccc34)[nH]c(N3CCc4ccccc4C3)n2)cc1

>  <score_type>  (37) 
oracle

>  <origin>  (37) 
adgpu

>  <m_score__min__energy>  (37) 
-10.960000000000001

>  <m_primary>  (37) 
energy

$$$$
37:0
     RDKit          3D

 27 28  0  0  0  0  0  0  0  0999 V2000
   -5.6210   18.8930  -34.2480 C   0  0  0  0  0  0  0  0  0  0  0  0
   -6.6960   19.0070  -33.2230 C   0  0  0  0  0  0  0  0  0  0  0  0
   -7.0060   20.1610  -32.5910 N   0  0  0  0  0  0  0  0  0  0  0  0
   -7.9740   19.9780  -31.6530 C   0  0  0  0  0  0  0  0  0  0  0  0
   -8.5230   21.1170  -30.8590 C   0  0  0  0  0  0  0  0  0  0  0  0
   -8.7390   22.5640  -31.9440 S   0  0  0  0  0  0  0  0  0  0  0  0
   -7.2350   23.3620  -31.3820 C   0  0  0  0  0  0  0  0  0  0  0  0
   -5.9880   22.8860  -31.8060 C   0  0  0  0  0  0  0  0  0  0  0  0
   -4.8150   23.5070  -31.3660 C   0  0  0  0  0  0  0  0  0  0  0  0
   -4.8810   24.6070  -30.4980 C   0  0  0  0  0  0  0  0  0  0  0  0
   -3.6820   25.2410  -30.0480 N   0  0  0  0  0  0  0  0  0  0  0  0
   -6.1310   25.0770  -30.0720 C   0  0  0  0  0  0  0  0  0  0  0  0
   -7.3040   24.4560  -30.5120 C   0  0  0  0  0  0  0  0  0  0  0  0
   -8.4430   18.6720  -31.5320 C   0  0  0  0  0  0  0  0  0  0  0  0
   -7.5960   17.7190  -32.6270 S   0  0  0  0  0  0  0  0  0  0  0  0
   -4.6468   18.7897  -33.7477 H   0  0  0  0  0  0  0  0  0  0  0  0
   -5.8059   18.0094  -34.8766 H   0  0  0  0  0  0  0  0  0  0  0  0
   -5.6165   19.7957  -34.8766 H   0  0  0  0  0  0  0  0  0  0  0  0
   -9.4952   20.8310  -30.4312 H   0  0  0  0  0  0  0  0  0  0  0  0
   -7.8250   21.3683  -30.0468 H   0  0  0  0  0  0  0  0  0  0  0  0
   -5.9313   22.0230  -32.4857 H   0  0  0  0  0  0  0  0  0  0  0  0
   -3.8370   23.1316  -31.7017 H   0  0  0  0  0  0  0  0  0  0  0  0
   -3.0100   25.6610  -30.7300 H   0  0  0  0  0  0  0  0  0  0  0  0
   -3.4550   25.2980  -29.0300 H   0  0  0  0  0  0  0  0  0  0  0  0
   -6.1894   25.9374  -29.3891 H   0  0  0  0  0  0  0  0  0  0  0  0
   -8.2824   24.8279  -30.1738 H   0  0  0  0  0  0  0  0  0  0  0  0
   -9.2276   18.3262  -30.8429 H   0  0  0  0  0  0  0  0  0  0  0  0
  1  2  1  0
  2  3  2  0
  3  4  1  0
  4  5  1  0
  5  6  1  0
  6  7  1  0
  7  8  2  0
  8  9  1  0
  9 10  2  0
 10 11  1  0
 10 12  1  0
 12 13  2  0
  4 14  2  0
 14 15  1  0
 15  2  1  0
 13  7  1  0
  1 16  1  0
  1 17  1  0
  1 18  1  0
  5 19  1  0
  5 20  1  0
  8 21  1  0
  9 22  1  0
 11 23  1  0
 11 24  1  0
 12 25  1  0
 13 26  1  0
 14 27  1  0
M  END
>  <UniqueID>  (38) 
36

>  <SMILES>  (38) 
Cc1nc(CSc2ccc(N)cc2)cs1

>  <Energy>  (38) 
48.69387769751221

>  <Genealogy>  (38) 
Cc1nc(CSc2ccc(N)cc2)cs1 (3D coordinates assigned)
Cc1nc(CSc2ccc(N)cc2)cs1 (optimized conformer: 48.69387769751221 kcal/mol)

>  <smiles>  (38) 
Cc1nc(CSc2ccc(N)cc2)cs1

>  <score_type>  (38) 
oracle

>  <origin>  (38) 
adgpu

>  <m_score__min__energy>  (38) 
-7.1900000000000004

>  <m_primary>  (38) 
energy

$$$$
38:0
     RDKit          3D

 37 38  0  0  0  0  0  0  0  0999 V2000
   -1.1370   18.8900  -27.1310 C   0  0  0  0  0  0  0  0  0  0  0  0
   -1.7470   20.2250  -27.4380 C   0  0  0  0  0  0  0  0  0  0  0  0
   -2.8730   20.3240  -28.2710 C   0  0  0  0  0  0  0  0  0  0  0  0
   -3.4580   21.5690  -28.5190 C   0  0  0  0  0  0  0  0  0  0  0  0
   -2.9360   22.7260  -27.9230 C   0  0  0  0  0  0  0  0  0  0  0  0
   -3.6820   24.2990  -28.1970 S   0  0  0  0  0  0  0  0  0  0  0  0
   -3.9210   24.9330  -26.8550 O   0  0  0  0  0  0  0  0  0  0  0  0
   -2.7510   25.1830  -28.9810 O   0  0  0  0  0  0  0  0  0  0  0  0
   -5.1980   24.1210  -29.0500 N   0  0  1  0  0  0  0  0  0  0  0  0
   -5.9650   25.3690  -28.9700 C   0  0  0  0  0  0  0  0  0  0  0  0
   -4.9270   23.7050  -30.7260 S   0  0  0  0  0  0  0  0  0  0  0  0
   -3.5250   23.1870  -30.9040 O   0  0  0  0  0  0  0  0  0  0  0  0
   -5.0900   24.9310  -31.5800 O   0  0  0  0  0  0  0  0  0  0  0  0
   -6.0890   22.5010  -31.2770 C   0  0  0  0  0  0  0  0  0  0  0  0
   -7.3210   22.3750  -30.6200 C   0  0  0  0  0  0  0  0  0  0  0  0
   -8.2440   21.4110  -31.0360 C   0  0  0  0  0  0  0  0  0  0  0  0
   -7.9440   20.5730  -32.1160 C   0  0  0  0  0  0  0  0  0  0  0  0
   -9.0980   19.3570  -32.6310 Cl  0  0  0  0  0  0  0  0  0  0  0  0
   -6.7220   20.7050  -32.7820 C   0  0  0  0  0  0  0  0  0  0  0  0
   -5.7960   21.6660  -32.3660 C   0  0  0  0  0  0  0  0  0  0  0  0
   -1.8100   22.6280  -27.0960 C   0  0  0  0  0  0  0  0  0  0  0  0
   -1.2230   21.3840  -26.8480 C   0  0  0  0  0  0  0  0  0  0  0  0
   -1.0761   18.7567  -26.0408 H   0  0  0  0  0  0  0  0  0  0  0  0
   -1.7606   18.0937  -27.5635 H   0  0  0  0  0  0  0  0  0  0  0  0
   -0.1268   18.8403  -27.5635 H   0  0  0  0  0  0  0  0  0  0  0  0
   -3.2963   19.4184  -28.7301 H   0  0  0  0  0  0  0  0  0  0  0  0
   -4.3311   21.6414  -29.1842 H   0  0  0  0  0  0  0  0  0  0  0  0
   -5.7500   23.3560  -28.6010 H   0  0  0  0  0  0  0  0  0  0  0  0
   -6.1271   25.6327  -27.9145 H   0  0  0  0  0  0  0  0  0  0  0  0
   -5.4063   26.1753  -29.4678 H   0  0  0  0  0  0  0  0  0  0  0  0
   -6.9367   25.2347  -29.4678 H   0  0  0  0  0  0  0  0  0  0  0  0
   -7.5621   23.0365  -29.7748 H   0  0  0  0  0  0  0  0  0  0  0  0
   -9.2070   21.3110  -30.5139 H   0  0  0  0  0  0  0  0  0  0  0  0
   -6.4886   20.0512  -33.6353 H   0  0  0  0  0  0  0  0  0  0  0  0
   -4.8360   21.7678  -32.8932 H   0  0  0  0  0  0  0  0  0  0  0  0
   -1.3856   23.5343  -26.6395 H   0  0  0  0  0  0  0  0  0  0  0  0
   -0.3464   21.3140  -26.1873 H   0  0  0  0  0  0  0  0  0  0  0  0
  1  2  1  0
  2  3  2  0
  3  4  1  0
  4  5  2  0
  5  6  1  0
  6  7  2  0
  6  8  2  0
  6  9  1  0
  9 10  1  0
  9 11  1  0
 11 12  2  0
 11 13  2  0
 11 14  1  0
 14 15  2  0
 15 16  1  0
 16 17  2  0
 17 18  1  0
 17 19  1  0
 19 20  2  0
  5 21  1  0
 21 22  2  0
 22  2  1  0
 20 14  1  0
  1 23  1  0
  1 24  1  0
  1 25  1  0
  3 26  1  0
  4 27  1  0
  9 28  1  1
 10 29  1  0
 10 30  1  0
 10 31  1  0
 15 32  1  0
 16 33  1  0
 19 34  1  0
 20 35  1  0
 21 36  1  0
 22 37  1  0
M  CHG  1   9   1
M  END
>  <UniqueID>  (39) 
37

>  <SMILES>  (39) 
Cc1ccc(S(=O)(=O)[N@@H+](C)S(=O)(=O)c2ccc(Cl)cc2)cc1

>  <Energy>  (39) 
28.926438474506874

>  <Genealogy>  (39) 
Cc1ccc(S(=O)(=O)[NH+](C)S(=O)(=O)c2ccc(Cl)cc2)cc1 (protonated)
Cc1ccc(S(=O)(=O)[N@@H+](C)S(=O)(=O)c2ccc(Cl)cc2)cc1 (chirality)
Cc1ccc(S(=O)(=O)[N@@H+](C)S(=O)(=O)c2ccc(Cl)cc2)cc1 (3D coordinates assigned)
Cc1ccc(S(=O)(=O)[N@@H+](C)S(=O)(=O)c2ccc(Cl)cc2)cc1 (optimized conformer: 28.926438474506874 kcal/mol)

>  <smiles>  (39) 
Cc1ccc(S(=O)(=O)N(C)S(=O)(=O)c2ccc(Cl)cc2)cc1

>  <score_type>  (39) 
oracle

>  <origin>  (39) 
adgpu

>  <m_score__min__energy>  (39) 
-8.1500000000000004

>  <m_primary>  (39) 
energy

$$$$
39:0
     RDKit          3D

 49 51  0  0  0  0  0  0  0  0999 V2000
    0.7380   17.1110  -27.8290 C   0  0  0  0  0  0  0  0  0  0  0  0
   -0.1590   18.3040  -27.9560 C   0  0  0  0  0  0  0  0  0  0  0  0
   -1.0890   18.4730  -27.1170 O   0  0  0  0  0  0  0  0  0  0  0  0
    0.0740   19.2700  -28.9960 N   0  0  0  0  0  0  0  0  0  0  0  0
   -0.5630   20.5570  -29.0540 C   0  0  0  0  0  0  0  0  0  0  0  0
   -0.0460   21.6180  -28.2930 C   0  0  0  0  0  0  0  0  0  0  0  0
   -0.6820   22.8640  -28.2940 C   0  0  0  0  0  0  0  0  0  0  0  0
   -1.8530   23.0570  -29.0400 C   0  0  0  0  0  0  0  0  0  0  0  0
   -2.7520   24.5710  -28.9400 S   0  0  0  0  0  0  0  0  0  0  0  0
   -1.7870   25.6900  -28.6630 O   0  0  0  0  0  0  0  0  0  0  0  0
   -3.7830   24.5230  -27.8410 O   0  0  0  0  0  0  0  0  0  0  0  0
   -3.5440   24.8530  -30.4600 N   0  0  0  0  0  0  0  0  0  0  0  0
   -4.7950   24.2510  -30.8210 C   0  0  0  0  0  0  0  0  0  0  0  0
   -5.9820   24.5360  -30.1160 C   0  0  0  0  0  0  0  0  0  0  0  0
   -7.1560   23.8340  -30.4030 C   0  0  0  0  0  0  0  0  0  0  0  0
   -7.1620   22.8460  -31.3980 C   0  0  0  0  0  0  0  0  0  0  0  0
   -8.6100   21.8760  -31.6670 S   0  0  0  0  0  0  0  0  0  0  0  0
   -9.6890   22.7560  -32.2400 O   0  0  0  0  0  0  0  0  0  0  0  0
   -9.0950   21.3590  -30.3440 O   0  0  0  0  0  0  0  0  0  0  0  0
   -8.3270   20.5180  -32.7360 N   0  0  0  0  0  0  0  0  0  0  0  0
   -6.9580   19.9710  -32.6580 C   0  0  0  0  0  0  0  0  0  0  0  0
   -6.8300   18.8280  -31.6410 C   0  0  0  0  0  0  0  0  0  0  0  0
   -7.8050   17.8340  -31.8760 O   0  0  0  0  0  0  0  0  0  0  0  0
   -9.0830   18.3840  -31.6480 C   0  0  0  0  0  0  0  0  0  0  0  0
   -9.3880   19.4890  -32.6710 C   0  0  0  0  0  0  0  0  0  0  0  0
   -6.0030   22.6230  -32.1580 C   0  0  0  0  0  0  0  0  0  0  0  0
   -4.8240   23.3210  -31.8690 C   0  0  0  0  0  0  0  0  0  0  0  0
   -2.3740   21.9980  -29.7930 C   0  0  0  0  0  0  0  0  0  0  0  0
   -1.7380   20.7540  -29.7990 C   0  0  0  0  0  0  0  0  0  0  0  0
    0.9047   16.8893  -26.7646 H   0  0  0  0  0  0  0  0  0  0  0  0
    0.2661   16.2441  -28.3146 H   0  0  0  0  0  0  0  0  0  0  0  0
    1.7018   17.3236  -28.3146 H   0  0  0  0  0  0  0  0  0  0  0  0
    0.7230   19.0090  -29.7780 H   0  0  0  0  0  0  0  0  0  0  0  0
    0.8638   21.4686  -27.6930 H   0  0  0  0  0  0  0  0  0  0  0  0
   -0.2620   23.6946  -27.7078 H   0  0  0  0  0  0  0  0  0  0  0  0
   -5.9843   25.3133  -29.3376 H   0  0  0  0  0  0  0  0  0  0  0  0
   -8.0782   24.0573  -29.8465 H   0  0  0  0  0  0  0  0  0  0  0  0
   -6.6743   19.5913  -33.6507 H   0  0  0  0  0  0  0  0  0  0  0  0
   -6.2953   20.7841  -32.3269 H   0  0  0  0  0  0  0  0  0  0  0  0
   -5.8296   18.3790  -31.7276 H   0  0  0  0  0  0  0  0  0  0  0  0
   -6.9809   19.2371  -30.6311 H   0  0  0  0  0  0  0  0  0  0  0  0
   -9.8392   17.5901  -31.7375 H   0  0  0  0  0  0  0  0  0  0  0  0
   -9.1058   18.8201  -30.6384 H   0  0  0  0  0  0  0  0  0  0  0  0
   -9.4929   19.0290  -33.6647 H   0  0  0  0  0  0  0  0  0  0  0  0
  -10.3150   19.9884  -32.3530 H   0  0  0  0  0  0  0  0  0  0  0  0
   -6.0211   21.8969  -32.9841 H   0  0  0  0  0  0  0  0  0  0  0  0
   -3.9183   23.1389  -32.4661 H   0  0  0  0  0  0  0  0  0  0  0  0
   -3.2900   22.1463  -30.3837 H   0  0  0  0  0  0  0  0  0  0  0  0
   -2.1584   19.9262  -30.3888 H   0  0  0  0  0  0  0  0  0  0  0  0
  1  2  1  0
  2  3  2  0
  2  4  1  0
  4  5  1  0
  5  6  2  0
  6  7  1  0
  7  8  2  0
  8  9  1  0
  9 10  2  0
  9 11  2  0
  9 12  1  0
 12 13  1  0
 13 14  2  0
 14 15  1  0
 15 16  2  0
 16 17  1  0
 17 18  2  0
 17 19  2  0
 17 20  1  0
 20 21  1  0
 21 22  1  0
 22 23  1  0
 23 24  1  0
 24 25  1  0
 16 26  1  0
 26 27  2  0
  8 28  1  0
 28 29  2  0
 29  5  1  0
 27 13  1  0
 25 20  1  0
  1 30  1  0
  1 31  1  0
  1 32  1  0
  4 33  1  0
  6 34  1  0
  7 35  1  0
 14 36  1  0
 15 37  1  0
 21 38  1  0
 21 39  1  0
 22 40  1  0
 22 41  1  0
 24 42  1  0
 24 43  1  0
 25 44  1  0
 25 45  1  0
 26 46  1  0
 27 47  1  0
 28 48  1  0
 29 49  1  0
M  CHG  1  12  -1
M  END
>  <UniqueID>  (40) 
38

>  <SMILES>  (40) 
CC(=O)Nc1ccc(S(=O)(=O)[N-]c2ccc(S(=O)(=O)N3CCOCC3)cc2)cc1

>  <Energy>  (40) 
59.821547260734114

>  <Genealogy>  (40) 
CC(=O)Nc1ccc(S(=O)(=O)[N-]c2ccc(S(=O)(=O)N3CCOCC3)cc2)cc1 (protonated)
CC(=O)Nc1ccc(S(=O)(=O)[N-]c2ccc(S(=O)(=O)N3CCOCC3)cc2)cc1 (3D coordinates assigned)
CC(=O)Nc1ccc(S(=O)(=O)[N-]c2ccc(S(=O)(=O)N3CCOCC3)cc2)cc1 (nonaromatic ring conformer: 59.821547260734114 kcal/mol)

>  <smiles>  (40) 
CC(=O)Nc1ccc(S(=O)(=O)Nc2ccc(S(=O)(=O)N3CCOCC3)cc2)cc1

>  <score_type>  (40) 
oracle

>  <origin>  (40) 
adgpu

>  <m_score__min__energy>  (40) 
-11.300000000000001

>  <m_primary>  (40) 
energy

$$$$
40:0
     RDKit          3D

 55 58  0  0  0  0  0  0  0  0999 V2000
   -5.3490   26.4010  -30.4710 O   0  0  0  0  0  0  0  0  0  0  0  0
   -5.0000   25.1930  -30.5550 C   0  0  0  0  0  0  0  0  0  0  0  0
   -3.6060   24.8780  -30.4770 N   0  0  0  0  0  0  0  0  0  0  0  0
   -3.0390   23.5570  -30.5050 C   0  0  0  0  0  0  0  0  0  0  0  0
   -3.3200   22.6650  -31.5550 C   0  0  0  0  0  0  0  0  0  0  0  0
   -2.8470   21.3450  -31.5150 C   0  0  0  0  0  0  0  0  0  0  0  0
   -3.2610   20.2040  -32.8000 S   0  0  0  0  0  0  0  0  0  0  0  0
   -2.6580   20.6820  -34.0930 O   0  0  0  0  0  0  0  0  0  0  0  0
   -2.6670   18.8590  -32.4810 O   0  0  0  0  0  0  0  0  0  0  0  0
   -4.9890   20.0370  -32.9960 N   0  0  0  0  0  0  0  0  0  0  0  0
   -5.6070   19.5950  -31.7340 C   0  0  0  0  0  0  0  0  0  0  0  0
   -7.0360   19.0830  -31.9830 C   0  0  0  0  0  0  0  0  0  0  0  0
   -7.1400   18.0320  -32.9340 O   0  0  0  0  0  0  0  0  0  0  0  0
   -5.9710   17.8490  -33.7180 C   0  0  0  0  0  0  0  0  0  0  0  0
   -5.3300   19.1780  -34.1500 C   0  0  0  0  0  0  0  0  0  0  0  0
   -2.0900   20.9150  -30.4190 C   0  0  0  0  0  0  0  0  0  0  0  0
   -1.8070   21.7930  -29.3730 C   0  0  0  0  0  0  0  0  0  0  0  0
   -2.2810   23.1130  -29.4060 C   0  0  0  0  0  0  0  0  0  0  0  0
   -1.9920   24.0070  -28.3180 N   0  0  0  0  0  0  0  0  0  0  0  0
   -2.7710   23.9200  -27.0820 C   0  0  0  0  0  0  0  0  0  0  0  0
   -2.7410   25.2790  -26.3850 C   0  0  0  0  0  0  0  0  0  0  0  0
   -1.4040   25.6820  -26.1650 O   0  0  0  0  0  0  0  0  0  0  0  0
   -0.7710   25.9410  -27.4050 C   0  0  0  0  0  0  0  0  0  0  0  0
   -0.6910   24.6780  -28.2740 C   0  0  0  0  0  0  0  0  0  0  0  0
   -6.0210   24.1500  -30.8090 C   0  0  0  0  0  0  0  0  0  0  0  0
   -6.7680   24.1800  -32.0020 C   0  0  0  0  0  0  0  0  0  0  0  0
   -7.7730   23.2400  -32.2320 C   0  0  0  0  0  0  0  0  0  0  0  0
   -8.0320   22.2460  -31.2880 C   0  0  0  0  0  0  0  0  0  0  0  0
   -7.2920   22.1950  -30.1050 C   0  0  0  0  0  0  0  0  0  0  0  0
   -6.2870   23.1420  -29.8570 C   0  0  0  0  0  0  0  0  0  0  0  0
   -5.5470   23.0740  -28.6760 O   0  0  0  0  0  0  0  0  0  0  0  0
   -3.9157   23.0051  -32.4149 H   0  0  0  0  0  0  0  0  0  0  0  0
   -5.0029   18.7848  -31.2997 H   0  0  0  0  0  0  0  0  0  0  0  0
   -5.6511   20.4488  -31.0418 H   0  0  0  0  0  0  0  0  0  0  0  0
   -7.4396   18.7191  -31.0266 H   0  0  0  0  0  0  0  0  0  0  0  0
   -7.5985   19.9315  -32.3997 H   0  0  0  0  0  0  0  0  0  0  0  0
   -5.2373   17.2803  -33.1278 H   0  0  0  0  0  0  0  0  0  0  0  0
   -6.2652   17.3107  -34.6310 H   0  0  0  0  0  0  0  0  0  0  0  0
   -4.4105   18.9608  -34.7134 H   0  0  0  0  0  0  0  0  0  0  0  0
   -6.0612   19.7193  -34.7684 H   0  0  0  0  0  0  0  0  0  0  0  0
   -1.7169   19.8808  -30.3825 H   0  0  0  0  0  0  0  0  0  0  0  0
   -1.2085   21.4484  -28.5169 H   0  0  0  0  0  0  0  0  0  0  0  0
   -3.8104   23.6485  -27.3184 H   0  0  0  0  0  0  0  0  0  0  0  0
   -2.3411   23.1519  -26.4223 H   0  0  0  0  0  0  0  0  0  0  0  0
   -3.2462   26.0237  -27.0176 H   0  0  0  0  0  0  0  0  0  0  0  0
   -3.2571   25.1989  -25.4169 H   0  0  0  0  0  0  0  0  0  0  0  0
   -1.3439   26.7096  -27.9444 H   0  0  0  0  0  0  0  0  0  0  0  0
    0.2542   26.2845  -27.2025 H   0  0  0  0  0  0  0  0  0  0  0  0
   -0.3929   24.9585  -29.2950 H   0  0  0  0  0  0  0  0  0  0  0  0
    0.0507   23.9916  -27.8395 H   0  0  0  0  0  0  0  0  0  0  0  0
   -6.5577   24.9504  -32.7585 H   0  0  0  0  0  0  0  0  0  0  0  0
   -8.3625   23.2827  -33.1597 H   0  0  0  0  0  0  0  0  0  0  0  0
   -8.8199   21.5017  -31.4758 H   0  0  0  0  0  0  0  0  0  0  0  0
   -7.4980   21.4086  -29.3640 H   0  0  0  0  0  0  0  0  0  0  0  0
   -5.4020   23.8920  -28.0940 H   0  0  0  0  0  0  0  0  0  0  0  0
  1  2  2  0
  2  3  1  0
  3  4  1  0
  4  5  2  0
  5  6  1  0
  6  7  1  0
  7  8  2  0
  7  9  2  0
  7 10  1  0
 10 11  1  0
 11 12  1  0
 12 13  1  0
 13 14  1  0
 14 15  1  0
  6 16  2  0
 16 17  1  0
 17 18  2  0
 18 19  1  0
 19 20  1  0
 20 21  1  0
 21 22  1  0
 22 23  1  0
 23 24  1  0
  2 25  1  0
 25 26  2  0
 26 27  1  0
 27 28  2  0
 28 29  1  0
 29 30  2  0
 30 31  1  0
 18  4  1  0
 24 19  1  0
 30 25  1  0
 15 10  1  0
  5 32  1  0
 11 33  1  0
 11 34  1  0
 12 35  1  0
 12 36  1  0
 14 37  1  0
 14 38  1  0
 15 39  1  0
 15 40  1  0
 16 41  1  0
 17 42  1  0
 20 43  1  0
 20 44  1  0
 21 45  1  0
 21 46  1  0
 23 47  1  0
 23 48  1  0
 24 49  1  0
 24 50  1  0
 26 51  1  0
 27 52  1  0
 28 53  1  0
 29 54  1  0
 31 55  1  0
M  CHG  1   3  -1
M  END
>  <UniqueID>  (41) 
39

>  <SMILES>  (41) 
O=C([N-]c1cc(S(=O)(=O)N2CCOCC2)ccc1N1CCOCC1)c1ccccc1O

>  <Energy>  (41) 
80.62973857880932

>  <Genealogy>  (41) 
O=C([N-]c1cc(S(=O)(=O)N2CCOCC2)ccc1N1CCOCC1)c1ccccc1O (protonated)
O=C([N-]c1cc(S(=O)(=O)N2CCOCC2)ccc1N1CCOCC1)c1ccccc1O (3D coordinates assigned)
O=C([N-]c1cc(S(=O)(=O)N2CCOCC2)ccc1N1CCOCC1)c1ccccc1O (nonaromatic ring conformer: 80.62973857880932 kcal/mol)

>  <smiles>  (41) 
O=C(Nc1cc(S(=O)(=O)N2CCOCC2)ccc1N1CCOCC1)c1ccccc1O

>  <score_type>  (41) 
oracle

>  <origin>  (41) 
adgpu

>  <m_score__min__energy>  (41) 
-10.9

>  <m_primary>  (41) 
energy

$$$$
41:0
     RDKit          3D

 44 46  0  0  0  0  0  0  0  0999 V2000
   -5.6250   25.0310  -28.9280 O   0  0  0  0  0  0  0  0  0  0  0  0
   -5.2140   24.9040  -30.3670 S   0  0  0  0  0  0  0  0  0  0  0  0
   -5.7560   26.0860  -31.1220 O   0  0  0  0  0  0  0  0  0  0  0  0
   -3.4750   24.9060  -30.4620 N   0  0  0  0  0  0  0  0  0  0  0  0
   -2.8810   23.9670  -29.5060 C   0  0  0  0  0  0  0  0  0  0  0  0
   -2.3030   24.6870  -28.3170 C   0  0  0  0  0  0  0  0  0  0  0  0
   -2.9280   24.6190  -27.0630 C   0  0  0  0  0  0  0  0  0  0  0  0
   -2.3710   25.2820  -25.9690 C   0  0  0  0  0  0  0  0  0  0  0  0
   -1.1930   26.0140  -26.1400 C   0  0  0  0  0  0  0  0  0  0  0  0
   -0.6010   26.0740  -27.3620 N   0  0  0  0  0  0  0  0  0  0  0  0
   -1.1240   25.4360  -28.4430 C   0  0  0  0  0  0  0  0  0  0  0  0
   -5.8870   23.4080  -31.0150 C   0  0  0  0  0  0  0  0  0  0  0  0
   -7.0450   23.4530  -31.8020 C   0  0  0  0  0  0  0  0  0  0  0  0
   -7.6060   22.2730  -32.2960 C   0  0  0  0  0  0  0  0  0  0  0  0
   -7.0110   21.0370  -32.0090 C   0  0  0  0  0  0  0  0  0  0  0  0
   -7.7240   19.5350  -32.5960 S   0  0  0  0  0  0  0  0  0  0  0  0
   -7.8290   18.5420  -31.4710 O   0  0  0  0  0  0  0  0  0  0  0  0
   -9.1060   19.8310  -33.1080 O   0  0  0  0  0  0  0  0  0  0  0  0
   -6.7410   18.8790  -33.8880 N   0  0  0  0  0  0  0  0  0  0  0  0
   -6.6740   17.4150  -33.8090 C   0  0  0  0  0  0  0  0  0  0  0  0
   -5.4250   17.0520  -33.0180 C   0  0  0  0  0  0  0  0  0  0  0  0
   -4.5690   18.3060  -33.0030 C   0  0  0  0  0  0  0  0  0  0  0  0
   -5.3530   19.3480  -33.7900 C   0  0  0  0  0  0  0  0  0  0  0  0
   -5.8540   20.9920  -31.2220 C   0  0  0  0  0  0  0  0  0  0  0  0
   -5.2920   22.1720  -30.7280 C   0  0  0  0  0  0  0  0  0  0  0  0
   -3.6578   23.2696  -29.1594 H   0  0  0  0  0  0  0  0  0  0  0  0
   -2.0682   23.4252  -30.0118 H   0  0  0  0  0  0  0  0  0  0  0  0
   -3.8573   24.0429  -26.9422 H   0  0  0  0  0  0  0  0  0  0  0  0
   -2.8541   25.2291  -24.9822 H   0  0  0  0  0  0  0  0  0  0  0  0
   -0.7447   26.5418  -25.2854 H   0  0  0  0  0  0  0  0  0  0  0  0
   -0.6211   25.5075  -29.4187 H   0  0  0  0  0  0  0  0  0  0  0  0
   -7.5142   24.4210  -32.0318 H   0  0  0  0  0  0  0  0  0  0  0  0
   -8.5167   22.3140  -32.9116 H   0  0  0  0  0  0  0  0  0  0  0  0
   -7.1580   19.1740  -34.8020 H   0  0  0  0  0  0  0  0  0  0  0  0
   -7.5673   17.0259  -33.2985 H   0  0  0  0  0  0  0  0  0  0  0  0
   -6.6336   16.9758  -34.8167 H   0  0  0  0  0  0  0  0  0  0  0  0
   -5.6926   16.7580  -31.9923 H   0  0  0  0  0  0  0  0  0  0  0  0
   -4.8918   16.2020  -33.4688 H   0  0  0  0  0  0  0  0  0  0  0  0
   -4.4066   18.6474  -31.9700 H   0  0  0  0  0  0  0  0  0  0  0  0
   -3.5768   18.1262  -33.4426 H   0  0  0  0  0  0  0  0  0  0  0  0
   -5.3200   20.3155  -33.2677 H   0  0  0  0  0  0  0  0  0  0  0  0
   -4.9191   19.4823  -34.7918 H   0  0  0  0  0  0  0  0  0  0  0  0
   -5.3855   20.0238  -30.9916 H   0  0  0  0  0  0  0  0  0  0  0  0
   -4.3810   22.1308  -30.1128 H   0  0  0  0  0  0  0  0  0  0  0  0
  1  2  2  0
  2  3  2  0
  2  4  1  0
  4  5  1  0
  5  6  1  0
  6  7  2  0
  7  8  1  0
  8  9  2  0
  9 10  1  0
 10 11  2  0
  2 12  1  0
 12 13  2  0
 13 14  1  0
 14 15  2  0
 15 16  1  0
 16 17  2  0
 16 18  2  0
 16 19  1  0
 19 20  1  0
 20 21  1  0
 21 22  1  0
 22 23  1  0
 15 24  1  0
 24 25  2  0
 11  6  1  0
 25 12  1  0
 23 19  1  0
  5 26  1  0
  5 27  1  0
  7 28  1  0
  8 29  1  0
  9 30  1  0
 11 31  1  0
 13 32  1  0
 14 33  1  0
 19 34  1  0
 20 35  1  0
 20 36  1  0
 21 37  1  0
 21 38  1  0
 22 39  1  0
 22 40  1  0
 23 41  1  0
 23 42  1  0
 24 43  1  0
 25 44  1  0
M  CHG  2   4  -1  19   1
M  END
>  <UniqueID>  (42) 
40

>  <SMILES>  (42) 
O=S(=O)([N-]Cc1cccnc1)c1ccc(S(=O)(=O)[NH+]2CCCC2)cc1

>  <Energy>  (42) 
45.47899992747336

>  <Genealogy>  (42) 
O=S(=O)([N-]Cc1cccnc1)c1ccc(S(=O)(=O)[NH+]2CCCC2)cc1 (protonated)
O=S(=O)([N-]Cc1cccnc1)c1ccc(S(=O)(=O)[NH+]2CCCC2)cc1 (3D coordinates assigned)
O=S(=O)([N-]Cc1cccnc1)c1ccc(S(=O)(=O)[NH+]2CCCC2)cc1 (nonaromatic ring conformer: 45.47899992747336 kcal/mol)

>  <smiles>  (42) 
O=S(=O)(NCc1cccnc1)c1ccc(S(=O)(=O)N2CCCC2)cc1

>  <score_type>  (42) 
oracle

>  <origin>  (42) 
adgpu

>  <m_score__min__energy>  (42) 
-10.619999999999999

>  <m_primary>  (42) 
energy

$$$$
42:0
     RDKit          3D

 55 58  0  0  0  0  0  0  0  0999 V2000
    0.2840   16.8950  -29.9680 C   0  0  0  0  0  0  0  0  0  0  0  0
    0.2700   18.1970  -29.3140 N   0  0  0  0  0  0  0  0  0  0  0  0
    0.6340   19.3630  -29.8810 C   0  0  0  0  0  0  0  0  0  0  0  0
    0.4100   20.3820  -28.9760 C   0  0  0  0  0  0  0  0  0  0  0  0
   -0.1110   19.7310  -27.8660 C   0  0  0  0  0  0  0  0  0  0  0  0
   -0.4760   20.2740  -26.7430 N   0  0  0  0  0  0  0  0  0  0  0  0
   -0.4230   21.9750  -26.3870 S   0  0  0  0  0  0  0  0  0  0  0  0
    1.0110   22.4200  -26.4510 O   0  0  0  0  0  0  0  0  0  0  0  0
   -0.9450   22.2140  -24.9970 O   0  0  0  0  0  0  0  0  0  0  0  0
   -1.3570   22.9170  -27.5490 C   0  0  0  0  0  0  0  0  0  0  0  0
   -0.8180   24.1080  -28.0620 C   0  0  0  0  0  0  0  0  0  0  0  0
   -1.5480   24.8780  -28.9760 C   0  0  0  0  0  0  0  0  0  0  0  0
   -2.8320   24.4820  -29.3650 C   0  0  0  0  0  0  0  0  0  0  0  0
   -3.5730   25.2890  -30.2900 N   0  0  0  0  0  0  0  0  0  0  0  0
   -4.9830   25.1630  -30.5050 C   0  0  0  0  0  0  0  0  0  0  0  0
   -5.7330   26.1470  -30.2750 O   0  0  0  0  0  0  0  0  0  0  0  0
   -5.5680   23.8890  -30.9700 C   0  0  0  0  0  0  0  0  0  0  0  0
   -6.9400   23.6400  -30.8210 C   0  0  0  0  0  0  0  0  0  0  0  0
   -7.5060   22.4750  -31.3500 C   0  0  0  0  0  0  0  0  0  0  0  0
   -6.7000   21.5320  -32.0060 C   0  0  0  0  0  0  0  0  0  0  0  0
   -7.4240   20.1000  -32.7400 S   0  0  0  0  0  0  0  0  0  0  0  0
   -8.9220   20.1710  -32.6140 O   0  0  0  0  0  0  0  0  0  0  0  0
   -7.0720   20.0820  -34.2030 O   0  0  0  0  0  0  0  0  0  0  0  0
   -6.8020   18.6660  -31.9390 N   0  0  0  0  0  0  0  0  0  0  0  0
   -7.5370   17.4580  -32.3590 C   0  0  0  0  0  0  0  0  0  0  0  0
   -6.7080   16.7510  -33.4330 C   0  0  0  0  0  0  0  0  0  0  0  0
   -5.4000   17.5200  -33.5170 C   0  0  0  0  0  0  0  0  0  0  0  0
   -5.3980   18.4140  -32.2910 C   0  0  0  0  0  0  0  0  0  0  0  0
   -5.3210   21.7580  -32.1100 C   0  0  0  0  0  0  0  0  0  0  0  0
   -4.7610   22.9350  -31.6080 C   0  0  0  0  0  0  0  0  0  0  0  0
   -3.3610   23.2750  -28.8700 C   0  0  0  0  0  0  0  0  0  0  0  0
   -2.6250   22.4990  -27.9700 C   0  0  0  0  0  0  0  0  0  0  0  0
   -0.1950   18.4070  -28.0930 N   0  0  0  0  0  0  0  0  0  0  0  0
    0.2925   16.1019  -29.2058 H   0  0  0  0  0  0  0  0  0  0  0  0
   -0.6131   16.7904  -30.5960 H   0  0  0  0  0  0  0  0  0  0  0  0
    1.1831   16.8097  -30.5960 H   0  0  0  0  0  0  0  0  0  0  0  0
    1.0417   19.4837  -30.8955 H   0  0  0  0  0  0  0  0  0  0  0  0
    0.6000   21.4578  -29.1046 H   0  0  0  0  0  0  0  0  0  0  0  0
    0.1822   24.4376  -27.7444 H   0  0  0  0  0  0  0  0  0  0  0  0
   -1.1098   25.7982  -29.3898 H   0  0  0  0  0  0  0  0  0  0  0  0
   -7.5734   24.3632  -30.2863 H   0  0  0  0  0  0  0  0  0  0  0  0
   -8.5871   22.2975  -31.2513 H   0  0  0  0  0  0  0  0  0  0  0  0
   -6.8910   18.8000  -30.9020 H   0  0  0  0  0  0  0  0  0  0  0  0
   -7.6801   16.7894  -31.4973 H   0  0  0  0  0  0  0  0  0  0  0  0
   -8.5257   17.7307  -32.7567 H   0  0  0  0  0  0  0  0  0  0  0  0
   -6.5204   15.7058  -33.1462 H   0  0  0  0  0  0  0  0  0  0  0  0
   -7.2301   16.7319  -34.4010 H   0  0  0  0  0  0  0  0  0  0  0  0
   -4.5430   16.8308  -33.4956 H   0  0  0  0  0  0  0  0  0  0  0  0
   -5.3150   18.0950  -34.4509 H   0  0  0  0  0  0  0  0  0  0  0  0
   -4.8844   17.9114  -31.4582 H   0  0  0  0  0  0  0  0  0  0  0  0
   -4.8696   19.3571  -32.4945 H   0  0  0  0  0  0  0  0  0  0  0  0
   -4.6770   21.0056  -32.5888 H   0  0  0  0  0  0  0  0  0  0  0  0
   -3.6810   23.1150  -31.7135 H   0  0  0  0  0  0  0  0  0  0  0  0
   -4.3581   22.9410  -29.1929 H   0  0  0  0  0  0  0  0  0  0  0  0
   -3.0442   21.5554  -27.5907 H   0  0  0  0  0  0  0  0  0  0  0  0
  1  2  1  0
  2  3  1  0
  3  4  2  0
  4  5  1  0
  5  6  2  3
  6  7  1  0
  7  8  2  0
  7  9  2  0
  7 10  1  0
 10 11  2  0
 11 12  1  0
 12 13  2  0
 13 14  1  0
 14 15  1  0
 15 16  2  0
 15 17  1  0
 17 18  2  0
 18 19  1  0
 19 20  2  0
 20 21  1  0
 21 22  2  0
 21 23  2  0
 21 24  1  0
 24 25  1  0
 25 26  1  0
 26 27  1  0
 27 28  1  0
 20 29  1  0
 29 30  2  0
 13 31  1  0
 31 32  2  0
  5 33  1  0
 33  2  1  0
 32 10  1  0
 30 17  1  0
 28 24  1  0
  1 34  1  0
  1 35  1  0
  1 36  1  0
  3 37  1  0
  4 38  1  0
 11 39  1  0
 12 40  1  0
 18 41  1  0
 19 42  1  0
 24 43  1  0
 25 44  1  0
 25 45  1  0
 26 46  1  0
 26 47  1  0
 27 48  1  0
 27 49  1  0
 28 50  1  0
 28 51  1  0
 29 52  1  0
 30 53  1  0
 31 54  1  0
 32 55  1  0
M  CHG  3  14  -1  24   1  33  -1
M  END
>  <UniqueID>  (43) 
41

>  <SMILES>  (43) 
Cn1ccc(=NS(=O)(=O)c2ccc([N-]C(=O)c3ccc(S(=O)(=O)[NH+]4CCCC4)cc3)cc2)[n-]1

>  <Energy>  (43) 
100.3283303512664

>  <Genealogy>  (43) 
Cn1ccc(=NS(=O)(=O)c2ccc([N-]C(=O)c3ccc(S(=O)(=O)[NH+]4CCCC4)cc3)cc2)[n-]1 (protonated)
Cn1ccc(=NS(=O)(=O)c2ccc([N-]C(=O)c3ccc(S(=O)(=O)[NH+]4CCCC4)cc3)cc2)[n-]1 (3D coordinates assigned)
Cn1ccc(=NS(=O)(=O)c2ccc([N-]C(=O)c3ccc(S(=O)(=O)[NH+]4CCCC4)cc3)cc2)[n-]1 (nonaromatic ring conformer: 100.3283303512664 kcal/mol)

>  <smiles>  (43) 
Cn1ccc(=NS(=O)(=O)c2ccc(NC(=O)c3ccc(S(=O)(=O)N4CCCC4)cc3)cc2)[nH]1

>  <score_type>  (43) 
oracle

>  <origin>  (43) 
adgpu

>  <m_score__min__energy>  (43) 
-12.390000000000001

>  <m_primary>  (43) 
energy

$$$$
43:0
     RDKit          3D

 54 57  0  0  0  0  0  0  0  0999 V2000
   -1.2815   18.9150  -26.4803 H   0  0  0  0  0  0  0  0  0  0  0  0
   -1.4160   19.6720  -27.2670 C   0  0  0  0  0  0  0  0  0  0  0  0
   -1.1110   19.3620  -28.5900 C   0  0  0  0  0  0  0  0  0  0  0  0
   -0.7452   18.3562  -28.8442 H   0  0  0  0  0  0  0  0  0  0  0  0
   -1.2660   20.3190  -29.5980 C   0  0  0  0  0  0  0  0  0  0  0  0
   -0.8970   19.8170  -31.2470 Cl  0  0  0  0  0  0  0  0  0  0  0  0
   -1.7260   21.6230  -29.2770 C   0  0  0  0  0  0  0  0  0  0  0  0
   -1.8820   22.6890  -30.3470 C   0  0  0  0  0  0  0  0  0  0  0  0
   -1.4330   22.3215  -31.2815 H   0  0  0  0  0  0  0  0  0  0  0  0
   -1.3779   23.6002  -29.9926 H   0  0  0  0  0  0  0  0  0  0  0  0
   -3.3350   23.0310  -30.6050 C   0  0  0  0  0  0  0  0  0  0  0  0
   -3.8360   24.3130  -30.3270 C   0  0  0  0  0  0  0  0  0  0  0  0
   -3.0210   25.2980  -29.7770 O   0  0  0  0  0  0  0  0  0  0  0  0
   -5.1740   24.5920  -30.6250 C   0  0  0  0  0  0  0  0  0  0  0  0
   -5.7580   25.9440  -30.3520 C   0  0  0  0  0  0  0  0  0  0  0  0
   -5.8260   26.1014  -29.2655 H   0  0  0  0  0  0  0  0  0  0  0  0
   -5.1139   26.7179  -30.7950 H   0  0  0  0  0  0  0  0  0  0  0  0
   -6.7630   26.0056  -30.7950 H   0  0  0  0  0  0  0  0  0  0  0  0
   -5.9520   23.6270  -31.1750 N   0  0  0  0  0  0  0  0  0  0  0  0
   -5.4710   22.3860  -31.4390 C   0  0  0  0  0  0  0  0  0  0  0  0
   -6.2700   21.5130  -31.9860 N   0  0  0  0  0  0  0  0  0  0  0  0
   -5.9790   20.1330  -32.2480 C   0  0  0  0  0  0  0  0  0  0  0  0
   -6.7970   19.1170  -31.7360 C   0  0  0  0  0  0  0  0  0  0  0  0
   -7.6601   19.3740  -31.1043 H   0  0  0  0  0  0  0  0  0  0  0  0
   -6.5200   17.7800  -32.0250 C   0  0  0  0  0  0  0  0  0  0  0  0
   -7.1571   16.9875  -31.6055 H   0  0  0  0  0  0  0  0  0  0  0  0
   -5.4370   17.4400  -32.8450 C   0  0  0  0  0  0  0  0  0  0  0  0
   -5.1700   16.0540  -33.0980 N   0  0  0  0  0  0  0  0  0  0  0  0
   -4.1340   15.3440  -32.3480 C   0  0  0  0  0  0  0  0  0  0  0  0
   -3.1959   15.3483  -32.9224 H   0  0  0  0  0  0  0  0  0  0  0  0
   -3.9707   15.8427  -31.3812 H   0  0  0  0  0  0  0  0  0  0  0  0
   -4.5830   13.9000  -32.1120 C   0  0  0  0  0  0  0  0  0  0  0  0
   -3.7523   13.3319  -31.6680 H   0  0  0  0  0  0  0  0  0  0  0  0
   -5.4484   13.9061  -31.4330 H   0  0  0  0  0  0  0  0  0  0  0  0
   -4.9660   13.2870  -33.3310 O   0  0  0  0  0  0  0  0  0  0  0  0
   -6.1150   13.9290  -33.8540 C   0  0  0  0  0  0  0  0  0  0  0  0
   -6.4548   13.3871  -34.7489 H   0  0  0  0  0  0  0  0  0  0  0  0
   -6.9004   13.9277  -33.0838 H   0  0  0  0  0  0  0  0  0  0  0  0
   -5.8030   15.3800  -34.2340 C   0  0  0  0  0  0  0  0  0  0  0  0
   -5.1206   15.3951  -35.0966 H   0  0  0  0  0  0  0  0  0  0  0  0
   -6.7359   15.9001  -34.4971 H   0  0  0  0  0  0  0  0  0  0  0  0
   -4.6420   18.4610  -33.4120 C   0  0  0  0  0  0  0  0  0  0  0  0
   -3.4770   18.1380  -34.3070 C   0  0  0  0  0  0  0  0  0  0  0  0
   -2.5984   17.8944  -33.6916 H   0  0  0  0  0  0  0  0  0  0  0  0
   -3.7303   17.2762  -34.9419 H   0  0  0  0  0  0  0  0  0  0  0  0
   -3.2504   19.0072  -34.9419 H   0  0  0  0  0  0  0  0  0  0  0  0
   -4.9220   19.8030  -33.1030 C   0  0  0  0  0  0  0  0  0  0  0  0
   -4.3037   20.6022  -33.5379 H   0  0  0  0  0  0  0  0  0  0  0  0
   -4.1610   22.0980  -31.1660 N   0  0  0  0  0  0  0  0  0  0  0  0
   -3.7600   21.1690  -31.4200 H   0  0  0  0  0  0  0  0  0  0  0  0
   -2.0530   21.9130  -27.9300 C   0  0  0  0  0  0  0  0  0  0  0  0
   -2.7020   23.4750  -27.4380 Cl  0  0  0  0  0  0  0  0  0  0  0  0
   -1.8910   20.9390  -26.9390 C   0  0  0  0  0  0  0  0  0  0  0  0
   -2.1404   21.1756  -25.8941 H   0  0  0  0  0  0  0  0  0  0  0  0
  1  2  1  0
  2  3  2  0
  3  4  1  0
  3  5  1  0
  5  6  1  0
  5  7  2  0
  7  8  1  0
  8  9  1  0
  8 10  1  0
  8 11  1  0
 11 12  2  0
 12 13  1  0
 12 14  1  0
 14 15  1  0
 15 16  1  0
 15 17  1  0
 15 18  1  0
 14 19  2  0
 19 20  1  0
 20 21  2  0
 21 22  1  0
 22 23  2  0
 23 24  1  0
 23 25  1  0
 25 26  1  0
 25 27  2  0
 27 28  1  0
 28 29  1  0
 29 30  1  0
 29 31  1  0
 29 32  1  0
 32 33  1  0
 32 34  1  0
 32 35  1  0
 35 36  1  0
 36 37  1  0
 36 38  1  0
 36 39  1  0
 39 40  1  0
 39 41  1  0
 27 42  1  0
 42 43  1  0
 43 44  1  0
 43 45  1  0
 43 46  1  0
 42 47  2  0
 47 48  1  0
 20 49  1  0
 49 50  1  0
  7 51  1  0
 51 52  1  0
 51 53  2  0
 53 54  1  0
 53  2  1  0
 49 11  1  0
 47 22  1  0
 39 28  1  0
M  CHG  1  13  -1
M  END
>  <UniqueID>  (44) 
42

>  <SMILES>  (44) 
Cc1cc(/N=c2/nc(C)c([O-])c(Cc3c(Cl)cccc3Cl)[nH]2)ccc1N1CCOCC1

>  <Energy>  (44) 
76.0427422240204

>  <Genealogy>  (44) 
Cc1cc(N=c2nc(C)c([O-])c(Cc3c(Cl)cccc3Cl)[nH]2)ccc1N1CCOCC1 (protonated)
Cc1cc(/N=c2/nc(C)c([O-])c(Cc3c(Cl)cccc3Cl)[nH]2)ccc1N1CCOCC1 (cis-trans isomerization)
Cc1cc(/N=c2/nc(C)c([O-])c(Cc3c(Cl)cccc3Cl)[nH]2)ccc1N1CCOCC1 (3D coordinates assigned)
Cc1cc(/N=c2/nc(C)c([O-])c(Cc3c(Cl)cccc3Cl)[nH]2)ccc1N1CCOCC1 (nonaromatic ring conformer: 76.0427422240204 kcal/mol)

>  <smiles>  (44) 
Cc1cc(N=c2nc(C)c(O)c(Cc3c(Cl)cccc3Cl)[nH]2)ccc1N1CCOCC1

>  <score_type>  (44) 
oracle

>  <origin>  (44) 
adgpu

>  <m_score__min__energy>  (44) 
-11.92

>  <m_primary>  (44) 
energy

$$$$
44:0
     RDKit          3D

 72 76  0  0  0  0  0  0  0  0999 V2000
   -2.4440   25.8470  -28.8520 H   0  0  0  0  0  0  0  0  0  0  0  0
   -1.4180   26.0050  -28.9700 N   0  0  0  0  0  0  0  0  0  0  0  0
   -0.6680   25.6100  -27.4650 S   0  0  0  0  0  0  0  0  0  0  0  0
    0.7530   26.1000  -27.4650 O   0  0  0  0  0  0  0  0  0  0  0  0
   -1.4100   26.2840  -26.3460 O   0  0  0  0  0  0  0  0  0  0  0  0
   -0.6900   23.8640  -27.2390 C   0  0  0  0  0  0  0  0  0  0  0  0
   -0.7900   23.3290  -25.9490 C   0  0  0  0  0  0  0  0  0  0  0  0
   -0.8482   24.0002  -25.0794 H   0  0  0  0  0  0  0  0  0  0  0  0
   -0.8160   21.9450  -25.7640 C   0  0  0  0  0  0  0  0  0  0  0  0
   -0.9100   21.5293  -24.7499 H   0  0  0  0  0  0  0  0  0  0  0  0
   -0.7230   21.0860  -26.8630 C   0  0  0  0  0  0  0  0  0  0  0  0
   -0.7639   19.9969  -26.7138 H   0  0  0  0  0  0  0  0  0  0  0  0
   -0.5770   21.6130  -28.1610 C   0  0  0  0  0  0  0  0  0  0  0  0
   -0.5080   20.7700  -29.3240 N   0  0  0  0  0  0  0  0  0  0  0  0
    0.4160   19.9000  -29.6140 C   0  0  0  0  0  0  0  0  0  0  0  0
    0.2820   19.1440  -30.7360 N   0  0  0  0  0  0  0  0  0  0  0  0
    1.2260   18.2290  -31.0920 C   0  0  0  0  0  0  0  0  0  0  0  0
    1.0610   17.4280  -32.2280 O   0  0  0  0  0  0  0  0  0  0  0  0
   -0.1380   17.3120  -32.9430 C   0  0  0  0  0  0  0  0  0  0  0  0
   -0.5570   18.3040  -33.8480 C   0  0  0  0  0  0  0  0  0  0  0  0
    0.0708   19.1909  -34.0188 H   0  0  0  0  0  0  0  0  0  0  0  0
   -1.7690   18.1660  -34.5310 C   0  0  0  0  0  0  0  0  0  0  0  0
   -2.0829   18.9357  -35.2515 H   0  0  0  0  0  0  0  0  0  0  0  0
   -2.5850   17.0510  -34.3010 C   0  0  0  0  0  0  0  0  0  0  0  0
   -3.8490   16.9570  -34.9680 N   0  0  0  0  0  0  0  0  0  0  0  0
   -5.0660   17.5190  -34.4620 C   0  0  0  0  0  0  0  0  0  0  0  0
   -6.1550   17.2060  -35.0130 O   0  0  0  0  0  0  0  0  0  0  0  0
   -5.0430   18.4380  -33.3560 N   0  0  0  0  0  0  0  0  0  0  0  0
   -4.1390   18.5870  -32.8550 H   0  0  0  0  0  0  0  0  0  0  0  0
   -6.1820   19.1780  -32.8830 C   0  0  0  0  0  0  0  0  0  0  0  0
   -7.4460   18.5770  -32.7900 C   0  0  0  0  0  0  0  0  0  0  0  0
   -7.5639   17.5102  -33.0308 H   0  0  0  0  0  0  0  0  0  0  0  0
   -8.5530   19.3250  -32.3940 C   0  0  0  0  0  0  0  0  0  0  0  0
   -9.5354   18.8384  -32.3042 H   0  0  0  0  0  0  0  0  0  0  0  0
   -8.4270   20.6870  -32.1100 C   0  0  0  0  0  0  0  0  0  0  0  0
   -9.8800   21.5550  -31.6190 Cl  0  0  0  0  0  0  0  0  0  0  0  0
   -7.1690   21.3200  -32.2250 C   0  0  0  0  0  0  0  0  0  0  0  0
   -7.0010   23.0590  -31.8880 S   0  0  0  0  0  0  0  0  0  0  0  0
   -6.4320   23.7890  -33.0760 O   0  0  0  0  0  0  0  0  0  0  0  0
   -8.3550   23.6390  -31.5930 O   0  0  0  0  0  0  0  0  0  0  0  0
   -5.9190   23.3010  -30.4770 C   0  0  0  0  0  0  0  0  0  0  0  0
   -6.2370   22.6101  -29.6823 H   0  0  0  0  0  0  0  0  0  0  0  0
   -6.0390   24.7300  -29.9410 C   0  0  0  0  0  0  0  0  0  0  0  0
   -7.0914   24.9376  -29.6972 H   0  0  0  0  0  0  0  0  0  0  0  0
   -5.6822   25.4292  -30.7115 H   0  0  0  0  0  0  0  0  0  0  0  0
   -5.1800   24.9070  -28.6720 C   0  0  0  0  0  0  0  0  0  0  0  0
   -5.7510   24.5256  -27.8127 H   0  0  0  0  0  0  0  0  0  0  0  0
   -4.9538   25.9804  -28.5900 H   0  0  0  0  0  0  0  0  0  0  0  0
   -3.8750   24.1970  -28.7170 N   0  0  0  0  0  0  0  0  0  0  0  0
   -3.8310   23.0390  -27.8050 C   0  0  0  0  0  0  0  0  0  0  0  0
   -3.8444   23.3920  -26.7633 H   0  0  0  0  0  0  0  0  0  0  0  0
   -4.7054   22.3965  -27.9857 H   0  0  0  0  0  0  0  0  0  0  0  0
   -2.9104   22.4647  -27.9857 H   0  0  0  0  0  0  0  0  0  0  0  0
   -3.4340   23.8430  -30.0820 C   0  0  0  0  0  0  0  0  0  0  0  0
   -2.4825   23.2954  -30.0126 H   0  0  0  0  0  0  0  0  0  0  0  0
   -3.3263   24.7802  -30.6478 H   0  0  0  0  0  0  0  0  0  0  0  0
   -4.4550   22.9630  -30.8330 C   0  0  0  0  0  0  0  0  0  0  0  0
   -4.2659   21.9101  -30.5767 H   0  0  0  0  0  0  0  0  0  0  0  0
   -4.3253   23.1531  -31.9087 H   0  0  0  0  0  0  0  0  0  0  0  0
   -6.0460   20.5490  -32.6000 C   0  0  0  0  0  0  0  0  0  0  0  0
   -4.7860   21.1320  -32.6870 O   0  0  0  0  0  0  0  0  0  0  0  0
   -2.1420   16.0360  -33.4350 C   0  0  0  0  0  0  0  0  0  0  0  0
   -2.8850   14.9160  -33.2490 F   0  0  0  0  0  0  0  0  0  0  0  0
   -0.9210   16.1670  -32.7670 C   0  0  0  0  0  0  0  0  0  0  0  0
   -0.5742   15.3647  -32.0991 H   0  0  0  0  0  0  0  0  0  0  0  0
    2.3550   18.0590  -30.2900 C   0  0  0  0  0  0  0  0  0  0  0  0
    3.1216   17.3143  -30.5501 H   0  0  0  0  0  0  0  0  0  0  0  0
    2.4910   18.8530  -29.1520 C   0  0  0  0  0  0  0  0  0  0  0  0
    3.3782   18.7485  -28.5102 H   0  0  0  0  0  0  0  0  0  0  0  0
    1.5260   19.7560  -28.8370 N   0  0  0  0  0  0  0  0  0  0  0  0
   -0.5860   23.0030  -28.3410 C   0  0  0  0  0  0  0  0  0  0  0  0
   -0.5108   23.4220  -29.3553 H   0  0  0  0  0  0  0  0  0  0  0  0
  1  2  1  0
  2  3  1  0
  3  4  2  0
  3  5  2  0
  3  6  1  0
  6  7  2  0
  7  8  1  0
  7  9  1  0
  9 10  1  0
  9 11  2  0
 11 12  1  0
 11 13  1  0
 13 14  1  0
 14 15  2  0
 15 16  1  0
 16 17  2  0
 17 18  1  0
 18 19  1  0
 19 20  2  0
 20 21  1  0
 20 22  1  0
 22 23  1  0
 22 24  2  0
 24 25  1  0
 25 26  1  0
 26 27  2  0
 26 28  1  0
 28 29  1  0
 28 30  1  0
 30 31  2  0
 31 32  1  0
 31 33  1  0
 33 34  1  0
 33 35  2  0
 35 36  1  0
 35 37  1  0
 37 38  1  0
 38 39  2  0
 38 40  2  0
 38 41  1  0
 41 42  1  0
 41 43  1  0
 43 44  1  0
 43 45  1  0
 43 46  1  0
 46 47  1  0
 46 48  1  0
 46 49  1  0
 49 50  1  0
 50 51  1  0
 50 52  1  0
 50 53  1  0
 49 54  1  0
 54 55  1  0
 54 56  1  0
 54 57  1  0
 57 58  1  0
 57 59  1  0
 37 60  2  0
 60 61  1  0
 24 62  1  0
 62 63  1  0
 62 64  2  0
 64 65  1  0
 17 66  1  0
 66 67  1  0
 66 68  2  0
 68 69  1  0
 68 70  1  0
 13 71  2  0
 71 72  1  0
 71  6  1  0
 70 15  1  0
 64 19  1  0
 60 30  1  0
 57 41  1  0
M  CHG  4   2  -1  25  -1  61  -1  70  -1
M  END
>  <UniqueID>  (45) 
43

>  <SMILES>  (45) 
CN1CCC(S(=O)(=O)c2c(Cl)ccc(NC(=O)[N-]c3ccc(Oc4cc[n-]/c(=N\c5cccc(S([NH-])(=O)=O)c5)n4)cc3F)c2[O-])CC1

>  <Energy>  (45) 
108.83469990874845

>  <Genealogy>  (45) 
CN1CCC(S(=O)(=O)c2c(Cl)ccc(NC(=O)[N-]c3ccc(Oc4cc[n-]c(=Nc5cccc(S([NH-])(=O)=O)c5)n4)cc3F)c2[O-])CC1 (protonated)
CN1CCC(S(=O)(=O)c2c(Cl)ccc(NC(=O)[N-]c3ccc(Oc4cc[n-]/c(=N\c5cccc(S([NH-])(=O)=O)c5)n4)cc3F)c2[O-])CC1 (cis-trans isomerization)
CN1CCC(S(=O)(=O)c2c(Cl)ccc(NC(=O)[N-]c3ccc(Oc4cc[n-]/c(=N\c5cccc(S([NH-])(=O)=O)c5)n4)cc3F)c2[O-])CC1 (3D coordinates assigned)
CN1CCC(S(=O)(=O)c2c(Cl)ccc(NC(=O)[N-]c3ccc(Oc4cc[n-]/c(=N\c5cccc(S([NH-])(=O)=O)c5)n4)cc3F)c2[O-])CC1 (nonaromatic ring conformer: 108.83469990874845 kcal/mol)

>  <smiles>  (45) 
CN1CCC(S(=O)(=O)c2c(Cl)ccc(NC(=O)Nc3ccc(Oc4cc[nH]c(=Nc5cccc(S(N)(=O)=O)c5)n4)cc3F)c2O)CC1

>  <score_type>  (45) 
oracle

>  <origin>  (45) 
adgpu

>  <m_score__min__energy>  (45) 
-14.76

>  <m_primary>  (45) 
energy

$$$$
45:0
     RDKit          3D

 39 41  0  0  0  0  0  0  0  0999 V2000
   -2.9270   18.8060  -26.2760 C   0  0  0  0  0  0  0  0  0  0  0  0
   -2.1420   19.2640  -27.3710 O   0  0  0  0  0  0  0  0  0  0  0  0
   -2.2140   20.5560  -27.9130 C   0  0  0  0  0  0  0  0  0  0  0  0
   -3.2950   21.3670  -27.5560 C   0  0  0  0  0  0  0  0  0  0  0  0
   -3.4090   22.6650  -28.0620 C   0  0  0  0  0  0  0  0  0  0  0  0
   -2.4330   23.1780  -28.9320 C   0  0  0  0  0  0  0  0  0  0  0  0
   -2.5540   24.5630  -29.4490 C   0  0  0  0  0  0  0  0  0  0  0  0
   -1.8250   25.4680  -28.9640 O   0  0  0  0  0  0  0  0  0  0  0  0
   -3.5090   24.9220  -30.4590 N   0  0  0  0  0  0  0  0  0  0  0  0
   -4.6800   24.1740  -30.8170 C   0  0  0  0  0  0  0  0  0  0  0  0
   -4.5330   22.9970  -31.5600 C   0  0  0  0  0  0  0  0  0  0  0  0
   -5.6600   22.2720  -31.9640 C   0  0  0  0  0  0  0  0  0  0  0  0
   -6.9430   22.7190  -31.6330 C   0  0  0  0  0  0  0  0  0  0  0  0
   -8.0830   21.9870  -32.1010 N   0  0  0  0  0  0  0  0  0  0  0  0
   -8.2650   20.5700  -31.9810 C   0  0  0  0  0  0  0  0  0  0  0  0
   -9.1490   20.1340  -31.1990 O   0  0  0  0  0  0  0  0  0  0  0  0
   -7.4130   19.6070  -32.7050 C   0  0  0  0  0  0  0  0  0  0  0  0
   -7.1940   18.2830  -32.3740 C   0  0  0  0  0  0  0  0  0  0  0  0
   -6.3500   17.7890  -33.3440 C   0  0  0  0  0  0  0  0  0  0  0  0
   -6.1110   18.8350  -34.2120 C   0  0  0  0  0  0  0  0  0  0  0  0
   -6.7610   19.9030  -33.8060 O   0  0  0  0  0  0  0  0  0  0  0  0
   -7.0890   23.8590  -30.8240 C   0  0  0  0  0  0  0  0  0  0  0  0
   -5.9650   24.5790  -30.4150 C   0  0  0  0  0  0  0  0  0  0  0  0
   -1.3590   22.3540  -29.3110 C   0  0  0  0  0  0  0  0  0  0  0  0
   -1.2420   21.0590  -28.7990 C   0  0  0  0  0  0  0  0  0  0  0  0
   -2.4400   19.0901  -25.3315 H   0  0  0  0  0  0  0  0  0  0  0  0
   -3.9265   19.2627  -26.3250 H   0  0  0  0  0  0  0  0  0  0  0  0
   -3.0213   17.7111  -26.3250 H   0  0  0  0  0  0  0  0  0  0  0  0
   -4.0633   20.9801  -26.8704 H   0  0  0  0  0  0  0  0  0  0  0  0
   -4.2689   23.2889  -27.7769 H   0  0  0  0  0  0  0  0  0  0  0  0
   -3.5274   22.6402  -31.8276 H   0  0  0  0  0  0  0  0  0  0  0  0
   -5.5359   21.3461  -32.5447 H   0  0  0  0  0  0  0  0  0  0  0  0
   -7.6081   17.7367  -31.5137 H   0  0  0  0  0  0  0  0  0  0  0  0
   -5.9478   16.7675  -33.4129 H   0  0  0  0  0  0  0  0  0  0  0  0
   -5.4737   18.7829  -35.1071 H   0  0  0  0  0  0  0  0  0  0  0  0
   -8.0922   24.1850  -30.5121 H   0  0  0  0  0  0  0  0  0  0  0  0
   -6.0851   25.4663  -29.7760 H   0  0  0  0  0  0  0  0  0  0  0  0
   -0.6043   22.7318  -30.0165 H   0  0  0  0  0  0  0  0  0  0  0  0
   -0.3874   20.4302  -29.0892 H   0  0  0  0  0  0  0  0  0  0  0  0
  1  2  1  0
  2  3  1  0
  3  4  2  0
  4  5  1  0
  5  6  2  0
  6  7  1  0
  7  8  2  0
  7  9  1  0
  9 10  1  0
 10 11  2  0
 11 12  1  0
 12 13  2  0
 13 14  1  0
 14 15  1  0
 15 16  2  0
 15 17  1  0
 17 18  2  0
 18 19  1  0
 19 20  2  0
 20 21  1  0
 13 22  1  0
 22 23  2  0
  6 24  1  0
 24 25  2  0
 25  3  1  0
 23 10  1  0
 21 17  1  0
  1 26  1  0
  1 27  1  0
  1 28  1  0
  4 29  1  0
  5 30  1  0
 11 31  1  0
 12 32  1  0
 18 33  1  0
 19 34  1  0
 20 35  1  0
 22 36  1  0
 23 37  1  0
 24 38  1  0
 25 39  1  0
M  CHG  2   9  -1  14  -1
M  END
>  <UniqueID>  (46) 
44

>  <SMILES>  (46) 
COc1ccc(C(=O)[N-]c2ccc([N-]C(=O)c3ccco3)cc2)cc1

>  <Energy>  (46) 
77.48044017879317

>  <Genealogy>  (46) 
COc1ccc(C(=O)[N-]c2ccc([N-]C(=O)c3ccco3)cc2)cc1 (protonated)
COc1ccc(C(=O)[N-]c2ccc([N-]C(=O)c3ccco3)cc2)cc1 (3D coordinates assigned)
COc1ccc(C(=O)[N-]c2ccc([N-]C(=O)c3ccco3)cc2)cc1 (optimized conformer: 77.48044017879317 kcal/mol)

>  <smiles>  (46) 
COc1ccc(C(=O)Nc2ccc(NC(=O)c3ccco3)cc2)cc1

>  <score_type>  (46) 
oracle

>  <origin>  (46) 
adgpu

>  <m_score__min__energy>  (46) 
-9.9700000000000006

>  <m_primary>  (46) 
energy

$$$$
46:0
     RDKit          3D

 51 54  0  0  0  0  0  0  0  0999 V2000
   -2.3140   17.2062  -33.7936 H   0  0  0  0  0  0  0  0  0  0  0  0
   -2.4040   18.2020  -33.3350 C   0  0  0  0  0  0  0  0  0  0  0  0
   -3.4370   19.0150  -33.6790 N   0  0  0  0  0  0  0  0  0  0  0  0
   -3.5780   20.2460  -33.1200 C   0  0  0  0  0  0  0  0  0  0  0  0
   -4.6740   21.0390  -33.4810 O   0  0  0  0  0  0  0  0  0  0  0  0
   -5.4330   21.8150  -32.5930 C   0  0  0  0  0  0  0  0  0  0  0  0
   -6.6960   21.3550  -32.2140 C   0  0  0  0  0  0  0  0  0  0  0  0
   -7.0749   20.4040  -32.6166 H   0  0  0  0  0  0  0  0  0  0  0  0
   -7.4810   22.0950  -31.3270 C   0  0  0  0  0  0  0  0  0  0  0  0
   -8.4696   21.7189  -31.0251 H   0  0  0  0  0  0  0  0  0  0  0  0
   -7.0150   23.3110  -30.8220 C   0  0  0  0  0  0  0  0  0  0  0  0
   -7.6343   23.8828  -30.1152 H   0  0  0  0  0  0  0  0  0  0  0  0
   -5.7580   23.8090  -31.2120 C   0  0  0  0  0  0  0  0  0  0  0  0
   -5.2680   25.1080  -30.6880 C   0  0  0  0  0  0  0  0  0  0  0  0
   -6.0880   26.0440  -30.4820 O   0  0  0  0  0  0  0  0  0  0  0  0
   -3.8620   25.2960  -30.4510 N   0  0  0  0  0  0  0  0  0  0  0  0
   -3.1530   24.9000  -29.4320 C   0  0  0  0  0  0  0  0  0  0  0  0
   -1.8400   25.1740  -29.3250 N   0  0  0  0  0  0  0  0  0  0  0  0
   -1.4240   24.6400  -28.1890 N   0  0  0  0  0  0  0  0  0  0  0  0
   -0.0400   24.6680  -27.7370 C   0  0  0  0  0  0  0  0  0  0  0  0
   -0.0134   24.6685  -26.6373 H   0  0  0  0  0  0  0  0  0  0  0  0
    0.4876   23.7803  -28.1161 H   0  0  0  0  0  0  0  0  0  0  0  0
    0.4512   25.5763  -28.1161 H   0  0  0  0  0  0  0  0  0  0  0  0
   -2.4420   24.0090  -27.5720 C   0  0  0  0  0  0  0  0  0  0  0  0
   -2.3763   23.4674  -26.6168 H   0  0  0  0  0  0  0  0  0  0  0  0
   -3.5800   24.1550  -28.3370 C   0  0  0  0  0  0  0  0  0  0  0  0
   -4.5901   23.7718  -28.1299 H   0  0  0  0  0  0  0  0  0  0  0  0
   -4.9740   23.0550  -32.1080 C   0  0  0  0  0  0  0  0  0  0  0  0
   -3.9950   23.4383  -32.4314 H   0  0  0  0  0  0  0  0  0  0  0  0
   -2.6820   20.6670  -32.1870 N   0  0  0  0  0  0  0  0  0  0  0  0
   -1.6320   19.8900  -31.8170 C   0  0  0  0  0  0  0  0  0  0  0  0
   -0.9202   20.2511  -31.0600 H   0  0  0  0  0  0  0  0  0  0  0  0
   -1.4550   18.6270  -32.4000 C   0  0  0  0  0  0  0  0  0  0  0  0
   -0.3800   17.7520  -32.0170 N   0  0  0  0  0  0  0  0  0  0  0  0
    0.0090   17.1080  -32.7420 H   0  0  0  0  0  0  0  0  0  0  0  0
    0.2740   17.8060  -30.7370 C   0  0  0  0  0  0  0  0  0  0  0  0
    0.2390   18.8720  -30.0630 O   0  0  0  0  0  0  0  0  0  0  0  0
    1.0300   16.6380  -30.2220 C   0  0  0  0  0  0  0  0  0  0  0  0
    1.6890   15.7620  -31.1010 C   0  0  0  0  0  0  0  0  0  0  0  0
    1.6570   15.9481  -32.1847 H   0  0  0  0  0  0  0  0  0  0  0  0
    2.3840   14.6570  -30.6070 C   0  0  0  0  0  0  0  0  0  0  0  0
    2.8990   13.9787  -31.3032 H   0  0  0  0  0  0  0  0  0  0  0  0
    2.4290   14.4080  -29.2340 C   0  0  0  0  0  0  0  0  0  0  0  0
    2.9767   13.5332  -28.8534 H   0  0  0  0  0  0  0  0  0  0  0  0
    1.7770   15.2710  -28.3360 C   0  0  0  0  0  0  0  0  0  0  0  0
    1.7950   15.0210  -26.8480 C   0  0  0  0  0  0  0  0  0  0  0  0
    2.9030   14.2600  -26.5260 F   0  0  0  0  0  0  0  0  0  0  0  0
    0.6530   14.3320  -26.4830 F   0  0  0  0  0  0  0  0  0  0  0  0
    1.8440   16.2030  -26.1300 F   0  0  0  0  0  0  0  0  0  0  0  0
    1.0730   16.3790  -28.8400 C   0  0  0  0  0  0  0  0  0  0  0  0
    0.5493   17.0517  -28.1448 H   0  0  0  0  0  0  0  0  0  0  0  0
  1  2  1  0
  2  3  2  0
  3  4  1  0
  4  5  1  0
  5  6  1  0
  6  7  2  0
  7  8  1  0
  7  9  1  0
  9 10  1  0
  9 11  2  0
 11 12  1  0
 11 13  1  0
 13 14  1  0
 14 15  2  0
 14 16  1  0
 16 17  2  0
 17 18  1  0
 18 19  1  0
 19 20  1  0
 20 21  1  0
 20 22  1  0
 20 23  1  0
 19 24  1  0
 24 25  1  0
 24 26  2  0
 26 27  1  0
 13 28  2  0
 28 29  1  0
  4 30  2  0
 30 31  1  0
 31 32  1  0
 31 33  2  0
 33 34  1  0
 34 35  1  0
 34 36  1  0
 36 37  2  0
 36 38  1  0
 38 39  2  0
 39 40  1  0
 39 41  1  0
 41 42  1  0
 41 43  2  0
 43 44  1  0
 43 45  1  0
 45 46  1  0
 46 47  1  0
 46 48  1  0
 46 49  1  0
 45 50  2  0
 50 51  1  0
 33  2  1  0
 50 38  1  0
 28  6  1  0
 26 17  1  0
M  CHG  1  18  -1
M  END
>  <UniqueID>  (47) 
45

>  <SMILES>  (47) 
Cn1cc/c(=N\C(=O)c2cccc(Oc3ncc(NC(=O)c4cccc(C(F)(F)F)c4)cn3)c2)[n-]1

>  <Energy>  (47) 
102.29322898005171

>  <Genealogy>  (47) 
Cn1ccc(=NC(=O)c2cccc(Oc3ncc(NC(=O)c4cccc(C(F)(F)F)c4)cn3)c2)[n-]1 (protonated)
Cn1cc/c(=N\C(=O)c2cccc(Oc3ncc(NC(=O)c4cccc(C(F)(F)F)c4)cn3)c2)[n-]1 (cis-trans isomerization)
Cn1cc/c(=N\C(=O)c2cccc(Oc3ncc(NC(=O)c4cccc(C(F)(F)F)c4)cn3)c2)[n-]1 (3D coordinates assigned)
Cn1cc/c(=N\C(=O)c2cccc(Oc3ncc(NC(=O)c4cccc(C(F)(F)F)c4)cn3)c2)[n-]1 (optimized conformer: 102.29322898005171 kcal/mol)

>  <smiles>  (47) 
Cn1ccc(=NC(=O)c2cccc(Oc3ncc(NC(=O)c4cccc(C(F)(F)F)c4)cn3)c2)[nH]1

>  <score_type>  (47) 
oracle

>  <origin>  (47) 
adgpu

>  <m_score__min__energy>  (47) 
-9.6199999999999992

>  <m_primary>  (47) 
energy

$$$$
47:0
     RDKit          3D

 44 47  0  0  0  0  0  0  0  0999 V2000
   -6.9300   16.9260  -33.1750 C   0  0  0  0  0  0  0  0  0  0  0  0
   -7.0320   18.3760  -33.0660 N   0  0  0  0  0  0  0  0  0  0  0  0
   -7.9660   19.0870  -32.2490 C   0  0  0  0  0  0  0  0  0  0  0  0
   -9.0200   18.5870  -31.7760 O   0  0  0  0  0  0  0  0  0  0  0  0
   -7.5000   20.4520  -32.0260 C   0  0  0  0  0  0  0  0  0  0  0  0
   -8.0780   21.5080  -31.3280 C   0  0  0  0  0  0  0  0  0  0  0  0
   -7.3820   22.7280  -31.2770 C   0  0  0  0  0  0  0  0  0  0  0  0
   -6.1150   22.8670  -31.9080 C   0  0  0  0  0  0  0  0  0  0  0  0
   -5.3920   24.1060  -31.8900 N   0  0  0  0  0  0  0  0  0  0  0  0
   -4.7220   24.6800  -30.7630 C   0  0  0  0  0  0  0  0  0  0  0  0
   -4.2810   25.8600  -30.8090 O   0  0  0  0  0  0  0  0  0  0  0  0
   -4.6230   23.9220  -29.5540 N   0  0  0  0  0  0  0  0  0  0  0  0
   -3.3970   23.3890  -29.0370 C   0  0  0  0  0  0  0  0  0  0  0  0
   -3.2770   22.0030  -28.9220 C   0  0  0  0  0  0  0  0  0  0  0  0
   -2.1230   21.4350  -28.3900 C   0  0  0  0  0  0  0  0  0  0  0  0
   -1.0680   22.2440  -27.9600 C   0  0  0  0  0  0  0  0  0  0  0  0
    0.3710   21.4420  -27.3380 Cl  0  0  0  0  0  0  0  0  0  0  0  0
   -1.1590   23.6500  -28.0790 C   0  0  0  0  0  0  0  0  0  0  0  0
    0.1890   24.6870  -27.5540 S   0  0  0  0  0  0  0  0  0  0  0  0
    1.4940   24.1600  -28.0800 O   0  0  0  0  0  0  0  0  0  0  0  0
   -0.0010   26.0630  -28.1270 O   0  0  0  0  0  0  0  0  0  0  0  0
    0.3130   24.8260  -25.7680 C   0  0  0  0  0  0  0  0  0  0  0  0
    1.0520   23.6660  -25.1180 C   0  0  0  0  0  0  0  0  0  0  0  0
   -0.4500   23.8040  -24.9370 C   0  0  0  0  0  0  0  0  0  0  0  0
   -2.3130   24.2190  -28.6660 C   0  0  0  0  0  0  0  0  0  0  0  0
   -2.3490   25.5930  -28.9150 O   0  0  0  0  0  0  0  0  0  0  0  0
   -5.5700   21.7820  -32.6220 C   0  0  0  0  0  0  0  0  0  0  0  0
   -6.2850   20.5860  -32.6580 C   0  0  0  0  0  0  0  0  0  0  0  0
   -5.9700   19.3070  -33.2850 C   0  0  0  0  0  0  0  0  0  0  0  0
   -4.9090   19.0380  -33.9080 O   0  0  0  0  0  0  0  0  0  0  0  0
   -6.8989   16.4839  -32.1682 H   0  0  0  0  0  0  0  0  0  0  0  0
   -7.8030   16.5369  -33.7195 H   0  0  0  0  0  0  0  0  0  0  0  0
   -6.0111   16.6630  -33.7195 H   0  0  0  0  0  0  0  0  0  0  0  0
   -9.0520   21.3912  -30.8303 H   0  0  0  0  0  0  0  0  0  0  0  0
   -7.8216   23.5838  -30.7438 H   0  0  0  0  0  0  0  0  0  0  0  0
   -4.1010   21.3545  -29.2545 H   0  0  0  0  0  0  0  0  0  0  0  0
   -2.0409   20.3412  -28.3075 H   0  0  0  0  0  0  0  0  0  0  0  0
    0.3744   25.9242  -25.7524 H   0  0  0  0  0  0  0  0  0  0  0  0
    1.4585   22.8553  -25.7404 H   0  0  0  0  0  0  0  0  0  0  0  0
    1.9118   23.5755  -24.4379 H   0  0  0  0  0  0  0  0  0  0  0  0
   -1.1307   23.0934  -25.4286 H   0  0  0  0  0  0  0  0  0  0  0  0
   -1.1276   23.8549  -24.0720 H   0  0  0  0  0  0  0  0  0  0  0  0
   -3.1340   26.0550  -29.3570 H   0  0  0  0  0  0  0  0  0  0  0  0
   -4.6035   21.8762  -33.1387 H   0  0  0  0  0  0  0  0  0  0  0  0
  1  2  1  0
  2  3  1  0
  3  4  2  0
  3  5  1  0
  5  6  2  0
  6  7  1  0
  7  8  2  0
  8  9  1  0
  9 10  1  0
 10 11  2  0
 10 12  1  0
 12 13  1  0
 13 14  2  0
 14 15  1  0
 15 16  2  0
 16 17  1  0
 16 18  1  0
 18 19  1  0
 19 20  2  0
 19 21  2  0
 19 22  1  0
 22 23  1  0
 23 24  1  0
 18 25  2  0
 25 26  1  0
  8 27  1  0
 27 28  2  0
 28 29  1  0
 29 30  2  0
 29  2  1  0
 28  5  1  0
 25 13  1  0
 24 22  1  0
  1 31  1  0
  1 32  1  0
  1 33  1  0
  6 34  1  0
  7 35  1  0
 14 36  1  0
 15 37  1  0
 22 38  1  0
 23 39  1  0
 23 40  1  0
 24 41  1  0
 24 42  1  0
 26 43  1  0
 27 44  1  0
M  CHG  2   9  -1  12  -1
M  END
>  <UniqueID>  (48) 
46

>  <SMILES>  (48) 
CN1C(=O)c2ccc([N-]C(=O)[N-]c3ccc(Cl)c(S(=O)(=O)C4CC4)c3O)cc2C1=O

>  <Energy>  (48) 
355.324369972584

>  <Genealogy>  (48) 
CN1C(=O)c2ccc([N-]C(=O)[N-]c3ccc(Cl)c(S(=O)(=O)C4CC4)c3O)cc2C1=O (protonated)
CN1C(=O)c2ccc([N-]C(=O)[N-]c3ccc(Cl)c(S(=O)(=O)C4CC4)c3O)cc2C1=O (3D coordinates assigned)
CN1C(=O)c2ccc([N-]C(=O)[N-]c3ccc(Cl)c(S(=O)(=O)C4CC4)c3O)cc2C1=O (nonaromatic ring conformer: 355.324369972584 kcal/mol)

>  <smiles>  (48) 
CN1C(=O)c2ccc(NC(=O)Nc3ccc(Cl)c(S(=O)(=O)C4CC4)c3O)cc2C1=O

>  <score_type>  (48) 
oracle

>  <origin>  (48) 
adgpu

>  <m_score__min__energy>  (48) 
-14.130000000000001

>  <m_primary>  (48) 
energy

$$$$
