0:0
     RDKit          3D

 37 39  0  0  0  0  0  0  0  0999 V2000
   -6.0750   25.2130  -29.2350 O   0  0  0  0  0  0  0  0  0  0  0  0
   -4.9470   24.5550  -29.9820 S   0  0  0  0  0  0  0  0  0  0  0  0
   -4.2750   25.6010  -30.8270 O   0  0  0  0  0  0  0  0  0  0  0  0
   -3.7910   23.8720  -28.8430 C   0  0  0  0  0  0  0  0  0  0  0  0
   -3.9700   22.5710  -28.3530 C   0  0  0  0  0  0  0  0  0  0  0  0
   -3.0390   22.0210  -27.4660 C   0  0  0  0  0  0  0  0  0  0  0  0
   -1.9240   22.7660  -27.0700 C   0  0  0  0  0  0  0  0  0  0  0  0
   -1.7380   24.0610  -27.5640 C   0  0  0  0  0  0  0  0  0  0  0  0
   -2.6670   24.6120  -28.4520 C   0  0  0  0  0  0  0  0  0  0  0  0
   -5.5760   23.2660  -31.0000 C   0  0  0  0  0  0  0  0  0  0  0  0
   -4.7270   22.5780  -31.8700 C   0  0  0  0  0  0  0  0  0  0  0  0
   -5.2260   21.5450  -32.6620 C   0  0  0  0  0  0  0  0  0  0  0  0
   -6.5750   21.1690  -32.5840 C   0  0  0  0  0  0  0  0  0  0  0  0
   -7.4510   21.8660  -31.7100 C   0  0  0  0  0  0  0  0  0  0  0  0
   -6.9270   22.9100  -30.9250 C   0  0  0  0  0  0  0  0  0  0  0  0
   -8.9530   21.6380  -31.6180 C   0  0  0  0  0  0  0  0  0  0  0  0
   -9.5190   20.3430  -32.2220 C   0  0  0  0  0  0  0  0  0  0  0  0
   -8.6850   19.1130  -31.8460 C   0  0  0  0  0  0  0  0  0  0  0  0
   -7.5600   18.8530  -32.8540 C   0  0  0  0  0  0  0  0  0  0  0  0
   -7.0230   20.0920  -33.4140 N   0  0  0  0  0  0  0  0  0  0  0  0
   -4.8442   21.9816  -28.6666 H   0  0  0  0  0  0  0  0  0  0  0  0
   -3.1841   21.0014  -27.0795 H   0  0  0  0  0  0  0  0  0  0  0  0
   -1.1936   22.3337  -26.3703 H   0  0  0  0  0  0  0  0  0  0  0  0
   -0.8601   24.6467  -27.2537 H   0  0  0  0  0  0  0  0  0  0  0  0
   -2.5152   25.6283  -28.8444 H   0  0  0  0  0  0  0  0  0  0  0  0
   -3.6633   22.8517  -31.9303 H   0  0  0  0  0  0  0  0  0  0  0  0
   -4.5541   21.0188  -33.3560 H   0  0  0  0  0  0  0  0  0  0  0  0
   -7.5919   23.4562  -30.2398 H   0  0  0  0  0  0  0  0  0  0  0  0
   -9.2217   21.6474  -30.5514 H   0  0  0  0  0  0  0  0  0  0  0  0
   -9.3933   22.4427  -32.2252 H   0  0  0  0  0  0  0  0  0  0  0  0
  -10.5457   20.2002  -31.8540 H   0  0  0  0  0  0  0  0  0  0  0  0
   -9.4953   20.4439  -33.3171 H   0  0  0  0  0  0  0  0  0  0  0  0
   -8.2415   19.2747  -30.8525 H   0  0  0  0  0  0  0  0  0  0  0  0
   -9.3510   18.2375  -31.8463 H   0  0  0  0  0  0  0  0  0  0  0  0
   -6.7476   18.3123  -32.3464 H   0  0  0  0  0  0  0  0  0  0  0  0
   -7.9784   18.2617  -33.6819 H   0  0  0  0  0  0  0  0  0  0  0  0
   -6.6730   20.0550  -34.3990 H   0  0  0  0  0  0  0  0  0  0  0  0
  1  2  2  0
  2  3  2  0
  2  4  1  0
  4  5  2  0
  5  6  1  0
  6  7  2  0
  7  8  1  0
  8  9  2  0
  2 10  1  0
 10 11  2  0
 11 12  1  0
 12 13  2  0
 13 14  1  0
 14 15  2  0
 14 16  1  0
 16 17  1  0
 17 18  1  0
 18 19  1  0
 19 20  1  0
  9  4  1  0
 15 10  1  0
 20 13  1  0
  5 21  1  0
  6 22  1  0
  7 23  1  0
  8 24  1  0
  9 25  1  0
 11 26  1  0
 12 27  1  0
 15 28  1  0
 16 29  1  0
 16 30  1  0
 17 31  1  0
 17 32  1  0
 18 33  1  0
 18 34  1  0
 19 35  1  0
 19 36  1  0
 20 37  1  0
M  END
>  <UniqueID>  (1) 
1

>  <SMILES>  (1) 
O=S(=O)(c1ccccc1)c1ccc2c(c1)CCCCN2

>  <Energy>  (1) 
51.38824638008472

>  <Genealogy>  (1) 
O=S(=O)(c1ccccc1)c1ccc2c(c1)CCCCN2 (3D coordinates assigned)
O=S(=O)(c1ccccc1)c1ccc2c(c1)CCCCN2 (nonaromatic ring conformer: 51.38824638008472 kcal/mol)

>  <smiles>  (1) 
O=S(=O)(c1ccccc1)c1ccc2c(c1)CCCCN2

>  <score_type>  (1) 
oracle

>  <origin>  (1) 
adgpu

>  <m_score__min__energy>  (1) 
-7.2400000000000002

>  <m_primary>  (1) 
energy

$$$$
1:0
     RDKit          3D

 60 63  0  0  0  0  0  0  0  0999 V2000
   -9.4910   22.9450  -31.9980 O   0  0  0  0  0  0  0  0  0  0  0  0
   -8.4880   22.0950  -31.2680 S   0  0  0  0  0  0  0  0  0  0  0  0
   -9.1060   21.6610  -29.9670 O   0  0  0  0  0  0  0  0  0  0  0  0
   -7.0440   23.0540  -30.9360 C   0  0  0  0  0  0  0  0  0  0  0  0
   -6.5290   23.9160  -31.9130 C   0  0  0  0  0  0  0  0  0  0  0  0
   -5.3690   24.6520  -31.6590 C   0  0  0  0  0  0  0  0  0  0  0  0
   -4.7110   24.5300  -30.4320 C   0  0  0  0  0  0  0  0  0  0  0  0
   -3.5790   25.3000  -30.1880 O   0  0  0  0  0  0  0  0  0  0  0  0
   -5.2090   23.6520  -29.4510 C   0  0  0  0  0  0  0  0  0  0  0  0
   -4.5570   23.5050  -28.1810 N   0  0  0  0  0  0  0  0  0  0  0  0
   -3.2520   22.9230  -28.0080 C   0  0  0  0  0  0  0  0  0  0  0  0
   -3.0380   21.5440  -28.1690 C   0  0  0  0  0  0  0  0  0  0  0  0
   -1.7660   21.0020  -27.9750 C   0  0  0  0  0  0  0  0  0  0  0  0
   -0.6980   21.8230  -27.6000 C   0  0  0  0  0  0  0  0  0  0  0  0
    0.5590   21.2530  -27.4250 O   0  0  0  0  0  0  0  0  0  0  0  0
   -0.9040   23.2010  -27.4040 C   0  0  0  0  0  0  0  0  0  0  0  0
    0.4120   24.2740  -26.8970 S   0  0  0  0  0  0  0  0  0  0  0  0
    1.3120   23.5560  -25.9300 O   0  0  0  0  0  0  0  0  0  0  0  0
    1.2350   24.6380  -28.1030 O   0  0  0  0  0  0  0  0  0  0  0  0
   -0.1900   25.7370  -26.1530 N   0  0  0  0  0  0  0  0  0  0  0  0
   -1.0160   25.4140  -24.9670 C   0  0  0  0  0  0  0  0  0  0  0  0
   -1.2150   26.6410  -24.0750 C   0  0  0  0  0  0  0  0  0  0  0  0
    0.1310   27.1480  -23.5240 C   0  0  0  0  0  0  0  0  0  0  0  0
    1.3210   26.7840  -24.4310 C   0  0  0  0  0  0  0  0  0  0  0  0
    0.8950   26.7190  -25.9050 C   0  0  0  0  0  0  0  0  0  0  0  0
   -2.1830   23.7400  -27.6170 C   0  0  0  0  0  0  0  0  0  0  0  0
   -6.3910   22.9410  -29.7000 C   0  0  0  0  0  0  0  0  0  0  0  0
   -8.1120   20.6890  -32.2380 N   0  0  0  0  0  0  0  0  0  0  0  0
   -8.6250   19.4620  -31.5890 C   0  0  0  0  0  0  0  0  0  0  0  0
   -7.9590   18.2070  -32.1590 C   0  0  0  0  0  0  0  0  0  0  0  0
   -6.4420   18.2180  -31.8940 C   0  0  0  0  0  0  0  0  0  0  0  0
   -5.8740   19.6410  -31.7530 C   0  0  0  0  0  0  0  0  0  0  0  0
   -6.6720   20.6460  -32.5980 C   0  0  0  0  0  0  0  0  0  0  0  0
   -7.0393   24.0136  -32.8826 H   0  0  0  0  0  0  0  0  0  0  0  0
   -4.9717   25.3306  -32.4282 H   0  0  0  0  0  0  0  0  0  0  0  0
   -5.1020   23.7530  -27.3240 H   0  0  0  0  0  0  0  0  0  0  0  0
   -3.8759   20.8886  -28.4490 H   0  0  0  0  0  0  0  0  0  0  0  0
   -1.6032   19.9235  -28.1179 H   0  0  0  0  0  0  0  0  0  0  0  0
   -1.9990   25.0525  -25.3031 H   0  0  0  0  0  0  0  0  0  0  0  0
   -0.4953   24.6414  -24.3822 H   0  0  0  0  0  0  0  0  0  0  0  0
   -1.6867   27.4412  -24.6642 H   0  0  0  0  0  0  0  0  0  0  0  0
   -1.8558   26.3573  -23.2272 H   0  0  0  0  0  0  0  0  0  0  0  0
    0.0825   28.2429  -23.4300 H   0  0  0  0  0  0  0  0  0  0  0  0
    0.2951   26.6623  -22.5508 H   0  0  0  0  0  0  0  0  0  0  0  0
    2.1055   27.5467  -24.3173 H   0  0  0  0  0  0  0  0  0  0  0  0
    1.6969   25.7942  -24.1327 H   0  0  0  0  0  0  0  0  0  0  0  0
    0.5432   27.7149  -26.2123 H   0  0  0  0  0  0  0  0  0  0  0  0
    1.7708   26.3950  -26.4863 H   0  0  0  0  0  0  0  0  0  0  0  0
   -2.3479   24.8183  -27.4750 H   0  0  0  0  0  0  0  0  0  0  0  0
   -6.8099   22.2889  -28.9194 H   0  0  0  0  0  0  0  0  0  0  0  0
   -8.4209   19.5163  -30.5095 H   0  0  0  0  0  0  0  0  0  0  0  0
   -9.7064   19.3964  -31.7796 H   0  0  0  0  0  0  0  0  0  0  0  0
   -8.4006   17.3184  -31.6843 H   0  0  0  0  0  0  0  0  0  0  0  0
   -8.1245   18.1857  -33.2463 H   0  0  0  0  0  0  0  0  0  0  0  0
   -6.2433   17.6660  -30.9635 H   0  0  0  0  0  0  0  0  0  0  0  0
   -5.9503   17.7482  -32.7586 H   0  0  0  0  0  0  0  0  0  0  0  0
   -5.9221   19.9431  -30.6964 H   0  0  0  0  0  0  0  0  0  0  0  0
   -4.8332   19.6367  -32.1091 H   0  0  0  0  0  0  0  0  0  0  0  0
   -6.2431   21.6480  -32.4495 H   0  0  0  0  0  0  0  0  0  0  0  0
   -6.6036   20.3227  -33.6472 H   0  0  0  0  0  0  0  0  0  0  0  0
  1  2  2  0
  2  3  2  0
  2  4  1  0
  4  5  2  0
  5  6  1  0
  6  7  2  0
  7  8  1  0
  7  9  1  0
  9 10  1  0
 10 11  1  0
 11 12  2  0
 12 13  1  0
 13 14  2  0
 14 15  1  0
 14 16  1  0
 16 17  1  0
 17 18  2  0
 17 19  2  0
 17 20  1  0
 20 21  1  0
 21 22  1  0
 22 23  1  0
 23 24  1  0
 24 25  1  0
 16 26  2  0
  9 27  2  0
  2 28  1  0
 28 29  1  0
 29 30  1  0
 30 31  1  0
 31 32  1  0
 32 33  1  0
 27  4  1  0
 33 28  1  0
 26 11  1  0
 25 20  1  0
  5 34  1  0
  6 35  1  0
 10 36  1  0
 12 37  1  0
 13 38  1  0
 21 39  1  0
 21 40  1  0
 22 41  1  0
 22 42  1  0
 23 43  1  0
 23 44  1  0
 24 45  1  0
 24 46  1  0
 25 47  1  0
 25 48  1  0
 26 49  1  0
 27 50  1  0
 29 51  1  0
 29 52  1  0
 30 53  1  0
 30 54  1  0
 31 55  1  0
 31 56  1  0
 32 57  1  0
 32 58  1  0
 33 59  1  0
 33 60  1  0
M  CHG  2   8  -1  15  -1
M  END
>  <UniqueID>  (2) 
2

>  <SMILES>  (2) 
O=S(=O)(c1ccc([O-])c(Nc2ccc([O-])c(S(=O)(=O)N3CCCCC3)c2)c1)N1CCCCC1

>  <Energy>  (2) 
78.77195957862817

>  <Genealogy>  (2) 
O=S(=O)(c1ccc([O-])c(Nc2ccc([O-])c(S(=O)(=O)N3CCCCC3)c2)c1)N1CCCCC1 (protonated)
O=S(=O)(c1ccc([O-])c(Nc2ccc([O-])c(S(=O)(=O)N3CCCCC3)c2)c1)N1CCCCC1 (3D coordinates assigned)
O=S(=O)(c1ccc([O-])c(Nc2ccc([O-])c(S(=O)(=O)N3CCCCC3)c2)c1)N1CCCCC1 (nonaromatic ring conformer: 78.77195957862817 kcal/mol)

>  <smiles>  (2) 
O=S(=O)(c1ccc(O)c(Nc2ccc(O)c(S(=O)(=O)N3CCCCC3)c2)c1)N1CCCCC1

>  <score_type>  (2) 
oracle

>  <origin>  (2) 
adgpu

>  <m_score__min__energy>  (2) 
-14.130000000000001

>  <m_primary>  (2) 
energy

$$$$
2:0
     RDKit          3D

 64 67  0  0  0  0  0  0  0  0999 V2000
   -2.8650   20.0500  -27.2220 N   0  0  0  0  0  0  0  0  0  0  0  0
   -2.0330   20.0850  -28.0250 C   0  0  0  0  0  0  0  0  0  0  0  0
   -0.9800   20.1290  -29.0430 C   0  0  0  0  0  0  0  0  0  0  0  0
   -1.5270   20.6120  -30.3070 N   0  0  0  0  0  0  0  0  0  0  0  0
   -1.7350   21.9920  -30.6400 C   0  0  0  0  0  0  0  0  0  0  0  0
   -1.9190   22.3030  -31.8450 O   0  0  0  0  0  0  0  0  0  0  0  0
   -1.6340   23.0580  -29.6230 C   0  0  0  0  0  0  0  0  0  0  0  0
   -0.3410   23.3670  -29.1810 C   0  0  0  0  0  0  0  0  0  0  0  0
   -0.1420   24.3420  -28.2120 C   0  0  0  0  0  0  0  0  0  0  0  0
    1.0310   24.6160  -27.8420 O   0  0  0  0  0  0  0  0  0  0  0  0
   -1.2440   25.0210  -27.6770 C   0  0  0  0  0  0  0  0  0  0  0  0
   -1.0810   26.0650  -26.6350 C   0  0  0  0  0  0  0  0  0  0  0  0
   -0.5910   27.3400  -26.9690 C   0  0  0  0  0  0  0  0  0  0  0  0
   -0.4300   28.3160  -25.9810 C   0  0  0  0  0  0  0  0  0  0  0  0
   -0.7520   28.0290  -24.6530 C   0  0  0  0  0  0  0  0  0  0  0  0
   -1.2350   26.7640  -24.3080 C   0  0  0  0  0  0  0  0  0  0  0  0
   -1.3970   25.7850  -25.2930 C   0  0  0  0  0  0  0  0  0  0  0  0
   -2.5240   24.7060  -28.1560 C   0  0  0  0  0  0  0  0  0  0  0  0
   -2.7270   23.7370  -29.1100 N   0  0  0  0  0  0  0  0  0  0  0  0
   -4.1340   23.5310  -29.5610 C   0  0  0  0  0  0  0  0  0  0  0  0
   -4.4200   22.1230  -30.1430 C   0  0  0  0  0  0  0  0  0  0  0  0
   -4.9380   22.1630  -31.5940 C   0  0  0  0  0  0  0  0  0  0  0  0
   -6.0660   23.1020  -31.7970 N   0  0  0  0  0  0  0  0  0  0  0  0
   -7.6060   22.2950  -31.6170 S   0  0  0  0  0  0  0  0  0  0  0  0
   -8.6770   23.0630  -32.3440 O   0  0  0  0  0  0  0  0  0  0  0  0
   -7.9740   22.2130  -30.1610 O   0  0  0  0  0  0  0  0  0  0  0  0
   -7.4940   20.6590  -32.2600 C   0  0  0  0  0  0  0  0  0  0  0  0
   -8.2320   19.6290  -31.6650 C   0  0  0  0  0  0  0  0  0  0  0  0
   -8.1440   18.3220  -32.1540 C   0  0  0  0  0  0  0  0  0  0  0  0
   -7.3100   18.0310  -33.2520 C   0  0  0  0  0  0  0  0  0  0  0  0
   -7.1800   16.7390  -33.7890 O   0  0  0  0  0  0  0  0  0  0  0  0
   -6.0910   15.8460  -33.5510 C   0  0  0  0  0  0  0  0  0  0  0  0
   -5.1490   16.4060  -32.4890 C   0  0  0  0  0  0  0  0  0  0  0  0
   -5.7760   16.4090  -31.2570 F   0  0  0  0  0  0  0  0  0  0  0  0
   -6.5660   19.0640  -33.8350 C   0  0  0  0  0  0  0  0  0  0  0  0
   -6.6550   20.3700  -33.3440 C   0  0  0  0  0  0  0  0  0  0  0  0
   -6.0270   24.3410  -30.9830 C   0  0  0  0  0  0  0  0  0  0  0  0
   -4.6210   24.6700  -30.4700 C   0  0  0  0  0  0  0  0  0  0  0  0
   -0.1796   20.8062  -28.7101 H   0  0  0  0  0  0  0  0  0  0  0  0
   -0.5758   19.1163  -29.1882 H   0  0  0  0  0  0  0  0  0  0  0  0
    0.5228   22.8336  -29.6044 H   0  0  0  0  0  0  0  0  0  0  0  0
   -0.3330   27.5707  -28.0131 H   0  0  0  0  0  0  0  0  0  0  0  0
   -0.0489   29.3121  -26.2504 H   0  0  0  0  0  0  0  0  0  0  0  0
   -0.6254   28.7992  -23.8779 H   0  0  0  0  0  0  0  0  0  0  0  0
   -1.4878   26.5384  -23.2615 H   0  0  0  0  0  0  0  0  0  0  0  0
   -1.7740   24.7892  -25.0168 H   0  0  0  0  0  0  0  0  0  0  0  0
   -3.3920   25.2508  -27.7562 H   0  0  0  0  0  0  0  0  0  0  0  0
   -4.7424   23.5708  -28.6454 H   0  0  0  0  0  0  0  0  0  0  0  0
   -3.4884   21.5386  -30.1197 H   0  0  0  0  0  0  0  0  0  0  0  0
   -5.2077   21.6665  -29.5257 H   0  0  0  0  0  0  0  0  0  0  0  0
   -4.1096   22.4679  -32.2504 H   0  0  0  0  0  0  0  0  0  0  0  0
   -5.3112   21.1556  -31.8305 H   0  0  0  0  0  0  0  0  0  0  0  0
   -8.8850   19.8491  -30.8076 H   0  0  0  0  0  0  0  0  0  0  0  0
   -8.7274   17.5187  -31.6803 H   0  0  0  0  0  0  0  0  0  0  0  0
   -6.4869   14.8790  -33.2073 H   0  0  0  0  0  0  0  0  0  0  0  0
   -5.5288   15.7201  -34.4880 H   0  0  0  0  0  0  0  0  0  0  0  0
   -4.2456   15.7806  -32.4367 H   0  0  0  0  0  0  0  0  0  0  0  0
   -4.8734   17.4366  -32.7571 H   0  0  0  0  0  0  0  0  0  0  0  0
   -5.9054   18.8460  -34.6871 H   0  0  0  0  0  0  0  0  0  0  0  0
   -6.0647   21.1727  -33.8101 H   0  0  0  0  0  0  0  0  0  0  0  0
   -6.3806   25.1792  -31.6014 H   0  0  0  0  0  0  0  0  0  0  0  0
   -6.6709   24.1814  -30.1056 H   0  0  0  0  0  0  0  0  0  0  0  0
   -3.9347   24.7789  -31.3227 H   0  0  0  0  0  0  0  0  0  0  0  0
   -4.6467   25.6110  -29.9009 H   0  0  0  0  0  0  0  0  0  0  0  0
  1  2  3  0
  2  3  1  0
  3  4  1  0
  4  5  1  0
  5  6  2  0
  5  7  1  0
  7  8  2  0
  8  9  1  0
  9 10  2  0
  9 11  1  0
 11 12  1  0
 12 13  2  0
 13 14  1  0
 14 15  2  0
 15 16  1  0
 16 17  2  0
 11 18  2  0
 18 19  1  0
 19 20  1  0
 20 21  1  0
 21 22  1  0
 22 23  1  0
 23 24  1  0
 24 25  2  0
 24 26  2  0
 24 27  1  0
 27 28  2  0
 28 29  1  0
 29 30  2  0
 30 31  1  0
 31 32  1  0
 32 33  1  0
 33 34  1  0
 30 35  1  0
 35 36  2  0
 23 37  1  0
 37 38  1  0
 19  7  1  0
 38 20  1  0
 17 12  1  0
 36 27  1  0
  3 39  1  0
  3 40  1  0
  8 41  1  0
 13 42  1  0
 14 43  1  0
 15 44  1  0
 16 45  1  0
 17 46  1  0
 18 47  1  0
 20 48  1  0
 21 49  1  0
 21 50  1  0
 22 51  1  0
 22 52  1  0
 28 53  1  0
 29 54  1  0
 32 55  1  0
 32 56  1  0
 33 57  1  0
 33 58  1  0
 35 59  1  0
 36 60  1  0
 37 61  1  0
 37 62  1  0
 38 63  1  0
 38 64  1  0
M  CHG  1   4  -1
M  END
>  <UniqueID>  (3) 
3

>  <SMILES>  (3) 
N#CC[N-]C(=O)c1cc(=O)c(-c2ccccc2)cn1C1CCN(S(=O)(=O)c2ccc(OCCF)cc2)CC1

>  <Energy>  (3) 
94.20919048023578

>  <Genealogy>  (3) 
N#CC[N-]C(=O)c1cc(=O)c(-c2ccccc2)cn1C1CCN(S(=O)(=O)c2ccc(OCCF)cc2)CC1 (protonated)
N#CC[N-]C(=O)c1cc(=O)c(-c2ccccc2)cn1C1CCN(S(=O)(=O)c2ccc(OCCF)cc2)CC1 (3D coordinates assigned)
N#CC[N-]C(=O)c1cc(=O)c(-c2ccccc2)cn1C1CCN(S(=O)(=O)c2ccc(OCCF)cc2)CC1 (nonaromatic ring conformer: 94.20919048023578 kcal/mol)

>  <smiles>  (3) 
N#CCNC(=O)c1cc(=O)c(-c2ccccc2)cn1C1CCN(S(=O)(=O)c2ccc(OCCF)cc2)CC1

>  <score_type>  (3) 
oracle

>  <origin>  (3) 
adgpu

>  <m_score__min__energy>  (3) 
-10.83

>  <m_primary>  (3) 
energy

$$$$
3:0
     RDKit          3D

 49 51  0  0  0  0  0  0  0  0999 V2000
   -2.9800   21.3560  -33.8440 N   0  0  0  0  0  0  0  0  0  0  0  0
   -4.2320   20.4180  -33.1020 S   0  0  0  0  0  0  0  0  0  0  0  0
   -3.5900   19.4170  -32.1820 O   0  0  0  0  0  0  0  0  0  0  0  0
   -4.9920   19.6920  -34.1750 O   0  0  0  0  0  0  0  0  0  0  0  0
   -5.3530   21.4260  -32.1730 C   0  0  0  0  0  0  0  0  0  0  0  0
   -4.9520   22.6970  -31.7300 C   0  0  0  0  0  0  0  0  0  0  0  0
   -5.8080   23.4850  -30.9490 C   0  0  0  0  0  0  0  0  0  0  0  0
   -5.2700   25.0470  -30.3390 S   0  0  0  0  0  0  0  0  0  0  0  0
   -5.7400   26.1220  -31.2770 O   0  0  0  0  0  0  0  0  0  0  0  0
   -5.8440   25.2990  -28.9720 O   0  0  0  0  0  0  0  0  0  0  0  0
   -3.5380   25.1000  -30.2420 N   0  0  0  0  0  0  0  0  0  0  0  0
   -2.7360   24.2880  -29.3710 C   0  0  0  0  0  0  0  0  0  0  0  0
   -1.5100   23.7360  -29.7840 C   0  0  0  0  0  0  0  0  0  0  0  0
   -0.7460   22.9750  -28.8950 C   0  0  0  0  0  0  0  0  0  0  0  0
   -1.1930   22.7570  -27.5870 C   0  0  0  0  0  0  0  0  0  0  0  0
   -0.2290   21.7780  -26.4860 S   0  0  0  0  0  0  0  0  0  0  0  0
   -0.4290   22.2510  -25.0720 O   0  0  0  0  0  0  0  0  0  0  0  0
    1.2210   21.9540  -26.8420 O   0  0  0  0  0  0  0  0  0  0  0  0
   -0.6600   20.0880  -26.6340 N   0  0  0  0  0  0  0  0  0  0  0  0
   -0.4430   19.5730  -28.0000 C   0  0  0  0  0  0  0  0  0  0  0  0
   -1.5060   20.0630  -29.0020 C   0  0  0  0  0  0  0  0  0  0  0  0
   -2.9220   20.1200  -28.4020 C   0  0  0  0  0  0  0  0  0  0  0  0
   -3.0270   19.3070  -27.1130 C   0  0  0  0  0  0  0  0  0  0  0  0
   -2.0060   19.8030  -26.0740 C   0  0  0  0  0  0  0  0  0  0  0  0
   -2.4220   23.2930  -27.1780 C   0  0  0  0  0  0  0  0  0  0  0  0
   -3.1880   24.0540  -28.0680 C   0  0  0  0  0  0  0  0  0  0  0  0
   -7.0900   23.0190  -30.6420 C   0  0  0  0  0  0  0  0  0  0  0  0
   -7.5110   21.7690  -31.1010 C   0  0  0  0  0  0  0  0  0  0  0  0
   -6.6510   20.9670  -31.8600 C   0  0  0  0  0  0  0  0  0  0  0  0
   -7.2400   19.3990  -32.4000 Cl  0  0  0  0  0  0  0  0  0  0  0  0
   -3.4130   22.2390  -34.1980 H   0  0  0  0  0  0  0  0  0  0  0  0
   -2.6300   20.8190  -34.6690 H   0  0  0  0  0  0  0  0  0  0  0  0
   -3.9557   23.0778  -31.9989 H   0  0  0  0  0  0  0  0  0  0  0  0
   -1.1513   23.9039  -30.8102 H   0  0  0  0  0  0  0  0  0  0  0  0
    0.2113   22.5453  -29.2250 H   0  0  0  0  0  0  0  0  0  0  0  0
    0.5463   19.9056  -28.3473 H   0  0  0  0  0  0  0  0  0  0  0  0
   -0.5137   18.4762  -27.9541 H   0  0  0  0  0  0  0  0  0  0  0  0
   -1.2287   21.0721  -29.3407 H   0  0  0  0  0  0  0  0  0  0  0  0
   -1.5308   19.3416  -29.8320 H   0  0  0  0  0  0  0  0  0  0  0  0
   -3.1736   21.1682  -28.1829 H   0  0  0  0  0  0  0  0  0  0  0  0
   -3.6205   19.6896  -29.1347 H   0  0  0  0  0  0  0  0  0  0  0  0
   -4.0416   19.4120  -26.7012 H   0  0  0  0  0  0  0  0  0  0  0  0
   -2.8158   18.2519  -27.3415 H   0  0  0  0  0  0  0  0  0  0  0  0
   -2.3947   20.7273  -25.6218 H   0  0  0  0  0  0  0  0  0  0  0  0
   -1.8795   18.9921  -25.3416 H   0  0  0  0  0  0  0  0  0  0  0  0
   -2.7851   23.1150  -26.1550 H   0  0  0  0  0  0  0  0  0  0  0  0
   -4.1519   24.4710  -27.7409 H   0  0  0  0  0  0  0  0  0  0  0  0
   -7.7687   23.6385  -30.0374 H   0  0  0  0  0  0  0  0  0  0  0  0
   -8.5245   21.4127  -30.8646 H   0  0  0  0  0  0  0  0  0  0  0  0
  1  2  1  0
  2  3  2  0
  2  4  2  0
  2  5  1  0
  5  6  2  0
  6  7  1  0
  7  8  1  0
  8  9  2  0
  8 10  2  0
  8 11  1  0
 11 12  1  0
 12 13  2  0
 13 14  1  0
 14 15  2  0
 15 16  1  0
 16 17  2  0
 16 18  2  0
 16 19  1  0
 19 20  1  0
 20 21  1  0
 21 22  1  0
 22 23  1  0
 23 24  1  0
 15 25  1  0
 25 26  2  0
  7 27  2  0
 27 28  1  0
 28 29  2  0
 29 30  1  0
 29  5  1  0
 26 12  1  0
 24 19  1  0
  1 31  1  0
  1 32  1  0
  6 33  1  0
 13 34  1  0
 14 35  1  0
 20 36  1  0
 20 37  1  0
 21 38  1  0
 21 39  1  0
 22 40  1  0
 22 41  1  0
 23 42  1  0
 23 43  1  0
 24 44  1  0
 24 45  1  0
 25 46  1  0
 26 47  1  0
 27 48  1  0
 28 49  1  0
M  CHG  1  11  -1
M  END
>  <UniqueID>  (4) 
4

>  <SMILES>  (4) 
NS(=O)(=O)c1cc(S(=O)(=O)[N-]c2ccc(S(=O)(=O)N3CCCCC3)cc2)ccc1Cl

>  <Energy>  (4) 
60.37977385589472

>  <Genealogy>  (4) 
NS(=O)(=O)c1cc(S(=O)(=O)[N-]c2ccc(S(=O)(=O)N3CCCCC3)cc2)ccc1Cl (protonated)
NS(=O)(=O)c1cc(S(=O)(=O)[N-]c2ccc(S(=O)(=O)N3CCCCC3)cc2)ccc1Cl (3D coordinates assigned)
NS(=O)(=O)c1cc(S(=O)(=O)[N-]c2ccc(S(=O)(=O)N3CCCCC3)cc2)ccc1Cl (nonaromatic ring conformer: 60.37977385589472 kcal/mol)

>  <smiles>  (4) 
NS(=O)(=O)c1cc(S(=O)(=O)Nc2ccc(S(=O)(=O)N3CCCCC3)cc2)ccc1Cl

>  <score_type>  (4) 
oracle

>  <origin>  (4) 
adgpu

>  <m_score__min__energy>  (4) 
-12.050000000000001

>  <m_primary>  (4) 
energy

$$$$
4:0
     RDKit          3D

 64 67  0  0  0  0  0  0  0  0999 V2000
   -4.0580   14.2990  -32.8300 C   0  0  0  0  0  0  0  0  0  0  0  0
   -3.7830   14.8800  -34.1000 O   0  0  0  0  0  0  0  0  0  0  0  0
   -2.7700   15.8210  -34.3430 C   0  0  0  0  0  0  0  0  0  0  0  0
   -1.5350   15.4550  -34.9120 C   0  0  0  0  0  0  0  0  0  0  0  0
   -0.5440   16.4150  -35.1300 C   0  0  0  0  0  0  0  0  0  0  0  0
   -0.7740   17.7550  -34.7990 C   0  0  0  0  0  0  0  0  0  0  0  0
    0.4840   18.9660  -35.0610 S   0  0  0  0  0  0  0  0  0  0  0  0
    1.8290   18.2930  -35.0610 O   0  0  0  0  0  0  0  0  0  0  0  0
    0.2840   19.6050  -36.4070 O   0  0  0  0  0  0  0  0  0  0  0  0
    0.4500   20.1990  -33.8220 N   0  0  0  0  0  0  0  0  0  0  0  0
   -0.4830   21.3000  -34.1690 C   0  0  0  0  0  0  0  0  0  0  0  0
   -1.8030   21.2370  -33.3880 C   0  0  0  0  0  0  0  0  0  0  0  0
   -1.5550   21.2830  -31.8710 C   0  0  0  0  0  0  0  0  0  0  0  0
   -0.2200   20.6320  -31.4660 C   0  0  0  0  0  0  0  0  0  0  0  0
    0.2180   19.5860  -32.4960 C   0  0  0  0  0  0  0  0  0  0  0  0
   -2.0060   18.1270  -34.2480 C   0  0  0  0  0  0  0  0  0  0  0  0
   -2.9970   17.1650  -33.9930 C   0  0  0  0  0  0  0  0  0  0  0  0
   -4.2590   17.5480  -33.4210 N   0  0  0  0  0  0  0  0  0  0  0  0
   -4.7990   18.8800  -33.5150 C   0  0  0  0  0  0  0  0  0  0  0  0
   -4.1540   19.7790  -34.1220 O   0  0  0  0  0  0  0  0  0  0  0  0
   -6.1020   19.2250  -32.9000 C   0  0  0  0  0  0  0  0  0  0  0  0
   -7.1400   18.2760  -32.8850 C   0  0  0  0  0  0  0  0  0  0  0  0
   -8.3780   18.5890  -32.3200 C   0  0  0  0  0  0  0  0  0  0  0  0
   -8.6000   19.8540  -31.7730 C   0  0  0  0  0  0  0  0  0  0  0  0
   -7.5840   20.8180  -31.7950 C   0  0  0  0  0  0  0  0  0  0  0  0
   -7.8720   22.4300  -31.1350 S   0  0  0  0  0  0  0  0  0  0  0  0
   -8.4120   22.3000  -29.7370 O   0  0  0  0  0  0  0  0  0  0  0  0
   -8.9110   23.1280  -31.9690 O   0  0  0  0  0  0  0  0  0  0  0  0
   -6.4150   23.3910  -31.1030 N   0  0  0  0  0  0  0  0  0  0  0  0
   -5.3370   22.6710  -30.4030 C   0  0  0  0  0  0  0  0  0  0  0  0
   -4.1290   23.5990  -30.1640 C   0  0  0  0  0  0  0  0  0  0  0  0
   -4.2480   24.7950  -30.9100 O   0  0  0  0  0  0  0  0  0  0  0  0
   -5.3720   25.5320  -30.4590 C   0  0  0  0  0  0  0  0  0  0  0  0
   -6.6640   24.6870  -30.4560 C   0  0  0  0  0  0  0  0  0  0  0  0
   -6.3390   20.5010  -32.3570 C   0  0  0  0  0  0  0  0  0  0  0  0
   -3.7330   14.9857  -32.0345 H   0  0  0  0  0  0  0  0  0  0  0  0
   -5.1386   14.1154  -32.7370 H   0  0  0  0  0  0  0  0  0  0  0  0
   -3.5150   13.3469  -32.7370 H   0  0  0  0  0  0  0  0  0  0  0  0
   -1.3494   14.4061  -35.1866 H   0  0  0  0  0  0  0  0  0  0  0  0
    0.4217   16.1162  -35.5639 H   0  0  0  0  0  0  0  0  0  0  0  0
    0.0091   22.2588  -33.9487 H   0  0  0  0  0  0  0  0  0  0  0  0
   -0.7276   21.1994  -35.2367 H   0  0  0  0  0  0  0  0  0  0  0  0
   -2.4308   22.0935  -33.6750 H   0  0  0  0  0  0  0  0  0  0  0  0
   -2.3057   20.2890  -33.6299 H   0  0  0  0  0  0  0  0  0  0  0  0
   -1.5459   22.3344  -31.5479 H   0  0  0  0  0  0  0  0  0  0  0  0
   -2.3620   20.7146  -31.3856 H   0  0  0  0  0  0  0  0  0  0  0  0
    0.5528   21.4115  -31.3946 H   0  0  0  0  0  0  0  0  0  0  0  0
   -0.3552   20.1318  -30.4957 H   0  0  0  0  0  0  0  0  0  0  0  0
    1.1499   19.1134  -32.1522 H   0  0  0  0  0  0  0  0  0  0  0  0
   -0.5844   18.8401  -32.5949 H   0  0  0  0  0  0  0  0  0  0  0  0
   -2.1999   19.1838  -34.0123 H   0  0  0  0  0  0  0  0  0  0  0  0
   -4.7710   16.8270  -32.8680 H   0  0  0  0  0  0  0  0  0  0  0  0
   -6.9753   17.2799  -33.3216 H   0  0  0  0  0  0  0  0  0  0  0  0
   -9.1805   17.8368  -32.3059 H   0  0  0  0  0  0  0  0  0  0  0  0
   -9.5749   20.0943  -31.3237 H   0  0  0  0  0  0  0  0  0  0  0  0
   -5.7131   22.3107  -29.4341 H   0  0  0  0  0  0  0  0  0  0  0  0
   -5.0147   21.8235  -31.0258 H   0  0  0  0  0  0  0  0  0  0  0  0
   -4.0735   23.8475  -29.0939 H   0  0  0  0  0  0  0  0  0  0  0  0
   -3.2176   23.0753  -30.4880 H   0  0  0  0  0  0  0  0  0  0  0  0
   -5.1768   25.8835  -29.4351 H   0  0  0  0  0  0  0  0  0  0  0  0
   -5.5221   26.3738  -31.1510 H   0  0  0  0  0  0  0  0  0  0  0  0
   -6.9885   24.5203  -29.4183 H   0  0  0  0  0  0  0  0  0  0  0  0
   -7.4491   25.2233  -31.0092 H   0  0  0  0  0  0  0  0  0  0  0  0
   -5.5402   21.2571  -32.3734 H   0  0  0  0  0  0  0  0  0  0  0  0
  1  2  1  0
  2  3  1  0
  3  4  2  0
  4  5  1  0
  5  6  2  0
  6  7  1  0
  7  8  2  0
  7  9  2  0
  7 10  1  0
 10 11  1  0
 11 12  1  0
 12 13  1  0
 13 14  1  0
 14 15  1  0
  6 16  1  0
 16 17  2  0
 17 18  1  0
 18 19  1  0
 19 20  2  0
 19 21  1  0
 21 22  2  0
 22 23  1  0
 23 24  2  0
 24 25  1  0
 25 26  1  0
 26 27  2  0
 26 28  2  0
 26 29  1  0
 29 30  1  0
 30 31  1  0
 31 32  1  0
 32 33  1  0
 33 34  1  0
 25 35  2  0
 17  3  1  0
 35 21  1  0
 15 10  1  0
 34 29  1  0
  1 36  1  0
  1 37  1  0
  1 38  1  0
  4 39  1  0
  5 40  1  0
 11 41  1  0
 11 42  1  0
 12 43  1  0
 12 44  1  0
 13 45  1  0
 13 46  1  0
 14 47  1  0
 14 48  1  0
 15 49  1  0
 15 50  1  0
 16 51  1  0
 18 52  1  0
 22 53  1  0
 23 54  1  0
 24 55  1  0
 30 56  1  0
 30 57  1  0
 31 58  1  0
 31 59  1  0
 33 60  1  0
 33 61  1  0
 34 62  1  0
 34 63  1  0
 35 64  1  0
M  END
>  <UniqueID>  (5) 
5

>  <SMILES>  (5) 
COc1ccc(S(=O)(=O)N2CCCCC2)cc1NC(=O)c1cccc(S(=O)(=O)N2CCOCC2)c1

>  <Energy>  (5) 
83.22277572416154

>  <Genealogy>  (5) 
COc1ccc(S(=O)(=O)N2CCCCC2)cc1NC(=O)c1cccc(S(=O)(=O)N2CCOCC2)c1 (3D coordinates assigned)
COc1ccc(S(=O)(=O)N2CCCCC2)cc1NC(=O)c1cccc(S(=O)(=O)N2CCOCC2)c1 (nonaromatic ring conformer: 83.22277572416154 kcal/mol)

>  <smiles>  (5) 
COc1ccc(S(=O)(=O)N2CCCCC2)cc1NC(=O)c1cccc(S(=O)(=O)N2CCOCC2)c1

>  <score_type>  (5) 
oracle

>  <origin>  (5) 
adgpu

>  <m_score__min__energy>  (5) 
-11.66

>  <m_primary>  (5) 
energy

$$$$
5:0
     RDKit          3D

 48 50  0  0  0  0  0  0  0  0999 V2000
   -0.5200   22.1260  -29.1650 C   0  0  0  0  0  0  0  0  0  0  0  0
   -1.7280   22.7950  -28.5050 C   0  0  1  0  0  0  0  0  0  0  0  0
   -1.4360   23.1890  -27.0530 C   0  0  0  0  0  0  0  0  0  0  0  0
   -2.0530   24.5570  -26.8960 C   0  0  0  0  0  0  0  0  0  0  0  0
   -2.0160   25.1380  -28.2950 C   0  0  0  0  0  0  0  0  0  0  0  0
   -2.0790   24.0220  -29.2470 N   0  0  0  0  0  0  0  0  0  0  0  0
   -3.6660   23.8990  -29.9770 S   0  0  0  0  0  0  0  0  0  0  0  0
   -3.9360   25.1360  -30.7910 O   0  0  0  0  0  0  0  0  0  0  0  0
   -4.7040   23.8220  -28.8910 O   0  0  0  0  0  0  0  0  0  0  0  0
   -3.8040   22.4760  -31.0170 C   0  0  0  0  0  0  0  0  0  0  0  0
   -3.5870   21.1940  -30.4950 C   0  0  0  0  0  0  0  0  0  0  0  0
   -3.7320   20.0670  -31.3090 C   0  0  0  0  0  0  0  0  0  0  0  0
   -4.0830   20.2050  -32.6630 C   0  0  0  0  0  0  0  0  0  0  0  0
   -4.2570   19.0420  -33.4970 N   0  0  0  0  0  0  0  0  0  0  0  0
   -3.0970   18.2890  -33.9670 C   0  0  0  0  0  0  0  0  0  0  0  0
   -5.8510   18.5130  -33.9640 S   0  0  0  0  0  0  0  0  0  0  0  0
   -5.9600   17.0180  -33.8530 O   0  0  0  0  0  0  0  0  0  0  0  0
   -6.1060   18.9230  -35.3890 O   0  0  0  0  0  0  0  0  0  0  0  0
   -7.0450   19.2310  -32.8850 C   0  0  0  0  0  0  0  0  0  0  0  0
   -7.8710   18.4250  -32.0850 C   0  0  0  0  0  0  0  0  0  0  0  0
   -8.8160   19.0130  -31.2370 C   0  0  0  0  0  0  0  0  0  0  0  0
   -8.9390   20.4070  -31.1830 C   0  0  0  0  0  0  0  0  0  0  0  0
   -8.1160   21.2140  -31.9760 C   0  0  0  0  0  0  0  0  0  0  0  0
   -8.2720   22.9620  -31.9120 Cl  0  0  0  0  0  0  0  0  0  0  0  0
   -7.1700   20.6270  -32.8270 C   0  0  0  0  0  0  0  0  0  0  0  0
   -4.2900   21.4940  -33.1850 C   0  0  0  0  0  0  0  0  0  0  0  0
   -4.1430   22.6200  -32.3690 C   0  0  0  0  0  0  0  0  0  0  0  0
    0.1606   21.7491  -28.3874 H   0  0  0  0  0  0  0  0  0  0  0  0
   -0.8613   21.2884  -29.7910 H   0  0  0  0  0  0  0  0  0  0  0  0
    0.0089   22.8598  -29.7910 H   0  0  0  0  0  0  0  0  0  0  0  0
   -2.5547   22.0696  -28.5201 H   0  0  0  0  0  0  0  0  0  0  0  0
   -1.8971   22.4732  -26.3566 H   0  0  0  0  0  0  0  0  0  0  0  0
   -0.3587   23.1902  -26.8306 H   0  0  0  0  0  0  0  0  0  0  0  0
   -3.0881   24.4797  -26.5319 H   0  0  0  0  0  0  0  0  0  0  0  0
   -1.5193   25.1809  -26.1640 H   0  0  0  0  0  0  0  0  0  0  0  0
   -2.8763   25.8068  -28.4452 H   0  0  0  0  0  0  0  0  0  0  0  0
   -1.0942   25.7191  -28.4451 H   0  0  0  0  0  0  0  0  0  0  0  0
   -3.3012   21.0739  -29.4396 H   0  0  0  0  0  0  0  0  0  0  0  0
   -3.5702   19.0643  -30.8867 H   0  0  0  0  0  0  0  0  0  0  0  0
   -2.5259   17.9183  -33.1030 H   0  0  0  0  0  0  0  0  0  0  0  0
   -3.4348   17.4375  -34.5760 H   0  0  0  0  0  0  0  0  0  0  0  0
   -2.4567   18.9442  -34.5760 H   0  0  0  0  0  0  0  0  0  0  0  0
   -7.7750   17.3299  -32.1250 H   0  0  0  0  0  0  0  0  0  0  0  0
   -9.4629   18.3797  -30.6122 H   0  0  0  0  0  0  0  0  0  0  0  0
   -9.6831   20.8677  -30.5167 H   0  0  0  0  0  0  0  0  0  0  0  0
   -6.5241   21.2623  -33.4509 H   0  0  0  0  0  0  0  0  0  0  0  0
   -4.5693   21.6174  -34.2418 H   0  0  0  0  0  0  0  0  0  0  0  0
   -4.2943   23.6246  -32.7908 H   0  0  0  0  0  0  0  0  0  0  0  0
  1  2  1  0
  2  3  1  0
  3  4  1  0
  4  5  1  0
  5  6  1  0
  6  7  1  0
  7  8  2  0
  7  9  2  0
  7 10  1  0
 10 11  2  0
 11 12  1  0
 12 13  2  0
 13 14  1  0
 14 15  1  0
 14 16  1  0
 16 17  2  0
 16 18  2  0
 16 19  1  0
 19 20  2  0
 20 21  1  0
 21 22  2  0
 22 23  1  0
 23 24  1  0
 23 25  2  0
 13 26  1  0
 26 27  2  0
  6  2  1  0
 27 10  1  0
 25 19  1  0
  1 28  1  0
  1 29  1  0
  1 30  1  0
  2 31  1  1
  3 32  1  0
  3 33  1  0
  4 34  1  0
  4 35  1  0
  5 36  1  0
  5 37  1  0
 11 38  1  0
 12 39  1  0
 15 40  1  0
 15 41  1  0
 15 42  1  0
 20 43  1  0
 21 44  1  0
 22 45  1  0
 25 46  1  0
 26 47  1  0
 27 48  1  0
M  END
>  <UniqueID>  (6) 
6

>  <SMILES>  (6) 
C[C@H]1CCCN1S(=O)(=O)c1ccc(N(C)S(=O)(=O)c2cccc(Cl)c2)cc1

>  <Energy>  (6) 
51.94341644243767

>  <Genealogy>  (6) 
C[C@H]1CCCN1S(=O)(=O)c1ccc(N(C)S(=O)(=O)c2cccc(Cl)c2)cc1 (chirality)
C[C@H]1CCCN1S(=O)(=O)c1ccc(N(C)S(=O)(=O)c2cccc(Cl)c2)cc1 (3D coordinates assigned)
C[C@H]1CCCN1S(=O)(=O)c1ccc(N(C)S(=O)(=O)c2cccc(Cl)c2)cc1 (nonaromatic ring conformer: 51.94341644243767 kcal/mol)

>  <smiles>  (6) 
CC1CCCN1S(=O)(=O)c1ccc(N(C)S(=O)(=O)c2cccc(Cl)c2)cc1

>  <score_type>  (6) 
oracle

>  <origin>  (6) 
adgpu

>  <m_score__min__energy>  (6) 
-9.9900000000000002

>  <m_primary>  (6) 
energy

$$$$
6:0
     RDKit          3D

 46 49  0  0  0  0  0  0  0  0999 V2000
   -9.7250   21.5790  -32.0140 C   0  0  0  0  0  0  0  0  0  0  0  0
   -8.8460   21.4090  -30.7820 C   0  0  0  0  0  0  0  0  0  0  0  0
   -7.4290   21.4570  -31.1580 N   0  0  0  0  0  0  0  0  0  0  0  0
   -6.7770   20.6370  -32.0220 C   0  0  0  0  0  0  0  0  0  0  0  0
   -7.2900   19.5390  -32.7210 C   0  0  0  0  0  0  0  0  0  0  0  0
   -6.4220   18.8330  -33.5740 C   0  0  0  0  0  0  0  0  0  0  0  0
   -5.0750   19.2330  -33.7190 C   0  0  0  0  0  0  0  0  0  0  0  0
   -4.5810   20.3470  -33.0170 C   0  0  0  0  0  0  0  0  0  0  0  0
   -5.4600   21.0260  -32.1770 C   0  0  0  0  0  0  0  0  0  0  0  0
   -5.2900   22.1410  -31.3890 C   0  0  0  0  0  0  0  0  0  0  0  0
   -4.1820   22.9570  -31.1760 C   0  0  0  0  0  0  0  0  0  0  0  0
   -4.3210   24.0620  -30.3100 C   0  0  0  0  0  0  0  0  0  0  0  0
   -3.1810   24.9090  -30.0750 N   0  0  0  0  0  0  0  0  0  0  0  0
   -2.0260   24.6430  -28.8070 S   0  0  0  0  0  0  0  0  0  0  0  0
   -0.6420   24.8950  -29.3350 O   0  0  0  0  0  0  0  0  0  0  0  0
   -2.3020   25.6030  -27.6830 O   0  0  0  0  0  0  0  0  0  0  0  0
   -2.1240   22.9770  -28.2450 C   0  0  0  0  0  0  0  0  0  0  0  0
   -3.3590   22.4130  -27.9020 C   0  0  0  0  0  0  0  0  0  0  0  0
   -3.4300   21.0840  -27.4710 C   0  0  0  0  0  0  0  0  0  0  0  0
   -2.2660   20.3050  -27.3880 C   0  0  0  0  0  0  0  0  0  0  0  0
   -2.3420   18.8920  -26.8910 C   0  0  0  0  0  0  0  0  0  0  0  0
   -1.0260   20.8790  -27.7110 C   0  0  0  0  0  0  0  0  0  0  0  0
   -0.9580   22.2080  -28.1420 C   0  0  0  0  0  0  0  0  0  0  0  0
   -5.5790   24.3190  -29.7010 C   0  0  0  0  0  0  0  0  0  0  0  0
   -6.6820   23.4790  -29.9390 C   0  0  0  0  0  0  0  0  0  0  0  0
   -6.5080   22.3840  -30.7870 C   0  0  0  0  0  0  0  0  0  0  0  0
  -10.7603   21.7792  -31.7009 H   0  0  0  0  0  0  0  0  0  0  0  0
   -9.3542   22.4221  -32.6155 H   0  0  0  0  0  0  0  0  0  0  0  0
   -9.6953   20.6585  -32.6155 H   0  0  0  0  0  0  0  0  0  0  0  0
   -9.0600   22.2187  -30.0689 H   0  0  0  0  0  0  0  0  0  0  0  0
   -9.0612   20.4341  -30.3203 H   0  0  0  0  0  0  0  0  0  0  0  0
   -8.3414   19.2365  -32.6070 H   0  0  0  0  0  0  0  0  0  0  0  0
   -6.7954   17.9622  -34.1327 H   0  0  0  0  0  0  0  0  0  0  0  0
   -4.4071   18.6686  -34.3864 H   0  0  0  0  0  0  0  0  0  0  0  0
   -3.5357   20.6710  -33.1277 H   0  0  0  0  0  0  0  0  0  0  0  0
   -3.2225   22.7454  -31.6705 H   0  0  0  0  0  0  0  0  0  0  0  0
   -2.9700   25.6750  -30.7530 H   0  0  0  0  0  0  0  0  0  0  0  0
   -4.2759   23.0167  -27.9717 H   0  0  0  0  0  0  0  0  0  0  0  0
   -4.4019   20.6482  -27.1962 H   0  0  0  0  0  0  0  0  0  0  0  0
   -2.3421   18.8897  -25.7910 H   0  0  0  0  0  0  0  0  0  0  0  0
   -3.2667   18.4232  -27.2587 H   0  0  0  0  0  0  0  0  0  0  0  0
   -1.4730   18.3267  -27.2587 H   0  0  0  0  0  0  0  0  0  0  0  0
   -0.1060   20.2822  -27.6249 H   0  0  0  0  0  0  0  0  0  0  0  0
    0.0150   22.6508  -28.4010 H   0  0  0  0  0  0  0  0  0  0  0  0
   -5.6918   25.1867  -29.0344 H   0  0  0  0  0  0  0  0  0  0  0  0
   -7.6561   23.6798  -29.4691 H   0  0  0  0  0  0  0  0  0  0  0  0
  1  2  1  0
  2  3  1  0
  3  4  1  0
  4  5  2  0
  5  6  1  0
  6  7  2  0
  7  8  1  0
  8  9  2  0
  9 10  1  0
 10 11  2  0
 11 12  1  0
 12 13  1  0
 13 14  1  0
 14 15  2  0
 14 16  2  0
 14 17  1  0
 17 18  2  0
 18 19  1  0
 19 20  2  0
 20 21  1  0
 20 22  1  0
 22 23  2  0
 12 24  2  0
 24 25  1  0
 25 26  2  0
 26  3  1  0
  9  4  1  0
 26 10  1  0
 23 17  1  0
  1 27  1  0
  1 28  1  0
  1 29  1  0
  2 30  1  0
  2 31  1  0
  5 32  1  0
  6 33  1  0
  7 34  1  0
  8 35  1  0
 11 36  1  0
 13 37  1  0
 18 38  1  0
 19 39  1  0
 21 40  1  0
 21 41  1  0
 21 42  1  0
 22 43  1  0
 23 44  1  0
 24 45  1  0
 25 46  1  0
M  END
>  <UniqueID>  (7) 
7

>  <SMILES>  (7) 
CCn1c2ccccc2c2cc(NS(=O)(=O)c3ccc(C)cc3)ccc21

>  <Energy>  (7) 
90.41809887579848

>  <Genealogy>  (7) 
CCn1c2ccccc2c2cc(NS(=O)(=O)c3ccc(C)cc3)ccc21 (3D coordinates assigned)
CCn1c2ccccc2c2cc(NS(=O)(=O)c3ccc(C)cc3)ccc21 (optimized conformer: 90.41809887579848 kcal/mol)

>  <smiles>  (7) 
CCn1c2ccccc2c2cc(NS(=O)(=O)c3ccc(C)cc3)ccc21

>  <score_type>  (7) 
oracle

>  <origin>  (7) 
adgpu

>  <m_score__min__energy>  (7) 
-9.75

>  <m_primary>  (7) 
energy

$$$$
7:0
     RDKit          3D

 59 62  0  0  0  0  0  0  0  0999 V2000
   -5.0560   17.7700  -35.4270 C   0  0  0  0  0  0  0  0  0  0  0  0
   -5.2840   16.9450  -34.2210 N   0  0  0  0  0  0  0  0  0  0  0  0
   -6.7360   16.6880  -34.1120 C   0  0  0  0  0  0  0  0  0  0  0  0
   -4.7020   17.6110  -33.0150 C   0  0  0  0  0  0  0  0  0  0  0  0
   -4.1250   19.0340  -33.2970 C   0  0  0  0  0  0  0  0  0  0  0  0
   -5.2360   20.0790  -33.4360 C   0  0  0  0  0  0  0  0  0  0  0  0
   -6.1220   20.0510  -32.2680 N   0  0  0  0  0  0  0  0  0  0  0  0
   -7.1970   20.9930  -32.1750 C   0  0  0  0  0  0  0  0  0  0  0  0
   -8.5120   20.5460  -32.3470 C   0  0  0  0  0  0  0  0  0  0  0  0
   -9.5640   21.4550  -32.2460 C   0  0  0  0  0  0  0  0  0  0  0  0
   -9.3120   22.7600  -31.9710 N   0  0  0  0  0  0  0  0  0  0  0  0
   -8.0460   23.2250  -31.8020 C   0  0  0  0  0  0  0  0  0  0  0  0
   -6.9460   22.3530  -31.9170 C   0  0  0  0  0  0  0  0  0  0  0  0
   -5.5990   22.8160  -31.7010 N   0  0  0  0  0  0  0  0  0  0  0  0
   -5.2580   24.1300  -31.2390 C   0  0  0  0  0  0  0  0  0  0  0  0
   -6.1000   25.0650  -31.2990 O   0  0  0  0  0  0  0  0  0  0  0  0
   -3.9240   24.3840  -30.7840 N   0  0  0  0  0  0  0  0  0  0  0  0
   -3.2360   23.6770  -29.7400 C   0  0  0  0  0  0  0  0  0  0  0  0
   -3.4940   22.3230  -29.4790 C   0  0  0  0  0  0  0  0  0  0  0  0
   -2.7740   21.6470  -28.4950 C   0  0  0  0  0  0  0  0  0  0  0  0
   -1.7870   22.3060  -27.7550 C   0  0  0  0  0  0  0  0  0  0  0  0
   -0.8920   21.3550  -26.5760 Cl  0  0  0  0  0  0  0  0  0  0  0  0
   -1.5170   23.6730  -27.9970 C   0  0  0  0  0  0  0  0  0  0  0  0
   -0.2640   24.5370  -27.0790 S   0  0  0  0  0  0  0  0  0  0  0  0
    0.2740   25.6870  -27.8860 O   0  0  0  0  0  0  0  0  0  0  0  0
    0.8860   23.6160  -26.7780 O   0  0  0  0  0  0  0  0  0  0  0  0
   -0.9700   25.0940  -25.5280 C   0  0  0  0  0  0  0  0  0  0  0  0
   -2.3730   25.6770  -25.6100 C   0  0  0  0  0  0  0  0  0  0  0  0
   -1.1750   26.5980  -25.4460 C   0  0  0  0  0  0  0  0  0  0  0  0
   -2.2300   24.3390  -29.0190 C   0  0  0  0  0  0  0  0  0  0  0  0
   -1.9410   25.6640  -29.3340 O   0  0  0  0  0  0  0  0  0  0  0  0
   -5.9430   19.0380  -31.2230 C   0  0  0  0  0  0  0  0  0  0  0  0
   -5.7730   17.6600  -31.8730 C   0  0  0  0  0  0  0  0  0  0  0  0
   -4.7742   18.7897  -35.1258 H   0  0  0  0  0  0  0  0  0  0  0  0
   -4.2464   17.3277  -36.0261 H   0  0  0  0  0  0  0  0  0  0  0  0
   -5.9778   17.8062  -36.0261 H   0  0  0  0  0  0  0  0  0  0  0  0
   -7.0208   16.6376  -33.0507 H   0  0  0  0  0  0  0  0  0  0  0  0
   -7.2903   17.5020  -34.6021 H   0  0  0  0  0  0  0  0  0  0  0  0
   -6.9772   15.7332  -34.6021 H   0  0  0  0  0  0  0  0  0  0  0  0
   -3.8417   17.0025  -32.6995 H   0  0  0  0  0  0  0  0  0  0  0  0
   -3.4662   19.3228  -32.4648 H   0  0  0  0  0  0  0  0  0  0  0  0
   -3.5691   18.9966  -34.2455 H   0  0  0  0  0  0  0  0  0  0  0  0
   -4.7836   21.0779  -33.5223 H   0  0  0  0  0  0  0  0  0  0  0  0
   -5.8275   19.8494  -34.3345 H   0  0  0  0  0  0  0  0  0  0  0  0
   -8.7138   19.4859  -32.5602 H   0  0  0  0  0  0  0  0  0  0  0  0
  -10.6000   21.1141  -32.3894 H   0  0  0  0  0  0  0  0  0  0  0  0
   -7.8797   24.2882  -31.5742 H   0  0  0  0  0  0  0  0  0  0  0  0
   -4.8090   22.1600  -31.8950 H   0  0  0  0  0  0  0  0  0  0  0  0
   -4.2678   21.7924  -30.0532 H   0  0  0  0  0  0  0  0  0  0  0  0
   -2.9842   20.5852  -28.2988 H   0  0  0  0  0  0  0  0  0  0  0  0
   -0.4906   24.3264  -24.9027 H   0  0  0  0  0  0  0  0  0  0  0  0
   -2.9233   25.6545  -26.5622 H   0  0  0  0  0  0  0  0  0  0  0  0
   -3.3141   25.5197  -25.0626 H   0  0  0  0  0  0  0  0  0  0  0  0
   -0.8586   27.2423  -26.2795 H   0  0  0  0  0  0  0  0  0  0  0  0
   -0.8905   27.3835  -24.7305 H   0  0  0  0  0  0  0  0  0  0  0  0
   -5.0479   19.2769  -30.6299 H   0  0  0  0  0  0  0  0  0  0  0  0
   -6.8253   19.0280  -30.5662 H   0  0  0  0  0  0  0  0  0  0  0  0
   -5.4756   16.9453  -31.0915 H   0  0  0  0  0  0  0  0  0  0  0  0
   -6.7386   17.4106  -32.3372 H   0  0  0  0  0  0  0  0  0  0  0  0
  1  2  1  0
  2  3  1  0
  2  4  1  0
  4  5  1  0
  5  6  1  0
  6  7  1  0
  7  8  1  0
  8  9  2  0
  9 10  1  0
 10 11  2  0
 11 12  1  0
 12 13  2  0
 13 14  1  0
 14 15  1  0
 15 16  2  0
 15 17  1  0
 17 18  1  0
 18 19  2  0
 19 20  1  0
 20 21  2  0
 21 22  1  0
 21 23  1  0
 23 24  1  0
 24 25  2  0
 24 26  2  0
 24 27  1  0
 27 28  1  0
 28 29  1  0
 23 30  2  0
 30 31  1  0
  7 32  1  0
 32 33  1  0
 33  4  1  0
 13  8  1  0
 30 18  1  0
 29 27  1  0
  1 34  1  0
  1 35  1  0
  1 36  1  0
  3 37  1  0
  3 38  1  0
  3 39  1  0
  4 40  1  0
  5 41  1  0
  5 42  1  0
  6 43  1  0
  6 44  1  0
  9 45  1  0
 10 46  1  0
 12 47  1  0
 14 48  1  0
 19 49  1  0
 20 50  1  0
 27 51  1  0
 28 52  1  0
 28 53  1  0
 29 54  1  0
 29 55  1  0
 32 56  1  0
 32 57  1  0
 33 58  1  0
 33 59  1  0
M  CHG  2  17  -1  31  -1
M  END
>  <UniqueID>  (8) 
8

>  <SMILES>  (8) 
CN(C)C1CCN(c2ccncc2NC(=O)[N-]c2ccc(Cl)c(S(=O)(=O)C3CC3)c2[O-])CC1

>  <Energy>  (8) 
350.8247314125477

>  <Genealogy>  (8) 
CN(C)C1CCN(c2ccncc2NC(=O)[N-]c2ccc(Cl)c(S(=O)(=O)C3CC3)c2[O-])CC1 (protonated)
CN(C)C1CCN(c2ccncc2NC(=O)[N-]c2ccc(Cl)c(S(=O)(=O)C3CC3)c2[O-])CC1 (3D coordinates assigned)
CN(C)C1CCN(c2ccncc2NC(=O)[N-]c2ccc(Cl)c(S(=O)(=O)C3CC3)c2[O-])CC1 (nonaromatic ring conformer: 350.8247314125477 kcal/mol)

>  <smiles>  (8) 
CN(C)C1CCN(c2ccncc2NC(=O)Nc2ccc(Cl)c(S(=O)(=O)C3CC3)c2O)CC1

>  <score_type>  (8) 
oracle

>  <origin>  (8) 
adgpu

>  <m_score__min__energy>  (8) 
-14.609999999999999

>  <m_primary>  (8) 
energy

$$$$
8:0
     RDKit          3D

 32 33  0  0  0  0  0  0  0  0999 V2000
   -3.6380   25.1120  -30.7550 N   0  0  0  0  0  0  0  0  0  0  0  0
   -5.1430   25.1850  -29.9110 S   0  0  0  0  0  0  0  0  0  0  0  0
   -5.7340   26.5600  -30.0540 O   0  0  0  0  0  0  0  0  0  0  0  0
   -4.9130   24.9090  -28.4520 O   0  0  0  0  0  0  0  0  0  0  0  0
   -6.2490   23.9860  -30.5760 C   0  0  0  0  0  0  0  0  0  0  0  0
   -7.0710   23.2330  -29.7260 C   0  0  0  0  0  0  0  0  0  0  0  0
   -7.9560   22.2920  -30.2560 C   0  0  0  0  0  0  0  0  0  0  0  0
   -8.0310   22.1000  -31.6420 C   0  0  0  0  0  0  0  0  0  0  0  0
   -9.1660   20.8900  -32.3210 S   0  0  0  0  0  0  0  0  0  0  0  0
   -7.8840   19.6480  -32.4890 C   0  0  0  0  0  0  0  0  0  0  0  0
   -6.9320   19.7550  -33.5110 C   0  0  0  0  0  0  0  0  0  0  0  0
   -5.9360   18.7820  -33.6470 C   0  0  0  0  0  0  0  0  0  0  0  0
   -5.8820   17.7000  -32.7560 C   0  0  0  0  0  0  0  0  0  0  0  0
   -4.6450   16.4590  -32.9290 S   0  0  0  0  0  0  0  0  0  0  0  0
   -4.9030   15.2180  -31.7530 N   0  0  0  0  0  0  0  0  0  0  0  0
   -4.7020   15.8590  -34.3050 O   0  0  0  0  0  0  0  0  0  0  0  0
   -3.2880   17.0720  -32.7250 O   0  0  0  0  0  0  0  0  0  0  0  0
   -6.8370   17.5950  -31.7350 C   0  0  0  0  0  0  0  0  0  0  0  0
   -7.8320   18.5680  -31.6000 C   0  0  0  0  0  0  0  0  0  0  0  0
   -7.2220   22.8610  -32.4940 C   0  0  0  0  0  0  0  0  0  0  0  0
   -6.3330   23.8010  -31.9640 C   0  0  0  0  0  0  0  0  0  0  0  0
   -3.5080   26.0360  -31.2250 H   0  0  0  0  0  0  0  0  0  0  0  0
   -7.0186   23.3840  -28.6377 H   0  0  0  0  0  0  0  0  0  0  0  0
   -8.5954   21.7004  -29.5844 H   0  0  0  0  0  0  0  0  0  0  0  0
   -6.9676   20.6055  -34.2078 H   0  0  0  0  0  0  0  0  0  0  0  0
   -5.1936   18.8657  -34.4544 H   0  0  0  0  0  0  0  0  0  0  0  0
   -5.6320   14.5770  -32.1400 H   0  0  0  0  0  0  0  0  0  0  0  0
   -5.3190   15.6760  -30.9110 H   0  0  0  0  0  0  0  0  0  0  0  0
   -6.8034   16.7446  -31.0381 H   0  0  0  0  0  0  0  0  0  0  0  0
   -8.5754   18.4846  -30.7936 H   0  0  0  0  0  0  0  0  0  0  0  0
   -7.2858   22.7191  -33.5829 H   0  0  0  0  0  0  0  0  0  0  0  0
   -5.6983   24.3966  -32.6366 H   0  0  0  0  0  0  0  0  0  0  0  0
  1  2  1  0
  2  3  2  0
  2  4  2  0
  2  5  1  0
  5  6  2  0
  6  7  1  0
  7  8  2  0
  8  9  1  0
  9 10  1  0
 10 11  2  0
 11 12  1  0
 12 13  2  0
 13 14  1  0
 14 15  1  0
 14 16  2  0
 14 17  2  0
 13 18  1  0
 18 19  2  0
  8 20  1  0
 20 21  2  0
 21  5  1  0
 19 10  1  0
  1 22  1  0
  6 23  1  0
  7 24  1  0
 11 25  1  0
 12 26  1  0
 15 27  1  0
 15 28  1  0
 18 29  1  0
 19 30  1  0
 20 31  1  0
 21 32  1  0
M  CHG  1   1  -1
M  END
>  <UniqueID>  (9) 
9

>  <SMILES>  (9) 
[NH-]S(=O)(=O)c1ccc(Sc2ccc(S(N)(=O)=O)cc2)cc1

>  <Energy>  (9) 
26.110969578606056

>  <Genealogy>  (9) 
[NH-]S(=O)(=O)c1ccc(Sc2ccc(S(N)(=O)=O)cc2)cc1 (protonated)
[NH-]S(=O)(=O)c1ccc(Sc2ccc(S(N)(=O)=O)cc2)cc1 (3D coordinates assigned)
[NH-]S(=O)(=O)c1ccc(Sc2ccc(S(N)(=O)=O)cc2)cc1 (optimized conformer: 26.110969578606056 kcal/mol)

>  <smiles>  (9) 
NS(=O)(=O)c1ccc(Sc2ccc(S(N)(=O)=O)cc2)cc1

>  <score_type>  (9) 
oracle

>  <origin>  (9) 
adgpu

>  <m_score__min__energy>  (9) 
-10.69

>  <m_primary>  (9) 
energy

$$$$
9:0
     RDKit          3D

 57 60  0  0  0  0  0  0  0  0999 V2000
   -3.0430   20.6390  -29.9620 O   0  0  0  0  0  0  0  0  0  0  0  0
   -2.8220   21.1640  -31.0870 C   0  0  0  0  0  0  0  0  0  0  0  0
   -3.1410   22.5460  -31.2950 N   0  0  0  0  0  0  0  0  0  0  0  0
   -4.4360   23.1320  -31.1100 C   0  0  0  0  0  0  0  0  0  0  0  0
   -5.5680   22.3670  -31.4130 C   0  0  0  0  0  0  0  0  0  0  0  0
   -6.8550   22.9030  -31.2570 C   0  0  0  0  0  0  0  0  0  0  0  0
   -8.2770   21.9270  -31.6300 S   0  0  0  0  0  0  0  0  0  0  0  0
   -9.3730   22.8350  -32.1130 O   0  0  0  0  0  0  0  0  0  0  0  0
   -8.7600   21.2570  -30.3720 O   0  0  0  0  0  0  0  0  0  0  0  0
   -7.9610   20.7090  -32.8500 N   0  0  0  0  0  0  0  0  0  0  0  0
   -6.6610   20.0310  -32.6590 C   0  0  0  0  0  0  0  0  0  0  0  0
   -6.8000   18.6370  -32.0230 C   0  0  0  0  0  0  0  0  0  0  0  0
   -7.9350   18.5870  -31.1920 O   0  0  0  0  0  0  0  0  0  0  0  0
   -9.1080   18.6380  -31.9820 C   0  0  0  0  0  0  0  0  0  0  0  0
   -9.0910   19.7770  -33.0280 C   0  0  0  0  0  0  0  0  0  0  0  0
   -7.0040   24.2180  -30.8000 C   0  0  0  0  0  0  0  0  0  0  0  0
   -5.8780   24.9990  -30.5280 C   0  0  0  0  0  0  0  0  0  0  0  0
   -4.5950   24.4690  -30.6940 C   0  0  0  0  0  0  0  0  0  0  0  0
   -3.4920   25.2860  -30.4760 O   0  0  0  0  0  0  0  0  0  0  0  0
   -2.2880   20.3310  -32.1970 C   0  0  0  0  0  0  0  0  0  0  0  0
   -3.1100   19.3450  -32.7770 C   0  0  0  0  0  0  0  0  0  0  0  0
   -2.6430   18.5490  -33.8310 C   0  0  0  0  0  0  0  0  0  0  0  0
   -3.6950   17.3280  -34.5540 S   0  0  0  0  0  0  0  0  0  0  0  0
   -3.0300   16.7640  -35.7790 O   0  0  0  0  0  0  0  0  0  0  0  0
   -4.9820   17.9780  -34.9820 O   0  0  0  0  0  0  0  0  0  0  0  0
   -4.0460   16.0290  -33.4410 N   0  0  0  0  0  0  0  0  0  0  0  0
   -5.1670   15.2120  -33.9380 C   0  0  0  0  0  0  0  0  0  0  0  0
   -5.3660   13.9670  -33.0470 C   0  0  0  0  0  0  0  0  0  0  0  0
   -4.5540   14.0270  -31.8890 O   0  0  0  0  0  0  0  0  0  0  0  0
   -3.1870   14.0370  -32.2600 C   0  0  0  0  0  0  0  0  0  0  0  0
   -2.8590   15.1840  -33.2400 C   0  0  0  0  0  0  0  0  0  0  0  0
   -1.3420   18.7270  -34.3090 C   0  0  0  0  0  0  0  0  0  0  0  0
   -0.5130   19.6950  -33.7430 C   0  0  0  0  0  0  0  0  0  0  0  0
   -0.9730   20.4950  -32.6920 C   0  0  0  0  0  0  0  0  0  0  0  0
   -0.1080   21.4380  -32.1470 O   0  0  0  0  0  0  0  0  0  0  0  0
   -5.4475   21.3359  -31.7768 H   0  0  0  0  0  0  0  0  0  0  0  0
   -6.1745   19.9224  -33.6396 H   0  0  0  0  0  0  0  0  0  0  0  0
   -6.0644   20.6491  -31.9719 H   0  0  0  0  0  0  0  0  0  0  0  0
   -6.9001   17.8841  -32.8187 H   0  0  0  0  0  0  0  0  0  0  0  0
   -5.9053   18.4307  -31.4172 H   0  0  0  0  0  0  0  0  0  0  0  0
   -9.2148   17.6795  -32.5110 H   0  0  0  0  0  0  0  0  0  0  0  0
   -9.9508   18.8319  -31.3023 H   0  0  0  0  0  0  0  0  0  0  0  0
   -9.0219   19.3304  -34.0309 H   0  0  0  0  0  0  0  0  0  0  0  0
  -10.0174   20.3558  -32.8980 H   0  0  0  0  0  0  0  0  0  0  0  0
   -8.0105   24.6374  -30.6547 H   0  0  0  0  0  0  0  0  0  0  0  0
   -6.0015   26.0357  -30.1816 H   0  0  0  0  0  0  0  0  0  0  0  0
   -4.1319   19.1981  -32.3974 H   0  0  0  0  0  0  0  0  0  0  0  0
   -6.0868   15.8152  -33.9277 H   0  0  0  0  0  0  0  0  0  0  0  0
   -4.9403   14.8832  -34.9629 H   0  0  0  0  0  0  0  0  0  0  0  0
   -6.4213   13.9099  -32.7419 H   0  0  0  0  0  0  0  0  0  0  0  0
   -5.0791   13.0768  -33.6260 H   0  0  0  0  0  0  0  0  0  0  0  0
   -2.5747   14.1584  -31.3543 H   0  0  0  0  0  0  0  0  0  0  0  0
   -2.9667   13.0857  -32.7664 H   0  0  0  0  0  0  0  0  0  0  0  0
   -2.0430   15.7946  -32.8261 H   0  0  0  0  0  0  0  0  0  0  0  0
   -2.5522   14.7568  -34.2061 H   0  0  0  0  0  0  0  0  0  0  0  0
   -0.9707   18.1016  -35.1343 H   0  0  0  0  0  0  0  0  0  0  0  0
    0.5094   19.8303  -34.1256 H   0  0  0  0  0  0  0  0  0  0  0  0
  1  2  2  0
  2  3  1  0
  3  4  1  0
  4  5  2  0
  5  6  1  0
  6  7  1  0
  7  8  2  0
  7  9  2  0
  7 10  1  0
 10 11  1  0
 11 12  1  0
 12 13  1  0
 13 14  1  0
 14 15  1  0
  6 16  2  0
 16 17  1  0
 17 18  2  0
 18 19  1  0
  2 20  1  0
 20 21  2  0
 21 22  1  0
 22 23  1  0
 23 24  2  0
 23 25  2  0
 23 26  1  0
 26 27  1  0
 27 28  1  0
 28 29  1  0
 29 30  1  0
 30 31  1  0
 22 32  2  0
 32 33  1  0
 33 34  2  0
 34 35  1  0
 18  4  1  0
 34 20  1  0
 15 10  1  0
 31 26  1  0
  5 36  1  0
 11 37  1  0
 11 38  1  0
 12 39  1  0
 12 40  1  0
 14 41  1  0
 14 42  1  0
 15 43  1  0
 15 44  1  0
 16 45  1  0
 17 46  1  0
 21 47  1  0
 27 48  1  0
 27 49  1  0
 28 50  1  0
 28 51  1  0
 30 52  1  0
 30 53  1  0
 31 54  1  0
 31 55  1  0
 32 56  1  0
 33 57  1  0
M  CHG  3   3  -1  19  -1  35  -1
M  END
>  <UniqueID>  (10) 
10

>  <SMILES>  (10) 
O=C([N-]c1cc(S(=O)(=O)N2CCOCC2)ccc1[O-])c1cc(S(=O)(=O)N2CCOCC2)ccc1[O-]

>  <Energy>  (10) 
85.62712614790925

>  <Genealogy>  (10) 
O=C([N-]c1cc(S(=O)(=O)N2CCOCC2)ccc1[O-])c1cc(S(=O)(=O)N2CCOCC2)ccc1[O-] (protonated)
O=C([N-]c1cc(S(=O)(=O)N2CCOCC2)ccc1[O-])c1cc(S(=O)(=O)N2CCOCC2)ccc1[O-] (3D coordinates assigned)
O=C([N-]c1cc(S(=O)(=O)N2CCOCC2)ccc1[O-])c1cc(S(=O)(=O)N2CCOCC2)ccc1[O-] (nonaromatic ring conformer: 85.62712614790925 kcal/mol)

>  <smiles>  (10) 
O=C(Nc1cc(S(=O)(=O)N2CCOCC2)ccc1O)c1cc(S(=O)(=O)N2CCOCC2)ccc1O

>  <score_type>  (10) 
oracle

>  <origin>  (10) 
adgpu

>  <m_score__min__energy>  (10) 
-16.170000000000002

>  <m_primary>  (10) 
energy

$$$$
10:0
     RDKit          3D

 43 45  0  0  0  0  0  0  0  0999 V2000
   -1.1310   18.2030  -32.3690 C   0  0  0  0  0  0  0  0  0  0  0  0
   -2.3750   18.6440  -33.0770 C   0  0  0  0  0  0  0  0  0  0  0  0
   -3.3750   17.8110  -33.5320 C   0  0  0  0  0  0  0  0  0  0  0  0
   -4.3360   18.6740  -34.0280 C   0  0  0  0  0  0  0  0  0  0  0  0
   -5.6150   18.2720  -34.6900 C   0  0  0  0  0  0  0  0  0  0  0  0
   -6.2270   17.2700  -33.9590 F   0  0  0  0  0  0  0  0  0  0  0  0
   -5.3470   17.8090  -35.9640 F   0  0  0  0  0  0  0  0  0  0  0  0
   -6.4710   19.3550  -34.7700 F   0  0  0  0  0  0  0  0  0  0  0  0
   -3.9300   19.9510  -33.8810 N   0  0  0  0  0  0  0  0  0  0  0  0
   -2.7400   19.9260  -33.3000 N   0  0  0  0  0  0  0  0  0  0  0  0
   -2.0100   21.1350  -32.9210 C   0  0  0  0  0  0  0  0  0  0  0  0
   -2.8710   22.0090  -32.0620 C   0  0  0  0  0  0  0  0  0  0  0  0
   -2.3880   22.5020  -31.0070 O   0  0  0  0  0  0  0  0  0  0  0  0
   -4.2120   22.3250  -32.4660 N   0  0  0  0  0  0  0  0  0  0  0  0
   -5.1040   23.1220  -31.6710 C   0  0  0  0  0  0  0  0  0  0  0  0
   -4.5660   24.0870  -30.8070 C   0  0  0  0  0  0  0  0  0  0  0  0
   -5.4060   24.8800  -30.0220 C   0  0  0  0  0  0  0  0  0  0  0  0
   -6.7910   24.7210  -30.0990 C   0  0  0  0  0  0  0  0  0  0  0  0
   -7.3390   23.7820  -30.9760 C   0  0  0  0  0  0  0  0  0  0  0  0
   -6.5030   22.9950  -31.7910 C   0  0  0  0  0  0  0  0  0  0  0  0
   -7.0360   22.0700  -32.7030 O   0  0  0  0  0  0  0  0  0  0  0  0
   -7.4170   20.7540  -32.4030 C   0  0  0  0  0  0  0  0  0  0  0  0
   -8.7430   20.3690  -32.6390 C   0  0  0  0  0  0  0  0  0  0  0  0
   -9.1660   19.0700  -32.3380 C   0  0  0  0  0  0  0  0  0  0  0  0
   -8.2680   18.1520  -31.7880 C   0  0  0  0  0  0  0  0  0  0  0  0
   -6.9490   18.5320  -31.5300 C   0  0  0  0  0  0  0  0  0  0  0  0
   -6.5230   19.8300  -31.8290 C   0  0  0  0  0  0  0  0  0  0  0  0
   -1.2885   18.2588  -31.2818 H   0  0  0  0  0  0  0  0  0  0  0  0
   -0.8955   17.1666  -32.6526 H   0  0  0  0  0  0  0  0  0  0  0  0
   -0.2953   18.8597  -32.6526 H   0  0  0  0  0  0  0  0  0  0  0  0
   -3.4025   16.7116  -33.5065 H   0  0  0  0  0  0  0  0  0  0  0  0
   -1.1055   20.8534  -32.3620 H   0  0  0  0  0  0  0  0  0  0  0  0
   -1.7315   21.6871  -33.8308 H   0  0  0  0  0  0  0  0  0  0  0  0
   -4.4980   22.1060  -33.4470 H   0  0  0  0  0  0  0  0  0  0  0  0
   -3.4757   24.2201  -30.7473 H   0  0  0  0  0  0  0  0  0  0  0  0
   -4.9760   25.6305  -29.3424 H   0  0  0  0  0  0  0  0  0  0  0  0
   -7.4508   25.3354  -29.4688 H   0  0  0  0  0  0  0  0  0  0  0  0
   -8.4305   23.6566  -31.0303 H   0  0  0  0  0  0  0  0  0  0  0  0
   -9.4554   21.0919  -33.0632 H   0  0  0  0  0  0  0  0  0  0  0  0
  -10.2063   18.7712  -32.5345 H   0  0  0  0  0  0  0  0  0  0  0  0
   -8.6001   17.1289  -31.5579 H   0  0  0  0  0  0  0  0  0  0  0  0
   -6.2448   17.8098  -31.0913 H   0  0  0  0  0  0  0  0  0  0  0  0
   -5.4865   20.1300  -31.6151 H   0  0  0  0  0  0  0  0  0  0  0  0
  1  2  1  0
  2  3  2  0
  3  4  1  0
  4  5  1  0
  5  6  1  0
  5  7  1  0
  5  8  1  0
  4  9  2  0
  9 10  1  0
 10 11  1  0
 11 12  1  0
 12 13  2  0
 12 14  1  0
 14 15  1  0
 15 16  2  0
 16 17  1  0
 17 18  2  0
 18 19  1  0
 19 20  2  0
 20 21  1  0
 21 22  1  0
 22 23  2  0
 23 24  1  0
 24 25  2  0
 25 26  1  0
 26 27  2  0
 10  2  1  0
 20 15  1  0
 27 22  1  0
  1 28  1  0
  1 29  1  0
  1 30  1  0
  3 31  1  0
 11 32  1  0
 11 33  1  0
 14 34  1  0
 16 35  1  0
 17 36  1  0
 18 37  1  0
 19 38  1  0
 23 39  1  0
 24 40  1  0
 25 41  1  0
 26 42  1  0
 27 43  1  0
M  END
>  <UniqueID>  (11) 
11

>  <SMILES>  (11) 
Cc1cc(C(F)(F)F)nn1CC(=O)Nc1ccccc1Oc1ccccc1

>  <Energy>  (11) 
81.83830047100254

>  <Genealogy>  (11) 
Cc1cc(C(F)(F)F)nn1CC(=O)Nc1ccccc1Oc1ccccc1 (3D coordinates assigned)
Cc1cc(C(F)(F)F)nn1CC(=O)Nc1ccccc1Oc1ccccc1 (optimized conformer: 81.83830047100254 kcal/mol)

>  <smiles>  (11) 
Cc1cc(C(F)(F)F)nn1CC(=O)Nc1ccccc1Oc1ccccc1

>  <score_type>  (11) 
oracle

>  <origin>  (11) 
adgpu

>  <m_score__min__energy>  (11) 
-7.7800000000000002

>  <m_primary>  (11) 
energy

$$$$
11:0
     RDKit          3D

 58 61  0  0  0  0  0  0  0  0999 V2000
   -4.4380   25.6080  -30.5820 N   0  0  0  0  0  0  0  0  0  0  0  0
   -4.1620   24.4290  -29.8150 C   0  0  0  0  0  0  0  0  0  0  0  0
   -3.9550   24.5470  -28.4320 C   0  0  0  0  0  0  0  0  0  0  0  0
   -3.7080   23.4160  -27.6520 C   0  0  0  0  0  0  0  0  0  0  0  0
   -3.6630   22.1540  -28.2450 C   0  0  0  0  0  0  0  0  0  0  0  0
   -3.8670   22.0200  -29.6190 C   0  0  0  0  0  0  0  0  0  0  0  0
   -4.1280   23.1500  -30.4170 C   0  0  0  0  0  0  0  0  0  0  0  0
   -4.3120   22.9990  -31.8360 N   0  0  0  0  0  0  0  0  0  0  0  0
   -3.8670   21.8450  -32.5650 C   0  0  0  0  0  0  0  0  0  0  0  0
   -2.5350   21.7900  -33.0000 C   0  0  0  0  0  0  0  0  0  0  0  0
   -2.0490   20.6640  -33.6760 C   0  0  0  0  0  0  0  0  0  0  0  0
   -0.3590   20.6090  -34.1740 S   0  0  0  0  0  0  0  0  0  0  0  0
    0.0020   21.9400  -34.7740 O   0  0  0  0  0  0  0  0  0  0  0  0
   -0.1760   19.5460  -35.2220 O   0  0  0  0  0  0  0  0  0  0  0  0
    0.6470   20.2830  -32.7770 N   0  0  0  0  0  0  0  0  0  0  0  0
    1.0130   18.8540  -32.6970 C   0  0  0  0  0  0  0  0  0  0  0  0
   -0.1750   17.9680  -32.2510 C   0  0  0  0  0  0  0  0  0  0  0  0
   -1.2240   18.6930  -31.6340 O   0  0  0  0  0  0  0  0  0  0  0  0
   -0.6990   19.6520  -30.7450 C   0  0  0  0  0  0  0  0  0  0  0  0
    0.0220   20.7700  -31.5220 C   0  0  0  0  0  0  0  0  0  0  0  0
   -2.9040   19.5850  -33.9260 C   0  0  0  0  0  0  0  0  0  0  0  0
   -4.2400   19.6400  -33.5240 C   0  0  0  0  0  0  0  0  0  0  0  0
   -4.7360   20.7670  -32.8550 C   0  0  0  0  0  0  0  0  0  0  0  0
   -6.1370   20.8340  -32.5380 N   0  0  0  0  0  0  0  0  0  0  0  0
   -6.7870   19.6690  -31.9210 C   0  0  0  0  0  0  0  0  0  0  0  0
   -8.2890   19.9080  -31.7320 C   0  0  0  0  0  0  0  0  0  0  0  0
   -8.5610   21.2140  -30.9620 C   0  0  0  0  0  0  0  0  0  0  0  0
   -7.6280   22.3820  -31.3570 C   0  0  0  0  0  0  0  0  0  0  0  0
   -6.8580   22.1100  -32.6510 C   0  0  0  0  0  0  0  0  0  0  0  0
   -4.1460   25.6680  -31.5830 H   0  0  0  0  0  0  0  0  0  0  0  0
   -4.9000   26.4460  -30.1660 H   0  0  0  0  0  0  0  0  0  0  0  0
   -3.9877   25.5393  -27.9585 H   0  0  0  0  0  0  0  0  0  0  0  0
   -3.5487   23.5199  -26.5686 H   0  0  0  0  0  0  0  0  0  0  0  0
   -3.4666   21.2640  -27.6291 H   0  0  0  0  0  0  0  0  0  0  0  0
   -3.8235   21.0233  -30.0823 H   0  0  0  0  0  0  0  0  0  0  0  0
   -4.6240   23.8340  -32.3820 H   0  0  0  0  0  0  0  0  0  0  0  0
   -1.8645   22.6407  -32.8081 H   0  0  0  0  0  0  0  0  0  0  0  0
    1.5310   20.8230  -32.9270 H   0  0  0  0  0  0  0  0  0  0  0  0
    1.3512   18.5193  -33.6888 H   0  0  0  0  0  0  0  0  0  0  0  0
    1.8098   18.7520  -31.9455 H   0  0  0  0  0  0  0  0  0  0  0  0
   -0.5798   17.4575  -33.1373 H   0  0  0  0  0  0  0  0  0  0  0  0
    0.2130   17.2622  -31.5018 H   0  0  0  0  0  0  0  0  0  0  0  0
   -1.5202   20.0901  -30.1588 H   0  0  0  0  0  0  0  0  0  0  0  0
    0.0233   19.1601  -30.0769 H   0  0  0  0  0  0  0  0  0  0  0  0
   -0.7095   21.5521  -31.7734 H   0  0  0  0  0  0  0  0  0  0  0  0
    0.8258   21.1571  -30.8786 H   0  0  0  0  0  0  0  0  0  0  0  0
   -2.5225   18.6908  -34.4407 H   0  0  0  0  0  0  0  0  0  0  0  0
   -4.9084   18.7920  -33.7341 H   0  0  0  0  0  0  0  0  0  0  0  0
   -6.6420   18.7921  -32.5691 H   0  0  0  0  0  0  0  0  0  0  0  0
   -6.3341   19.5001  -30.9329 H   0  0  0  0  0  0  0  0  0  0  0  0
   -8.7682   19.9695  -32.7202 H   0  0  0  0  0  0  0  0  0  0  0  0
   -8.7005   19.0714  -31.1482 H   0  0  0  0  0  0  0  0  0  0  0  0
   -9.5996   21.5201  -31.1558 H   0  0  0  0  0  0  0  0  0  0  0  0
   -8.3736   21.0020  -29.8990 H   0  0  0  0  0  0  0  0  0  0  0  0
   -8.2366   23.2881  -31.4933 H   0  0  0  0  0  0  0  0  0  0  0  0
   -6.8901   22.5056  -30.5506 H   0  0  0  0  0  0  0  0  0  0  0  0
   -7.5641   22.0580  -33.4929 H   0  0  0  0  0  0  0  0  0  0  0  0
   -6.1369   22.9224  -32.8242 H   0  0  0  0  0  0  0  0  0  0  0  0
  1  2  1  0
  2  3  2  0
  3  4  1  0
  4  5  2  0
  5  6  1  0
  6  7  2  0
  7  8  1  0
  8  9  1  0
  9 10  2  0
 10 11  1  0
 11 12  1  0
 12 13  2  0
 12 14  2  0
 12 15  1  0
 15 16  1  0
 16 17  1  0
 17 18  1  0
 18 19  1  0
 19 20  1  0
 11 21  2  0
 21 22  1  0
 22 23  2  0
 23 24  1  0
 24 25  1  0
 25 26  1  0
 26 27  1  0
 27 28  1  0
 28 29  1  0
  7  2  1  0
 23  9  1  0
 29 24  1  0
 20 15  1  0
  1 30  1  0
  1 31  1  0
  3 32  1  0
  4 33  1  0
  5 34  1  0
  6 35  1  0
  8 36  1  0
 10 37  1  0
 15 38  1  0
 16 39  1  0
 16 40  1  0
 17 41  1  0
 17 42  1  0
 19 43  1  0
 19 44  1  0
 20 45  1  0
 20 46  1  0
 21 47  1  0
 22 48  1  0
 25 49  1  0
 25 50  1  0
 26 51  1  0
 26 52  1  0
 27 53  1  0
 27 54  1  0
 28 55  1  0
 28 56  1  0
 29 57  1  0
 29 58  1  0
M  CHG  1  15   1
M  END
>  <UniqueID>  (12) 
12

>  <SMILES>  (12) 
Nc1ccccc1Nc1cc(S(=O)(=O)[NH+]2CCOCC2)ccc1N1CCCCC1

>  <Energy>  (12) 
81.40583945376036

>  <Genealogy>  (12) 
Nc1ccccc1Nc1cc(S(=O)(=O)[NH+]2CCOCC2)ccc1N1CCCCC1 (protonated)
Nc1ccccc1Nc1cc(S(=O)(=O)[NH+]2CCOCC2)ccc1N1CCCCC1 (3D coordinates assigned)
Nc1ccccc1Nc1cc(S(=O)(=O)[NH+]2CCOCC2)ccc1N1CCCCC1 (nonaromatic ring conformer: 81.40583945376036 kcal/mol)

>  <smiles>  (12) 
Nc1ccccc1Nc1cc(S(=O)(=O)N2CCOCC2)ccc1N1CCCCC1

>  <score_type>  (12) 
oracle

>  <origin>  (12) 
adgpu

>  <m_score__min__energy>  (12) 
-8.8900000000000006

>  <m_primary>  (12) 
energy

$$$$
12:0
     RDKit          3D

 53 56  0  0  0  0  0  0  0  0999 V2000
   -5.8280   25.8000  -30.0040 O   0  0  0  0  0  0  0  0  0  0  0  0
   -4.9570   25.2180  -30.7030 C   0  0  0  0  0  0  0  0  0  0  0  0
   -5.3630   24.5100  -31.8780 N   0  0  0  0  0  0  0  0  0  0  0  0
   -5.9080   23.1820  -31.8990 C   0  0  0  0  0  0  0  0  0  0  0  0
   -7.2940   22.9530  -31.9160 C   0  0  0  0  0  0  0  0  0  0  0  0
   -7.7920   21.6490  -31.9510 C   0  0  0  0  0  0  0  0  0  0  0  0
   -6.9130   20.5570  -31.9680 C   0  0  0  0  0  0  0  0  0  0  0  0
   -7.5450   18.9090  -32.0740 S   0  0  0  0  0  0  0  0  0  0  0  0
   -9.0490   18.9590  -32.1000 O   0  0  0  0  0  0  0  0  0  0  0  0
   -7.1270   18.1350  -30.8540 O   0  0  0  0  0  0  0  0  0  0  0  0
   -6.9640   18.0890  -33.5080 N   0  0  0  0  0  0  0  0  0  0  0  0
   -6.3170   16.8120  -33.1450 C   0  0  0  0  0  0  0  0  0  0  0  0
   -5.3580   16.3520  -34.2550 C   0  0  0  0  0  0  0  0  0  0  0  0
   -4.3070   17.2700  -34.5310 O   0  0  0  0  0  0  0  0  0  0  0  0
   -4.6050   18.6100  -34.1660 C   0  0  0  0  0  0  0  0  0  0  0  0
   -6.0950   18.9660  -34.3230 C   0  0  0  0  0  0  0  0  0  0  0  0
   -5.5320   20.7820  -31.9050 C   0  0  0  0  0  0  0  0  0  0  0  0
   -5.0340   22.0870  -31.8600 C   0  0  0  0  0  0  0  0  0  0  0  0
   -3.5770   25.2520  -30.3160 N   0  0  0  0  0  0  0  0  0  0  0  0
   -2.9420   24.3320  -29.4160 C   0  0  0  0  0  0  0  0  0  0  0  0
   -3.6340   23.1750  -29.0640 C   0  0  0  0  0  0  0  0  0  0  0  0
   -3.0890   22.2740  -28.1570 C   0  0  0  0  0  0  0  0  0  0  0  0
   -1.8330   22.5060  -27.5920 C   0  0  0  0  0  0  0  0  0  0  0  0
   -1.2750   21.3220  -26.4160 Cl  0  0  0  0  0  0  0  0  0  0  0  0
   -1.1060   23.6740  -27.9340 C   0  0  0  0  0  0  0  0  0  0  0  0
    0.5160   23.9960  -27.2580 S   0  0  0  0  0  0  0  0  0  0  0  0
    1.3280   22.7390  -27.1170 O   0  0  0  0  0  0  0  0  0  0  0  0
    1.2610   24.8920  -28.2090 O   0  0  0  0  0  0  0  0  0  0  0  0
    0.4090   24.8140  -25.6630 C   0  0  0  0  0  0  0  0  0  0  0  0
   -0.4130   24.0690  -24.6240 C   0  0  0  0  0  0  0  0  0  0  0  0
   -0.9700   25.3230  -25.2700 C   0  0  0  0  0  0  0  0  0  0  0  0
   -1.7040   24.6190  -28.8110 C   0  0  0  0  0  0  0  0  0  0  0  0
   -1.1210   25.8660  -29.0610 O   0  0  0  0  0  0  0  0  0  0  0  0
   -7.9899   23.8047  -31.9017 H   0  0  0  0  0  0  0  0  0  0  0  0
   -8.8785   21.4778  -31.9653 H   0  0  0  0  0  0  0  0  0  0  0  0
   -5.7505   16.9470  -32.2118 H   0  0  0  0  0  0  0  0  0  0  0  0
   -7.0961   16.0469  -33.0122 H   0  0  0  0  0  0  0  0  0  0  0  0
   -4.9097   15.3950  -33.9497 H   0  0  0  0  0  0  0  0  0  0  0  0
   -5.9549   16.2668  -35.1750 H   0  0  0  0  0  0  0  0  0  0  0  0
   -4.3196   18.7572  -33.1139 H   0  0  0  0  0  0  0  0  0  0  0  0
   -4.0396   19.2662  -34.8440 H   0  0  0  0  0  0  0  0  0  0  0  0
   -6.2461   20.0086  -34.0066 H   0  0  0  0  0  0  0  0  0  0  0  0
   -6.3677   18.8269  -35.3795 H   0  0  0  0  0  0  0  0  0  0  0  0
   -4.8374   19.9291  -31.8909 H   0  0  0  0  0  0  0  0  0  0  0  0
   -3.9491   22.2559  -31.7935 H   0  0  0  0  0  0  0  0  0  0  0  0
   -4.6200   22.9730  -29.5078 H   0  0  0  0  0  0  0  0  0  0  0  0
   -3.6520   21.3700  -27.8816 H   0  0  0  0  0  0  0  0  0  0  0  0
    1.4150   25.2571  -25.7019 H   0  0  0  0  0  0  0  0  0  0  0  0
   -0.8458   23.0872  -24.8664 H   0  0  0  0  0  0  0  0  0  0  0  0
   -0.2418   23.7386  -23.5888 H   0  0  0  0  0  0  0  0  0  0  0  0
   -1.8062   25.2504  -25.9810 H   0  0  0  0  0  0  0  0  0  0  0  0
   -1.3694   26.2779  -24.8976 H   0  0  0  0  0  0  0  0  0  0  0  0
   -0.1300   26.0480  -29.0170 H   0  0  0  0  0  0  0  0  0  0  0  0
  1  2  2  0
  2  3  1  0
  3  4  1  0
  4  5  2  0
  5  6  1  0
  6  7  2  0
  7  8  1  0
  8  9  2  0
  8 10  2  0
  8 11  1  0
 11 12  1  0
 12 13  1  0
 13 14  1  0
 14 15  1  0
 15 16  1  0
  7 17  1  0
 17 18  2  0
  2 19  1  0
 19 20  1  0
 20 21  2  0
 21 22  1  0
 22 23  2  0
 23 24  1  0
 23 25  1  0
 25 26  1  0
 26 27  2  0
 26 28  2  0
 26 29  1  0
 29 30  1  0
 30 31  1  0
 25 32  2  0
 32 33  1  0
 18  4  1  0
 32 20  1  0
 16 11  1  0
 31 29  1  0
  5 34  1  0
  6 35  1  0
 12 36  1  0
 12 37  1  0
 13 38  1  0
 13 39  1  0
 15 40  1  0
 15 41  1  0
 16 42  1  0
 16 43  1  0
 17 44  1  0
 18 45  1  0
 21 46  1  0
 22 47  1  0
 29 48  1  0
 30 49  1  0
 30 50  1  0
 31 51  1  0
 31 52  1  0
 33 53  1  0
M  CHG  2   3  -1  19  -1
M  END
>  <UniqueID>  (13) 
13

>  <SMILES>  (13) 
O=C([N-]c1ccc(S(=O)(=O)N2CCOCC2)cc1)[N-]c1ccc(Cl)c(S(=O)(=O)C2CC2)c1O

>  <Energy>  (13) 
345.7349921575331

>  <Genealogy>  (13) 
O=C([N-]c1ccc(S(=O)(=O)N2CCOCC2)cc1)[N-]c1ccc(Cl)c(S(=O)(=O)C2CC2)c1O (protonated)
O=C([N-]c1ccc(S(=O)(=O)N2CCOCC2)cc1)[N-]c1ccc(Cl)c(S(=O)(=O)C2CC2)c1O (3D coordinates assigned)
O=C([N-]c1ccc(S(=O)(=O)N2CCOCC2)cc1)[N-]c1ccc(Cl)c(S(=O)(=O)C2CC2)c1O (nonaromatic ring conformer: 345.7349921575331 kcal/mol)

>  <smiles>  (13) 
O=C(Nc1ccc(S(=O)(=O)N2CCOCC2)cc1)Nc1ccc(Cl)c(S(=O)(=O)C2CC2)c1O

>  <score_type>  (13) 
oracle

>  <origin>  (13) 
adgpu

>  <m_score__min__energy>  (13) 
-14.039999999999999

>  <m_primary>  (13) 
energy

$$$$
13:0
     RDKit          3D

 65 68  0  0  0  0  0  0  0  0999 V2000
   -7.7408   20.5278  -30.7531 H   0  0  0  0  0  0  0  0  0  0  0  0
   -7.7590   20.4630  -31.8510 C   0  0  0  0  0  0  0  0  0  0  0  0
   -8.8630   19.8180  -32.5120 C   0  0  0  0  0  0  0  0  0  0  0  0
   -9.7500   19.2980  -33.0430 N   0  0  0  0  0  0  0  0  0  0  0  0
   -6.7550   20.9840  -32.5650 C   0  0  0  0  0  0  0  0  0  0  0  0
   -6.8121   20.9229  -33.6618 H   0  0  0  0  0  0  0  0  0  0  0  0
   -5.5680   21.6400  -31.9610 C   0  0  0  0  0  0  0  0  0  0  0  0
   -5.6730   22.5730  -30.9130 C   0  0  0  0  0  0  0  0  0  0  0  0
   -6.6649   22.8367  -30.5172 H   0  0  0  0  0  0  0  0  0  0  0  0
   -4.5270   23.1710  -30.3670 C   0  0  0  0  0  0  0  0  0  0  0  0
   -4.6760   24.1710  -29.2520 C   0  0  0  0  0  0  0  0  0  0  0  0
   -4.5991   23.6547  -28.2837 H   0  0  0  0  0  0  0  0  0  0  0  0
   -3.8806   24.9269  -29.3287 H   0  0  0  0  0  0  0  0  0  0  0  0
   -5.6572   24.6622  -29.3287 H   0  0  0  0  0  0  0  0  0  0  0  0
   -3.2530   22.8120  -30.8580 C   0  0  0  0  0  0  0  0  0  0  0  0
   -2.0880   23.3430  -30.2910 O   0  0  0  0  0  0  0  0  0  0  0  0
   -1.2100   22.6100  -29.4780 C   0  0  0  0  0  0  0  0  0  0  0  0
   -0.5060   23.2780  -28.4750 C   0  0  0  0  0  0  0  0  0  0  0  0
   -0.7020   24.6560  -28.2980 O   0  0  0  0  0  0  0  0  0  0  0  0
   -0.5950   25.3050  -27.0630 C   0  0  0  0  0  0  0  0  0  0  0  0
    0.6490   25.8030  -26.6180 C   0  0  0  0  0  0  0  0  0  0  0  0
    1.8860   25.6480  -27.4590 C   0  0  0  0  0  0  0  0  0  0  0  0
    2.7631   25.5381  -26.8043 H   0  0  0  0  0  0  0  0  0  0  0  0
    1.7882   24.7551  -28.0939 H   0  0  0  0  0  0  0  0  0  0  0  0
    2.0115   26.5374  -28.0939 H   0  0  0  0  0  0  0  0  0  0  0  0
    0.7410   26.4040  -25.3550 C   0  0  0  0  0  0  0  0  0  0  0  0
    1.7158   26.7615  -24.9916 H   0  0  0  0  0  0  0  0  0  0  0  0
   -0.3980   26.5540  -24.5500 C   0  0  0  0  0  0  0  0  0  0  0  0
   -0.2720   27.1640  -23.1850 C   0  0  0  0  0  0  0  0  0  0  0  0
   -0.4321   26.3891  -22.4209 H   0  0  0  0  0  0  0  0  0  0  0  0
    0.7338   27.5934  -23.0667 H   0  0  0  0  0  0  0  0  0  0  0  0
   -1.0254   27.9568  -23.0667 H   0  0  0  0  0  0  0  0  0  0  0  0
   -1.6340   26.0740  -25.0050 C   0  0  0  0  0  0  0  0  0  0  0  0
   -2.5262   26.1774  -24.3700 H   0  0  0  0  0  0  0  0  0  0  0  0
   -1.7430   25.4630  -26.2630 C   0  0  0  0  0  0  0  0  0  0  0  0
   -3.0680   24.9310  -26.7360 C   0  0  0  0  0  0  0  0  0  0  0  0
   -3.6936   24.6798  -25.8668 H   0  0  0  0  0  0  0  0  0  0  0  0
   -3.5743   25.6955  -27.3435 H   0  0  0  0  0  0  0  0  0  0  0  0
   -2.9050   24.0286  -27.3435 H   0  0  0  0  0  0  0  0  0  0  0  0
    0.3550   22.5290  -27.6610 C   0  0  0  0  0  0  0  0  0  0  0  0
    0.9146   23.0219  -26.8524 H   0  0  0  0  0  0  0  0  0  0  0  0
    0.4980   21.1980  -27.8700 N   0  0  0  0  0  0  0  0  0  0  0  0
   -0.1680   20.5630  -28.8700 C   0  0  0  0  0  0  0  0  0  0  0  0
   -0.0420   19.2800  -29.0560 N   0  0  0  0  0  0  0  0  0  0  0  0
    0.8270   18.3730  -28.3540 C   0  0  0  0  0  0  0  0  0  0  0  0
    2.2210   18.5610  -28.2980 C   0  0  0  0  0  0  0  0  0  0  0  0
    2.6747   19.4405  -28.7783 H   0  0  0  0  0  0  0  0  0  0  0  0
    3.0320   17.6340  -27.6340 C   0  0  0  0  0  0  0  0  0  0  0  0
    4.1187   17.7954  -27.5789 H   0  0  0  0  0  0  0  0  0  0  0  0
    2.4630   16.5020  -27.0400 C   0  0  0  0  0  0  0  0  0  0  0  0
    3.2980   15.5450  -26.3610 C   0  0  0  0  0  0  0  0  0  0  0  0
    3.9670   14.7770  -25.8140 N   0  0  0  0  0  0  0  0  0  0  0  0
    1.0820   16.2920  -27.1250 C   0  0  0  0  0  0  0  0  0  0  0  0
    0.6339   15.3964  -26.6699 H   0  0  0  0  0  0  0  0  0  0  0  0
    0.2710   17.2180  -27.7870 C   0  0  0  0  0  0  0  0  0  0  0  0
   -0.8116   17.0390  -27.8636 H   0  0  0  0  0  0  0  0  0  0  0  0
   -1.0190   21.2700  -29.6630 N   0  0  0  0  0  0  0  0  0  0  0  0
   -1.5270   20.7710  -30.4280 H   0  0  0  0  0  0  0  0  0  0  0  0
   -3.1430   21.9230  -31.9410 C   0  0  0  0  0  0  0  0  0  0  0  0
   -1.7890   21.5550  -32.4780 C   0  0  0  0  0  0  0  0  0  0  0  0
   -1.1008   21.3680  -31.6405 H   0  0  0  0  0  0  0  0  0  0  0  0
   -1.8730   20.6471  -33.0934 H   0  0  0  0  0  0  0  0  0  0  0  0
   -1.4018   22.3805  -33.0934 H   0  0  0  0  0  0  0  0  0  0  0  0
   -4.3000   21.3400  -32.4800 C   0  0  0  0  0  0  0  0  0  0  0  0
   -4.2112   20.6375  -33.3218 H   0  0  0  0  0  0  0  0  0  0  0  0
  1  2  1  0
  2  3  1  0
  3  4  3  0
  2  5  2  0
  5  6  1  0
  5  7  1  0
  7  8  2  0
  8  9  1  0
  8 10  1  0
 10 11  1  0
 11 12  1  0
 11 13  1  0
 11 14  1  0
 10 15  2  0
 15 16  1  0
 16 17  1  0
 17 18  2  0
 18 19  1  0
 19 20  1  0
 20 21  2  0
 21 22  1  0
 22 23  1  0
 22 24  1  0
 22 25  1  0
 21 26  1  0
 26 27  1  0
 26 28  2  0
 28 29  1  0
 29 30  1  0
 29 31  1  0
 29 32  1  0
 28 33  1  0
 33 34  1  0
 33 35  2  0
 35 36  1  0
 36 37  1  0
 36 38  1  0
 36 39  1  0
 18 40  1  0
 40 41  1  0
 40 42  2  0
 42 43  1  0
 43 44  2  0
 44 45  1  0
 45 46  2  0
 46 47  1  0
 46 48  1  0
 48 49  1  0
 48 50  2  0
 50 51  1  0
 51 52  3  0
 50 53  1  0
 53 54  1  0
 53 55  2  0
 55 56  1  0
 43 57  1  0
 57 58  1  0
 15 59  1  0
 59 60  1  0
 60 61  1  0
 60 62  1  0
 60 63  1  0
 59 64  2  0
 64 65  1  0
 64  7  1  0
 57 17  1  0
 35 20  1  0
 55 45  1  0
M  END
>  <UniqueID>  (14) 
14

>  <SMILES>  (14) 
Cc1cc(C)c(Oc2cn/c(=N\c3ccc(C#N)cc3)[nH]c2Oc2c(C)cc(/C=C/C#N)cc2C)c(C)c1

>  <Energy>  (14) 
89.17174154795457

>  <Genealogy>  (14) 
Cc1cc(C)c(Oc2cn/c(=N\c3ccc(C#N)cc3)[nH]c2Oc2c(C)cc(/C=C/C#N)cc2C)c(C)c1 (cis-trans isomerization)
Cc1cc(C)c(Oc2cn/c(=N\c3ccc(C#N)cc3)[nH]c2Oc2c(C)cc(/C=C/C#N)cc2C)c(C)c1 (3D coordinates assigned)
Cc1cc(C)c(Oc2cn/c(=N\c3ccc(C#N)cc3)[nH]c2Oc2c(C)cc(/C=C/C#N)cc2C)c(C)c1 (optimized conformer: 89.17174154795457 kcal/mol)

>  <smiles>  (14) 
Cc1cc(C)c(Oc2cnc(=Nc3ccc(C#N)cc3)[nH]c2Oc2c(C)cc(C=CC#N)cc2C)c(C)c1

>  <score_type>  (14) 
oracle

>  <origin>  (14) 
adgpu

>  <m_score__min__energy>  (14) 
-10.220000000000001

>  <m_primary>  (14) 
energy

$$$$
14:0
     RDKit          3D

 57 60  0  0  0  0  0  0  0  0999 V2000
   -2.3780   25.2810  -29.3410 N   0  0  0  0  0  0  0  0  0  0  0  0
   -3.4910   24.6280  -29.9460 C   0  0  0  0  0  0  0  0  0  0  0  0
   -4.2330   25.2640  -30.7390 O   0  0  0  0  0  0  0  0  0  0  0  0
   -3.7790   23.1950  -29.6290 C   0  0  0  0  0  0  0  0  0  0  0  0
   -3.7170   22.3580  -30.8760 C   0  0  0  0  0  0  0  0  0  0  0  0
   -2.5870   21.7470  -31.3810 C   0  0  0  0  0  0  0  0  0  0  0  0
   -1.3250   21.7760  -30.8000 O   0  0  0  0  0  0  0  0  0  0  0  0
   -2.8760   21.1620  -32.5630 N   0  0  0  0  0  0  0  0  0  0  0  0
   -1.9670   20.4670  -33.4380 C   0  0  0  0  0  0  0  0  0  0  0  0
   -0.8040   21.1000  -33.9120 C   0  0  0  0  0  0  0  0  0  0  0  0
    0.1050   20.3980  -34.7080 C   0  0  0  0  0  0  0  0  0  0  0  0
   -0.1220   19.0580  -35.0210 C   0  0  0  0  0  0  0  0  0  0  0  0
   -1.2730   18.4090  -34.5500 C   0  0  0  0  0  0  0  0  0  0  0  0
   -1.5020   16.6840  -34.8360 S   0  0  0  0  0  0  0  0  0  0  0  0
   -0.8960   16.3150  -36.1640 O   0  0  0  0  0  0  0  0  0  0  0  0
   -0.7910   15.9020  -33.7660 O   0  0  0  0  0  0  0  0  0  0  0  0
   -3.1990   16.2600  -34.8260 N   0  0  0  0  0  0  0  0  0  0  0  0
   -4.0130   17.3570  -35.3980 C   0  0  0  0  0  0  0  0  0  0  0  0
   -5.4810   17.2620  -34.9650 C   0  0  0  0  0  0  0  0  0  0  0  0
   -5.6100   17.4000  -33.4380 C   0  0  0  0  0  0  0  0  0  0  0  0
   -4.3680   16.8850  -32.6870 C   0  0  0  0  0  0  0  0  0  0  0  0
   -3.6360   15.7950  -33.4850 C   0  0  0  0  0  0  0  0  0  0  0  0
   -2.2040   19.1250  -33.7860 C   0  0  0  0  0  0  0  0  0  0  0  0
   -4.1810   21.4490  -32.7660 C   0  0  0  0  0  0  0  0  0  0  0  0
   -4.8310   21.0690  -33.7760 O   0  0  0  0  0  0  0  0  0  0  0  0
   -4.7210   22.1800  -31.7630 N   0  0  0  0  0  0  0  0  0  0  0  0
   -6.1000   22.6700  -31.6740 C   0  0  0  0  0  0  0  0  0  0  0  0
   -7.0820   21.5330  -31.7870 C   0  0  0  0  0  0  0  0  0  0  0  0
   -6.6540   20.2040  -31.6200 C   0  0  0  0  0  0  0  0  0  0  0  0
   -7.5710   19.1560  -31.6970 C   0  0  0  0  0  0  0  0  0  0  0  0
   -8.9230   19.4210  -31.9300 C   0  0  0  0  0  0  0  0  0  0  0  0
   -9.8350   18.3760  -31.9950 O   0  0  0  0  0  0  0  0  0  0  0  0
   -9.3580   20.7400  -32.0930 C   0  0  0  0  0  0  0  0  0  0  0  0
   -8.4440   21.7920  -32.0150 C   0  0  0  0  0  0  0  0  0  0  0  0
   -1.6040   25.6750  -29.9190 H   0  0  0  0  0  0  0  0  0  0  0  0
   -3.0340   22.8268  -28.9083 H   0  0  0  0  0  0  0  0  0  0  0  0
   -4.7894   23.1212  -29.2005 H   0  0  0  0  0  0  0  0  0  0  0  0
   -0.6092   22.1517  -33.6552 H   0  0  0  0  0  0  0  0  0  0  0  0
    1.0038   20.9046  -35.0895 H   0  0  0  0  0  0  0  0  0  0  0  0
    0.6035   18.5085  -35.6389 H   0  0  0  0  0  0  0  0  0  0  0  0
   -3.6030   18.3194  -35.0578 H   0  0  0  0  0  0  0  0  0  0  0  0
   -3.9739   17.2761  -36.4943 H   0  0  0  0  0  0  0  0  0  0  0  0
   -6.0528   18.0672  -35.4495 H   0  0  0  0  0  0  0  0  0  0  0  0
   -5.8743   16.2794  -35.2648 H   0  0  0  0  0  0  0  0  0  0  0  0
   -5.7546   18.4623  -33.1918 H   0  0  0  0  0  0  0  0  0  0  0  0
   -6.4673   16.7881  -33.1206 H   0  0  0  0  0  0  0  0  0  0  0  0
   -3.6796   17.7259  -32.5168 H   0  0  0  0  0  0  0  0  0  0  0  0
   -4.6991   16.4491  -31.7329 H   0  0  0  0  0  0  0  0  0  0  0  0
   -2.7491   15.4787  -32.9163 H   0  0  0  0  0  0  0  0  0  0  0  0
   -4.3413   14.9644  -33.6357 H   0  0  0  0  0  0  0  0  0  0  0  0
   -3.1301   18.6323  -33.4548 H   0  0  0  0  0  0  0  0  0  0  0  0
   -6.2417   23.1736  -30.7064 H   0  0  0  0  0  0  0  0  0  0  0  0
   -6.2780   23.3722  -32.5018 H   0  0  0  0  0  0  0  0  0  0  0  0
   -5.5922   19.9902  -31.4280 H   0  0  0  0  0  0  0  0  0  0  0  0
   -7.2289   18.1178  -31.5739 H   0  0  0  0  0  0  0  0  0  0  0  0
  -10.4212   20.9486  -32.2828 H   0  0  0  0  0  0  0  0  0  0  0  0
   -8.7917   22.8290  -32.1326 H   0  0  0  0  0  0  0  0  0  0  0  0
  1  2  1  0
  2  3  2  0
  2  4  1  0
  4  5  1  0
  5  6  2  0
  6  7  1  0
  6  8  1  0
  8  9  1  0
  9 10  2  0
 10 11  1  0
 11 12  2  0
 12 13  1  0
 13 14  1  0
 14 15  2  0
 14 16  2  0
 14 17  1  0
 17 18  1  0
 18 19  1  0
 19 20  1  0
 20 21  1  0
 21 22  1  0
 13 23  2  0
  8 24  1  0
 24 25  2  0
 24 26  1  0
 26 27  1  0
 27 28  1  0
 28 29  2  0
 29 30  1  0
 30 31  2  0
 31 32  1  0
 31 33  1  0
 33 34  2  0
 26  5  1  0
 34 28  1  0
 23  9  1  0
 22 17  1  0
  1 35  1  0
  4 36  1  0
  4 37  1  0
 10 38  1  0
 11 39  1  0
 12 40  1  0
 18 41  1  0
 18 42  1  0
 19 43  1  0
 19 44  1  0
 20 45  1  0
 20 46  1  0
 21 47  1  0
 21 48  1  0
 22 49  1  0
 22 50  1  0
 23 51  1  0
 27 52  1  0
 27 53  1  0
 29 54  1  0
 30 55  1  0
 33 56  1  0
 34 57  1  0
M  CHG  3   1  -1   7  -1  32  -1
M  END
>  <UniqueID>  (15) 
15

>  <SMILES>  (15) 
[NH-]C(=O)Cc1c([O-])n(-c2cccc(S(=O)(=O)N3CCCCC3)c2)c(=O)n1Cc1ccc([O-])cc1

>  <Energy>  (15) 
101.0888541582357

>  <Genealogy>  (15) 
[NH-]C(=O)Cc1c([O-])n(-c2cccc(S(=O)(=O)N3CCCCC3)c2)c(=O)n1Cc1ccc([O-])cc1 (protonated)
[NH-]C(=O)Cc1c([O-])n(-c2cccc(S(=O)(=O)N3CCCCC3)c2)c(=O)n1Cc1ccc([O-])cc1 (3D coordinates assigned)
[NH-]C(=O)Cc1c([O-])n(-c2cccc(S(=O)(=O)N3CCCCC3)c2)c(=O)n1Cc1ccc([O-])cc1 (nonaromatic ring conformer: 101.0888541582357 kcal/mol)

>  <smiles>  (15) 
NC(=O)Cc1c(O)n(-c2cccc(S(=O)(=O)N3CCCCC3)c2)c(=O)n1Cc1ccc(O)cc1

>  <score_type>  (15) 
oracle

>  <origin>  (15) 
adgpu

>  <m_score__min__energy>  (15) 
-14.609999999999999

>  <m_primary>  (15) 
energy

$$$$
15:0
     RDKit          3D

 68 72  0  0  0  0  0  0  0  0999 V2000
   -6.4580   19.6810  -34.3740 O   0  0  0  0  0  0  0  0  0  0  0  0
   -6.4160   19.8020  -33.1190 C   0  0  0  0  0  0  0  0  0  0  0  0
   -6.1570   18.6490  -32.2970 N   0  0  0  0  0  0  0  0  0  0  0  0
   -5.7270   17.3790  -32.8180 C   0  0  0  0  0  0  0  0  0  0  0  0
   -6.6290   16.4960  -33.4360 C   0  0  0  0  0  0  0  0  0  0  0  0
   -6.1810   15.2810  -33.9620 C   0  0  0  0  0  0  0  0  0  0  0  0
   -4.8240   14.9400  -33.8920 C   0  0  0  0  0  0  0  0  0  0  0  0
   -4.2530   13.4020  -34.5360 S   0  0  0  0  0  0  0  0  0  0  0  0
   -2.8010   13.5500  -34.8940 O   0  0  0  0  0  0  0  0  0  0  0  0
   -5.0150   13.0600  -35.7870 O   0  0  0  0  0  0  0  0  0  0  0  0
   -4.4270   12.1310  -33.3400 N   0  0  0  0  0  0  0  0  0  0  0  0
   -3.1240   11.6950  -32.8060 C   0  0  0  0  0  0  0  0  0  0  0  0
   -2.5110   12.7320  -31.8340 C   0  0  0  0  0  0  0  0  0  0  0  0
   -3.4530   13.6640  -31.3300 O   0  0  0  0  0  0  0  0  0  0  0  0
   -4.6560   13.0100  -30.9940 C   0  0  0  0  0  0  0  0  0  0  0  0
   -5.3690   12.5140  -32.2660 C   0  0  0  0  0  0  0  0  0  0  0  0
   -3.9200   15.8240  -33.2910 C   0  0  0  0  0  0  0  0  0  0  0  0
   -4.3670   17.0400  -32.7670 C   0  0  0  0  0  0  0  0  0  0  0  0
   -6.6290   21.1450  -32.5240 C   0  0  0  0  0  0  0  0  0  0  0  0
   -7.9400   21.6180  -32.3330 C   0  0  0  0  0  0  0  0  0  0  0  0
   -8.1660   22.8850  -31.7930 C   0  0  0  0  0  0  0  0  0  0  0  0
   -7.0890   23.6890  -31.4190 C   0  0  0  0  0  0  0  0  0  0  0  0
   -5.7730   23.2210  -31.5650 C   0  0  0  0  0  0  0  0  0  0  0  0
   -4.6650   24.0020  -31.2030 O   0  0  0  0  0  0  0  0  0  0  0  0
   -3.7240   23.6730  -30.2160 C   0  0  0  0  0  0  0  0  0  0  0  0
   -3.8230   24.1630  -28.9020 C   0  0  0  0  0  0  0  0  0  0  0  0
   -2.8720   23.8030  -27.9430 C   0  0  0  0  0  0  0  0  0  0  0  0
   -1.8200   22.9430  -28.2800 C   0  0  0  0  0  0  0  0  0  0  0  0
   -0.6230   22.5190  -27.0610 S   0  0  0  0  0  0  0  0  0  0  0  0
   -0.8140   23.3650  -25.8300 O   0  0  0  0  0  0  0  0  0  0  0  0
    0.7500   22.7740  -27.6160 O   0  0  0  0  0  0  0  0  0  0  0  0
   -0.7890   20.8290  -26.6590 N   0  0  0  0  0  0  0  0  0  0  0  0
   -0.1110   19.9800  -27.6390 C   0  0  0  0  0  0  0  0  0  0  0  0
   -0.8400   18.6450  -27.6360 C   0  0  0  0  0  0  0  0  0  0  0  0
   -2.1930   18.9240  -26.9980 C   0  0  0  0  0  0  0  0  0  0  0  0
   -2.1900   20.4100  -26.6810 C   0  0  0  0  0  0  0  0  0  0  0  0
   -1.7330   22.4350  -29.5830 C   0  0  0  0  0  0  0  0  0  0  0  0
   -2.6850   22.7940  -30.5420 C   0  0  0  0  0  0  0  0  0  0  0  0
   -5.5500   21.9580  -32.1270 C   0  0  0  0  0  0  0  0  0  0  0  0
   -6.3150   18.7050  -31.2670 H   0  0  0  0  0  0  0  0  0  0  0  0
   -7.6939   16.7627  -33.5062 H   0  0  0  0  0  0  0  0  0  0  0  0
   -6.8963   14.5903  -34.4325 H   0  0  0  0  0  0  0  0  0  0  0  0
   -3.2618   10.7450  -32.2689 H   0  0  0  0  0  0  0  0  0  0  0  0
   -2.4338   11.5801  -33.6548 H   0  0  0  0  0  0  0  0  0  0  0  0
   -2.0671   12.1923  -30.9845 H   0  0  0  0  0  0  0  0  0  0  0  0
   -1.7635   13.3045  -32.4027 H   0  0  0  0  0  0  0  0  0  0  0  0
   -4.4326   12.1505  -30.3449 H   0  0  0  0  0  0  0  0  0  0  0  0
   -5.3135   13.7185  -30.4688 H   0  0  0  0  0  0  0  0  0  0  0  0
   -5.9810   11.6376  -32.0065 H   0  0  0  0  0  0  0  0  0  0  0  0
   -5.9835   13.3437  -32.6455 H   0  0  0  0  0  0  0  0  0  0  0  0
   -2.8537   15.5604  -33.2310 H   0  0  0  0  0  0  0  0  0  0  0  0
   -3.6473   17.7360  -32.3114 H   0  0  0  0  0  0  0  0  0  0  0  0
   -8.7945   20.9838  -32.6117 H   0  0  0  0  0  0  0  0  0  0  0  0
   -9.1953   23.2503  -31.6621 H   0  0  0  0  0  0  0  0  0  0  0  0
   -7.2712   24.6931  -31.0083 H   0  0  0  0  0  0  0  0  0  0  0  0
   -4.6519   24.8321  -28.6276 H   0  0  0  0  0  0  0  0  0  0  0  0
   -2.9505   24.1971  -26.9190 H   0  0  0  0  0  0  0  0  0  0  0  0
   -0.1621   20.4381  -28.6378 H   0  0  0  0  0  0  0  0  0  0  0  0
    0.9517   19.8522  -27.3852 H   0  0  0  0  0  0  0  0  0  0  0  0
   -0.9683   18.2744  -28.6637 H   0  0  0  0  0  0  0  0  0  0  0  0
   -0.2798   17.8746  -27.0860 H   0  0  0  0  0  0  0  0  0  0  0  0
   -3.0061   18.6813  -27.6980 H   0  0  0  0  0  0  0  0  0  0  0  0
   -2.3546   18.3136  -26.0973 H   0  0  0  0  0  0  0  0  0  0  0  0
   -2.7400   20.9646  -27.4556 H   0  0  0  0  0  0  0  0  0  0  0  0
   -2.6797   20.6112  -25.7168 H   0  0  0  0  0  0  0  0  0  0  0  0
   -0.9137   21.7521  -29.8521 H   0  0  0  0  0  0  0  0  0  0  0  0
   -2.6168   22.3826  -31.5599 H   0  0  0  0  0  0  0  0  0  0  0  0
   -4.5196   21.5966  -32.2599 H   0  0  0  0  0  0  0  0  0  0  0  0
  1  2  2  0
  2  3  1  0
  3  4  1  0
  4  5  2  0
  5  6  1  0
  6  7  2  0
  7  8  1  0
  8  9  2  0
  8 10  2  0
  8 11  1  0
 11 12  1  0
 12 13  1  0
 13 14  1  0
 14 15  1  0
 15 16  1  0
  7 17  1  0
 17 18  2  0
  2 19  1  0
 19 20  2  0
 20 21  1  0
 21 22  2  0
 22 23  1  0
 23 24  1  0
 24 25  1  0
 25 26  2  0
 26 27  1  0
 27 28  2  0
 28 29  1  0
 29 30  2  0
 29 31  2  0
 29 32  1  0
 32 33  1  0
 33 34  1  0
 34 35  1  0
 35 36  1  0
 28 37  1  0
 37 38  2  0
 23 39  2  0
 18  4  1  0
 39 19  1  0
 16 11  1  0
 38 25  1  0
 36 32  1  0
  3 40  1  0
  5 41  1  0
  6 42  1  0
 12 43  1  0
 12 44  1  0
 13 45  1  0
 13 46  1  0
 15 47  1  0
 15 48  1  0
 16 49  1  0
 16 50  1  0
 17 51  1  0
 18 52  1  0
 20 53  1  0
 21 54  1  0
 22 55  1  0
 26 56  1  0
 27 57  1  0
 33 58  1  0
 33 59  1  0
 34 60  1  0
 34 61  1  0
 35 62  1  0
 35 63  1  0
 36 64  1  0
 36 65  1  0
 37 66  1  0
 38 67  1  0
 39 68  1  0
M  END
>  <UniqueID>  (16) 
16

>  <SMILES>  (16) 
O=C(Nc1ccc(S(=O)(=O)N2CCOCC2)cc1)c1cccc(Oc2ccc(S(=O)(=O)N3CCCC3)cc2)c1

>  <Energy>  (16) 
97.1206721185628

>  <Genealogy>  (16) 
O=C(Nc1ccc(S(=O)(=O)N2CCOCC2)cc1)c1cccc(Oc2ccc(S(=O)(=O)N3CCCC3)cc2)c1 (3D coordinates assigned)
O=C(Nc1ccc(S(=O)(=O)N2CCOCC2)cc1)c1cccc(Oc2ccc(S(=O)(=O)N3CCCC3)cc2)c1 (nonaromatic ring conformer: 97.1206721185628 kcal/mol)

>  <smiles>  (16) 
O=C(Nc1ccc(S(=O)(=O)N2CCOCC2)cc1)c1cccc(Oc2ccc(S(=O)(=O)N3CCCC3)cc2)c1

>  <score_type>  (16) 
oracle

>  <origin>  (16) 
adgpu

>  <m_score__min__energy>  (16) 
-10.67

>  <m_primary>  (16) 
energy

$$$$
16:0
     RDKit          3D

 38 41  0  0  0  0  0  0  0  0999 V2000
   -7.6200   22.9770  -30.9610 O   0  0  0  0  0  0  0  0  0  0  0  0
   -6.3780   23.0710  -30.7880 C   0  0  0  0  0  0  0  0  0  0  0  0
   -5.7680   24.2760  -30.8910 N   0  0  0  0  0  0  0  0  0  0  0  0
   -4.4300   24.4110  -30.7070 C   0  0  0  0  0  0  0  0  0  0  0  0
   -3.8680   25.6730  -30.8570 O   0  0  0  0  0  0  0  0  0  0  0  0
   -3.6410   23.2790  -30.3870 C   0  0  0  0  0  0  0  0  0  0  0  0
   -2.1250   23.3320  -30.1670 C   0  0  2  0  0  0  0  0  0  0  0  0
   -1.3600   22.1270  -30.7030 C   0  0  0  0  0  0  0  0  0  0  0  0
   -0.4530   21.3860  -29.9170 C   0  0  0  0  0  0  0  0  0  0  0  0
    0.2070   20.2770  -30.4520 C   0  0  0  0  0  0  0  0  0  0  0  0
   -0.0260   19.8830  -31.7720 C   0  0  0  0  0  0  0  0  0  0  0  0
    0.8230   18.4800  -32.4050 Cl  0  0  0  0  0  0  0  0  0  0  0  0
   -0.9310   20.6070  -32.5650 C   0  0  0  0  0  0  0  0  0  0  0  0
   -1.2580   20.1420  -34.2290 Cl  0  0  0  0  0  0  0  0  0  0  0  0
   -1.5910   21.7180  -32.0300 C   0  0  0  0  0  0  0  0  0  0  0  0
   -1.7550   23.7160  -28.7340 C   0  0  0  0  0  0  0  0  0  0  0  0
   -1.8800   22.7440  -27.7220 C   0  0  0  0  0  0  0  0  0  0  0  0
   -1.5640   23.0400  -26.3940 C   0  0  0  0  0  0  0  0  0  0  0  0
   -1.1260   24.3220  -26.0490 C   0  0  0  0  0  0  0  0  0  0  0  0
   -0.8030   24.6450  -24.7230 C   0  0  0  0  0  0  0  0  0  0  0  0
   -0.3780   25.9360  -24.4070 C   0  0  0  0  0  0  0  0  0  0  0  0
   -0.2810   26.8940  -25.4200 C   0  0  0  0  0  0  0  0  0  0  0  0
   -0.5980   26.5690  -26.7010 N   0  0  0  0  0  0  0  0  0  0  0  0
   -1.0140   25.3180  -27.0420 C   0  0  0  0  0  0  0  0  0  0  0  0
   -1.3330   25.0200  -28.3760 C   0  0  0  0  0  0  0  0  0  0  0  0
   -1.2470   26.0280  -29.3280 O   0  0  0  0  0  0  0  0  0  0  0  0
   -4.3080   22.0370  -30.3090 C   0  0  0  0  0  0  0  0  0  0  0  0
   -3.6710   20.9790  -30.0590 O   0  0  0  0  0  0  0  0  0  0  0  0
   -5.6490   21.9650  -30.5050 N   0  0  0  0  0  0  0  0  0  0  0  0
   -1.7722   24.1573  -30.8029 H   0  0  0  0  0  0  0  0  0  0  0  0
   -0.2639   21.6835  -28.8750 H   0  0  0  0  0  0  0  0  0  0  0  0
    0.9150   19.7101  -29.8297 H   0  0  0  0  0  0  0  0  0  0  0  0
   -2.3006   22.2801  -32.6550 H   0  0  0  0  0  0  0  0  0  0  0  0
   -2.2324   21.7349  -27.9820 H   0  0  0  0  0  0  0  0  0  0  0  0
   -1.6598   22.2645  -25.6198 H   0  0  0  0  0  0  0  0  0  0  0  0
   -0.8845   23.8827  -23.9342 H   0  0  0  0  0  0  0  0  0  0  0  0
   -0.1216   26.1974  -23.3697 H   0  0  0  0  0  0  0  0  0  0  0  0
    0.0529   27.9142  -25.1797 H   0  0  0  0  0  0  0  0  0  0  0  0
  1  2  2  0
  2  3  1  0
  3  4  1  0
  4  5  1  0
  4  6  2  0
  6  7  1  0
  7  8  1  0
  8  9  2  0
  9 10  1  0
 10 11  2  0
 11 12  1  0
 11 13  1  0
 13 14  1  0
 13 15  2  0
  7 16  1  0
 16 17  2  0
 17 18  1  0
 18 19  2  0
 19 20  1  0
 20 21  2  0
 21 22  1  0
 22 23  2  0
 23 24  1  0
 24 25  2  0
 25 26  1  0
  6 27  1  0
 27 28  2  0
 27 29  1  0
 29  2  1  0
 15  8  1  0
 25 16  1  0
 24 19  1  0
  7 30  1  6
  9 31  1  0
 10 32  1  0
 15 33  1  0
 17 34  1  0
 18 35  1  0
 20 36  1  0
 21 37  1  0
 22 38  1  0
M  CHG  4   3  -1   5  -1  26  -1  29  -1
M  END
>  <UniqueID>  (17) 
17

>  <SMILES>  (17) 
O=c1[n-]c([O-])c([C@H](c2ccc(Cl)c(Cl)c2)c2ccc3cccnc3c2[O-])c(=O)[n-]1

>  <Energy>  (17) 
60.36589462014066

>  <Genealogy>  (17) 
O=c1[n-]c([O-])c(C(c2ccc(Cl)c(Cl)c2)c2ccc3cccnc3c2[O-])c(=O)[n-]1 (protonated)
O=c1[n-]c([O-])c([C@H](c2ccc(Cl)c(Cl)c2)c2ccc3cccnc3c2[O-])c(=O)[n-]1 (chirality)
O=c1[n-]c([O-])c([C@H](c2ccc(Cl)c(Cl)c2)c2ccc3cccnc3c2[O-])c(=O)[n-]1 (3D coordinates assigned)
O=c1[n-]c([O-])c([C@H](c2ccc(Cl)c(Cl)c2)c2ccc3cccnc3c2[O-])c(=O)[n-]1 (optimized conformer: 60.36589462014066 kcal/mol)

>  <smiles>  (17) 
O=c1[nH]c(O)c(C(c2ccc(Cl)c(Cl)c2)c2ccc3cccnc3c2O)c(=O)[nH]1

>  <score_type>  (17) 
oracle

>  <origin>  (17) 
adgpu

>  <m_score__min__energy>  (17) 
-14.25

>  <m_primary>  (17) 
energy

$$$$
17:0
     RDKit          3D

 50 52  0  0  0  0  0  0  0  0999 V2000
   -1.9650   25.2900  -29.3320 N   0  0  0  0  0  0  0  0  0  0  0  0
   -1.2080   25.8390  -27.8810 S   0  0  0  0  0  0  0  0  0  0  0  0
   -2.1530   25.6730  -26.7260 O   0  0  0  0  0  0  0  0  0  0  0  0
   -0.8690   27.2970  -28.0180 O   0  0  0  0  0  0  0  0  0  0  0  0
    0.2570   24.9020  -27.5880 C   0  0  0  0  0  0  0  0  0  0  0  0
    1.4590   25.5570  -27.2970 C   0  0  0  0  0  0  0  0  0  0  0  0
    2.6210   24.8200  -27.0590 C   0  0  0  0  0  0  0  0  0  0  0  0
    2.5890   23.4230  -27.1080 C   0  0  0  0  0  0  0  0  0  0  0  0
    1.3880   22.7530  -27.3800 C   0  0  0  0  0  0  0  0  0  0  0  0
    1.3590   21.2500  -27.4650 C   0  0  0  0  0  0  0  0  0  0  0  0
    0.2290   20.8070  -28.2790 N   0  0  0  0  0  0  0  0  0  0  0  0
   -1.0320   20.4560  -27.6970 C   0  0  0  0  0  0  0  0  0  0  0  0
   -1.1600   20.4110  -26.4430 O   0  0  0  0  0  0  0  0  0  0  0  0
   -2.1220   20.1020  -28.5570 N   0  0  0  0  0  0  0  0  0  0  0  0
   -2.6870   20.8970  -29.6120 C   0  0  0  0  0  0  0  0  0  0  0  0
   -2.4510   20.5120  -30.9370 C   0  0  0  0  0  0  0  0  0  0  0  0
   -2.9630   21.2650  -31.9970 C   0  0  0  0  0  0  0  0  0  0  0  0
   -3.7130   22.4150  -31.7410 C   0  0  0  0  0  0  0  0  0  0  0  0
   -3.9470   22.8220  -30.4220 C   0  0  0  0  0  0  0  0  0  0  0  0
   -4.8810   24.2800  -30.0910 S   0  0  0  0  0  0  0  0  0  0  0  0
   -4.7520   24.6460  -28.6360 O   0  0  0  0  0  0  0  0  0  0  0  0
   -4.3270   25.4090  -30.9180 O   0  0  0  0  0  0  0  0  0  0  0  0
   -6.5610   24.0310  -30.4990 N   0  0  0  0  0  0  0  0  0  0  0  0
   -6.7210   23.9510  -31.9650 C   0  0  0  0  0  0  0  0  0  0  0  0
   -8.0290   23.2300  -32.3250 C   0  0  0  0  0  0  0  0  0  0  0  0
   -8.1110   21.8940  -31.8390 O   0  0  0  0  0  0  0  0  0  0  0  0
   -7.2640   21.6370  -30.7270 C   0  0  0  0  0  0  0  0  0  0  0  0
   -7.1070   22.8510  -29.7910 C   0  0  0  0  0  0  0  0  0  0  0  0
   -3.4200   22.0730  -29.3590 C   0  0  0  0  0  0  0  0  0  0  0  0
    0.2220   23.4990  -27.6310 C   0  0  0  0  0  0  0  0  0  0  0  0
   -2.9370   25.6720  -29.3330 H   0  0  0  0  0  0  0  0  0  0  0  0
    1.4886   26.6558  -27.2556 H   0  0  0  0  0  0  0  0  0  0  0  0
    3.5637   25.3397  -26.8325 H   0  0  0  0  0  0  0  0  0  0  0  0
    3.5098   22.8474  -26.9324 H   0  0  0  0  0  0  0  0  0  0  0  0
    2.2951   20.8947  -27.9206 H   0  0  0  0  0  0  0  0  0  0  0  0
    1.2514   20.8375  -26.4510 H   0  0  0  0  0  0  0  0  0  0  0  0
    0.2980   20.8430  -29.3210 H   0  0  0  0  0  0  0  0  0  0  0  0
   -1.8577   19.6095  -31.1455 H   0  0  0  0  0  0  0  0  0  0  0  0
   -2.7751   20.9515  -33.0345 H   0  0  0  0  0  0  0  0  0  0  0  0
   -4.1206   23.0021  -32.5772 H   0  0  0  0  0  0  0  0  0  0  0  0
   -6.7416   24.9683  -32.3829 H   0  0  0  0  0  0  0  0  0  0  0  0
   -5.8760   23.3856  -32.3847 H   0  0  0  0  0  0  0  0  0  0  0  0
   -8.8669   23.8033  -31.9016 H   0  0  0  0  0  0  0  0  0  0  0  0
   -8.0656   23.1702  -33.4228 H   0  0  0  0  0  0  0  0  0  0  0  0
   -7.6886   20.8027  -30.1494 H   0  0  0  0  0  0  0  0  0  0  0  0
   -6.2662   21.3987  -31.1239 H   0  0  0  0  0  0  0  0  0  0  0  0
   -8.0927   23.1100  -29.3771 H   0  0  0  0  0  0  0  0  0  0  0  0
   -6.4003   22.5762  -28.9942 H   0  0  0  0  0  0  0  0  0  0  0  0
   -3.5800   22.4058  -28.3228 H   0  0  0  0  0  0  0  0  0  0  0  0
   -0.7207   22.9812  -27.8618 H   0  0  0  0  0  0  0  0  0  0  0  0
  1  2  1  0
  2  3  2  0
  2  4  2  0
  2  5  1  0
  5  6  2  0
  6  7  1  0
  7  8  2  0
  8  9  1  0
  9 10  1  0
 10 11  1  0
 11 12  1  0
 12 13  2  0
 12 14  1  0
 14 15  1  0
 15 16  2  0
 16 17  1  0
 17 18  2  0
 18 19  1  0
 19 20  1  0
 20 21  2  0
 20 22  2  0
 20 23  1  0
 23 24  1  0
 24 25  1  0
 25 26  1  0
 26 27  1  0
 27 28  1  0
 19 29  2  0
  9 30  2  0
 30  5  1  0
 29 15  1  0
 28 23  1  0
  1 31  1  0
  6 32  1  0
  7 33  1  0
  8 34  1  0
 10 35  1  0
 10 36  1  0
 11 37  1  0
 16 38  1  0
 17 39  1  0
 18 40  1  0
 24 41  1  0
 24 42  1  0
 25 43  1  0
 25 44  1  0
 27 45  1  0
 27 46  1  0
 28 47  1  0
 28 48  1  0
 29 49  1  0
 30 50  1  0
M  CHG  2   1  -1  14  -1
M  END
>  <UniqueID>  (18) 
18

>  <SMILES>  (18) 
[NH-]S(=O)(=O)c1cccc(CNC(=O)[N-]c2cccc(S(=O)(=O)N3CCOCC3)c2)c1

>  <Energy>  (18) 
64.40865247067254

>  <Genealogy>  (18) 
[NH-]S(=O)(=O)c1cccc(CNC(=O)[N-]c2cccc(S(=O)(=O)N3CCOCC3)c2)c1 (protonated)
[NH-]S(=O)(=O)c1cccc(CNC(=O)[N-]c2cccc(S(=O)(=O)N3CCOCC3)c2)c1 (3D coordinates assigned)
[NH-]S(=O)(=O)c1cccc(CNC(=O)[N-]c2cccc(S(=O)(=O)N3CCOCC3)c2)c1 (nonaromatic ring conformer: 64.40865247067254 kcal/mol)

>  <smiles>  (18) 
NS(=O)(=O)c1cccc(CNC(=O)Nc2cccc(S(=O)(=O)N3CCOCC3)c2)c1

>  <score_type>  (18) 
oracle

>  <origin>  (18) 
adgpu

>  <m_score__min__energy>  (18) 
-12.6

>  <m_primary>  (18) 
energy

$$$$
18:0
     RDKit          3D

 58 61  0  0  0  0  0  0  0  0999 V2000
   -1.3700   22.5980  -29.0410 O   0  0  0  0  0  0  0  0  0  0  0  0
   -1.9220   22.5460  -30.1720 C   0  0  0  0  0  0  0  0  0  0  0  0
   -1.2220   21.9610  -31.2800 N   0  0  0  0  0  0  0  0  0  0  0  0
   -1.6450   20.8200  -32.0370 C   0  0  0  0  0  0  0  0  0  0  0  0
   -2.5440   20.9350  -33.1110 C   0  0  0  0  0  0  0  0  0  0  0  0
   -2.9490   19.7970  -33.8150 C   0  0  0  0  0  0  0  0  0  0  0  0
   -2.4650   18.5330  -33.4550 C   0  0  0  0  0  0  0  0  0  0  0  0
   -2.9610   17.0960  -34.3590 S   0  0  0  0  0  0  0  0  0  0  0  0
   -1.7340   16.3220  -34.7610 O   0  0  0  0  0  0  0  0  0  0  0  0
   -3.6700   17.5280  -35.6130 O   0  0  0  0  0  0  0  0  0  0  0  0
   -4.0190   16.0520  -33.4390 N   0  0  0  0  0  0  0  0  0  0  0  0
   -4.8970   15.2630  -34.2990 C   0  0  0  0  0  0  0  0  0  0  0  0
   -5.2870   14.0340  -33.4930 C   0  0  0  0  0  0  0  0  0  0  0  0
   -4.1950   13.8830  -32.4430 C   0  0  0  0  0  0  0  0  0  0  0  0
   -3.2770   15.0820  -32.6340 C   0  0  0  0  0  0  0  0  0  0  0  0
   -1.5960   18.4150  -32.3600 C   0  0  0  0  0  0  0  0  0  0  0  0
   -1.1940   19.5510  -31.6540 C   0  0  0  0  0  0  0  0  0  0  0  0
   -3.3100   23.0450  -30.3540 C   0  0  0  0  0  0  0  0  0  0  0  0
   -4.3080   22.1670  -30.8190 C   0  0  0  0  0  0  0  0  0  0  0  0
   -5.6210   22.6130  -31.0210 C   0  0  0  0  0  0  0  0  0  0  0  0
   -6.8540   21.5070  -31.6330 S   0  0  0  0  0  0  0  0  0  0  0  0
   -7.6360   22.1900  -32.7210 O   0  0  0  0  0  0  0  0  0  0  0  0
   -7.8090   21.1620  -30.5220 O   0  0  0  0  0  0  0  0  0  0  0  0
   -6.1450   20.0410  -32.2710 N   0  0  0  0  0  0  0  0  0  0  0  0
   -6.4760   19.8900  -33.7060 C   0  0  0  0  0  0  0  0  0  0  0  0
   -6.2460   18.4520  -34.1880 C   0  0  0  0  0  0  0  0  0  0  0  0
   -7.1520   17.4630  -33.4320 C   0  0  0  0  0  0  0  0  0  0  0  0
   -7.5730   17.9810  -32.0470 C   0  0  0  0  0  0  0  0  0  0  0  0
   -6.4780   18.8630  -31.4310 C   0  0  0  0  0  0  0  0  0  0  0  0
   -5.9490   23.9440  -30.7390 C   0  0  0  0  0  0  0  0  0  0  0  0
   -4.9730   24.8240  -30.2740 C   0  0  0  0  0  0  0  0  0  0  0  0
   -3.6590   24.3880  -30.0810 C   0  0  0  0  0  0  0  0  0  0  0  0
   -2.7170   25.2960  -29.6100 O   0  0  0  0  0  0  0  0  0  0  0  0
   -2.9304   21.9239  -33.3988 H   0  0  0  0  0  0  0  0  0  0  0  0
   -3.6513   19.8949  -34.6559 H   0  0  0  0  0  0  0  0  0  0  0  0
   -5.7922   15.8440  -34.5658 H   0  0  0  0  0  0  0  0  0  0  0  0
   -4.3948   14.9845  -35.2372 H   0  0  0  0  0  0  0  0  0  0  0  0
   -6.2658   14.1818  -33.0133 H   0  0  0  0  0  0  0  0  0  0  0  0
   -5.3761   13.1385  -34.1255 H   0  0  0  0  0  0  0  0  0  0  0  0
   -4.6299   13.8892  -31.4327 H   0  0  0  0  0  0  0  0  0  0  0  0
   -3.6523   12.9325  -32.5530 H   0  0  0  0  0  0  0  0  0  0  0  0
   -3.0154   15.5189  -31.6590 H   0  0  0  0  0  0  0  0  0  0  0  0
   -2.3397   14.7892  -33.1297 H   0  0  0  0  0  0  0  0  0  0  0  0
   -1.2296   17.4233  -32.0561 H   0  0  0  0  0  0  0  0  0  0  0  0
   -0.5189   19.4481  -30.7917 H   0  0  0  0  0  0  0  0  0  0  0  0
   -4.0535   21.1171  -31.0264 H   0  0  0  0  0  0  0  0  0  0  0  0
   -7.5331   20.1533  -33.8586 H   0  0  0  0  0  0  0  0  0  0  0  0
   -5.8189   20.5567  -34.2836 H   0  0  0  0  0  0  0  0  0  0  0  0
   -6.4690   18.3935  -35.2636 H   0  0  0  0  0  0  0  0  0  0  0  0
   -5.1970   18.1824  -33.9957 H   0  0  0  0  0  0  0  0  0  0  0  0
   -8.0573   17.2867  -34.0315 H   0  0  0  0  0  0  0  0  0  0  0  0
   -6.5775   16.5375  -33.2792 H   0  0  0  0  0  0  0  0  0  0  0  0
   -8.4951   18.5719  -32.1494 H   0  0  0  0  0  0  0  0  0  0  0  0
   -7.7389   17.1173  -31.3864 H   0  0  0  0  0  0  0  0  0  0  0  0
   -6.8244   19.2185  -30.4493 H   0  0  0  0  0  0  0  0  0  0  0  0
   -5.5686   18.2499  -31.3465 H   0  0  0  0  0  0  0  0  0  0  0  0
   -6.9806   24.2970  -30.8848 H   0  0  0  0  0  0  0  0  0  0  0  0
   -5.2388   25.8692  -30.0574 H   0  0  0  0  0  0  0  0  0  0  0  0
  1  2  2  0
  2  3  1  0
  3  4  1  0
  4  5  2  0
  5  6  1  0
  6  7  2  0
  7  8  1  0
  8  9  2  0
  8 10  2  0
  8 11  1  0
 11 12  1  0
 12 13  1  0
 13 14  1  0
 14 15  1  0
  7 16  1  0
 16 17  2  0
  2 18  1  0
 18 19  2  0
 19 20  1  0
 20 21  1  0
 21 22  2  0
 21 23  2  0
 21 24  1  0
 24 25  1  0
 25 26  1  0
 26 27  1  0
 27 28  1  0
 28 29  1  0
 20 30  2  0
 30 31  1  0
 31 32  2  0
 32 33  1  0
 17  4  1  0
 32 18  1  0
 15 11  1  0
 29 24  1  0
  5 34  1  0
  6 35  1  0
 12 36  1  0
 12 37  1  0
 13 38  1  0
 13 39  1  0
 14 40  1  0
 14 41  1  0
 15 42  1  0
 15 43  1  0
 16 44  1  0
 17 45  1  0
 19 46  1  0
 25 47  1  0
 25 48  1  0
 26 49  1  0
 26 50  1  0
 27 51  1  0
 27 52  1  0
 28 53  1  0
 28 54  1  0
 29 55  1  0
 29 56  1  0
 30 57  1  0
 31 58  1  0
M  CHG  2   3  -1  33  -1
M  END
>  <UniqueID>  (19) 
19

>  <SMILES>  (19) 
O=C([N-]c1ccc(S(=O)(=O)N2CCCC2)cc1)c1cc(S(=O)(=O)N2CCCCC2)ccc1[O-]

>  <Energy>  (19) 
71.71208615027243

>  <Genealogy>  (19) 
O=C([N-]c1ccc(S(=O)(=O)N2CCCC2)cc1)c1cc(S(=O)(=O)N2CCCCC2)ccc1[O-] (protonated)
O=C([N-]c1ccc(S(=O)(=O)N2CCCC2)cc1)c1cc(S(=O)(=O)N2CCCCC2)ccc1[O-] (3D coordinates assigned)
O=C([N-]c1ccc(S(=O)(=O)N2CCCC2)cc1)c1cc(S(=O)(=O)N2CCCCC2)ccc1[O-] (nonaromatic ring conformer: 71.71208615027243 kcal/mol)

>  <smiles>  (19) 
O=C(Nc1ccc(S(=O)(=O)N2CCCC2)cc1)c1cc(S(=O)(=O)N2CCCCC2)ccc1O

>  <score_type>  (19) 
oracle

>  <origin>  (19) 
adgpu

>  <m_score__min__energy>  (19) 
-14.77

>  <m_primary>  (19) 
energy

$$$$
19:0
     RDKit          3D

 34 35  0  0  0  0  0  0  0  0999 V2000
   -4.2140   20.8500  -31.1950 C   0  0  0  0  0  0  0  0  0  0  0  0
   -4.9620   21.5550  -32.6980 S   0  0  0  0  0  0  0  0  0  0  0  0
   -6.5990   20.9120  -32.3290 C   0  0  0  0  0  0  0  0  0  0  0  0
   -6.9460   19.7390  -32.9250 N   0  0  0  0  0  0  0  0  0  0  0  0
   -8.1440   19.1380  -32.7120 C   0  0  0  0  0  0  0  0  0  0  0  0
   -9.0690   19.7210  -31.8520 C   0  0  0  0  0  0  0  0  0  0  0  0
   -8.7530   20.9230  -31.2200 C   0  0  0  0  0  0  0  0  0  0  0  0
   -7.5110   21.5500  -31.4440 C   0  0  0  0  0  0  0  0  0  0  0  0
   -7.2270   22.8400  -30.7510 C   0  0  0  0  0  0  0  0  0  0  0  0
   -7.4820   22.9560  -29.5190 O   0  0  0  0  0  0  0  0  0  0  0  0
   -6.6990   23.9330  -31.4480 O   0  0  0  0  0  0  0  0  0  0  0  0
   -6.2100   25.1110  -30.8130 C   0  0  0  0  0  0  0  0  0  0  0  0
   -4.9460   24.8120  -30.0670 C   0  0  0  0  0  0  0  0  0  0  0  0
   -3.8570   25.2820  -30.4940 O   0  0  0  0  0  0  0  0  0  0  0  0
   -4.9900   24.0620  -28.8430 N   0  0  0  0  0  0  0  0  0  0  0  0
   -3.8260   23.6260  -28.1210 C   0  0  0  0  0  0  0  0  0  0  0  0
   -2.9870   24.5330  -27.4520 C   0  0  0  0  0  0  0  0  0  0  0  0
   -1.8530   24.0720  -26.7790 C   0  0  0  0  0  0  0  0  0  0  0  0
   -1.5610   22.7070  -26.7920 C   0  0  0  0  0  0  0  0  0  0  0  0
   -2.3660   21.8440  -27.4660 N   0  0  0  0  0  0  0  0  0  0  0  0
   -3.4730   22.2700  -28.1290 C   0  0  0  0  0  0  0  0  0  0  0  0
   -4.6863   21.2952  -30.3069 H   0  0  0  0  0  0  0  0  0  0  0  0
   -4.3679   19.7609  -31.1851 H   0  0  0  0  0  0  0  0  0  0  0  0
   -3.1359   21.0681  -31.1851 H   0  0  0  0  0  0  0  0  0  0  0  0
   -8.3832   18.1914  -33.2186 H   0  0  0  0  0  0  0  0  0  0  0  0
  -10.0409   19.2381  -31.6722 H   0  0  0  0  0  0  0  0  0  0  0  0
   -9.4814   21.3871  -30.5388 H   0  0  0  0  0  0  0  0  0  0  0  0
   -6.0087   25.8776  -31.5757 H   0  0  0  0  0  0  0  0  0  0  0  0
   -6.9670   25.4758  -30.1032 H   0  0  0  0  0  0  0  0  0  0  0  0
   -5.9230   23.9200  -28.3920 H   0  0  0  0  0  0  0  0  0  0  0  0
   -3.2234   25.6073  -27.4582 H   0  0  0  0  0  0  0  0  0  0  0  0
   -1.1979   24.7762  -26.2452 H   0  0  0  0  0  0  0  0  0  0  0  0
   -0.6779   22.3293  -26.2558 H   0  0  0  0  0  0  0  0  0  0  0  0
   -4.0956   21.5461  -28.6752 H   0  0  0  0  0  0  0  0  0  0  0  0
  1  2  1  0
  2  3  1  0
  3  4  2  0
  4  5  1  0
  5  6  2  0
  6  7  1  0
  7  8  2  0
  8  9  1  0
  9 10  2  0
  9 11  1  0
 11 12  1  0
 12 13  1  0
 13 14  2  0
 13 15  1  0
 15 16  1  0
 16 17  2  0
 17 18  1  0
 18 19  2  0
 19 20  1  0
 20 21  2  0
  8  3  1  0
 21 16  1  0
  1 22  1  0
  1 23  1  0
  1 24  1  0
  5 25  1  0
  6 26  1  0
  7 27  1  0
 12 28  1  0
 12 29  1  0
 15 30  1  0
 17 31  1  0
 18 32  1  0
 19 33  1  0
 21 34  1  0
M  END
>  <UniqueID>  (20) 
20

>  <SMILES>  (20) 
CSc1ncccc1C(=O)OCC(=O)Nc1cccnc1

>  <Energy>  (20) 
36.9305279847531

>  <Genealogy>  (20) 
CSc1ncccc1C(=O)OCC(=O)Nc1cccnc1 (3D coordinates assigned)
CSc1ncccc1C(=O)OCC(=O)Nc1cccnc1 (optimized conformer: 36.9305279847531 kcal/mol)

>  <smiles>  (20) 
CSc1ncccc1C(=O)OCC(=O)Nc1cccnc1

>  <score_type>  (20) 
oracle

>  <origin>  (20) 
adgpu

>  <m_score__min__energy>  (20) 
-7.8499999999999996

>  <m_primary>  (20) 
energy

$$$$
20:0
     RDKit          3D

 56 59  0  0  0  0  0  0  0  0999 V2000
   -5.9030   15.1180  -33.9000 C   0  0  0  0  0  0  0  0  0  0  0  0
   -4.5730   15.7300  -34.0260 N   0  0  0  0  0  0  0  0  0  0  0  0
   -3.7850   15.5200  -32.8040 C   0  0  0  0  0  0  0  0  0  0  0  0
   -2.4530   16.2930  -32.8720 C   0  0  0  0  0  0  0  0  0  0  0  0
   -2.0900   16.7110  -34.2440 N   0  0  0  0  0  0  0  0  0  0  0  0
   -2.3660   18.1290  -34.5870 C   0  0  0  0  0  0  0  0  0  0  0  0
   -3.1230   18.8910  -33.5110 C   0  0  0  0  0  0  0  0  0  0  0  0
   -4.5080   18.6710  -33.4000 C   0  0  0  0  0  0  0  0  0  0  0  0
   -5.2960   19.4220  -32.5180 C   0  0  0  0  0  0  0  0  0  0  0  0
   -6.7640   19.2120  -32.4600 C   0  0  0  0  0  0  0  0  0  0  0  0
   -7.6530   20.2450  -32.8030 C   0  0  0  0  0  0  0  0  0  0  0  0
   -9.0310   20.0340  -32.7360 C   0  0  0  0  0  0  0  0  0  0  0  0
   -9.5140   18.7920  -32.3230 C   0  0  0  0  0  0  0  0  0  0  0  0
   -8.6470   17.8010  -31.9890 N   0  0  0  0  0  0  0  0  0  0  0  0
   -7.3000   17.9790  -32.0470 C   0  0  0  0  0  0  0  0  0  0  0  0
   -4.6840   20.3910  -31.7150 C   0  0  0  0  0  0  0  0  0  0  0  0
   -3.3000   20.6080  -31.7750 C   0  0  0  0  0  0  0  0  0  0  0  0
   -2.6940   21.6420  -30.9020 C   0  0  0  0  0  0  0  0  0  0  0  0
   -3.3020   22.9020  -30.7720 C   0  0  0  0  0  0  0  0  0  0  0  0
   -2.7260   23.8830  -29.9590 C   0  0  0  0  0  0  0  0  0  0  0  0
   -1.5310   23.6220  -29.2750 C   0  0  0  0  0  0  0  0  0  0  0  0
   -0.8170   24.8550  -28.2410 S   0  0  0  0  0  0  0  0  0  0  0  0
   -1.2200   26.4210  -28.8470 N   0  0  0  0  0  0  0  0  0  0  0  0
   -1.3420   24.7110  -26.8400 O   0  0  0  0  0  0  0  0  0  0  0  0
    0.6770   24.6940  -28.2140 O   0  0  0  0  0  0  0  0  0  0  0  0
   -0.9210   22.3670  -29.4030 C   0  0  0  0  0  0  0  0  0  0  0  0
   -1.4960   21.3850  -30.2150 C   0  0  0  0  0  0  0  0  0  0  0  0
   -2.5060   19.8430  -32.6560 C   0  0  0  0  0  0  0  0  0  0  0  0
   -1.1220   20.0440  -32.6390 O   0  0  0  0  0  0  0  0  0  0  0  0
   -2.4130   15.7150  -35.2840 C   0  0  0  0  0  0  0  0  0  0  0  0
   -3.8590   15.1820  -35.1920 C   0  0  0  0  0  0  0  0  0  0  0  0
   -6.1541   15.0025  -32.8353 H   0  0  0  0  0  0  0  0  0  0  0  0
   -6.6507   15.7626  -34.3852 H   0  0  0  0  0  0  0  0  0  0  0  0
   -5.8998   14.1308  -34.3852 H   0  0  0  0  0  0  0  0  0  0  0  0
   -4.3629   15.8729  -31.9371 H   0  0  0  0  0  0  0  0  0  0  0  0
   -3.5652   14.4466  -32.7063 H   0  0  0  0  0  0  0  0  0  0  0  0
   -2.5383   17.1920  -32.2439 H   0  0  0  0  0  0  0  0  0  0  0  0
   -1.6632   15.6142  -32.5178 H   0  0  0  0  0  0  0  0  0  0  0  0
   -1.4052   18.6364  -34.7587 H   0  0  0  0  0  0  0  0  0  0  0  0
   -3.0071   18.1205  -35.4808 H   0  0  0  0  0  0  0  0  0  0  0  0
   -4.9817   17.8940  -34.0179 H   0  0  0  0  0  0  0  0  0  0  0  0
   -7.2621   21.2215  -33.1248 H   0  0  0  0  0  0  0  0  0  0  0  0
   -9.7297   20.8394  -33.0063 H   0  0  0  0  0  0  0  0  0  0  0  0
  -10.5983   18.6150  -32.2678 H   0  0  0  0  0  0  0  0  0  0  0  0
   -6.6265   17.1547  -31.7696 H   0  0  0  0  0  0  0  0  0  0  0  0
   -5.2975   20.9911  -31.0268 H   0  0  0  0  0  0  0  0  0  0  0  0
   -4.2355   23.1177  -31.3124 H   0  0  0  0  0  0  0  0  0  0  0  0
   -3.2130   24.8639  -29.8558 H   0  0  0  0  0  0  0  0  0  0  0  0
   -0.9100   26.4510  -29.8450 H   0  0  0  0  0  0  0  0  0  0  0  0
    0.0132   22.1538  -28.8629 H   0  0  0  0  0  0  0  0  0  0  0  0
   -1.0072   20.4048  -30.3166 H   0  0  0  0  0  0  0  0  0  0  0  0
   -0.4380   19.3540  -32.9110 H   0  0  0  0  0  0  0  0  0  0  0  0
   -2.2756   16.1829  -36.2700 H   0  0  0  0  0  0  0  0  0  0  0  0
   -1.7400   14.8579  -35.1341 H   0  0  0  0  0  0  0  0  0  0  0  0
   -4.4012   15.4650  -36.1063 H   0  0  0  0  0  0  0  0  0  0  0  0
   -3.8130   14.0886  -35.0807 H   0  0  0  0  0  0  0  0  0  0  0  0
  1  2  1  0
  2  3  1  0
  3  4  1  0
  4  5  1  0
  5  6  1  0
  6  7  1  0
  7  8  2  0
  8  9  1  0
  9 10  1  0
 10 11  2  0
 11 12  1  0
 12 13  2  0
 13 14  1  0
 14 15  2  0
  9 16  2  0
 16 17  1  0
 17 18  1  0
 18 19  2  0
 19 20  1  0
 20 21  2  0
 21 22  1  0
 22 23  1  0
 22 24  2  0
 22 25  2  0
 21 26  1  0
 26 27  2  0
 17 28  2  0
 28 29  1  0
  5 30  1  0
 30 31  1  0
 31  2  1  0
 28  7  1  0
 15 10  1  0
 27 18  1  0
  1 32  1  0
  1 33  1  0
  1 34  1  0
  3 35  1  0
  3 36  1  0
  4 37  1  0
  4 38  1  0
  6 39  1  0
  6 40  1  0
  8 41  1  0
 11 42  1  0
 12 43  1  0
 13 44  1  0
 15 45  1  0
 16 46  1  0
 19 47  1  0
 20 48  1  0
 23 49  1  0
 26 50  1  0
 27 51  1  0
 29 52  1  0
 30 53  1  0
 30 54  1  0
 31 55  1  0
 31 56  1  0
M  CHG  1  23  -1
M  END
>  <UniqueID>  (21) 
21

>  <SMILES>  (21) 
CN1CCN(Cc2cc(-c3cccnc3)cc(-c3ccc(S([NH-])(=O)=O)cc3)c2O)CC1

>  <Energy>  (21) 
86.6016851261167

>  <Genealogy>  (21) 
CN1CCN(Cc2cc(-c3cccnc3)cc(-c3ccc(S([NH-])(=O)=O)cc3)c2O)CC1 (protonated)
CN1CCN(Cc2cc(-c3cccnc3)cc(-c3ccc(S([NH-])(=O)=O)cc3)c2O)CC1 (3D coordinates assigned)
CN1CCN(Cc2cc(-c3cccnc3)cc(-c3ccc(S([NH-])(=O)=O)cc3)c2O)CC1 (nonaromatic ring conformer: 86.6016851261167 kcal/mol)

>  <smiles>  (21) 
CN1CCN(Cc2cc(-c3cccnc3)cc(-c3ccc(S(N)(=O)=O)cc3)c2O)CC1

>  <score_type>  (21) 
oracle

>  <origin>  (21) 
adgpu

>  <m_score__min__energy>  (21) 
-10.02

>  <m_primary>  (21) 
energy

$$$$
21:0
     RDKit          3D

 29 30  0  0  0  0  0  0  0  0999 V2000
   -3.8590   26.0890  -29.7730 H   0  0  0  0  0  0  0  0  0  0  0  0
   -3.8630   25.3110  -30.4690 N   0  0  0  0  0  0  0  0  0  0  0  0
   -4.9180   24.5990  -30.7090 C   0  0  0  0  0  0  0  0  0  0  0  0
   -4.8550   23.5990  -31.6290 N   0  0  0  0  0  0  0  0  0  0  0  0
   -5.9310   22.8210  -31.9230 C   0  0  0  0  0  0  0  0  0  0  0  0
   -5.8423   22.0208  -32.6725 H   0  0  0  0  0  0  0  0  0  0  0  0
   -7.1520   23.0380  -31.2720 C   0  0  0  0  0  0  0  0  0  0  0  0
   -8.5580   22.0410  -31.6380 S   0  0  0  0  0  0  0  0  0  0  0  0
   -9.6020   22.8960  -32.2970 O   0  0  0  0  0  0  0  0  0  0  0  0
   -9.1230   21.4610  -30.3700 O   0  0  0  0  0  0  0  0  0  0  0  0
   -8.1070   20.7520  -32.7140 N   0  0  0  0  0  0  0  0  0  0  0  0
   -8.9560   20.5160  -33.2780 H   0  0  0  0  0  0  0  0  0  0  0  0
   -7.7300   19.5670  -31.9410 C   0  0  0  0  0  0  0  0  0  0  0  0
   -7.1235   19.8717  -31.0754 H   0  0  0  0  0  0  0  0  0  0  0  0
   -8.6378   19.0540  -31.5908 H   0  0  0  0  0  0  0  0  0  0  0  0
   -6.9350   18.6390  -32.8050 C   0  0  0  0  0  0  0  0  0  0  0  0
   -7.1100   17.2920  -32.6930 N   0  0  0  0  0  0  0  0  0  0  0  0
   -6.4320   16.4130  -33.4770 C   0  0  0  0  0  0  0  0  0  0  0  0
   -6.5928   15.3316  -33.3557 H   0  0  0  0  0  0  0  0  0  0  0  0
   -5.5310   16.8810  -34.4370 C   0  0  0  0  0  0  0  0  0  0  0  0
   -4.9771   16.1737  -35.0718 H   0  0  0  0  0  0  0  0  0  0  0  0
   -5.3420   18.2560  -34.5810 C   0  0  0  0  0  0  0  0  0  0  0  0
   -4.6385   18.6392  -35.3348 H   0  0  0  0  0  0  0  0  0  0  0  0
   -6.0470   19.1450  -33.7670 C   0  0  0  0  0  0  0  0  0  0  0  0
   -5.9079   20.2305  -33.8785 H   0  0  0  0  0  0  0  0  0  0  0  0
   -7.2400   24.0560  -30.3170 C   0  0  0  0  0  0  0  0  0  0  0  0
   -8.1886   24.2352  -29.7897 H   0  0  0  0  0  0  0  0  0  0  0  0
   -6.1230   24.8450  -30.0330 C   0  0  0  0  0  0  0  0  0  0  0  0
   -6.1871   25.6509  -29.2871 H   0  0  0  0  0  0  0  0  0  0  0  0
  1  2  1  0
  2  3  2  0
  3  4  1  0
  4  5  1  0
  5  6  1  0
  5  7  2  0
  7  8  1  0
  8  9  2  0
  8 10  2  0
  8 11  1  0
 11 12  1  0
 11 13  1  0
 13 14  1  0
 13 15  1  0
 13 16  1  0
 16 17  2  0
 17 18  1  0
 18 19  1  0
 18 20  2  0
 20 21  1  0
 20 22  1  0
 22 23  1  0
 22 24  2  0
 24 25  1  0
  7 26  1  0
 26 27  1  0
 26 28  2  0
 28 29  1  0
 28  3  1  0
 24 16  1  0
M  CHG  1   4  -1
M  END
>  <UniqueID>  (22) 
22

>  <SMILES>  (22) 
[H]/N=c1\ccc(S(=O)(=O)NCc2ccccn2)c[n-]1

>  <Energy>  (22) 
27.933111245516407

>  <Genealogy>  (22) 
N=c1ccc(S(=O)(=O)NCc2ccccn2)c[n-]1 (protonated)
[H]/N=c1\ccc(S(=O)(=O)NCc2ccccn2)c[n-]1 (cis-trans isomerization)
[H]/N=c1\ccc(S(=O)(=O)NCc2ccccn2)c[n-]1 (3D coordinates assigned)
[H]/N=c1\ccc(S(=O)(=O)NCc2ccccn2)c[n-]1 (optimized conformer: 27.933111245516407 kcal/mol)

>  <smiles>  (22) 
N=c1ccc(S(=O)(=O)NCc2ccccn2)c[nH]1

>  <score_type>  (22) 
oracle

>  <origin>  (22) 
adgpu

>  <m_score__min__energy>  (22) 
-9.5399999999999991

>  <m_primary>  (22) 
energy

$$$$
22:0
     RDKit          3D

 57 60  0  0  0  0  0  0  0  0999 V2000
    3.7330   24.5660  -23.9270 C   0  0  0  0  0  0  0  0  0  0  0  0
    3.7590   25.3610  -25.1640 N   0  0  0  0  0  0  0  0  0  0  0  0
    2.6360   24.9680  -26.0490 C   0  0  0  0  0  0  0  0  0  0  0  0
    2.3360   26.0460  -27.0970 C   0  0  0  0  0  0  0  0  0  0  0  0
    1.9190   27.3800  -26.4340 C   0  0  0  0  0  0  0  0  0  0  0  0
    0.1340   27.6300  -26.4710 S   0  0  0  0  0  0  0  0  0  0  0  0
   -0.2910   28.2680  -25.1780 O   0  0  0  0  0  0  0  0  0  0  0  0
   -0.2000   28.5980  -27.5710 O   0  0  0  0  0  0  0  0  0  0  0  0
   -0.7510   26.1030  -26.7320 C   0  0  0  0  0  0  0  0  0  0  0  0
   -0.8790   25.1310  -25.7100 C   0  0  0  0  0  0  0  0  0  0  0  0
   -0.2030   25.3340  -24.0960 Cl  0  0  0  0  0  0  0  0  0  0  0  0
   -1.5500   23.9330  -25.9660 C   0  0  0  0  0  0  0  0  0  0  0  0
   -2.1040   23.6820  -27.2200 C   0  0  0  0  0  0  0  0  0  0  0  0
   -2.0090   24.6370  -28.2390 C   0  0  0  0  0  0  0  0  0  0  0  0
   -2.5390   24.3730  -29.5490 N   0  0  0  0  0  0  0  0  0  0  0  0
   -3.9390   24.4480  -29.8750 C   0  0  0  0  0  0  0  0  0  0  0  0
   -4.7910   24.6920  -28.9820 O   0  0  0  0  0  0  0  0  0  0  0  0
   -4.3920   24.2150  -31.2130 N   0  0  0  0  0  0  0  0  0  0  0  0
   -5.1520   23.0810  -31.6550 C   0  0  0  0  0  0  0  0  0  0  0  0
   -6.5420   23.0210  -31.4870 C   0  0  0  0  0  0  0  0  0  0  0  0
   -7.2590   21.8950  -31.9000 C   0  0  0  0  0  0  0  0  0  0  0  0
   -6.5990   20.7870  -32.4810 C   0  0  0  0  0  0  0  0  0  0  0  0
   -5.1880   20.8480  -32.6190 C   0  0  0  0  0  0  0  0  0  0  0  0
   -4.5060   19.7700  -33.1790 C   0  0  0  0  0  0  0  0  0  0  0  0
   -5.2090   18.6490  -33.5970 C   0  0  0  0  0  0  0  0  0  0  0  0
   -6.5960   18.6030  -33.4560 C   0  0  0  0  0  0  0  0  0  0  0  0
   -7.2020   17.5680  -33.8470 O   0  0  0  0  0  0  0  0  0  0  0  0
   -7.2850   19.6610  -32.9040 N   0  0  0  0  0  0  0  0  0  0  0  0
   -8.7530   19.5840  -32.7650 C   0  0  0  0  0  0  0  0  0  0  0  0
   -4.4790   21.9840  -32.1970 C   0  0  0  0  0  0  0  0  0  0  0  0
   -1.3230   25.8400  -27.9970 C   0  0  0  0  0  0  0  0  0  0  0  0
   -1.2250   26.7750  -29.0230 O   0  0  0  0  0  0  0  0  0  0  0  0
    2.4660   27.5090  -24.9970 C   0  0  0  0  0  0  0  0  0  0  0  0
    3.8290   26.8170  -24.8710 C   0  0  0  0  0  0  0  0  0  0  0  0
    3.7550   25.2396  -23.0577 H   0  0  0  0  0  0  0  0  0  0  0  0
    2.8146   23.9612  -23.8991 H   0  0  0  0  0  0  0  0  0  0  0  0
    4.6099   23.9025  -23.8991 H   0  0  0  0  0  0  0  0  0  0  0  0
    2.8991   24.0327  -26.5648 H   0  0  0  0  0  0  0  0  0  0  0  0
    1.7388   24.8359  -25.4264 H   0  0  0  0  0  0  0  0  0  0  0  0
    3.2375   26.2150  -27.7043 H   0  0  0  0  0  0  0  0  0  0  0  0
    1.5022   25.6962  -27.7234 H   0  0  0  0  0  0  0  0  0  0  0  0
    2.3760   28.1792  -27.0360 H   0  0  0  0  0  0  0  0  0  0  0  0
   -1.6421   23.1798  -25.1696 H   0  0  0  0  0  0  0  0  0  0  0  0
   -2.6186   22.7285  -27.4099 H   0  0  0  0  0  0  0  0  0  0  0  0
   -1.8580   24.1660  -30.3120 H   0  0  0  0  0  0  0  0  0  0  0  0
   -7.0729   23.8671  -31.0263 H   0  0  0  0  0  0  0  0  0  0  0  0
   -8.3512   21.8699  -31.7716 H   0  0  0  0  0  0  0  0  0  0  0  0
   -3.4122   19.8074  -33.2896 H   0  0  0  0  0  0  0  0  0  0  0  0
   -4.6725   17.7967  -34.0395 H   0  0  0  0  0  0  0  0  0  0  0  0
   -9.0200   19.5700  -31.6980 H   0  0  0  0  0  0  0  0  0  0  0  0
   -9.2133   20.4592  -33.2467 H   0  0  0  0  0  0  0  0  0  0  0  0
   -9.1192   18.6654  -33.2467 H   0  0  0  0  0  0  0  0  0  0  0  0
   -3.3836   22.0101  -32.2942 H   0  0  0  0  0  0  0  0  0  0  0  0
    2.5777   28.5745  -24.7475 H   0  0  0  0  0  0  0  0  0  0  0  0
    1.7595   27.0268  -24.3053 H   0  0  0  0  0  0  0  0  0  0  0  0
    4.5290   27.2857  -25.5783 H   0  0  0  0  0  0  0  0  0  0  0  0
    4.1667   26.9321  -23.8305 H   0  0  0  0  0  0  0  0  0  0  0  0
  1  2  1  0
  2  3  1  0
  3  4  1  0
  4  5  1  0
  5  6  1  0
  6  7  2  0
  6  8  2  0
  6  9  1  0
  9 10  2  0
 10 11  1  0
 10 12  1  0
 12 13  2  0
 13 14  1  0
 14 15  1  0
 15 16  1  0
 16 17  2  0
 16 18  1  0
 18 19  1  0
 19 20  2  0
 20 21  1  0
 21 22  2  0
 22 23  1  0
 23 24  1  0
 24 25  2  0
 25 26  1  0
 26 27  2  0
 26 28  1  0
 28 29  1  0
 23 30  2  0
 14 31  2  0
 31 32  1  0
  5 33  1  0
 33 34  1  0
 34  2  1  0
 31  9  1  0
 30 19  1  0
 28 22  1  0
  1 35  1  0
  1 36  1  0
  1 37  1  0
  3 38  1  0
  3 39  1  0
  4 40  1  0
  4 41  1  0
  5 42  1  0
 12 43  1  0
 13 44  1  0
 15 45  1  0
 20 46  1  0
 21 47  1  0
 24 48  1  0
 25 49  1  0
 29 50  1  0
 29 51  1  0
 29 52  1  0
 30 53  1  0
 33 54  1  0
 33 55  1  0
 34 56  1  0
 34 57  1  0
M  CHG  2  18  -1  32  -1
M  END
>  <UniqueID>  (23) 
23

>  <SMILES>  (23) 
CN1CCC(S(=O)(=O)c2c(Cl)ccc(NC(=O)[N-]c3ccc4c(ccc(=O)n4C)c3)c2[O-])CC1

>  <Energy>  (23) 
87.01597643327024

>  <Genealogy>  (23) 
CN1CCC(S(=O)(=O)c2c(Cl)ccc(NC(=O)[N-]c3ccc4c(ccc(=O)n4C)c3)c2[O-])CC1 (protonated)
CN1CCC(S(=O)(=O)c2c(Cl)ccc(NC(=O)[N-]c3ccc4c(ccc(=O)n4C)c3)c2[O-])CC1 (3D coordinates assigned)
CN1CCC(S(=O)(=O)c2c(Cl)ccc(NC(=O)[N-]c3ccc4c(ccc(=O)n4C)c3)c2[O-])CC1 (nonaromatic ring conformer: 87.01597643327024 kcal/mol)

>  <smiles>  (23) 
CN1CCC(S(=O)(=O)c2c(Cl)ccc(NC(=O)Nc3ccc4c(ccc(=O)n4C)c3)c2O)CC1

>  <score_type>  (23) 
oracle

>  <origin>  (23) 
adgpu

>  <m_score__min__energy>  (23) 
-14.289999999999999

>  <m_primary>  (23) 
energy

$$$$
23:0
     RDKit          3D

 47 50  0  0  0  0  0  0  0  0999 V2000
  -10.2190   21.0890  -32.6610 O   0  0  0  0  0  0  0  0  0  0  0  0
   -9.0900   20.6830  -32.2770 C   0  0  0  0  0  0  0  0  0  0  0  0
   -8.7370   19.3130  -32.5170 N   0  0  0  0  0  0  0  0  0  0  0  0
   -7.5540   18.8690  -32.8300 C   0  0  0  0  0  0  0  0  0  0  0  0
   -6.4290   19.6210  -32.8740 N   0  0  0  0  0  0  0  0  0  0  0  0
   -5.3340   18.8890  -33.2290 C   0  0  0  0  0  0  0  0  0  0  0  0
   -3.9780   19.4700  -33.3660 C   0  0  0  0  0  0  0  0  0  0  0  0
   -2.8870   18.7010  -33.8110 C   0  0  0  0  0  0  0  0  0  0  0  0
   -1.6260   19.2930  -33.9150 C   0  0  0  0  0  0  0  0  0  0  0  0
   -1.4560   20.6350  -33.5750 C   0  0  0  0  0  0  0  0  0  0  0  0
   -2.5560   21.3680  -33.1260 C   0  0  0  0  0  0  0  0  0  0  0  0
   -3.7760   20.7760  -33.0310 N   0  0  0  0  0  0  0  0  0  0  0  0
   -5.5940   17.5310  -33.4380 C   0  0  0  0  0  0  0  0  0  0  0  0
   -7.2370   17.2620  -33.1880 S   0  0  0  0  0  0  0  0  0  0  0  0
   -8.1410   21.6450  -31.6620 C   0  0  0  0  0  0  0  0  0  0  0  0
   -7.3020   22.4410  -32.4610 C   0  0  0  0  0  0  0  0  0  0  0  0
   -6.3940   23.3250  -31.8730 C   0  0  0  0  0  0  0  0  0  0  0  0
   -6.3220   23.4370  -30.4780 C   0  0  0  0  0  0  0  0  0  0  0  0
   -5.1720   24.5400  -29.7280 S   0  0  0  0  0  0  0  0  0  0  0  0
   -5.9150   25.6600  -29.0530 O   0  0  0  0  0  0  0  0  0  0  0  0
   -4.2910   25.1110  -30.8040 O   0  0  0  0  0  0  0  0  0  0  0  0
   -4.2070   23.6640  -28.5570 N   0  0  0  0  0  0  0  0  0  0  0  0
   -3.7000   24.5510  -27.4870 C   0  0  0  0  0  0  0  0  0  0  0  0
   -2.2340   24.9660  -27.7020 C   0  0  0  0  0  0  0  0  0  0  0  0
   -1.9540   25.0770  -29.0790 O   0  0  0  0  0  0  0  0  0  0  0  0
   -1.9700   23.7970  -29.6870 C   0  0  0  0  0  0  0  0  0  0  0  0
   -3.1310   22.8950  -29.2050 C   0  0  0  0  0  0  0  0  0  0  0  0
   -7.1640   22.6570  -29.6780 C   0  0  0  0  0  0  0  0  0  0  0  0
   -8.0730   21.7710  -30.2640 C   0  0  0  0  0  0  0  0  0  0  0  0
   -6.3880   20.6280  -32.6090 H   0  0  0  0  0  0  0  0  0  0  0  0
   -3.0259   17.6422  -34.0749 H   0  0  0  0  0  0  0  0  0  0  0  0
   -0.7674   18.7010  -34.2649 H   0  0  0  0  0  0  0  0  0  0  0  0
   -0.4674   21.1099  -33.6596 H   0  0  0  0  0  0  0  0  0  0  0  0
   -2.4354   22.4257  -32.8488 H   0  0  0  0  0  0  0  0  0  0  0  0
   -4.8519   16.7688  -33.7179 H   0  0  0  0  0  0  0  0  0  0  0  0
   -7.3608   22.3673  -33.5570 H   0  0  0  0  0  0  0  0  0  0  0  0
   -5.7336   23.9349  -32.5069 H   0  0  0  0  0  0  0  0  0  0  0  0
   -4.3216   25.4581  -27.4584 H   0  0  0  0  0  0  0  0  0  0  0  0
   -3.7508   23.9918  -26.5411 H   0  0  0  0  0  0  0  0  0  0  0  0
   -2.0567   25.9369  -27.2162 H   0  0  0  0  0  0  0  0  0  0  0  0
   -1.5773   24.2000  -27.2639 H   0  0  0  0  0  0  0  0  0  0  0  0
   -2.0622   23.9303  -30.7750 H   0  0  0  0  0  0  0  0  0  0  0  0
   -1.0332   23.2946  -29.4041 H   0  0  0  0  0  0  0  0  0  0  0  0
   -3.5495   22.3639  -30.0726 H   0  0  0  0  0  0  0  0  0  0  0  0
   -2.7247   22.1939  -28.4611 H   0  0  0  0  0  0  0  0  0  0  0  0
   -7.1106   22.7412  -28.5825 H   0  0  0  0  0  0  0  0  0  0  0  0
   -8.7385   21.1694  -29.6274 H   0  0  0  0  0  0  0  0  0  0  0  0
  1  2  2  0
  2  3  1  0
  3  4  2  3
  4  5  1  0
  5  6  1  0
  6  7  1  0
  7  8  2  0
  8  9  1  0
  9 10  2  0
 10 11  1  0
 11 12  2  0
  6 13  2  0
 13 14  1  0
  2 15  1  0
 15 16  2  0
 16 17  1  0
 17 18  2  0
 18 19  1  0
 19 20  2  0
 19 21  2  0
 19 22  1  0
 22 23  1  0
 23 24  1  0
 24 25  1  0
 25 26  1  0
 26 27  1  0
 18 28  1  0
 28 29  2  0
 14  4  1  0
 29 15  1  0
 12  7  1  0
 27 22  1  0
  5 30  1  0
  8 31  1  0
  9 32  1  0
 10 33  1  0
 11 34  1  0
 13 35  1  0
 16 36  1  0
 17 37  1  0
 23 38  1  0
 23 39  1  0
 24 40  1  0
 24 41  1  0
 26 42  1  0
 26 43  1  0
 27 44  1  0
 27 45  1  0
 28 46  1  0
 29 47  1  0
M  END
>  <UniqueID>  (24) 
24

>  <SMILES>  (24) 
O=C(N=c1[nH]c(-c2ccccn2)cs1)c1ccc(S(=O)(=O)N2CCOCC2)cc1

>  <Energy>  (24) 
101.64765633414686

>  <Genealogy>  (24) 
O=C(N=c1[nH]c(-c2ccccn2)cs1)c1ccc(S(=O)(=O)N2CCOCC2)cc1 (3D coordinates assigned)
O=C(N=c1[nH]c(-c2ccccn2)cs1)c1ccc(S(=O)(=O)N2CCOCC2)cc1 (nonaromatic ring conformer: 101.64765633414686 kcal/mol)

>  <smiles>  (24) 
O=C(N=c1[nH]c(-c2ccccn2)cs1)c1ccc(S(=O)(=O)N2CCOCC2)cc1

>  <score_type>  (24) 
oracle

>  <origin>  (24) 
adgpu

>  <m_score__min__energy>  (24) 
-10.33

>  <m_primary>  (24) 
energy

$$$$
24:0
     RDKit          3D

 64 68  0  0  0  0  0  0  0  0999 V2000
   -6.4120   15.0370  -34.0040 C   0  0  0  0  0  0  0  0  0  0  0  0
   -6.4770   16.2830  -34.6840 O   0  0  0  0  0  0  0  0  0  0  0  0
   -6.1040   17.5170  -34.1260 C   0  0  0  0  0  0  0  0  0  0  0  0
   -6.9330   18.2130  -33.2310 C   0  0  0  0  0  0  0  0  0  0  0  0
   -6.5390   19.4560  -32.6920 C   0  0  0  0  0  0  0  0  0  0  0  0
   -7.3350   20.1530  -31.7620 C   0  0  0  0  0  0  0  0  0  0  0  0
   -8.7810   19.5920  -31.2240 S   0  0  0  0  0  0  0  0  0  0  0  0
   -6.8970   21.3290  -31.2650 N   0  0  0  0  0  0  0  0  0  0  0  0
   -5.7240   21.8890  -31.6440 C   0  0  0  0  0  0  0  0  0  0  0  0
   -5.3550   23.1440  -31.0510 N   0  0  0  0  0  0  0  0  0  0  0  0
   -4.1710   23.2400  -30.1910 C   0  0  0  0  0  0  0  0  0  0  0  0
   -4.4870   24.0020  -28.8860 C   0  0  0  0  0  0  0  0  0  0  0  0
   -5.5990   24.9720  -29.0050 N   0  0  0  0  0  0  0  0  0  0  0  0
   -5.7830   25.4720  -30.3740 C   0  0  0  0  0  0  0  0  0  0  0  0
   -6.1910   24.3220  -31.2960 C   0  0  0  0  0  0  0  0  0  0  0  0
   -4.9340   21.2770  -32.5910 N   0  0  0  0  0  0  0  0  0  0  0  0
   -3.7390   21.9930  -33.1010 C   0  0  0  0  0  0  0  0  0  0  0  0
   -2.4320   21.3510  -32.6830 C   0  0  0  0  0  0  0  0  0  0  0  0
   -1.5640   20.7300  -33.6020 C   0  0  0  0  0  0  0  0  0  0  0  0
   -0.3760   20.1430  -33.1610 C   0  0  0  0  0  0  0  0  0  0  0  0
   -0.0310   20.1770  -31.8100 C   0  0  0  0  0  0  0  0  0  0  0  0
   -0.8700   20.8220  -30.8840 C   0  0  0  0  0  0  0  0  0  0  0  0
   -0.5760   20.8600  -29.5130 O   0  0  0  0  0  0  0  0  0  0  0  0
   -1.2000   20.0860  -28.5240 C   0  0  0  0  0  0  0  0  0  0  0  0
   -2.4610   20.4800  -28.0550 C   0  0  0  0  0  0  0  0  0  0  0  0
   -3.1100   19.7370  -27.0650 C   0  0  0  0  0  0  0  0  0  0  0  0
   -2.4940   18.6010  -26.5270 C   0  0  0  0  0  0  0  0  0  0  0  0
   -1.2280   18.2150  -26.9710 C   0  0  0  0  0  0  0  0  0  0  0  0
   -0.5770   18.9560  -27.9620 C   0  0  0  0  0  0  0  0  0  0  0  0
   -2.0660   21.3990  -31.3280 C   0  0  0  0  0  0  0  0  0  0  0  0
   -5.3020   20.0340  -33.0830 C   0  0  0  0  0  0  0  0  0  0  0  0
   -4.4660   19.2970  -33.9570 C   0  0  0  0  0  0  0  0  0  0  0  0
   -4.8620   18.0520  -34.4760 C   0  0  0  0  0  0  0  0  0  0  0  0
   -4.0450   17.3100  -35.3450 O   0  0  0  0  0  0  0  0  0  0  0  0
   -3.1540   16.2770  -34.9350 C   0  0  0  0  0  0  0  0  0  0  0  0
   -6.4211   15.2111  -32.9179 H   0  0  0  0  0  0  0  0  0  0  0  0
   -7.2792   14.4209  -34.2838 H   0  0  0  0  0  0  0  0  0  0  0  0
   -5.4854   14.5145  -34.2838 H   0  0  0  0  0  0  0  0  0  0  0  0
   -7.9043   17.7825  -32.9459 H   0  0  0  0  0  0  0  0  0  0  0  0
   -3.8273   22.2258  -29.9397 H   0  0  0  0  0  0  0  0  0  0  0  0
   -3.3900   23.7914  -30.7351 H   0  0  0  0  0  0  0  0  0  0  0  0
   -4.7519   23.2664  -28.1123 H   0  0  0  0  0  0  0  0  0  0  0  0
   -3.5872   24.5815  -28.6320 H   0  0  0  0  0  0  0  0  0  0  0  0
   -6.4870   24.5230  -28.6860 H   0  0  0  0  0  0  0  0  0  0  0  0
   -5.4120   25.7830  -28.3730 H   0  0  0  0  0  0  0  0  0  0  0  0
   -6.5698   26.2407  -30.3792 H   0  0  0  0  0  0  0  0  0  0  0  0
   -4.8377   25.9061  -30.7319 H   0  0  0  0  0  0  0  0  0  0  0  0
   -7.2436   24.0638  -31.1080 H   0  0  0  0  0  0  0  0  0  0  0  0
   -6.0583   24.6404  -32.3405 H   0  0  0  0  0  0  0  0  0  0  0  0
   -3.7843   22.0092  -34.2000 H   0  0  0  0  0  0  0  0  0  0  0  0
   -3.7572   23.0051  -32.6704 H   0  0  0  0  0  0  0  0  0  0  0  0
   -1.8227   20.7073  -34.6709 H   0  0  0  0  0  0  0  0  0  0  0  0
    0.2917   19.6509  -33.8835 H   0  0  0  0  0  0  0  0  0  0  0  0
    0.8987   19.6986  -31.4684 H   0  0  0  0  0  0  0  0  0  0  0  0
   -2.9422   21.3787  -28.4684 H   0  0  0  0  0  0  0  0  0  0  0  0
   -4.1042   20.0447  -26.7088 H   0  0  0  0  0  0  0  0  0  0  0  0
   -3.0081   18.0117  -25.7534 H   0  0  0  0  0  0  0  0  0  0  0  0
   -0.7421   17.3269  -26.5407 H   0  0  0  0  0  0  0  0  0  0  0  0
    0.4245   18.6551  -28.3032 H   0  0  0  0  0  0  0  0  0  0  0  0
   -2.7286   21.8972  -30.6049 H   0  0  0  0  0  0  0  0  0  0  0  0
   -3.4846   19.7081  -34.2360 H   0  0  0  0  0  0  0  0  0  0  0  0
   -3.1196   16.2371  -33.8363 H   0  0  0  0  0  0  0  0  0  0  0  0
   -3.5073   15.3115  -35.3261 H   0  0  0  0  0  0  0  0  0  0  0  0
   -2.1471   16.4847  -35.3261 H   0  0  0  0  0  0  0  0  0  0  0  0
  1  2  1  0
  2  3  1  0
  3  4  2  0
  4  5  1  0
  5  6  1  0
  6  7  2  0
  6  8  1  0
  8  9  2  0
  9 10  1  0
 10 11  1  0
 11 12  1  0
 12 13  1  0
 13 14  1  0
 14 15  1  0
  9 16  1  0
 16 17  1  0
 17 18  1  0
 18 19  2  0
 19 20  1  0
 20 21  2  0
 21 22  1  0
 22 23  1  0
 23 24  1  0
 24 25  2  0
 25 26  1  0
 26 27  2  0
 27 28  1  0
 28 29  2  0
 22 30  2  0
 16 31  1  0
 31 32  1  0
 32 33  2  0
 33 34  1  0
 34 35  1  0
 33  3  1  0
 31  5  2  0
 15 10  1  0
 30 18  1  0
 29 24  1  0
  1 36  1  0
  1 37  1  0
  1 38  1  0
  4 39  1  0
 11 40  1  0
 11 41  1  0
 12 42  1  0
 12 43  1  0
 13 44  1  0
 13 45  1  0
 14 46  1  0
 14 47  1  0
 15 48  1  0
 15 49  1  0
 17 50  1  0
 17 51  1  0
 19 52  1  0
 20 53  1  0
 21 54  1  0
 25 55  1  0
 26 56  1  0
 27 57  1  0
 28 58  1  0
 29 59  1  0
 30 60  1  0
 32 61  1  0
 35 62  1  0
 35 63  1  0
 35 64  1  0
M  CHG  1  13   1
M  END
>  <UniqueID>  (25) 
25

>  <SMILES>  (25) 
COc1cc2c(=S)nc(N3CC[NH2+]CC3)n(Cc3cccc(Oc4ccccc4)c3)c2cc1OC

>  <Energy>  (25) 
98.02769990016724

>  <Genealogy>  (25) 
COc1cc2c(=S)nc(N3CC[NH2+]CC3)n(Cc3cccc(Oc4ccccc4)c3)c2cc1OC (protonated)
COc1cc2c(=S)nc(N3CC[NH2+]CC3)n(Cc3cccc(Oc4ccccc4)c3)c2cc1OC (3D coordinates assigned)
COc1cc2c(=S)nc(N3CC[NH2+]CC3)n(Cc3cccc(Oc4ccccc4)c3)c2cc1OC (nonaromatic ring conformer: 98.02769990016724 kcal/mol)

>  <smiles>  (25) 
COc1cc2c(=S)nc(N3CCNCC3)n(Cc3cccc(Oc4ccccc4)c3)c2cc1OC

>  <score_type>  (25) 
oracle

>  <origin>  (25) 
adgpu

>  <m_score__min__energy>  (25) 
-9.3100000000000005

>  <m_primary>  (25) 
energy

$$$$
25:0
     RDKit          3D

 44 46  0  0  0  0  0  0  0  0999 V2000
   -3.4760   15.0840  -35.4100 C   0  0  0  0  0  0  0  0  0  0  0  0
   -3.3520   14.9960  -33.9590 N   0  0  0  0  0  0  0  0  0  0  0  0
   -4.8030   15.5910  -33.2100 S   0  0  0  0  0  0  0  0  0  0  0  0
   -4.9700   14.9590  -31.8560 O   0  0  0  0  0  0  0  0  0  0  0  0
   -5.9850   15.2150  -34.0580 O   0  0  0  0  0  0  0  0  0  0  0  0
   -4.7380   17.3450  -33.0600 C   0  0  0  0  0  0  0  0  0  0  0  0
   -5.4020   17.9970  -32.0110 C   0  0  0  0  0  0  0  0  0  0  0  0
   -5.3330   19.3890  -31.8930 C   0  0  0  0  0  0  0  0  0  0  0  0
   -4.6020   20.1370  -32.8230 C   0  0  0  0  0  0  0  0  0  0  0  0
   -4.5200   21.9220  -32.6740 S   0  0  0  0  0  0  0  0  0  0  0  0
   -6.2070   22.0460  -32.0640 C   0  0  0  0  0  0  0  0  0  0  0  0
   -7.2300   21.3790  -32.7510 C   0  0  0  0  0  0  0  0  0  0  0  0
   -8.5510   21.4690  -32.3060 C   0  0  0  0  0  0  0  0  0  0  0  0
   -8.8580   22.2270  -31.1750 C   0  0  0  0  0  0  0  0  0  0  0  0
   -7.8420   22.8880  -30.4780 C   0  0  0  0  0  0  0  0  0  0  0  0
   -6.5040   22.7840  -30.9020 C   0  0  0  0  0  0  0  0  0  0  0  0
   -5.4480   23.4690  -30.2130 N   0  0  0  0  0  0  0  0  0  0  0  0
   -4.8610   24.7170  -30.5950 C   0  0  0  0  0  0  0  0  0  0  0  0
   -5.5680   25.5580  -31.2110 O   0  0  0  0  0  0  0  0  0  0  0  0
   -3.4640   24.9570  -30.3820 N   0  0  0  0  0  0  0  0  0  0  0  0
   -2.6170   24.3000  -29.4270 C   0  0  0  0  0  0  0  0  0  0  0  0
   -2.8430   22.9700  -29.0240 C   0  0  0  0  0  0  0  0  0  0  0  0
   -1.9810   22.3560  -28.1110 C   0  0  0  0  0  0  0  0  0  0  0  0
   -0.8820   23.0530  -27.6040 C   0  0  0  0  0  0  0  0  0  0  0  0
   -0.6370   24.3650  -28.0170 C   0  0  0  0  0  0  0  0  0  0  0  0
   -1.4960   24.9860  -28.9300 C   0  0  0  0  0  0  0  0  0  0  0  0
   -1.2360   26.2890  -29.3390 O   0  0  0  0  0  0  0  0  0  0  0  0
   -3.9270   19.4870  -33.8630 C   0  0  0  0  0  0  0  0  0  0  0  0
   -3.9960   18.0960  -33.9820 C   0  0  0  0  0  0  0  0  0  0  0  0
   -4.3483   15.7031  -35.6666 H   0  0  0  0  0  0  0  0  0  0  0  0
   -2.5668   15.5401  -35.8287 H   0  0  0  0  0  0  0  0  0  0  0  0
   -3.6064   14.0752  -35.8287 H   0  0  0  0  0  0  0  0  0  0  0  0
   -5.9786   17.4123  -31.2791 H   0  0  0  0  0  0  0  0  0  0  0  0
   -5.8541   19.8966  -31.0679 H   0  0  0  0  0  0  0  0  0  0  0  0
   -6.9920   20.7824  -33.6440 H   0  0  0  0  0  0  0  0  0  0  0  0
   -9.3503   20.9419  -32.8476 H   0  0  0  0  0  0  0  0  0  0  0  0
   -9.9002   22.3044  -30.8317 H   0  0  0  0  0  0  0  0  0  0  0  0
   -8.0898   23.4928  -29.5932 H   0  0  0  0  0  0  0  0  0  0  0  0
   -3.7005   22.4125  -29.4289 H   0  0  0  0  0  0  0  0  0  0  0  0
   -2.1688   21.3205  -27.7908 H   0  0  0  0  0  0  0  0  0  0  0  0
   -0.2098   22.5693  -26.8800 H   0  0  0  0  0  0  0  0  0  0  0  0
    0.2332   24.9108  -27.6235 H   0  0  0  0  0  0  0  0  0  0  0  0
   -3.3414   20.0718  -34.5876 H   0  0  0  0  0  0  0  0  0  0  0  0
   -3.4662   17.5890  -34.8019 H   0  0  0  0  0  0  0  0  0  0  0  0
  1  2  1  0
  2  3  1  0
  3  4  2  0
  3  5  2  0
  3  6  1  0
  6  7  2  0
  7  8  1  0
  8  9  2  0
  9 10  1  0
 10 11  1  0
 11 12  2  0
 12 13  1  0
 13 14  2  0
 14 15  1  0
 15 16  2  0
 16 17  1  0
 17 18  1  0
 18 19  2  0
 18 20  1  0
 20 21  1  0
 21 22  2  0
 22 23  1  0
 23 24  2  0
 24 25  1  0
 25 26  2  0
 26 27  1  0
  9 28  1  0
 28 29  2  0
 29  6  1  0
 16 11  1  0
 26 21  1  0
  1 30  1  0
  1 31  1  0
  1 32  1  0
  7 33  1  0
  8 34  1  0
 12 35  1  0
 13 36  1  0
 14 37  1  0
 15 38  1  0
 22 39  1  0
 23 40  1  0
 24 41  1  0
 25 42  1  0
 28 43  1  0
 29 44  1  0
M  CHG  4   2  -1  17  -1  20  -1  27  -1
M  END
>  <UniqueID>  (26) 
26

>  <SMILES>  (26) 
C[N-]S(=O)(=O)c1ccc(Sc2ccccc2[N-]C(=O)[N-]c2ccccc2[O-])cc1

>  <Energy>  (26) 
47.45119026599105

>  <Genealogy>  (26) 
C[N-]S(=O)(=O)c1ccc(Sc2ccccc2[N-]C(=O)[N-]c2ccccc2[O-])cc1 (protonated)
C[N-]S(=O)(=O)c1ccc(Sc2ccccc2[N-]C(=O)[N-]c2ccccc2[O-])cc1 (3D coordinates assigned)
C[N-]S(=O)(=O)c1ccc(Sc2ccccc2[N-]C(=O)[N-]c2ccccc2[O-])cc1 (optimized conformer: 47.45119026599105 kcal/mol)

>  <smiles>  (26) 
CNS(=O)(=O)c1ccc(Sc2ccccc2NC(=O)Nc2ccccc2O)cc1

>  <score_type>  (26) 
oracle

>  <origin>  (26) 
adgpu

>  <m_score__min__energy>  (26) 
-14.289999999999999

>  <m_primary>  (26) 
energy

$$$$
26:0
     RDKit          3D

 53 55  0  0  0  0  0  0  0  0999 V2000
   -4.3860   25.2600  -30.9630 N   0  0  0  0  0  0  0  0  0  0  0  0
   -5.3430   24.5630  -29.7030 S   0  0  0  0  0  0  0  0  0  0  0  0
   -5.9430   25.6700  -28.8790 O   0  0  0  0  0  0  0  0  0  0  0  0
   -4.4730   23.7080  -28.8220 O   0  0  0  0  0  0  0  0  0  0  0  0
   -6.6130   23.5690  -30.4110 C   0  0  0  0  0  0  0  0  0  0  0  0
   -6.8480   23.6230  -31.7910 C   0  0  0  0  0  0  0  0  0  0  0  0
   -7.8430   22.8290  -32.3680 C   0  0  0  0  0  0  0  0  0  0  0  0
   -8.6060   21.9620  -31.5720 C   0  0  0  0  0  0  0  0  0  0  0  0
   -9.6820   21.1110  -32.1890 C   0  0  0  0  0  0  0  0  0  0  0  0
   -9.0800   19.9590  -32.8630 N   0  0  0  0  0  0  0  0  0  0  0  0
   -8.6430   18.7850  -32.1660 C   0  0  0  0  0  0  0  0  0  0  0  0
   -8.8520   18.6640  -30.9300 O   0  0  0  0  0  0  0  0  0  0  0  0
   -7.9230   17.7770  -32.8860 N   0  0  0  0  0  0  0  0  0  0  0  0
   -6.5170   17.7700  -33.1730 C   0  0  0  0  0  0  0  0  0  0  0  0
   -5.6000   17.0240  -32.4100 C   0  0  0  0  0  0  0  0  0  0  0  0
   -4.2390   17.0390  -32.7290 C   0  0  0  0  0  0  0  0  0  0  0  0
   -3.7700   17.7880  -33.8230 C   0  0  0  0  0  0  0  0  0  0  0  0
   -2.3270   17.8180  -34.1530 C   0  0  0  0  0  0  0  0  0  0  0  0
   -1.8750   17.0990  -35.0850 O   0  0  0  0  0  0  0  0  0  0  0  0
   -1.4380   18.6640  -33.4180 N   0  0  0  0  0  0  0  0  0  0  0  0
   -0.5840   19.6620  -34.0500 C   0  0  0  0  0  0  0  0  0  0  0  0
   -0.9210   21.0570  -33.5200 C   0  0  0  0  0  0  0  0  0  0  0  0
   -2.2350   21.0560  -32.7820 C   0  0  0  0  0  0  0  0  0  0  0  0
   -3.4340   21.3440  -33.4580 C   0  0  0  0  0  0  0  0  0  0  0  0
   -4.6550   21.2900  -32.7780 C   0  0  0  0  0  0  0  0  0  0  0  0
   -4.6890   20.9470  -31.4230 C   0  0  0  0  0  0  0  0  0  0  0  0
   -3.5040   20.6540  -30.7460 C   0  0  0  0  0  0  0  0  0  0  0  0
   -2.2800   20.7020  -31.4220 C   0  0  0  0  0  0  0  0  0  0  0  0
   -4.6960   18.5080  -34.6010 C   0  0  0  0  0  0  0  0  0  0  0  0
   -6.0560   18.4910  -34.2810 C   0  0  0  0  0  0  0  0  0  0  0  0
   -8.3830   21.9240  -30.1860 C   0  0  0  0  0  0  0  0  0  0  0  0
   -7.3860   22.7170  -29.6100 C   0  0  0  0  0  0  0  0  0  0  0  0
   -3.8820   26.0770  -30.5480 H   0  0  0  0  0  0  0  0  0  0  0  0
   -6.2469   24.2931  -32.4231 H   0  0  0  0  0  0  0  0  0  0  0  0
   -8.0285   22.8842  -33.4508 H   0  0  0  0  0  0  0  0  0  0  0  0
  -10.3641   20.7577  -31.4017 H   0  0  0  0  0  0  0  0  0  0  0  0
  -10.2408   21.7094  -32.9236 H   0  0  0  0  0  0  0  0  0  0  0  0
   -8.8730   20.0350  -33.8840 H   0  0  0  0  0  0  0  0  0  0  0  0
   -5.9558   16.4259  -31.5581 H   0  0  0  0  0  0  0  0  0  0  0  0
   -3.5293   16.4604  -32.1195 H   0  0  0  0  0  0  0  0  0  0  0  0
    0.4686   19.4331  -33.8273 H   0  0  0  0  0  0  0  0  0  0  0  0
   -0.7508   19.6409  -35.1371 H   0  0  0  0  0  0  0  0  0  0  0  0
   -0.1246   21.3826  -32.8346 H   0  0  0  0  0  0  0  0  0  0  0  0
   -1.0017   21.7446  -34.3748 H   0  0  0  0  0  0  0  0  0  0  0  0
   -3.4115   21.6125  -34.5245 H   0  0  0  0  0  0  0  0  0  0  0  0
   -5.5903   21.5178  -33.3102 H   0  0  0  0  0  0  0  0  0  0  0  0
   -5.6504   20.9080  -30.8900 H   0  0  0  0  0  0  0  0  0  0  0  0
   -3.5325   20.3850  -29.6798 H   0  0  0  0  0  0  0  0  0  0  0  0
   -1.3491   20.4618  -30.8874 H   0  0  0  0  0  0  0  0  0  0  0  0
   -4.3464   19.0885  -35.4675 H   0  0  0  0  0  0  0  0  0  0  0  0
   -6.7702   19.0486  -34.9047 H   0  0  0  0  0  0  0  0  0  0  0  0
   -8.9955   21.2673  -29.5507 H   0  0  0  0  0  0  0  0  0  0  0  0
   -7.2077   22.6722  -28.5255 H   0  0  0  0  0  0  0  0  0  0  0  0
  1  2  1  0
  2  3  2  0
  2  4  2  0
  2  5  1  0
  5  6  2  0
  6  7  1  0
  7  8  2  0
  8  9  1  0
  9 10  1  0
 10 11  1  0
 11 12  2  0
 11 13  1  0
 13 14  1  0
 14 15  2  0
 15 16  1  0
 16 17  2  0
 17 18  1  0
 18 19  2  0
 18 20  1  0
 20 21  1  0
 21 22  1  0
 22 23  1  0
 23 24  2  0
 24 25  1  0
 25 26  2  0
 26 27  1  0
 27 28  2  0
 17 29  1  0
 29 30  2  0
  8 31  1  0
 31 32  2  0
 32  5  1  0
 30 14  1  0
 28 23  1  0
  1 33  1  0
  6 34  1  0
  7 35  1  0
  9 36  1  0
  9 37  1  0
 10 38  1  0
 15 39  1  0
 16 40  1  0
 21 41  1  0
 21 42  1  0
 22 43  1  0
 22 44  1  0
 24 45  1  0
 25 46  1  0
 26 47  1  0
 27 48  1  0
 28 49  1  0
 29 50  1  0
 30 51  1  0
 31 52  1  0
 32 53  1  0
M  CHG  3   1  -1  13  -1  20  -1
M  END
>  <UniqueID>  (27) 
27

>  <SMILES>  (27) 
[NH-]S(=O)(=O)c1ccc(CNC(=O)[N-]c2ccc(C(=O)[N-]CCc3ccccc3)cc2)cc1

>  <Energy>  (27) 
52.575288396544

>  <Genealogy>  (27) 
[NH-]S(=O)(=O)c1ccc(CNC(=O)[N-]c2ccc(C(=O)[N-]CCc3ccccc3)cc2)cc1 (protonated)
[NH-]S(=O)(=O)c1ccc(CNC(=O)[N-]c2ccc(C(=O)[N-]CCc3ccccc3)cc2)cc1 (3D coordinates assigned)
[NH-]S(=O)(=O)c1ccc(CNC(=O)[N-]c2ccc(C(=O)[N-]CCc3ccccc3)cc2)cc1 (optimized conformer: 52.575288396544 kcal/mol)

>  <smiles>  (27) 
NS(=O)(=O)c1ccc(CNC(=O)Nc2ccc(C(=O)NCCc3ccccc3)cc2)cc1

>  <score_type>  (27) 
oracle

>  <origin>  (27) 
adgpu

>  <m_score__min__energy>  (27) 
-12.460000000000001

>  <m_primary>  (27) 
energy

$$$$
27:0
     RDKit          3D

 55 58  0  0  0  0  0  0  0  0999 V2000
   -3.1050   17.1640  -33.9560 N   0  0  0  0  0  0  0  0  0  0  0  0
   -4.0610   17.9000  -33.1840 C   0  0  0  0  0  0  0  0  0  0  0  0
   -3.7670   19.2160  -32.7960 C   0  0  0  0  0  0  0  0  0  0  0  0
   -4.6720   19.9570  -32.0140 C   0  0  0  0  0  0  0  0  0  0  0  0
   -4.3540   21.3490  -31.6080 C   0  0  0  0  0  0  0  0  0  0  0  0
   -5.2780   22.3850  -31.8250 C   0  0  0  0  0  0  0  0  0  0  0  0
   -4.9790   23.6930  -31.4360 C   0  0  0  0  0  0  0  0  0  0  0  0
   -3.7560   23.9880  -30.8270 C   0  0  0  0  0  0  0  0  0  0  0  0
   -3.4880   25.2990  -30.4490 O   0  0  0  0  0  0  0  0  0  0  0  0
   -2.8160   22.9640  -30.6040 C   0  0  0  0  0  0  0  0  0  0  0  0
   -1.4920   23.2390  -29.9370 C   0  0  0  0  0  0  0  0  0  0  0  0
   -1.6540   24.2410  -28.8850 N   0  0  0  0  0  0  0  0  0  0  0  0
   -0.5340   24.8000  -28.1780 C   0  0  0  0  0  0  0  0  0  0  0  0
    0.6380   24.4600  -28.5030 O   0  0  0  0  0  0  0  0  0  0  0  0
   -0.7250   25.7860  -27.0870 C   0  0  0  0  0  0  0  0  0  0  0  0
   -0.2290   27.0950  -27.2290 C   0  0  0  0  0  0  0  0  0  0  0  0
   -0.4020   28.0330  -26.2070 C   0  0  0  0  0  0  0  0  0  0  0  0
   -1.0650   27.6750  -25.0310 C   0  0  0  0  0  0  0  0  0  0  0  0
   -1.5510   26.3760  -24.8730 C   0  0  0  0  0  0  0  0  0  0  0  0
   -1.3810   25.4330  -25.8910 C   0  0  0  0  0  0  0  0  0  0  0  0
   -3.1240   21.6500  -30.9970 C   0  0  0  0  0  0  0  0  0  0  0  0
   -5.8820   19.3580  -31.6230 C   0  0  0  0  0  0  0  0  0  0  0  0
   -6.1830   18.0510  -32.0100 C   0  0  0  0  0  0  0  0  0  0  0  0
   -5.2830   17.3170  -32.7920 C   0  0  0  0  0  0  0  0  0  0  0  0
   -5.6330   15.9860  -33.1910 N   0  0  0  0  0  0  0  0  0  0  0  0
   -6.7210   15.7880  -34.1510 C   0  0  0  0  0  0  0  0  0  0  0  0
   -6.7850   14.3220  -34.5910 C   0  0  0  0  0  0  0  0  0  0  0  0
   -5.4320   13.8120  -34.8470 N   0  0  0  0  0  0  0  0  0  0  0  0
   -4.6020   13.7710  -33.6270 C   0  0  0  0  0  0  0  0  0  0  0  0
   -4.9740   14.8340  -32.5700 C   0  0  0  0  0  0  0  0  0  0  0  0
   -2.1220   17.4940  -34.0730 H   0  0  0  0  0  0  0  0  0  0  0  0
   -3.3810   16.2840  -34.4460 H   0  0  0  0  0  0  0  0  0  0  0  0
   -2.8167   19.6743  -33.1072 H   0  0  0  0  0  0  0  0  0  0  0  0
   -6.2432   22.1647  -32.3044 H   0  0  0  0  0  0  0  0  0  0  0  0
   -5.7106   24.4958  -31.6101 H   0  0  0  0  0  0  0  0  0  0  0  0
   -1.1075   22.3078  -29.4955 H   0  0  0  0  0  0  0  0  0  0  0  0
   -0.7842   23.6193  -30.6883 H   0  0  0  0  0  0  0  0  0  0  0  0
   -2.6170   24.6050  -28.7100 H   0  0  0  0  0  0  0  0  0  0  0  0
    0.2985   27.3823  -28.1505 H   0  0  0  0  0  0  0  0  0  0  0  0
   -0.0151   29.0554  -26.3293 H   0  0  0  0  0  0  0  0  0  0  0  0
   -1.2041   28.4160  -24.2300 H   0  0  0  0  0  0  0  0  0  0  0  0
   -2.0693   26.0935  -23.9448 H   0  0  0  0  0  0  0  0  0  0  0  0
   -1.7615   24.4096  -25.7575 H   0  0  0  0  0  0  0  0  0  0  0  0
   -2.3929   20.8465  -30.8242 H   0  0  0  0  0  0  0  0  0  0  0  0
   -6.5971   19.9234  -31.0074 H   0  0  0  0  0  0  0  0  0  0  0  0
   -7.1340   17.5945  -31.6984 H   0  0  0  0  0  0  0  0  0  0  0  0
   -7.6751   16.0670  -33.6801 H   0  0  0  0  0  0  0  0  0  0  0  0
   -6.5368   16.4177  -35.0339 H   0  0  0  0  0  0  0  0  0  0  0  0
   -7.2549   13.7239  -33.7963 H   0  0  0  0  0  0  0  0  0  0  0  0
   -7.3778   14.2491  -35.5147 H   0  0  0  0  0  0  0  0  0  0  0  0
   -4.9690   14.4350  -35.5510 H   0  0  0  0  0  0  0  0  0  0  0  0
   -4.7112   12.7768  -33.1692 H   0  0  0  0  0  0  0  0  0  0  0  0
   -3.5698   13.9859  -33.9405 H   0  0  0  0  0  0  0  0  0  0  0  0
   -5.6553   14.3846  -31.8326 H   0  0  0  0  0  0  0  0  0  0  0  0
   -4.0509   15.1802  -32.0821 H   0  0  0  0  0  0  0  0  0  0  0  0
  1  2  1  0
  2  3  2  0
  3  4  1  0
  4  5  1  0
  5  6  2  0
  6  7  1  0
  7  8  2  0
  8  9  1  0
  8 10  1  0
 10 11  1  0
 11 12  1  0
 12 13  1  0
 13 14  2  0
 13 15  1  0
 15 16  2  0
 16 17  1  0
 17 18  2  0
 18 19  1  0
 19 20  2  0
 10 21  2  0
  4 22  2  0
 22 23  1  0
 23 24  2  0
 24 25  1  0
 25 26  1  0
 26 27  1  0
 27 28  1  0
 28 29  1  0
 29 30  1  0
 24  2  1  0
 30 25  1  0
 21  5  1  0
 20 15  1  0
  1 31  1  0
  1 32  1  0
  3 33  1  0
  6 34  1  0
  7 35  1  0
 11 36  1  0
 11 37  1  0
 12 38  1  0
 16 39  1  0
 17 40  1  0
 18 41  1  0
 19 42  1  0
 20 43  1  0
 21 44  1  0
 22 45  1  0
 23 46  1  0
 26 47  1  0
 26 48  1  0
 27 49  1  0
 27 50  1  0
 28 51  1  0
 29 52  1  0
 29 53  1  0
 30 54  1  0
 30 55  1  0
M  CHG  1   9  -1
M  END
>  <UniqueID>  (28) 
28

>  <SMILES>  (28) 
Nc1cc(-c2ccc([O-])c(CNC(=O)c3ccccc3)c2)ccc1N1CCNCC1

>  <Energy>  (28) 
74.31251703160314

>  <Genealogy>  (28) 
Nc1cc(-c2ccc([O-])c(CNC(=O)c3ccccc3)c2)ccc1N1CCNCC1 (protonated)
Nc1cc(-c2ccc([O-])c(CNC(=O)c3ccccc3)c2)ccc1N1CCNCC1 (3D coordinates assigned)
Nc1cc(-c2ccc([O-])c(CNC(=O)c3ccccc3)c2)ccc1N1CCNCC1 (nonaromatic ring conformer: 74.31251703160314 kcal/mol)

>  <smiles>  (28) 
Nc1cc(-c2ccc(O)c(CNC(=O)c3ccccc3)c2)ccc1N1CCNCC1

>  <score_type>  (28) 
oracle

>  <origin>  (28) 
adgpu

>  <m_score__min__energy>  (28) 
-11.26

>  <m_primary>  (28) 
energy

$$$$
28:0
     RDKit          3D

 66 70  0  0  0  0  0  0  0  0999 V2000
   -4.5548   24.2070  -30.8533 H   0  0  0  0  0  0  0  0  0  0  0  0
   -3.5620   24.0800  -30.3970 C   0  0  0  0  0  0  0  0  0  0  0  0
   -3.1700   24.9130  -29.4030 N   0  0  0  0  0  0  0  0  0  0  0  0
   -1.9610   24.7970  -28.8050 C   0  0  0  0  0  0  0  0  0  0  0  0
   -1.6110   25.6930  -27.7900 C   0  0  0  0  0  0  0  0  0  0  0  0
   -2.3188   26.4795  -27.4891 H   0  0  0  0  0  0  0  0  0  0  0  0
   -0.3690   25.5980  -27.1540 C   0  0  0  0  0  0  0  0  0  0  0  0
   -0.0410   26.5410  -26.1250 N   0  0  0  0  0  0  0  0  0  0  0  0
   -0.3820   26.2360  -24.7360 C   0  0  0  0  0  0  0  0  0  0  0  0
   -1.4762   26.1835  -24.6356 H   0  0  0  0  0  0  0  0  0  0  0  0
    0.0720   25.2720  -24.4630 H   0  0  0  0  0  0  0  0  0  0  0  0
    0.1590   27.3210  -23.7960 C   0  0  0  0  0  0  0  0  0  0  0  0
   -0.4720   28.2174  -23.8869 H   0  0  0  0  0  0  0  0  0  0  0  0
    0.1388   26.9247  -22.7701 H   0  0  0  0  0  0  0  0  0  0  0  0
    1.5550   27.6840  -24.1200 N   0  0  0  0  0  0  0  0  0  0  0  0
    2.5000   26.6320  -23.7090 C   0  0  0  0  0  0  0  0  0  0  0  0
    2.5419   26.5854  -22.6108 H   0  0  0  0  0  0  0  0  0  0  0  0
    2.1639   25.6622  -24.1046 H   0  0  0  0  0  0  0  0  0  0  0  0
    3.5002   26.8626  -24.1046 H   0  0  0  0  0  0  0  0  0  0  0  0
    1.7700   28.1000  -25.5340 C   0  0  0  0  0  0  0  0  0  0  0  0
    1.9752   29.1806  -25.5480 H   0  0  0  0  0  0  0  0  0  0  0  0
    2.6103   27.5010  -25.9149 H   0  0  0  0  0  0  0  0  0  0  0  0
    0.5740   27.8240  -26.4630 C   0  0  0  0  0  0  0  0  0  0  0  0
   -0.1699   28.6258  -26.3460 H   0  0  0  0  0  0  0  0  0  0  0  0
    0.9278   27.7898  -27.5040 H   0  0  0  0  0  0  0  0  0  0  0  0
    0.5440   24.5980  -27.5410 C   0  0  0  0  0  0  0  0  0  0  0  0
    1.8780   24.4640  -26.8580 C   0  0  0  0  0  0  0  0  0  0  0  0
    1.7347   24.4784  -25.7675 H   0  0  0  0  0  0  0  0  0  0  0  0
    2.3475   23.5142  -27.1536 H   0  0  0  0  0  0  0  0  0  0  0  0
    2.5270   25.3015  -27.1536 H   0  0  0  0  0  0  0  0  0  0  0  0
    0.1910   23.6950  -28.5580 C   0  0  0  0  0  0  0  0  0  0  0  0
    0.8993   22.9068  -28.8531 H   0  0  0  0  0  0  0  0  0  0  0  0
   -1.0610   23.7850  -29.2070 C   0  0  0  0  0  0  0  0  0  0  0  0
   -1.4380   22.8900  -30.2400 C   0  0  0  0  0  0  0  0  0  0  0  0
   -0.5830   21.9610  -30.5890 N   0  0  0  0  0  0  0  0  0  0  0  0
   -0.7350   20.8970  -31.5350 C   0  0  0  0  0  0  0  0  0  0  0  0
   -0.4790   21.1200  -32.8940 C   0  0  0  0  0  0  0  0  0  0  0  0
   -0.1008   22.0971  -33.2291 H   0  0  0  0  0  0  0  0  0  0  0  0
   -0.7040   20.1010  -33.8250 C   0  0  0  0  0  0  0  0  0  0  0  0
   -0.4988   20.2764  -34.8914 H   0  0  0  0  0  0  0  0  0  0  0  0
   -1.1900   18.8580  -33.4020 C   0  0  0  0  0  0  0  0  0  0  0  0
   -1.5030   17.5660  -34.6040 S   0  0  0  0  0  0  0  0  0  0  0  0
   -3.2790   17.6550  -34.3570 C   0  0  0  0  0  0  0  0  0  0  0  0
   -3.9320   18.8280  -34.2140 N   0  0  0  0  0  0  0  0  0  0  0  0
   -5.2210   18.4680  -34.0580 C   0  0  0  0  0  0  0  0  0  0  0  0
   -6.3380   19.4490  -33.9130 C   0  0  0  0  0  0  0  0  0  0  0  0
   -6.5366   19.6234  -32.8452 H   0  0  0  0  0  0  0  0  0  0  0  0
   -6.0574   20.3979  -34.3935 H   0  0  0  0  0  0  0  0  0  0  0  0
   -7.2427   19.0482  -34.3935 H   0  0  0  0  0  0  0  0  0  0  0  0
   -5.3310   17.0900  -34.1150 C   0  0  0  0  0  0  0  0  0  0  0  0
   -6.5960   16.2850  -34.0950 C   0  0  0  0  0  0  0  0  0  0  0  0
   -6.8936   16.0956  -33.0531 H   0  0  0  0  0  0  0  0  0  0  0  0
   -7.3933   16.8422  -34.6086 H   0  0  0  0  0  0  0  0  0  0  0  0
   -6.4290   15.3267  -34.6086 H   0  0  0  0  0  0  0  0  0  0  0  0
   -4.0970   16.5820  -34.3010 N   0  0  0  0  0  0  0  0  0  0  0  0
   -3.7480   15.1920  -34.5990 C   0  0  0  0  0  0  0  0  0  0  0  0
   -3.6092   14.6390  -33.6583 H   0  0  0  0  0  0  0  0  0  0  0  0
   -4.5574   14.7275  -35.1813 H   0  0  0  0  0  0  0  0  0  0  0  0
   -2.8152   15.1649  -35.1813 H   0  0  0  0  0  0  0  0  0  0  0  0
   -1.4370   18.6330  -32.0420 C   0  0  0  0  0  0  0  0  0  0  0  0
   -1.7976   17.6500  -31.7047 H   0  0  0  0  0  0  0  0  0  0  0  0
   -1.2260   19.6560  -31.1120 C   0  0  0  0  0  0  0  0  0  0  0  0
   -1.4459   19.4855  -30.0478 H   0  0  0  0  0  0  0  0  0  0  0  0
   -2.7170   23.0590  -30.8500 C   0  0  0  0  0  0  0  0  0  0  0  0
   -3.1960   22.2730  -31.9630 C   0  0  0  0  0  0  0  0  0  0  0  0
   -3.5890   21.6520  -32.8570 N   0  0  0  0  0  0  0  0  0  0  0  0
  1  2  1  0
  2  3  1  0
  3  4  1  0
  4  5  2  0
  5  6  1  0
  5  7  1  0
  7  8  1  0
  8  9  1  0
  9 10  1  0
  9 11  1  0
  9 12  1  0
 12 13  1  0
 12 14  1  0
 12 15  1  0
 15 16  1  0
 16 17  1  0
 16 18  1  0
 16 19  1  0
 15 20  1  0
 20 21  1  0
 20 22  1  0
 20 23  1  0
 23 24  1  0
 23 25  1  0
  7 26  2  0
 26 27  1  0
 27 28  1  0
 27 29  1  0
 27 30  1  0
 26 31  1  0
 31 32  1  0
 31 33  2  0
 33 34  1  0
 34 35  2  0
 35 36  1  0
 36 37  2  0
 37 38  1  0
 37 39  1  0
 39 40  1  0
 39 41  2  0
 41 42  1  0
 42 43  1  0
 43 44  2  0
 44 45  1  0
 45 46  1  0
 46 47  1  0
 46 48  1  0
 46 49  1  0
 45 50  2  0
 50 51  1  0
 51 52  1  0
 51 53  1  0
 51 54  1  0
 50 55  1  0
 55 56  1  0
 56 57  1  0
 56 58  1  0
 56 59  1  0
 41 60  1  0
 60 61  1  0
 60 62  2  0
 62 63  1  0
 34 64  1  0
 64 65  1  0
 65 66  3  0
 64  2  2  0
 33  4  1  0
 62 36  1  0
 23  8  1  0
 55 43  1  0
M  CHG  1   3  -1
M  END
>  <UniqueID>  (29) 
29

>  <SMILES>  (29) 
Cc1cc2/c(=N/c3ccc(Sc4nc(C)c(C)n4C)cc3)c(C#N)c[n-]c2cc1N1CCN(C)CC1

>  <Energy>  (29) 
127.3590721178049

>  <Genealogy>  (29) 
Cc1cc2c(=Nc3ccc(Sc4nc(C)c(C)n4C)cc3)c(C#N)c[n-]c2cc1N1CCN(C)CC1 (protonated)
Cc1cc2/c(=N/c3ccc(Sc4nc(C)c(C)n4C)cc3)c(C#N)c[n-]c2cc1N1CCN(C)CC1 (cis-trans isomerization)
Cc1cc2/c(=N/c3ccc(Sc4nc(C)c(C)n4C)cc3)c(C#N)c[n-]c2cc1N1CCN(C)CC1 (3D coordinates assigned)
Cc1cc2/c(=N/c3ccc(Sc4nc(C)c(C)n4C)cc3)c(C#N)c[n-]c2cc1N1CCN(C)CC1 (nonaromatic ring conformer: 127.3590721178049 kcal/mol)

>  <smiles>  (29) 
Cc1cc2c(=Nc3ccc(Sc4nc(C)c(C)n4C)cc3)c(C#N)c[nH]c2cc1N1CCN(C)CC1

>  <score_type>  (29) 
oracle

>  <origin>  (29) 
adgpu

>  <m_score__min__energy>  (29) 
-10.1

>  <m_primary>  (29) 
energy

$$$$
29:0
     RDKit          3D

 63 66  0  0  0  0  0  0  0  0999 V2000
   -1.7210   21.3570  -26.7870 C   0  0  0  0  0  0  0  0  0  0  0  0
   -2.2680   22.2740  -27.8490 C   0  0  0  0  0  0  0  0  0  0  0  0
   -3.3700   21.8260  -28.5970 C   0  0  0  0  0  0  0  0  0  0  0  0
   -3.9460   22.6340  -29.5750 C   0  0  0  0  0  0  0  0  0  0  0  0
   -3.4460   23.9190  -29.8140 C   0  0  0  0  0  0  0  0  0  0  0  0
   -3.9850   24.7540  -30.8470 N   0  0  0  0  0  0  0  0  0  0  0  0
   -5.2410   25.4440  -30.8330 C   0  0  0  0  0  0  0  0  0  0  0  0
   -5.3430   26.5860  -30.3140 O   0  0  0  0  0  0  0  0  0  0  0  0
   -6.3660   24.8750  -31.5080 N   0  0  0  0  0  0  0  0  0  0  0  0
   -6.5080   23.4660  -31.7120 C   0  0  0  0  0  0  0  0  0  0  0  0
   -7.6600   22.7910  -31.2760 C   0  0  0  0  0  0  0  0  0  0  0  0
   -7.7620   21.4070  -31.4260 C   0  0  0  0  0  0  0  0  0  0  0  0
   -6.7030   20.6790  -31.9810 C   0  0  0  0  0  0  0  0  0  0  0  0
   -6.7880   18.9200  -32.0590 S   0  0  0  0  0  0  0  0  0  0  0  0
   -8.1500   18.4800  -31.6010 O   0  0  0  0  0  0  0  0  0  0  0  0
   -5.7730   18.3320  -31.1150 O   0  0  0  0  0  0  0  0  0  0  0  0
   -6.5060   18.3120  -33.6770 N   0  0  0  0  0  0  0  0  0  0  0  0
   -6.8560   16.8870  -33.8460 C   0  0  0  0  0  0  0  0  0  0  0  0
   -5.7320   15.9040  -33.4490 C   0  0  0  0  0  0  0  0  0  0  0  0
   -4.3180   16.4700  -33.6390 C   0  0  0  0  0  0  0  0  0  0  0  0
   -4.3070   17.5740  -34.6870 C   0  0  0  0  0  0  0  0  0  0  0  0
   -5.2030   18.7400  -34.2450 C   0  0  0  0  0  0  0  0  0  0  0  0
   -5.5740   21.3590  -32.4650 C   0  0  0  0  0  0  0  0  0  0  0  0
   -5.4840   22.7490  -32.3430 C   0  0  0  0  0  0  0  0  0  0  0  0
   -2.3470   24.3820  -29.0800 C   0  0  0  0  0  0  0  0  0  0  0  0
   -1.8620   25.6610  -29.3430 O   0  0  0  0  0  0  0  0  0  0  0  0
   -1.7460   23.5780  -28.0860 C   0  0  0  0  0  0  0  0  0  0  0  0
   -0.3710   24.2500  -27.1620 S   0  0  0  0  0  0  0  0  0  0  0  0
    0.6030   24.9370  -28.0760 O   0  0  0  0  0  0  0  0  0  0  0  0
    0.3720   23.1190  -26.5070 O   0  0  0  0  0  0  0  0  0  0  0  0
   -0.8770   25.3850  -25.9310 N   0  0  0  0  0  0  0  0  0  0  0  0
   -0.6320   26.7750  -26.3420 C   0  0  0  0  0  0  0  0  0  0  0  0
   -1.1750   27.7380  -25.2660 C   0  0  0  0  0  0  0  0  0  0  0  0
   -1.5530   27.0630  -24.0780 O   0  0  0  0  0  0  0  0  0  0  0  0
   -0.4910   26.2410  -23.6350 C   0  0  0  0  0  0  0  0  0  0  0  0
   -0.2160   25.1070  -24.6440 C   0  0  0  0  0  0  0  0  0  0  0  0
   -1.9625   21.7618  -25.7931 H   0  0  0  0  0  0  0  0  0  0  0  0
   -2.1718   20.3596  -26.8961 H   0  0  0  0  0  0  0  0  0  0  0  0
   -0.6291   21.2798  -26.8961 H   0  0  0  0  0  0  0  0  0  0  0  0
   -3.7833   20.8243  -28.4079 H   0  0  0  0  0  0  0  0  0  0  0  0
   -4.7978   22.2601  -30.1621 H   0  0  0  0  0  0  0  0  0  0  0  0
   -8.4844   23.3548  -30.8149 H   0  0  0  0  0  0  0  0  0  0  0  0
   -8.6773   20.8868  -31.1071 H   0  0  0  0  0  0  0  0  0  0  0  0
   -7.7369   16.6726  -33.2231 H   0  0  0  0  0  0  0  0  0  0  0  0
   -7.0432   16.7341  -34.9191 H   0  0  0  0  0  0  0  0  0  0  0  0
   -5.8604   15.6403  -32.3888 H   0  0  0  0  0  0  0  0  0  0  0  0
   -5.8198   15.0318  -34.1135 H   0  0  0  0  0  0  0  0  0  0  0  0
   -3.9631   16.8795  -32.6817 H   0  0  0  0  0  0  0  0  0  0  0  0
   -3.6589   15.6578  -33.9795 H   0  0  0  0  0  0  0  0  0  0  0  0
   -3.2774   17.9379  -34.8194 H   0  0  0  0  0  0  0  0  0  0  0  0
   -4.6896   17.1695  -35.6357 H   0  0  0  0  0  0  0  0  0  0  0  0
   -4.6653   19.3203  -33.4807 H   0  0  0  0  0  0  0  0  0  0  0  0
   -5.4248   19.3327  -35.1447 H   0  0  0  0  0  0  0  0  0  0  0  0
   -4.7577   20.7965  -32.9417 H   0  0  0  0  0  0  0  0  0  0  0  0
   -4.6077   23.2799  -32.7432 H   0  0  0  0  0  0  0  0  0  0  0  0
    0.4494   26.9351  -26.4640 H   0  0  0  0  0  0  0  0  0  0  0  0
   -1.1437   26.9686  -27.2963 H   0  0  0  0  0  0  0  0  0  0  0  0
   -0.3930   28.4720  -25.0217 H   0  0  0  0  0  0  0  0  0  0  0  0
   -2.0722   28.2260  -25.6745 H   0  0  0  0  0  0  0  0  0  0  0  0
    0.4164   26.8529  -23.5246 H   0  0  0  0  0  0  0  0  0  0  0  0
   -0.7716   25.7932  -22.6703 H   0  0  0  0  0  0  0  0  0  0  0  0
    0.8688   25.0225  -24.8058 H   0  0  0  0  0  0  0  0  0  0  0  0
   -0.6150   24.1662  -24.2369 H   0  0  0  0  0  0  0  0  0  0  0  0
  1  2  1  0
  2  3  2  0
  3  4  1  0
  4  5  2  0
  5  6  1  0
  6  7  1  0
  7  8  2  0
  7  9  1  0
  9 10  1  0
 10 11  2  0
 11 12  1  0
 12 13  2  0
 13 14  1  0
 14 15  2  0
 14 16  2  0
 14 17  1  0
 17 18  1  0
 18 19  1  0
 19 20  1  0
 20 21  1  0
 21 22  1  0
 13 23  1  0
 23 24  2  0
  5 25  1  0
 25 26  1  0
 25 27  2  0
 27 28  1  0
 28 29  2  0
 28 30  2  0
 28 31  1  0
 31 32  1  0
 32 33  1  0
 33 34  1  0
 34 35  1  0
 35 36  1  0
 27  2  1  0
 36 31  1  0
 24 10  1  0
 22 17  1  0
  1 37  1  0
  1 38  1  0
  1 39  1  0
  3 40  1  0
  4 41  1  0
 11 42  1  0
 12 43  1  0
 18 44  1  0
 18 45  1  0
 19 46  1  0
 19 47  1  0
 20 48  1  0
 20 49  1  0
 21 50  1  0
 21 51  1  0
 22 52  1  0
 22 53  1  0
 23 54  1  0
 24 55  1  0
 32 56  1  0
 32 57  1  0
 33 58  1  0
 33 59  1  0
 35 60  1  0
 35 61  1  0
 36 62  1  0
 36 63  1  0
M  CHG  3   6  -1   9  -1  26  -1
M  END
>  <UniqueID>  (30) 
30

>  <SMILES>  (30) 
Cc1ccc([N-]C(=O)[N-]c2ccc(S(=O)(=O)N3CCCCC3)cc2)c([O-])c1S(=O)(=O)N1CCOCC1

>  <Energy>  (30) 
90.81505120592774

>  <Genealogy>  (30) 
Cc1ccc([N-]C(=O)[N-]c2ccc(S(=O)(=O)N3CCCCC3)cc2)c([O-])c1S(=O)(=O)N1CCOCC1 (protonated)
Cc1ccc([N-]C(=O)[N-]c2ccc(S(=O)(=O)N3CCCCC3)cc2)c([O-])c1S(=O)(=O)N1CCOCC1 (3D coordinates assigned)
Cc1ccc([N-]C(=O)[N-]c2ccc(S(=O)(=O)N3CCCCC3)cc2)c([O-])c1S(=O)(=O)N1CCOCC1 (nonaromatic ring conformer: 90.81505120592774 kcal/mol)

>  <smiles>  (30) 
Cc1ccc(NC(=O)Nc2ccc(S(=O)(=O)N3CCCCC3)cc2)c(O)c1S(=O)(=O)N1CCOCC1

>  <score_type>  (30) 
oracle

>  <origin>  (30) 
adgpu

>  <m_score__min__energy>  (30) 
-17.469999999999999

>  <m_primary>  (30) 
energy

$$$$
30:0
     RDKit          3D

 53 56  0  0  0  0  0  0  0  0999 V2000
   -8.1400   23.4730  -31.5810 C   0  0  0  0  0  0  0  0  0  0  0  0
   -6.8920   22.7010  -31.9210 C   0  0  0  0  0  0  0  0  0  0  0  0
   -7.0170   21.5490  -32.7200 C   0  0  0  0  0  0  0  0  0  0  0  0
   -5.8940   20.7920  -33.0630 C   0  0  0  0  0  0  0  0  0  0  0  0
   -4.6270   21.1640  -32.6090 C   0  0  0  0  0  0  0  0  0  0  0  0
   -3.2130   20.1980  -33.0290 S   0  0  0  0  0  0  0  0  0  0  0  0
   -3.0490   19.1090  -32.0050 O   0  0  0  0  0  0  0  0  0  0  0  0
   -3.4670   19.5360  -34.3550 O   0  0  0  0  0  0  0  0  0  0  0  0
   -1.7340   21.1310  -33.1520 N   0  0  0  0  0  0  0  0  0  0  0  0
   -0.7430   20.5960  -34.1110 C   0  0  0  0  0  0  0  0  0  0  0  0
    0.1960   19.5520  -33.4900 C   0  0  0  0  0  0  0  0  0  0  0  0
    0.8480   20.0930  -32.2200 C   0  0  0  0  0  0  0  0  0  0  0  0
   -0.2240   20.5230  -31.2240 C   0  0  0  0  0  0  0  0  0  0  0  0
   -1.1810   21.5530  -31.8470 C   0  0  0  0  0  0  0  0  0  0  0  0
   -4.4920   22.2900  -31.7920 C   0  0  0  0  0  0  0  0  0  0  0  0
   -5.6030   23.0770  -31.4510 C   0  0  0  0  0  0  0  0  0  0  0  0
   -5.2730   24.5230  -30.4780 S   0  0  0  0  0  0  0  0  0  0  0  0
   -4.2850   25.4610  -31.1120 O   0  0  0  0  0  0  0  0  0  0  0  0
   -6.5660   25.2720  -30.3100 O   0  0  0  0  0  0  0  0  0  0  0  0
   -4.7280   24.0230  -28.9060 N   0  0  0  0  0  0  0  0  0  0  0  0
   -3.5070   23.3190  -28.6290 C   0  0  0  0  0  0  0  0  0  0  0  0
   -3.5100   21.9860  -28.1770 C   0  0  0  0  0  0  0  0  0  0  0  0
   -2.3040   21.3150  -27.9360 C   0  0  0  0  0  0  0  0  0  0  0  0
   -2.2870   19.9800  -27.4990 C   0  0  0  0  0  0  0  0  0  0  0  0
   -1.0650   19.3360  -27.2840 C   0  0  0  0  0  0  0  0  0  0  0  0
    0.1250   20.0290  -27.5070 C   0  0  0  0  0  0  0  0  0  0  0  0
    0.0950   21.3240  -27.9340 N   0  0  0  0  0  0  0  0  0  0  0  0
   -1.0770   21.9800  -28.1510 C   0  0  0  0  0  0  0  0  0  0  0  0
   -1.0760   23.3010  -28.6100 C   0  0  0  0  0  0  0  0  0  0  0  0
   -2.2850   23.9680  -28.8600 C   0  0  0  0  0  0  0  0  0  0  0  0
   -2.2790   25.2790  -29.3500 O   0  0  0  0  0  0  0  0  0  0  0  0
   -8.2447   23.5378  -30.4879 H   0  0  0  0  0  0  0  0  0  0  0  0
   -8.0708   24.4863  -32.0034 H   0  0  0  0  0  0  0  0  0  0  0  0
   -9.0158   22.9587  -32.0034 H   0  0  0  0  0  0  0  0  0  0  0  0
   -8.0103   21.2412  -33.0785 H   0  0  0  0  0  0  0  0  0  0  0  0
   -6.0085   19.8983  -33.6940 H   0  0  0  0  0  0  0  0  0  0  0  0
   -1.2829   20.1274  -34.9470 H   0  0  0  0  0  0  0  0  0  0  0  0
   -0.1203   21.4398  -34.4430 H   0  0  0  0  0  0  0  0  0  0  0  0
   -0.3823   18.6498  -33.2418 H   0  0  0  0  0  0  0  0  0  0  0  0
    0.9865   19.3136  -34.2169 H   0  0  0  0  0  0  0  0  0  0  0  0
    1.4710   19.3074  -31.7676 H   0  0  0  0  0  0  0  0  0  0  0  0
    1.4709   20.9625  -32.4769 H   0  0  0  0  0  0  0  0  0  0  0  0
   -0.8007   19.6392  -30.9137 H   0  0  0  0  0  0  0  0  0  0  0  0
    0.2711   20.9868  -30.3581 H   0  0  0  0  0  0  0  0  0  0  0  0
   -2.0171   21.7168  -31.1512 H   0  0  0  0  0  0  0  0  0  0  0  0
   -0.5992   22.4697  -32.0235 H   0  0  0  0  0  0  0  0  0  0  0  0
   -3.4977   22.5642  -31.4096 H   0  0  0  0  0  0  0  0  0  0  0  0
   -4.4660   21.4675  -28.0118 H   0  0  0  0  0  0  0  0  0  0  0  0
   -3.2317   19.4434  -27.3266 H   0  0  0  0  0  0  0  0  0  0  0  0
   -1.0420   18.2909  -26.9416 H   0  0  0  0  0  0  0  0  0  0  0  0
    1.0904   19.5295  -27.3380 H   0  0  0  0  0  0  0  0  0  0  0  0
   -0.1209   23.8208  -28.7762 H   0  0  0  0  0  0  0  0  0  0  0  0
   -3.1140   25.7030  -29.7410 H   0  0  0  0  0  0  0  0  0  0  0  0
  1  2  1  0
  2  3  2  0
  3  4  1  0
  4  5  2  0
  5  6  1  0
  6  7  2  0
  6  8  2  0
  6  9  1  0
  9 10  1  0
 10 11  1  0
 11 12  1  0
 12 13  1  0
 13 14  1  0
  5 15  1  0
 15 16  2  0
 16 17  1  0
 17 18  2  0
 17 19  2  0
 17 20  1  0
 20 21  1  0
 21 22  2  0
 22 23  1  0
 23 24  2  0
 24 25  1  0
 25 26  2  0
 26 27  1  0
 27 28  2  0
 28 29  1  0
 29 30  2  0
 30 31  1  0
 16  2  1  0
 30 21  1  0
 14  9  1  0
 28 23  1  0
  1 32  1  0
  1 33  1  0
  1 34  1  0
  3 35  1  0
  4 36  1  0
 10 37  1  0
 10 38  1  0
 11 39  1  0
 11 40  1  0
 12 41  1  0
 12 42  1  0
 13 43  1  0
 13 44  1  0
 14 45  1  0
 14 46  1  0
 15 47  1  0
 22 48  1  0
 24 49  1  0
 25 50  1  0
 26 51  1  0
 29 52  1  0
 31 53  1  0
M  CHG  1  20  -1
M  END
>  <UniqueID>  (31) 
31

>  <SMILES>  (31) 
Cc1ccc(S(=O)(=O)N2CCCCC2)cc1S(=O)(=O)[N-]c1cc2cccnc2cc1O

>  <Energy>  (31) 
67.1787036624437

>  <Genealogy>  (31) 
Cc1ccc(S(=O)(=O)N2CCCCC2)cc1S(=O)(=O)[N-]c1cc2cccnc2cc1O (protonated)
Cc1ccc(S(=O)(=O)N2CCCCC2)cc1S(=O)(=O)[N-]c1cc2cccnc2cc1O (3D coordinates assigned)
Cc1ccc(S(=O)(=O)N2CCCCC2)cc1S(=O)(=O)[N-]c1cc2cccnc2cc1O (nonaromatic ring conformer: 67.1787036624437 kcal/mol)

>  <smiles>  (31) 
Cc1ccc(S(=O)(=O)N2CCCCC2)cc1S(=O)(=O)Nc1cc2cccnc2cc1O

>  <score_type>  (31) 
oracle

>  <origin>  (31) 
adgpu

>  <m_score__min__energy>  (31) 
-11.74

>  <m_primary>  (31) 
energy

$$$$
31:0
     RDKit          3D

 69 73  0  0  0  0  0  0  0  0999 V2000
   -1.6110   22.6730  -30.3340 C   0  0  0  0  0  0  0  0  0  0  0  0
   -1.6830   21.5430  -31.3160 C   0  0  0  0  0  0  0  0  0  0  0  0
   -0.5750   21.2200  -32.1110 C   0  0  0  0  0  0  0  0  0  0  0  0
   -0.6440   20.1580  -33.0160 C   0  0  0  0  0  0  0  0  0  0  0  0
   -1.8100   19.3840  -33.1170 C   0  0  0  0  0  0  0  0  0  0  0  0
   -1.8770   18.3350  -34.1010 N   0  0  0  0  0  0  0  0  0  0  0  0
   -1.8000   16.9210  -33.8140 C   0  0  0  0  0  0  0  0  0  0  0  0
   -1.1480   16.4030  -32.3880 S   0  0  0  0  0  0  0  0  0  0  0  0
   -2.1520   15.9370  -34.8280 N   0  0  2  0  0  0  0  0  0  0  0  0
   -1.0870   15.8010  -35.8530 C   0  0  0  0  0  0  0  0  0  0  0  0
    0.1170   16.6630  -35.5430 C   0  0  0  0  0  0  0  0  0  0  0  0
    0.2560   17.9390  -36.1150 C   0  0  0  0  0  0  0  0  0  0  0  0
    1.3760   18.7240  -35.8220 C   0  0  0  0  0  0  0  0  0  0  0  0
    2.3610   18.2450  -34.9550 C   0  0  0  0  0  0  0  0  0  0  0  0
    2.2310   16.9770  -34.3820 C   0  0  0  0  0  0  0  0  0  0  0  0
    1.1140   16.1880  -34.6740 C   0  0  0  0  0  0  0  0  0  0  0  0
   -3.5000   16.1860  -35.4040 C   0  0  0  0  0  0  0  0  0  0  0  0
   -4.4340   16.9860  -34.5140 C   0  0  0  0  0  0  0  0  0  0  0  0
   -4.9310   18.2250  -34.9490 C   0  0  0  0  0  0  0  0  0  0  0  0
   -5.8240   18.9510  -34.1580 C   0  0  0  0  0  0  0  0  0  0  0  0
   -6.2120   18.4640  -32.8990 C   0  0  0  0  0  0  0  0  0  0  0  0
   -7.1620   19.2270  -32.0600 C   0  0  0  0  0  0  0  0  0  0  0  0
   -7.9540   18.6120  -31.2950 O   0  0  0  0  0  0  0  0  0  0  0  0
   -7.1750   20.6650  -32.0810 N   0  0  0  0  0  0  0  0  0  0  0  0
   -8.4360   21.4020  -32.0220 C   0  0  0  0  0  0  0  0  0  0  0  0
   -8.3780   22.3680  -30.8400 C   0  0  0  0  0  0  0  0  0  0  0  0
   -7.0830   23.1490  -30.8080 C   0  0  0  0  0  0  0  0  0  0  0  0
   -7.0120   24.3190  -30.0340 C   0  0  0  0  0  0  0  0  0  0  0  0
   -5.8140   25.0310  -29.9360 C   0  0  0  0  0  0  0  0  0  0  0  0
   -4.6770   24.5870  -30.6120 C   0  0  0  0  0  0  0  0  0  0  0  0
   -3.4910   25.3040  -30.5190 O   0  0  0  0  0  0  0  0  0  0  0  0
   -4.7290   23.4170  -31.3750 C   0  0  0  0  0  0  0  0  0  0  0  0
   -5.9200   22.6790  -31.4650 C   0  0  0  0  0  0  0  0  0  0  0  0
   -5.9460   21.4310  -32.3130 C   0  0  0  0  0  0  0  0  0  0  0  0
   -5.6990   17.2320  -32.4550 C   0  0  0  0  0  0  0  0  0  0  0  0
   -4.8100   16.5070  -33.2500 C   0  0  0  0  0  0  0  0  0  0  0  0
   -2.9170   19.7040  -32.3140 C   0  0  0  0  0  0  0  0  0  0  0  0
   -2.8520   20.7720  -31.4140 C   0  0  0  0  0  0  0  0  0  0  0  0
   -1.6366   22.2713  -29.3103 H   0  0  0  0  0  0  0  0  0  0  0  0
   -0.6755   23.2314  -30.4855 H   0  0  0  0  0  0  0  0  0  0  0  0
   -2.4681   23.3456  -30.4855 H   0  0  0  0  0  0  0  0  0  0  0  0
    0.3524   21.8048  -32.0221 H   0  0  0  0  0  0  0  0  0  0  0  0
    0.2218   19.9269  -33.6539 H   0  0  0  0  0  0  0  0  0  0  0  0
   -1.9500   18.6420  -35.0960 H   0  0  0  0  0  0  0  0  0  0  0  0
   -2.2190   15.0110  -34.3420 H   0  0  0  0  0  0  0  0  0  0  0  0
   -0.7682   14.7491  -35.8954 H   0  0  0  0  0  0  0  0  0  0  0  0
   -1.5010   16.1326  -36.8166 H   0  0  0  0  0  0  0  0  0  0  0  0
   -0.5187   18.3219  -36.7956 H   0  0  0  0  0  0  0  0  0  0  0  0
    1.4814   19.7207  -36.2753 H   0  0  0  0  0  0  0  0  0  0  0  0
    3.2390   18.8659  -34.7233 H   0  0  0  0  0  0  0  0  0  0  0  0
    3.0078   16.5994  -33.7009 H   0  0  0  0  0  0  0  0  0  0  0  0
    1.0153   15.1904  -34.2211 H   0  0  0  0  0  0  0  0  0  0  0  0
   -3.3726   16.7357  -36.3483 H   0  0  0  0  0  0  0  0  0  0  0  0
   -3.9676   15.1992  -35.5364 H   0  0  0  0  0  0  0  0  0  0  0  0
   -4.6139   18.6277  -35.9223 H   0  0  0  0  0  0  0  0  0  0  0  0
   -6.2252   19.9082  -34.5224 H   0  0  0  0  0  0  0  0  0  0  0  0
   -8.5802   21.9659  -32.9554 H   0  0  0  0  0  0  0  0  0  0  0  0
   -9.2757   20.7027  -31.8964 H   0  0  0  0  0  0  0  0  0  0  0  0
   -9.2170   23.0750  -30.9180 H   0  0  0  0  0  0  0  0  0  0  0  0
   -8.4402   21.7762  -29.9148 H   0  0  0  0  0  0  0  0  0  0  0  0
   -7.9055   24.6770  -29.5016 H   0  0  0  0  0  0  0  0  0  0  0  0
   -5.7670   25.9440  -29.3243 H   0  0  0  0  0  0  0  0  0  0  0  0
   -3.8309   23.0722  -31.9084 H   0  0  0  0  0  0  0  0  0  0  0  0
   -5.8942   21.7158  -33.3742 H   0  0  0  0  0  0  0  0  0  0  0  0
   -5.0846   20.8035  -32.0406 H   0  0  0  0  0  0  0  0  0  0  0  0
   -6.0007   16.8369  -31.4738 H   0  0  0  0  0  0  0  0  0  0  0  0
   -4.4015   15.5538  -32.8832 H   0  0  0  0  0  0  0  0  0  0  0  0
   -3.8401   19.1112  -32.3936 H   0  0  0  0  0  0  0  0  0  0  0  0
   -3.7197   21.0088  -30.7807 H   0  0  0  0  0  0  0  0  0  0  0  0
  1  2  1  0
  2  3  2  0
  3  4  1  0
  4  5  2  0
  5  6  1  0
  6  7  1  0
  7  8  2  0
  7  9  1  0
  9 10  1  0
 10 11  1  0
 11 12  2  0
 12 13  1  0
 13 14  2  0
 14 15  1  0
 15 16  2  0
  9 17  1  0
 17 18  1  0
 18 19  2  0
 19 20  1  0
 20 21  2  0
 21 22  1  0
 22 23  2  0
 22 24  1  0
 24 25  1  0
 25 26  1  0
 26 27  1  0
 27 28  2  0
 28 29  1  0
 29 30  2  0
 30 31  1  0
 30 32  1  0
 32 33  2  0
 33 34  1  0
 21 35  1  0
 35 36  2  0
  5 37  1  0
 37 38  2  0
 38  2  1  0
 16 11  1  0
 36 18  1  0
 34 24  1  0
 33 27  1  0
  1 39  1  0
  1 40  1  0
  1 41  1  0
  3 42  1  0
  4 43  1  0
  6 44  1  0
  9 45  1  1
 10 46  1  0
 10 47  1  0
 12 48  1  0
 13 49  1  0
 14 50  1  0
 15 51  1  0
 16 52  1  0
 17 53  1  0
 17 54  1  0
 19 55  1  0
 20 56  1  0
 25 57  1  0
 25 58  1  0
 26 59  1  0
 26 60  1  0
 28 61  1  0
 29 62  1  0
 32 63  1  0
 34 64  1  0
 34 65  1  0
 35 66  1  0
 36 67  1  0
 37 68  1  0
 38 69  1  0
M  CHG  2   9   1  31  -1
M  END
>  <UniqueID>  (32) 
32

>  <SMILES>  (32) 
Cc1ccc(NC(=S)[N@H+](Cc2ccccc2)Cc2ccc(C(=O)N3CCc4ccc([O-])cc4C3)cc2)cc1

>  <Energy>  (32) 
91.98872703425607

>  <Genealogy>  (32) 
Cc1ccc(NC(=S)[NH+](Cc2ccccc2)Cc2ccc(C(=O)N3CCc4ccc([O-])cc4C3)cc2)cc1 (protonated)
Cc1ccc(NC(=S)[N@H+](Cc2ccccc2)Cc2ccc(C(=O)N3CCc4ccc([O-])cc4C3)cc2)cc1 (chirality)
Cc1ccc(NC(=S)[N@H+](Cc2ccccc2)Cc2ccc(C(=O)N3CCc4ccc([O-])cc4C3)cc2)cc1 (3D coordinates assigned)
Cc1ccc(NC(=S)[N@H+](Cc2ccccc2)Cc2ccc(C(=O)N3CCc4ccc([O-])cc4C3)cc2)cc1 (nonaromatic ring conformer: 91.98872703425607 kcal/mol)

>  <smiles>  (32) 
Cc1ccc(NC(=S)N(Cc2ccccc2)Cc2ccc(C(=O)N3CCc4ccc(O)cc4C3)cc2)cc1

>  <score_type>  (32) 
oracle

>  <origin>  (32) 
adgpu

>  <m_score__min__energy>  (32) 
-12.449999999999999

>  <m_primary>  (32) 
energy

$$$$
32:0
     RDKit          3D

 57 60  0  0  0  0  0  0  0  0999 V2000
   -3.0460   21.0410  -27.4760 C   0  0  0  0  0  0  0  0  0  0  0  0
   -2.3170   22.3520  -27.3550 C   0  0  0  0  0  0  0  0  0  0  0  0
   -1.3130   22.5040  -26.3890 C   0  0  0  0  0  0  0  0  0  0  0  0
   -0.6370   23.7170  -26.2450 C   0  0  0  0  0  0  0  0  0  0  0  0
    0.6410   23.8010  -25.0360 Cl  0  0  0  0  0  0  0  0  0  0  0  0
   -0.9580   24.8100  -27.0750 C   0  0  0  0  0  0  0  0  0  0  0  0
   -0.0770   26.3460  -26.9100 S   0  0  0  0  0  0  0  0  0  0  0  0
   -0.3680   26.9250  -25.5530 O   0  0  0  0  0  0  0  0  0  0  0  0
   -0.5100   27.3460  -27.9440 O   0  0  0  0  0  0  0  0  0  0  0  0
    1.6490   26.0530  -27.0950 C   0  0  0  0  0  0  0  0  0  0  0  0
    2.1130   24.8820  -27.7150 C   0  0  0  0  0  0  0  0  0  0  0  0
    3.4890   24.6590  -27.8550 C   0  0  0  0  0  0  0  0  0  0  0  0
    4.4030   25.5990  -27.3750 C   0  0  0  0  0  0  0  0  0  0  0  0
    3.9450   26.7650  -26.7530 C   0  0  0  0  0  0  0  0  0  0  0  0
    2.5710   26.9910  -26.6100 C   0  0  0  0  0  0  0  0  0  0  0  0
   -1.9470   24.6500  -28.0680 C   0  0  0  0  0  0  0  0  0  0  0  0
   -2.1920   25.6740  -28.9780 O   0  0  0  0  0  0  0  0  0  0  0  0
   -2.6610   23.4390  -28.1780 C   0  0  0  0  0  0  0  0  0  0  0  0
   -3.6850   23.2640  -29.1720 N   0  0  0  0  0  0  0  0  0  0  0  0
   -3.5060   23.4020  -30.5880 C   0  0  0  0  0  0  0  0  0  0  0  0
   -4.0210   24.3830  -31.1940 O   0  0  0  0  0  0  0  0  0  0  0  0
   -2.7620   22.3700  -31.3480 C   0  0  0  0  0  0  0  0  0  0  0  0
   -3.3610   21.7030  -32.4340 C   0  0  0  0  0  0  0  0  0  0  0  0
   -2.6520   20.7370  -33.1540 C   0  0  0  0  0  0  0  0  0  0  0  0
   -1.3340   20.4200  -32.8010 C   0  0  0  0  0  0  0  0  0  0  0  0
   -0.4230   19.2370  -33.7330 S   0  0  0  0  0  0  0  0  0  0  0  0
   -0.1910   18.0210  -32.8770 O   0  0  0  0  0  0  0  0  0  0  0  0
   -1.2240   18.8180  -34.9360 O   0  0  0  0  0  0  0  0  0  0  0  0
    1.0990   19.9690  -34.2090 N   0  0  0  0  0  0  0  0  0  0  0  0
    0.9930   21.4400  -34.3210 C   0  0  0  0  0  0  0  0  0  0  0  0
    0.6970   21.9040  -35.7620 C   0  0  0  0  0  0  0  0  0  0  0  0
   -0.0030   20.9070  -36.4740 O   0  0  0  0  0  0  0  0  0  0  0  0
    0.8370   19.7840  -36.6930 C   0  0  0  0  0  0  0  0  0  0  0  0
    1.6440   19.3690  -35.4390 C   0  0  0  0  0  0  0  0  0  0  0  0
   -0.7310   21.0820  -31.7240 C   0  0  0  0  0  0  0  0  0  0  0  0
   -1.4390   22.0450  -30.9990 C   0  0  0  0  0  0  0  0  0  0  0  0
   -3.2641   20.6487  -26.4717 H   0  0  0  0  0  0  0  0  0  0  0  0
   -3.9883   21.1945  -28.0223 H   0  0  0  0  0  0  0  0  0  0  0  0
   -2.4184   20.3215  -28.0223 H   0  0  0  0  0  0  0  0  0  0  0  0
   -1.0545   21.6572  -25.7363 H   0  0  0  0  0  0  0  0  0  0  0  0
    1.3951   24.1384  -28.0914 H   0  0  0  0  0  0  0  0  0  0  0  0
    3.8498   23.7420  -28.3438 H   0  0  0  0  0  0  0  0  0  0  0  0
    5.4831   25.4226  -27.4860 H   0  0  0  0  0  0  0  0  0  0  0  0
    4.6656   27.5055  -26.3756 H   0  0  0  0  0  0  0  0  0  0  0  0
    2.2139   27.9067  -26.1160 H   0  0  0  0  0  0  0  0  0  0  0  0
   -4.3959   21.9442  -32.7183 H   0  0  0  0  0  0  0  0  0  0  0  0
   -3.1309   20.2239  -34.0010 H   0  0  0  0  0  0  0  0  0  0  0  0
    0.1803   21.7859  -33.6653 H   0  0  0  0  0  0  0  0  0  0  0  0
    1.9621   21.8680  -34.0250 H   0  0  0  0  0  0  0  0  0  0  0  0
    0.0873   22.8190  -35.7285 H   0  0  0  0  0  0  0  0  0  0  0  0
    1.6512   22.0992  -36.2733 H   0  0  0  0  0  0  0  0  0  0  0  0
    0.2104   18.9343  -37.0019 H   0  0  0  0  0  0  0  0  0  0  0  0
    1.5635   20.0671  -37.4689 H   0  0  0  0  0  0  0  0  0  0  0  0
    1.6136   18.2736  -35.3435 H   0  0  0  0  0  0  0  0  0  0  0  0
    2.6759   19.7288  -35.5644 H   0  0  0  0  0  0  0  0  0  0  0  0
    0.3063   20.8426  -31.4469 H   0  0  0  0  0  0  0  0  0  0  0  0
   -0.9579   22.5521  -30.1496 H   0  0  0  0  0  0  0  0  0  0  0  0
  1  2  1  0
  2  3  2  0
  3  4  1  0
  4  5  1  0
  4  6  2  0
  6  7  1  0
  7  8  2  0
  7  9  2  0
  7 10  1  0
 10 11  2  0
 11 12  1  0
 12 13  2  0
 13 14  1  0
 14 15  2  0
  6 16  1  0
 16 17  1  0
 16 18  2  0
 18 19  1  0
 19 20  1  0
 20 21  2  0
 20 22  1  0
 22 23  2  0
 23 24  1  0
 24 25  2  0
 25 26  1  0
 26 27  2  0
 26 28  2  0
 26 29  1  0
 29 30  1  0
 30 31  1  0
 31 32  1  0
 32 33  1  0
 33 34  1  0
 25 35  1  0
 35 36  2  0
 18  2  1  0
 36 22  1  0
 15 10  1  0
 34 29  1  0
  1 37  1  0
  1 38  1  0
  1 39  1  0
  3 40  1  0
 11 41  1  0
 12 42  1  0
 13 43  1  0
 14 44  1  0
 15 45  1  0
 23 46  1  0
 24 47  1  0
 30 48  1  0
 30 49  1  0
 31 50  1  0
 31 51  1  0
 33 52  1  0
 33 53  1  0
 34 54  1  0
 34 55  1  0
 35 56  1  0
 36 57  1  0
M  CHG  2  17  -1  19  -1
M  END
>  <UniqueID>  (33) 
33

>  <SMILES>  (33) 
Cc1cc(Cl)c(S(=O)(=O)c2ccccc2)c([O-])c1[N-]C(=O)c1ccc(S(=O)(=O)N2CCOCC2)cc1

>  <Energy>  (33) 
84.33777046134082

>  <Genealogy>  (33) 
Cc1cc(Cl)c(S(=O)(=O)c2ccccc2)c([O-])c1[N-]C(=O)c1ccc(S(=O)(=O)N2CCOCC2)cc1 (protonated)
Cc1cc(Cl)c(S(=O)(=O)c2ccccc2)c([O-])c1[N-]C(=O)c1ccc(S(=O)(=O)N2CCOCC2)cc1 (3D coordinates assigned)
Cc1cc(Cl)c(S(=O)(=O)c2ccccc2)c([O-])c1[N-]C(=O)c1ccc(S(=O)(=O)N2CCOCC2)cc1 (nonaromatic ring conformer: 84.33777046134082 kcal/mol)

>  <smiles>  (33) 
Cc1cc(Cl)c(S(=O)(=O)c2ccccc2)c(O)c1NC(=O)c1ccc(S(=O)(=O)N2CCOCC2)cc1

>  <score_type>  (33) 
oracle

>  <origin>  (33) 
adgpu

>  <m_score__min__energy>  (33) 
-16.550000000000001

>  <m_primary>  (33) 
energy

$$$$
33:0
     RDKit          3D

 44 46  0  0  0  0  0  0  0  0999 V2000
   -5.8960   23.8050  -29.5480 O   0  0  0  0  0  0  0  0  0  0  0  0
   -4.9490   24.2090  -30.6410 S   0  0  0  0  0  0  0  0  0  0  0  0
   -5.6600   25.1290  -31.5930 O   0  0  0  0  0  0  0  0  0  0  0  0
   -3.6010   25.0480  -29.9440 N   0  0  0  0  0  0  0  0  0  0  0  0
   -2.7070   24.5060  -28.9600 C   0  0  0  0  0  0  0  0  0  0  0  0
   -2.9800   23.2980  -28.2900 C   0  0  0  0  0  0  0  0  0  0  0  0
   -2.0910   22.8120  -27.3270 C   0  0  0  0  0  0  0  0  0  0  0  0
   -0.9250   23.5180  -27.0280 C   0  0  0  0  0  0  0  0  0  0  0  0
   -0.6420   24.7130  -27.6930 C   0  0  0  0  0  0  0  0  0  0  0  0
   -1.5290   25.2080  -28.6560 C   0  0  0  0  0  0  0  0  0  0  0  0
   -1.2370   26.4000  -29.3090 O   0  0  0  0  0  0  0  0  0  0  0  0
   -4.3960   22.7610  -31.4780 C   0  0  0  0  0  0  0  0  0  0  0  0
   -3.0300   22.5690  -31.7290 C   0  0  0  0  0  0  0  0  0  0  0  0
   -2.5920   21.4090  -32.3740 C   0  0  0  0  0  0  0  0  0  0  0  0
   -3.5150   20.4370  -32.7700 C   0  0  0  0  0  0  0  0  0  0  0  0
   -4.8830   20.6260  -32.5320 C   0  0  0  0  0  0  0  0  0  0  0  0
   -6.0370   19.3920  -33.0300 S   0  0  0  0  0  0  0  0  0  0  0  0
   -5.3000   18.1560  -33.4640 O   0  0  0  0  0  0  0  0  0  0  0  0
   -6.8340   19.9240  -34.1880 O   0  0  0  0  0  0  0  0  0  0  0  0
   -7.0950   19.0150  -31.6870 N   0  0  0  0  0  0  0  0  0  0  0  0
   -7.9750   17.8560  -31.9810 C   0  0  0  0  0  0  0  0  0  0  0  0
   -9.4780   18.1880  -31.9700 C   0  0  0  0  0  0  0  0  0  0  0  0
   -9.7420   19.4960  -32.7130 C   0  0  0  0  0  0  0  0  0  0  0  0
   -8.9410   20.6680  -32.1180 C   0  0  0  0  0  0  0  0  0  0  0  0
   -7.8000   20.2140  -31.1890 C   0  0  0  0  0  0  0  0  0  0  0  0
   -5.3200   21.7900  -31.8860 C   0  0  0  0  0  0  0  0  0  0  0  0
   -3.8954   22.7352  -28.5251 H   0  0  0  0  0  0  0  0  0  0  0  0
   -2.3112   21.8701  -26.8032 H   0  0  0  0  0  0  0  0  0  0  0  0
   -0.2287   23.1332  -26.2684 H   0  0  0  0  0  0  0  0  0  0  0  0
    0.2796   25.2662  -27.4596 H   0  0  0  0  0  0  0  0  0  0  0  0
   -2.3019   23.3325  -31.4178 H   0  0  0  0  0  0  0  0  0  0  0  0
   -1.5198   21.2609  -32.5702 H   0  0  0  0  0  0  0  0  0  0  0  0
   -3.1666   19.5211  -33.2699 H   0  0  0  0  0  0  0  0  0  0  0  0
   -7.7143   17.4685  -32.9769 H   0  0  0  0  0  0  0  0  0  0  0  0
   -7.8073   17.1200  -31.1809 H   0  0  0  0  0  0  0  0  0  0  0  0
  -10.0321   17.3745  -32.4611 H   0  0  0  0  0  0  0  0  0  0  0  0
   -9.8106   18.2976  -30.9272 H   0  0  0  0  0  0  0  0  0  0  0  0
   -9.4562   19.3695  -33.7676 H   0  0  0  0  0  0  0  0  0  0  0  0
  -10.8121   19.7318  -32.6168 H   0  0  0  0  0  0  0  0  0  0  0  0
   -8.5079   21.2506  -32.9445 H   0  0  0  0  0  0  0  0  0  0  0  0
   -9.6378   21.2653  -31.5116 H   0  0  0  0  0  0  0  0  0  0  0  0
   -7.0740   21.0353  -31.0977 H   0  0  0  0  0  0  0  0  0  0  0  0
   -8.2483   19.9538  -30.2188 H   0  0  0  0  0  0  0  0  0  0  0  0
   -6.3931   21.9422  -31.6983 H   0  0  0  0  0  0  0  0  0  0  0  0
  1  2  2  0
  2  3  2  0
  2  4  1  0
  4  5  1  0
  5  6  2  0
  6  7  1  0
  7  8  2  0
  8  9  1  0
  9 10  2  0
 10 11  1  0
  2 12  1  0
 12 13  2  0
 13 14  1  0
 14 15  2  0
 15 16  1  0
 16 17  1  0
 17 18  2  0
 17 19  2  0
 17 20  1  0
 20 21  1  0
 21 22  1  0
 22 23  1  0
 23 24  1  0
 24 25  1  0
 16 26  2  0
 10  5  1  0
 26 12  1  0
 25 20  1  0
  6 27  1  0
  7 28  1  0
  8 29  1  0
  9 30  1  0
 13 31  1  0
 14 32  1  0
 15 33  1  0
 21 34  1  0
 21 35  1  0
 22 36  1  0
 22 37  1  0
 23 38  1  0
 23 39  1  0
 24 40  1  0
 24 41  1  0
 25 42  1  0
 25 43  1  0
 26 44  1  0
M  CHG  2   4  -1  11  -1
M  END
>  <UniqueID>  (34) 
34

>  <SMILES>  (34) 
O=S(=O)([N-]c1ccccc1[O-])c1cccc(S(=O)(=O)N2CCCCC2)c1

>  <Energy>  (34) 
55.347410354264554

>  <Genealogy>  (34) 
O=S(=O)([N-]c1ccccc1[O-])c1cccc(S(=O)(=O)N2CCCCC2)c1 (protonated)
O=S(=O)([N-]c1ccccc1[O-])c1cccc(S(=O)(=O)N2CCCCC2)c1 (3D coordinates assigned)
O=S(=O)([N-]c1ccccc1[O-])c1cccc(S(=O)(=O)N2CCCCC2)c1 (nonaromatic ring conformer: 55.347410354264554 kcal/mol)

>  <smiles>  (34) 
O=S(=O)(Nc1ccccc1O)c1cccc(S(=O)(=O)N2CCCCC2)c1

>  <score_type>  (34) 
oracle

>  <origin>  (34) 
adgpu

>  <m_score__min__energy>  (34) 
-14.35

>  <m_primary>  (34) 
energy

$$$$
34:0
     RDKit          3D

 50 53  0  0  0  0  0  0  0  0999 V2000
    0.2860   24.9540  -28.0690 O   0  0  0  0  0  0  0  0  0  0  0  0
   -0.7720   24.5700  -28.6310 C   0  0  0  0  0  0  0  0  0  0  0  0
   -1.1740   23.2810  -28.6240 N   0  0  0  0  0  0  0  0  0  0  0  0
   -2.3260   23.3050  -29.3170 C   0  0  0  0  0  0  0  0  0  0  0  0
   -2.5750   24.6010  -29.7120 C   0  0  0  0  0  0  0  0  0  0  0  0
   -3.6970   25.0610  -30.4690 N   0  0  0  0  0  0  0  0  0  0  0  0
   -5.3370   24.8790  -29.9420 S   0  0  0  0  0  0  0  0  0  0  0  0
   -6.0820   26.1610  -30.1850 O   0  0  0  0  0  0  0  0  0  0  0  0
   -5.3500   24.5800  -28.4680 O   0  0  0  0  0  0  0  0  0  0  0  0
   -6.1110   23.5860  -30.8530 C   0  0  0  0  0  0  0  0  0  0  0  0
   -7.4880   23.3570  -30.7400 C   0  0  0  0  0  0  0  0  0  0  0  0
   -8.0910   22.3320  -31.4750 C   0  0  0  0  0  0  0  0  0  0  0  0
   -7.3230   21.5270  -32.3230 C   0  0  0  0  0  0  0  0  0  0  0  0
   -7.9540   20.5500  -33.0850 O   0  0  0  0  0  0  0  0  0  0  0  0
   -5.9320   21.7300  -32.4190 C   0  0  0  0  0  0  0  0  0  0  0  0
   -5.1150   20.9330  -33.2920 N   0  0  0  0  0  0  0  0  0  0  0  0
   -3.7570   20.5540  -33.0080 C   0  0  0  0  0  0  0  0  0  0  0  0
   -3.4290   19.1950  -32.9040 C   0  0  0  0  0  0  0  0  0  0  0  0
   -2.1140   18.8010  -32.6400 C   0  0  0  0  0  0  0  0  0  0  0  0
   -1.1060   19.7630  -32.4920 C   0  0  0  0  0  0  0  0  0  0  0  0
    0.5540   19.2670  -32.1520 S   0  0  0  0  0  0  0  0  0  0  0  0
    1.5010   20.1870  -32.8720 O   0  0  0  0  0  0  0  0  0  0  0  0
    0.7680   17.8750  -32.6780 O   0  0  0  0  0  0  0  0  0  0  0  0
    0.9070   19.2950  -30.4410 N   0  0  0  0  0  0  0  0  0  0  0  0
    0.5890   17.9980  -29.8280 C   0  0  0  0  0  0  0  0  0  0  0  0
    0.9320   18.0310  -28.3230 C   0  0  0  0  0  0  0  0  0  0  0  0
    1.2870   19.3310  -27.8810 O   0  0  0  0  0  0  0  0  0  0  0  0
    0.2780   20.2540  -28.2420 C   0  0  0  0  0  0  0  0  0  0  0  0
    0.1540   20.3710  -29.7760 C   0  0  0  0  0  0  0  0  0  0  0  0
   -1.4240   21.1220  -32.6180 C   0  0  0  0  0  0  0  0  0  0  0  0
   -2.7390   21.5160  -32.8810 C   0  0  0  0  0  0  0  0  0  0  0  0
   -5.3400   22.7770  -31.6970 C   0  0  0  0  0  0  0  0  0  0  0  0
   -1.5960   25.4150  -29.2860 N   0  0  0  0  0  0  0  0  0  0  0  0
   -2.9634   22.4348  -29.5326 H   0  0  0  0  0  0  0  0  0  0  0  0
   -8.0961   23.9846  -30.0719 H   0  0  0  0  0  0  0  0  0  0  0  0
   -9.1735   22.1578  -31.3862 H   0  0  0  0  0  0  0  0  0  0  0  0
   -5.5140   20.6650  -34.2210 H   0  0  0  0  0  0  0  0  0  0  0  0
   -4.2122   18.4331  -33.0311 H   0  0  0  0  0  0  0  0  0  0  0  0
   -1.8698   17.7324  -32.5482 H   0  0  0  0  0  0  0  0  0  0  0  0
   -0.4835   17.7883  -29.9533 H   0  0  0  0  0  0  0  0  0  0  0  0
    1.1810   17.2107  -30.3176 H   0  0  0  0  0  0  0  0  0  0  0  0
    0.0552   17.6904  -27.7527 H   0  0  0  0  0  0  0  0  0  0  0  0
    1.7974   17.3718  -28.1602 H   0  0  0  0  0  0  0  0  0  0  0  0
   -0.6834   19.9149  -27.8288 H   0  0  0  0  0  0  0  0  0  0  0  0
    0.5467   21.2409  -27.8372 H   0  0  0  0  0  0  0  0  0  0  0  0
   -0.9064   20.2985  -30.0594 H   0  0  0  0  0  0  0  0  0  0  0  0
    0.5673   21.3402  -30.0920 H   0  0  0  0  0  0  0  0  0  0  0  0
   -0.6357   21.8815  -32.5095 H   0  0  0  0  0  0  0  0  0  0  0  0
   -2.9789   22.5841  -32.9892 H   0  0  0  0  0  0  0  0  0  0  0  0
   -4.2605   22.9642  -31.7947 H   0  0  0  0  0  0  0  0  0  0  0  0
  1  2  2  0
  2  3  1  0
  3  4  1  0
  4  5  2  0
  5  6  1  0
  6  7  1  0
  7  8  2  0
  7  9  2  0
  7 10  1  0
 10 11  2  0
 11 12  1  0
 12 13  2  0
 13 14  1  0
 13 15  1  0
 15 16  1  0
 16 17  1  0
 17 18  2  0
 18 19  1  0
 19 20  2  0
 20 21  1  0
 21 22  2  0
 21 23  2  0
 21 24  1  0
 24 25  1  0
 25 26  1  0
 26 27  1  0
 27 28  1  0
 28 29  1  0
 20 30  1  0
 30 31  2  0
 15 32  2  0
  5 33  1  0
 33  2  1  0
 32 10  1  0
 31 17  1  0
 29 24  1  0
  4 34  1  0
 11 35  1  0
 12 36  1  0
 16 37  1  0
 18 38  1  0
 19 39  1  0
 25 40  1  0
 25 41  1  0
 26 42  1  0
 26 43  1  0
 28 44  1  0
 28 45  1  0
 29 46  1  0
 29 47  1  0
 30 48  1  0
 31 49  1  0
 32 50  1  0
M  CHG  4   3  -1   6  -1  14  -1  33  -1
M  END
>  <UniqueID>  (35) 
35

>  <SMILES>  (35) 
O=c1[n-]cc([N-]S(=O)(=O)c2ccc([O-])c(Nc3ccc(S(=O)(=O)N4CCOCC4)cc3)c2)[n-]1

>  <Energy>  (35) 
97.89377485494194

>  <Genealogy>  (35) 
O=c1[n-]cc([N-]S(=O)(=O)c2ccc([O-])c(Nc3ccc(S(=O)(=O)N4CCOCC4)cc3)c2)[n-]1 (protonated)
O=c1[n-]cc([N-]S(=O)(=O)c2ccc([O-])c(Nc3ccc(S(=O)(=O)N4CCOCC4)cc3)c2)[n-]1 (3D coordinates assigned)
O=c1[n-]cc([N-]S(=O)(=O)c2ccc([O-])c(Nc3ccc(S(=O)(=O)N4CCOCC4)cc3)c2)[n-]1 (nonaromatic ring conformer: 97.89377485494194 kcal/mol)

>  <smiles>  (35) 
O=c1[nH]cc(NS(=O)(=O)c2ccc(O)c(Nc3ccc(S(=O)(=O)N4CCOCC4)cc3)c2)[nH]1

>  <score_type>  (35) 
oracle

>  <origin>  (35) 
adgpu

>  <m_score__min__energy>  (35) 
-13.5

>  <m_primary>  (35) 
energy

$$$$
35:0
     RDKit          3D

 55 58  0  0  0  0  0  0  0  0999 V2000
    2.8159   23.0237  -34.9943 H   0  0  0  0  0  0  0  0  0  0  0  0
    2.1130   22.1780  -34.9670 C   0  0  0  0  0  0  0  0  0  0  0  0
    0.8020   22.3740  -35.2730 N   0  0  0  0  0  0  0  0  0  0  0  0
   -0.0990   21.3520  -35.2430 C   0  0  0  0  0  0  0  0  0  0  0  0
   -1.1511   21.5408  -35.5028 H   0  0  0  0  0  0  0  0  0  0  0  0
    0.3120   20.0570  -34.8810 C   0  0  0  0  0  0  0  0  0  0  0  0
   -0.6630   18.9150  -34.8900 C   0  0  0  0  0  0  0  0  0  0  0  0
   -0.1275   17.9734  -35.0812 H   0  0  0  0  0  0  0  0  0  0  0  0
   -1.4115   19.0694  -35.6811 H   0  0  0  0  0  0  0  0  0  0  0  0
   -1.3080   18.8500  -33.6190 O   0  0  0  0  0  0  0  0  0  0  0  0
   -1.8090   19.9620  -32.9260 C   0  0  0  0  0  0  0  0  0  0  0  0
   -1.2830   20.2420  -31.6590 C   0  0  0  0  0  0  0  0  0  0  0  0
   -0.5149   19.5827  -31.2285 H   0  0  0  0  0  0  0  0  0  0  0  0
   -1.7270   21.3530  -30.9380 C   0  0  0  0  0  0  0  0  0  0  0  0
   -1.3194   21.5516  -29.9358 H   0  0  0  0  0  0  0  0  0  0  0  0
   -2.6870   22.2160  -31.4810 C   0  0  0  0  0  0  0  0  0  0  0  0
   -3.1070   23.3560  -30.7110 N   0  0  0  0  0  0  0  0  0  0  0  0
   -4.3310   23.7670  -30.5380 C   0  0  0  0  0  0  0  0  0  0  0  0
   -5.3720   23.1450  -31.1550 N   0  0  0  0  0  0  0  0  0  0  0  0
   -6.6490   23.5940  -31.0230 C   0  0  0  0  0  0  0  0  0  0  0  0
   -7.7640   22.8350  -31.6790 C   0  0  0  0  0  0  0  0  0  0  0  0
   -8.4775   23.5451  -32.1224 H   0  0  0  0  0  0  0  0  0  0  0  0
   -8.2749   22.2173  -30.9257 H   0  0  0  0  0  0  0  0  0  0  0  0
   -7.2380   21.9900  -32.7030 O   0  0  0  0  0  0  0  0  0  0  0  0
   -7.1830   20.5830  -32.6610 C   0  0  0  0  0  0  0  0  0  0  0  0
   -5.9690   19.8790  -32.7950 C   0  0  0  0  0  0  0  0  0  0  0  0
   -5.0296   20.4352  -32.9300 H   0  0  0  0  0  0  0  0  0  0  0  0
   -5.9460   18.4760  -32.7580 C   0  0  0  0  0  0  0  0  0  0  0  0
   -4.6400   17.7430  -32.8630 C   0  0  0  0  0  0  0  0  0  0  0  0
   -4.2578   17.5285  -31.8541 H   0  0  0  0  0  0  0  0  0  0  0  0
   -4.7922   16.7985  -33.4059 H   0  0  0  0  0  0  0  0  0  0  0  0
   -3.9131   18.3649  -33.4059 H   0  0  0  0  0  0  0  0  0  0  0  0
   -7.1390   17.7710  -32.5470 C   0  0  0  0  0  0  0  0  0  0  0  0
   -7.1248   16.6723  -32.4953 H   0  0  0  0  0  0  0  0  0  0  0  0
   -8.3470   18.4600  -32.4020 C   0  0  0  0  0  0  0  0  0  0  0  0
   -9.2800   17.8984  -32.2467 H   0  0  0  0  0  0  0  0  0  0  0  0
   -8.3790   19.8640  -32.4530 C   0  0  0  0  0  0  0  0  0  0  0  0
   -9.6910   20.5950  -32.3310 C   0  0  0  0  0  0  0  0  0  0  0  0
   -9.9369   20.7320  -31.2676 H   0  0  0  0  0  0  0  0  0  0  0  0
   -9.6098   21.5779  -32.8182 H   0  0  0  0  0  0  0  0  0  0  0  0
  -10.4841   20.0087  -32.8182 H   0  0  0  0  0  0  0  0  0  0  0  0
   -6.9040   24.7200  -30.2320 C   0  0  0  0  0  0  0  0  0  0  0  0
   -7.9291   25.0991  -30.1074 H   0  0  0  0  0  0  0  0  0  0  0  0
   -5.8310   25.3500  -29.6060 C   0  0  0  0  0  0  0  0  0  0  0  0
   -6.0039   26.2380  -28.9802 H   0  0  0  0  0  0  0  0  0  0  0  0
   -4.5700   24.8680  -29.7680 N   0  0  0  0  0  0  0  0  0  0  0  0
   -3.7770   25.3590  -29.2960 H   0  0  0  0  0  0  0  0  0  0  0  0
   -3.2520   21.9150  -32.7350 C   0  0  0  0  0  0  0  0  0  0  0  0
   -4.0420   22.5588  -33.1491 H   0  0  0  0  0  0  0  0  0  0  0  0
   -2.8120   20.8000  -33.4560 C   0  0  0  0  0  0  0  0  0  0  0  0
   -3.2499   20.5760  -34.4399 H   0  0  0  0  0  0  0  0  0  0  0  0
    1.6640   19.8350  -34.5770 C   0  0  0  0  0  0  0  0  0  0  0  0
    2.0106   18.8263  -34.3081 H   0  0  0  0  0  0  0  0  0  0  0  0
    2.5690   20.9000  -34.6170 C   0  0  0  0  0  0  0  0  0  0  0  0
    3.6297   20.7361  -34.3758 H   0  0  0  0  0  0  0  0  0  0  0  0
  1  2  1  0
  2  3  2  0
  3  4  1  0
  4  5  1  0
  4  6  2  0
  6  7  1  0
  7  8  1  0
  7  9  1  0
  7 10  1  0
 10 11  1  0
 11 12  2  0
 12 13  1  0
 12 14  1  0
 14 15  1  0
 14 16  2  0
 16 17  1  0
 17 18  2  0
 18 19  1  0
 19 20  2  0
 20 21  1  0
 21 22  1  0
 21 23  1  0
 21 24  1  0
 24 25  1  0
 25 26  2  0
 26 27  1  0
 26 28  1  0
 28 29  1  0
 29 30  1  0
 29 31  1  0
 29 32  1  0
 28 33  2  0
 33 34  1  0
 33 35  1  0
 35 36  1  0
 35 37  2  0
 37 38  1  0
 38 39  1  0
 38 40  1  0
 38 41  1  0
 20 42  1  0
 42 43  1  0
 42 44  2  0
 44 45  1  0
 44 46  1  0
 46 47  1  0
 16 48  1  0
 48 49  1  0
 48 50  2  0
 50 51  1  0
  6 52  1  0
 52 53  1  0
 52 54  2  0
 54 55  1  0
 54  2  1  0
 50 11  1  0
 46 18  1  0
 37 25  1  0
M  END
>  <UniqueID>  (36) 
36

>  <SMILES>  (36) 
Cc1ccc(C)c(OCc2cc[nH]/c(=N/c3ccc(OCc4cccnc4)cc3)n2)c1

>  <Energy>  (36) 
65.66077259911634

>  <Genealogy>  (36) 
Cc1ccc(C)c(OCc2cc[nH]/c(=N/c3ccc(OCc4cccnc4)cc3)n2)c1 (cis-trans isomerization)
Cc1ccc(C)c(OCc2cc[nH]/c(=N/c3ccc(OCc4cccnc4)cc3)n2)c1 (3D coordinates assigned)
Cc1ccc(C)c(OCc2cc[nH]/c(=N/c3ccc(OCc4cccnc4)cc3)n2)c1 (optimized conformer: 65.66077259911634 kcal/mol)

>  <smiles>  (36) 
Cc1ccc(C)c(OCc2cc[nH]c(=Nc3ccc(OCc4cccnc4)cc3)n2)c1

>  <score_type>  (36) 
oracle

>  <origin>  (36) 
adgpu

>  <m_score__min__energy>  (36) 
-9.4100000000000001

>  <m_primary>  (36) 
energy

$$$$
36:0
     RDKit          3D

 40 42  0  0  0  0  0  0  0  0999 V2000
   -2.8790   19.4160  -26.9570 C   0  0  0  0  0  0  0  0  0  0  0  0
   -2.2810   20.7130  -27.4160 C   0  0  0  0  0  0  0  0  0  0  0  0
   -1.2800   21.3350  -26.6590 C   0  0  0  0  0  0  0  0  0  0  0  0
   -0.7570   22.5680  -27.0580 C   0  0  0  0  0  0  0  0  0  0  0  0
   -1.2300   23.2060  -28.2180 C   0  0  0  0  0  0  0  0  0  0  0  0
   -0.7160   24.5540  -28.5540 C   0  0  0  0  0  0  0  0  0  0  0  0
   -1.5450   25.5070  -29.2170 N   0  0  0  0  0  0  0  0  0  0  0  0
    0.4520   24.8860  -28.2160 O   0  0  0  0  0  0  0  0  0  0  0  0
   -2.2180   22.5590  -29.0010 C   0  0  0  0  0  0  0  0  0  0  0  0
   -2.6830   23.0970  -30.2090 O   0  0  0  0  0  0  0  0  0  0  0  0
   -4.0350   23.2520  -30.5570 C   0  0  0  0  0  0  0  0  0  0  0  0
   -4.8070   22.1340  -30.6350 N   0  0  0  0  0  0  0  0  0  0  0  0
   -6.1260   22.1720  -30.9620 C   0  0  0  0  0  0  0  0  0  0  0  0
   -6.8470   20.9710  -30.9930 O   0  0  0  0  0  0  0  0  0  0  0  0
   -6.6720   19.9390  -31.9280 C   0  0  0  0  0  0  0  0  0  0  0  0
   -7.2610   18.6940  -31.6740 C   0  0  0  0  0  0  0  0  0  0  0  0
   -7.0960   17.6370  -32.5750 C   0  0  0  0  0  0  0  0  0  0  0  0
   -6.3310   17.8110  -33.7320 C   0  0  0  0  0  0  0  0  0  0  0  0
   -6.1770   16.7500  -34.6210 O   0  0  0  0  0  0  0  0  0  0  0  0
   -5.7240   19.0490  -33.9840 C   0  0  0  0  0  0  0  0  0  0  0  0
   -5.8880   20.1070  -33.0840 C   0  0  0  0  0  0  0  0  0  0  0  0
   -6.7390   23.4110  -31.2090 C   0  0  0  0  0  0  0  0  0  0  0  0
   -5.9730   24.5750  -31.1580 C   0  0  0  0  0  0  0  0  0  0  0  0
   -4.6140   24.5070  -30.8450 C   0  0  0  0  0  0  0  0  0  0  0  0
   -3.8610   25.6760  -30.8440 O   0  0  0  0  0  0  0  0  0  0  0  0
   -2.7580   21.3410  -28.5740 C   0  0  0  0  0  0  0  0  0  0  0  0
   -2.8923   19.3872  -25.8575 H   0  0  0  0  0  0  0  0  0  0  0  0
   -3.9072   19.3310  -27.3385 H   0  0  0  0  0  0  0  0  0  0  0  0
   -2.2760   18.5789  -27.3385 H   0  0  0  0  0  0  0  0  0  0  0  0
   -0.9037   20.8506  -25.7459 H   0  0  0  0  0  0  0  0  0  0  0  0
    0.0328   23.0441  -26.4583 H   0  0  0  0  0  0  0  0  0  0  0  0
   -2.1710   25.2200  -30.0020 H   0  0  0  0  0  0  0  0  0  0  0  0
   -7.8566   18.5466  -30.7610 H   0  0  0  0  0  0  0  0  0  0  0  0
   -7.5699   16.6652  -32.3724 H   0  0  0  0  0  0  0  0  0  0  0  0
   -6.9050   16.5010  -35.2800 H   0  0  0  0  0  0  0  0  0  0  0  0
   -5.1176   19.1887  -34.8911 H   0  0  0  0  0  0  0  0  0  0  0  0
   -5.4022   21.0741  -33.2808 H   0  0  0  0  0  0  0  0  0  0  0  0
   -7.8131   23.4628  -31.4405 H   0  0  0  0  0  0  0  0  0  0  0  0
   -6.4404   25.5490  -31.3648 H   0  0  0  0  0  0  0  0  0  0  0  0
   -3.5661   20.8712  -29.1539 H   0  0  0  0  0  0  0  0  0  0  0  0
  1  2  1  0
  2  3  2  0
  3  4  1  0
  4  5  2  0
  5  6  1  0
  6  7  1  0
  6  8  2  0
  5  9  1  0
  9 10  1  0
 10 11  1  0
 11 12  2  0
 12 13  1  0
 13 14  1  0
 14 15  1  0
 15 16  2  0
 16 17  1  0
 17 18  2  0
 18 19  1  0
 18 20  1  0
 20 21  2  0
 13 22  2  0
 22 23  1  0
 23 24  2  0
 24 25  1  0
  9 26  2  0
 26  2  1  0
 24 11  1  0
 21 15  1  0
  1 27  1  0
  1 28  1  0
  1 29  1  0
  3 30  1  0
  4 31  1  0
  7 32  1  0
 16 33  1  0
 17 34  1  0
 19 35  1  0
 20 36  1  0
 21 37  1  0
 22 38  1  0
 23 39  1  0
 26 40  1  0
M  CHG  2   7  -1  25  -1
M  END
>  <UniqueID>  (37) 
37

>  <SMILES>  (37) 
Cc1ccc(C([NH-])=O)c(Oc2nc(Oc3ccc(O)cc3)ccc2[O-])c1

>  <Energy>  (37) 
62.17322592061954

>  <Genealogy>  (37) 
Cc1ccc(C([NH-])=O)c(Oc2nc(Oc3ccc(O)cc3)ccc2[O-])c1 (protonated)
Cc1ccc(C([NH-])=O)c(Oc2nc(Oc3ccc(O)cc3)ccc2[O-])c1 (3D coordinates assigned)
Cc1ccc(C([NH-])=O)c(Oc2nc(Oc3ccc(O)cc3)ccc2[O-])c1 (optimized conformer: 62.17322592061954 kcal/mol)

>  <smiles>  (37) 
Cc1ccc(C(N)=O)c(Oc2nc(Oc3ccc(O)cc3)ccc2O)c1

>  <score_type>  (37) 
oracle

>  <origin>  (37) 
adgpu

>  <m_score__min__energy>  (37) 
-13.74

>  <m_primary>  (37) 
energy

$$$$
37:0
     RDKit          3D

 55 58  0  0  0  0  0  0  0  0999 V2000
    0.1210   22.2960  -26.2340 C   0  0  0  0  0  0  0  0  0  0  0  0
   -0.7150   22.6660  -27.4290 C   0  0  0  0  0  0  0  0  0  0  0  0
   -0.7590   23.9990  -27.8680 C   0  0  0  0  0  0  0  0  0  0  0  0
   -1.5380   24.3590  -28.9710 C   0  0  0  0  0  0  0  0  0  0  0  0
   -1.6060   25.6970  -29.3460 O   0  0  0  0  0  0  0  0  0  0  0  0
   -2.2680   23.3790  -29.6690 C   0  0  0  0  0  0  0  0  0  0  0  0
   -3.0570   23.6900  -30.7840 O   0  0  0  0  0  0  0  0  0  0  0  0
   -4.4320   23.9570  -30.7360 C   0  0  0  0  0  0  0  0  0  0  0  0
   -4.8740   25.2120  -30.4370 N   0  0  0  0  0  0  0  0  0  0  0  0
   -6.1940   25.5310  -30.4320 C   0  0  0  0  0  0  0  0  0  0  0  0
   -7.1450   24.5660  -30.7560 C   0  0  0  0  0  0  0  0  0  0  0  0
   -6.7280   23.2740  -31.0730 C   0  0  0  0  0  0  0  0  0  0  0  0
   -5.3630   22.9460  -31.0550 C   0  0  0  0  0  0  0  0  0  0  0  0
   -4.9320   21.5660  -31.3820 C   0  0  0  0  0  0  0  0  0  0  0  0
   -5.6470   20.5910  -31.0230 O   0  0  0  0  0  0  0  0  0  0  0  0
   -3.6780   21.3270  -32.0390 N   0  0  0  0  0  0  0  0  0  0  0  0
   -3.3770   20.1360  -32.7890 C   0  0  0  0  0  0  0  0  0  0  0  0
   -2.1090   19.5310  -32.7260 C   0  0  0  0  0  0  0  0  0  0  0  0
   -1.8510   18.3560  -33.4400 C   0  0  0  0  0  0  0  0  0  0  0  0
   -2.8580   17.7680  -34.2170 C   0  0  0  0  0  0  0  0  0  0  0  0
   -2.5570   16.2770  -35.1050 S   0  0  0  0  0  0  0  0  0  0  0  0
   -3.5380   16.1950  -36.2420 O   0  0  0  0  0  0  0  0  0  0  0  0
   -1.1640   16.2880  -35.6700 O   0  0  0  0  0  0  0  0  0  0  0  0
   -2.7700   14.9170  -34.0230 N   0  0  0  0  0  0  0  0  0  0  0  0
   -3.4160   13.7700  -34.6990 C   0  0  0  0  0  0  0  0  0  0  0  0
   -4.9210   13.6690  -34.3940 C   0  0  0  0  0  0  0  0  0  0  0  0
   -5.4710   14.9540  -34.2180 O   0  0  0  0  0  0  0  0  0  0  0  0
   -4.9860   15.5330  -33.0180 C   0  0  0  0  0  0  0  0  0  0  0  0
   -3.4720   15.3080  -32.7880 C   0  0  0  0  0  0  0  0  0  0  0  0
   -4.1270   18.3560  -34.2640 C   0  0  0  0  0  0  0  0  0  0  0  0
   -4.3860   19.5280  -33.5500 C   0  0  0  0  0  0  0  0  0  0  0  0
   -2.2490   22.0570  -29.2140 C   0  0  0  0  0  0  0  0  0  0  0  0
   -1.4760   21.6930  -28.1060 C   0  0  0  0  0  0  0  0  0  0  0  0
   -1.4840   20.0090  -27.5910 Cl  0  0  0  0  0  0  0  0  0  0  0  0
   -0.4285   22.5392  -25.3126 H   0  0  0  0  0  0  0  0  0  0  0  0
    0.3378   21.2178  -26.2579 H   0  0  0  0  0  0  0  0  0  0  0  0
    1.0648   22.8605  -26.2579 H   0  0  0  0  0  0  0  0  0  0  0  0
   -0.1752   24.7667  -27.3391 H   0  0  0  0  0  0  0  0  0  0  0  0
   -6.5123   26.5514  -30.1721 H   0  0  0  0  0  0  0  0  0  0  0  0
   -8.2150   24.8210  -30.7617 H   0  0  0  0  0  0  0  0  0  0  0  0
   -7.4717   22.5082  -31.3384 H   0  0  0  0  0  0  0  0  0  0  0  0
   -2.9110   22.0230  -31.8940 H   0  0  0  0  0  0  0  0  0  0  0  0
   -1.3163   19.9839  -32.1124 H   0  0  0  0  0  0  0  0  0  0  0  0
   -0.8547   17.8923  -33.3913 H   0  0  0  0  0  0  0  0  0  0  0  0
   -3.2842   13.8825  -35.7853 H   0  0  0  0  0  0  0  0  0  0  0  0
   -2.9394   12.8526  -34.3232 H   0  0  0  0  0  0  0  0  0  0  0  0
   -5.4284   13.1687  -35.2320 H   0  0  0  0  0  0  0  0  0  0  0  0
   -5.0609   13.0899  -33.4693 H   0  0  0  0  0  0  0  0  0  0  0  0
   -5.1750   16.6161  -33.0535 H   0  0  0  0  0  0  0  0  0  0  0  0
   -5.5144   15.0426  -32.1872 H   0  0  0  0  0  0  0  0  0  0  0  0
   -3.0292   16.2413  -32.4100 H   0  0  0  0  0  0  0  0  0  0  0  0
   -3.3603   14.4877  -32.0637 H   0  0  0  0  0  0  0  0  0  0  0  0
   -4.9234   17.8934  -34.8655 H   0  0  0  0  0  0  0  0  0  0  0  0
   -5.3893   19.9777  -33.5848 H   0  0  0  0  0  0  0  0  0  0  0  0
   -2.8485   21.2946  -29.7330 H   0  0  0  0  0  0  0  0  0  0  0  0
  1  2  1  0
  2  3  2  0
  3  4  1  0
  4  5  1  0
  4  6  2  0
  6  7  1  0
  7  8  1  0
  8  9  2  0
  9 10  1  0
 10 11  2  0
 11 12  1  0
 12 13  2  0
 13 14  1  0
 14 15  2  0
 14 16  1  0
 16 17  1  0
 17 18  2  0
 18 19  1  0
 19 20  2  0
 20 21  1  0
 21 22  2  0
 21 23  2  0
 21 24  1  0
 24 25  1  0
 25 26  1  0
 26 27  1  0
 27 28  1  0
 28 29  1  0
 20 30  1  0
 30 31  2  0
  6 32  1  0
 32 33  2  0
 33 34  1  0
 33  2  1  0
 13  8  1  0
 31 17  1  0
 29 24  1  0
  1 35  1  0
  1 36  1  0
  1 37  1  0
  3 38  1  0
 10 39  1  0
 11 40  1  0
 12 41  1  0
 16 42  1  0
 18 43  1  0
 19 44  1  0
 25 45  1  0
 25 46  1  0
 26 47  1  0
 26 48  1  0
 28 49  1  0
 28 50  1  0
 29 51  1  0
 29 52  1  0
 30 53  1  0
 31 54  1  0
 32 55  1  0
M  CHG  1   5  -1
M  END
>  <UniqueID>  (38) 
38

>  <SMILES>  (38) 
Cc1cc([O-])c(Oc2ncccc2C(=O)Nc2ccc(S(=O)(=O)N3CCOCC3)cc2)cc1Cl

>  <Energy>  (38) 
83.63808747057584

>  <Genealogy>  (38) 
Cc1cc([O-])c(Oc2ncccc2C(=O)Nc2ccc(S(=O)(=O)N3CCOCC3)cc2)cc1Cl (protonated)
Cc1cc([O-])c(Oc2ncccc2C(=O)Nc2ccc(S(=O)(=O)N3CCOCC3)cc2)cc1Cl (3D coordinates assigned)
Cc1cc([O-])c(Oc2ncccc2C(=O)Nc2ccc(S(=O)(=O)N3CCOCC3)cc2)cc1Cl (nonaromatic ring conformer: 83.63808747057584 kcal/mol)

>  <smiles>  (38) 
Cc1cc(O)c(Oc2ncccc2C(=O)Nc2ccc(S(=O)(=O)N3CCOCC3)cc2)cc1Cl

>  <score_type>  (38) 
oracle

>  <origin>  (38) 
adgpu

>  <m_score__min__energy>  (38) 
-12.4

>  <m_primary>  (38) 
energy

$$$$
38:0
     RDKit          3D

 49 51  0  0  0  0  0  0  0  0999 V2000
   -0.5490   23.2870  -29.7070 O   0  0  0  0  0  0  0  0  0  0  0  0
   -1.5900   22.6310  -29.4220 C   0  0  0  0  0  0  0  0  0  0  0  0
   -2.8340   22.9350  -30.1600 C   0  0  0  0  0  0  0  0  0  0  0  0
   -3.4810   21.8990  -30.8520 C   0  0  0  0  0  0  0  0  0  0  0  0
   -4.7020   22.1310  -31.4990 C   0  0  0  0  0  0  0  0  0  0  0  0
   -5.5430   20.7980  -32.2930 S   0  0  0  0  0  0  0  0  0  0  0  0
   -5.0600   20.6770  -33.7110 O   0  0  0  0  0  0  0  0  0  0  0  0
   -5.2160   19.5160  -31.5780 O   0  0  0  0  0  0  0  0  0  0  0  0
   -7.2740   21.0350  -32.2900 N   0  0  0  0  0  0  0  0  0  0  0  0
   -7.7150   21.6060  -31.0050 C   0  0  0  0  0  0  0  0  0  0  0  0
   -9.2530   21.5690  -30.8900 C   0  0  0  0  0  0  0  0  0  0  0  0
   -9.8480   21.3120  -32.1460 O   0  0  0  0  0  0  0  0  0  0  0  0
   -9.4960   20.0130  -32.5910 C   0  0  0  0  0  0  0  0  0  0  0  0
   -7.9730   19.7690  -32.5510 C   0  0  0  0  0  0  0  0  0  0  0  0
   -5.2610   23.4150  -31.4840 C   0  0  0  0  0  0  0  0  0  0  0  0
   -4.6040   24.4590  -30.8260 C   0  0  0  0  0  0  0  0  0  0  0  0
   -3.3920   24.2260  -30.1670 C   0  0  0  0  0  0  0  0  0  0  0  0
   -2.7470   25.2860  -29.5390 O   0  0  0  0  0  0  0  0  0  0  0  0
   -1.5290   21.5030  -28.5070 N   0  0  0  0  0  0  0  0  0  0  0  0
   -0.4480   20.5530  -28.8830 C   0  0  0  0  0  0  0  0  0  0  0  0
   -0.7760   19.0600  -28.6510 C   0  0  0  0  0  0  0  0  0  0  0  0
   -0.7580   18.6500  -27.1790 C   0  0  0  0  0  0  0  0  0  0  0  0
   -1.7370   19.4530  -26.3220 C   0  0  0  0  0  0  0  0  0  0  0  0
   -1.2090   20.8600  -26.0200 C   0  0  0  0  0  0  0  0  0  0  0  0
   -1.6010   21.9160  -27.0700 C   0  0  0  0  0  0  0  0  0  0  0  0
   -3.0262   20.8980  -30.8865 H   0  0  0  0  0  0  0  0  0  0  0  0
   -7.2774   21.0225  -30.1816 H   0  0  0  0  0  0  0  0  0  0  0  0
   -7.3818   22.6529  -30.9507 H   0  0  0  0  0  0  0  0  0  0  0  0
   -9.5422   20.7752  -30.1856 H   0  0  0  0  0  0  0  0  0  0  0  0
   -9.6016   22.5484  -30.5305 H   0  0  0  0  0  0  0  0  0  0  0  0
   -9.9893   19.2725  -31.9442 H   0  0  0  0  0  0  0  0  0  0  0  0
   -9.8232   19.9171  -33.6368 H   0  0  0  0  0  0  0  0  0  0  0  0
   -7.7389   19.0507  -31.7514 H   0  0  0  0  0  0  0  0  0  0  0  0
   -7.6438   19.3647  -33.5196 H   0  0  0  0  0  0  0  0  0  0  0  0
   -6.2190   23.6025  -31.9910 H   0  0  0  0  0  0  0  0  0  0  0  0
   -5.0419   25.4681  -30.8264 H   0  0  0  0  0  0  0  0  0  0  0  0
   -2.4090   20.9610  -28.6680 H   0  0  0  0  0  0  0  0  0  0  0  0
   -0.2294   20.6916  -29.9521 H   0  0  0  0  0  0  0  0  0  0  0  0
    0.4045   20.7845  -28.2275 H   0  0  0  0  0  0  0  0  0  0  0  0
   -1.7785   18.8574  -29.0559 H   0  0  0  0  0  0  0  0  0  0  0  0
    0.0064   18.4759  -29.1576 H   0  0  0  0  0  0  0  0  0  0  0  0
   -1.0232   17.5848  -27.1088 H   0  0  0  0  0  0  0  0  0  0  0  0
    0.2536   18.8481  -26.7951 H   0  0  0  0  0  0  0  0  0  0  0  0
   -2.6927   19.5393  -26.8597 H   0  0  0  0  0  0  0  0  0  0  0  0
   -1.8670   18.9245  -25.3661 H   0  0  0  0  0  0  0  0  0  0  0  0
   -1.6080   21.1771  -25.0452 H   0  0  0  0  0  0  0  0  0  0  0  0
   -0.1109   20.7959  -26.0284 H   0  0  0  0  0  0  0  0  0  0  0  0
   -2.6376   22.2207  -26.8636 H   0  0  0  0  0  0  0  0  0  0  0  0
   -0.8535   22.7160  -26.9643 H   0  0  0  0  0  0  0  0  0  0  0  0
  1  2  2  0
  2  3  1  0
  3  4  2  0
  4  5  1  0
  5  6  1  0
  6  7  2  0
  6  8  2  0
  6  9  1  0
  9 10  1  0
 10 11  1  0
 11 12  1  0
 12 13  1  0
 13 14  1  0
  5 15  2  0
 15 16  1  0
 16 17  2  0
 17 18  1  0
  2 19  1  0
 19 20  1  0
 20 21  1  0
 21 22  1  0
 22 23  1  0
 23 24  1  0
 24 25  1  0
 17  3  1  0
 25 19  1  0
 14  9  1  0
  4 26  1  0
 10 27  1  0
 10 28  1  0
 11 29  1  0
 11 30  1  0
 13 31  1  0
 13 32  1  0
 14 33  1  0
 14 34  1  0
 15 35  1  0
 16 36  1  0
 19 37  1  0
 20 38  1  0
 20 39  1  0
 21 40  1  0
 21 41  1  0
 22 42  1  0
 22 43  1  0
 23 44  1  0
 23 45  1  0
 24 46  1  0
 24 47  1  0
 25 48  1  0
 25 49  1  0
M  CHG  2  18  -1  19   1
M  END
>  <UniqueID>  (39) 
39

>  <SMILES>  (39) 
O=C(c1cc(S(=O)(=O)N2CCOCC2)ccc1[O-])[NH+]1CCCCCC1

>  <Energy>  (39) 
75.55232281399852

>  <Genealogy>  (39) 
O=C(c1cc(S(=O)(=O)N2CCOCC2)ccc1[O-])[NH+]1CCCCCC1 (protonated)
O=C(c1cc(S(=O)(=O)N2CCOCC2)ccc1[O-])[NH+]1CCCCCC1 (3D coordinates assigned)
O=C(c1cc(S(=O)(=O)N2CCOCC2)ccc1[O-])[NH+]1CCCCCC1 (nonaromatic ring conformer: 75.55232281399852 kcal/mol)

>  <smiles>  (39) 
O=C(c1cc(S(=O)(=O)N2CCOCC2)ccc1O)N1CCCCCC1

>  <score_type>  (39) 
oracle

>  <origin>  (39) 
adgpu

>  <m_score__min__energy>  (39) 
-8.7699999999999996

>  <m_primary>  (39) 
energy

$$$$
39:0
     RDKit          3D

 83 88  0  0  1  0  0  0  0  0999 V2000
   -5.6450   14.2390  -33.8570 C   0  0  0  0  0  0  0  0  0  0  0  0
   -5.0030   14.8060  -34.9740 O   0  0  0  0  0  0  0  0  0  0  0  0
   -3.8500   15.5670  -34.9130 C   0  0  0  0  0  0  0  0  0  0  0  0
   -2.6560   14.9300  -35.0980 C   0  0  0  0  0  0  0  0  0  0  0  0
   -1.4320   15.6030  -35.0570 C   0  0  0  0  0  0  0  0  0  0  0  0
   -0.2340   14.8800  -35.2500 N   0  0  0  0  0  0  0  0  0  0  0  0
    0.4390   14.7340  -36.5230 C   0  0  0  0  0  0  0  0  0  0  0  0
    1.8440   15.2350  -36.4380 C   0  0  0  0  0  0  0  0  0  0  0  0
    2.4650   14.8920  -35.1970 N   0  0  0  0  0  0  0  0  0  0  0  0
    2.9840   16.0020  -34.4520 C   0  0  0  0  0  0  0  0  0  0  0  0
    1.7860   13.9010  -34.4190 C   0  0  0  0  0  0  0  0  0  0  0  0
    0.3650   14.2510  -34.0910 C   0  0  0  0  0  0  0  0  0  0  0  0
   -1.5030   16.9530  -34.8140 C   0  0  0  0  0  0  0  0  0  0  0  0
   -2.7300   17.6010  -34.6230 C   0  0  0  0  0  0  0  0  0  0  0  0
   -3.9320   16.9520  -34.6630 C   0  0  0  0  0  0  0  0  0  0  0  0
   -5.2020   17.5070  -34.4510 N   0  0  0  0  0  0  0  0  0  0  0  0
   -5.5740   18.7130  -33.8440 C   0  0  0  0  0  0  0  0  0  0  0  0
   -4.5640   19.4920  -33.3540 N   0  0  0  0  0  0  0  0  0  0  0  0
   -4.7770   20.6410  -32.7260 C   0  0  0  0  0  0  0  0  0  0  0  0
   -3.7920   21.3090  -32.2720 N   0  0  0  0  0  0  0  0  0  0  0  0
   -2.4430   20.9120  -32.3830 C   0  0  0  0  0  0  0  0  0  0  0  0
   -1.7540   20.2870  -31.3610 C   0  0  0  0  0  0  0  0  0  0  0  0
   -0.4300   19.9150  -31.4580 C   0  0  0  0  0  0  0  0  0  0  0  0
    0.2730   20.1620  -32.6160 C   0  0  0  0  0  0  0  0  0  0  0  0
    1.6910   19.7500  -32.6840 C   0  0  0  0  0  0  0  0  0  0  0  0
   -0.3840   20.7920  -33.6710 C   0  0  0  0  0  0  0  0  0  0  0  0
    0.5810   21.0880  -35.0990 S   0  0  0  0  0  0  0  0  0  0  0  0
   -0.3260   21.1820  -36.3170 O   0  0  0  0  0  0  0  0  0  0  0  0
    1.3540   22.3840  -34.9410 O   0  0  0  0  0  0  0  0  0  0  0  0
    1.7060   19.8450  -35.4260 N   0  0  0  0  0  0  0  0  0  0  0  0
    2.3800   20.1150  -36.6810 C   0  0  0  0  0  0  0  0  0  0  0  0
    1.7680   19.2150  -37.7280 C   0  0  0  0  0  0  0  0  0  0  0  0
    0.6290   18.5190  -37.0340 C   0  0  0  0  0  0  0  0  0  0  0  0
    1.0680   18.5540  -35.5920 C   0  0  0  0  0  0  0  0  0  0  0  0
   -1.6960   21.1490  -33.5450 C   0  0  0  0  0  0  0  0  0  0  0  0
   -6.0520   21.1170  -32.5360 C   0  0  0  0  0  0  0  0  0  0  0  0
   -6.3560   22.3730  -31.8600 C   0  0  0  0  0  0  0  0  0  0  0  0
   -5.4380   23.1180  -31.2010 N   0  0  0  0  0  0  0  0  0  0  0  0
   -5.9990   24.2160  -30.6770 C   0  0  0  0  0  0  0  0  0  0  0  0
   -5.3530   25.2980  -29.8790 C   0  0  0  0  0  0  0  0  0  0  0  0
   -6.2320   26.3500  -29.7300 F   0  0  0  0  0  0  0  0  0  0  0  0
   -4.1990   25.6800  -30.5210 F   0  0  0  0  0  0  0  0  0  0  0  0
   -5.0140   24.7550  -28.6590 F   0  0  0  0  0  0  0  0  0  0  0  0
   -7.3350   24.1710  -31.0150 C   0  0  0  0  0  0  0  0  0  0  0  0
   -7.5040   23.0340  -31.7330 N   0  0  0  0  0  0  0  0  0  0  0  0
   -7.0860   20.3490  -33.0210 C   0  0  0  0  0  0  0  0  0  0  0  0
   -6.8090   19.1730  -33.6570 N   0  0  0  0  0  0  0  0  0  0  0  0
   -5.1954   14.6361  -32.9350 H   0  0  0  0  0  0  0  0  0  0  0  0
   -6.7152   14.4921  -33.8816 H   0  0  0  0  0  0  0  0  0  0  0  0
   -5.5261   13.1457  -33.8816 H   0  0  0  0  0  0  0  0  0  0  0  0
   -2.6580   13.8463  -35.2864 H   0  0  0  0  0  0  0  0  0  0  0  0
    0.4512   13.6709  -36.8052 H   0  0  0  0  0  0  0  0  0  0  0  0
   -0.1015   15.3232  -37.2784 H   0  0  0  0  0  0  0  0  0  0  0  0
    2.4276   14.7946  -37.2599 H   0  0  0  0  0  0  0  0  0  0  0  0
    1.8164   16.3323  -36.5101 H   0  0  0  0  0  0  0  0  0  0  0  0
    2.8885   15.7977  -33.3754 H   0  0  0  0  0  0  0  0  0  0  0  0
    4.0444   16.1494  -34.7046 H   0  0  0  0  0  0  0  0  0  0  0  0
    2.4172   16.9103  -34.7046 H   0  0  0  0  0  0  0  0  0  0  0  0
    1.7882   12.9568  -34.9834 H   0  0  0  0  0  0  0  0  0  0  0  0
    2.3237   13.8240  -33.4625 H   0  0  0  0  0  0  0  0  0  0  0  0
   -0.1923   13.3377  -33.8352 H   0  0  0  0  0  0  0  0  0  0  0  0
    0.3352   14.9380  -33.2325 H   0  0  0  0  0  0  0  0  0  0  0  0
   -0.5736   17.5396  -34.7683 H   0  0  0  0  0  0  0  0  0  0  0  0
   -2.7259   18.6842  -34.4316 H   0  0  0  0  0  0  0  0  0  0  0  0
   -6.0220   16.9130  -34.8110 H   0  0  0  0  0  0  0  0  0  0  0  0
   -2.2887   20.0758  -30.4232 H   0  0  0  0  0  0  0  0  0  0  0  0
    0.0653   19.4204  -30.6095 H   0  0  0  0  0  0  0  0  0  0  0  0
    2.0885   19.6345  -31.6649 H   0  0  0  0  0  0  0  0  0  0  0  0
    1.7692   18.7920  -33.2189 H   0  0  0  0  0  0  0  0  0  0  0  0
    2.2704   20.5169  -33.2189 H   0  0  0  0  0  0  0  0  0  0  0  0
    2.2399   21.1689  -36.9634 H   0  0  0  0  0  0  0  0  0  0  0  0
    3.4595   19.9246  -36.5897 H   0  0  0  0  0  0  0  0  0  0  0  0
    1.3976   19.8079  -38.5773 H   0  0  0  0  0  0  0  0  0  0  0  0
    2.4994   18.5009  -38.1343 H   0  0  0  0  0  0  0  0  0  0  0  0
   -0.3169   19.0621  -37.1766 H   0  0  0  0  0  0  0  0  0  0  0  0
    0.4340   17.5047  -37.4125 H   0  0  0  0  0  0  0  0  0  0  0  0
    0.2009   18.4620  -34.9214 H   0  0  0  0  0  0  0  0  0  0  0  0
    1.7456   17.7232  -35.3458 H   0  0  0  0  0  0  0  0  0  0  0  0
   -2.1890   21.6451  -34.3940 H   0  0  0  0  0  0  0  0  0  0  0  0
   -8.1079   24.9091  -30.7544 H   0  0  0  0  0  0  0  0  0  0  0  0
   -8.4370   22.7740  -32.1070 H   0  0  0  0  0  0  0  0  0  0  0  0
   -8.1277   20.6801  -32.8972 H   0  0  0  0  0  0  0  0  0  0  0  0
   -7.6480   18.6440  -33.9560 H   0  0  0  0  0  0  0  0  0  0  0  0
  1  2  1  0
  2  3  1  0
  3  4  2  0
  4  5  1  0
  5  6  1  0
  6  7  1  0
  7  8  1  0
  8  9  1  0
  9 10  1  0
  9 11  1  0
 11 12  1  0
  5 13  2  0
 13 14  1  0
 14 15  2  0
 15 16  1  0
 16 17  1  0
 17 18  2  0
 18 19  1  0
 19 20  2  0
 20 21  1  0
 21 22  2  0
 22 23  1  0
 23 24  2  0
 24 25  1  0
 24 26  1  0
 26 27  1  0
 27 28  2  0
 27 29  2  0
 27 30  1  0
 30 31  1  0
 31 32  1  0
 32 33  1  0
 33 34  1  0
 26 35  2  0
 19 36  1  0
 36 37  1  0
 37 38  2  0
 38 39  1  0
 39 40  1  0
 40 41  1  0
 40 42  1  0
 40 43  1  0
 39 44  2  0
 44 45  1  0
 36 46  2  0
 46 47  1  0
 15  3  1  0
 47 17  1  0
 12  6  1  0
 35 21  1  0
 45 37  1  0
 34 30  1  0
  1 48  1  0
  1 49  1  0
  1 50  1  0
  4 51  1  0
  7 52  1  0
  7 53  1  0
  8 54  1  0
  8 55  1  0
 10 56  1  0
 10 57  1  0
 10 58  1  0
 11 59  1  0
 11 60  1  0
 12 61  1  0
 12 62  1  0
 13 63  1  0
 14 64  1  0
 16 65  1  0
 22 66  1  0
 23 67  1  0
 25 68  1  0
 25 69  1  0
 25 70  1  0
 31 71  1  0
 31 72  1  0
 32 73  1  0
 32 74  1  0
 33 75  1  0
 33 76  1  0
 34 77  1  0
 34 78  1  0
 35 79  1  0
 44 80  1  0
 45 81  1  0
 46 82  1  0
 47 83  1  0
M  END
>  <smiles>  (40) 
COc1cc(N2CCN(C)CC2)ccc1Nc1nc(=Nc2ccc(C)c(S(=O)(=O)N3CCCC3)c2)c(-c2nc(C(F)(F)F)c[nH]2)c[nH]1

>  <score_type>  (40) 
oracle

>  <origin>  (40) 
adgpu

>  <m_score__min__energy>  (40) 
-10.359999999999999

>  <m_primary>  (40) 
energy

$$$$
40:0
     RDKit          3D

 43 45  0  0  0  0  0  0  0  0999 V2000
   -1.7520   24.7550  -28.4370 H   0  0  0  0  0  0  0  0  0  0  0  0
   -2.1530   25.1430  -29.3200 N   0  0  0  0  0  0  0  0  0  0  0  0
   -3.3450   24.8260  -29.7080 C   0  0  0  0  0  0  0  0  0  0  0  0
   -3.8970   25.3060  -30.8410 N   0  0  0  0  0  0  0  0  0  0  0  0
   -5.1320   24.8490  -31.0420 N   0  0  0  0  0  0  0  0  0  0  0  0
   -5.5540   24.0120  -30.0680 C   0  0  0  0  0  0  0  0  0  0  0  0
   -7.1720   23.2450  -30.0570 S   0  0  0  0  0  0  0  0  0  0  0  0
   -7.3030   23.1320  -31.8770 C   0  0  0  0  0  0  0  0  0  0  0  0
   -8.3544   23.2661  -32.1712 H   0  0  0  0  0  0  0  0  0  0  0  0
   -6.6753   23.9173  -32.3234 H   0  0  0  0  0  0  0  0  0  0  0  0
   -6.8210   21.7950  -32.3690 C   0  0  0  0  0  0  0  0  0  0  0  0
   -5.4480   21.5340  -32.4930 C   0  0  0  0  0  0  0  0  0  0  0  0
   -4.7174   22.3206  -32.2531 H   0  0  0  0  0  0  0  0  0  0  0  0
   -5.0040   20.2790  -32.9200 C   0  0  0  0  0  0  0  0  0  0  0  0
   -3.9259   20.0813  -33.0127 H   0  0  0  0  0  0  0  0  0  0  0  0
   -5.9270   19.2730  -33.2300 C   0  0  0  0  0  0  0  0  0  0  0  0
   -5.3680   17.6860  -33.7450 S   0  0  0  0  0  0  0  0  0  0  0  0
   -6.4130   17.0460  -34.6170 O   0  0  0  0  0  0  0  0  0  0  0  0
   -5.1470   16.8200  -32.5360 O   0  0  0  0  0  0  0  0  0  0  0  0
   -3.8780   17.8800  -34.6240 N   0  0  0  0  0  0  0  0  0  0  0  0
   -2.7240   17.5450  -33.7900 C   0  0  0  0  0  0  0  0  0  0  0  0
   -3.0755   17.0657  -32.8644 H   0  0  0  0  0  0  0  0  0  0  0  0
   -2.0705   16.8617  -34.3521 H   0  0  0  0  0  0  0  0  0  0  0  0
   -1.9370   18.7840  -33.4370 C   0  0  0  0  0  0  0  0  0  0  0  0
   -2.1630   19.9640  -34.1660 C   0  0  0  0  0  0  0  0  0  0  0  0
   -2.8945   19.9668  -34.9875 H   0  0  0  0  0  0  0  0  0  0  0  0
   -1.4660   21.1320  -33.8550 C   0  0  0  0  0  0  0  0  0  0  0  0
   -1.6487   22.0508  -34.4316 H   0  0  0  0  0  0  0  0  0  0  0  0
   -0.5380   21.1360  -32.8140 C   0  0  0  0  0  0  0  0  0  0  0  0
    0.0121   22.0574  -32.5725 H   0  0  0  0  0  0  0  0  0  0  0  0
   -0.3060   19.9730  -32.0780 C   0  0  0  0  0  0  0  0  0  0  0  0
    0.4265   19.9840  -31.2575 H   0  0  0  0  0  0  0  0  0  0  0  0
   -1.0020   18.7850  -32.3770 C   0  0  0  0  0  0  0  0  0  0  0  0
   -0.7960   17.6040  -31.6450 O   0  0  0  0  0  0  0  0  0  0  0  0
    0.1010   16.5660  -32.0220 C   0  0  0  0  0  0  0  0  0  0  0  0
    0.5119   16.0906  -31.1191 H   0  0  0  0  0  0  0  0  0  0  0  0
   -0.4372   15.8152  -32.6192 H   0  0  0  0  0  0  0  0  0  0  0  0
    0.9219   16.9897  -32.6192 H   0  0  0  0  0  0  0  0  0  0  0  0
   -7.2990   19.5270  -33.0980 C   0  0  0  0  0  0  0  0  0  0  0  0
   -8.0279   18.7370  -33.3319 H   0  0  0  0  0  0  0  0  0  0  0  0
   -7.7440   20.7810  -32.6700 C   0  0  0  0  0  0  0  0  0  0  0  0
   -8.8221   20.9742  -32.5686 H   0  0  0  0  0  0  0  0  0  0  0  0
   -4.3810   23.7880  -28.8790 S   0  0  0  0  0  0  0  0  0  0  0  0
  1  2  1  0
  2  3  2  0
  3  4  1  0
  4  5  1  0
  5  6  2  0
  6  7  1  0
  7  8  1  0
  8  9  1  0
  8 10  1  0
  8 11  1  0
 11 12  2  0
 12 13  1  0
 12 14  1  0
 14 15  1  0
 14 16  2  0
 16 17  1  0
 17 18  2  0
 17 19  2  0
 17 20  1  0
 20 21  1  0
 21 22  1  0
 21 23  1  0
 21 24  1  0
 24 25  2  0
 25 26  1  0
 25 27  1  0
 27 28  1  0
 27 29  2  0
 29 30  1  0
 29 31  1  0
 31 32  1  0
 31 33  2  0
 33 34  1  0
 34 35  1  0
 35 36  1  0
 35 37  1  0
 35 38  1  0
 16 39  1  0
 39 40  1  0
 39 41  2  0
 41 42  1  0
  6 43  1  0
 43  3  1  0
 41 11  1  0
 33 24  1  0
M  CHG  2   4  -1  20  -1
M  END
>  <UniqueID>  (41) 
40

>  <SMILES>  (41) 
[H]/N=c1/[n-]nc(SCc2ccc(S(=O)(=O)[N-]Cc3ccccc3OC)cc2)s1

>  <Energy>  (41) 
74.28493764144422

>  <Genealogy>  (41) 
COc1ccccc1C[N-]S(=O)(=O)c1ccc(CSc2n[n-]c(=N)s2)cc1 (protonated)
[H]/N=c1/[n-]nc(SCc2ccc(S(=O)(=O)[N-]Cc3ccccc3OC)cc2)s1 (cis-trans isomerization)
[H]/N=c1/[n-]nc(SCc2ccc(S(=O)(=O)[N-]Cc3ccccc3OC)cc2)s1 (3D coordinates assigned)
[H]/N=c1/[n-]nc(SCc2ccc(S(=O)(=O)[N-]Cc3ccccc3OC)cc2)s1 (optimized conformer: 74.28493764144422 kcal/mol)

>  <smiles>  (41) 
COc1ccccc1CNS(=O)(=O)c1ccc(CSc2n[nH]c(=N)s2)cc1

>  <score_type>  (41) 
oracle

>  <origin>  (41) 
adgpu

>  <m_score__min__energy>  (41) 
-10.85

>  <m_primary>  (41) 
energy

$$$$
41:0
     RDKit          3D

 42 44  0  0  1  0  0  0  0  0999 V2000
   -6.1400   16.1390  -33.4340 C   0  0  0  0  0  0  0  0  0  0  0  0
   -5.6570   17.8410  -33.5850 S   0  0  0  0  0  0  0  0  0  0  0  0
   -5.7240   18.2770  -35.0290 O   0  0  0  0  0  0  0  0  0  0  0  0
   -4.2670   18.0340  -33.0680 O   0  0  0  0  0  0  0  0  0  0  0  0
   -6.7510   18.8920  -32.7110 C   0  0  0  0  0  0  0  0  0  0  0  0
   -7.7760   18.3450  -31.9410 C   0  0  0  0  0  0  0  0  0  0  0  0
   -8.6440   19.1830  -31.2480 C   0  0  0  0  0  0  0  0  0  0  0  0
   -8.5140   20.5660  -31.3030 C   0  0  0  0  0  0  0  0  0  0  0  0
   -9.3710   21.3820  -30.6180 F   0  0  0  0  0  0  0  0  0  0  0  0
   -7.4940   21.1060  -32.0680 C   0  0  0  0  0  0  0  0  0  0  0  0
   -7.2980   22.5120  -32.1740 N   0  0  0  0  0  0  0  0  0  0  0  0
   -6.5570   23.1800  -31.3870 C   0  0  0  0  0  0  0  0  0  0  0  0
   -6.4490   24.5420  -31.5960 C   0  0  0  0  0  0  0  0  0  0  0  0
   -5.6570   25.3070  -30.7680 C   0  0  0  0  0  0  0  0  0  0  0  0
   -5.0120   24.6700  -29.7720 N   0  0  0  0  0  0  0  0  0  0  0  0
   -5.1410   23.3250  -29.5930 C   0  0  0  0  0  0  0  0  0  0  0  0
   -4.4730   22.8040  -28.5960 N   0  0  0  0  0  0  0  0  0  0  0  0
   -3.6650   23.6700  -27.7740 C   0  0  0  0  0  0  0  0  0  0  0  0
   -2.2920   23.7200  -27.9810 C   0  0  0  0  0  0  0  0  0  0  0  0
   -1.4940   24.5480  -27.1990 C   0  0  0  0  0  0  0  0  0  0  0  0
   -2.0610   25.3300  -26.2060 C   0  0  0  0  0  0  0  0  0  0  0  0
   -1.2390   26.1880  -25.3950 C   0  0  0  0  0  0  0  0  0  0  0  0
   -0.5610   26.8770  -24.7260 N   0  0  0  0  0  0  0  0  0  0  0  0
   -3.4280   25.2820  -25.9980 C   0  0  0  0  0  0  0  0  0  0  0  0
   -4.2230   24.4540  -26.7800 C   0  0  0  0  0  0  0  0  0  0  0  0
   -5.9090   22.5760  -30.3950 N   0  0  0  0  0  0  0  0  0  0  0  0
   -6.6360   20.2780  -32.7550 C   0  0  0  0  0  0  0  0  0  0  0  0
   -5.6150   20.7890  -33.5230 O   0  0  0  0  0  0  0  0  0  0  0  0
   -6.2157   15.8724  -32.3695 H   0  0  0  0  0  0  0  0  0  0  0  0
   -7.1158   15.9903  -33.9195 H   0  0  0  0  0  0  0  0  0  0  0  0
   -5.3878   15.4999  -33.9195 H   0  0  0  0  0  0  0  0  0  0  0  0
   -7.8984   17.2535  -31.8813 H   0  0  0  0  0  0  0  0  0  0  0  0
   -9.4503   18.7418  -30.6437 H   0  0  0  0  0  0  0  0  0  0  0  0
   -6.9961   25.0157  -32.4244 H   0  0  0  0  0  0  0  0  0  0  0  0
   -5.5557   26.3925  -30.9143 H   0  0  0  0  0  0  0  0  0  0  0  0
   -4.4180   25.2580  -29.1540 H   0  0  0  0  0  0  0  0  0  0  0  0
   -1.8341   23.1017  -28.7671 H   0  0  0  0  0  0  0  0  0  0  0  0
   -0.4079   24.5821  -27.3697 H   0  0  0  0  0  0  0  0  0  0  0  0
   -3.8859   25.9006  -25.2121 H   0  0  0  0  0  0  0  0  0  0  0  0
   -5.3088   24.4212  -26.6070 H   0  0  0  0  0  0  0  0  0  0  0  0
   -6.0030   21.5620  -30.2580 H   0  0  0  0  0  0  0  0  0  0  0  0
   -5.0010   20.1190  -34.0060 H   0  0  0  0  0  0  0  0  0  0  0  0
  1  2  1  0
  2  3  2  0
  2  4  2  0
  2  5  1  0
  5  6  2  0
  6  7  1  0
  7  8  2  0
  8  9  1  0
  8 10  1  0
 10 11  1  0
 11 12  2  0
 12 13  1  0
 13 14  2  0
 14 15  1  0
 15 16  1  0
 16 17  2  0
 17 18  1  0
 18 19  2  0
 19 20  1  0
 20 21  2  0
 21 22  1  0
 22 23  3  0
 21 24  1  0
 24 25  2  0
 16 26  1  0
 10 27  2  0
 27 28  1  0
 27  5  1  0
 26 12  1  0
 25 18  1  0
  1 29  1  0
  1 30  1  0
  1 31  1  0
  6 32  1  0
  7 33  1  0
 13 34  1  0
 14 35  1  0
 15 36  1  0
 19 37  1  0
 20 38  1  0
 24 39  1  0
 25 40  1  0
 26 41  1  0
 28 42  1  0
M  END
>  <smiles>  (42) 
CS(=O)(=O)c1ccc(F)c(N=c2cc[nH]c(=Nc3ccc(C#N)cc3)[nH]2)c1O

>  <score_type>  (42) 
oracle

>  <origin>  (42) 
adgpu

>  <m_score__min__energy>  (42) 
-8.8200000000000003

>  <m_primary>  (42) 
energy

$$$$
42:0
     RDKit          3D

 51 54  0  0  0  0  0  0  0  0999 V2000
   -5.7340   26.3580  -31.2150 O   0  0  0  0  0  0  0  0  0  0  0  0
   -5.3300   25.2130  -30.3300 S   0  0  0  0  0  0  0  0  0  0  0  0
   -5.7250   25.5190  -28.9130 O   0  0  0  0  0  0  0  0  0  0  0  0
   -3.6090   25.0030  -30.4070 N   0  0  0  0  0  0  0  0  0  0  0  0
   -2.8200   24.3940  -29.3760 C   0  0  0  0  0  0  0  0  0  0  0  0
   -3.4240   23.4490  -28.5330 C   0  0  0  0  0  0  0  0  0  0  0  0
   -2.7130   22.8960  -27.4620 C   0  0  0  0  0  0  0  0  0  0  0  0
   -1.3910   23.2860  -27.2310 C   0  0  0  0  0  0  0  0  0  0  0  0
   -0.7620   24.1830  -28.1010 C   0  0  0  0  0  0  0  0  0  0  0  0
   -1.4690   24.7350  -29.1720 C   0  0  0  0  0  0  0  0  0  0  0  0
    0.5770   24.5230  -27.8790 O   0  0  0  0  0  0  0  0  0  0  0  0
    1.3820   23.7920  -26.9490 C   0  0  0  0  0  0  0  0  0  0  0  0
    0.5510   23.3960  -25.7220 C   0  0  0  0  0  0  0  0  0  0  0  0
   -0.6800   22.7920  -26.1320 O   0  0  0  0  0  0  0  0  0  0  0  0
   -6.1210   23.7450  -30.8980 C   0  0  0  0  0  0  0  0  0  0  0  0
   -5.7680   23.2090  -32.1430 C   0  0  0  0  0  0  0  0  0  0  0  0
   -6.2530   21.9590  -32.5340 C   0  0  0  0  0  0  0  0  0  0  0  0
   -7.1000   21.2360  -31.6840 C   0  0  0  0  0  0  0  0  0  0  0  0
   -7.5930   19.5950  -32.0910 S   0  0  0  0  0  0  0  0  0  0  0  0
   -8.6450   19.1510  -31.1130 O   0  0  0  0  0  0  0  0  0  0  0  0
   -8.1790   19.5700  -33.4740 O   0  0  0  0  0  0  0  0  0  0  0  0
   -6.1950   18.5420  -31.9970 N   0  0  0  0  0  0  0  0  0  0  0  0
   -6.5680   17.1290  -32.2310 C   0  0  0  0  0  0  0  0  0  0  0  0
   -6.8730   16.8190  -33.7090 C   0  0  0  0  0  0  0  0  0  0  0  0
   -5.9230   17.5300  -34.6880 C   0  0  0  0  0  0  0  0  0  0  0  0
   -4.6800   18.0690  -33.9840 C   0  0  0  0  0  0  0  0  0  0  0  0
   -5.0780   19.0350  -32.8560 C   0  0  0  0  0  0  0  0  0  0  0  0
   -7.4880   21.7900  -30.4560 C   0  0  0  0  0  0  0  0  0  0  0  0
   -7.0020   23.0410  -30.0650 C   0  0  0  0  0  0  0  0  0  0  0  0
   -4.4640   23.1405  -28.7153 H   0  0  0  0  0  0  0  0  0  0  0  0
   -3.1931   22.1567  -26.8041 H   0  0  0  0  0  0  0  0  0  0  0  0
   -0.9699   25.4366  -29.8566 H   0  0  0  0  0  0  0  0  0  0  0  0
    1.7651   22.8834  -27.4365 H   0  0  0  0  0  0  0  0  0  0  0  0
    2.2195   24.4270  -26.6242 H   0  0  0  0  0  0  0  0  0  0  0  0
    1.1217   22.6799  -25.1125 H   0  0  0  0  0  0  0  0  0  0  0  0
    0.3291   24.2980  -25.1328 H   0  0  0  0  0  0  0  0  0  0  0  0
   -5.1063   23.7747  -32.8154 H   0  0  0  0  0  0  0  0  0  0  0  0
   -5.9694   21.5414  -33.5113 H   0  0  0  0  0  0  0  0  0  0  0  0
   -5.8730   18.6000  -31.0020 H   0  0  0  0  0  0  0  0  0  0  0  0
   -5.7354   16.4888  -31.9040 H   0  0  0  0  0  0  0  0  0  0  0  0
   -7.4876   16.9345  -31.6595 H   0  0  0  0  0  0  0  0  0  0  0  0
   -6.7852   15.7334  -33.8635 H   0  0  0  0  0  0  0  0  0  0  0  0
   -7.8890   17.1861  -33.9161 H   0  0  0  0  0  0  0  0  0  0  0  0
   -5.6108   16.8149  -35.4633 H   0  0  0  0  0  0  0  0  0  0  0  0
   -6.4619   18.3818  -35.1285 H   0  0  0  0  0  0  0  0  0  0  0  0
   -4.1121   17.2288  -33.5579 H   0  0  0  0  0  0  0  0  0  0  0  0
   -4.0627   18.6107  -34.7158 H   0  0  0  0  0  0  0  0  0  0  0  0
   -4.1982   19.2011  -32.2170 H   0  0  0  0  0  0  0  0  0  0  0  0
   -5.4326   19.9575  -33.3389 H   0  0  0  0  0  0  0  0  0  0  0  0
   -8.1765   21.2389  -29.7986 H   0  0  0  0  0  0  0  0  0  0  0  0
   -7.3113   23.4738  -29.1022 H   0  0  0  0  0  0  0  0  0  0  0  0
  1  2  2  0
  2  3  2  0
  2  4  1  0
  4  5  1  0
  5  6  2  0
  6  7  1  0
  7  8  2  0
  8  9  1  0
  9 10  2  0
  9 11  1  0
 11 12  1  0
 12 13  1  0
 13 14  1  0
  2 15  1  0
 15 16  2  0
 16 17  1  0
 17 18  2  0
 18 19  1  0
 19 20  2  0
 19 21  2  0
 19 22  1  0
 22 23  1  0
 23 24  1  0
 24 25  1  0
 25 26  1  0
 26 27  1  0
 18 28  1  0
 28 29  2  0
 10  5  1  0
 29 15  1  0
 14  8  1  0
 27 22  1  0
  6 30  1  0
  7 31  1  0
 10 32  1  0
 12 33  1  0
 12 34  1  0
 13 35  1  0
 13 36  1  0
 16 37  1  0
 17 38  1  0
 22 39  1  0
 23 40  1  0
 23 41  1  0
 24 42  1  0
 24 43  1  0
 25 44  1  0
 25 45  1  0
 26 46  1  0
 26 47  1  0
 27 48  1  0
 27 49  1  0
 28 50  1  0
 29 51  1  0
M  CHG  2   4  -1  22   1
M  END
>  <UniqueID>  (43) 
41

>  <SMILES>  (43) 
O=S(=O)([N-]c1ccc2c(c1)OCCO2)c1ccc(S(=O)(=O)[NH+]2CCCCC2)cc1

>  <Energy>  (43) 
63.234037897256144

>  <Genealogy>  (43) 
O=S(=O)([N-]c1ccc2c(c1)OCCO2)c1ccc(S(=O)(=O)[NH+]2CCCCC2)cc1 (protonated)
O=S(=O)([N-]c1ccc2c(c1)OCCO2)c1ccc(S(=O)(=O)[NH+]2CCCCC2)cc1 (3D coordinates assigned)
O=S(=O)([N-]c1ccc2c(c1)OCCO2)c1ccc(S(=O)(=O)[NH+]2CCCCC2)cc1 (nonaromatic ring conformer: 63.234037897256144 kcal/mol)

>  <smiles>  (43) 
O=S(=O)(Nc1ccc2c(c1)OCCO2)c1ccc(S(=O)(=O)N2CCCCC2)cc1

>  <score_type>  (43) 
oracle

>  <origin>  (43) 
adgpu

>  <m_score__min__energy>  (43) 
-11.01

>  <m_primary>  (43) 
energy

$$$$
43:0
     RDKit          3D

 58 60  0  0  0  0  0  0  0  0999 V2000
   -0.2710   19.3860  -30.8860 C   0  0  0  0  0  0  0  0  0  0  0  0
   -1.1750   20.3330  -31.7050 C   0  0  0  0  0  0  0  0  0  0  0  0
   -0.3090   21.1410  -32.6950 C   0  0  0  0  0  0  0  0  0  0  0  0
   -2.1470   19.4540  -32.5300 C   0  0  0  0  0  0  0  0  0  0  0  0
   -1.9010   21.3050  -30.7520 C   0  0  0  0  0  0  0  0  0  0  0  0
   -1.2840   22.5270  -30.4010 C   0  0  0  0  0  0  0  0  0  0  0  0
   -1.9230   23.4450  -29.5650 C   0  0  0  0  0  0  0  0  0  0  0  0
   -3.1920   23.1660  -29.0460 C   0  0  0  0  0  0  0  0  0  0  0  0
   -3.9260   24.2010  -28.2410 C   0  0  0  0  0  0  0  0  0  0  0  0
   -5.0550   24.6950  -29.0210 N   0  0  0  0  0  0  0  0  0  0  0  0
   -4.9230   25.0390  -30.4090 C   0  0  0  0  0  0  0  0  0  0  0  0
   -3.8800   25.6180  -30.8110 O   0  0  0  0  0  0  0  0  0  0  0  0
   -5.9280   24.6820  -31.3690 N   0  0  0  0  0  0  0  0  0  0  0  0
   -6.3850   23.3510  -31.6250 C   0  0  0  0  0  0  0  0  0  0  0  0
   -5.5220   22.4400  -32.2460 C   0  0  0  0  0  0  0  0  0  0  0  0
   -5.9330   21.1230  -32.4700 C   0  0  0  0  0  0  0  0  0  0  0  0
   -7.2140   20.7080  -32.0840 C   0  0  0  0  0  0  0  0  0  0  0  0
   -7.7000   19.0240  -32.2920 S   0  0  0  0  0  0  0  0  0  0  0  0
   -7.9820   18.4170  -30.9450 O   0  0  0  0  0  0  0  0  0  0  0  0
   -8.9680   18.9750  -33.0990 O   0  0  0  0  0  0  0  0  0  0  0  0
   -6.4620   18.0870  -33.0920 N   0  0  0  0  0  0  0  0  0  0  0  0
   -6.0520   18.7360  -34.3520 C   0  0  0  0  0  0  0  0  0  0  0  0
   -5.2390   17.7630  -35.2310 C   0  0  0  0  0  0  0  0  0  0  0  0
   -4.7190   16.7020  -34.4550 O   0  0  0  0  0  0  0  0  0  0  0  0
   -5.7770   15.8920  -33.9640 C   0  0  0  0  0  0  0  0  0  0  0  0
   -6.9290   16.7180  -33.3500 C   0  0  0  0  0  0  0  0  0  0  0  0
   -8.0970   21.6360  -31.5130 C   0  0  0  0  0  0  0  0  0  0  0  0
   -7.6900   22.9560  -31.2990 C   0  0  0  0  0  0  0  0  0  0  0  0
   -3.8230   21.9640  -29.3900 C   0  0  0  0  0  0  0  0  0  0  0  0
   -3.1880   21.0430  -30.2260 C   0  0  0  0  0  0  0  0  0  0  0  0
   -0.4361   19.5590  -29.8123 H   0  0  0  0  0  0  0  0  0  0  0  0
   -0.5161   18.3421  -31.1312 H   0  0  0  0  0  0  0  0  0  0  0  0
    0.7832   19.5824  -31.1312 H   0  0  0  0  0  0  0  0  0  0  0  0
    0.3830   21.7867  -32.1344 H   0  0  0  0  0  0  0  0  0  0  0  0
    0.2663   20.4494  -33.3280 H   0  0  0  0  0  0  0  0  0  0  0  0
   -0.9592   21.7627  -33.3280 H   0  0  0  0  0  0  0  0  0  0  0  0
   -2.7869   18.8753  -31.8477 H   0  0  0  0  0  0  0  0  0  0  0  0
   -2.7747   20.0973  -33.1642 H   0  0  0  0  0  0  0  0  0  0  0  0
   -1.5698   18.7650  -33.1642 H   0  0  0  0  0  0  0  0  0  0  0  0
   -0.2828   22.7591  -30.7932 H   0  0  0  0  0  0  0  0  0  0  0  0
   -1.4257   24.3932  -29.3130 H   0  0  0  0  0  0  0  0  0  0  0  0
   -4.2920   23.7504  -27.3067 H   0  0  0  0  0  0  0  0  0  0  0  0
   -3.2486   25.0332  -27.9988 H   0  0  0  0  0  0  0  0  0  0  0  0
   -6.0010   24.5590  -28.6040 H   0  0  0  0  0  0  0  0  0  0  0  0
   -4.5176   22.7617  -32.5585 H   0  0  0  0  0  0  0  0  0  0  0  0
   -5.2478   20.4096  -32.9513 H   0  0  0  0  0  0  0  0  0  0  0  0
   -6.9497   19.0546  -34.9022 H   0  0  0  0  0  0  0  0  0  0  0  0
   -5.4213   19.6046  -34.1119 H   0  0  0  0  0  0  0  0  0  0  0  0
   -5.8933   17.3509  -36.0133 H   0  0  0  0  0  0  0  0  0  0  0  0
   -4.4008   18.3128  -35.6840 H   0  0  0  0  0  0  0  0  0  0  0  0
   -6.1777   15.2949  -34.7964 H   0  0  0  0  0  0  0  0  0  0  0  0
   -5.3643   15.2562  -33.1668 H   0  0  0  0  0  0  0  0  0  0  0  0
   -7.7761   16.7449  -34.0513 H   0  0  0  0  0  0  0  0  0  0  0  0
   -7.2515   16.2549  -32.4058 H   0  0  0  0  0  0  0  0  0  0  0  0
   -9.1138   21.3239  -31.2325 H   0  0  0  0  0  0  0  0  0  0  0  0
   -8.3948   23.6859  -30.8741 H   0  0  0  0  0  0  0  0  0  0  0  0
   -4.8270   21.7435  -28.9985 H   0  0  0  0  0  0  0  0  0  0  0  0
   -3.6956   20.1005  -30.4791 H   0  0  0  0  0  0  0  0  0  0  0  0
  1  2  1  0
  2  3  1  0
  2  4  1  0
  2  5  1  0
  5  6  2  0
  6  7  1  0
  7  8  2  0
  8  9  1  0
  9 10  1  0
 10 11  1  0
 11 12  2  0
 11 13  1  0
 13 14  1  0
 14 15  2  0
 15 16  1  0
 16 17  2  0
 17 18  1  0
 18 19  2  0
 18 20  2  0
 18 21  1  0
 21 22  1  0
 22 23  1  0
 23 24  1  0
 24 25  1  0
 25 26  1  0
 17 27  1  0
 27 28  2  0
  8 29  1  0
 29 30  2  0
 30  5  1  0
 28 14  1  0
 26 21  1  0
  1 31  1  0
  1 32  1  0
  1 33  1  0
  3 34  1  0
  3 35  1  0
  3 36  1  0
  4 37  1  0
  4 38  1  0
  4 39  1  0
  6 40  1  0
  7 41  1  0
  9 42  1  0
  9 43  1  0
 10 44  1  0
 15 45  1  0
 16 46  1  0
 22 47  1  0
 22 48  1  0
 23 49  1  0
 23 50  1  0
 25 51  1  0
 25 52  1  0
 26 53  1  0
 26 54  1  0
 27 55  1  0
 28 56  1  0
 29 57  1  0
 30 58  1  0
M  CHG  1  13  -1
M  END
>  <UniqueID>  (44) 
42

>  <SMILES>  (44) 
CC(C)(C)c1ccc(CNC(=O)[N-]c2ccc(S(=O)(=O)N3CCOCC3)cc2)cc1

>  <Energy>  (44) 
70.14672516663266

>  <Genealogy>  (44) 
CC(C)(C)c1ccc(CNC(=O)[N-]c2ccc(S(=O)(=O)N3CCOCC3)cc2)cc1 (protonated)
CC(C)(C)c1ccc(CNC(=O)[N-]c2ccc(S(=O)(=O)N3CCOCC3)cc2)cc1 (3D coordinates assigned)
CC(C)(C)c1ccc(CNC(=O)[N-]c2ccc(S(=O)(=O)N3CCOCC3)cc2)cc1 (nonaromatic ring conformer: 70.14672516663266 kcal/mol)

>  <smiles>  (44) 
CC(C)(C)c1ccc(CNC(=O)Nc2ccc(S(=O)(=O)N3CCOCC3)cc2)cc1

>  <score_type>  (44) 
oracle

>  <origin>  (44) 
adgpu

>  <m_score__min__energy>  (44) 
-12.08

>  <m_primary>  (44) 
energy

$$$$
44:0
     RDKit          3D

 63 66  0  0  0  0  0  0  0  0999 V2000
   -0.4740   19.2340  -32.1510 C   0  0  0  0  0  0  0  0  0  0  0  0
   -1.1770   20.5030  -31.8950 N   0  0  0  0  0  0  0  0  0  0  0  0
   -1.7710   21.0620  -33.1270 C   0  0  0  0  0  0  0  0  0  0  0  0
   -2.9830   20.2510  -33.6280 C   0  0  0  0  0  0  0  0  0  0  0  0
   -3.8450   19.6820  -32.4790 C   0  0  0  0  0  0  0  0  0  0  0  0
   -5.5860   19.6860  -32.9200 S   0  0  0  0  0  0  0  0  0  0  0  0
   -6.2560   18.4650  -32.3520 O   0  0  0  0  0  0  0  0  0  0  0  0
   -5.7240   19.6290  -34.4160 O   0  0  0  0  0  0  0  0  0  0  0  0
   -6.3540   21.1550  -32.2810 C   0  0  0  0  0  0  0  0  0  0  0  0
   -7.6300   21.1080  -31.6730 C   0  0  0  0  0  0  0  0  0  0  0  0
   -8.5390   19.6110  -31.4970 Cl  0  0  0  0  0  0  0  0  0  0  0  0
   -8.1930   22.2720  -31.1390 C   0  0  0  0  0  0  0  0  0  0  0  0
   -7.4990   23.4800  -31.1810 C   0  0  0  0  0  0  0  0  0  0  0  0
   -6.2270   23.5430  -31.7690 C   0  0  0  0  0  0  0  0  0  0  0  0
   -5.4360   24.7400  -31.7440 N   0  0  0  0  0  0  0  0  0  0  0  0
   -4.9940   25.4870  -30.6040 C   0  0  0  0  0  0  0  0  0  0  0  0
   -5.7240   26.3790  -30.0970 O   0  0  0  0  0  0  0  0  0  0  0  0
   -3.6710   25.2900  -30.0970 N   0  0  0  0  0  0  0  0  0  0  0  0
   -3.2780   24.1480  -29.3230 C   0  0  0  0  0  0  0  0  0  0  0  0
   -4.2320   23.2510  -28.8130 C   0  0  0  0  0  0  0  0  0  0  0  0
   -3.8250   22.1190  -28.1020 C   0  0  0  0  0  0  0  0  0  0  0  0
   -2.4620   21.8690  -27.8950 C   0  0  0  0  0  0  0  0  0  0  0  0
   -1.9480   20.3900  -27.0790 S   0  0  0  0  0  0  0  0  0  0  0  0
   -1.2270   20.7490  -25.8070 O   0  0  0  0  0  0  0  0  0  0  0  0
   -3.1610   19.5790  -26.7110 O   0  0  0  0  0  0  0  0  0  0  0  0
   -0.8910   19.4320  -28.0920 N   0  0  0  0  0  0  0  0  0  0  0  0
    0.2750   20.2120  -28.5670 C   0  0  0  0  0  0  0  0  0  0  0  0
    1.5760   19.8080  -27.8470 C   0  0  0  0  0  0  0  0  0  0  0  0
    1.8920   18.4320  -27.9970 O   0  0  0  0  0  0  0  0  0  0  0  0
    0.7520   17.5800  -28.0380 C   0  0  0  0  0  0  0  0  0  0  0  0
   -0.5100   18.1850  -27.4020 C   0  0  0  0  0  0  0  0  0  0  0  0
   -1.5130   22.7900  -28.3610 C   0  0  0  0  0  0  0  0  0  0  0  0
   -1.9210   23.9290  -29.0620 C   0  0  0  0  0  0  0  0  0  0  0  0
   -5.6540   22.3810  -32.3040 C   0  0  0  0  0  0  0  0  0  0  0  0
   -4.3710   22.4510  -32.8370 O   0  0  0  0  0  0  0  0  0  0  0  0
   -3.6160   20.4550  -31.1760 C   0  0  0  0  0  0  0  0  0  0  0  0
   -2.1330   20.4040  -30.7600 C   0  0  0  0  0  0  0  0  0  0  0  0
   -0.2117   18.7605  -31.1934 H   0  0  0  0  0  0  0  0  0  0  0  0
   -1.1283   18.5617  -32.7254 H   0  0  0  0  0  0  0  0  0  0  0  0
    0.4430   19.4322  -32.7254 H   0  0  0  0  0  0  0  0  0  0  0  0
   -2.0977   22.0924  -32.9233 H   0  0  0  0  0  0  0  0  0  0  0  0
   -1.0010   21.0253  -33.9117 H   0  0  0  0  0  0  0  0  0  0  0  0
   -3.6126   20.9075  -34.2466 H   0  0  0  0  0  0  0  0  0  0  0  0
   -2.5932   19.3968  -34.2011 H   0  0  0  0  0  0  0  0  0  0  0  0
   -3.5331   18.6402  -32.3137 H   0  0  0  0  0  0  0  0  0  0  0  0
   -9.1927   22.2335  -30.6817 H   0  0  0  0  0  0  0  0  0  0  0  0
   -7.9501   24.3868  -30.7517 H   0  0  0  0  0  0  0  0  0  0  0  0
   -5.3035   23.4407  -28.9741 H   0  0  0  0  0  0  0  0  0  0  0  0
   -4.5770   21.4220  -27.7036 H   0  0  0  0  0  0  0  0  0  0  0  0
    0.3996   20.0415  -29.6465 H   0  0  0  0  0  0  0  0  0  0  0  0
    0.0835   21.2731  -28.3496 H   0  0  0  0  0  0  0  0  0  0  0  0
    2.4036   20.4041  -28.2590 H   0  0  0  0  0  0  0  0  0  0  0  0
    1.4280   19.9951  -26.7732 H   0  0  0  0  0  0  0  0  0  0  0  0
    0.5312   17.3496  -29.0907 H   0  0  0  0  0  0  0  0  0  0  0  0
    1.0046   16.6854  -27.4498 H   0  0  0  0  0  0  0  0  0  0  0  0
   -1.3357   17.4623  -27.4787 H   0  0  0  0  0  0  0  0  0  0  0  0
   -0.3013   18.4128  -26.3463 H   0  0  0  0  0  0  0  0  0  0  0  0
   -0.4430   22.6158  -28.1743 H   0  0  0  0  0  0  0  0  0  0  0  0
   -1.1721   24.6558  -29.4097 H   0  0  0  0  0  0  0  0  0  0  0  0
   -3.9131   21.5039  -31.3225 H   0  0  0  0  0  0  0  0  0  0  0  0
   -4.2200   19.9920  -30.3818 H   0  0  0  0  0  0  0  0  0  0  0  0
   -1.9390   21.2399  -30.0718 H   0  0  0  0  0  0  0  0  0  0  0  0
   -1.9693   19.4211  -30.2941 H   0  0  0  0  0  0  0  0  0  0  0  0
  1  2  1  0
  2  3  1  0
  3  4  1  0
  4  5  1  0
  5  6  1  0
  6  7  2  0
  6  8  2  0
  6  9  1  0
  9 10  2  0
 10 11  1  0
 10 12  1  0
 12 13  2  0
 13 14  1  0
 14 15  1  0
 15 16  1  0
 16 17  2  0
 16 18  1  0
 18 19  1  0
 19 20  2  0
 20 21  1  0
 21 22  2  0
 22 23  1  0
 23 24  2  0
 23 25  2  0
 23 26  1  0
 26 27  1  0
 27 28  1  0
 28 29  1  0
 29 30  1  0
 30 31  1  0
 22 32  1  0
 32 33  2  0
 14 34  2  0
 34 35  1  0
  5 36  1  0
 36 37  1  0
 37  2  1  0
 34  9  1  0
 33 19  1  0
 31 26  1  0
  1 38  1  0
  1 39  1  0
  1 40  1  0
  3 41  1  0
  3 42  1  0
  4 43  1  0
  4 44  1  0
  5 45  1  0
 12 46  1  0
 13 47  1  0
 20 48  1  0
 21 49  1  0
 27 50  1  0
 27 51  1  0
 28 52  1  0
 28 53  1  0
 30 54  1  0
 30 55  1  0
 31 56  1  0
 31 57  1  0
 32 58  1  0
 33 59  1  0
 36 60  1  0
 36 61  1  0
 37 62  1  0
 37 63  1  0
M  CHG  3  15  -1  18  -1  35  -1
M  END
>  <UniqueID>  (45) 
43

>  <SMILES>  (45) 
CN1CCC(S(=O)(=O)c2c(Cl)ccc([N-]C(=O)[N-]c3ccc(S(=O)(=O)N4CCOCC4)cc3)c2[O-])CC1

>  <Energy>  (45) 
92.26650757284729

>  <Genealogy>  (45) 
CN1CCC(S(=O)(=O)c2c(Cl)ccc([N-]C(=O)[N-]c3ccc(S(=O)(=O)N4CCOCC4)cc3)c2[O-])CC1 (protonated)
CN1CCC(S(=O)(=O)c2c(Cl)ccc([N-]C(=O)[N-]c3ccc(S(=O)(=O)N4CCOCC4)cc3)c2[O-])CC1 (3D coordinates assigned)
CN1CCC(S(=O)(=O)c2c(Cl)ccc([N-]C(=O)[N-]c3ccc(S(=O)(=O)N4CCOCC4)cc3)c2[O-])CC1 (nonaromatic ring conformer: 92.26650757284729 kcal/mol)

>  <smiles>  (45) 
CN1CCC(S(=O)(=O)c2c(Cl)ccc(NC(=O)Nc3ccc(S(=O)(=O)N4CCOCC4)cc3)c2O)CC1

>  <score_type>  (45) 
oracle

>  <origin>  (45) 
adgpu

>  <m_score__min__energy>  (45) 
-17.370000000000001

>  <m_primary>  (45) 
energy

$$$$
45:0
     RDKit          3D

 41 43  0  0  0  0  0  0  0  0999 V2000
   -0.8210   19.7790  -33.3560 O   0  0  0  0  0  0  0  0  0  0  0  0
   -1.8450   19.4890  -32.6840 C   0  0  0  0  0  0  0  0  0  0  0  0
   -1.9750   20.0210  -31.3590 N   0  0  0  0  0  0  0  0  0  0  0  0
   -2.3450   21.3660  -31.0160 C   0  0  0  0  0  0  0  0  0  0  0  0
   -3.5520   21.8800  -31.5030 C   0  0  0  0  0  0  0  0  0  0  0  0
   -3.9440   23.1870  -31.1930 C   0  0  0  0  0  0  0  0  0  0  0  0
   -5.4750   23.7970  -31.8000 Cl  0  0  0  0  0  0  0  0  0  0  0  0
   -3.1170   23.9970  -30.4030 C   0  0  0  0  0  0  0  0  0  0  0  0
   -3.5060   25.2950  -30.0890 O   0  0  0  0  0  0  0  0  0  0  0  0
   -1.8930   23.4980  -29.9340 C   0  0  0  0  0  0  0  0  0  0  0  0
   -0.8330   24.5020  -28.9580 Cl  0  0  0  0  0  0  0  0  0  0  0  0
   -1.5040   22.1910  -30.2490 C   0  0  0  0  0  0  0  0  0  0  0  0
   -2.8810   18.6220  -33.2880 C   0  0  0  0  0  0  0  0  0  0  0  0
   -4.1630   18.6090  -32.7160 C   0  0  0  0  0  0  0  0  0  0  0  0
   -5.1970   17.8570  -33.2910 C   0  0  0  0  0  0  0  0  0  0  0  0
   -6.8150   17.8750  -32.5800 S   0  0  0  0  0  0  0  0  0  0  0  0
   -7.6080   16.7260  -33.1370 O   0  0  0  0  0  0  0  0  0  0  0  0
   -6.6980   17.6810  -31.0930 O   0  0  0  0  0  0  0  0  0  0  0  0
   -7.6760   19.3630  -32.8920 N   0  0  0  0  0  0  0  0  0  0  0  0
   -7.0230   20.5170  -32.2770 C   0  0  0  0  0  0  0  0  0  0  0  0
   -8.1080   21.5600  -32.0620 C   0  0  0  0  0  0  0  0  0  0  0  0
   -9.4200   20.7910  -32.1020 C   0  0  0  0  0  0  0  0  0  0  0  0
   -9.0300   19.3400  -32.3400 C   0  0  0  0  0  0  0  0  0  0  0  0
   -4.9470   17.1200  -34.4540 C   0  0  0  0  0  0  0  0  0  0  0  0
   -3.6700   17.1050  -35.0180 C   0  0  0  0  0  0  0  0  0  0  0  0
   -2.6280   17.8320  -34.4350 C   0  0  0  0  0  0  0  0  0  0  0  0
   -1.3560   17.7300  -35.0020 O   0  0  0  0  0  0  0  0  0  0  0  0
   -4.1976   21.2518  -32.1343 H   0  0  0  0  0  0  0  0  0  0  0  0
   -0.5358   21.8076  -29.8948 H   0  0  0  0  0  0  0  0  0  0  0  0
   -4.3584   19.1956  -31.8062 H   0  0  0  0  0  0  0  0  0  0  0  0
   -6.5736   20.2316  -31.3144 H   0  0  0  0  0  0  0  0  0  0  0  0
   -6.2166   20.9063  -32.9159 H   0  0  0  0  0  0  0  0  0  0  0  0
   -7.9803   22.0531  -31.0870 H   0  0  0  0  0  0  0  0  0  0  0  0
   -8.0733   22.3504  -32.8262 H   0  0  0  0  0  0  0  0  0  0  0  0
   -9.9558   20.8939  -31.1468 H   0  0  0  0  0  0  0  0  0  0  0  0
  -10.0918   21.1683  -32.8870 H   0  0  0  0  0  0  0  0  0  0  0  0
   -9.0454   18.7814  -31.3925 H   0  0  0  0  0  0  0  0  0  0  0  0
   -9.7327   18.8450  -33.0264 H   0  0  0  0  0  0  0  0  0  0  0  0
   -5.7606   16.5497  -34.9261 H   0  0  0  0  0  0  0  0  0  0  0  0
   -3.4823   16.5165  -35.9282 H   0  0  0  0  0  0  0  0  0  0  0  0
   -0.5660   18.2790  -34.6890 H   0  0  0  0  0  0  0  0  0  0  0  0
  1  2  2  0
  2  3  1  0
  3  4  1  0
  4  5  2  0
  5  6  1  0
  6  7  1  0
  6  8  2  0
  8  9  1  0
  8 10  1  0
 10 11  1  0
 10 12  2  0
  2 13  1  0
 13 14  2  0
 14 15  1  0
 15 16  1  0
 16 17  2  0
 16 18  2  0
 16 19  1  0
 19 20  1  0
 20 21  1  0
 21 22  1  0
 22 23  1  0
 15 24  2  0
 24 25  1  0
 25 26  2  0
 26 27  1  0
 12  4  1  0
 26 13  1  0
 23 19  1  0
  5 28  1  0
 12 29  1  0
 14 30  1  0
 20 31  1  0
 20 32  1  0
 21 33  1  0
 21 34  1  0
 22 35  1  0
 22 36  1  0
 23 37  1  0
 23 38  1  0
 24 39  1  0
 25 40  1  0
 27 41  1  0
M  CHG  2   3  -1   9  -1
M  END
>  <UniqueID>  (46) 
44

>  <SMILES>  (46) 
O=C([N-]c1cc(Cl)c([O-])c(Cl)c1)c1cc(S(=O)(=O)N2CCCC2)ccc1O

>  <Energy>  (46) 
53.44824926962342

>  <Genealogy>  (46) 
O=C([N-]c1cc(Cl)c([O-])c(Cl)c1)c1cc(S(=O)(=O)N2CCCC2)ccc1O (protonated)
O=C([N-]c1cc(Cl)c([O-])c(Cl)c1)c1cc(S(=O)(=O)N2CCCC2)ccc1O (3D coordinates assigned)
O=C([N-]c1cc(Cl)c([O-])c(Cl)c1)c1cc(S(=O)(=O)N2CCCC2)ccc1O (nonaromatic ring conformer: 53.44824926962342 kcal/mol)

>  <smiles>  (46) 
O=C(Nc1cc(Cl)c(O)c(Cl)c1)c1cc(S(=O)(=O)N2CCCC2)ccc1O

>  <score_type>  (46) 
oracle

>  <origin>  (46) 
adgpu

>  <m_score__min__energy>  (46) 
-11.58

>  <m_primary>  (46) 
energy

$$$$
46:0
     RDKit          3D

 50 52  0  0  0  0  0  0  0  0999 V2000
    2.4830   19.4840  -28.2140 C   0  0  0  0  0  0  0  0  0  0  0  0
    1.5690   18.4240  -28.6200 N   0  0  0  0  0  0  0  0  0  0  0  0
    0.6320   17.7630  -27.7590 C   0  0  0  0  0  0  0  0  0  0  0  0
    0.9880   16.7160  -27.1610 O   0  0  0  0  0  0  0  0  0  0  0  0
   -0.6710   18.3060  -27.4870 N   0  0  0  0  0  0  0  0  0  0  0  0
   -1.0760   19.6760  -27.6670 C   0  0  0  0  0  0  0  0  0  0  0  0
   -1.1570   20.5670  -26.5790 C   0  0  0  0  0  0  0  0  0  0  0  0
   -1.5400   21.9010  -26.7870 C   0  0  0  0  0  0  0  0  0  0  0  0
   -1.8300   22.3690  -28.0850 C   0  0  0  0  0  0  0  0  0  0  0  0
   -2.4000   24.0270  -28.3060 S   0  0  0  0  0  0  0  0  0  0  0  0
   -1.8490   24.9280  -27.2450 O   0  0  0  0  0  0  0  0  0  0  0  0
   -1.9510   24.5230  -29.6480 O   0  0  0  0  0  0  0  0  0  0  0  0
   -4.1330   24.0320  -28.2260 N   0  0  0  0  0  0  0  0  0  0  0  0
   -4.9770   23.8390  -29.3680 C   0  0  0  0  0  0  0  0  0  0  0  0
   -5.9420   22.8180  -29.4010 C   0  0  0  0  0  0  0  0  0  0  0  0
   -6.7700   22.6510  -30.5230 C   0  0  0  0  0  0  0  0  0  0  0  0
   -7.8010   21.6380  -30.5240 N   0  0  0  0  0  0  0  0  0  0  0  0
   -7.7760   20.5510  -31.2620 C   0  0  0  0  0  0  0  0  0  0  0  0
   -8.9150   19.6750  -31.2700 N   0  0  0  0  0  0  0  0  0  0  0  0
   -6.5850   20.1750  -32.0690 C   0  0  0  0  0  0  0  0  0  0  0  0
   -6.7330   19.8170  -33.4200 C   0  0  0  0  0  0  0  0  0  0  0  0
   -5.6100   19.5210  -34.1970 C   0  0  0  0  0  0  0  0  0  0  0  0
   -4.3360   19.5660  -33.6280 C   0  0  0  0  0  0  0  0  0  0  0  0
   -4.1770   19.8920  -32.2750 C   0  0  0  0  0  0  0  0  0  0  0  0
   -5.2960   20.1840  -31.4950 C   0  0  0  0  0  0  0  0  0  0  0  0
   -6.5800   23.4650  -31.6480 C   0  0  0  0  0  0  0  0  0  0  0  0
   -7.3670   23.2800  -32.7840 O   0  0  0  0  0  0  0  0  0  0  0  0
   -5.6130   24.4780  -31.6200 C   0  0  0  0  0  0  0  0  0  0  0  0
   -4.8240   24.6730  -30.4820 C   0  0  0  0  0  0  0  0  0  0  0  0
   -3.8680   25.6870  -30.4730 O   0  0  0  0  0  0  0  0  0  0  0  0
   -1.7140   21.4830  -29.1830 C   0  0  0  0  0  0  0  0  0  0  0  0
   -2.0760   22.0290  -30.9940 Br  0  0  0  0  0  0  0  0  0  0  0  0
   -1.3310   20.1470  -28.9660 C   0  0  0  0  0  0  0  0  0  0  0  0
    2.5243   19.5319  -27.1158 H   0  0  0  0  0  0  0  0  0  0  0  0
    3.4875   19.2736  -28.6099 H   0  0  0  0  0  0  0  0  0  0  0  0
    2.1271   20.4466  -28.6099 H   0  0  0  0  0  0  0  0  0  0  0  0
   -0.9195   20.2163  -25.5638 H   0  0  0  0  0  0  0  0  0  0  0  0
   -1.6146   22.5871  -25.9304 H   0  0  0  0  0  0  0  0  0  0  0  0
   -6.0499   22.1428  -28.5393 H   0  0  0  0  0  0  0  0  0  0  0  0
   -8.6210   21.7990  -29.8950 H   0  0  0  0  0  0  0  0  0  0  0  0
   -8.8990   18.7910  -31.8230 H   0  0  0  0  0  0  0  0  0  0  0  0
   -9.7620   19.8900  -30.6920 H   0  0  0  0  0  0  0  0  0  0  0  0
   -7.7368   19.7696  -33.8674 H   0  0  0  0  0  0  0  0  0  0  0  0
   -5.7298   19.2525  -35.2570 H   0  0  0  0  0  0  0  0  0  0  0  0
   -3.4528   19.3444  -34.2451 H   0  0  0  0  0  0  0  0  0  0  0  0
   -3.1720   19.9177  -31.8286 H   0  0  0  0  0  0  0  0  0  0  0  0
   -5.1731   20.4222  -30.4282 H   0  0  0  0  0  0  0  0  0  0  0  0
   -7.0020   23.4530  -33.7190 H   0  0  0  0  0  0  0  0  0  0  0  0
   -5.4733   25.1244  -32.4990 H   0  0  0  0  0  0  0  0  0  0  0  0
   -1.2301   19.4638  -29.8222 H   0  0  0  0  0  0  0  0  0  0  0  0
  1  2  1  0
  2  3  1  0
  3  4  2  0
  3  5  1  0
  5  6  1  0
  6  7  2  0
  7  8  1  0
  8  9  2  0
  9 10  1  0
 10 11  2  0
 10 12  2  0
 10 13  1  0
 13 14  1  0
 14 15  2  0
 15 16  1  0
 16 17  1  0
 17 18  2  3
 18 19  1  0
 18 20  1  0
 20 21  2  0
 21 22  1  0
 22 23  2  0
 23 24  1  0
 24 25  2  0
 16 26  2  0
 26 27  1  0
 26 28  1  0
 28 29  2  0
 29 30  1  0
  9 31  1  0
 31 32  1  0
 31 33  2  0
 33  6  1  0
 29 14  1  0
 25 20  1  0
  1 34  1  0
  1 35  1  0
  1 36  1  0
  7 37  1  0
  8 38  1  0
 15 39  1  0
 17 40  1  0
 19 41  1  0
 19 42  1  0
 21 43  1  0
 22 44  1  0
 23 45  1  0
 24 46  1  0
 25 47  1  0
 27 48  1  0
 28 49  1  0
 33 50  1  0
M  CHG  5   2  -1   5  -1  13  -1  17   1  30  -1
M  END
>  <UniqueID>  (47) 
45

>  <SMILES>  (47) 
C[N-]C(=O)[N-]c1ccc(S(=O)(=O)[N-]c2cc([NH+]=C(N)c3ccccc3)c(O)cc2[O-])c(Br)c1

>  <Energy>  (47) 
72.32627908902552

>  <Genealogy>  (47) 
C[N-]C(=O)[N-]c1ccc(S(=O)(=O)[N-]c2cc([NH+]=C(N)c3ccccc3)c(O)cc2[O-])c(Br)c1 (protonated)
C[N-]C(=O)[N-]c1ccc(S(=O)(=O)[N-]c2cc([NH+]=C(N)c3ccccc3)c(O)cc2[O-])c(Br)c1 (3D coordinates assigned)
C[N-]C(=O)[N-]c1ccc(S(=O)(=O)[N-]c2cc([NH+]=C(N)c3ccccc3)c(O)cc2[O-])c(Br)c1 (optimized conformer: 72.32627908902552 kcal/mol)

>  <smiles>  (47) 
CNC(=O)Nc1ccc(S(=O)(=O)Nc2cc(N=C(N)c3ccccc3)c(O)cc2O)c(Br)c1

>  <score_type>  (47) 
oracle

>  <origin>  (47) 
adgpu

>  <m_score__min__energy>  (47) 
-12.470000000000001

>  <m_primary>  (47) 
energy

$$$$
47:0
     RDKit          3D

 27 28  0  0  0  0  0  0  0  0999 V2000
   -1.2310   26.3840  -29.3380 O   0  0  0  0  0  0  0  0  0  0  0  0
   -1.1620   26.2050  -27.9600 C   0  0  0  0  0  0  0  0  0  0  0  0
   -0.3190   27.0310  -27.2100 C   0  0  0  0  0  0  0  0  0  0  0  0
   -0.2180   26.8650  -25.8270 C   0  0  0  0  0  0  0  0  0  0  0  0
   -0.9560   25.8640  -25.1850 C   0  0  0  0  0  0  0  0  0  0  0  0
   -0.8570   25.6810  -23.8070 O   0  0  0  0  0  0  0  0  0  0  0  0
   -1.8000   25.0350  -25.9310 C   0  0  0  0  0  0  0  0  0  0  0  0
   -1.9260   25.2070  -27.3220 C   0  0  0  0  0  0  0  0  0  0  0  0
   -2.8340   24.2890  -28.1050 C   0  0  0  0  0  0  0  0  0  0  0  0
   -3.2670   24.9230  -29.3520 N   0  0  0  0  0  0  0  0  0  0  0  0
   -4.4570   24.5590  -30.0780 C   0  0  0  0  0  0  0  0  0  0  0  0
   -5.7110   25.1320  -29.7970 C   0  0  0  0  0  0  0  0  0  0  0  0
   -6.8370   24.7450  -30.5270 C   0  0  0  0  0  0  0  0  0  0  0  0
   -6.7040   23.7890  -31.5350 C   0  0  0  0  0  0  0  0  0  0  0  0
   -5.4880   23.2450  -31.8000 N   0  0  0  0  0  0  0  0  0  0  0  0
   -4.3760   23.6050  -31.1050 C   0  0  0  0  0  0  0  0  0  0  0  0
    0.2672   27.8151  -27.7116 H   0  0  0  0  0  0  0  0  0  0  0  0
    0.4423   27.5217  -25.2416 H   0  0  0  0  0  0  0  0  0  0  0  0
   -0.0090   25.3270  -23.3800 H   0  0  0  0  0  0  0  0  0  0  0  0
   -2.3704   24.2415  -25.4260 H   0  0  0  0  0  0  0  0  0  0  0  0
   -2.2917   23.3617  -28.3416 H   0  0  0  0  0  0  0  0  0  0  0  0
   -3.7226   24.0689  -27.4951 H   0  0  0  0  0  0  0  0  0  0  0  0
   -2.6510   25.6680  -29.7480 H   0  0  0  0  0  0  0  0  0  0  0  0
   -5.8046   25.8857  -29.0013 H   0  0  0  0  0  0  0  0  0  0  0  0
   -7.8194   25.1895  -30.3095 H   0  0  0  0  0  0  0  0  0  0  0  0
   -7.5845   23.4759  -32.1152 H   0  0  0  0  0  0  0  0  0  0  0  0
   -3.4067   23.1458  -31.3490 H   0  0  0  0  0  0  0  0  0  0  0  0
  1  2  1  0
  2  3  2  0
  3  4  1  0
  4  5  2  0
  5  6  1  0
  5  7  1  0
  7  8  2  0
  8  9  1  0
  9 10  1  0
 10 11  1  0
 11 12  2  0
 12 13  1  0
 13 14  2  0
 14 15  1  0
 15 16  2  0
  8  2  1  0
 16 11  1  0
  3 17  1  0
  4 18  1  0
  6 19  1  0
  7 20  1  0
  9 21  1  0
  9 22  1  0
 10 23  1  0
 12 24  1  0
 13 25  1  0
 14 26  1  0
 16 27  1  0
M  CHG  1   1  -1
M  END
>  <UniqueID>  (48) 
46

>  <SMILES>  (48) 
[O-]c1ccc(O)cc1CNc1cccnc1

>  <Energy>  (48) 
28.38260567709359

>  <Genealogy>  (48) 
[O-]c1ccc(O)cc1CNc1cccnc1 (protonated)
[O-]c1ccc(O)cc1CNc1cccnc1 (3D coordinates assigned)
[O-]c1ccc(O)cc1CNc1cccnc1 (optimized conformer: 28.38260567709359 kcal/mol)

>  <smiles>  (48) 
Oc1ccc(O)c(CNc2cccnc2)c1

>  <score_type>  (48) 
oracle

>  <origin>  (48) 
adgpu

>  <m_score__min__energy>  (48) 
-8.7899999999999991

>  <m_primary>  (48) 
energy

$$$$
48:0
     RDKit          3D

 66 70  0  0  0  0  0  0  0  0999 V2000
   -2.7120   20.5310  -31.2100 C   0  0  0  0  0  0  0  0  0  0  0  0
   -2.4180   21.8270  -30.5140 C   0  0  0  0  0  0  0  0  0  0  0  0
   -3.2380   22.9450  -30.7190 C   0  0  0  0  0  0  0  0  0  0  0  0
   -2.9670   24.1540  -30.0710 C   0  0  0  0  0  0  0  0  0  0  0  0
   -3.8570   25.2610  -30.2820 N   0  0  0  0  0  0  0  0  0  0  0  0
   -5.1750   25.1990  -30.8490 C   0  0  0  0  0  0  0  0  0  0  0  0
   -6.1220   25.8520  -30.3360 O   0  0  0  0  0  0  0  0  0  0  0  0
   -5.4610   24.2900  -31.9170 N   0  0  0  0  0  0  0  0  0  0  0  0
   -6.4530   23.2540  -31.9000 C   0  0  0  0  0  0  0  0  0  0  0  0
   -7.7400   23.4720  -31.3830 C   0  0  0  0  0  0  0  0  0  0  0  0
   -8.6750   22.4340  -31.3670 C   0  0  0  0  0  0  0  0  0  0  0  0
   -8.3320   21.1720  -31.8560 C   0  0  0  0  0  0  0  0  0  0  0  0
   -7.0420   20.9280  -32.3580 C   0  0  0  0  0  0  0  0  0  0  0  0
   -6.6760   19.5860  -32.8850 C   0  0  0  0  0  0  0  0  0  0  0  0
   -5.7090   19.4390  -33.8920 C   0  0  0  0  0  0  0  0  0  0  0  0
   -5.3850   18.2030  -34.3550 N   0  0  0  0  0  0  0  0  0  0  0  0
   -5.9880   17.0920  -33.8610 C   0  0  0  0  0  0  0  0  0  0  0  0
   -6.9260   17.2040  -32.8860 N   0  0  0  0  0  0  0  0  0  0  0  0
   -7.2780   18.4170  -32.3900 C   0  0  0  0  0  0  0  0  0  0  0  0
   -6.1050   21.9790  -32.3640 C   0  0  0  0  0  0  0  0  0  0  0  0
   -1.8180   24.2640  -29.2670 C   0  0  0  0  0  0  0  0  0  0  0  0
   -0.9690   23.1590  -29.0740 C   0  0  0  0  0  0  0  0  0  0  0  0
    0.2230   23.2800  -28.1930 C   0  0  0  0  0  0  0  0  0  0  0  0
    0.9290   24.3220  -28.2440 O   0  0  0  0  0  0  0  0  0  0  0  0
    0.5540   22.2840  -27.2210 N   0  0  0  0  0  0  0  0  0  0  0  0
    0.7430   20.8840  -27.4730 C   0  0  0  0  0  0  0  0  0  0  0  0
    2.0170   20.4290  -27.8350 C   0  0  0  0  0  0  0  0  0  0  0  0
    2.2330   19.0750  -28.1080 C   0  0  0  0  0  0  0  0  0  0  0  0
    1.1720   18.1610  -28.0330 C   0  0  0  0  0  0  0  0  0  0  0  0
    1.4180   16.4630  -28.4390 S   0  0  0  0  0  0  0  0  0  0  0  0
    2.8740   16.1090  -28.2990 O   0  0  0  0  0  0  0  0  0  0  0  0
    0.6270   15.6260  -27.4730 O   0  0  0  0  0  0  0  0  0  0  0  0
    0.8690   16.1780  -30.0780 N   0  0  0  0  0  0  0  0  0  0  0  0
    0.0810   17.3130  -30.6080 C   0  0  0  0  0  0  0  0  0  0  0  0
    0.9060   18.2400  -31.5190 C   0  0  0  0  0  0  0  0  0  0  0  0
    2.2490   18.2670  -31.1000 O   0  0  0  0  0  0  0  0  0  0  0  0
    2.8650   17.0170  -31.3490 C   0  0  0  0  0  0  0  0  0  0  0  0
    1.9810   15.8040  -30.9680 C   0  0  0  0  0  0  0  0  0  0  0  0
   -0.1090   18.6170  -27.6880 C   0  0  0  0  0  0  0  0  0  0  0  0
   -0.3250   19.9690  -27.4110 C   0  0  0  0  0  0  0  0  0  0  0  0
   -1.2890   21.9370  -29.6920 C   0  0  0  0  0  0  0  0  0  0  0  0
   -2.8903   19.7450  -30.4614 H   0  0  0  0  0  0  0  0  0  0  0  0
   -3.6065   20.6475  -31.8395 H   0  0  0  0  0  0  0  0  0  0  0  0
   -1.8547   20.2502  -31.8395 H   0  0  0  0  0  0  0  0  0  0  0  0
   -4.1022   22.8707  -31.3955 H   0  0  0  0  0  0  0  0  0  0  0  0
   -8.0128   24.4624  -30.9896 H   0  0  0  0  0  0  0  0  0  0  0  0
   -9.6846   22.6116  -30.9679 H   0  0  0  0  0  0  0  0  0  0  0  0
   -9.0769   20.3626  -31.8483 H   0  0  0  0  0  0  0  0  0  0  0  0
   -5.2116   20.3276  -34.3079 H   0  0  0  0  0  0  0  0  0  0  0  0
   -5.7165   16.0999  -34.2510 H   0  0  0  0  0  0  0  0  0  0  0  0
   -8.0376   18.4853  -31.5973 H   0  0  0  0  0  0  0  0  0  0  0  0
   -5.0867   21.7965  -32.7378 H   0  0  0  0  0  0  0  0  0  0  0  0
   -1.5810   25.2236  -28.7844 H   0  0  0  0  0  0  0  0  0  0  0  0
    2.8525   21.1410  -27.9049 H   0  0  0  0  0  0  0  0  0  0  0  0
    3.2391   18.7252  -28.3827 H   0  0  0  0  0  0  0  0  0  0  0  0
   -0.7647   16.9134  -31.1870 H   0  0  0  0  0  0  0  0  0  0  0  0
   -0.2578   17.9101  -29.7486 H   0  0  0  0  0  0  0  0  0  0  0  0
    0.8560   17.8703  -32.5538 H   0  0  0  0  0  0  0  0  0  0  0  0
    0.4928   19.2579  -31.4623 H   0  0  0  0  0  0  0  0  0  0  0  0
    3.1003   16.9527  -32.4216 H   0  0  0  0  0  0  0  0  0  0  0  0
    3.7660   16.9701  -30.7198 H   0  0  0  0  0  0  0  0  0  0  0  0
    1.5656   15.3667  -31.8879 H   0  0  0  0  0  0  0  0  0  0  0  0
    2.6140   15.0833  -30.4296 H   0  0  0  0  0  0  0  0  0  0  0  0
   -0.9472   17.9066  -27.6354 H   0  0  0  0  0  0  0  0  0  0  0  0
   -1.3327   20.3197  -27.1436 H   0  0  0  0  0  0  0  0  0  0  0  0
   -0.6467   21.0591  -29.5284 H   0  0  0  0  0  0  0  0  0  0  0  0
  1  2  1  0
  2  3  2  0
  3  4  1  0
  4  5  1  0
  5  6  1  0
  6  7  2  0
  6  8  1  0
  8  9  1  0
  9 10  2  0
 10 11  1  0
 11 12  2  0
 12 13  1  0
 13 14  1  0
 14 15  2  0
 15 16  1  0
 16 17  2  0
 17 18  1  0
 18 19  2  0
 13 20  2  0
  4 21  2  0
 21 22  1  0
 22 23  1  0
 23 24  2  0
 23 25  1  0
 25 26  1  0
 26 27  2  0
 27 28  1  0
 28 29  2  0
 29 30  1  0
 30 31  2  0
 30 32  2  0
 30 33  1  0
 33 34  1  0
 34 35  1  0
 35 36  1  0
 36 37  1  0
 37 38  1  0
 29 39  1  0
 39 40  2  0
 22 41  2  0
 41  2  1  0
 20  9  1  0
 40 26  1  0
 19 14  1  0
 38 33  1  0
  1 42  1  0
  1 43  1  0
  1 44  1  0
  3 45  1  0
 10 46  1  0
 11 47  1  0
 12 48  1  0
 15 49  1  0
 17 50  1  0
 19 51  1  0
 20 52  1  0
 21 53  1  0
 27 54  1  0
 28 55  1  0
 34 56  1  0
 34 57  1  0
 35 58  1  0
 35 59  1  0
 37 60  1  0
 37 61  1  0
 38 62  1  0
 38 63  1  0
 39 64  1  0
 40 65  1  0
 41 66  1  0
M  CHG  3   5  -1   8  -1  25  -1
M  END
>  <UniqueID>  (49) 
47

>  <SMILES>  (49) 
Cc1cc([N-]C(=O)[N-]c2cccc(-c3cncnc3)c2)cc(C(=O)[N-]c2ccc(S(=O)(=O)N3CCOCC3)cc2)c1

>  <Energy>  (49) 
102.20613133060702

>  <Genealogy>  (49) 
Cc1cc([N-]C(=O)[N-]c2cccc(-c3cncnc3)c2)cc(C(=O)[N-]c2ccc(S(=O)(=O)N3CCOCC3)cc2)c1 (protonated)
Cc1cc([N-]C(=O)[N-]c2cccc(-c3cncnc3)c2)cc(C(=O)[N-]c2ccc(S(=O)(=O)N3CCOCC3)cc2)c1 (3D coordinates assigned)
Cc1cc([N-]C(=O)[N-]c2cccc(-c3cncnc3)c2)cc(C(=O)[N-]c2ccc(S(=O)(=O)N3CCOCC3)cc2)c1 (nonaromatic ring conformer: 102.20613133060702 kcal/mol)

>  <smiles>  (49) 
Cc1cc(NC(=O)Nc2cccc(-c3cncnc3)c2)cc(C(=O)Nc2ccc(S(=O)(=O)N3CCOCC3)cc2)c1

>  <score_type>  (49) 
oracle

>  <origin>  (49) 
adgpu

>  <m_score__min__energy>  (49) 
-13.59

>  <m_primary>  (49) 
energy

$$$$
