0:0
     RDKit          3D

 35 36  0  0  0  0  0  0  0  0999 V2000
   -2.7850   24.5140  -27.4000 C   0  0  0  0  0  0  0  0  0  0  0  0
   -2.5800   24.4220  -28.8060 O   0  0  0  0  0  0  0  0  0  0  0  0
   -3.1830   23.4650  -29.6370 C   0  0  0  0  0  0  0  0  0  0  0  0
   -2.9830   22.0820  -29.4520 C   0  0  0  0  0  0  0  0  0  0  0  0
   -3.6000   21.1600  -30.2980 C   0  0  0  0  0  0  0  0  0  0  0  0
   -4.4190   21.6000  -31.3430 C   0  0  0  0  0  0  0  0  0  0  0  0
   -5.2130   20.4250  -32.3860 S   0  0  0  0  0  0  0  0  0  0  0  0
   -4.5900   19.0740  -32.1790 O   0  0  0  0  0  0  0  0  0  0  0  0
   -5.0380   20.8040  -33.8300 O   0  0  0  0  0  0  0  0  0  0  0  0
   -6.9310   20.3790  -31.9970 C   0  0  0  0  0  0  0  0  0  0  0  0
   -7.8340   21.4250  -31.9690 C   0  0  0  0  0  0  0  0  0  0  0  0
   -7.5510   22.8680  -32.2270 C   0  0  0  0  0  0  0  0  0  0  0  0
   -9.0560   20.9450  -31.6620 N   0  0  0  0  0  0  0  0  0  0  0  0
   -8.9360   19.6570  -31.5130 O   0  0  0  0  0  0  0  0  0  0  0  0
   -7.6960   19.2680  -31.7060 C   0  0  0  0  0  0  0  0  0  0  0  0
   -7.2370   17.8490  -31.6340 C   0  0  0  0  0  0  0  0  0  0  0  0
   -4.6260   22.9720  -31.5320 C   0  0  0  0  0  0  0  0  0  0  0  0
   -4.0100   23.9110  -30.6810 C   0  0  0  0  0  0  0  0  0  0  0  0
   -4.1970   25.2930  -30.8370 O   0  0  0  0  0  0  0  0  0  0  0  0
   -5.3810   25.9940  -30.4670 C   0  0  0  0  0  0  0  0  0  0  0  0
   -1.9035   24.1184  -26.8743 H   0  0  0  0  0  0  0  0  0  0  0  0
   -2.9372   25.5668  -27.1198 H   0  0  0  0  0  0  0  0  0  0  0  0
   -3.6727   23.9279  -27.1198 H   0  0  0  0  0  0  0  0  0  0  0  0
   -2.3365   21.7275  -28.6357 H   0  0  0  0  0  0  0  0  0  0  0  0
   -3.4417   20.0826  -30.1426 H   0  0  0  0  0  0  0  0  0  0  0  0
   -7.4470   23.3983  -31.2689 H   0  0  0  0  0  0  0  0  0  0  0  0
   -6.6174   22.9616  -32.8011 H   0  0  0  0  0  0  0  0  0  0  0  0
   -8.3801   23.3073  -32.8011 H   0  0  0  0  0  0  0  0  0  0  0  0
   -7.1397   17.5481  -30.5804 H   0  0  0  0  0  0  0  0  0  0  0  0
   -7.9711   17.2003  -32.1343 H   0  0  0  0  0  0  0  0  0  0  0  0
   -6.2620   17.7532  -32.1343 H   0  0  0  0  0  0  0  0  0  0  0  0
   -5.2739   23.3190  -32.3504 H   0  0  0  0  0  0  0  0  0  0  0  0
   -5.4539   26.0372  -29.3703 H   0  0  0  0  0  0  0  0  0  0  0  0
   -5.3440   27.0158  -30.8725 H   0  0  0  0  0  0  0  0  0  0  0  0
   -6.2591   25.4702  -30.8725 H   0  0  0  0  0  0  0  0  0  0  0  0
  1  2  1  0
  2  3  1  0
  3  4  2  0
  4  5  1  0
  5  6  2  0
  6  7  1  0
  7  8  2  0
  7  9  2  0
  7 10  1  0
 10 11  1  0
 11 12  1  0
 11 13  2  0
 13 14  1  0
 14 15  1  0
 15 16  1  0
  6 17  1  0
 17 18  2  0
 18 19  1  0
 19 20  1  0
 18  3  1  0
 15 10  2  0
  1 21  1  0
  1 22  1  0
  1 23  1  0
  4 24  1  0
  5 25  1  0
 12 26  1  0
 12 27  1  0
 12 28  1  0
 16 29  1  0
 16 30  1  0
 16 31  1  0
 17 32  1  0
 20 33  1  0
 20 34  1  0
 20 35  1  0
M  END
>  <UniqueID>  (1) 
1

>  <SMILES>  (1) 
COc1ccc(S(=O)(=O)c2c(C)noc2C)cc1OC

>  <Energy>  (1) 
64.06874565086339

>  <Genealogy>  (1) 
COc1ccc(S(=O)(=O)c2c(C)noc2C)cc1OC (3D coordinates assigned)
COc1ccc(S(=O)(=O)c2c(C)noc2C)cc1OC (optimized conformer: 64.06874565086339 kcal/mol)

>  <smiles>  (1) 
COc1ccc(S(=O)(=O)c2c(C)noc2C)cc1OC

>  <score_type>  (1) 
oracle

>  <origin>  (1) 
adgpu

>  <m_score__min__energy>  (1) 
-7.2000000000000002

>  <m_primary>  (1) 
energy

$$$$
1:0
     RDKit          3D

 47 50  0  0  0  0  0  0  0  0999 V2000
   -0.1330   19.0980  -27.8830 C   0  0  0  0  0  0  0  0  0  0  0  0
    0.2460   19.8860  -29.0060 O   0  0  0  0  0  0  0  0  0  0  0  0
   -0.6560   20.4170  -29.9400 C   0  0  0  0  0  0  0  0  0  0  0  0
   -2.0150   20.4540  -29.6070 C   0  0  0  0  0  0  0  0  0  0  0  0
   -2.9530   20.9740  -30.5050 C   0  0  0  0  0  0  0  0  0  0  0  0
   -2.5420   21.4580  -31.7570 C   0  0  0  0  0  0  0  0  0  0  0  0
   -3.5450   22.0540  -32.7110 C   0  0  0  0  0  0  0  0  0  0  0  0
   -4.9440   21.5740  -32.3770 C   0  0  0  0  0  0  0  0  0  0  0  0
   -5.2580   20.3070  -32.7560 N   0  0  0  0  0  0  0  0  0  0  0  0
   -6.4710   19.7620  -32.5160 C   0  0  0  0  0  0  0  0  0  0  0  0
   -6.7400   18.4480  -32.9170 C   0  0  0  0  0  0  0  0  0  0  0  0
   -7.9920   17.8830  -32.6630 C   0  0  0  0  0  0  0  0  0  0  0  0
   -8.9780   18.6280  -32.0100 C   0  0  0  0  0  0  0  0  0  0  0  0
   -8.7140   19.9420  -31.6080 C   0  0  0  0  0  0  0  0  0  0  0  0
   -7.4540   20.5190  -31.8620 C   0  0  0  0  0  0  0  0  0  0  0  0
   -7.1400   21.8350  -31.4850 C   0  0  0  0  0  0  0  0  0  0  0  0
   -8.0120   22.5290  -30.8900 O   0  0  0  0  0  0  0  0  0  0  0  0
   -5.8950   22.3640  -31.7550 N   0  0  0  0  0  0  0  0  0  0  0  0
   -5.6010   23.7620  -31.3640 C   0  0  0  0  0  0  0  0  0  0  0  0
   -4.7070   23.8220  -30.1480 C   0  0  0  0  0  0  0  0  0  0  0  0
   -3.4980   24.5390  -30.1790 C   0  0  0  0  0  0  0  0  0  0  0  0
   -2.6700   24.5760  -29.0530 C   0  0  0  0  0  0  0  0  0  0  0  0
   -3.0320   23.8840  -27.8940 C   0  0  0  0  0  0  0  0  0  0  0  0
   -4.2180   23.1480  -27.8630 C   0  0  0  0  0  0  0  0  0  0  0  0
   -5.0490   23.1080  -28.9860 C   0  0  0  0  0  0  0  0  0  0  0  0
   -1.1790   21.4300  -32.0900 C   0  0  0  0  0  0  0  0  0  0  0  0
   -0.2420   20.9110  -31.1920 C   0  0  0  0  0  0  0  0  0  0  0  0
    0.1240   19.6324  -26.9565 H   0  0  0  0  0  0  0  0  0  0  0  0
   -1.2174   18.9156  -27.9123 H   0  0  0  0  0  0  0  0  0  0  0  0
    0.4014   18.1370  -27.9123 H   0  0  0  0  0  0  0  0  0  0  0  0
   -2.3481   20.0710  -28.6311 H   0  0  0  0  0  0  0  0  0  0  0  0
   -4.0174   21.0038  -30.2289 H   0  0  0  0  0  0  0  0  0  0  0  0
   -3.5104   23.1508  -32.6344 H   0  0  0  0  0  0  0  0  0  0  0  0
   -3.2947   21.7379  -33.7344 H   0  0  0  0  0  0  0  0  0  0  0  0
   -5.9656   17.8606  -33.4320 H   0  0  0  0  0  0  0  0  0  0  0  0
   -8.2023   16.8501  -32.9774 H   0  0  0  0  0  0  0  0  0  0  0  0
   -9.9632   18.1806  -31.8118 H   0  0  0  0  0  0  0  0  0  0  0  0
   -9.4914   20.5254  -31.0929 H   0  0  0  0  0  0  0  0  0  0  0  0
   -5.0994   24.2691  -32.2014 H   0  0  0  0  0  0  0  0  0  0  0  0
   -6.5515   24.2579  -31.1176 H   0  0  0  0  0  0  0  0  0  0  0  0
   -3.2021   25.0735  -31.0937 H   0  0  0  0  0  0  0  0  0  0  0  0
   -1.7324   25.1506  -29.0794 H   0  0  0  0  0  0  0  0  0  0  0  0
   -2.3828   23.9192  -27.0067 H   0  0  0  0  0  0  0  0  0  0  0  0
   -4.4990   22.5983  -26.9526 H   0  0  0  0  0  0  0  0  0  0  0  0
   -5.9751   22.5150  -28.9607 H   0  0  0  0  0  0  0  0  0  0  0  0
   -0.8460   21.8188  -33.0636 H   0  0  0  0  0  0  0  0  0  0  0  0
    0.8235   20.8884  -31.4645 H   0  0  0  0  0  0  0  0  0  0  0  0
  1  2  1  0
  2  3  1  0
  3  4  2  0
  4  5  1  0
  5  6  2  0
  6  7  1  0
  7  8  1  0
  8  9  2  0
  9 10  1  0
 10 11  2  0
 11 12  1  0
 12 13  2  0
 13 14  1  0
 14 15  2  0
 15 16  1  0
 16 17  2  0
 16 18  1  0
 18 19  1  0
 19 20  1  0
 20 21  2  0
 21 22  1  0
 22 23  2  0
 23 24  1  0
 24 25  2  0
  6 26  1  0
 26 27  2  0
 27  3  1  0
 18  8  1  0
 25 20  1  0
 15 10  1  0
  1 28  1  0
  1 29  1  0
  1 30  1  0
  4 31  1  0
  5 32  1  0
  7 33  1  0
  7 34  1  0
 11 35  1  0
 12 36  1  0
 13 37  1  0
 14 38  1  0
 19 39  1  0
 19 40  1  0
 21 41  1  0
 22 42  1  0
 23 43  1  0
 24 44  1  0
 25 45  1  0
 26 46  1  0
 27 47  1  0
M  END
>  <UniqueID>  (2) 
2

>  <SMILES>  (2) 
COc1ccc(Cc2nc3ccccc3c(=O)n2Cc2ccccc2)cc1

>  <Energy>  (2) 
59.47010748446

>  <Genealogy>  (2) 
COc1ccc(Cc2nc3ccccc3c(=O)n2Cc2ccccc2)cc1 (3D coordinates assigned)
COc1ccc(Cc2nc3ccccc3c(=O)n2Cc2ccccc2)cc1 (optimized conformer: 59.47010748446 kcal/mol)

>  <smiles>  (2) 
COc1ccc(Cc2nc3ccccc3c(=O)n2Cc2ccccc2)cc1

>  <score_type>  (2) 
oracle

>  <origin>  (2) 
adgpu

>  <m_score__min__energy>  (2) 
-8.0600000000000005

>  <m_primary>  (2) 
energy

$$$$
2:0
     RDKit          3D

 43 45  0  0  0  0  0  0  0  0999 V2000
    0.3130   27.2180  -22.9490 C   0  0  0  0  0  0  0  0  0  0  0  0
   -0.9160   27.3140  -23.6630 O   0  0  0  0  0  0  0  0  0  0  0  0
   -1.1050   26.8640  -24.9790 C   0  0  0  0  0  0  0  0  0  0  0  0
   -1.9930   25.8200  -25.3000 C   0  0  0  0  0  0  0  0  0  0  0  0
   -2.1470   25.4110  -26.6280 C   0  0  0  0  0  0  0  0  0  0  0  0
   -1.4220   26.0280  -27.6550 C   0  0  0  0  0  0  0  0  0  0  0  0
   -1.6170   25.5770  -28.9710 O   0  0  0  0  0  0  0  0  0  0  0  0
   -1.9310   24.2360  -29.3440 C   0  0  0  0  0  0  0  0  0  0  0  0
   -3.2440   24.1860  -30.0580 C   0  0  0  0  0  0  0  0  0  0  0  0
   -3.9500   23.0580  -30.2550 N   0  0  0  0  0  0  0  0  0  0  0  0
   -5.0220   23.5300  -30.9270 C   0  0  0  0  0  0  0  0  0  0  0  0
   -6.1420   22.6810  -31.3920 C   0  0  0  0  0  0  0  0  0  0  0  0
   -7.4700   23.0830  -31.1890 C   0  0  0  0  0  0  0  0  0  0  0  0
   -8.5280   22.2830  -31.6260 C   0  0  0  0  0  0  0  0  0  0  0  0
   -8.2770   21.0590  -32.2700 C   0  0  0  0  0  0  0  0  0  0  0  0
   -9.3140   20.2240  -32.7170 O   0  0  0  0  0  0  0  0  0  0  0  0
   -9.4680   18.8590  -32.3420 C   0  0  0  0  0  0  0  0  0  0  0  0
   -6.9520   20.6450  -32.4780 C   0  0  0  0  0  0  0  0  0  0  0  0
   -6.7320   19.4150  -33.1180 O   0  0  0  0  0  0  0  0  0  0  0  0
   -5.8180   19.2130  -34.1920 C   0  0  0  0  0  0  0  0  0  0  0  0
   -5.8890   21.4600  -32.0410 C   0  0  0  0  0  0  0  0  0  0  0  0
   -4.9610   24.8630  -31.1190 N   0  0  0  0  0  0  0  0  0  0  0  0
   -3.8470   25.2310  -30.5660 O   0  0  0  0  0  0  0  0  0  0  0  0
   -0.5350   27.0720  -27.3310 C   0  0  0  0  0  0  0  0  0  0  0  0
   -0.3800   27.4820  -26.0030 C   0  0  0  0  0  0  0  0  0  0  0  0
    0.1111   27.2338  -21.8678 H   0  0  0  0  0  0  0  0  0  0  0  0
    0.8185   26.2776  -23.2139 H   0  0  0  0  0  0  0  0  0  0  0  0
    0.9584   28.0685  -23.2139 H   0  0  0  0  0  0  0  0  0  0  0  0
   -2.5675   25.3245  -24.5035 H   0  0  0  0  0  0  0  0  0  0  0  0
   -2.8452   24.5958  -26.8688 H   0  0  0  0  0  0  0  0  0  0  0  0
   -1.1429   23.8507  -30.0076 H   0  0  0  0  0  0  0  0  0  0  0  0
   -1.9959   23.6194  -28.4354 H   0  0  0  0  0  0  0  0  0  0  0  0
   -7.6801   24.0361  -30.6815 H   0  0  0  0  0  0  0  0  0  0  0  0
   -9.5649   22.6130  -31.4651 H   0  0  0  0  0  0  0  0  0  0  0  0
   -9.4770   18.7789  -31.2450 H   0  0  0  0  0  0  0  0  0  0  0  0
  -10.4154   18.4725  -32.7457 H   0  0  0  0  0  0  0  0  0  0  0  0
   -8.6305   18.2711  -32.7457 H   0  0  0  0  0  0  0  0  0  0  0  0
   -4.8194   18.9923  -33.7870 H   0  0  0  0  0  0  0  0  0  0  0  0
   -6.1583   18.3684  -34.8091 H   0  0  0  0  0  0  0  0  0  0  0  0
   -5.7706   20.1224  -34.8091 H   0  0  0  0  0  0  0  0  0  0  0  0
   -4.8509   21.1376  -32.2093 H   0  0  0  0  0  0  0  0  0  0  0  0
    0.0395   27.5682  -28.1270 H   0  0  0  0  0  0  0  0  0  0  0  0
    0.3179   28.2973  -25.7618 H   0  0  0  0  0  0  0  0  0  0  0  0
  1  2  1  0
  2  3  1  0
  3  4  2  0
  4  5  1  0
  5  6  2  0
  6  7  1  0
  7  8  1  0
  8  9  1  0
  9 10  2  0
 10 11  1  0
 11 12  1  0
 12 13  2  0
 13 14  1  0
 14 15  2  0
 15 16  1  0
 16 17  1  0
 15 18  1  0
 18 19  1  0
 19 20  1  0
 18 21  2  0
 11 22  2  0
 22 23  1  0
  6 24  1  0
 24 25  2  0
 25  3  1  0
 23  9  1  0
 21 12  1  0
  1 26  1  0
  1 27  1  0
  1 28  1  0
  4 29  1  0
  5 30  1  0
  8 31  1  0
  8 32  1  0
 13 33  1  0
 14 34  1  0
 17 35  1  0
 17 36  1  0
 17 37  1  0
 20 38  1  0
 20 39  1  0
 20 40  1  0
 21 41  1  0
 24 42  1  0
 25 43  1  0
M  END
>  <UniqueID>  (3) 
3

>  <SMILES>  (3) 
COc1ccc(OCc2nc(-c3ccc(OC)c(OC)c3)no2)cc1

>  <Energy>  (3) 
76.23265680170748

>  <Genealogy>  (3) 
COc1ccc(OCc2nc(-c3ccc(OC)c(OC)c3)no2)cc1 (3D coordinates assigned)
COc1ccc(OCc2nc(-c3ccc(OC)c(OC)c3)no2)cc1 (optimized conformer: 76.23265680170748 kcal/mol)

>  <smiles>  (3) 
COc1ccc(OCc2nc(-c3ccc(OC)c(OC)c3)no2)cc1

>  <score_type>  (3) 
oracle

>  <origin>  (3) 
adgpu

>  <m_score__min__energy>  (3) 
-8.5600000000000005

>  <m_primary>  (3) 
energy

$$$$
3:0
     RDKit          3D

 62 66  0  0  0  0  0  0  0  0999 V2000
   -3.8000   14.3140  -38.3850 H   0  0  0  0  0  0  0  0  0  0  0  0
   -3.4620   14.8160  -39.1750 O   0  0  0  0  0  0  0  0  0  0  0  0
   -2.1120   14.4620  -39.3260 C   0  0  0  0  0  0  0  0  0  0  0  0
   -2.0426   13.5377  -39.9183 H   0  0  0  0  0  0  0  0  0  0  0  0
   -1.5820   15.2775  -39.8399 H   0  0  0  0  0  0  0  0  0  0  0  0
   -1.4700   14.2340  -37.9560 C   0  0  0  0  0  0  0  0  0  0  0  0
   -1.3436   13.1544  -37.7871 H   0  0  0  0  0  0  0  0  0  0  0  0
   -0.4891   14.7311  -37.9274 H   0  0  0  0  0  0  0  0  0  0  0  0
   -2.3290   14.7950  -36.9040 N   0  0  0  0  0  0  0  0  0  0  0  0
   -3.0630   15.3820  -37.3710 H   0  0  0  0  0  0  0  0  0  0  0  0
   -1.5680   15.6680  -36.0010 C   0  0  0  0  0  0  0  0  0  0  0  0
   -1.0325   15.0509  -35.2645 H   0  0  0  0  0  0  0  0  0  0  0  0
   -0.8496   16.2562  -36.5909 H   0  0  0  0  0  0  0  0  0  0  0  0
   -2.4990   16.6080  -35.2800 C   0  0  0  0  0  0  0  0  0  0  0  0
   -1.9920   17.6490  -34.4870 C   0  0  0  0  0  0  0  0  0  0  0  0
   -0.9054   17.8060  -34.4185 H   0  0  0  0  0  0  0  0  0  0  0  0
   -2.8620   18.4870  -33.7840 C   0  0  0  0  0  0  0  0  0  0  0  0
   -2.4547   19.2962  -33.1600 H   0  0  0  0  0  0  0  0  0  0  0  0
   -4.2550   18.3040  -33.8680 C   0  0  0  0  0  0  0  0  0  0  0  0
   -5.1840   19.1700  -33.1010 C   0  0  0  0  0  0  0  0  0  0  0  0
   -4.7220   19.9270  -32.0150 C   0  0  0  0  0  0  0  0  0  0  0  0
   -3.6682   19.8523  -31.7085 H   0  0  0  0  0  0  0  0  0  0  0  0
   -5.5850   20.7740  -31.3190 C   0  0  0  0  0  0  0  0  0  0  0  0
   -5.2146   21.3189  -30.4382 H   0  0  0  0  0  0  0  0  0  0  0  0
   -6.9260   20.9430  -31.7270 C   0  0  0  0  0  0  0  0  0  0  0  0
   -7.8410   21.8520  -31.1090 C   0  0  0  0  0  0  0  0  0  0  0  0
   -7.5080   22.8600  -30.3440 N   0  0  0  0  0  0  0  0  0  0  0  0
   -6.2340   23.4830  -30.1260 C   0  0  0  0  0  0  0  0  0  0  0  0
   -5.8960   24.6910  -30.7590 C   0  0  0  0  0  0  0  0  0  0  0  0
   -6.6055   25.1636  -31.4542 H   0  0  0  0  0  0  0  0  0  0  0  0
   -4.6590   25.2940  -30.5070 C   0  0  0  0  0  0  0  0  0  0  0  0
   -4.3842   26.2234  -31.0273 H   0  0  0  0  0  0  0  0  0  0  0  0
   -3.7710   24.7150  -29.5930 C   0  0  0  0  0  0  0  0  0  0  0  0
   -2.5280   25.3010  -29.3460 O   0  0  0  0  0  0  0  0  0  0  0  0
   -1.7120   24.9660  -28.2530 C   0  0  0  0  0  0  0  0  0  0  0  0
   -0.5410   24.2410  -28.4940 C   0  0  0  0  0  0  0  0  0  0  0  0
   -0.2956   23.9227  -29.5179 H   0  0  0  0  0  0  0  0  0  0  0  0
    0.3210   23.9180  -27.4390 C   0  0  0  0  0  0  0  0  0  0  0  0
    1.2405   23.3479  -27.6379 H   0  0  0  0  0  0  0  0  0  0  0  0
    0.0180   24.3170  -26.1340 C   0  0  0  0  0  0  0  0  0  0  0  0
    0.7010   24.0667  -25.3089 H   0  0  0  0  0  0  0  0  0  0  0  0
   -1.1550   25.0350  -25.8790 C   0  0  0  0  0  0  0  0  0  0  0  0
   -1.3990   25.3440  -24.8519 H   0  0  0  0  0  0  0  0  0  0  0  0
   -2.0180   25.3600  -26.9320 C   0  0  0  0  0  0  0  0  0  0  0  0
   -2.9396   25.9254  -26.7294 H   0  0  0  0  0  0  0  0  0  0  0  0
   -4.1350   23.5490  -28.9110 C   0  0  0  0  0  0  0  0  0  0  0  0
   -3.4538   23.1146  -28.1645 H   0  0  0  0  0  0  0  0  0  0  0  0
   -5.3620   22.9350  -29.1760 C   0  0  0  0  0  0  0  0  0  0  0  0
   -5.6442   22.0185  -28.6371 H   0  0  0  0  0  0  0  0  0  0  0  0
   -9.2070   21.7020  -31.3720 C   0  0  0  0  0  0  0  0  0  0  0  0
   -9.9393   22.3006  -30.8103 H   0  0  0  0  0  0  0  0  0  0  0  0
   -9.6470   20.8030  -32.3370 C   0  0  0  0  0  0  0  0  0  0  0  0
  -10.7231   20.7027  -32.5419 H   0  0  0  0  0  0  0  0  0  0  0  0
   -8.7550   20.0490  -33.0270 N   0  0  0  0  0  0  0  0  0  0  0  0
   -9.1210   19.4050  -33.7640 H   0  0  0  0  0  0  0  0  0  0  0  0
   -7.4210   20.0800  -32.7440 C   0  0  0  0  0  0  0  0  0  0  0  0
   -6.5450   19.2330  -33.4400 C   0  0  0  0  0  0  0  0  0  0  0  0
   -6.9295   18.6106  -34.2615 H   0  0  0  0  0  0  0  0  0  0  0  0
   -4.7560   17.2660  -34.6760 C   0  0  0  0  0  0  0  0  0  0  0  0
   -5.8426   17.1187  -34.7628 H   0  0  0  0  0  0  0  0  0  0  0  0
   -3.8860   16.4220  -35.3680 C   0  0  0  0  0  0  0  0  0  0  0  0
   -4.2906   15.6066  -35.9857 H   0  0  0  0  0  0  0  0  0  0  0  0
  1  2  1  0
  2  3  1  0
  3  4  1  0
  3  5  1  0
  3  6  1  0
  6  7  1  0
  6  8  1  0
  6  9  1  0
  9 10  1  0
  9 11  1  0
 11 12  1  0
 11 13  1  0
 11 14  1  0
 14 15  2  0
 15 16  1  0
 15 17  1  0
 17 18  1  0
 17 19  2  0
 19 20  1  0
 20 21  2  0
 21 22  1  0
 21 23  1  0
 23 24  1  0
 23 25  2  0
 25 26  1  0
 26 27  2  0
 27 28  1  0
 28 29  2  0
 29 30  1  0
 29 31  1  0
 31 32  1  0
 31 33  2  0
 33 34  1  0
 34 35  1  0
 35 36  2  0
 36 37  1  0
 36 38  1  0
 38 39  1  0
 38 40  2  0
 40 41  1  0
 40 42  1  0
 42 43  1  0
 42 44  2  0
 44 45  1  0
 33 46  1  0
 46 47  1  0
 46 48  2  0
 48 49  1  0
 26 50  1  0
 50 51  1  0
 50 52  2  0
 52 53  1  0
 52 54  1  0
 54 55  1  0
 54 56  1  0
 56 57  2  0
 57 58  1  0
 19 59  1  0
 59 60  1  0
 59 61  2  0
 61 62  1  0
 61 14  1  0
 57 20  1  0
 56 25  1  0
 48 28  1  0
 44 35  1  0
M  END
>  <UniqueID>  (4) 
4

>  <SMILES>  (4) 
OCCNCc1ccc(-c2ccc3/c(=N\c4ccc(Oc5ccccc5)cc4)cc[nH]c3c2)cc1

>  <Energy>  (4) 
102.3745603567506

>  <Genealogy>  (4) 
OCCNCc1ccc(-c2ccc3/c(=N\c4ccc(Oc5ccccc5)cc4)cc[nH]c3c2)cc1 (cis-trans isomerization)
OCCNCc1ccc(-c2ccc3/c(=N\c4ccc(Oc5ccccc5)cc4)cc[nH]c3c2)cc1 (3D coordinates assigned)
OCCNCc1ccc(-c2ccc3/c(=N\c4ccc(Oc5ccccc5)cc4)cc[nH]c3c2)cc1 (optimized conformer: 102.3745603567506 kcal/mol)

>  <smiles>  (4) 
OCCNCc1ccc(-c2ccc3c(=Nc4ccc(Oc5ccccc5)cc4)cc[nH]c3c2)cc1

>  <score_type>  (4) 
oracle

>  <origin>  (4) 
adgpu

>  <m_score__min__energy>  (4) 
-9.8499999999999996

>  <m_primary>  (4) 
energy

$$$$
4:0
     RDKit          3D

 26 27  0  0  0  0  0  0  0  0999 V2000
   -1.2390   25.8930  -29.2170 O   0  0  0  0  0  0  0  0  0  0  0  0
   -1.5200   24.6810  -29.0110 C   0  0  0  0  0  0  0  0  0  0  0  0
   -0.7180   23.9290  -28.2050 N   0  0  0  0  0  0  0  0  0  0  0  0
   -0.9860   22.6190  -27.9560 C   0  0  0  0  0  0  0  0  0  0  0  0
   -2.1020   22.0110  -28.5300 C   0  0  0  0  0  0  0  0  0  0  0  0
   -2.9390   22.7580  -29.3590 C   0  0  0  0  0  0  0  0  0  0  0  0
   -2.6560   24.1110  -29.6090 C   0  0  0  0  0  0  0  0  0  0  0  0
   -3.4900   24.9230  -30.4500 N   0  0  0  0  0  0  0  0  0  0  0  0
   -5.2250   24.8990  -30.4580 S   0  0  0  0  0  0  0  0  0  0  0  0
   -5.7300   26.1520  -31.1180 O   0  0  0  0  0  0  0  0  0  0  0  0
   -5.7220   24.8560  -29.0410 O   0  0  0  0  0  0  0  0  0  0  0  0
   -5.8060   23.4710  -31.3090 C   0  0  0  0  0  0  0  0  0  0  0  0
   -7.1640   23.1280  -31.2570 C   0  0  0  0  0  0  0  0  0  0  0  0
   -7.6270   21.9900  -31.9250 C   0  0  0  0  0  0  0  0  0  0  0  0
   -6.7370   21.1930  -32.6500 C   0  0  0  0  0  0  0  0  0  0  0  0
   -7.1870   20.0900  -33.2980 F   0  0  0  0  0  0  0  0  0  0  0  0
   -5.3820   21.5350  -32.7100 C   0  0  0  0  0  0  0  0  0  0  0  0
   -4.9170   22.6730  -32.0420 C   0  0  0  0  0  0  0  0  0  0  0  0
    0.1250   24.3640  -27.7650 H   0  0  0  0  0  0  0  0  0  0  0  0
   -0.3209   22.0378  -27.3003 H   0  0  0  0  0  0  0  0  0  0  0  0
   -2.3204   20.9515  -28.3308 H   0  0  0  0  0  0  0  0  0  0  0  0
   -3.8213   22.2872  -29.8173 H   0  0  0  0  0  0  0  0  0  0  0  0
   -7.8671   23.7553  -30.6895 H   0  0  0  0  0  0  0  0  0  0  0  0
   -8.6929   21.7219  -31.8797 H   0  0  0  0  0  0  0  0  0  0  0  0
   -4.6818   20.9090  -33.2826 H   0  0  0  0  0  0  0  0  0  0  0  0
   -3.8516   22.9420  -32.0922 H   0  0  0  0  0  0  0  0  0  0  0  0
  1  2  2  0
  2  3  1  0
  3  4  1  0
  4  5  2  0
  5  6  1  0
  6  7  2  0
  7  8  1  0
  8  9  1  0
  9 10  2  0
  9 11  2  0
  9 12  1  0
 12 13  2  0
 13 14  1  0
 14 15  2  0
 15 16  1  0
 15 17  1  0
 17 18  2  0
  7  2  1  0
 18 12  1  0
  3 19  1  0
  4 20  1  0
  5 21  1  0
  6 22  1  0
 13 23  1  0
 14 24  1  0
 17 25  1  0
 18 26  1  0
M  CHG  1   8  -1
M  END
>  <UniqueID>  (5) 
5

>  <SMILES>  (5) 
O=c1[nH]cccc1[N-]S(=O)(=O)c1ccc(F)cc1

>  <Energy>  (5) 
30.696463371505658

>  <Genealogy>  (5) 
O=c1[nH]cccc1[N-]S(=O)(=O)c1ccc(F)cc1 (protonated)
O=c1[nH]cccc1[N-]S(=O)(=O)c1ccc(F)cc1 (3D coordinates assigned)
O=c1[nH]cccc1[N-]S(=O)(=O)c1ccc(F)cc1 (optimized conformer: 30.696463371505658 kcal/mol)

>  <smiles>  (5) 
O=c1[nH]cccc1NS(=O)(=O)c1ccc(F)cc1

>  <score_type>  (5) 
oracle

>  <origin>  (5) 
adgpu

>  <m_score__min__energy>  (5) 
-8.0500000000000007

>  <m_primary>  (5) 
energy

$$$$
5:0
     RDKit          3D

 50 54  0  0  0  0  0  0  0  0999 V2000
    1.0080   20.8990  -28.3960 H   0  0  0  0  0  0  0  0  0  0  0  0
    1.0070   21.7930  -27.8560 N   0  0  0  0  0  0  0  0  0  0  0  0
    0.0260   22.6330  -27.9400 C   0  0  0  0  0  0  0  0  0  0  0  0
   -1.0350   22.3600  -28.7440 N   0  0  0  0  0  0  0  0  0  0  0  0
   -2.0820   23.2200  -28.8630 C   0  0  0  0  0  0  0  0  0  0  0  0
   -3.2190   22.8610  -29.7500 C   0  0  0  0  0  0  0  0  0  0  0  0
   -3.0010   22.0360  -30.8690 C   0  0  0  0  0  0  0  0  0  0  0  0
   -1.9893   21.6582  -31.0782 H   0  0  0  0  0  0  0  0  0  0  0  0
   -4.0570   21.6920  -31.7170 C   0  0  0  0  0  0  0  0  0  0  0  0
   -3.8743   21.0344  -32.5797 H   0  0  0  0  0  0  0  0  0  0  0  0
   -5.3510   22.1820  -31.4730 C   0  0  0  0  0  0  0  0  0  0  0  0
   -6.4370   21.8520  -32.2950 O   0  0  0  0  0  0  0  0  0  0  0  0
   -7.0610   20.6000  -32.3210 C   0  0  0  0  0  0  0  0  0  0  0  0
   -8.2650   20.3560  -31.6670 C   0  0  0  0  0  0  0  0  0  0  0  0
   -9.1740   21.5430  -30.6830 S   0  0  0  0  0  0  0  0  0  0  0  0
   -9.1090   22.8270  -31.9700 C   0  0  0  0  0  0  0  0  0  0  0  0
   -9.0588   23.8186  -31.4965 H   0  0  0  0  0  0  0  0  0  0  0  0
   -8.2175   22.6740  -32.5959 H   0  0  0  0  0  0  0  0  0  0  0  0
  -10.0114   22.7648  -32.5959 H   0  0  0  0  0  0  0  0  0  0  0  0
   -8.7220   18.7460  -31.8900 S   0  0  0  0  0  0  0  0  0  0  0  0
   -7.3940   18.3530  -32.8430 C   0  0  0  0  0  0  0  0  0  0  0  0
   -7.0980   17.1280  -33.4350 C   0  0  0  0  0  0  0  0  0  0  0  0
   -7.7552   16.2578  -33.2907 H   0  0  0  0  0  0  0  0  0  0  0  0
   -5.9400   17.0330  -34.2200 C   0  0  0  0  0  0  0  0  0  0  0  0
   -5.6781   16.0759  -34.6947 H   0  0  0  0  0  0  0  0  0  0  0  0
   -5.1110   18.1550  -34.4040 C   0  0  0  0  0  0  0  0  0  0  0  0
   -4.2066   18.0697  -35.0243 H   0  0  0  0  0  0  0  0  0  0  0  0
   -5.4300   19.3840  -33.8010 C   0  0  0  0  0  0  0  0  0  0  0  0
   -4.7905   20.2656  -33.9555 H   0  0  0  0  0  0  0  0  0  0  0  0
   -6.5760   19.4670  -33.0000 C   0  0  0  0  0  0  0  0  0  0  0  0
   -5.5730   23.0000  -30.3620 C   0  0  0  0  0  0  0  0  0  0  0  0
   -6.5862   23.3748  -30.1550 H   0  0  0  0  0  0  0  0  0  0  0  0
   -4.5200   23.3460  -29.5120 C   0  0  0  0  0  0  0  0  0  0  0  0
   -4.7082   24.0026  -28.6497 H   0  0  0  0  0  0  0  0  0  0  0  0
   -2.0670   24.4120  -28.1240 C   0  0  0  0  0  0  0  0  0  0  0  0
   -2.9064   25.1198  -28.1913 H   0  0  0  0  0  0  0  0  0  0  0  0
   -0.9680   24.6900  -27.2980 C   0  0  0  0  0  0  0  0  0  0  0  0
   -0.9230   25.9440  -26.5040 C   0  0  0  0  0  0  0  0  0  0  0  0
   -1.2620   25.9410  -25.1370 C   0  0  0  0  0  0  0  0  0  0  0  0
   -1.5575   25.0007  -24.6486 H   0  0  0  0  0  0  0  0  0  0  0  0
   -1.2250   27.1260  -24.3980 C   0  0  0  0  0  0  0  0  0  0  0  0
   -1.4915   27.1160  -23.3308 H   0  0  0  0  0  0  0  0  0  0  0  0
   -0.8500   28.3240  -25.0120 C   0  0  0  0  0  0  0  0  0  0  0  0
   -0.8236   29.2562  -24.4286 H   0  0  0  0  0  0  0  0  0  0  0  0
   -0.5090   28.3380  -26.3650 C   0  0  0  0  0  0  0  0  0  0  0  0
   -0.2111   29.2814  -26.8459 H   0  0  0  0  0  0  0  0  0  0  0  0
   -0.5450   27.1560  -27.1110 C   0  0  0  0  0  0  0  0  0  0  0  0
   -0.2765   27.1736  -28.1776 H   0  0  0  0  0  0  0  0  0  0  0  0
    0.0570   23.7920  -27.2260 N   0  0  0  0  0  0  0  0  0  0  0  0
    0.8900   23.9960  -26.6270 H   0  0  0  0  0  0  0  0  0  0  0  0
  1  2  1  0
  2  3  2  0
  3  4  1  0
  4  5  2  0
  5  6  1  0
  6  7  2  0
  7  8  1  0
  7  9  1  0
  9 10  1  0
  9 11  2  0
 11 12  1  0
 12 13  1  0
 13 14  2  0
 14 15  1  0
 15 16  1  0
 16 17  1  0
 16 18  1  0
 16 19  1  0
 14 20  1  0
 20 21  1  0
 21 22  2  0
 22 23  1  0
 22 24  1  0
 24 25  1  0
 24 26  2  0
 26 27  1  0
 26 28  1  0
 28 29  1  0
 28 30  2  0
 11 31  1  0
 31 32  1  0
 31 33  2  0
 33 34  1  0
  5 35  1  0
 35 36  1  0
 35 37  2  0
 37 38  1  0
 38 39  2  0
 39 40  1  0
 39 41  1  0
 41 42  1  0
 41 43  2  0
 43 44  1  0
 43 45  1  0
 45 46  1  0
 45 47  2  0
 47 48  1  0
 37 49  1  0
 49 50  1  0
 49  3  1  0
 33  6  1  0
 47 38  1  0
 30 13  1  0
 30 21  1  0
M  END
>  <UniqueID>  (6) 
6

>  <SMILES>  (6) 
[H]/N=c1\nc(-c2ccc(Oc3c(SC)sc4ccccc34)cc2)cc(-c2ccccc2)[nH]1

>  <Energy>  (6) 
99.94712440822002

>  <Genealogy>  (6) 
[H]/N=c1\nc(-c2ccc(Oc3c(SC)sc4ccccc34)cc2)cc(-c2ccccc2)[nH]1 (cis-trans isomerization)
[H]/N=c1\nc(-c2ccc(Oc3c(SC)sc4ccccc34)cc2)cc(-c2ccccc2)[nH]1 (3D coordinates assigned)
[H]/N=c1\nc(-c2ccc(Oc3c(SC)sc4ccccc34)cc2)cc(-c2ccccc2)[nH]1 (optimized conformer: 99.94712440822002 kcal/mol)

>  <smiles>  (6) 
CSc1sc2ccccc2c1Oc1ccc(-c2cc(-c3ccccc3)[nH]c(=N)n2)cc1

>  <score_type>  (6) 
oracle

>  <origin>  (6) 
adgpu

>  <m_score__min__energy>  (6) 
-9.7899999999999991

>  <m_primary>  (6) 
energy

$$$$
6:0
     RDKit          3D

 31 33  0  0  0  0  0  0  0  0999 V2000
   -3.8600   25.6710  -30.1740 O   0  0  0  0  0  0  0  0  0  0  0  0
   -4.2750   24.4790  -30.7530 C   0  0  0  0  0  0  0  0  0  0  0  0
   -3.4030   23.3880  -30.8130 C   0  0  0  0  0  0  0  0  0  0  0  0
   -3.8210   22.1880  -31.3950 C   0  0  0  0  0  0  0  0  0  0  0  0
   -5.1140   22.0640  -31.9350 C   0  0  0  0  0  0  0  0  0  0  0  0
   -5.5420   20.7790  -32.5450 C   0  0  0  0  0  0  0  0  0  0  0  0
   -6.8110   20.2300  -32.3120 C   0  0  0  0  0  0  0  0  0  0  0  0
   -7.1580   19.0230  -32.9150 C   0  0  0  0  0  0  0  0  0  0  0  0
   -6.2380   18.3880  -33.7580 C   0  0  0  0  0  0  0  0  0  0  0  0
   -6.5170   17.1630  -34.3790 O   0  0  0  0  0  0  0  0  0  0  0  0
   -6.1040   15.9030  -33.9180 C   0  0  0  0  0  0  0  0  0  0  0  0
   -6.7340   14.7150  -34.3310 C   0  0  0  0  0  0  0  0  0  0  0  0
   -6.2820   13.4790  -33.8610 C   0  0  0  0  0  0  0  0  0  0  0  0
   -5.1920   13.4160  -32.9860 C   0  0  0  0  0  0  0  0  0  0  0  0
   -4.6250   11.8640  -32.3990 Cl  0  0  0  0  0  0  0  0  0  0  0  0
   -4.5500   14.5940  -32.5890 C   0  0  0  0  0  0  0  0  0  0  0  0
   -5.0010   15.8310  -33.0570 C   0  0  0  0  0  0  0  0  0  0  0  0
   -5.0190   18.9560  -33.9450 N   0  0  0  0  0  0  0  0  0  0  0  0
   -4.6860   20.1100  -33.3660 N   0  0  0  0  0  0  0  0  0  0  0  0
   -5.9880   23.1690  -31.8600 C   0  0  0  0  0  0  0  0  0  0  0  0
   -5.5660   24.3670  -31.2750 C   0  0  0  0  0  0  0  0  0  0  0  0
   -2.3865   23.4741  -30.4016 H   0  0  0  0  0  0  0  0  0  0  0  0
   -3.1317   21.3315  -31.4312 H   0  0  0  0  0  0  0  0  0  0  0  0
   -7.5274   20.7486  -31.6578 H   0  0  0  0  0  0  0  0  0  0  0  0
   -8.1449   18.5734  -32.7307 H   0  0  0  0  0  0  0  0  0  0  0  0
   -7.5853   14.7591  -35.0262 H   0  0  0  0  0  0  0  0  0  0  0  0
   -6.7842   12.5537  -34.1796 H   0  0  0  0  0  0  0  0  0  0  0  0
   -3.6883   14.5463  -31.9069 H   0  0  0  0  0  0  0  0  0  0  0  0
   -4.4873   16.7532  -32.7478 H   0  0  0  0  0  0  0  0  0  0  0  0
   -7.0078   23.0877  -32.2642 H   0  0  0  0  0  0  0  0  0  0  0  0
   -6.2532   25.2245  -31.2257 H   0  0  0  0  0  0  0  0  0  0  0  0
  1  2  1  0
  2  3  2  0
  3  4  1  0
  4  5  2  0
  5  6  1  0
  6  7  2  0
  7  8  1  0
  8  9  2  0
  9 10  1  0
 10 11  1  0
 11 12  2  0
 12 13  1  0
 13 14  2  0
 14 15  1  0
 14 16  1  0
 16 17  2  0
  9 18  1  0
 18 19  2  0
  5 20  1  0
 20 21  2  0
 21  2  1  0
 19  6  1  0
 17 11  1  0
  3 22  1  0
  4 23  1  0
  7 24  1  0
  8 25  1  0
 12 26  1  0
 13 27  1  0
 16 28  1  0
 17 29  1  0
 20 30  1  0
 21 31  1  0
M  CHG  1   1  -1
M  END
>  <UniqueID>  (7) 
7

>  <SMILES>  (7) 
[O-]c1ccc(-c2ccc(Oc3ccc(Cl)cc3)nn2)cc1

>  <Energy>  (7) 
45.914288865695816

>  <Genealogy>  (7) 
[O-]c1ccc(-c2ccc(Oc3ccc(Cl)cc3)nn2)cc1 (protonated)
[O-]c1ccc(-c2ccc(Oc3ccc(Cl)cc3)nn2)cc1 (3D coordinates assigned)
[O-]c1ccc(-c2ccc(Oc3ccc(Cl)cc3)nn2)cc1 (optimized conformer: 45.914288865695816 kcal/mol)

>  <smiles>  (7) 
Oc1ccc(-c2ccc(Oc3ccc(Cl)cc3)nn2)cc1

>  <score_type>  (7) 
oracle

>  <origin>  (7) 
adgpu

>  <m_score__min__energy>  (7) 
-9.6899999999999995

>  <m_primary>  (7) 
energy

$$$$
7:0
     RDKit          3D

 41 43  0  0  0  0  0  0  0  0999 V2000
    1.0950   24.8250  -24.7300 C   0  0  0  0  0  0  0  0  0  0  0  0
    0.2790   23.5710  -24.6960 C   0  0  0  0  0  0  0  0  0  0  0  0
   -0.2210   23.0300  -23.5700 N   0  0  0  0  0  0  0  0  0  0  0  0
   -0.8600   21.9460  -23.8890 O   0  0  0  0  0  0  0  0  0  0  0  0
   -0.8110   21.7400  -25.1860 C   0  0  0  0  0  0  0  0  0  0  0  0
   -1.3830   20.7050  -25.7310 N   0  0  0  0  0  0  0  0  0  0  0  0
   -1.4550   20.2340  -27.4000 S   0  0  0  0  0  0  0  0  0  0  0  0
   -0.0830   19.9060  -27.9200 O   0  0  0  0  0  0  0  0  0  0  0  0
   -2.3700   19.0550  -27.5660 O   0  0  0  0  0  0  0  0  0  0  0  0
   -2.0830   21.5970  -28.3220 C   0  0  0  0  0  0  0  0  0  0  0  0
   -1.5440   21.9300  -29.5730 C   0  0  0  0  0  0  0  0  0  0  0  0
   -2.0550   23.0120  -30.2930 C   0  0  0  0  0  0  0  0  0  0  0  0
   -3.1010   23.7880  -29.7600 C   0  0  0  0  0  0  0  0  0  0  0  0
   -3.6580   24.8980  -30.4780 N   0  0  0  0  0  0  0  0  0  0  0  0
   -5.0410   25.0840  -30.8120 C   0  0  0  0  0  0  0  0  0  0  0  0
   -5.5200   26.2480  -30.7640 O   0  0  0  0  0  0  0  0  0  0  0  0
   -5.9010   23.9630  -31.2610 C   0  0  0  0  0  0  0  0  0  0  0  0
   -7.2000   23.7940  -30.7540 C   0  0  0  0  0  0  0  0  0  0  0  0
   -7.9880   22.7250  -31.1860 C   0  0  0  0  0  0  0  0  0  0  0  0
   -7.4680   21.8270  -32.1190 C   0  0  0  0  0  0  0  0  0  0  0  0
   -6.2050   21.9900  -32.5910 N   0  0  0  0  0  0  0  0  0  0  0  0
   -5.4170   23.0230  -32.1850 C   0  0  0  0  0  0  0  0  0  0  0  0
   -3.6510   23.4370  -28.5220 C   0  0  0  0  0  0  0  0  0  0  0  0
   -3.1420   22.3520  -27.8040 C   0  0  0  0  0  0  0  0  0  0  0  0
   -0.0790   22.7770  -25.7790 C   0  0  0  0  0  0  0  0  0  0  0  0
    0.3100   23.0180  -27.2070 C   0  0  0  0  0  0  0  0  0  0  0  0
    1.3078   25.1520  -23.7015 H   0  0  0  0  0  0  0  0  0  0  0  0
    2.0413   24.6325  -25.2567 H   0  0  0  0  0  0  0  0  0  0  0  0
    0.5357   25.6122  -25.2567 H   0  0  0  0  0  0  0  0  0  0  0  0
   -0.1190   23.3960  -22.5990 H   0  0  0  0  0  0  0  0  0  0  0  0
   -0.7160   21.3370  -29.9886 H   0  0  0  0  0  0  0  0  0  0  0  0
   -1.6382   23.2587  -31.2807 H   0  0  0  0  0  0  0  0  0  0  0  0
   -7.5975   24.5053  -30.0150 H   0  0  0  0  0  0  0  0  0  0  0  0
   -9.0076   22.5923  -30.7950 H   0  0  0  0  0  0  0  0  0  0  0  0
   -8.0821   20.9857  -32.4728 H   0  0  0  0  0  0  0  0  0  0  0  0
   -4.3962   23.1219  -32.5827 H   0  0  0  0  0  0  0  0  0  0  0  0
   -4.4893   24.0190  -28.1116 H   0  0  0  0  0  0  0  0  0  0  0  0
   -3.5752   22.0898  -26.8275 H   0  0  0  0  0  0  0  0  0  0  0  0
    1.2447   23.5971  -27.2397 H   0  0  0  0  0  0  0  0  0  0  0  0
    0.4584   22.0534  -27.7144 H   0  0  0  0  0  0  0  0  0  0  0  0
   -0.4877   23.5804  -27.7144 H   0  0  0  0  0  0  0  0  0  0  0  0
  1  2  1  0
  2  3  1  0
  3  4  1  0
  4  5  1  0
  5  6  2  3
  6  7  1  0
  7  8  2  0
  7  9  2  0
  7 10  1  0
 10 11  2  0
 11 12  1  0
 12 13  2  0
 13 14  1  0
 14 15  1  0
 15 16  2  0
 15 17  1  0
 17 18  2  0
 18 19  1  0
 19 20  2  0
 20 21  1  0
 21 22  2  0
 13 23  1  0
 23 24  2  0
  5 25  1  0
 25 26  1  0
 25  2  2  0
 24 10  1  0
 22 17  1  0
  1 27  1  0
  1 28  1  0
  1 29  1  0
  3 30  1  0
 11 31  1  0
 12 32  1  0
 18 33  1  0
 19 34  1  0
 20 35  1  0
 22 36  1  0
 23 37  1  0
 24 38  1  0
 26 39  1  0
 26 40  1  0
 26 41  1  0
M  CHG  1  14  -1
M  END
>  <UniqueID>  (8) 
8

>  <SMILES>  (8) 
Cc1[nH]oc(=NS(=O)(=O)c2ccc([N-]C(=O)c3cccnc3)cc2)c1C

>  <Energy>  (8) 
91.93215137444298

>  <Genealogy>  (8) 
Cc1[nH]oc(=NS(=O)(=O)c2ccc([N-]C(=O)c3cccnc3)cc2)c1C (protonated)
Cc1[nH]oc(=NS(=O)(=O)c2ccc([N-]C(=O)c3cccnc3)cc2)c1C (3D coordinates assigned)
Cc1[nH]oc(=NS(=O)(=O)c2ccc([N-]C(=O)c3cccnc3)cc2)c1C (optimized conformer: 91.93215137444298 kcal/mol)

>  <smiles>  (8) 
Cc1[nH]oc(=NS(=O)(=O)c2ccc(NC(=O)c3cccnc3)cc2)c1C

>  <score_type>  (8) 
oracle

>  <origin>  (8) 
adgpu

>  <m_score__min__energy>  (8) 
-10.31

>  <m_primary>  (8) 
energy

$$$$
8:0
     RDKit          3D

 42 45  0  0  0  0  0  0  0  0999 V2000
   -6.9170   23.6240  -30.1070 C   0  0  0  0  0  0  0  0  0  0  0  0
   -5.9500   22.8230  -30.8590 N   0  0  0  0  0  0  0  0  0  0  0  0
   -4.5920   22.9160  -30.8400 C   0  0  0  0  0  0  0  0  0  0  0  0
   -3.8020   23.8290  -29.9920 C   0  0  0  0  0  0  0  0  0  0  0  0
   -3.5020   24.9670  -30.4420 O   0  0  0  0  0  0  0  0  0  0  0  0
   -3.3620   23.4210  -28.6860 N   0  0  0  0  0  0  0  0  0  0  0  0
   -2.6340   24.2710  -27.7830 C   0  0  0  0  0  0  0  0  0  0  0  0
   -1.2600   24.5090  -27.9540 C   0  0  0  0  0  0  0  0  0  0  0  0
   -0.5640   25.3170  -27.0520 C   0  0  0  0  0  0  0  0  0  0  0  0
   -1.2220   25.8900  -25.9510 C   0  0  0  0  0  0  0  0  0  0  0  0
   -0.4740   26.7500  -25.0020 C   0  0  0  0  0  0  0  0  0  0  0  0
   -0.1710   27.9820  -25.2360 N   0  0  0  0  0  0  0  0  0  0  0  0
    0.5490   28.5570  -24.1080 C   0  0  0  0  0  0  0  0  0  0  0  0
    0.6590   27.4110  -23.0900 C   0  0  0  0  0  0  0  0  0  0  0  0
   -0.0290   26.3060  -23.7320 N   0  0  0  0  0  0  0  0  0  0  0  0
   -2.5920   25.6330  -25.7700 C   0  0  0  0  0  0  0  0  0  0  0  0
   -3.2890   24.8250  -26.6730 C   0  0  0  0  0  0  0  0  0  0  0  0
   -4.6130   24.5990  -26.4800 F   0  0  0  0  0  0  0  0  0  0  0  0
   -4.0230   22.0290  -31.7520 C   0  0  0  0  0  0  0  0  0  0  0  0
   -5.0880   21.3570  -32.3080 C   0  0  0  0  0  0  0  0  0  0  0  0
   -5.1290   20.3460  -33.2620 C   0  0  0  0  0  0  0  0  0  0  0  0
   -6.3490   19.8550  -33.6270 N   0  0  0  0  0  0  0  0  0  0  0  0
   -7.5150   20.3270  -33.0850 C   0  0  0  0  0  0  0  0  0  0  0  0
   -7.4880   21.3500  -32.1190 C   0  0  0  0  0  0  0  0  0  0  0  0
   -6.2360   21.8490  -31.7490 C   0  0  0  0  0  0  0  0  0  0  0  0
   -6.7489   23.4848  -29.0289 H   0  0  0  0  0  0  0  0  0  0  0  0
   -6.7915   24.6863  -30.3635 H   0  0  0  0  0  0  0  0  0  0  0  0
   -7.9374   23.3030  -30.3635 H   0  0  0  0  0  0  0  0  0  0  0  0
   -3.6300   22.4740  -28.3420 H   0  0  0  0  0  0  0  0  0  0  0  0
   -0.7287   24.0559  -28.8040 H   0  0  0  0  0  0  0  0  0  0  0  0
    0.5087   25.5063  -27.2051 H   0  0  0  0  0  0  0  0  0  0  0  0
   -0.4290   28.5170  -26.0940 H   0  0  0  0  0  0  0  0  0  0  0  0
    1.5479   28.8974  -24.4183 H   0  0  0  0  0  0  0  0  0  0  0  0
    0.0356   29.4360  -23.6911 H   0  0  0  0  0  0  0  0  0  0  0  0
    1.7121   27.1578  -22.8982 H   0  0  0  0  0  0  0  0  0  0  0  0
    0.2262   27.6694  -22.1123 H   0  0  0  0  0  0  0  0  0  0  0  0
   -0.1040   25.3380  -23.3490 H   0  0  0  0  0  0  0  0  0  0  0  0
   -3.1202   26.0714  -24.9105 H   0  0  0  0  0  0  0  0  0  0  0  0
   -2.9549   21.8950  -31.9784 H   0  0  0  0  0  0  0  0  0  0  0  0
   -4.2043   19.9531  -33.7098 H   0  0  0  0  0  0  0  0  0  0  0  0
   -8.4781   19.9040  -33.4067 H   0  0  0  0  0  0  0  0  0  0  0  0
   -8.4145   21.7410  -31.6733 H   0  0  0  0  0  0  0  0  0  0  0  0
  1  2  1  0
  2  3  1  0
  3  4  1  0
  4  5  2  0
  4  6  1  0
  6  7  1  0
  7  8  2  0
  8  9  1  0
  9 10  2  0
 10 11  1  0
 11 12  2  0
 12 13  1  0
 13 14  1  0
 14 15  1  0
 10 16  1  0
 16 17  2  0
 17 18  1  0
  3 19  2  0
 19 20  1  0
 20 21  2  0
 21 22  1  0
 22 23  2  0
 23 24  1  0
 24 25  2  0
 25  2  1  0
 17  7  1  0
 25 20  1  0
 15 11  1  0
  1 26  1  0
  1 27  1  0
  1 28  1  0
  6 29  1  0
  8 30  1  0
  9 31  1  0
 12 32  1  0
 13 33  1  0
 13 34  1  0
 14 35  1  0
 14 36  1  0
 15 37  1  0
 16 38  1  0
 19 39  1  0
 21 40  1  0
 23 41  1  0
 24 42  1  0
M  CHG  1  12   1
M  END
>  <UniqueID>  (9) 
9

>  <SMILES>  (9) 
Cn1c(C(=O)Nc2ccc(C3=[NH+]CCN3)cc2F)cc2cnccc21

>  <Energy>  (9) 
102.52421389194843

>  <Genealogy>  (9) 
Cn1c(C(=O)Nc2ccc(C3=[NH+]CCN3)cc2F)cc2cnccc21 (protonated)
Cn1c(C(=O)Nc2ccc(C3=[NH+]CCN3)cc2F)cc2cnccc21 (3D coordinates assigned)
Cn1c(C(=O)Nc2ccc(C3=[NH+]CCN3)cc2F)cc2cnccc21 (nonaromatic ring conformer: 102.52421389194843 kcal/mol)

>  <smiles>  (9) 
Cn1c(C(=O)Nc2ccc(C3=NCCN3)cc2F)cc2cnccc21

>  <score_type>  (9) 
oracle

>  <origin>  (9) 
adgpu

>  <m_score__min__energy>  (9) 
-8.1699999999999999

>  <m_primary>  (9) 
energy

$$$$
9:0
     RDKit          3D

 36 38  0  0  0  0  0  0  0  0999 V2000
    0.0288   25.5384  -28.2762 H   0  0  0  0  0  0  0  0  0  0  0  0
   -0.9970   25.1420  -28.2520 C   0  0  0  0  0  0  0  0  0  0  0  0
   -1.8000   25.2670  -29.3420 N   0  0  0  0  0  0  0  0  0  0  0  0
   -3.0770   24.7950  -29.3640 C   0  0  0  0  0  0  0  0  0  0  0  0
   -3.7790   24.9610  -30.4480 N   0  0  0  0  0  0  0  0  0  0  0  0
   -5.4230   24.4560  -30.7040 S   0  0  0  0  0  0  0  0  0  0  0  0
   -6.1150   25.4610  -31.5820 O   0  0  0  0  0  0  0  0  0  0  0  0
   -6.1290   24.3980  -29.3790 O   0  0  0  0  0  0  0  0  0  0  0  0
   -5.4630   22.8560  -31.4370 C   0  0  0  0  0  0  0  0  0  0  0  0
   -4.3440   22.0180  -31.3520 C   0  0  0  0  0  0  0  0  0  0  0  0
   -3.4439   22.3594  -30.8198 H   0  0  0  0  0  0  0  0  0  0  0  0
   -4.3650   20.7500  -31.9400 C   0  0  0  0  0  0  0  0  0  0  0  0
   -3.4771   20.1035  -31.8794 H   0  0  0  0  0  0  0  0  0  0  0  0
   -5.5170   20.2970  -32.6090 C   0  0  0  0  0  0  0  0  0  0  0  0
   -5.5570   19.0080  -33.2460 N   0  0  0  0  0  0  0  0  0  0  0  0
   -4.9940   18.8800  -34.1160 H   0  0  0  0  0  0  0  0  0  0  0  0
   -6.4270   17.9400  -32.8340 C   0  0  0  0  0  0  0  0  0  0  0  0
   -7.4270   18.1810  -32.1060 O   0  0  0  0  0  0  0  0  0  0  0  0
   -6.1950   16.5590  -33.2870 C   0  0  0  0  0  0  0  0  0  0  0  0
   -7.0580   15.8800  -34.0090 O   0  0  0  0  0  0  0  0  0  0  0  0
   -6.5640   14.6860  -34.2430 C   0  0  0  0  0  0  0  0  0  0  0  0
   -7.0630   13.8967  -34.8243 H   0  0  0  0  0  0  0  0  0  0  0  0
   -5.3240   14.5720  -33.6490 C   0  0  0  0  0  0  0  0  0  0  0  0
   -4.6614   13.6941  -33.6654 H   0  0  0  0  0  0  0  0  0  0  0  0
   -5.0830   15.7800  -33.0310 C   0  0  0  0  0  0  0  0  0  0  0  0
   -4.1909   16.0648  -32.4539 H   0  0  0  0  0  0  0  0  0  0  0  0
   -6.6290   21.1480  -32.7050 C   0  0  0  0  0  0  0  0  0  0  0  0
   -7.5258   20.8148  -33.2479 H   0  0  0  0  0  0  0  0  0  0  0  0
   -6.6060   22.4160  -32.1160 C   0  0  0  0  0  0  0  0  0  0  0  0
   -7.4880   23.0696  -32.1862 H   0  0  0  0  0  0  0  0  0  0  0  0
   -3.5870   24.1500  -28.2180 C   0  0  0  0  0  0  0  0  0  0  0  0
   -4.6146   23.7575  -28.2135 H   0  0  0  0  0  0  0  0  0  0  0  0
   -2.7770   24.0140  -27.0900 C   0  0  0  0  0  0  0  0  0  0  0  0
   -3.1662   23.5147  -26.1904 H   0  0  0  0  0  0  0  0  0  0  0  0
   -1.4740   24.5110  -27.1030 C   0  0  0  0  0  0  0  0  0  0  0  0
   -0.8299   24.4066  -26.2175 H   0  0  0  0  0  0  0  0  0  0  0  0
  1  2  1  0
  2  3  1  0
  3  4  1  0
  4  5  2  0
  5  6  1  0
  6  7  2  0
  6  8  2  0
  6  9  1  0
  9 10  2  0
 10 11  1  0
 10 12  1  0
 12 13  1  0
 12 14  2  0
 14 15  1  0
 15 16  1  0
 15 17  1  0
 17 18  2  0
 17 19  1  0
 19 20  1  0
 20 21  1  0
 21 22  1  0
 21 23  2  0
 23 24  1  0
 23 25  1  0
 25 26  1  0
 14 27  1  0
 27 28  1  0
 27 29  2  0
 29 30  1  0
  4 31  1  0
 31 32  1  0
 31 33  2  0
 33 34  1  0
 33 35  1  0
 35 36  1  0
 35  2  2  0
 29  9  1  0
 25 19  2  0
M  CHG  1   3  -1
M  END
>  <UniqueID>  (10) 
10

>  <SMILES>  (10) 
O=C(Nc1ccc(S(=O)(=O)/N=c2\cccc[n-]2)cc1)c1ccco1

>  <Energy>  (10) 
73.5700404488533

>  <Genealogy>  (10) 
O=C(Nc1ccc(S(=O)(=O)N=c2cccc[n-]2)cc1)c1ccco1 (protonated)
O=C(Nc1ccc(S(=O)(=O)/N=c2\cccc[n-]2)cc1)c1ccco1 (cis-trans isomerization)
O=C(Nc1ccc(S(=O)(=O)/N=c2\cccc[n-]2)cc1)c1ccco1 (3D coordinates assigned)
O=C(Nc1ccc(S(=O)(=O)/N=c2\cccc[n-]2)cc1)c1ccco1 (optimized conformer: 73.5700404488533 kcal/mol)

>  <smiles>  (10) 
O=C(Nc1ccc(S(=O)(=O)N=c2cccc[nH]2)cc1)c1ccco1

>  <score_type>  (10) 
oracle

>  <origin>  (10) 
adgpu

>  <m_score__min__energy>  (10) 
-9.4800000000000004

>  <m_primary>  (10) 
energy

$$$$
10:0
     RDKit          3D

 42 44  0  0  0  0  0  0  0  0999 V2000
   -3.8890   26.0520  -30.0830 H   0  0  0  0  0  0  0  0  0  0  0  0
   -3.4750   25.1040  -30.2350 N   0  0  0  0  0  0  0  0  0  0  0  0
   -2.3680   24.8230  -28.9370 S   0  0  0  0  0  0  0  0  0  0  0  0
   -1.2630   25.8380  -29.0320 O   0  0  0  0  0  0  0  0  0  0  0  0
   -3.0760   24.9960  -27.6230 O   0  0  0  0  0  0  0  0  0  0  0  0
   -1.6960   23.1860  -29.0420 C   0  0  0  0  0  0  0  0  0  0  0  0
   -0.4020   22.9560  -28.5500 C   0  0  0  0  0  0  0  0  0  0  0  0
    0.1549   23.7783  -28.0770 H   0  0  0  0  0  0  0  0  0  0  0  0
    0.1860   21.6930  -28.6550 C   0  0  0  0  0  0  0  0  0  0  0  0
    1.2005   21.5247  -28.2645 H   0  0  0  0  0  0  0  0  0  0  0  0
   -0.5130   20.6450  -29.2550 C   0  0  0  0  0  0  0  0  0  0  0  0
   -0.0451   19.6536  -29.3459 H   0  0  0  0  0  0  0  0  0  0  0  0
   -1.8050   20.8530  -29.7400 C   0  0  0  0  0  0  0  0  0  0  0  0
   -2.3508   20.0228  -30.2122 H   0  0  0  0  0  0  0  0  0  0  0  0
   -2.4140   22.1140  -29.6300 C   0  0  0  0  0  0  0  0  0  0  0  0
   -3.7930   22.2710  -30.1340 C   0  0  0  0  0  0  0  0  0  0  0  0
   -4.8190   22.6940  -29.2780 C   0  0  0  0  0  0  0  0  0  0  0  0
   -4.5962   22.9152  -28.2238 H   0  0  0  0  0  0  0  0  0  0  0  0
   -6.1240   22.8360  -29.7580 C   0  0  0  0  0  0  0  0  0  0  0  0
   -6.9198   23.1899  -29.0860 H   0  0  0  0  0  0  0  0  0  0  0  0
   -6.4230   22.5280  -31.0970 C   0  0  0  0  0  0  0  0  0  0  0  0
   -7.7460   22.6880  -31.6290 N   0  0  0  0  0  0  0  0  0  0  0  0
   -8.6470   21.6350  -31.9940 C   0  0  0  0  0  0  0  0  0  0  0  0
   -9.8730   21.9010  -32.1070 O   0  0  0  0  0  0  0  0  0  0  0  0
   -8.1490   20.2780  -32.3080 C   0  0  0  0  0  0  0  0  0  0  0  0
   -8.6262   19.4120  -31.8259 H   0  0  0  0  0  0  0  0  0  0  0  0
   -7.1360   20.0680  -33.1600 C   0  0  0  0  0  0  0  0  0  0  0  0
   -6.6682   20.9418  -33.6370 H   0  0  0  0  0  0  0  0  0  0  0  0
   -6.6110   18.7210  -33.4950 C   0  0  0  0  0  0  0  0  0  0  0  0
   -5.7510   18.5820  -34.5970 C   0  0  0  0  0  0  0  0  0  0  0  0
   -5.4715   19.4670  -35.1875 H   0  0  0  0  0  0  0  0  0  0  0  0
   -5.2620   17.3600  -34.9380 N   0  0  0  0  0  0  0  0  0  0  0  0
   -5.5870   16.2390  -34.2430 C   0  0  0  0  0  0  0  0  0  0  0  0
   -5.1692   15.2663  -34.5418 H   0  0  0  0  0  0  0  0  0  0  0  0
   -6.4500   16.3210  -33.1510 C   0  0  0  0  0  0  0  0  0  0  0  0
   -6.7204   15.4154  -32.5883 H   0  0  0  0  0  0  0  0  0  0  0  0
   -6.9680   17.5630  -32.7780 C   0  0  0  0  0  0  0  0  0  0  0  0
   -7.6559   17.6368  -31.9228 H   0  0  0  0  0  0  0  0  0  0  0  0
   -5.3940   22.1180  -31.9530 C   0  0  0  0  0  0  0  0  0  0  0  0
   -5.6142   21.9062  -33.0097 H   0  0  0  0  0  0  0  0  0  0  0  0
   -4.0890   21.9760  -31.4740 C   0  0  0  0  0  0  0  0  0  0  0  0
   -3.2914   21.6321  -32.1490 H   0  0  0  0  0  0  0  0  0  0  0  0
  1  2  1  0
  2  3  1  0
  3  4  2  0
  3  5  2  0
  3  6  1  0
  6  7  2  0
  7  8  1  0
  7  9  1  0
  9 10  1  0
  9 11  2  0
 11 12  1  0
 11 13  1  0
 13 14  1  0
 13 15  2  0
 15 16  1  0
 16 17  2  0
 17 18  1  0
 17 19  1  0
 19 20  1  0
 19 21  2  0
 21 22  1  0
 22 23  1  0
 23 24  2  0
 23 25  1  0
 25 26  1  0
 25 27  2  0
 27 28  1  0
 27 29  1  0
 29 30  2  0
 30 31  1  0
 30 32  1  0
 32 33  2  0
 33 34  1  0
 33 35  1  0
 35 36  1  0
 35 37  2  0
 37 38  1  0
 21 39  1  0
 39 40  1  0
 39 41  2  0
 41 42  1  0
 15  6  1  0
 41 16  1  0
 37 29  1  0
M  CHG  2   2  -1  22  -1
M  END
>  <UniqueID>  (11) 
11

>  <SMILES>  (11) 
[NH-]S(=O)(=O)c1ccccc1-c1ccc([N-]C(=O)/C=C/c2cccnc2)cc1

>  <Energy>  (11) 
59.80533614516978

>  <Genealogy>  (11) 
[NH-]S(=O)(=O)c1ccccc1-c1ccc([N-]C(=O)C=Cc2cccnc2)cc1 (protonated)
[NH-]S(=O)(=O)c1ccccc1-c1ccc([N-]C(=O)/C=C/c2cccnc2)cc1 (cis-trans isomerization)
[NH-]S(=O)(=O)c1ccccc1-c1ccc([N-]C(=O)/C=C/c2cccnc2)cc1 (3D coordinates assigned)
[NH-]S(=O)(=O)c1ccccc1-c1ccc([N-]C(=O)/C=C/c2cccnc2)cc1 (optimized conformer: 59.80533614516978 kcal/mol)

>  <smiles>  (11) 
NS(=O)(=O)c1ccccc1-c1ccc(NC(=O)C=Cc2cccnc2)cc1

>  <score_type>  (11) 
oracle

>  <origin>  (11) 
adgpu

>  <m_score__min__energy>  (11) 
-11.4

>  <m_primary>  (11) 
energy

$$$$
11:0
     RDKit          3D

 40 42  0  0  0  0  0  0  0  0999 V2000
   -9.2040   21.2470  -29.8820 H   0  0  0  0  0  0  0  0  0  0  0  0
   -8.5870   21.9700  -29.5300 O   0  0  0  0  0  0  0  0  0  0  0  0
   -7.7650   22.7250  -30.3680 C   0  0  0  0  0  0  0  0  0  0  0  0
   -6.8630   23.6260  -29.7910 C   0  0  0  0  0  0  0  0  0  0  0  0
   -6.8162   23.7275  -28.6967 H   0  0  0  0  0  0  0  0  0  0  0  0
   -6.0220   24.3970  -30.5960 C   0  0  0  0  0  0  0  0  0  0  0  0
   -5.3150   25.1025  -30.1352 H   0  0  0  0  0  0  0  0  0  0  0  0
   -6.0780   24.2730  -31.9850 C   0  0  0  0  0  0  0  0  0  0  0  0
   -5.4148   24.8809  -32.6180 H   0  0  0  0  0  0  0  0  0  0  0  0
   -6.9760   23.3770  -32.5730 C   0  0  0  0  0  0  0  0  0  0  0  0
   -7.0191   23.2860  -33.6684 H   0  0  0  0  0  0  0  0  0  0  0  0
   -7.8260   22.5900  -31.7710 C   0  0  0  0  0  0  0  0  0  0  0  0
   -8.7510   21.6560  -32.3470 N   0  0  0  0  0  0  0  0  0  0  0  0
   -8.6550   19.9300  -32.2000 S   0  0  0  0  0  0  0  0  0  0  0  0
   -9.0770   19.5290  -30.8140 O   0  0  0  0  0  0  0  0  0  0  0  0
   -9.5860   19.2990  -33.1980 O   0  0  0  0  0  0  0  0  0  0  0  0
   -6.9980   19.3950  -32.4670 C   0  0  0  0  0  0  0  0  0  0  0  0
   -6.7360   18.2670  -33.2520 C   0  0  0  0  0  0  0  0  0  0  0  0
   -7.5683   17.7029  -33.6982 H   0  0  0  0  0  0  0  0  0  0  0  0
   -5.4180   17.8560  -33.4700 C   0  0  0  0  0  0  0  0  0  0  0  0
   -5.2169   16.9652  -34.0833 H   0  0  0  0  0  0  0  0  0  0  0  0
   -4.3530   18.5720  -32.9120 C   0  0  0  0  0  0  0  0  0  0  0  0
   -3.0570   18.1060  -33.1020 O   0  0  0  0  0  0  0  0  0  0  0  0
   -4.6080   19.7280  -32.1440 C   0  0  0  0  0  0  0  0  0  0  0  0
   -3.5580   20.5010  -31.5430 N   0  0  0  0  0  0  0  0  0  0  0  0
   -3.7300   21.3930  -30.6150 C   0  0  0  0  0  0  0  0  0  0  0  0
   -4.7419   21.5883  -30.2303 H   0  0  0  0  0  0  0  0  0  0  0  0
   -2.5850   22.1480  -30.0700 C   0  0  0  0  0  0  0  0  0  0  0  0
   -1.4070   21.4980  -29.6570 C   0  0  0  0  0  0  0  0  0  0  0  0
   -1.3282   20.4038  -29.7380 H   0  0  0  0  0  0  0  0  0  0  0  0
   -0.3360   22.2370  -29.1440 C   0  0  0  0  0  0  0  0  0  0  0  0
    0.5820   21.7224  -28.8238 H   0  0  0  0  0  0  0  0  0  0  0  0
   -0.4290   23.6280  -29.0370 C   0  0  0  0  0  0  0  0  0  0  0  0
    0.6390   24.3540  -28.5240 O   0  0  0  0  0  0  0  0  0  0  0  0
   -1.5960   24.2830  -29.4450 C   0  0  0  0  0  0  0  0  0  0  0  0
   -1.6950   25.6650  -29.3370 O   0  0  0  0  0  0  0  0  0  0  0  0
   -2.6690   23.5470  -29.9610 C   0  0  0  0  0  0  0  0  0  0  0  0
   -3.5835   24.0665  -30.2832 H   0  0  0  0  0  0  0  0  0  0  0  0
   -5.9340   20.1110  -31.9040 C   0  0  0  0  0  0  0  0  0  0  0  0
   -6.1417   20.9832  -31.2667 H   0  0  0  0  0  0  0  0  0  0  0  0
  1  2  1  0
  2  3  1  0
  3  4  2  0
  4  5  1  0
  4  6  1  0
  6  7  1  0
  6  8  2  0
  8  9  1  0
  8 10  1  0
 10 11  1  0
 10 12  2  0
 12 13  1  0
 13 14  1  0
 14 15  2  0
 14 16  2  0
 14 17  1  0
 17 18  2  0
 18 19  1  0
 18 20  1  0
 20 21  1  0
 20 22  2  0
 22 23  1  0
 22 24  1  0
 24 25  1  0
 25 26  2  0
 26 27  1  0
 26 28  1  0
 28 29  2  0
 29 30  1  0
 29 31  1  0
 31 32  1  0
 31 33  2  0
 33 34  1  0
 33 35  1  0
 35 36  1  0
 35 37  2  0
 37 38  1  0
 24 39  2  0
 39 40  1  0
 12  3  1  0
 39 17  1  0
 37 28  1  0
M  CHG  4  13  -1  23  -1  34  -1  36  -1
M  END
>  <UniqueID>  (12) 
12

>  <SMILES>  (12) 
O=S(=O)([N-]c1ccccc1O)c1ccc([O-])c(/N=C/c2ccc([O-])c([O-])c2)c1

>  <Energy>  (12) 
52.00532292680091

>  <Genealogy>  (12) 
O=S(=O)([N-]c1ccccc1O)c1ccc([O-])c(N=Cc2ccc([O-])c([O-])c2)c1 (protonated)
O=S(=O)([N-]c1ccccc1O)c1ccc([O-])c(/N=C/c2ccc([O-])c([O-])c2)c1 (cis-trans isomerization)
O=S(=O)([N-]c1ccccc1O)c1ccc([O-])c(/N=C/c2ccc([O-])c([O-])c2)c1 (3D coordinates assigned)
O=S(=O)([N-]c1ccccc1O)c1ccc([O-])c(/N=C/c2ccc([O-])c([O-])c2)c1 (optimized conformer: 52.00532292680091 kcal/mol)

>  <smiles>  (12) 
O=S(=O)(Nc1ccccc1O)c1ccc(O)c(N=Cc2ccc(O)c(O)c2)c1

>  <score_type>  (12) 
oracle

>  <origin>  (12) 
adgpu

>  <m_score__min__energy>  (12) 
-13.199999999999999

>  <m_primary>  (12) 
energy

$$$$
12:0
     RDKit          3D

 57 60  0  0  0  0  0  0  0  0999 V2000
   -4.6070   24.7200  -30.8400 O   0  0  0  0  0  0  0  0  0  0  0  0
   -4.5740   23.4660  -30.9700 C   0  0  0  0  0  0  0  0  0  0  0  0
   -3.3530   22.7560  -30.7030 N   0  0  0  0  0  0  0  0  0  0  0  0
   -2.3450   23.2140  -29.7840 C   0  0  0  0  0  0  0  0  0  0  0  0
   -1.2710   22.3880  -29.4030 C   0  0  0  0  0  0  0  0  0  0  0  0
   -0.2910   22.8660  -28.5290 C   0  0  0  0  0  0  0  0  0  0  0  0
   -0.3620   24.1730  -28.0290 C   0  0  0  0  0  0  0  0  0  0  0  0
    0.8660   24.7660  -26.9070 S   0  0  0  0  0  0  0  0  0  0  0  0
    1.4740   26.0240  -27.4620 O   0  0  0  0  0  0  0  0  0  0  0  0
    1.9570   23.7390  -26.7800 O   0  0  0  0  0  0  0  0  0  0  0  0
    0.1910   25.0980  -25.3290 N   0  0  0  0  0  0  0  0  0  0  0  0
   -0.9650   26.0070  -25.4440 C   0  0  0  0  0  0  0  0  0  0  0  0
   -1.2430   26.7020  -24.1010 C   0  0  0  0  0  0  0  0  0  0  0  0
   -0.1600   27.4900  -23.6210 O   0  0  0  0  0  0  0  0  0  0  0  0
    1.1050   27.1010  -24.1360 C   0  0  0  0  0  0  0  0  0  0  0  0
    1.2210   25.5860  -24.3850 C   0  0  0  0  0  0  0  0  0  0  0  0
   -1.4150   25.0060  -28.4310 C   0  0  0  0  0  0  0  0  0  0  0  0
   -2.3950   24.5310  -29.3060 C   0  0  0  0  0  0  0  0  0  0  0  0
   -5.7840   22.7440  -31.4350 C   0  0  0  0  0  0  0  0  0  0  0  0
   -7.0590   23.3080  -31.2600 C   0  0  0  0  0  0  0  0  0  0  0  0
   -8.1970   22.6240  -31.6900 C   0  0  0  0  0  0  0  0  0  0  0  0
   -8.0790   21.3660  -32.2860 C   0  0  0  0  0  0  0  0  0  0  0  0
   -9.2030   20.7280  -32.7020 F   0  0  0  0  0  0  0  0  0  0  0  0
   -6.8160   20.7740  -32.4540 C   0  0  0  0  0  0  0  0  0  0  0  0
   -6.7060   19.1730  -33.2170 S   0  0  0  0  0  0  0  0  0  0  0  0
   -6.4610   19.3710  -34.6870 O   0  0  0  0  0  0  0  0  0  0  0  0
   -8.0300   18.4820  -33.0410 O   0  0  0  0  0  0  0  0  0  0  0  0
   -5.4700   18.1070  -32.5830 N   0  0  0  0  0  0  0  0  0  0  0  0
   -6.0150   16.8470  -32.0750 C   0  0  0  0  0  0  0  0  0  0  0  0
   -4.9840   15.7700  -32.3570 C   0  0  0  0  0  0  0  0  0  0  0  0
   -4.1550   16.2990  -33.5100 C   0  0  0  0  0  0  0  0  0  0  0  0
   -4.4160   17.8000  -33.5550 C   0  0  0  0  0  0  0  0  0  0  0  0
   -5.6760   21.4750  -32.0310 C   0  0  0  0  0  0  0  0  0  0  0  0
   -3.1490   21.9000  -31.2670 H   0  0  0  0  0  0  0  0  0  0  0  0
   -1.2028   21.3624  -29.7947 H   0  0  0  0  0  0  0  0  0  0  0  0
    0.5418   22.2118  -28.2315 H   0  0  0  0  0  0  0  0  0  0  0  0
   -0.7510   26.7690  -26.2079 H   0  0  0  0  0  0  0  0  0  0  0  0
   -1.8505   25.4201  -25.7294 H   0  0  0  0  0  0  0  0  0  0  0  0
   -2.1183   27.3565  -24.2251 H   0  0  0  0  0  0  0  0  0  0  0  0
   -1.4100   25.9064  -23.3600 H   0  0  0  0  0  0  0  0  0  0  0  0
    1.2703   27.6252  -25.0888 H   0  0  0  0  0  0  0  0  0  0  0  0
    1.8598   27.3660  -23.3810 H   0  0  0  0  0  0  0  0  0  0  0  0
    2.2157   25.3699  -24.8021 H   0  0  0  0  0  0  0  0  0  0  0  0
    1.0717   25.0717  -23.4242 H   0  0  0  0  0  0  0  0  0  0  0  0
   -1.4701   26.0386  -28.0558 H   0  0  0  0  0  0  0  0  0  0  0  0
   -3.2124   25.1956  -29.6224 H   0  0  0  0  0  0  0  0  0  0  0  0
   -7.1607   24.2934  -30.7818 H   0  0  0  0  0  0  0  0  0  0  0  0
   -9.1907   23.0772  -31.5591 H   0  0  0  0  0  0  0  0  0  0  0  0
   -6.1952   16.9229  -30.9925 H   0  0  0  0  0  0  0  0  0  0  0  0
   -6.9726   16.6098  -32.5616 H   0  0  0  0  0  0  0  0  0  0  0  0
   -4.3511   15.6021  -31.4731 H   0  0  0  0  0  0  0  0  0  0  0  0
   -5.4551   14.8062  -32.6001 H   0  0  0  0  0  0  0  0  0  0  0  0
   -3.0870   16.1010  -33.3364 H   0  0  0  0  0  0  0  0  0  0  0  0
   -4.4247   15.8126  -34.4591 H   0  0  0  0  0  0  0  0  0  0  0  0
   -3.4975   18.3464  -33.2945 H   0  0  0  0  0  0  0  0  0  0  0  0
   -4.7284   18.1030  -34.5652 H   0  0  0  0  0  0  0  0  0  0  0  0
   -4.6819   21.0244  -32.1679 H   0  0  0  0  0  0  0  0  0  0  0  0
  1  2  2  0
  2  3  1  0
  3  4  1  0
  4  5  2  0
  5  6  1  0
  6  7  2  0
  7  8  1  0
  8  9  2  0
  8 10  2  0
  8 11  1  0
 11 12  1  0
 12 13  1  0
 13 14  1  0
 14 15  1  0
 15 16  1  0
  7 17  1  0
 17 18  2  0
  2 19  1  0
 19 20  2  0
 20 21  1  0
 21 22  2  0
 22 23  1  0
 22 24  1  0
 24 25  1  0
 25 26  2  0
 25 27  2  0
 25 28  1  0
 28 29  1  0
 29 30  1  0
 30 31  1  0
 31 32  1  0
 24 33  2  0
 18  4  1  0
 33 19  1  0
 16 11  1  0
 32 28  1  0
  3 34  1  0
  5 35  1  0
  6 36  1  0
 12 37  1  0
 12 38  1  0
 13 39  1  0
 13 40  1  0
 15 41  1  0
 15 42  1  0
 16 43  1  0
 16 44  1  0
 17 45  1  0
 18 46  1  0
 20 47  1  0
 21 48  1  0
 29 49  1  0
 29 50  1  0
 30 51  1  0
 30 52  1  0
 31 53  1  0
 31 54  1  0
 32 55  1  0
 32 56  1  0
 33 57  1  0
M  END
>  <UniqueID>  (13) 
13

>  <SMILES>  (13) 
O=C(Nc1ccc(S(=O)(=O)N2CCOCC2)cc1)c1ccc(F)c(S(=O)(=O)N2CCCC2)c1

>  <Energy>  (13) 
80.32531777861601

>  <Genealogy>  (13) 
O=C(Nc1ccc(S(=O)(=O)N2CCOCC2)cc1)c1ccc(F)c(S(=O)(=O)N2CCCC2)c1 (3D coordinates assigned)
O=C(Nc1ccc(S(=O)(=O)N2CCOCC2)cc1)c1ccc(F)c(S(=O)(=O)N2CCCC2)c1 (nonaromatic ring conformer: 80.32531777861601 kcal/mol)

>  <smiles>  (13) 
O=C(Nc1ccc(S(=O)(=O)N2CCOCC2)cc1)c1ccc(F)c(S(=O)(=O)N2CCCC2)c1

>  <score_type>  (13) 
oracle

>  <origin>  (13) 
adgpu

>  <m_score__min__energy>  (13) 
-10.75

>  <m_primary>  (13) 
energy

$$$$
13:0
     RDKit          3D

 54 57  0  0  0  0  0  0  0  0999 V2000
   -7.1630   23.1760  -29.3940 N   0  0  0  0  0  0  0  0  0  0  0  0
   -7.0290   23.0030  -30.8100 C   0  0  0  0  0  0  0  0  0  0  0  0
   -6.5220   23.9630  -31.5270 N   0  0  0  0  0  0  0  0  0  0  0  0
   -7.4800   21.7380  -31.4460 C   0  0  0  0  0  0  0  0  0  0  0  0
   -8.6900   21.1440  -31.0560 C   0  0  0  0  0  0  0  0  0  0  0  0
   -9.1270   19.9650  -31.6660 C   0  0  0  0  0  0  0  0  0  0  0  0
   -8.3630   19.3680  -32.6700 C   0  0  0  0  0  0  0  0  0  0  0  0
   -7.1410   19.9330  -33.0650 C   0  0  0  0  0  0  0  0  0  0  0  0
   -6.3660   19.2920  -34.1960 C   0  0  0  0  0  0  0  0  0  0  0  0
   -5.4220   18.2770  -33.7120 N   0  0  0  0  0  0  0  0  0  0  0  0
   -4.1820   18.4530  -33.1680 C   0  0  0  0  0  0  0  0  0  0  0  0
   -3.5230   19.7440  -32.8680 C   0  0  0  0  0  0  0  0  0  0  0  0
   -3.8030   20.7450  -33.5810 O   0  0  0  0  0  0  0  0  0  0  0  0
   -2.5250   19.8580  -31.8430 N   0  0  0  0  0  0  0  0  0  0  0  0
   -1.7120   21.0590  -31.6690 C   0  0  0  0  0  0  0  0  0  0  0  0
   -2.2200   21.8410  -30.4910 C   0  0  0  0  0  0  0  0  0  0  0  0
   -1.9390   21.4210  -29.1820 C   0  0  0  0  0  0  0  0  0  0  0  0
   -2.4620   22.1180  -28.0920 C   0  0  0  0  0  0  0  0  0  0  0  0
   -3.2820   23.2310  -28.2980 C   0  0  0  0  0  0  0  0  0  0  0  0
   -3.5890   23.6600  -29.6010 C   0  0  0  0  0  0  0  0  0  0  0  0
   -4.4460   24.7980  -29.8110 N   0  0  0  0  0  0  0  0  0  0  0  0
   -5.4180   25.0110  -29.0580 O   0  0  0  0  0  0  0  0  0  0  0  0
   -4.2050   25.6720  -30.8460 O   0  0  0  0  0  0  0  0  0  0  0  0
   -3.0520   22.9530  -30.6950 C   0  0  0  0  0  0  0  0  0  0  0  0
   -3.5790   17.2210  -32.9200 C   0  0  0  0  0  0  0  0  0  0  0  0
   -4.4990   16.2760  -33.3080 C   0  0  0  0  0  0  0  0  0  0  0  0
   -4.4320   14.8850  -33.2710 C   0  0  0  0  0  0  0  0  0  0  0  0
   -5.5410   14.1610  -33.7410 C   0  0  0  0  0  0  0  0  0  0  0  0
   -6.6800   14.8370  -34.2300 C   0  0  0  0  0  0  0  0  0  0  0  0
   -6.7190   16.2430  -34.2560 C   0  0  0  0  0  0  0  0  0  0  0  0
   -5.6020   16.9400  -33.7820 C   0  0  0  0  0  0  0  0  0  0  0  0
   -6.7070   21.1230  -32.4480 C   0  0  0  0  0  0  0  0  0  0  0  0
   -7.4850   22.3930  -28.7840 H   0  0  0  0  0  0  0  0  0  0  0  0
   -6.8940   24.0770  -28.9380 H   0  0  0  0  0  0  0  0  0  0  0  0
   -6.4420   23.8910  -32.5650 H   0  0  0  0  0  0  0  0  0  0  0  0
   -6.2040   24.8510  -31.0800 H   0  0  0  0  0  0  0  0  0  0  0  0
   -9.2979   21.6089  -30.2658 H   0  0  0  0  0  0  0  0  0  0  0  0
  -10.0766   19.5058  -31.3537 H   0  0  0  0  0  0  0  0  0  0  0  0
   -8.7215   18.4481  -33.1550 H   0  0  0  0  0  0  0  0  0  0  0  0
   -7.0764   18.8150  -34.8872 H   0  0  0  0  0  0  0  0  0  0  0  0
   -5.7874   20.0802  -34.7000 H   0  0  0  0  0  0  0  0  0  0  0  0
   -2.1840   18.9990  -31.3640 H   0  0  0  0  0  0  0  0  0  0  0  0
   -0.6649   20.7709  -31.4939 H   0  0  0  0  0  0  0  0  0  0  0  0
   -1.7749   21.6790  -32.5755 H   0  0  0  0  0  0  0  0  0  0  0  0
   -1.3038   20.5387  -29.0143 H   0  0  0  0  0  0  0  0  0  0  0  0
   -2.2283   21.7907  -27.0682 H   0  0  0  0  0  0  0  0  0  0  0  0
   -3.6903   23.7755  -27.4338 H   0  0  0  0  0  0  0  0  0  0  0  0
   -3.2872   23.2759  -31.7199 H   0  0  0  0  0  0  0  0  0  0  0  0
   -2.5774   17.0424  -32.5017 H   0  0  0  0  0  0  0  0  0  0  0  0
   -3.5395   14.3698  -32.8862 H   0  0  0  0  0  0  0  0  0  0  0  0
   -5.5215   13.0613  -33.7278 H   0  0  0  0  0  0  0  0  0  0  0  0
   -7.5432   14.2601  -34.5933 H   0  0  0  0  0  0  0  0  0  0  0  0
   -7.6010   16.7784  -34.6374 H   0  0  0  0  0  0  0  0  0  0  0  0
   -5.7525   21.5766  -32.7533 H   0  0  0  0  0  0  0  0  0  0  0  0
  1  2  1  0
  2  3  2  0
  2  4  1  0
  4  5  2  0
  5  6  1  0
  6  7  2  0
  7  8  1  0
  8  9  1  0
  9 10  1  0
 10 11  1  0
 11 12  1  0
 12 13  2  0
 12 14  1  0
 14 15  1  0
 15 16  1  0
 16 17  2  0
 17 18  1  0
 18 19  2  0
 19 20  1  0
 20 21  1  0
 21 22  2  0
 21 23  1  0
 20 24  2  0
 11 25  2  0
 25 26  1  0
 26 27  2  0
 27 28  1  0
 28 29  2  0
 29 30  1  0
 30 31  2  0
  8 32  2  0
 32  4  1  0
 31 10  1  0
 24 16  1  0
 31 26  1  0
  1 33  1  0
  1 34  1  0
  3 35  1  0
  3 36  1  0
  5 37  1  0
  6 38  1  0
  7 39  1  0
  9 40  1  0
  9 41  1  0
 14 42  1  0
 15 43  1  0
 15 44  1  0
 17 45  1  0
 18 46  1  0
 19 47  1  0
 24 48  1  0
 25 49  1  0
 27 50  1  0
 28 51  1  0
 29 52  1  0
 30 53  1  0
 32 54  1  0
M  CHG  3   3   1  21   1  23  -1
M  END
>  <UniqueID>  (14) 
14

>  <SMILES>  (14) 
NC(=[NH2+])c1cccc(Cn2c(C(=O)NCc3cccc([N+](=O)[O-])c3)cc3ccccc32)c1

>  <Energy>  (14) 
95.35208530231266

>  <Genealogy>  (14) 
NC(=[NH2+])c1cccc(Cn2c(C(=O)NCc3cccc([N+](=O)[O-])c3)cc3ccccc32)c1 (protonated)
NC(=[NH2+])c1cccc(Cn2c(C(=O)NCc3cccc([N+](=O)[O-])c3)cc3ccccc32)c1 (3D coordinates assigned)
NC(=[NH2+])c1cccc(Cn2c(C(=O)NCc3cccc([N+](=O)[O-])c3)cc3ccccc32)c1 (optimized conformer: 95.35208530231266 kcal/mol)

>  <smiles>  (14) 
N=C(N)c1cccc(Cn2c(C(=O)NCc3cccc([N+](=O)[O-])c3)cc3ccccc32)c1

>  <score_type>  (14) 
oracle

>  <origin>  (14) 
adgpu

>  <m_score__min__energy>  (14) 
-8.7699999999999996

>  <m_primary>  (14) 
energy

$$$$
14:0
     RDKit          3D

 65 69  0  0  0  0  0  0  0  0999 V2000
   -2.5230   19.4910  -26.8330 C   0  0  0  0  0  0  0  0  0  0  0  0
   -1.2360   18.9880  -27.4150 C   0  0  0  0  0  0  0  0  0  0  0  0
   -0.8060   17.8600  -27.0470 O   0  0  0  0  0  0  0  0  0  0  0  0
   -0.4880   19.7690  -28.3730 N   0  0  0  0  0  0  0  0  0  0  0  0
    0.9810   19.7560  -28.3750 C   0  0  0  0  0  0  0  0  0  0  0  0
   -1.1870   20.5630  -29.3490 C   0  0  0  0  0  0  0  0  0  0  0  0
   -1.4480   20.0430  -30.6090 C   0  0  0  0  0  0  0  0  0  0  0  0
   -2.1460   20.7660  -31.5270 N   0  0  0  0  0  0  0  0  0  0  0  0
   -2.4830   20.1380  -32.8160 C   0  0  0  0  0  0  0  0  0  0  0  0
   -3.9410   19.7620  -32.8420 C   0  0  0  0  0  0  0  0  0  0  0  0
   -4.9210   20.7270  -33.1130 C   0  0  0  0  0  0  0  0  0  0  0  0
   -6.2770   20.3880  -33.0870 C   0  0  0  0  0  0  0  0  0  0  0  0
   -6.6810   19.0700  -32.7820 C   0  0  0  0  0  0  0  0  0  0  0  0
   -8.1320   18.6230  -32.7230 C   0  0  0  0  0  0  0  0  0  0  0  0
   -8.7940   18.6020  -31.3520 C   0  0  0  0  0  0  0  0  0  0  0  0
   -9.1790   19.6710  -32.3680 C   0  0  0  0  0  0  0  0  0  0  0  0
   -5.6920   18.1120  -32.5070 C   0  0  0  0  0  0  0  0  0  0  0  0
   -4.3380   18.4530  -32.5320 C   0  0  0  0  0  0  0  0  0  0  0  0
   -2.5860   22.0290  -31.2210 C   0  0  0  0  0  0  0  0  0  0  0  0
   -3.2620   22.6720  -32.0740 O   0  0  0  0  0  0  0  0  0  0  0  0
   -2.3060   22.5980  -29.9960 N   0  0  0  0  0  0  0  0  0  0  0  0
   -2.8030   23.9780  -29.7140 C   0  0  0  0  0  0  0  0  0  0  0  0
   -2.2480   24.5660  -28.4220 C   0  0  0  0  0  0  0  0  0  0  0  0
   -0.9610   25.1420  -28.3380 C   0  0  0  0  0  0  0  0  0  0  0  0
   -0.5050   25.6820  -27.1310 C   0  0  0  0  0  0  0  0  0  0  0  0
   -1.3250   25.6670  -26.0010 C   0  0  0  0  0  0  0  0  0  0  0  0
   -2.6030   25.1100  -26.0740 C   0  0  0  0  0  0  0  0  0  0  0  0
   -3.0620   24.5620  -27.2740 C   0  0  0  0  0  0  0  0  0  0  0  0
   -4.3190   24.0730  -29.8400 C   0  0  0  0  0  0  0  0  0  0  0  0
   -4.9690   25.2680  -30.2100 C   0  0  0  0  0  0  0  0  0  0  0  0
   -6.3600   25.3090  -30.3380 C   0  0  0  0  0  0  0  0  0  0  0  0
   -7.1190   24.1590  -30.1110 C   0  0  0  0  0  0  0  0  0  0  0  0
   -6.4870   22.9640  -29.7610 C   0  0  0  0  0  0  0  0  0  0  0  0
   -5.0970   22.9180  -29.6290 C   0  0  0  0  0  0  0  0  0  0  0  0
   -1.6390   21.8520  -29.0490 C   0  0  0  0  0  0  0  0  0  0  0  0
   -1.4330   22.3080  -27.8910 O   0  0  0  0  0  0  0  0  0  0  0  0
   -2.4628   19.4675  -25.7349 H   0  0  0  0  0  0  0  0  0  0  0  0
   -2.6983   20.5238  -27.1686 H   0  0  0  0  0  0  0  0  0  0  0  0
   -3.3521   18.8508  -27.1686 H   0  0  0  0  0  0  0  0  0  0  0  0
    1.3491   19.7527  -27.3384 H   0  0  0  0  0  0  0  0  0  0  0  0
    1.3390   18.8547  -28.8940 H   0  0  0  0  0  0  0  0  0  0  0  0
    1.3549   20.6509  -28.8940 H   0  0  0  0  0  0  0  0  0  0  0  0
   -1.0872   19.0367  -30.8683 H   0  0  0  0  0  0  0  0  0  0  0  0
   -2.2752   20.8465  -33.6314 H   0  0  0  0  0  0  0  0  0  0  0  0
   -1.8745   19.2307  -32.9449 H   0  0  0  0  0  0  0  0  0  0  0  0
   -4.6207   21.7588  -33.3479 H   0  0  0  0  0  0  0  0  0  0  0  0
   -7.0353   21.1542  -33.3059 H   0  0  0  0  0  0  0  0  0  0  0  0
   -8.0070   17.8989  -33.5416 H   0  0  0  0  0  0  0  0  0  0  0  0
   -9.5062   17.8033  -31.0973 H   0  0  0  0  0  0  0  0  0  0  0  0
   -8.4321   18.6105  -30.3133 H   0  0  0  0  0  0  0  0  0  0  0  0
  -10.1690   19.6438  -32.8468 H   0  0  0  0  0  0  0  0  0  0  0  0
   -9.2101   20.7706  -32.3667 H   0  0  0  0  0  0  0  0  0  0  0  0
   -5.9875   17.0796  -32.2688 H   0  0  0  0  0  0  0  0  0  0  0  0
   -3.5780   17.6902  -32.3072 H   0  0  0  0  0  0  0  0  0  0  0  0
   -2.3958   24.6287  -30.5020 H   0  0  0  0  0  0  0  0  0  0  0  0
   -0.3136   25.1660  -29.2270 H   0  0  0  0  0  0  0  0  0  0  0  0
    0.5024   26.1197  -27.0718 H   0  0  0  0  0  0  0  0  0  0  0  0
   -0.9641   26.0939  -25.0536 H   0  0  0  0  0  0  0  0  0  0  0  0
   -3.2500   25.1027  -25.1844 H   0  0  0  0  0  0  0  0  0  0  0  0
   -4.0695   24.1231  -27.3222 H   0  0  0  0  0  0  0  0  0  0  0  0
   -4.3766   26.1753  -30.3994 H   0  0  0  0  0  0  0  0  0  0  0  0
   -6.8580   26.2490  -30.6181 H   0  0  0  0  0  0  0  0  0  0  0  0
   -8.2142   24.1945  -30.2079 H   0  0  0  0  0  0  0  0  0  0  0  0
   -7.0849   22.0569  -29.5889 H   0  0  0  0  0  0  0  0  0  0  0  0
   -4.6060   21.9717  -29.3580 H   0  0  0  0  0  0  0  0  0  0  0  0
  1  2  1  0
  2  3  2  0
  2  4  1  0
  4  5  1  0
  4  6  1  0
  6  7  2  0
  7  8  1  0
  8  9  1  0
  9 10  1  0
 10 11  2  0
 11 12  1  0
 12 13  2  0
 13 14  1  0
 14 15  1  0
 15 16  1  0
 13 17  1  0
 17 18  2  0
  8 19  1  0
 19 20  2  0
 19 21  1  0
 21 22  1  0
 22 23  1  0
 23 24  2  0
 24 25  1  0
 25 26  2  0
 26 27  1  0
 27 28  2  0
 22 29  1  0
 29 30  2  0
 30 31  1  0
 31 32  2  0
 32 33  1  0
 33 34  2  0
 21 35  1  0
 35 36  2  0
 35  6  1  0
 18 10  1  0
 28 23  1  0
 34 29  1  0
 16 14  1  0
  1 37  1  0
  1 38  1  0
  1 39  1  0
  5 40  1  0
  5 41  1  0
  5 42  1  0
  7 43  1  0
  9 44  1  0
  9 45  1  0
 11 46  1  0
 12 47  1  0
 14 48  1  0
 15 49  1  0
 15 50  1  0
 16 51  1  0
 16 52  1  0
 17 53  1  0
 18 54  1  0
 22 55  1  0
 24 56  1  0
 25 57  1  0
 26 58  1  0
 27 59  1  0
 28 60  1  0
 30 61  1  0
 31 62  1  0
 32 63  1  0
 33 64  1  0
 34 65  1  0
M  END
>  <UniqueID>  (15) 
15

>  <SMILES>  (15) 
CC(=O)N(C)c1cn(Cc2ccc(C3CC3)cc2)c(=O)n(C(c2ccccc2)c2ccccc2)c1=O

>  <Energy>  (15) 
355.8162523288935

>  <Genealogy>  (15) 
CC(=O)N(C)c1cn(Cc2ccc(C3CC3)cc2)c(=O)n(C(c2ccccc2)c2ccccc2)c1=O (3D coordinates assigned)
CC(=O)N(C)c1cn(Cc2ccc(C3CC3)cc2)c(=O)n(C(c2ccccc2)c2ccccc2)c1=O (nonaromatic ring conformer: 355.8162523288935 kcal/mol)

>  <smiles>  (15) 
CC(=O)N(C)c1cn(Cc2ccc(C3CC3)cc2)c(=O)n(C(c2ccccc2)c2ccccc2)c1=O

>  <score_type>  (15) 
oracle

>  <origin>  (15) 
adgpu

>  <m_score__min__energy>  (15) 
-10.34

>  <m_primary>  (15) 
energy

$$$$
15:0
     RDKit          3D

 59 62  0  0  0  0  0  0  0  0999 V2000
   -0.2091   22.2952  -29.7765 H   0  0  0  0  0  0  0  0  0  0  0  0
   -0.7400   23.1600  -29.3520 C   0  0  0  0  0  0  0  0  0  0  0  0
   -1.9800   23.4820  -29.8010 N   0  0  0  0  0  0  0  0  0  0  0  0
   -2.6570   24.5480  -29.2920 C   0  0  0  0  0  0  0  0  0  0  0  0
   -3.8450   24.8660  -29.7180 N   0  0  0  0  0  0  0  0  0  0  0  0
   -4.6620   24.1580  -30.6670 C   0  0  0  0  0  0  0  0  0  0  0  0
   -6.0200   24.4840  -30.7460 C   0  0  0  0  0  0  0  0  0  0  0  0
   -6.4231   25.2958  -30.1227 H   0  0  0  0  0  0  0  0  0  0  0  0
   -6.8680   23.7880  -31.6090 C   0  0  0  0  0  0  0  0  0  0  0  0
   -7.9301   24.0662  -31.6765 H   0  0  0  0  0  0  0  0  0  0  0  0
   -6.3730   22.7410  -32.3860 C   0  0  0  0  0  0  0  0  0  0  0  0
   -7.0455   22.2017  -33.0693 H   0  0  0  0  0  0  0  0  0  0  0  0
   -5.0200   22.3710  -32.3010 C   0  0  0  0  0  0  0  0  0  0  0  0
   -4.4980   21.2470  -33.1100 C   0  0  0  0  0  0  0  0  0  0  0  0
   -5.2450   20.2650  -33.3700 O   0  0  0  0  0  0  0  0  0  0  0  0
   -3.1810   21.3320  -33.6820 N   0  0  0  0  0  0  0  0  0  0  0  0
   -2.0370   21.0060  -33.1470 C   0  0  0  0  0  0  0  0  0  0  0  0
   -0.9290   21.0450  -33.9360 N   0  0  0  0  0  0  0  0  0  0  0  0
    0.3040   20.7040  -33.4790 C   0  0  0  0  0  0  0  0  0  0  0  0
    1.1692   20.7365  -34.1575 H   0  0  0  0  0  0  0  0  0  0  0  0
    0.4750   20.3130  -32.1520 C   0  0  0  0  0  0  0  0  0  0  0  0
    1.4684   20.0134  -31.7869 H   0  0  0  0  0  0  0  0  0  0  0  0
   -0.6280   20.3040  -31.2850 C   0  0  0  0  0  0  0  0  0  0  0  0
   -0.4800   19.8640  -29.8500 C   0  0  0  0  0  0  0  0  0  0  0  0
   -1.6000   20.1980  -29.1070 F   0  0  0  0  0  0  0  0  0  0  0  0
    0.6250   20.4840  -29.2980 F   0  0  0  0  0  0  0  0  0  0  0  0
   -0.3080   18.4920  -29.7810 F   0  0  0  0  0  0  0  0  0  0  0  0
   -1.8960   20.6370  -31.7930 C   0  0  0  0  0  0  0  0  0  0  0  0
   -2.7772   20.6098  -31.1351 H   0  0  0  0  0  0  0  0  0  0  0  0
   -4.1720   23.0800  -31.4290 C   0  0  0  0  0  0  0  0  0  0  0  0
   -3.1149   22.7886  -31.3420 H   0  0  0  0  0  0  0  0  0  0  0  0
   -2.0730   25.3150  -28.3350 N   0  0  0  0  0  0  0  0  0  0  0  0
   -0.8380   25.0260  -27.8400 C   0  0  0  0  0  0  0  0  0  0  0  0
   -0.2660   25.8660  -26.8210 N   0  0  0  0  0  0  0  0  0  0  0  0
    1.0210   25.5200  -26.1950 C   0  0  0  0  0  0  0  0  0  0  0  0
    1.8125   26.1374  -26.6447 H   0  0  0  0  0  0  0  0  0  0  0  0
    1.2068   24.4496  -26.3672 H   0  0  0  0  0  0  0  0  0  0  0  0
    1.0040   25.7630  -24.6720 C   0  0  0  0  0  0  0  0  0  0  0  0
    2.0154   26.0620  -24.3596 H   0  0  0  0  0  0  0  0  0  0  0  0
    0.6731   24.8227  -24.2069 H   0  0  0  0  0  0  0  0  0  0  0  0
    0.0130   26.8560  -24.2130 C   0  0  0  0  0  0  0  0  0  0  0  0
   -0.9564   26.3986  -23.9658 H   0  0  0  0  0  0  0  0  0  0  0  0
    0.5400   27.5120  -23.0010 N   0  0  0  0  0  0  0  0  0  0  0  0
    0.9920   26.8170  -22.3620 H   0  0  0  0  0  0  0  0  0  0  0  0
    1.7140   28.7400  -23.3810 S   0  0  0  0  0  0  0  0  0  0  0  0
    0.9920   29.9920  -23.7870 O   0  0  0  0  0  0  0  0  0  0  0  0
    2.5720   28.2800  -24.5240 O   0  0  0  0  0  0  0  0  0  0  0  0
    2.7530   29.1100  -21.9850 C   0  0  0  0  0  0  0  0  0  0  0  0
    2.2005   28.9133  -21.0544 H   0  0  0  0  0  0  0  0  0  0  0  0
    3.6517   28.4767  -22.0187 H   0  0  0  0  0  0  0  0  0  0  0  0
    3.0491   30.1689  -22.0187 H   0  0  0  0  0  0  0  0  0  0  0  0
   -0.2430   27.8660  -25.3480 C   0  0  0  0  0  0  0  0  0  0  0  0
    0.7136   28.2937  -25.6827 H   0  0  0  0  0  0  0  0  0  0  0  0
   -0.8945   28.6740  -24.9838 H   0  0  0  0  0  0  0  0  0  0  0  0
   -0.9210   27.1460  -26.5200 C   0  0  0  0  0  0  0  0  0  0  0  0
   -0.8724   27.7898  -27.4106 H   0  0  0  0  0  0  0  0  0  0  0  0
   -1.9647   26.9406  -26.2398 H   0  0  0  0  0  0  0  0  0  0  0  0
   -0.1390   23.9250  -28.3530 C   0  0  0  0  0  0  0  0  0  0  0  0
    0.8622   23.6698  -27.9757 H   0  0  0  0  0  0  0  0  0  0  0  0
  1  2  1  0
  2  3  1  0
  3  4  1  0
  4  5  2  0
  5  6  1  0
  6  7  2  0
  7  8  1  0
  7  9  1  0
  9 10  1  0
  9 11  2  0
 11 12  1  0
 11 13  1  0
 13 14  1  0
 14 15  2  0
 14 16  1  0
 16 17  2  3
 17 18  1  0
 18 19  1  0
 19 20  1  0
 19 21  2  0
 21 22  1  0
 21 23  1  0
 23 24  1  0
 24 25  1  0
 24 26  1  0
 24 27  1  0
 23 28  2  0
 28 29  1  0
 13 30  2  0
 30 31  1  0
  4 32  1  0
 32 33  2  0
 33 34  1  0
 34 35  1  0
 35 36  1  0
 35 37  1  0
 35 38  1  0
 38 39  1  0
 38 40  1  0
 38 41  1  0
 41 42  1  0
 41 43  1  0
 43 44  1  0
 43 45  1  0
 45 46  2  0
 45 47  2  0
 45 48  1  0
 48 49  1  0
 48 50  1  0
 48 51  1  0
 41 52  1  0
 52 53  1  0
 52 54  1  0
 52 55  1  0
 55 56  1  0
 55 57  1  0
 33 58  1  0
 58 59  1  0
 58  2  2  0
 30  6  1  0
 55 34  1  0
 28 17  1  0
M  CHG  2   3  -1  18  -1
M  END
>  <UniqueID>  (16) 
16

>  <SMILES>  (16) 
CS(=O)(=O)NC1CCN(c2cc[n-]/c(=N\c3cccc(C(=O)N=c4cc(C(F)(F)F)cc[n-]4)c3)n2)CC1

>  <Energy>  (16) 
81.42697496118285

>  <Genealogy>  (16) 
CS(=O)(=O)NC1CCN(c2cc[n-]c(=Nc3cccc(C(=O)N=c4cc(C(F)(F)F)cc[n-]4)c3)n2)CC1 (protonated)
CS(=O)(=O)NC1CCN(c2cc[n-]/c(=N\c3cccc(C(=O)N=c4cc(C(F)(F)F)cc[n-]4)c3)n2)CC1 (cis-trans isomerization)
CS(=O)(=O)NC1CCN(c2cc[n-]/c(=N\c3cccc(C(=O)N=c4cc(C(F)(F)F)cc[n-]4)c3)n2)CC1 (3D coordinates assigned)
CS(=O)(=O)NC1CCN(c2cc[n-]/c(=N\c3cccc(C(=O)N=c4cc(C(F)(F)F)cc[n-]4)c3)n2)CC1 (nonaromatic ring conformer: 81.42697496118285 kcal/mol)

>  <smiles>  (16) 
CS(=O)(=O)NC1CCN(c2cc[nH]c(=Nc3cccc(C(=O)N=c4cc(C(F)(F)F)cc[nH]4)c3)n2)CC1

>  <score_type>  (16) 
oracle

>  <origin>  (16) 
adgpu

>  <m_score__min__energy>  (16) 
-10.19

>  <m_primary>  (16) 
energy

$$$$
16:0
     RDKit          3D

 38 40  0  0  0  0  0  0  0  0999 V2000
   -3.4490   24.2000  -26.9840 O   0  0  0  0  0  0  0  0  0  0  0  0
   -2.7440   24.6820  -27.9120 C   0  0  0  0  0  0  0  0  0  0  0  0
   -3.3250   24.8980  -29.2080 N   0  0  0  0  0  0  0  0  0  0  0  0
   -4.4950   24.2090  -29.6840 C   0  0  0  0  0  0  0  0  0  0  0  0
   -5.7320   24.8730  -29.6910 C   0  0  0  0  0  0  0  0  0  0  0  0
   -6.8780   24.2320  -30.1680 C   0  0  0  0  0  0  0  0  0  0  0  0
   -6.8020   22.9210  -30.6540 C   0  0  0  0  0  0  0  0  0  0  0  0
   -8.2390   22.1240  -31.2810 S   0  0  0  0  0  0  0  0  0  0  0  0
   -9.2340   21.9140  -30.1730 O   0  0  0  0  0  0  0  0  0  0  0  0
   -8.8850   22.9860  -32.3310 O   0  0  0  0  0  0  0  0  0  0  0  0
   -7.7790   20.5750  -31.9760 C   0  0  0  0  0  0  0  0  0  0  0  0
   -6.8130   20.5170  -32.9920 C   0  0  0  0  0  0  0  0  0  0  0  0
   -6.4620   19.2870  -33.5570 C   0  0  0  0  0  0  0  0  0  0  0  0
   -7.0770   18.1120  -33.1150 C   0  0  0  0  0  0  0  0  0  0  0  0
   -8.0470   18.1670  -32.1100 C   0  0  0  0  0  0  0  0  0  0  0  0
   -8.4000   19.3950  -31.5430 C   0  0  0  0  0  0  0  0  0  0  0  0
   -5.5650   22.2630  -30.6790 C   0  0  0  0  0  0  0  0  0  0  0  0
   -4.4180   22.9030  -30.2000 C   0  0  0  0  0  0  0  0  0  0  0  0
   -1.3390   25.0680  -27.6340 C   0  0  0  0  0  0  0  0  0  0  0  0
   -1.0520   26.1680  -26.8060 C   0  0  0  0  0  0  0  0  0  0  0  0
    0.2730   26.5210  -26.5440 C   0  0  0  0  0  0  0  0  0  0  0  0
    1.3060   25.7710  -27.1050 C   0  0  0  0  0  0  0  0  0  0  0  0
    1.0190   24.7030  -27.8930 N   0  0  0  0  0  0  0  0  0  0  0  0
   -0.2620   24.3370  -28.1680 C   0  0  0  0  0  0  0  0  0  0  0  0
   -2.9470   25.6770  -29.7930 H   0  0  0  0  0  0  0  0  0  0  0  0
   -5.7994   25.9057  -29.3181 H   0  0  0  0  0  0  0  0  0  0  0  0
   -7.8435   24.7591  -30.1618 H   0  0  0  0  0  0  0  0  0  0  0  0
   -6.3310   21.4407  -33.3447 H   0  0  0  0  0  0  0  0  0  0  0  0
   -5.7011   19.2439  -34.3502 H   0  0  0  0  0  0  0  0  0  0  0  0
   -6.7977   17.1446  -33.5579 H   0  0  0  0  0  0  0  0  0  0  0  0
   -8.5332   17.2426  -31.7648 H   0  0  0  0  0  0  0  0  0  0  0  0
   -9.1667   19.4356  -30.7553 H   0  0  0  0  0  0  0  0  0  0  0  0
   -5.4962   21.2397  -31.0767 H   0  0  0  0  0  0  0  0  0  0  0  0
   -3.4496   22.3820  -30.2269 H   0  0  0  0  0  0  0  0  0  0  0  0
   -1.8732   26.7513  -26.3640 H   0  0  0  0  0  0  0  0  0  0  0  0
    0.5002   27.3836  -25.9004 H   0  0  0  0  0  0  0  0  0  0  0  0
    2.3533   26.0445  -26.9092 H   0  0  0  0  0  0  0  0  0  0  0  0
   -0.4566   23.4657  -28.8107 H   0  0  0  0  0  0  0  0  0  0  0  0
  1  2  2  0
  2  3  1  0
  3  4  1  0
  4  5  2  0
  5  6  1  0
  6  7  2  0
  7  8  1  0
  8  9  2  0
  8 10  2  0
  8 11  1  0
 11 12  2  0
 12 13  1  0
 13 14  2  0
 14 15  1  0
 15 16  2  0
  7 17  1  0
 17 18  2  0
  2 19  1  0
 19 20  2  0
 20 21  1  0
 21 22  2  0
 22 23  1  0
 23 24  2  0
 18  4  1  0
 24 19  1  0
 16 11  1  0
  3 25  1  0
  5 26  1  0
  6 27  1  0
 12 28  1  0
 13 29  1  0
 14 30  1  0
 15 31  1  0
 16 32  1  0
 17 33  1  0
 18 34  1  0
 20 35  1  0
 21 36  1  0
 22 37  1  0
 24 38  1  0
M  END
>  <UniqueID>  (17) 
17

>  <SMILES>  (17) 
O=C(Nc1ccc(S(=O)(=O)c2ccccc2)cc1)c1cccnc1

>  <Energy>  (17) 
49.19771831857283

>  <Genealogy>  (17) 
O=C(Nc1ccc(S(=O)(=O)c2ccccc2)cc1)c1cccnc1 (3D coordinates assigned)
O=C(Nc1ccc(S(=O)(=O)c2ccccc2)cc1)c1cccnc1 (optimized conformer: 49.19771831857283 kcal/mol)

>  <smiles>  (17) 
O=C(Nc1ccc(S(=O)(=O)c2ccccc2)cc1)c1cccnc1

>  <score_type>  (17) 
oracle

>  <origin>  (17) 
adgpu

>  <m_score__min__energy>  (17) 
-9.3200000000000003

>  <m_primary>  (17) 
energy

$$$$
17:0
     RDKit          3D

 38 40  0  0  0  0  0  0  0  0999 V2000
   -3.3410   21.3330  -33.0000 C   0  0  0  0  0  0  0  0  0  0  0  0
   -4.8140   21.0360  -32.8390 C   0  0  0  0  0  0  0  0  0  0  0  0
   -5.3490   19.8110  -33.2980 C   0  0  0  0  0  0  0  0  0  0  0  0
   -4.5100   18.7880  -33.8620 N   0  0  0  0  0  0  0  0  0  0  0  0
   -4.9870   18.0130  -35.0080 C   0  0  0  0  0  0  0  0  0  0  0  0
   -5.3060   16.5700  -34.5780 C   0  0  0  0  0  0  0  0  0  0  0  0
   -4.4120   16.0440  -33.5110 N   0  0  0  0  0  0  0  0  0  0  0  0
   -5.1080   15.9330  -32.2180 C   0  0  0  0  0  0  0  0  0  0  0  0
   -3.1380   16.7860  -33.3880 C   0  0  0  0  0  0  0  0  0  0  0  0
   -3.3700   18.2770  -33.0920 C   0  0  0  0  0  0  0  0  0  0  0  0
   -6.6820   19.5740  -33.1970 N   0  0  0  0  0  0  0  0  0  0  0  0
   -7.5420   20.4570  -32.6360 C   0  0  0  0  0  0  0  0  0  0  0  0
   -8.9050   20.1440  -32.5660 C   0  0  0  0  0  0  0  0  0  0  0  0
   -9.8000   21.0360  -31.9760 C   0  0  0  0  0  0  0  0  0  0  0  0
   -9.3410   22.2450  -31.4520 C   0  0  0  0  0  0  0  0  0  0  0  0
   -7.9820   22.5690  -31.5150 C   0  0  0  0  0  0  0  0  0  0  0  0
   -7.0620   21.6780  -32.1110 C   0  0  0  0  0  0  0  0  0  0  0  0
   -5.6800   21.9630  -32.2070 C   0  0  0  0  0  0  0  0  0  0  0  0
   -5.1480   23.1940  -31.6570 C   0  0  0  0  0  0  0  0  0  0  0  0
   -4.7220   24.1770  -31.2170 N   0  0  0  0  0  0  0  0  0  0  0  0
   -2.8753   21.4269  -32.0079 H   0  0  0  0  0  0  0  0  0  0  0  0
   -2.8602   20.5137  -33.5547 H   0  0  0  0  0  0  0  0  0  0  0  0
   -3.2153   22.2746  -33.5547 H   0  0  0  0  0  0  0  0  0  0  0  0
   -5.8971   18.4819  -35.4103 H   0  0  0  0  0  0  0  0  0  0  0  0
   -4.2028   17.9927  -35.7791 H   0  0  0  0  0  0  0  0  0  0  0  0
   -6.3413   16.5405  -34.2073 H   0  0  0  0  0  0  0  0  0  0  0  0
   -5.1540   15.9338  -35.4624 H   0  0  0  0  0  0  0  0  0  0  0  0
   -4.3821   16.0488  -31.3997 H   0  0  0  0  0  0  0  0  0  0  0  0
   -5.8724   16.7206  -32.1442 H   0  0  0  0  0  0  0  0  0  0  0  0
   -5.5895   14.9467  -32.1442 H   0  0  0  0  0  0  0  0  0  0  0  0
   -2.5489   16.3481  -32.5687 H   0  0  0  0  0  0  0  0  0  0  0  0
   -2.6035   16.7075  -34.3462 H   0  0  0  0  0  0  0  0  0  0  0  0
   -3.5732   18.4046  -32.0185 H   0  0  0  0  0  0  0  0  0  0  0  0
   -2.4690   18.8388  -33.3795 H   0  0  0  0  0  0  0  0  0  0  0  0
   -9.2709   19.1918  -32.9776 H   0  0  0  0  0  0  0  0  0  0  0  0
  -10.8699   20.7860  -31.9236 H   0  0  0  0  0  0  0  0  0  0  0  0
  -10.0505   22.9457  -30.9877 H   0  0  0  0  0  0  0  0  0  0  0  0
   -7.6274   23.5232  -31.0980 H   0  0  0  0  0  0  0  0  0  0  0  0
  1  2  1  0
  2  3  2  0
  3  4  1  0
  4  5  1  0
  5  6  1  0
  6  7  1  0
  7  8  1  0
  7  9  1  0
  9 10  1  0
  3 11  1  0
 11 12  2  0
 12 13  1  0
 13 14  2  0
 14 15  1  0
 15 16  2  0
 16 17  1  0
 17 18  2  0
 18 19  1  0
 19 20  3  0
 18  2  1  0
 10  4  1  0
 17 12  1  0
  1 21  1  0
  1 22  1  0
  1 23  1  0
  5 24  1  0
  5 25  1  0
  6 26  1  0
  6 27  1  0
  8 28  1  0
  8 29  1  0
  8 30  1  0
  9 31  1  0
  9 32  1  0
 10 33  1  0
 10 34  1  0
 13 35  1  0
 14 36  1  0
 15 37  1  0
 16 38  1  0
M  END
>  <UniqueID>  (18) 
18

>  <SMILES>  (18) 
Cc1c(N2CCN(C)CC2)nc2ccccc2c1C#N

>  <Energy>  (18) 
58.66117770559841

>  <Genealogy>  (18) 
Cc1c(N2CCN(C)CC2)nc2ccccc2c1C#N (3D coordinates assigned)
Cc1c(N2CCN(C)CC2)nc2ccccc2c1C#N (nonaromatic ring conformer: 58.66117770559841 kcal/mol)

>  <smiles>  (18) 
Cc1c(N2CCN(C)CC2)nc2ccccc2c1C#N

>  <score_type>  (18) 
oracle

>  <origin>  (18) 
adgpu

>  <m_score__min__energy>  (18) 
-7.9000000000000004

>  <m_primary>  (18) 
energy

$$$$
18:0
     RDKit          3D

 37 39  0  0  0  0  0  0  0  0999 V2000
   -4.6050   25.9390  -30.5600 O   0  0  0  0  0  0  0  0  0  0  0  0
   -3.9020   24.9000  -30.4680 C   0  0  0  0  0  0  0  0  0  0  0  0
   -2.7080   24.9370  -29.6800 N   0  0  0  0  0  0  0  0  0  0  0  0
   -2.2400   23.8810  -28.8290 C   0  0  0  0  0  0  0  0  0  0  0  0
   -0.9400   23.8860  -28.2900 C   0  0  0  0  0  0  0  0  0  0  0  0
   -0.5180   22.8430  -27.4610 C   0  0  0  0  0  0  0  0  0  0  0  0
   -1.3930   21.8000  -27.1460 C   0  0  0  0  0  0  0  0  0  0  0  0
   -0.9820   20.7890  -26.3410 F   0  0  0  0  0  0  0  0  0  0  0  0
   -2.6960   21.8050  -27.6520 C   0  0  0  0  0  0  0  0  0  0  0  0
   -3.1200   22.8480  -28.4830 C   0  0  0  0  0  0  0  0  0  0  0  0
   -4.2880   23.6920  -31.1380 N   0  0  0  0  0  0  0  0  0  0  0  0
   -5.6170   23.2480  -31.4510 C   0  0  0  0  0  0  0  0  0  0  0  0
   -6.7550   23.8780  -30.9100 C   0  0  0  0  0  0  0  0  0  0  0  0
   -8.0350   23.4080  -31.2210 C   0  0  0  0  0  0  0  0  0  0  0  0
   -8.1930   22.3040  -32.0600 C   0  0  0  0  0  0  0  0  0  0  0  0
   -7.0700   21.6580  -32.5810 C   0  0  0  0  0  0  0  0  0  0  0  0
   -5.7840   22.1150  -32.2700 C   0  0  0  0  0  0  0  0  0  0  0  0
   -4.3590   21.2510  -32.9470 S   0  0  0  0  0  0  0  0  0  0  0  0
   -5.1830   19.6580  -32.9210 C   0  0  0  0  0  0  0  0  0  0  0  0
   -5.5360   19.0670  -31.7000 C   0  0  0  0  0  0  0  0  0  0  0  0
   -6.1770   17.8250  -31.6830 C   0  0  0  0  0  0  0  0  0  0  0  0
   -6.4650   17.1680  -32.8840 C   0  0  0  0  0  0  0  0  0  0  0  0
   -6.1090   17.7530  -34.1030 C   0  0  0  0  0  0  0  0  0  0  0  0
   -5.4660   18.9960  -34.1230 C   0  0  0  0  0  0  0  0  0  0  0  0
   -0.2537   24.7137  -28.5220 H   0  0  0  0  0  0  0  0  0  0  0  0
    0.5046   22.8431  -27.0558 H   0  0  0  0  0  0  0  0  0  0  0  0
   -3.3882   20.9890  -27.3969 H   0  0  0  0  0  0  0  0  0  0  0  0
   -4.1508   22.8565  -28.8668 H   0  0  0  0  0  0  0  0  0  0  0  0
   -6.6364   24.7427  -30.2405 H   0  0  0  0  0  0  0  0  0  0  0  0
   -8.9200   23.9101  -30.8030 H   0  0  0  0  0  0  0  0  0  0  0  0
   -9.2014   21.9430  -32.3107 H   0  0  0  0  0  0  0  0  0  0  0  0
   -7.1966   20.7857  -33.2391 H   0  0  0  0  0  0  0  0  0  0  0  0
   -5.3084   19.5810  -30.7545 H   0  0  0  0  0  0  0  0  0  0  0  0
   -6.4553   17.3636  -30.7240 H   0  0  0  0  0  0  0  0  0  0  0  0
   -6.9713   16.1916  -32.8693 H   0  0  0  0  0  0  0  0  0  0  0  0
   -6.3345   17.2358  -35.0473 H   0  0  0  0  0  0  0  0  0  0  0  0
   -5.1828   19.4533  -35.0825 H   0  0  0  0  0  0  0  0  0  0  0  0
  1  2  2  0
  2  3  1  0
  3  4  1  0
  4  5  2  0
  5  6  1  0
  6  7  2  0
  7  8  1  0
  7  9  1  0
  9 10  2  0
  2 11  1  0
 11 12  1  0
 12 13  2  0
 13 14  1  0
 14 15  2  0
 15 16  1  0
 16 17  2  0
 17 18  1  0
 18 19  1  0
 19 20  2  0
 20 21  1  0
 21 22  2  0
 22 23  1  0
 23 24  2  0
 10  4  1  0
 17 12  1  0
 24 19  1  0
  5 25  1  0
  6 26  1  0
  9 27  1  0
 10 28  1  0
 13 29  1  0
 14 30  1  0
 15 31  1  0
 16 32  1  0
 20 33  1  0
 21 34  1  0
 22 35  1  0
 23 36  1  0
 24 37  1  0
M  CHG  2   3  -1  11  -1
M  END
>  <UniqueID>  (19) 
19

>  <SMILES>  (19) 
O=C([N-]c1ccc(F)cc1)[N-]c1ccccc1Sc1ccccc1

>  <Energy>  (19) 
40.90831547216801

>  <Genealogy>  (19) 
O=C([N-]c1ccc(F)cc1)[N-]c1ccccc1Sc1ccccc1 (protonated)
O=C([N-]c1ccc(F)cc1)[N-]c1ccccc1Sc1ccccc1 (3D coordinates assigned)
O=C([N-]c1ccc(F)cc1)[N-]c1ccccc1Sc1ccccc1 (optimized conformer: 40.90831547216801 kcal/mol)

>  <smiles>  (19) 
O=C(Nc1ccc(F)cc1)Nc1ccccc1Sc1ccccc1

>  <score_type>  (19) 
oracle

>  <origin>  (19) 
adgpu

>  <m_score__min__energy>  (19) 
-10.84

>  <m_primary>  (19) 
energy

$$$$
19:0
     RDKit          3D

 46 49  0  0  0  0  0  0  0  0999 V2000
    0.6410   23.3520  -25.4100 C   0  0  0  0  0  0  0  0  0  0  0  0
    0.6040   22.9880  -26.7860 O   0  0  0  0  0  0  0  0  0  0  0  0
   -0.4680   23.2600  -27.6520 C   0  0  0  0  0  0  0  0  0  0  0  0
   -1.3640   22.2570  -28.0680 C   0  0  0  0  0  0  0  0  0  0  0  0
   -2.4190   22.5650  -28.9310 C   0  0  0  0  0  0  0  0  0  0  0  0
   -3.2780   21.5920  -29.3220 N   0  0  0  0  0  0  0  0  0  0  0  0
   -4.3110   21.8600  -30.1590 C   0  0  0  0  0  0  0  0  0  0  0  0
   -4.5100   23.1240  -30.6400 N   0  0  0  0  0  0  0  0  0  0  0  0
   -5.6550   23.3820  -31.5290 C   0  0  0  0  0  0  0  0  0  0  0  0
   -6.7180   22.3250  -31.3710 C   0  0  0  0  0  0  0  0  0  0  0  0
   -7.6920   22.5310  -30.5970 O   0  0  0  0  0  0  0  0  0  0  0  0
   -6.6060   21.0610  -32.0470 N   0  0  0  0  0  0  0  0  0  0  0  0
   -7.5900   19.9860  -31.9030 C   0  0  0  0  0  0  0  0  0  0  0  0
   -7.0190   18.8970  -32.7330 C   0  0  0  0  0  0  0  0  0  0  0  0
   -7.5460   17.6240  -32.9570 C   0  0  0  0  0  0  0  0  0  0  0  0
   -6.8330   16.7410  -33.7840 C   0  0  0  0  0  0  0  0  0  0  0  0
   -5.6150   17.1410  -34.3680 C   0  0  0  0  0  0  0  0  0  0  0  0
   -5.1040   18.4270  -34.1270 C   0  0  0  0  0  0  0  0  0  0  0  0
   -5.8290   19.2890  -33.3010 C   0  0  0  0  0  0  0  0  0  0  0  0
   -5.4880   20.6780  -32.9130 C   0  0  0  0  0  0  0  0  0  0  0  0
   -3.6720   24.1420  -30.2590 C   0  0  0  0  0  0  0  0  0  0  0  0
   -3.8690   25.3170  -30.6830 O   0  0  0  0  0  0  0  0  0  0  0  0
   -2.5950   23.8810  -29.3920 C   0  0  0  0  0  0  0  0  0  0  0  0
   -1.7020   24.8850  -28.9770 C   0  0  0  0  0  0  0  0  0  0  0  0
   -0.6370   24.5770  -28.1070 C   0  0  0  0  0  0  0  0  0  0  0  0
    0.2740   25.5530  -27.6720 O   0  0  0  0  0  0  0  0  0  0  0  0
   -0.0630   26.6630  -26.8450 C   0  0  0  0  0  0  0  0  0  0  0  0
    0.5492   22.4486  -24.7892 H   0  0  0  0  0  0  0  0  0  0  0  0
    1.5947   23.8535  -25.1889 H   0  0  0  0  0  0  0  0  0  0  0  0
   -0.1923   24.0351  -25.1889 H   0  0  0  0  0  0  0  0  0  0  0  0
   -1.2328   21.2246  -27.7116 H   0  0  0  0  0  0  0  0  0  0  0  0
   -4.9961   21.0515  -30.4540 H   0  0  0  0  0  0  0  0  0  0  0  0
   -6.0860   24.3637  -31.2829 H   0  0  0  0  0  0  0  0  0  0  0  0
   -5.2986   23.3642  -32.5695 H   0  0  0  0  0  0  0  0  0  0  0  0
   -7.6840   19.6743  -30.8523 H   0  0  0  0  0  0  0  0  0  0  0  0
   -8.6031   20.2815  -32.2132 H   0  0  0  0  0  0  0  0  0  0  0  0
   -8.4975   17.3196  -32.4965 H   0  0  0  0  0  0  0  0  0  0  0  0
   -7.2274   15.7324  -33.9767 H   0  0  0  0  0  0  0  0  0  0  0  0
   -5.0623   16.4439  -35.0149 H   0  0  0  0  0  0  0  0  0  0  0  0
   -4.1539   18.7481  -34.5788 H   0  0  0  0  0  0  0  0  0  0  0  0
   -4.5341   20.7131  -32.3663 H   0  0  0  0  0  0  0  0  0  0  0  0
   -5.3566   21.3493  -33.7744 H   0  0  0  0  0  0  0  0  0  0  0  0
   -1.8356   25.9170  -29.3336 H   0  0  0  0  0  0  0  0  0  0  0  0
    0.0252   26.3726  -25.7877 H   0  0  0  0  0  0  0  0  0  0  0  0
    0.6222   27.4976  -27.0544 H   0  0  0  0  0  0  0  0  0  0  0  0
   -1.0966   26.9758  -27.0544 H   0  0  0  0  0  0  0  0  0  0  0  0
  1  2  1  0
  2  3  1  0
  3  4  2  0
  4  5  1  0
  5  6  1  0
  6  7  2  0
  7  8  1  0
  8  9  1  0
  9 10  1  0
 10 11  2  0
 10 12  1  0
 12 13  1  0
 13 14  1  0
 14 15  2  0
 15 16  1  0
 16 17  2  0
 17 18  1  0
 18 19  2  0
 19 20  1  0
  8 21  1  0
 21 22  2  0
 21 23  1  0
 23 24  1  0
 24 25  2  0
 25 26  1  0
 26 27  1  0
 25  3  1  0
 23  5  2  0
 20 12  1  0
 19 14  1  0
  1 28  1  0
  1 29  1  0
  1 30  1  0
  4 31  1  0
  7 32  1  0
  9 33  1  0
  9 34  1  0
 13 35  1  0
 13 36  1  0
 15 37  1  0
 16 38  1  0
 17 39  1  0
 18 40  1  0
 20 41  1  0
 20 42  1  0
 24 43  1  0
 27 44  1  0
 27 45  1  0
 27 46  1  0
M  END
>  <UniqueID>  (20) 
20

>  <SMILES>  (20) 
COc1cc2ncn(CC(=O)N3Cc4ccccc4C3)c(=O)c2cc1OC

>  <Energy>  (20) 
64.63151663454387

>  <Genealogy>  (20) 
COc1cc2ncn(CC(=O)N3Cc4ccccc4C3)c(=O)c2cc1OC (3D coordinates assigned)
COc1cc2ncn(CC(=O)N3Cc4ccccc4C3)c(=O)c2cc1OC (nonaromatic ring conformer: 64.63151663454387 kcal/mol)

>  <smiles>  (20) 
COc1cc2ncn(CC(=O)N3Cc4ccccc4C3)c(=O)c2cc1OC

>  <score_type>  (20) 
oracle

>  <origin>  (20) 
adgpu

>  <m_score__min__energy>  (20) 
-8.4199999999999999

>  <m_primary>  (20) 
energy

$$$$
20:0
     RDKit          3D

 43 45  0  0  0  0  0  0  0  0999 V2000
   -0.6620   23.6650  -28.9360 O   0  0  0  0  0  0  0  0  0  0  0  0
   -1.5460   24.3900  -28.4030 C   0  0  0  0  0  0  0  0  0  0  0  0
   -1.1930   25.3370  -27.3830 N   0  0  0  0  0  0  0  0  0  0  0  0
    0.1600   25.6000  -26.9730 C   0  0  0  0  0  0  0  0  0  0  0  0
    1.1250   25.2210  -27.6920 O   0  0  0  0  0  0  0  0  0  0  0  0
    0.4400   26.3620  -25.7340 C   0  0  0  0  0  0  0  0  0  0  0  0
    1.7750   26.6290  -25.3780 C   0  0  0  0  0  0  0  0  0  0  0  0
    2.0680   27.3560  -24.2210 C   0  0  0  0  0  0  0  0  0  0  0  0
    1.0360   27.8170  -23.4030 C   0  0  0  0  0  0  0  0  0  0  0  0
   -0.2930   27.5440  -23.7340 C   0  0  0  0  0  0  0  0  0  0  0  0
   -0.6000   26.8100  -24.8900 C   0  0  0  0  0  0  0  0  0  0  0  0
   -1.9300   26.5050  -25.1800 O   0  0  0  0  0  0  0  0  0  0  0  0
   -2.9170   24.2670  -28.8100 N   0  0  0  0  0  0  0  0  0  0  0  0
   -3.3350   23.3450  -29.8260 C   0  0  0  0  0  0  0  0  0  0  0  0
   -2.7390   22.0790  -29.8610 C   0  0  0  0  0  0  0  0  0  0  0  0
   -3.1580   21.1200  -30.7820 C   0  0  0  0  0  0  0  0  0  0  0  0
   -4.1810   21.4110  -31.6970 C   0  0  0  0  0  0  0  0  0  0  0  0
   -4.6300   20.3840  -32.6730 C   0  0  0  0  0  0  0  0  0  0  0  0
   -3.6970   19.5450  -33.3080 C   0  0  0  0  0  0  0  0  0  0  0  0
   -4.1220   18.5780  -34.2240 C   0  0  0  0  0  0  0  0  0  0  0  0
   -5.4810   18.4400  -34.5170 C   0  0  0  0  0  0  0  0  0  0  0  0
   -6.4170   19.2690  -33.8950 C   0  0  0  0  0  0  0  0  0  0  0  0
   -5.9980   20.2360  -32.9770 C   0  0  0  0  0  0  0  0  0  0  0  0
   -4.7630   22.6900  -31.6850 C   0  0  0  0  0  0  0  0  0  0  0  0
   -4.3390   23.6730  -30.7700 C   0  0  0  0  0  0  0  0  0  0  0  0
   -4.9190   25.0370  -30.8610 C   0  0  0  0  0  0  0  0  0  0  0  0
   -4.2550   26.0370  -30.4780 O   0  0  0  0  0  0  0  0  0  0  0  0
   -6.2130   25.2300  -31.3260 O   0  0  0  0  0  0  0  0  0  0  0  0
   -1.9630   25.8820  -26.9380 H   0  0  0  0  0  0  0  0  0  0  0  0
    2.5937   26.2629  -26.0149 H   0  0  0  0  0  0  0  0  0  0  0  0
    3.1146   27.5652  -23.9546 H   0  0  0  0  0  0  0  0  0  0  0  0
    1.2693   28.3957  -22.4971 H   0  0  0  0  0  0  0  0  0  0  0  0
   -1.1038   27.9064  -23.0849 H   0  0  0  0  0  0  0  0  0  0  0  0
   -2.6920   26.8540  -24.6100 H   0  0  0  0  0  0  0  0  0  0  0  0
   -3.5880   25.0120  -28.5150 H   0  0  0  0  0  0  0  0  0  0  0  0
   -1.9313   21.8382  -29.1542 H   0  0  0  0  0  0  0  0  0  0  0  0
   -2.6831   20.1279  -30.7914 H   0  0  0  0  0  0  0  0  0  0  0  0
   -2.6255   19.6503  -33.0825 H   0  0  0  0  0  0  0  0  0  0  0  0
   -3.3853   17.9249  -34.7147 H   0  0  0  0  0  0  0  0  0  0  0  0
   -5.8137   17.6784  -35.2376 H   0  0  0  0  0  0  0  0  0  0  0  0
   -7.4865   19.1607  -34.1281 H   0  0  0  0  0  0  0  0  0  0  0  0
   -6.7401   20.8851  -32.4892 H   0  0  0  0  0  0  0  0  0  0  0  0
   -5.5628   22.9272  -32.4020 H   0  0  0  0  0  0  0  0  0  0  0  0
  1  2  2  0
  2  3  1  0
  3  4  1  0
  4  5  2  0
  4  6  1  0
  6  7  2  0
  7  8  1  0
  8  9  2  0
  9 10  1  0
 10 11  2  0
 11 12  1  0
  2 13  1  0
 13 14  1  0
 14 15  2  0
 15 16  1  0
 16 17  2  0
 17 18  1  0
 18 19  2  0
 19 20  1  0
 20 21  2  0
 21 22  1  0
 22 23  2  0
 17 24  1  0
 24 25  2  0
 25 26  1  0
 26 27  2  0
 26 28  1  0
 11  6  1  0
 25 14  1  0
 23 18  1  0
  3 29  1  0
  7 30  1  0
  8 31  1  0
  9 32  1  0
 10 33  1  0
 12 34  1  0
 13 35  1  0
 15 36  1  0
 16 37  1  0
 19 38  1  0
 20 39  1  0
 21 40  1  0
 22 41  1  0
 23 42  1  0
 24 43  1  0
M  CHG  1  28  -1
M  END
>  <UniqueID>  (21) 
21

>  <SMILES>  (21) 
O=C(NC(=O)c1ccccc1O)Nc1ccc(-c2ccccc2)cc1C(=O)[O-]

>  <Energy>  (21) 
64.34500851066451

>  <Genealogy>  (21) 
O=C(NC(=O)c1ccccc1O)Nc1ccc(-c2ccccc2)cc1C(=O)[O-] (protonated)
O=C(NC(=O)c1ccccc1O)Nc1ccc(-c2ccccc2)cc1C(=O)[O-] (3D coordinates assigned)
O=C(NC(=O)c1ccccc1O)Nc1ccc(-c2ccccc2)cc1C(=O)[O-] (optimized conformer: 64.34500851066451 kcal/mol)

>  <smiles>  (21) 
O=C(NC(=O)c1ccccc1O)Nc1ccc(-c2ccccc2)cc1C(=O)O

>  <score_type>  (21) 
oracle

>  <origin>  (21) 
adgpu

>  <m_score__min__energy>  (21) 
-9.9199999999999999

>  <m_primary>  (21) 
energy

$$$$
21:0
     RDKit          3D

 44 46  0  0  0  0  0  0  0  0999 V2000
   -1.2430   18.6690  -34.1780 C   0  0  0  0  0  0  0  0  0  0  0  0
   -1.5050   20.0670  -34.2590 O   0  0  0  0  0  0  0  0  0  0  0  0
   -1.8740   20.8670  -33.1690 C   0  0  0  0  0  0  0  0  0  0  0  0
   -1.0240   21.0800  -32.0670 C   0  0  0  0  0  0  0  0  0  0  0  0
   -1.4350   21.8950  -31.0080 C   0  0  0  0  0  0  0  0  0  0  0  0
   -2.6960   22.5020  -31.0250 C   0  0  0  0  0  0  0  0  0  0  0  0
   -3.0580   23.3650  -29.9370 N   0  0  0  0  0  0  0  0  0  0  0  0
   -4.4150   24.4460  -29.9440 S   0  0  0  0  0  0  0  0  0  0  0  0
   -4.6670   24.9270  -28.5400 O   0  0  0  0  0  0  0  0  0  0  0  0
   -4.1060   25.6240  -30.8240 O   0  0  0  0  0  0  0  0  0  0  0  0
   -5.8310   23.6130  -30.5780 C   0  0  0  0  0  0  0  0  0  0  0  0
   -6.1870   23.7760  -31.9220 C   0  0  0  0  0  0  0  0  0  0  0  0
   -7.2320   23.0300  -32.4690 C   0  0  0  0  0  0  0  0  0  0  0  0
   -7.9320   22.1020  -31.6770 C   0  0  0  0  0  0  0  0  0  0  0  0
   -8.9460   21.2520  -32.2290 N   0  0  0  0  0  0  0  0  0  0  0  0
   -8.8710   19.5210  -32.2010 S   0  0  0  0  0  0  0  0  0  0  0  0
   -9.0960   19.0290  -30.7980 O   0  0  0  0  0  0  0  0  0  0  0  0
   -9.9470   18.9610  -33.0910 O   0  0  0  0  0  0  0  0  0  0  0  0
   -7.2750   19.0050  -32.7420 C   0  0  0  0  0  0  0  0  0  0  0  0
   -6.6220   19.6700  -33.7930 C   0  0  0  0  0  0  0  0  0  0  0  0
   -5.3290   19.2900  -34.1680 C   0  0  0  0  0  0  0  0  0  0  0  0
   -4.6840   18.2470  -33.4970 C   0  0  0  0  0  0  0  0  0  0  0  0
   -5.3280   17.5850  -32.4480 C   0  0  0  0  0  0  0  0  0  0  0  0
   -6.6220   17.9590  -32.0730 C   0  0  0  0  0  0  0  0  0  0  0  0
   -7.6130   21.9850  -30.3180 C   0  0  0  0  0  0  0  0  0  0  0  0
   -6.5600   22.7270  -29.7730 C   0  0  0  0  0  0  0  0  0  0  0  0
   -3.5550   22.2690  -32.1150 C   0  0  0  0  0  0  0  0  0  0  0  0
   -3.1380   21.4670  -33.1800 C   0  0  0  0  0  0  0  0  0  0  0  0
   -1.1864   18.3671  -33.1217 H   0  0  0  0  0  0  0  0  0  0  0  0
   -2.0529   18.1148  -34.6749 H   0  0  0  0  0  0  0  0  0  0  0  0
   -0.2874   18.4457  -34.6749 H   0  0  0  0  0  0  0  0  0  0  0  0
   -0.0330   20.6035  -32.0391 H   0  0  0  0  0  0  0  0  0  0  0  0
   -0.7616   22.0606  -30.1541 H   0  0  0  0  0  0  0  0  0  0  0  0
   -5.6406   24.4953  -32.5498 H   0  0  0  0  0  0  0  0  0  0  0  0
   -7.5095   23.1684  -33.5244 H   0  0  0  0  0  0  0  0  0  0  0  0
   -7.1282   20.4909  -34.3220 H   0  0  0  0  0  0  0  0  0  0  0  0
   -4.8196   19.8122  -34.9913 H   0  0  0  0  0  0  0  0  0  0  0  0
   -3.6685   17.9470  -33.7949 H   0  0  0  0  0  0  0  0  0  0  0  0
   -4.8163   16.7689  -31.9169 H   0  0  0  0  0  0  0  0  0  0  0  0
   -7.1292   17.4318  -31.2515 H   0  0  0  0  0  0  0  0  0  0  0  0
   -8.1936   21.3061  -29.6762 H   0  0  0  0  0  0  0  0  0  0  0  0
   -6.3032   22.6148  -28.7093 H   0  0  0  0  0  0  0  0  0  0  0  0
   -4.5582   22.7199  -32.1284 H   0  0  0  0  0  0  0  0  0  0  0  0
   -3.8100   21.3055  -34.0358 H   0  0  0  0  0  0  0  0  0  0  0  0
  1  2  1  0
  2  3  1  0
  3  4  2  0
  4  5  1  0
  5  6  2  0
  6  7  1  0
  7  8  1  0
  8  9  2  0
  8 10  2  0
  8 11  1  0
 11 12  2  0
 12 13  1  0
 13 14  2  0
 14 15  1  0
 15 16  1  0
 16 17  2  0
 16 18  2  0
 16 19  1  0
 19 20  2  0
 20 21  1  0
 21 22  2  0
 22 23  1  0
 23 24  2  0
 14 25  1  0
 25 26  2  0
  6 27  1  0
 27 28  2  0
 28  3  1  0
 26 11  1  0
 24 19  1  0
  1 29  1  0
  1 30  1  0
  1 31  1  0
  4 32  1  0
  5 33  1  0
 12 34  1  0
 13 35  1  0
 20 36  1  0
 21 37  1  0
 22 38  1  0
 23 39  1  0
 24 40  1  0
 25 41  1  0
 26 42  1  0
 27 43  1  0
 28 44  1  0
M  CHG  2   7  -1  15  -1
M  END
>  <UniqueID>  (22) 
22

>  <SMILES>  (22) 
COc1ccc([N-]S(=O)(=O)c2ccc([N-]S(=O)(=O)c3ccccc3)cc2)cc1

>  <Energy>  (22) 
50.40602778287419

>  <Genealogy>  (22) 
COc1ccc([N-]S(=O)(=O)c2ccc([N-]S(=O)(=O)c3ccccc3)cc2)cc1 (protonated)
COc1ccc([N-]S(=O)(=O)c2ccc([N-]S(=O)(=O)c3ccccc3)cc2)cc1 (3D coordinates assigned)
COc1ccc([N-]S(=O)(=O)c2ccc([N-]S(=O)(=O)c3ccccc3)cc2)cc1 (optimized conformer: 50.40602778287419 kcal/mol)

>  <smiles>  (22) 
COc1ccc(NS(=O)(=O)c2ccc(NS(=O)(=O)c3ccccc3)cc2)cc1

>  <score_type>  (22) 
oracle

>  <origin>  (22) 
adgpu

>  <m_score__min__energy>  (22) 
-10.550000000000001

>  <m_primary>  (22) 
energy

$$$$
22:0
     RDKit          3D

 66 70  0  0  1  0  0  0  0  0999 V2000
   -2.2990   16.2130  -33.8530 C   0  0  0  0  0  0  0  0  0  0  0  0
   -3.6150   15.9650  -34.3620 O   0  0  0  0  0  0  0  0  0  0  0  0
   -4.6640   16.8230  -34.0570 C   0  0  0  0  0  0  0  0  0  0  0  0
   -4.9800   17.8640  -34.9060 C   0  0  0  0  0  0  0  0  0  0  0  0
   -6.0240   18.7190  -34.6020 C   0  0  0  0  0  0  0  0  0  0  0  0
   -6.7770   18.5320  -33.4160 C   0  0  0  0  0  0  0  0  0  0  0  0
   -7.7250   19.4520  -33.0920 N   0  0  0  0  0  0  0  0  0  0  0  0
   -7.7470   20.4790  -32.4230 C   0  0  0  0  0  0  0  0  0  0  0  0
   -8.9240   21.1600  -32.3230 N   0  0  0  0  0  0  0  0  0  0  0  0
   -9.0170   22.2790  -31.6050 C   0  0  0  0  0  0  0  0  0  0  0  0
   -7.9470   22.7610  -30.9600 N   0  0  0  0  0  0  0  0  0  0  0  0
   -6.7840   22.0970  -31.0530 C   0  0  0  0  0  0  0  0  0  0  0  0
   -5.7090   22.6190  -30.3800 C   0  0  0  0  0  0  0  0  0  0  0  0
   -4.5190   21.9400  -30.4750 C   0  0  0  0  0  0  0  0  0  0  0  0
   -3.3810   22.4910  -29.7460 C   0  0  0  0  0  0  0  0  0  0  0  0
   -3.6570   23.0920  -28.5380 C   0  0  0  0  0  0  0  0  0  0  0  0
   -2.6060   23.6160  -27.8370 C   0  0  0  0  0  0  0  0  0  0  0  0
   -1.3150   23.5460  -28.3190 C   0  0  0  0  0  0  0  0  0  0  0  0
   -0.0560   24.2510  -27.3310 S   0  0  0  0  0  0  0  0  0  0  0  0
    1.0670   24.6780  -28.2130 O   0  0  0  0  0  0  0  0  0  0  0  0
    0.4910   23.2340  -26.3470 O   0  0  0  0  0  0  0  0  0  0  0  0
   -0.5770   25.6070  -26.4380 N   0  0  0  0  0  0  0  0  0  0  0  0
   -1.5670   25.3330  -25.4420 C   0  0  0  0  0  0  0  0  0  0  0  0
   -1.5950   26.4840  -24.4690 C   0  0  0  0  0  0  0  0  0  0  0  0
   -0.7890   27.5900  -24.8730 N   0  0  0  0  0  0  0  0  0  0  0  0
    0.5260   27.6070  -24.3050 C   0  0  0  0  0  0  0  0  0  0  0  0
   -0.8610   27.9540  -26.2480 C   0  0  0  0  0  0  0  0  0  0  0  0
   -0.8310   26.7840  -27.2090 C   0  0  0  0  0  0  0  0  0  0  0  0
   -1.0400   22.9410  -29.5310 C   0  0  0  0  0  0  0  0  0  0  0  0
   -2.1020   22.4140  -30.2370 C   0  0  0  0  0  0  0  0  0  0  0  0
   -4.3130   20.7970  -31.1770 C   0  0  0  0  0  0  0  0  0  0  0  0
   -5.4290   20.2790  -31.8600 C   0  0  0  0  0  0  0  0  0  0  0  0
   -6.6230   20.9320  -31.7820 C   0  0  0  0  0  0  0  0  0  0  0  0
   -6.4310   17.4550  -32.5620 C   0  0  0  0  0  0  0  0  0  0  0  0
   -5.3780   16.6170  -32.8960 C   0  0  0  0  0  0  0  0  0  0  0  0
   -5.0150   15.5610  -32.0880 O   0  0  0  0  0  0  0  0  0  0  0  0
   -4.9320   14.2170  -32.4850 C   0  0  0  0  0  0  0  0  0  0  0  0
   -2.3243   16.2082  -32.7533 H   0  0  0  0  0  0  0  0  0  0  0  0
   -1.6148   15.4280  -34.2074 H   0  0  0  0  0  0  0  0  0  0  0  0
   -1.9475   17.1932  -34.2074 H   0  0  0  0  0  0  0  0  0  0  0  0
   -4.3994   18.0145  -35.8281 H   0  0  0  0  0  0  0  0  0  0  0  0
   -6.2706   19.5468  -35.2831 H   0  0  0  0  0  0  0  0  0  0  0  0
   -9.9784   22.8098  -31.5419 H   0  0  0  0  0  0  0  0  0  0  0  0
   -8.0790   23.6380  -30.4150 H   0  0  0  0  0  0  0  0  0  0  0  0
   -5.7963   23.5426  -29.7890 H   0  0  0  0  0  0  0  0  0  0  0  0
   -4.6852   23.1485  -28.1511 H   0  0  0  0  0  0  0  0  0  0  0  0
   -2.7938   24.1033  -26.8689 H   0  0  0  0  0  0  0  0  0  0  0  0
   -2.5528   25.2250  -25.9180 H   0  0  0  0  0  0  0  0  0  0  0  0
   -1.3240   24.3986  -24.9149 H   0  0  0  0  0  0  0  0  0  0  0  0
   -2.6345   26.8292  -24.3677 H   0  0  0  0  0  0  0  0  0  0  0  0
   -1.1840   26.1141  -23.5181 H   0  0  0  0  0  0  0  0  0  0  0  0
    0.4514   27.6060  -23.2075 H   0  0  0  0  0  0  0  0  0  0  0  0
    1.0798   26.7159  -24.6357 H   0  0  0  0  0  0  0  0  0  0  0  0
    1.0566   28.5121  -24.6357 H   0  0  0  0  0  0  0  0  0  0  0  0
   -1.7984   28.5067  -26.4086 H   0  0  0  0  0  0  0  0  0  0  0  0
    0.0347   28.5563  -26.4598 H   0  0  0  0  0  0  0  0  0  0  0  0
   -1.7989   26.6950  -27.7241 H   0  0  0  0  0  0  0  0  0  0  0  0
   -0.0509   26.9261  -27.9714 H   0  0  0  0  0  0  0  0  0  0  0  0
   -0.0122   22.8818  -29.9185 H   0  0  0  0  0  0  0  0  0  0  0  0
   -1.9210   21.9258  -31.2060 H   0  0  0  0  0  0  0  0  0  0  0  0
   -3.3303   20.3039  -31.2102 H   0  0  0  0  0  0  0  0  0  0  0  0
   -5.3387   19.3558  -32.4513 H   0  0  0  0  0  0  0  0  0  0  0  0
   -6.9975   17.2841  -31.6347 H   0  0  0  0  0  0  0  0  0  0  0  0
   -4.8922   13.5733  -31.5939 H   0  0  0  0  0  0  0  0  0  0  0  0
   -5.8158   13.9570  -33.0861 H   0  0  0  0  0  0  0  0  0  0  0  0
   -4.0229   14.0677  -33.0861 H   0  0  0  0  0  0  0  0  0  0  0  0
  1  2  1  0
  2  3  1  0
  3  4  2  0
  4  5  1  0
  5  6  2  0
  6  7  1  0
  7  8  2  0
  8  9  1  0
  9 10  2  0
 10 11  1  0
 11 12  1  0
 12 13  2  0
 13 14  1  0
 14 15  1  0
 15 16  2  0
 16 17  1  0
 17 18  2  0
 18 19  1  0
 19 20  2  0
 19 21  2  0
 19 22  1  0
 22 23  1  0
 23 24  1  0
 24 25  1  0
 25 26  1  0
 25 27  1  0
 27 28  1  0
 18 29  1  0
 29 30  2  0
 14 31  2  0
 31 32  1  0
 32 33  2  0
  6 34  1  0
 34 35  2  0
 35 36  1  0
 36 37  1  0
 35  3  1  0
 33  8  1  0
 33 12  1  0
 30 15  1  0
 28 22  1  0
  1 38  1  0
  1 39  1  0
  1 40  1  0
  4 41  1  0
  5 42  1  0
 10 43  1  0
 11 44  1  0
 13 45  1  0
 16 46  1  0
 17 47  1  0
 23 48  1  0
 23 49  1  0
 24 50  1  0
 24 51  1  0
 26 52  1  0
 26 53  1  0
 26 54  1  0
 27 55  1  0
 27 56  1  0
 28 57  1  0
 28 58  1  0
 29 59  1  0
 30 60  1  0
 31 61  1  0
 32 62  1  0
 34 63  1  0
 37 64  1  0
 37 65  1  0
 37 66  1  0
M  END
>  <smiles>  (23) 
COc1ccc(N=c2nc[nH]c3cc(-c4ccc(S(=O)(=O)N5CCN(C)CC5)cc4)ccc23)cc1OC

>  <score_type>  (23) 
oracle

>  <origin>  (23) 
adgpu

>  <m_score__min__energy>  (23) 
-10.529999999999999

>  <m_primary>  (23) 
energy

$$$$
23:0
     RDKit          3D

 47 50  0  0  0  0  0  0  0  0999 V2000
   -1.2020   26.3500  -28.9460 O   0  0  0  0  0  0  0  0  0  0  0  0
   -1.1000   25.1070  -28.7760 C   0  0  0  0  0  0  0  0  0  0  0  0
    0.2040   24.5420  -28.5880 N   0  0  0  0  0  0  0  0  0  0  0  0
    0.5960   23.7100  -27.4530 C   0  0  0  0  0  0  0  0  0  0  0  0
   -0.1480   22.4090  -27.5120 C   0  0  0  0  0  0  0  0  0  0  0  0
   -0.8330   21.9460  -26.3780 C   0  0  0  0  0  0  0  0  0  0  0  0
   -1.5230   20.7310  -26.4180 C   0  0  0  0  0  0  0  0  0  0  0  0
   -1.5240   19.9660  -27.5860 C   0  0  0  0  0  0  0  0  0  0  0  0
   -0.8330   20.4130  -28.7160 C   0  0  0  0  0  0  0  0  0  0  0  0
   -0.1430   21.6290  -28.6810 C   0  0  0  0  0  0  0  0  0  0  0  0
   -2.3230   24.2800  -28.7520 C   0  0  0  0  0  0  0  0  0  0  0  0
   -3.0870   24.1810  -27.5790 C   0  0  0  0  0  0  0  0  0  0  0  0
   -4.2380   23.3890  -27.5520 C   0  0  0  0  0  0  0  0  0  0  0  0
   -4.6360   22.6900  -28.6950 C   0  0  0  0  0  0  0  0  0  0  0  0
   -3.8720   22.7670  -29.8670 C   0  0  0  0  0  0  0  0  0  0  0  0
   -4.3870   21.9170  -31.3210 S   0  0  0  0  0  0  0  0  0  0  0  0
   -4.0390   20.4600  -31.2000 O   0  0  0  0  0  0  0  0  0  0  0  0
   -3.6810   22.4770  -32.5230 O   0  0  0  0  0  0  0  0  0  0  0  0
   -6.1070   22.0560  -31.5080 N   0  0  0  0  0  0  0  0  0  0  0  0
   -6.8220   23.3300  -31.4840 C   0  0  0  0  0  0  0  0  0  0  0  0
   -8.3100   22.9880  -31.7430 C   0  0  0  0  0  0  0  0  0  0  0  0
   -8.2990   21.5090  -31.9160 C   0  0  0  0  0  0  0  0  0  0  0  0
   -9.3780   20.6720  -32.2040 C   0  0  0  0  0  0  0  0  0  0  0  0
   -9.1350   19.3000  -32.3740 C   0  0  0  0  0  0  0  0  0  0  0  0
   -7.8260   18.7940  -32.2630 C   0  0  0  0  0  0  0  0  0  0  0  0
   -6.7570   19.6550  -31.9710 C   0  0  0  0  0  0  0  0  0  0  0  0
   -7.0290   21.0160  -31.7900 C   0  0  0  0  0  0  0  0  0  0  0  0
   -2.7030   23.5380  -29.8820 C   0  0  0  0  0  0  0  0  0  0  0  0
    1.6781   23.5168  -27.4954 H   0  0  0  0  0  0  0  0  0  0  0  0
    0.3551   24.2301  -26.5141 H   0  0  0  0  0  0  0  0  0  0  0  0
   -0.8269   22.5420  -25.4534 H   0  0  0  0  0  0  0  0  0  0  0  0
   -2.0655   20.3774  -25.5288 H   0  0  0  0  0  0  0  0  0  0  0  0
   -2.0689   19.0109  -27.6170 H   0  0  0  0  0  0  0  0  0  0  0  0
   -0.8320   19.8073  -29.6342 H   0  0  0  0  0  0  0  0  0  0  0  0
    0.4045   21.9754  -29.5699 H   0  0  0  0  0  0  0  0  0  0  0  0
   -2.7784   24.7293  -26.6767 H   0  0  0  0  0  0  0  0  0  0  0  0
   -4.8321   23.3155  -26.6291 H   0  0  0  0  0  0  0  0  0  0  0  0
   -5.5502   22.0786  -28.6744 H   0  0  0  0  0  0  0  0  0  0  0  0
   -6.7062   23.8151  -30.5036 H   0  0  0  0  0  0  0  0  0  0  0  0
   -6.4307   24.0265  -32.2402 H   0  0  0  0  0  0  0  0  0  0  0  0
   -8.9357   23.2795  -30.8866 H   0  0  0  0  0  0  0  0  0  0  0  0
   -8.7279   23.5189  -32.6111 H   0  0  0  0  0  0  0  0  0  0  0  0
  -10.3961   21.0784  -32.2957 H   0  0  0  0  0  0  0  0  0  0  0  0
   -9.9697   18.6183  -32.5946 H   0  0  0  0  0  0  0  0  0  0  0  0
   -7.6403   17.7192  -32.4058 H   0  0  0  0  0  0  0  0  0  0  0  0
   -5.7302   19.2696  -31.8864 H   0  0  0  0  0  0  0  0  0  0  0  0
   -2.0773   23.5626  -30.7864 H   0  0  0  0  0  0  0  0  0  0  0  0
  1  2  2  0
  2  3  1  0
  3  4  1  0
  4  5  1  0
  5  6  2  0
  6  7  1  0
  7  8  2  0
  8  9  1  0
  9 10  2  0
  2 11  1  0
 11 12  2  0
 12 13  1  0
 13 14  2  0
 14 15  1  0
 15 16  1  0
 16 17  2  0
 16 18  2  0
 16 19  1  0
 19 20  1  0
 20 21  1  0
 21 22  1  0
 22 23  2  0
 23 24  1  0
 24 25  2  0
 25 26  1  0
 26 27  2  0
 15 28  2  0
 10  5  1  0
 28 11  1  0
 27 19  1  0
 27 22  1  0
  4 29  1  0
  4 30  1  0
  6 31  1  0
  7 32  1  0
  8 33  1  0
  9 34  1  0
 10 35  1  0
 12 36  1  0
 13 37  1  0
 14 38  1  0
 20 39  1  0
 20 40  1  0
 21 41  1  0
 21 42  1  0
 23 43  1  0
 24 44  1  0
 25 45  1  0
 26 46  1  0
 28 47  1  0
M  CHG  1   3  -1
M  END
>  <UniqueID>  (24) 
23

>  <SMILES>  (24) 
O=C([N-]Cc1ccccc1)c1cccc(S(=O)(=O)N2CCc3ccccc32)c1

>  <Energy>  (24) 
67.64474496388547

>  <Genealogy>  (24) 
O=C([N-]Cc1ccccc1)c1cccc(S(=O)(=O)N2CCc3ccccc32)c1 (protonated)
O=C([N-]Cc1ccccc1)c1cccc(S(=O)(=O)N2CCc3ccccc32)c1 (3D coordinates assigned)
O=C([N-]Cc1ccccc1)c1cccc(S(=O)(=O)N2CCc3ccccc32)c1 (nonaromatic ring conformer: 67.64474496388547 kcal/mol)

>  <smiles>  (24) 
O=C(NCc1ccccc1)c1cccc(S(=O)(=O)N2CCc3ccccc32)c1

>  <score_type>  (24) 
oracle

>  <origin>  (24) 
adgpu

>  <m_score__min__energy>  (24) 
-11.02

>  <m_primary>  (24) 
energy

$$$$
24:0
     RDKit          3D

 18 18  0  0  0  0  0  0  0  0999 V2000
   -5.2260   20.7940  -33.0950 C   0  0  0  0  0  0  0  0  0  0  0  0
   -6.5930   20.2720  -32.7030 C   0  0  0  0  0  0  0  0  0  0  0  0
   -7.5650   21.1710  -32.2050 C   0  0  0  0  0  0  0  0  0  0  0  0
   -7.2310   23.0480  -31.9660 Br  0  0  0  0  0  0  0  0  0  0  0  0
   -8.8240   20.6920  -31.8470 C   0  0  0  0  0  0  0  0  0  0  0  0
   -9.1130   19.3390  -31.9670 C   0  0  0  0  0  0  0  0  0  0  0  0
   -8.1300   18.4660  -32.4250 C   0  0  0  0  0  0  0  0  0  0  0  0
   -6.8840   18.9230  -32.7620 N   0  0  0  0  0  0  0  0  0  0  0  0
   -5.8850   17.9430  -33.2120 C   0  0  0  0  0  0  0  0  0  0  0  0
   -4.6444   21.0161  -32.1881 H   0  0  0  0  0  0  0  0  0  0  0  0
   -4.7001   20.0334  -33.6908 H   0  0  0  0  0  0  0  0  0  0  0  0
   -5.3409   21.7115  -33.6908 H   0  0  0  0  0  0  0  0  0  0  0  0
   -9.5892   21.3861  -31.4692 H   0  0  0  0  0  0  0  0  0  0  0  0
  -10.1111   18.9599  -31.7022 H   0  0  0  0  0  0  0  0  0  0  0  0
   -8.3575   17.3938  -32.5175 H   0  0  0  0  0  0  0  0  0  0  0  0
   -5.4092   17.4762  -32.3369 H   0  0  0  0  0  0  0  0  0  0  0  0
   -6.3781   17.1686  -33.8179 H   0  0  0  0  0  0  0  0  0  0  0  0
   -5.1202   18.4509  -33.8179 H   0  0  0  0  0  0  0  0  0  0  0  0
  1  2  1  0
  2  3  2  0
  3  4  1  0
  3  5  1  0
  5  6  2  0
  6  7  1  0
  7  8  2  0
  8  9  1  0
  8  2  1  0
  1 10  1  0
  1 11  1  0
  1 12  1  0
  5 13  1  0
  6 14  1  0
  7 15  1  0
  9 16  1  0
  9 17  1  0
  9 18  1  0
M  CHG  1   8   1
M  END
>  <UniqueID>  (25) 
24

>  <SMILES>  (25) 
Cc1c(Br)ccc[n+]1C

>  <Energy>  (25) 
20.883109725623253

>  <Genealogy>  (25) 
Cc1c(Br)ccc[n+]1C (3D coordinates assigned)
Cc1c(Br)ccc[n+]1C (optimized conformer: 20.883109725623253 kcal/mol)

>  <smiles>  (25) 
Cc1c(Br)ccc[n+]1C

>  <score_type>  (25) 
oracle

>  <origin>  (25) 
adgpu

>  <m_score__min__energy>  (25) 
-4.2800000000000002

>  <m_primary>  (25) 
energy

$$$$
25:0
     RDKit          3D

 43 45  0  0  0  0  0  0  0  0999 V2000
   -3.1380   22.2230  -31.3790 C   0  0  0  0  0  0  0  0  0  0  0  0
   -2.6870   22.7430  -30.0400 C   0  0  0  0  0  0  0  0  0  0  0  0
   -2.0200   21.8660  -29.1680 C   0  0  0  0  0  0  0  0  0  0  0  0
   -1.6400   22.2860  -27.8910 C   0  0  0  0  0  0  0  0  0  0  0  0
   -1.9240   23.5840  -27.4690 C   0  0  0  0  0  0  0  0  0  0  0  0
   -2.5680   24.4740  -28.3310 C   0  0  0  0  0  0  0  0  0  0  0  0
   -2.9200   24.0810  -29.6300 C   0  0  0  0  0  0  0  0  0  0  0  0
   -3.5440   25.0520  -30.4820 N   0  0  0  0  0  0  0  0  0  0  0  0
   -4.9530   25.2920  -30.5970 C   0  0  0  0  0  0  0  0  0  0  0  0
   -5.3790   26.4650  -30.4270 O   0  0  0  0  0  0  0  0  0  0  0  0
   -5.9140   24.2150  -30.9360 C   0  0  0  0  0  0  0  0  0  0  0  0
   -6.7250   23.6590  -29.9330 C   0  0  0  0  0  0  0  0  0  0  0  0
   -7.6270   22.6360  -30.2360 C   0  0  0  0  0  0  0  0  0  0  0  0
   -7.7450   22.1660  -31.5500 C   0  0  0  0  0  0  0  0  0  0  0  0
   -8.8660   20.8580  -31.9160 S   0  0  0  0  0  0  0  0  0  0  0  0
  -10.1980   21.4300  -32.3160 O   0  0  0  0  0  0  0  0  0  0  0  0
   -9.0400   20.0050  -30.6900 O   0  0  0  0  0  0  0  0  0  0  0  0
   -8.2200   19.9090  -33.2150 N   0  0  0  0  0  0  0  0  0  0  0  0
   -7.1610   18.9460  -33.0630 C   0  0  0  0  0  0  0  0  0  0  0  0
   -7.1510   18.0060  -32.0130 C   0  0  0  0  0  0  0  0  0  0  0  0
   -6.1050   17.0850  -31.8990 C   0  0  0  0  0  0  0  0  0  0  0  0
   -5.0600   17.0920  -32.8260 C   0  0  0  0  0  0  0  0  0  0  0  0
   -5.0590   18.0190  -33.8700 C   0  0  0  0  0  0  0  0  0  0  0  0
   -6.1040   18.9410  -33.9890 C   0  0  0  0  0  0  0  0  0  0  0  0
   -6.9500   22.7250  -32.5580 C   0  0  0  0  0  0  0  0  0  0  0  0
   -6.0480   23.7500  -32.2560 C   0  0  0  0  0  0  0  0  0  0  0  0
   -3.8522   21.3996  -31.2309 H   0  0  0  0  0  0  0  0  0  0  0  0
   -3.6242   23.0332  -31.9422 H   0  0  0  0  0  0  0  0  0  0  0  0
   -2.2672   21.8563  -31.9422 H   0  0  0  0  0  0  0  0  0  0  0  0
   -1.7951   20.8397  -29.4938 H   0  0  0  0  0  0  0  0  0  0  0  0
   -1.1161   21.5917  -27.2176 H   0  0  0  0  0  0  0  0  0  0  0  0
   -1.6406   23.9072  -26.4565 H   0  0  0  0  0  0  0  0  0  0  0  0
   -2.8013   25.4927  -27.9878 H   0  0  0  0  0  0  0  0  0  0  0  0
   -6.6494   24.0319  -28.9009 H   0  0  0  0  0  0  0  0  0  0  0  0
   -8.2467   22.1981  -29.4396 H   0  0  0  0  0  0  0  0  0  0  0  0
   -8.6320   20.0630  -34.1630 H   0  0  0  0  0  0  0  0  0  0  0  0
   -7.9704   17.9968  -31.2792 H   0  0  0  0  0  0  0  0  0  0  0  0
   -6.1050   16.3534  -31.0776 H   0  0  0  0  0  0  0  0  0  0  0  0
   -4.2378   16.3671  -32.7334 H   0  0  0  0  0  0  0  0  0  0  0  0
   -4.2357   18.0242  -34.5995 H   0  0  0  0  0  0  0  0  0  0  0  0
   -6.0984   19.6682  -34.8143 H   0  0  0  0  0  0  0  0  0  0  0  0
   -7.0353   22.3566  -33.5910 H   0  0  0  0  0  0  0  0  0  0  0  0
   -5.4392   24.1955  -33.0566 H   0  0  0  0  0  0  0  0  0  0  0  0
  1  2  1  0
  2  3  2  0
  3  4  1  0
  4  5  2  0
  5  6  1  0
  6  7  2  0
  7  8  1  0
  8  9  1  0
  9 10  2  0
  9 11  1  0
 11 12  2  0
 12 13  1  0
 13 14  2  0
 14 15  1  0
 15 16  2  0
 15 17  2  0
 15 18  1  0
 18 19  1  0
 19 20  2  0
 20 21  1  0
 21 22  2  0
 22 23  1  0
 23 24  2  0
 14 25  1  0
 25 26  2  0
  7  2  1  0
 26 11  1  0
 24 19  1  0
  1 27  1  0
  1 28  1  0
  1 29  1  0
  3 30  1  0
  4 31  1  0
  5 32  1  0
  6 33  1  0
 12 34  1  0
 13 35  1  0
 18 36  1  0
 20 37  1  0
 21 38  1  0
 22 39  1  0
 23 40  1  0
 24 41  1  0
 25 42  1  0
 26 43  1  0
M  CHG  1   8  -1
M  END
>  <UniqueID>  (26) 
25

>  <SMILES>  (26) 
Cc1ccccc1[N-]C(=O)c1ccc(S(=O)(=O)Nc2ccccc2)cc1

>  <Energy>  (26) 
58.85167022049012

>  <Genealogy>  (26) 
Cc1ccccc1[N-]C(=O)c1ccc(S(=O)(=O)Nc2ccccc2)cc1 (protonated)
Cc1ccccc1[N-]C(=O)c1ccc(S(=O)(=O)Nc2ccccc2)cc1 (3D coordinates assigned)
Cc1ccccc1[N-]C(=O)c1ccc(S(=O)(=O)Nc2ccccc2)cc1 (optimized conformer: 58.85167022049012 kcal/mol)

>  <smiles>  (26) 
Cc1ccccc1NC(=O)c1ccc(S(=O)(=O)Nc2ccccc2)cc1

>  <score_type>  (26) 
oracle

>  <origin>  (26) 
adgpu

>  <m_score__min__energy>  (26) 
-11.69

>  <m_primary>  (26) 
energy

$$$$
26:0
     RDKit          3D

 49 52  0  0  0  0  0  0  0  0999 V2000
   -7.7850   18.2460  -31.9440 C   0  0  0  0  0  0  0  0  0  0  0  0
   -6.4830   18.3080  -31.3710 O   0  0  0  0  0  0  0  0  0  0  0  0
   -5.4200   19.0520  -31.9020 C   0  0  0  0  0  0  0  0  0  0  0  0
   -4.7620   18.6880  -33.0930 C   0  0  0  0  0  0  0  0  0  0  0  0
   -3.7180   19.4730  -33.5880 C   0  0  0  0  0  0  0  0  0  0  0  0
   -3.3180   20.6210  -32.9030 C   0  0  0  0  0  0  0  0  0  0  0  0
   -3.9550   20.9890  -31.7110 C   0  0  0  0  0  0  0  0  0  0  0  0
   -3.5770   22.2360  -31.0180 C   0  0  0  0  0  0  0  0  0  0  0  0
   -2.4370   22.4070  -30.2280 C   0  0  0  0  0  0  0  0  0  0  0  0
   -1.4140   21.3930  -29.8940 C   0  0  0  0  0  0  0  0  0  0  0  0
   -0.3790   21.3070  -30.6100 O   0  0  0  0  0  0  0  0  0  0  0  0
   -1.5860   20.4550  -28.7630 C   0  0  0  0  0  0  0  0  0  0  0  0
   -0.6030   19.4870  -28.4940 C   0  0  0  0  0  0  0  0  0  0  0  0
   -0.7800   18.5750  -27.4490 C   0  0  0  0  0  0  0  0  0  0  0  0
   -1.9310   18.6290  -26.6580 C   0  0  0  0  0  0  0  0  0  0  0  0
   -2.9030   19.6000  -26.9050 C   0  0  0  0  0  0  0  0  0  0  0  0
   -2.7310   20.5150  -27.9490 C   0  0  0  0  0  0  0  0  0  0  0  0
   -2.4230   23.7480  -29.8770 C   0  0  0  0  0  0  0  0  0  0  0  0
   -1.4870   24.4070  -29.0830 O   0  0  0  0  0  0  0  0  0  0  0  0
   -3.5260   24.3290  -30.4550 C   0  0  0  0  0  0  0  0  0  0  0  0
   -3.8660   25.6730  -30.3540 O   0  0  0  0  0  0  0  0  0  0  0  0
   -4.2320   23.4160  -31.1540 N   0  0  0  0  0  0  0  0  0  0  0  0
   -5.4170   23.6900  -31.9750 C   0  0  0  0  0  0  0  0  0  0  0  0
   -6.6200   22.9410  -31.4630 C   0  0  0  0  0  0  0  0  0  0  0  0
   -7.4420   22.2240  -32.3450 C   0  0  0  0  0  0  0  0  0  0  0  0
   -8.5600   21.5420  -31.8630 C   0  0  0  0  0  0  0  0  0  0  0  0
   -8.8580   21.5950  -30.5000 C   0  0  0  0  0  0  0  0  0  0  0  0
   -8.0660   22.3110  -29.6580 N   0  0  0  0  0  0  0  0  0  0  0  0
   -6.9700   22.9810  -30.1030 C   0  0  0  0  0  0  0  0  0  0  0  0
   -5.0060   20.2010  -31.2170 C   0  0  0  0  0  0  0  0  0  0  0  0
   -8.5372   18.2102  -31.1421 H   0  0  0  0  0  0  0  0  0  0  0  0
   -7.9546   19.1371  -32.5663 H   0  0  0  0  0  0  0  0  0  0  0  0
   -7.8691   17.3428  -32.5663 H   0  0  0  0  0  0  0  0  0  0  0  0
   -5.0714   17.7823  -33.6352 H   0  0  0  0  0  0  0  0  0  0  0  0
   -3.2098   19.1854  -34.5203 H   0  0  0  0  0  0  0  0  0  0  0  0
   -2.4995   21.2392  -33.3005 H   0  0  0  0  0  0  0  0  0  0  0  0
    0.3089   19.4468  -29.1079 H   0  0  0  0  0  0  0  0  0  0  0  0
   -0.0118   17.8135  -27.2490 H   0  0  0  0  0  0  0  0  0  0  0  0
   -2.0710   17.9062  -25.8407 H   0  0  0  0  0  0  0  0  0  0  0  0
   -3.8055   19.6457  -26.2778 H   0  0  0  0  0  0  0  0  0  0  0  0
   -3.4947   21.2847  -28.1340 H   0  0  0  0  0  0  0  0  0  0  0  0
   -1.7050   24.7060  -28.1410 H   0  0  0  0  0  0  0  0  0  0  0  0
   -5.6289   24.7691  -31.9502 H   0  0  0  0  0  0  0  0  0  0  0  0
   -5.2122   23.3584  -33.0036 H   0  0  0  0  0  0  0  0  0  0  0  0
   -7.2048   22.1993  -33.4188 H   0  0  0  0  0  0  0  0  0  0  0  0
   -9.1999   20.9686  -32.5498 H   0  0  0  0  0  0  0  0  0  0  0  0
   -9.7336   21.0574  -30.1072 H   0  0  0  0  0  0  0  0  0  0  0  0
   -6.3549   23.5566  -29.3956 H   0  0  0  0  0  0  0  0  0  0  0  0
   -5.5096   20.4888  -30.2824 H   0  0  0  0  0  0  0  0  0  0  0  0
  1  2  1  0
  2  3  1  0
  3  4  2  0
  4  5  1  0
  5  6  2  0
  6  7  1  0
  7  8  1  0
  8  9  2  0
  9 10  1  0
 10 11  2  0
 10 12  1  0
 12 13  2  0
 13 14  1  0
 14 15  2  0
 15 16  1  0
 16 17  2  0
  9 18  1  0
 18 19  1  0
 18 20  2  0
 20 21  1  0
 20 22  1  0
 22 23  1  0
 23 24  1  0
 24 25  2  0
 25 26  1  0
 26 27  2  0
 27 28  1  0
 28 29  2  0
  7 30  2  0
 30  3  1  0
 22  8  1  0
 29 24  1  0
 17 12  1  0
  1 31  1  0
  1 32  1  0
  1 33  1  0
  4 34  1  0
  5 35  1  0
  6 36  1  0
 13 37  1  0
 14 38  1  0
 15 39  1  0
 16 40  1  0
 17 41  1  0
 19 42  1  0
 23 43  1  0
 23 44  1  0
 25 45  1  0
 26 46  1  0
 27 47  1  0
 29 48  1  0
 30 49  1  0
M  CHG  1  21  -1
M  END
>  <UniqueID>  (27) 
26

>  <SMILES>  (27) 
COc1cccc(-c2c(C(=O)c3ccccc3)c(O)c([O-])n2Cc2cccnc2)c1

>  <Energy>  (27) 
91.3456200271695

>  <Genealogy>  (27) 
COc1cccc(-c2c(C(=O)c3ccccc3)c(O)c([O-])n2Cc2cccnc2)c1 (protonated)
COc1cccc(-c2c(C(=O)c3ccccc3)c(O)c([O-])n2Cc2cccnc2)c1 (3D coordinates assigned)
COc1cccc(-c2c(C(=O)c3ccccc3)c(O)c([O-])n2Cc2cccnc2)c1 (optimized conformer: 91.3456200271695 kcal/mol)

>  <smiles>  (27) 
COc1cccc(-c2c(C(=O)c3ccccc3)c(O)c(O)n2Cc2cccnc2)c1

>  <score_type>  (27) 
oracle

>  <origin>  (27) 
adgpu

>  <m_score__min__energy>  (27) 
-11.859999999999999

>  <m_primary>  (27) 
energy

$$$$
27:0
     RDKit          3D

 56 59  0  0  0  0  0  0  0  0999 V2000
   -0.1080   21.3000  -27.5780 O   0  0  0  0  0  0  0  0  0  0  0  0
   -0.9890   21.1430  -28.4660 C   0  0  0  0  0  0  0  0  0  0  0  0
   -1.2970   19.8250  -28.9460 N   0  0  0  0  0  0  0  0  0  0  0  0
   -0.4030   18.7040  -28.8490 C   0  0  0  0  0  0  0  0  0  0  0  0
    0.1900   18.1950  -30.0140 C   0  0  0  0  0  0  0  0  0  0  0  0
    1.0880   17.1280  -29.9420 C   0  0  0  0  0  0  0  0  0  0  0  0
    1.4340   16.5740  -28.7070 C   0  0  0  0  0  0  0  0  0  0  0  0
    2.3430   15.5080  -28.6790 O   0  0  0  0  0  0  0  0  0  0  0  0
    2.3670   14.4910  -27.7120 C   0  0  0  0  0  0  0  0  0  0  0  0
    3.5720   13.9840  -27.1950 C   0  0  0  0  0  0  0  0  0  0  0  0
    3.5540   12.9530  -26.2540 C   0  0  0  0  0  0  0  0  0  0  0  0
    2.3400   12.4130  -25.8270 C   0  0  0  0  0  0  0  0  0  0  0  0
    1.1250   12.8960  -26.3450 C   0  0  0  0  0  0  0  0  0  0  0  0
   -0.1740   12.3130  -25.8480 C   0  0  0  0  0  0  0  0  0  0  0  0
   -0.7360   11.5350  -26.8440 F   0  0  0  0  0  0  0  0  0  0  0  0
   -1.0500   13.3340  -25.5270 F   0  0  0  0  0  0  0  0  0  0  0  0
    0.0150   11.5290  -24.7240 F   0  0  0  0  0  0  0  0  0  0  0  0
    1.1510   13.9410  -27.2880 C   0  0  0  0  0  0  0  0  0  0  0  0
    0.8380   17.0740  -27.5340 C   0  0  0  0  0  0  0  0  0  0  0  0
    1.1060   16.5130  -26.3290 F   0  0  0  0  0  0  0  0  0  0  0  0
   -0.0660   18.1390  -27.6060 C   0  0  0  0  0  0  0  0  0  0  0  0
   -1.7390   22.3180  -28.9660 C   0  0  0  0  0  0  0  0  0  0  0  0
   -1.2260   23.6130  -28.8000 C   0  0  0  0  0  0  0  0  0  0  0  0
   -1.9440   24.7180  -29.2580 C   0  0  0  0  0  0  0  0  0  0  0  0
   -3.1800   24.5470  -29.8880 C   0  0  0  0  0  0  0  0  0  0  0  0
   -3.8600   25.6690  -30.3480 O   0  0  0  0  0  0  0  0  0  0  0  0
   -3.7150   23.2550  -30.0640 C   0  0  0  0  0  0  0  0  0  0  0  0
   -5.2680   23.0570  -30.9120 S   0  0  0  0  0  0  0  0  0  0  0  0
   -5.3630   24.1240  -31.9670 O   0  0  0  0  0  0  0  0  0  0  0  0
   -6.3790   23.2690  -29.9200 O   0  0  0  0  0  0  0  0  0  0  0  0
   -5.5340   21.4970  -31.6590 N   0  0  0  0  0  0  0  0  0  0  0  0
   -4.6400   21.2740  -32.8090 C   0  0  0  0  0  0  0  0  0  0  0  0
   -4.8660   19.8650  -33.4040 C   0  0  0  0  0  0  0  0  0  0  0  0
   -6.1010   19.2760  -33.0220 O   0  0  0  0  0  0  0  0  0  0  0  0
   -7.1370   20.2340  -33.0800 C   0  0  0  0  0  0  0  0  0  0  0  0
   -6.9610   21.2530  -31.9470 C   0  0  0  0  0  0  0  0  0  0  0  0
   -2.9710   22.1480  -29.6200 C   0  0  0  0  0  0  0  0  0  0  0  0
   -2.2610   19.6500  -29.3140 H   0  0  0  0  0  0  0  0  0  0  0  0
   -0.0539   18.6392  -30.9903 H   0  0  0  0  0  0  0  0  0  0  0  0
    1.5264   16.7205  -30.8649 H   0  0  0  0  0  0  0  0  0  0  0  0
    4.5321   14.4010  -27.5330 H   0  0  0  0  0  0  0  0  0  0  0  0
    4.4997   12.5650  -25.8478 H   0  0  0  0  0  0  0  0  0  0  0  0
    2.3334   11.6048  -25.0808 H   0  0  0  0  0  0  0  0  0  0  0  0
    0.2062   14.3295  -27.6960 H   0  0  0  0  0  0  0  0  0  0  0  0
   -0.5161   18.5371  -26.6846 H   0  0  0  0  0  0  0  0  0  0  0  0
   -0.2536   23.7578  -28.3067 H   0  0  0  0  0  0  0  0  0  0  0  0
   -1.5349   25.7301  -29.1225 H   0  0  0  0  0  0  0  0  0  0  0  0
   -4.8467   22.0304  -33.5805 H   0  0  0  0  0  0  0  0  0  0  0  0
   -3.5967   21.3543  -32.4699 H   0  0  0  0  0  0  0  0  0  0  0  0
   -4.8430   19.9433  -34.5010 H   0  0  0  0  0  0  0  0  0  0  0  0
   -4.0665   19.2185  -33.0130 H   0  0  0  0  0  0  0  0  0  0  0  0
   -7.1007   20.7540  -34.0487 H   0  0  0  0  0  0  0  0  0  0  0  0
   -8.1078   19.7288  -32.9688 H   0  0  0  0  0  0  0  0  0  0  0  0
   -7.4338   22.2014  -32.2420 H   0  0  0  0  0  0  0  0  0  0  0  0
   -7.4328   20.8471  -31.0400 H   0  0  0  0  0  0  0  0  0  0  0  0
   -3.3594   21.1325  -29.7872 H   0  0  0  0  0  0  0  0  0  0  0  0
  1  2  2  0
  2  3  1  0
  3  4  1  0
  4  5  2  0
  5  6  1  0
  6  7  2  0
  7  8  1  0
  8  9  1  0
  9 10  2  0
 10 11  1  0
 11 12  2  0
 12 13  1  0
 13 14  1  0
 14 15  1  0
 14 16  1  0
 14 17  1  0
 13 18  2  0
  7 19  1  0
 19 20  1  0
 19 21  2  0
  2 22  1  0
 22 23  2  0
 23 24  1  0
 24 25  2  0
 25 26  1  0
 25 27  1  0
 27 28  1  0
 28 29  2  0
 28 30  2  0
 28 31  1  0
 31 32  1  0
 32 33  1  0
 33 34  1  0
 34 35  1  0
 35 36  1  0
 27 37  2  0
 21  4  1  0
 37 22  1  0
 18  9  1  0
 36 31  1  0
  3 38  1  0
  5 39  1  0
  6 40  1  0
 10 41  1  0
 11 42  1  0
 12 43  1  0
 18 44  1  0
 21 45  1  0
 23 46  1  0
 24 47  1  0
 32 48  1  0
 32 49  1  0
 33 50  1  0
 33 51  1  0
 35 52  1  0
 35 53  1  0
 36 54  1  0
 36 55  1  0
 37 56  1  0
M  CHG  1  26  -1
M  END
>  <UniqueID>  (28) 
27

>  <SMILES>  (28) 
O=C(Nc1ccc(Oc2cccc(C(F)(F)F)c2)c(F)c1)c1ccc([O-])c(S(=O)(=O)N2CCOCC2)c1

>  <Energy>  (28) 
86.4917372250036

>  <Genealogy>  (28) 
O=C(Nc1ccc(Oc2cccc(C(F)(F)F)c2)c(F)c1)c1ccc([O-])c(S(=O)(=O)N2CCOCC2)c1 (protonated)
O=C(Nc1ccc(Oc2cccc(C(F)(F)F)c2)c(F)c1)c1ccc([O-])c(S(=O)(=O)N2CCOCC2)c1 (3D coordinates assigned)
O=C(Nc1ccc(Oc2cccc(C(F)(F)F)c2)c(F)c1)c1ccc([O-])c(S(=O)(=O)N2CCOCC2)c1 (nonaromatic ring conformer: 86.4917372250036 kcal/mol)

>  <smiles>  (28) 
O=C(Nc1ccc(Oc2cccc(C(F)(F)F)c2)c(F)c1)c1ccc(O)c(S(=O)(=O)N2CCOCC2)c1

>  <score_type>  (28) 
oracle

>  <origin>  (28) 
adgpu

>  <m_score__min__energy>  (28) 
-11.02

>  <m_primary>  (28) 
energy

$$$$
29:0
     RDKit          3D

 39 40  0  0  0  0  0  0  0  0999 V2000
   -5.1820   20.4920  -32.3870 C   0  0  0  0  0  0  0  0  0  0  0  0
   -6.4410   21.3020  -32.2030 C   0  0  0  0  0  0  0  0  0  0  0  0
   -7.6950   20.6550  -32.1670 C   0  0  0  0  0  0  0  0  0  0  0  0
   -7.8400   18.9090  -32.3530 Cl  0  0  0  0  0  0  0  0  0  0  0  0
   -8.8640   21.3970  -31.9640 C   0  0  0  0  0  0  0  0  0  0  0  0
   -8.7980   22.7790  -31.7830 C   0  0  0  0  0  0  0  0  0  0  0  0
   -7.5640   23.4280  -31.7950 C   0  0  0  0  0  0  0  0  0  0  0  0
   -6.3850   22.7000  -31.9960 C   0  0  0  0  0  0  0  0  0  0  0  0
   -5.1340   23.3860  -31.9580 N   0  0  0  0  0  0  0  0  0  0  0  0
   -4.5860   24.1290  -30.4960 S   0  0  0  0  0  0  0  0  0  0  0  0
   -3.8940   25.4190  -30.8360 O   0  0  0  0  0  0  0  0  0  0  0  0
   -5.7560   24.4510  -29.6100 O   0  0  0  0  0  0  0  0  0  0  0  0
   -3.4530   23.0400  -29.6820 C   0  0  0  0  0  0  0  0  0  0  0  0
   -3.2040   22.9930  -28.3180 C   0  0  0  0  0  0  0  0  0  0  0  0
   -3.8650   23.8240  -27.2570 C   0  0  0  0  0  0  0  0  0  0  0  0
   -2.2130   22.0410  -28.1280 C   0  0  0  0  0  0  0  0  0  0  0  0
   -1.6130   21.6570  -26.8040 C   0  0  0  0  0  0  0  0  0  0  0  0
   -1.7970   21.5650  -29.3240 N   0  0  0  0  0  0  0  0  0  0  0  0
   -0.7390   20.5740  -29.5370 C   0  0  0  0  0  0  0  0  0  0  0  0
   -2.5610   22.1500  -30.2770 C   0  0  0  0  0  0  0  0  0  0  0  0
   -2.3720   21.9190  -31.7500 C   0  0  0  0  0  0  0  0  0  0  0  0
   -4.7695   20.2266  -31.4024 H   0  0  0  0  0  0  0  0  0  0  0  0
   -5.4151   19.5740  -32.9464 H   0  0  0  0  0  0  0  0  0  0  0  0
   -4.4432   21.0846  -32.9464 H   0  0  0  0  0  0  0  0  0  0  0  0
   -9.8393   20.8885  -31.9470 H   0  0  0  0  0  0  0  0  0  0  0  0
   -9.7211   23.3575  -31.6306 H   0  0  0  0  0  0  0  0  0  0  0  0
   -7.5165   24.5168  -31.6459 H   0  0  0  0  0  0  0  0  0  0  0  0
   -3.5701   23.4533  -26.2642 H   0  0  0  0  0  0  0  0  0  0  0  0
   -3.5517   24.8729  -27.3646 H   0  0  0  0  0  0  0  0  0  0  0  0
   -4.9575   23.7547  -27.3646 H   0  0  0  0  0  0  0  0  0  0  0  0
   -2.2359   22.0557  -25.9897 H   0  0  0  0  0  0  0  0  0  0  0  0
   -1.5662   20.5607  -26.7268 H   0  0  0  0  0  0  0  0  0  0  0  0
   -0.5979   22.0737  -26.7268 H   0  0  0  0  0  0  0  0  0  0  0  0
   -0.3642   20.2229  -28.5642 H   0  0  0  0  0  0  0  0  0  0  0  0
   -1.1432   19.7220  -30.1033 H   0  0  0  0  0  0  0  0  0  0  0  0
    0.0847   21.0330  -30.1033 H   0  0  0  0  0  0  0  0  0  0  0  0
   -1.6822   21.0760  -31.9034 H   0  0  0  0  0  0  0  0  0  0  0  0
   -3.3428   21.6872  -32.2123 H   0  0  0  0  0  0  0  0  0  0  0  0
   -1.9526   22.8247  -32.2123 H   0  0  0  0  0  0  0  0  0  0  0  0
  1  2  1  0
  2  3  2  0
  3  4  1  0
  3  5  1  0
  5  6  2  0
  6  7  1  0
  7  8  2  0
  8  9  1  0
  9 10  1  0
 10 11  2  0
 10 12  2  0
 10 13  1  0
 13 14  1  0
 14 15  1  0
 14 16  2  0
 16 17  1  0
 16 18  1  0
 18 19  1  0
 18 20  1  0
 20 21  1  0
  8  2  1  0
 20 13  2  0
  1 22  1  0
  1 23  1  0
  1 24  1  0
  5 25  1  0
  6 26  1  0
  7 27  1  0
 15 28  1  0
 15 29  1  0
 15 30  1  0
 17 31  1  0
 17 32  1  0
 17 33  1  0
 19 34  1  0
 19 35  1  0
 19 36  1  0
 21 37  1  0
 21 38  1  0
 21 39  1  0
M  CHG  1   9  -1
M  END
>  <UniqueID>  (29) 
28

>  <SMILES>  (29) 
Cc1c(Cl)cccc1[N-]S(=O)(=O)c1c(C)c(C)n(C)c1C

>  <Energy>  (29) 
73.33471096606443

>  <Genealogy>  (29) 
Cc1c(Cl)cccc1[N-]S(=O)(=O)c1c(C)c(C)n(C)c1C (protonated)
Cc1c(Cl)cccc1[N-]S(=O)(=O)c1c(C)c(C)n(C)c1C (3D coordinates assigned)
Cc1c(Cl)cccc1[N-]S(=O)(=O)c1c(C)c(C)n(C)c1C (optimized conformer: 73.33471096606443 kcal/mol)

>  <smiles>  (29) 
Cc1c(Cl)cccc1NS(=O)(=O)c1c(C)c(C)n(C)c1C

>  <score_type>  (29) 
oracle

>  <origin>  (29) 
adgpu

>  <m_score__min__energy>  (29) 
-8.7899999999999991

>  <m_primary>  (29) 
energy

$$$$
30:0
     RDKit          3D

 34 35  0  0  0  0  0  0  0  0999 V2000
   -6.9160   22.7710  -31.0960 C   0  0  0  0  0  0  0  0  0  0  0  0
   -6.3480   22.3740  -32.3400 O   0  0  0  0  0  0  0  0  0  0  0  0
   -5.4810   21.2830  -32.5040 C   0  0  0  0  0  0  0  0  0  0  0  0
   -5.7860   20.1980  -33.3420 C   0  0  0  0  0  0  0  0  0  0  0  0
   -4.8810   19.1450  -33.4880 C   0  0  0  0  0  0  0  0  0  0  0  0
   -3.6600   19.1500  -32.7880 C   0  0  0  0  0  0  0  0  0  0  0  0
   -2.7230   18.1120  -32.9160 O   0  0  0  0  0  0  0  0  0  0  0  0
   -1.4940   18.2180  -33.6250 C   0  0  0  0  0  0  0  0  0  0  0  0
   -3.3630   20.2190  -31.9260 C   0  0  0  0  0  0  0  0  0  0  0  0
   -2.1030   20.2190  -31.2370 N   0  0  0  0  0  0  0  0  0  0  0  0
   -1.8570   20.6890  -29.9030 C   0  0  0  0  0  0  0  0  0  0  0  0
   -1.7430   19.8650  -28.9550 O   0  0  0  0  0  0  0  0  0  0  0  0
   -1.6800   22.1380  -29.6480 C   0  0  0  0  0  0  0  0  0  0  0  0
   -0.4970   22.6240  -29.0620 C   0  0  0  0  0  0  0  0  0  0  0  0
   -0.3320   23.9920  -28.8240 C   0  0  0  0  0  0  0  0  0  0  0  0
    0.8470   24.4460  -28.2430 O   0  0  0  0  0  0  0  0  0  0  0  0
   -1.3490   24.8970  -29.1710 C   0  0  0  0  0  0  0  0  0  0  0  0
   -1.2030   26.2650  -28.9420 O   0  0  0  0  0  0  0  0  0  0  0  0
   -2.5270   24.4200  -29.7560 C   0  0  0  0  0  0  0  0  0  0  0  0
   -3.5400   25.3070  -30.1040 O   0  0  0  0  0  0  0  0  0  0  0  0
   -2.6930   23.0520  -29.9940 C   0  0  0  0  0  0  0  0  0  0  0  0
   -4.2690   21.2890  -31.8070 C   0  0  0  0  0  0  0  0  0  0  0  0
   -6.3197   22.3542  -30.2710 H   0  0  0  0  0  0  0  0  0  0  0  0
   -6.9190   23.8689  -31.0280 H   0  0  0  0  0  0  0  0  0  0  0  0
   -7.9481   22.3966  -31.0280 H   0  0  0  0  0  0  0  0  0  0  0  0
   -6.7421   20.1778  -33.8856 H   0  0  0  0  0  0  0  0  0  0  0  0
   -5.1241   18.3050  -34.1553 H   0  0  0  0  0  0  0  0  0  0  0  0
   -0.6624   18.2897  -32.9086 H   0  0  0  0  0  0  0  0  0  0  0  0
   -1.3575   17.3283  -34.2573 H   0  0  0  0  0  0  0  0  0  0  0  0
   -1.5119   19.1179  -34.2573 H   0  0  0  0  0  0  0  0  0  0  0  0
    0.3047   21.9222  -28.7888 H   0  0  0  0  0  0  0  0  0  0  0  0
   -1.9890   26.9030  -28.9740 H   0  0  0  0  0  0  0  0  0  0  0  0
   -3.6226   22.6873  -30.4553 H   0  0  0  0  0  0  0  0  0  0  0  0
   -4.0205   22.1411  -31.1573 H   0  0  0  0  0  0  0  0  0  0  0  0
  1  2  1  0
  2  3  1  0
  3  4  2  0
  4  5  1  0
  5  6  2  0
  6  7  1  0
  7  8  1  0
  6  9  1  0
  9 10  1  0
 10 11  1  0
 11 12  2  0
 11 13  1  0
 13 14  2  0
 14 15  1  0
 15 16  1  0
 15 17  2  0
 17 18  1  0
 17 19  1  0
 19 20  1  0
 19 21  2  0
  9 22  2  0
 22  3  1  0
 21 13  1  0
  1 23  1  0
  1 24  1  0
  1 25  1  0
  4 26  1  0
  5 27  1  0
  8 28  1  0
  8 29  1  0
  8 30  1  0
 14 31  1  0
 18 32  1  0
 21 33  1  0
 22 34  1  0
M  CHG  3  10  -1  16  -1  20  -1
M  END
>  <UniqueID>  (30) 
29

>  <SMILES>  (30) 
COc1ccc(OC)c([N-]C(=O)c2cc([O-])c(O)c([O-])c2)c1

>  <Energy>  (30) 
38.61418135992381

>  <Genealogy>  (30) 
COc1ccc(OC)c([N-]C(=O)c2cc([O-])c(O)c([O-])c2)c1 (protonated)
COc1ccc(OC)c([N-]C(=O)c2cc([O-])c(O)c([O-])c2)c1 (3D coordinates assigned)
COc1ccc(OC)c([N-]C(=O)c2cc([O-])c(O)c([O-])c2)c1 (optimized conformer: 38.61418135992381 kcal/mol)

>  <smiles>  (30) 
COc1ccc(OC)c(NC(=O)c2cc(O)c(O)c(O)c2)c1

>  <score_type>  (30) 
oracle

>  <origin>  (30) 
adgpu

>  <m_score__min__energy>  (30) 
-9.5199999999999996

>  <m_primary>  (30) 
energy

$$$$
31:0
     RDKit          3D

 43 45  0  0  0  0  0  0  0  0999 V2000
   -7.1720   19.2750  -32.7730 C   0  0  0  0  0  0  0  0  0  0  0  0
   -7.3140   20.6980  -32.3210 C   0  0  0  0  0  0  0  0  0  0  0  0
   -8.5710   21.1980  -31.9520 C   0  0  0  0  0  0  0  0  0  0  0  0
   -8.7140   22.5390  -31.5860 C   0  0  0  0  0  0  0  0  0  0  0  0
   -7.6050   23.3890  -31.5890 C   0  0  0  0  0  0  0  0  0  0  0  0
   -6.3410   22.9040  -31.9470 C   0  0  0  0  0  0  0  0  0  0  0  0
   -5.2370   23.8180  -31.9650 N   0  0  0  0  0  0  0  0  0  0  0  0
   -4.5800   24.3920  -30.8260 C   0  0  0  0  0  0  0  0  0  0  0  0
   -4.2460   25.6080  -30.8360 O   0  0  0  0  0  0  0  0  0  0  0  0
   -4.2540   23.5660  -29.6900 N   0  0  0  0  0  0  0  0  0  0  0  0
   -4.0820   22.1160  -29.8560 C   0  0  0  0  0  0  0  0  0  0  0  0
   -2.8890   21.8320  -30.7120 C   0  0  0  0  0  0  0  0  0  0  0  0
   -1.5590   21.9270  -30.3480 C   0  0  0  0  0  0  0  0  0  0  0  0
   -0.7890   21.6660  -31.4230 N   0  0  0  0  0  0  0  0  0  0  0  0
   -1.5950   21.4030  -32.4400 N   0  0  0  0  0  0  0  0  0  0  0  0
   -1.1340   21.1510  -33.7980 C   0  0  0  0  0  0  0  0  0  0  0  0
   -2.8800   21.5100  -32.0530 C   0  0  0  0  0  0  0  0  0  0  0  0
   -4.1130   24.1660  -28.3570 C   0  0  0  0  0  0  0  0  0  0  0  0
   -2.7070   24.6320  -28.1520 C   0  0  0  0  0  0  0  0  0  0  0  0
   -1.9000   24.3120  -27.0790 C   0  0  0  0  0  0  0  0  0  0  0  0
   -0.7160   24.9820  -27.2950 C   0  0  0  0  0  0  0  0  0  0  0  0
   -0.8740   25.6710  -28.4810 C   0  0  0  0  0  0  0  0  0  0  0  0
   -2.0740   25.4440  -28.9670 O   0  0  0  0  0  0  0  0  0  0  0  0
   -6.2050   21.5600  -32.3390 C   0  0  0  0  0  0  0  0  0  0  0  0
   -7.1062   18.6161  -31.8946 H   0  0  0  0  0  0  0  0  0  0  0  0
   -8.0465   18.9934  -33.3779 H   0  0  0  0  0  0  0  0  0  0  0  0
   -6.2591   19.1718  -33.3779 H   0  0  0  0  0  0  0  0  0  0  0  0
   -9.4470   20.5327  -31.9506 H   0  0  0  0  0  0  0  0  0  0  0  0
   -9.7016   22.9262  -31.2949 H   0  0  0  0  0  0  0  0  0  0  0  0
   -7.7256   24.4458  -31.3084 H   0  0  0  0  0  0  0  0  0  0  0  0
   -3.9398   21.6516  -28.8690 H   0  0  0  0  0  0  0  0  0  0  0  0
   -4.9783   21.7014  -30.3406 H   0  0  0  0  0  0  0  0  0  0  0  0
   -1.1885   22.1757  -29.3426 H   0  0  0  0  0  0  0  0  0  0  0  0
   -0.1692   20.6236  -33.7658 H   0  0  0  0  0  0  0  0  0  0  0  0
   -1.8731   20.5314  -34.3271 H   0  0  0  0  0  0  0  0  0  0  0  0
   -1.0115   22.1076  -34.3271 H   0  0  0  0  0  0  0  0  0  0  0  0
   -3.7640   21.3664  -32.6917 H   0  0  0  0  0  0  0  0  0  0  0  0
   -4.7972   25.0228  -28.2690 H   0  0  0  0  0  0  0  0  0  0  0  0
   -4.3585   23.4125  -27.5941 H   0  0  0  0  0  0  0  0  0  0  0  0
   -2.1499   23.6591  -26.2297 H   0  0  0  0  0  0  0  0  0  0  0  0
    0.1762   24.9704  -26.6517 H   0  0  0  0  0  0  0  0  0  0  0  0
   -0.1119   26.3121  -28.9480 H   0  0  0  0  0  0  0  0  0  0  0  0
   -5.2239   21.1815  -32.6617 H   0  0  0  0  0  0  0  0  0  0  0  0
  1  2  1  0
  2  3  2  0
  3  4  1  0
  4  5  2  0
  5  6  1  0
  6  7  1  0
  7  8  1  0
  8  9  2  0
  8 10  1  0
 10 11  1  0
 11 12  1  0
 12 13  1  0
 13 14  2  0
 14 15  1  0
 15 16  1  0
 15 17  1  0
 10 18  1  0
 18 19  1  0
 19 20  2  0
 20 21  1  0
 21 22  2  0
 22 23  1  0
  6 24  2  0
 24  2  1  0
 17 12  2  0
 23 19  1  0
  1 25  1  0
  1 26  1  0
  1 27  1  0
  3 28  1  0
  4 29  1  0
  5 30  1  0
 11 31  1  0
 11 32  1  0
 13 33  1  0
 16 34  1  0
 16 35  1  0
 16 36  1  0
 17 37  1  0
 18 38  1  0
 18 39  1  0
 20 40  1  0
 21 41  1  0
 22 42  1  0
 24 43  1  0
M  CHG  1   7  -1
M  END
>  <UniqueID>  (31) 
30

>  <SMILES>  (31) 
Cc1cccc([N-]C(=O)N(Cc2cnn(C)c2)Cc2ccco2)c1

>  <Energy>  (31) 
97.01376902932175

>  <Genealogy>  (31) 
Cc1cccc([N-]C(=O)N(Cc2cnn(C)c2)Cc2ccco2)c1 (protonated)
Cc1cccc([N-]C(=O)N(Cc2cnn(C)c2)Cc2ccco2)c1 (3D coordinates assigned)
Cc1cccc([N-]C(=O)N(Cc2cnn(C)c2)Cc2ccco2)c1 (optimized conformer: 97.01376902932175 kcal/mol)

>  <smiles>  (31) 
Cc1cccc(NC(=O)N(Cc2cnn(C)c2)Cc2ccco2)c1

>  <score_type>  (31) 
oracle

>  <origin>  (31) 
adgpu

>  <m_score__min__energy>  (31) 
-9.2799999999999994

>  <m_primary>  (31) 
energy

$$$$
32:0
     RDKit          3D

 38 40  0  0  0  0  0  0  0  0999 V2000
   -6.3410   21.1412  -33.1596 H   0  0  0  0  0  0  0  0  0  0  0  0
   -5.5500   21.4470  -32.4590 C   0  0  0  0  0  0  0  0  0  0  0  0
   -4.4710   20.7190  -32.3960 N   0  0  0  0  0  0  0  0  0  0  0  0
   -3.3930   20.8700  -31.4600 C   0  0  0  0  0  0  0  0  0  0  0  0
   -3.6720   20.8600  -30.0880 C   0  0  0  0  0  0  0  0  0  0  0  0
   -4.7133   20.7874  -29.7409 H   0  0  0  0  0  0  0  0  0  0  0  0
   -2.6310   20.9420  -29.1570 C   0  0  0  0  0  0  0  0  0  0  0  0
   -2.8542   20.9138  -28.0803 H   0  0  0  0  0  0  0  0  0  0  0  0
   -1.3050   21.0600  -29.5930 C   0  0  0  0  0  0  0  0  0  0  0  0
    0.0220   21.0330  -28.4350 S   0  0  0  0  0  0  0  0  0  0  0  0
   -0.4910   20.5220  -27.1190 O   0  0  0  0  0  0  0  0  0  0  0  0
    1.1280   20.1360  -28.9150 O   0  0  0  0  0  0  0  0  0  0  0  0
    0.6460   22.6420  -28.2190 N   0  0  0  0  0  0  0  0  0  0  0  0
   -0.0440   23.7090  -27.9300 C   0  0  0  0  0  0  0  0  0  0  0  0
    0.6230   24.8830  -27.7580 N   0  0  0  0  0  0  0  0  0  0  0  0
   -0.0130   26.0390  -27.4320 C   0  0  0  0  0  0  0  0  0  0  0  0
    0.5645   26.9665  -27.3044 H   0  0  0  0  0  0  0  0  0  0  0  0
   -1.3970   26.0510  -27.2590 C   0  0  0  0  0  0  0  0  0  0  0  0
   -1.9160   26.9818  -26.9864 H   0  0  0  0  0  0  0  0  0  0  0  0
   -2.1150   24.8680  -27.4360 C   0  0  0  0  0  0  0  0  0  0  0  0
   -3.2076   24.8629  -27.3085 H   0  0  0  0  0  0  0  0  0  0  0  0
   -1.4460   23.6910  -27.7750 C   0  0  0  0  0  0  0  0  0  0  0  0
   -2.0077   22.7564  -27.9202 H   0  0  0  0  0  0  0  0  0  0  0  0
   -1.0310   21.1450  -30.9630 C   0  0  0  0  0  0  0  0  0  0  0  0
    0.0048   21.2799  -31.3079 H   0  0  0  0  0  0  0  0  0  0  0  0
   -2.0690   21.0590  -31.8930 C   0  0  0  0  0  0  0  0  0  0  0  0
   -1.8500   21.1394  -32.9680 H   0  0  0  0  0  0  0  0  0  0  0  0
   -5.7730   22.6610  -31.6430 C   0  0  0  0  0  0  0  0  0  0  0  0
   -4.7220   23.5800  -31.4910 C   0  0  0  0  0  0  0  0  0  0  0  0
   -3.7489   23.3813  -31.9638 H   0  0  0  0  0  0  0  0  0  0  0  0
   -4.9060   24.7460  -30.7420 C   0  0  0  0  0  0  0  0  0  0  0  0
   -3.8660   25.6590  -30.6130 O   0  0  0  0  0  0  0  0  0  0  0  0
   -6.1340   24.9950  -30.1240 C   0  0  0  0  0  0  0  0  0  0  0  0
   -6.2805   25.9186  -29.5448 H   0  0  0  0  0  0  0  0  0  0  0  0
   -7.1760   24.0720  -30.2410 C   0  0  0  0  0  0  0  0  0  0  0  0
   -8.1395   24.2673  -29.7474 H   0  0  0  0  0  0  0  0  0  0  0  0
   -6.9980   22.9000  -30.9840 C   0  0  0  0  0  0  0  0  0  0  0  0
   -8.0330   21.9730  -31.0450 O   0  0  0  0  0  0  0  0  0  0  0  0
  1  2  1  0
  2  3  2  3
  3  4  1  0
  4  5  2  0
  5  6  1  0
  5  7  1  0
  7  8  1  0
  7  9  2  0
  9 10  1  0
 10 11  2  0
 10 12  2  0
 10 13  1  0
 13 14  2  0
 14 15  1  0
 15 16  1  0
 16 17  1  0
 16 18  2  0
 18 19  1  0
 18 20  1  0
 20 21  1  0
 20 22  2  0
 22 23  1  0
  9 24  1  0
 24 25  1  0
 24 26  2  0
 26 27  1  0
  2 28  1  0
 28 29  2  0
 29 30  1  0
 29 31  1  0
 31 32  1  0
 31 33  2  0
 33 34  1  0
 33 35  1  0
 35 36  1  0
 35 37  2  0
 37 38  1  0
 26  4  1  0
 37 28  1  0
 22 14  1  0
M  CHG  3  15  -1  32  -1  38  -1
M  END
>  <UniqueID>  (32) 
31

>  <SMILES>  (32) 
O=S(=O)(/N=c1\cccc[n-]1)c1ccc(N=Cc2cc([O-])ccc2[O-])cc1

>  <Energy>  (32) 
58.44956010062747

>  <Genealogy>  (32) 
O=S(=O)(N=c1cccc[n-]1)c1ccc(N=Cc2cc([O-])ccc2[O-])cc1 (protonated)
O=S(=O)(/N=c1\cccc[n-]1)c1ccc(N=Cc2cc([O-])ccc2[O-])cc1 (cis-trans isomerization)
O=S(=O)(/N=c1\cccc[n-]1)c1ccc(N=Cc2cc([O-])ccc2[O-])cc1 (3D coordinates assigned)
O=S(=O)(/N=c1\cccc[n-]1)c1ccc(N=Cc2cc([O-])ccc2[O-])cc1 (optimized conformer: 58.44956010062747 kcal/mol)

>  <smiles>  (32) 
O=S(=O)(N=c1cccc[nH]1)c1ccc(N=Cc2cc(O)ccc2O)cc1

>  <score_type>  (32) 
oracle

>  <origin>  (32) 
adgpu

>  <m_score__min__energy>  (32) 
-11.17

>  <m_primary>  (32) 
energy

$$$$
33:0
     RDKit          3D

 39 40  0  0  0  0  0  0  0  0999 V2000
   -9.3640   20.1320  -32.2390 Cl  0  0  0  0  0  0  0  0  0  0  0  0
   -7.6940   19.8900  -32.7170 C   0  0  0  0  0  0  0  0  0  0  0  0
   -6.8080   20.9690  -32.7340 C   0  0  0  0  0  0  0  0  0  0  0  0
   -5.4770   20.7800  -33.1150 C   0  0  0  0  0  0  0  0  0  0  0  0
   -5.0190   19.5050  -33.4930 C   0  0  0  0  0  0  0  0  0  0  0  0
   -3.5750   19.3170  -33.8780 C   0  0  0  0  0  0  0  0  0  0  0  0
   -2.8810   20.6080  -33.8320 N   0  0  0  0  0  0  0  0  0  0  0  0
   -1.5560   20.4610  -33.2180 C   0  0  0  0  0  0  0  0  0  0  0  0
   -1.4670   21.2840  -31.9270 C   0  0  0  0  0  0  0  0  0  0  0  0
   -2.8470   21.4170  -31.2430 C   0  0  0  0  0  0  0  0  0  0  0  0
   -3.2480   22.8080  -30.9360 N   0  0  0  0  0  0  0  0  0  0  0  0
   -2.6450   23.3330  -29.6960 C   0  0  0  0  0  0  0  0  0  0  0  0
   -3.2480   24.7040  -29.3350 C   0  0  0  0  0  0  0  0  0  0  0  0
   -3.8440   25.3000  -30.4710 O   0  0  0  0  0  0  0  0  0  0  0  0
   -4.9840   24.5550  -30.8720 C   0  0  0  0  0  0  0  0  0  0  0  0
   -4.7010   23.0400  -30.9710 C   0  0  0  0  0  0  0  0  0  0  0  0
   -5.9160   18.4150  -33.4630 C   0  0  0  0  0  0  0  0  0  0  0  0
   -5.4030   16.7840  -33.8870 Cl  0  0  0  0  0  0  0  0  0  0  0  0
   -7.2480   18.6150  -33.0800 C   0  0  0  0  0  0  0  0  0  0  0  0
   -7.1589   21.9711  -32.4465 H   0  0  0  0  0  0  0  0  0  0  0  0
   -4.7832   21.6336  -33.1193 H   0  0  0  0  0  0  0  0  0  0  0  0
   -3.0967   18.6191  -33.1750 H   0  0  0  0  0  0  0  0  0  0  0  0
   -3.5193   18.9087  -34.8979 H   0  0  0  0  0  0  0  0  0  0  0  0
   -2.7460   20.9360  -34.8180 H   0  0  0  0  0  0  0  0  0  0  0  0
   -1.3814   19.4005  -32.9838 H   0  0  0  0  0  0  0  0  0  0  0  0
   -0.7948   20.8242  -33.9242 H   0  0  0  0  0  0  0  0  0  0  0  0
   -0.7712   20.7880  -31.2343 H   0  0  0  0  0  0  0  0  0  0  0  0
   -1.1112   22.2924  -32.1847 H   0  0  0  0  0  0  0  0  0  0  0  0
   -3.6047   20.9803  -31.9102 H   0  0  0  0  0  0  0  0  0  0  0  0
   -2.7701   20.8934  -30.2787 H   0  0  0  0  0  0  0  0  0  0  0  0
   -2.8362   22.6269  -28.8745 H   0  0  0  0  0  0  0  0  0  0  0  0
   -1.5628   23.4529  -29.8523 H   0  0  0  0  0  0  0  0  0  0  0  0
   -4.0117   24.5690  -28.5549 H   0  0  0  0  0  0  0  0  0  0  0  0
   -2.4440   25.3604  -28.9706 H   0  0  0  0  0  0  0  0  0  0  0  0
   -5.7861   24.7159  -30.1367 H   0  0  0  0  0  0  0  0  0  0  0  0
   -5.2743   24.9050  -31.8736 H   0  0  0  0  0  0  0  0  0  0  0  0
   -5.1753   22.5225  -30.1241 H   0  0  0  0  0  0  0  0  0  0  0  0
   -5.1112   22.6517  -31.9149 H   0  0  0  0  0  0  0  0  0  0  0  0
   -7.9467   17.7656  -33.0646 H   0  0  0  0  0  0  0  0  0  0  0  0
  1  2  1  0
  2  3  2  0
  3  4  1  0
  4  5  2  0
  5  6  1  0
  6  7  1  0
  7  8  1  0
  8  9  1  0
  9 10  1  0
 10 11  1  0
 11 12  1  0
 12 13  1  0
 13 14  1  0
 14 15  1  0
 15 16  1  0
  5 17  1  0
 17 18  1  0
 17 19  2  0
 19  2  1  0
 16 11  1  0
  3 20  1  0
  4 21  1  0
  6 22  1  0
  6 23  1  0
  7 24  1  0
  8 25  1  0
  8 26  1  0
  9 27  1  0
  9 28  1  0
 10 29  1  0
 10 30  1  0
 12 31  1  0
 12 32  1  0
 13 33  1  0
 13 34  1  0
 15 35  1  0
 15 36  1  0
 16 37  1  0
 16 38  1  0
 19 39  1  0
M  END
>  <UniqueID>  (33) 
32

>  <SMILES>  (33) 
Clc1ccc(CNCCCN2CCOCC2)c(Cl)c1

>  <Energy>  (33) 
46.09258158216482

>  <Genealogy>  (33) 
Clc1ccc(CNCCCN2CCOCC2)c(Cl)c1 (3D coordinates assigned)
Clc1ccc(CNCCCN2CCOCC2)c(Cl)c1 (nonaromatic ring conformer: 46.09258158216482 kcal/mol)

>  <smiles>  (33) 
Clc1ccc(CNCCCN2CCOCC2)c(Cl)c1

>  <score_type>  (33) 
oracle

>  <origin>  (33) 
adgpu

>  <m_score__min__energy>  (33) 
-7.9699999999999998

>  <m_primary>  (33) 
energy

$$$$
34:0
     RDKit          3D

 54 57  0  0  0  0  0  0  0  0999 V2000
    2.2370   18.4200  -31.6540 C   0  0  0  0  0  0  0  0  0  0  0  0
    2.0370   19.0050  -30.2900 C   0  0  0  0  0  0  0  0  0  0  0  0
    3.0520   19.2950  -29.4530 N   0  0  0  0  0  0  0  0  0  0  0  0
    2.5240   19.7670  -28.3640 O   0  0  0  0  0  0  0  0  0  0  0  0
    1.2120   19.8070  -28.4400 C   0  0  0  0  0  0  0  0  0  0  0  0
    0.4890   20.2300  -27.4400 N   0  0  0  0  0  0  0  0  0  0  0  0
   -1.2350   20.3560  -27.2890 S   0  0  0  0  0  0  0  0  0  0  0  0
   -1.8830   19.0950  -27.7840 O   0  0  0  0  0  0  0  0  0  0  0  0
   -1.5730   20.5180  -25.8340 O   0  0  0  0  0  0  0  0  0  0  0  0
   -1.8440   21.7670  -28.1440 C   0  0  0  0  0  0  0  0  0  0  0  0
   -1.1720   22.2500  -29.2720 C   0  0  0  0  0  0  0  0  0  0  0  0
   -1.6900   23.3300  -29.9900 C   0  0  0  0  0  0  0  0  0  0  0  0
   -2.9000   23.9240  -29.5970 C   0  0  0  0  0  0  0  0  0  0  0  0
   -3.4950   24.9840  -30.3590 N   0  0  0  0  0  0  0  0  0  0  0  0
   -4.8670   25.0460  -30.7740 C   0  0  0  0  0  0  0  0  0  0  0  0
   -5.4310   26.1730  -30.8200 O   0  0  0  0  0  0  0  0  0  0  0  0
   -5.6510   23.8280  -31.0970 C   0  0  0  0  0  0  0  0  0  0  0  0
   -6.8920   23.5790  -30.4830 C   0  0  0  0  0  0  0  0  0  0  0  0
   -7.6190   22.4270  -30.7960 C   0  0  0  0  0  0  0  0  0  0  0  0
   -7.1310   21.5200  -31.7430 C   0  0  0  0  0  0  0  0  0  0  0  0
   -8.0550   20.0720  -32.1260 S   0  0  0  0  0  0  0  0  0  0  0  0
   -8.6700   19.5500  -30.8580 O   0  0  0  0  0  0  0  0  0  0  0  0
   -9.1570   20.3990  -33.0950 O   0  0  0  0  0  0  0  0  0  0  0  0
   -7.0000   18.8550  -32.8390 C   0  0  0  0  0  0  0  0  0  0  0  0
   -6.3280   19.1160  -34.0450 C   0  0  0  0  0  0  0  0  0  0  0  0
   -5.4760   18.1510  -34.5930 C   0  0  0  0  0  0  0  0  0  0  0  0
   -5.2880   16.9250  -33.9430 C   0  0  0  0  0  0  0  0  0  0  0  0
   -5.9570   16.6600  -32.7440 C   0  0  0  0  0  0  0  0  0  0  0  0
   -6.8020   17.6290  -32.1870 C   0  0  0  0  0  0  0  0  0  0  0  0
   -5.9050   21.7700  -32.3690 C   0  0  0  0  0  0  0  0  0  0  0  0
   -5.1720   22.9170  -32.0510 C   0  0  0  0  0  0  0  0  0  0  0  0
   -3.5430   23.4770  -28.4360 C   0  0  0  0  0  0  0  0  0  0  0  0
   -3.0180   22.3990  -27.7140 C   0  0  0  0  0  0  0  0  0  0  0  0
    0.8250   19.3290  -29.6970 C   0  0  0  0  0  0  0  0  0  0  0  0
   -0.5280   19.1540  -30.3210 C   0  0  0  0  0  0  0  0  0  0  0  0
    2.5915   17.3830  -31.5598 H   0  0  0  0  0  0  0  0  0  0  0  0
    1.2833   18.4331  -32.2020 H   0  0  0  0  0  0  0  0  0  0  0  0
    2.9830   19.0142  -32.2020 H   0  0  0  0  0  0  0  0  0  0  0  0
   -0.2324   21.7775  -29.5944 H   0  0  0  0  0  0  0  0  0  0  0  0
   -1.1485   23.7165  -30.8660 H   0  0  0  0  0  0  0  0  0  0  0  0
   -7.2930   24.2959  -29.7514 H   0  0  0  0  0  0  0  0  0  0  0  0
   -8.5791   22.2326  -30.2956 H   0  0  0  0  0  0  0  0  0  0  0  0
   -6.4717   20.0784  -34.5580 H   0  0  0  0  0  0  0  0  0  0  0  0
   -4.9518   18.3561  -35.5381 H   0  0  0  0  0  0  0  0  0  0  0  0
   -4.6143   16.1706  -34.3755 H   0  0  0  0  0  0  0  0  0  0  0  0
   -5.8201   15.6924  -32.2389 H   0  0  0  0  0  0  0  0  0  0  0  0
   -7.3126   17.4273  -31.2338 H   0  0  0  0  0  0  0  0  0  0  0  0
   -5.5162   21.0609  -33.1147 H   0  0  0  0  0  0  0  0  0  0  0  0
   -4.2117   23.1071  -32.5527 H   0  0  0  0  0  0  0  0  0  0  0  0
   -4.4618   23.9737  -28.0911 H   0  0  0  0  0  0  0  0  0  0  0  0
   -3.5290   22.0468  -26.8058 H   0  0  0  0  0  0  0  0  0  0  0  0
   -1.2865   19.0559  -29.5304 H   0  0  0  0  0  0  0  0  0  0  0  0
   -0.7600   20.0296  -30.9451 H   0  0  0  0  0  0  0  0  0  0  0  0
   -0.5296   18.2482  -30.9451 H   0  0  0  0  0  0  0  0  0  0  0  0
  1  2  1  0
  2  3  1  0
  3  4  1  0
  4  5  1  0
  5  6  2  3
  6  7  1  0
  7  8  2  0
  7  9  2  0
  7 10  1  0
 10 11  2  0
 11 12  1  0
 12 13  2  0
 13 14  1  0
 14 15  1  0
 15 16  2  0
 15 17  1  0
 17 18  2  0
 18 19  1  0
 19 20  2  0
 20 21  1  0
 21 22  2  0
 21 23  2  0
 21 24  1  0
 24 25  2  0
 25 26  1  0
 26 27  2  0
 27 28  1  0
 28 29  2  0
 20 30  1  0
 30 31  2  0
 13 32  1  0
 32 33  2  0
  5 34  1  0
 34 35  1  0
 34  2  2  0
 33 10  1  0
 31 17  1  0
 29 24  1  0
  1 36  1  0
  1 37  1  0
  1 38  1  0
 11 39  1  0
 12 40  1  0
 18 41  1  0
 19 42  1  0
 25 43  1  0
 26 44  1  0
 27 45  1  0
 28 46  1  0
 29 47  1  0
 30 48  1  0
 31 49  1  0
 32 50  1  0
 33 51  1  0
 35 52  1  0
 35 53  1  0
 35 54  1  0
M  CHG  2   3  -1  14  -1
M  END
>  <UniqueID>  (34) 
33

>  <SMILES>  (34) 
Cc1[n-]oc(=NS(=O)(=O)c2ccc([N-]C(=O)c3ccc(S(=O)(=O)c4ccccc4)cc3)cc2)c1C

>  <Energy>  (34) 
102.40051307822176

>  <Genealogy>  (34) 
Cc1[n-]oc(=NS(=O)(=O)c2ccc([N-]C(=O)c3ccc(S(=O)(=O)c4ccccc4)cc3)cc2)c1C (protonated)
Cc1[n-]oc(=NS(=O)(=O)c2ccc([N-]C(=O)c3ccc(S(=O)(=O)c4ccccc4)cc3)cc2)c1C (3D coordinates assigned)
Cc1[n-]oc(=NS(=O)(=O)c2ccc([N-]C(=O)c3ccc(S(=O)(=O)c4ccccc4)cc3)cc2)c1C (optimized conformer: 102.40051307822176 kcal/mol)

>  <smiles>  (34) 
Cc1[nH]oc(=NS(=O)(=O)c2ccc(NC(=O)c3ccc(S(=O)(=O)c4ccccc4)cc3)cc2)c1C

>  <score_type>  (34) 
oracle

>  <origin>  (34) 
adgpu

>  <m_score__min__energy>  (34) 
-13.199999999999999

>  <m_primary>  (34) 
energy

$$$$
35:0
     RDKit          3D

 62 65  0  0  0  0  0  0  0  0999 V2000
   -1.2510   25.8910  -29.9450 H   0  0  0  0  0  0  0  0  0  0  0  0
   -1.5610   25.6090  -28.9880 N   0  0  0  0  0  0  0  0  0  0  0  0
   -2.9200   24.5600  -29.1870 S   0  0  0  0  0  0  0  0  0  0  0  0
   -3.9850   24.9200  -28.1910 O   0  0  0  0  0  0  0  0  0  0  0  0
   -3.4760   24.7280  -30.5730 O   0  0  0  0  0  0  0  0  0  0  0  0
   -2.4140   22.8920  -28.9320 C   0  0  0  0  0  0  0  0  0  0  0  0
   -2.9750   22.1200  -27.9070 C   0  0  0  0  0  0  0  0  0  0  0  0
   -3.7357   22.5572  -27.2436 H   0  0  0  0  0  0  0  0  0  0  0  0
   -2.5700   20.7960  -27.7260 C   0  0  0  0  0  0  0  0  0  0  0  0
   -3.0130   20.1921  -26.9204 H   0  0  0  0  0  0  0  0  0  0  0  0
   -1.6030   20.2360  -28.5660 C   0  0  0  0  0  0  0  0  0  0  0  0
   -1.2905   19.1917  -28.4184 H   0  0  0  0  0  0  0  0  0  0  0  0
   -1.0280   20.9960  -29.5960 C   0  0  0  0  0  0  0  0  0  0  0  0
   -0.0220   20.3980  -30.4380 N   0  0  0  0  0  0  0  0  0  0  0  0
    0.9760   20.6760  -30.2960 H   0  0  0  0  0  0  0  0  0  0  0  0
   -0.3160   19.5160  -31.5690 C   0  0  0  0  0  0  0  0  0  0  0  0
   -1.3441   19.1368  -31.4734 H   0  0  0  0  0  0  0  0  0  0  0  0
    0.4009   18.6817  -31.5623 H   0  0  0  0  0  0  0  0  0  0  0  0
   -0.1820   20.2600  -32.8750 C   0  0  0  0  0  0  0  0  0  0  0  0
    1.0360   20.4840  -33.4930 C   0  0  0  0  0  0  0  0  0  0  0  0
    2.0118   20.0800  -33.1854 H   0  0  0  0  0  0  0  0  0  0  0  0
    0.7910   21.3100  -34.5670 C   0  0  0  0  0  0  0  0  0  0  0  0
    1.5308   21.6858  -35.2892 H   0  0  0  0  0  0  0  0  0  0  0  0
   -0.5600   21.5740  -34.5610 C   0  0  0  0  0  0  0  0  0  0  0  0
   -1.0778   22.2126  -35.2919 H   0  0  0  0  0  0  0  0  0  0  0  0
   -1.1600   20.9390  -33.5320 N   0  0  0  0  0  0  0  0  0  0  0  0
   -2.5740   21.0070  -33.2610 C   0  0  0  0  0  0  0  0  0  0  0  0
   -3.3690   19.9210  -33.4310 N   0  0  0  0  0  0  0  0  0  0  0  0
   -4.7100   19.9950  -33.2330 C   0  0  0  0  0  0  0  0  0  0  0  0
   -5.5420   18.8300  -33.4110 N   0  0  0  0  0  0  0  0  0  0  0  0
   -5.1380   17.7860  -34.3630 C   0  0  0  0  0  0  0  0  0  0  0  0
   -5.4442   18.0820  -35.3772 H   0  0  0  0  0  0  0  0  0  0  0  0
   -4.0455   17.6655  -34.3183 H   0  0  0  0  0  0  0  0  0  0  0  0
   -5.8000   16.4530  -34.0050 C   0  0  0  0  0  0  0  0  0  0  0  0
   -5.6088   15.7280  -34.8099 H   0  0  0  0  0  0  0  0  0  0  0  0
   -5.3760   16.0930  -33.0560 H   0  0  0  0  0  0  0  0  0  0  0  0
   -7.1950   16.6110  -33.8460 O   0  0  0  0  0  0  0  0  0  0  0  0
   -7.4510   17.4290  -32.7230 C   0  0  0  0  0  0  0  0  0  0  0  0
   -8.5352   17.4611  -32.5400 H   0  0  0  0  0  0  0  0  0  0  0  0
   -6.9279   17.0063  -31.8526 H   0  0  0  0  0  0  0  0  0  0  0  0
   -6.9390   18.8540  -32.9590 C   0  0  0  0  0  0  0  0  0  0  0  0
   -7.5596   19.3392  -33.7267 H   0  0  0  0  0  0  0  0  0  0  0  0
   -6.9978   19.4143  -32.0142 H   0  0  0  0  0  0  0  0  0  0  0  0
   -5.2580   21.1840  -32.8690 N   0  0  0  0  0  0  0  0  0  0  0  0
   -4.4760   22.2820  -32.6960 C   0  0  0  0  0  0  0  0  0  0  0  0
   -4.9910   23.4230  -32.3440 N   0  0  0  0  0  0  0  0  0  0  0  0
   -6.4110   23.6670  -32.0770 C   0  0  0  0  0  0  0  0  0  0  0  0
   -7.0052   23.2262  -32.8910 H   0  0  0  0  0  0  0  0  0  0  0  0
   -6.5605   24.7551  -32.0154 H   0  0  0  0  0  0  0  0  0  0  0  0
   -6.8680   23.0500  -30.7380 C   0  0  0  0  0  0  0  0  0  0  0  0
   -7.5295   23.7905  -30.2647 H   0  0  0  0  0  0  0  0  0  0  0  0
   -5.6800   22.7980  -29.7980 C   0  0  0  0  0  0  0  0  0  0  0  0
   -6.0173   22.8696  -28.7535 H   0  0  0  0  0  0  0  0  0  0  0  0
   -5.2722   21.7934  -29.9836 H   0  0  0  0  0  0  0  0  0  0  0  0
   -4.8995   23.5506  -29.9836 H   0  0  0  0  0  0  0  0  0  0  0  0
   -7.6860   21.7670  -30.9350 C   0  0  0  0  0  0  0  0  0  0  0  0
   -7.9531   21.3481  -29.9536 H   0  0  0  0  0  0  0  0  0  0  0  0
   -8.6030   21.9994  -31.4963 H   0  0  0  0  0  0  0  0  0  0  0  0
   -7.0884   21.0337  -31.4963 H   0  0  0  0  0  0  0  0  0  0  0  0
   -3.1390   22.1910  -32.9020 N   0  0  0  0  0  0  0  0  0  0  0  0
   -1.4540   22.3250  -29.7790 C   0  0  0  0  0  0  0  0  0  0  0  0
   -1.0279   22.9249  -30.5966 H   0  0  0  0  0  0  0  0  0  0  0  0
  1  2  1  0
  2  3  1  0
  3  4  2  0
  3  5  2  0
  3  6  1  0
  6  7  2  0
  7  8  1  0
  7  9  1  0
  9 10  1  0
  9 11  2  0
 11 12  1  0
 11 13  1  0
 13 14  1  0
 14 15  1  0
 14 16  1  0
 16 17  1  0
 16 18  1  0
 16 19  1  0
 19 20  2  0
 20 21  1  0
 20 22  1  0
 22 23  1  0
 22 24  2  0
 24 25  1  0
 24 26  1  0
 26 27  1  0
 27 28  1  0
 28 29  2  0
 29 30  1  0
 30 31  1  0
 31 32  1  0
 31 33  1  0
 31 34  1  0
 34 35  1  0
 34 36  1  0
 34 37  1  0
 37 38  1  0
 38 39  1  0
 38 40  1  0
 38 41  1  0
 41 42  1  0
 41 43  1  0
 29 44  1  0
 44 45  1  0
 45 46  2  0
 46 47  1  0
 47 48  1  0
 47 49  1  0
 47 50  1  0
 50 51  1  0
 50 52  1  0
 52 53  1  0
 52 54  1  0
 52 55  1  0
 50 56  1  0
 56 57  1  0
 56 58  1  0
 56 59  1  0
 45 60  1  0
 13 61  2  0
 61 62  1  0
 61  6  1  0
 26 19  1  0
 60 27  2  0
 41 30  1  0
M  CHG  2   2  -1  44  -1
M  END
>  <UniqueID>  (35) 
34

>  <SMILES>  (35) 
CC(C)C/N=c1/nc(-n2cccc2CNc2cccc(S([NH-])(=O)=O)c2)nc(N2CCOCC2)[n-]1

>  <Energy>  (35) 
87.2112589970803

>  <Genealogy>  (35) 
CC(C)CN=c1nc(-n2cccc2CNc2cccc(S([NH-])(=O)=O)c2)nc(N2CCOCC2)[n-]1 (protonated)
CC(C)C/N=c1/nc(-n2cccc2CNc2cccc(S([NH-])(=O)=O)c2)nc(N2CCOCC2)[n-]1 (cis-trans isomerization)
CC(C)C/N=c1/nc(-n2cccc2CNc2cccc(S([NH-])(=O)=O)c2)nc(N2CCOCC2)[n-]1 (3D coordinates assigned)
CC(C)C/N=c1/nc(-n2cccc2CNc2cccc(S([NH-])(=O)=O)c2)nc(N2CCOCC2)[n-]1 (nonaromatic ring conformer: 87.2112589970803 kcal/mol)

>  <smiles>  (35) 
CC(C)CN=c1nc(-n2cccc2CNc2cccc(S(N)(=O)=O)c2)nc(N2CCOCC2)[nH]1

>  <score_type>  (35) 
oracle

>  <origin>  (35) 
adgpu

>  <m_score__min__energy>  (35) 
-12.050000000000001

>  <m_primary>  (35) 
energy

$$$$
36:0
     RDKit          3D

 55 58  0  0  0  0  0  0  0  0999 V2000
    2.0150   25.6750  -24.8480 C   0  0  0  0  0  0  0  0  0  0  0  0
    1.1200   26.1930  -23.8050 N   0  0  0  0  0  0  0  0  0  0  0  0
    1.6800   27.4100  -23.2010 C   0  0  0  0  0  0  0  0  0  0  0  0
   -0.4520   26.5310  -24.4830 S   0  0  0  0  0  0  0  0  0  0  0  0
   -0.3810   27.7610  -25.3470 O   0  0  0  0  0  0  0  0  0  0  0  0
   -1.4470   26.7780  -23.3810 O   0  0  0  0  0  0  0  0  0  0  0  0
   -0.9790   25.1760  -25.4770 C   0  0  0  0  0  0  0  0  0  0  0  0
   -0.4960   23.8830  -25.2350 C   0  0  0  0  0  0  0  0  0  0  0  0
   -0.9000   22.8210  -26.0460 C   0  0  0  0  0  0  0  0  0  0  0  0
   -1.7840   23.0420  -27.1060 C   0  0  0  0  0  0  0  0  0  0  0  0
   -2.2740   24.3340  -27.3640 C   0  0  0  0  0  0  0  0  0  0  0  0
   -3.1990   24.5720  -28.4910 C   0  0  0  0  0  0  0  0  0  0  0  0
   -2.8000   24.9020  -29.7370 N   0  0  0  0  0  0  0  0  0  0  0  0
   -3.8940   25.0060  -30.4250 O   0  0  0  0  0  0  0  0  0  0  0  0
   -4.9220   24.7540  -29.6550 C   0  0  0  0  0  0  0  0  0  0  0  0
   -6.3440   24.7650  -30.1190 C   0  0  0  0  0  0  0  0  0  0  0  0
   -6.4340   24.2610  -31.4890 N   0  0  0  0  0  0  0  0  0  0  0  0
   -6.7720   22.9020  -31.8360 C   0  0  0  0  0  0  0  0  0  0  0  0
   -8.0800   22.4010  -31.6920 C   0  0  0  0  0  0  0  0  0  0  0  0
   -8.3670   21.0720  -32.0160 C   0  0  0  0  0  0  0  0  0  0  0  0
   -7.3520   20.2190  -32.4830 C   0  0  0  0  0  0  0  0  0  0  0  0
   -7.6060   18.8830  -32.8200 O   0  0  0  0  0  0  0  0  0  0  0  0
   -6.6280   17.9110  -33.0780 C   0  0  0  0  0  0  0  0  0  0  0  0
   -6.1390   17.0590  -32.0690 C   0  0  0  0  0  0  0  0  0  0  0  0
   -5.1490   16.1160  -32.3630 C   0  0  0  0  0  0  0  0  0  0  0  0
   -4.6320   16.0250  -33.6580 C   0  0  0  0  0  0  0  0  0  0  0  0
   -5.1000   16.8790  -34.6590 C   0  0  0  0  0  0  0  0  0  0  0  0
   -6.0910   17.8230  -34.3690 C   0  0  0  0  0  0  0  0  0  0  0  0
   -6.0620   20.7260  -32.6610 C   0  0  0  0  0  0  0  0  0  0  0  0
   -5.7710   22.0540  -32.3340 C   0  0  0  0  0  0  0  0  0  0  0  0
   -4.5430   24.4700  -28.3950 N   0  0  0  0  0  0  0  0  0  0  0  0
   -1.8640   25.3990  -26.5420 C   0  0  0  0  0  0  0  0  0  0  0  0
    2.8758   25.1768  -24.3782 H   0  0  0  0  0  0  0  0  0  0  0  0
    1.4698   24.9528  -25.4735 H   0  0  0  0  0  0  0  0  0  0  0  0
    2.3696   26.5075  -25.4735 H   0  0  0  0  0  0  0  0  0  0  0  0
    1.0090   25.4660  -23.0600 H   0  0  0  0  0  0  0  0  0  0  0  0
    1.6415   27.3264  -22.1049 H   0  0  0  0  0  0  0  0  0  0  0  0
    2.7247   27.5318  -23.5230 H   0  0  0  0  0  0  0  0  0  0  0  0
    1.0929   28.2827  -23.5230 H   0  0  0  0  0  0  0  0  0  0  0  0
    0.2028   23.7045  -24.4044 H   0  0  0  0  0  0  0  0  0  0  0  0
   -0.5214   21.8069  -25.8502 H   0  0  0  0  0  0  0  0  0  0  0  0
   -2.0978   22.2007  -27.7414 H   0  0  0  0  0  0  0  0  0  0  0  0
   -6.9469   24.1262  -29.4568 H   0  0  0  0  0  0  0  0  0  0  0  0
   -6.7216   25.7978  -30.0918 H   0  0  0  0  0  0  0  0  0  0  0  0
   -6.1960   24.9280  -32.2590 H   0  0  0  0  0  0  0  0  0  0  0  0
   -8.8803   23.0591  -31.3225 H   0  0  0  0  0  0  0  0  0  0  0  0
   -9.3931   20.6914  -31.9049 H   0  0  0  0  0  0  0  0  0  0  0  0
   -6.5370   17.1355  -31.0464 H   0  0  0  0  0  0  0  0  0  0  0  0
   -4.7770   15.4455  -31.5743 H   0  0  0  0  0  0  0  0  0  0  0  0
   -3.8560   15.2804  -33.8891 H   0  0  0  0  0  0  0  0  0  0  0  0
   -4.6889   16.8093  -35.6769 H   0  0  0  0  0  0  0  0  0  0  0  0
   -6.4503   18.4995  -35.1585 H   0  0  0  0  0  0  0  0  0  0  0  0
   -5.2700   20.0759  -33.0611 H   0  0  0  0  0  0  0  0  0  0  0  0
   -4.7487   22.4372  -32.4683 H   0  0  0  0  0  0  0  0  0  0  0  0
   -2.2402   26.4143  -26.7358 H   0  0  0  0  0  0  0  0  0  0  0  0
  1  2  1  0
  2  3  1  0
  2  4  1  0
  4  5  2  0
  4  6  2  0
  4  7  1  0
  7  8  2  0
  8  9  1  0
  9 10  2  0
 10 11  1  0
 11 12  1  0
 12 13  2  0
 13 14  1  0
 14 15  1  0
 15 16  1  0
 16 17  1  0
 17 18  1  0
 18 19  2  0
 19 20  1  0
 20 21  2  0
 21 22  1  0
 22 23  1  0
 23 24  2  0
 24 25  1  0
 25 26  2  0
 26 27  1  0
 27 28  2  0
 21 29  1  0
 29 30  2  0
 15 31  2  0
 11 32  2  0
 32  7  1  0
 31 12  1  0
 30 18  1  0
 28 23  1  0
  1 33  1  0
  1 34  1  0
  1 35  1  0
  2 36  1  0
  3 37  1  0
  3 38  1  0
  3 39  1  0
  8 40  1  0
  9 41  1  0
 10 42  1  0
 16 43  1  0
 16 44  1  0
 17 45  1  0
 19 46  1  0
 20 47  1  0
 24 48  1  0
 25 49  1  0
 26 50  1  0
 27 51  1  0
 28 52  1  0
 29 53  1  0
 30 54  1  0
 32 55  1  0
M  CHG  1   2   1
M  END
>  <UniqueID>  (36) 
35

>  <SMILES>  (36) 
C[NH+](C)S(=O)(=O)c1cccc(-c2noc(CNc3ccc(Oc4ccccc4)cc3)n2)c1

>  <Energy>  (36) 
94.61188843276746

>  <Genealogy>  (36) 
C[NH+](C)S(=O)(=O)c1cccc(-c2noc(CNc3ccc(Oc4ccccc4)cc3)n2)c1 (protonated)
C[NH+](C)S(=O)(=O)c1cccc(-c2noc(CNc3ccc(Oc4ccccc4)cc3)n2)c1 (3D coordinates assigned)
C[NH+](C)S(=O)(=O)c1cccc(-c2noc(CNc3ccc(Oc4ccccc4)cc3)n2)c1 (optimized conformer: 94.61188843276746 kcal/mol)

>  <smiles>  (36) 
CN(C)S(=O)(=O)c1cccc(-c2noc(CNc3ccc(Oc4ccccc4)cc3)n2)c1

>  <score_type>  (36) 
oracle

>  <origin>  (36) 
adgpu

>  <m_score__min__energy>  (36) 
-10.869999999999999

>  <m_primary>  (36) 
energy

$$$$
37:0
     RDKit          3D

 49 52  0  0  0  0  0  0  0  0999 V2000
   -2.5270   23.5550  -28.8760 C   0  0  0  0  0  0  0  0  0  0  0  0
   -3.5860   24.0800  -29.7850 C   0  0  0  0  0  0  0  0  0  0  0  0
   -4.7840   23.4630  -30.0750 C   0  0  0  0  0  0  0  0  0  0  0  0
   -5.3680   24.3400  -30.9710 C   0  0  0  0  0  0  0  0  0  0  0  0
   -6.5200   24.2040  -31.5540 N   0  0  0  0  0  0  0  0  0  0  0  0
   -7.5790   22.8470  -31.3290 S   0  0  0  0  0  0  0  0  0  0  0  0
   -7.9540   22.7420  -29.8760 O   0  0  0  0  0  0  0  0  0  0  0  0
   -8.8300   23.0590  -32.1330 O   0  0  0  0  0  0  0  0  0  0  0  0
   -6.7850   21.3780  -31.8850 C   0  0  0  0  0  0  0  0  0  0  0  0
   -7.2440   20.1170  -31.4840 C   0  0  0  0  0  0  0  0  0  0  0  0
   -6.5860   18.9600  -31.9120 C   0  0  0  0  0  0  0  0  0  0  0  0
   -5.4720   19.0490  -32.7600 C   0  0  0  0  0  0  0  0  0  0  0  0
   -4.7950   17.8470  -33.1670 N   0  0  0  0  0  0  0  0  0  0  0  0
   -4.5860   17.4780  -34.5410 C   0  0  0  0  0  0  0  0  0  0  0  0
   -5.3360   17.9530  -35.4370 O   0  0  0  0  0  0  0  0  0  0  0  0
   -3.5270   16.5100  -34.9140 C   0  0  0  0  0  0  0  0  0  0  0  0
   -3.8510   15.1740  -35.2030 C   0  0  0  0  0  0  0  0  0  0  0  0
   -2.8510   14.2680  -35.5610 C   0  0  0  0  0  0  0  0  0  0  0  0
   -1.5260   14.7000  -35.6350 C   0  0  0  0  0  0  0  0  0  0  0  0
   -0.5320   13.7920  -36.0220 O   0  0  0  0  0  0  0  0  0  0  0  0
    0.2550   13.0270  -35.1490 C   0  0  0  0  0  0  0  0  0  0  0  0
   -0.0910   12.8340  -33.7970 C   0  0  0  0  0  0  0  0  0  0  0  0
    0.7220   12.0570  -32.9670 C   0  0  0  0  0  0  0  0  0  0  0  0
    1.8760   11.4570  -33.4780 C   0  0  0  0  0  0  0  0  0  0  0  0
    2.2140   11.6270  -34.8230 C   0  0  0  0  0  0  0  0  0  0  0  0
    1.4030   12.4030  -35.6560 C   0  0  0  0  0  0  0  0  0  0  0  0
   -1.2280   16.0030  -35.3730 N   0  0  0  0  0  0  0  0  0  0  0  0
   -2.1820   16.9040  -35.0160 C   0  0  0  0  0  0  0  0  0  0  0  0
   -5.0060   20.3180  -33.1490 C   0  0  0  0  0  0  0  0  0  0  0  0
   -5.6620   21.4730  -32.7160 C   0  0  0  0  0  0  0  0  0  0  0  0
   -4.5620   25.3950  -31.1890 N   0  0  0  0  0  0  0  0  0  0  0  0
   -3.5000   25.2020  -30.4620 O   0  0  0  0  0  0  0  0  0  0  0  0
   -2.8330   23.7067  -27.8304 H   0  0  0  0  0  0  0  0  0  0  0  0
   -2.3823   22.4808  -29.0635 H   0  0  0  0  0  0  0  0  0  0  0  0
   -1.5844   24.0902  -29.0635 H   0  0  0  0  0  0  0  0  0  0  0  0
   -5.1774   22.5107  -29.6899 H   0  0  0  0  0  0  0  0  0  0  0  0
   -8.1250   20.0366  -30.8302 H   0  0  0  0  0  0  0  0  0  0  0  0
   -6.9441   17.9737  -31.5817 H   0  0  0  0  0  0  0  0  0  0  0  0
   -4.5410   17.1530  -32.4290 H   0  0  0  0  0  0  0  0  0  0  0  0
   -4.8976   14.8401  -35.1470 H   0  0  0  0  0  0  0  0  0  0  0  0
   -3.1056   13.2212  -35.7832 H   0  0  0  0  0  0  0  0  0  0  0  0
   -1.0039   13.2963  -33.3933 H   0  0  0  0  0  0  0  0  0  0  0  0
    0.4530   11.9175  -31.9096 H   0  0  0  0  0  0  0  0  0  0  0  0
    2.5180   10.8511  -32.8216 H   0  0  0  0  0  0  0  0  0  0  0  0
    3.1191   11.1497  -35.2267 H   0  0  0  0  0  0  0  0  0  0  0  0
    1.6676   12.5248  -36.7167 H   0  0  0  0  0  0  0  0  0  0  0  0
   -1.8995   17.9462  -34.8061 H   0  0  0  0  0  0  0  0  0  0  0  0
   -4.1211   20.4013  -33.7971 H   0  0  0  0  0  0  0  0  0  0  0  0
   -5.2947   22.4614  -33.0293 H   0  0  0  0  0  0  0  0  0  0  0  0
  1  2  1  0
  2  3  2  0
  3  4  1  0
  4  5  2  3
  5  6  1  0
  6  7  2  0
  6  8  2  0
  6  9  1  0
  9 10  2  0
 10 11  1  0
 11 12  2  0
 12 13  1  0
 13 14  1  0
 14 15  2  0
 14 16  1  0
 16 17  2  0
 17 18  1  0
 18 19  2  0
 19 20  1  0
 20 21  1  0
 21 22  2  0
 22 23  1  0
 23 24  2  0
 24 25  1  0
 25 26  2  0
 19 27  1  0
 27 28  2  0
 12 29  1  0
 29 30  2  0
  4 31  1  0
 31 32  1  0
 32  2  1  0
 30  9  1  0
 28 16  1  0
 26 21  1  0
  1 33  1  0
  1 34  1  0
  1 35  1  0
  3 36  1  0
 10 37  1  0
 11 38  1  0
 13 39  1  0
 17 40  1  0
 18 41  1  0
 22 42  1  0
 23 43  1  0
 24 44  1  0
 25 45  1  0
 26 46  1  0
 28 47  1  0
 29 48  1  0
 30 49  1  0
M  CHG  1  31  -1
M  END
>  <UniqueID>  (37) 
36

>  <SMILES>  (37) 
Cc1cc(=NS(=O)(=O)c2ccc(NC(=O)c3ccc(Oc4ccccc4)nc3)cc2)[n-]o1

>  <Energy>  (37) 
97.86074587441387

>  <Genealogy>  (37) 
Cc1cc(=NS(=O)(=O)c2ccc(NC(=O)c3ccc(Oc4ccccc4)nc3)cc2)[n-]o1 (protonated)
Cc1cc(=NS(=O)(=O)c2ccc(NC(=O)c3ccc(Oc4ccccc4)nc3)cc2)[n-]o1 (3D coordinates assigned)
Cc1cc(=NS(=O)(=O)c2ccc(NC(=O)c3ccc(Oc4ccccc4)nc3)cc2)[n-]o1 (optimized conformer: 97.86074587441387 kcal/mol)

>  <smiles>  (37) 
Cc1cc(=NS(=O)(=O)c2ccc(NC(=O)c3ccc(Oc4ccccc4)nc3)cc2)[nH]o1

>  <score_type>  (37) 
oracle

>  <origin>  (37) 
adgpu

>  <m_score__min__energy>  (37) 
-9.7200000000000006

>  <m_primary>  (37) 
energy

$$$$
38:0
     RDKit          3D

 53 56  0  0  0  0  0  0  0  0999 V2000
    0.3150   17.4820  -30.0340 C   0  0  0  0  0  0  0  0  0  0  0  0
    1.1270   17.6590  -28.8180 N   0  0  0  0  0  0  0  0  0  0  0  0
    1.8310   18.9690  -28.8090 C   0  0  0  0  0  0  0  0  0  0  0  0
    1.2050   20.0100  -27.8630 C   0  0  0  0  0  0  0  0  0  0  0  0
   -0.2440   19.8060  -27.7680 N   0  0  0  0  0  0  0  0  0  0  0  0
   -1.1690   20.8700  -28.0650 C   0  0  0  0  0  0  0  0  0  0  0  0
   -2.5530   20.6400  -28.0230 C   0  0  0  0  0  0  0  0  0  0  0  0
   -3.4500   21.6750  -28.2940 C   0  0  0  0  0  0  0  0  0  0  0  0
   -2.9840   22.9520  -28.6250 C   0  0  0  0  0  0  0  0  0  0  0  0
   -3.9410   23.9830  -28.8950 N   0  0  0  0  0  0  0  0  0  0  0  0
   -4.4050   24.3350  -30.2040 C   0  0  0  0  0  0  0  0  0  0  0  0
   -3.8770   25.3040  -30.8150 O   0  0  0  0  0  0  0  0  0  0  0  0
   -5.4750   23.5430  -30.8540 C   0  0  0  0  0  0  0  0  0  0  0  0
   -6.4960   24.1800  -31.5830 C   0  0  0  0  0  0  0  0  0  0  0  0
   -7.5060   23.4290  -32.1880 C   0  0  0  0  0  0  0  0  0  0  0  0
   -7.5060   22.0380  -32.0840 C   0  0  0  0  0  0  0  0  0  0  0  0
   -6.4830   21.3810  -31.3790 C   0  0  0  0  0  0  0  0  0  0  0  0
   -6.4580   19.9860  -31.2370 O   0  0  0  0  0  0  0  0  0  0  0  0
   -6.3510   19.0640  -32.2880 C   0  0  0  0  0  0  0  0  0  0  0  0
   -6.7950   17.7340  -32.1610 C   0  0  0  0  0  0  0  0  0  0  0  0
   -6.6850   16.8500  -33.2390 C   0  0  0  0  0  0  0  0  0  0  0  0
   -6.1440   17.2870  -34.4510 C   0  0  0  0  0  0  0  0  0  0  0  0
   -5.7190   18.6110  -34.5890 C   0  0  0  0  0  0  0  0  0  0  0  0
   -5.8280   19.4980  -33.5130 C   0  0  0  0  0  0  0  0  0  0  0  0
   -5.4840   22.1380  -30.7560 C   0  0  0  0  0  0  0  0  0  0  0  0
   -1.5960   23.2030  -28.6270 C   0  0  0  0  0  0  0  0  0  0  0  0
   -0.9450   24.8190  -28.8740 Cl  0  0  0  0  0  0  0  0  0  0  0  0
   -0.7000   22.1620  -28.3520 C   0  0  0  0  0  0  0  0  0  0  0  0
   -0.7390   18.4830  -27.3750 C   0  0  0  0  0  0  0  0  0  0  0  0
    0.3410   17.4090  -27.5890 C   0  0  0  0  0  0  0  0  0  0  0  0
   -0.7237   17.2556  -29.7515 H   0  0  0  0  0  0  0  0  0  0  0  0
    0.3399   18.4067  -30.6293 H   0  0  0  0  0  0  0  0  0  0  0  0
    0.7224   16.6516  -30.6293 H   0  0  0  0  0  0  0  0  0  0  0  0
    2.8722   18.8000  -28.4969 H   0  0  0  0  0  0  0  0  0  0  0  0
    1.7550   19.3781  -29.8273 H   0  0  0  0  0  0  0  0  0  0  0  0
    1.6522   19.9069  -26.8633 H   0  0  0  0  0  0  0  0  0  0  0  0
    1.3989   21.0170  -28.2609 H   0  0  0  0  0  0  0  0  0  0  0  0
   -2.9333   19.6381  -27.7750 H   0  0  0  0  0  0  0  0  0  0  0  0
   -4.5324   21.4848  -28.2469 H   0  0  0  0  0  0  0  0  0  0  0  0
   -6.4987   25.2760  -31.6769 H   0  0  0  0  0  0  0  0  0  0  0  0
   -8.3048   23.9364  -32.7488 H   0  0  0  0  0  0  0  0  0  0  0  0
   -8.3096   21.4532  -32.5555 H   0  0  0  0  0  0  0  0  0  0  0  0
   -7.2297   17.3892  -31.2112 H   0  0  0  0  0  0  0  0  0  0  0  0
   -7.0248   15.8092  -33.1327 H   0  0  0  0  0  0  0  0  0  0  0  0
   -6.0527   16.5890  -35.2962 H   0  0  0  0  0  0  0  0  0  0  0  0
   -5.2982   18.9561  -35.5450 H   0  0  0  0  0  0  0  0  0  0  0  0
   -5.5013   20.5419  -33.6293 H   0  0  0  0  0  0  0  0  0  0  0  0
   -4.6955   21.6289  -30.1823 H   0  0  0  0  0  0  0  0  0  0  0  0
    0.3822   22.3587  -28.3610 H   0  0  0  0  0  0  0  0  0  0  0  0
   -1.0202   18.5046  -26.3118 H   0  0  0  0  0  0  0  0  0  0  0  0
   -1.6113   18.2342  -27.9973 H   0  0  0  0  0  0  0  0  0  0  0  0
    1.0212   17.4105  -26.7245 H   0  0  0  0  0  0  0  0  0  0  0  0
   -0.1602   16.4356  -27.6951 H   0  0  0  0  0  0  0  0  0  0  0  0
  1  2  1  0
  2  3  1  0
  3  4  1  0
  4  5  1  0
  5  6  1  0
  6  7  2  0
  7  8  1  0
  8  9  2  0
  9 10  1  0
 10 11  1  0
 11 12  2  0
 11 13  1  0
 13 14  2  0
 14 15  1  0
 15 16  2  0
 16 17  1  0
 17 18  1  0
 18 19  1  0
 19 20  2  0
 20 21  1  0
 21 22  2  0
 22 23  1  0
 23 24  2  0
 17 25  2  0
  9 26  1  0
 26 27  1  0
 26 28  2  0
  5 29  1  0
 29 30  1  0
 30  2  1  0
 28  6  1  0
 25 13  1  0
 24 19  1  0
  1 31  1  0
  1 32  1  0
  1 33  1  0
  3 34  1  0
  3 35  1  0
  4 36  1  0
  4 37  1  0
  7 38  1  0
  8 39  1  0
 14 40  1  0
 15 41  1  0
 16 42  1  0
 20 43  1  0
 21 44  1  0
 22 45  1  0
 23 46  1  0
 24 47  1  0
 25 48  1  0
 28 49  1  0
 29 50  1  0
 29 51  1  0
 30 52  1  0
 30 53  1  0
M  CHG  1  10  -1
M  END
>  <UniqueID>  (38) 
37

>  <SMILES>  (38) 
CN1CCN(c2ccc([N-]C(=O)c3cccc(Oc4ccccc4)c3)c(Cl)c2)CC1

>  <Energy>  (38) 
82.18399626123745

>  <Genealogy>  (38) 
CN1CCN(c2ccc([N-]C(=O)c3cccc(Oc4ccccc4)c3)c(Cl)c2)CC1 (protonated)
CN1CCN(c2ccc([N-]C(=O)c3cccc(Oc4ccccc4)c3)c(Cl)c2)CC1 (3D coordinates assigned)
CN1CCN(c2ccc([N-]C(=O)c3cccc(Oc4ccccc4)c3)c(Cl)c2)CC1 (nonaromatic ring conformer: 82.18399626123745 kcal/mol)

>  <smiles>  (38) 
CN1CCN(c2ccc(NC(=O)c3cccc(Oc4ccccc4)c3)c(Cl)c2)CC1

>  <score_type>  (38) 
oracle

>  <origin>  (38) 
adgpu

>  <m_score__min__energy>  (38) 
-11.16

>  <m_primary>  (38) 
energy

$$$$
39:0
     RDKit          3D

 37 39  0  0  0  0  0  0  0  0999 V2000
   -1.9570   25.0600  -29.1790 N   0  0  0  0  0  0  0  0  0  0  0  0
   -1.8860   23.6770  -29.6390 C   0  0  0  0  0  0  0  0  0  0  0  0
   -3.0850   23.3590  -30.4950 C   0  0  0  0  0  0  0  0  0  0  0  0
   -3.2760   22.0470  -30.9620 C   0  0  0  0  0  0  0  0  0  0  0  0
   -4.4010   21.7170  -31.7400 C   0  0  0  0  0  0  0  0  0  0  0  0
   -4.5940   20.3310  -32.2370 C   0  0  0  0  0  0  0  0  0  0  0  0
   -3.5040   19.5900  -32.7270 C   0  0  0  0  0  0  0  0  0  0  0  0
   -3.6840   18.2850  -33.1940 C   0  0  0  0  0  0  0  0  0  0  0  0
   -4.9590   17.6920  -33.1840 C   0  0  0  0  0  0  0  0  0  0  0  0
   -5.1500   16.3060  -33.6810 C   0  0  0  0  0  0  0  0  0  0  0  0
   -6.4440   15.7940  -33.8950 C   0  0  0  0  0  0  0  0  0  0  0  0
   -6.6220   14.4890  -34.3650 C   0  0  0  0  0  0  0  0  0  0  0  0
   -7.9030   13.9960  -34.5760 O   0  0  0  0  0  0  0  0  0  0  0  0
   -5.5120   13.6800  -34.6230 C   0  0  0  0  0  0  0  0  0  0  0  0
   -4.2220   14.1750  -34.4140 C   0  0  0  0  0  0  0  0  0  0  0  0
   -3.1200   13.3690  -34.6690 O   0  0  0  0  0  0  0  0  0  0  0  0
   -4.0400   15.4810  -33.9470 C   0  0  0  0  0  0  0  0  0  0  0  0
   -6.0480   18.4340  -32.6960 C   0  0  0  0  0  0  0  0  0  0  0  0
   -5.8680   19.7370  -32.2260 C   0  0  0  0  0  0  0  0  0  0  0  0
   -5.3410   22.7190  -32.0370 C   0  0  0  0  0  0  0  0  0  0  0  0
   -5.1660   24.0190  -31.5610 C   0  0  0  0  0  0  0  0  0  0  0  0
   -4.0470   24.3420  -30.7860 C   0  0  0  0  0  0  0  0  0  0  0  0
   -3.9020   25.6420  -30.3110 O   0  0  0  0  0  0  0  0  0  0  0  0
   -2.0070   25.6750  -30.0230 H   0  0  0  0  0  0  0  0  0  0  0  0
   -2.8590   25.1890  -28.6640 H   0  0  0  0  0  0  0  0  0  0  0  0
   -0.9686   23.5356  -30.2293 H   0  0  0  0  0  0  0  0  0  0  0  0
   -1.8747   23.0056  -28.7677 H   0  0  0  0  0  0  0  0  0  0  0  0
   -2.5376   21.2695  -30.7165 H   0  0  0  0  0  0  0  0  0  0  0  0
   -2.5010   20.0413  -32.7429 H   0  0  0  0  0  0  0  0  0  0  0  0
   -2.8212   17.7172  -33.5725 H   0  0  0  0  0  0  0  0  0  0  0  0
   -7.3215   16.4252  -33.6910 H   0  0  0  0  0  0  0  0  0  0  0  0
   -5.6538   12.6531  -34.9908 H   0  0  0  0  0  0  0  0  0  0  0  0
   -3.0224   15.8665  -33.7863 H   0  0  0  0  0  0  0  0  0  0  0  0
   -7.0519   17.9844  -32.6840 H   0  0  0  0  0  0  0  0  0  0  0  0
   -6.7304   20.3030  -31.8441 H   0  0  0  0  0  0  0  0  0  0  0  0
   -6.2218   22.4764  -32.6497 H   0  0  0  0  0  0  0  0  0  0  0  0
   -5.9112   24.7932  -31.7962 H   0  0  0  0  0  0  0  0  0  0  0  0
  1  2  1  0
  2  3  1  0
  3  4  2  0
  4  5  1  0
  5  6  1  0
  6  7  2  0
  7  8  1  0
  8  9  2  0
  9 10  1  0
 10 11  2  0
 11 12  1  0
 12 13  1  0
 12 14  2  0
 14 15  1  0
 15 16  1  0
 15 17  2  0
  9 18  1  0
 18 19  2  0
  5 20  2  0
 20 21  1  0
 21 22  2  0
 22 23  1  0
 22  3  1  0
 19  6  1  0
 17 10  1  0
  1 24  1  0
  1 25  1  0
  2 26  1  0
  2 27  1  0
  4 28  1  0
  7 29  1  0
  8 30  1  0
 11 31  1  0
 14 32  1  0
 17 33  1  0
 18 34  1  0
 19 35  1  0
 20 36  1  0
 21 37  1  0
M  CHG  3  13  -1  16  -1  23  -1
M  END
>  <UniqueID>  (39) 
38

>  <SMILES>  (39) 
NCc1cc(-c2ccc(-c3cc([O-])cc([O-])c3)cc2)ccc1[O-]

>  <Energy>  (39) 
49.544130556814615

>  <Genealogy>  (39) 
NCc1cc(-c2ccc(-c3cc([O-])cc([O-])c3)cc2)ccc1[O-] (protonated)
NCc1cc(-c2ccc(-c3cc([O-])cc([O-])c3)cc2)ccc1[O-] (3D coordinates assigned)
NCc1cc(-c2ccc(-c3cc([O-])cc([O-])c3)cc2)ccc1[O-] (optimized conformer: 49.544130556814615 kcal/mol)

>  <smiles>  (39) 
NCc1cc(-c2ccc(-c3cc(O)cc(O)c3)cc2)ccc1O

>  <score_type>  (39) 
oracle

>  <origin>  (39) 
adgpu

>  <m_score__min__energy>  (39) 
-9.9900000000000002

>  <m_primary>  (39) 
energy

$$$$
40:0
     RDKit          3D

 53 55  0  0  1  0  0  0  0  0999 V2000
    0.6070   21.7390  -35.6930 C   0  0  0  0  0  0  0  0  0  0  0  0
    1.4750   20.6730  -36.0060 O   0  0  0  0  0  0  0  0  0  0  0  0
    1.2280   19.3440  -35.8030 C   0  0  0  0  0  0  0  0  0  0  0  0
    2.3130   18.4900  -35.7200 C   0  0  0  0  0  0  0  0  0  0  0  0
    2.1880   17.1340  -35.5180 C   0  0  0  0  0  0  0  0  0  0  0  0
    0.9140   16.6010  -35.3920 C   0  0  0  0  0  0  0  0  0  0  0  0
   -0.1950   17.4330  -35.4710 C   0  0  0  0  0  0  0  0  0  0  0  0
   -1.4730   16.8240  -35.3340 N   0  0  0  0  0  0  0  0  0  0  0  0
   -2.5750   17.4540  -34.6970 C   0  0  0  0  0  0  0  0  0  0  0  0
   -2.4740   18.6180  -34.2060 O   0  0  0  0  0  0  0  0  0  0  0  0
   -3.8340   16.7700  -34.6000 N   0  0  0  0  0  0  0  0  0  0  0  0
   -4.9020   17.4390  -33.9560 C   0  0  0  0  0  0  0  0  0  0  0  0
   -5.4560   17.0300  -32.7600 C   0  0  0  0  0  0  0  0  0  0  0  0
   -6.5100   17.7320  -32.1740 C   0  0  0  0  0  0  0  0  0  0  0  0
   -7.0430   18.8630  -32.7650 C   0  0  0  0  0  0  0  0  0  0  0  0
   -8.3390   19.7940  -32.1040 S   0  0  0  0  0  0  0  0  0  0  0  0
   -9.4480   19.7770  -33.1610 O   0  0  0  0  0  0  0  0  0  0  0  0
   -8.9080   19.1400  -30.8800 O   0  0  0  0  0  0  0  0  0  0  0  0
   -7.9670   21.4560  -31.8740 N   0  0  0  0  0  0  0  0  0  0  0  0
   -6.8120   21.9630  -31.7280 C   0  0  0  0  0  0  0  0  0  0  0  0
   -5.7000   21.1540  -31.7460 C   0  0  0  0  0  0  0  0  0  0  0  0
   -4.4120   21.6130  -31.5980 C   0  0  0  0  0  0  0  0  0  0  0  0
   -3.3100   20.7640  -31.6220 O   0  0  0  0  0  0  0  0  0  0  0  0
   -2.2070   21.0020  -32.4770 C   0  0  0  0  0  0  0  0  0  0  0  0
   -4.2650   22.9460  -31.4240 N   0  0  0  0  0  0  0  0  0  0  0  0
   -5.3430   23.7720  -31.4010 C   0  0  0  0  0  0  0  0  0  0  0  0
   -5.2230   25.1430  -31.2250 O   0  0  0  0  0  0  0  0  0  0  0  0
   -5.7650   25.8170  -30.1030 C   0  0  0  0  0  0  0  0  0  0  0  0
   -6.6060   23.2940  -31.5510 N   0  0  0  0  0  0  0  0  0  0  0  0
   -6.4660   19.2480  -33.9640 C   0  0  0  0  0  0  0  0  0  0  0  0
   -5.4260   18.5660  -34.5540 C   0  0  0  0  0  0  0  0  0  0  0  0
   -0.0270   18.7860  -35.6750 C   0  0  0  0  0  0  0  0  0  0  0  0
    0.5266   21.8377  -34.6004 H   0  0  0  0  0  0  0  0  0  0  0  0
    1.0050   22.6726  -36.1172 H   0  0  0  0  0  0  0  0  0  0  0  0
   -0.3879   21.5384  -36.1172 H   0  0  0  0  0  0  0  0  0  0  0  0
    3.3230   18.9142  -35.8201 H   0  0  0  0  0  0  0  0  0  0  0  0
    3.0770   16.4890  -35.4580 H   0  0  0  0  0  0  0  0  0  0  0  0
    0.7821   15.5211  -35.2298 H   0  0  0  0  0  0  0  0  0  0  0  0
   -1.6470   15.8610  -35.7120 H   0  0  0  0  0  0  0  0  0  0  0  0
   -3.9390   15.7930  -35.0060 H   0  0  0  0  0  0  0  0  0  0  0  0
   -5.0595   16.1343  -32.2595 H   0  0  0  0  0  0  0  0  0  0  0  0
   -6.9267   17.3775  -31.2197 H   0  0  0  0  0  0  0  0  0  0  0  0
   -5.8499   20.0735  -31.8875 H   0  0  0  0  0  0  0  0  0  0  0  0
   -1.3091   21.1957  -31.8718 H   0  0  0  0  0  0  0  0  0  0  0  0
   -2.0380   20.1196  -33.1117 H   0  0  0  0  0  0  0  0  0  0  0  0
   -2.4169   21.8755  -33.1117 H   0  0  0  0  0  0  0  0  0  0  0  0
   -5.3905   25.3514  -29.1794 H   0  0  0  0  0  0  0  0  0  0  0  0
   -5.4627   26.8743  -30.1292 H   0  0  0  0  0  0  0  0  0  0  0  0
   -6.8626   25.7487  -30.1292 H   0  0  0  0  0  0  0  0  0  0  0  0
   -7.4410   23.8890  -31.5390 H   0  0  0  0  0  0  0  0  0  0  0  0
   -6.8582   20.1428  -34.4696 H   0  0  0  0  0  0  0  0  0  0  0  0
   -5.0103   18.9220  -35.5082 H   0  0  0  0  0  0  0  0  0  0  0  0
   -0.9131   19.4348  -35.7371 H   0  0  0  0  0  0  0  0  0  0  0  0
  1  2  1  0
  2  3  1  0
  3  4  2  0
  4  5  1  0
  5  6  2  0
  6  7  1  0
  7  8  1  0
  8  9  1  0
  9 10  2  0
  9 11  1  0
 11 12  1  0
 12 13  2  0
 13 14  1  0
 14 15  2  0
 15 16  1  0
 16 17  2  0
 16 18  2  0
 16 19  1  0
 19 20  2  0
 20 21  1  0
 21 22  2  0
 22 23  1  0
 23 24  1  0
 22 25  1  0
 25 26  2  0
 26 27  1  0
 27 28  1  0
 26 29  1  0
 15 30  1  0
 30 31  2  0
  7 32  2  0
 32  3  1  0
 31 12  1  0
 29 20  1  0
  1 33  1  0
  1 34  1  0
  1 35  1  0
  4 36  1  0
  5 37  1  0
  6 38  1  0
  8 39  1  0
 11 40  1  0
 13 41  1  0
 14 42  1  0
 21 43  1  0
 24 44  1  0
 24 45  1  0
 24 46  1  0
 28 47  1  0
 28 48  1  0
 28 49  1  0
 29 50  1  0
 30 51  1  0
 31 52  1  0
 32 53  1  0
M  END
>  <smiles>  (40) 
COc1cccc(NC(=O)Nc2ccc(S(=O)(=O)N=c3cc(OC)nc(OC)[nH]3)cc2)c1

>  <score_type>  (40) 
oracle

>  <origin>  (40) 
adgpu

>  <m_score__min__energy>  (40) 
-8.6699999999999999

>  <m_primary>  (40) 
energy

$$$$
41:0
     RDKit          3D

 42 45  0  0  0  0  0  0  0  0999 V2000
   -5.0840   26.2540  -30.4200 O   0  0  0  0  0  0  0  0  0  0  0  0
   -5.0280   25.0710  -30.8490 C   0  0  0  0  0  0  0  0  0  0  0  0
   -6.1110   24.5220  -31.5350 C   0  0  0  0  0  0  0  0  0  0  0  0
   -6.0070   23.2070  -32.0020 C   0  0  0  0  0  0  0  0  0  0  0  0
   -7.1560   22.5500  -32.7110 C   0  0  0  0  0  0  0  0  0  0  0  0
   -7.3290   21.1710  -32.2300 N   0  0  0  0  0  0  0  0  0  0  0  0
   -8.3550   20.9060  -31.2120 C   0  0  0  0  0  0  0  0  0  0  0  0
   -9.1100   19.6270  -31.5590 C   0  0  0  0  0  0  0  0  0  0  0  0
   -8.1430   18.4420  -31.6020 C   0  0  0  0  0  0  0  0  0  0  0  0
   -6.9170   18.7350  -32.4330 C   0  0  0  0  0  0  0  0  0  0  0  0
   -6.1290   17.6600  -32.8780 C   0  0  0  0  0  0  0  0  0  0  0  0
   -4.9610   17.8930  -33.6020 C   0  0  0  0  0  0  0  0  0  0  0  0
   -4.5600   19.1990  -33.8790 C   0  0  0  0  0  0  0  0  0  0  0  0
   -5.3240   20.2790  -33.4330 C   0  0  0  0  0  0  0  0  0  0  0  0
   -6.5110   20.0670  -32.7000 C   0  0  0  0  0  0  0  0  0  0  0  0
   -4.8700   22.5010  -31.7620 N   0  0  0  0  0  0  0  0  0  0  0  0
   -3.8210   23.0460  -31.0890 C   0  0  0  0  0  0  0  0  0  0  0  0
   -2.5970   22.2450  -30.8370 C   0  0  0  0  0  0  0  0  0  0  0  0
   -2.1980   21.2430  -31.7430 C   0  0  0  0  0  0  0  0  0  0  0  0
   -1.0460   20.4870  -31.5020 C   0  0  0  0  0  0  0  0  0  0  0  0
   -0.2800   20.7220  -30.3590 C   0  0  0  0  0  0  0  0  0  0  0  0
   -0.6640   21.7120  -29.4520 C   0  0  0  0  0  0  0  0  0  0  0  0
   -1.8150   22.4700  -29.6870 C   0  0  0  0  0  0  0  0  0  0  0  0
   -3.9110   24.3280  -30.6400 N   0  0  0  0  0  0  0  0  0  0  0  0
   -7.0256   25.1090  -31.7050 H   0  0  0  0  0  0  0  0  0  0  0  0
   -8.0764   23.1204  -32.5172 H   0  0  0  0  0  0  0  0  0  0  0  0
   -6.9467   22.5296  -33.7907 H   0  0  0  0  0  0  0  0  0  0  0  0
   -7.8734   20.7906  -30.2298 H   0  0  0  0  0  0  0  0  0  0  0  0
   -9.0622   21.7480  -31.1818 H   0  0  0  0  0  0  0  0  0  0  0  0
   -9.8803   19.4407  -30.7962 H   0  0  0  0  0  0  0  0  0  0  0  0
   -9.5816   19.7433  -32.5459 H   0  0  0  0  0  0  0  0  0  0  0  0
   -7.8267   18.2057  -30.5753 H   0  0  0  0  0  0  0  0  0  0  0  0
   -8.6692   17.5939  -32.0645 H   0  0  0  0  0  0  0  0  0  0  0  0
   -6.4360   16.6278  -32.6535 H   0  0  0  0  0  0  0  0  0  0  0  0
   -4.3551   17.0455  -33.9551 H   0  0  0  0  0  0  0  0  0  0  0  0
   -3.6380   19.3793  -34.4512 H   0  0  0  0  0  0  0  0  0  0  0  0
   -4.9974   21.3056  -33.6552 H   0  0  0  0  0  0  0  0  0  0  0  0
   -2.7965   21.0537  -32.6463 H   0  0  0  0  0  0  0  0  0  0  0  0
   -0.7431   19.7057  -32.2147 H   0  0  0  0  0  0  0  0  0  0  0  0
    0.6264   20.1272  -30.1726 H   0  0  0  0  0  0  0  0  0  0  0  0
   -0.0599   21.8957  -28.5513 H   0  0  0  0  0  0  0  0  0  0  0  0
   -2.1123   23.2480  -28.9685 H   0  0  0  0  0  0  0  0  0  0  0  0
  1  2  2  0
  2  3  1  0
  3  4  2  0
  4  5  1  0
  5  6  1  0
  6  7  1  0
  7  8  1  0
  8  9  1  0
  9 10  1  0
 10 11  2  0
 11 12  1  0
 12 13  2  0
 13 14  1  0
 14 15  2  0
  4 16  1  0
 16 17  1  0
 17 18  1  0
 18 19  2  0
 19 20  1  0
 20 21  2  0
 21 22  1  0
 22 23  2  0
 17 24  2  0
 24  2  1  0
 15  6  1  0
 23 18  1  0
 15 10  1  0
  3 25  1  0
  5 26  1  0
  5 27  1  0
  7 28  1  0
  7 29  1  0
  8 30  1  0
  8 31  1  0
  9 32  1  0
  9 33  1  0
 11 34  1  0
 12 35  1  0
 13 36  1  0
 14 37  1  0
 19 38  1  0
 20 39  1  0
 21 40  1  0
 22 41  1  0
 23 42  1  0
M  CHG  1  16  -1
M  END
>  <UniqueID>  (41) 
39

>  <SMILES>  (41) 
O=c1cc(CN2CCCc3ccccc32)[n-]c(-c2ccccc2)n1

>  <Energy>  (41) 
48.08250264768747

>  <Genealogy>  (41) 
O=c1cc(CN2CCCc3ccccc32)[n-]c(-c2ccccc2)n1 (protonated)
O=c1cc(CN2CCCc3ccccc32)[n-]c(-c2ccccc2)n1 (3D coordinates assigned)
O=c1cc(CN2CCCc3ccccc32)[n-]c(-c2ccccc2)n1 (nonaromatic ring conformer: 48.08250264768747 kcal/mol)

>  <smiles>  (41) 
O=c1cc(CN2CCCc3ccccc32)[nH]c(-c2ccccc2)n1

>  <score_type>  (41) 
oracle

>  <origin>  (41) 
adgpu

>  <m_score__min__energy>  (41) 
-9.5399999999999991

>  <m_primary>  (41) 
energy

$$$$
42:0
     RDKit          3D

 38 39  0  0  0  0  0  0  0  0999 V2000
   -6.7490   17.3950  -33.3000 C   0  0  0  0  0  0  0  0  0  0  0  0
   -6.7650   18.8630  -32.9600 C   0  0  0  0  0  0  0  0  0  0  0  0
   -5.6440   19.6520  -33.2650 C   0  0  0  0  0  0  0  0  0  0  0  0
   -5.6300   21.0140  -32.9620 C   0  0  0  0  0  0  0  0  0  0  0  0
   -6.7390   21.6200  -32.3550 C   0  0  0  0  0  0  0  0  0  0  0  0
   -6.7160   23.0690  -32.0440 C   0  0  0  0  0  0  0  0  0  0  0  0
   -7.8020   23.7060  -31.9920 O   0  0  0  0  0  0  0  0  0  0  0  0
   -5.4900   23.7870  -31.8470 N   0  0  0  0  0  0  0  0  0  0  0  0
   -4.5960   23.6460  -30.7320 C   0  0  0  0  0  0  0  0  0  0  0  0
   -4.5920   22.4920  -29.9320 C   0  0  0  0  0  0  0  0  0  0  0  0
   -3.7150   22.3910  -28.8510 C   0  0  0  0  0  0  0  0  0  0  0  0
   -2.8490   23.4440  -28.5510 C   0  0  0  0  0  0  0  0  0  0  0  0
   -2.8590   24.6130  -29.3220 C   0  0  0  0  0  0  0  0  0  0  0  0
   -1.9570   25.6720  -28.9680 N   0  0  0  0  0  0  0  0  0  0  0  0
   -0.7020   25.5790  -27.7730 S   0  0  0  0  0  0  0  0  0  0  0  0
   -1.3730   25.0310  -26.2190 C   0  0  0  0  0  0  0  0  0  0  0  0
    0.3260   24.5840  -28.2320 O   0  0  0  0  0  0  0  0  0  0  0  0
   -0.0410   26.9200  -27.6170 O   0  0  0  0  0  0  0  0  0  0  0  0
   -3.7420   24.7100  -30.4120 C   0  0  0  0  0  0  0  0  0  0  0  0
   -7.8540   20.8310  -32.0260 C   0  0  0  0  0  0  0  0  0  0  0  0
   -7.8810   19.4580  -32.3260 C   0  0  0  0  0  0  0  0  0  0  0  0
   -9.1010   18.6480  -31.9720 C   0  0  0  0  0  0  0  0  0  0  0  0
   -6.7426   16.8038  -32.3724 H   0  0  0  0  0  0  0  0  0  0  0  0
   -7.6445   17.1450  -33.8879 H   0  0  0  0  0  0  0  0  0  0  0  0
   -5.8483   17.1646  -33.8879 H   0  0  0  0  0  0  0  0  0  0  0  0
   -4.7689   19.1920  -33.7472 H   0  0  0  0  0  0  0  0  0  0  0  0
   -4.7417   21.6171  -33.2013 H   0  0  0  0  0  0  0  0  0  0  0  0
   -5.2818   21.6655  -30.1579 H   0  0  0  0  0  0  0  0  0  0  0  0
   -3.7062   21.4801  -28.2344 H   0  0  0  0  0  0  0  0  0  0  0  0
   -2.1539   23.3549  -27.7031 H   0  0  0  0  0  0  0  0  0  0  0  0
   -0.8097   25.4910  -25.3937 H   0  0  0  0  0  0  0  0  0  0  0  0
   -2.4302   25.3272  -26.1512 H   0  0  0  0  0  0  0  0  0  0  0  0
   -1.2940   23.9359  -26.1512 H   0  0  0  0  0  0  0  0  0  0  0  0
   -3.7626   25.6278  -31.0180 H   0  0  0  0  0  0  0  0  0  0  0  0
   -8.7178   21.2942  -31.5267 H   0  0  0  0  0  0  0  0  0  0  0  0
   -9.1949   18.5857  -30.8778 H   0  0  0  0  0  0  0  0  0  0  0  0
   -9.9962   19.1317  -32.3899 H   0  0  0  0  0  0  0  0  0  0  0  0
   -9.0026   17.6352  -32.3899 H   0  0  0  0  0  0  0  0  0  0  0  0
  1  2  1  0
  2  3  2  0
  3  4  1  0
  4  5  2  0
  5  6  1  0
  6  7  2  0
  6  8  1  0
  8  9  1  0
  9 10  2  0
 10 11  1  0
 11 12  2  0
 12 13  1  0
 13 14  1  0
 14 15  1  0
 15 16  1  0
 15 17  2  0
 15 18  2  0
 13 19  2  0
  5 20  1  0
 20 21  2  0
 21 22  1  0
 21  2  1  0
 19  9  1  0
  1 23  1  0
  1 24  1  0
  1 25  1  0
  3 26  1  0
  4 27  1  0
 10 28  1  0
 11 29  1  0
 12 30  1  0
 16 31  1  0
 16 32  1  0
 16 33  1  0
 19 34  1  0
 20 35  1  0
 22 36  1  0
 22 37  1  0
 22 38  1  0
M  CHG  2   8  -1  14  -1
M  END
>  <UniqueID>  (42) 
40

>  <SMILES>  (42) 
Cc1ccc(C(=O)[N-]c2cccc([N-]S(C)(=O)=O)c2)cc1C

>  <Energy>  (42) 
43.93325320424252

>  <Genealogy>  (42) 
Cc1ccc(C(=O)[N-]c2cccc([N-]S(C)(=O)=O)c2)cc1C (protonated)
Cc1ccc(C(=O)[N-]c2cccc([N-]S(C)(=O)=O)c2)cc1C (3D coordinates assigned)
Cc1ccc(C(=O)[N-]c2cccc([N-]S(C)(=O)=O)c2)cc1C (optimized conformer: 43.93325320424252 kcal/mol)

>  <smiles>  (42) 
Cc1ccc(C(=O)Nc2cccc(NS(C)(=O)=O)c2)cc1C

>  <score_type>  (42) 
oracle

>  <origin>  (42) 
adgpu

>  <m_score__min__energy>  (42) 
-10.25

>  <m_primary>  (42) 
energy

$$$$
43:0
     RDKit          3D

 74 77  0  0  0  0  0  0  0  0999 V2000
   -1.4910   22.3854  -25.8218 H   0  0  0  0  0  0  0  0  0  0  0  0
   -1.3220   21.7170  -26.6790 C   0  0  0  0  0  0  0  0  0  0  0  0
   -2.3560   20.8970  -27.1400 C   0  0  0  0  0  0  0  0  0  0  0  0
   -3.3392   20.9232  -26.6474 H   0  0  0  0  0  0  0  0  0  0  0  0
   -2.1420   20.0440  -28.2260 C   0  0  0  0  0  0  0  0  0  0  0  0
   -2.9603   19.4065  -28.5919 H   0  0  0  0  0  0  0  0  0  0  0  0
   -0.8850   19.9980  -28.8520 C   0  0  0  0  0  0  0  0  0  0  0  0
   -0.6650   19.0980  -30.0370 C   0  0  0  0  0  0  0  0  0  0  0  0
   -1.5261   18.4221  -30.1452 H   0  0  0  0  0  0  0  0  0  0  0  0
    0.2529   18.5129  -29.8788 H   0  0  0  0  0  0  0  0  0  0  0  0
   -0.5160   19.9180  -31.2890 C   0  0  0  0  0  0  0  0  0  0  0  0
    0.4470   20.7250  -31.3830 O   0  0  0  0  0  0  0  0  0  0  0  0
   -1.5210   19.9110  -32.3100 N   0  0  0  0  0  0  0  0  0  0  0  0
   -2.6100   20.6300  -32.3610 C   0  0  0  0  0  0  0  0  0  0  0  0
   -3.1040   21.4290  -31.2130 C   0  0  0  0  0  0  0  0  0  0  0  0
   -4.1920   21.1100  -30.6610 O   0  0  0  0  0  0  0  0  0  0  0  0
   -2.3180   22.5090  -30.6870 N   0  0  0  0  0  0  0  0  0  0  0  0
   -2.7300   23.4940  -29.6850 C   0  0  2  0  0  0  0  0  0  0  0  0
   -2.9649   22.9614  -28.7517 H   0  0  0  0  0  0  0  0  0  0  0  0
   -3.9790   24.2050  -30.1370 C   0  0  0  0  0  0  0  0  0  0  0  0
   -3.9250   25.4100  -30.5030 O   0  0  0  0  0  0  0  0  0  0  0  0
   -5.2330   23.5110  -30.1450 N   0  0  0  0  0  0  0  0  0  0  0  0
   -5.3260   22.6280  -29.5930 H   0  0  0  0  0  0  0  0  0  0  0  0
   -6.2650   23.8140  -31.1310 C   0  0  0  0  0  0  0  0  0  0  0  0
   -5.7937   24.1740  -32.0574 H   0  0  0  0  0  0  0  0  0  0  0  0
   -6.9346   24.5924  -30.7363 H   0  0  0  0  0  0  0  0  0  0  0  0
   -7.0560   22.5690  -31.4210 C   0  0  0  0  0  0  0  0  0  0  0  0
   -6.7190   21.7630  -32.5200 C   0  0  0  0  0  0  0  0  0  0  0  0
   -5.8388   22.0117  -33.1311 H   0  0  0  0  0  0  0  0  0  0  0  0
   -7.4950   20.6470  -32.8420 C   0  0  0  0  0  0  0  0  0  0  0  0
   -7.2111   20.0092  -33.6921 H   0  0  0  0  0  0  0  0  0  0  0  0
   -8.6360   20.3360  -32.0850 C   0  0  0  0  0  0  0  0  0  0  0  0
   -9.4650   19.1270  -32.4180 C   0  0  0  0  0  0  0  0  0  0  0  0
   -9.3139   18.8613  -33.4747 H   0  0  0  0  0  0  0  0  0  0  0  0
  -10.5260   19.3558  -32.2394 H   0  0  0  0  0  0  0  0  0  0  0  0
   -9.0680   18.0030  -31.5750 N   0  0  0  0  0  0  0  0  0  0  0  0
   -8.6150   17.2910  -32.1910 H   0  0  0  0  0  0  0  0  0  0  0  0
   -9.9360   17.5530  -31.2010 H   0  0  0  0  0  0  0  0  0  0  0  0
   -8.9680   21.1380  -30.9830 C   0  0  0  0  0  0  0  0  0  0  0  0
   -9.8451   20.8862  -30.3687 H   0  0  0  0  0  0  0  0  0  0  0  0
   -8.1920   22.2550  -30.6600 C   0  0  0  0  0  0  0  0  0  0  0  0
   -8.4729   22.8896  -29.8066 H   0  0  0  0  0  0  0  0  0  0  0  0
   -1.5910   24.4730  -29.3420 C   0  0  0  0  0  0  0  0  0  0  0  0
   -0.6280   23.9499  -29.4371 H   0  0  0  0  0  0  0  0  0  0  0  0
   -1.6423   25.3232  -30.0381 H   0  0  0  0  0  0  0  0  0  0  0  0
   -1.7270   25.0000  -27.9360 C   0  0  0  0  0  0  0  0  0  0  0  0
   -2.9030   24.7670  -27.2030 C   0  0  0  0  0  0  0  0  0  0  0  0
   -3.7181   24.1773  -27.6478 H   0  0  0  0  0  0  0  0  0  0  0  0
   -3.0410   25.2820  -25.9100 C   0  0  0  0  0  0  0  0  0  0  0  0
   -3.9617   25.0933  -25.3384 H   0  0  0  0  0  0  0  0  0  0  0  0
   -2.0100   26.0360  -25.3440 C   0  0  0  0  0  0  0  0  0  0  0  0
   -2.1180   26.4373  -24.3255 H   0  0  0  0  0  0  0  0  0  0  0  0
   -0.8410   26.2810  -26.0710 C   0  0  0  0  0  0  0  0  0  0  0  0
   -0.0315   26.8768  -25.6241 H   0  0  0  0  0  0  0  0  0  0  0  0
   -0.6990   25.7710  -27.3630 C   0  0  0  0  0  0  0  0  0  0  0  0
    0.2191   25.9725  -27.9344 H   0  0  0  0  0  0  0  0  0  0  0  0
   -3.4690   20.5230  -33.5900 C   0  0  0  0  0  0  0  0  0  0  0  0
   -4.0210   21.4642  -33.7290 H   0  0  0  0  0  0  0  0  0  0  0  0
   -2.8237   20.3302  -34.4597 H   0  0  0  0  0  0  0  0  0  0  0  0
   -4.4500   19.3890  -33.4500 C   0  0  0  0  0  0  0  0  0  0  0  0
   -5.0410   18.8160  -34.5900 C   0  0  0  0  0  0  0  0  0  0  0  0
   -4.7601   19.1743  -35.5914 H   0  0  0  0  0  0  0  0  0  0  0  0
   -5.9840   17.7930  -34.4560 C   0  0  0  0  0  0  0  0  0  0  0  0
   -6.4436   17.3498  -35.3517 H   0  0  0  0  0  0  0  0  0  0  0  0
   -6.3450   17.3310  -33.1850 C   0  0  0  0  0  0  0  0  0  0  0  0
   -7.2890   16.3190  -33.0530 O   0  0  0  0  0  0  0  0  0  0  0  0
   -5.7590   17.8940  -32.0470 C   0  0  0  0  0  0  0  0  0  0  0  0
   -6.0337   17.5240  -31.0482 H   0  0  0  0  0  0  0  0  0  0  0  0
   -4.8240   18.9270  -32.1760 C   0  0  0  0  0  0  0  0  0  0  0  0
   -4.3799   19.3794  -31.2770 H   0  0  0  0  0  0  0  0  0  0  0  0
    0.1450   20.8350  -28.3920 C   0  0  0  0  0  0  0  0  0  0  0  0
    1.1271   20.8194  -28.8873 H   0  0  0  0  0  0  0  0  0  0  0  0
   -0.0750   21.6880  -27.3060 C   0  0  0  0  0  0  0  0  0  0  0  0
    0.7361   22.3375  -26.9450 H   0  0  0  0  0  0  0  0  0  0  0  0
  1  2  1  0
  2  3  2  0
  3  4  1  0
  3  5  1  0
  5  6  1  0
  5  7  2  0
  7  8  1  0
  8  9  1  0
  8 10  1  0
  8 11  1  0
 11 12  2  0
 11 13  1  0
 13 14  2  0
 14 15  1  0
 15 16  2  0
 15 17  1  0
 17 18  1  0
 18 19  1  1
 18 20  1  0
 20 21  2  0
 20 22  1  0
 22 23  1  0
 22 24  1  0
 24 25  1  0
 24 26  1  0
 24 27  1  0
 27 28  2  0
 28 29  1  0
 28 30  1  0
 30 31  1  0
 30 32  2  0
 32 33  1  0
 33 34  1  0
 33 35  1  0
 33 36  1  0
 36 37  1  0
 36 38  1  0
 32 39  1  0
 39 40  1  0
 39 41  2  0
 41 42  1  0
 18 43  1  0
 43 44  1  0
 43 45  1  0
 43 46  1  0
 46 47  2  0
 47 48  1  0
 47 49  1  0
 49 50  1  0
 49 51  2  0
 51 52  1  0
 51 53  1  0
 53 54  1  0
 53 55  2  0
 55 56  1  0
 14 57  1  0
 57 58  1  0
 57 59  1  0
 57 60  1  0
 60 61  2  0
 61 62  1  0
 61 63  1  0
 63 64  1  0
 63 65  2  0
 65 66  1  0
 65 67  1  0
 67 68  1  0
 67 69  2  0
 69 70  1  0
  7 71  1  0
 71 72  1  0
 71 73  2  0
 73 74  1  0
 73  2  1  0
 41 27  1  0
 55 46  1  0
 69 60  1  0
M  CHG  2  17  -1  66  -1
M  END
>  <UniqueID>  (43) 
41

>  <SMILES>  (43) 
NCc1ccc(CNC(=O)[C@H](Cc2ccccc2)[N-]C(=O)/C(Cc2ccc([O-])cc2)=N\C(=O)Cc2ccccc2)cc1

>  <Energy>  (43) 
74.64457389159199

>  <Genealogy>  (43) 
NCc1ccc(CNC(=O)C(Cc2ccccc2)[N-]C(=O)C(Cc2ccc([O-])cc2)=NC(=O)Cc2ccccc2)cc1 (protonated)
NCc1ccc(CNC(=O)[C@H](Cc2ccccc2)[N-]C(=O)C(Cc2ccc([O-])cc2)=NC(=O)Cc2ccccc2)cc1 (chirality)
NCc1ccc(CNC(=O)[C@H](Cc2ccccc2)[N-]C(=O)/C(Cc2ccc([O-])cc2)=N\C(=O)Cc2ccccc2)cc1 (cis-trans isomerization)
NCc1ccc(CNC(=O)[C@H](Cc2ccccc2)[N-]C(=O)/C(Cc2ccc([O-])cc2)=N\C(=O)Cc2ccccc2)cc1 (3D coordinates assigned)
NCc1ccc(CNC(=O)[C@H](Cc2ccccc2)[N-]C(=O)/C(Cc2ccc([O-])cc2)=N\C(=O)Cc2ccccc2)cc1 (optimized conformer: 74.64457389159199 kcal/mol)

>  <smiles>  (43) 
NCc1ccc(CNC(=O)C(Cc2ccccc2)NC(=O)C(Cc2ccc(O)cc2)=NC(=O)Cc2ccccc2)cc1

>  <score_type>  (43) 
oracle

>  <origin>  (43) 
adgpu

>  <m_score__min__energy>  (43) 
-13.01

>  <m_primary>  (43) 
energy

$$$$
44:0
     RDKit          3D

 61 65  0  0  0  0  0  0  0  0999 V2000
   -4.9780   23.8190  -31.3040 O   0  0  0  0  0  0  0  0  0  0  0  0
   -4.5310   22.7400  -31.7790 C   0  0  0  0  0  0  0  0  0  0  0  0
   -5.3780   21.9470  -32.6210 N   0  0  0  0  0  0  0  0  0  0  0  0
   -6.7980   21.8980  -32.4190 C   0  0  0  0  0  0  0  0  0  0  0  0
   -7.5050   23.0940  -32.2340 C   0  0  0  0  0  0  0  0  0  0  0  0
   -8.8790   23.0700  -31.9790 C   0  0  0  0  0  0  0  0  0  0  0  0
   -9.5600   21.8530  -31.9230 C   0  0  0  0  0  0  0  0  0  0  0  0
   -8.8730   20.6580  -32.1390 C   0  0  0  0  0  0  0  0  0  0  0  0
   -7.4940   20.6660  -32.4010 C   0  0  0  0  0  0  0  0  0  0  0  0
   -6.8240   19.4330  -32.7120 N   0  0  0  0  0  0  0  0  0  0  0  0
   -6.8570   18.3450  -31.7200 C   0  0  0  0  0  0  0  0  0  0  0  0
   -5.9930   17.1540  -32.1390 C   0  0  0  0  0  0  0  0  0  0  0  0
   -4.8600   17.5960  -32.8530 O   0  0  0  0  0  0  0  0  0  0  0  0
   -5.2740   18.0530  -34.1240 C   0  0  0  0  0  0  0  0  0  0  0  0
   -6.1560   19.3070  -34.0180 C   0  0  0  0  0  0  0  0  0  0  0  0
   -3.1490   22.3110  -31.4490 C   0  0  0  0  0  0  0  0  0  0  0  0
   -2.4040   21.5650  -32.3790 C   0  0  0  0  0  0  0  0  0  0  0  0
   -1.0840   21.2030  -32.1040 C   0  0  0  0  0  0  0  0  0  0  0  0
   -0.4920   21.5760  -30.8980 C   0  0  0  0  0  0  0  0  0  0  0  0
   -1.2210   22.3010  -29.9470 C   0  0  0  0  0  0  0  0  0  0  0  0
   -0.4690   22.7840  -28.4230 S   0  0  0  0  0  0  0  0  0  0  0  0
    0.7660   21.9560  -28.1990 O   0  0  0  0  0  0  0  0  0  0  0  0
   -0.0400   24.2200  -28.5450 O   0  0  0  0  0  0  0  0  0  0  0  0
   -1.5230   22.6280  -27.0310 N   0  0  0  0  0  0  0  0  0  0  0  0
   -2.8150   23.3210  -27.1750 C   0  0  0  0  0  0  0  0  0  0  0  0
   -2.7010   24.8510  -27.0840 C   0  0  0  0  0  0  0  0  0  0  0  0
   -1.6810   25.3160  -26.0760 C   0  0  0  0  0  0  0  0  0  0  0  0
   -1.5770   26.6900  -25.7960 C   0  0  0  0  0  0  0  0  0  0  0  0
   -0.6060   27.1590  -24.9060 C   0  0  0  0  0  0  0  0  0  0  0  0
    0.2670   26.2600  -24.2840 C   0  0  0  0  0  0  0  0  0  0  0  0
    0.1750   24.8920  -24.5590 C   0  0  0  0  0  0  0  0  0  0  0  0
   -0.7780   24.4140  -25.4730 C   0  0  0  0  0  0  0  0  0  0  0  0
   -0.8520   22.9350  -25.7560 C   0  0  0  0  0  0  0  0  0  0  0  0
   -2.5410   22.6820  -30.2330 C   0  0  0  0  0  0  0  0  0  0  0  0
   -4.9820   21.5420  -33.4970 H   0  0  0  0  0  0  0  0  0  0  0  0
   -6.9757   24.0567  -32.2898 H   0  0  0  0  0  0  0  0  0  0  0  0
   -9.4247   24.0121  -31.8221 H   0  0  0  0  0  0  0  0  0  0  0  0
  -10.6387   21.8360  -31.7085 H   0  0  0  0  0  0  0  0  0  0  0  0
   -9.4162   19.7022  -32.1037 H   0  0  0  0  0  0  0  0  0  0  0  0
   -6.4863   18.7307  -30.7588 H   0  0  0  0  0  0  0  0  0  0  0  0
   -7.8966   17.9952  -31.6371 H   0  0  0  0  0  0  0  0  0  0  0  0
   -5.6659   16.6097  -31.2408 H   0  0  0  0  0  0  0  0  0  0  0  0
   -6.5871   16.4922  -32.7864 H   0  0  0  0  0  0  0  0  0  0  0  0
   -4.3837   18.2931  -34.7238 H   0  0  0  0  0  0  0  0  0  0  0  0
   -5.8662   17.2566  -34.5984 H   0  0  0  0  0  0  0  0  0  0  0  0
   -5.5245   20.1938  -34.1755 H   0  0  0  0  0  0  0  0  0  0  0  0
   -6.9424   19.2212  -34.7824 H   0  0  0  0  0  0  0  0  0  0  0  0
   -2.8650   21.2640  -33.3313 H   0  0  0  0  0  0  0  0  0  0  0  0
   -0.5096   20.6221  -32.8406 H   0  0  0  0  0  0  0  0  0  0  0  0
    0.5527   21.2995  -30.6925 H   0  0  0  0  0  0  0  0  0  0  0  0
   -3.2428   23.0610  -28.1545 H   0  0  0  0  0  0  0  0  0  0  0  0
   -3.4538   22.9930  -26.3417 H   0  0  0  0  0  0  0  0  0  0  0  0
   -2.4159   25.2389  -28.0731 H   0  0  0  0  0  0  0  0  0  0  0  0
   -3.6795   25.2308  -26.7550 H   0  0  0  0  0  0  0  0  0  0  0  0
   -2.2636   27.4001  -26.2800 H   0  0  0  0  0  0  0  0  0  0  0  0
   -0.5284   28.2357  -24.6947 H   0  0  0  0  0  0  0  0  0  0  0  0
    1.0259   26.6293  -23.5785 H   0  0  0  0  0  0  0  0  0  0  0  0
    0.8529   24.1864  -24.0565 H   0  0  0  0  0  0  0  0  0  0  0  0
    0.1713   22.5330  -25.7922 H   0  0  0  0  0  0  0  0  0  0  0  0
   -1.4447   22.4744  -24.9519 H   0  0  0  0  0  0  0  0  0  0  0  0
   -3.1069   23.2763  -29.5005 H   0  0  0  0  0  0  0  0  0  0  0  0
  1  2  2  0
  2  3  1  0
  3  4  1  0
  4  5  2  0
  5  6  1  0
  6  7  2  0
  7  8  1  0
  8  9  2  0
  9 10  1  0
 10 11  1  0
 11 12  1  0
 12 13  1  0
 13 14  1  0
 14 15  1  0
  2 16  1  0
 16 17  2  0
 17 18  1  0
 18 19  2  0
 19 20  1  0
 20 21  1  0
 21 22  2  0
 21 23  2  0
 21 24  1  0
 24 25  1  0
 25 26  1  0
 26 27  1  0
 27 28  2  0
 28 29  1  0
 29 30  2  0
 30 31  1  0
 31 32  2  0
 32 33  1  0
 20 34  2  0
  9  4  1  0
 15 10  1  0
 34 16  1  0
 33 24  1  0
 32 27  1  0
  3 35  1  0
  5 36  1  0
  6 37  1  0
  7 38  1  0
  8 39  1  0
 11 40  1  0
 11 41  1  0
 12 42  1  0
 12 43  1  0
 14 44  1  0
 14 45  1  0
 15 46  1  0
 15 47  1  0
 17 48  1  0
 18 49  1  0
 19 50  1  0
 25 51  1  0
 25 52  1  0
 26 53  1  0
 26 54  1  0
 28 55  1  0
 29 56  1  0
 30 57  1  0
 31 58  1  0
 33 59  1  0
 33 60  1  0
 34 61  1  0
M  END
>  <UniqueID>  (44) 
42

>  <SMILES>  (44) 
O=C(Nc1ccccc1N1CCOCC1)c1cccc(S(=O)(=O)N2CCc3ccccc3C2)c1

>  <Energy>  (44) 
83.07449615894288

>  <Genealogy>  (44) 
O=C(Nc1ccccc1N1CCOCC1)c1cccc(S(=O)(=O)N2CCc3ccccc3C2)c1 (3D coordinates assigned)
O=C(Nc1ccccc1N1CCOCC1)c1cccc(S(=O)(=O)N2CCc3ccccc3C2)c1 (nonaromatic ring conformer: 83.07449615894288 kcal/mol)

>  <smiles>  (44) 
O=C(Nc1ccccc1N1CCOCC1)c1cccc(S(=O)(=O)N2CCc3ccccc3C2)c1

>  <score_type>  (44) 
oracle

>  <origin>  (44) 
adgpu

>  <m_score__min__energy>  (44) 
-11.33

>  <m_primary>  (44) 
energy

$$$$
45:0
     RDKit          3D

 69 72  0  0  0  0  0  0  0  0999 V2000
   -5.0940   17.8520  -34.8130 O   0  0  0  0  0  0  0  0  0  0  0  0
   -5.0330   18.3430  -33.6540 C   0  0  0  0  0  0  0  0  0  0  0  0
   -3.8610   17.9980  -32.7690 C   0  0  0  0  0  0  0  0  0  0  0  0
   -2.6780   18.8920  -33.0450 C   0  0  0  0  0  0  0  0  0  0  0  0
   -1.6710   19.0650  -32.0830 C   0  0  0  0  0  0  0  0  0  0  0  0
   -0.5980   19.9270  -32.3280 C   0  0  0  0  0  0  0  0  0  0  0  0
   -0.5240   20.6430  -33.5290 C   0  0  0  0  0  0  0  0  0  0  0  0
    0.6060   21.4950  -33.7590 N   0  0  0  0  0  0  0  0  0  0  0  0
    1.1090   21.9350  -35.0280 C   0  0  0  0  0  0  0  0  0  0  0  0
    0.7840   23.0830  -35.4340 O   0  0  0  0  0  0  0  0  0  0  0  0
    1.9080   21.0200  -35.9370 C   0  0  0  0  0  0  0  0  0  0  0  0
    0.9830   20.0290  -36.7000 C   0  0  0  0  0  0  0  0  0  0  0  0
    1.2490   18.5540  -36.3630 C   0  0  0  0  0  0  0  0  0  0  0  0
    1.4610   18.3850  -34.9180 N   0  0  0  0  0  0  0  0  0  0  0  0
    0.8160   17.3300  -34.1750 C   0  0  0  0  0  0  0  0  0  0  0  0
    1.4660   16.7320  -33.2720 O   0  0  0  0  0  0  0  0  0  0  0  0
   -0.6160   16.9180  -34.4590 C   0  0  0  0  0  0  0  0  0  0  0  0
   -1.1690   15.9530  -33.4100 C   0  0  0  0  0  0  0  0  0  0  0  0
   -2.1990   15.0810  -34.1260 C   0  0  0  0  0  0  0  0  0  0  0  0
   -2.0610   15.3650  -35.6190 C   0  0  0  0  0  0  0  0  0  0  0  0
   -0.7850   16.1700  -35.7800 C   0  0  0  0  0  0  0  0  0  0  0  0
    2.4830   19.1950  -34.2390 C   0  0  0  0  0  0  0  0  0  0  0  0
    3.0270   20.3100  -35.1450 C   0  0  0  0  0  0  0  0  0  0  0  0
   -1.5120   20.4460  -34.5090 C   0  0  0  0  0  0  0  0  0  0  0  0
   -2.5890   19.5890  -34.2620 C   0  0  0  0  0  0  0  0  0  0  0  0
   -6.1690   19.0640  -33.1560 N   0  0  0  0  0  0  0  0  0  0  0  0
   -6.2160   20.4540  -32.8130 C   0  0  0  0  0  0  0  0  0  0  0  0
   -5.0230   21.1800  -32.7510 C   0  0  0  0  0  0  0  0  0  0  0  0
   -5.0350   22.5290  -32.3830 C   0  0  0  0  0  0  0  0  0  0  0  0
   -6.2370   23.1700  -32.0570 C   0  0  0  0  0  0  0  0  0  0  0  0
   -6.1840   24.5300  -31.7110 O   0  0  0  0  0  0  0  0  0  0  0  0
   -6.1390   25.0620  -30.3850 C   0  0  0  0  0  0  0  0  0  0  0  0
   -4.7270   24.9870  -29.8050 C   0  0  0  0  0  0  0  0  0  0  0  0
   -3.7650   25.3090  -30.7740 O   0  0  0  0  0  0  0  0  0  0  0  0
   -7.4350   22.4300  -32.0930 C   0  0  0  0  0  0  0  0  0  0  0  0
   -7.4190   21.0790  -32.4510 C   0  0  0  0  0  0  0  0  0  0  0  0
   -4.1605   18.1159  -31.7171 H   0  0  0  0  0  0  0  0  0  0  0  0
   -3.5649   16.9594  -32.9777 H   0  0  0  0  0  0  0  0  0  0  0  0
   -1.7263   18.5187  -31.1298 H   0  0  0  0  0  0  0  0  0  0  0  0
    0.1931   20.0435  -31.5726 H   0  0  0  0  0  0  0  0  0  0  0  0
    2.3994   21.6322  -36.7076 H   0  0  0  0  0  0  0  0  0  0  0  0
   -0.0613   20.2611  -36.4440 H   0  0  0  0  0  0  0  0  0  0  0  0
    1.1897   20.1566  -37.7729 H   0  0  0  0  0  0  0  0  0  0  0  0
    0.3842   17.9500  -36.6749 H   0  0  0  0  0  0  0  0  0  0  0  0
    2.1536   18.2254  -36.8956 H   0  0  0  0  0  0  0  0  0  0  0  0
   -1.1501   17.8796  -34.4686 H   0  0  0  0  0  0  0  0  0  0  0  0
   -0.3597   15.3291  -33.0029 H   0  0  0  0  0  0  0  0  0  0  0  0
   -1.6230   16.4966  -32.5683 H   0  0  0  0  0  0  0  0  0  0  0  0
   -2.0007   14.0181  -33.9234 H   0  0  0  0  0  0  0  0  0  0  0  0
   -3.2169   15.3065  -33.7753 H   0  0  0  0  0  0  0  0  0  0  0  0
   -1.9909   14.4224  -36.1817 H   0  0  0  0  0  0  0  0  0  0  0  0
   -2.9327   15.9136  -36.0052 H   0  0  0  0  0  0  0  0  0  0  0  0
    0.0718   15.5037  -35.9587 H   0  0  0  0  0  0  0  0  0  0  0  0
   -0.8366   16.8563  -36.6381 H   0  0  0  0  0  0  0  0  0  0  0  0
    2.0373   19.6511  -33.3427 H   0  0  0  0  0  0  0  0  0  0  0  0
    3.3206   18.5333  -33.9732 H   0  0  0  0  0  0  0  0  0  0  0  0
    3.5440   21.0530  -34.5199 H   0  0  0  0  0  0  0  0  0  0  0  0
    3.7126   19.8489  -35.8712 H   0  0  0  0  0  0  0  0  0  0  0  0
   -1.4377   20.9681  -35.4743 H   0  0  0  0  0  0  0  0  0  0  0  0
   -3.3710   19.4597  -35.0247 H   0  0  0  0  0  0  0  0  0  0  0  0
   -4.0697   20.6874  -32.9930 H   0  0  0  0  0  0  0  0  0  0  0  0
   -4.0909   23.0925  -32.3492 H   0  0  0  0  0  0  0  0  0  0  0  0
   -6.4611   26.1135  -30.4095 H   0  0  0  0  0  0  0  0  0  0  0  0
   -6.8084   24.4651  -29.7482 H   0  0  0  0  0  0  0  0  0  0  0  0
   -4.6445   25.6955  -28.9676 H   0  0  0  0  0  0  0  0  0  0  0  0
   -4.5451   23.9583  -29.4605 H   0  0  0  0  0  0  0  0  0  0  0  0
   -4.2600   25.5970  -31.5840 H   0  0  0  0  0  0  0  0  0  0  0  0
   -8.3875   22.9176  -31.8382 H   0  0  0  0  0  0  0  0  0  0  0  0
   -8.3555   20.5020  -32.4489 H   0  0  0  0  0  0  0  0  0  0  0  0
  1  2  2  0
  2  3  1  0
  3  4  1  0
  4  5  2  0
  5  6  1  0
  6  7  2  0
  7  8  1  0
  8  9  1  0
  9 10  2  0
  9 11  1  0
 11 12  1  0
 12 13  1  0
 13 14  1  0
 14 15  1  0
 15 16  2  0
 15 17  1  0
 17 18  1  0
 18 19  1  0
 19 20  1  0
 20 21  1  0
 14 22  1  0
 22 23  1  0
  7 24  1  0
 24 25  2  0
  2 26  1  0
 26 27  1  0
 27 28  2  0
 28 29  1  0
 29 30  2  0
 30 31  1  0
 31 32  1  0
 32 33  1  0
 33 34  1  0
 30 35  1  0
 35 36  2  0
 25  4  1  0
 36 27  1  0
 23 11  1  0
 21 17  1  0
  3 37  1  0
  3 38  1  0
  5 39  1  0
  6 40  1  0
 11 41  1  0
 12 42  1  0
 12 43  1  0
 13 44  1  0
 13 45  1  0
 17 46  1  0
 18 47  1  0
 18 48  1  0
 19 49  1  0
 19 50  1  0
 20 51  1  0
 20 52  1  0
 21 53  1  0
 21 54  1  0
 22 55  1  0
 22 56  1  0
 23 57  1  0
 23 58  1  0
 24 59  1  0
 25 60  1  0
 28 61  1  0
 29 62  1  0
 32 63  1  0
 32 64  1  0
 33 65  1  0
 33 66  1  0
 34 67  1  0
 35 68  1  0
 36 69  1  0
M  CHG  2   8  -1  26  -1
M  END
>  <UniqueID>  (45) 
43

>  <SMILES>  (45) 
O=C(Cc1ccc([N-]C(=O)C2CCN(C(=O)C3CCCC3)CC2)cc1)[N-]c1ccc(OCCO)cc1

>  <Energy>  (45) 
86.01475183843858

>  <Genealogy>  (45) 
O=C(Cc1ccc([N-]C(=O)C2CCN(C(=O)C3CCCC3)CC2)cc1)[N-]c1ccc(OCCO)cc1 (protonated)
O=C(Cc1ccc([N-]C(=O)C2CCN(C(=O)C3CCCC3)CC2)cc1)[N-]c1ccc(OCCO)cc1 (3D coordinates assigned)
O=C(Cc1ccc([N-]C(=O)C2CCN(C(=O)C3CCCC3)CC2)cc1)[N-]c1ccc(OCCO)cc1 (nonaromatic ring conformer: 86.01475183843858 kcal/mol)

>  <smiles>  (45) 
O=C(Cc1ccc(NC(=O)C2CCN(C(=O)C3CCCC3)CC2)cc1)Nc1ccc(OCCO)cc1

>  <score_type>  (45) 
oracle

>  <origin>  (45) 
adgpu

>  <m_score__min__energy>  (45) 
-12.119999999999999

>  <m_primary>  (45) 
energy

$$$$
46:0
     RDKit          3D

 50 52  0  0  0  0  0  0  0  0999 V2000
    3.4470   19.8960  -33.9190 C   0  0  0  0  0  0  0  0  0  0  0  0
    2.0490   19.4770  -33.7540 N   0  0  0  0  0  0  0  0  0  0  0  0
    1.6800   19.4910  -32.3330 C   0  0  0  0  0  0  0  0  0  0  0  0
    0.9990   20.5470  -34.6510 S   0  0  0  0  0  0  0  0  0  0  0  0
    1.4070   21.9720  -34.4020 O   0  0  0  0  0  0  0  0  0  0  0  0
    1.1460   20.2730  -36.1220 O   0  0  0  0  0  0  0  0  0  0  0  0
   -0.6920   20.3380  -34.1890 C   0  0  0  0  0  0  0  0  0  0  0  0
   -1.3480   21.3310  -33.4510 C   0  0  0  0  0  0  0  0  0  0  0  0
   -2.6840   21.1640  -33.0750 C   0  0  0  0  0  0  0  0  0  0  0  0
   -3.3870   20.0000  -33.4380 C   0  0  0  0  0  0  0  0  0  0  0  0
   -4.8000   19.8080  -33.0330 C   0  0  0  0  0  0  0  0  0  0  0  0
   -5.1890   18.6700  -32.6480 O   0  0  0  0  0  0  0  0  0  0  0  0
   -5.7410   20.8910  -33.1040 N   0  0  0  0  0  0  0  0  0  0  0  0
   -7.0000   20.8780  -32.4110 C   0  0  0  0  0  0  0  0  0  0  0  0
   -7.8390   19.7620  -32.5450 C   0  0  0  0  0  0  0  0  0  0  0  0
   -9.0750   19.7220  -31.8980 C   0  0  0  0  0  0  0  0  0  0  0  0
   -9.4880   20.7990  -31.1150 C   0  0  0  0  0  0  0  0  0  0  0  0
   -8.6770   21.9290  -30.9930 C   0  0  0  0  0  0  0  0  0  0  0  0
   -7.4390   21.9930  -31.6600 C   0  0  0  0  0  0  0  0  0  0  0  0
   -6.6220   23.1720  -31.5880 N   0  0  0  0  0  0  0  0  0  0  0  0
   -5.1880   23.2100  -31.6050 C   0  0  0  0  0  0  0  0  0  0  0  0
   -4.5960   23.1810  -32.7160 O   0  0  0  0  0  0  0  0  0  0  0  0
   -4.3900   23.3190  -30.3610 C   0  0  0  0  0  0  0  0  0  0  0  0
   -4.2220   22.1840  -29.5490 C   0  0  0  0  0  0  0  0  0  0  0  0
   -3.4870   22.2650  -28.3620 C   0  0  0  0  0  0  0  0  0  0  0  0
   -2.9050   23.4750  -27.9810 C   0  0  0  0  0  0  0  0  0  0  0  0
   -3.0470   24.6050  -28.7900 C   0  0  0  0  0  0  0  0  0  0  0  0
   -3.7770   24.5310  -29.9820 C   0  0  0  0  0  0  0  0  0  0  0  0
   -3.8640   25.6600  -30.7900 O   0  0  0  0  0  0  0  0  0  0  0  0
   -2.7180   19.0040  -34.1710 C   0  0  0  0  0  0  0  0  0  0  0  0
   -1.3830   19.1740  -34.5460 C   0  0  0  0  0  0  0  0  0  0  0  0
    3.9076   20.0340  -32.9297 H   0  0  0  0  0  0  0  0  0  0  0  0
    3.9981   19.1235  -34.4755 H   0  0  0  0  0  0  0  0  0  0  0  0
    3.4824   20.8442  -34.4755 H   0  0  0  0  0  0  0  0  0  0  0  0
    2.5909   19.4564  -31.7173 H   0  0  0  0  0  0  0  0  0  0  0  0
    1.1204   20.4110  -32.1085 H   0  0  0  0  0  0  0  0  0  0  0  0
    1.0523   18.6160  -32.1085 H   0  0  0  0  0  0  0  0  0  0  0  0
   -0.8095   22.2468  -33.1658 H   0  0  0  0  0  0  0  0  0  0  0  0
   -3.1893   21.9477  -32.4914 H   0  0  0  0  0  0  0  0  0  0  0  0
   -5.5900   21.6300  -33.8270 H   0  0  0  0  0  0  0  0  0  0  0  0
   -7.5202   18.9113  -33.1652 H   0  0  0  0  0  0  0  0  0  0  0  0
   -9.7237   18.8402  -32.0059 H   0  0  0  0  0  0  0  0  0  0  0  0
  -10.4549   20.7584  -30.5921 H   0  0  0  0  0  0  0  0  0  0  0  0
   -9.0075   22.7745  -30.3718 H   0  0  0  0  0  0  0  0  0  0  0  0
   -4.6715   21.2260  -29.8491 H   0  0  0  0  0  0  0  0  0  0  0  0
   -3.3674   21.3741  -27.7279 H   0  0  0  0  0  0  0  0  0  0  0  0
   -2.3340   23.5389  -27.0430 H   0  0  0  0  0  0  0  0  0  0  0  0
   -2.5835   25.5562  -28.4892 H   0  0  0  0  0  0  0  0  0  0  0  0
   -3.2502   18.0831  -34.4516 H   0  0  0  0  0  0  0  0  0  0  0  0
   -0.8726   18.3898  -35.1243 H   0  0  0  0  0  0  0  0  0  0  0  0
  1  2  1  0
  2  3  1  0
  2  4  1  0
  4  5  2  0
  4  6  2  0
  4  7  1  0
  7  8  2  0
  8  9  1  0
  9 10  2  0
 10 11  1  0
 11 12  2  0
 11 13  1  0
 13 14  1  0
 14 15  2  0
 15 16  1  0
 16 17  2  0
 17 18  1  0
 18 19  2  0
 19 20  1  0
 20 21  1  0
 21 22  2  0
 21 23  1  0
 23 24  2  0
 24 25  1  0
 25 26  2  0
 26 27  1  0
 27 28  2  0
 28 29  1  0
 10 30  1  0
 30 31  2  0
 31  7  1  0
 19 14  1  0
 28 23  1  0
  1 32  1  0
  1 33  1  0
  1 34  1  0
  3 35  1  0
  3 36  1  0
  3 37  1  0
  8 38  1  0
  9 39  1  0
 13 40  1  0
 15 41  1  0
 16 42  1  0
 17 43  1  0
 18 44  1  0
 24 45  1  0
 25 46  1  0
 26 47  1  0
 27 48  1  0
 30 49  1  0
 31 50  1  0
M  CHG  2  20  -1  29  -1
M  END
>  <UniqueID>  (46) 
44

>  <SMILES>  (46) 
CN(C)S(=O)(=O)c1ccc(C(=O)Nc2ccccc2[N-]C(=O)c2ccccc2[O-])cc1

>  <Energy>  (46) 
65.75442750077639

>  <Genealogy>  (46) 
CN(C)S(=O)(=O)c1ccc(C(=O)Nc2ccccc2[N-]C(=O)c2ccccc2[O-])cc1 (protonated)
CN(C)S(=O)(=O)c1ccc(C(=O)Nc2ccccc2[N-]C(=O)c2ccccc2[O-])cc1 (3D coordinates assigned)
CN(C)S(=O)(=O)c1ccc(C(=O)Nc2ccccc2[N-]C(=O)c2ccccc2[O-])cc1 (optimized conformer: 65.75442750077639 kcal/mol)

>  <smiles>  (46) 
CN(C)S(=O)(=O)c1ccc(C(=O)Nc2ccccc2NC(=O)c2ccccc2O)cc1

>  <score_type>  (46) 
oracle

>  <origin>  (46) 
adgpu

>  <m_score__min__energy>  (46) 
-12.619999999999999

>  <m_primary>  (46) 
energy

$$$$
47:0
     RDKit          3D

 54 57  0  0  0  0  0  0  0  0999 V2000
   -3.7300   20.4840  -33.0140 C   0  0  0  0  0  0  0  0  0  0  0  0
   -5.0110   20.8250  -32.4810 O   0  0  0  0  0  0  0  0  0  0  0  0
   -5.2680   21.9460  -31.6840 C   0  0  0  0  0  0  0  0  0  0  0  0
   -4.2580   22.8740  -31.3530 C   0  0  0  0  0  0  0  0  0  0  0  0
   -4.5510   23.9980  -30.5720 C   0  0  0  0  0  0  0  0  0  0  0  0
   -3.4940   24.9140  -30.2560 N   0  0  0  0  0  0  0  0  0  0  0  0
   -2.3100   24.6510  -29.0150 S   0  0  0  0  0  0  0  0  0  0  0  0
   -1.1570   25.5900  -29.2310 O   0  0  0  0  0  0  0  0  0  0  0  0
   -2.9260   24.9660  -27.6830 O   0  0  0  0  0  0  0  0  0  0  0  0
   -1.7040   22.9970  -29.0420 C   0  0  0  0  0  0  0  0  0  0  0  0
   -1.8790   22.1700  -27.9300 C   0  0  0  0  0  0  0  0  0  0  0  0
   -1.3640   20.8670  -27.9310 C   0  0  0  0  0  0  0  0  0  0  0  0
   -0.6560   20.3770  -29.0460 C   0  0  0  0  0  0  0  0  0  0  0  0
   -0.0940   18.9990  -29.0520 C   0  0  0  0  0  0  0  0  0  0  0  0
    0.1180   18.3030  -27.8500 C   0  0  0  0  0  0  0  0  0  0  0  0
    0.6610   17.0150  -27.8610 C   0  0  0  0  0  0  0  0  0  0  0  0
    1.0000   16.4060  -29.0680 C   0  0  0  0  0  0  0  0  0  0  0  0
    0.7920   17.0810  -30.2680 C   0  0  0  0  0  0  0  0  0  0  0  0
    0.2470   18.3690  -30.2630 C   0  0  0  0  0  0  0  0  0  0  0  0
   -0.4880   21.2180  -30.1620 C   0  0  0  0  0  0  0  0  0  0  0  0
   -1.0180   22.5120  -30.1630 C   0  0  0  0  0  0  0  0  0  0  0  0
   -5.8610   24.1860  -30.0940 C   0  0  0  0  0  0  0  0  0  0  0  0
   -6.8610   23.2590  -30.4000 C   0  0  0  0  0  0  0  0  0  0  0  0
   -6.5740   22.1440  -31.1940 C   0  0  0  0  0  0  0  0  0  0  0  0
   -7.6170   21.2060  -31.4960 N   0  0  0  0  0  0  0  0  0  0  0  0
   -8.9370   21.7120  -31.8750 C   0  0  0  0  0  0  0  0  0  0  0  0
   -9.8570   20.5610  -32.2930 C   0  0  0  0  0  0  0  0  0  0  0  0
   -9.1130   19.6010  -33.1140 N   0  0  0  0  0  0  0  0  0  0  0  0
   -8.0760   18.9010  -32.3310 C   0  0  0  0  0  0  0  0  0  0  0  0
   -7.4170   19.7770  -31.2370 C   0  0  0  0  0  0  0  0  0  0  0  0
   -3.0274   20.2970  -32.1886 H   0  0  0  0  0  0  0  0  0  0  0  0
   -3.8192   19.5783  -33.6319 H   0  0  0  0  0  0  0  0  0  0  0  0
   -3.3571   21.3142  -33.6319 H   0  0  0  0  0  0  0  0  0  0  0  0
   -3.2308   22.7127  -31.7120 H   0  0  0  0  0  0  0  0  0  0  0  0
   -2.4233   22.5432  -27.0500 H   0  0  0  0  0  0  0  0  0  0  0  0
   -1.5138   20.2209  -27.0534 H   0  0  0  0  0  0  0  0  0  0  0  0
   -0.1455   18.7756  -26.8923 H   0  0  0  0  0  0  0  0  0  0  0  0
    0.8214   16.4800  -26.9134 H   0  0  0  0  0  0  0  0  0  0  0  0
    1.4311   15.3940  -29.0726 H   0  0  0  0  0  0  0  0  0  0  0  0
    1.0568   16.6004  -31.2214 H   0  0  0  0  0  0  0  0  0  0  0  0
    0.0833   18.8947  -31.2153 H   0  0  0  0  0  0  0  0  0  0  0  0
    0.0648   20.8543  -31.0407 H   0  0  0  0  0  0  0  0  0  0  0  0
   -0.8956   23.1526  -31.0488 H   0  0  0  0  0  0  0  0  0  0  0  0
   -6.0987   25.0654  -29.4775 H   0  0  0  0  0  0  0  0  0  0  0  0
   -7.8803   23.4072  -30.0139 H   0  0  0  0  0  0  0  0  0  0  0  0
   -9.3825   22.2374  -31.0174 H   0  0  0  0  0  0  0  0  0  0  0  0
   -8.8218   22.4001  -32.7254 H   0  0  0  0  0  0  0  0  0  0  0  0
  -10.2384   20.0540  -31.3944 H   0  0  0  0  0  0  0  0  0  0  0  0
  -10.6975   20.9630  -32.8778 H   0  0  0  0  0  0  0  0  0  0  0  0
   -8.6530   20.1170  -33.9030 H   0  0  0  0  0  0  0  0  0  0  0  0
   -8.5386   18.0295  -31.8447 H   0  0  0  0  0  0  0  0  0  0  0  0
   -7.2802   18.6185  -33.0359 H   0  0  0  0  0  0  0  0  0  0  0  0
   -7.8612   19.5253  -30.2627 H   0  0  0  0  0  0  0  0  0  0  0  0
   -6.3357   19.5751  -31.2400 H   0  0  0  0  0  0  0  0  0  0  0  0
  1  2  1  0
  2  3  1  0
  3  4  2  0
  4  5  1  0
  5  6  1  0
  6  7  1  0
  7  8  2  0
  7  9  2  0
  7 10  1  0
 10 11  2  0
 11 12  1  0
 12 13  2  0
 13 14  1  0
 14 15  2  0
 15 16  1  0
 16 17  2  0
 17 18  1  0
 18 19  2  0
 13 20  1  0
 20 21  2  0
  5 22  2  0
 22 23  1  0
 23 24  2  0
 24 25  1  0
 25 26  1  0
 26 27  1  0
 27 28  1  0
 28 29  1  0
 29 30  1  0
 24  3  1  0
 30 25  1  0
 21 10  1  0
 19 14  1  0
  1 31  1  0
  1 32  1  0
  1 33  1  0
  4 34  1  0
 11 35  1  0
 12 36  1  0
 15 37  1  0
 16 38  1  0
 17 39  1  0
 18 40  1  0
 19 41  1  0
 20 42  1  0
 21 43  1  0
 22 44  1  0
 23 45  1  0
 26 46  1  0
 26 47  1  0
 27 48  1  0
 27 49  1  0
 28 50  1  0
 29 51  1  0
 29 52  1  0
 30 53  1  0
 30 54  1  0
M  CHG  1   6  -1
M  END
>  <UniqueID>  (47) 
45

>  <SMILES>  (47) 
COc1cc([N-]S(=O)(=O)c2ccc(-c3ccccc3)cc2)ccc1N1CCNCC1

>  <Energy>  (47) 
77.87744276457742

>  <Genealogy>  (47) 
COc1cc([N-]S(=O)(=O)c2ccc(-c3ccccc3)cc2)ccc1N1CCNCC1 (protonated)
COc1cc([N-]S(=O)(=O)c2ccc(-c3ccccc3)cc2)ccc1N1CCNCC1 (3D coordinates assigned)
COc1cc([N-]S(=O)(=O)c2ccc(-c3ccccc3)cc2)ccc1N1CCNCC1 (nonaromatic ring conformer: 77.87744276457742 kcal/mol)

>  <smiles>  (47) 
COc1cc(NS(=O)(=O)c2ccc(-c3ccccc3)cc2)ccc1N1CCNCC1

>  <score_type>  (47) 
oracle

>  <origin>  (47) 
adgpu

>  <m_score__min__energy>  (47) 
-10.57

>  <m_primary>  (47) 
energy

$$$$
48:0
     RDKit          3D

 28 29  0  0  0  0  0  0  0  0999 V2000
  -10.2550   21.1280  -32.0860 N   0  0  0  0  0  0  0  0  0  0  0  0
   -8.9700   21.0190  -32.1130 C   0  0  0  0  0  0  0  0  0  0  0  0
   -8.3030   21.5890  -31.0820 N   0  0  0  0  0  0  0  0  0  0  0  0
   -6.9600   21.4980  -31.0740 C   0  0  0  0  0  0  0  0  0  0  0  0
   -6.2490   20.8480  -32.0720 C   0  0  0  0  0  0  0  0  0  0  0  0
   -4.7690   20.8080  -31.9560 C   0  0  0  0  0  0  0  0  0  0  0  0
   -4.2180   21.7730  -30.9860 C   0  0  0  0  0  0  0  0  0  0  0  0
   -3.6320   21.4260  -29.7890 C   0  0  0  0  0  0  0  0  0  0  0  0
   -3.1300   22.3640  -28.9050 C   0  0  0  0  0  0  0  0  0  0  0  0
   -3.2130   23.7040  -29.2200 C   0  0  0  0  0  0  0  0  0  0  0  0
   -3.7950   24.0850  -30.4120 C   0  0  0  0  0  0  0  0  0  0  0  0
   -3.8690   25.4400  -30.7100 O   0  0  0  0  0  0  0  0  0  0  0  0
   -4.2990   23.1290  -31.2990 C   0  0  0  0  0  0  0  0  0  0  0  0
   -6.9510   20.2760  -33.1070 C   0  0  0  0  0  0  0  0  0  0  0  0
   -6.3390   19.6730  -34.0430 N   0  0  0  0  0  0  0  0  0  0  0  0
   -8.3000   20.3820  -33.0920 N   0  0  0  0  0  0  0  0  0  0  0  0
  -10.9200   20.7630  -32.7730 H   0  0  0  0  0  0  0  0  0  0  0  0
   -8.8240   22.0880  -30.3160 H   0  0  0  0  0  0  0  0  0  0  0  0
   -6.4044   21.9573  -30.2431 H   0  0  0  0  0  0  0  0  0  0  0  0
   -4.4736   19.7957  -31.6430 H   0  0  0  0  0  0  0  0  0  0  0  0
   -4.3645   21.0808  -32.9419 H   0  0  0  0  0  0  0  0  0  0  0  0
   -3.5603   20.3605  -29.5254 H   0  0  0  0  0  0  0  0  0  0  0  0
   -2.6687   22.0439  -27.9591 H   0  0  0  0  0  0  0  0  0  0  0  0
   -2.8189   24.4623  -28.5275 H   0  0  0  0  0  0  0  0  0  0  0  0
   -4.2210   25.6790  -31.6290 H   0  0  0  0  0  0  0  0  0  0  0  0
   -4.7603   23.4474  -32.2455 H   0  0  0  0  0  0  0  0  0  0  0  0
   -6.8960   19.2490  -34.8160 H   0  0  0  0  0  0  0  0  0  0  0  0
   -8.8540   19.9560  -33.8680 H   0  0  0  0  0  0  0  0  0  0  0  0
  1  2  2  3
  2  3  1  0
  3  4  1  0
  4  5  2  0
  5  6  1  0
  6  7  1  0
  7  8  2  0
  8  9  1  0
  9 10  2  0
 10 11  1  0
 11 12  1  0
 11 13  2  0
  5 14  1  0
 14 15  2  3
 14 16  1  0
 16  2  1  0
 13  7  1  0
  1 17  1  0
  3 18  1  0
  4 19  1  0
  6 20  1  0
  6 21  1  0
  8 22  1  0
  9 23  1  0
 10 24  1  0
 12 25  1  0
 13 26  1  0
 15 27  1  0
 16 28  1  0
M  END
>  <smiles>  (48) 
N=c1[nH]cc(Cc2cccc(O)c2)c(=N)[nH]1

>  <score_type>  (48) 
oracle

>  <origin>  (48) 
adgpu

>  <m_score__min__energy>  (48) 
-6.9699999999999998

>  <m_primary>  (48) 
energy

$$$$
