0:0
     RDKit          3D

 23 24  0  0  0  0  0  0  0  0999 V2000
   -3.4270   25.2980  -30.1590 O   0  0  0  0  0  0  0  0  0  0  0  0
   -4.4090   24.3800  -30.5180 C   0  0  0  0  0  0  0  0  0  0  0  0
   -4.0540   23.2190  -31.2070 C   0  0  0  0  0  0  0  0  0  0  0  0
   -5.0340   22.2910  -31.5710 C   0  0  0  0  0  0  0  0  0  0  0  0
   -6.3850   22.5150  -31.2480 C   0  0  0  0  0  0  0  0  0  0  0  0
   -7.4270   21.5290  -31.6340 C   0  0  0  0  0  0  0  0  0  0  0  0
   -8.7900   21.8810  -31.6100 C   0  0  0  0  0  0  0  0  0  0  0  0
   -9.7690   20.9510  -31.9730 C   0  0  0  0  0  0  0  0  0  0  0  0
   -9.4000   19.6630  -32.3650 C   0  0  0  0  0  0  0  0  0  0  0  0
   -8.0510   19.3010  -32.3940 C   0  0  0  0  0  0  0  0  0  0  0  0
   -7.0690   20.2270  -32.0300 C   0  0  0  0  0  0  0  0  0  0  0  0
   -6.7330   23.6900  -30.5540 C   0  0  0  0  0  0  0  0  0  0  0  0
   -5.7480   24.6200  -30.1900 C   0  0  0  0  0  0  0  0  0  0  0  0
   -6.0950   25.7840  -29.5050 O   0  0  0  0  0  0  0  0  0  0  0  0
   -3.0006   23.0339  -31.4641 H   0  0  0  0  0  0  0  0  0  0  0  0
   -4.7467   21.3786  -32.1141 H   0  0  0  0  0  0  0  0  0  0  0  0
   -9.0868   22.8949  -31.3035 H   0  0  0  0  0  0  0  0  0  0  0  0
  -10.8315   21.2347  -31.9496 H   0  0  0  0  0  0  0  0  0  0  0  0
  -10.1715   18.9330  -32.6511 H   0  0  0  0  0  0  0  0  0  0  0  0
   -7.7611   18.2861  -32.7036 H   0  0  0  0  0  0  0  0  0  0  0  0
   -6.0085   19.9357  -32.0533 H   0  0  0  0  0  0  0  0  0  0  0  0
   -7.7852   23.8799  -30.2954 H   0  0  0  0  0  0  0  0  0  0  0  0
   -5.4010   26.3400  -29.0190 H   0  0  0  0  0  0  0  0  0  0  0  0
  1  2  1  0
  2  3  2  0
  3  4  1  0
  4  5  2  0
  5  6  1  0
  6  7  2  0
  7  8  1  0
  8  9  2  0
  9 10  1  0
 10 11  2  0
  5 12  1  0
 12 13  2  0
 13 14  1  0
 13  2  1  0
 11  6  1  0
  3 15  1  0
  4 16  1  0
  7 17  1  0
  8 18  1  0
  9 19  1  0
 10 20  1  0
 11 21  1  0
 12 22  1  0
 14 23  1  0
M  CHG  1   1  -1
M  END
>  <UniqueID>  (1) 
1

>  <SMILES>  (1) 
[O-]c1ccc(-c2ccccc2)cc1O

>  <Energy>  (1) 
29.052993672026506

>  <Genealogy>  (1) 
[O-]c1ccc(-c2ccccc2)cc1O (protonated)
[O-]c1ccc(-c2ccccc2)cc1O (3D coordinates assigned)
[O-]c1ccc(-c2ccccc2)cc1O (optimized conformer: 29.052993672026506 kcal/mol)

>  <smiles>  (1) 
Oc1ccc(-c2ccccc2)cc1O

>  <score_type>  (1) 
oracle

>  <origin>  (1) 
adgpu

>  <m_score__min__energy>  (1) 
-9.9100000000000001

>  <m_primary>  (1) 
energy

$$$$
1:0
     RDKit          3D

 27 28  0  0  0  0  0  0  0  0999 V2000
   -8.9750   20.3780  -30.6700 O   0  0  0  0  0  0  0  0  0  0  0  0
   -8.6440   21.1480  -31.9170 S   0  0  0  0  0  0  0  0  0  0  0  0
   -9.8590   21.9190  -32.3520 O   0  0  0  0  0  0  0  0  0  0  0  0
   -8.1990   20.0360  -33.1750 N   0  0  0  0  0  0  0  0  0  0  0  0
   -7.1490   19.0610  -33.0540 C   0  0  0  0  0  0  0  0  0  0  0  0
   -7.1530   18.1840  -31.9570 C   0  0  0  0  0  0  0  0  0  0  0  0
   -6.1440   17.2280  -31.8070 C   0  0  0  0  0  0  0  0  0  0  0  0
   -5.1210   17.1360  -32.7530 C   0  0  0  0  0  0  0  0  0  0  0  0
   -5.1070   17.9990  -33.8510 C   0  0  0  0  0  0  0  0  0  0  0  0
   -6.1140   18.9550  -34.0060 C   0  0  0  0  0  0  0  0  0  0  0  0
   -7.3040   22.2370  -31.5720 C   0  0  0  0  0  0  0  0  0  0  0  0
   -7.4180   23.2060  -30.5640 C   0  0  0  0  0  0  0  0  0  0  0  0
   -6.3530   24.0730  -30.3010 C   0  0  0  0  0  0  0  0  0  0  0  0
   -5.1710   23.9750  -31.0410 C   0  0  0  0  0  0  0  0  0  0  0  0
   -4.1390   24.8180  -30.7870 F   0  0  0  0  0  0  0  0  0  0  0  0
   -5.0530   23.0080  -32.0440 C   0  0  0  0  0  0  0  0  0  0  0  0
   -6.1150   22.1390  -32.3080 C   0  0  0  0  0  0  0  0  0  0  0  0
   -8.7810   20.0500  -34.0430 H   0  0  0  0  0  0  0  0  0  0  0  0
   -7.9571   18.2499  -31.2093 H   0  0  0  0  0  0  0  0  0  0  0  0
   -6.1560   16.5475  -30.9428 H   0  0  0  0  0  0  0  0  0  0  0  0
   -4.3268   16.3844  -32.6335 H   0  0  0  0  0  0  0  0  0  0  0  0
   -4.3009   17.9258  -34.5959 H   0  0  0  0  0  0  0  0  0  0  0  0
   -6.0994   19.6287  -34.8754 H   0  0  0  0  0  0  0  0  0  0  0  0
   -8.3467   23.2839  -29.9796 H   0  0  0  0  0  0  0  0  0  0  0  0
   -6.4453   24.8329  -29.5111 H   0  0  0  0  0  0  0  0  0  0  0  0
   -4.1228   22.9312  -32.6261 H   0  0  0  0  0  0  0  0  0  0  0  0
   -6.0178   21.3765  -33.0949 H   0  0  0  0  0  0  0  0  0  0  0  0
  1  2  2  0
  2  3  2  0
  2  4  1  0
  4  5  1  0
  5  6  2  0
  6  7  1  0
  7  8  2  0
  8  9  1  0
  9 10  2  0
  2 11  1  0
 11 12  2  0
 12 13  1  0
 13 14  2  0
 14 15  1  0
 14 16  1  0
 16 17  2  0
 10  5  1  0
 17 11  1  0
  4 18  1  0
  6 19  1  0
  7 20  1  0
  8 21  1  0
  9 22  1  0
 10 23  1  0
 12 24  1  0
 13 25  1  0
 16 26  1  0
 17 27  1  0
M  END
>  <UniqueID>  (2) 
2

>  <SMILES>  (2) 
O=S(=O)(Nc1ccccc1)c1ccc(F)cc1

>  <Energy>  (2) 
30.417919311902907

>  <Genealogy>  (2) 
O=S(=O)(Nc1ccccc1)c1ccc(F)cc1 (3D coordinates assigned)
O=S(=O)(Nc1ccccc1)c1ccc(F)cc1 (optimized conformer: 30.417919311902907 kcal/mol)

>  <smiles>  (2) 
O=S(=O)(Nc1ccccc1)c1ccc(F)cc1

>  <score_type>  (2) 
oracle

>  <origin>  (2) 
adgpu

>  <m_score__min__energy>  (2) 
-7.1600000000000001

>  <m_primary>  (2) 
energy

$$$$
2:0
     RDKit          3D

 33 33  0  0  0  0  0  0  0  0999 V2000
   -1.8340   25.0170  -26.7360 C   0  0  0  0  0  0  0  0  0  0  0  0
   -1.0980   25.0350  -28.3610 S   0  0  0  0  0  0  0  0  0  0  0  0
   -1.2260   26.4100  -28.9530 O   0  0  0  0  0  0  0  0  0  0  0  0
    0.3610   24.7050  -28.2220 O   0  0  0  0  0  0  0  0  0  0  0  0
   -1.8310   23.8610  -29.4210 N   0  0  0  0  0  0  0  0  0  0  0  0
   -1.8750   22.5120  -28.8370 C   0  0  0  0  0  0  0  0  0  0  0  0
   -3.0530   22.3200  -27.8670 C   0  0  0  0  0  0  0  0  0  0  0  0
   -4.3790   22.7560  -28.5040 C   0  0  0  0  0  0  0  0  0  0  0  0
   -4.5200   24.2150  -28.5090 N   0  0  0  0  0  0  0  0  0  0  0  0
   -5.0870   24.8160  -30.0440 S   0  0  0  0  0  0  0  0  0  0  0  0
   -6.0260   25.9720  -29.8330 O   0  0  0  0  0  0  0  0  0  0  0  0
   -3.9100   25.2880  -30.8490 O   0  0  0  0  0  0  0  0  0  0  0  0
   -5.8950   23.5250  -30.9280 C   0  0  0  0  0  0  0  0  0  0  0  0
   -7.2920   23.4160  -30.8770 C   0  0  0  0  0  0  0  0  0  0  0  0
   -7.9450   22.4140  -31.6030 C   0  0  0  0  0  0  0  0  0  0  0  0
   -7.2060   21.5160  -32.3780 C   0  0  0  0  0  0  0  0  0  0  0  0
   -5.8130   21.6160  -32.4260 C   0  0  0  0  0  0  0  0  0  0  0  0
   -5.1570   22.6180  -31.7020 C   0  0  0  0  0  0  0  0  0  0  0  0
   -1.0409   25.0364  -25.9740 H   0  0  0  0  0  0  0  0  0  0  0  0
   -2.4794   25.8996  -26.6160 H   0  0  0  0  0  0  0  0  0  0  0  0
   -2.4355   24.1039  -26.6160 H   0  0  0  0  0  0  0  0  0  0  0  0
   -2.8060   24.1790  -29.6310 H   0  0  0  0  0  0  0  0  0  0  0  0
   -1.9680   21.7792  -29.6520 H   0  0  0  0  0  0  0  0  0  0  0  0
   -0.9473   22.3693  -28.2634 H   0  0  0  0  0  0  0  0  0  0  0  0
   -3.1205   21.2571  -27.5918 H   0  0  0  0  0  0  0  0  0  0  0  0
   -2.8746   22.9427  -26.9779 H   0  0  0  0  0  0  0  0  0  0  0  0
   -4.4145   22.3902  -29.5408 H   0  0  0  0  0  0  0  0  0  0  0  0
   -5.2023   22.3323  -27.9101 H   0  0  0  0  0  0  0  0  0  0  0  0
   -7.8756   24.1196  -30.2651 H   0  0  0  0  0  0  0  0  0  0  0  0
   -9.0413   22.3329  -31.5638 H   0  0  0  0  0  0  0  0  0  0  0  0
   -7.7210   20.7303  -32.9503 H   0  0  0  0  0  0  0  0  0  0  0  0
   -5.2317   20.9066  -33.0333 H   0  0  0  0  0  0  0  0  0  0  0  0
   -4.0603   22.6942  -31.7402 H   0  0  0  0  0  0  0  0  0  0  0  0
  1  2  1  0
  2  3  2  0
  2  4  2  0
  2  5  1  0
  5  6  1  0
  6  7  1  0
  7  8  1  0
  8  9  1  0
  9 10  1  0
 10 11  2  0
 10 12  2  0
 10 13  1  0
 13 14  2  0
 14 15  1  0
 15 16  2  0
 16 17  1  0
 17 18  2  0
 18 13  1  0
  1 19  1  0
  1 20  1  0
  1 21  1  0
  5 22  1  0
  6 23  1  0
  6 24  1  0
  7 25  1  0
  7 26  1  0
  8 27  1  0
  8 28  1  0
 14 29  1  0
 15 30  1  0
 16 31  1  0
 17 32  1  0
 18 33  1  0
M  CHG  1   9  -1
M  END
>  <UniqueID>  (3) 
3

>  <SMILES>  (3) 
CS(=O)(=O)NCCC[N-]S(=O)(=O)c1ccccc1

>  <Energy>  (3) 
22.001176851598945

>  <Genealogy>  (3) 
CS(=O)(=O)NCCC[N-]S(=O)(=O)c1ccccc1 (protonated)
CS(=O)(=O)NCCC[N-]S(=O)(=O)c1ccccc1 (3D coordinates assigned)
CS(=O)(=O)NCCC[N-]S(=O)(=O)c1ccccc1 (optimized conformer: 22.001176851598945 kcal/mol)

>  <smiles>  (3) 
CS(=O)(=O)NCCCNS(=O)(=O)c1ccccc1

>  <score_type>  (3) 
oracle

>  <origin>  (3) 
adgpu

>  <m_score__min__energy>  (3) 
-7.8499999999999996

>  <m_primary>  (3) 
energy

$$$$
3:0
     RDKit          3D

 29 30  0  0  0  0  0  0  0  0999 V2000
   -6.4900   24.3580  -31.5410 C   0  0  0  0  0  0  0  0  0  0  0  0
   -5.3770   23.3890  -31.1990 C   0  0  0  0  0  0  0  0  0  0  0  0
   -4.1030   23.8970  -30.8540 C   0  0  0  0  0  0  0  0  0  0  0  0
   -3.8800   25.2760  -30.8180 O   0  0  0  0  0  0  0  0  0  0  0  0
   -3.0650   23.0060  -30.5520 C   0  0  0  0  0  0  0  0  0  0  0  0
   -1.9230   23.4350  -30.2360 O   0  0  0  0  0  0  0  0  0  0  0  0
   -3.2940   21.6380  -30.6020 C   0  0  0  0  0  0  0  0  0  0  0  0
   -4.5520   21.1620  -30.9560 C   0  0  0  0  0  0  0  0  0  0  0  0
   -5.5770   22.0220  -31.2510 N   0  0  0  0  0  0  0  0  0  0  0  0
   -6.8740   21.4350  -31.6450 C   0  0  0  0  0  0  0  0  0  0  0  0
   -6.6870   20.0980  -32.3170 C   0  0  0  0  0  0  0  0  0  0  0  0
   -6.0730   20.0140  -33.5780 C   0  0  0  0  0  0  0  0  0  0  0  0
   -5.9120   18.7740  -34.2040 C   0  0  0  0  0  0  0  0  0  0  0  0
   -6.3720   17.6100  -33.5810 C   0  0  0  0  0  0  0  0  0  0  0  0
   -6.2160   16.4080  -34.1890 F   0  0  0  0  0  0  0  0  0  0  0  0
   -6.9970   17.6850  -32.3330 C   0  0  0  0  0  0  0  0  0  0  0  0
   -7.1590   18.9240  -31.7040 C   0  0  0  0  0  0  0  0  0  0  0  0
   -6.9360   24.7463  -30.6135 H   0  0  0  0  0  0  0  0  0  0  0  0
   -6.0814   25.1931  -32.1289 H   0  0  0  0  0  0  0  0  0  0  0  0
   -7.2609   23.8383  -32.1289 H   0  0  0  0  0  0  0  0  0  0  0  0
   -2.9580   25.6740  -30.6780 H   0  0  0  0  0  0  0  0  0  0  0  0
   -2.4840   20.9333  -30.3627 H   0  0  0  0  0  0  0  0  0  0  0  0
   -4.7270   20.0769  -30.9999 H   0  0  0  0  0  0  0  0  0  0  0  0
   -7.4947   21.3012  -30.7468 H   0  0  0  0  0  0  0  0  0  0  0  0
   -7.3626   22.1168  -32.3567 H   0  0  0  0  0  0  0  0  0  0  0  0
   -5.7171   20.9283  -34.0753 H   0  0  0  0  0  0  0  0  0  0  0  0
   -5.4230   18.7143  -35.1875 H   0  0  0  0  0  0  0  0  0  0  0  0
   -7.3617   16.7691  -31.8451 H   0  0  0  0  0  0  0  0  0  0  0  0
   -7.6580   18.9800  -30.7253 H   0  0  0  0  0  0  0  0  0  0  0  0
  1  2  1  0
  2  3  2  0
  3  4  1  0
  3  5  1  0
  5  6  2  0
  5  7  1  0
  7  8  2  0
  8  9  1  0
  9 10  1  0
 10 11  1  0
 11 12  2  0
 12 13  1  0
 13 14  2  0
 14 15  1  0
 14 16  1  0
 16 17  2  0
  9  2  1  0
 17 11  1  0
  1 18  1  0
  1 19  1  0
  1 20  1  0
  4 21  1  0
  7 22  1  0
  8 23  1  0
 10 24  1  0
 10 25  1  0
 12 26  1  0
 13 27  1  0
 16 28  1  0
 17 29  1  0
M  END
>  <UniqueID>  (4) 
4

>  <SMILES>  (4) 
Cc1c(O)c(=O)ccn1Cc1ccc(F)cc1

>  <Energy>  (4) 
34.09291334034129

>  <Genealogy>  (4) 
Cc1c(O)c(=O)ccn1Cc1ccc(F)cc1 (3D coordinates assigned)
Cc1c(O)c(=O)ccn1Cc1ccc(F)cc1 (optimized conformer: 34.09291334034129 kcal/mol)

>  <smiles>  (4) 
Cc1c(O)c(=O)ccn1Cc1ccc(F)cc1

>  <score_type>  (4) 
oracle

>  <origin>  (4) 
adgpu

>  <m_score__min__energy>  (4) 
-7.1699999999999999

>  <m_primary>  (4) 
energy

$$$$
4:0
     RDKit          3D

 29 30  0  0  0  0  0  0  0  0999 V2000
   -2.2380   24.2190  -29.2450 C   0  0  0  0  0  0  0  0  0  0  0  0
   -3.1340   24.9280  -30.0950 O   0  0  0  0  0  0  0  0  0  0  0  0
   -4.4300   24.4950  -30.4190 C   0  0  0  0  0  0  0  0  0  0  0  0
   -5.5130   25.2470  -29.9560 C   0  0  0  0  0  0  0  0  0  0  0  0
   -6.8210   24.8600  -30.2510 C   0  0  0  0  0  0  0  0  0  0  0  0
   -7.0630   23.7140  -31.0140 C   0  0  0  0  0  0  0  0  0  0  0  0
   -8.3480   23.3710  -31.2790 F   0  0  0  0  0  0  0  0  0  0  0  0
   -5.9860   22.9410  -31.4920 C   0  0  0  0  0  0  0  0  0  0  0  0
   -6.2160   21.7210  -32.3040 C   0  0  0  0  0  0  0  0  0  0  0  0
   -7.4330   21.3300  -32.7400 N   0  0  0  0  0  0  0  0  0  0  0  0
   -7.2350   20.2180  -33.4220 N   0  0  0  0  0  0  0  0  0  0  0  0
   -5.9210   19.9470  -33.3920 C   0  0  0  0  0  0  0  0  0  0  0  0
   -5.2830   18.7870  -34.0840 C   0  0  0  0  0  0  0  0  0  0  0  0
   -6.2870   17.2780  -33.8590 S   0  0  0  0  0  0  0  0  0  0  0  0
   -6.4810   17.4520  -32.0550 C   0  0  0  0  0  0  0  0  0  0  0  0
   -5.2350   20.8770  -32.6980 N   0  0  0  0  0  0  0  0  0  0  0  0
   -4.6710   23.3410  -31.1890 C   0  0  0  0  0  0  0  0  0  0  0  0
   -2.4927   24.4206  -28.1941 H   0  0  0  0  0  0  0  0  0  0  0  0
   -2.3219   23.1401  -29.4422 H   0  0  0  0  0  0  0  0  0  0  0  0
   -1.2073   24.5487  -29.4422 H   0  0  0  0  0  0  0  0  0  0  0  0
   -5.3333   26.1504  -29.3547 H   0  0  0  0  0  0  0  0  0  0  0  0
   -7.6657   25.4598  -29.8813 H   0  0  0  0  0  0  0  0  0  0  0  0
   -7.9850   19.6690  -33.8990 H   0  0  0  0  0  0  0  0  0  0  0  0
   -5.1977   19.0084  -35.1581 H   0  0  0  0  0  0  0  0  0  0  0  0
   -4.2857   18.6189  -33.6514 H   0  0  0  0  0  0  0  0  0  0  0  0
   -5.7559   16.8017  -31.5438 H   0  0  0  0  0  0  0  0  0  0  0  0
   -6.3024   18.4983  -31.7662 H   0  0  0  0  0  0  0  0  0  0  0  0
   -7.5018   17.1611  -31.7662 H   0  0  0  0  0  0  0  0  0  0  0  0
   -3.8226   22.7458  -31.5576 H   0  0  0  0  0  0  0  0  0  0  0  0
  1  2  1  0
  2  3  1  0
  3  4  2  0
  4  5  1  0
  5  6  2  0
  6  7  1  0
  6  8  1  0
  8  9  1  0
  9 10  2  0
 10 11  1  0
 11 12  1  0
 12 13  1  0
 13 14  1  0
 14 15  1  0
 12 16  2  0
  8 17  2  0
 17  3  1  0
 16  9  1  0
  1 18  1  0
  1 19  1  0
  1 20  1  0
  4 21  1  0
  5 22  1  0
 11 23  1  0
 13 24  1  0
 13 25  1  0
 15 26  1  0
 15 27  1  0
 15 28  1  0
 17 29  1  0
M  END
>  <UniqueID>  (5) 
5

>  <SMILES>  (5) 
COc1ccc(F)c(-c2n[nH]c(CSC)n2)c1

>  <Energy>  (5) 
57.73656484091905

>  <Genealogy>  (5) 
COc1ccc(F)c(-c2n[nH]c(CSC)n2)c1 (3D coordinates assigned)
COc1ccc(F)c(-c2n[nH]c(CSC)n2)c1 (optimized conformer: 57.73656484091905 kcal/mol)

>  <smiles>  (5) 
COc1ccc(F)c(-c2n[nH]c(CSC)n2)c1

>  <score_type>  (5) 
oracle

>  <origin>  (5) 
adgpu

>  <m_score__min__energy>  (5) 
-6.6299999999999999

>  <m_primary>  (5) 
energy

$$$$
5:0
     RDKit          3D

 33 35  0  0  0  0  0  0  0  0999 V2000
   -3.9670   25.4130  -30.5610 N   0  0  0  0  0  0  0  0  0  0  0  0
   -5.3730   25.0560  -30.7080 C   0  0  0  0  0  0  0  0  0  0  0  0
   -5.4900   23.6800  -31.2840 C   0  0  0  0  0  0  0  0  0  0  0  0
   -4.4350   22.9840  -31.7580 N   0  0  0  0  0  0  0  0  0  0  0  0
   -4.9560   21.7910  -32.1130 C   0  0  0  0  0  0  0  0  0  0  0  0
   -4.1540   20.7310  -32.7590 C   0  0  0  0  0  0  0  0  0  0  0  0
   -2.7610   20.7050  -32.5820 C   0  0  0  0  0  0  0  0  0  0  0  0
   -1.9880   19.7190  -33.2010 C   0  0  0  0  0  0  0  0  0  0  0  0
   -2.5970   18.7580  -34.0140 C   0  0  0  0  0  0  0  0  0  0  0  0
   -1.8460   17.8030  -34.6150 F   0  0  0  0  0  0  0  0  0  0  0  0
   -3.9790   18.7890  -34.2150 C   0  0  0  0  0  0  0  0  0  0  0  0
   -4.7550   19.7750  -33.5970 C   0  0  0  0  0  0  0  0  0  0  0  0
   -6.3160   21.7810  -31.8240 C   0  0  0  0  0  0  0  0  0  0  0  0
   -7.2700   20.6560  -31.9270 C   0  0  0  0  0  0  0  0  0  0  0  0
   -8.5910   20.8910  -32.3310 C   0  0  0  0  0  0  0  0  0  0  0  0
   -9.4890   19.8250  -32.4110 C   0  0  0  0  0  0  0  0  0  0  0  0
   -9.0870   18.5680  -32.0830 N   0  0  0  0  0  0  0  0  0  0  0  0
   -7.8170   18.3120  -31.6720 C   0  0  0  0  0  0  0  0  0  0  0  0
   -6.8870   19.3510  -31.5790 C   0  0  0  0  0  0  0  0  0  0  0  0
   -6.6400   22.9800  -31.3070 N   0  0  0  0  0  0  0  0  0  0  0  0
   -3.8650   26.4180  -30.8300 H   0  0  0  0  0  0  0  0  0  0  0  0
   -3.4140   24.8610  -31.2580 H   0  0  0  0  0  0  0  0  0  0  0  0
   -5.8611   25.0819  -29.7226 H   0  0  0  0  0  0  0  0  0  0  0  0
   -5.8611   25.7745  -31.3829 H   0  0  0  0  0  0  0  0  0  0  0  0
   -2.2756   21.4652  -31.9524 H   0  0  0  0  0  0  0  0  0  0  0  0
   -0.8988   19.6988  -33.0485 H   0  0  0  0  0  0  0  0  0  0  0  0
   -4.4574   18.0372  -34.8599 H   0  0  0  0  0  0  0  0  0  0  0  0
   -5.8414   19.8028  -33.7674 H   0  0  0  0  0  0  0  0  0  0  0  0
   -8.9188   21.9101  -32.5838 H   0  0  0  0  0  0  0  0  0  0  0  0
  -10.5236   20.0022  -32.7399 H   0  0  0  0  0  0  0  0  0  0  0  0
   -7.5206   17.2851  -31.4121 H   0  0  0  0  0  0  0  0  0  0  0  0
   -5.8620   19.1477  -31.2355 H   0  0  0  0  0  0  0  0  0  0  0  0
   -7.5720   23.2870  -30.9490 H   0  0  0  0  0  0  0  0  0  0  0  0
  1  2  1  0
  2  3  1  0
  3  4  2  0
  4  5  1  0
  5  6  1  0
  6  7  2  0
  7  8  1  0
  8  9  2  0
  9 10  1  0
  9 11  1  0
 11 12  2  0
  5 13  2  0
 13 14  1  0
 14 15  2  0
 15 16  1  0
 16 17  2  0
 17 18  1  0
 18 19  2  0
 13 20  1  0
 20  3  1  0
 12  6  1  0
 19 14  1  0
  1 21  1  0
  1 22  1  0
  2 23  1  0
  2 24  1  0
  7 25  1  0
  8 26  1  0
 11 27  1  0
 12 28  1  0
 15 29  1  0
 16 30  1  0
 18 31  1  0
 19 32  1  0
 20 33  1  0
M  END
>  <UniqueID>  (6) 
6

>  <SMILES>  (6) 
NCc1nc(-c2ccc(F)cc2)c(-c2ccncc2)[nH]1

>  <Energy>  (6) 
70.49707922069187

>  <Genealogy>  (6) 
NCc1nc(-c2ccc(F)cc2)c(-c2ccncc2)[nH]1 (3D coordinates assigned)
NCc1nc(-c2ccc(F)cc2)c(-c2ccncc2)[nH]1 (optimized conformer: 70.49707922069187 kcal/mol)

>  <smiles>  (6) 
NCc1nc(-c2ccc(F)cc2)c(-c2ccncc2)[nH]1

>  <score_type>  (6) 
oracle

>  <origin>  (6) 
adgpu

>  <m_score__min__energy>  (6) 
-7.8799999999999999

>  <m_primary>  (6) 
energy

$$$$
6:0
     RDKit          3D

 38 40  0  0  0  0  0  0  0  0999 V2000
   -0.8980   24.2180  -29.4360 O   0  0  0  0  0  0  0  0  0  0  0  0
   -1.6300   25.1390  -28.9930 C   0  0  0  0  0  0  0  0  0  0  0  0
   -3.0370   24.9030  -28.8600 N   0  0  0  0  0  0  0  0  0  0  0  0
   -3.8970   24.3250  -29.8530 C   0  0  0  0  0  0  0  0  0  0  0  0
   -5.1380   24.9240  -30.0990 C   0  0  0  0  0  0  0  0  0  0  0  0
   -6.0130   24.3800  -31.0430 C   0  0  0  0  0  0  0  0  0  0  0  0
   -5.6690   23.2040  -31.7330 C   0  0  0  0  0  0  0  0  0  0  0  0
   -6.5120   22.6370  -32.7000 O   0  0  0  0  0  0  0  0  0  0  0  0
   -7.1860   21.4130  -32.5750 C   0  0  0  0  0  0  0  0  0  0  0  0
   -8.4550   21.3200  -31.9730 C   0  0  0  0  0  0  0  0  0  0  0  0
   -9.0870   20.0790  -31.8530 C   0  0  0  0  0  0  0  0  0  0  0  0
   -8.4550   18.9220  -32.3200 C   0  0  0  0  0  0  0  0  0  0  0  0
   -7.1860   19.0060  -32.9000 C   0  0  0  0  0  0  0  0  0  0  0  0
   -6.5520   20.2470  -33.0210 C   0  0  0  0  0  0  0  0  0  0  0  0
   -4.4310   22.6020  -31.4830 C   0  0  0  0  0  0  0  0  0  0  0  0
   -3.5550   23.1460  -30.5390 C   0  0  0  0  0  0  0  0  0  0  0  0
   -1.0670   26.4050  -28.6200 N   0  0  0  0  0  0  0  0  0  0  0  0
   -0.8590   26.8960  -27.2880 C   0  0  0  0  0  0  0  0  0  0  0  0
   -0.4950   28.2300  -27.0310 C   0  0  0  0  0  0  0  0  0  0  0  0
   -0.2800   28.6600  -25.7170 C   0  0  0  0  0  0  0  0  0  0  0  0
   -0.4130   27.7620  -24.6550 C   0  0  0  0  0  0  0  0  0  0  0  0
   -0.7500   26.4260  -24.9040 C   0  0  0  0  0  0  0  0  0  0  0  0
   -0.8740   25.5170  -23.8540 O   0  0  0  0  0  0  0  0  0  0  0  0
   -0.9640   25.9960  -26.2180 C   0  0  0  0  0  0  0  0  0  0  0  0
   -5.4265   25.8296  -29.5452 H   0  0  0  0  0  0  0  0  0  0  0  0
   -6.9746   24.8736  -31.2471 H   0  0  0  0  0  0  0  0  0  0  0  0
   -8.9508   22.2266  -31.5959 H   0  0  0  0  0  0  0  0  0  0  0  0
  -10.0829   20.0123  -31.3906 H   0  0  0  0  0  0  0  0  0  0  0  0
   -8.9561   17.9468  -32.2309 H   0  0  0  0  0  0  0  0  0  0  0  0
   -6.6856   18.0956  -33.2615 H   0  0  0  0  0  0  0  0  0  0  0  0
   -5.5493   20.3072  -33.4693 H   0  0  0  0  0  0  0  0  0  0  0  0
   -4.1447   21.6937  -32.0335 H   0  0  0  0  0  0  0  0  0  0  0  0
   -2.5951   22.6502  -30.3322 H   0  0  0  0  0  0  0  0  0  0  0  0
   -0.3790   28.9373  -27.8654 H   0  0  0  0  0  0  0  0  0  0  0  0
   -0.0058   29.7069  -25.5198 H   0  0  0  0  0  0  0  0  0  0  0  0
   -0.2528   28.1049  -23.6222 H   0  0  0  0  0  0  0  0  0  0  0  0
   -0.0800   25.2660  -23.2760 H   0  0  0  0  0  0  0  0  0  0  0  0
   -1.2167   24.9434  -26.4133 H   0  0  0  0  0  0  0  0  0  0  0  0
  1  2  2  0
  2  3  1  0
  3  4  1  0
  4  5  2  0
  5  6  1  0
  6  7  2  0
  7  8  1  0
  8  9  1  0
  9 10  2  0
 10 11  1  0
 11 12  2  0
 12 13  1  0
 13 14  2  0
  7 15  1  0
 15 16  2  0
  2 17  1  0
 17 18  1  0
 18 19  2  0
 19 20  1  0
 20 21  2  0
 21 22  1  0
 22 23  1  0
 22 24  2  0
 16  4  1  0
 24 18  1  0
 14  9  1  0
  5 25  1  0
  6 26  1  0
 10 27  1  0
 11 28  1  0
 12 29  1  0
 13 30  1  0
 14 31  1  0
 15 32  1  0
 16 33  1  0
 19 34  1  0
 20 35  1  0
 21 36  1  0
 23 37  1  0
 24 38  1  0
M  CHG  2   3  -1  17  -1
M  END
>  <UniqueID>  (7) 
7

>  <SMILES>  (7) 
O=C([N-]c1ccc(Oc2ccccc2)cc1)[N-]c1cccc(O)c1

>  <Energy>  (7) 
53.999840867148976

>  <Genealogy>  (7) 
O=C([N-]c1ccc(Oc2ccccc2)cc1)[N-]c1cccc(O)c1 (protonated)
O=C([N-]c1ccc(Oc2ccccc2)cc1)[N-]c1cccc(O)c1 (3D coordinates assigned)
O=C([N-]c1ccc(Oc2ccccc2)cc1)[N-]c1cccc(O)c1 (optimized conformer: 53.999840867148976 kcal/mol)

>  <smiles>  (7) 
O=C(Nc1ccc(Oc2ccccc2)cc1)Nc1cccc(O)c1

>  <score_type>  (7) 
oracle

>  <origin>  (7) 
adgpu

>  <m_score__min__energy>  (7) 
-11.6

>  <m_primary>  (7) 
energy

$$$$
7:0
     RDKit          3D

 53 58  0  0  0  0  0  0  0  0999 V2000
   -8.1150   23.2400  -31.7920 C   0  0  0  0  0  0  0  0  0  0  0  0
   -9.0670   22.2380  -31.5950 C   0  0  0  0  0  0  0  0  0  0  0  0
   -8.7600   20.9070  -31.9000 C   0  0  0  0  0  0  0  0  0  0  0  0
   -7.4880   20.5650  -32.4030 C   0  0  0  0  0  0  0  0  0  0  0  0
   -7.1400   19.1620  -32.7420 C   0  0  0  0  0  0  0  0  0  0  0  0
   -7.9740   18.0690  -32.3870 C   0  0  0  0  0  0  0  0  0  0  0  0
   -7.6050   16.7940  -32.7030 N   0  0  0  0  0  0  0  0  0  0  0  0
   -6.4350   16.6050  -33.3550 C   0  0  0  0  0  0  0  0  0  0  0  0
   -5.8710   15.4140  -33.7600 C   0  0  0  0  0  0  0  0  0  0  0  0
   -4.6670   15.7700  -34.3660 C   0  0  0  0  0  0  0  0  0  0  0  0
   -4.5580   17.1570  -34.2870 C   0  0  0  0  0  0  0  0  0  0  0  0
   -3.4340   17.9840  -34.8400 C   0  0  0  0  0  0  0  0  0  0  0  0
   -2.6190   18.5160  -33.7950 O   0  0  0  0  0  0  0  0  0  0  0  0
   -2.8760   19.7010  -33.0880 C   0  0  0  0  0  0  0  0  0  0  0  0
   -2.6800   19.7020  -31.7030 C   0  0  0  0  0  0  0  0  0  0  0  0
   -2.9000   20.8600  -30.9540 C   0  0  0  0  0  0  0  0  0  0  0  0
   -3.3430   22.0370  -31.5790 C   0  0  0  0  0  0  0  0  0  0  0  0
   -3.5570   23.2780  -30.8060 C   0  0  0  0  0  0  0  0  0  0  0  0
   -4.3640   24.2780  -31.2160 N   0  0  0  0  0  0  0  0  0  0  0  0
   -4.2570   25.2550  -30.3270 N   0  0  0  0  0  0  0  0  0  0  0  0
   -3.4100   24.9220  -29.3670 N   0  0  0  0  0  0  0  0  0  0  0  0
   -2.9540   23.6840  -29.6240 C   0  0  0  0  0  0  0  0  0  0  0  0
   -2.0740   22.9200  -28.7140 C   0  0  0  0  0  0  0  0  0  0  0  0
   -0.7000   23.2010  -28.6670 C   0  0  0  0  0  0  0  0  0  0  0  0
    0.1210   22.4840  -27.7940 C   0  0  0  0  0  0  0  0  0  0  0  0
   -0.4110   21.5300  -26.9860 N   0  0  0  0  0  0  0  0  0  0  0  0
   -1.7400   21.2460  -26.9980 C   0  0  0  0  0  0  0  0  0  0  0  0
   -2.5970   21.9390  -27.8560 C   0  0  0  0  0  0  0  0  0  0  0  0
   -3.5320   22.0420  -32.9700 C   0  0  0  0  0  0  0  0  0  0  0  0
   -3.3100   20.8820  -33.7190 C   0  0  0  0  0  0  0  0  0  0  0  0
   -5.6540   17.6390  -33.6770 N   0  0  0  0  0  0  0  0  0  0  0  0
   -5.9690   18.8980  -33.3920 N   0  0  0  0  0  0  0  0  0  0  0  0
   -6.5430   21.5880  -32.6080 C   0  0  0  0  0  0  0  0  0  0  0  0
   -6.8550   22.9170  -32.3000 C   0  0  0  0  0  0  0  0  0  0  0  0
   -8.3576   24.2845  -31.5469 H   0  0  0  0  0  0  0  0  0  0  0  0
  -10.0606   22.4952  -31.1992 H   0  0  0  0  0  0  0  0  0  0  0  0
   -9.5159   20.1228  -31.7463 H   0  0  0  0  0  0  0  0  0  0  0  0
   -8.9200   18.2506  -31.8559 H   0  0  0  0  0  0  0  0  0  0  0  0
   -6.2821   14.4017  -33.6326 H   0  0  0  0  0  0  0  0  0  0  0  0
   -3.9384   15.0835  -34.8219 H   0  0  0  0  0  0  0  0  0  0  0  0
   -2.8129   17.3535  -35.4932 H   0  0  0  0  0  0  0  0  0  0  0  0
   -3.8656   18.8231  -35.4053 H   0  0  0  0  0  0  0  0  0  0  0  0
   -2.3494   18.7819  -31.1990 H   0  0  0  0  0  0  0  0  0  0  0  0
   -2.7252   20.8501  -29.8680 H   0  0  0  0  0  0  0  0  0  0  0  0
   -3.1850   25.5210  -28.5420 H   0  0  0  0  0  0  0  0  0  0  0  0
   -0.2722   23.9812  -29.3138 H   0  0  0  0  0  0  0  0  0  0  0  0
    1.2006   22.6920  -27.7605 H   0  0  0  0  0  0  0  0  0  0  0  0
   -2.1414   20.4690  -26.3308 H   0  0  0  0  0  0  0  0  0  0  0  0
   -3.6745   21.7178  -27.8596 H   0  0  0  0  0  0  0  0  0  0  0  0
   -3.8568   22.9642  -33.4741 H   0  0  0  0  0  0  0  0  0  0  0  0
   -3.4753   20.8926  -34.8065 H   0  0  0  0  0  0  0  0  0  0  0  0
   -5.5509   21.3407  -33.0137 H   0  0  0  0  0  0  0  0  0  0  0  0
   -6.1070   23.7079  -32.4582 H   0  0  0  0  0  0  0  0  0  0  0  0
  1  2  2  0
  2  3  1  0
  3  4  2  0
  4  5  1  0
  5  6  1  0
  6  7  2  0
  7  8  1  0
  8  9  2  0
  9 10  1  0
 10 11  2  0
 11 12  1  0
 12 13  1  0
 13 14  1  0
 14 15  2  0
 15 16  1  0
 16 17  2  0
 17 18  1  0
 18 19  1  0
 19 20  2  0
 20 21  1  0
 21 22  1  0
 22 23  1  0
 23 24  2  0
 24 25  1  0
 25 26  2  0
 26 27  1  0
 27 28  2  0
 17 29  1  0
 29 30  2  0
 11 31  1  0
 31 32  1  0
  4 33  1  0
 33 34  2  0
 34  1  1  0
 32  5  2  0
 31  8  1  0
 30 14  1  0
 22 18  2  0
 28 23  1  0
  1 35  1  0
  2 36  1  0
  3 37  1  0
  6 38  1  0
  9 39  1  0
 10 40  1  0
 12 41  1  0
 12 42  1  0
 15 43  1  0
 16 44  1  0
 21 45  1  0
 24 46  1  0
 25 47  1  0
 27 48  1  0
 28 49  1  0
 29 50  1  0
 30 51  1  0
 33 52  1  0
 34 53  1  0
M  END
>  <UniqueID>  (8) 
8

>  <SMILES>  (8) 
c1ccc(-c2cnc3ccc(COc4ccc(-c5nn[nH]c5-c5ccncc5)cc4)n3n2)cc1

>  <Energy>  (8) 
142.0064757144608

>  <Genealogy>  (8) 
c1ccc(-c2cnc3ccc(COc4ccc(-c5nn[nH]c5-c5ccncc5)cc4)n3n2)cc1 (3D coordinates assigned)
c1ccc(-c2cnc3ccc(COc4ccc(-c5nn[nH]c5-c5ccncc5)cc4)n3n2)cc1 (optimized conformer: 142.0064757144608 kcal/mol)

>  <smiles>  (8) 
c1ccc(-c2cnc3ccc(COc4ccc(-c5nn[nH]c5-c5ccncc5)cc4)n3n2)cc1

>  <score_type>  (8) 
oracle

>  <origin>  (8) 
adgpu

>  <m_score__min__energy>  (8) 
-10.550000000000001

>  <m_primary>  (8) 
energy

$$$$
8:0
     RDKit          3D

 50 52  0  0  0  0  0  0  0  0999 V2000
   -4.9230   17.1384  -35.5607 H   0  0  0  0  0  0  0  0  0  0  0  0
   -5.2820   17.6560  -34.6590 C   0  0  0  0  0  0  0  0  0  0  0  0
   -4.5480   18.7190  -34.1260 C   0  0  0  0  0  0  0  0  0  0  0  0
   -3.6209   19.0471  -34.6188 H   0  0  0  0  0  0  0  0  0  0  0  0
   -4.9920   19.3710  -32.9600 C   0  0  0  0  0  0  0  0  0  0  0  0
   -4.2850   20.4900  -32.3990 N   0  0  0  0  0  0  0  0  0  0  0  0
   -4.8000   21.6170  -31.9990 C   0  0  0  0  0  0  0  0  0  0  0  0
   -3.9920   22.5530  -31.4410 N   0  0  0  0  0  0  0  0  0  0  0  0
   -4.4940   23.7510  -31.0390 C   0  0  0  0  0  0  0  0  0  0  0  0
   -3.6730   24.7130  -30.4370 O   0  0  0  0  0  0  0  0  0  0  0  0
   -3.0840   24.5960  -29.1700 C   0  0  0  0  0  0  0  0  0  0  0  0
   -3.8390   24.3450  -28.0110 C   0  0  0  0  0  0  0  0  0  0  0  0
   -4.9320   24.2427  -28.0808 H   0  0  0  0  0  0  0  0  0  0  0  0
   -3.2070   24.2250  -26.7710 C   0  0  0  0  0  0  0  0  0  0  0  0
   -3.8090   24.0405  -25.8690 H   0  0  0  0  0  0  0  0  0  0  0  0
   -1.8160   24.3370  -26.6640 C   0  0  0  0  0  0  0  0  0  0  0  0
   -1.2390   24.2120  -25.3890 O   0  0  0  0  0  0  0  0  0  0  0  0
   -0.8760   25.2900  -24.5250 C   0  0  0  0  0  0  0  0  0  0  0  0
   -1.1677   25.0515  -23.4916 H   0  0  0  0  0  0  0  0  0  0  0  0
    0.6360   25.4910  -24.6010 C   0  0  0  0  0  0  0  0  0  0  0  0
    1.0502   25.5461  -23.5834 H   0  0  0  0  0  0  0  0  0  0  0  0
    1.0918   24.6455  -25.1372 H   0  0  0  0  0  0  0  0  0  0  0  0
    0.8551   26.4262  -25.1372 H   0  0  0  0  0  0  0  0  0  0  0  0
   -1.6020   26.5720  -24.9430 C   0  0  0  0  0  0  0  0  0  0  0  0
   -1.9153   27.1253  -24.0454 H   0  0  0  0  0  0  0  0  0  0  0  0
   -0.9246   27.1984  -25.5419 H   0  0  0  0  0  0  0  0  0  0  0  0
   -2.4876   26.3132  -25.5419 H   0  0  0  0  0  0  0  0  0  0  0  0
   -1.0590   24.5730  -27.8280 C   0  0  0  0  0  0  0  0  0  0  0  0
    0.0351   24.6648  -27.7606 H   0  0  0  0  0  0  0  0  0  0  0  0
   -1.6920   24.6910  -29.0680 C   0  0  0  0  0  0  0  0  0  0  0  0
   -1.0899   24.8603  -29.9729 H   0  0  0  0  0  0  0  0  0  0  0  0
   -5.8200   24.0050  -31.1880 N   0  0  0  0  0  0  0  0  0  0  0  0
   -6.2130   24.9190  -30.8680 H   0  0  0  0  0  0  0  0  0  0  0  0
   -6.6330   23.0770  -31.7560 C   0  0  0  0  0  0  0  0  0  0  0  0
   -8.3800   23.4080  -31.9680 S   0  0  0  0  0  0  0  0  0  0  0  0
   -8.8620   21.6870  -31.6200 C   0  0  0  0  0  0  0  0  0  0  0  0
   -8.9056   21.5313  -30.5319 H   0  0  0  0  0  0  0  0  0  0  0  0
   -9.8507   21.4872  -32.0589 H   0  0  0  0  0  0  0  0  0  0  0  0
   -8.1209   21.0028  -32.0589 H   0  0  0  0  0  0  0  0  0  0  0  0
   -6.1210   21.8900  -32.1660 N   0  0  0  0  0  0  0  0  0  0  0  0
   -6.2030   18.9780  -32.3740 C   0  0  0  0  0  0  0  0  0  0  0  0
   -6.5776   19.5116  -31.4880 H   0  0  0  0  0  0  0  0  0  0  0  0
   -6.9450   17.9070  -32.9080 C   0  0  0  0  0  0  0  0  0  0  0  0
   -8.1510   17.4690  -32.3420 O   0  0  0  0  0  0  0  0  0  0  0  0
   -9.0430   18.3030  -31.6080 C   0  0  0  0  0  0  0  0  0  0  0  0
   -8.8823   18.1527  -30.5302 H   0  0  0  0  0  0  0  0  0  0  0  0
   -8.8543   19.3561  -31.8635 H   0  0  0  0  0  0  0  0  0  0  0  0
  -10.0811   18.0440  -31.8635 H   0  0  0  0  0  0  0  0  0  0  0  0
   -6.4700   17.2500  -34.0490 C   0  0  0  0  0  0  0  0  0  0  0  0
   -7.0378   16.4065  -34.4686 H   0  0  0  0  0  0  0  0  0  0  0  0
  1  2  1  0
  2  3  2  0
  3  4  1  0
  3  5  1  0
  5  6  1  0
  6  7  2  0
  7  8  1  0
  8  9  2  0
  9 10  1  0
 10 11  1  0
 11 12  2  0
 12 13  1  0
 12 14  1  0
 14 15  1  0
 14 16  2  0
 16 17  1  0
 17 18  1  0
 18 19  1  0
 18 20  1  0
 20 21  1  0
 20 22  1  0
 20 23  1  0
 18 24  1  0
 24 25  1  0
 24 26  1  0
 24 27  1  0
 16 28  1  0
 28 29  1  0
 28 30  2  0
 30 31  1  0
  9 32  1  0
 32 33  1  0
 32 34  1  0
 34 35  1  0
 35 36  1  0
 36 37  1  0
 36 38  1  0
 36 39  1  0
 34 40  2  0
  5 41  2  0
 41 42  1  0
 41 43  1  0
 43 44  1  0
 44 45  1  0
 45 46  1  0
 45 47  1  0
 45 48  1  0
 43 49  2  0
 49 50  1  0
 49  2  1  0
 40  7  1  0
 30 11  1  0
M  END
>  <UniqueID>  (9) 
9

>  <SMILES>  (9) 
COc1cccc(/N=c2/nc(Oc3ccc(OC(C)C)cc3)[nH]c(SC)n2)c1

>  <Energy>  (9) 
54.05740652411691

>  <Genealogy>  (9) 
COc1cccc(/N=c2/nc(Oc3ccc(OC(C)C)cc3)[nH]c(SC)n2)c1 (cis-trans isomerization)
COc1cccc(/N=c2/nc(Oc3ccc(OC(C)C)cc3)[nH]c(SC)n2)c1 (3D coordinates assigned)
COc1cccc(/N=c2/nc(Oc3ccc(OC(C)C)cc3)[nH]c(SC)n2)c1 (optimized conformer: 54.05740652411691 kcal/mol)

>  <smiles>  (9) 
COc1cccc(N=c2nc(Oc3ccc(OC(C)C)cc3)[nH]c(SC)n2)c1

>  <score_type>  (9) 
oracle

>  <origin>  (9) 
adgpu

>  <m_score__min__energy>  (9) 
-8.1999999999999993

>  <m_primary>  (9) 
energy

$$$$
9:0
     RDKit          3D

 48 50  0  0  0  0  0  0  0  0999 V2000
    1.5230   15.8490  -27.0950 C   0  0  0  0  0  0  0  0  0  0  0  0
    1.8310   17.2490  -27.3670 N   0  0  0  0  0  0  0  0  0  0  0  0
    0.8650   18.1960  -27.8580 C   0  0  0  0  0  0  0  0  0  0  0  0
    1.1760   19.1070  -28.8860 C   0  0  0  0  0  0  0  0  0  0  0  0
    0.2140   20.0090  -29.3480 C   0  0  0  0  0  0  0  0  0  0  0  0
   -1.0810   20.0210  -28.7980 C   0  0  0  0  0  0  0  0  0  0  0  0
   -2.1130   20.9650  -29.3050 C   0  0  0  0  0  0  0  0  0  0  0  0
   -2.1640   21.3010  -30.6700 C   0  0  0  0  0  0  0  0  0  0  0  0
   -3.1420   22.1750  -31.1500 C   0  0  0  0  0  0  0  0  0  0  0  0
   -4.0860   22.7260  -30.2780 C   0  0  0  0  0  0  0  0  0  0  0  0
   -5.3020   23.8350  -30.9070 S   0  0  0  0  0  0  0  0  0  0  0  0
   -4.7010   25.1770  -31.2180 O   0  0  0  0  0  0  0  0  0  0  0  0
   -6.3650   24.0170  -29.8600 O   0  0  0  0  0  0  0  0  0  0  0  0
   -6.0170   23.1630  -32.3360 N   0  0  0  0  0  0  0  0  0  0  0  0
   -6.9310   22.0640  -32.2600 C   0  0  0  0  0  0  0  0  0  0  0  0
   -8.3030   22.1470  -32.1230 C   0  0  0  0  0  0  0  0  0  0  0  0
   -9.1090   23.3950  -31.9720 C   0  0  0  0  0  0  0  0  0  0  0  0
   -8.8150   20.9030  -32.0100 N   0  0  0  0  0  0  0  0  0  0  0  0
   -7.8080   20.0430  -32.0950 N   0  0  0  0  0  0  0  0  0  0  0  0
   -7.9830   18.5970  -32.0370 C   0  0  0  0  0  0  0  0  0  0  0  0
   -6.6450   20.7110  -32.2670 C   0  0  0  0  0  0  0  0  0  0  0  0
   -5.3000   20.0720  -32.4350 C   0  0  0  0  0  0  0  0  0  0  0  0
   -4.0440   22.3980  -28.9170 C   0  0  0  0  0  0  0  0  0  0  0  0
   -3.0640   21.5280  -28.4320 C   0  0  0  0  0  0  0  0  0  0  0  0
   -1.3870   19.1130  -27.7670 C   0  0  0  0  0  0  0  0  0  0  0  0
   -0.4240   18.2130  -27.3040 C   0  0  0  0  0  0  0  0  0  0  0  0
    1.4871   15.6860  -26.0077 H   0  0  0  0  0  0  0  0  0  0  0  0
    0.5477   15.5957  -27.5361 H   0  0  0  0  0  0  0  0  0  0  0  0
    2.3020   15.2098  -27.5361 H   0  0  0  0  0  0  0  0  0  0  0  0
    2.8050   17.5770  -27.1750 H   0  0  0  0  0  0  0  0  0  0  0  0
    2.1832   19.1085  -29.3283 H   0  0  0  0  0  0  0  0  0  0  0  0
    0.4717   20.7167  -30.1497 H   0  0  0  0  0  0  0  0  0  0  0  0
   -1.4275   20.8718  -31.3652 H   0  0  0  0  0  0  0  0  0  0  0  0
   -3.1697   22.4312  -32.2194 H   0  0  0  0  0  0  0  0  0  0  0  0
   -6.0610   23.7830  -33.1740 H   0  0  0  0  0  0  0  0  0  0  0  0
   -9.2500   23.6133  -30.9031 H   0  0  0  0  0  0  0  0  0  0  0  0
   -8.5809   24.2328  -32.4508 H   0  0  0  0  0  0  0  0  0  0  0  0
  -10.0898   23.2582  -32.4508 H   0  0  0  0  0  0  0  0  0  0  0  0
   -8.0221   18.2742  -30.9861 H   0  0  0  0  0  0  0  0  0  0  0  0
   -8.9211   18.3207  -32.5405 H   0  0  0  0  0  0  0  0  0  0  0  0
   -7.1379   18.1049  -32.5405 H   0  0  0  0  0  0  0  0  0  0  0  0
   -4.8659   19.8658  -31.4456 H   0  0  0  0  0  0  0  0  0  0  0  0
   -5.4088   19.1293  -32.9914 H   0  0  0  0  0  0  0  0  0  0  0  0
   -4.6380   20.7518  -32.9914 H   0  0  0  0  0  0  0  0  0  0  0  0
   -4.7855   22.8270  -28.2271 H   0  0  0  0  0  0  0  0  0  0  0  0
   -3.0351   21.2810  -27.3605 H   0  0  0  0  0  0  0  0  0  0  0  0
   -2.3930   19.1120  -27.3220 H   0  0  0  0  0  0  0  0  0  0  0  0
   -0.6789   17.5105  -26.4969 H   0  0  0  0  0  0  0  0  0  0  0  0
  1  2  1  0
  2  3  1  0
  3  4  2  0
  4  5  1  0
  5  6  2  0
  6  7  1  0
  7  8  2  0
  8  9  1  0
  9 10  2  0
 10 11  1  0
 11 12  2  0
 11 13  2  0
 11 14  1  0
 14 15  1  0
 15 16  1  0
 16 17  1  0
 16 18  2  0
 18 19  1  0
 19 20  1  0
 19 21  1  0
 21 22  1  0
 10 23  1  0
 23 24  2  0
  6 25  1  0
 25 26  2  0
 26  3  1  0
 24  7  1  0
 21 15  2  0
  1 27  1  0
  1 28  1  0
  1 29  1  0
  2 30  1  0
  4 31  1  0
  5 32  1  0
  8 33  1  0
  9 34  1  0
 14 35  1  0
 17 36  1  0
 17 37  1  0
 17 38  1  0
 20 39  1  0
 20 40  1  0
 20 41  1  0
 22 42  1  0
 22 43  1  0
 22 44  1  0
 23 45  1  0
 24 46  1  0
 25 47  1  0
 26 48  1  0
M  END
>  <UniqueID>  (10) 
10

>  <SMILES>  (10) 
CNc1ccc(-c2ccc(S(=O)(=O)Nc3c(C)nn(C)c3C)cc2)cc1

>  <Energy>  (10) 
86.88562445880311

>  <Genealogy>  (10) 
CNc1ccc(-c2ccc(S(=O)(=O)Nc3c(C)nn(C)c3C)cc2)cc1 (3D coordinates assigned)
CNc1ccc(-c2ccc(S(=O)(=O)Nc3c(C)nn(C)c3C)cc2)cc1 (optimized conformer: 86.88562445880311 kcal/mol)

>  <smiles>  (10) 
CNc1ccc(-c2ccc(S(=O)(=O)Nc3c(C)nn(C)c3C)cc2)cc1

>  <score_type>  (10) 
oracle

>  <origin>  (10) 
adgpu

>  <m_score__min__energy>  (10) 
-8.8000000000000007

>  <m_primary>  (10) 
energy

$$$$
10:0
     RDKit          3D

 24 26  0  0  0  0  0  0  0  0999 V2000
   -3.8630   25.6670  -30.4780 O   0  0  0  0  0  0  0  0  0  0  0  0
   -3.4750   24.3730  -30.1510 C   0  0  0  0  0  0  0  0  0  0  0  0
   -3.9100   23.2330  -30.7970 C   0  0  0  0  0  0  0  0  0  0  0  0
   -3.3000   22.1740  -30.1770 C   0  0  0  0  0  0  0  0  0  0  0  0
   -2.5150   22.7040  -29.1740 C   0  0  0  0  0  0  0  0  0  0  0  0
   -1.7260   21.9590  -28.3030 O   0  0  0  0  0  0  0  0  0  0  0  0
   -2.6170   24.0540  -29.1520 N   0  0  0  0  0  0  0  0  0  0  0  0
   -1.9460   24.9480  -28.2470 C   0  0  0  0  0  0  0  0  0  0  0  0
   -0.8980   25.7200  -28.6100 N   0  0  0  0  0  0  0  0  0  0  0  0
   -0.4420   26.4760  -27.5760 C   0  0  0  0  0  0  0  0  0  0  0  0
   -1.1250   26.3110  -26.3770 C   0  0  0  0  0  0  0  0  0  0  0  0
   -2.3430   25.1790  -26.6270 S   0  0  0  0  0  0  0  0  0  0  0  0
   -3.4980   20.7460  -30.5690 C   0  0  0  0  0  0  0  0  0  0  0  0
   -4.4550   20.6090  -31.7360 C   0  0  0  0  0  0  0  0  0  0  0  0
   -5.0550   21.6550  -32.3490 C   0  0  0  0  0  0  0  0  0  0  0  0
   -4.8540   23.1030  -31.9490 C   0  0  0  0  0  0  0  0  0  0  0  0
    0.4064   27.1683  -27.6809 H   0  0  0  0  0  0  0  0  0  0  0  0
   -0.9073   26.8293  -25.4315 H   0  0  0  0  0  0  0  0  0  0  0  0
   -2.5259   20.3171  -30.8537 H   0  0  0  0  0  0  0  0  0  0  0  0
   -3.9296   20.2126  -29.7092 H   0  0  0  0  0  0  0  0  0  0  0  0
   -4.6752   19.5972  -32.1073 H   0  0  0  0  0  0  0  0  0  0  0  0
   -5.7309   21.4413  -33.1902 H   0  0  0  0  0  0  0  0  0  0  0  0
   -4.4467   23.6567  -32.8078 H   0  0  0  0  0  0  0  0  0  0  0  0
   -5.8278   23.5120  -31.6419 H   0  0  0  0  0  0  0  0  0  0  0  0
  1  2  1  0
  2  3  2  0
  3  4  1  0
  4  5  2  0
  5  6  1  0
  5  7  1  0
  7  8  1  0
  8  9  2  0
  9 10  1  0
 10 11  2  0
 11 12  1  0
  4 13  1  0
 13 14  1  0
 14 15  2  0
 15 16  1  0
  7  2  1  0
 12  8  1  0
 16  3  1  0
 10 17  1  0
 11 18  1  0
 13 19  1  0
 13 20  1  0
 14 21  1  0
 15 22  1  0
 16 23  1  0
 16 24  1  0
M  CHG  2   1  -1   6  -1
M  END
>  <UniqueID>  (11) 
11

>  <SMILES>  (11) 
[O-]c1c2c(c([O-])n1-c1nccs1)CC=CC2

>  <Energy>  (11) 
90.34895861704977

>  <Genealogy>  (11) 
[O-]c1c2c(c([O-])n1-c1nccs1)CC=CC2 (protonated)
[O-]c1c2c(c([O-])n1-c1nccs1)CC=CC2 (3D coordinates assigned)
[O-]c1c2c(c([O-])n1-c1nccs1)CC=CC2 (nonaromatic ring conformer: 90.34895861704977 kcal/mol)

>  <smiles>  (11) 
Oc1c2c(c(O)n1-c1nccs1)CC=CC2

>  <score_type>  (11) 
oracle

>  <origin>  (11) 
adgpu

>  <m_score__min__energy>  (11) 
-8.9299999999999997

>  <m_primary>  (11) 
energy

$$$$
11:0
     RDKit          3D

 49 51  0  0  0  0  0  0  0  0999 V2000
   -3.2450   24.1135  -28.2965 H   0  0  0  0  0  0  0  0  0  0  0  0
   -3.2900   23.6630  -29.2990 C   0  0  0  0  0  0  0  0  0  0  0  0
   -4.2270   24.2710  -30.2730 C   0  0  0  0  0  0  0  0  0  0  0  0
   -3.9030   25.3700  -30.7990 O   0  0  0  0  0  0  0  0  0  0  0  0
   -5.4980   23.6270  -30.6780 C   0  0  0  0  0  0  0  0  0  0  0  0
   -5.8800   23.6170  -32.0290 C   0  0  0  0  0  0  0  0  0  0  0  0
   -5.1982   24.0182  -32.7933 H   0  0  0  0  0  0  0  0  0  0  0  0
   -7.1220   23.1000  -32.4080 C   0  0  0  0  0  0  0  0  0  0  0  0
   -7.4125   23.1020  -33.4689 H   0  0  0  0  0  0  0  0  0  0  0  0
   -7.9990   22.5800  -31.4500 C   0  0  0  0  0  0  0  0  0  0  0  0
   -9.2550   22.1220  -31.8820 O   0  0  0  0  0  0  0  0  0  0  0  0
   -9.5610   20.7770  -32.2490 C   0  0  0  0  0  0  0  0  0  0  0  0
   -9.8291   20.7464  -33.3154 H   0  0  0  0  0  0  0  0  0  0  0  0
  -10.4016   20.4261  -31.6324 H   0  0  0  0  0  0  0  0  0  0  0  0
   -8.3630   19.8630  -32.0080 C   0  0  0  0  0  0  0  0  0  0  0  0
   -8.2054   19.7427  -30.9260 H   0  0  0  0  0  0  0  0  0  0  0  0
   -8.5548   18.8797  -32.4621 H   0  0  0  0  0  0  0  0  0  0  0  0
   -7.4653   20.3078  -32.4621 H   0  0  0  0  0  0  0  0  0  0  0  0
   -7.5950   22.5370  -30.1030 C   0  0  0  0  0  0  0  0  0  0  0  0
   -8.2613   22.0993  -29.3451 H   0  0  0  0  0  0  0  0  0  0  0  0
   -6.3510   23.0480  -29.7240 C   0  0  0  0  0  0  0  0  0  0  0  0
   -6.0374   22.9965  -28.6709 H   0  0  0  0  0  0  0  0  0  0  0  0
   -2.4900   22.6080  -29.5350 C   0  0  0  0  0  0  0  0  0  0  0  0
   -1.7804   22.3227  -28.7444 H   0  0  0  0  0  0  0  0  0  0  0  0
   -2.4900   21.8020  -30.7740 C   0  0  0  0  0  0  0  0  0  0  0  0
   -1.3340   21.6700  -31.5630 C   0  0  0  0  0  0  0  0  0  0  0  0
   -0.4155   22.2067  -31.2831 H   0  0  0  0  0  0  0  0  0  0  0  0
   -1.3470   20.8600  -32.7010 C   0  0  0  0  0  0  0  0  0  0  0  0
   -0.4314   20.7468  -33.3000 H   0  0  0  0  0  0  0  0  0  0  0  0
   -2.5150   20.1910  -33.0860 C   0  0  0  0  0  0  0  0  0  0  0  0
   -2.4680   19.3800  -34.2320 O   0  0  0  0  0  0  0  0  0  0  0  0
   -2.6720   17.9670  -34.2520 C   0  0  0  0  0  0  0  0  0  0  0  0
   -2.4739   17.5884  -35.2656 H   0  0  0  0  0  0  0  0  0  0  0  0
   -1.9865   17.5016  -33.5285 H   0  0  0  0  0  0  0  0  0  0  0  0
   -4.0870   17.6250  -33.8650 C   0  0  0  0  0  0  0  0  0  0  0  0
   -4.3300   16.7160  -32.8220 C   0  0  0  0  0  0  0  0  0  0  0  0
   -3.4856   16.2489  -32.2939 H   0  0  0  0  0  0  0  0  0  0  0  0
   -5.6420   16.4030  -32.4530 C   0  0  0  0  0  0  0  0  0  0  0  0
   -5.8275   15.6859  -31.6398 H   0  0  0  0  0  0  0  0  0  0  0  0
   -6.7180   17.0000  -33.1160 C   0  0  0  0  0  0  0  0  0  0  0  0
   -7.7495   16.7501  -32.8268 H   0  0  0  0  0  0  0  0  0  0  0  0
   -6.4830   17.9150  -34.1470 C   0  0  0  0  0  0  0  0  0  0  0  0
   -7.3301   18.3866  -34.6666 H   0  0  0  0  0  0  0  0  0  0  0  0
   -5.1730   18.2310  -34.5180 C   0  0  0  0  0  0  0  0  0  0  0  0
   -4.9918   18.9569  -35.3243 H   0  0  0  0  0  0  0  0  0  0  0  0
   -3.6830   20.3530  -32.3170 C   0  0  0  0  0  0  0  0  0  0  0  0
   -4.6097   19.8399  -32.6136 H   0  0  0  0  0  0  0  0  0  0  0  0
   -3.6700   21.1640  -31.1770 C   0  0  0  0  0  0  0  0  0  0  0  0
   -4.5923   21.3014  -30.5935 H   0  0  0  0  0  0  0  0  0  0  0  0
  1  2  1  0
  2  3  1  0
  3  4  2  0
  3  5  1  0
  5  6  2  0
  6  7  1  0
  6  8  1  0
  8  9  1  0
  8 10  2  0
 10 11  1  0
 11 12  1  0
 12 13  1  0
 12 14  1  0
 12 15  1  0
 15 16  1  0
 15 17  1  0
 15 18  1  0
 10 19  1  0
 19 20  1  0
 19 21  2  0
 21 22  1  0
  2 23  2  0
 23 24  1  0
 23 25  1  0
 25 26  2  0
 26 27  1  0
 26 28  1  0
 28 29  1  0
 28 30  2  0
 30 31  1  0
 31 32  1  0
 32 33  1  0
 32 34  1  0
 32 35  1  0
 35 36  2  0
 36 37  1  0
 36 38  1  0
 38 39  1  0
 38 40  2  0
 40 41  1  0
 40 42  1  0
 42 43  1  0
 42 44  2  0
 44 45  1  0
 30 46  1  0
 46 47  1  0
 46 48  2  0
 48 49  1  0
 21  5  1  0
 48 25  1  0
 44 35  1  0
M  END
>  <UniqueID>  (12) 
12

>  <SMILES>  (12) 
CCOc1ccc(C(=O)/C=C\c2ccc(OCc3ccccc3)cc2)cc1

>  <Energy>  (12) 
57.407785663226036

>  <Genealogy>  (12) 
CCOc1ccc(C(=O)/C=C\c2ccc(OCc3ccccc3)cc2)cc1 (cis-trans isomerization)
CCOc1ccc(C(=O)/C=C\c2ccc(OCc3ccccc3)cc2)cc1 (3D coordinates assigned)
CCOc1ccc(C(=O)/C=C\c2ccc(OCc3ccccc3)cc2)cc1 (optimized conformer: 57.407785663226036 kcal/mol)

>  <smiles>  (12) 
CCOc1ccc(C(=O)C=Cc2ccc(OCc3ccccc3)cc2)cc1

>  <score_type>  (12) 
oracle

>  <origin>  (12) 
adgpu

>  <m_score__min__energy>  (12) 
-9.5399999999999991

>  <m_primary>  (12) 
energy

$$$$
12:0
     RDKit          3D

 36 38  0  0  0  0  0  0  0  0999 V2000
   -9.2460   18.1750  -31.5850 C   0  0  0  0  0  0  0  0  0  0  0  0
   -9.0100   19.3170  -32.5690 C   0  0  0  0  0  0  0  0  0  0  0  0
   -7.6000   19.7400  -32.5490 N   0  0  0  0  0  0  0  0  0  0  0  0
   -6.5800   18.8620  -33.0700 C   0  0  0  0  0  0  0  0  0  0  0  0
   -6.0480   17.8430  -32.2600 C   0  0  0  0  0  0  0  0  0  0  0  0
   -5.0590   16.9880  -32.7570 C   0  0  0  0  0  0  0  0  0  0  0  0
   -4.5950   17.1410  -34.0650 C   0  0  0  0  0  0  0  0  0  0  0  0
   -5.1210   18.1460  -34.8800 C   0  0  0  0  0  0  0  0  0  0  0  0
   -6.1090   19.0040  -34.3880 C   0  0  0  0  0  0  0  0  0  0  0  0
   -7.2360   21.0580  -32.0780 C   0  0  0  0  0  0  0  0  0  0  0  0
   -8.1920   22.0860  -31.9930 C   0  0  0  0  0  0  0  0  0  0  0  0
   -7.8310   23.3600  -31.5470 C   0  0  0  0  0  0  0  0  0  0  0  0
   -6.5080   23.6310  -31.1770 C   0  0  0  0  0  0  0  0  0  0  0  0
   -6.1350   24.9080  -30.7290 C   0  0  0  0  0  0  0  0  0  0  0  0
   -4.8100   25.1650  -30.3640 C   0  0  0  0  0  0  0  0  0  0  0  0
   -3.8500   24.1530  -30.4440 C   0  0  0  0  0  0  0  0  0  0  0  0
   -4.2070   22.8770  -30.8900 C   0  0  0  0  0  0  0  0  0  0  0  0
   -5.5350   22.6060  -31.2590 C   0  0  0  0  0  0  0  0  0  0  0  0
   -5.9060   21.3290  -31.7080 C   0  0  0  0  0  0  0  0  0  0  0  0
   -9.1674   18.5556  -30.5559 H   0  0  0  0  0  0  0  0  0  0  0  0
  -10.2500   17.7548  -31.7448 H   0  0  0  0  0  0  0  0  0  0  0  0
   -8.4908   17.3913  -31.7448 H   0  0  0  0  0  0  0  0  0  0  0  0
   -9.2711   18.9795  -33.5829 H   0  0  0  0  0  0  0  0  0  0  0  0
   -9.6389   20.1708  -32.2764 H   0  0  0  0  0  0  0  0  0  0  0  0
   -6.4118   17.7176  -31.2295 H   0  0  0  0  0  0  0  0  0  0  0  0
   -4.6463   16.1943  -32.1169 H   0  0  0  0  0  0  0  0  0  0  0  0
   -3.8150   16.4699  -34.4537 H   0  0  0  0  0  0  0  0  0  0  0  0
   -4.7570   18.2626  -35.9114 H   0  0  0  0  0  0  0  0  0  0  0  0
   -6.5199   19.7936  -35.0343 H   0  0  0  0  0  0  0  0  0  0  0  0
   -9.2346   21.8850  -32.2806 H   0  0  0  0  0  0  0  0  0  0  0  0
   -8.5899   24.1540  -31.4862 H   0  0  0  0  0  0  0  0  0  0  0  0
   -6.8869   25.7083  -30.6650 H   0  0  0  0  0  0  0  0  0  0  0  0
   -4.5225   26.1670  -30.0128 H   0  0  0  0  0  0  0  0  0  0  0  0
   -2.8092   24.3610  -30.1549 H   0  0  0  0  0  0  0  0  0  0  0  0
   -3.4470   22.0842  -30.9520 H   0  0  0  0  0  0  0  0  0  0  0  0
   -5.1498   20.5327  -31.7712 H   0  0  0  0  0  0  0  0  0  0  0  0
  1  2  1  0
  2  3  1  0
  3  4  1  0
  4  5  2  0
  5  6  1  0
  6  7  2  0
  7  8  1  0
  8  9  2  0
  3 10  1  0
 10 11  2  0
 11 12  1  0
 12 13  2  0
 13 14  1  0
 14 15  2  0
 15 16  1  0
 16 17  2  0
 17 18  1  0
 18 19  2  0
  9  4  1  0
 19 10  1  0
 18 13  1  0
  1 20  1  0
  1 21  1  0
  1 22  1  0
  2 23  1  0
  2 24  1  0
  5 25  1  0
  6 26  1  0
  7 27  1  0
  8 28  1  0
  9 29  1  0
 11 30  1  0
 12 31  1  0
 14 32  1  0
 15 33  1  0
 16 34  1  0
 17 35  1  0
 19 36  1  0
M  END
>  <UniqueID>  (13) 
13

>  <SMILES>  (13) 
CCN(c1ccccc1)c1ccc2ccccc2c1

>  <Energy>  (13) 
47.55686612329657

>  <Genealogy>  (13) 
CCN(c1ccccc1)c1ccc2ccccc2c1 (3D coordinates assigned)
CCN(c1ccccc1)c1ccc2ccccc2c1 (optimized conformer: 47.55686612329657 kcal/mol)

>  <smiles>  (13) 
CCN(c1ccccc1)c1ccc2ccccc2c1

>  <score_type>  (13) 
oracle

>  <origin>  (13) 
adgpu

>  <m_score__min__energy>  (13) 
-7.6900000000000004

>  <m_primary>  (13) 
energy

$$$$
13:0
     RDKit          3D

 37 39  0  0  0  0  0  0  0  0999 V2000
   -3.4345   18.6881  -32.3051 H   0  0  0  0  0  0  0  0  0  0  0  0
   -3.9780   19.6440  -32.3350 C   0  0  0  0  0  0  0  0  0  0  0  0
   -5.3300   19.6910  -31.9810 C   0  0  0  0  0  0  0  0  0  0  0  0
   -5.8471   18.7735  -31.6637 H   0  0  0  0  0  0  0  0  0  0  0  0
   -6.0250   20.9030  -32.0300 C   0  0  0  0  0  0  0  0  0  0  0  0
   -7.0835   20.9403  -31.7330 H   0  0  0  0  0  0  0  0  0  0  0  0
   -5.3780   22.0700  -32.4560 C   0  0  0  0  0  0  0  0  0  0  0  0
   -6.0970   23.3120  -32.4570 N   0  0  0  0  0  0  0  0  0  0  0  0
   -5.9380   24.2690  -31.6220 N   0  0  0  0  0  0  0  0  0  0  0  0
   -4.9150   24.3510  -30.6180 C   0  0  0  0  0  0  0  0  0  0  0  0
   -4.8230   23.5000  -29.5690 N   0  0  0  0  0  0  0  0  0  0  0  0
   -3.7010   23.8900  -28.9420 C   0  0  0  0  0  0  0  0  0  0  0  0
   -3.1370   23.2100  -27.7340 C   0  0  0  0  0  0  0  0  0  0  0  0
   -3.9585   22.9185  -27.0630 H   0  0  0  0  0  0  0  0  0  0  0  0
   -2.4584   23.9019  -27.2136 H   0  0  0  0  0  0  0  0  0  0  0  0
   -2.3710   21.9830  -28.1460 C   0  0  0  0  0  0  0  0  0  0  0  0
   -2.3560   20.8480  -27.3220 C   0  0  0  0  0  0  0  0  0  0  0  0
   -2.9308   20.8448  -26.3842 H   0  0  0  0  0  0  0  0  0  0  0  0
   -1.6140   19.7210  -27.6870 C   0  0  0  0  0  0  0  0  0  0  0  0
   -1.6153   18.8318  -27.0394 H   0  0  0  0  0  0  0  0  0  0  0  0
   -0.8650   19.7180  -28.8790 C   0  0  0  0  0  0  0  0  0  0  0  0
   -0.1050   18.6130  -29.2890 O   0  0  0  0  0  0  0  0  0  0  0  0
    0.5540   17.7170  -28.3990 C   0  0  0  0  0  0  0  0  0  0  0  0
    0.3397   18.0083  -27.3602 H   0  0  0  0  0  0  0  0  0  0  0  0
    0.1921   16.6932  -28.5748 H   0  0  0  0  0  0  0  0  0  0  0  0
    1.6391   17.7575  -28.5748 H   0  0  0  0  0  0  0  0  0  0  0  0
   -0.8730   20.8580  -29.6920 C   0  0  0  0  0  0  0  0  0  0  0  0
   -0.2904   20.8666  -30.6250 H   0  0  0  0  0  0  0  0  0  0  0  0
   -1.6150   21.9850  -29.3280 C   0  0  0  0  0  0  0  0  0  0  0  0
   -1.6063   22.8775  -29.9710 H   0  0  0  0  0  0  0  0  0  0  0  0
   -3.1340   24.9230  -29.6470 C   0  0  0  0  0  0  0  0  0  0  0  0
   -1.9460   25.5690  -29.3310 O   0  0  0  0  0  0  0  0  0  0  0  0
   -3.8880   25.2240  -30.7150 N   0  0  0  0  0  0  0  0  0  0  0  0
   -4.0100   22.0240  -32.7760 C   0  0  0  0  0  0  0  0  0  0  0  0
   -3.4835   22.9453  -33.0659 H   0  0  0  0  0  0  0  0  0  0  0  0
   -3.3170   20.8120  -32.7270 C   0  0  0  0  0  0  0  0  0  0  0  0
   -2.2512   20.7766  -32.9968 H   0  0  0  0  0  0  0  0  0  0  0  0
  1  2  1  0
  2  3  2  0
  3  4  1  0
  3  5  1  0
  5  6  1  0
  5  7  2  0
  7  8  1  0
  8  9  2  0
  9 10  1  0
 10 11  2  0
 11 12  1  0
 12 13  1  0
 13 14  1  0
 13 15  1  0
 13 16  1  0
 16 17  2  0
 17 18  1  0
 17 19  1  0
 19 20  1  0
 19 21  2  0
 21 22  1  0
 22 23  1  0
 23 24  1  0
 23 25  1  0
 23 26  1  0
 21 27  1  0
 27 28  1  0
 27 29  2  0
 29 30  1  0
 12 31  2  0
 31 32  1  0
 31 33  1  0
  7 34  1  0
 34 35  1  0
 34 36  2  0
 36 37  1  0
 36  2  1  0
 33 10  1  0
 29 16  1  0
M  CHG  2  32  -1  33  -1
M  END
>  <UniqueID>  (14) 
14

>  <SMILES>  (14) 
COc1ccc(Cc2nc(/N=N\c3ccccc3)[n-]c2[O-])cc1

>  <Energy>  (14) 
76.76213929724112

>  <Genealogy>  (14) 
COc1ccc(Cc2nc(N=Nc3ccccc3)[n-]c2[O-])cc1 (protonated)
COc1ccc(Cc2nc(/N=N\c3ccccc3)[n-]c2[O-])cc1 (cis-trans isomerization)
COc1ccc(Cc2nc(/N=N\c3ccccc3)[n-]c2[O-])cc1 (3D coordinates assigned)
COc1ccc(Cc2nc(/N=N\c3ccccc3)[n-]c2[O-])cc1 (optimized conformer: 76.76213929724112 kcal/mol)

>  <smiles>  (14) 
COc1ccc(Cc2nc(N=Nc3ccccc3)[nH]c2O)cc1

>  <score_type>  (14) 
oracle

>  <origin>  (14) 
adgpu

>  <m_score__min__energy>  (14) 
-11.23

>  <m_primary>  (14) 
energy

$$$$
14:0
     RDKit          3D

 38 41  0  0  0  0  0  0  0  0999 V2000
   -0.5430   25.1440  -26.5210 F   0  0  0  0  0  0  0  0  0  0  0  0
   -1.6820   24.9020  -27.2170 C   0  0  0  0  0  0  0  0  0  0  0  0
   -1.6340   24.7500  -28.6050 C   0  0  0  0  0  0  0  0  0  0  0  0
   -2.8050   24.5000  -29.3240 C   0  0  0  0  0  0  0  0  0  0  0  0
   -4.0430   24.3970  -28.6610 C   0  0  0  0  0  0  0  0  0  0  0  0
   -5.2780   24.1320  -29.4400 C   0  0  0  0  0  0  0  0  0  0  0  0
   -6.2590   25.0390  -29.7920 C   0  0  0  0  0  0  0  0  0  0  0  0
   -7.1700   24.3920  -30.4750 O   0  0  0  0  0  0  0  0  0  0  0  0
   -6.7870   23.1370  -30.5500 C   0  0  0  0  0  0  0  0  0  0  0  0
   -7.5560   22.0850  -31.2460 C   0  0  0  0  0  0  0  0  0  0  0  0
   -8.9560   22.1620  -31.3080 C   0  0  0  0  0  0  0  0  0  0  0  0
   -9.6880   21.1680  -31.9600 C   0  0  0  0  0  0  0  0  0  0  0  0
   -9.0320   20.0890  -32.5580 C   0  0  0  0  0  0  0  0  0  0  0  0
   -7.6310   19.9930  -32.5090 C   0  0  0  0  0  0  0  0  0  0  0  0
   -6.9320   18.8460  -33.1460 C   0  0  0  0  0  0  0  0  0  0  0  0
   -6.0450   19.0550  -34.2180 C   0  0  0  0  0  0  0  0  0  0  0  0
   -5.3890   17.9750  -34.8150 C   0  0  0  0  0  0  0  0  0  0  0  0
   -5.6090   16.6770  -34.3500 C   0  0  0  0  0  0  0  0  0  0  0  0
   -6.4870   16.4560  -33.2870 C   0  0  0  0  0  0  0  0  0  0  0  0
   -7.1460   17.5330  -32.6860 C   0  0  0  0  0  0  0  0  0  0  0  0
   -6.9000   20.9970  -31.8480 C   0  0  0  0  0  0  0  0  0  0  0  0
   -5.6120   22.9170  -29.9210 N   0  0  0  0  0  0  0  0  0  0  0  0
   -4.0790   24.5520  -27.2610 C   0  0  0  0  0  0  0  0  0  0  0  0
   -2.9030   24.8020  -26.5470 C   0  0  0  0  0  0  0  0  0  0  0  0
   -0.6719   24.8274  -29.1327 H   0  0  0  0  0  0  0  0  0  0  0  0
   -2.7598   24.3826  -30.4168 H   0  0  0  0  0  0  0  0  0  0  0  0
   -6.2724   26.1105  -29.5436 H   0  0  0  0  0  0  0  0  0  0  0  0
   -9.4789   23.0095  -30.8407 H   0  0  0  0  0  0  0  0  0  0  0  0
  -10.7851   21.2345  -32.0031 H   0  0  0  0  0  0  0  0  0  0  0  0
   -9.6158   19.3100  -33.0702 H   0  0  0  0  0  0  0  0  0  0  0  0
   -5.8667   20.0752  -34.5887 H   0  0  0  0  0  0  0  0  0  0  0  0
   -4.6978   18.1479  -35.6531 H   0  0  0  0  0  0  0  0  0  0  0  0
   -5.0908   15.8287  -34.8210 H   0  0  0  0  0  0  0  0  0  0  0  0
   -6.6606   15.4330  -32.9218 H   0  0  0  0  0  0  0  0  0  0  0  0
   -7.8360   17.3530  -31.8484 H   0  0  0  0  0  0  0  0  0  0  0  0
   -5.8030   20.9300  -31.8017 H   0  0  0  0  0  0  0  0  0  0  0  0
   -5.0375   24.4759  -26.7268 H   0  0  0  0  0  0  0  0  0  0  0  0
   -2.9399   24.9203  -25.4540 H   0  0  0  0  0  0  0  0  0  0  0  0
  1  2  1  0
  2  3  2  0
  3  4  1  0
  4  5  2  0
  5  6  1  0
  6  7  2  0
  7  8  1  0
  8  9  1  0
  9 10  1  0
 10 11  2  0
 11 12  1  0
 12 13  2  0
 13 14  1  0
 14 15  1  0
 15 16  2  0
 16 17  1  0
 17 18  2  0
 18 19  1  0
 19 20  2  0
 14 21  2  0
  9 22  2  0
  5 23  1  0
 23 24  2  0
 24  2  1  0
 22  6  1  0
 21 10  1  0
 20 15  1  0
  3 25  1  0
  4 26  1  0
  7 27  1  0
 11 28  1  0
 12 29  1  0
 13 30  1  0
 16 31  1  0
 17 32  1  0
 18 33  1  0
 19 34  1  0
 20 35  1  0
 21 36  1  0
 23 37  1  0
 24 38  1  0
M  END
>  <UniqueID>  (15) 
15

>  <SMILES>  (15) 
Fc1ccc(-c2coc(-c3cccc(-c4ccccc4)c3)n2)cc1

>  <Energy>  (15) 
79.42784733306883

>  <Genealogy>  (15) 
Fc1ccc(-c2coc(-c3cccc(-c4ccccc4)c3)n2)cc1 (3D coordinates assigned)
Fc1ccc(-c2coc(-c3cccc(-c4ccccc4)c3)n2)cc1 (optimized conformer: 79.42784733306883 kcal/mol)

>  <smiles>  (15) 
Fc1ccc(-c2coc(-c3cccc(-c4ccccc4)c3)n2)cc1

>  <score_type>  (15) 
oracle

>  <origin>  (15) 
adgpu

>  <m_score__min__energy>  (15) 
-8.6799999999999997

>  <m_primary>  (15) 
energy

$$$$
15:0
     RDKit          3D

 45 48  0  0  0  0  0  0  0  0999 V2000
   -9.4690   19.9870  -32.1240 C   0  0  0  0  0  0  0  0  0  0  0  0
   -8.8180   21.1280  -32.6760 O   0  0  0  0  0  0  0  0  0  0  0  0
   -7.7800   21.8360  -32.0480 C   0  0  0  0  0  0  0  0  0  0  0  0
   -7.9770   23.1280  -31.5270 C   0  0  0  0  0  0  0  0  0  0  0  0
   -6.9230   23.8260  -30.9340 C   0  0  0  0  0  0  0  0  0  0  0  0
   -5.6480   23.2480  -30.8430 C   0  0  0  0  0  0  0  0  0  0  0  0
   -4.5130   23.9750  -30.2250 C   0  0  0  0  0  0  0  0  0  0  0  0
   -4.0310   24.9770  -30.8210 O   0  0  0  0  0  0  0  0  0  0  0  0
   -3.9580   23.5610  -28.9630 N   0  0  0  0  0  0  0  0  0  0  0  0
   -2.8310   24.2100  -28.3520 C   0  0  0  0  0  0  0  0  0  0  0  0
   -2.9760   24.8010  -27.0930 C   0  0  0  0  0  0  0  0  0  0  0  0
   -1.8800   25.4230  -26.4910 C   0  0  0  0  0  0  0  0  0  0  0  0
   -1.9860   26.0480  -25.2390 C   0  0  0  0  0  0  0  0  0  0  0  0
   -0.8660   26.6630  -24.6700 C   0  0  0  0  0  0  0  0  0  0  0  0
    0.3590   26.6570  -25.3460 C   0  0  0  0  0  0  0  0  0  0  0  0
    0.4710   26.0350  -26.5940 C   0  0  0  0  0  0  0  0  0  0  0  0
   -0.6430   25.4160  -27.1710 C   0  0  0  0  0  0  0  0  0  0  0  0
   -0.5330   24.8180  -28.3530 O   0  0  0  0  0  0  0  0  0  0  0  0
   -1.5570   24.2170  -28.9540 C   0  0  0  0  0  0  0  0  0  0  0  0
   -1.3660   23.6350  -30.0540 O   0  0  0  0  0  0  0  0  0  0  0  0
   -5.4450   21.9630  -31.3700 C   0  0  0  0  0  0  0  0  0  0  0  0
   -6.5020   21.2460  -31.9600 C   0  0  0  0  0  0  0  0  0  0  0  0
   -6.2510   19.8810  -32.4840 C   0  0  0  0  0  0  0  0  0  0  0  0
   -5.9620   19.6780  -33.8450 C   0  0  0  0  0  0  0  0  0  0  0  0
   -5.7350   18.3880  -34.3350 C   0  0  0  0  0  0  0  0  0  0  0  0
   -5.8020   17.2900  -33.4730 C   0  0  0  0  0  0  0  0  0  0  0  0
   -5.5840   16.0400  -33.9500 F   0  0  0  0  0  0  0  0  0  0  0  0
   -6.0970   17.4800  -32.1210 C   0  0  0  0  0  0  0  0  0  0  0  0
   -6.3240   18.7680  -31.6260 C   0  0  0  0  0  0  0  0  0  0  0  0
   -9.4374   20.0424  -31.0258 H   0  0  0  0  0  0  0  0  0  0  0  0
  -10.5162   19.9640  -32.4600 H   0  0  0  0  0  0  0  0  0  0  0  0
   -8.9560   19.0738  -32.4600 H   0  0  0  0  0  0  0  0  0  0  0  0
   -8.9719   23.5932  -31.5875 H   0  0  0  0  0  0  0  0  0  0  0  0
   -7.0937   24.8368  -30.5352 H   0  0  0  0  0  0  0  0  0  0  0  0
   -4.4360   22.8200  -28.4050 H   0  0  0  0  0  0  0  0  0  0  0  0
   -3.9484   24.7761  -26.5794 H   0  0  0  0  0  0  0  0  0  0  0  0
   -2.9482   26.0542  -24.7060 H   0  0  0  0  0  0  0  0  0  0  0  0
   -0.9485   27.1527  -23.6885 H   0  0  0  0  0  0  0  0  0  0  0  0
    1.2367   27.1429  -24.8948 H   0  0  0  0  0  0  0  0  0  0  0  0
    1.4359   26.0326  -27.1221 H   0  0  0  0  0  0  0  0  0  0  0  0
   -4.4440   21.5095  -31.3210 H   0  0  0  0  0  0  0  0  0  0  0  0
   -5.9142   20.5388  -34.5282 H   0  0  0  0  0  0  0  0  0  0  0  0
   -5.5035   18.2374  -35.3998 H   0  0  0  0  0  0  0  0  0  0  0  0
   -6.1509   16.6146  -31.4442 H   0  0  0  0  0  0  0  0  0  0  0  0
   -6.5606   18.9118  -30.5614 H   0  0  0  0  0  0  0  0  0  0  0  0
  1  2  1  0
  2  3  1  0
  3  4  2  0
  4  5  1  0
  5  6  2  0
  6  7  1  0
  7  8  2  0
  7  9  1  0
  9 10  1  0
 10 11  2  0
 11 12  1  0
 12 13  2  0
 13 14  1  0
 14 15  2  0
 15 16  1  0
 16 17  2  0
 17 18  1  0
 18 19  1  0
 19 20  2  0
  6 21  1  0
 21 22  2  0
 22 23  1  0
 23 24  2  0
 24 25  1  0
 25 26  2  0
 26 27  1  0
 26 28  1  0
 28 29  2  0
 22  3  1  0
 29 23  1  0
 19 10  1  0
 17 12  1  0
  1 30  1  0
  1 31  1  0
  1 32  1  0
  4 33  1  0
  5 34  1  0
  9 35  1  0
 11 36  1  0
 13 37  1  0
 14 38  1  0
 15 39  1  0
 16 40  1  0
 21 41  1  0
 24 42  1  0
 25 43  1  0
 28 44  1  0
 29 45  1  0
M  END
>  <UniqueID>  (16) 
16

>  <SMILES>  (16) 
COc1ccc(C(=O)Nc2cc3ccccc3oc2=O)cc1-c1ccc(F)cc1

>  <Energy>  (16) 
68.5952153023797

>  <Genealogy>  (16) 
COc1ccc(C(=O)Nc2cc3ccccc3oc2=O)cc1-c1ccc(F)cc1 (3D coordinates assigned)
COc1ccc(C(=O)Nc2cc3ccccc3oc2=O)cc1-c1ccc(F)cc1 (optimized conformer: 68.5952153023797 kcal/mol)

>  <smiles>  (16) 
COc1ccc(C(=O)Nc2cc3ccccc3oc2=O)cc1-c1ccc(F)cc1

>  <score_type>  (16) 
oracle

>  <origin>  (16) 
adgpu

>  <m_score__min__energy>  (16) 
-9.9900000000000002

>  <m_primary>  (16) 
energy

$$$$
16:0
     RDKit          3D

 27 28  0  0  0  0  0  0  0  0999 V2000
   -3.8500   25.2140  -30.7370 O   0  0  0  0  0  0  0  0  0  0  0  0
   -4.0660   24.1790  -30.0480 C   0  0  0  0  0  0  0  0  0  0  0  0
   -5.3660   23.5740  -30.0670 N   0  0  0  0  0  0  0  0  0  0  0  0
   -5.8390   22.5930  -31.0000 C   0  0  0  0  0  0  0  0  0  0  0  0
   -4.9840   22.1760  -32.0260 C   0  0  0  0  0  0  0  0  0  0  0  0
   -5.4120   21.2380  -32.9670 C   0  0  0  0  0  0  0  0  0  0  0  0
   -6.7060   20.7180  -32.9010 C   0  0  0  0  0  0  0  0  0  0  0  0
   -7.5930   21.1420  -31.8940 C   0  0  0  0  0  0  0  0  0  0  0  0
   -8.9360   20.6250  -31.8350 N   0  0  0  0  0  0  0  0  0  0  0  0
   -9.1440   19.4150  -31.6080 O   0  0  0  0  0  0  0  0  0  0  0  0
  -10.0160   21.4590  -32.0220 O   0  0  0  0  0  0  0  0  0  0  0  0
   -7.1530   22.0880  -30.9500 C   0  0  0  0  0  0  0  0  0  0  0  0
   -2.9880   23.6370  -29.1780 C   0  0  0  0  0  0  0  0  0  0  0  0
   -3.1180   22.3400  -28.6410 C   0  0  0  0  0  0  0  0  0  0  0  0
   -2.1230   21.8010  -27.8200 C   0  0  0  0  0  0  0  0  0  0  0  0
   -2.3040   20.1830  -27.1660 Cl  0  0  0  0  0  0  0  0  0  0  0  0
   -0.9820   22.5490  -27.5220 C   0  0  0  0  0  0  0  0  0  0  0  0
   -0.8370   23.8350  -28.0400 C   0  0  0  0  0  0  0  0  0  0  0  0
   -1.8280   24.3860  -28.8610 C   0  0  0  0  0  0  0  0  0  0  0  0
   -1.6430   25.6760  -29.3450 O   0  0  0  0  0  0  0  0  0  0  0  0
   -3.9671   22.5903  -32.0916 H   0  0  0  0  0  0  0  0  0  0  0  0
   -4.7280   20.9077  -33.7626 H   0  0  0  0  0  0  0  0  0  0  0  0
   -7.0341   19.9726  -33.6404 H   0  0  0  0  0  0  0  0  0  0  0  0
   -7.8413   22.4364  -30.1659 H   0  0  0  0  0  0  0  0  0  0  0  0
   -4.0138   21.7444  -28.8709 H   0  0  0  0  0  0  0  0  0  0  0  0
   -0.1978   22.1235  -26.8786 H   0  0  0  0  0  0  0  0  0  0  0  0
    0.0628   24.4212  -27.8019 H   0  0  0  0  0  0  0  0  0  0  0  0
  1  2  2  0
  2  3  1  0
  3  4  1  0
  4  5  2  0
  5  6  1  0
  6  7  2  0
  7  8  1  0
  8  9  1  0
  9 10  2  0
  9 11  1  0
  8 12  2  0
  2 13  1  0
 13 14  2  0
 14 15  1  0
 15 16  1  0
 15 17  2  0
 17 18  1  0
 18 19  2  0
 19 20  1  0
 12  4  1  0
 19 13  1  0
  5 21  1  0
  6 22  1  0
  7 23  1  0
 12 24  1  0
 14 25  1  0
 17 26  1  0
 18 27  1  0
M  CHG  4   3  -1   9   1  11  -1  20  -1
M  END
>  <UniqueID>  (17) 
17

>  <SMILES>  (17) 
O=C([N-]c1cccc([N+](=O)[O-])c1)c1cc(Cl)ccc1[O-]

>  <Energy>  (17) 
35.647842904037915

>  <Genealogy>  (17) 
O=C([N-]c1cccc([N+](=O)[O-])c1)c1cc(Cl)ccc1[O-] (protonated)
O=C([N-]c1cccc([N+](=O)[O-])c1)c1cc(Cl)ccc1[O-] (3D coordinates assigned)
O=C([N-]c1cccc([N+](=O)[O-])c1)c1cc(Cl)ccc1[O-] (optimized conformer: 35.647842904037915 kcal/mol)

>  <smiles>  (17) 
O=C(Nc1cccc([N+](=O)[O-])c1)c1cc(Cl)ccc1O

>  <score_type>  (17) 
oracle

>  <origin>  (17) 
adgpu

>  <m_score__min__energy>  (17) 
-11.6

>  <m_primary>  (17) 
energy

$$$$
17:0
     RDKit          3D

 34 36  0  0  0  0  0  0  0  0999 V2000
   -8.7270   18.6700  -31.2190 C   0  0  0  0  0  0  0  0  0  0  0  0
   -7.7840   19.2820  -32.1490 N   0  0  0  0  0  0  0  0  0  0  0  0
   -6.9560   18.6330  -32.9820 C   0  0  0  0  0  0  0  0  0  0  0  0
   -6.3010   19.5710  -33.7480 C   0  0  0  0  0  0  0  0  0  0  0  0
   -6.7230   20.8080  -33.4130 N   0  0  0  0  0  0  0  0  0  0  0  0
   -7.6350   20.5910  -32.4420 C   0  0  0  0  0  0  0  0  0  0  0  0
   -8.5410   21.9210  -31.6510 S   0  0  0  0  0  0  0  0  0  0  0  0
   -7.0450   22.8060  -31.2120 C   0  0  0  0  0  0  0  0  0  0  0  0
   -5.8190   22.1320  -31.1720 C   0  0  0  0  0  0  0  0  0  0  0  0
   -4.6510   22.8240  -30.8330 C   0  0  0  0  0  0  0  0  0  0  0  0
   -4.7010   24.1860  -30.5130 C   0  0  0  0  0  0  0  0  0  0  0  0
   -3.5050   24.8460  -30.1950 O   0  0  0  0  0  0  0  0  0  0  0  0
   -2.6500   24.5150  -29.1340 C   0  0  0  0  0  0  0  0  0  0  0  0
   -1.2930   24.2050  -29.3400 C   0  0  0  0  0  0  0  0  0  0  0  0
   -0.4700   23.8960  -28.2530 C   0  0  0  0  0  0  0  0  0  0  0  0
   -0.9890   23.9050  -26.9550 C   0  0  0  0  0  0  0  0  0  0  0  0
   -0.1890   23.6070  -25.9020 F   0  0  0  0  0  0  0  0  0  0  0  0
   -2.3310   24.2310  -26.7430 C   0  0  0  0  0  0  0  0  0  0  0  0
   -3.1560   24.5420  -27.8290 C   0  0  0  0  0  0  0  0  0  0  0  0
   -5.9340   24.8610  -30.5650 C   0  0  0  0  0  0  0  0  0  0  0  0
   -7.1010   24.1700  -30.9040 C   0  0  0  0  0  0  0  0  0  0  0  0
   -8.4095   18.8761  -30.1862 H   0  0  0  0  0  0  0  0  0  0  0  0
   -9.7302   19.0896  -31.3848 H   0  0  0  0  0  0  0  0  0  0  0  0
   -8.7523   17.5829  -31.3848 H   0  0  0  0  0  0  0  0  0  0  0  0
   -6.8237   17.5426  -33.0423 H   0  0  0  0  0  0  0  0  0  0  0  0
   -5.5474   19.3459  -34.5170 H   0  0  0  0  0  0  0  0  0  0  0  0
   -5.7736   21.0584  -31.4070 H   0  0  0  0  0  0  0  0  0  0  0  0
   -3.6871   22.2943  -30.8178 H   0  0  0  0  0  0  0  0  0  0  0  0
   -0.8787   24.2058  -30.3590 H   0  0  0  0  0  0  0  0  0  0  0  0
    0.5880   23.6453  -28.4194 H   0  0  0  0  0  0  0  0  0  0  0  0
   -2.7390   24.2431  -25.7215 H   0  0  0  0  0  0  0  0  0  0  0  0
   -4.2090   24.8095  -27.6565 H   0  0  0  0  0  0  0  0  0  0  0  0
   -5.9801   25.9364  -30.3381 H   0  0  0  0  0  0  0  0  0  0  0  0
   -8.0650   24.6993  -30.9287 H   0  0  0  0  0  0  0  0  0  0  0  0
  1  2  1  0
  2  3  1  0
  3  4  2  0
  4  5  1  0
  5  6  2  0
  6  7  1  0
  7  8  1  0
  8  9  2  0
  9 10  1  0
 10 11  2  0
 11 12  1  0
 12 13  1  0
 13 14  2  0
 14 15  1  0
 15 16  2  0
 16 17  1  0
 16 18  1  0
 18 19  2  0
 11 20  1  0
 20 21  2  0
  6  2  1  0
 21  8  1  0
 19 13  1  0
  1 22  1  0
  1 23  1  0
  1 24  1  0
  3 25  1  0
  4 26  1  0
  9 27  1  0
 10 28  1  0
 14 29  1  0
 15 30  1  0
 18 31  1  0
 19 32  1  0
 20 33  1  0
 21 34  1  0
M  END
>  <UniqueID>  (18) 
18

>  <SMILES>  (18) 
Cn1ccnc1Sc1ccc(Oc2ccc(F)cc2)cc1

>  <Energy>  (18) 
67.14060756567076

>  <Genealogy>  (18) 
Cn1ccnc1Sc1ccc(Oc2ccc(F)cc2)cc1 (3D coordinates assigned)
Cn1ccnc1Sc1ccc(Oc2ccc(F)cc2)cc1 (optimized conformer: 67.14060756567076 kcal/mol)

>  <smiles>  (18) 
Cn1ccnc1Sc1ccc(Oc2ccc(F)cc2)cc1

>  <score_type>  (18) 
oracle

>  <origin>  (18) 
adgpu

>  <m_score__min__energy>  (18) 
-7.3799999999999999

>  <m_primary>  (18) 
energy

$$$$
18:0
     RDKit          3D

 51 53  0  0  0  0  0  0  0  0999 V2000
   -9.4880   20.6530  -31.9710 C   0  0  0  0  0  0  0  0  0  0  0  0
   -8.0280   20.4120  -32.2460 C   0  0  0  0  0  0  0  0  0  0  0  0
   -7.5780   19.0890  -32.4020 C   0  0  0  0  0  0  0  0  0  0  0  0
   -6.2330   18.8240  -32.6730 C   0  0  0  0  0  0  0  0  0  0  0  0
   -5.3250   19.8760  -32.7990 C   0  0  0  0  0  0  0  0  0  0  0  0
   -5.7610   21.1950  -32.6650 C   0  0  0  0  0  0  0  0  0  0  0  0
   -7.1090   21.4770  -32.4070 C   0  0  0  0  0  0  0  0  0  0  0  0
   -7.6080   23.2010  -32.2680 S   0  0  0  0  0  0  0  0  0  0  0  0
   -6.3660   23.5780  -31.0300 C   0  0  0  0  0  0  0  0  0  0  0  0
   -6.1830   22.7220  -29.9380 C   0  0  0  0  0  0  0  0  0  0  0  0
   -5.2160   23.0130  -28.9710 C   0  0  0  0  0  0  0  0  0  0  0  0
   -4.4140   24.1640  -29.0900 C   0  0  0  0  0  0  0  0  0  0  0  0
   -3.3900   24.5300  -28.0390 C   0  0  0  0  0  0  0  0  0  0  0  0
   -2.0480   24.0250  -28.3720 N   0  0  0  0  0  0  0  0  0  0  0  0
   -0.9030   24.9310  -28.2270 C   0  0  0  0  0  0  0  0  0  0  0  0
   -1.8500   22.6650  -28.8330 C   0  0  0  0  0  0  0  0  0  0  0  0
   -1.6630   22.3880  -30.1980 C   0  0  0  0  0  0  0  0  0  0  0  0
   -1.4640   21.0750  -30.6180 C   0  0  0  0  0  0  0  0  0  0  0  0
   -1.4480   20.0640  -29.7130 N   0  0  0  0  0  0  0  0  0  0  0  0
   -1.6220   20.2750  -28.3790 C   0  0  0  0  0  0  0  0  0  0  0  0
   -1.5950   19.1470  -27.4710 N   0  0  0  0  0  0  0  0  0  0  0  0
   -2.7100   18.9590  -26.5350 C   0  0  0  0  0  0  0  0  0  0  0  0
   -0.4780   18.1940  -27.4680 C   0  0  0  0  0  0  0  0  0  0  0  0
   -1.8250   21.5930  -27.9210 C   0  0  0  0  0  0  0  0  0  0  0  0
   -4.6280   25.0340  -30.1720 C   0  0  0  0  0  0  0  0  0  0  0  0
   -5.5970   24.7410  -31.1370 C   0  0  0  0  0  0  0  0  0  0  0  0
   -9.6567   20.6808  -30.8844 H   0  0  0  0  0  0  0  0  0  0  0  0
   -9.7909   21.6133  -32.4138 H   0  0  0  0  0  0  0  0  0  0  0  0
  -10.0834   19.8410  -32.4138 H   0  0  0  0  0  0  0  0  0  0  0  0
   -8.2904   18.2560  -32.3100 H   0  0  0  0  0  0  0  0  0  0  0  0
   -5.8897   17.7852  -32.7871 H   0  0  0  0  0  0  0  0  0  0  0  0
   -4.2650   19.6656  -33.0041 H   0  0  0  0  0  0  0  0  0  0  0  0
   -5.0402   22.0202  -32.7628 H   0  0  0  0  0  0  0  0  0  0  0  0
   -6.8017   21.8177  -29.8402 H   0  0  0  0  0  0  0  0  0  0  0  0
   -5.0811   22.3388  -28.1124 H   0  0  0  0  0  0  0  0  0  0  0  0
   -3.3454   25.6258  -27.9541 H   0  0  0  0  0  0  0  0  0  0  0  0
   -3.6994   24.0677  -27.0900 H   0  0  0  0  0  0  0  0  0  0  0  0
   -0.6972   25.0938  -27.1587 H   0  0  0  0  0  0  0  0  0  0  0  0
   -0.0194   24.4849  -28.7068 H   0  0  0  0  0  0  0  0  0  0  0  0
   -1.1340   25.8935  -28.7068 H   0  0  0  0  0  0  0  0  0  0  0  0
   -1.6738   23.2063  -30.9331 H   0  0  0  0  0  0  0  0  0  0  0  0
   -1.3194   20.8569  -31.6864 H   0  0  0  0  0  0  0  0  0  0  0  0
   -2.3364   19.0220  -25.5023 H   0  0  0  0  0  0  0  0  0  0  0  0
   -3.4639   19.7427  -26.7006 H   0  0  0  0  0  0  0  0  0  0  0  0
   -3.1652   17.9714  -26.7006 H   0  0  0  0  0  0  0  0  0  0  0  0
   -0.2007   17.9574  -26.4302 H   0  0  0  0  0  0  0  0  0  0  0  0
   -0.7812   17.2721  -27.9858 H   0  0  0  0  0  0  0  0  0  0  0  0
    0.3847   18.6386  -27.9858 H   0  0  0  0  0  0  0  0  0  0  0  0
   -1.9644   21.7843  -26.8468 H   0  0  0  0  0  0  0  0  0  0  0  0
   -4.0291   25.9524  -30.2609 H   0  0  0  0  0  0  0  0  0  0  0  0
   -5.7546   25.4271  -31.9822 H   0  0  0  0  0  0  0  0  0  0  0  0
  1  2  1  0
  2  3  2  0
  3  4  1  0
  4  5  2  0
  5  6  1  0
  6  7  2  0
  7  8  1  0
  8  9  1  0
  9 10  2  0
 10 11  1  0
 11 12  2  0
 12 13  1  0
 13 14  1  0
 14 15  1  0
 14 16  1  0
 16 17  2  0
 17 18  1  0
 18 19  2  0
 19 20  1  0
 20 21  1  0
 21 22  1  0
 21 23  1  0
 20 24  2  0
 12 25  1  0
 25 26  2  0
  7  2  1  0
 26  9  1  0
 24 16  1  0
  1 27  1  0
  1 28  1  0
  1 29  1  0
  3 30  1  0
  4 31  1  0
  5 32  1  0
  6 33  1  0
 10 34  1  0
 11 35  1  0
 13 36  1  0
 13 37  1  0
 15 38  1  0
 15 39  1  0
 15 40  1  0
 17 41  1  0
 18 42  1  0
 22 43  1  0
 22 44  1  0
 22 45  1  0
 23 46  1  0
 23 47  1  0
 23 48  1  0
 24 49  1  0
 25 50  1  0
 26 51  1  0
M  END
>  <UniqueID>  (19) 
19

>  <SMILES>  (19) 
Cc1ccccc1Sc1ccc(CN(C)c2ccnc(N(C)C)c2)cc1

>  <Energy>  (19) 
51.917618258376315

>  <Genealogy>  (19) 
Cc1ccccc1Sc1ccc(CN(C)c2ccnc(N(C)C)c2)cc1 (3D coordinates assigned)
Cc1ccccc1Sc1ccc(CN(C)c2ccnc(N(C)C)c2)cc1 (optimized conformer: 51.917618258376315 kcal/mol)

>  <smiles>  (19) 
Cc1ccccc1Sc1ccc(CN(C)c2ccnc(N(C)C)c2)cc1

>  <score_type>  (19) 
oracle

>  <origin>  (19) 
adgpu

>  <m_score__min__energy>  (19) 
-8.5899999999999999

>  <m_primary>  (19) 
energy

$$$$
19:0
     RDKit          3D

 34 36  0  0  0  0  0  0  0  0999 V2000
   -0.1370   21.9540  -34.6470 O   0  0  0  0  0  0  0  0  0  0  0  0
   -0.7660   21.3410  -33.5840 N   0  0  0  0  0  0  0  0  0  0  0  0
   -0.0370   20.6400  -32.6680 C   0  0  0  0  0  0  0  0  0  0  0  0
   -0.6690   20.0150  -31.5930 C   0  0  0  0  0  0  0  0  0  0  0  0
   -2.0540   20.1120  -31.4610 C   0  0  0  0  0  0  0  0  0  0  0  0
   -2.8000   20.8330  -32.4040 C   0  0  0  0  0  0  0  0  0  0  0  0
   -4.2350   20.9450  -32.2820 N   0  0  0  0  0  0  0  0  0  0  0  0
   -5.0750   19.8090  -32.5860 C   0  0  0  0  0  0  0  0  0  0  0  0
   -5.8870   19.2380  -31.5890 C   0  0  0  0  0  0  0  0  0  0  0  0
   -6.7000   18.1380  -31.8840 C   0  0  0  0  0  0  0  0  0  0  0  0
   -6.7090   17.5990  -33.1740 C   0  0  0  0  0  0  0  0  0  0  0  0
   -7.4980   16.5330  -33.4580 F   0  0  0  0  0  0  0  0  0  0  0  0
   -5.9060   18.1610  -34.1700 C   0  0  0  0  0  0  0  0  0  0  0  0
   -5.0930   19.2600  -33.8800 C   0  0  0  0  0  0  0  0  0  0  0  0
   -4.8300   22.1920  -31.8610 C   0  0  0  0  0  0  0  0  0  0  0  0
   -6.1940   22.4450  -32.0730 C   0  0  0  0  0  0  0  0  0  0  0  0
   -6.7550   23.6540  -31.6600 C   0  0  0  0  0  0  0  0  0  0  0  0
   -5.9460   24.6050  -31.0350 C   0  0  0  0  0  0  0  0  0  0  0  0
   -4.6260   24.3490  -30.8340 N   0  0  0  0  0  0  0  0  0  0  0  0
   -4.0560   23.1800  -31.2280 C   0  0  0  0  0  0  0  0  0  0  0  0
   -2.1200   21.4460  -33.4710 C   0  0  0  0  0  0  0  0  0  0  0  0
   -0.6620   22.3280  -35.4290 H   0  0  0  0  0  0  0  0  0  0  0  0
    1.0551   20.5674  -32.7779 H   0  0  0  0  0  0  0  0  0  0  0  0
   -0.0799   19.4503  -30.8554 H   0  0  0  0  0  0  0  0  0  0  0  0
   -2.5613   19.6226  -30.6166 H   0  0  0  0  0  0  0  0  0  0  0  0
   -5.8827   19.6584  -30.5725 H   0  0  0  0  0  0  0  0  0  0  0  0
   -7.3329   17.6968  -31.0999 H   0  0  0  0  0  0  0  0  0  0  0  0
   -5.9139   17.7372  -35.1850 H   0  0  0  0  0  0  0  0  0  0  0  0
   -4.4636   19.6979  -34.6687 H   0  0  0  0  0  0  0  0  0  0  0  0
   -6.8223   21.6885  -32.5659 H   0  0  0  0  0  0  0  0  0  0  0  0
   -7.8236   23.8558  -31.8251 H   0  0  0  0  0  0  0  0  0  0  0  0
   -6.3769   25.5618  -30.7051 H   0  0  0  0  0  0  0  0  0  0  0  0
   -2.9844   23.0062  -31.0508 H   0  0  0  0  0  0  0  0  0  0  0  0
   -2.6865   22.0160  -34.2221 H   0  0  0  0  0  0  0  0  0  0  0  0
  1  2  1  0
  2  3  2  0
  3  4  1  0
  4  5  2  0
  5  6  1  0
  6  7  1  0
  7  8  1  0
  8  9  2  0
  9 10  1  0
 10 11  2  0
 11 12  1  0
 11 13  1  0
 13 14  2  0
  7 15  1  0
 15 16  2  0
 16 17  1  0
 17 18  2  0
 18 19  1  0
 19 20  2  0
  6 21  2  0
 21  2  1  0
 14  8  1  0
 20 15  1  0
  1 22  1  0
  3 23  1  0
  4 24  1  0
  5 25  1  0
  9 26  1  0
 10 27  1  0
 13 28  1  0
 14 29  1  0
 16 30  1  0
 17 31  1  0
 18 32  1  0
 20 33  1  0
 21 34  1  0
M  CHG  1   2   1
M  END
>  <UniqueID>  (20) 
20

>  <SMILES>  (20) 
O[n+]1cccc(N(c2ccc(F)cc2)c2cccnc2)c1

>  <Energy>  (20) 
50.280176003725906

>  <Genealogy>  (20) 
O[n+]1cccc(N(c2ccc(F)cc2)c2cccnc2)c1 (protonated)
O[n+]1cccc(N(c2ccc(F)cc2)c2cccnc2)c1 (3D coordinates assigned)
O[n+]1cccc(N(c2ccc(F)cc2)c2cccnc2)c1 (optimized conformer: 50.280176003725906 kcal/mol)

>  <smiles>  (20) 
[O-][n+]1cccc(N(c2ccc(F)cc2)c2cccnc2)c1

>  <score_type>  (20) 
oracle

>  <origin>  (20) 
adgpu

>  <m_score__min__energy>  (20) 
-6.9000000000000004

>  <m_primary>  (20) 
energy

$$$$
20:0
     RDKit          3D

 35 37  0  0  0  0  0  0  0  0999 V2000
   -6.4940   25.1960  -29.6540 C   0  0  0  0  0  0  0  0  0  0  0  0
   -5.5500   24.3400  -30.3710 N   0  0  0  0  0  0  0  0  0  0  0  0
   -5.7400   23.7040  -31.5440 C   0  0  0  0  0  0  0  0  0  0  0  0
   -7.2900   23.6580  -32.4490 S   0  0  0  0  0  0  0  0  0  0  0  0
   -8.0440   22.3640  -31.4000 C   0  0  0  0  0  0  0  0  0  0  0  0
   -7.7640   20.9890  -31.9430 C   0  0  0  0  0  0  0  0  0  0  0  0
   -8.5840   19.9070  -31.5810 C   0  0  0  0  0  0  0  0  0  0  0  0
   -8.3010   18.6210  -32.0510 C   0  0  0  0  0  0  0  0  0  0  0  0
   -7.1950   18.4040  -32.8800 C   0  0  0  0  0  0  0  0  0  0  0  0
   -6.8320   16.7870  -33.4540 Cl  0  0  0  0  0  0  0  0  0  0  0  0
   -6.3740   19.4760  -33.2430 C   0  0  0  0  0  0  0  0  0  0  0  0
   -6.6570   20.7630  -32.7770 C   0  0  0  0  0  0  0  0  0  0  0  0
   -4.6260   23.0680  -31.9510 N   0  0  0  0  0  0  0  0  0  0  0  0
   -3.7020   23.2810  -31.0240 N   0  0  0  0  0  0  0  0  0  0  0  0
   -4.2690   24.0370  -30.0620 C   0  0  0  0  0  0  0  0  0  0  0  0
   -3.5510   24.4550  -28.8400 C   0  0  0  0  0  0  0  0  0  0  0  0
   -4.2310   24.4900  -27.6120 C   0  0  0  0  0  0  0  0  0  0  0  0
   -3.5710   24.9030  -26.4500 C   0  0  0  0  0  0  0  0  0  0  0  0
   -2.2330   25.2990  -26.5090 C   0  0  0  0  0  0  0  0  0  0  0  0
   -1.5540   25.2900  -27.7300 C   0  0  0  0  0  0  0  0  0  0  0  0
   -2.2110   24.8770  -28.8930 C   0  0  0  0  0  0  0  0  0  0  0  0
   -6.3540   25.0690  -28.5704 H   0  0  0  0  0  0  0  0  0  0  0  0
   -6.3158   26.2468  -29.9261 H   0  0  0  0  0  0  0  0  0  0  0  0
   -7.5224   24.9161  -29.9261 H   0  0  0  0  0  0  0  0  0  0  0  0
   -7.6292   22.4395  -30.3840 H   0  0  0  0  0  0  0  0  0  0  0  0
   -9.1332   22.5176  -31.3878 H   0  0  0  0  0  0  0  0  0  0  0  0
   -9.4517   20.0723  -30.9255 H   0  0  0  0  0  0  0  0  0  0  0  0
   -8.9491   17.7783  -31.7685 H   0  0  0  0  0  0  0  0  0  0  0  0
   -5.5049   19.3064  -33.8957 H   0  0  0  0  0  0  0  0  0  0  0  0
   -6.0088   21.6037  -33.0652 H   0  0  0  0  0  0  0  0  0  0  0  0
   -5.2885   24.1910  -27.5636 H   0  0  0  0  0  0  0  0  0  0  0  0
   -4.1062   24.9159  -25.4890 H   0  0  0  0  0  0  0  0  0  0  0  0
   -1.7134   25.6182  -25.5935 H   0  0  0  0  0  0  0  0  0  0  0  0
   -0.5020   25.6080  -27.7763 H   0  0  0  0  0  0  0  0  0  0  0  0
   -1.6767   24.8823  -29.8545 H   0  0  0  0  0  0  0  0  0  0  0  0
  1  2  1  0
  2  3  1  0
  3  4  1  0
  4  5  1  0
  5  6  1  0
  6  7  2  0
  7  8  1  0
  8  9  2  0
  9 10  1  0
  9 11  1  0
 11 12  2  0
  3 13  2  0
 13 14  1  0
 14 15  2  0
 15 16  1  0
 16 17  2  0
 17 18  1  0
 18 19  2  0
 19 20  1  0
 20 21  2  0
 15  2  1  0
 21 16  1  0
 12  6  1  0
  1 22  1  0
  1 23  1  0
  1 24  1  0
  5 25  1  0
  5 26  1  0
  7 27  1  0
  8 28  1  0
 11 29  1  0
 12 30  1  0
 17 31  1  0
 18 32  1  0
 19 33  1  0
 20 34  1  0
 21 35  1  0
M  END
>  <UniqueID>  (21) 
21

>  <SMILES>  (21) 
Cn1c(SCc2ccc(Cl)cc2)nnc1-c1ccccc1

>  <Energy>  (21) 
69.9827047878183

>  <Genealogy>  (21) 
Cn1c(SCc2ccc(Cl)cc2)nnc1-c1ccccc1 (3D coordinates assigned)
Cn1c(SCc2ccc(Cl)cc2)nnc1-c1ccccc1 (optimized conformer: 69.9827047878183 kcal/mol)

>  <smiles>  (21) 
Cn1c(SCc2ccc(Cl)cc2)nnc1-c1ccccc1

>  <score_type>  (21) 
oracle

>  <origin>  (21) 
adgpu

>  <m_score__min__energy>  (21) 
-8.5500000000000007

>  <m_primary>  (21) 
energy

$$$$
21:0
     RDKit          3D

 64 66  0  0  0  0  0  0  0  0999 V2000
   -2.6810   20.0740  -27.3820 C   0  0  0  0  0  0  0  0  0  0  0  0
   -2.2540   21.3330  -27.9020 O   0  0  0  0  0  0  0  0  0  0  0  0
   -2.7350   21.9110  -29.0890 C   0  0  0  0  0  0  0  0  0  0  0  0
   -3.0890   23.2700  -29.1810 C   0  0  0  0  0  0  0  0  0  0  0  0
   -3.5620   23.8000  -30.3950 C   0  0  0  0  0  0  0  0  0  0  0  0
   -3.9040   25.1540  -30.5440 O   0  0  0  0  0  0  0  0  0  0  0  0
   -5.2340   25.6640  -30.4780 C   0  0  0  0  0  0  0  0  0  0  0  0
   -3.6940   22.9610  -31.5090 C   0  0  0  0  0  0  0  0  0  0  0  0
   -3.3330   21.6020  -31.4400 C   0  0  0  0  0  0  0  0  0  0  0  0
   -3.3980   20.7490  -32.6110 N   0  0  0  0  0  0  0  0  0  0  0  0
   -4.6920   20.2770  -33.1330 C   0  0  0  0  0  0  0  0  0  0  0  0
   -5.3790   19.3530  -32.1220 C   0  0  0  0  0  0  0  0  0  0  0  0
   -6.8790   19.2220  -32.4140 C   0  0  0  0  0  0  0  0  0  0  0  0
   -7.6390   20.2200  -31.6300 N   0  0  0  0  0  0  0  0  0  0  0  0
   -6.7940   21.3790  -31.2190 C   0  0  0  0  0  0  0  0  0  0  0  0
   -7.0660   22.6410  -32.0530 C   0  0  0  0  0  0  0  0  0  0  0  0
   -8.5380   23.0740  -31.9350 C   0  0  0  0  0  0  0  0  0  0  0  0
   -9.4940   21.8820  -31.7450 C   0  0  0  0  0  0  0  0  0  0  0  0
   -8.8940   20.5960  -32.3230 C   0  0  0  0  0  0  0  0  0  0  0  0
   -2.1940   20.4600  -33.3560 C   0  0  0  0  0  0  0  0  0  0  0  0
   -1.9360   19.1630  -33.8280 C   0  0  0  0  0  0  0  0  0  0  0  0
   -0.7810   18.8820  -34.5670 C   0  0  0  0  0  0  0  0  0  0  0  0
   -0.5570   17.5560  -34.9740 O   0  0  0  0  0  0  0  0  0  0  0  0
   -1.4800   16.4880  -34.7960 C   0  0  0  0  0  0  0  0  0  0  0  0
    0.1050   19.9330  -34.8860 C   0  0  0  0  0  0  0  0  0  0  0  0
   -0.1520   21.2360  -34.4270 C   0  0  0  0  0  0  0  0  0  0  0  0
    0.7120   22.2990  -34.7140 O   0  0  0  0  0  0  0  0  0  0  0  0
    1.9690   22.1270  -35.3600 C   0  0  0  0  0  0  0  0  0  0  0  0
   -1.2900   21.4910  -33.6540 C   0  0  0  0  0  0  0  0  0  0  0  0
   -2.8550   21.0930  -30.2190 C   0  0  0  0  0  0  0  0  0  0  0  0
   -2.6693   20.1084  -26.2826 H   0  0  0  0  0  0  0  0  0  0  0  0
   -3.7019   19.8602  -27.7314 H   0  0  0  0  0  0  0  0  0  0  0  0
   -2.0008   19.2833  -27.7314 H   0  0  0  0  0  0  0  0  0  0  0  0
   -2.9953   23.9209  -28.2992 H   0  0  0  0  0  0  0  0  0  0  0  0
   -5.5312   25.7780  -29.4250 H   0  0  0  0  0  0  0  0  0  0  0  0
   -5.2768   26.6423  -30.9790 H   0  0  0  0  0  0  0  0  0  0  0  0
   -5.9200   24.9651  -30.9790 H   0  0  0  0  0  0  0  0  0  0  0  0
   -4.0856   23.3702  -32.4519 H   0  0  0  0  0  0  0  0  0  0  0  0
   -5.3403   21.1438  -33.3287 H   0  0  0  0  0  0  0  0  0  0  0  0
   -4.5150   19.7154  -34.0622 H   0  0  0  0  0  0  0  0  0  0  0  0
   -4.9156   18.3568  -32.1750 H   0  0  0  0  0  0  0  0  0  0  0  0
   -5.2579   19.7865  -31.1183 H   0  0  0  0  0  0  0  0  0  0  0  0
   -7.0568   19.3899  -33.4865 H   0  0  0  0  0  0  0  0  0  0  0  0
   -7.2136   18.2127  -32.1325 H   0  0  0  0  0  0  0  0  0  0  0  0
   -6.9985   21.6055  -30.1622 H   0  0  0  0  0  0  0  0  0  0  0  0
   -5.7433   21.0960  -31.3803 H   0  0  0  0  0  0  0  0  0  0  0  0
   -6.4214   23.4562  -31.6925 H   0  0  0  0  0  0  0  0  0  0  0  0
   -6.8504   22.4167  -33.1081 H   0  0  0  0  0  0  0  0  0  0  0  0
   -8.6387   23.7472  -31.0709 H   0  0  0  0  0  0  0  0  0  0  0  0
   -8.8136   23.5748  -32.8748 H   0  0  0  0  0  0  0  0  0  0  0  0
   -9.6815   21.7396  -30.6705 H   0  0  0  0  0  0  0  0  0  0  0  0
  -10.4327   22.0989  -32.2759 H   0  0  0  0  0  0  0  0  0  0  0  0
   -9.6227   19.7798  -32.2097 H   0  0  0  0  0  0  0  0  0  0  0  0
   -8.6620   20.7711  -33.3839 H   0  0  0  0  0  0  0  0  0  0  0  0
   -2.6521   18.3559  -33.6139 H   0  0  0  0  0  0  0  0  0  0  0  0
   -1.6330   16.3109  -33.7212 H   0  0  0  0  0  0  0  0  0  0  0  0
   -2.4398   16.7510  -35.2646 H   0  0  0  0  0  0  0  0  0  0  0  0
   -1.0808   15.5764  -35.2646 H   0  0  0  0  0  0  0  0  0  0  0  0
    0.9986   19.7319  -35.4952 H   0  0  0  0  0  0  0  0  0  0  0  0
    2.7590   22.0189  -34.6022 H   0  0  0  0  0  0  0  0  0  0  0  0
    1.9379   21.2247  -35.9885 H   0  0  0  0  0  0  0  0  0  0  0  0
    2.1814   23.0045  -35.9885 H   0  0  0  0  0  0  0  0  0  0  0  0
   -1.4774   22.5073  -33.2771 H   0  0  0  0  0  0  0  0  0  0  0  0
   -2.5702   20.0327  -30.1506 H   0  0  0  0  0  0  0  0  0  0  0  0
  1  2  1  0
  2  3  1  0
  3  4  2  0
  4  5  1  0
  5  6  1  0
  6  7  1  0
  5  8  2  0
  8  9  1  0
  9 10  1  0
 10 11  1  0
 11 12  1  0
 12 13  1  0
 13 14  1  0
 14 15  1  0
 15 16  1  0
 16 17  1  0
 17 18  1  0
 18 19  1  0
 10 20  1  0
 20 21  2  0
 21 22  1  0
 22 23  1  0
 23 24  1  0
 22 25  2  0
 25 26  1  0
 26 27  1  0
 27 28  1  0
 26 29  2  0
  9 30  2  0
 30  3  1  0
 19 14  1  0
 29 20  1  0
  1 31  1  0
  1 32  1  0
  1 33  1  0
  4 34  1  0
  7 35  1  0
  7 36  1  0
  7 37  1  0
  8 38  1  0
 11 39  1  0
 11 40  1  0
 12 41  1  0
 12 42  1  0
 13 43  1  0
 13 44  1  0
 15 45  1  0
 15 46  1  0
 16 47  1  0
 16 48  1  0
 17 49  1  0
 17 50  1  0
 18 51  1  0
 18 52  1  0
 19 53  1  0
 19 54  1  0
 21 55  1  0
 24 56  1  0
 24 57  1  0
 24 58  1  0
 25 59  1  0
 28 60  1  0
 28 61  1  0
 28 62  1  0
 29 63  1  0
 30 64  1  0
M  END
>  <UniqueID>  (22) 
22

>  <SMILES>  (22) 
COc1cc(OC)cc(N(CCCN2CCCCC2)c2cc(OC)cc(OC)c2)c1

>  <Energy>  (22) 
79.12896829393681

>  <Genealogy>  (22) 
COc1cc(OC)cc(N(CCCN2CCCCC2)c2cc(OC)cc(OC)c2)c1 (3D coordinates assigned)
COc1cc(OC)cc(N(CCCN2CCCCC2)c2cc(OC)cc(OC)c2)c1 (nonaromatic ring conformer: 79.12896829393681 kcal/mol)

>  <smiles>  (22) 
COc1cc(OC)cc(N(CCCN2CCCCC2)c2cc(OC)cc(OC)c2)c1

>  <score_type>  (22) 
oracle

>  <origin>  (22) 
adgpu

>  <m_score__min__energy>  (22) 
-8.1999999999999993

>  <m_primary>  (22) 
energy

$$$$
22:0
     RDKit          3D

 43 45  0  0  0  0  0  0  0  0999 V2000
   -3.4338   22.4498  -31.2645 H   0  0  0  0  0  0  0  0  0  0  0  0
   -4.4520   22.8100  -31.0560 C   0  0  0  0  0  0  0  0  0  0  0  0
   -5.5450   21.9690  -31.2830 C   0  0  0  0  0  0  0  0  0  0  0  0
   -5.3843   20.9552  -31.6785 H   0  0  0  0  0  0  0  0  0  0  0  0
   -6.8450   22.4140  -31.0080 C   0  0  0  0  0  0  0  0  0  0  0  0
   -8.2190   21.3490  -31.2810 S   0  0  0  0  0  0  0  0  0  0  0  0
   -9.2540   21.6020  -30.2210 O   0  0  0  0  0  0  0  0  0  0  0  0
   -8.8000   21.6170  -32.6410 O   0  0  0  0  0  0  0  0  0  0  0  0
   -7.6870   19.6990  -31.2070 N   0  0  0  0  0  0  0  0  0  0  0  0
   -7.2020   19.0420  -32.2160 C   0  0  0  0  0  0  0  0  0  0  0  0
   -6.7790   17.7320  -32.1680 C   0  0  0  0  0  0  0  0  0  0  0  0
   -6.7772   17.0439  -31.3098 H   0  0  0  0  0  0  0  0  0  0  0  0
   -6.3570   17.4940  -33.4640 C   0  0  0  0  0  0  0  0  0  0  0  0
   -5.7840   16.2180  -33.9790 C   0  0  0  0  0  0  0  0  0  0  0  0
   -5.4963   15.5772  -33.1325 H   0  0  0  0  0  0  0  0  0  0  0  0
   -6.5358   15.6996  -34.5923 H   0  0  0  0  0  0  0  0  0  0  0  0
   -4.8971   16.4355  -34.5923 H   0  0  0  0  0  0  0  0  0  0  0  0
   -6.5260   18.5810  -34.1850 O   0  0  0  0  0  0  0  0  0  0  0  0
   -7.0360   19.5330  -33.4600 N   0  0  0  0  0  0  0  0  0  0  0  0
   -7.2590   20.4890  -33.8130 H   0  0  0  0  0  0  0  0  0  0  0  0
   -7.0400   23.6980  -30.4840 C   0  0  0  0  0  0  0  0  0  0  0  0
   -8.0569   24.0451  -30.2484 H   0  0  0  0  0  0  0  0  0  0  0  0
   -5.9460   24.5410  -30.2590 C   0  0  0  0  0  0  0  0  0  0  0  0
   -6.1055   25.5460  -29.8413 H   0  0  0  0  0  0  0  0  0  0  0  0
   -4.6430   24.1080  -30.5650 C   0  0  0  0  0  0  0  0  0  0  0  0
   -3.4910   24.9300  -30.3280 N   0  0  0  0  0  0  0  0  0  0  0  0
   -2.4680   24.7080  -29.3470 C   0  0  0  0  0  0  0  0  0  0  0  0
   -1.7690   25.6720  -28.9330 O   0  0  0  0  0  0  0  0  0  0  0  0
   -2.1970   23.3350  -28.8570 C   0  0  0  0  0  0  0  0  0  0  0  0
   -2.7010   22.9040  -27.6170 C   0  0  0  0  0  0  0  0  0  0  0  0
   -3.3032   23.5911  -27.0045 H   0  0  0  0  0  0  0  0  0  0  0  0
   -2.4430   21.6090  -27.1560 C   0  0  0  0  0  0  0  0  0  0  0  0
   -2.8423   21.2845  -26.1838 H   0  0  0  0  0  0  0  0  0  0  0  0
   -1.6750   20.7190  -27.9300 C   0  0  0  0  0  0  0  0  0  0  0  0
   -1.3900   19.4110  -27.5110 O   0  0  0  0  0  0  0  0  0  0  0  0
   -2.2260   18.6420  -26.6530 C   0  0  0  0  0  0  0  0  0  0  0  0
   -1.9813   18.8671  -25.6045 H   0  0  0  0  0  0  0  0  0  0  0  0
   -3.2794   18.8934  -26.8458 H   0  0  0  0  0  0  0  0  0  0  0  0
   -2.0633   17.5713  -26.8458 H   0  0  0  0  0  0  0  0  0  0  0  0
   -1.1720   21.1470  -29.1620 C   0  0  0  0  0  0  0  0  0  0  0  0
   -0.5687   20.4594  -29.7730 H   0  0  0  0  0  0  0  0  0  0  0  0
   -1.4290   22.4420  -29.6250 C   0  0  0  0  0  0  0  0  0  0  0  0
   -1.0273   22.7640  -30.5971 H   0  0  0  0  0  0  0  0  0  0  0  0
  1  2  1  0
  2  3  2  0
  3  4  1  0
  3  5  1  0
  5  6  1  0
  6  7  2  0
  6  8  2  0
  6  9  1  0
  9 10  2  0
 10 11  1  0
 11 12  1  0
 11 13  2  0
 13 14  1  0
 14 15  1  0
 14 16  1  0
 14 17  1  0
 13 18  1  0
 18 19  1  0
 19 20  1  0
  5 21  2  0
 21 22  1  0
 21 23  1  0
 23 24  1  0
 23 25  2  0
 25 26  1  0
 26 27  1  0
 27 28  2  0
 27 29  1  0
 29 30  2  0
 30 31  1  0
 30 32  1  0
 32 33  1  0
 32 34  2  0
 34 35  1  0
 35 36  1  0
 36 37  1  0
 36 38  1  0
 36 39  1  0
 34 40  1  0
 40 41  1  0
 40 42  2  0
 42 43  1  0
 25  2  1  0
 42 29  1  0
 19 10  1  0
M  CHG  1  26  -1
M  END
>  <UniqueID>  (23) 
23

>  <SMILES>  (23) 
COc1ccc(C(=O)[N-]c2ccc(S(=O)(=O)/N=c3/cc(C)o[nH]3)cc2)cc1

>  <Energy>  (23) 
83.7611990971895

>  <Genealogy>  (23) 
COc1ccc(C(=O)[N-]c2ccc(S(=O)(=O)N=c3cc(C)o[nH]3)cc2)cc1 (protonated)
COc1ccc(C(=O)[N-]c2ccc(S(=O)(=O)/N=c3/cc(C)o[nH]3)cc2)cc1 (cis-trans isomerization)
COc1ccc(C(=O)[N-]c2ccc(S(=O)(=O)/N=c3/cc(C)o[nH]3)cc2)cc1 (3D coordinates assigned)
COc1ccc(C(=O)[N-]c2ccc(S(=O)(=O)/N=c3/cc(C)o[nH]3)cc2)cc1 (optimized conformer: 83.7611990971895 kcal/mol)

>  <smiles>  (23) 
COc1ccc(C(=O)Nc2ccc(S(=O)(=O)N=c3cc(C)o[nH]3)cc2)cc1

>  <score_type>  (23) 
oracle

>  <origin>  (23) 
adgpu

>  <m_score__min__energy>  (23) 
-10.73

>  <m_primary>  (23) 
energy

$$$$
23:0
     RDKit          3D

 43 44  0  0  0  0  0  0  0  0999 V2000
   -1.9350   26.2270  -25.3160 C   0  0  0  0  0  0  0  0  0  0  0  0
   -1.8770   24.9330  -26.1230 C   0  0  0  0  0  0  0  0  0  0  0  0
   -3.2530   24.6050  -26.7520 C   0  0  0  0  0  0  0  0  0  0  0  0
   -3.2080   23.9490  -28.0930 N   0  0  1  0  0  0  0  0  0  0  0  0
   -2.7620   24.8270  -29.1600 C   0  0  0  0  0  0  0  0  0  0  0  0
   -1.8040   25.6270  -28.9690 O   0  0  0  0  0  0  0  0  0  0  0  0
   -3.4920   24.9280  -30.3920 N   0  0  0  0  0  0  0  0  0  0  0  0
   -4.7830   24.3630  -30.6470 C   0  0  0  0  0  0  0  0  0  0  0  0
   -5.9470   25.0250  -30.2260 C   0  0  0  0  0  0  0  0  0  0  0  0
   -7.2010   24.4530  -30.4450 C   0  0  0  0  0  0  0  0  0  0  0  0
   -7.3030   23.2080  -31.0690 C   0  0  0  0  0  0  0  0  0  0  0  0
   -6.1500   22.5250  -31.4690 C   0  0  0  0  0  0  0  0  0  0  0  0
   -6.3220   20.9530  -32.2400 Cl  0  0  0  0  0  0  0  0  0  0  0  0
   -4.8830   23.0970  -31.2490 C   0  0  0  0  0  0  0  0  0  0  0  0
   -3.4200   22.2500  -31.7530 Cl  0  0  0  0  0  0  0  0  0  0  0  0
   -2.4700   22.6900  -28.1050 C   0  0  0  0  0  0  0  0  0  0  0  0
   -3.1010   21.4500  -27.8610 C   0  0  0  0  0  0  0  0  0  0  0  0
   -2.3590   20.2650  -27.8400 C   0  0  0  0  0  0  0  0  0  0  0  0
   -0.9750   20.2930  -28.0410 C   0  0  0  0  0  0  0  0  0  0  0  0
   -0.0440   18.7990  -28.0310 S   0  0  0  0  0  0  0  0  0  0  0  0
   -0.0200   18.1080  -29.6690 C   0  0  0  0  0  0  0  0  0  0  0  0
   -0.6650   17.8140  -27.0810 O   0  0  0  0  0  0  0  0  0  0  0  0
    1.3620   19.0800  -27.5820 O   0  0  0  0  0  0  0  0  0  0  0  0
   -0.3360   21.5160  -28.2720 C   0  0  0  0  0  0  0  0  0  0  0  0
   -1.0730   22.7020  -28.2950 C   0  0  0  0  0  0  0  0  0  0  0  0
   -1.9244   25.9900  -24.2419 H   0  0  0  0  0  0  0  0  0  0  0  0
   -1.0640   26.8520  -25.5622 H   0  0  0  0  0  0  0  0  0  0  0  0
   -2.8585   26.7716  -25.5622 H   0  0  0  0  0  0  0  0  0  0  0  0
   -1.1326   25.0432  -26.9253 H   0  0  0  0  0  0  0  0  0  0  0  0
   -1.5981   24.1119  -25.4462 H   0  0  0  0  0  0  0  0  0  0  0  0
   -3.7884   23.9338  -26.0644 H   0  0  0  0  0  0  0  0  0  0  0  0
   -3.7525   25.5728  -26.9063 H   0  0  0  0  0  0  0  0  0  0  0  0
   -4.2020   23.6990  -28.2950 H   0  0  0  0  0  0  0  0  0  0  0  0
   -5.8704   25.9993  -29.7211 H   0  0  0  0  0  0  0  0  0  0  0  0
   -8.1101   24.9836  -30.1257 H   0  0  0  0  0  0  0  0  0  0  0  0
   -8.2932   22.7631  -31.2465 H   0  0  0  0  0  0  0  0  0  0  0  0
   -4.1864   21.4163  -27.6858 H   0  0  0  0  0  0  0  0  0  0  0  0
   -2.8667   19.3051  -27.6644 H   0  0  0  0  0  0  0  0  0  0  0  0
    0.0181   17.0106  -29.6035 H   0  0  0  0  0  0  0  0  0  0  0  0
   -0.9292   18.4118  -30.2085 H   0  0  0  0  0  0  0  0  0  0  0  0
    0.8660   18.4741  -30.2085 H   0  0  0  0  0  0  0  0  0  0  0  0
    0.7513   21.5435  -28.4362 H   0  0  0  0  0  0  0  0  0  0  0  0
   -0.5566   23.6585  -28.4636 H   0  0  0  0  0  0  0  0  0  0  0  0
  1  2  1  0
  2  3  1  0
  3  4  1  0
  4  5  1  0
  5  6  2  0
  5  7  1  0
  7  8  1  0
  8  9  2  0
  9 10  1  0
 10 11  2  0
 11 12  1  0
 12 13  1  0
 12 14  2  0
 14 15  1  0
  4 16  1  0
 16 17  2  0
 17 18  1  0
 18 19  2  0
 19 20  1  0
 20 21  1  0
 20 22  2  0
 20 23  2  0
 19 24  1  0
 24 25  2  0
 14  8  1  0
 25 16  1  0
  1 26  1  0
  1 27  1  0
  1 28  1  0
  2 29  1  0
  2 30  1  0
  3 31  1  0
  3 32  1  0
  4 33  1  6
  9 34  1  0
 10 35  1  0
 11 36  1  0
 17 37  1  0
 18 38  1  0
 21 39  1  0
 21 40  1  0
 21 41  1  0
 24 42  1  0
 25 43  1  0
M  CHG  2   4   1   7  -1
M  END
>  <UniqueID>  (24) 
24

>  <SMILES>  (24) 
CCC[N@@H+](C(=O)[N-]c1cccc(Cl)c1Cl)c1ccc(S(C)(=O)=O)cc1

>  <Energy>  (24) 
57.098338558765825

>  <Genealogy>  (24) 
CCC[NH+](C(=O)[N-]c1cccc(Cl)c1Cl)c1ccc(S(C)(=O)=O)cc1 (protonated)
CCC[N@@H+](C(=O)[N-]c1cccc(Cl)c1Cl)c1ccc(S(C)(=O)=O)cc1 (chirality)
CCC[N@@H+](C(=O)[N-]c1cccc(Cl)c1Cl)c1ccc(S(C)(=O)=O)cc1 (3D coordinates assigned)
CCC[N@@H+](C(=O)[N-]c1cccc(Cl)c1Cl)c1ccc(S(C)(=O)=O)cc1 (optimized conformer: 57.098338558765825 kcal/mol)

>  <smiles>  (24) 
CCCN(C(=O)Nc1cccc(Cl)c1Cl)c1ccc(S(C)(=O)=O)cc1

>  <score_type>  (24) 
oracle

>  <origin>  (24) 
adgpu

>  <m_score__min__energy>  (24) 
-8.6699999999999999

>  <m_primary>  (24) 
energy

$$$$
24:0
     RDKit          3D

 37 38  0  0  1  0  0  0  0  0999 V2000
   -2.2660   24.7360  -28.1910 C   0  0  0  0  0  0  0  0  0  0  0  0
   -2.8750   25.2870  -29.3440 O   0  0  0  0  0  0  0  0  0  0  0  0
   -3.9140   24.6660  -30.0250 C   0  0  0  0  0  0  0  0  0  0  0  0
   -3.7600   23.4390  -30.6540 C   0  0  0  0  0  0  0  0  0  0  0  0
   -4.7930   22.8170  -31.3310 C   0  0  0  0  0  0  0  0  0  0  0  0
   -6.0600   23.4120  -31.4100 C   0  0  0  0  0  0  0  0  0  0  0  0
   -7.1460   22.7470  -32.1600 C   0  0  0  0  0  0  0  0  0  0  0  0
   -6.6950   21.5570  -32.7710 N   0  0  0  0  0  0  0  0  0  0  0  0
   -7.0770   20.3580  -32.6350 C   0  0  0  0  0  0  0  0  0  0  0  0
   -6.4710   19.3190  -33.3550 C   0  0  0  0  0  0  0  0  0  0  0  0
   -6.8850   18.0100  -33.1970 C   0  0  0  0  0  0  0  0  0  0  0  0
   -6.2640   16.9480  -33.9240 N   0  0  0  0  0  0  0  0  0  0  0  0
   -6.8790   15.6520  -34.1270 C   0  0  0  0  0  0  0  0  0  0  0  0
   -4.9240   17.2080  -34.4680 C   0  0  0  0  0  0  0  0  0  0  0  0
   -7.8890   17.8090  -32.3240 N   0  0  0  0  0  0  0  0  0  0  0  0
   -8.4590   18.8330  -31.6380 C   0  0  0  0  0  0  0  0  0  0  0  0
   -8.0750   20.0990  -31.7770 N   0  0  0  0  0  0  0  0  0  0  0  0
   -6.1930   24.6250  -30.7860 C   0  0  0  0  0  0  0  0  0  0  0  0
   -5.1480   25.2510  -30.1020 C   0  0  0  0  0  0  0  0  0  0  0  0
   -2.7346   25.1600  -27.2907 H   0  0  0  0  0  0  0  0  0  0  0  0
   -2.3976   23.6439  -28.1932 H   0  0  0  0  0  0  0  0  0  0  0  0
   -1.1925   24.9759  -28.1932 H   0  0  0  0  0  0  0  0  0  0  0  0
   -2.7794   22.9423  -30.6126 H   0  0  0  0  0  0  0  0  0  0  0  0
   -4.6185   21.8439  -31.8132 H   0  0  0  0  0  0  0  0  0  0  0  0
   -7.9645   22.5053  -31.4660 H   0  0  0  0  0  0  0  0  0  0  0  0
   -7.4926   23.4316  -32.9482 H   0  0  0  0  0  0  0  0  0  0  0  0
   -5.6546   19.5488  -34.0555 H   0  0  0  0  0  0  0  0  0  0  0  0
   -7.0969   15.1927  -33.1515 H   0  0  0  0  0  0  0  0  0  0  0  0
   -7.8149   15.7747  -34.6918 H   0  0  0  0  0  0  0  0  0  0  0  0
   -6.1921   15.0046  -34.6918 H   0  0  0  0  0  0  0  0  0  0  0  0
   -4.2127   17.3460  -33.6403 H   0  0  0  0  0  0  0  0  0  0  0  0
   -4.6070   16.3546  -35.0854 H   0  0  0  0  0  0  0  0  0  0  0  0
   -4.9492   18.1180  -35.0854 H   0  0  0  0  0  0  0  0  0  0  0  0
   -9.2747   18.6054  -30.9360 H   0  0  0  0  0  0  0  0  0  0  0  0
   -8.4930   20.9100  -31.2740 H   0  0  0  0  0  0  0  0  0  0  0  0
   -7.1695   25.1299  -30.8256 H   0  0  0  0  0  0  0  0  0  0  0  0
   -5.3194   26.2249  -29.6202 H   0  0  0  0  0  0  0  0  0  0  0  0
  1  2  1  0
  2  3  1  0
  3  4  2  0
  4  5  1  0
  5  6  2  0
  6  7  1  0
  7  8  1  0
  8  9  2  0
  9 10  1  0
 10 11  2  0
 11 12  1  0
 12 13  1  0
 12 14  1  0
 11 15  1  0
 15 16  2  0
 16 17  1  0
  6 18  1  0
 18 19  2  0
 19  3  1  0
 17  9  1  0
  1 20  1  0
  1 21  1  0
  1 22  1  0
  4 23  1  0
  5 24  1  0
  7 25  1  0
  7 26  1  0
 10 27  1  0
 13 28  1  0
 13 29  1  0
 13 30  1  0
 14 31  1  0
 14 32  1  0
 14 33  1  0
 16 34  1  0
 17 35  1  0
 18 36  1  0
 19 37  1  0
M  END
>  <smiles>  (25) 
COc1ccc(CN=c2cc(N(C)C)nc[nH]2)cc1

>  <score_type>  (25) 
oracle

>  <origin>  (25) 
adgpu

>  <m_score__min__energy>  (25) 
-6.9699999999999998

>  <m_primary>  (25) 
energy

$$$$
25:0
     RDKit          3D

 35 37  0  0  0  0  0  0  0  0999 V2000
   -7.4352   24.7221  -31.9605 H   0  0  0  0  0  0  0  0  0  0  0  0
   -6.4560   24.5440  -31.4920 C   0  0  0  0  0  0  0  0  0  0  0  0
   -5.5000   25.7040  -30.7320 S   0  0  0  0  0  0  0  0  0  0  0  0
   -4.2970   24.6050  -30.3450 C   0  0  0  0  0  0  0  0  0  0  0  0
   -3.1960   24.9260  -29.7330 N   0  0  0  0  0  0  0  0  0  0  0  0
   -2.1420   24.0280  -29.3440 C   0  0  0  0  0  0  0  0  0  0  0  0
   -2.2010   22.7000  -29.7790 C   0  0  0  0  0  0  0  0  0  0  0  0
   -3.0468   22.3649  -30.3973 H   0  0  0  0  0  0  0  0  0  0  0  0
   -1.1940   21.7970  -29.4340 C   0  0  0  0  0  0  0  0  0  0  0  0
   -1.2566   20.7516  -29.7705 H   0  0  0  0  0  0  0  0  0  0  0  0
   -0.1070   22.2160  -28.6630 C   0  0  0  0  0  0  0  0  0  0  0  0
    0.6762   21.4954  -28.3850 H   0  0  0  0  0  0  0  0  0  0  0  0
   -0.0080   23.5540  -28.2400 C   0  0  0  0  0  0  0  0  0  0  0  0
    1.1200   23.9880  -27.4590 N   0  0  0  0  0  0  0  0  0  0  0  0
    1.8500   24.9200  -27.8570 O   0  0  0  0  0  0  0  0  0  0  0  0
    1.4080   23.3900  -26.2530 O   0  0  0  0  0  0  0  0  0  0  0  0
   -1.0260   24.4580  -28.5970 C   0  0  0  0  0  0  0  0  0  0  0  0
   -0.9502   25.5115  -28.2899 H   0  0  0  0  0  0  0  0  0  0  0  0
   -4.5860   23.3640  -30.7890 N   0  0  0  0  0  0  0  0  0  0  0  0
   -5.7900   23.3140  -31.4250 C   0  0  0  0  0  0  0  0  0  0  0  0
   -6.3190   22.0370  -31.9710 C   0  0  0  0  0  0  0  0  0  0  0  0
   -7.6520   21.6410  -31.7550 C   0  0  0  0  0  0  0  0  0  0  0  0
   -8.3246   22.2827  -31.1669 H   0  0  0  0  0  0  0  0  0  0  0  0
   -8.1260   20.4380  -32.2830 C   0  0  0  0  0  0  0  0  0  0  0  0
   -9.1697   20.1373  -32.1090 H   0  0  0  0  0  0  0  0  0  0  0  0
   -7.2820   19.6160  -33.0300 C   0  0  0  0  0  0  0  0  0  0  0  0
   -7.6636   18.6689  -33.4393 H   0  0  0  0  0  0  0  0  0  0  0  0
   -5.9540   19.9880  -33.2620 C   0  0  0  0  0  0  0  0  0  0  0  0
   -5.1440   19.1290  -34.0210 O   0  0  0  0  0  0  0  0  0  0  0  0
   -5.6040   17.9400  -34.6550 C   0  0  0  0  0  0  0  0  0  0  0  0
   -5.8891   17.2031  -33.8897 H   0  0  0  0  0  0  0  0  0  0  0  0
   -6.4768   18.1732  -35.2826 H   0  0  0  0  0  0  0  0  0  0  0  0
   -4.8015   17.5251  -35.2826 H   0  0  0  0  0  0  0  0  0  0  0  0
   -5.4770   21.2020  -32.7310 C   0  0  0  0  0  0  0  0  0  0  0  0
   -4.4342   21.5017  -32.9120 H   0  0  0  0  0  0  0  0  0  0  0  0
  1  2  1  0
  2  3  1  0
  3  4  1  0
  4  5  2  0
  5  6  1  0
  6  7  2  0
  7  8  1  0
  7  9  1  0
  9 10  1  0
  9 11  2  0
 11 12  1  0
 11 13  1  0
 13 14  1  0
 14 15  2  0
 14 16  1  0
 13 17  2  0
 17 18  1  0
  4 19  1  0
 19 20  1  0
 20 21  1  0
 21 22  2  0
 22 23  1  0
 22 24  1  0
 24 25  1  0
 24 26  2  0
 26 27  1  0
 26 28  1  0
 28 29  1  0
 29 30  1  0
 30 31  1  0
 30 32  1  0
 30 33  1  0
 28 34  2  0
 34 35  1  0
 20  2  2  0
 34 21  1  0
 17  6  1  0
M  CHG  3  14   1  16  -1  19  -1
M  END
>  <UniqueID>  (26) 
25

>  <SMILES>  (26) 
COc1cccc(-c2cs/c(=N/c3cccc([N+](=O)[O-])c3)[n-]2)c1

>  <Energy>  (26) 
75.38313153672837

>  <Genealogy>  (26) 
COc1cccc(-c2csc(=Nc3cccc([N+](=O)[O-])c3)[n-]2)c1 (protonated)
COc1cccc(-c2cs/c(=N/c3cccc([N+](=O)[O-])c3)[n-]2)c1 (cis-trans isomerization)
COc1cccc(-c2cs/c(=N/c3cccc([N+](=O)[O-])c3)[n-]2)c1 (3D coordinates assigned)
COc1cccc(-c2cs/c(=N/c3cccc([N+](=O)[O-])c3)[n-]2)c1 (optimized conformer: 75.38313153672837 kcal/mol)

>  <smiles>  (26) 
COc1cccc(-c2csc(=Nc3cccc([N+](=O)[O-])c3)[nH]2)c1

>  <score_type>  (26) 
oracle

>  <origin>  (26) 
adgpu

>  <m_score__min__energy>  (26) 
-8.6400000000000006

>  <m_primary>  (26) 
energy

$$$$
26:0
     RDKit          3D

 41 42  0  0  0  0  0  0  0  0999 V2000
   -1.9580   24.9280  -28.1610 C   0  0  0  0  0  0  0  0  0  0  0  0
   -2.6750   25.2920  -29.3370 O   0  0  0  0  0  0  0  0  0  0  0  0
   -3.7710   24.5820  -29.8470 C   0  0  0  0  0  0  0  0  0  0  0  0
   -3.6160   23.2150  -30.1050 C   0  0  0  0  0  0  0  0  0  0  0  0
   -4.6780   22.4620  -30.6140 C   0  0  0  0  0  0  0  0  0  0  0  0
   -5.9210   23.0680  -30.8760 C   0  0  0  0  0  0  0  0  0  0  0  0
   -7.0350   22.3210  -31.4010 N   0  0  0  0  0  0  0  0  0  0  0  0
   -8.2240   22.9540  -31.9770 C   0  0  0  0  0  0  0  0  0  0  0  0
   -9.4880   22.1110  -31.7450 C   0  0  0  0  0  0  0  0  0  0  0  0
   -9.3390   20.6570  -32.2230 C   0  0  0  0  0  0  0  0  0  0  0  0
   -8.6520   19.8310  -31.2190 N   0  0  0  0  0  0  0  0  0  0  0  0
   -8.3850   18.4780  -31.7220 C   0  0  0  0  0  0  0  0  0  0  0  0
   -7.1500   18.4940  -32.5720 C   0  0  0  0  0  0  0  0  0  0  0  0
   -6.8290   17.4000  -33.3910 C   0  0  0  0  0  0  0  0  0  0  0  0
   -5.6920   17.4630  -34.2000 C   0  0  0  0  0  0  0  0  0  0  0  0
   -4.8970   18.6100  -34.1940 C   0  0  0  0  0  0  0  0  0  0  0  0
   -5.2550   19.6850  -33.3770 C   0  0  0  0  0  0  0  0  0  0  0  0
   -6.3640   19.6060  -32.5960 N   0  0  0  0  0  0  0  0  0  0  0  0
   -6.0740   24.4380  -30.6150 C   0  0  0  0  0  0  0  0  0  0  0  0
   -5.0130   25.1920  -30.1060 C   0  0  0  0  0  0  0  0  0  0  0  0
   -2.5368   25.2219  -27.2730 H   0  0  0  0  0  0  0  0  0  0  0  0
   -1.7983   23.8397  -28.1510 H   0  0  0  0  0  0  0  0  0  0  0  0
   -0.9852   25.4414  -28.1510 H   0  0  0  0  0  0  0  0  0  0  0  0
   -2.6497   22.7289  -29.9054 H   0  0  0  0  0  0  0  0  0  0  0  0
   -4.5413   21.3885  -30.8111 H   0  0  0  0  0  0  0  0  0  0  0  0
   -6.9780   21.2780  -31.3760 H   0  0  0  0  0  0  0  0  0  0  0  0
   -8.3634   23.9405  -31.5109 H   0  0  0  0  0  0  0  0  0  0  0  0
   -8.0698   23.0479  -33.0621 H   0  0  0  0  0  0  0  0  0  0  0  0
   -9.7117   22.1044  -30.6680 H   0  0  0  0  0  0  0  0  0  0  0  0
  -10.2992   22.5676  -32.3311 H   0  0  0  0  0  0  0  0  0  0  0  0
  -10.3385   20.2370  -32.4091 H   0  0  0  0  0  0  0  0  0  0  0  0
   -8.7376   20.6548  -33.1440 H   0  0  0  0  0  0  0  0  0  0  0  0
   -7.7270   20.2800  -31.0160 H   0  0  0  0  0  0  0  0  0  0  0  0
   -8.2368   17.7942  -30.8732 H   0  0  0  0  0  0  0  0  0  0  0  0
   -9.2396   18.1361  -32.3243 H   0  0  0  0  0  0  0  0  0  0  0  0
   -7.4658   16.5031  -33.3956 H   0  0  0  0  0  0  0  0  0  0  0  0
   -5.4237   16.6100  -34.8407 H   0  0  0  0  0  0  0  0  0  0  0  0
   -3.9983   18.6669  -34.8257 H   0  0  0  0  0  0  0  0  0  0  0  0
   -4.6387   20.5961  -33.3659 H   0  0  0  0  0  0  0  0  0  0  0  0
   -7.0405   24.9244  -30.8133 H   0  0  0  0  0  0  0  0  0  0  0  0
   -5.1488   26.2653  -29.9072 H   0  0  0  0  0  0  0  0  0  0  0  0
  1  2  1  0
  2  3  1  0
  3  4  2  0
  4  5  1  0
  5  6  2  0
  6  7  1  0
  7  8  1  0
  8  9  1  0
  9 10  1  0
 10 11  1  0
 11 12  1  0
 12 13  1  0
 13 14  2  0
 14 15  1  0
 15 16  2  0
 16 17  1  0
 17 18  2  0
  6 19  1  0
 19 20  2  0
 20  3  1  0
 18 13  1  0
  1 21  1  0
  1 22  1  0
  1 23  1  0
  4 24  1  0
  5 25  1  0
  7 26  1  0
  8 27  1  0
  8 28  1  0
  9 29  1  0
  9 30  1  0
 10 31  1  0
 10 32  1  0
 11 33  1  0
 12 34  1  0
 12 35  1  0
 14 36  1  0
 15 37  1  0
 16 38  1  0
 17 39  1  0
 19 40  1  0
 20 41  1  0
M  END
>  <UniqueID>  (27) 
26

>  <SMILES>  (27) 
COc1ccc(NCCCNCc2ccccn2)cc1

>  <Energy>  (27) 
36.22943402718476

>  <Genealogy>  (27) 
COc1ccc(NCCCNCc2ccccn2)cc1 (3D coordinates assigned)
COc1ccc(NCCCNCc2ccccn2)cc1 (optimized conformer: 36.22943402718476 kcal/mol)

>  <smiles>  (27) 
COc1ccc(NCCCNCc2ccccn2)cc1

>  <score_type>  (27) 
oracle

>  <origin>  (27) 
adgpu

>  <m_score__min__energy>  (27) 
-7.3600000000000003

>  <m_primary>  (27) 
energy

$$$$
27:0
     RDKit          3D

 26 27  0  0  0  0  0  0  0  0999 V2000
   -4.3070   24.9650  -30.8420 O   0  0  0  0  0  0  0  0  0  0  0  0
   -4.5530   23.8590  -30.2890 C   0  0  0  0  0  0  0  0  0  0  0  0
   -3.7140   23.3850  -29.2240 N   0  0  0  0  0  0  0  0  0  0  0  0
   -2.8730   24.2360  -28.4250 C   0  0  0  0  0  0  0  0  0  0  0  0
   -3.2600   24.5510  -27.1130 C   0  0  0  0  0  0  0  0  0  0  0  0
   -2.4720   25.3940  -26.3250 C   0  0  0  0  0  0  0  0  0  0  0  0
   -1.2960   25.9420  -26.8460 C   0  0  0  0  0  0  0  0  0  0  0  0
   -0.9130   25.6530  -28.1580 C   0  0  0  0  0  0  0  0  0  0  0  0
   -1.6990   24.8080  -28.9490 C   0  0  0  0  0  0  0  0  0  0  0  0
   -5.6520   23.0170  -30.8130 C   0  0  0  0  0  0  0  0  0  0  0  0
   -6.9150   23.0900  -30.2010 C   0  0  0  0  0  0  0  0  0  0  0  0
   -7.9830   22.3250  -30.6770 C   0  0  0  0  0  0  0  0  0  0  0  0
   -7.8000   21.4700  -31.7660 C   0  0  0  0  0  0  0  0  0  0  0  0
   -9.1410   20.5080  -32.3610 Cl  0  0  0  0  0  0  0  0  0  0  0  0
   -6.5460   21.3710  -32.3720 C   0  0  0  0  0  0  0  0  0  0  0  0
   -5.4680   22.1340  -31.9030 C   0  0  0  0  0  0  0  0  0  0  0  0
   -3.8950   21.8820  -32.6560 Cl  0  0  0  0  0  0  0  0  0  0  0  0
   -3.6460   22.3510  -29.0830 H   0  0  0  0  0  0  0  0  0  0  0  0
   -4.1901   24.1313  -26.7023 H   0  0  0  0  0  0  0  0  0  0  0  0
   -2.7771   25.6266  -25.2941 H   0  0  0  0  0  0  0  0  0  0  0  0
   -0.6726   26.6004  -26.2231 H   0  0  0  0  0  0  0  0  0  0  0  0
    0.0083   26.0906  -28.5700 H   0  0  0  0  0  0  0  0  0  0  0  0
   -1.3981   24.5900  -29.9843 H   0  0  0  0  0  0  0  0  0  0  0  0
   -7.0643   23.7562  -29.3385 H   0  0  0  0  0  0  0  0  0  0  0  0
   -8.9686   22.3962  -30.1937 H   0  0  0  0  0  0  0  0  0  0  0  0
   -6.4032   20.6894  -33.2235 H   0  0  0  0  0  0  0  0  0  0  0  0
  1  2  2  0
  2  3  1  0
  3  4  1  0
  4  5  2  0
  5  6  1  0
  6  7  2  0
  7  8  1  0
  8  9  2  0
  2 10  1  0
 10 11  2  0
 11 12  1  0
 12 13  2  0
 13 14  1  0
 13 15  1  0
 15 16  2  0
 16 17  1  0
  9  4  1  0
 16 10  1  0
  3 18  1  0
  5 19  1  0
  6 20  1  0
  7 21  1  0
  8 22  1  0
  9 23  1  0
 11 24  1  0
 12 25  1  0
 15 26  1  0
M  END
>  <UniqueID>  (28) 
27

>  <SMILES>  (28) 
O=C(Nc1ccccc1)c1ccc(Cl)cc1Cl

>  <Energy>  (28) 
35.47750096436515

>  <Genealogy>  (28) 
O=C(Nc1ccccc1)c1ccc(Cl)cc1Cl (3D coordinates assigned)
O=C(Nc1ccccc1)c1ccc(Cl)cc1Cl (optimized conformer: 35.47750096436515 kcal/mol)

>  <smiles>  (28) 
O=C(Nc1ccccc1)c1ccc(Cl)cc1Cl

>  <score_type>  (28) 
oracle

>  <origin>  (28) 
adgpu

>  <m_score__min__energy>  (28) 
-7.4500000000000002

>  <m_primary>  (28) 
energy

$$$$
28:0
     RDKit          3D

 50 53  0  0  0  0  0  0  0  0999 V2000
   -2.1810   25.2580  -29.3110 N   0  0  0  0  0  0  0  0  0  0  0  0
   -3.5850   24.5550  -30.0340 S   0  0  0  0  0  0  0  0  0  0  0  0
   -4.4580   25.6460  -30.5880 O   0  0  0  0  0  0  0  0  0  0  0  0
   -3.1660   23.6350  -31.1460 O   0  0  0  0  0  0  0  0  0  0  0  0
   -4.4830   23.6360  -28.7950 C   0  0  0  0  0  0  0  0  0  0  0  0
   -5.7740   23.0370  -29.3780 C   0  0  0  0  0  0  0  0  0  0  0  0
   -6.7330   24.0840  -29.7950 N   0  0  0  0  0  0  0  0  0  0  0  0
   -7.1820   23.9380  -31.1920 C   0  0  0  0  0  0  0  0  0  0  0  0
   -7.6330   22.5300  -31.4980 C   0  0  0  0  0  0  0  0  0  0  0  0
   -8.9730   22.1640  -31.3090 C   0  0  0  0  0  0  0  0  0  0  0  0
   -9.4120   20.8910  -31.6800 C   0  0  0  0  0  0  0  0  0  0  0  0
   -8.5240   19.9820  -32.2570 C   0  0  0  0  0  0  0  0  0  0  0  0
   -7.1780   20.3320  -32.4580 C   0  0  0  0  0  0  0  0  0  0  0  0
   -6.2400   19.3870  -33.1140 C   0  0  0  0  0  0  0  0  0  0  0  0
   -6.6630   18.0970  -33.4720 C   0  0  0  0  0  0  0  0  0  0  0  0
   -5.7740   17.2050  -34.0740 C   0  0  0  0  0  0  0  0  0  0  0  0
   -4.4540   17.5860  -34.3220 C   0  0  0  0  0  0  0  0  0  0  0  0
   -4.0080   18.8700  -33.9680 C   0  0  0  0  0  0  0  0  0  0  0  0
   -2.6050   19.2720  -34.2180 C   0  0  0  0  0  0  0  0  0  0  0  0
   -2.1940   20.5690  -34.2110 N   0  0  0  0  0  0  0  0  0  0  0  0
   -0.8840   20.4660  -34.4740 C   0  0  0  0  0  0  0  0  0  0  0  0
    0.0470   21.4950  -34.5860 C   0  0  0  0  0  0  0  0  0  0  0  0
    1.3800   21.1410  -34.8720 C   0  0  0  0  0  0  0  0  0  0  0  0
    1.7390   19.7830  -35.0360 C   0  0  0  0  0  0  0  0  0  0  0  0
    0.7680   18.7710  -34.9150 C   0  0  0  0  0  0  0  0  0  0  0  0
   -0.5390   19.1600  -34.6320 C   0  0  0  0  0  0  0  0  0  0  0  0
   -1.6140   18.3740  -34.4750 N   0  0  0  0  0  0  0  0  0  0  0  0
   -4.9090   19.7660  -33.3660 C   0  0  0  0  0  0  0  0  0  0  0  0
   -6.7360   21.6060  -32.0590 C   0  0  0  0  0  0  0  0  0  0  0  0
   -1.6140   25.6720  -30.0850 H   0  0  0  0  0  0  0  0  0  0  0  0
   -3.8462   22.8212  -28.4201 H   0  0  0  0  0  0  0  0  0  0  0  0
   -4.7534   24.3219  -27.9786 H   0  0  0  0  0  0  0  0  0  0  0  0
   -5.5165   22.4226  -30.2533 H   0  0  0  0  0  0  0  0  0  0  0  0
   -6.2520   22.4321  -28.5933 H   0  0  0  0  0  0  0  0  0  0  0  0
   -7.5830   24.0080  -29.1880 H   0  0  0  0  0  0  0  0  0  0  0  0
   -6.3400   25.0440  -29.6450 H   0  0  0  0  0  0  0  0  0  0  0  0
   -8.0219   24.6260  -31.3686 H   0  0  0  0  0  0  0  0  0  0  0  0
   -6.3307   24.1718  -31.8482 H   0  0  0  0  0  0  0  0  0  0  0  0
   -9.6805   22.8812  -30.8674 H   0  0  0  0  0  0  0  0  0  0  0  0
  -10.4613   20.6039  -31.5168 H   0  0  0  0  0  0  0  0  0  0  0  0
   -8.8800   18.9852  -32.5564 H   0  0  0  0  0  0  0  0  0  0  0  0
   -7.7004   17.7876  -33.2771 H   0  0  0  0  0  0  0  0  0  0  0  0
   -6.1150   16.1974  -34.3542 H   0  0  0  0  0  0  0  0  0  0  0  0
   -3.7598   16.8771  -34.7970 H   0  0  0  0  0  0  0  0  0  0  0  0
   -0.2478   22.5467  -34.4558 H   0  0  0  0  0  0  0  0  0  0  0  0
    2.1457   21.9249  -34.9683 H   0  0  0  0  0  0  0  0  0  0  0  0
    2.7825   19.5161  -35.2593 H   0  0  0  0  0  0  0  0  0  0  0  0
    1.0322   17.7105  -35.0396 H   0  0  0  0  0  0  0  0  0  0  0  0
   -4.5692   20.7748  -33.0889 H   0  0  0  0  0  0  0  0  0  0  0  0
   -5.6788   21.8813  -32.1873 H   0  0  0  0  0  0  0  0  0  0  0  0
  1  2  1  0
  2  3  2  0
  2  4  2  0
  2  5  1  0
  5  6  1  0
  6  7  1  0
  7  8  1  0
  8  9  1  0
  9 10  2  0
 10 11  1  0
 11 12  2  0
 12 13  1  0
 13 14  1  0
 14 15  2  0
 15 16  1  0
 16 17  2  0
 17 18  1  0
 18 19  1  0
 19 20  2  0
 20 21  1  0
 21 22  2  0
 22 23  1  0
 23 24  2  0
 24 25  1  0
 25 26  2  0
 26 27  1  0
 18 28  2  0
 13 29  2  0
 29  9  1  0
 28 14  1  0
 27 19  1  0
 26 21  1  0
  1 30  1  0
  5 31  1  0
  5 32  1  0
  6 33  1  0
  6 34  1  0
  7 35  1  0
  7 36  1  0
  8 37  1  0
  8 38  1  0
 10 39  1  0
 11 40  1  0
 12 41  1  0
 15 42  1  0
 16 43  1  0
 17 44  1  0
 22 45  1  0
 23 46  1  0
 24 47  1  0
 25 48  1  0
 28 49  1  0
 29 50  1  0
M  CHG  3   1  -1   7   1  27  -1
M  END
>  <UniqueID>  (29) 
28

>  <SMILES>  (29) 
[NH-]S(=O)(=O)CC[NH2+]Cc1cccc(-c2cccc(-c3nc4ccccc4[n-]3)c2)c1

>  <Energy>  (29) 
88.53535898809068

>  <Genealogy>  (29) 
[NH-]S(=O)(=O)CC[NH2+]Cc1cccc(-c2cccc(-c3nc4ccccc4[n-]3)c2)c1 (protonated)
[NH-]S(=O)(=O)CC[NH2+]Cc1cccc(-c2cccc(-c3nc4ccccc4[n-]3)c2)c1 (3D coordinates assigned)
[NH-]S(=O)(=O)CC[NH2+]Cc1cccc(-c2cccc(-c3nc4ccccc4[n-]3)c2)c1 (optimized conformer: 88.53535898809068 kcal/mol)

>  <smiles>  (29) 
NS(=O)(=O)CCNCc1cccc(-c2cccc(-c3nc4ccccc4[nH]3)c2)c1

>  <score_type>  (29) 
oracle

>  <origin>  (29) 
adgpu

>  <m_score__min__energy>  (29) 
-11.94

>  <m_primary>  (29) 
energy

$$$$
29:0
     RDKit          3D

 46 49  0  0  0  0  0  0  0  0999 V2000
   -2.1360   21.5110  -32.5120 C   0  0  0  0  0  0  0  0  0  0  0  0
   -3.5740   21.5130  -32.0850 C   0  0  0  0  0  0  0  0  0  0  0  0
   -4.1870   22.3270  -31.1400 C   0  0  0  0  0  0  0  0  0  0  0  0
   -3.5920   23.4440  -30.3840 C   0  0  0  0  0  0  0  0  0  0  0  0
   -3.7430   24.6200  -30.8130 O   0  0  0  0  0  0  0  0  0  0  0  0
   -2.7840   23.2020  -29.2220 N   0  0  0  0  0  0  0  0  0  0  0  0
   -2.5340   24.1860  -28.2030 C   0  0  0  0  0  0  0  0  0  0  0  0
   -3.4250   24.3740  -27.1290 C   0  0  0  0  0  0  0  0  0  0  0  0
   -3.1450   25.3210  -26.1380 C   0  0  0  0  0  0  0  0  0  0  0  0
   -1.9730   26.0790  -26.2030 C   0  0  0  0  0  0  0  0  0  0  0  0
   -1.7030   26.9950  -25.2410 F   0  0  0  0  0  0  0  0  0  0  0  0
   -1.0740   25.8850  -27.2550 C   0  0  0  0  0  0  0  0  0  0  0  0
   -1.3490   24.9380  -28.2460 C   0  0  0  0  0  0  0  0  0  0  0  0
   -5.4620   21.9280  -30.9660 N   0  0  0  0  0  0  0  0  0  0  0  0
   -5.6920   20.9090  -31.7800 N   0  0  0  0  0  0  0  0  0  0  0  0
   -6.9790   20.2760  -31.8830 C   0  0  0  0  0  0  0  0  0  0  0  0
   -7.1340   18.9040  -31.6170 C   0  0  0  0  0  0  0  0  0  0  0  0
   -8.3890   18.3000  -31.7330 C   0  0  0  0  0  0  0  0  0  0  0  0
   -9.4970   19.0560  -32.1270 C   0  0  0  0  0  0  0  0  0  0  0  0
   -9.3480   20.4160  -32.4140 C   0  0  0  0  0  0  0  0  0  0  0  0
   -8.0930   21.0230  -32.2980 C   0  0  0  0  0  0  0  0  0  0  0  0
   -4.5660   20.6270  -32.4800 C   0  0  0  0  0  0  0  0  0  0  0  0
   -4.3950   19.4890  -33.4090 C   0  0  0  0  0  0  0  0  0  0  0  0
   -5.4510   19.0910  -34.2460 C   0  0  0  0  0  0  0  0  0  0  0  0
   -5.2850   18.0190  -35.1290 C   0  0  0  0  0  0  0  0  0  0  0  0
   -4.0670   17.3360  -35.1790 C   0  0  0  0  0  0  0  0  0  0  0  0
   -3.0140   17.7230  -34.3470 C   0  0  0  0  0  0  0  0  0  0  0  0
   -3.1760   18.7950  -33.4630 C   0  0  0  0  0  0  0  0  0  0  0  0
   -1.4893   21.5101  -31.6222 H   0  0  0  0  0  0  0  0  0  0  0  0
   -1.9334   20.6126  -33.1135 H   0  0  0  0  0  0  0  0  0  0  0  0
   -1.9309   22.4089  -33.1135 H   0  0  0  0  0  0  0  0  0  0  0  0
   -2.2650   22.2980  -29.1690 H   0  0  0  0  0  0  0  0  0  0  0  0
   -4.3449   23.7739  -27.0689 H   0  0  0  0  0  0  0  0  0  0  0  0
   -3.8490   25.4692  -25.3059 H   0  0  0  0  0  0  0  0  0  0  0  0
   -0.1488   26.4781  -27.3035 H   0  0  0  0  0  0  0  0  0  0  0  0
   -0.6319   24.7809  -29.0652 H   0  0  0  0  0  0  0  0  0  0  0  0
   -6.2632   18.3031  -31.3161 H   0  0  0  0  0  0  0  0  0  0  0  0
   -8.5051   17.2283  -31.5140 H   0  0  0  0  0  0  0  0  0  0  0  0
  -10.4855   18.5809  -32.2111 H   0  0  0  0  0  0  0  0  0  0  0  0
  -10.2182   21.0093  -32.7313 H   0  0  0  0  0  0  0  0  0  0  0  0
   -7.9783   22.0914  -32.5332 H   0  0  0  0  0  0  0  0  0  0  0  0
   -6.4121   19.6246  -34.2067 H   0  0  0  0  0  0  0  0  0  0  0  0
   -6.1138   17.7134  -35.7845 H   0  0  0  0  0  0  0  0  0  0  0  0
   -3.9374   16.4932  -35.8739 H   0  0  0  0  0  0  0  0  0  0  0  0
   -2.0559   17.1840  -34.3869 H   0  0  0  0  0  0  0  0  0  0  0  0
   -2.3450   19.0953  -32.8077 H   0  0  0  0  0  0  0  0  0  0  0  0
  1  2  1  0
  2  3  1  0
  3  4  1  0
  4  5  2  0
  4  6  1  0
  6  7  1  0
  7  8  2  0
  8  9  1  0
  9 10  2  0
 10 11  1  0
 10 12  1  0
 12 13  2  0
  3 14  2  0
 14 15  1  0
 15 16  1  0
 16 17  2  0
 17 18  1  0
 18 19  2  0
 19 20  1  0
 20 21  2  0
 15 22  1  0
 22 23  1  0
 23 24  2  0
 24 25  1  0
 25 26  2  0
 26 27  1  0
 27 28  2  0
 22  2  2  0
 28 23  1  0
 13  7  1  0
 21 16  1  0
  1 29  1  0
  1 30  1  0
  1 31  1  0
  6 32  1  0
  8 33  1  0
  9 34  1  0
 12 35  1  0
 13 36  1  0
 17 37  1  0
 18 38  1  0
 19 39  1  0
 20 40  1  0
 21 41  1  0
 24 42  1  0
 25 43  1  0
 26 44  1  0
 27 45  1  0
 28 46  1  0
M  END
>  <UniqueID>  (30) 
29

>  <SMILES>  (30) 
Cc1c(C(=O)Nc2ccc(F)cc2)nn(-c2ccccc2)c1-c1ccccc1

>  <Energy>  (30) 
95.13528841104348

>  <Genealogy>  (30) 
Cc1c(C(=O)Nc2ccc(F)cc2)nn(-c2ccccc2)c1-c1ccccc1 (3D coordinates assigned)
Cc1c(C(=O)Nc2ccc(F)cc2)nn(-c2ccccc2)c1-c1ccccc1 (optimized conformer: 95.13528841104348 kcal/mol)

>  <smiles>  (30) 
Cc1c(C(=O)Nc2ccc(F)cc2)nn(-c2ccccc2)c1-c1ccccc1

>  <score_type>  (30) 
oracle

>  <origin>  (30) 
adgpu

>  <m_score__min__energy>  (30) 
-9.5399999999999991

>  <m_primary>  (30) 
energy

$$$$
30:0
     RDKit          3D

 23 24  0  0  0  0  0  0  0  0999 V2000
   -8.1880   18.3390  -31.9780 C   0  0  0  0  0  0  0  0  0  0  0  0
   -9.1080   19.3680  -31.7560 C   0  0  0  0  0  0  0  0  0  0  0  0
   -8.7390   20.6980  -31.9810 C   0  0  0  0  0  0  0  0  0  0  0  0
   -7.4370   21.0100  -32.4150 C   0  0  0  0  0  0  0  0  0  0  0  0
   -7.0430   22.3670  -32.6810 N   0  0  0  0  0  0  0  0  0  0  0  0
   -6.3950   23.2270  -31.7280 C   0  0  0  0  0  0  0  0  0  0  0  0
   -7.1650   23.9420  -30.8020 C   0  0  0  0  0  0  0  0  0  0  0  0
   -6.5470   24.8020  -29.8920 C   0  0  0  0  0  0  0  0  0  0  0  0
   -5.1600   24.9510  -29.9260 C   0  0  0  0  0  0  0  0  0  0  0  0
   -4.4250   24.2710  -30.8470 N   0  0  0  0  0  0  0  0  0  0  0  0
   -5.0030   23.4260  -31.7410 C   0  0  0  0  0  0  0  0  0  0  0  0
   -6.5290   19.9680  -32.6570 C   0  0  0  0  0  0  0  0  0  0  0  0
   -6.9010   18.6380  -32.4320 C   0  0  0  0  0  0  0  0  0  0  0  0
   -8.4775   17.2937  -31.7952 H   0  0  0  0  0  0  0  0  0  0  0  0
  -10.1229   19.1313  -31.4041 H   0  0  0  0  0  0  0  0  0  0  0  0
   -9.4697   21.5040  -31.8180 H   0  0  0  0  0  0  0  0  0  0  0  0
   -7.2380   22.7540  -33.6330 H   0  0  0  0  0  0  0  0  0  0  0  0
   -8.2588   23.8258  -30.7916 H   0  0  0  0  0  0  0  0  0  0  0  0
   -7.1474   25.3564  -29.1558 H   0  0  0  0  0  0  0  0  0  0  0  0
   -4.6608   25.6184  -29.2080 H   0  0  0  0  0  0  0  0  0  0  0  0
   -4.3801   22.8963  -32.4768 H   0  0  0  0  0  0  0  0  0  0  0  0
   -5.5185   20.1981  -33.0259 H   0  0  0  0  0  0  0  0  0  0  0  0
   -6.1797   17.8274  -32.6127 H   0  0  0  0  0  0  0  0  0  0  0  0
  1  2  2  0
  2  3  1  0
  3  4  2  0
  4  5  1  0
  5  6  1  0
  6  7  2  0
  7  8  1  0
  8  9  2  0
  9 10  1  0
 10 11  2  0
  4 12  1  0
 12 13  2  0
 13  1  1  0
 11  6  1  0
  1 14  1  0
  2 15  1  0
  3 16  1  0
  5 17  1  0
  7 18  1  0
  8 19  1  0
  9 20  1  0
 11 21  1  0
 12 22  1  0
 13 23  1  0
M  END
>  <UniqueID>  (31) 
30

>  <SMILES>  (31) 
c1ccc(Nc2cccnc2)cc1

>  <Energy>  (31) 
29.96892744701102

>  <Genealogy>  (31) 
c1ccc(Nc2cccnc2)cc1 (3D coordinates assigned)
c1ccc(Nc2cccnc2)cc1 (optimized conformer: 29.96892744701102 kcal/mol)

>  <smiles>  (31) 
c1ccc(Nc2cccnc2)cc1

>  <score_type>  (31) 
oracle

>  <origin>  (31) 
adgpu

>  <m_score__min__energy>  (31) 
-6.29

>  <m_primary>  (31) 
energy

$$$$
31:0
     RDKit          3D

 27 28  0  0  0  0  0  0  0  0999 V2000
    0.0590   24.8260  -28.2070 O   0  0  0  0  0  0  0  0  0  0  0  0
   -1.0450   24.4040  -28.6380 C   0  0  0  0  0  0  0  0  0  0  0  0
   -1.4110   23.1200  -28.4050 N   0  0  0  0  0  0  0  0  0  0  0  0
   -2.5940   22.6290  -28.8530 C   0  0  0  0  0  0  0  0  0  0  0  0
   -2.8860   21.4280  -28.6090 O   0  0  0  0  0  0  0  0  0  0  0  0
   -3.4760   23.4590  -29.5790 C   0  0  0  0  0  0  0  0  0  0  0  0
   -4.8150   22.9270  -30.0880 C   0  0  0  0  0  0  0  0  0  0  0  0
   -4.7740   22.5960  -31.6040 C   0  0  0  0  0  0  0  0  0  0  0  0
   -6.1490   22.7190  -32.2890 C   0  0  0  0  0  0  0  0  0  0  0  0
   -7.2890   22.3310  -31.3410 C   0  0  0  0  0  0  0  0  0  0  0  0
   -7.3450   23.2490  -30.1010 C   0  0  0  0  0  0  0  0  0  0  0  0
   -5.9820   23.8720  -29.7320 C   0  0  0  0  0  0  0  0  0  0  0  0
   -3.0650   24.7910  -29.8090 C   0  0  0  0  0  0  0  0  0  0  0  0
   -3.8670   25.6740  -30.5230 O   0  0  0  0  0  0  0  0  0  0  0  0
   -1.8680   25.2290  -29.3340 N   0  0  0  0  0  0  0  0  0  0  0  0
   -5.0010   21.9781  -29.5637 H   0  0  0  0  0  0  0  0  0  0  0  0
   -4.0755   23.2898  -32.0947 H   0  0  0  0  0  0  0  0  0  0  0  0
   -4.4524   21.5486  -31.7016 H   0  0  0  0  0  0  0  0  0  0  0  0
   -6.2939   23.7598  -32.6142 H   0  0  0  0  0  0  0  0  0  0  0  0
   -6.1677   22.0324  -33.1482 H   0  0  0  0  0  0  0  0  0  0  0  0
   -8.2433   22.4068  -31.8828 H   0  0  0  0  0  0  0  0  0  0  0  0
   -7.1095   21.3022  -30.9954 H   0  0  0  0  0  0  0  0  0  0  0  0
   -8.0564   24.0633  -30.3029 H   0  0  0  0  0  0  0  0  0  0  0  0
   -7.6551   22.6241  -29.2505 H   0  0  0  0  0  0  0  0  0  0  0  0
   -5.8590   24.8158  -30.2835 H   0  0  0  0  0  0  0  0  0  0  0  0
   -5.9651   24.0486  -28.6464 H   0  0  0  0  0  0  0  0  0  0  0  0
   -1.5780   26.2180  -29.5120 H   0  0  0  0  0  0  0  0  0  0  0  0
  1  2  2  0
  2  3  1  0
  3  4  1  0
  4  5  2  0
  4  6  1  0
  6  7  1  0
  7  8  1  0
  8  9  1  0
  9 10  1  0
 10 11  1  0
 11 12  1  0
  6 13  2  0
 13 14  1  0
 13 15  1  0
 15  2  1  0
 12  7  1  0
  7 16  1  0
  8 17  1  0
  8 18  1  0
  9 19  1  0
  9 20  1  0
 10 21  1  0
 10 22  1  0
 11 23  1  0
 11 24  1  0
 12 25  1  0
 12 26  1  0
 15 27  1  0
M  CHG  2   3  -1  14  -1
M  END
>  <UniqueID>  (32) 
31

>  <SMILES>  (32) 
O=c1[n-]c(=O)c(C2CCCCC2)c([O-])[nH]1

>  <Energy>  (32) 
33.19881381088733

>  <Genealogy>  (32) 
O=c1[n-]c(=O)c(C2CCCCC2)c([O-])[nH]1 (protonated)
O=c1[n-]c(=O)c(C2CCCCC2)c([O-])[nH]1 (3D coordinates assigned)
O=c1[n-]c(=O)c(C2CCCCC2)c([O-])[nH]1 (nonaromatic ring conformer: 33.19881381088733 kcal/mol)

>  <smiles>  (32) 
O=c1[nH]c(O)c(C2CCCCC2)c(=O)[nH]1

>  <score_type>  (32) 
oracle

>  <origin>  (32) 
adgpu

>  <m_score__min__energy>  (32) 
-10.609999999999999

>  <m_primary>  (32) 
energy

$$$$
32:0
     RDKit          3D

 32 33  0  0  0  0  0  0  0  0999 V2000
   -9.4420   22.5340  -31.9150 C   0  0  0  0  0  0  0  0  0  0  0  0
   -8.7030   21.6100  -30.9520 C   0  0  0  0  0  0  0  0  0  0  0  0
   -7.8410   20.6240  -31.7070 C   0  0  0  0  0  0  0  0  0  0  0  0
   -8.4050   19.3980  -32.0980 C   0  0  0  0  0  0  0  0  0  0  0  0
   -7.6300   18.4270  -32.7340 C   0  0  0  0  0  0  0  0  0  0  0  0
   -6.2740   18.6480  -32.9810 C   0  0  0  0  0  0  0  0  0  0  0  0
   -5.5400   17.6370  -33.6180 O   0  0  0  0  0  0  0  0  0  0  0  0
   -5.0130   17.7350  -34.9370 C   0  0  0  0  0  0  0  0  0  0  0  0
   -5.6930   19.8650  -32.5840 C   0  0  0  0  0  0  0  0  0  0  0  0
   -6.4640   20.8560  -31.9530 C   0  0  0  0  0  0  0  0  0  0  0  0
   -5.8000   22.1130  -31.5540 C   0  0  0  0  0  0  0  0  0  0  0  0
   -6.3600   23.3530  -31.8980 C   0  0  0  0  0  0  0  0  0  0  0  0
   -5.7160   24.5400  -31.5340 C   0  0  0  0  0  0  0  0  0  0  0  0
   -4.5070   24.4960  -30.8340 C   0  0  0  0  0  0  0  0  0  0  0  0
   -3.8690   25.6760  -30.4720 O   0  0  0  0  0  0  0  0  0  0  0  0
   -3.9370   23.2620  -30.5010 C   0  0  0  0  0  0  0  0  0  0  0  0
   -4.5780   22.0730  -30.8640 C   0  0  0  0  0  0  0  0  0  0  0  0
  -10.0285   23.2673  -31.3421 H   0  0  0  0  0  0  0  0  0  0  0  0
   -8.7138   23.0614  -32.5486 H   0  0  0  0  0  0  0  0  0  0  0  0
  -10.1166   21.9395  -32.5486 H   0  0  0  0  0  0  0  0  0  0  0  0
   -8.0646   22.2145  -30.2910 H   0  0  0  0  0  0  0  0  0  0  0  0
   -9.4442   21.0504  -30.3626 H   0  0  0  0  0  0  0  0  0  0  0  0
   -9.4691   19.2013  -31.9007 H   0  0  0  0  0  0  0  0  0  0  0  0
   -8.0923   17.4781  -33.0437 H   0  0  0  0  0  0  0  0  0  0  0  0
   -3.9327   17.9359  -34.8862 H   0  0  0  0  0  0  0  0  0  0  0  0
   -5.1854   16.7894  -35.4719 H   0  0  0  0  0  0  0  0  0  0  0  0
   -5.5138   18.5554  -35.4719 H   0  0  0  0  0  0  0  0  0  0  0  0
   -4.6235   20.0434  -32.7693 H   0  0  0  0  0  0  0  0  0  0  0  0
   -7.3076   23.3915  -32.4552 H   0  0  0  0  0  0  0  0  0  0  0  0
   -6.1618   25.5100  -31.7991 H   0  0  0  0  0  0  0  0  0  0  0  0
   -2.9838   23.2271  -29.9532 H   0  0  0  0  0  0  0  0  0  0  0  0
   -4.1236   21.1044  -30.6083 H   0  0  0  0  0  0  0  0  0  0  0  0
  1  2  1  0
  2  3  1  0
  3  4  2  0
  4  5  1  0
  5  6  2  0
  6  7  1  0
  7  8  1  0
  6  9  1  0
  9 10  2  0
 10 11  1  0
 11 12  2  0
 12 13  1  0
 13 14  2  0
 14 15  1  0
 14 16  1  0
 16 17  2  0
 10  3  1  0
 17 11  1  0
  1 18  1  0
  1 19  1  0
  1 20  1  0
  2 21  1  0
  2 22  1  0
  4 23  1  0
  5 24  1  0
  8 25  1  0
  8 26  1  0
  8 27  1  0
  9 28  1  0
 12 29  1  0
 13 30  1  0
 16 31  1  0
 17 32  1  0
M  CHG  1  15  -1
M  END
>  <UniqueID>  (33) 
32

>  <SMILES>  (33) 
CCc1ccc(OC)cc1-c1ccc([O-])cc1

>  <Energy>  (33) 
36.85652682311175

>  <Genealogy>  (33) 
CCc1ccc(OC)cc1-c1ccc([O-])cc1 (protonated)
CCc1ccc(OC)cc1-c1ccc([O-])cc1 (3D coordinates assigned)
CCc1ccc(OC)cc1-c1ccc([O-])cc1 (optimized conformer: 36.85652682311175 kcal/mol)

>  <smiles>  (33) 
CCc1ccc(OC)cc1-c1ccc(O)cc1

>  <score_type>  (33) 
oracle

>  <origin>  (33) 
adgpu

>  <m_score__min__energy>  (33) 
-10.06

>  <m_primary>  (33) 
energy

$$$$
33:0
     RDKit          3D

 40 42  0  0  0  0  0  0  0  0999 V2000
   -9.4710   20.5900  -32.3230 C   0  0  0  0  0  0  0  0  0  0  0  0
   -8.5670   21.3970  -31.6280 C   0  0  0  0  0  0  0  0  0  0  0  0
   -7.2880   20.9190  -31.3270 C   0  0  0  0  0  0  0  0  0  0  0  0
   -6.9040   19.6250  -31.7210 C   0  0  0  0  0  0  0  0  0  0  0  0
   -5.5200   19.1030  -31.4050 C   0  0  0  0  0  0  0  0  0  0  0  0
   -4.5560   19.3690  -32.5050 N   0  0  0  0  0  0  0  0  0  0  0  0
   -5.0420   20.4270  -33.4400 C   0  0  0  0  0  0  0  0  0  0  0  0
   -4.4620   21.8270  -33.1600 C   0  0  0  0  0  0  0  0  0  0  0  0
   -4.1120   21.9650  -31.7440 N   0  0  0  0  0  0  0  0  0  0  0  0
   -4.6710   23.0160  -30.9330 C   0  0  0  0  0  0  0  0  0  0  0  0
   -4.1920   23.2450  -29.6310 C   0  0  0  0  0  0  0  0  0  0  0  0
   -4.7230   24.2780  -28.8540 C   0  0  0  0  0  0  0  0  0  0  0  0
   -5.7320   25.0950  -29.3700 C   0  0  0  0  0  0  0  0  0  0  0  0
   -6.2080   24.8830  -30.6660 C   0  0  0  0  0  0  0  0  0  0  0  0
   -5.6790   23.8520  -31.4480 C   0  0  0  0  0  0  0  0  0  0  0  0
   -3.1990   20.9810  -31.1540 C   0  0  0  0  0  0  0  0  0  0  0  0
   -3.2080   19.6780  -31.9730 C   0  0  0  0  0  0  0  0  0  0  0  0
   -7.8210   18.8190  -32.4160 C   0  0  0  0  0  0  0  0  0  0  0  0
   -9.0990   19.3010  -32.7160 C   0  0  0  0  0  0  0  0  0  0  0  0
  -10.4759   20.9689  -32.5611 H   0  0  0  0  0  0  0  0  0  0  0  0
   -8.8619   22.4101  -31.3171 H   0  0  0  0  0  0  0  0  0  0  0  0
   -6.5793   21.5579  -30.7797 H   0  0  0  0  0  0  0  0  0  0  0  0
   -5.1570   19.5927  -30.4894 H   0  0  0  0  0  0  0  0  0  0  0  0
   -5.5914   18.0132  -31.2740 H   0  0  0  0  0  0  0  0  0  0  0  0
   -4.4510   18.4840  -33.0580 H   0  0  0  0  0  0  0  0  0  0  0  0
   -4.7654   20.1367  -34.4643 H   0  0  0  0  0  0  0  0  0  0  0  0
   -6.1305   20.5000  -33.2992 H   0  0  0  0  0  0  0  0  0  0  0  0
   -3.5596   21.9737  -33.7717 H   0  0  0  0  0  0  0  0  0  0  0  0
   -5.2199   22.5827  -33.4138 H   0  0  0  0  0  0  0  0  0  0  0  0
   -3.3946   22.6073  -29.2217 H   0  0  0  0  0  0  0  0  0  0  0  0
   -4.3460   24.4481  -27.8347 H   0  0  0  0  0  0  0  0  0  0  0  0
   -6.1516   25.9053  -28.7557 H   0  0  0  0  0  0  0  0  0  0  0  0
   -7.0007   25.5286  -31.0721 H   0  0  0  0  0  0  0  0  0  0  0  0
   -6.0524   23.6935  -32.4705 H   0  0  0  0  0  0  0  0  0  0  0  0
   -2.1797   21.3943  -31.1426 H   0  0  0  0  0  0  0  0  0  0  0  0
   -3.5298   20.7589  -30.1287 H   0  0  0  0  0  0  0  0  0  0  0  0
   -2.5086   19.7827  -32.8155 H   0  0  0  0  0  0  0  0  0  0  0  0
   -2.9072   18.8552  -31.3078 H   0  0  0  0  0  0  0  0  0  0  0  0
   -7.5323   17.8038  -32.7257 H   0  0  0  0  0  0  0  0  0  0  0  0
   -9.8120   18.6655  -33.2616 H   0  0  0  0  0  0  0  0  0  0  0  0
  1  2  2  0
  2  3  1  0
  3  4  2  0
  4  5  1  0
  5  6  1  0
  6  7  1  0
  7  8  1  0
  8  9  1  0
  9 10  1  0
 10 11  2  0
 11 12  1  0
 12 13  2  0
 13 14  1  0
 14 15  2  0
  9 16  1  0
 16 17  1  0
  4 18  1  0
 18 19  2  0
 19  1  1  0
 17  6  1  0
 15 10  1  0
  1 20  1  0
  2 21  1  0
  3 22  1  0
  5 23  1  0
  5 24  1  0
  6 25  1  0
  7 26  1  0
  7 27  1  0
  8 28  1  0
  8 29  1  0
 11 30  1  0
 12 31  1  0
 13 32  1  0
 14 33  1  0
 15 34  1  0
 16 35  1  0
 16 36  1  0
 17 37  1  0
 17 38  1  0
 18 39  1  0
 19 40  1  0
M  CHG  1   6   1
M  END
>  <UniqueID>  (34) 
33

>  <SMILES>  (34) 
c1ccc(C[NH+]2CCN(c3ccccc3)CC2)cc1

>  <Energy>  (34) 
54.19605433493381

>  <Genealogy>  (34) 
c1ccc(C[NH+]2CCN(c3ccccc3)CC2)cc1 (protonated)
c1ccc(C[NH+]2CCN(c3ccccc3)CC2)cc1 (3D coordinates assigned)
c1ccc(C[NH+]2CCN(c3ccccc3)CC2)cc1 (nonaromatic ring conformer: 54.19605433493381 kcal/mol)

>  <smiles>  (34) 
c1ccc(CN2CCN(c3ccccc3)CC2)cc1

>  <score_type>  (34) 
oracle

>  <origin>  (34) 
adgpu

>  <m_score__min__energy>  (34) 
-6.1799999999999997

>  <m_primary>  (34) 
energy

$$$$
34:0
     RDKit          3D

 49 51  0  0  0  0  0  0  0  0999 V2000
   -5.0210   17.8700  -34.9180 C   0  0  0  0  0  0  0  0  0  0  0  0
   -5.9720   18.2510  -33.8290 C   0  0  0  0  0  0  0  0  0  0  0  0
   -6.9200   17.3380  -33.3560 C   0  0  0  0  0  0  0  0  0  0  0  0
   -7.7690   17.7130  -32.3660 N   0  0  0  0  0  0  0  0  0  0  0  0
   -7.7250   18.9600  -31.8280 C   0  0  0  0  0  0  0  0  0  0  0  0
   -6.7840   19.8900  -32.3060 C   0  0  0  0  0  0  0  0  0  0  0  0
   -6.6860   21.2660  -31.7550 C   0  0  0  0  0  0  0  0  0  0  0  0
   -7.7890   22.1360  -31.7590 C   0  0  0  0  0  0  0  0  0  0  0  0
   -7.6720   23.4300  -31.2520 C   0  0  0  0  0  0  0  0  0  0  0  0
   -6.4510   23.8930  -30.7380 C   0  0  0  0  0  0  0  0  0  0  0  0
   -6.3700   25.3000  -30.2040 C   0  0  0  0  0  0  0  0  0  0  0  0
   -5.3340   23.0260  -30.7240 C   0  0  0  0  0  0  0  0  0  0  0  0
   -3.7560   23.5460  -30.1000 S   0  0  0  0  0  0  0  0  0  0  0  0
   -2.6760   22.6960  -30.7030 O   0  0  0  0  0  0  0  0  0  0  0  0
   -3.4930   24.9780  -30.4780 O   0  0  0  0  0  0  0  0  0  0  0  0
   -3.7070   23.3980  -28.3710 N   0  0  0  0  0  0  0  0  0  0  0  0
   -2.3800   23.7620  -27.8760 C   0  0  0  0  0  0  0  0  0  0  0  0
   -1.4910   22.5080  -27.7370 C   0  0  0  0  0  0  0  0  0  0  0  0
   -2.0990   21.2350  -28.2050 N   0  0  0  0  0  0  0  0  0  0  0  0
   -1.1450   20.3120  -28.8420 C   0  0  0  0  0  0  0  0  0  0  0  0
   -0.8120   19.2250  -27.8360 C   0  0  0  0  0  0  0  0  0  0  0  0
   -1.9660   19.2150  -26.8520 C   0  0  0  0  0  0  0  0  0  0  0  0
   -2.7780   20.4780  -27.1350 C   0  0  0  0  0  0  0  0  0  0  0  0
   -5.4610   21.7270  -31.2420 C   0  0  0  0  0  0  0  0  0  0  0  0
   -5.9300   19.4990  -33.2920 N   0  0  0  0  0  0  0  0  0  0  0  0
   -4.0866   17.4956  -34.4744 H   0  0  0  0  0  0  0  0  0  0  0  0
   -5.4724   17.0833  -35.5404 H   0  0  0  0  0  0  0  0  0  0  0  0
   -4.8044   18.7507  -35.5404 H   0  0  0  0  0  0  0  0  0  0  0  0
   -6.9769   16.3256  -33.7824 H   0  0  0  0  0  0  0  0  0  0  0  0
   -8.4209   19.2405  -31.0236 H   0  0  0  0  0  0  0  0  0  0  0  0
   -8.7524   21.7940  -32.1651 H   0  0  0  0  0  0  0  0  0  0  0  0
   -8.5476   24.0959  -31.2551 H   0  0  0  0  0  0  0  0  0  0  0  0
   -6.3714   25.2755  -29.1043 H   0  0  0  0  0  0  0  0  0  0  0  0
   -5.4431   25.7741  -30.5590 H   0  0  0  0  0  0  0  0  0  0  0  0
   -7.2364   25.8774  -30.5590 H   0  0  0  0  0  0  0  0  0  0  0  0
   -1.9100   24.4622  -28.5822 H   0  0  0  0  0  0  0  0  0  0  0  0
   -2.4864   24.2334  -26.8878 H   0  0  0  0  0  0  0  0  0  0  0  0
   -0.5725   22.6781  -28.3179 H   0  0  0  0  0  0  0  0  0  0  0  0
   -1.3175   22.3801  -26.6583 H   0  0  0  0  0  0  0  0  0  0  0  0
   -2.8170   21.4990  -28.9210 H   0  0  0  0  0  0  0  0  0  0  0  0
   -1.5980   19.8657  -29.7395 H   0  0  0  0  0  0  0  0  0  0  0  0
   -0.2338   20.8486  -29.1449 H   0  0  0  0  0  0  0  0  0  0  0  0
   -0.7266   18.2499  -28.3380 H   0  0  0  0  0  0  0  0  0  0  0  0
    0.1491   19.4134  -27.3353 H   0  0  0  0  0  0  0  0  0  0  0  0
   -2.5878   18.3202  -27.0025 H   0  0  0  0  0  0  0  0  0  0  0  0
   -1.6065   19.1939  -25.8126 H   0  0  0  0  0  0  0  0  0  0  0  0
   -3.7923   20.2031  -27.4599 H   0  0  0  0  0  0  0  0  0  0  0  0
   -2.8535   21.0920  -26.2254 H   0  0  0  0  0  0  0  0  0  0  0  0
   -4.5872   21.0588  -31.2464 H   0  0  0  0  0  0  0  0  0  0  0  0
  1  2  1  0
  2  3  2  0
  3  4  1  0
  4  5  2  0
  5  6  1  0
  6  7  1  0
  7  8  2  0
  8  9  1  0
  9 10  2  0
 10 11  1  0
 10 12  1  0
 12 13  1  0
 13 14  2  0
 13 15  2  0
 13 16  1  0
 16 17  1  0
 17 18  1  0
 18 19  1  0
 19 20  1  0
 20 21  1  0
 21 22  1  0
 22 23  1  0
 12 24  2  0
  6 25  2  0
 25  2  1  0
 24  7  1  0
 23 19  1  0
  1 26  1  0
  1 27  1  0
  1 28  1  0
  3 29  1  0
  5 30  1  0
  8 31  1  0
  9 32  1  0
 11 33  1  0
 11 34  1  0
 11 35  1  0
 17 36  1  0
 17 37  1  0
 18 38  1  0
 18 39  1  0
 19 40  1  0
 20 41  1  0
 20 42  1  0
 21 43  1  0
 21 44  1  0
 22 45  1  0
 22 46  1  0
 23 47  1  0
 23 48  1  0
 24 49  1  0
M  CHG  2  16  -1  19   1
M  END
>  <UniqueID>  (35) 
34

>  <SMILES>  (35) 
Cc1cncc(-c2ccc(C)c(S(=O)(=O)[N-]CC[NH+]3CCCC3)c2)n1

>  <Energy>  (35) 
59.471969511385815

>  <Genealogy>  (35) 
Cc1cncc(-c2ccc(C)c(S(=O)(=O)[N-]CC[NH+]3CCCC3)c2)n1 (protonated)
Cc1cncc(-c2ccc(C)c(S(=O)(=O)[N-]CC[NH+]3CCCC3)c2)n1 (3D coordinates assigned)
Cc1cncc(-c2ccc(C)c(S(=O)(=O)[N-]CC[NH+]3CCCC3)c2)n1 (nonaromatic ring conformer: 59.471969511385815 kcal/mol)

>  <smiles>  (35) 
Cc1cncc(-c2ccc(C)c(S(=O)(=O)NCCN3CCCC3)c2)n1

>  <score_type>  (35) 
oracle

>  <origin>  (35) 
adgpu

>  <m_score__min__energy>  (35) 
-8.8699999999999992

>  <m_primary>  (35) 
energy

$$$$
35:0
     RDKit          3D

 23 24  0  0  0  0  0  0  0  0999 V2000
   -2.3440   21.8620  -27.1880 O   0  0  0  0  0  0  0  0  0  0  0  0
   -2.1090   22.9040  -27.8530 C   0  0  0  0  0  0  0  0  0  0  0  0
   -3.0490   23.3820  -28.7660 C   0  0  0  0  0  0  0  0  0  0  0  0
   -2.7500   24.5420  -29.4970 C   0  0  0  0  0  0  0  0  0  0  0  0
   -3.6910   25.0980  -30.4330 N   0  0  0  0  0  0  0  0  0  0  0  0
   -4.9290   24.4710  -30.8050 C   0  0  0  0  0  0  0  0  0  0  0  0
   -4.9010   23.3190  -31.6050 C   0  0  0  0  0  0  0  0  0  0  0  0
   -6.0890   22.6790  -31.9670 C   0  0  0  0  0  0  0  0  0  0  0  0
   -7.3170   23.1740  -31.5170 C   0  0  0  0  0  0  0  0  0  0  0  0
   -8.8080   22.3690  -31.9680 Cl  0  0  0  0  0  0  0  0  0  0  0  0
   -7.3540   24.3060  -30.6950 C   0  0  0  0  0  0  0  0  0  0  0  0
   -6.1660   24.9500  -30.3310 C   0  0  0  0  0  0  0  0  0  0  0  0
   -6.2220   26.0120  -29.4900 F   0  0  0  0  0  0  0  0  0  0  0  0
   -1.5680   25.1830  -29.2730 N   0  0  0  0  0  0  0  0  0  0  0  0
   -0.6640   24.6980  -28.3780 C   0  0  0  0  0  0  0  0  0  0  0  0
    0.4270   25.2980  -28.1930 O   0  0  0  0  0  0  0  0  0  0  0  0
   -0.9380   23.5670  -27.6780 N   0  0  0  0  0  0  0  0  0  0  0  0
   -4.0063   22.8597  -28.9102 H   0  0  0  0  0  0  0  0  0  0  0  0
   -3.4860   26.0440  -30.8250 H   0  0  0  0  0  0  0  0  0  0  0  0
   -3.9370   22.9167  -31.9497 H   0  0  0  0  0  0  0  0  0  0  0  0
   -6.0583   21.7847  -32.6067 H   0  0  0  0  0  0  0  0  0  0  0  0
   -8.3193   24.6906  -30.3341 H   0  0  0  0  0  0  0  0  0  0  0  0
   -1.3470   26.0570  -29.8040 H   0  0  0  0  0  0  0  0  0  0  0  0
  1  2  2  0
  2  3  1  0
  3  4  2  0
  4  5  1  0
  5  6  1  0
  6  7  2  0
  7  8  1  0
  8  9  2  0
  9 10  1  0
  9 11  1  0
 11 12  2  0
 12 13  1  0
  4 14  1  0
 14 15  1  0
 15 16  2  0
 15 17  1  0
 17  2  1  0
 12  6  1  0
  3 18  1  0
  5 19  1  0
  7 20  1  0
  8 21  1  0
 11 22  1  0
 14 23  1  0
M  CHG  1  17  -1
M  END
>  <UniqueID>  (36) 
35

>  <SMILES>  (36) 
O=c1cc(Nc2ccc(Cl)cc2F)[nH]c(=O)[n-]1

>  <Energy>  (36) 
30.94062175141632

>  <Genealogy>  (36) 
O=c1cc(Nc2ccc(Cl)cc2F)[nH]c(=O)[n-]1 (protonated)
O=c1cc(Nc2ccc(Cl)cc2F)[nH]c(=O)[n-]1 (3D coordinates assigned)
O=c1cc(Nc2ccc(Cl)cc2F)[nH]c(=O)[n-]1 (optimized conformer: 30.94062175141632 kcal/mol)

>  <smiles>  (36) 
O=c1cc(Nc2ccc(Cl)cc2F)[nH]c(=O)[nH]1

>  <score_type>  (36) 
oracle

>  <origin>  (36) 
adgpu

>  <m_score__min__energy>  (36) 
-7.8899999999999997

>  <m_primary>  (36) 
energy

$$$$
36:0
     RDKit          3D

 37 39  0  0  0  0  0  0  0  0999 V2000
   -1.5630   25.6890  -28.9210 O   0  0  0  0  0  0  0  0  0  0  0  0
   -2.2240   24.6990  -29.3340 C   0  0  0  0  0  0  0  0  0  0  0  0
   -3.1990   24.9170  -30.3630 N   0  0  0  0  0  0  0  0  0  0  0  0
   -4.5570   24.4530  -30.3940 C   0  0  0  0  0  0  0  0  0  0  0  0
   -5.5450   25.3200  -29.9080 C   0  0  0  0  0  0  0  0  0  0  0  0
   -6.8770   24.9140  -29.8400 C   0  0  0  0  0  0  0  0  0  0  0  0
   -7.2390   23.6420  -30.2760 C   0  0  0  0  0  0  0  0  0  0  0  0
   -6.2750   22.7800  -30.8010 C   0  0  0  0  0  0  0  0  0  0  0  0
   -4.9240   23.1740  -30.8850 C   0  0  0  0  0  0  0  0  0  0  0  0
   -3.9750   22.3130  -31.5470 N   0  0  0  0  0  0  0  0  0  0  0  0
   -3.8760   22.2190  -32.9970 C   0  0  0  0  0  0  0  0  0  0  0  0
   -3.1210   20.9260  -33.2800 C   0  0  0  0  0  0  0  0  0  0  0  0
   -2.4800   20.5160  -31.9590 C   0  0  0  0  0  0  0  0  0  0  0  0
   -3.2730   21.2290  -30.8750 C   0  0  0  0  0  0  0  0  0  0  0  0
   -1.9940   23.3710  -28.7150 C   0  0  0  0  0  0  0  0  0  0  0  0
   -0.9430   22.5480  -29.1680 C   0  0  0  0  0  0  0  0  0  0  0  0
   -0.1660   22.9230  -30.2160 F   0  0  0  0  0  0  0  0  0  0  0  0
   -0.7180   21.3010  -28.5800 C   0  0  0  0  0  0  0  0  0  0  0  0
   -1.5480   20.8470  -27.5550 C   0  0  0  0  0  0  0  0  0  0  0  0
   -2.6170   21.6330  -27.1220 C   0  0  0  0  0  0  0  0  0  0  0  0
   -2.8520   22.8860  -27.6990 C   0  0  0  0  0  0  0  0  0  0  0  0
   -4.2170   23.8260  -27.0970 Cl  0  0  0  0  0  0  0  0  0  0  0  0
   -5.2666   26.3313  -29.5768 H   0  0  0  0  0  0  0  0  0  0  0  0
   -7.6413   25.5978  -29.4423 H   0  0  0  0  0  0  0  0  0  0  0  0
   -8.2872   23.3158  -30.2065 H   0  0  0  0  0  0  0  0  0  0  0  0
   -6.5729   21.7815  -31.1534 H   0  0  0  0  0  0  0  0  0  0  0  0
   -4.8788   22.1832  -33.4477 H   0  0  0  0  0  0  0  0  0  0  0  0
   -3.3590   23.0909  -33.4243 H   0  0  0  0  0  0  0  0  0  0  0  0
   -3.8151   20.1461  -33.6263 H   0  0  0  0  0  0  0  0  0  0  0  0
   -2.3663   21.0644  -34.0682 H   0  0  0  0  0  0  0  0  0  0  0  0
   -2.5423   19.4260  -31.8250 H   0  0  0  0  0  0  0  0  0  0  0  0
   -1.4142   20.7861  -31.9250 H   0  0  0  0  0  0  0  0  0  0  0  0
   -3.9910   20.5385  -30.4084 H   0  0  0  0  0  0  0  0  0  0  0  0
   -2.6186   21.6045  -30.0746 H   0  0  0  0  0  0  0  0  0  0  0  0
    0.1171   20.6746  -28.9267 H   0  0  0  0  0  0  0  0  0  0  0  0
   -1.3600   19.8691  -27.0877 H   0  0  0  0  0  0  0  0  0  0  0  0
   -3.2781   21.2657  -26.3232 H   0  0  0  0  0  0  0  0  0  0  0  0
  1  2  2  0
  2  3  1  0
  3  4  1  0
  4  5  2  0
  5  6  1  0
  6  7  2  0
  7  8  1  0
  8  9  2  0
  9 10  1  0
 10 11  1  0
 11 12  1  0
 12 13  1  0
 13 14  1  0
  2 15  1  0
 15 16  2  0
 16 17  1  0
 16 18  1  0
 18 19  2  0
 19 20  1  0
 20 21  2  0
 21 22  1  0
  9  4  1  0
 14 10  1  0
 21 15  1  0
  5 23  1  0
  6 24  1  0
  7 25  1  0
  8 26  1  0
 11 27  1  0
 11 28  1  0
 12 29  1  0
 12 30  1  0
 13 31  1  0
 13 32  1  0
 14 33  1  0
 14 34  1  0
 18 35  1  0
 19 36  1  0
 20 37  1  0
M  CHG  1   3  -1
M  END
>  <UniqueID>  (37) 
36

>  <SMILES>  (37) 
O=C([N-]c1ccccc1N1CCCC1)c1c(F)cccc1Cl

>  <Energy>  (37) 
53.79270510811286

>  <Genealogy>  (37) 
O=C([N-]c1ccccc1N1CCCC1)c1c(F)cccc1Cl (protonated)
O=C([N-]c1ccccc1N1CCCC1)c1c(F)cccc1Cl (3D coordinates assigned)
O=C([N-]c1ccccc1N1CCCC1)c1c(F)cccc1Cl (nonaromatic ring conformer: 53.79270510811286 kcal/mol)

>  <smiles>  (37) 
O=C(Nc1ccccc1N1CCCC1)c1c(F)cccc1Cl

>  <score_type>  (37) 
oracle

>  <origin>  (37) 
adgpu

>  <m_score__min__energy>  (37) 
-8.7400000000000002

>  <m_primary>  (37) 
energy

$$$$
37:0
     RDKit          3D

 28 29  0  0  0  0  0  0  0  0999 V2000
   -5.6690   15.4980  -34.1900 C   0  0  0  0  0  0  0  0  0  0  0  0
   -5.7990   16.8650  -33.5850 C   0  0  0  0  0  0  0  0  0  0  0  0
   -5.7210   18.0070  -34.3970 C   0  0  0  0  0  0  0  0  0  0  0  0
   -5.8790   19.2800  -33.8410 C   0  0  0  0  0  0  0  0  0  0  0  0
   -6.1190   19.4290  -32.4630 C   0  0  0  0  0  0  0  0  0  0  0  0
   -6.3100   20.7250  -31.8700 N   0  0  0  0  0  0  0  0  0  0  0  0
   -7.4990   21.1230  -31.1690 C   0  0  0  0  0  0  0  0  0  0  0  0
   -8.5490   20.4280  -31.2370 O   0  0  0  0  0  0  0  0  0  0  0  0
   -7.5290   22.4220  -30.4300 C   0  0  0  0  0  0  0  0  0  0  0  0
   -7.4150   23.7970  -31.6180 S   0  0  0  0  0  0  0  0  0  0  0  0
   -5.7260   24.1890  -31.1780 C   0  0  0  0  0  0  0  0  0  0  0  0
   -5.2710   25.3610  -30.6300 C   0  0  0  0  0  0  0  0  0  0  0  0
   -3.9430   25.2300  -30.4660 N   0  0  0  0  0  0  0  0  0  0  0  0
   -3.6170   24.0200  -30.9030 N   0  0  0  0  0  0  0  0  0  0  0  0
   -4.6800   23.3630  -31.3430 N   0  0  0  0  0  0  0  0  0  0  0  0
   -6.2380   18.2830  -31.6640 C   0  0  0  0  0  0  0  0  0  0  0  0
   -6.0790   17.0100  -32.2190 C   0  0  0  0  0  0  0  0  0  0  0  0
   -5.5976   14.7477  -33.3888 H   0  0  0  0  0  0  0  0  0  0  0  0
   -6.5511   15.2871  -34.8124 H   0  0  0  0  0  0  0  0  0  0  0  0
   -4.7629   15.4571  -34.8124 H   0  0  0  0  0  0  0  0  0  0  0  0
   -5.5347   17.9000  -35.4758 H   0  0  0  0  0  0  0  0  0  0  0  0
   -5.8153   20.1698  -34.4846 H   0  0  0  0  0  0  0  0  0  0  0  0
   -5.5760   21.4510  -32.0300 H   0  0  0  0  0  0  0  0  0  0  0  0
   -8.4700   22.5016  -29.8659 H   0  0  0  0  0  0  0  0  0  0  0  0
   -6.6793   22.4676  -29.7329 H   0  0  0  0  0  0  0  0  0  0  0  0
   -5.8779   26.2418  -30.3732 H   0  0  0  0  0  0  0  0  0  0  0  0
   -6.4584   18.3866  -30.5913 H   0  0  0  0  0  0  0  0  0  0  0  0
   -6.1739   16.1186  -31.5815 H   0  0  0  0  0  0  0  0  0  0  0  0
  1  2  1  0
  2  3  2  0
  3  4  1  0
  4  5  2  0
  5  6  1  0
  6  7  1  0
  7  8  2  0
  7  9  1  0
  9 10  1  0
 10 11  1  0
 11 12  2  0
 12 13  1  0
 13 14  1  0
 14 15  2  0
  5 16  1  0
 16 17  2  0
 17  2  1  0
 15 11  1  0
  1 18  1  0
  1 19  1  0
  1 20  1  0
  3 21  1  0
  4 22  1  0
  6 23  1  0
  9 24  1  0
  9 25  1  0
 12 26  1  0
 16 27  1  0
 17 28  1  0
M  CHG  1  13  -1
M  END
>  <UniqueID>  (38) 
37

>  <SMILES>  (38) 
Cc1ccc(NC(=O)CSc2c[n-]nn2)cc1

>  <Energy>  (38) 
59.65694376971056

>  <Genealogy>  (38) 
Cc1ccc(NC(=O)CSc2c[n-]nn2)cc1 (protonated)
Cc1ccc(NC(=O)CSc2c[n-]nn2)cc1 (3D coordinates assigned)
Cc1ccc(NC(=O)CSc2c[n-]nn2)cc1 (optimized conformer: 59.65694376971056 kcal/mol)

>  <smiles>  (38) 
Cc1ccc(NC(=O)CSc2c[nH]nn2)cc1

>  <score_type>  (38) 
oracle

>  <origin>  (38) 
adgpu

>  <m_score__min__energy>  (38) 
-8.2400000000000002

>  <m_primary>  (38) 
energy

$$$$
38:0
     RDKit          3D

 40 42  0  0  0  0  0  0  0  0999 V2000
   -0.7300   30.3030  -25.2240 C   0  0  0  0  0  0  0  0  0  0  0  0
    0.0540   29.1590  -25.5420 O   0  0  0  0  0  0  0  0  0  0  0  0
   -0.4710   27.8810  -25.7880 C   0  0  0  0  0  0  0  0  0  0  0  0
   -0.7340   27.0490  -24.6950 C   0  0  0  0  0  0  0  0  0  0  0  0
   -1.2680   25.7740  -24.8890 C   0  0  0  0  0  0  0  0  0  0  0  0
   -1.5350   25.3120  -26.1790 C   0  0  0  0  0  0  0  0  0  0  0  0
   -1.2550   26.1250  -27.2920 C   0  0  0  0  0  0  0  0  0  0  0  0
   -1.5340   25.6990  -28.6350 N   0  0  0  0  0  0  0  0  0  0  0  0
   -2.4170   24.6420  -29.0260 C   0  0  0  0  0  0  0  0  0  0  0  0
   -2.3550   23.5160  -28.4620 O   0  0  0  0  0  0  0  0  0  0  0  0
   -3.3070   24.8500  -30.1310 N   0  0  0  0  0  0  0  0  0  0  0  0
   -4.3610   23.9460  -30.5050 C   0  0  0  0  0  0  0  0  0  0  0  0
   -5.7140   24.2840  -30.3310 C   0  0  0  0  0  0  0  0  0  0  0  0
   -6.7210   23.3970  -30.7230 C   0  0  0  0  0  0  0  0  0  0  0  0
   -6.3970   22.1600  -31.3080 C   0  0  0  0  0  0  0  0  0  0  0  0
   -7.4670   21.2170  -31.7240 C   0  0  0  0  0  0  0  0  0  0  0  0
   -7.1770   19.8670  -31.9820 C   0  0  0  0  0  0  0  0  0  0  0  0
   -8.1930   18.9930  -32.3730 C   0  0  0  0  0  0  0  0  0  0  0  0
   -9.4960   19.4720  -32.5020 C   0  0  0  0  0  0  0  0  0  0  0  0
   -9.7680   20.7790  -32.2490 N   0  0  0  0  0  0  0  0  0  0  0  0
   -8.7970   21.6520  -31.8690 C   0  0  0  0  0  0  0  0  0  0  0  0
   -5.0420   21.8360  -31.5020 C   0  0  0  0  0  0  0  0  0  0  0  0
   -4.0360   22.7240  -31.1100 C   0  0  0  0  0  0  0  0  0  0  0  0
   -0.7420   27.4130  -27.0890 C   0  0  0  0  0  0  0  0  0  0  0  0
   -0.8010   30.4066  -24.1312 H   0  0  0  0  0  0  0  0  0  0  0  0
   -0.2567   31.2011  -25.6475 H   0  0  0  0  0  0  0  0  0  0  0  0
   -1.7384   30.1857  -25.6475 H   0  0  0  0  0  0  0  0  0  0  0  0
   -0.5186   27.4018  -23.6756 H   0  0  0  0  0  0  0  0  0  0  0  0
   -1.4793   25.1308  -24.0220 H   0  0  0  0  0  0  0  0  0  0  0  0
   -1.9652   24.3102  -26.3253 H   0  0  0  0  0  0  0  0  0  0  0  0
   -3.1240   25.6760  -30.7460 H   0  0  0  0  0  0  0  0  0  0  0  0
   -5.9823   25.2524  -29.8836 H   0  0  0  0  0  0  0  0  0  0  0  0
   -7.7761   23.6691  -30.5725 H   0  0  0  0  0  0  0  0  0  0  0  0
   -6.1464   19.4974  -31.8757 H   0  0  0  0  0  0  0  0  0  0  0  0
   -7.9675   17.9359  -32.5775 H   0  0  0  0  0  0  0  0  0  0  0  0
  -10.3041   18.7916  -32.8087 H   0  0  0  0  0  0  0  0  0  0  0  0
   -9.0529   22.7039  -31.6740 H   0  0  0  0  0  0  0  0  0  0  0  0
   -4.7717   20.8760  -31.9660 H   0  0  0  0  0  0  0  0  0  0  0  0
   -2.9810   22.4617  -31.2776 H   0  0  0  0  0  0  0  0  0  0  0  0
   -0.5490   28.0650  -27.9537 H   0  0  0  0  0  0  0  0  0  0  0  0
  1  2  1  0
  2  3  1  0
  3  4  2  0
  4  5  1  0
  5  6  2  0
  6  7  1  0
  7  8  1  0
  8  9  1  0
  9 10  2  0
  9 11  1  0
 11 12  1  0
 12 13  2  0
 13 14  1  0
 14 15  2  0
 15 16  1  0
 16 17  2  0
 17 18  1  0
 18 19  2  0
 19 20  1  0
 20 21  2  0
 15 22  1  0
 22 23  2  0
  7 24  2  0
 24  3  1  0
 23 12  1  0
 21 16  1  0
  1 25  1  0
  1 26  1  0
  1 27  1  0
  4 28  1  0
  5 29  1  0
  6 30  1  0
 11 31  1  0
 13 32  1  0
 14 33  1  0
 17 34  1  0
 18 35  1  0
 19 36  1  0
 21 37  1  0
 22 38  1  0
 23 39  1  0
 24 40  1  0
M  CHG  1   8  -1
M  END
>  <UniqueID>  (39) 
38

>  <SMILES>  (39) 
COc1cccc([N-]C(=O)Nc2ccc(-c3cccnc3)cc2)c1

>  <Energy>  (39) 
54.77591341282378

>  <Genealogy>  (39) 
COc1cccc([N-]C(=O)Nc2ccc(-c3cccnc3)cc2)c1 (protonated)
COc1cccc([N-]C(=O)Nc2ccc(-c3cccnc3)cc2)c1 (3D coordinates assigned)
COc1cccc([N-]C(=O)Nc2ccc(-c3cccnc3)cc2)c1 (optimized conformer: 54.77591341282378 kcal/mol)

>  <smiles>  (39) 
COc1cccc(NC(=O)Nc2ccc(-c3cccnc3)cc2)c1

>  <score_type>  (39) 
oracle

>  <origin>  (39) 
adgpu

>  <m_score__min__energy>  (39) 
-9.6199999999999992

>  <m_primary>  (39) 
energy

$$$$
39:0
     RDKit          3D

 38 40  0  0  0  0  0  0  0  0999 V2000
    0.3630   22.6720  -23.7490 C   0  0  0  0  0  0  0  0  0  0  0  0
   -0.4910   22.7520  -24.9720 C   0  0  0  0  0  0  0  0  0  0  0  0
   -0.8490   21.6880  -25.5450 O   0  0  0  0  0  0  0  0  0  0  0  0
   -0.9730   24.0260  -25.4250 N   0  0  0  0  0  0  0  0  0  0  0  0
   -1.6410   24.2380  -26.6810 C   0  0  0  0  0  0  0  0  0  0  0  0
   -0.8850   24.2940  -27.8610 C   0  0  0  0  0  0  0  0  0  0  0  0
   -1.5130   24.4750  -29.0970 C   0  0  0  0  0  0  0  0  0  0  0  0
   -2.9050   24.5730  -29.1760 C   0  0  0  0  0  0  0  0  0  0  0  0
   -3.5170   24.7790  -30.4570 N   0  0  0  0  0  0  0  0  0  0  0  0
   -4.9240   24.9010  -30.6900 C   0  0  0  0  0  0  0  0  0  0  0  0
   -5.4400   26.0500  -30.7100 O   0  0  0  0  0  0  0  0  0  0  0  0
   -5.7410   23.7480  -30.9480 N   0  0  0  0  0  0  0  0  0  0  0  0
   -7.2050   23.7760  -30.8780 C   0  0  0  0  0  0  0  0  0  0  0  0
   -7.5940   22.4700  -31.4610 C   0  0  0  0  0  0  0  0  0  0  0  0
   -8.8810   21.9560  -31.6310 C   0  0  0  0  0  0  0  0  0  0  0  0
   -9.0240   20.6870  -32.2150 C   0  0  0  0  0  0  0  0  0  0  0  0
   -7.8880   19.9600  -32.6190 C   0  0  0  0  0  0  0  0  0  0  0  0
   -6.6030   20.4970  -32.4400 C   0  0  0  0  0  0  0  0  0  0  0  0
   -6.4850   21.7600  -31.8560 C   0  0  0  0  0  0  0  0  0  0  0  0
   -5.2430   22.5160  -31.5670 C   0  0  0  0  0  0  0  0  0  0  0  0
   -3.6680   24.5180  -27.9980 C   0  0  0  0  0  0  0  0  0  0  0  0
   -3.0420   24.3370  -26.7600 C   0  0  0  0  0  0  0  0  0  0  0  0
   -0.2728   22.7316  -22.8533 H   0  0  0  0  0  0  0  0  0  0  0  0
    0.9115   21.7185  -23.7466 H   0  0  0  0  0  0  0  0  0  0  0  0
    1.0791   23.5070  -23.7466 H   0  0  0  0  0  0  0  0  0  0  0  0
   -0.9060   24.8330  -24.7630 H   0  0  0  0  0  0  0  0  0  0  0  0
    0.2095   24.1948  -27.8137 H   0  0  0  0  0  0  0  0  0  0  0  0
   -0.9077   24.5407  -30.0131 H   0  0  0  0  0  0  0  0  0  0  0  0
   -7.5491   23.8619  -29.8367 H   0  0  0  0  0  0  0  0  0  0  0  0
   -7.6470   24.6341  -31.4056 H   0  0  0  0  0  0  0  0  0  0  0  0
   -9.7630   22.5321  -31.3146 H   0  0  0  0  0  0  0  0  0  0  0  0
  -10.0274   20.2593  -32.3574 H   0  0  0  0  0  0  0  0  0  0  0  0
   -8.0076   18.9670  -33.0769 H   0  0  0  0  0  0  0  0  0  0  0  0
   -5.7100   19.9358  -32.7525 H   0  0  0  0  0  0  0  0  0  0  0  0
   -4.5943   21.9600  -30.8741 H   0  0  0  0  0  0  0  0  0  0  0  0
   -4.6295   22.6986  -32.4616 H   0  0  0  0  0  0  0  0  0  0  0  0
   -4.7623   24.6177  -28.0491 H   0  0  0  0  0  0  0  0  0  0  0  0
   -3.6480   24.2718  -25.8443 H   0  0  0  0  0  0  0  0  0  0  0  0
  1  2  1  0
  2  3  2  0
  2  4  1  0
  4  5  1  0
  5  6  2  0
  6  7  1  0
  7  8  2  0
  8  9  1  0
  9 10  1  0
 10 11  2  0
 10 12  1  0
 12 13  1  0
 13 14  1  0
 14 15  2  0
 15 16  1  0
 16 17  2  0
 17 18  1  0
 18 19  2  0
 19 20  1  0
  8 21  1  0
 21 22  2  0
 22  5  1  0
 20 12  1  0
 19 14  1  0
  1 23  1  0
  1 24  1  0
  1 25  1  0
  4 26  1  0
  6 27  1  0
  7 28  1  0
 13 29  1  0
 13 30  1  0
 15 31  1  0
 16 32  1  0
 17 33  1  0
 18 34  1  0
 20 35  1  0
 20 36  1  0
 21 37  1  0
 22 38  1  0
M  CHG  1   9  -1
M  END
>  <UniqueID>  (40) 
39

>  <SMILES>  (40) 
CC(=O)Nc1ccc([N-]C(=O)N2Cc3ccccc3C2)cc1

>  <Energy>  (40) 
56.7985073933006

>  <Genealogy>  (40) 
CC(=O)Nc1ccc([N-]C(=O)N2Cc3ccccc3C2)cc1 (protonated)
CC(=O)Nc1ccc([N-]C(=O)N2Cc3ccccc3C2)cc1 (3D coordinates assigned)
CC(=O)Nc1ccc([N-]C(=O)N2Cc3ccccc3C2)cc1 (nonaromatic ring conformer: 56.7985073933006 kcal/mol)

>  <smiles>  (40) 
CC(=O)Nc1ccc(NC(=O)N2Cc3ccccc3C2)cc1

>  <score_type>  (40) 
oracle

>  <origin>  (40) 
adgpu

>  <m_score__min__energy>  (40) 
-9.4600000000000009

>  <m_primary>  (40) 
energy

$$$$
40:0
     RDKit          3D

 50 53  0  0  0  0  0  0  0  0999 V2000
   -5.3190   24.9440  -28.6480 O   0  0  0  0  0  0  0  0  0  0  0  0
   -5.3900   24.9170  -30.1470 S   0  0  0  0  0  0  0  0  0  0  0  0
   -5.7220   26.3040  -30.6320 O   0  0  0  0  0  0  0  0  0  0  0  0
   -3.8570   24.4000  -30.7660 N   0  0  0  0  0  0  0  0  0  0  0  0
   -3.4310   23.0320  -30.8290 C   0  0  0  0  0  0  0  0  0  0  0  0
   -3.9560   22.1510  -31.7880 C   0  0  0  0  0  0  0  0  0  0  0  0
   -3.5080   20.8210  -31.8620 C   0  0  0  0  0  0  0  0  0  0  0  0
   -4.0690   19.8960  -32.8780 C   0  0  0  0  0  0  0  0  0  0  0  0
   -5.4360   19.9290  -33.2010 C   0  0  0  0  0  0  0  0  0  0  0  0
   -5.9620   19.0610  -34.1650 C   0  0  0  0  0  0  0  0  0  0  0  0
   -5.1290   18.1510  -34.8120 C   0  0  0  0  0  0  0  0  0  0  0  0
   -3.7690   18.1080  -34.5020 C   0  0  0  0  0  0  0  0  0  0  0  0
   -3.2390   18.9750  -33.5410 C   0  0  0  0  0  0  0  0  0  0  0  0
   -2.5190   20.3830  -30.9630 C   0  0  0  0  0  0  0  0  0  0  0  0
   -1.9940   21.2560  -30.0050 C   0  0  0  0  0  0  0  0  0  0  0  0
   -2.4510   22.5760  -29.9290 C   0  0  0  0  0  0  0  0  0  0  0  0
   -1.9750   23.4310  -28.8810 N   0  0  0  0  0  0  0  0  0  0  0  0
   -0.8100   24.2900  -29.1260 C   0  0  0  0  0  0  0  0  0  0  0  0
   -0.8880   25.5940  -28.3050 C   0  0  0  0  0  0  0  0  0  0  0  0
   -1.6370   25.4770  -27.0350 N   0  0  0  0  0  0  0  0  0  0  0  0
   -1.7070   24.1010  -26.5290 C   0  0  0  0  0  0  0  0  0  0  0  0
   -2.4620   23.2140  -27.5160 C   0  0  0  0  0  0  0  0  0  0  0  0
   -6.6240   23.7590  -30.6370 C   0  0  0  0  0  0  0  0  0  0  0  0
   -7.1370   23.8010  -31.9430 C   0  0  0  0  0  0  0  0  0  0  0  0
   -8.1460   22.9150  -32.3330 C   0  0  0  0  0  0  0  0  0  0  0  0
   -8.6580   21.9900  -31.4180 C   0  0  0  0  0  0  0  0  0  0  0  0
   -8.1580   21.9500  -30.1110 C   0  0  0  0  0  0  0  0  0  0  0  0
   -7.1420   22.8310  -29.7200 C   0  0  0  0  0  0  0  0  0  0  0  0
   -4.7261   22.5056  -32.4888 H   0  0  0  0  0  0  0  0  0  0  0  0
   -6.0991   20.6437  -32.6915 H   0  0  0  0  0  0  0  0  0  0  0  0
   -7.0334   19.0975  -34.4117 H   0  0  0  0  0  0  0  0  0  0  0  0
   -5.5431   17.4665  -35.5670 H   0  0  0  0  0  0  0  0  0  0  0  0
   -3.1120   17.3902  -35.0149 H   0  0  0  0  0  0  0  0  0  0  0  0
   -2.1659   18.9361  -33.3024 H   0  0  0  0  0  0  0  0  0  0  0  0
   -2.1558   19.3460  -31.0139 H   0  0  0  0  0  0  0  0  0  0  0  0
   -1.2189   20.9035  -29.3086 H   0  0  0  0  0  0  0  0  0  0  0  0
    0.1025   23.7441  -28.8444 H   0  0  0  0  0  0  0  0  0  0  0  0
   -0.7937   24.5542  -30.1937 H   0  0  0  0  0  0  0  0  0  0  0  0
    0.1380   25.9137  -28.0702 H   0  0  0  0  0  0  0  0  0  0  0  0
   -1.4348   26.3205  -28.9241 H   0  0  0  0  0  0  0  0  0  0  0  0
   -2.6170   25.8160  -27.1870 H   0  0  0  0  0  0  0  0  0  0  0  0
   -0.6873   23.7105  -26.3960 H   0  0  0  0  0  0  0  0  0  0  0  0
   -2.2384   24.0994  -25.5659 H   0  0  0  0  0  0  0  0  0  0  0  0
   -2.3121   22.1593  -27.2420 H   0  0  0  0  0  0  0  0  0  0  0  0
   -3.5313   23.4691  -27.4761 H   0  0  0  0  0  0  0  0  0  0  0  0
   -6.7436   24.5340  -32.6626 H   0  0  0  0  0  0  0  0  0  0  0  0
   -8.5373   22.9457  -33.3606 H   0  0  0  0  0  0  0  0  0  0  0  0
   -9.4529   21.2944  -31.7248 H   0  0  0  0  0  0  0  0  0  0  0  0
   -8.5639   21.2253  -29.3899 H   0  0  0  0  0  0  0  0  0  0  0  0
   -6.7494   22.7957  -28.6930 H   0  0  0  0  0  0  0  0  0  0  0  0
  1  2  2  0
  2  3  2  0
  2  4  1  0
  4  5  1  0
  5  6  2  0
  6  7  1  0
  7  8  1  0
  8  9  2  0
  9 10  1  0
 10 11  2  0
 11 12  1  0
 12 13  2  0
  7 14  2  0
 14 15  1  0
 15 16  2  0
 16 17  1  0
 17 18  1  0
 18 19  1  0
 19 20  1  0
 20 21  1  0
 21 22  1  0
  2 23  1  0
 23 24  2  0
 24 25  1  0
 25 26  2  0
 26 27  1  0
 27 28  2  0
 16  5  1  0
 22 17  1  0
 28 23  1  0
 13  8  1  0
  6 29  1  0
  9 30  1  0
 10 31  1  0
 11 32  1  0
 12 33  1  0
 13 34  1  0
 14 35  1  0
 15 36  1  0
 18 37  1  0
 18 38  1  0
 19 39  1  0
 19 40  1  0
 20 41  1  0
 21 42  1  0
 21 43  1  0
 22 44  1  0
 22 45  1  0
 24 46  1  0
 25 47  1  0
 26 48  1  0
 27 49  1  0
 28 50  1  0
M  CHG  1   4  -1
M  END
>  <UniqueID>  (41) 
40

>  <SMILES>  (41) 
O=S(=O)([N-]c1cc(-c2ccccc2)ccc1N1CCNCC1)c1ccccc1

>  <Energy>  (41) 
72.80630502547193

>  <Genealogy>  (41) 
O=S(=O)([N-]c1cc(-c2ccccc2)ccc1N1CCNCC1)c1ccccc1 (protonated)
O=S(=O)([N-]c1cc(-c2ccccc2)ccc1N1CCNCC1)c1ccccc1 (3D coordinates assigned)
O=S(=O)([N-]c1cc(-c2ccccc2)ccc1N1CCNCC1)c1ccccc1 (nonaromatic ring conformer: 72.80630502547193 kcal/mol)

>  <smiles>  (41) 
O=S(=O)(Nc1cc(-c2ccccc2)ccc1N1CCNCC1)c1ccccc1

>  <score_type>  (41) 
oracle

>  <origin>  (41) 
adgpu

>  <m_score__min__energy>  (41) 
-10.58

>  <m_primary>  (41) 
energy

$$$$
41:0
     RDKit          3D

 39 41  0  0  0  0  0  0  0  0999 V2000
   -9.7360   21.7420  -31.8860 C   0  0  0  0  0  0  0  0  0  0  0  0
   -8.4250   22.3260  -31.4520 C   0  0  0  0  0  0  0  0  0  0  0  0
   -7.6530   23.0870  -32.3420 C   0  0  0  0  0  0  0  0  0  0  0  0
   -6.4450   23.6510  -31.9230 C   0  0  0  0  0  0  0  0  0  0  0  0
   -6.0000   23.4680  -30.6080 C   0  0  0  0  0  0  0  0  0  0  0  0
   -4.4550   24.1500  -30.1070 S   0  0  0  0  0  0  0  0  0  0  0  0
   -4.4520   24.4330  -28.6310 O   0  0  0  0  0  0  0  0  0  0  0  0
   -4.2520   25.4430  -30.8450 O   0  0  0  0  0  0  0  0  0  0  0  0
   -3.1670   23.0310  -30.4740 N   0  0  0  0  0  0  0  0  0  0  0  0
   -1.8720   23.1370  -29.8490 C   0  0  0  0  0  0  0  0  0  0  0  0
   -0.9900   22.2710  -30.1040 O   0  0  0  0  0  0  0  0  0  0  0  0
   -1.5360   24.2300  -28.9170 C   0  0  0  0  0  0  0  0  0  0  0  0
   -1.1170   24.0710  -27.6110 C   0  0  0  0  0  0  0  0  0  0  0  0
   -0.9190   25.3450  -27.1230 C   0  0  0  0  0  0  0  0  0  0  0  0
   -1.2210   26.2020  -28.1610 C   0  0  0  0  0  0  0  0  0  0  0  0
   -1.5810   25.5080  -29.2150 O   0  0  0  0  0  0  0  0  0  0  0  0
   -3.4390   21.9140  -31.3300 C   0  0  0  0  0  0  0  0  0  0  0  0
   -2.9150   21.8700  -32.6310 C   0  0  0  0  0  0  0  0  0  0  0  0
   -3.1940   20.7830  -33.4650 C   0  0  0  0  0  0  0  0  0  0  0  0
   -4.0060   19.7380  -33.0080 C   0  0  0  0  0  0  0  0  0  0  0  0
   -4.3550   18.3760  -34.0550 Cl  0  0  0  0  0  0  0  0  0  0  0  0
   -4.5410   19.7850  -31.7160 C   0  0  0  0  0  0  0  0  0  0  0  0
   -4.2630   20.8720  -30.8820 C   0  0  0  0  0  0  0  0  0  0  0  0
   -6.7800   22.7270  -29.7090 C   0  0  0  0  0  0  0  0  0  0  0  0
   -7.9880   22.1610  -30.1280 C   0  0  0  0  0  0  0  0  0  0  0  0
  -10.3308   21.4770  -30.9994 H   0  0  0  0  0  0  0  0  0  0  0  0
  -10.2850   22.4807  -32.4885 H   0  0  0  0  0  0  0  0  0  0  0  0
   -9.5540   20.8398  -32.4885 H   0  0  0  0  0  0  0  0  0  0  0  0
   -8.0000   23.2406  -33.3745 H   0  0  0  0  0  0  0  0  0  0  0  0
   -5.8416   24.2408  -32.6287 H   0  0  0  0  0  0  0  0  0  0  0  0
   -0.9713   23.1236  -27.0714 H   0  0  0  0  0  0  0  0  0  0  0  0
   -0.5875   25.6220  -26.1114 H   0  0  0  0  0  0  0  0  0  0  0  0
   -1.1681   27.2997  -28.1126 H   0  0  0  0  0  0  0  0  0  0  0  0
   -2.2829   22.6931  -32.9958 H   0  0  0  0  0  0  0  0  0  0  0  0
   -2.7750   20.7488  -34.4815 H   0  0  0  0  0  0  0  0  0  0  0  0
   -5.1810   18.9659  -31.3561 H   0  0  0  0  0  0  0  0  0  0  0  0
   -4.6926   20.9099  -29.8701 H   0  0  0  0  0  0  0  0  0  0  0  0
   -6.4408   22.5906  -28.6715 H   0  0  0  0  0  0  0  0  0  0  0  0
   -8.5983   21.5842  -29.4175 H   0  0  0  0  0  0  0  0  0  0  0  0
  1  2  1  0
  2  3  2  0
  3  4  1  0
  4  5  2  0
  5  6  1  0
  6  7  2  0
  6  8  2  0
  6  9  1  0
  9 10  1  0
 10 11  2  0
 10 12  1  0
 12 13  2  0
 13 14  1  0
 14 15  2  0
 15 16  1  0
  9 17  1  0
 17 18  2  0
 18 19  1  0
 19 20  2  0
 20 21  1  0
 20 22  1  0
 22 23  2  0
  5 24  1  0
 24 25  2  0
 25  2  1  0
 16 12  1  0
 23 17  1  0
  1 26  1  0
  1 27  1  0
  1 28  1  0
  3 29  1  0
  4 30  1  0
 13 31  1  0
 14 32  1  0
 15 33  1  0
 18 34  1  0
 19 35  1  0
 22 36  1  0
 23 37  1  0
 24 38  1  0
 25 39  1  0
M  END
>  <UniqueID>  (42) 
41

>  <SMILES>  (42) 
Cc1ccc(S(=O)(=O)N(C(=O)c2ccco2)c2ccc(Cl)cc2)cc1

>  <Energy>  (42) 
75.50781948455288

>  <Genealogy>  (42) 
Cc1ccc(S(=O)(=O)N(C(=O)c2ccco2)c2ccc(Cl)cc2)cc1 (3D coordinates assigned)
Cc1ccc(S(=O)(=O)N(C(=O)c2ccco2)c2ccc(Cl)cc2)cc1 (optimized conformer: 75.50781948455288 kcal/mol)

>  <smiles>  (42) 
Cc1ccc(S(=O)(=O)N(C(=O)c2ccco2)c2ccc(Cl)cc2)cc1

>  <score_type>  (42) 
oracle

>  <origin>  (42) 
adgpu

>  <m_score__min__energy>  (42) 
-9.0199999999999996

>  <m_primary>  (42) 
energy

$$$$
42:0
     RDKit          3D

 31 34  0  0  0  0  0  0  0  0999 V2000
   -5.0020   26.0850  -31.3860 H   0  0  0  0  0  0  0  0  0  0  0  0
   -4.2230   25.6750  -30.8230 N   0  0  0  0  0  0  0  0  0  0  0  0
   -4.1270   24.3990  -30.6340 C   0  0  0  0  0  0  0  0  0  0  0  0
   -5.0450   23.5400  -31.1670 N   0  0  0  0  0  0  0  0  0  0  0  0
   -4.9720   22.1810  -30.9830 C   0  0  0  0  0  0  0  0  0  0  0  0
   -6.0020   21.3050  -31.5970 C   0  0  0  0  0  0  0  0  0  0  0  0
   -7.3680   21.5930  -31.4090 C   0  0  0  0  0  0  0  0  0  0  0  0
   -7.6637   22.4682  -30.8118 H   0  0  0  0  0  0  0  0  0  0  0  0
   -8.3510   20.7760  -31.9750 C   0  0  0  0  0  0  0  0  0  0  0  0
   -9.4147   21.0134  -31.8262 H   0  0  0  0  0  0  0  0  0  0  0  0
   -7.9850   19.6590  -32.7290 C   0  0  0  0  0  0  0  0  0  0  0  0
   -8.7599   19.0190  -33.1762 H   0  0  0  0  0  0  0  0  0  0  0  0
   -6.6350   19.3550  -32.9150 C   0  0  0  0  0  0  0  0  0  0  0  0
   -6.3478   18.4728  -33.5060 H   0  0  0  0  0  0  0  0  0  0  0  0
   -5.6470   20.1690  -32.3520 C   0  0  0  0  0  0  0  0  0  0  0  0
   -4.5855   19.9210  -32.4994 H   0  0  0  0  0  0  0  0  0  0  0  0
   -3.9000   21.6580  -30.2240 C   0  0  0  0  0  0  0  0  0  0  0  0
   -3.7954   20.5757  -30.0574 H   0  0  0  0  0  0  0  0  0  0  0  0
   -3.0060   22.5360  -29.7090 N   0  0  0  0  0  0  0  0  0  0  0  0
   -1.9420   22.2660  -28.9820 N   0  0  0  0  0  0  0  0  0  0  0  0
   -1.3910   23.4770  -28.7290 C   0  0  0  0  0  0  0  0  0  0  0  0
   -0.1690   23.6510  -27.9380 C   0  0  0  0  0  0  0  0  0  0  0  0
    0.7780   24.5130  -28.2320 O   0  0  0  0  0  0  0  0  0  0  0  0
    1.7270   24.4150  -27.3290 C   0  0  0  0  0  0  0  0  0  0  0  0
    2.6503   25.0128  -27.3130 H   0  0  0  0  0  0  0  0  0  0  0  0
    1.3900   23.4480  -26.4030 C   0  0  0  0  0  0  0  0  0  0  0  0
    1.9803   23.1355  -25.5290 H   0  0  0  0  0  0  0  0  0  0  0  0
    0.1640   22.9530  -26.7950 C   0  0  0  0  0  0  0  0  0  0  0  0
   -0.4250   22.1666  -26.3003 H   0  0  0  0  0  0  0  0  0  0  0  0
   -2.0810   24.5120  -29.2810 N   0  0  0  0  0  0  0  0  0  0  0  0
   -3.0880   23.8560  -29.8850 C   0  0  0  0  0  0  0  0  0  0  0  0
  1  2  1  0
  2  3  2  0
  3  4  1  0
  4  5  1  0
  5  6  1  0
  6  7  2  0
  7  8  1  0
  7  9  1  0
  9 10  1  0
  9 11  2  0
 11 12  1  0
 11 13  1  0
 13 14  1  0
 13 15  2  0
 15 16  1  0
  5 17  2  0
 17 18  1  0
 17 19  1  0
 19 20  1  0
 20 21  2  0
 21 22  1  0
 22 23  1  0
 23 24  1  0
 24 25  1  0
 24 26  2  0
 26 27  1  0
 26 28  1  0
 28 29  1  0
 21 30  1  0
 30 31  2  0
 31  3  1  0
 15  6  1  0
 31 19  1  0
 28 22  2  0
M  CHG  1   4  -1
M  END
>  <UniqueID>  (43) 
42

>  <SMILES>  (43) 
[H]/N=c1\[n-]c(-c2ccccc2)cn2nc(-c3ccco3)nc12

>  <Energy>  (43) 
104.55242621564794

>  <Genealogy>  (43) 
N=c1[n-]c(-c2ccccc2)cn2nc(-c3ccco3)nc12 (protonated)
[H]/N=c1\[n-]c(-c2ccccc2)cn2nc(-c3ccco3)nc12 (cis-trans isomerization)
[H]/N=c1\[n-]c(-c2ccccc2)cn2nc(-c3ccco3)nc12 (3D coordinates assigned)
[H]/N=c1\[n-]c(-c2ccccc2)cn2nc(-c3ccco3)nc12 (optimized conformer: 104.55242621564794 kcal/mol)

>  <smiles>  (43) 
N=c1[nH]c(-c2ccccc2)cn2nc(-c3ccco3)nc12

>  <score_type>  (43) 
oracle

>  <origin>  (43) 
adgpu

>  <m_score__min__energy>  (43) 
-8.9900000000000002

>  <m_primary>  (43) 
energy

$$$$
43:0
     RDKit          3D

 51 54  0  0  0  0  0  0  0  0999 V2000
   -1.5770   26.0370  -26.3160 C   0  0  0  0  0  0  0  0  0  0  0  0
   -1.2160   26.0610  -27.7960 C   0  0  0  0  0  0  0  0  0  0  0  0
   -0.9540   24.6980  -28.2840 N   0  0  0  0  0  0  0  0  0  0  0  0
    0.3750   24.0930  -28.1150 C   0  0  0  0  0  0  0  0  0  0  0  0
    0.2760   22.8040  -27.3060 C   0  0  0  0  0  0  0  0  0  0  0  0
   -2.0030   23.9540  -28.9320 C   0  0  0  0  0  0  0  0  0  0  0  0
   -1.7310   23.1960  -30.0810 C   0  0  0  0  0  0  0  0  0  0  0  0
   -2.7490   22.4740  -30.7100 C   0  0  0  0  0  0  0  0  0  0  0  0
   -4.0560   22.4880  -30.1940 C   0  0  0  0  0  0  0  0  0  0  0  0
   -5.1540   21.7450  -30.8590 C   0  0  0  0  0  0  0  0  0  0  0  0
   -6.4180   22.2270  -30.7610 N   0  0  0  0  0  0  0  0  0  0  0  0
   -7.4710   21.6080  -31.3470 C   0  0  0  0  0  0  0  0  0  0  0  0
   -8.7530   22.1540  -31.2250 C   0  0  0  0  0  0  0  0  0  0  0  0
   -9.8400   21.5310  -31.8400 C   0  0  0  0  0  0  0  0  0  0  0  0
   -9.6500   20.3640  -32.5810 C   0  0  0  0  0  0  0  0  0  0  0  0
   -8.3730   19.8090  -32.7070 C   0  0  0  0  0  0  0  0  0  0  0  0
   -7.2610   20.4190  -32.0830 C   0  0  0  0  0  0  0  0  0  0  0  0
   -5.9880   19.9030  -32.1730 N   0  0  0  0  0  0  0  0  0  0  0  0
   -5.7320   18.6760  -32.8840 C   0  0  0  0  0  0  0  0  0  0  0  0
   -5.8340   17.4440  -32.2220 C   0  0  0  0  0  0  0  0  0  0  0  0
   -5.5890   16.2530  -32.9140 C   0  0  0  0  0  0  0  0  0  0  0  0
   -5.2470   16.2890  -34.2690 C   0  0  0  0  0  0  0  0  0  0  0  0
   -5.1490   17.5150  -34.9340 C   0  0  0  0  0  0  0  0  0  0  0  0
   -5.3930   18.7070  -34.2450 C   0  0  0  0  0  0  0  0  0  0  0  0
   -4.9360   20.5440  -31.5660 C   0  0  0  0  0  0  0  0  0  0  0  0
   -3.7770   20.0430  -31.6130 O   0  0  0  0  0  0  0  0  0  0  0  0
   -4.3300   23.2620  -29.0530 C   0  0  0  0  0  0  0  0  0  0  0  0
   -3.3120   23.9830  -28.4250 C   0  0  0  0  0  0  0  0  0  0  0  0
   -0.6587   26.0981  -25.7136 H   0  0  0  0  0  0  0  0  0  0  0  0
   -2.2261   26.8940  -26.0830 H   0  0  0  0  0  0  0  0  0  0  0  0
   -2.1069   25.1016  -26.0830 H   0  0  0  0  0  0  0  0  0  0  0  0
   -2.0510   26.4952  -28.3654 H   0  0  0  0  0  0  0  0  0  0  0  0
   -0.3088   26.6682  -27.9314 H   0  0  0  0  0  0  0  0  0  0  0  0
    0.7986   23.8676  -29.1048 H   0  0  0  0  0  0  0  0  0  0  0  0
    1.0227   24.8014  -27.5777 H   0  0  0  0  0  0  0  0  0  0  0  0
    0.2943   23.0426  -26.2324 H   0  0  0  0  0  0  0  0  0  0  0  0
   -0.6644   22.2886  -27.5511 H   0  0  0  0  0  0  0  0  0  0  0  0
    1.1266   22.1510  -27.5511 H   0  0  0  0  0  0  0  0  0  0  0  0
   -0.7099   23.1698  -30.4893 H   0  0  0  0  0  0  0  0  0  0  0  0
   -2.5256   21.8906  -31.6154 H   0  0  0  0  0  0  0  0  0  0  0  0
   -8.9046   23.0755  -30.6437 H   0  0  0  0  0  0  0  0  0  0  0  0
  -10.8478   21.9605  -31.7404 H   0  0  0  0  0  0  0  0  0  0  0  0
  -10.5086   19.8786  -33.0681 H   0  0  0  0  0  0  0  0  0  0  0  0
   -8.2326   18.8907  -33.2961 H   0  0  0  0  0  0  0  0  0  0  0  0
   -6.1071   17.4140  -31.1569 H   0  0  0  0  0  0  0  0  0  0  0  0
   -5.6655   15.2879  -32.3917 H   0  0  0  0  0  0  0  0  0  0  0  0
   -5.0549   15.3521  -34.8124 H   0  0  0  0  0  0  0  0  0  0  0  0
   -4.8797   17.5418  -36.0002 H   0  0  0  0  0  0  0  0  0  0  0  0
   -5.3191   19.6704  -34.7708 H   0  0  0  0  0  0  0  0  0  0  0  0
   -5.3536   23.3001  -28.6519 H   0  0  0  0  0  0  0  0  0  0  0  0
   -3.5372   24.5775  -27.5273 H   0  0  0  0  0  0  0  0  0  0  0  0
  1  2  1  0
  2  3  1  0
  3  4  1  0
  4  5  1  0
  3  6  1  0
  6  7  2  0
  7  8  1  0
  8  9  2  0
  9 10  1  0
 10 11  2  0
 11 12  1  0
 12 13  2  0
 13 14  1  0
 14 15  2  0
 15 16  1  0
 16 17  2  0
 17 18  1  0
 18 19  1  0
 19 20  2  0
 20 21  1  0
 21 22  2  0
 22 23  1  0
 23 24  2  0
 18 25  1  0
 25 26  2  0
  9 27  1  0
 27 28  2  0
 28  6  1  0
 25 10  1  0
 17 12  1  0
 24 19  1  0
  1 29  1  0
  1 30  1  0
  1 31  1  0
  2 32  1  0
  2 33  1  0
  4 34  1  0
  4 35  1  0
  5 36  1  0
  5 37  1  0
  5 38  1  0
  7 39  1  0
  8 40  1  0
 13 41  1  0
 14 42  1  0
 15 43  1  0
 16 44  1  0
 20 45  1  0
 21 46  1  0
 22 47  1  0
 23 48  1  0
 24 49  1  0
 27 50  1  0
 28 51  1  0
M  END
>  <UniqueID>  (44) 
43

>  <SMILES>  (44) 
CCN(CC)c1ccc(-c2nc3ccccc3n(-c3ccccc3)c2=O)cc1

>  <Energy>  (44) 
74.32168615588336

>  <Genealogy>  (44) 
CCN(CC)c1ccc(-c2nc3ccccc3n(-c3ccccc3)c2=O)cc1 (3D coordinates assigned)
CCN(CC)c1ccc(-c2nc3ccccc3n(-c3ccccc3)c2=O)cc1 (optimized conformer: 74.32168615588336 kcal/mol)

>  <smiles>  (44) 
CCN(CC)c1ccc(-c2nc3ccccc3n(-c3ccccc3)c2=O)cc1

>  <score_type>  (44) 
oracle

>  <origin>  (44) 
adgpu

>  <m_score__min__energy>  (44) 
-8.25

>  <m_primary>  (44) 
energy

$$$$
44:0
     RDKit          3D

 38 41  0  0  0  0  0  0  0  0999 V2000
   -9.0830   19.5050  -31.9910 C   0  0  0  0  0  0  0  0  0  0  0  0
   -8.8240   20.8690  -32.1390 C   0  0  0  0  0  0  0  0  0  0  0  0
   -7.5150   21.3170  -32.3390 C   0  0  0  0  0  0  0  0  0  0  0  0
   -6.4530   20.3970  -32.4080 C   0  0  0  0  0  0  0  0  0  0  0  0
   -5.0610   20.8520  -32.5990 C   0  0  0  0  0  0  0  0  0  0  0  0
   -4.1670   20.1980  -33.3640 N   0  0  0  0  0  0  0  0  0  0  0  0
   -3.0150   20.8380  -33.2240 N   0  0  0  0  0  0  0  0  0  0  0  0
   -1.7950   20.4480  -33.8810 C   0  0  0  0  0  0  0  0  0  0  0  0
   -0.8230   21.4110  -34.2120 C   0  0  0  0  0  0  0  0  0  0  0  0
    0.3610   21.0290  -34.8490 C   0  0  0  0  0  0  0  0  0  0  0  0
    0.5890   19.6870  -35.1620 C   0  0  0  0  0  0  0  0  0  0  0  0
   -0.3690   18.7230  -34.8380 C   0  0  0  0  0  0  0  0  0  0  0  0
   -1.5560   19.0990  -34.2000 C   0  0  0  0  0  0  0  0  0  0  0  0
   -3.1160   21.8790  -32.4100 N   0  0  0  0  0  0  0  0  0  0  0  0
   -4.3990   21.9180  -32.0020 C   0  0  0  0  0  0  0  0  0  0  0  0
   -4.9440   22.9940  -31.1470 C   0  0  0  0  0  0  0  0  0  0  0  0
   -4.4690   23.1500  -29.8350 C   0  0  0  0  0  0  0  0  0  0  0  0
   -4.9620   24.1750  -29.0220 C   0  0  0  0  0  0  0  0  0  0  0  0
   -5.9240   25.0600  -29.5180 C   0  0  0  0  0  0  0  0  0  0  0  0
   -6.3860   24.9270  -30.8290 C   0  0  0  0  0  0  0  0  0  0  0  0
   -5.8940   23.9030  -31.6450 C   0  0  0  0  0  0  0  0  0  0  0  0
   -6.7200   19.0280  -32.2350 C   0  0  0  0  0  0  0  0  0  0  0  0
   -8.0320   18.5860  -32.0350 C   0  0  0  0  0  0  0  0  0  0  0  0
  -10.1145   19.1542  -31.8398 H   0  0  0  0  0  0  0  0  0  0  0  0
   -9.6516   21.5925  -32.0981 H   0  0  0  0  0  0  0  0  0  0  0  0
   -7.3145   22.3936  -32.4429 H   0  0  0  0  0  0  0  0  0  0  0  0
   -0.9962   22.4695  -33.9681 H   0  0  0  0  0  0  0  0  0  0  0  0
    1.1155   21.7875  -35.1046 H   0  0  0  0  0  0  0  0  0  0  0  0
    1.5219   19.3894  -35.6631 H   0  0  0  0  0  0  0  0  0  0  0  0
   -0.1896   17.6662  -35.0850 H   0  0  0  0  0  0  0  0  0  0  0  0
   -2.3064   18.3357  -33.9465 H   0  0  0  0  0  0  0  0  0  0  0  0
   -3.7047   22.4619  -29.4446 H   0  0  0  0  0  0  0  0  0  0  0  0
   -4.5929   24.2852  -27.9917 H   0  0  0  0  0  0  0  0  0  0  0  0
   -6.3171   25.8614  -28.8752 H   0  0  0  0  0  0  0  0  0  0  0  0
   -7.1377   25.6283  -31.2204 H   0  0  0  0  0  0  0  0  0  0  0  0
   -6.2519   23.8085  -32.6808 H   0  0  0  0  0  0  0  0  0  0  0  0
   -5.8943   18.3015  -32.2570 H   0  0  0  0  0  0  0  0  0  0  0  0
   -8.2365   17.5122  -31.9121 H   0  0  0  0  0  0  0  0  0  0  0  0
  1  2  2  0
  2  3  1  0
  3  4  2  0
  4  5  1  0
  5  6  2  0
  6  7  1  0
  7  8  1  0
  8  9  2  0
  9 10  1  0
 10 11  2  0
 11 12  1  0
 12 13  2  0
  7 14  1  0
 14 15  2  0
 15 16  1  0
 16 17  2  0
 17 18  1  0
 18 19  2  0
 19 20  1  0
 20 21  2  0
  4 22  1  0
 22 23  2  0
 23  1  1  0
 15  5  1  0
 21 16  1  0
 13  8  1  0
  1 24  1  0
  2 25  1  0
  3 26  1  0
  9 27  1  0
 10 28  1  0
 11 29  1  0
 12 30  1  0
 13 31  1  0
 17 32  1  0
 18 33  1  0
 19 34  1  0
 20 35  1  0
 21 36  1  0
 22 37  1  0
 23 38  1  0
M  END
>  <UniqueID>  (45) 
44

>  <SMILES>  (45) 
c1ccc(-c2nn(-c3ccccc3)nc2-c2ccccc2)cc1

>  <Energy>  (45) 
85.57720339849477

>  <Genealogy>  (45) 
c1ccc(-c2nn(-c3ccccc3)nc2-c2ccccc2)cc1 (3D coordinates assigned)
c1ccc(-c2nn(-c3ccccc3)nc2-c2ccccc2)cc1 (optimized conformer: 85.57720339849477 kcal/mol)

>  <smiles>  (45) 
c1ccc(-c2nn(-c3ccccc3)nc2-c2ccccc2)cc1

>  <score_type>  (45) 
oracle

>  <origin>  (45) 
adgpu

>  <m_score__min__energy>  (45) 
-8.2899999999999991

>  <m_primary>  (45) 
energy

$$$$
45:0
     RDKit          3D

 41 43  0  0  0  0  0  0  0  0999 V2000
    0.5580   20.5970  -28.0400 C   0  0  0  0  0  0  0  0  0  0  0  0
    0.2330   21.9270  -27.6460 O   0  0  0  0  0  0  0  0  0  0  0  0
   -1.0200   22.5290  -27.8370 C   0  0  0  0  0  0  0  0  0  0  0  0
   -2.2240   21.8270  -27.6390 C   0  0  0  0  0  0  0  0  0  0  0  0
   -3.4530   22.4580  -27.8420 C   0  0  0  0  0  0  0  0  0  0  0  0
   -3.5050   23.8010  -28.2510 C   0  0  0  0  0  0  0  0  0  0  0  0
   -4.7560   24.4750  -28.4780 N   0  0  0  0  0  0  0  0  0  0  0  0
   -5.3530   24.9000  -30.0520 S   0  0  0  0  0  0  0  0  0  0  0  0
   -6.4750   25.8890  -29.9000 O   0  0  0  0  0  0  0  0  0  0  0  0
   -4.2470   25.5320  -30.8490 O   0  0  0  0  0  0  0  0  0  0  0  0
   -5.9060   23.4570  -30.8980 C   0  0  0  0  0  0  0  0  0  0  0  0
   -5.0200   22.7210  -31.6960 C   0  0  0  0  0  0  0  0  0  0  0  0
   -5.4620   21.5880  -32.3820 C   0  0  0  0  0  0  0  0  0  0  0  0
   -6.7990   21.1760  -32.2770 C   0  0  0  0  0  0  0  0  0  0  0  0
   -7.2560   20.0430  -32.9660 C   0  0  0  0  0  0  0  0  0  0  0  0
   -8.5920   19.6450  -32.8530 C   0  0  0  0  0  0  0  0  0  0  0  0
   -9.4780   20.3720  -32.0540 C   0  0  0  0  0  0  0  0  0  0  0  0
   -9.0350   21.5030  -31.3630 C   0  0  0  0  0  0  0  0  0  0  0  0
   -7.6970   21.9140  -31.4670 C   0  0  0  0  0  0  0  0  0  0  0  0
   -7.2400   23.0480  -30.7790 C   0  0  0  0  0  0  0  0  0  0  0  0
   -2.3060   24.5030  -28.4370 C   0  0  0  0  0  0  0  0  0  0  0  0
   -1.0610   23.8730  -28.2350 C   0  0  0  0  0  0  0  0  0  0  0  0
    0.1550   24.5490  -28.4220 O   0  0  0  0  0  0  0  0  0  0  0  0
    1.1090   24.7930  -27.3940 C   0  0  0  0  0  0  0  0  0  0  0  0
    0.7097   19.9761  -27.1448 H   0  0  0  0  0  0  0  0  0  0  0  0
   -0.2649   20.1808  -28.6397 H   0  0  0  0  0  0  0  0  0  0  0  0
    1.4801   20.6072  -28.6397 H   0  0  0  0  0  0  0  0  0  0  0  0
   -2.1965   20.7740  -27.3221 H   0  0  0  0  0  0  0  0  0  0  0  0
   -4.3869   21.8997  -27.6806 H   0  0  0  0  0  0  0  0  0  0  0  0
   -5.3000   24.8250  -27.6580 H   0  0  0  0  0  0  0  0  0  0  0  0
   -3.9701   23.0377  -31.7825 H   0  0  0  0  0  0  0  0  0  0  0  0
   -4.7597   21.0166  -33.0067 H   0  0  0  0  0  0  0  0  0  0  0  0
   -6.5626   19.4666  -33.5961 H   0  0  0  0  0  0  0  0  0  0  0  0
   -8.9466   18.7561  -33.3953 H   0  0  0  0  0  0  0  0  0  0  0  0
  -10.5273   20.0532  -31.9686 H   0  0  0  0  0  0  0  0  0  0  0  0
   -9.7367   22.0726  -30.7360 H   0  0  0  0  0  0  0  0  0  0  0  0
   -7.9328   23.6186  -30.1431 H   0  0  0  0  0  0  0  0  0  0  0  0
   -2.3369   25.5587  -28.7444 H   0  0  0  0  0  0  0  0  0  0  0  0
    0.6291   24.6703  -26.4118 H   0  0  0  0  0  0  0  0  0  0  0  0
    1.9401   24.0785  -27.4879 H   0  0  0  0  0  0  0  0  0  0  0  0
    1.4950   25.8188  -27.4879 H   0  0  0  0  0  0  0  0  0  0  0  0
  1  2  1  0
  2  3  1  0
  3  4  2  0
  4  5  1  0
  5  6  2  0
  6  7  1  0
  7  8  1  0
  8  9  2  0
  8 10  2  0
  8 11  1  0
 11 12  2  0
 12 13  1  0
 13 14  2  0
 14 15  1  0
 15 16  2  0
 16 17  1  0
 17 18  2  0
 18 19  1  0
 19 20  2  0
  6 21  1  0
 21 22  2  0
 22 23  1  0
 23 24  1  0
 22  3  1  0
 20 11  1  0
 19 14  1  0
  1 25  1  0
  1 26  1  0
  1 27  1  0
  4 28  1  0
  5 29  1  0
  7 30  1  0
 12 31  1  0
 13 32  1  0
 15 33  1  0
 16 34  1  0
 17 35  1  0
 18 36  1  0
 20 37  1  0
 21 38  1  0
 24 39  1  0
 24 40  1  0
 24 41  1  0
M  END
>  <UniqueID>  (46) 
45

>  <SMILES>  (46) 
COc1ccc(NS(=O)(=O)c2ccc3ccccc3c2)cc1OC

>  <Energy>  (46) 
47.78625095259174

>  <Genealogy>  (46) 
COc1ccc(NS(=O)(=O)c2ccc3ccccc3c2)cc1OC (3D coordinates assigned)
COc1ccc(NS(=O)(=O)c2ccc3ccccc3c2)cc1OC (optimized conformer: 47.78625095259174 kcal/mol)

>  <smiles>  (46) 
COc1ccc(NS(=O)(=O)c2ccc3ccccc3c2)cc1OC

>  <score_type>  (46) 
oracle

>  <origin>  (46) 
adgpu

>  <m_score__min__energy>  (46) 
-9.5999999999999996

>  <m_primary>  (46) 
energy

$$$$
46:0
     RDKit          3D

 33 35  0  0  0  0  0  0  0  0999 V2000
   -7.9652   23.1220  -31.3371 H   0  0  0  0  0  0  0  0  0  0  0  0
   -7.0420   22.5310  -31.2450 C   0  0  0  0  0  0  0  0  0  0  0  0
   -6.0290   23.0540  -30.5380 C   0  0  0  0  0  0  0  0  0  0  0  0
   -4.3900   22.3380  -30.3650 S   0  0  0  0  0  0  0  0  0  0  0  0
   -3.9190   23.8260  -29.4580 C   0  0  0  0  0  0  0  0  0  0  0  0
   -2.5680   24.0220  -29.0140 N   0  0  0  0  0  0  0  0  0  0  0  0
   -1.8150   23.5090  -29.5260 H   0  0  0  0  0  0  0  0  0  0  0  0
   -2.1890   24.8680  -27.9160 C   0  0  0  0  0  0  0  0  0  0  0  0
   -2.9150   24.8720  -26.7110 C   0  0  0  0  0  0  0  0  0  0  0  0
   -3.8055   24.2348  -26.6059 H   0  0  0  0  0  0  0  0  0  0  0  0
   -2.5090   25.6830  -25.6460 C   0  0  0  0  0  0  0  0  0  0  0  0
   -3.0870   25.6904  -24.7101 H   0  0  0  0  0  0  0  0  0  0  0  0
   -1.3700   26.4840  -25.7690 C   0  0  0  0  0  0  0  0  0  0  0  0
   -0.8620   27.4990  -24.4310 Cl  0  0  0  0  0  0  0  0  0  0  0  0
   -0.6310   26.4680  -26.9560 C   0  0  0  0  0  0  0  0  0  0  0  0
    0.2684   27.0940  -27.0516 H   0  0  0  0  0  0  0  0  0  0  0  0
   -1.0340   25.6570  -28.0220 C   0  0  0  0  0  0  0  0  0  0  0  0
   -0.4418   25.6378  -28.9488 H   0  0  0  0  0  0  0  0  0  0  0  0
   -4.8310   24.7400  -29.3300 N   0  0  0  0  0  0  0  0  0  0  0  0
   -4.6700   25.6740  -28.8910 H   0  0  0  0  0  0  0  0  0  0  0  0
   -6.0640   24.3660  -29.9160 C   0  0  0  0  0  0  0  0  0  0  0  0
   -7.0760   25.1170  -29.8970 O   0  0  0  0  0  0  0  0  0  0  0  0
   -6.9960   21.2110  -31.9080 C   0  0  0  0  0  0  0  0  0  0  0  0
   -5.9640   20.8710  -32.8020 C   0  0  0  0  0  0  0  0  0  0  0  0
   -5.1817   21.6065  -33.0408 H   0  0  0  0  0  0  0  0  0  0  0  0
   -5.9290   19.6020  -33.3880 C   0  0  0  0  0  0  0  0  0  0  0  0
   -5.1279   19.3468  -34.0973 H   0  0  0  0  0  0  0  0  0  0  0  0
   -6.9110   18.6560  -33.0740 C   0  0  0  0  0  0  0  0  0  0  0  0
   -6.8630   17.0640  -33.8090 Cl  0  0  0  0  0  0  0  0  0  0  0  0
   -7.9230   18.9780  -32.1650 C   0  0  0  0  0  0  0  0  0  0  0  0
   -8.6909   18.2323  -31.9115 H   0  0  0  0  0  0  0  0  0  0  0  0
   -7.9610   20.2470  -31.5770 C   0  0  0  0  0  0  0  0  0  0  0  0
   -8.7512   20.4905  -30.8516 H   0  0  0  0  0  0  0  0  0  0  0  0
  1  2  1  0
  2  3  2  0
  3  4  1  0
  4  5  1  0
  5  6  1  0
  6  7  1  0
  6  8  1  0
  8  9  2  0
  9 10  1  0
  9 11  1  0
 11 12  1  0
 11 13  2  0
 13 14  1  0
 13 15  1  0
 15 16  1  0
 15 17  2  0
 17 18  1  0
  5 19  2  0
 19 20  1  0
 19 21  1  0
 21 22  2  0
  2 23  1  0
 23 24  2  0
 24 25  1  0
 24 26  1  0
 26 27  1  0
 26 28  2  0
 28 29  1  0
 28 30  1  0
 30 31  1  0
 30 32  2  0
 32 33  1  0
 21  3  1  0
 32 23  1  0
 17  8  1  0
M  CHG  1  19   1
M  END
>  <UniqueID>  (47) 
46

>  <SMILES>  (47) 
O=C1[NH+]=C(Nc2ccc(Cl)cc2)S/C1=C\c1ccc(Cl)cc1

>  <Energy>  (47) 
64.31885300264337

>  <Genealogy>  (47) 
O=C1[NH+]=C(Nc2ccc(Cl)cc2)SC1=Cc1ccc(Cl)cc1 (protonated)
O=C1[NH+]=C(Nc2ccc(Cl)cc2)S/C1=C\c1ccc(Cl)cc1 (cis-trans isomerization)
O=C1[NH+]=C(Nc2ccc(Cl)cc2)S/C1=C\c1ccc(Cl)cc1 (3D coordinates assigned)
O=C1[NH+]=C(Nc2ccc(Cl)cc2)S/C1=C\c1ccc(Cl)cc1 (nonaromatic ring conformer: 64.31885300264337 kcal/mol)

>  <smiles>  (47) 
O=C1N=C(Nc2ccc(Cl)cc2)SC1=Cc1ccc(Cl)cc1

>  <score_type>  (47) 
oracle

>  <origin>  (47) 
adgpu

>  <m_score__min__energy>  (47) 
-8.2400000000000002

>  <m_primary>  (47) 
energy

$$$$
47:0
     RDKit          3D

 40 43  0  0  0  0  0  0  0  0999 V2000
   -1.2780   25.9540  -28.8370 O   0  0  0  0  0  0  0  0  0  0  0  0
   -1.6210   25.7520  -27.6390 C   0  0  0  0  0  0  0  0  0  0  0  0
   -2.7330   24.8830  -27.3480 N   0  0  0  0  0  0  0  0  0  0  0  0
   -3.4370   24.1230  -28.3440 C   0  0  0  0  0  0  0  0  0  0  0  0
   -2.7320   23.2000  -29.1290 C   0  0  0  0  0  0  0  0  0  0  0  0
   -3.3860   22.4650  -30.1220 C   0  0  0  0  0  0  0  0  0  0  0  0
   -4.7570   22.6520  -30.3550 C   0  0  0  0  0  0  0  0  0  0  0  0
   -5.4440   21.8730  -31.4040 C   0  0  0  0  0  0  0  0  0  0  0  0
   -6.3060   22.3920  -32.3000 N   0  0  0  0  0  0  0  0  0  0  0  0
   -6.7030   21.3850  -33.0630 N   0  0  0  0  0  0  0  0  0  0  0  0
   -6.0700   20.2890  -32.6040 C   0  0  0  0  0  0  0  0  0  0  0  0
   -6.2240   18.9350  -33.1700 C   0  0  0  0  0  0  0  0  0  0  0  0
   -5.4960   18.5510  -34.3050 C   0  0  0  0  0  0  0  0  0  0  0  0
   -5.6500   17.2670  -34.8340 C   0  0  0  0  0  0  0  0  0  0  0  0
   -6.5320   16.3770  -34.2200 C   0  0  0  0  0  0  0  0  0  0  0  0
   -7.2320   16.7610  -33.1200 N   0  0  0  0  0  0  0  0  0  0  0  0
   -7.1010   18.0050  -32.5870 C   0  0  0  0  0  0  0  0  0  0  0  0
   -5.2950   20.5820  -31.5850 O   0  0  0  0  0  0  0  0  0  0  0  0
   -5.4600   23.5940  -29.5860 C   0  0  0  0  0  0  0  0  0  0  0  0
   -4.8050   24.3290  -28.5940 C   0  0  0  0  0  0  0  0  0  0  0  0
   -0.8680   26.4280  -26.5560 C   0  0  0  0  0  0  0  0  0  0  0  0
   -1.2740   26.2660  -25.2190 C   0  0  0  0  0  0  0  0  0  0  0  0
   -0.5750   26.8910  -24.1820 C   0  0  0  0  0  0  0  0  0  0  0  0
    0.5430   27.6800  -24.4670 C   0  0  0  0  0  0  0  0  0  0  0  0
    1.4200   28.4630  -23.1660 Cl  0  0  0  0  0  0  0  0  0  0  0  0
    0.9650   27.8370  -25.7890 C   0  0  0  0  0  0  0  0  0  0  0  0
    0.2680   27.2140  -26.8290 C   0  0  0  0  0  0  0  0  0  0  0  0
   -3.0930   24.8260  -26.3700 H   0  0  0  0  0  0  0  0  0  0  0  0
   -1.6547   23.0528  -28.9621 H   0  0  0  0  0  0  0  0  0  0  0  0
   -2.8230   21.7364  -30.7238 H   0  0  0  0  0  0  0  0  0  0  0  0
   -4.8029   19.2613  -34.7795 H   0  0  0  0  0  0  0  0  0  0  0  0
   -5.0820   16.9610  -35.7249 H   0  0  0  0  0  0  0  0  0  0  0  0
   -6.6610   15.3632  -34.6268 H   0  0  0  0  0  0  0  0  0  0  0  0
   -7.6835   18.2841  -31.6966 H   0  0  0  0  0  0  0  0  0  0  0  0
   -6.5333   23.7543  -29.7657 H   0  0  0  0  0  0  0  0  0  0  0  0
   -5.3628   25.0726  -28.0058 H   0  0  0  0  0  0  0  0  0  0  0  0
   -2.1496   25.6418  -24.9872 H   0  0  0  0  0  0  0  0  0  0  0  0
   -0.9052   26.7617  -23.1407 H   0  0  0  0  0  0  0  0  0  0  0  0
    1.8486   28.4528  -26.0129 H   0  0  0  0  0  0  0  0  0  0  0  0
    0.6094   27.3388  -27.8672 H   0  0  0  0  0  0  0  0  0  0  0  0
  1  2  2  0
  2  3  1  0
  3  4  1  0
  4  5  2  0
  5  6  1  0
  6  7  2  0
  7  8  1  0
  8  9  2  0
  9 10  1  0
 10 11  2  0
 11 12  1  0
 12 13  2  0
 13 14  1  0
 14 15  2  0
 15 16  1  0
 16 17  2  0
 11 18  1  0
  7 19  1  0
 19 20  2  0
  2 21  1  0
 21 22  2  0
 22 23  1  0
 23 24  2  0
 24 25  1  0
 24 26  1  0
 26 27  2  0
 20  4  1  0
 27 21  1  0
 18  8  1  0
 17 12  1  0
  3 28  1  0
  5 29  1  0
  6 30  1  0
 13 31  1  0
 14 32  1  0
 15 33  1  0
 17 34  1  0
 19 35  1  0
 20 36  1  0
 22 37  1  0
 23 38  1  0
 26 39  1  0
 27 40  1  0
M  END
>  <UniqueID>  (48) 
47

>  <SMILES>  (48) 
O=C(Nc1ccc(-c2nnc(-c3cccnc3)o2)cc1)c1ccc(Cl)cc1

>  <Energy>  (48) 
87.61975436562365

>  <Genealogy>  (48) 
O=C(Nc1ccc(-c2nnc(-c3cccnc3)o2)cc1)c1ccc(Cl)cc1 (3D coordinates assigned)
O=C(Nc1ccc(-c2nnc(-c3cccnc3)o2)cc1)c1ccc(Cl)cc1 (optimized conformer: 87.61975436562365 kcal/mol)

>  <smiles>  (48) 
O=C(Nc1ccc(-c2nnc(-c3cccnc3)o2)cc1)c1ccc(Cl)cc1

>  <score_type>  (48) 
oracle

>  <origin>  (48) 
adgpu

>  <m_score__min__energy>  (48) 
-7.9699999999999998

>  <m_primary>  (48) 
energy

$$$$
