0:0
     RDKit          3D

 54 55  0  0  0  0  0  0  0  0999 V2000
   -0.8360   25.7280  -24.7700 C   0  0  0  0  0  0  0  0  0  0  0  0
   -0.4670   24.6550  -25.7940 C   0  0  0  0  0  0  0  0  0  0  0  0
   -1.5650   24.4280  -26.7620 N   0  0  0  0  0  0  0  0  0  0  0  0
   -2.7350   25.2860  -26.4670 C   0  0  0  0  0  0  0  0  0  0  0  0
   -4.0270   24.5440  -26.8040 C   0  0  0  0  0  0  0  0  0  0  0  0
   -1.0280   24.6720  -28.4190 S   0  0  0  0  0  0  0  0  0  0  0  0
    0.4500   24.4100  -28.5230 O   0  0  0  0  0  0  0  0  0  0  0  0
   -1.2600   26.1040  -28.8180 O   0  0  0  0  0  0  0  0  0  0  0  0
   -1.8640   23.6070  -29.5560 C   0  0  0  0  0  0  0  0  0  0  0  0
   -3.1910   23.8690  -29.9240 C   0  0  0  0  0  0  0  0  0  0  0  0
   -3.8510   23.0310  -30.8280 C   0  0  0  0  0  0  0  0  0  0  0  0
   -3.1940   21.9220  -31.3830 C   0  0  0  0  0  0  0  0  0  0  0  0
   -3.9060   21.0620  -32.2890 N   0  0  0  0  0  0  0  0  0  0  0  0
   -3.4930   19.7290  -32.6360 C   0  0  0  0  0  0  0  0  0  0  0  0
   -2.3070   19.3550  -32.4250 O   0  0  0  0  0  0  0  0  0  0  0  0
   -4.4410   18.7960  -33.3350 C   0  0  2  0  0  0  0  0  0  0  0  0
   -3.7550   18.1850  -34.5620 C   0  0  0  0  0  0  0  0  0  0  0  0
   -5.6130   19.5240  -33.7180 O   0  0  0  0  0  0  0  0  0  0  0  0
   -6.7810   19.6720  -32.9470 C   0  0  0  0  0  0  0  0  0  0  0  0
   -7.5650   18.5260  -32.7380 C   0  0  0  0  0  0  0  0  0  0  0  0
   -8.7180   18.5830  -31.9510 C   0  0  0  0  0  0  0  0  0  0  0  0
   -9.1150   19.7970  -31.3830 C   0  0  0  0  0  0  0  0  0  0  0  0
   -8.3670   20.9580  -31.6080 C   0  0  0  0  0  0  0  0  0  0  0  0
   -7.2010   20.9140  -32.4040 C   0  0  0  0  0  0  0  0  0  0  0  0
   -6.4740   22.0800  -32.6940 O   0  0  0  0  0  0  0  0  0  0  0  0
   -6.8320   23.3950  -32.2670 C   0  0  0  0  0  0  0  0  0  0  0  0
   -1.8730   21.6430  -30.9850 C   0  0  0  0  0  0  0  0  0  0  0  0
   -1.2130   22.4820  -30.0830 C   0  0  0  0  0  0  0  0  0  0  0  0
   -0.6986   25.3284  -23.7544 H   0  0  0  0  0  0  0  0  0  0  0  0
   -0.1882   26.6060  -24.9093 H   0  0  0  0  0  0  0  0  0  0  0  0
   -1.8868   26.0219  -24.9093 H   0  0  0  0  0  0  0  0  0  0  0  0
    0.4312   24.9771  -26.3413 H   0  0  0  0  0  0  0  0  0  0  0  0
   -0.2811   23.7138  -25.2559 H   0  0  0  0  0  0  0  0  0  0  0  0
   -2.7339   25.5483  -25.3987 H   0  0  0  0  0  0  0  0  0  0  0  0
   -2.6747   26.1998  -27.0763 H   0  0  0  0  0  0  0  0  0  0  0  0
   -4.5355   24.2519  -25.8734 H   0  0  0  0  0  0  0  0  0  0  0  0
   -4.6852   25.2017  -27.3907 H   0  0  0  0  0  0  0  0  0  0  0  0
   -3.7906   23.6440  -27.3907 H   0  0  0  0  0  0  0  0  0  0  0  0
   -3.7155   24.7378  -29.4997 H   0  0  0  0  0  0  0  0  0  0  0  0
   -4.8939   23.2427  -31.1065 H   0  0  0  0  0  0  0  0  0  0  0  0
   -4.7530   21.4490  -32.7670 H   0  0  0  0  0  0  0  0  0  0  0  0
   -4.7321   17.9777  -32.6600 H   0  0  0  0  0  0  0  0  0  0  0  0
   -2.9710   17.4867  -34.2340 H   0  0  0  0  0  0  0  0  0  0  0  0
   -4.4982   17.6442  -35.1663 H   0  0  0  0  0  0  0  0  0  0  0  0
   -3.3035   18.9856  -35.1663 H   0  0  0  0  0  0  0  0  0  0  0  0
   -7.2680   17.5725  -33.1991 H   0  0  0  0  0  0  0  0  0  0  0  0
   -9.3126   17.6738  -31.7786 H   0  0  0  0  0  0  0  0  0  0  0  0
  -10.0185   19.8398  -30.7570 H   0  0  0  0  0  0  0  0  0  0  0  0
   -8.6890   21.9107  -31.1623 H   0  0  0  0  0  0  0  0  0  0  0  0
   -6.8425   23.4334  -31.1677 H   0  0  0  0  0  0  0  0  0  0  0  0
   -6.0980   24.1181  -32.6522 H   0  0  0  0  0  0  0  0  0  0  0  0
   -7.8312   23.6463  -32.6522 H   0  0  0  0  0  0  0  0  0  0  0  0
   -1.3567   20.7586  -31.3866 H   0  0  0  0  0  0  0  0  0  0  0  0
   -0.1779   22.2590  -29.7849 H   0  0  0  0  0  0  0  0  0  0  0  0
  1  2  1  0
  2  3  1  0
  3  4  1  0
  4  5  1  0
  3  6  1  0
  6  7  2  0
  6  8  2  0
  6  9  1  0
  9 10  2  0
 10 11  1  0
 11 12  2  0
 12 13  1  0
 13 14  1  0
 14 15  2  0
 14 16  1  0
 16 17  1  0
 16 18  1  0
 18 19  1  0
 19 20  2  0
 20 21  1  0
 21 22  2  0
 22 23  1  0
 23 24  2  0
 24 25  1  0
 25 26  1  0
 12 27  1  0
 27 28  2  0
 28  9  1  0
 24 19  1  0
  1 29  1  0
  1 30  1  0
  1 31  1  0
  2 32  1  0
  2 33  1  0
  4 34  1  0
  4 35  1  0
  5 36  1  0
  5 37  1  0
  5 38  1  0
 10 39  1  0
 11 40  1  0
 13 41  1  0
 16 42  1  1
 17 43  1  0
 17 44  1  0
 17 45  1  0
 20 46  1  0
 21 47  1  0
 22 48  1  0
 23 49  1  0
 26 50  1  0
 26 51  1  0
 26 52  1  0
 27 53  1  0
 28 54  1  0
M  END
>  <UniqueID>  (1) 
1

>  <SMILES>  (1) 
CCN(CC)S(=O)(=O)c1ccc(NC(=O)[C@H](C)Oc2ccccc2OC)cc1

>  <Energy>  (1) 
56.88632100911822

>  <Genealogy>  (1) 
CCN(CC)S(=O)(=O)c1ccc(NC(=O)[C@H](C)Oc2ccccc2OC)cc1 (chirality)
CCN(CC)S(=O)(=O)c1ccc(NC(=O)[C@H](C)Oc2ccccc2OC)cc1 (3D coordinates assigned)
CCN(CC)S(=O)(=O)c1ccc(NC(=O)[C@H](C)Oc2ccccc2OC)cc1 (optimized conformer: 56.88632100911822 kcal/mol)

>  <smiles>  (1) 
CCN(CC)S(=O)(=O)c1ccc(NC(=O)C(C)Oc2ccccc2OC)cc1

>  <score_type>  (1) 
oracle

>  <origin>  (1) 
adgpu

>  <m_score__min__energy>  (1) 
-8.5800000000000001

>  <m_primary>  (1) 
energy

$$$$
1:0
     RDKit          3D

 34 35  0  0  0  0  0  0  0  0999 V2000
   -3.4940   24.8780  -31.4410 H   0  0  0  0  0  0  0  0  0  0  0  0
   -3.8640   25.5730  -30.8360 O   0  0  0  0  0  0  0  0  0  0  0  0
   -4.8340   24.9450  -30.0410 C   0  0  2  0  0  0  0  0  0  0  0  0
   -4.9208   25.4878  -29.0882 H   0  0  0  0  0  0  0  0  0  0  0  0
   -4.4130   23.4960  -29.7240 C   0  0  0  0  0  0  0  0  0  0  0  0
   -4.1165   23.4340  -28.6665 H   0  0  0  0  0  0  0  0  0  0  0  0
   -5.2684   22.8366  -29.9325 H   0  0  0  0  0  0  0  0  0  0  0  0
   -3.2910   23.0650  -30.5570 N   0  0  0  0  0  0  0  0  0  0  0  0
   -3.3690   22.0850  -31.4020 C   0  0  0  0  0  0  0  0  0  0  0  0
   -4.3210   21.5489  -31.5298 H   0  0  0  0  0  0  0  0  0  0  0  0
   -2.1960   21.6850  -32.1900 C   0  0  0  0  0  0  0  0  0  0  0  0
   -0.9350   21.4090  -31.6920 C   0  0  0  0  0  0  0  0  0  0  0  0
   -0.6152   21.4517  -30.6404 H   0  0  0  0  0  0  0  0  0  0  0  0
   -0.1590   21.0690  -32.7830 C   0  0  0  0  0  0  0  0  0  0  0  0
    0.9043   20.7876  -32.7705 H   0  0  0  0  0  0  0  0  0  0  0  0
   -0.9770   21.1510  -33.8920 C   0  0  0  0  0  0  0  0  0  0  0  0
   -0.6616   20.9404  -34.9246 H   0  0  0  0  0  0  0  0  0  0  0  0
   -2.2160   21.5260  -33.5260 N   0  0  0  0  0  0  0  0  0  0  0  0
   -3.0330   21.6640  -34.1610 H   0  0  0  0  0  0  0  0  0  0  0  0
   -6.2030   24.9870  -30.7400 C   0  0  0  0  0  0  0  0  0  0  0  0
   -6.9775   24.6487  -30.0359 H   0  0  0  0  0  0  0  0  0  0  0  0
   -6.4017   26.0198  -31.0623 H   0  0  0  0  0  0  0  0  0  0  0  0
   -6.2140   24.1390  -31.8910 O   0  0  0  0  0  0  0  0  0  0  0  0
   -6.7680   22.8490  -31.9600 C   0  0  0  0  0  0  0  0  0  0  0  0
   -7.9580   22.6060  -31.2600 C   0  0  0  0  0  0  0  0  0  0  0  0
   -8.4262   23.4173  -30.6832 H   0  0  0  0  0  0  0  0  0  0  0  0
   -8.5550   21.3430  -31.2880 C   0  0  0  0  0  0  0  0  0  0  0  0
   -9.4908   21.1656  -30.7377 H   0  0  0  0  0  0  0  0  0  0  0  0
   -7.9650   20.3050  -32.0140 C   0  0  0  0  0  0  0  0  0  0  0  0
   -8.7810   18.5790  -32.0530 Br  0  0  0  0  0  0  0  0  0  0  0  0
   -6.7750   20.5320  -32.7130 C   0  0  0  0  0  0  0  0  0  0  0  0
   -6.3101   19.7155  -33.2851 H   0  0  0  0  0  0  0  0  0  0  0  0
   -6.1750   21.7950  -32.6860 C   0  0  0  0  0  0  0  0  0  0  0  0
   -5.2365   21.9672  -33.2333 H   0  0  0  0  0  0  0  0  0  0  0  0
  1  2  1  0
  2  3  1  0
  3  4  1  1
  3  5  1  0
  5  6  1  0
  5  7  1  0
  5  8  1  0
  8  9  2  0
  9 10  1  0
  9 11  1  0
 11 12  2  0
 12 13  1  0
 12 14  1  0
 14 15  1  0
 14 16  2  0
 16 17  1  0
 16 18  1  0
 18 19  1  0
  3 20  1  0
 20 21  1  0
 20 22  1  0
 20 23  1  0
 23 24  1  0
 24 25  2  0
 25 26  1  0
 25 27  1  0
 27 28  1  0
 27 29  2  0
 29 30  1  0
 29 31  1  0
 31 32  1  0
 31 33  2  0
 33 34  1  0
 18 11  1  0
 33 24  1  0
M  END
>  <UniqueID>  (2) 
2

>  <SMILES>  (2) 
O[C@H](C/N=C/c1ccc[nH]1)COc1ccc(Br)cc1

>  <Energy>  (2) 
54.814432294132956

>  <Genealogy>  (2) 
O[C@H](CN=Cc1ccc[nH]1)COc1ccc(Br)cc1 (chirality)
O[C@H](C/N=C/c1ccc[nH]1)COc1ccc(Br)cc1 (cis-trans isomerization)
O[C@H](C/N=C/c1ccc[nH]1)COc1ccc(Br)cc1 (3D coordinates assigned)
O[C@H](C/N=C/c1ccc[nH]1)COc1ccc(Br)cc1 (optimized conformer: 54.814432294132956 kcal/mol)

>  <smiles>  (2) 
OC(CN=Cc1ccc[nH]1)COc1ccc(Br)cc1

>  <score_type>  (2) 
oracle

>  <origin>  (2) 
adgpu

>  <m_score__min__energy>  (2) 
-7.6699999999999999

>  <m_primary>  (2) 
energy

$$$$
2:0
     RDKit          3D

 30 32  0  0  0  0  0  0  0  0999 V2000
   -7.5560   17.2820  -32.7170 N   0  0  0  0  0  0  0  0  0  0  0  0
   -8.0400   18.6070  -32.4750 C   0  0  0  0  0  0  0  0  0  0  0  0
   -9.3930   18.9100  -32.6730 C   0  0  0  0  0  0  0  0  0  0  0  0
   -9.8640   20.2040  -32.4410 C   0  0  0  0  0  0  0  0  0  0  0  0
   -8.9880   21.2020  -32.0080 C   0  0  0  0  0  0  0  0  0  0  0  0
   -7.6260   20.9170  -31.8020 C   0  0  0  0  0  0  0  0  0  0  0  0
   -6.6940   21.9780  -31.3410 C   0  0  0  0  0  0  0  0  0  0  0  0
   -7.1350   23.3080  -31.2150 C   0  0  0  0  0  0  0  0  0  0  0  0
   -6.2630   24.3100  -30.7840 C   0  0  0  0  0  0  0  0  0  0  0  0
   -4.9330   24.0020  -30.4690 C   0  0  0  0  0  0  0  0  0  0  0  0
   -4.0500   25.0020  -30.0340 C   0  0  0  0  0  0  0  0  0  0  0  0
   -2.7250   24.6810  -29.7200 C   0  0  0  0  0  0  0  0  0  0  0  0
   -1.8540   25.6740  -29.2890 O   0  0  0  0  0  0  0  0  0  0  0  0
   -2.2750   23.3620  -29.8380 C   0  0  0  0  0  0  0  0  0  0  0  0
   -3.1450   22.3570  -30.2710 C   0  0  0  0  0  0  0  0  0  0  0  0
   -4.4770   22.6670  -30.5890 C   0  0  0  0  0  0  0  0  0  0  0  0
   -5.3590   21.6660  -31.0240 C   0  0  0  0  0  0  0  0  0  0  0  0
   -7.1610   19.6100  -32.0400 C   0  0  0  0  0  0  0  0  0  0  0  0
   -7.5470   16.8840  -33.6820 H   0  0  0  0  0  0  0  0  0  0  0  0
   -7.2040   16.6900  -31.9320 H   0  0  0  0  0  0  0  0  0  0  0  0
  -10.0866   18.1265  -33.0122 H   0  0  0  0  0  0  0  0  0  0  0  0
  -10.9271   20.4378  -32.5996 H   0  0  0  0  0  0  0  0  0  0  0  0
   -9.3662   22.2189  -31.8266 H   0  0  0  0  0  0  0  0  0  0  0  0
   -8.1774   23.5612  -31.4585 H   0  0  0  0  0  0  0  0  0  0  0  0
   -6.6219   25.3457  -30.6914 H   0  0  0  0  0  0  0  0  0  0  0  0
   -4.4003   26.0405  -29.9397 H   0  0  0  0  0  0  0  0  0  0  0  0
   -1.2325   23.1144  -29.5891 H   0  0  0  0  0  0  0  0  0  0  0  0
   -2.7854   21.3215  -30.3627 H   0  0  0  0  0  0  0  0  0  0  0  0
   -5.0039   20.6291  -31.1179 H   0  0  0  0  0  0  0  0  0  0  0  0
   -6.0983   19.3728  -31.8834 H   0  0  0  0  0  0  0  0  0  0  0  0
  1  2  1  0
  2  3  2  0
  3  4  1  0
  4  5  2  0
  5  6  1  0
  6  7  1  0
  7  8  2  0
  8  9  1  0
  9 10  2  0
 10 11  1  0
 11 12  2  0
 12 13  1  0
 12 14  1  0
 14 15  2  0
 15 16  1  0
 16 17  2  0
  6 18  2  0
 18  2  1  0
 17  7  1  0
 16 10  1  0
  1 19  1  0
  1 20  1  0
  3 21  1  0
  4 22  1  0
  5 23  1  0
  8 24  1  0
  9 25  1  0
 11 26  1  0
 14 27  1  0
 15 28  1  0
 17 29  1  0
 18 30  1  0
M  CHG  1  13  -1
M  END
>  <UniqueID>  (3) 
3

>  <SMILES>  (3) 
Nc1cccc(-c2ccc3cc([O-])ccc3c2)c1

>  <Energy>  (3) 
40.283995902225726

>  <Genealogy>  (3) 
Nc1cccc(-c2ccc3cc([O-])ccc3c2)c1 (protonated)
Nc1cccc(-c2ccc3cc([O-])ccc3c2)c1 (3D coordinates assigned)
Nc1cccc(-c2ccc3cc([O-])ccc3c2)c1 (optimized conformer: 40.283995902225726 kcal/mol)

>  <smiles>  (3) 
Nc1cccc(-c2ccc3cc(O)ccc3c2)c1

>  <score_type>  (3) 
oracle

>  <origin>  (3) 
adgpu

>  <m_score__min__energy>  (3) 
-9.7300000000000004

>  <m_primary>  (3) 
energy

$$$$
3:0
     RDKit          3D

 33 35  0  0  0  0  0  0  0  0999 V2000
   -4.2110   24.1670  -28.2540 Cl  0  0  0  0  0  0  0  0  0  0  0  0
   -4.6390   23.5420  -29.8370 C   0  0  0  0  0  0  0  0  0  0  0  0
   -3.7410   22.7280  -30.5330 C   0  0  0  0  0  0  0  0  0  0  0  0
   -4.0810   22.2310  -31.7940 C   0  0  0  0  0  0  0  0  0  0  0  0
   -2.9520   21.2110  -32.6670 Cl  0  0  0  0  0  0  0  0  0  0  0  0
   -5.3200   22.5470  -32.3610 C   0  0  0  0  0  0  0  0  0  0  0  0
   -6.2380   23.3570  -31.6640 C   0  0  0  0  0  0  0  0  0  0  0  0
   -7.5300   23.6890  -32.2100 N   0  0  0  0  0  0  0  0  0  0  0  0
   -8.7640   22.9580  -31.9230 C   0  0  0  0  0  0  0  0  0  0  0  0
   -8.5150   21.4830  -31.9750 C   0  0  0  0  0  0  0  0  0  0  0  0
   -9.1150   20.5200  -31.2000 C   0  0  0  0  0  0  0  0  0  0  0  0
   -8.5930   19.3200  -31.5210 N   0  0  0  0  0  0  0  0  0  0  0  0
   -7.6910   19.6140  -32.4840 C   0  0  0  0  0  0  0  0  0  0  0  0
   -6.8430   18.6070  -33.1530 C   0  0  0  0  0  0  0  0  0  0  0  0
   -6.8780   17.2590  -32.7530 C   0  0  0  0  0  0  0  0  0  0  0  0
   -6.0690   16.3140  -33.3910 C   0  0  0  0  0  0  0  0  0  0  0  0
   -5.2190   16.7030  -34.4290 C   0  0  0  0  0  0  0  0  0  0  0  0
   -5.1770   18.0400  -34.8310 C   0  0  0  0  0  0  0  0  0  0  0  0
   -5.9840   18.9900  -34.1980 C   0  0  0  0  0  0  0  0  0  0  0  0
   -7.6420   20.9000  -32.7560 O   0  0  0  0  0  0  0  0  0  0  0  0
   -5.8810   23.8560  -30.4000 C   0  0  0  0  0  0  0  0  0  0  0  0
   -2.7664   22.4785  -30.0881 H   0  0  0  0  0  0  0  0  0  0  0  0
   -5.5793   22.1605  -33.3577 H   0  0  0  0  0  0  0  0  0  0  0  0
   -7.6110   24.5370  -32.8180 H   0  0  0  0  0  0  0  0  0  0  0  0
   -9.1229   23.2308  -30.9196 H   0  0  0  0  0  0  0  0  0  0  0  0
   -9.5206   23.2211  -32.6769 H   0  0  0  0  0  0  0  0  0  0  0  0
   -9.8927   20.6991  -30.4429 H   0  0  0  0  0  0  0  0  0  0  0  0
   -7.5443   16.9472  -31.9352 H   0  0  0  0  0  0  0  0  0  0  0  0
   -6.1019   15.2610  -33.0746 H   0  0  0  0  0  0  0  0  0  0  0  0
   -4.5835   15.9573  -34.9292 H   0  0  0  0  0  0  0  0  0  0  0  0
   -4.5071   18.3463  -35.6479 H   0  0  0  0  0  0  0  0  0  0  0  0
   -5.9467   20.0415  -34.5189 H   0  0  0  0  0  0  0  0  0  0  0  0
   -6.5833   24.4985  -29.8487 H   0  0  0  0  0  0  0  0  0  0  0  0
  1  2  1  0
  2  3  2  0
  3  4  1  0
  4  5  1  0
  4  6  2  0
  6  7  1  0
  7  8  1  0
  8  9  1  0
  9 10  1  0
 10 11  2  0
 11 12  1  0
 12 13  2  0
 13 14  1  0
 14 15  2  0
 15 16  1  0
 16 17  2  0
 17 18  1  0
 18 19  2  0
 13 20  1  0
  7 21  2  0
 21  2  1  0
 20 10  1  0
 19 14  1  0
  3 22  1  0
  6 23  1  0
  8 24  1  0
  9 25  1  0
  9 26  1  0
 11 27  1  0
 15 28  1  0
 16 29  1  0
 17 30  1  0
 18 31  1  0
 19 32  1  0
 21 33  1  0
M  END
>  <UniqueID>  (4) 
4

>  <SMILES>  (4) 
Clc1cc(Cl)cc(NCc2cnc(-c3ccccc3)o2)c1

>  <Energy>  (4) 
63.28970665804668

>  <Genealogy>  (4) 
Clc1cc(Cl)cc(NCc2cnc(-c3ccccc3)o2)c1 (3D coordinates assigned)
Clc1cc(Cl)cc(NCc2cnc(-c3ccccc3)o2)c1 (optimized conformer: 63.28970665804668 kcal/mol)

>  <smiles>  (4) 
Clc1cc(Cl)cc(NCc2cnc(-c3ccccc3)o2)c1

>  <score_type>  (4) 
oracle

>  <origin>  (4) 
adgpu

>  <m_score__min__energy>  (4) 
-7.6500000000000004

>  <m_primary>  (4) 
energy

$$$$
4:0
     RDKit          3D

 32 33  0  0  0  0  0  0  0  0999 V2000
   -9.6313   22.5088  -31.4109 H   0  0  0  0  0  0  0  0  0  0  0  0
   -8.5790   22.2450  -31.5930 C   0  0  0  0  0  0  0  0  0  0  0  0
   -8.2650   21.0940  -32.3190 C   0  0  0  0  0  0  0  0  0  0  0  0
   -9.0696   20.4515  -32.7061 H   0  0  0  0  0  0  0  0  0  0  0  0
   -6.9280   20.7580  -32.5540 C   0  0  0  0  0  0  0  0  0  0  0  0
   -6.5350   19.3130  -33.4680 Cl  0  0  0  0  0  0  0  0  0  0  0  0
   -5.9040   21.5740  -32.0600 C   0  0  0  0  0  0  0  0  0  0  0  0
   -4.8532   21.3071  -32.2462 H   0  0  0  0  0  0  0  0  0  0  0  0
   -6.2120   22.7330  -31.3270 C   0  0  0  0  0  0  0  0  0  0  0  0
   -5.1280   23.5910  -30.8080 C   0  0  0  0  0  0  0  0  0  0  0  0
   -4.9090   24.8640  -31.1980 N   0  0  0  0  0  0  0  0  0  0  0  0
   -3.8590   25.2930  -30.5150 N   0  0  0  0  0  0  0  0  0  0  0  0
   -3.4830   24.2600  -29.7370 C   0  0  0  0  0  0  0  0  0  0  0  0
   -2.4810   24.2860  -28.9110 N   0  0  0  0  0  0  0  0  0  0  0  0
   -1.6060   25.4410  -28.7160 C   0  0  0  0  0  0  0  0  0  0  0  0
   -2.2101   26.3007  -28.3904 H   0  0  0  0  0  0  0  0  0  0  0  0
   -1.1017   25.6671  -29.6671 H   0  0  0  0  0  0  0  0  0  0  0  0
   -0.5420   25.1420  -27.6530 C   0  0  0  0  0  0  0  0  0  0  0  0
   -1.0027   24.5739  -26.8314 H   0  0  0  0  0  0  0  0  0  0  0  0
   -0.1384   26.0950  -27.2804 H   0  0  0  0  0  0  0  0  0  0  0  0
    0.5670   24.3500  -28.2280 N   0  0  0  0  0  0  0  0  0  0  0  0
    1.8110   24.6010  -27.4830 C   0  0  0  0  0  0  0  0  0  0  0  0
    1.6063   24.5597  -26.4030 H   0  0  0  0  0  0  0  0  0  0  0  0
    2.5559   23.8351  -27.7446 H   0  0  0  0  0  0  0  0  0  0  0  0
    2.2007   25.5959  -27.7446 H   0  0  0  0  0  0  0  0  0  0  0  0
    0.2600   22.9090  -28.1940 C   0  0  0  0  0  0  0  0  0  0  0  0
    0.1886   22.5739  -27.1487 H   0  0  0  0  0  0  0  0  0  0  0  0
   -0.6973   22.7259  -28.7039 H   0  0  0  0  0  0  0  0  0  0  0  0
    1.0596   22.3516  -28.7039 H   0  0  0  0  0  0  0  0  0  0  0  0
   -4.2510   23.2140  -29.9060 O   0  0  0  0  0  0  0  0  0  0  0  0
   -7.5590   23.0630  -31.0970 C   0  0  0  0  0  0  0  0  0  0  0  0
   -7.8116   23.9679  -30.5248 H   0  0  0  0  0  0  0  0  0  0  0  0
  1  2  1  0
  2  3  2  0
  3  4  1  0
  3  5  1  0
  5  6  1  0
  5  7  2  0
  7  8  1  0
  7  9  1  0
  9 10  1  0
 10 11  2  0
 11 12  1  0
 12 13  1  0
 13 14  2  0
 14 15  1  0
 15 16  1  0
 15 17  1  0
 15 18  1  0
 18 19  1  0
 18 20  1  0
 18 21  1  0
 21 22  1  0
 22 23  1  0
 22 24  1  0
 22 25  1  0
 21 26  1  0
 26 27  1  0
 26 28  1  0
 26 29  1  0
 13 30  1  0
  9 31  2  0
 31 32  1  0
 31  2  1  0
 30 10  1  0
M  CHG  1  12  -1
M  END
>  <UniqueID>  (5) 
5

>  <SMILES>  (5) 
CN(C)CC/N=c1\[n-]nc(-c2cccc(Cl)c2)o1

>  <Energy>  (5) 
65.7201241505793

>  <Genealogy>  (5) 
CN(C)CCN=c1[n-]nc(-c2cccc(Cl)c2)o1 (protonated)
CN(C)CC/N=c1\[n-]nc(-c2cccc(Cl)c2)o1 (cis-trans isomerization)
CN(C)CC/N=c1\[n-]nc(-c2cccc(Cl)c2)o1 (3D coordinates assigned)
CN(C)CC/N=c1\[n-]nc(-c2cccc(Cl)c2)o1 (optimized conformer: 65.7201241505793 kcal/mol)

>  <smiles>  (5) 
CN(C)CCN=c1[nH]nc(-c2cccc(Cl)c2)o1

>  <score_type>  (5) 
oracle

>  <origin>  (5) 
adgpu

>  <m_score__min__energy>  (5) 
-8.4100000000000001

>  <m_primary>  (5) 
energy

$$$$
5:0
     RDKit          3D

 12 13  0  0  0  0  0  0  0  0999 V2000
   -5.9510   20.2410  -31.9490 Br  0  0  0  0  0  0  0  0  0  0  0  0
   -5.0050   21.8040  -31.3800 C   0  0  0  0  0  0  0  0  0  0  0  0
   -3.6810   21.6500  -30.8500 C   0  0  0  0  0  0  0  0  0  0  0  0
   -2.9340   22.7750  -30.4120 C   0  0  0  0  0  0  0  0  0  0  0  0
   -1.1720   22.6240  -29.6980 Br  0  0  0  0  0  0  0  0  0  0  0  0
   -3.5760   23.9910  -30.5400 C   0  0  0  0  0  0  0  0  0  0  0  0
   -3.4930   25.2960  -30.3580 O   0  0  0  0  0  0  0  0  0  0  0  0
   -4.7070   25.4580  -30.8430 N   0  0  0  0  0  0  0  0  0  0  0  0
   -4.8050   24.1360  -31.0340 C   0  0  0  0  0  0  0  0  0  0  0  0
   -5.5990   23.0960  -31.4810 C   0  0  0  0  0  0  0  0  0  0  0  0
   -7.3530   23.4160  -32.1720 Br  0  0  0  0  0  0  0  0  0  0  0  0
   -3.2380   20.6455  -30.7819 H   0  0  0  0  0  0  0  0  0  0  0  0
  1  2  1  0
  2  3  2  0
  3  4  1  0
  4  5  1  0
  4  6  2  0
  6  7  1  0
  7  8  1  0
  8  9  1  0
  9 10  2  0
 10 11  1  0
 10  2  1  0
  9  6  1  0
  3 12  1  0
M  CHG  1   8  -1
M  END
>  <UniqueID>  (6) 
6

>  <SMILES>  (6) 
Brc1cc(Br)c2o[n-]c2c1Br

>  <Energy>  (6) 
31.23846488492653

>  <Genealogy>  (6) 
Brc1cc(Br)c2o[n-]c2c1Br (protonated)
Brc1cc(Br)c2o[n-]c2c1Br (3D coordinates assigned)
Brc1cc(Br)c2o[n-]c2c1Br (optimized conformer: 31.23846488492653 kcal/mol)

>  <smiles>  (6) 
Brc1cc(Br)c2o[nH]c2c1Br

>  <score_type>  (6) 
oracle

>  <origin>  (6) 
adgpu

>  <m_score__min__energy>  (6) 
-8.2200000000000006

>  <m_primary>  (6) 
energy

$$$$
6:0
     RDKit          3D

 41 42  0  0  0  0  0  0  0  0999 V2000
   -5.9920   14.9010  -34.0020 C   0  0  0  0  0  0  0  0  0  0  0  0
   -6.2950   16.1630  -34.5870 O   0  0  0  0  0  0  0  0  0  0  0  0
   -6.1070   17.3990  -33.9490 C   0  0  0  0  0  0  0  0  0  0  0  0
   -4.8970   18.0640  -34.1430 C   0  0  0  0  0  0  0  0  0  0  0  0
   -4.6600   19.2980  -33.5390 C   0  0  0  0  0  0  0  0  0  0  0  0
   -5.6290   19.8890  -32.7040 C   0  0  0  0  0  0  0  0  0  0  0  0
   -5.4160   21.1310  -32.0760 O   0  0  0  0  0  0  0  0  0  0  0  0
   -4.1540   21.7290  -31.7660 C   0  0  0  0  0  0  0  0  0  0  0  0
   -4.1680   22.3740  -30.3760 C   0  0  0  0  0  0  0  0  0  0  0  0
   -5.0870   23.5140  -30.3160 N   0  0  0  0  0  0  0  0  0  0  0  0
   -4.7420   24.8160  -30.3530 C   0  0  0  0  0  0  0  0  0  0  0  0
   -3.4340   25.2720  -30.4690 O   0  0  0  0  0  0  0  0  0  0  0  0
   -5.8520   25.6290  -30.2520 C   0  0  0  0  0  0  0  0  0  0  0  0
   -6.9390   24.7800  -30.1450 C   0  0  0  0  0  0  0  0  0  0  0  0
   -6.4320   23.4960  -30.1840 C   0  0  0  0  0  0  0  0  0  0  0  0
   -7.2120   22.3460  -30.0850 O   0  0  0  0  0  0  0  0  0  0  0  0
   -6.8590   19.2210  -32.4950 C   0  0  0  0  0  0  0  0  0  0  0  0
   -7.9450   19.8340  -31.6190 C   0  0  0  0  0  0  0  0  0  0  0  0
   -8.5710   21.0530  -32.3050 C   0  0  0  0  0  0  0  0  0  0  0  0
   -9.0180   18.8040  -31.2410 C   0  0  0  0  0  0  0  0  0  0  0  0
   -7.0880   17.9840  -33.1310 C   0  0  0  0  0  0  0  0  0  0  0  0
   -6.0135   14.9904  -32.9058 H   0  0  0  0  0  0  0  0  0  0  0  0
   -6.7375   14.1591  -34.3241 H   0  0  0  0  0  0  0  0  0  0  0  0
   -4.9909   14.5784  -34.3241 H   0  0  0  0  0  0  0  0  0  0  0  0
   -4.1220   17.6107  -34.7786 H   0  0  0  0  0  0  0  0  0  0  0  0
   -3.7059   19.8160  -33.7163 H   0  0  0  0  0  0  0  0  0  0  0  0
   -3.3742   20.9537  -31.7931 H   0  0  0  0  0  0  0  0  0  0  0  0
   -3.9502   22.5133  -32.5099 H   0  0  0  0  0  0  0  0  0  0  0  0
   -4.4838   21.6224  -29.6375 H   0  0  0  0  0  0  0  0  0  0  0  0
   -3.1538   22.7397  -30.1577 H   0  0  0  0  0  0  0  0  0  0  0  0
   -5.8692   26.7289  -30.2558 H   0  0  0  0  0  0  0  0  0  0  0  0
   -7.9957   25.0697  -30.0482 H   0  0  0  0  0  0  0  0  0  0  0  0
   -6.9430   21.4740  -30.5200 H   0  0  0  0  0  0  0  0  0  0  0  0
   -7.4696   20.1684  -30.6851 H   0  0  0  0  0  0  0  0  0  0  0  0
   -8.9329   21.7576  -31.5418 H   0  0  0  0  0  0  0  0  0  0  0  0
   -7.8158   21.5485  -32.9328 H   0  0  0  0  0  0  0  0  0  0  0  0
   -9.4137   20.7279  -32.9328 H   0  0  0  0  0  0  0  0  0  0  0  0
   -9.0901   18.7348  -30.1455 H   0  0  0  0  0  0  0  0  0  0  0  0
   -9.9885   19.1174  -31.6533 H   0  0  0  0  0  0  0  0  0  0  0  0
   -8.7445   17.8215  -31.6533 H   0  0  0  0  0  0  0  0  0  0  0  0
   -8.0490   17.4692  -32.9847 H   0  0  0  0  0  0  0  0  0  0  0  0
  1  2  1  0
  2  3  1  0
  3  4  2  0
  4  5  1  0
  5  6  2  0
  6  7  1  0
  7  8  1  0
  8  9  1  0
  9 10  1  0
 10 11  1  0
 11 12  1  0
 11 13  2  0
 13 14  1  0
 14 15  2  0
 15 16  1  0
  6 17  1  0
 17 18  1  0
 18 19  1  0
 18 20  1  0
 17 21  2  0
 21  3  1  0
 15 10  1  0
  1 22  1  0
  1 23  1  0
  1 24  1  0
  4 25  1  0
  5 26  1  0
  8 27  1  0
  8 28  1  0
  9 29  1  0
  9 30  1  0
 13 31  1  0
 14 32  1  0
 16 33  1  0
 18 34  1  0
 19 35  1  0
 19 36  1  0
 19 37  1  0
 20 38  1  0
 20 39  1  0
 20 40  1  0
 21 41  1  0
M  CHG  1  12  -1
M  END
>  <UniqueID>  (7) 
7

>  <SMILES>  (7) 
COc1ccc(OCCn2c([O-])ccc2O)c(C(C)C)c1

>  <Energy>  (7) 
62.48715725699684

>  <Genealogy>  (7) 
COc1ccc(OCCn2c([O-])ccc2O)c(C(C)C)c1 (protonated)
COc1ccc(OCCn2c([O-])ccc2O)c(C(C)C)c1 (3D coordinates assigned)
COc1ccc(OCCn2c([O-])ccc2O)c(C(C)C)c1 (optimized conformer: 62.48715725699684 kcal/mol)

>  <smiles>  (7) 
COc1ccc(OCCn2c(O)ccc2O)c(C(C)C)c1

>  <score_type>  (7) 
oracle

>  <origin>  (7) 
adgpu

>  <m_score__min__energy>  (7) 
-9.3699999999999992

>  <m_primary>  (7) 
energy

$$$$
7:0
     RDKit          3D

 45 47  0  0  0  0  0  0  0  0999 V2000
   -4.5790   15.0730  -34.1850 C   0  0  0  0  0  0  0  0  0  0  0  0
   -5.0530   16.4140  -33.8100 N   0  0  0  0  0  0  0  0  0  0  0  0
   -6.4690   16.3690  -33.4110 C   0  0  0  0  0  0  0  0  0  0  0  0
   -6.8290   17.6920  -32.7370 C   0  0  0  0  0  0  0  0  0  0  0  0
   -6.2450   18.8210  -33.4690 N   0  0  0  0  0  0  0  0  0  0  0  0
   -6.3170   20.1340  -32.8950 C   0  0  0  0  0  0  0  0  0  0  0  0
   -7.5670   20.6720  -32.5670 C   0  0  0  0  0  0  0  0  0  0  0  0
   -7.6640   21.9450  -32.0000 C   0  0  0  0  0  0  0  0  0  0  0  0
   -6.5060   22.7040  -31.7540 C   0  0  0  0  0  0  0  0  0  0  0  0
   -6.5700   24.0200  -31.1710 N   0  0  0  0  0  0  0  0  0  0  0  0
   -6.3150   24.2850  -29.7530 C   0  0  0  0  0  0  0  0  0  0  0  0
   -4.9220   23.8480  -29.3680 C   0  0  0  0  0  0  0  0  0  0  0  0
   -4.7610   22.7420  -28.5130 C   0  0  0  0  0  0  0  0  0  0  0  0
   -3.4850   22.3190  -28.1340 C   0  0  0  0  0  0  0  0  0  0  0  0
   -2.3560   22.9960  -28.5970 C   0  0  0  0  0  0  0  0  0  0  0  0
   -2.5010   24.1030  -29.4350 C   0  0  0  0  0  0  0  0  0  0  0  0
   -3.7740   24.5430  -29.8210 C   0  0  0  0  0  0  0  0  0  0  0  0
   -3.8610   25.6670  -30.6440 O   0  0  0  0  0  0  0  0  0  0  0  0
   -5.2550   22.1650  -32.0920 C   0  0  0  0  0  0  0  0  0  0  0  0
   -5.1550   20.8890  -32.6600 C   0  0  0  0  0  0  0  0  0  0  0  0
   -3.5660   20.2800  -33.1010 Cl  0  0  0  0  0  0  0  0  0  0  0  0
   -5.7110   18.6380  -34.8220 C   0  0  0  0  0  0  0  0  0  0  0  0
   -4.8320   17.3700  -34.9210 C   0  0  0  0  0  0  0  0  0  0  0  0
   -4.3727   14.4894  -33.2757 H   0  0  0  0  0  0  0  0  0  0  0  0
   -5.3517   14.5640  -34.7799 H   0  0  0  0  0  0  0  0  0  0  0  0
   -3.6581   15.1627  -34.7799 H   0  0  0  0  0  0  0  0  0  0  0  0
   -7.0999   16.2226  -34.3001 H   0  0  0  0  0  0  0  0  0  0  0  0
   -6.6361   15.5349  -32.7136 H   0  0  0  0  0  0  0  0  0  0  0  0
   -7.9234   17.8014  -32.7172 H   0  0  0  0  0  0  0  0  0  0  0  0
   -6.4279   17.6884  -31.7127 H   0  0  0  0  0  0  0  0  0  0  0  0
   -8.4796   20.0881  -32.7571 H   0  0  0  0  0  0  0  0  0  0  0  0
   -8.6518   22.3560  -31.7445 H   0  0  0  0  0  0  0  0  0  0  0  0
   -6.8100   24.8240  -31.7960 H   0  0  0  0  0  0  0  0  0  0  0  0
   -6.4201   25.3634  -29.5631 H   0  0  0  0  0  0  0  0  0  0  0  0
   -7.0412   23.7178  -29.1522 H   0  0  0  0  0  0  0  0  0  0  0  0
   -5.6467   22.2066  -28.1404 H   0  0  0  0  0  0  0  0  0  0  0  0
   -3.3698   21.4503  -27.4691 H   0  0  0  0  0  0  0  0  0  0  0  0
   -1.3519   22.6574  -28.3017 H   0  0  0  0  0  0  0  0  0  0  0  0
   -1.6080   24.6346  -29.7955 H   0  0  0  0  0  0  0  0  0  0  0  0
   -4.1900   25.6310  -31.6000 H   0  0  0  0  0  0  0  0  0  0  0  0
   -4.3427   22.7516  -31.9086 H   0  0  0  0  0  0  0  0  0  0  0  0
   -6.5500   18.5465  -35.5274 H   0  0  0  0  0  0  0  0  0  0  0  0
   -5.0857   19.5096  -35.0656 H   0  0  0  0  0  0  0  0  0  0  0  0
   -5.0590   16.8612  -35.8695 H   0  0  0  0  0  0  0  0  0  0  0  0
   -3.7829   17.6962  -34.8657 H   0  0  0  0  0  0  0  0  0  0  0  0
  1  2  1  0
  2  3  1  0
  3  4  1  0
  4  5  1  0
  5  6  1  0
  6  7  2  0
  7  8  1  0
  8  9  2  0
  9 10  1  0
 10 11  1  0
 11 12  1  0
 12 13  2  0
 13 14  1  0
 14 15  2  0
 15 16  1  0
 16 17  2  0
 17 18  1  0
  9 19  1  0
 19 20  2  0
 20 21  1  0
  5 22  1  0
 22 23  1  0
 23  2  1  0
 20  6  1  0
 17 12  1  0
  1 24  1  0
  1 25  1  0
  1 26  1  0
  3 27  1  0
  3 28  1  0
  4 29  1  0
  4 30  1  0
  7 31  1  0
  8 32  1  0
 10 33  1  0
 11 34  1  0
 11 35  1  0
 13 36  1  0
 14 37  1  0
 15 38  1  0
 16 39  1  0
 18 40  1  0
 19 41  1  0
 22 42  1  0
 22 43  1  0
 23 44  1  0
 23 45  1  0
M  END
>  <UniqueID>  (8) 
8

>  <SMILES>  (8) 
CN1CCN(c2ccc(NCc3ccccc3O)cc2Cl)CC1

>  <Energy>  (8) 
57.590464003050585

>  <Genealogy>  (8) 
CN1CCN(c2ccc(NCc3ccccc3O)cc2Cl)CC1 (3D coordinates assigned)
CN1CCN(c2ccc(NCc3ccccc3O)cc2Cl)CC1 (nonaromatic ring conformer: 57.590464003050585 kcal/mol)

>  <smiles>  (8) 
CN1CCN(c2ccc(NCc3ccccc3O)cc2Cl)CC1

>  <score_type>  (8) 
oracle

>  <origin>  (8) 
adgpu

>  <m_score__min__energy>  (8) 
-9.3800000000000008

>  <m_primary>  (8) 
energy

$$$$
8:0
     RDKit          3D

 46 48  0  0  0  0  0  0  0  0999 V2000
    0.7740   22.0240  -35.6430 C   0  0  0  0  0  0  0  0  0  0  0  0
    0.6240   21.6940  -34.2660 O   0  0  0  0  0  0  0  0  0  0  0  0
   -0.5480   21.1700  -33.6990 C   0  0  0  0  0  0  0  0  0  0  0  0
   -0.8790   21.5420  -32.3910 C   0  0  0  0  0  0  0  0  0  0  0  0
   -2.0350   21.0450  -31.7830 C   0  0  0  0  0  0  0  0  0  0  0  0
   -2.8800   20.1670  -32.4730 C   0  0  0  0  0  0  0  0  0  0  0  0
   -4.0570   19.6850  -31.8110 N   0  0  0  0  0  0  0  0  0  0  0  0
   -5.6830   19.9160  -32.3700 S   0  0  0  0  0  0  0  0  0  0  0  0
   -6.5740   18.8690  -31.7630 O   0  0  0  0  0  0  0  0  0  0  0  0
   -5.7080   19.8130  -33.8690 O   0  0  0  0  0  0  0  0  0  0  0  0
   -6.2710   21.5090  -31.8960 C   0  0  0  0  0  0  0  0  0  0  0  0
   -5.3730   22.5120  -31.4970 C   0  0  0  0  0  0  0  0  0  0  0  0
   -5.8400   23.7840  -31.1170 C   0  0  0  0  0  0  0  0  0  0  0  0
   -4.8900   24.8410  -30.6980 C   0  0  0  0  0  0  0  0  0  0  0  0
   -5.3030   26.0120  -30.4740 O   0  0  0  0  0  0  0  0  0  0  0  0
   -3.4990   24.5380  -30.5440 N   0  0  0  0  0  0  0  0  0  0  0  0
   -2.8220   24.5520  -29.2550 C   0  0  0  0  0  0  0  0  0  0  0  0
   -2.4220   23.1520  -28.8910 C   0  0  0  0  0  0  0  0  0  0  0  0
   -3.3970   22.1990  -28.5480 C   0  0  0  0  0  0  0  0  0  0  0  0
   -3.0230   20.8860  -28.2470 C   0  0  0  0  0  0  0  0  0  0  0  0
   -1.6770   20.5110  -28.3000 C   0  0  0  0  0  0  0  0  0  0  0  0
   -1.3160   19.2350  -28.0150 F   0  0  0  0  0  0  0  0  0  0  0  0
   -0.7030   21.4480  -28.6570 C   0  0  0  0  0  0  0  0  0  0  0  0
   -1.0720   22.7640  -28.9560 C   0  0  0  0  0  0  0  0  0  0  0  0
   -7.2230   24.0370  -31.1430 C   0  0  0  0  0  0  0  0  0  0  0  0
   -8.1180   23.0400  -31.5370 C   0  0  0  0  0  0  0  0  0  0  0  0
   -7.6470   21.7800  -31.9120 C   0  0  0  0  0  0  0  0  0  0  0  0
   -8.5340   20.8250  -32.2890 F   0  0  0  0  0  0  0  0  0  0  0  0
   -2.5510   19.7890  -33.7870 C   0  0  0  0  0  0  0  0  0  0  0  0
   -1.3950   20.2890  -34.3960 C   0  0  0  0  0  0  0  0  0  0  0  0
    1.2276   23.0220  -35.7336 H   0  0  0  0  0  0  0  0  0  0  0  0
    1.4228   21.2808  -36.1296 H   0  0  0  0  0  0  0  0  0  0  0  0
   -0.2125   22.0241  -36.1296 H   0  0  0  0  0  0  0  0  0  0  0  0
   -0.2242   22.2309  -31.8373 H   0  0  0  0  0  0  0  0  0  0  0  0
   -2.2831   21.3458  -30.7544 H   0  0  0  0  0  0  0  0  0  0  0  0
   -4.2935   22.3013  -31.4813 H   0  0  0  0  0  0  0  0  0  0  0  0
   -1.9253   25.1861  -29.3175 H   0  0  0  0  0  0  0  0  0  0  0  0
   -3.4991   24.9538  -28.4869 H   0  0  0  0  0  0  0  0  0  0  0  0
   -4.4580   22.4875  -28.5163 H   0  0  0  0  0  0  0  0  0  0  0  0
   -3.7886   20.1470  -27.9681 H   0  0  0  0  0  0  0  0  0  0  0  0
    0.3549   21.1503  -28.7029 H   0  0  0  0  0  0  0  0  0  0  0  0
   -0.3038   23.4973  -29.2428 H   0  0  0  0  0  0  0  0  0  0  0  0
   -7.6026   25.0273  -30.8509 H   0  0  0  0  0  0  0  0  0  0  0  0
   -9.1981   23.2480  -31.5520 H   0  0  0  0  0  0  0  0  0  0  0  0
   -3.2052   19.0974  -34.3381 H   0  0  0  0  0  0  0  0  0  0  0  0
   -1.1469   19.9916  -35.4256 H   0  0  0  0  0  0  0  0  0  0  0  0
  1  2  1  0
  2  3  1  0
  3  4  2  0
  4  5  1  0
  5  6  2  0
  6  7  1  0
  7  8  1  0
  8  9  2  0
  8 10  2  0
  8 11  1  0
 11 12  2  0
 12 13  1  0
 13 14  1  0
 14 15  2  0
 14 16  1  0
 16 17  1  0
 17 18  1  0
 18 19  2  0
 19 20  1  0
 20 21  2  0
 21 22  1  0
 21 23  1  0
 23 24  2  0
 13 25  2  0
 25 26  1  0
 26 27  2  0
 27 28  1  0
  6 29  1  0
 29 30  2  0
 30  3  1  0
 27 11  1  0
 24 18  1  0
  1 31  1  0
  1 32  1  0
  1 33  1  0
  4 34  1  0
  5 35  1  0
 12 36  1  0
 17 37  1  0
 17 38  1  0
 19 39  1  0
 20 40  1  0
 23 41  1  0
 24 42  1  0
 25 43  1  0
 26 44  1  0
 29 45  1  0
 30 46  1  0
M  CHG  2   7  -1  16  -1
M  END
>  <UniqueID>  (9) 
9

>  <SMILES>  (9) 
COc1ccc([N-]S(=O)(=O)c2cc(C(=O)[N-]Cc3ccc(F)cc3)ccc2F)cc1

>  <Energy>  (9) 
50.81520566880671

>  <Genealogy>  (9) 
COc1ccc([N-]S(=O)(=O)c2cc(C(=O)[N-]Cc3ccc(F)cc3)ccc2F)cc1 (protonated)
COc1ccc([N-]S(=O)(=O)c2cc(C(=O)[N-]Cc3ccc(F)cc3)ccc2F)cc1 (3D coordinates assigned)
COc1ccc([N-]S(=O)(=O)c2cc(C(=O)[N-]Cc3ccc(F)cc3)ccc2F)cc1 (optimized conformer: 50.81520566880671 kcal/mol)

>  <smiles>  (9) 
COc1ccc(NS(=O)(=O)c2cc(C(=O)NCc3ccc(F)cc3)ccc2F)cc1

>  <score_type>  (9) 
oracle

>  <origin>  (9) 
adgpu

>  <m_score__min__energy>  (9) 
-10.210000000000001

>  <m_primary>  (9) 
energy

$$$$
9:0
     RDKit          3D

 47 49  0  0  0  0  0  0  0  0999 V2000
   -1.8320   25.3020  -29.3380 O   0  0  0  0  0  0  0  0  0  0  0  0
   -3.0220   24.8930  -29.3030 C   0  0  0  0  0  0  0  0  0  0  0  0
   -3.5160   24.1880  -28.0700 C   0  0  0  0  0  0  0  0  0  0  0  0
   -3.8300   22.8280  -28.3660 O   0  0  0  0  0  0  0  0  0  0  0  0
   -2.9210   21.7580  -28.3110 C   0  0  0  0  0  0  0  0  0  0  0  0
   -1.8050   21.7930  -29.1570 C   0  0  0  0  0  0  0  0  0  0  0  0
   -0.8690   20.7540  -29.1420 C   0  0  0  0  0  0  0  0  0  0  0  0
   -1.0410   19.6680  -28.2780 C   0  0  0  0  0  0  0  0  0  0  0  0
    0.1330   18.3650  -28.2590 Cl  0  0  0  0  0  0  0  0  0  0  0  0
   -2.1530   19.6220  -27.4310 C   0  0  0  0  0  0  0  0  0  0  0  0
   -3.0910   20.6590  -27.4450 C   0  0  0  0  0  0  0  0  0  0  0  0
   -3.8800   25.1690  -30.4170 N   0  0  0  0  0  0  0  0  0  0  0  0
   -4.8990   24.3050  -30.9380 C   0  0  0  0  0  0  0  0  0  0  0  0
   -6.2580   24.6590  -30.8930 C   0  0  0  0  0  0  0  0  0  0  0  0
   -7.2280   23.7840  -31.3870 C   0  0  0  0  0  0  0  0  0  0  0  0
   -6.8530   22.5440  -31.9120 C   0  0  0  0  0  0  0  0  0  0  0  0
   -5.5040   22.1680  -31.9320 C   0  0  0  0  0  0  0  0  0  0  0  0
   -5.0200   20.6030  -32.5780 S   0  0  0  0  0  0  0  0  0  0  0  0
   -4.6440   19.7080  -31.4300 O   0  0  0  0  0  0  0  0  0  0  0  0
   -3.8310   20.7760  -33.4820 O   0  0  0  0  0  0  0  0  0  0  0  0
   -6.3540   19.9100  -33.4750 N   0  0  0  0  0  0  0  0  0  0  0  0
   -5.9050   18.8440  -34.4070 C   0  0  0  0  0  0  0  0  0  0  0  0
   -6.4950   17.4560  -34.1040 C   0  0  0  0  0  0  0  0  0  0  0  0
   -6.4450   17.1670  -32.6060 C   0  0  0  0  0  0  0  0  0  0  0  0
   -7.1870   18.2400  -31.7880 C   0  0  0  0  0  0  0  0  0  0  0  0
   -7.4710   19.5250  -32.5890 C   0  0  0  0  0  0  0  0  0  0  0  0
   -4.5310   23.0500  -31.4390 C   0  0  0  0  0  0  0  0  0  0  0  0
   -2.7341   24.2193  -27.2969 H   0  0  0  0  0  0  0  0  0  0  0  0
   -4.4243   24.6934  -27.7101 H   0  0  0  0  0  0  0  0  0  0  0  0
   -1.6637   22.6447  -29.8387 H   0  0  0  0  0  0  0  0  0  0  0  0
    0.0036   20.7911  -29.8107 H   0  0  0  0  0  0  0  0  0  0  0  0
   -2.2901   18.7676  -26.7519 H   0  0  0  0  0  0  0  0  0  0  0  0
   -3.9646   20.6169  -26.7778 H   0  0  0  0  0  0  0  0  0  0  0  0
   -6.5587   25.6278  -30.4676 H   0  0  0  0  0  0  0  0  0  0  0  0
   -8.2895   24.0713  -31.3629 H   0  0  0  0  0  0  0  0  0  0  0  0
   -7.6189   21.8622  -32.3102 H   0  0  0  0  0  0  0  0  0  0  0  0
   -6.2007   19.1299  -35.4272 H   0  0  0  0  0  0  0  0  0  0  0  0
   -4.8147   18.7580  -34.2893 H   0  0  0  0  0  0  0  0  0  0  0  0
   -7.5409   17.4257  -34.4434 H   0  0  0  0  0  0  0  0  0  0  0  0
   -5.9016   16.6951  -34.6322 H   0  0  0  0  0  0  0  0  0  0  0  0
   -6.9125   16.1894  -32.4168 H   0  0  0  0  0  0  0  0  0  0  0  0
   -5.3902   17.1698  -32.2938 H   0  0  0  0  0  0  0  0  0  0  0  0
   -8.1456   17.8203  -31.4489 H   0  0  0  0  0  0  0  0  0  0  0  0
   -6.5362   18.5170  -30.9456 H   0  0  0  0  0  0  0  0  0  0  0  0
   -8.3677   19.3632  -33.2052 H   0  0  0  0  0  0  0  0  0  0  0  0
   -7.6130   20.3404  -31.8644 H   0  0  0  0  0  0  0  0  0  0  0  0
   -3.4716   22.7539  -31.4459 H   0  0  0  0  0  0  0  0  0  0  0  0
  1  2  2  0
  2  3  1  0
  3  4  1  0
  4  5  1  0
  5  6  2  0
  6  7  1  0
  7  8  2  0
  8  9  1  0
  8 10  1  0
 10 11  2  0
  2 12  1  0
 12 13  1  0
 13 14  2  0
 14 15  1  0
 15 16  2  0
 16 17  1  0
 17 18  1  0
 18 19  2  0
 18 20  2  0
 18 21  1  0
 21 22  1  0
 22 23  1  0
 23 24  1  0
 24 25  1  0
 25 26  1  0
 17 27  2  0
 11  5  1  0
 27 13  1  0
 26 21  1  0
  3 28  1  0
  3 29  1  0
  6 30  1  0
  7 31  1  0
 10 32  1  0
 11 33  1  0
 14 34  1  0
 15 35  1  0
 16 36  1  0
 22 37  1  0
 22 38  1  0
 23 39  1  0
 23 40  1  0
 24 41  1  0
 24 42  1  0
 25 43  1  0
 25 44  1  0
 26 45  1  0
 26 46  1  0
 27 47  1  0
M  CHG  1  12  -1
M  END
>  <UniqueID>  (10) 
10

>  <SMILES>  (10) 
O=C(COc1ccc(Cl)cc1)[N-]c1cccc(S(=O)(=O)N2CCCCC2)c1

>  <Energy>  (10) 
58.97598034543738

>  <Genealogy>  (10) 
O=C(COc1ccc(Cl)cc1)[N-]c1cccc(S(=O)(=O)N2CCCCC2)c1 (protonated)
O=C(COc1ccc(Cl)cc1)[N-]c1cccc(S(=O)(=O)N2CCCCC2)c1 (3D coordinates assigned)
O=C(COc1ccc(Cl)cc1)[N-]c1cccc(S(=O)(=O)N2CCCCC2)c1 (nonaromatic ring conformer: 58.97598034543738 kcal/mol)

>  <smiles>  (10) 
O=C(COc1ccc(Cl)cc1)Nc1cccc(S(=O)(=O)N2CCCCC2)c1

>  <score_type>  (10) 
oracle

>  <origin>  (10) 
adgpu

>  <m_score__min__energy>  (10) 
-11.109999999999999

>  <m_primary>  (10) 
energy

$$$$
10:0
     RDKit          3D

 43 46  0  0  0  0  0  0  0  0999 V2000
    1.6716   20.3849  -32.6545 H   0  0  0  0  0  0  0  0  0  0  0  0
    0.5820   20.3700  -32.8050 C   0  0  0  0  0  0  0  0  0  0  0  0
    0.0390   20.7910  -34.0220 C   0  0  0  0  0  0  0  0  0  0  0  0
    0.7018   21.1395  -34.8278 H   0  0  0  0  0  0  0  0  0  0  0  0
   -1.3450   20.7700  -34.2170 C   0  0  0  0  0  0  0  0  0  0  0  0
   -1.7688   21.1076  -35.1743 H   0  0  0  0  0  0  0  0  0  0  0  0
   -2.1970   20.3190  -33.1940 C   0  0  0  0  0  0  0  0  0  0  0  0
   -3.6880   20.3350  -33.3910 C   0  0  0  0  0  0  0  0  0  0  0  0
   -4.1047   19.3629  -33.0889 H   0  0  0  0  0  0  0  0  0  0  0  0
   -3.9075   20.5247  -34.4520 H   0  0  0  0  0  0  0  0  0  0  0  0
   -4.3090   21.4190  -32.5620 C   0  0  0  0  0  0  0  0  0  0  0  0
   -3.6300   22.4300  -31.8950 C   0  0  0  0  0  0  0  0  0  0  0  0
   -2.5441   22.5973  -31.9491 H   0  0  0  0  0  0  0  0  0  0  0  0
   -4.4920   23.1820  -31.1680 N   0  0  0  0  0  0  0  0  0  0  0  0
   -4.1120   24.3240  -30.3770 C   0  0  0  0  0  0  0  0  0  0  0  0
   -4.2110   25.4800  -30.8730 O   0  0  0  0  0  0  0  0  0  0  0  0
   -3.6620   24.1520  -29.0240 N   0  0  0  0  0  0  0  0  0  0  0  0
   -2.5510   24.6040  -28.5200 C   0  0  0  0  0  0  0  0  0  0  0  0
   -1.6280   25.3140  -29.1980 N   0  0  0  0  0  0  0  0  0  0  0  0
   -0.6510   25.5830  -28.3480 N   0  0  0  0  0  0  0  0  0  0  0  0
    0.2060   26.1250  -28.5920 H   0  0  0  0  0  0  0  0  0  0  0  0
   -0.9380   25.0560  -27.1420 C   0  0  0  0  0  0  0  0  0  0  0  0
   -0.3031   25.1251  -26.2464 H   0  0  0  0  0  0  0  0  0  0  0  0
   -2.1570   24.4160  -27.2130 C   0  0  0  0  0  0  0  0  0  0  0  0
   -2.6902   23.8807  -26.4136 H   0  0  0  0  0  0  0  0  0  0  0  0
   -5.7180   22.6340  -31.3540 C   0  0  0  0  0  0  0  0  0  0  0  0
   -6.9420   22.9940  -30.7740 C   0  0  0  0  0  0  0  0  0  0  0  0
   -7.0078   23.8446  -30.0796 H   0  0  0  0  0  0  0  0  0  0  0  0
   -8.0830   22.2420  -31.1010 C   0  0  0  0  0  0  0  0  0  0  0  0
   -9.0560   22.5137  -30.6658 H   0  0  0  0  0  0  0  0  0  0  0  0
   -7.9950   21.1350  -31.9870 C   0  0  0  0  0  0  0  0  0  0  0  0
   -9.1120   20.3620  -32.3360 O   0  0  0  0  0  0  0  0  0  0  0  0
   -9.1310   18.9380  -32.3460 C   0  0  0  0  0  0  0  0  0  0  0  0
   -9.1360   18.5641  -31.3115 H   0  0  0  0  0  0  0  0  0  0  0  0
  -10.0339   18.5870  -32.8671 H   0  0  0  0  0  0  0  0  0  0  0  0
   -8.2378   18.5630  -32.8671 H   0  0  0  0  0  0  0  0  0  0  0  0
   -6.7490   20.7880  -32.5390 C   0  0  0  0  0  0  0  0  0  0  0  0
   -6.6562   19.9317  -33.2233 H   0  0  0  0  0  0  0  0  0  0  0  0
   -5.6340   21.5530  -32.2000 C   0  0  0  0  0  0  0  0  0  0  0  0
   -1.6440   19.9070  -31.9700 C   0  0  0  0  0  0  0  0  0  0  0  0
   -2.3032   19.5649  -31.1586 H   0  0  0  0  0  0  0  0  0  0  0  0
   -0.2590   19.9300  -31.7790 C   0  0  0  0  0  0  0  0  0  0  0  0
    0.1690   19.6015  -30.8204 H   0  0  0  0  0  0  0  0  0  0  0  0
  1  2  1  0
  2  3  2  0
  3  4  1  0
  3  5  1  0
  5  6  1  0
  5  7  2  0
  7  8  1  0
  8  9  1  0
  8 10  1  0
  8 11  1  0
 11 12  2  0
 12 13  1  0
 12 14  1  0
 14 15  1  0
 15 16  2  0
 15 17  1  0
 17 18  2  0
 18 19  1  0
 19 20  1  0
 20 21  1  0
 20 22  1  0
 22 23  1  0
 22 24  2  0
 24 25  1  0
 14 26  1  0
 26 27  2  0
 27 28  1  0
 27 29  1  0
 29 30  1  0
 29 31  2  0
 31 32  1  0
 32 33  1  0
 33 34  1  0
 33 35  1  0
 33 36  1  0
 31 37  1  0
 37 38  1  0
 37 39  2  0
  7 40  1  0
 40 41  1  0
 40 42  2  0
 42 43  1  0
 42  2  1  0
 39 11  1  0
 24 18  1  0
 39 26  1  0
M  CHG  1  19  -1
M  END
>  <UniqueID>  (11) 
11

>  <SMILES>  (11) 
COc1ccc2c(c1)c(Cc1ccccc1)cn2C(=O)/N=c1/cc[nH][n-]1

>  <Energy>  (11) 
113.17737737482153

>  <Genealogy>  (11) 
COc1ccc2c(c1)c(Cc1ccccc1)cn2C(=O)N=c1cc[nH][n-]1 (protonated)
COc1ccc2c(c1)c(Cc1ccccc1)cn2C(=O)/N=c1/cc[nH][n-]1 (cis-trans isomerization)
COc1ccc2c(c1)c(Cc1ccccc1)cn2C(=O)/N=c1/cc[nH][n-]1 (3D coordinates assigned)
COc1ccc2c(c1)c(Cc1ccccc1)cn2C(=O)/N=c1/cc[nH][n-]1 (optimized conformer: 113.17737737482153 kcal/mol)

>  <smiles>  (11) 
COc1ccc2c(c1)c(Cc1ccccc1)cn2C(=O)N=c1cc[nH][nH]1

>  <score_type>  (11) 
oracle

>  <origin>  (11) 
adgpu

>  <m_score__min__energy>  (11) 
-10.640000000000001

>  <m_primary>  (11) 
energy

$$$$
11:0
     RDKit          3D

 45 48  0  0  0  0  0  0  0  0999 V2000
   -1.4030   20.5130  -26.4590 Cl  0  0  0  0  0  0  0  0  0  0  0  0
   -1.4880   22.0600  -27.2800 C   0  0  0  0  0  0  0  0  0  0  0  0
   -0.4550   22.9900  -27.1270 C   0  0  0  0  0  0  0  0  0  0  0  0
   -0.5220   24.2230  -27.7800 C   0  0  0  0  0  0  0  0  0  0  0  0
   -1.6200   24.5310  -28.5880 C   0  0  0  0  0  0  0  0  0  0  0  0
   -2.6650   23.6040  -28.7510 C   0  0  0  0  0  0  0  0  0  0  0  0
   -3.8280   23.9280  -29.6050 C   0  0  0  0  0  0  0  0  0  0  0  0
   -3.8350   24.9160  -30.5230 N   0  0  0  0  0  0  0  0  0  0  0  0
   -5.0190   24.8760  -31.0510 O   0  0  0  0  0  0  0  0  0  0  0  0
   -5.7180   23.9180  -30.4930 C   0  0  0  0  0  0  0  0  0  0  0  0
   -7.1320   23.5710  -30.8650 C   0  0  0  0  0  0  0  0  0  0  0  0
   -7.2630   23.3240  -32.3860 C   0  0  0  0  0  0  0  0  0  0  0  0
   -7.1970   21.8280  -32.7150 C   0  0  0  0  0  0  0  0  0  0  0  0
   -8.3050   21.0660  -32.0760 N   0  0  0  0  0  0  0  0  0  0  0  0
   -7.9760   19.6260  -31.9750 C   0  0  0  0  0  0  0  0  0  0  0  0
   -6.6140   19.3400  -32.5550 C   0  0  0  0  0  0  0  0  0  0  0  0
   -5.4600   19.5860  -31.7930 C   0  0  0  0  0  0  0  0  0  0  0  0
   -4.1960   19.2990  -32.3190 C   0  0  0  0  0  0  0  0  0  0  0  0
   -4.0770   18.7610  -33.6030 C   0  0  0  0  0  0  0  0  0  0  0  0
   -5.2210   18.5060  -34.3630 C   0  0  0  0  0  0  0  0  0  0  0  0
   -6.4870   18.7920  -33.8420 C   0  0  0  0  0  0  0  0  0  0  0  0
   -8.7400   21.6160  -30.7640 C   0  0  0  0  0  0  0  0  0  0  0  0
   -7.6150   22.3620  -30.0340 C   0  0  0  0  0  0  0  0  0  0  0  0
   -5.0050   23.2670  -29.5550 N   0  0  0  0  0  0  0  0  0  0  0  0
   -2.5900   22.3650  -28.0890 C   0  0  0  0  0  0  0  0  0  0  0  0
    0.4108   22.7505  -26.4921 H   0  0  0  0  0  0  0  0  0  0  0  0
    0.2914   24.9534  -27.6580 H   0  0  0  0  0  0  0  0  0  0  0  0
   -1.6671   25.5038  -29.0993 H   0  0  0  0  0  0  0  0  0  0  0  0
   -7.7840   24.4246  -30.6276 H   0  0  0  0  0  0  0  0  0  0  0  0
   -8.2270   23.7249  -32.7324 H   0  0  0  0  0  0  0  0  0  0  0  0
   -6.4271   23.8282  -32.8930 H   0  0  0  0  0  0  0  0  0  0  0  0
   -7.2619   21.7012  -33.8057 H   0  0  0  0  0  0  0  0  0  0  0  0
   -6.2463   21.4363  -32.3243 H   0  0  0  0  0  0  0  0  0  0  0  0
   -7.9856   19.3284  -30.9161 H   0  0  0  0  0  0  0  0  0  0  0  0
   -8.7253   19.0551  -32.5430 H   0  0  0  0  0  0  0  0  0  0  0  0
   -5.5504   20.0054  -30.7801 H   0  0  0  0  0  0  0  0  0  0  0  0
   -3.2944   19.4972  -31.7209 H   0  0  0  0  0  0  0  0  0  0  0  0
   -3.0820   18.5381  -34.0156 H   0  0  0  0  0  0  0  0  0  0  0  0
   -5.1260   18.0797  -35.3726 H   0  0  0  0  0  0  0  0  0  0  0  0
   -7.3860   18.5872  -34.4419 H   0  0  0  0  0  0  0  0  0  0  0  0
   -9.5732   22.3139  -30.9335 H   0  0  0  0  0  0  0  0  0  0  0  0
   -9.0425   20.7684  -30.1315 H   0  0  0  0  0  0  0  0  0  0  0  0
   -7.9889   22.7179  -29.0626 H   0  0  0  0  0  0  0  0  0  0  0  0
   -6.7701   21.6728  -29.8888 H   0  0  0  0  0  0  0  0  0  0  0  0
   -3.4013   21.6316  -28.2073 H   0  0  0  0  0  0  0  0  0  0  0  0
  1  2  1  0
  2  3  2  0
  3  4  1  0
  4  5  2  0
  5  6  1  0
  6  7  1  0
  7  8  2  0
  8  9  1  0
  9 10  1  0
 10 11  1  0
 11 12  1  0
 12 13  1  0
 13 14  1  0
 14 15  1  0
 15 16  1  0
 16 17  2  0
 17 18  1  0
 18 19  2  0
 19 20  1  0
 20 21  2  0
 14 22  1  0
 22 23  1  0
 10 24  2  0
  6 25  2  0
 25  2  1  0
 24  7  1  0
 23 11  1  0
 21 16  1  0
  3 26  1  0
  4 27  1  0
  5 28  1  0
 11 29  1  0
 12 30  1  0
 12 31  1  0
 13 32  1  0
 13 33  1  0
 15 34  1  0
 15 35  1  0
 17 36  1  0
 18 37  1  0
 19 38  1  0
 20 39  1  0
 21 40  1  0
 22 41  1  0
 22 42  1  0
 23 43  1  0
 23 44  1  0
 25 45  1  0
M  END
>  <UniqueID>  (12) 
12

>  <SMILES>  (12) 
Clc1cccc(-c2noc(C3CCN(Cc4ccccc4)CC3)n2)c1

>  <Energy>  (12) 
89.41673222718242

>  <Genealogy>  (12) 
Clc1cccc(-c2noc(C3CCN(Cc4ccccc4)CC3)n2)c1 (3D coordinates assigned)
Clc1cccc(-c2noc(C3CCN(Cc4ccccc4)CC3)n2)c1 (nonaromatic ring conformer: 89.41673222718242 kcal/mol)

>  <smiles>  (12) 
Clc1cccc(-c2noc(C3CCN(Cc4ccccc4)CC3)n2)c1

>  <score_type>  (12) 
oracle

>  <origin>  (12) 
adgpu

>  <m_score__min__energy>  (12) 
-9.9199999999999999

>  <m_primary>  (12) 
energy

$$$$
12:0
     RDKit          3D

 46 49  0  0  0  0  0  0  0  0999 V2000
   -0.8510   27.0680  -26.8060 C   0  0  0  0  0  0  0  0  0  0  0  0
   -0.8730   25.5960  -26.5480 C   0  0  0  0  0  0  0  0  0  0  0  0
   -0.8330   25.0720  -25.3460 O   0  0  0  0  0  0  0  0  0  0  0  0
   -0.8560   23.7720  -25.3960 N   0  0  0  0  0  0  0  0  0  0  0  0
   -0.8980   23.4190  -26.6970 C   0  0  0  0  0  0  0  0  0  0  0  0
   -0.9760   22.0110  -27.1420 C   0  0  0  0  0  0  0  0  0  0  0  0
   -0.4480   21.6510  -28.3940 C   0  0  0  0  0  0  0  0  0  0  0  0
   -0.5220   20.3280  -28.8390 C   0  0  0  0  0  0  0  0  0  0  0  0
   -1.1350   19.3550  -28.0460 C   0  0  0  0  0  0  0  0  0  0  0  0
   -1.6830   19.7060  -26.8110 C   0  0  0  0  0  0  0  0  0  0  0  0
   -1.6110   21.0290  -26.3610 C   0  0  0  0  0  0  0  0  0  0  0  0
   -0.9170   24.5690  -27.4780 C   0  0  0  0  0  0  0  0  0  0  0  0
   -1.0310   24.6810  -28.9740 C   0  0  0  0  0  0  0  0  0  0  0  0
   -2.2860   25.2570  -29.3330 O   0  0  0  0  0  0  0  0  0  0  0  0
   -3.3720   24.5270  -29.8250 C   0  0  0  0  0  0  0  0  0  0  0  0
   -3.6890   23.2970  -29.2540 C   0  0  0  0  0  0  0  0  0  0  0  0
   -4.7740   22.5730  -29.7450 C   0  0  0  0  0  0  0  0  0  0  0  0
   -5.5340   23.1010  -30.8010 C   0  0  0  0  0  0  0  0  0  0  0  0
   -6.6670   22.3930  -31.3510 N   0  0  0  0  0  0  0  0  0  0  0  0
   -6.5040   21.0710  -31.9710 C   0  0  0  0  0  0  0  0  0  0  0  0
   -7.8160   20.2830  -31.8990 C   0  0  0  0  0  0  0  0  0  0  0  0
   -8.8940   21.0510  -32.3970 O   0  0  0  0  0  0  0  0  0  0  0  0
   -9.1110   22.1630  -31.5510 C   0  0  0  0  0  0  0  0  0  0  0  0
   -7.9190   23.1220  -31.5970 C   0  0  0  0  0  0  0  0  0  0  0  0
   -5.1780   24.3110  -31.3160 N   0  0  0  0  0  0  0  0  0  0  0  0
   -4.1370   25.0000  -30.8450 N   0  0  0  0  0  0  0  0  0  0  0  0
   -0.8429   27.6081  -25.8478 H   0  0  0  0  0  0  0  0  0  0  0  0
    0.0511   27.3262  -27.3801 H   0  0  0  0  0  0  0  0  0  0  0  0
   -1.7450   27.3530  -27.3801 H   0  0  0  0  0  0  0  0  0  0  0  0
    0.0263   22.4151  -29.0274 H   0  0  0  0  0  0  0  0  0  0  0  0
   -0.0968   20.0526  -29.8154 H   0  0  0  0  0  0  0  0  0  0  0  0
   -1.1859   18.3129  -28.3945 H   0  0  0  0  0  0  0  0  0  0  0  0
   -2.1724   18.9410  -26.1903 H   0  0  0  0  0  0  0  0  0  0  0  0
   -2.0533   21.3022  -25.3916 H   0  0  0  0  0  0  0  0  0  0  0  0
   -0.2179   25.3173  -29.3533 H   0  0  0  0  0  0  0  0  0  0  0  0
   -0.9594   23.6757  -29.4147 H   0  0  0  0  0  0  0  0  0  0  0  0
   -3.0881   22.9002  -28.4224 H   0  0  0  0  0  0  0  0  0  0  0  0
   -5.0326   21.5967  -29.3091 H   0  0  0  0  0  0  0  0  0  0  0  0
   -6.2145   21.1978  -33.0246 H   0  0  0  0  0  0  0  0  0  0  0  0
   -5.7238   20.5161  -31.4293 H   0  0  0  0  0  0  0  0  0  0  0  0
   -7.7191   19.3665  -32.4995 H   0  0  0  0  0  0  0  0  0  0  0  0
   -8.0188   20.0334  -30.8470 H   0  0  0  0  0  0  0  0  0  0  0  0
  -10.0153   22.6957  -31.8804 H   0  0  0  0  0  0  0  0  0  0  0  0
   -9.2335   21.8022  -30.5191 H   0  0  0  0  0  0  0  0  0  0  0  0
   -7.8735   23.5968  -32.5882 H   0  0  0  0  0  0  0  0  0  0  0  0
   -8.0459   23.8876  -30.8174 H   0  0  0  0  0  0  0  0  0  0  0  0
  1  2  1  0
  2  3  1  0
  3  4  1  0
  4  5  2  0
  5  6  1  0
  6  7  2  0
  7  8  1  0
  8  9  2  0
  9 10  1  0
 10 11  2  0
  5 12  1  0
 12 13  1  0
 13 14  1  0
 14 15  1  0
 15 16  2  0
 16 17  1  0
 17 18  2  0
 18 19  1  0
 19 20  1  0
 20 21  1  0
 21 22  1  0
 22 23  1  0
 23 24  1  0
 18 25  1  0
 25 26  2  0
 12  2  2  0
 26 15  1  0
 11  6  1  0
 24 19  1  0
  1 27  1  0
  1 28  1  0
  1 29  1  0
  7 30  1  0
  8 31  1  0
  9 32  1  0
 10 33  1  0
 11 34  1  0
 13 35  1  0
 13 36  1  0
 16 37  1  0
 17 38  1  0
 20 39  1  0
 20 40  1  0
 21 41  1  0
 21 42  1  0
 23 43  1  0
 23 44  1  0
 24 45  1  0
 24 46  1  0
M  END
>  <UniqueID>  (13) 
13

>  <SMILES>  (13) 
Cc1onc(-c2ccccc2)c1COc1ccc(N2CCOCC2)nn1

>  <Energy>  (13) 
87.90526630810209

>  <Genealogy>  (13) 
Cc1onc(-c2ccccc2)c1COc1ccc(N2CCOCC2)nn1 (3D coordinates assigned)
Cc1onc(-c2ccccc2)c1COc1ccc(N2CCOCC2)nn1 (nonaromatic ring conformer: 87.90526630810209 kcal/mol)

>  <smiles>  (13) 
Cc1onc(-c2ccccc2)c1COc1ccc(N2CCOCC2)nn1

>  <score_type>  (13) 
oracle

>  <origin>  (13) 
adgpu

>  <m_score__min__energy>  (13) 
-9.4499999999999993

>  <m_primary>  (13) 
energy

$$$$
13:0
     RDKit          3D

 41 42  0  0  0  0  0  0  0  0999 V2000
   -8.7460   19.2930  -32.6820 C   0  0  0  0  0  0  0  0  0  0  0  0
   -8.0460   18.1260  -31.9880 C   0  0  0  0  0  0  0  0  0  0  0  0
   -6.7640   17.8210  -32.6410 N   0  0  0  0  0  0  0  0  0  0  0  0
   -6.4810   16.4310  -33.0360 C   0  0  0  0  0  0  0  0  0  0  0  0
   -6.8250   16.2090  -34.5050 C   0  0  0  0  0  0  0  0  0  0  0  0
   -5.7850   18.8720  -32.8250 C   0  0  0  0  0  0  0  0  0  0  0  0
   -4.6680   18.7140  -33.6620 C   0  0  0  0  0  0  0  0  0  0  0  0
   -3.7940   19.7410  -33.8140 N   0  0  0  0  0  0  0  0  0  0  0  0
   -3.9670   20.9240  -33.1700 C   0  0  0  0  0  0  0  0  0  0  0  0
   -5.0760   21.0980  -32.3270 C   0  0  0  0  0  0  0  0  0  0  0  0
   -5.3320   22.3720  -31.6080 C   0  0  0  0  0  0  0  0  0  0  0  0
   -6.6520   22.7410  -31.2940 C   0  0  0  0  0  0  0  0  0  0  0  0
   -6.9120   23.9330  -30.6150 C   0  0  0  0  0  0  0  0  0  0  0  0
   -5.8610   24.7660  -30.2340 C   0  0  0  0  0  0  0  0  0  0  0  0
   -4.5360   24.4150  -30.5210 C   0  0  0  0  0  0  0  0  0  0  0  0
   -3.4900   25.2990  -30.0960 N   0  0  0  0  0  0  0  0  0  0  0  0
   -2.1890   24.8950  -29.0230 S   0  0  0  0  0  0  0  0  0  0  0  0
   -2.8170   24.5870  -27.3860 C   0  0  0  0  0  0  0  0  0  0  0  0
   -1.2360   26.0550  -28.9620 O   0  0  0  0  0  0  0  0  0  0  0  0
   -1.4520   23.6900  -29.5360 O   0  0  0  0  0  0  0  0  0  0  0  0
   -4.2760   23.2150  -31.2080 C   0  0  0  0  0  0  0  0  0  0  0  0
   -5.9530   20.0650  -32.1900 N   0  0  0  0  0  0  0  0  0  0  0  0
   -9.1564   19.9772  -31.9247 H   0  0  0  0  0  0  0  0  0  0  0  0
   -8.0226   19.8331  -33.3105 H   0  0  0  0  0  0  0  0  0  0  0  0
   -9.5631   18.9091  -33.3105 H   0  0  0  0  0  0  0  0  0  0  0  0
   -7.8608   18.3907  -30.9365 H   0  0  0  0  0  0  0  0  0  0  0  0
   -8.6934   17.2390  -32.0521 H   0  0  0  0  0  0  0  0  0  0  0  0
   -5.4126   16.2212  -32.8793 H   0  0  0  0  0  0  0  0  0  0  0  0
   -7.0957   15.7561  -32.4223 H   0  0  0  0  0  0  0  0  0  0  0  0
   -7.7471   15.6139  -34.5798 H   0  0  0  0  0  0  0  0  0  0  0  0
   -6.9750   17.1811  -34.9974 H   0  0  0  0  0  0  0  0  0  0  0  0
   -6.0010   15.6718  -34.9974 H   0  0  0  0  0  0  0  0  0  0  0  0
   -4.5028   17.7638  -34.1909 H   0  0  0  0  0  0  0  0  0  0  0  0
   -3.2429   21.7405  -33.3080 H   0  0  0  0  0  0  0  0  0  0  0  0
   -7.4860   22.0857  -31.5855 H   0  0  0  0  0  0  0  0  0  0  0  0
   -7.9488   24.2156  -30.3801 H   0  0  0  0  0  0  0  0  0  0  0  0
   -6.0741   25.7060  -29.7040 H   0  0  0  0  0  0  0  0  0  0  0  0
   -2.0901   24.9435  -26.6413 H   0  0  0  0  0  0  0  0  0  0  0  0
   -3.7700   25.1200  -27.2526 H   0  0  0  0  0  0  0  0  0  0  0  0
   -2.9790   23.5072  -27.2526 H   0  0  0  0  0  0  0  0  0  0  0  0
   -3.2376   22.9319  -31.4352 H   0  0  0  0  0  0  0  0  0  0  0  0
  1  2  1  0
  2  3  1  0
  3  4  1  0
  4  5  1  0
  3  6  1  0
  6  7  2  0
  7  8  1  0
  8  9  2  0
  9 10  1  0
 10 11  1  0
 11 12  2  0
 12 13  1  0
 13 14  2  0
 14 15  1  0
 15 16  1  0
 16 17  1  0
 17 18  1  0
 17 19  2  0
 17 20  2  0
 15 21  2  0
 10 22  2  0
 22  6  1  0
 21 11  1  0
  1 23  1  0
  1 24  1  0
  1 25  1  0
  2 26  1  0
  2 27  1  0
  4 28  1  0
  4 29  1  0
  5 30  1  0
  5 31  1  0
  5 32  1  0
  7 33  1  0
  9 34  1  0
 12 35  1  0
 13 36  1  0
 14 37  1  0
 18 38  1  0
 18 39  1  0
 18 40  1  0
 21 41  1  0
M  CHG  1  16  -1
M  END
>  <UniqueID>  (14) 
14

>  <SMILES>  (14) 
CCN(CC)c1cncc(-c2cccc([N-]S(C)(=O)=O)c2)n1

>  <Energy>  (14) 
40.600469763922824

>  <Genealogy>  (14) 
CCN(CC)c1cncc(-c2cccc([N-]S(C)(=O)=O)c2)n1 (protonated)
CCN(CC)c1cncc(-c2cccc([N-]S(C)(=O)=O)c2)n1 (3D coordinates assigned)
CCN(CC)c1cncc(-c2cccc([N-]S(C)(=O)=O)c2)n1 (optimized conformer: 40.600469763922824 kcal/mol)

>  <smiles>  (14) 
CCN(CC)c1cncc(-c2cccc(NS(C)(=O)=O)c2)n1

>  <score_type>  (14) 
oracle

>  <origin>  (14) 
adgpu

>  <m_score__min__energy>  (14) 
-9.6099999999999994

>  <m_primary>  (14) 
energy

$$$$
14:0
     RDKit          3D

 50 53  0  0  0  0  0  0  0  0999 V2000
   -2.0308   25.8207  -24.1805 H   0  0  0  0  0  0  0  0  0  0  0  0
   -1.5610   26.1720  -25.1110 C   0  0  0  0  0  0  0  0  0  0  0  0
   -1.2850   25.2650  -26.1380 C   0  0  0  0  0  0  0  0  0  0  0  0
   -1.5486   24.2040  -26.0160 H   0  0  0  0  0  0  0  0  0  0  0  0
   -0.6750   25.6990  -27.3210 C   0  0  0  0  0  0  0  0  0  0  0  0
   -0.4440   24.7410  -28.3680 N   0  0  0  0  0  0  0  0  0  0  0  0
   -1.3440   24.1760  -29.1210 C   0  0  0  0  0  0  0  0  0  0  0  0
   -0.9550   23.2510  -30.0340 N   0  0  0  0  0  0  0  0  0  0  0  0
   -1.8650   22.6560  -30.8500 C   0  0  0  0  0  0  0  0  0  0  0  0
   -1.4500   21.6670  -31.8170 N   0  0  0  0  0  0  0  0  0  0  0  0
   -0.1260   21.0410  -31.6980 C   0  0  0  0  0  0  0  0  0  0  0  0
    0.5987   21.7903  -31.3467 H   0  0  0  0  0  0  0  0  0  0  0  0
   -0.1882   20.2093  -30.9808 H   0  0  0  0  0  0  0  0  0  0  0  0
    0.3310   20.4940  -33.0540 C   0  0  0  0  0  0  0  0  0  0  0  0
    0.5479   21.3363  -33.7275 H   0  0  0  0  0  0  0  0  0  0  0  0
    1.2325   19.8826  -32.9004 H   0  0  0  0  0  0  0  0  0  0  0  0
   -0.6710   19.6830  -33.6350 O   0  0  0  0  0  0  0  0  0  0  0  0
   -1.7970   20.4790  -33.9490 C   0  0  0  0  0  0  0  0  0  0  0  0
   -1.4780   21.3232  -34.5780 H   0  0  0  0  0  0  0  0  0  0  0  0
   -2.5298   19.8580  -34.4852 H   0  0  0  0  0  0  0  0  0  0  0  0
   -2.4510   21.0210  -32.6750 C   0  0  0  0  0  0  0  0  0  0  0  0
   -3.2218   21.7565  -32.9487 H   0  0  0  0  0  0  0  0  0  0  0  0
   -2.9040   20.1835  -32.1241 H   0  0  0  0  0  0  0  0  0  0  0  0
   -3.1740   23.0070  -30.7480 N   0  0  0  0  0  0  0  0  0  0  0  0
   -3.5730   23.9490  -29.8540 C   0  0  0  0  0  0  0  0  0  0  0  0
   -4.8260   24.2800  -29.7350 N   0  0  0  0  0  0  0  0  0  0  0  0
   -5.9190   23.8070  -30.5410 C   0  0  0  0  0  0  0  0  0  0  0  0
   -5.9690   24.1760  -31.8910 C   0  0  0  0  0  0  0  0  0  0  0  0
   -5.1836   24.8219  -32.3106 H   0  0  0  0  0  0  0  0  0  0  0  0
   -7.0100   23.7290  -32.7080 C   0  0  0  0  0  0  0  0  0  0  0  0
   -7.0506   24.0383  -33.7628 H   0  0  0  0  0  0  0  0  0  0  0  0
   -7.9990   22.8910  -32.1900 C   0  0  0  0  0  0  0  0  0  0  0  0
   -8.8282   22.5590  -32.8320 H   0  0  0  0  0  0  0  0  0  0  0  0
   -7.9380   22.4710  -30.8520 C   0  0  0  0  0  0  0  0  0  0  0  0
   -9.0020   21.5790  -30.2840 C   0  0  0  0  0  0  0  0  0  0  0  0
   -8.9611   21.6133  -29.1853 H   0  0  0  0  0  0  0  0  0  0  0  0
   -9.9895   21.9231  -30.6251 H   0  0  0  0  0  0  0  0  0  0  0  0
   -8.8355   20.5466  -30.6251 H   0  0  0  0  0  0  0  0  0  0  0  0
   -6.8970   22.9310  -30.0310 C   0  0  0  0  0  0  0  0  0  0  0  0
   -6.8444   22.6051  -28.9817 H   0  0  0  0  0  0  0  0  0  0  0  0
   -2.6550   24.5260  -29.0400 N   0  0  0  0  0  0  0  0  0  0  0  0
   -0.3850   27.0680  -27.4850 C   0  0  0  0  0  0  0  0  0  0  0  0
    0.0460   27.4261  -28.4316 H   0  0  0  0  0  0  0  0  0  0  0  0
   -0.6430   27.9780  -26.4470 C   0  0  0  0  0  0  0  0  0  0  0  0
   -0.3610   29.4390  -26.6360 C   0  0  0  0  0  0  0  0  0  0  0  0
   -0.2673   29.9245  -25.6534 H   0  0  0  0  0  0  0  0  0  0  0  0
    0.5774   29.5618  -27.1966 H   0  0  0  0  0  0  0  0  0  0  0  0
   -1.1863   29.9022  -27.1966 H   0  0  0  0  0  0  0  0  0  0  0  0
   -1.2420   27.5230  -25.2630 C   0  0  0  0  0  0  0  0  0  0  0  0
   -1.4612   28.2327  -24.4516 H   0  0  0  0  0  0  0  0  0  0  0  0
  1  2  1  0
  2  3  2  0
  3  4  1  0
  3  5  1  0
  5  6  1  0
  6  7  2  0
  7  8  1  0
  8  9  1  0
  9 10  1  0
 10 11  1  0
 11 12  1  0
 11 13  1  0
 11 14  1  0
 14 15  1  0
 14 16  1  0
 14 17  1  0
 17 18  1  0
 18 19  1  0
 18 20  1  0
 18 21  1  0
 21 22  1  0
 21 23  1  0
  9 24  2  0
 24 25  1  0
 25 26  2  0
 26 27  1  0
 27 28  2  0
 28 29  1  0
 28 30  1  0
 30 31  1  0
 30 32  2  0
 32 33  1  0
 32 34  1  0
 34 35  1  0
 35 36  1  0
 35 37  1  0
 35 38  1  0
 34 39  2  0
 39 40  1  0
 25 41  1  0
  5 42  2  0
 42 43  1  0
 42 44  1  0
 44 45  1  0
 45 46  1  0
 45 47  1  0
 45 48  1  0
 44 49  2  0
 49 50  1  0
 49  2  1  0
 41  7  1  0
 21 10  1  0
 39 27  1  0
M  CHG  2   8  -1  41  -1
M  END
>  <UniqueID>  (15) 
15

>  <SMILES>  (15) 
Cc1cccc(/N=c2/[n-]c(N3CCOCC3)n/c(=N\c3cccc(C)c3)[n-]2)c1

>  <Energy>  (15) 
65.65214154639722

>  <Genealogy>  (15) 
Cc1cccc(N=c2nc(N3CCOCC3)[n-]c(=Nc3cccc(C)c3)[n-]2)c1 (protonated)
Cc1cccc(/N=c2/[n-]c(N3CCOCC3)n/c(=N\c3cccc(C)c3)[n-]2)c1 (cis-trans isomerization)
Cc1cccc(/N=c2/[n-]c(N3CCOCC3)n/c(=N\c3cccc(C)c3)[n-]2)c1 (3D coordinates assigned)
Cc1cccc(/N=c2/[n-]c(N3CCOCC3)n/c(=N\c3cccc(C)c3)[n-]2)c1 (nonaromatic ring conformer: 65.65214154639722 kcal/mol)

>  <smiles>  (15) 
Cc1cccc(N=c2nc(N3CCOCC3)[nH]c(=Nc3cccc(C)c3)[nH]2)c1

>  <score_type>  (15) 
oracle

>  <origin>  (15) 
adgpu

>  <m_score__min__energy>  (15) 
-9.6099999999999994

>  <m_primary>  (15) 
energy

$$$$
15:0
     RDKit          3D

 34 35  0  0  0  0  0  0  0  0999 V2000
   -8.7300   18.9510  -31.9780 C   0  0  0  0  0  0  0  0  0  0  0  0
   -9.0820   20.1270  -32.7780 N   0  0  0  0  0  0  0  0  0  0  0  0
   -8.9120   21.3660  -32.0080 C   0  0  0  0  0  0  0  0  0  0  0  0
   -7.4700   21.7960  -32.0050 C   0  0  0  0  0  0  0  0  0  0  0  0
   -6.5140   21.0540  -32.7160 C   0  0  0  0  0  0  0  0  0  0  0  0
   -5.1780   21.4630  -32.7360 C   0  0  0  0  0  0  0  0  0  0  0  0
   -4.7870   22.6160  -32.0520 C   0  0  0  0  0  0  0  0  0  0  0  0
   -5.7320   23.3670  -31.3410 C   0  0  0  0  0  0  0  0  0  0  0  0
   -5.2330   24.8180  -30.4780 S   0  0  0  0  0  0  0  0  0  0  0  0
   -5.7910   24.8250  -29.0820 O   0  0  0  0  0  0  0  0  0  0  0  0
   -5.7440   26.0220  -31.2160 O   0  0  0  0  0  0  0  0  0  0  0  0
   -3.5020   24.8960  -30.3950 N   0  0  0  0  0  0  0  0  0  0  0  0
   -2.6850   24.1760  -29.4610 C   0  0  0  0  0  0  0  0  0  0  0  0
   -2.9910   22.8630  -29.0580 C   0  0  0  0  0  0  0  0  0  0  0  0
   -2.1640   22.1940  -28.1510 C   0  0  0  0  0  0  0  0  0  0  0  0
   -1.0280   22.8270  -27.6390 C   0  0  0  0  0  0  0  0  0  0  0  0
   -0.7200   24.1310  -28.0320 C   0  0  0  0  0  0  0  0  0  0  0  0
   -1.5450   24.8050  -28.9390 C   0  0  0  0  0  0  0  0  0  0  0  0
   -1.2320   26.0710  -29.3140 F   0  0  0  0  0  0  0  0  0  0  0  0
   -7.0730   22.9580  -31.3240 C   0  0  0  0  0  0  0  0  0  0  0  0
   -8.8043   19.1992  -30.9089 H   0  0  0  0  0  0  0  0  0  0  0  0
   -9.4212   18.1279  -32.2122 H   0  0  0  0  0  0  0  0  0  0  0  0
   -7.7003   18.6430  -32.2122 H   0  0  0  0  0  0  0  0  0  0  0  0
   -8.4170   20.1610  -33.5850 H   0  0  0  0  0  0  0  0  0  0  0  0
   -9.5246   22.1596  -32.4607 H   0  0  0  0  0  0  0  0  0  0  0  0
   -9.2293   21.1843  -30.9705 H   0  0  0  0  0  0  0  0  0  0  0  0
   -6.8176   20.1471  -33.2595 H   0  0  0  0  0  0  0  0  0  0  0  0
   -4.4325   20.8754  -33.2918 H   0  0  0  0  0  0  0  0  0  0  0  0
   -3.7345   22.9353  -32.0715 H   0  0  0  0  0  0  0  0  0  0  0  0
   -3.8843   22.3611  -29.4582 H   0  0  0  0  0  0  0  0  0  0  0  0
   -2.4078   21.1675  -27.8397 H   0  0  0  0  0  0  0  0  0  0  0  0
   -0.3771   22.2984  -26.9270 H   0  0  0  0  0  0  0  0  0  0  0  0
    0.1733   24.6295  -27.6276 H   0  0  0  0  0  0  0  0  0  0  0  0
   -7.8185   23.5510  -30.7739 H   0  0  0  0  0  0  0  0  0  0  0  0
  1  2  1  0
  2  3  1  0
  3  4  1  0
  4  5  2  0
  5  6  1  0
  6  7  2  0
  7  8  1  0
  8  9  1  0
  9 10  2  0
  9 11  2  0
  9 12  1  0
 12 13  1  0
 13 14  2  0
 14 15  1  0
 15 16  2  0
 16 17  1  0
 17 18  2  0
 18 19  1  0
  8 20  2  0
 20  4  1  0
 18 13  1  0
  1 21  1  0
  1 22  1  0
  1 23  1  0
  2 24  1  0
  3 25  1  0
  3 26  1  0
  5 27  1  0
  6 28  1  0
  7 29  1  0
 14 30  1  0
 15 31  1  0
 16 32  1  0
 17 33  1  0
 20 34  1  0
M  CHG  1  12  -1
M  END
>  <UniqueID>  (16) 
16

>  <SMILES>  (16) 
CNCc1cccc(S(=O)(=O)[N-]c2ccccc2F)c1

>  <Energy>  (16) 
35.677972475448726

>  <Genealogy>  (16) 
CNCc1cccc(S(=O)(=O)[N-]c2ccccc2F)c1 (protonated)
CNCc1cccc(S(=O)(=O)[N-]c2ccccc2F)c1 (3D coordinates assigned)
CNCc1cccc(S(=O)(=O)[N-]c2ccccc2F)c1 (optimized conformer: 35.677972475448726 kcal/mol)

>  <smiles>  (16) 
CNCc1cccc(S(=O)(=O)Nc2ccccc2F)c1

>  <score_type>  (16) 
oracle

>  <origin>  (16) 
adgpu

>  <m_score__min__energy>  (16) 
-9.3000000000000007

>  <m_primary>  (16) 
energy

$$$$
16:0
     RDKit          3D

 30 32  0  0  0  0  0  0  0  0999 V2000
   -5.3760   15.9220  -31.4550 N   0  0  0  0  0  0  0  0  0  0  0  0
   -5.6260   17.0330  -32.3190 C   0  0  0  0  0  0  0  0  0  0  0  0
   -5.6140   16.8610  -33.7110 C   0  0  0  0  0  0  0  0  0  0  0  0
   -5.8570   17.9480  -34.5570 C   0  0  0  0  0  0  0  0  0  0  0  0
   -6.1130   19.2100  -34.0180 C   0  0  0  0  0  0  0  0  0  0  0  0
   -6.1320   19.3930  -32.6270 C   0  0  0  0  0  0  0  0  0  0  0  0
   -6.3910   20.6980  -32.0710 N   0  0  0  0  0  0  0  0  0  0  0  0
   -7.6790   21.1400  -31.8770 C   0  0  0  0  0  0  0  0  0  0  0  0
   -8.9780   20.1920  -32.2430 S   0  0  0  0  0  0  0  0  0  0  0  0
   -7.9060   22.3770  -31.3550 N   0  0  0  0  0  0  0  0  0  0  0  0
   -6.8790   23.2000  -31.0100 C   0  0  0  0  0  0  0  0  0  0  0  0
   -7.1360   24.4720  -30.4730 C   0  0  0  0  0  0  0  0  0  0  0  0
   -6.0770   25.3130  -30.1200 C   0  0  0  0  0  0  0  0  0  0  0  0
   -4.7580   24.8920  -30.2990 C   0  0  0  0  0  0  0  0  0  0  0  0
   -4.4900   23.6290  -30.8330 C   0  0  0  0  0  0  0  0  0  0  0  0
   -5.5500   22.7740  -31.1930 C   0  0  0  0  0  0  0  0  0  0  0  0
   -5.3290   21.4970  -31.7340 C   0  0  0  0  0  0  0  0  0  0  0  0
   -4.1460   21.0880  -31.9150 O   0  0  0  0  0  0  0  0  0  0  0  0
   -5.8840   18.3020  -31.7810 C   0  0  0  0  0  0  0  0  0  0  0  0
   -4.8510   15.0850  -31.7970 H   0  0  0  0  0  0  0  0  0  0  0  0
   -5.7140   15.9270  -30.4660 H   0  0  0  0  0  0  0  0  0  0  0  0
   -5.4128   15.8678  -34.1388 H   0  0  0  0  0  0  0  0  0  0  0  0
   -5.8464   17.8083  -35.6480 H   0  0  0  0  0  0  0  0  0  0  0  0
   -6.3004   20.0637  -34.6859 H   0  0  0  0  0  0  0  0  0  0  0  0
   -8.8920   22.7000  -31.2120 H   0  0  0  0  0  0  0  0  0  0  0  0
   -8.1738   24.8074  -30.3298 H   0  0  0  0  0  0  0  0  0  0  0  0
   -6.2832   26.3086  -29.7003 H   0  0  0  0  0  0  0  0  0  0  0  0
   -3.9274   25.5565  -30.0188 H   0  0  0  0  0  0  0  0  0  0  0  0
   -3.4491   23.3017  -30.9726 H   0  0  0  0  0  0  0  0  0  0  0  0
   -5.8919   18.4426  -30.6900 H   0  0  0  0  0  0  0  0  0  0  0  0
  1  2  1  0
  2  3  2  0
  3  4  1  0
  4  5  2  0
  5  6  1  0
  6  7  1  0
  7  8  1  0
  8  9  2  0
  8 10  1  0
 10 11  1  0
 11 12  2  0
 12 13  1  0
 13 14  2  0
 14 15  1  0
 15 16  2  0
 16 17  1  0
 17 18  2  0
  6 19  2  0
 19  2  1  0
 17  7  1  0
 16 11  1  0
  1 20  1  0
  1 21  1  0
  3 22  1  0
  4 23  1  0
  5 24  1  0
 10 25  1  0
 12 26  1  0
 13 27  1  0
 14 28  1  0
 15 29  1  0
 19 30  1  0
M  END
>  <UniqueID>  (17) 
17

>  <SMILES>  (17) 
Nc1cccc(-n2c(=S)[nH]c3ccccc3c2=O)c1

>  <Energy>  (17) 
48.72501815870998

>  <Genealogy>  (17) 
Nc1cccc(-n2c(=S)[nH]c3ccccc3c2=O)c1 (3D coordinates assigned)
Nc1cccc(-n2c(=S)[nH]c3ccccc3c2=O)c1 (optimized conformer: 48.72501815870998 kcal/mol)

>  <smiles>  (17) 
Nc1cccc(-n2c(=S)[nH]c3ccccc3c2=O)c1

>  <score_type>  (17) 
oracle

>  <origin>  (17) 
adgpu

>  <m_score__min__energy>  (17) 
-8.3499999999999996

>  <m_primary>  (17) 
energy

$$$$
17:0
     RDKit          3D

 33 35  0  0  0  0  0  0  0  0999 V2000
   -9.2590   22.2990  -30.9030 N   0  0  0  0  0  0  0  0  0  0  0  0
   -8.5510   21.5050  -31.3600 C   0  0  0  0  0  0  0  0  0  0  0  0
   -7.6650   20.5130  -31.9310 C   0  0  0  0  0  0  0  0  0  0  0  0
   -6.2850   20.7690  -32.0960 C   0  0  0  0  0  0  0  0  0  0  0  0
   -5.6620   22.0380  -31.6480 C   0  0  0  0  0  0  0  0  0  0  0  0
   -4.4440   22.0290  -30.9450 C   0  0  0  0  0  0  0  0  0  0  0  0
   -3.8550   23.2290  -30.5380 C   0  0  0  0  0  0  0  0  0  0  0  0
   -4.4710   24.4490  -30.8350 C   0  0  0  0  0  0  0  0  0  0  0  0
   -3.8840   25.6420  -30.4300 O   0  0  0  0  0  0  0  0  0  0  0  0
   -5.6760   24.4680  -31.5430 C   0  0  0  0  0  0  0  0  0  0  0  0
   -6.2690   23.2690  -31.9520 C   0  0  0  0  0  0  0  0  0  0  0  0
   -5.4800   19.7980  -32.7100 C   0  0  0  0  0  0  0  0  0  0  0  0
   -6.0400   18.5820  -33.1350 C   0  0  0  0  0  0  0  0  0  0  0  0
   -5.2190   17.5280  -33.7840 C   0  0  0  0  0  0  0  0  0  0  0  0
   -4.0770   17.8500  -34.5440 C   0  0  0  0  0  0  0  0  0  0  0  0
   -3.3140   16.8410  -35.1390 C   0  0  0  0  0  0  0  0  0  0  0  0
   -3.6750   15.4980  -34.9810 C   0  0  0  0  0  0  0  0  0  0  0  0
   -2.9220   14.4850  -35.5720 O   0  0  0  0  0  0  0  0  0  0  0  0
   -4.7990   15.1680  -34.2200 C   0  0  0  0  0  0  0  0  0  0  0  0
   -5.5640   16.1730  -33.6220 C   0  0  0  0  0  0  0  0  0  0  0  0
   -7.3730   18.3720  -32.9610 N   0  0  0  0  0  0  0  0  0  0  0  0
   -8.1890   19.2900  -32.3800 C   0  0  0  0  0  0  0  0  0  0  0  0
   -9.4160   19.0310  -32.2550 O   0  0  0  0  0  0  0  0  0  0  0  0
   -3.9524   21.0724  -30.7143 H   0  0  0  0  0  0  0  0  0  0  0  0
   -2.9053   23.2141  -29.9831 H   0  0  0  0  0  0  0  0  0  0  0  0
   -6.1589   25.4277  -31.7790 H   0  0  0  0  0  0  0  0  0  0  0  0
   -7.2144   23.2894  -32.5140 H   0  0  0  0  0  0  0  0  0  0  0  0
   -4.4071   19.9895  -32.8591 H   0  0  0  0  0  0  0  0  0  0  0  0
   -3.7838   18.9027  -34.6700 H   0  0  0  0  0  0  0  0  0  0  0  0
   -2.4266   17.1035  -35.7336 H   0  0  0  0  0  0  0  0  0  0  0  0
   -2.1460   14.0510  -35.0850 H   0  0  0  0  0  0  0  0  0  0  0  0
   -5.0830   14.1131  -34.0910 H   0  0  0  0  0  0  0  0  0  0  0  0
   -6.4436   15.9028  -33.0193 H   0  0  0  0  0  0  0  0  0  0  0  0
  1  2  3  0
  2  3  1  0
  3  4  2  0
  4  5  1  0
  5  6  2  0
  6  7  1  0
  7  8  2  0
  8  9  1  0
  8 10  1  0
 10 11  2  0
  4 12  1  0
 12 13  2  0
 13 14  1  0
 14 15  2  0
 15 16  1  0
 16 17  2  0
 17 18  1  0
 17 19  1  0
 19 20  2  0
 13 21  1  0
 21 22  1  0
 22 23  2  0
 22  3  1  0
 11  5  1  0
 20 14  1  0
  6 24  1  0
  7 25  1  0
 10 26  1  0
 11 27  1  0
 12 28  1  0
 15 29  1  0
 16 30  1  0
 18 31  1  0
 19 32  1  0
 20 33  1  0
M  CHG  2   9  -1  21  -1
M  END
>  <UniqueID>  (18) 
18

>  <SMILES>  (18) 
N#Cc1c(-c2ccc([O-])cc2)cc(-c2ccc(O)cc2)[n-]c1=O

>  <Energy>  (18) 
48.45650461706768

>  <Genealogy>  (18) 
N#Cc1c(-c2ccc([O-])cc2)cc(-c2ccc(O)cc2)[n-]c1=O (protonated)
N#Cc1c(-c2ccc([O-])cc2)cc(-c2ccc(O)cc2)[n-]c1=O (3D coordinates assigned)
N#Cc1c(-c2ccc([O-])cc2)cc(-c2ccc(O)cc2)[n-]c1=O (optimized conformer: 48.45650461706768 kcal/mol)

>  <smiles>  (18) 
N#Cc1c(-c2ccc(O)cc2)cc(-c2ccc(O)cc2)[nH]c1=O

>  <score_type>  (18) 
oracle

>  <origin>  (18) 
adgpu

>  <m_score__min__energy>  (18) 
-10.69

>  <m_primary>  (18) 
energy

$$$$
18:0
     RDKit          3D

 31 32  0  0  0  0  0  0  0  0999 V2000
   -3.3270   24.1570  -27.7310 C   0  0  0  0  0  0  0  0  0  0  0  0
   -2.4120   24.5600  -29.2050 S   0  0  0  0  0  0  0  0  0  0  0  0
   -1.4990   25.7140  -28.9040 O   0  0  0  0  0  0  0  0  0  0  0  0
   -1.5820   23.3860  -29.6440 O   0  0  0  0  0  0  0  0  0  0  0  0
   -3.4990   25.0270  -30.4740 N   0  0  0  0  0  0  0  0  0  0  0  0
   -4.8740   24.6370  -30.5870 C   0  0  0  0  0  0  0  0  0  0  0  0
   -5.8750   25.1560  -29.7440 C   0  0  0  0  0  0  0  0  0  0  0  0
   -7.1990   24.7340  -29.8840 C   0  0  0  0  0  0  0  0  0  0  0  0
   -7.5400   23.8010  -30.8650 C   0  0  0  0  0  0  0  0  0  0  0  0
   -6.5610   23.2900  -31.7270 C   0  0  0  0  0  0  0  0  0  0  0  0
   -6.9280   22.3110  -32.7150 N   0  0  0  0  0  0  0  0  0  0  0  0
   -7.3220   20.9610  -32.4120 C   0  0  0  0  0  0  0  0  0  0  0  0
   -6.3700   19.9270  -32.3400 C   0  0  0  0  0  0  0  0  0  0  0  0
   -6.7730   18.6150  -32.0720 C   0  0  0  0  0  0  0  0  0  0  0  0
   -5.8490   17.6240  -31.9980 F   0  0  0  0  0  0  0  0  0  0  0  0
   -8.1260   18.3210  -31.8890 C   0  0  0  0  0  0  0  0  0  0  0  0
   -9.0810   19.3380  -31.9810 C   0  0  0  0  0  0  0  0  0  0  0  0
   -8.6830   20.6530  -32.2490 C   0  0  0  0  0  0  0  0  0  0  0  0
   -9.6230   21.6280  -32.3320 F   0  0  0  0  0  0  0  0  0  0  0  0
   -5.2230   23.7000  -31.5680 C   0  0  0  0  0  0  0  0  0  0  0  0
   -2.7299   24.4200  -26.8454 H   0  0  0  0  0  0  0  0  0  0  0  0
   -4.2701   24.7230  -27.7186 H   0  0  0  0  0  0  0  0  0  0  0  0
   -3.5461   23.0791  -27.7186 H   0  0  0  0  0  0  0  0  0  0  0  0
   -5.6137   25.8958  -28.9730 H   0  0  0  0  0  0  0  0  0  0  0  0
   -7.9761   25.1383  -29.2187 H   0  0  0  0  0  0  0  0  0  0  0  0
   -8.5831   23.4653  -30.9616 H   0  0  0  0  0  0  0  0  0  0  0  0
   -6.8970   22.5980  -33.7200 H   0  0  0  0  0  0  0  0  0  0  0  0
   -5.3045   20.1518  -32.4952 H   0  0  0  0  0  0  0  0  0  0  0  0
   -8.4403   17.2893  -31.6725 H   0  0  0  0  0  0  0  0  0  0  0  0
  -10.1470   19.1044  -31.8425 H   0  0  0  0  0  0  0  0  0  0  0  0
   -4.4438   23.2800  -32.2211 H   0  0  0  0  0  0  0  0  0  0  0  0
  1  2  1  0
  2  3  2  0
  2  4  2  0
  2  5  1  0
  5  6  1  0
  6  7  2  0
  7  8  1  0
  8  9  2  0
  9 10  1  0
 10 11  1  0
 11 12  1  0
 12 13  2  0
 13 14  1  0
 14 15  1  0
 14 16  2  0
 16 17  1  0
 17 18  2  0
 18 19  1  0
 10 20  2  0
 20  6  1  0
 18 12  1  0
  1 21  1  0
  1 22  1  0
  1 23  1  0
  7 24  1  0
  8 25  1  0
  9 26  1  0
 11 27  1  0
 13 28  1  0
 16 29  1  0
 17 30  1  0
 20 31  1  0
M  CHG  1   5  -1
M  END
>  <UniqueID>  (19) 
19

>  <SMILES>  (19) 
CS(=O)(=O)[N-]c1cccc(Nc2cc(F)ccc2F)c1

>  <Energy>  (19) 
36.20623819690501

>  <Genealogy>  (19) 
CS(=O)(=O)[N-]c1cccc(Nc2cc(F)ccc2F)c1 (protonated)
CS(=O)(=O)[N-]c1cccc(Nc2cc(F)ccc2F)c1 (3D coordinates assigned)
CS(=O)(=O)[N-]c1cccc(Nc2cc(F)ccc2F)c1 (optimized conformer: 36.20623819690501 kcal/mol)

>  <smiles>  (19) 
CS(=O)(=O)Nc1cccc(Nc2cc(F)ccc2F)c1

>  <score_type>  (19) 
oracle

>  <origin>  (19) 
adgpu

>  <m_score__min__energy>  (19) 
-9.7200000000000006

>  <m_primary>  (19) 
energy

$$$$
19:0
     RDKit          3D

 28 29  0  0  0  0  0  0  0  0999 V2000
   -2.7450   20.5550  -27.8000 C   0  0  0  0  0  0  0  0  0  0  0  0
   -2.1720   21.0180  -29.1360 C   0  0  0  0  0  0  0  0  0  0  0  0
   -3.1520   21.9030  -29.8610 C   0  0  0  0  0  0  0  0  0  0  0  0
   -4.2520   21.3320  -30.4160 N   0  0  0  0  0  0  0  0  0  0  0  0
   -5.1870   22.0390  -31.0580 N   0  0  0  0  0  0  0  0  0  0  0  0
   -6.3170   21.3370  -31.6050 C   0  0  0  0  0  0  0  0  0  0  0  0
   -7.6080   21.6050  -31.1190 C   0  0  0  0  0  0  0  0  0  0  0  0
   -8.7110   20.9130  -31.6250 C   0  0  0  0  0  0  0  0  0  0  0  0
   -8.5360   19.9470  -32.6180 C   0  0  0  0  0  0  0  0  0  0  0  0
   -7.2570   19.6710  -33.1070 C   0  0  0  0  0  0  0  0  0  0  0  0
   -6.1450   20.3590  -32.6060 C   0  0  0  0  0  0  0  0  0  0  0  0
   -4.5580   20.0070  -33.2790 Cl  0  0  0  0  0  0  0  0  0  0  0  0
   -5.0700   23.3980  -31.1760 C   0  0  0  0  0  0  0  0  0  0  0  0
   -5.9410   24.0670  -31.7980 O   0  0  0  0  0  0  0  0  0  0  0  0
   -3.9680   24.0490  -30.6120 C   0  0  0  0  0  0  0  0  0  0  0  0
   -3.8560   25.3030  -30.7120 O   0  0  0  0  0  0  0  0  0  0  0  0
   -2.9940   23.3000  -29.9400 C   0  0  0  0  0  0  0  0  0  0  0  0
   -1.8550   23.9620  -29.3430 C   0  0  0  0  0  0  0  0  0  0  0  0
   -0.9440   24.4910  -28.8640 N   0  0  0  0  0  0  0  0  0  0  0  0
   -2.1763   21.0145  -26.9781 H   0  0  0  0  0  0  0  0  0  0  0  0
   -3.8004   20.8569  -27.7293 H   0  0  0  0  0  0  0  0  0  0  0  0
   -2.6714   19.4597  -27.7293 H   0  0  0  0  0  0  0  0  0  0  0  0
   -1.2440   21.5802  -28.9549 H   0  0  0  0  0  0  0  0  0  0  0  0
   -1.9690   20.1336  -29.7578 H   0  0  0  0  0  0  0  0  0  0  0  0
   -7.7509   22.3640  -30.3357 H   0  0  0  0  0  0  0  0  0  0  0  0
   -9.7187   21.1294  -31.2407 H   0  0  0  0  0  0  0  0  0  0  0  0
   -9.4057   19.4032  -33.0153 H   0  0  0  0  0  0  0  0  0  0  0  0
   -7.1227   18.9095  -33.8894 H   0  0  0  0  0  0  0  0  0  0  0  0
  1  2  1  0
  2  3  1  0
  3  4  1  0
  4  5  1  0
  5  6  1  0
  6  7  2  0
  7  8  1  0
  8  9  2  0
  9 10  1  0
 10 11  2  0
 11 12  1  0
  5 13  1  0
 13 14  2  0
 13 15  1  0
 15 16  2  0
 15 17  1  0
 17 18  1  0
 18 19  3  0
 17  3  2  0
 11  6  1  0
  1 20  1  0
  1 21  1  0
  1 22  1  0
  2 23  1  0
  2 24  1  0
  7 25  1  0
  8 26  1  0
  9 27  1  0
 10 28  1  0
M  CHG  1   4  -1
M  END
>  <UniqueID>  (20) 
20

>  <SMILES>  (20) 
CCc1[n-]n(-c2ccccc2Cl)c(=O)c(=O)c1C#N

>  <Energy>  (20) 
36.134193439446655

>  <Genealogy>  (20) 
CCc1[n-]n(-c2ccccc2Cl)c(=O)c(=O)c1C#N (protonated)
CCc1[n-]n(-c2ccccc2Cl)c(=O)c(=O)c1C#N (3D coordinates assigned)
CCc1[n-]n(-c2ccccc2Cl)c(=O)c(=O)c1C#N (optimized conformer: 36.134193439446655 kcal/mol)

>  <smiles>  (20) 
CCc1[nH]n(-c2ccccc2Cl)c(=O)c(=O)c1C#N

>  <score_type>  (20) 
oracle

>  <origin>  (20) 
adgpu

>  <m_score__min__energy>  (20) 
-7.3700000000000001

>  <m_primary>  (20) 
energy

$$$$
20:0
     RDKit          3D

 45 47  0  0  0  0  0  0  0  0999 V2000
    0.5990   27.4460  -23.4360 C   0  0  0  0  0  0  0  0  0  0  0  0
    0.4630   27.4790  -24.8530 O   0  0  0  0  0  0  0  0  0  0  0  0
   -0.5010   26.7550  -25.5730 C   0  0  0  0  0  0  0  0  0  0  0  0
   -1.7230   26.3580  -25.0050 C   0  0  0  0  0  0  0  0  0  0  0  0
   -2.6520   25.6450  -25.7650 C   0  0  0  0  0  0  0  0  0  0  0  0
   -2.3850   25.3240  -27.1050 C   0  0  0  0  0  0  0  0  0  0  0  0
   -3.4020   24.5810  -27.8780 C   0  0  0  0  0  0  0  0  0  0  0  0
   -4.0410   23.6510  -27.3150 O   0  0  0  0  0  0  0  0  0  0  0  0
   -3.6710   24.9150  -29.2510 N   0  0  0  0  0  0  0  0  0  0  0  0
   -4.6080   24.1900  -30.0660 C   0  0  0  0  0  0  0  0  0  0  0  0
   -5.9360   24.5860  -30.0870 C   0  0  0  0  0  0  0  0  0  0  0  0
   -6.8360   23.8800  -30.8030 N   0  0  0  0  0  0  0  0  0  0  0  0
   -6.4740   22.7960  -31.5360 C   0  0  0  0  0  0  0  0  0  0  0  0
   -7.4730   22.1100  -32.2210 C   0  0  0  0  0  0  0  0  0  0  0  0
   -7.1570   20.9790  -32.9500 C   0  0  0  0  0  0  0  0  0  0  0  0
   -5.8330   20.5530  -33.0490 C   0  0  0  0  0  0  0  0  0  0  0  0
   -5.5430   19.3180  -33.8650 C   0  0  0  0  0  0  0  0  0  0  0  0
   -4.8100   21.3170  -32.4200 C   0  0  0  0  0  0  0  0  0  0  0  0
   -3.3590   20.9790  -32.7240 C   0  0  0  0  0  0  0  0  0  0  0  0
   -5.1540   22.3780  -31.5850 N   0  0  0  0  0  0  0  0  0  0  0  0
   -4.2390   23.0340  -30.7770 C   0  0  0  0  0  0  0  0  0  0  0  0
   -3.0780   22.5780  -30.5980 O   0  0  0  0  0  0  0  0  0  0  0  0
   -1.1490   25.6920  -27.6760 C   0  0  0  0  0  0  0  0  0  0  0  0
   -0.8580   25.3010  -28.9940 O   0  0  0  0  0  0  0  0  0  0  0  0
   -0.5590   23.9700  -29.4000 C   0  0  0  0  0  0  0  0  0  0  0  0
   -0.2220   26.4190  -26.9010 C   0  0  0  0  0  0  0  0  0  0  0  0
   -0.3689   27.6809  -22.9692 H   0  0  0  0  0  0  0  0  0  0  0  0
    0.9237   26.4430  -23.1221 H   0  0  0  0  0  0  0  0  0  0  0  0
    1.3473   28.1886  -23.1221 H   0  0  0  0  0  0  0  0  0  0  0  0
   -1.9486   26.6097  -23.9582 H   0  0  0  0  0  0  0  0  0  0  0  0
   -3.6028   25.3317  -25.3091 H   0  0  0  0  0  0  0  0  0  0  0  0
   -3.0960   25.6510  -29.7170 H   0  0  0  0  0  0  0  0  0  0  0  0
   -6.2556   25.4737  -29.5214 H   0  0  0  0  0  0  0  0  0  0  0  0
   -8.5125   22.4676  -32.1822 H   0  0  0  0  0  0  0  0  0  0  0  0
   -7.9536   20.4124  -33.4544 H   0  0  0  0  0  0  0  0  0  0  0  0
   -5.3442   18.4716  -33.1911 H   0  0  0  0  0  0  0  0  0  0  0  0
   -6.4110   19.0856  -34.4995 H   0  0  0  0  0  0  0  0  0  0  0  0
   -4.6623   19.4962  -34.4995 H   0  0  0  0  0  0  0  0  0  0  0  0
   -2.8072   20.8505  -31.7812 H   0  0  0  0  0  0  0  0  0  0  0  0
   -3.3138   20.0463  -33.3054 H   0  0  0  0  0  0  0  0  0  0  0  0
   -2.9063   21.7957  -33.3054 H   0  0  0  0  0  0  0  0  0  0  0  0
   -0.4171   23.3385  -28.5106 H   0  0  0  0  0  0  0  0  0  0  0  0
   -1.3907   23.5746  -30.0016 H   0  0  0  0  0  0  0  0  0  0  0  0
    0.3619   23.9683  -30.0016 H   0  0  0  0  0  0  0  0  0  0  0  0
    0.7349   26.7263  -27.3481 H   0  0  0  0  0  0  0  0  0  0  0  0
  1  2  1  0
  2  3  1  0
  3  4  2  0
  4  5  1  0
  5  6  2  0
  6  7  1  0
  7  8  2  0
  7  9  1  0
  9 10  1  0
 10 11  2  0
 11 12  1  0
 12 13  2  0
 13 14  1  0
 14 15  2  0
 15 16  1  0
 16 17  1  0
 16 18  2  0
 18 19  1  0
 18 20  1  0
 20 21  1  0
 21 22  2  0
  6 23  1  0
 23 24  1  0
 24 25  1  0
 23 26  2  0
 26  3  1  0
 21 10  1  0
 20 13  1  0
  1 27  1  0
  1 28  1  0
  1 29  1  0
  4 30  1  0
  5 31  1  0
  9 32  1  0
 11 33  1  0
 14 34  1  0
 15 35  1  0
 17 36  1  0
 17 37  1  0
 17 38  1  0
 19 39  1  0
 19 40  1  0
 19 41  1  0
 25 42  1  0
 25 43  1  0
 25 44  1  0
 26 45  1  0
M  END
>  <UniqueID>  (21) 
21

>  <SMILES>  (21) 
COc1ccc(C(=O)Nc2cnc3ccc(C)c(C)n3c2=O)c(OC)c1

>  <Energy>  (21) 
72.5520888107301

>  <Genealogy>  (21) 
COc1ccc(C(=O)Nc2cnc3ccc(C)c(C)n3c2=O)c(OC)c1 (3D coordinates assigned)
COc1ccc(C(=O)Nc2cnc3ccc(C)c(C)n3c2=O)c(OC)c1 (optimized conformer: 72.5520888107301 kcal/mol)

>  <smiles>  (21) 
COc1ccc(C(=O)Nc2cnc3ccc(C)c(C)n3c2=O)c(OC)c1

>  <score_type>  (21) 
oracle

>  <origin>  (21) 
adgpu

>  <m_score__min__energy>  (21) 
-7.8399999999999999

>  <m_primary>  (21) 
energy

$$$$
21:0
     RDKit          3D

 48 50  0  0  0  0  0  0  0  0999 V2000
   -0.1590   23.2670  -25.0830 C   0  0  0  0  0  0  0  0  0  0  0  0
   -0.7950   22.5980  -26.1670 O   0  0  0  0  0  0  0  0  0  0  0  0
   -1.4420   23.2460  -27.2290 C   0  0  0  0  0  0  0  0  0  0  0  0
   -0.7380   23.8110  -28.3100 C   0  0  0  0  0  0  0  0  0  0  0  0
   -1.4310   24.4480  -29.3440 C   0  0  0  0  0  0  0  0  0  0  0  0
   -2.8280   24.5200  -29.3270 C   0  0  0  0  0  0  0  0  0  0  0  0
   -3.4950   25.2080  -30.3960 N   0  0  0  0  0  0  0  0  0  0  0  0
   -4.9050   25.2170  -30.6590 C   0  0  0  0  0  0  0  0  0  0  0  0
   -5.5530   26.2970  -30.6060 O   0  0  0  0  0  0  0  0  0  0  0  0
   -5.6140   23.9360  -30.8930 C   0  0  0  0  0  0  0  0  0  0  0  0
   -6.9450   23.8110  -30.4510 C   0  0  0  0  0  0  0  0  0  0  0  0
   -7.6770   22.6530  -30.7110 C   0  0  0  0  0  0  0  0  0  0  0  0
   -7.0930   21.6010  -31.4130 C   0  0  0  0  0  0  0  0  0  0  0  0
   -5.7700   21.6960  -31.8450 C   0  0  0  0  0  0  0  0  0  0  0  0
   -5.0100   22.8540  -31.5860 C   0  0  0  0  0  0  0  0  0  0  0  0
   -3.6180   22.8950  -31.9500 N   0  0  0  0  0  0  0  0  0  0  0  0
   -2.7080   21.4800  -32.3750 S   0  0  0  0  0  0  0  0  0  0  0  0
   -3.6230   20.4910  -33.0450 O   0  0  0  0  0  0  0  0  0  0  0  0
   -1.6180   21.8610  -33.3370 O   0  0  0  0  0  0  0  0  0  0  0  0
   -1.9890   20.7750  -30.9320 C   0  0  0  0  0  0  0  0  0  0  0  0
   -0.7390   20.1470  -30.9940 C   0  0  0  0  0  0  0  0  0  0  0  0
   -0.1810   19.5750  -29.8470 C   0  0  0  0  0  0  0  0  0  0  0  0
   -0.8580   19.6280  -28.6240 C   0  0  0  0  0  0  0  0  0  0  0  0
   -0.2580   19.0390  -27.5020 O   0  0  0  0  0  0  0  0  0  0  0  0
    0.2890   17.7240  -27.4800 C   0  0  0  0  0  0  0  0  0  0  0  0
   -2.1140   20.2650  -28.5620 C   0  0  0  0  0  0  0  0  0  0  0  0
   -2.6710   20.8360  -29.7100 C   0  0  0  0  0  0  0  0  0  0  0  0
   -3.5300   23.9760  -28.2360 C   0  0  0  0  0  0  0  0  0  0  0  0
   -2.8380   23.3380  -27.2020 C   0  0  0  0  0  0  0  0  0  0  0  0
   -0.5392   22.8670  -24.1315 H   0  0  0  0  0  0  0  0  0  0  0  0
    0.9277   23.1066  -25.1400 H   0  0  0  0  0  0  0  0  0  0  0  0
   -0.3741   24.3443  -25.1400 H   0  0  0  0  0  0  0  0  0  0  0  0
    0.3599   23.7510  -28.3410 H   0  0  0  0  0  0  0  0  0  0  0  0
   -0.8724   24.8967  -30.1787 H   0  0  0  0  0  0  0  0  0  0  0  0
   -7.4128   24.6363  -29.8942 H   0  0  0  0  0  0  0  0  0  0  0  0
   -8.7167   22.5701  -30.3614 H   0  0  0  0  0  0  0  0  0  0  0  0
   -7.6764   20.6934  -31.6272 H   0  0  0  0  0  0  0  0  0  0  0  0
   -5.3152   20.8581  -32.3936 H   0  0  0  0  0  0  0  0  0  0  0  0
   -3.1120   23.8080  -31.9680 H   0  0  0  0  0  0  0  0  0  0  0  0
   -0.1942   20.1036  -31.9486 H   0  0  0  0  0  0  0  0  0  0  0  0
    0.7990   19.0789  -29.9067 H   0  0  0  0  0  0  0  0  0  0  0  0
    0.4237   17.4003  -26.4374 H   0  0  0  0  0  0  0  0  0  0  0  0
   -0.3964   17.0332  -27.9928 H   0  0  0  0  0  0  0  0  0  0  0  0
    1.2621   17.7230  -27.9928 H   0  0  0  0  0  0  0  0  0  0  0  0
   -2.6577   20.3129  -27.6070 H   0  0  0  0  0  0  0  0  0  0  0  0
   -3.6494   21.3355  -29.6535 H   0  0  0  0  0  0  0  0  0  0  0  0
   -4.6266   24.0528  -28.1962 H   0  0  0  0  0  0  0  0  0  0  0  0
   -3.3963   22.9043  -26.3593 H   0  0  0  0  0  0  0  0  0  0  0  0
  1  2  1  0
  2  3  1  0
  3  4  2  0
  4  5  1  0
  5  6  2  0
  6  7  1  0
  7  8  1  0
  8  9  2  0
  8 10  1  0
 10 11  2  0
 11 12  1  0
 12 13  2  0
 13 14  1  0
 14 15  2  0
 15 16  1  0
 16 17  1  0
 17 18  2  0
 17 19  2  0
 17 20  1  0
 20 21  2  0
 21 22  1  0
 22 23  2  0
 23 24  1  0
 24 25  1  0
 23 26  1  0
 26 27  2  0
  6 28  1  0
 28 29  2  0
 29  3  1  0
 15 10  1  0
 27 20  1  0
  1 30  1  0
  1 31  1  0
  1 32  1  0
  4 33  1  0
  5 34  1  0
 11 35  1  0
 12 36  1  0
 13 37  1  0
 14 38  1  0
 16 39  1  0
 21 40  1  0
 22 41  1  0
 25 42  1  0
 25 43  1  0
 25 44  1  0
 26 45  1  0
 27 46  1  0
 28 47  1  0
 29 48  1  0
M  CHG  1   7  -1
M  END
>  <UniqueID>  (22) 
22

>  <SMILES>  (22) 
COc1ccc([N-]C(=O)c2ccccc2NS(=O)(=O)c2ccc(OC)cc2)cc1

>  <Energy>  (22) 
61.400266057441435

>  <Genealogy>  (22) 
COc1ccc([N-]C(=O)c2ccccc2NS(=O)(=O)c2ccc(OC)cc2)cc1 (protonated)
COc1ccc([N-]C(=O)c2ccccc2NS(=O)(=O)c2ccc(OC)cc2)cc1 (3D coordinates assigned)
COc1ccc([N-]C(=O)c2ccccc2NS(=O)(=O)c2ccc(OC)cc2)cc1 (optimized conformer: 61.400266057441435 kcal/mol)

>  <smiles>  (22) 
COc1ccc(NC(=O)c2ccccc2NS(=O)(=O)c2ccc(OC)cc2)cc1

>  <score_type>  (22) 
oracle

>  <origin>  (22) 
adgpu

>  <m_score__min__energy>  (22) 
-9.4100000000000001

>  <m_primary>  (22) 
energy

$$$$
22:0
     RDKit          3D

 32 33  0  0  0  0  0  0  0  0999 V2000
   -4.1490   20.1539  -32.3238 H   0  0  0  0  0  0  0  0  0  0  0  0
   -4.4270   21.2160  -32.2550 C   0  0  0  0  0  0  0  0  0  0  0  0
   -5.6790   21.5600  -32.2370 N   0  0  0  0  0  0  0  0  0  0  0  0
   -6.8030   20.6650  -32.2650 C   0  0  0  0  0  0  0  0  0  0  0  0
   -8.0750   21.1880  -32.0030 C   0  0  0  0  0  0  0  0  0  0  0  0
   -8.1910   22.2620  -31.7954 H   0  0  0  0  0  0  0  0  0  0  0  0
   -9.1970   20.3580  -32.0030 C   0  0  0  0  0  0  0  0  0  0  0  0
  -10.1926   20.7823  -31.8063 H   0  0  0  0  0  0  0  0  0  0  0  0
   -9.0600   18.9900  -32.2520 C   0  0  0  0  0  0  0  0  0  0  0  0
   -9.9484   18.3414  -32.2565 H   0  0  0  0  0  0  0  0  0  0  0  0
   -7.7880   18.4400  -32.4970 C   0  0  0  0  0  0  0  0  0  0  0  0
   -7.5940   17.0710  -32.7380 O   0  0  0  0  0  0  0  0  0  0  0  0
   -6.5120   16.5330  -33.4890 C   0  0  0  0  0  0  0  0  0  0  0  0
   -5.7430   16.1506  -32.8017 H   0  0  0  0  0  0  0  0  0  0  0  0
   -6.8781   15.7120  -34.1230 H   0  0  0  0  0  0  0  0  0  0  0  0
   -6.0784   17.3204  -34.1230 H   0  0  0  0  0  0  0  0  0  0  0  0
   -6.6660   19.2800  -32.4980 C   0  0  0  0  0  0  0  0  0  0  0  0
   -5.6682   18.8552  -32.6823 H   0  0  0  0  0  0  0  0  0  0  0  0
   -3.3610   22.2670  -32.1820 C   0  0  0  0  0  0  0  0  0  0  0  0
   -2.3975   21.8162  -32.4621 H   0  0  0  0  0  0  0  0  0  0  0  0
   -3.6351   23.0786  -32.8721 H   0  0  0  0  0  0  0  0  0  0  0  0
   -3.2390   22.8620  -30.7740 C   0  0  0  0  0  0  0  0  0  0  0  0
   -3.4635   22.0790  -30.0347 H   0  0  0  0  0  0  0  0  0  0  0  0
   -2.2135   23.2391  -30.6471 H   0  0  0  0  0  0  0  0  0  0  0  0
   -4.1880   24.0060  -30.5750 C   0  0  0  0  0  0  0  0  0  0  0  0
   -3.8640   25.2990  -30.7910 N   0  0  0  0  0  0  0  0  0  0  0  0
   -4.9120   26.0340  -30.4570 N   0  0  0  0  0  0  0  0  0  0  0  0
   -4.9490   27.0750  -30.5210 H   0  0  0  0  0  0  0  0  0  0  0  0
   -5.8870   25.2210  -30.0210 C   0  0  0  0  0  0  0  0  0  0  0  0
   -7.0110   25.6200  -29.6180 O   0  0  0  0  0  0  0  0  0  0  0  0
   -5.4750   23.9110  -30.0710 C   0  0  0  0  0  0  0  0  0  0  0  0
   -6.0314   23.0073  -29.7815 H   0  0  0  0  0  0  0  0  0  0  0  0
  1  2  1  0
  2  3  2  0
  3  4  1  0
  4  5  2  0
  5  6  1  0
  5  7  1  0
  7  8  1  0
  7  9  2  0
  9 10  1  0
  9 11  1  0
 11 12  1  0
 12 13  1  0
 13 14  1  0
 13 15  1  0
 13 16  1  0
 11 17  2  0
 17 18  1  0
  2 19  1  0
 19 20  1  0
 19 21  1  0
 19 22  1  0
 22 23  1  0
 22 24  1  0
 22 25  1  0
 25 26  1  0
 26 27  1  0
 27 28  1  0
 27 29  1  0
 29 30  2  0
 29 31  1  0
 31 32  1  0
 17  4  1  0
 31 25  2  0
M  CHG  1  26  -1
M  END
>  <UniqueID>  (23) 
23

>  <SMILES>  (23) 
COc1cccc(/N=C/CCc2cc(=O)[nH][n-]2)c1

>  <Energy>  (23) 
59.776312112305654

>  <Genealogy>  (23) 
COc1cccc(N=CCCc2cc(=O)[nH][n-]2)c1 (protonated)
COc1cccc(/N=C/CCc2cc(=O)[nH][n-]2)c1 (cis-trans isomerization)
COc1cccc(/N=C/CCc2cc(=O)[nH][n-]2)c1 (3D coordinates assigned)
COc1cccc(/N=C/CCc2cc(=O)[nH][n-]2)c1 (optimized conformer: 59.776312112305654 kcal/mol)

>  <smiles>  (23) 
COc1cccc(N=CCCc2cc(=O)[nH][nH]2)c1

>  <score_type>  (23) 
oracle

>  <origin>  (23) 
adgpu

>  <m_score__min__energy>  (23) 
-8.9100000000000001

>  <m_primary>  (23) 
energy

$$$$
23:0
     RDKit          3D

 34 36  0  0  0  0  0  0  0  0999 V2000
   -4.2830   25.5110  -30.6830 O   0  0  0  0  0  0  0  0  0  0  0  0
   -4.9390   24.4590  -30.9140 C   0  0  0  0  0  0  0  0  0  0  0  0
   -6.2230   24.5550  -31.4470 C   0  0  0  0  0  0  0  0  0  0  0  0
   -6.9440   23.3960  -31.7140 C   0  0  0  0  0  0  0  0  0  0  0  0
   -6.3650   22.1500  -31.4380 C   0  0  0  0  0  0  0  0  0  0  0  0
   -7.0710   20.8740  -31.7170 C   0  0  0  0  0  0  0  0  0  0  0  0
   -8.4790   20.8060  -31.7600 C   0  0  0  0  0  0  0  0  0  0  0  0
   -9.1220   19.5910  -32.0170 C   0  0  0  0  0  0  0  0  0  0  0  0
   -8.3730   18.4320  -32.2300 C   0  0  0  0  0  0  0  0  0  0  0  0
   -6.9790   18.4830  -32.1810 C   0  0  0  0  0  0  0  0  0  0  0  0
   -6.3300   19.6950  -31.9230 C   0  0  0  0  0  0  0  0  0  0  0  0
   -5.1060   22.1170  -30.9220 N   0  0  0  0  0  0  0  0  0  0  0  0
   -4.4070   23.2240  -30.6530 N   0  0  0  0  0  0  0  0  0  0  0  0
   -3.0440   23.0700  -30.1340 C   0  0  0  0  0  0  0  0  0  0  0  0
   -2.9010   23.8180  -28.8350 C   0  0  0  0  0  0  0  0  0  0  0  0
   -3.9570   23.8450  -27.9080 C   0  0  0  0  0  0  0  0  0  0  0  0
   -3.8300   24.5710  -26.7190 C   0  0  0  0  0  0  0  0  0  0  0  0
   -2.6540   25.2780  -26.4520 C   0  0  0  0  0  0  0  0  0  0  0  0
   -1.6050   25.2640  -27.3760 C   0  0  0  0  0  0  0  0  0  0  0  0
   -1.7270   24.5400  -28.5650 C   0  0  0  0  0  0  0  0  0  0  0  0
   -6.6635   25.5412  -31.6552 H   0  0  0  0  0  0  0  0  0  0  0  0
   -7.9575   23.4567  -32.1371 H   0  0  0  0  0  0  0  0  0  0  0  0
   -9.0754   21.7146  -31.5903 H   0  0  0  0  0  0  0  0  0  0  0  0
  -10.2206   19.5483  -32.0514 H   0  0  0  0  0  0  0  0  0  0  0  0
   -8.8816   17.4787  -32.4364 H   0  0  0  0  0  0  0  0  0  0  0  0
   -6.3899   17.5687  -32.3455 H   0  0  0  0  0  0  0  0  0  0  0  0
   -5.2313   19.7271  -31.8807 H   0  0  0  0  0  0  0  0  0  0  0  0
   -2.8368   22.0030  -29.9649 H   0  0  0  0  0  0  0  0  0  0  0  0
   -2.3305   23.4767  -30.8658 H   0  0  0  0  0  0  0  0  0  0  0  0
   -4.8856   23.2939  -28.1179 H   0  0  0  0  0  0  0  0  0  0  0  0
   -4.6565   24.5856  -25.9933 H   0  0  0  0  0  0  0  0  0  0  0  0
   -2.5540   25.8453  -25.5149 H   0  0  0  0  0  0  0  0  0  0  0  0
   -0.6817   25.8240  -27.1667 H   0  0  0  0  0  0  0  0  0  0  0  0
   -0.9011   24.5356  -29.2916 H   0  0  0  0  0  0  0  0  0  0  0  0
  1  2  2  0
  2  3  1  0
  3  4  2  0
  4  5  1  0
  5  6  1  0
  6  7  2  0
  7  8  1  0
  8  9  2  0
  9 10  1  0
 10 11  2  0
  5 12  2  0
 12 13  1  0
 13 14  1  0
 14 15  1  0
 15 16  2  0
 16 17  1  0
 17 18  2  0
 18 19  1  0
 19 20  2  0
 13  2  1  0
 20 15  1  0
 11  6  1  0
  3 21  1  0
  4 22  1  0
  7 23  1  0
  8 24  1  0
  9 25  1  0
 10 26  1  0
 11 27  1  0
 14 28  1  0
 14 29  1  0
 16 30  1  0
 17 31  1  0
 18 32  1  0
 19 33  1  0
 20 34  1  0
M  END
>  <UniqueID>  (24) 
24

>  <SMILES>  (24) 
O=c1ccc(-c2ccccc2)nn1Cc1ccccc1

>  <Energy>  (24) 
41.15287334096528

>  <Genealogy>  (24) 
O=c1ccc(-c2ccccc2)nn1Cc1ccccc1 (3D coordinates assigned)
O=c1ccc(-c2ccccc2)nn1Cc1ccccc1 (optimized conformer: 41.15287334096528 kcal/mol)

>  <smiles>  (24) 
O=c1ccc(-c2ccccc2)nn1Cc1ccccc1

>  <score_type>  (24) 
oracle

>  <origin>  (24) 
adgpu

>  <m_score__min__energy>  (24) 
-8.3499999999999996

>  <m_primary>  (24) 
energy

$$$$
24:0
     RDKit          3D

 42 44  0  0  1  0  0  0  0  0999 V2000
   -7.3170   13.6270  -34.9600 C   0  0  0  0  0  0  0  0  0  0  0  0
   -6.1050   14.0500  -34.2220 C   0  0  0  0  0  0  0  0  0  0  0  0
   -5.1710   13.0800  -34.0500 N   0  0  0  0  0  0  0  0  0  0  0  0
   -4.0710   13.3030  -33.3520 C   0  0  0  0  0  0  0  0  0  0  0  0
   -3.8790   14.5360  -32.7950 C   0  0  0  0  0  0  0  0  0  0  0  0
   -4.7990   15.5090  -32.9590 C   0  0  0  0  0  0  0  0  0  0  0  0
   -6.0130   15.3080  -33.7150 C   0  0  0  0  0  0  0  0  0  0  0  0
   -6.7880   16.3700  -33.7610 O   0  0  0  0  0  0  0  0  0  0  0  0
   -6.7760   17.6570  -33.4670 C   0  0  0  0  0  0  0  0  0  0  0  0
   -7.3760   17.9560  -32.1930 C   0  0  0  0  0  0  0  0  0  0  0  0
   -7.4800   19.1940  -31.6810 C   0  0  0  0  0  0  0  0  0  0  0  0
   -7.0070   20.2900  -32.3570 C   0  0  0  0  0  0  0  0  0  0  0  0
   -7.0990   21.6130  -31.8490 N   0  0  0  0  0  0  0  0  0  0  0  0
   -5.9680   22.2110  -31.6130 C   0  0  0  0  0  0  0  0  0  0  0  0
   -4.7850   21.5960  -31.8410 N   0  0  0  0  0  0  0  0  0  0  0  0
   -3.6040   22.1970  -31.6030 C   0  0  0  0  0  0  0  0  0  0  0  0
   -2.5020   21.5650  -31.8390 N   0  0  0  0  0  0  0  0  0  0  0  0
   -3.5800   23.4680  -31.1150 N   0  0  0  0  0  0  0  0  0  0  0  0
   -4.7190   24.1330  -30.8670 C   0  0  0  0  0  0  0  0  0  0  0  0
   -4.6540   25.4580  -30.3570 N   0  0  0  0  0  0  0  0  0  0  0  0
   -5.9210   23.4930  -31.1190 C   0  0  0  0  0  0  0  0  0  0  0  0
   -7.1980   24.2120  -30.8520 C   0  0  0  0  0  0  0  0  0  0  0  0
   -6.4250   20.0600  -33.5800 C   0  0  0  0  0  0  0  0  0  0  0  0
   -6.3180   18.7640  -34.1120 C   0  0  0  0  0  0  0  0  0  0  0  0
   -5.7340   18.7280  -35.3270 F   0  0  0  0  0  0  0  0  0  0  0  0
   -8.1051   13.3519  -34.2436 H   0  0  0  0  0  0  0  0  0  0  0  0
   -7.6691   14.4554  -35.5923 H   0  0  0  0  0  0  0  0  0  0  0  0
   -7.0772   12.7594  -35.5923 H   0  0  0  0  0  0  0  0  0  0  0  0
   -3.3217   12.5084  -33.2215 H   0  0  0  0  0  0  0  0  0  0  0  0
   -2.9694   14.7362  -32.2097 H   0  0  0  0  0  0  0  0  0  0  0  0
   -4.6177   16.4920  -32.4998 H   0  0  0  0  0  0  0  0  0  0  0  0
   -7.7743   17.1184  -31.6015 H   0  0  0  0  0  0  0  0  0  0  0  0
   -7.9548   19.3316  -30.6983 H   0  0  0  0  0  0  0  0  0  0  0  0
   -4.7600   20.6150  -32.2180 H   0  0  0  0  0  0  0  0  0  0  0  0
   -1.5820   22.0430  -31.6490 H   0  0  0  0  0  0  0  0  0  0  0  0
   -2.6380   23.8960  -30.9450 H   0  0  0  0  0  0  0  0  0  0  0  0
   -4.6830   26.3140  -30.9530 H   0  0  0  0  0  0  0  0  0  0  0  0
   -4.5750   25.5480  -29.3040 H   0  0  0  0  0  0  0  0  0  0  0  0
   -7.3503   24.2978  -29.7660 H   0  0  0  0  0  0  0  0  0  0  0  0
   -7.1527   25.2172  -31.2964 H   0  0  0  0  0  0  0  0  0  0  0  0
   -8.0340   23.6520  -31.2964 H   0  0  0  0  0  0  0  0  0  0  0  0
   -6.0333   20.9110  -34.1566 H   0  0  0  0  0  0  0  0  0  0  0  0
  1  2  1  0
  2  3  2  0
  3  4  1  0
  4  5  2  0
  5  6  1  0
  6  7  2  0
  7  8  1  0
  8  9  1  0
  9 10  2  0
 10 11  1  0
 11 12  2  0
 12 13  1  0
 13 14  2  0
 14 15  1  0
 15 16  1  0
 16 17  2  3
 16 18  1  0
 18 19  1  0
 19 20  1  0
 19 21  2  0
 21 22  1  0
 12 23  1  0
 23 24  2  0
 24 25  1  0
  7  2  1  0
 24  9  1  0
 21 14  1  0
  1 26  1  0
  1 27  1  0
  1 28  1  0
  4 29  1  0
  5 30  1  0
  6 31  1  0
 10 32  1  0
 11 33  1  0
 15 34  1  0
 17 35  1  0
 18 36  1  0
 20 37  1  0
 20 38  1  0
 22 39  1  0
 22 40  1  0
 22 41  1  0
 23 42  1  0
M  END
>  <smiles>  (25) 
Cc1ncccc1Oc1ccc(N=c2[nH]c(=N)[nH]c(N)c2C)cc1F

>  <score_type>  (25) 
oracle

>  <origin>  (25) 
adgpu

>  <m_score__min__energy>  (25) 
-7.9500000000000002

>  <m_primary>  (25) 
energy

$$$$
25:0
     RDKit          3D

 53 56  0  0  0  0  0  0  0  0999 V2000
   -8.7768   19.6187  -33.0965 H   0  0  0  0  0  0  0  0  0  0  0  0
   -7.9150   20.1770  -32.7020 C   0  0  0  0  0  0  0  0  0  0  0  0
   -7.9780   21.3570  -32.0610 N   0  0  0  0  0  0  0  0  0  0  0  0
   -6.6920   21.6470  -31.7690 C   0  0  0  0  0  0  0  0  0  0  0  0
   -6.2770   22.8730  -31.0530 C   0  0  0  0  0  0  0  0  0  0  0  0
   -7.2400   23.7630  -30.5470 C   0  0  0  0  0  0  0  0  0  0  0  0
   -8.3100   23.5414  -30.6735 H   0  0  0  0  0  0  0  0  0  0  0  0
   -6.8450   24.9280  -29.8840 C   0  0  0  0  0  0  0  0  0  0  0  0
   -7.6046   25.6239  -29.4982 H   0  0  0  0  0  0  0  0  0  0  0  0
   -5.4900   25.2110  -29.7100 C   0  0  0  0  0  0  0  0  0  0  0  0
   -5.1845   26.1388  -29.2042 H   0  0  0  0  0  0  0  0  0  0  0  0
   -4.5150   24.3160  -30.1780 C   0  0  0  0  0  0  0  0  0  0  0  0
   -3.1150   24.6110  -30.0580 N   0  0  0  0  0  0  0  0  0  0  0  0
   -2.2070   23.9250  -29.4190 C   0  0  0  0  0  0  0  0  0  0  0  0
   -2.4780   22.6620  -28.8500 C   0  0  0  0  0  0  0  0  0  0  0  0
   -3.4832   22.2236  -28.9362 H   0  0  0  0  0  0  0  0  0  0  0  0
   -1.4650   21.9670  -28.1750 C   0  0  0  0  0  0  0  0  0  0  0  0
   -1.7340   20.6800  -27.5800 N   0  0  0  0  0  0  0  0  0  0  0  0
   -0.6180   19.8110  -27.1770 C   0  0  0  0  0  0  0  0  0  0  0  0
   -0.9430   19.1668  -26.3467 H   0  0  0  0  0  0  0  0  0  0  0  0
    0.2264   20.4414  -26.8613 H   0  0  0  0  0  0  0  0  0  0  0  0
   -0.1700   18.9370  -28.3440 C   0  0  0  0  0  0  0  0  0  0  0  0
    0.2996   18.0208  -27.9567 H   0  0  0  0  0  0  0  0  0  0  0  0
   -1.0425   18.6703  -28.9584 H   0  0  0  0  0  0  0  0  0  0  0  0
    0.5560   19.4896  -28.9584 H   0  0  0  0  0  0  0  0  0  0  0  0
   -3.1240   20.2450  -27.3730 C   0  0  0  0  0  0  0  0  0  0  0  0
   -3.6746   21.0343  -26.8402 H   0  0  0  0  0  0  0  0  0  0  0  0
   -3.5865   20.0547  -28.3527 H   0  0  0  0  0  0  0  0  0  0  0  0
   -3.1660   18.9620  -26.5510 C   0  0  0  0  0  0  0  0  0  0  0  0
   -3.1578   19.2123  -25.4799 H   0  0  0  0  0  0  0  0  0  0  0  0
   -4.0829   18.4033  -26.7900 H   0  0  0  0  0  0  0  0  0  0  0  0
   -2.2876   18.3445  -26.7900 H   0  0  0  0  0  0  0  0  0  0  0  0
   -0.1900   22.5370  -28.0890 C   0  0  0  0  0  0  0  0  0  0  0  0
    0.6157   22.0111  -27.5559 H   0  0  0  0  0  0  0  0  0  0  0  0
    0.0540   23.7740  -28.6820 C   0  0  0  0  0  0  0  0  0  0  0  0
    1.0573   24.2211  -28.6233 H   0  0  0  0  0  0  0  0  0  0  0  0
   -0.9430   24.4310  -29.3330 N   0  0  0  0  0  0  0  0  0  0  0  0
   -0.7280   25.3590  -29.7650 H   0  0  0  0  0  0  0  0  0  0  0  0
   -4.9130   23.1670  -30.8740 C   0  0  0  0  0  0  0  0  0  0  0  0
   -4.1512   22.4880  -31.2846 H   0  0  0  0  0  0  0  0  0  0  0  0
   -5.8200   20.7080  -32.1970 N   0  0  0  0  0  0  0  0  0  0  0  0
   -6.5970   19.7780  -32.7860 C   0  0  0  0  0  0  0  0  0  0  0  0
   -6.0680   18.5400  -33.4090 C   0  0  0  0  0  0  0  0  0  0  0  0
   -4.9160   18.5610  -34.2180 C   0  0  0  0  0  0  0  0  0  0  0  0
   -4.3903   19.5108  -34.3956 H   0  0  0  0  0  0  0  0  0  0  0  0
   -4.4350   17.3810  -34.7980 C   0  0  0  0  0  0  0  0  0  0  0  0
   -3.5350   17.4071  -35.4299 H   0  0  0  0  0  0  0  0  0  0  0  0
   -5.0950   16.1720  -34.5760 C   0  0  0  0  0  0  0  0  0  0  0  0
   -4.7155   15.2463  -35.0332 H   0  0  0  0  0  0  0  0  0  0  0  0
   -6.2380   16.1370  -33.7730 C   0  0  0  0  0  0  0  0  0  0  0  0
   -6.7567   15.1830  -33.5972 H   0  0  0  0  0  0  0  0  0  0  0  0
   -6.7230   17.3120  -33.1930 C   0  0  0  0  0  0  0  0  0  0  0  0
   -7.6237   17.2777  -32.5625 H   0  0  0  0  0  0  0  0  0  0  0  0
  1  2  1  0
  2  3  1  0
  3  4  1  0
  4  5  1  0
  5  6  2  0
  6  7  1  0
  6  8  1  0
  8  9  1  0
  8 10  2  0
 10 11  1  0
 10 12  1  0
 12 13  1  0
 13 14  2  0
 14 15  1  0
 15 16  1  0
 15 17  2  0
 17 18  1  0
 18 19  1  0
 19 20  1  0
 19 21  1  0
 19 22  1  0
 22 23  1  0
 22 24  1  0
 22 25  1  0
 18 26  1  0
 26 27  1  0
 26 28  1  0
 26 29  1  0
 29 30  1  0
 29 31  1  0
 29 32  1  0
 17 33  1  0
 33 34  1  0
 33 35  2  0
 35 36  1  0
 35 37  1  0
 37 38  1  0
 12 39  2  0
 39 40  1  0
  4 41  2  0
 41 42  1  0
 42 43  1  0
 43 44  2  0
 44 45  1  0
 44 46  1  0
 46 47  1  0
 46 48  2  0
 48 49  1  0
 48 50  1  0
 50 51  1  0
 50 52  2  0
 52 53  1  0
 42  2  2  0
 52 43  1  0
 39  5  1  0
 37 14  1  0
M  CHG  1   3  -1
M  END
>  <UniqueID>  (26) 
25

>  <SMILES>  (26) 
CCN(CC)c1cc[nH]/c(=N/c2cccc(-c3nc(-c4ccccc4)c[n-]3)c2)c1

>  <Energy>  (26) 
93.7333152367902

>  <Genealogy>  (26) 
CCN(CC)c1cc[nH]c(=Nc2cccc(-c3nc(-c4ccccc4)c[n-]3)c2)c1 (protonated)
CCN(CC)c1cc[nH]/c(=N/c2cccc(-c3nc(-c4ccccc4)c[n-]3)c2)c1 (cis-trans isomerization)
CCN(CC)c1cc[nH]/c(=N/c2cccc(-c3nc(-c4ccccc4)c[n-]3)c2)c1 (3D coordinates assigned)
CCN(CC)c1cc[nH]/c(=N/c2cccc(-c3nc(-c4ccccc4)c[n-]3)c2)c1 (optimized conformer: 93.7333152367902 kcal/mol)

>  <smiles>  (26) 
CCN(CC)c1cc[nH]c(=Nc2cccc(-c3nc(-c4ccccc4)c[nH]3)c2)c1

>  <score_type>  (26) 
oracle

>  <origin>  (26) 
adgpu

>  <m_score__min__energy>  (26) 
-9.4100000000000001

>  <m_primary>  (26) 
energy

$$$$
26:0
     RDKit          3D

 38 40  0  0  0  0  0  0  0  0999 V2000
   -7.3763   16.9721  -31.6852 H   0  0  0  0  0  0  0  0  0  0  0  0
   -6.8280   17.5210  -32.4650 C   0  0  0  0  0  0  0  0  0  0  0  0
   -5.6940   16.9490  -33.0490 C   0  0  0  0  0  0  0  0  0  0  0  0
   -5.3547   15.9538  -32.7258 H   0  0  0  0  0  0  0  0  0  0  0  0
   -4.9870   17.6380  -34.0450 C   0  0  0  0  0  0  0  0  0  0  0  0
   -3.7480   17.0400  -34.6420 C   0  0  0  0  0  0  0  0  0  0  0  0
   -3.0733   16.7143  -33.8366 H   0  0  0  0  0  0  0  0  0  0  0  0
   -4.0214   16.1747  -35.2636 H   0  0  0  0  0  0  0  0  0  0  0  0
   -3.2406   17.7924  -35.2636 H   0  0  0  0  0  0  0  0  0  0  0  0
   -5.4080   18.9200  -34.4260 C   0  0  0  0  0  0  0  0  0  0  0  0
   -4.8426   19.4778  -35.1871 H   0  0  0  0  0  0  0  0  0  0  0  0
   -6.5420   19.4930  -33.8440 C   0  0  0  0  0  0  0  0  0  0  0  0
   -6.8652   20.4983  -34.1520 H   0  0  0  0  0  0  0  0  0  0  0  0
   -7.2730   18.7930  -32.8670 C   0  0  0  0  0  0  0  0  0  0  0  0
   -8.4720   19.4080  -32.2490 C   0  0  0  0  0  0  0  0  0  0  0  0
   -9.4640   18.6840  -31.9670 O   0  0  0  0  0  0  0  0  0  0  0  0
   -8.5680   20.8220  -32.0250 N   0  0  0  0  0  0  0  0  0  0  0  0
   -7.5940   21.5980  -31.6490 C   0  0  0  0  0  0  0  0  0  0  0  0
   -6.0240   21.0940  -31.2300 S   0  0  0  0  0  0  0  0  0  0  0  0
   -5.5440   22.6630  -30.8640 C   0  0  0  0  0  0  0  0  0  0  0  0
   -4.3020   23.1080  -30.4200 C   0  0  0  0  0  0  0  0  0  0  0  0
   -3.4719   22.4025  -30.2673 H   0  0  0  0  0  0  0  0  0  0  0  0
   -4.1340   24.4910  -30.1700 C   0  0  0  0  0  0  0  0  0  0  0  0
   -2.9190   25.0360  -29.7230 O   0  0  0  0  0  0  0  0  0  0  0  0
   -2.2000   24.6180  -28.5630 C   0  0  0  0  0  0  0  0  0  0  0  0
   -1.4621   25.3897  -28.2986 H   0  0  0  0  0  0  0  0  0  0  0  0
   -1.6958   23.6659  -28.7850 H   0  0  0  0  0  0  0  0  0  0  0  0
   -3.1460   24.4070  -27.3860 C   0  0  0  0  0  0  0  0  0  0  0  0
   -2.5921   24.5305  -26.4437 H   0  0  0  0  0  0  0  0  0  0  0  0
   -3.9597   25.1457  -27.4326 H   0  0  0  0  0  0  0  0  0  0  0  0
   -3.5687   23.3925  -27.4326 H   0  0  0  0  0  0  0  0  0  0  0  0
   -5.2170   25.3710  -30.3800 C   0  0  0  0  0  0  0  0  0  0  0  0
   -5.0855   26.4466  -30.1909 H   0  0  0  0  0  0  0  0  0  0  0  0
   -6.4610   24.8940  -30.8270 C   0  0  0  0  0  0  0  0  0  0  0  0
   -7.3024   25.5846  -30.9854 H   0  0  0  0  0  0  0  0  0  0  0  0
   -6.6080   23.5270  -31.0660 C   0  0  0  0  0  0  0  0  0  0  0  0
   -7.7520   22.9340  -31.4980 N   0  0  0  0  0  0  0  0  0  0  0  0
   -8.6430   23.4460  -31.6910 H   0  0  0  0  0  0  0  0  0  0  0  0
  1  2  1  0
  2  3  2  0
  3  4  1  0
  3  5  1  0
  5  6  1  0
  6  7  1  0
  6  8  1  0
  6  9  1  0
  5 10  2  0
 10 11  1  0
 10 12  1  0
 12 13  1  0
 12 14  2  0
 14 15  1  0
 15 16  2  0
 15 17  1  0
 17 18  2  0
 18 19  1  0
 19 20  1  0
 20 21  2  0
 21 22  1  0
 21 23  1  0
 23 24  1  0
 24 25  1  0
 25 26  1  0
 25 27  1  0
 25 28  1  0
 28 29  1  0
 28 30  1  0
 28 31  1  0
 23 32  2  0
 32 33  1  0
 32 34  1  0
 34 35  1  0
 34 36  2  0
 36 37  1  0
 37 38  1  0
 14  2  1  0
 37 18  1  0
 36 20  1  0
M  END
>  <UniqueID>  (27) 
26

>  <SMILES>  (27) 
CCOc1ccc2[nH]/c(=N/C(=O)c3ccc(C)cc3)sc2c1

>  <Energy>  (27) 
80.52088505103536

>  <Genealogy>  (27) 
CCOc1ccc2[nH]/c(=N/C(=O)c3ccc(C)cc3)sc2c1 (cis-trans isomerization)
CCOc1ccc2[nH]/c(=N/C(=O)c3ccc(C)cc3)sc2c1 (3D coordinates assigned)
CCOc1ccc2[nH]/c(=N/C(=O)c3ccc(C)cc3)sc2c1 (optimized conformer: 80.52088505103536 kcal/mol)

>  <smiles>  (27) 
CCOc1ccc2[nH]c(=NC(=O)c3ccc(C)cc3)sc2c1

>  <score_type>  (27) 
oracle

>  <origin>  (27) 
adgpu

>  <m_score__min__energy>  (27) 
-8.6699999999999999

>  <m_primary>  (27) 
energy

$$$$
27:0
     RDKit          3D

 19 20  0  0  0  0  0  0  0  0999 V2000
   -9.0970   18.5110  -31.9690 Cl  0  0  0  0  0  0  0  0  0  0  0  0
   -8.5400   20.1740  -32.0250 C   0  0  0  0  0  0  0  0  0  0  0  0
   -9.4590   21.2240  -31.9170 C   0  0  0  0  0  0  0  0  0  0  0  0
   -9.0150   22.5490  -31.9620 C   0  0  0  0  0  0  0  0  0  0  0  0
   -7.6540   22.8280  -32.1160 C   0  0  0  0  0  0  0  0  0  0  0  0
   -6.7320   21.7790  -32.2280 C   0  0  0  0  0  0  0  0  0  0  0  0
   -4.9870   22.1340  -32.4300 S   0  0  0  0  0  0  0  0  0  0  0  0
   -4.9840   23.3130  -31.0860 C   0  0  0  0  0  0  0  0  0  0  0  0
   -5.0350   24.6490  -31.2660 N   0  0  0  0  0  0  0  0  0  0  0  0
   -5.0260   25.3140  -30.0810 C   0  0  0  0  0  0  0  0  0  0  0  0
   -4.9680   24.5070  -28.9510 C   0  0  0  0  0  0  0  0  0  0  0  0
   -4.9260   22.9030  -29.4590 S   0  0  0  0  0  0  0  0  0  0  0  0
   -7.1760   20.4510  -32.1780 C   0  0  0  0  0  0  0  0  0  0  0  0
  -10.5306   21.0068  -31.7967 H   0  0  0  0  0  0  0  0  0  0  0  0
   -9.7381   23.3735  -31.8761 H   0  0  0  0  0  0  0  0  0  0  0  0
   -7.3068   23.8712  -32.1493 H   0  0  0  0  0  0  0  0  0  0  0  0
   -5.0620   26.4117  -30.0205 H   0  0  0  0  0  0  0  0  0  0  0  0
   -4.9523   24.8554  -27.9078 H   0  0  0  0  0  0  0  0  0  0  0  0
   -6.4530   19.6260  -32.2589 H   0  0  0  0  0  0  0  0  0  0  0  0
  1  2  1  0
  2  3  2  0
  3  4  1  0
  4  5  2  0
  5  6  1  0
  6  7  1  0
  7  8  1  0
  8  9  2  0
  9 10  1  0
 10 11  2  0
 11 12  1  0
  6 13  2  0
 13  2  1  0
 12  8  1  0
  3 14  1  0
  4 15  1  0
  5 16  1  0
 10 17  1  0
 11 18  1  0
 13 19  1  0
M  END
>  <UniqueID>  (28) 
27

>  <SMILES>  (28) 
Clc1cccc(Sc2nccs2)c1

>  <Energy>  (28) 
44.96894707943283

>  <Genealogy>  (28) 
Clc1cccc(Sc2nccs2)c1 (3D coordinates assigned)
Clc1cccc(Sc2nccs2)c1 (optimized conformer: 44.96894707943283 kcal/mol)

>  <smiles>  (28) 
Clc1cccc(Sc2nccs2)c1

>  <score_type>  (28) 
oracle

>  <origin>  (28) 
adgpu

>  <m_score__min__energy>  (28) 
-6.3300000000000001

>  <m_primary>  (28) 
energy

$$$$
28:0
     RDKit          3D

 42 44  0  0  0  0  0  0  0  0999 V2000
   -1.8250   25.0020  -28.1630 C   0  0  0  0  0  0  0  0  0  0  0  0
   -2.5660   25.3000  -29.3410 O   0  0  0  0  0  0  0  0  0  0  0  0
   -3.5380   24.4560  -29.8990 C   0  0  0  0  0  0  0  0  0  0  0  0
   -3.1570   23.1650  -30.2820 C   0  0  0  0  0  0  0  0  0  0  0  0
   -4.0870   22.2860  -30.8430 C   0  0  0  0  0  0  0  0  0  0  0  0
   -5.4250   22.6790  -31.0240 C   0  0  0  0  0  0  0  0  0  0  0  0
   -6.3990   21.7330  -31.6270 C   0  0  0  0  0  0  0  0  0  0  0  0
   -5.9860   20.5450  -32.2500 C   0  0  0  0  0  0  0  0  0  0  0  0
   -6.9550   19.6900  -32.7990 C   0  0  0  0  0  0  0  0  0  0  0  0
   -6.5860   18.4610  -33.4570 N   0  0  0  0  0  0  0  0  0  0  0  0
   -7.0140   17.1840  -32.8650 C   0  0  0  0  0  0  0  0  0  0  0  0
   -6.8410   16.0260  -33.8520 C   0  0  0  0  0  0  0  0  0  0  0  0
   -5.4020   15.9470  -34.3830 C   0  0  0  0  0  0  0  0  0  0  0  0
   -4.7750   17.3300  -34.7180 C   0  0  2  0  0  0  0  0  0  0  0  0
   -3.6210   17.6610  -33.7590 C   0  0  0  0  0  0  0  0  0  0  0  0
   -5.8200   18.4660  -34.7140 C   0  0  0  0  0  0  0  0  0  0  0  0
   -8.2650   20.0500  -32.7360 N   0  0  0  0  0  0  0  0  0  0  0  0
   -8.6530   21.2060  -32.1420 C   0  0  0  0  0  0  0  0  0  0  0  0
   -7.7270   22.0330  -31.5950 N   0  0  0  0  0  0  0  0  0  0  0  0
   -5.8040   23.9820  -30.6480 C   0  0  0  0  0  0  0  0  0  0  0  0
   -4.8720   24.8610  -30.0890 C   0  0  0  0  0  0  0  0  0  0  0  0
   -2.4305   25.2455  -27.2775 H   0  0  0  0  0  0  0  0  0  0  0  0
   -1.5710   23.9318  -28.1505 H   0  0  0  0  0  0  0  0  0  0  0  0
   -0.9008   25.5984  -28.1505 H   0  0  0  0  0  0  0  0  0  0  0  0
   -2.1159   22.8393  -30.1401 H   0  0  0  0  0  0  0  0  0  0  0  0
   -3.7696   21.2773  -31.1459 H   0  0  0  0  0  0  0  0  0  0  0  0
   -4.9181   20.2874  -32.3073 H   0  0  0  0  0  0  0  0  0  0  0  0
   -6.4085   16.9840  -31.9687 H   0  0  0  0  0  0  0  0  0  0  0  0
   -8.0801   17.2622  -32.6057 H   0  0  0  0  0  0  0  0  0  0  0  0
   -7.0858   15.0826  -33.3421 H   0  0  0  0  0  0  0  0  0  0  0  0
   -7.5140   16.1971  -34.7051 H   0  0  0  0  0  0  0  0  0  0  0  0
   -4.7777   15.4600  -33.6194 H   0  0  0  0  0  0  0  0  0  0  0  0
   -5.4406   15.3786  -35.3240 H   0  0  0  0  0  0  0  0  0  0  0  0
   -4.3755   17.2548  -35.7401 H   0  0  0  0  0  0  0  0  0  0  0  0
   -3.9678   17.5615  -32.7199 H   0  0  0  0  0  0  0  0  0  0  0  0
   -2.7869   16.9659  -33.9353 H   0  0  0  0  0  0  0  0  0  0  0  0
   -3.2822   18.6926  -33.9353 H   0  0  0  0  0  0  0  0  0  0  0  0
   -5.3043   19.4319  -34.8192 H   0  0  0  0  0  0  0  0  0  0  0  0
   -6.5144   18.3119  -35.5531 H   0  0  0  0  0  0  0  0  0  0  0  0
   -9.7194   21.4732  -32.1037 H   0  0  0  0  0  0  0  0  0  0  0  0
   -6.8432   24.3112  -30.7956 H   0  0  0  0  0  0  0  0  0  0  0  0
   -5.1831   25.8746  -29.7961 H   0  0  0  0  0  0  0  0  0  0  0  0
  1  2  1  0
  2  3  1  0
  3  4  2  0
  4  5  1  0
  5  6  2  0
  6  7  1  0
  7  8  2  0
  8  9  1  0
  9 10  1  0
 10 11  1  0
 11 12  1  0
 12 13  1  0
 13 14  1  0
 14 15  1  0
 14 16  1  0
  9 17  2  0
 17 18  1  0
 18 19  2  0
  6 20  1  0
 20 21  2  0
 21  3  1  0
 19  7  1  0
 16 10  1  0
  1 22  1  0
  1 23  1  0
  1 24  1  0
  4 25  1  0
  5 26  1  0
  8 27  1  0
 11 28  1  0
 11 29  1  0
 12 30  1  0
 12 31  1  0
 13 32  1  0
 13 33  1  0
 14 34  1  6
 15 35  1  0
 15 36  1  0
 15 37  1  0
 16 38  1  0
 16 39  1  0
 18 40  1  0
 20 41  1  0
 21 42  1  0
M  END
>  <UniqueID>  (29) 
28

>  <SMILES>  (29) 
COc1ccc(-c2cc(N3CCC[C@H](C)C3)ncn2)cc1

>  <Energy>  (29) 
49.96267884753539

>  <Genealogy>  (29) 
COc1ccc(-c2cc(N3CCC[C@H](C)C3)ncn2)cc1 (chirality)
COc1ccc(-c2cc(N3CCC[C@H](C)C3)ncn2)cc1 (3D coordinates assigned)
COc1ccc(-c2cc(N3CCC[C@H](C)C3)ncn2)cc1 (nonaromatic ring conformer: 49.96267884753539 kcal/mol)

>  <smiles>  (29) 
COc1ccc(-c2cc(N3CCCC(C)C3)ncn2)cc1

>  <score_type>  (29) 
oracle

>  <origin>  (29) 
adgpu

>  <m_score__min__energy>  (29) 
-8.0899999999999999

>  <m_primary>  (29) 
energy

$$$$
29:0
     RDKit          3D

 31 33  0  0  0  0  0  0  0  0999 V2000
   -7.8890   18.4990  -32.3940 C   0  0  0  0  0  0  0  0  0  0  0  0
   -8.0670   19.9570  -32.0900 C   0  0  0  0  0  0  0  0  0  0  0  0
   -9.3290   20.5540  -32.2100 C   0  0  0  0  0  0  0  0  0  0  0  0
   -9.4880   21.9180  -31.9580 C   0  0  0  0  0  0  0  0  0  0  0  0
   -8.3880   22.6980  -31.5950 C   0  0  0  0  0  0  0  0  0  0  0  0
   -7.1090   22.1230  -31.4870 C   0  0  0  0  0  0  0  0  0  0  0  0
   -5.9710   22.9310  -31.1230 N   0  0  0  0  0  0  0  0  0  0  0  0
   -5.7880   24.2470  -31.3660 C   0  0  0  0  0  0  0  0  0  0  0  0
   -4.6120   24.7040  -30.8930 N   0  0  0  0  0  0  0  0  0  0  0  0
   -4.0330   23.6270  -30.3240 C   0  0  0  0  0  0  0  0  0  0  0  0
   -2.6910   23.6330  -29.6890 C   0  0  0  0  0  0  0  0  0  0  0  0
   -2.4140   24.5540  -28.6620 C   0  0  0  0  0  0  0  0  0  0  0  0
   -1.1650   24.5660  -28.0390 C   0  0  0  0  0  0  0  0  0  0  0  0
   -0.1910   23.6580  -28.4470 C   0  0  0  0  0  0  0  0  0  0  0  0
   -0.4600   22.7770  -29.4440 N   0  0  0  0  0  0  0  0  0  0  0  0
   -1.6660   22.7350  -30.0700 C   0  0  0  0  0  0  0  0  0  0  0  0
   -1.8580   21.5780  -31.3820 Cl  0  0  0  0  0  0  0  0  0  0  0  0
   -4.8650   22.5330  -30.4670 C   0  0  0  0  0  0  0  0  0  0  0  0
   -6.9590   20.7470  -31.7430 C   0  0  0  0  0  0  0  0  0  0  0  0
   -7.8200   17.9340  -31.4527 H   0  0  0  0  0  0  0  0  0  0  0  0
   -8.7497   18.1381  -32.9761 H   0  0  0  0  0  0  0  0  0  0  0  0
   -6.9667   18.3558  -32.9761 H   0  0  0  0  0  0  0  0  0  0  0  0
  -10.1973   19.9460  -32.5037 H   0  0  0  0  0  0  0  0  0  0  0  0
  -10.4826   22.3796  -32.0456 H   0  0  0  0  0  0  0  0  0  0  0  0
   -8.5229   23.7706  -31.3919 H   0  0  0  0  0  0  0  0  0  0  0  0
   -6.5196   24.8772  -31.8928 H   0  0  0  0  0  0  0  0  0  0  0  0
   -3.1876   25.2700  -28.3477 H   0  0  0  0  0  0  0  0  0  0  0  0
   -0.9522   25.2851  -27.2342 H   0  0  0  0  0  0  0  0  0  0  0  0
    0.7960   23.6548  -27.9614 H   0  0  0  0  0  0  0  0  0  0  0  0
   -4.6593   21.5140  -30.1073 H   0  0  0  0  0  0  0  0  0  0  0  0
   -5.9631   20.2855  -31.6705 H   0  0  0  0  0  0  0  0  0  0  0  0
  1  2  1  0
  2  3  2  0
  3  4  1  0
  4  5  2  0
  5  6  1  0
  6  7  1  0
  7  8  1  0
  8  9  2  0
  9 10  1  0
 10 11  1  0
 11 12  2  0
 12 13  1  0
 13 14  2  0
 14 15  1  0
 15 16  2  0
 16 17  1  0
 10 18  2  0
  6 19  2  0
 19  2  1  0
 18  7  1  0
 16 11  1  0
  1 20  1  0
  1 21  1  0
  1 22  1  0
  3 23  1  0
  4 24  1  0
  5 25  1  0
  8 26  1  0
 12 27  1  0
 13 28  1  0
 14 29  1  0
 18 30  1  0
 19 31  1  0
M  END
>  <UniqueID>  (30) 
29

>  <SMILES>  (30) 
Cc1cccc(-n2cnc(-c3cccnc3Cl)c2)c1

>  <Energy>  (30) 
71.29504142941539

>  <Genealogy>  (30) 
Cc1cccc(-n2cnc(-c3cccnc3Cl)c2)c1 (3D coordinates assigned)
Cc1cccc(-n2cnc(-c3cccnc3Cl)c2)c1 (optimized conformer: 71.29504142941539 kcal/mol)

>  <smiles>  (30) 
Cc1cccc(-n2cnc(-c3cccnc3Cl)c2)c1

>  <score_type>  (30) 
oracle

>  <origin>  (30) 
adgpu

>  <m_score__min__energy>  (30) 
-7.4800000000000004

>  <m_primary>  (30) 
energy

$$$$
30:0
     RDKit          3D

 41 43  0  0  0  0  0  0  0  0999 V2000
   -7.1550   24.1240  -29.7770 C   0  0  0  0  0  0  0  0  0  0  0  0
   -6.1370   25.2600  -29.7240 C   0  0  0  0  0  0  0  0  0  0  0  0
   -5.0070   25.0230  -30.6880 C   0  0  0  0  0  0  0  0  0  0  0  0
   -3.9340   25.6660  -30.5360 O   0  0  0  0  0  0  0  0  0  0  0  0
   -5.1390   24.1710  -31.8340 N   0  0  0  0  0  0  0  0  0  0  0  0
   -4.9230   22.7550  -31.8850 C   0  0  0  0  0  0  0  0  0  0  0  0
   -5.5790   21.8630  -32.7100 C   0  0  0  0  0  0  0  0  0  0  0  0
   -5.1870   20.6170  -32.2430 C   0  0  0  0  0  0  0  0  0  0  0  0
   -5.6130   19.2950  -32.7650 C   0  0  0  0  0  0  0  0  0  0  0  0
   -4.9570   18.6940  -33.8560 C   0  0  0  0  0  0  0  0  0  0  0  0
   -5.3720   17.4480  -34.3340 C   0  0  0  0  0  0  0  0  0  0  0  0
   -6.4560   16.7850  -33.7410 C   0  0  0  0  0  0  0  0  0  0  0  0
   -6.8740   15.4300  -34.2300 C   0  0  0  0  0  0  0  0  0  0  0  0
   -7.1000   17.3690  -32.6410 C   0  0  0  0  0  0  0  0  0  0  0  0
   -6.6870   18.6160  -32.1620 C   0  0  0  0  0  0  0  0  0  0  0  0
   -4.3630   20.7700  -31.1860 N   0  0  0  0  0  0  0  0  0  0  0  0
   -4.2070   22.0670  -30.9710 N   0  0  0  0  0  0  0  0  0  0  0  0
   -3.4120   22.5980  -29.8940 C   0  0  0  0  0  0  0  0  0  0  0  0
   -2.1040   23.0480  -30.1460 C   0  0  0  0  0  0  0  0  0  0  0  0
   -1.3270   23.5780  -29.1110 C   0  0  0  0  0  0  0  0  0  0  0  0
   -1.8500   23.6730  -27.8200 C   0  0  0  0  0  0  0  0  0  0  0  0
   -3.1540   23.2460  -27.5620 C   0  0  0  0  0  0  0  0  0  0  0  0
   -3.9350   22.7140  -28.5930 C   0  0  0  0  0  0  0  0  0  0  0  0
   -7.4236   23.8243  -28.7533 H   0  0  0  0  0  0  0  0  0  0  0  0
   -8.0564   24.4639  -30.3080 H   0  0  0  0  0  0  0  0  0  0  0  0
   -6.7187   23.2651  -30.3080 H   0  0  0  0  0  0  0  0  0  0  0  0
   -6.6386   26.2038  -29.9842 H   0  0  0  0  0  0  0  0  0  0  0  0
   -5.7223   25.3090  -28.7063 H   0  0  0  0  0  0  0  0  0  0  0  0
   -6.2572   22.0888  -33.5461 H   0  0  0  0  0  0  0  0  0  0  0  0
   -4.1116   19.2089  -34.3358 H   0  0  0  0  0  0  0  0  0  0  0  0
   -4.8449   16.9844  -35.1809 H   0  0  0  0  0  0  0  0  0  0  0  0
   -7.0758   14.7757  -33.3691 H   0  0  0  0  0  0  0  0  0  0  0  0
   -7.7846   15.5251  -34.8398 H   0  0  0  0  0  0  0  0  0  0  0  0
   -6.0681   14.9956  -34.8398 H   0  0  0  0  0  0  0  0  0  0  0  0
   -7.9340   16.8437  -32.1526 H   0  0  0  0  0  0  0  0  0  0  0  0
   -7.2069   19.0702  -31.3056 H   0  0  0  0  0  0  0  0  0  0  0  0
   -1.6895   22.9828  -31.1628 H   0  0  0  0  0  0  0  0  0  0  0  0
   -0.3017   23.9207  -29.3145 H   0  0  0  0  0  0  0  0  0  0  0  0
   -1.2347   24.0842  -27.0062 H   0  0  0  0  0  0  0  0  0  0  0  0
   -3.5678   23.3282  -26.5461 H   0  0  0  0  0  0  0  0  0  0  0  0
   -4.9638   22.3845  -28.3856 H   0  0  0  0  0  0  0  0  0  0  0  0
  1  2  1  0
  2  3  1  0
  3  4  2  0
  3  5  1  0
  5  6  1  0
  6  7  2  0
  7  8  1  0
  8  9  1  0
  9 10  2  0
 10 11  1  0
 11 12  2  0
 12 13  1  0
 12 14  1  0
 14 15  2  0
  8 16  2  0
 16 17  1  0
 17 18  1  0
 18 19  2  0
 19 20  1  0
 20 21  2  0
 21 22  1  0
 22 23  2  0
 17  6  1  0
 23 18  1  0
 15  9  1  0
  1 24  1  0
  1 25  1  0
  1 26  1  0
  2 27  1  0
  2 28  1  0
  7 29  1  0
 10 30  1  0
 11 31  1  0
 13 32  1  0
 13 33  1  0
 13 34  1  0
 14 35  1  0
 15 36  1  0
 19 37  1  0
 20 38  1  0
 21 39  1  0
 22 40  1  0
 23 41  1  0
M  CHG  1   5  -1
M  END
>  <UniqueID>  (31) 
30

>  <SMILES>  (31) 
CCC(=O)[N-]c1cc(-c2ccc(C)cc2)nn1-c1ccccc1

>  <Energy>  (31) 
79.16941481561695

>  <Genealogy>  (31) 
CCC(=O)[N-]c1cc(-c2ccc(C)cc2)nn1-c1ccccc1 (protonated)
CCC(=O)[N-]c1cc(-c2ccc(C)cc2)nn1-c1ccccc1 (3D coordinates assigned)
CCC(=O)[N-]c1cc(-c2ccc(C)cc2)nn1-c1ccccc1 (optimized conformer: 79.16941481561695 kcal/mol)

>  <smiles>  (31) 
CCC(=O)Nc1cc(-c2ccc(C)cc2)nn1-c1ccccc1

>  <score_type>  (31) 
oracle

>  <origin>  (31) 
adgpu

>  <m_score__min__energy>  (31) 
-8.9100000000000001

>  <m_primary>  (31) 
energy

$$$$
31:0
     RDKit          3D

 32 34  0  0  0  0  0  0  0  0999 V2000
   -6.6240   17.0090  -32.7960 Cl  0  0  0  0  0  0  0  0  0  0  0  0
   -6.4700   18.7600  -32.7600 C   0  0  0  0  0  0  0  0  0  0  0  0
   -5.2440   19.3390  -33.1010 C   0  0  0  0  0  0  0  0  0  0  0  0
   -5.0890   20.7280  -33.0830 C   0  0  0  0  0  0  0  0  0  0  0  0
   -6.1660   21.5600  -32.7230 C   0  0  0  0  0  0  0  0  0  0  0  0
   -6.0450   22.9960  -32.6970 N   0  0  0  0  0  0  0  0  0  0  0  0
   -6.6600   23.8590  -31.6890 C   0  0  0  0  0  0  0  0  0  0  0  0
   -5.6810   24.1770  -30.6030 C   0  0  0  0  0  0  0  0  0  0  0  0
   -6.0230   24.7590  -29.4380 N   0  0  0  0  0  0  0  0  0  0  0  0
   -4.8990   24.8940  -28.7600 N   0  0  0  0  0  0  0  0  0  0  0  0
   -3.8970   24.4040  -29.5180 C   0  0  0  0  0  0  0  0  0  0  0  0
   -2.4660   24.3640  -29.1250 C   0  0  0  0  0  0  0  0  0  0  0  0
   -1.9250   25.2940  -28.2180 C   0  0  0  0  0  0  0  0  0  0  0  0
   -0.5730   25.2190  -27.8740 C   0  0  0  0  0  0  0  0  0  0  0  0
    0.2180   24.2530  -28.4130 N   0  0  0  0  0  0  0  0  0  0  0  0
   -0.2740   23.3410  -29.2900 C   0  0  0  0  0  0  0  0  0  0  0  0
   -1.6200   23.3790  -29.6620 C   0  0  0  0  0  0  0  0  0  0  0  0
   -4.3550   23.9430  -30.7000 N   0  0  0  0  0  0  0  0  0  0  0  0
   -7.3930   20.9710  -32.3780 C   0  0  0  0  0  0  0  0  0  0  0  0
   -7.5500   19.5800  -32.3960 C   0  0  0  0  0  0  0  0  0  0  0  0
   -9.1080   18.8930  -31.9580 Cl  0  0  0  0  0  0  0  0  0  0  0  0
   -4.3966   18.6978  -33.3851 H   0  0  0  0  0  0  0  0  0  0  0  0
   -4.1198   21.1736  -33.3517 H   0  0  0  0  0  0  0  0  0  0  0  0
   -5.4670   23.4620  -33.4340 H   0  0  0  0  0  0  0  0  0  0  0  0
   -6.9887   24.7945  -32.1653 H   0  0  0  0  0  0  0  0  0  0  0  0
   -7.5210   23.3343  -31.2492 H   0  0  0  0  0  0  0  0  0  0  0  0
   -4.8430   25.3140  -27.8080 H   0  0  0  0  0  0  0  0  0  0  0  0
   -2.5636   26.0763  -27.7819 H   0  0  0  0  0  0  0  0  0  0  0  0
   -0.1469   25.9438  -27.1647 H   0  0  0  0  0  0  0  0  0  0  0  0
    0.3892   22.5698  -29.7089 H   0  0  0  0  0  0  0  0  0  0  0  0
   -2.0165   22.6397  -30.3735 H   0  0  0  0  0  0  0  0  0  0  0  0
   -8.2408   21.6100  -32.0902 H   0  0  0  0  0  0  0  0  0  0  0  0
  1  2  1  0
  2  3  2  0
  3  4  1  0
  4  5  2  0
  5  6  1  0
  6  7  1  0
  7  8  1  0
  8  9  2  0
  9 10  1  0
 10 11  1  0
 11 12  1  0
 12 13  2  0
 13 14  1  0
 14 15  2  0
 15 16  1  0
 16 17  2  0
 11 18  2  0
  5 19  1  0
 19 20  2  0
 20 21  1  0
 20  2  1  0
 18  8  1  0
 17 12  1  0
  3 22  1  0
  4 23  1  0
  6 24  1  0
  7 25  1  0
  7 26  1  0
 10 27  1  0
 13 28  1  0
 14 29  1  0
 16 30  1  0
 17 31  1  0
 19 32  1  0
M  END
>  <UniqueID>  (32) 
31

>  <SMILES>  (32) 
Clc1ccc(NCc2n[nH]c(-c3ccncc3)n2)cc1Cl

>  <Energy>  (32) 
68.8091743262365

>  <Genealogy>  (32) 
Clc1ccc(NCc2n[nH]c(-c3ccncc3)n2)cc1Cl (3D coordinates assigned)
Clc1ccc(NCc2n[nH]c(-c3ccncc3)n2)cc1Cl (optimized conformer: 68.8091743262365 kcal/mol)

>  <smiles>  (32) 
Clc1ccc(NCc2n[nH]c(-c3ccncc3)n2)cc1Cl

>  <score_type>  (32) 
oracle

>  <origin>  (32) 
adgpu

>  <m_score__min__energy>  (32) 
-8.4800000000000004

>  <m_primary>  (32) 
energy

$$$$
32:0
     RDKit          3D

 37 39  0  0  0  0  0  0  0  0999 V2000
   -3.8520   18.5930  -26.1480 C   0  0  0  0  0  0  0  0  0  0  0  0
   -2.3540   18.7980  -26.3460 C   0  0  0  0  0  0  0  0  0  0  0  0
   -2.0810   19.3150  -27.6480 O   0  0  0  0  0  0  0  0  0  0  0  0
   -2.2000   20.6610  -28.0350 C   0  0  0  0  0  0  0  0  0  0  0  0
   -2.2250   20.9540  -29.4030 C   0  0  0  0  0  0  0  0  0  0  0  0
   -2.3390   22.2740  -29.8480 C   0  0  0  0  0  0  0  0  0  0  0  0
   -2.4290   23.3330  -28.9270 C   0  0  0  0  0  0  0  0  0  0  0  0
   -2.5530   24.7320  -29.3950 C   0  0  0  0  0  0  0  0  0  0  0  0
   -1.8330   25.6350  -28.8860 O   0  0  0  0  0  0  0  0  0  0  0  0
   -3.4890   25.0670  -30.4280 N   0  0  0  0  0  0  0  0  0  0  0  0
   -4.9350   25.0160  -30.2550 C   0  0  0  0  0  0  0  0  0  0  0  0
   -5.4950   23.8190  -30.9530 C   0  0  0  0  0  0  0  0  0  0  0  0
   -4.7460   22.9950  -31.7280 N   0  0  0  0  0  0  0  0  0  0  0  0
   -5.4940   21.9730  -32.2140 C   0  0  0  0  0  0  0  0  0  0  0  0
   -5.0050   20.9620  -33.0440 C   0  0  0  0  0  0  0  0  0  0  0  0
   -5.8870   19.9560  -33.4750 C   0  0  0  0  0  0  0  0  0  0  0  0
   -7.2380   19.9720  -33.0740 C   0  0  0  0  0  0  0  0  0  0  0  0
   -7.7190   20.9940  -32.2390 C   0  0  0  0  0  0  0  0  0  0  0  0
   -6.8250   21.9770  -31.8270 C   0  0  0  0  0  0  0  0  0  0  0  0
   -7.1050   23.3020  -30.8360 S   0  0  0  0  0  0  0  0  0  0  0  0
   -2.4000   23.0380  -27.5520 C   0  0  0  0  0  0  0  0  0  0  0  0
   -2.2840   21.7180  -27.1080 C   0  0  0  0  0  0  0  0  0  0  0  0
   -4.0788   18.5620  -25.0721 H   0  0  0  0  0  0  0  0  0  0  0  0
   -4.4007   19.4244  -26.6145 H   0  0  0  0  0  0  0  0  0  0  0  0
   -4.1571   17.6447  -26.6145 H   0  0  0  0  0  0  0  0  0  0  0  0
   -1.9843   19.5077  -25.5913 H   0  0  0  0  0  0  0  0  0  0  0  0
   -1.8480   17.8272  -26.2389 H   0  0  0  0  0  0  0  0  0  0  0  0
   -2.1542   20.1368  -30.1359 H   0  0  0  0  0  0  0  0  0  0  0  0
   -2.3585   22.4863  -30.9272 H   0  0  0  0  0  0  0  0  0  0  0  0
   -5.1709   24.9549  -29.1823 H   0  0  0  0  0  0  0  0  0  0  0  0
   -5.3809   25.9247  -30.6857 H   0  0  0  0  0  0  0  0  0  0  0  0
   -3.9498   20.9531  -33.3545 H   0  0  0  0  0  0  0  0  0  0  0  0
   -5.5205   19.1513  -34.1293 H   0  0  0  0  0  0  0  0  0  0  0  0
   -7.9197   19.1797  -33.4169 H   0  0  0  0  0  0  0  0  0  0  0  0
   -8.7716   21.0164  -31.9203 H   0  0  0  0  0  0  0  0  0  0  0  0
   -2.4694   23.8548  -26.8185 H   0  0  0  0  0  0  0  0  0  0  0  0
   -2.2582   21.5035  -26.0294 H   0  0  0  0  0  0  0  0  0  0  0  0
  1  2  1  0
  2  3  1  0
  3  4  1  0
  4  5  2  0
  5  6  1  0
  6  7  2  0
  7  8  1  0
  8  9  2  0
  8 10  1  0
 10 11  1  0
 11 12  1  0
 12 13  2  0
 13 14  1  0
 14 15  2  0
 15 16  1  0
 16 17  2  0
 17 18  1  0
 18 19  2  0
 19 20  1  0
  7 21  1  0
 21 22  2  0
 22  4  1  0
 20 12  1  0
 19 14  1  0
  1 23  1  0
  1 24  1  0
  1 25  1  0
  2 26  1  0
  2 27  1  0
  5 28  1  0
  6 29  1  0
 11 30  1  0
 11 31  1  0
 15 32  1  0
 16 33  1  0
 17 34  1  0
 18 35  1  0
 21 36  1  0
 22 37  1  0
M  CHG  1  10  -1
M  END
>  <UniqueID>  (33) 
32

>  <SMILES>  (33) 
CCOc1ccc(C(=O)[N-]Cc2nc3ccccc3s2)cc1

>  <Energy>  (33) 
69.31294743501918

>  <Genealogy>  (33) 
CCOc1ccc(C(=O)[N-]Cc2nc3ccccc3s2)cc1 (protonated)
CCOc1ccc(C(=O)[N-]Cc2nc3ccccc3s2)cc1 (3D coordinates assigned)
CCOc1ccc(C(=O)[N-]Cc2nc3ccccc3s2)cc1 (optimized conformer: 69.31294743501918 kcal/mol)

>  <smiles>  (33) 
CCOc1ccc(C(=O)NCc2nc3ccccc3s2)cc1

>  <score_type>  (33) 
oracle

>  <origin>  (33) 
adgpu

>  <m_score__min__energy>  (33) 
-9.9100000000000001

>  <m_primary>  (33) 
energy

$$$$
33:0
     RDKit          3D

 24 25  0  0  0  0  0  0  0  0999 V2000
   -8.2540   20.0580  -33.0060 N   0  0  0  0  0  0  0  0  0  0  0  0
   -7.5820   21.1410  -32.3570 C   0  0  0  0  0  0  0  0  0  0  0  0
   -6.2380   21.4140  -32.6490 C   0  0  0  0  0  0  0  0  0  0  0  0
   -5.5810   22.4720  -32.0140 C   0  0  0  0  0  0  0  0  0  0  0  0
   -6.2640   23.2700  -31.0850 C   0  0  0  0  0  0  0  0  0  0  0  0
   -5.4320   24.5930  -30.2730 S   0  0  0  0  0  0  0  0  0  0  0  0
   -6.4290   25.6460  -29.8770 O   0  0  0  0  0  0  0  0  0  0  0  0
   -4.4200   25.1970  -31.2060 O   0  0  0  0  0  0  0  0  0  0  0  0
   -4.6380   23.9740  -28.8630 N   0  0  0  0  0  0  0  0  0  0  0  0
   -3.3870   24.1940  -28.6010 C   0  0  0  0  0  0  0  0  0  0  0  0
   -2.5680   24.9230  -29.3890 N   0  0  0  0  0  0  0  0  0  0  0  0
   -1.3130   24.9870  -28.8700 C   0  0  0  0  0  0  0  0  0  0  0  0
   -1.1340   24.3090  -27.6680 C   0  0  0  0  0  0  0  0  0  0  0  0
   -2.6020   23.6040  -27.2410 S   0  0  0  0  0  0  0  0  0  0  0  0
   -7.6040   22.9930  -30.7870 C   0  0  0  0  0  0  0  0  0  0  0  0
   -8.2610   21.9340  -31.4220 C   0  0  0  0  0  0  0  0  0  0  0  0
   -8.3340   20.0250  -34.0470 H   0  0  0  0  0  0  0  0  0  0  0  0
   -8.6760   19.2800  -32.4500 H   0  0  0  0  0  0  0  0  0  0  0  0
   -5.6989   20.7936  -33.3801 H   0  0  0  0  0  0  0  0  0  0  0  0
   -4.5254   22.6791  -32.2437 H   0  0  0  0  0  0  0  0  0  0  0  0
   -0.4977   25.5353  -29.3647 H   0  0  0  0  0  0  0  0  0  0  0  0
   -0.1964   24.2449  -27.0963 H   0  0  0  0  0  0  0  0  0  0  0  0
   -8.1413   23.6099  -30.0516 H   0  0  0  0  0  0  0  0  0  0  0  0
   -9.3146   21.7228  -31.1866 H   0  0  0  0  0  0  0  0  0  0  0  0
  1  2  1  0
  2  3  2  0
  3  4  1  0
  4  5  2  0
  5  6  1  0
  6  7  2  0
  6  8  2  0
  6  9  1  0
  9 10  2  3
 10 11  1  0
 11 12  1  0
 12 13  2  0
 13 14  1  0
  5 15  1  0
 15 16  2  0
 16  2  1  0
 14 10  1  0
  1 17  1  0
  1 18  1  0
  3 19  1  0
  4 20  1  0
 12 21  1  0
 13 22  1  0
 15 23  1  0
 16 24  1  0
M  CHG  1  11  -1
M  END
>  <UniqueID>  (34) 
33

>  <SMILES>  (34) 
Nc1ccc(S(=O)(=O)N=c2[n-]ccs2)cc1

>  <Energy>  (34) 
57.08779443970648

>  <Genealogy>  (34) 
Nc1ccc(S(=O)(=O)N=c2[n-]ccs2)cc1 (protonated)
Nc1ccc(S(=O)(=O)N=c2[n-]ccs2)cc1 (3D coordinates assigned)
Nc1ccc(S(=O)(=O)N=c2[n-]ccs2)cc1 (optimized conformer: 57.08779443970648 kcal/mol)

>  <smiles>  (34) 
Nc1ccc(S(=O)(=O)N=c2[nH]ccs2)cc1

>  <score_type>  (34) 
oracle

>  <origin>  (34) 
adgpu

>  <m_score__min__energy>  (34) 
-8.1099999999999994

>  <m_primary>  (34) 
energy

$$$$
34:0
     RDKit          3D

 54 57  0  0  1  0  0  0  0  0999 V2000
   -8.5370   18.1830  -31.9670 C   0  0  0  0  0  0  0  0  0  0  0  0
   -9.3540   19.3190  -32.0750 O   0  0  0  0  0  0  0  0  0  0  0  0
   -8.7740   20.5860  -31.9980 C   0  0  0  0  0  0  0  0  0  0  0  0
   -9.6200   21.6700  -32.0350 C   0  0  0  0  0  0  0  0  0  0  0  0
   -9.0470   22.9190  -31.9600 C   0  0  0  0  0  0  0  0  0  0  0  0
   -7.6580   23.0620  -31.8500 C   0  0  0  0  0  0  0  0  0  0  0  0
   -6.8080   21.9880  -31.8120 C   0  0  0  0  0  0  0  0  0  0  0  0
   -5.3640   22.1440  -31.6980 C   0  0  0  0  0  0  0  0  0  0  0  0
   -4.4920   21.4940  -32.5450 C   0  0  0  0  0  0  0  0  0  0  0  0
   -3.1020   21.6450  -32.4350 C   0  0  0  0  0  0  0  0  0  0  0  0
   -2.3040   21.0300  -33.2360 N   0  0  0  0  0  0  0  0  0  0  0  0
   -0.8550   21.2280  -33.0710 C   0  0  2  0  0  0  0  0  0  0  0  0
   -0.1080   20.9230  -34.3210 C   0  0  0  0  0  0  0  0  0  0  0  0
   -0.4170   20.3410  -31.9300 C   0  0  0  0  0  0  0  0  0  0  0  0
    0.3290   19.1950  -32.1980 C   0  0  0  0  0  0  0  0  0  0  0  0
    0.6000   18.4830  -30.4880 S   0  0  0  0  0  0  0  0  0  0  0  0
   -0.3700   19.9020  -29.7060 C   0  0  0  0  0  0  0  0  0  0  0  0
   -0.5510   19.9630  -28.3170 N   0  0  0  0  0  0  0  0  0  0  0  0
   -0.6670   21.2350  -27.5940 C   0  0  0  0  0  0  0  0  0  0  0  0
   -1.2800   20.8500  -26.2500 C   0  0  0  0  0  0  0  0  0  0  0  0
   -2.3700   19.9830  -26.4210 O   0  0  0  0  0  0  0  0  0  0  0  0
   -2.0220   18.7450  -26.9010 C   0  0  0  0  0  0  0  0  0  0  0  0
   -0.6340   18.7620  -27.5090 C   0  0  0  0  0  0  0  0  0  0  0  0
   -0.6810   20.5600  -30.6860 N   0  0  0  0  0  0  0  0  0  0  0  0
   -2.6070   22.4580  -31.4620 N   0  0  0  0  0  0  0  0  0  0  0  0
   -3.4690   23.0930  -30.6330 C   0  0  0  0  0  0  0  0  0  0  0  0
   -2.9000   23.9750  -29.5800 C   0  0  0  0  0  0  0  0  0  0  0  0
   -4.8180   22.9330  -30.7570 N   0  0  0  0  0  0  0  0  0  0  0  0
   -7.3900   20.7320  -31.8890 C   0  0  0  0  0  0  0  0  0  0  0  0
   -8.3701   17.9510  -30.9048 H   0  0  0  0  0  0  0  0  0  0  0  0
   -9.0294   17.3294  -32.4558 H   0  0  0  0  0  0  0  0  0  0  0  0
   -7.5711   18.3782  -32.4558 H   0  0  0  0  0  0  0  0  0  0  0  0
  -10.7093   21.5438  -32.1210 H   0  0  0  0  0  0  0  0  0  0  0  0
   -9.6862   23.8139  -31.9867 H   0  0  0  0  0  0  0  0  0  0  0  0
   -7.2334   24.0751  -31.7919 H   0  0  0  0  0  0  0  0  0  0  0  0
   -4.8979   20.8383  -33.3294 H   0  0  0  0  0  0  0  0  0  0  0  0
   -0.6361   22.2825  -32.8472 H   0  0  0  0  0  0  0  0  0  0  0  0
    0.8828   20.5185  -34.0666 H   0  0  0  0  0  0  0  0  0  0  0  0
   -0.6667   20.1810  -34.9103 H   0  0  0  0  0  0  0  0  0  0  0  0
    0.0123   21.8440  -34.9103 H   0  0  0  0  0  0  0  0  0  0  0  0
    0.6718   18.8070  -33.1685 H   0  0  0  0  0  0  0  0  0  0  0  0
    0.3222   21.6951  -27.4537 H   0  0  0  0  0  0  0  0  0  0  0  0
   -1.2749   21.9734  -28.1373 H   0  0  0  0  0  0  0  0  0  0  0  0
   -0.5159   20.3497  -25.6369 H   0  0  0  0  0  0  0  0  0  0  0  0
   -1.6362   21.7649  -25.7539 H   0  0  0  0  0  0  0  0  0  0  0  0
   -2.0420   18.0208  -26.0732 H   0  0  0  0  0  0  0  0  0  0  0  0
   -2.7410   18.4606  -27.6834 H   0  0  0  0  0  0  0  0  0  0  0  0
    0.1277   18.7847  -26.7157 H   0  0  0  0  0  0  0  0  0  0  0  0
   -0.4555   17.8621  -28.1159 H   0  0  0  0  0  0  0  0  0  0  0  0
   -3.1579   23.5753  -28.5882 H   0  0  0  0  0  0  0  0  0  0  0  0
   -1.8059   24.0142  -29.6864 H   0  0  0  0  0  0  0  0  0  0  0  0
   -3.3153   24.9880  -29.6864 H   0  0  0  0  0  0  0  0  0  0  0  0
   -5.3810   23.4720  -30.0640 H   0  0  0  0  0  0  0  0  0  0  0  0
   -6.7513   19.8367  -31.8638 H   0  0  0  0  0  0  0  0  0  0  0  0
  1  2  1  0
  2  3  1  0
  3  4  2  0
  4  5  1  0
  5  6  2  0
  6  7  1  0
  7  8  1  0
  8  9  2  0
  9 10  1  0
 10 11  2  0
 11 12  1  0
 12 13  1  0
 12 14  1  0
 14 15  2  0
 15 16  1  0
 16 17  1  0
 17 18  1  0
 18 19  1  0
 19 20  1  0
 20 21  1  0
 21 22  1  0
 22 23  1  0
 17 24  2  0
 10 25  1  0
 25 26  2  0
 26 27  1  0
 26 28  1  0
  7 29  2  0
 29  3  1  0
 28  8  1  0
 24 14  1  0
 23 18  1  0
  1 30  1  0
  1 31  1  0
  1 32  1  0
  4 33  1  0
  5 34  1  0
  6 35  1  0
  9 36  1  0
 12 37  1  1
 13 38  1  0
 13 39  1  0
 13 40  1  0
 15 41  1  0
 19 42  1  0
 19 43  1  0
 20 44  1  0
 20 45  1  0
 22 46  1  0
 22 47  1  0
 23 48  1  0
 23 49  1  0
 27 50  1  0
 27 51  1  0
 27 52  1  0
 28 53  1  0
 29 54  1  0
M  END
>  <smiles>  (35) 
COc1cccc(-c2cc(=NC(C)c3csc(N4CCOCC4)n3)nc(C)[nH]2)c1

>  <score_type>  (35) 
oracle

>  <origin>  (35) 
adgpu

>  <m_score__min__energy>  (35) 
-9.1099999999999994

>  <m_primary>  (35) 
energy

$$$$
35:0
     RDKit          3D

 33 35  0  0  0  0  0  0  0  0999 V2000
   -3.2911   19.7812  -34.3030 H   0  0  0  0  0  0  0  0  0  0  0  0
   -3.9370   18.8950  -34.2170 C   0  0  0  0  0  0  0  0  0  0  0  0
   -5.2060   19.0230  -33.7500 N   0  0  0  0  0  0  0  0  0  0  0  0
   -6.0450   17.9550  -33.6170 C   0  0  0  0  0  0  0  0  0  0  0  0
   -7.2650   18.1130  -33.1870 N   0  0  0  0  0  0  0  0  0  0  0  0
   -7.8670   19.3320  -32.7200 C   0  0  0  0  0  0  0  0  0  0  0  0
   -9.2610   19.5180  -32.7100 C   0  0  0  0  0  0  0  0  0  0  0  0
   -9.9253   18.7051  -33.0386 H   0  0  0  0  0  0  0  0  0  0  0  0
   -9.8040   20.7320  -32.2840 C   0  0  0  0  0  0  0  0  0  0  0  0
  -10.8954   20.8680  -32.2658 H   0  0  0  0  0  0  0  0  0  0  0  0
   -8.9660   21.7740  -31.8810 C   0  0  0  0  0  0  0  0  0  0  0  0
   -9.4017   22.7231  -31.5355 H   0  0  0  0  0  0  0  0  0  0  0  0
   -7.5710   21.6180  -31.9140 C   0  0  0  0  0  0  0  0  0  0  0  0
   -6.6900   22.7320  -31.5030 C   0  0  0  0  0  0  0  0  0  0  0  0
   -7.0100   23.6650  -30.5780 N   0  0  0  0  0  0  0  0  0  0  0  0
   -6.0050   24.5790  -30.3990 C   0  0  0  0  0  0  0  0  0  0  0  0
   -6.1270   25.6740  -29.3930 C   0  0  0  0  0  0  0  0  0  0  0  0
   -6.0795   25.2481  -28.3799 H   0  0  0  0  0  0  0  0  0  0  0  0
   -5.3031   26.3901  -29.5287 H   0  0  0  0  0  0  0  0  0  0  0  0
   -7.0883   26.1912  -29.5287 H   0  0  0  0  0  0  0  0  0  0  0  0
   -4.8690   24.4160  -31.1300 N   0  0  0  0  0  0  0  0  0  0  0  0
   -5.1560   23.0690  -32.0580 S   0  0  0  0  0  0  0  0  0  0  0  0
   -7.0310   20.3930  -32.3470 C   0  0  0  0  0  0  0  0  0  0  0  0
   -5.9393   20.2666  -32.3933 H   0  0  0  0  0  0  0  0  0  0  0  0
   -5.5940   16.6720  -33.9910 C   0  0  0  0  0  0  0  0  0  0  0  0
   -6.4920   15.4680  -33.8780 C   0  0  0  0  0  0  0  0  0  0  0  0
   -6.6641   15.2373  -32.8163 H   0  0  0  0  0  0  0  0  0  0  0  0
   -7.4538   15.6807  -34.3676 H   0  0  0  0  0  0  0  0  0  0  0  0
   -6.0139   14.6068  -34.3676 H   0  0  0  0  0  0  0  0  0  0  0  0
   -4.2840   16.5290  -34.4750 C   0  0  0  0  0  0  0  0  0  0  0  0
   -3.9122   15.5356  -34.7666 H   0  0  0  0  0  0  0  0  0  0  0  0
   -3.4530   17.6430  -34.5870 C   0  0  0  0  0  0  0  0  0  0  0  0
   -2.4254   17.5338  -34.9639 H   0  0  0  0  0  0  0  0  0  0  0  0
  1  2  1  0
  2  3  1  0
  3  4  1  0
  4  5  2  0
  5  6  1  0
  6  7  2  0
  7  8  1  0
  7  9  1  0
  9 10  1  0
  9 11  2  0
 11 12  1  0
 11 13  1  0
 13 14  1  0
 14 15  2  0
 15 16  1  0
 16 17  1  0
 17 18  1  0
 17 19  1  0
 17 20  1  0
 16 21  2  0
 21 22  1  0
 13 23  2  0
 23 24  1  0
  4 25  1  0
 25 26  1  0
 26 27  1  0
 26 28  1  0
 26 29  1  0
 25 30  2  0
 30 31  1  0
 30 32  1  0
 32 33  1  0
 32  2  2  0
 23  6  1  0
 22 14  1  0
M  CHG  1   3  -1
M  END
>  <UniqueID>  (36) 
34

>  <SMILES>  (36) 
Cc1nsc(-c2cccc(/N=c3\[n-]cccc3C)c2)n1

>  <Energy>  (36) 
78.76871314813803

>  <Genealogy>  (36) 
Cc1nsc(-c2cccc(N=c3[n-]cccc3C)c2)n1 (protonated)
Cc1nsc(-c2cccc(/N=c3\[n-]cccc3C)c2)n1 (cis-trans isomerization)
Cc1nsc(-c2cccc(/N=c3\[n-]cccc3C)c2)n1 (3D coordinates assigned)
Cc1nsc(-c2cccc(/N=c3\[n-]cccc3C)c2)n1 (optimized conformer: 78.76871314813803 kcal/mol)

>  <smiles>  (36) 
Cc1nsc(-c2cccc(N=c3[nH]cccc3C)c2)n1

>  <score_type>  (36) 
oracle

>  <origin>  (36) 
adgpu

>  <m_score__min__energy>  (36) 
-8.7300000000000004

>  <m_primary>  (36) 
energy

$$$$
36:0
     RDKit          3D

 43 45  0  0  0  0  0  0  0  0999 V2000
   -4.4480   22.9350  -27.8730 C   0  0  0  0  0  0  0  0  0  0  0  0
   -4.4990   23.7490  -29.0870 N   0  0  0  0  0  0  0  0  0  0  0  0
   -5.4360   23.7350  -30.0550 C   0  0  0  0  0  0  0  0  0  0  0  0
   -6.7420   23.0030  -29.9840 C   0  0  0  0  0  0  0  0  0  0  0  0
   -7.6980   23.2310  -31.5230 S   0  0  0  0  0  0  0  0  0  0  0  0
   -7.7650   21.4840  -31.9280 C   0  0  0  0  0  0  0  0  0  0  0  0
   -8.7500   20.6680  -31.3580 C   0  0  0  0  0  0  0  0  0  0  0  0
   -8.8020   19.3070  -31.6720 C   0  0  0  0  0  0  0  0  0  0  0  0
   -7.8650   18.7570  -32.5520 C   0  0  0  0  0  0  0  0  0  0  0  0
   -6.8750   19.5670  -33.1160 C   0  0  0  0  0  0  0  0  0  0  0  0
   -6.8220   20.9290  -32.8030 C   0  0  0  0  0  0  0  0  0  0  0  0
   -5.0600   24.4790  -31.1140 N   0  0  0  0  0  0  0  0  0  0  0  0
   -3.8560   24.9620  -30.8410 N   0  0  0  0  0  0  0  0  0  0  0  0
   -3.5240   24.5120  -29.6170 C   0  0  0  0  0  0  0  0  0  0  0  0
   -1.9500   24.8670  -28.8240 S   0  0  0  0  0  0  0  0  0  0  0  0
   -1.4850   23.1160  -28.5820 C   0  0  0  0  0  0  0  0  0  0  0  0
   -1.3460   22.3890  -29.8850 C   0  0  0  0  0  0  0  0  0  0  0  0
   -0.2090   21.9770  -30.2400 O   0  0  0  0  0  0  0  0  0  0  0  0
   -2.4820   22.2280  -30.7480 N   0  0  0  0  0  0  0  0  0  0  0  0
   -2.5290   21.3030  -31.8490 C   0  0  0  0  0  0  0  0  0  0  0  0
   -1.5580   21.3280  -32.8680 C   0  0  0  0  0  0  0  0  0  0  0  0
   -1.5990   20.3980  -33.9100 C   0  0  0  0  0  0  0  0  0  0  0  0
   -2.6040   19.4280  -33.9420 C   0  0  0  0  0  0  0  0  0  0  0  0
   -2.6420   18.5250  -34.9530 F   0  0  0  0  0  0  0  0  0  0  0  0
   -3.5630   19.3820  -32.9270 C   0  0  0  0  0  0  0  0  0  0  0  0
   -3.5240   20.3090  -31.8800 C   0  0  0  0  0  0  0  0  0  0  0  0
   -4.4640   20.2480  -30.9040 F   0  0  0  0  0  0  0  0  0  0  0  0
   -4.4890   23.5901  -26.9903 H   0  0  0  0  0  0  0  0  0  0  0  0
   -5.3047   22.2452  -27.8578 H   0  0  0  0  0  0  0  0  0  0  0  0
   -3.5119   22.3575  -27.8578 H   0  0  0  0  0  0  0  0  0  0  0  0
   -6.5467   21.9306  -29.8363 H   0  0  0  0  0  0  0  0  0  0  0  0
   -7.3263   23.4052  -29.1433 H   0  0  0  0  0  0  0  0  0  0  0  0
   -9.4844   21.0990  -30.6617 H   0  0  0  0  0  0  0  0  0  0  0  0
   -9.5797   18.6689  -31.2270 H   0  0  0  0  0  0  0  0  0  0  0  0
   -7.9068   17.6863  -32.8007 H   0  0  0  0  0  0  0  0  0  0  0  0
   -6.1371   19.1327  -33.8066 H   0  0  0  0  0  0  0  0  0  0  0  0
   -6.0399   21.5646  -33.2438 H   0  0  0  0  0  0  0  0  0  0  0  0
   -0.5247   23.0738  -28.0471 H   0  0  0  0  0  0  0  0  0  0  0  0
   -2.2833   22.6284  -28.0033 H   0  0  0  0  0  0  0  0  0  0  0  0
   -3.3090   22.8430  -30.5800 H   0  0  0  0  0  0  0  0  0  0  0  0
   -0.7608   22.0856  -32.8437 H   0  0  0  0  0  0  0  0  0  0  0  0
   -0.8398   20.4296  -34.7054 H   0  0  0  0  0  0  0  0  0  0  0  0
   -4.3509   18.6148  -32.9512 H   0  0  0  0  0  0  0  0  0  0  0  0
  1  2  1  0
  2  3  1  0
  3  4  1  0
  4  5  1  0
  5  6  1  0
  6  7  2  0
  7  8  1  0
  8  9  2  0
  9 10  1  0
 10 11  2  0
  3 12  2  0
 12 13  1  0
 13 14  2  0
 14 15  1  0
 15 16  1  0
 16 17  1  0
 17 18  2  0
 17 19  1  0
 19 20  1  0
 20 21  2  0
 21 22  1  0
 22 23  2  0
 23 24  1  0
 23 25  1  0
 25 26  2  0
 26 27  1  0
 14  2  1  0
 26 20  1  0
 11  6  1  0
  1 28  1  0
  1 29  1  0
  1 30  1  0
  4 31  1  0
  4 32  1  0
  7 33  1  0
  8 34  1  0
  9 35  1  0
 10 36  1  0
 11 37  1  0
 16 38  1  0
 16 39  1  0
 19 40  1  0
 21 41  1  0
 22 42  1  0
 25 43  1  0
M  END
>  <UniqueID>  (37) 
35

>  <SMILES>  (37) 
Cn1c(CSc2ccccc2)nnc1SCC(=O)Nc1ccc(F)cc1F

>  <Energy>  (37) 
70.18051946420972

>  <Genealogy>  (37) 
Cn1c(CSc2ccccc2)nnc1SCC(=O)Nc1ccc(F)cc1F (3D coordinates assigned)
Cn1c(CSc2ccccc2)nnc1SCC(=O)Nc1ccc(F)cc1F (optimized conformer: 70.18051946420972 kcal/mol)

>  <smiles>  (37) 
Cn1c(CSc2ccccc2)nnc1SCC(=O)Nc1ccc(F)cc1F

>  <score_type>  (37) 
oracle

>  <origin>  (37) 
adgpu

>  <m_score__min__energy>  (37) 
-8.3100000000000005

>  <m_primary>  (37) 
energy

$$$$
37:0
     RDKit          3D

 39 42  0  0  0  0  0  0  0  0999 V2000
   -8.7490   19.4640  -31.9570 C   0  0  0  0  0  0  0  0  0  0  0  0
   -9.1250   20.6800  -31.3810 C   0  0  0  0  0  0  0  0  0  0  0  0
   -8.3380   21.8200  -31.5720 C   0  0  0  0  0  0  0  0  0  0  0  0
   -7.1760   21.7560  -32.3510 C   0  0  0  0  0  0  0  0  0  0  0  0
   -6.4050   22.9170  -32.5070 O   0  0  0  0  0  0  0  0  0  0  0  0
   -5.3950   23.3460  -31.6340 C   0  0  0  0  0  0  0  0  0  0  0  0
   -5.5370   24.4960  -30.8390 C   0  0  0  0  0  0  0  0  0  0  0  0
   -4.5150   24.8830  -29.9680 C   0  0  0  0  0  0  0  0  0  0  0  0
   -3.3360   24.1220  -29.8620 C   0  0  0  0  0  0  0  0  0  0  0  0
   -2.2890   24.5370  -28.9590 N   0  0  0  0  0  0  0  0  0  0  0  0
   -2.4070   24.9330  -27.6750 C   0  0  0  0  0  0  0  0  0  0  0  0
   -1.1300   25.2330  -27.2380 C   0  0  0  0  0  0  0  0  0  0  0  0
   -0.7160   25.7150  -25.8990 C   0  0  0  0  0  0  0  0  0  0  0  0
    0.6120   25.5380  -25.4690 C   0  0  0  0  0  0  0  0  0  0  0  0
    1.0160   25.9880  -24.2090 C   0  0  0  0  0  0  0  0  0  0  0  0
    0.1010   26.6180  -23.3630 C   0  0  0  0  0  0  0  0  0  0  0  0
   -1.2200   26.7990  -23.7770 C   0  0  0  0  0  0  0  0  0  0  0  0
   -1.6300   26.3520  -25.0360 C   0  0  0  0  0  0  0  0  0  0  0  0
   -0.2800   25.0130  -28.2620 N   0  0  0  0  0  0  0  0  0  0  0  0
   -1.0080   24.5950  -29.2860 N   0  0  0  0  0  0  0  0  0  0  0  0
   -3.2090   22.9600  -30.6490 C   0  0  0  0  0  0  0  0  0  0  0  0
   -4.2340   22.5760  -31.5190 C   0  0  0  0  0  0  0  0  0  0  0  0
   -6.7910   20.5240  -32.9130 C   0  0  0  0  0  0  0  0  0  0  0  0
   -7.5800   19.3850  -32.7200 C   0  0  0  0  0  0  0  0  0  0  0  0
   -9.3721   18.5695  -31.8104 H   0  0  0  0  0  0  0  0  0  0  0  0
  -10.0418   20.7408  -30.7762 H   0  0  0  0  0  0  0  0  0  0  0  0
   -8.6333   22.7725  -31.1077 H   0  0  0  0  0  0  0  0  0  0  0  0
   -6.4575   25.0948  -30.9026 H   0  0  0  0  0  0  0  0  0  0  0  0
   -4.6333   25.7915  -29.3592 H   0  0  0  0  0  0  0  0  0  0  0  0
   -3.3363   25.0034  -27.0906 H   0  0  0  0  0  0  0  0  0  0  0  0
    1.3379   25.0415  -26.1297 H   0  0  0  0  0  0  0  0  0  0  0  0
    2.0569   25.8456  -23.8831 H   0  0  0  0  0  0  0  0  0  0  0  0
    0.4206   26.9713  -22.3715 H   0  0  0  0  0  0  0  0  0  0  0  0
   -1.9404   27.2951  -23.1100 H   0  0  0  0  0  0  0  0  0  0  0  0
   -2.6724   26.4983  -25.3553 H   0  0  0  0  0  0  0  0  0  0  0  0
   -2.2962   22.3502  -30.5783 H   0  0  0  0  0  0  0  0  0  0  0  0
   -4.1258   21.6599  -32.1182 H   0  0  0  0  0  0  0  0  0  0  0  0
   -5.8668   20.4567  -33.5058 H   0  0  0  0  0  0  0  0  0  0  0  0
   -7.2805   18.4265  -33.1689 H   0  0  0  0  0  0  0  0  0  0  0  0
  1  2  2  0
  2  3  1  0
  3  4  2  0
  4  5  1  0
  5  6  1  0
  6  7  2  0
  7  8  1  0
  8  9  2  0
  9 10  1  0
 10 11  1  0
 11 12  2  0
 12 13  1  0
 13 14  2  0
 14 15  1  0
 15 16  2  0
 16 17  1  0
 17 18  2  0
 12 19  1  0
 19 20  2  0
  9 21  1  0
 21 22  2  0
  4 23  1  0
 23 24  2  0
 24  1  1  0
 22  6  1  0
 20 10  1  0
 18 13  1  0
  1 25  1  0
  2 26  1  0
  3 27  1  0
  7 28  1  0
  8 29  1  0
 11 30  1  0
 14 31  1  0
 15 32  1  0
 16 33  1  0
 17 34  1  0
 18 35  1  0
 21 36  1  0
 22 37  1  0
 23 38  1  0
 24 39  1  0
M  END
>  <UniqueID>  (38) 
36

>  <SMILES>  (38) 
c1ccc(Oc2ccc(-n3cc(-c4ccccc4)nn3)cc2)cc1

>  <Energy>  (38) 
89.17887984835224

>  <Genealogy>  (38) 
c1ccc(Oc2ccc(-n3cc(-c4ccccc4)nn3)cc2)cc1 (3D coordinates assigned)
c1ccc(Oc2ccc(-n3cc(-c4ccccc4)nn3)cc2)cc1 (optimized conformer: 89.17887984835224 kcal/mol)

>  <smiles>  (38) 
c1ccc(Oc2ccc(-n3cc(-c4ccccc4)nn3)cc2)cc1

>  <score_type>  (38) 
oracle

>  <origin>  (38) 
adgpu

>  <m_score__min__energy>  (38) 
-8.6500000000000004

>  <m_primary>  (38) 
energy

$$$$
38:0
     RDKit          3D

 37 38  0  0  0  0  0  0  0  0999 V2000
   -1.3200   21.5960  -31.3150 C   0  0  0  0  0  0  0  0  0  0  0  0
   -2.6590   22.2960  -31.5180 C   0  0  0  0  0  0  0  0  0  0  0  0
   -3.2550   22.6410  -30.2250 N   0  0  0  0  0  0  0  0  0  0  0  0
   -2.5800   22.2930  -29.0120 C   0  0  0  0  0  0  0  0  0  0  0  0
   -2.7550   21.0150  -28.4650 C   0  0  0  0  0  0  0  0  0  0  0  0
   -2.1240   20.6700  -27.2660 C   0  0  0  0  0  0  0  0  0  0  0  0
   -2.3440   19.0680  -26.5890 Cl  0  0  0  0  0  0  0  0  0  0  0  0
   -1.3210   21.6050  -26.6070 C   0  0  0  0  0  0  0  0  0  0  0  0
   -1.1480   22.8840  -27.1420 C   0  0  0  0  0  0  0  0  0  0  0  0
   -1.7780   23.2410  -28.3500 C   0  0  0  0  0  0  0  0  0  0  0  0
   -1.6410   24.5180  -28.9160 O   0  0  0  0  0  0  0  0  0  0  0  0
   -1.1970   25.6710  -28.2100 C   0  0  0  0  0  0  0  0  0  0  0  0
   -4.6000   23.7320  -30.1350 S   0  0  0  0  0  0  0  0  0  0  0  0
   -4.2640   25.0040  -30.8620 O   0  0  0  0  0  0  0  0  0  0  0  0
   -4.8970   24.0760  -28.7020 O   0  0  0  0  0  0  0  0  0  0  0  0
   -6.0030   22.9640  -30.8670 C   0  0  0  0  0  0  0  0  0  0  0  0
   -7.2240   23.6470  -30.9490 C   0  0  0  0  0  0  0  0  0  0  0  0
   -8.3160   23.0570  -31.5930 C   0  0  0  0  0  0  0  0  0  0  0  0
   -8.1910   21.7870  -32.1610 C   0  0  0  0  0  0  0  0  0  0  0  0
   -6.9720   21.1040  -32.0890 C   0  0  0  0  0  0  0  0  0  0  0  0
   -6.8110   19.5180  -32.8190 Cl  0  0  0  0  0  0  0  0  0  0  0  0
   -5.8790   21.6930  -31.4440 C   0  0  0  0  0  0  0  0  0  0  0  0
   -1.1203   21.4916  -30.2383 H   0  0  0  0  0  0  0  0  0  0  0  0
   -1.3529   20.5997  -31.7801 H   0  0  0  0  0  0  0  0  0  0  0  0
   -0.5207   22.1916  -31.7801 H   0  0  0  0  0  0  0  0  0  0  0  0
   -2.5029   23.2149  -32.1021 H   0  0  0  0  0  0  0  0  0  0  0  0
   -3.3387   21.6181  -32.0552 H   0  0  0  0  0  0  0  0  0  0  0  0
   -3.3911   20.2805  -28.9807 H   0  0  0  0  0  0  0  0  0  0  0  0
   -0.8237   21.3331  -25.6643 H   0  0  0  0  0  0  0  0  0  0  0  0
   -0.5165   23.6159  -26.6171 H   0  0  0  0  0  0  0  0  0  0  0  0
   -1.2675   25.4879  -27.1276 H   0  0  0  0  0  0  0  0  0  0  0  0
   -0.1520   25.8854  -28.4783 H   0  0  0  0  0  0  0  0  0  0  0  0
   -1.8283   26.5309  -28.4783 H   0  0  0  0  0  0  0  0  0  0  0  0
   -7.3235   24.6489  -30.5060 H   0  0  0  0  0  0  0  0  0  0  0  0
   -9.2744   23.5935  -31.6524 H   0  0  0  0  0  0  0  0  0  0  0  0
   -9.0517   21.3234  -32.6653 H   0  0  0  0  0  0  0  0  0  0  0  0
   -4.9199   21.1570  -31.3897 H   0  0  0  0  0  0  0  0  0  0  0  0
  1  2  1  0
  2  3  1  0
  3  4  1  0
  4  5  2  0
  5  6  1  0
  6  7  1  0
  6  8  2  0
  8  9  1  0
  9 10  2  0
 10 11  1  0
 11 12  1  0
  3 13  1  0
 13 14  2  0
 13 15  2  0
 13 16  1  0
 16 17  2  0
 17 18  1  0
 18 19  2  0
 19 20  1  0
 20 21  1  0
 20 22  2  0
 10  4  1  0
 22 16  1  0
  1 23  1  0
  1 24  1  0
  1 25  1  0
  2 26  1  0
  2 27  1  0
  5 28  1  0
  8 29  1  0
  9 30  1  0
 12 31  1  0
 12 32  1  0
 12 33  1  0
 17 34  1  0
 18 35  1  0
 19 36  1  0
 22 37  1  0
M  END
>  <UniqueID>  (39) 
37

>  <SMILES>  (39) 
CCN(c1cc(Cl)ccc1OC)S(=O)(=O)c1cccc(Cl)c1

>  <Energy>  (39) 
37.78739407245209

>  <Genealogy>  (39) 
CCN(c1cc(Cl)ccc1OC)S(=O)(=O)c1cccc(Cl)c1 (3D coordinates assigned)
CCN(c1cc(Cl)ccc1OC)S(=O)(=O)c1cccc(Cl)c1 (optimized conformer: 37.78739407245209 kcal/mol)

>  <smiles>  (39) 
CCN(c1cc(Cl)ccc1OC)S(=O)(=O)c1cccc(Cl)c1

>  <score_type>  (39) 
oracle

>  <origin>  (39) 
adgpu

>  <m_score__min__energy>  (39) 
-8.6699999999999999

>  <m_primary>  (39) 
energy

$$$$
39:0
     RDKit          3D

 52 54  0  0  0  0  0  0  0  0999 V2000
   -8.3090   23.2260  -31.9630 C   0  0  0  0  0  0  0  0  0  0  0  0
   -7.6630   22.6290  -30.7180 C   0  0  0  0  0  0  0  0  0  0  0  0
   -6.2370   23.0800  -30.5920 C   0  0  0  0  0  0  0  0  0  0  0  0
   -5.9090   24.4400  -30.6270 C   0  0  0  0  0  0  0  0  0  0  0  0
   -4.5730   24.8050  -30.4650 C   0  0  0  0  0  0  0  0  0  0  0  0
   -4.2400   26.0190  -30.4930 O   0  0  0  0  0  0  0  0  0  0  0  0
   -3.6270   23.8500  -30.2740 N   0  0  0  0  0  0  0  0  0  0  0  0
   -3.9550   22.5280  -30.2420 C   0  0  0  0  0  0  0  0  0  0  0  0
   -2.9130   21.5010  -30.0110 C   0  0  0  0  0  0  0  0  0  0  0  0
   -2.6770   21.0470  -28.7000 C   0  0  0  0  0  0  0  0  0  0  0  0
   -1.6380   20.1520  -28.4320 C   0  0  0  0  0  0  0  0  0  0  0  0
   -0.8180   19.7040  -29.4670 C   0  0  0  0  0  0  0  0  0  0  0  0
   -1.0460   20.1300  -30.7770 C   0  0  0  0  0  0  0  0  0  0  0  0
   -0.2460   19.6780  -31.7740 F   0  0  0  0  0  0  0  0  0  0  0  0
   -2.1080   20.9990  -31.0650 C   0  0  0  0  0  0  0  0  0  0  0  0
   -2.3440   21.3420  -32.4010 O   0  0  0  0  0  0  0  0  0  0  0  0
   -3.1280   20.5290  -33.2760 C   0  0  0  0  0  0  0  0  0  0  0  0
   -4.5490   21.1010  -33.4400 C   0  0  0  0  0  0  0  0  0  0  0  0
   -5.5200   20.5040  -32.4850 N   0  0  1  0  0  0  0  0  0  0  0  0
   -6.8860   20.5480  -33.0710 C   0  0  0  0  0  0  0  0  0  0  0  0
   -7.8450   19.5990  -32.3440 C   0  0  0  0  0  0  0  0  0  0  0  0
   -7.3900   18.1360  -32.4820 C   0  0  0  0  0  0  0  0  0  0  0  0
   -5.8770   18.0090  -32.7630 C   0  0  2  0  0  0  0  0  0  0  0  0
   -5.3560   16.6290  -32.3450 C   0  0  0  0  0  0  0  0  0  0  0  0
   -5.0990   19.1360  -32.0510 C   0  0  0  0  0  0  0  0  0  0  0  0
   -5.2570   22.1590  -30.3890 N   0  0  0  0  0  0  0  0  0  0  0  0
   -9.0864   23.9445  -31.6640 H   0  0  0  0  0  0  0  0  0  0  0  0
   -7.5438   23.7418  -32.5617 H   0  0  0  0  0  0  0  0  0  0  0  0
   -8.7629   22.4226  -32.5617 H   0  0  0  0  0  0  0  0  0  0  0  0
   -8.2241   22.9533  -29.8292 H   0  0  0  0  0  0  0  0  0  0  0  0
   -7.6810   21.5323  -30.8016 H   0  0  0  0  0  0  0  0  0  0  0  0
   -6.6867   25.2030  -30.7787 H   0  0  0  0  0  0  0  0  0  0  0  0
   -3.3169   21.4003  -27.8780 H   0  0  0  0  0  0  0  0  0  0  0  0
   -1.4668   19.8006  -27.4038 H   0  0  0  0  0  0  0  0  0  0  0  0
    0.0104   19.0134  -29.2509 H   0  0  0  0  0  0  0  0  0  0  0  0
   -2.6410   20.4887  -34.2615 H   0  0  0  0  0  0  0  0  0  0  0  0
   -3.2050   19.5215  -32.8413 H   0  0  0  0  0  0  0  0  0  0  0  0
   -4.5128   22.1876  -33.2724 H   0  0  0  0  0  0  0  0  0  0  0  0
   -4.8903   20.8583  -34.4572 H   0  0  0  0  0  0  0  0  0  0  0  0
   -5.5490   21.1070  -31.6280 H   0  0  0  0  0  0  0  0  0  0  0  0
   -7.2739   21.5745  -32.9945 H   0  0  0  0  0  0  0  0  0  0  0  0
   -6.8190   20.2295  -34.1217 H   0  0  0  0  0  0  0  0  0  0  0  0
   -7.8748   19.8665  -31.2774 H   0  0  0  0  0  0  0  0  0  0  0  0
   -8.8428   19.6979  -32.7964 H   0  0  0  0  0  0  0  0  0  0  0  0
   -7.6203   17.6056  -31.5462 H   0  0  0  0  0  0  0  0  0  0  0  0
   -7.9257   17.6997  -33.3379 H   0  0  0  0  0  0  0  0  0  0  0  0
   -5.7162   18.1127  -33.8462 H   0  0  0  0  0  0  0  0  0  0  0  0
   -5.3313   16.5635  -31.2472 H   0  0  0  0  0  0  0  0  0  0  0  0
   -6.0217   15.8495  -32.7439 H   0  0  0  0  0  0  0  0  0  0  0  0
   -4.3412   16.4839  -32.7439 H   0  0  0  0  0  0  0  0  0  0  0  0
   -5.2653   19.0458  -30.9674 H   0  0  0  0  0  0  0  0  0  0  0  0
   -4.0377   19.0199  -32.3157 H   0  0  0  0  0  0  0  0  0  0  0  0
  1  2  1  0
  2  3  1  0
  3  4  2  0
  4  5  1  0
  5  6  2  0
  5  7  1  0
  7  8  1  0
  8  9  1  0
  9 10  2  0
 10 11  1  0
 11 12  2  0
 12 13  1  0
 13 14  1  0
 13 15  2  0
 15 16  1  0
 16 17  1  0
 17 18  1  0
 18 19  1  0
 19 20  1  0
 20 21  1  0
 21 22  1  0
 22 23  1  0
 23 24  1  0
 23 25  1  0
  8 26  2  0
 26  3  1  0
 15  9  1  0
 25 19  1  0
  1 27  1  0
  1 28  1  0
  1 29  1  0
  2 30  1  0
  2 31  1  0
  4 32  1  0
 10 33  1  0
 11 34  1  0
 12 35  1  0
 17 36  1  0
 17 37  1  0
 18 38  1  0
 18 39  1  0
 19 40  1  1
 20 41  1  0
 20 42  1  0
 21 43  1  0
 21 44  1  0
 22 45  1  0
 22 46  1  0
 23 47  1  6
 24 48  1  0
 24 49  1  0
 24 50  1  0
 25 51  1  0
 25 52  1  0
M  CHG  2   7  -1  19   1
M  END
>  <UniqueID>  (40) 
38

>  <SMILES>  (40) 
CCc1cc(=O)[n-]c(-c2cccc(F)c2OCC[N@H+]2CCC[C@H](C)C2)n1

>  <Energy>  (40) 
65.43377947306425

>  <Genealogy>  (40) 
CCc1cc(=O)[n-]c(-c2cccc(F)c2OCC[NH+]2CCCC(C)C2)n1 (protonated)
CCc1cc(=O)[n-]c(-c2cccc(F)c2OCC[N@H+]2CCC[C@H](C)C2)n1 (chirality)
CCc1cc(=O)[n-]c(-c2cccc(F)c2OCC[N@H+]2CCC[C@H](C)C2)n1 (3D coordinates assigned)
CCc1cc(=O)[n-]c(-c2cccc(F)c2OCC[N@H+]2CCC[C@H](C)C2)n1 (nonaromatic ring conformer: 65.43377947306425 kcal/mol)

>  <smiles>  (40) 
CCc1cc(=O)[nH]c(-c2cccc(F)c2OCCN2CCCC(C)C2)n1

>  <score_type>  (40) 
oracle

>  <origin>  (40) 
adgpu

>  <m_score__min__energy>  (40) 
-8.0999999999999996

>  <m_primary>  (40) 
energy

$$$$
40:0
     RDKit          3D

 35 36  0  0  0  0  0  0  0  0999 V2000
   -0.6780   24.4610  -28.5570 C   0  0  0  0  0  0  0  0  0  0  0  0
   -1.9500   24.3460  -29.3290 C   0  0  0  0  0  0  0  0  0  0  0  0
   -2.2760   23.3160  -30.1950 C   0  0  0  0  0  0  0  0  0  0  0  0
   -3.4980   23.7080  -30.7140 C   0  0  0  0  0  0  0  0  0  0  0  0
   -4.2140   23.0710  -31.5950 N   0  0  0  0  0  0  0  0  0  0  0  0
   -3.8470   21.8010  -32.2220 C   0  0  0  0  0  0  0  0  0  0  0  0
   -5.0730   20.9790  -32.5190 C   0  0  0  0  0  0  0  0  0  0  0  0
   -6.3570   21.5150  -32.3280 C   0  0  0  0  0  0  0  0  0  0  0  0
   -7.4890   20.7490  -32.6110 C   0  0  0  0  0  0  0  0  0  0  0  0
   -7.3520   19.4430  -33.0890 C   0  0  0  0  0  0  0  0  0  0  0  0
   -6.0770   18.8960  -33.2850 C   0  0  0  0  0  0  0  0  0  0  0  0
   -5.8990   17.2580  -33.9050 S   0  0  0  0  0  0  0  0  0  0  0  0
   -4.7240   16.3730  -32.9070 C   0  0  0  0  0  0  0  0  0  0  0  0
   -5.4180   17.3000  -35.3290 O   0  0  0  0  0  0  0  0  0  0  0  0
   -7.2270   16.5540  -33.8650 O   0  0  0  0  0  0  0  0  0  0  0  0
   -4.9410   19.6700  -33.0090 C   0  0  0  0  0  0  0  0  0  0  0  0
   -3.8530   24.8920  -30.1780 N   0  0  0  0  0  0  0  0  0  0  0  0
   -5.0370   25.6760  -30.5050 C   0  0  0  0  0  0  0  0  0  0  0  0
   -2.9070   25.2980  -29.3460 N   0  0  0  0  0  0  0  0  0  0  0  0
   -0.8998   24.4409  -27.4798 H   0  0  0  0  0  0  0  0  0  0  0  0
   -0.0175   23.6189  -28.8111 H   0  0  0  0  0  0  0  0  0  0  0  0
   -0.1792   25.4079  -28.8111 H   0  0  0  0  0  0  0  0  0  0  0  0
   -1.7016   22.4046  -30.4173 H   0  0  0  0  0  0  0  0  0  0  0  0
   -3.3121   22.0037  -33.1616 H   0  0  0  0  0  0  0  0  0  0  0  0
   -3.2036   21.2382  -31.5297 H   0  0  0  0  0  0  0  0  0  0  0  0
   -6.4711   22.5431  -31.9537 H   0  0  0  0  0  0  0  0  0  0  0  0
   -8.4917   21.1745  -32.4574 H   0  0  0  0  0  0  0  0  0  0  0  0
   -8.2468   18.8433  -33.3118 H   0  0  0  0  0  0  0  0  0  0  0  0
   -4.9467   16.5408  -31.8429 H   0  0  0  0  0  0  0  0  0  0  0  0
   -4.7894   15.2979  -33.1303 H   0  0  0  0  0  0  0  0  0  0  0  0
   -3.7087   16.7327  -33.1303 H   0  0  0  0  0  0  0  0  0  0  0  0
   -3.9390   19.2486  -33.1776 H   0  0  0  0  0  0  0  0  0  0  0  0
   -5.5290   26.0018  -29.5766 H   0  0  0  0  0  0  0  0  0  0  0  0
   -4.7420   26.5579  -31.0926 H   0  0  0  0  0  0  0  0  0  0  0  0
   -5.7338   25.0602  -31.0926 H   0  0  0  0  0  0  0  0  0  0  0  0
  1  2  1  0
  2  3  2  0
  3  4  1  0
  4  5  2  3
  5  6  1  0
  6  7  1  0
  7  8  2  0
  8  9  1  0
  9 10  2  0
 10 11  1  0
 11 12  1  0
 12 13  1  0
 12 14  2  0
 12 15  2  0
 11 16  2  0
  4 17  1  0
 17 18  1  0
 17 19  1  0
 19  2  1  0
 16  7  1  0
  1 20  1  0
  1 21  1  0
  1 22  1  0
  3 23  1  0
  6 24  1  0
  6 25  1  0
  8 26  1  0
  9 27  1  0
 10 28  1  0
 13 29  1  0
 13 30  1  0
 13 31  1  0
 16 32  1  0
 18 33  1  0
 18 34  1  0
 18 35  1  0
M  CHG  1  19  -1
M  END
>  <UniqueID>  (41) 
39

>  <SMILES>  (41) 
Cc1cc(=NCc2cccc(S(C)(=O)=O)c2)n(C)[n-]1

>  <Energy>  (41) 
60.42070482735527

>  <Genealogy>  (41) 
Cc1cc(=NCc2cccc(S(C)(=O)=O)c2)n(C)[n-]1 (protonated)
Cc1cc(=NCc2cccc(S(C)(=O)=O)c2)n(C)[n-]1 (3D coordinates assigned)
Cc1cc(=NCc2cccc(S(C)(=O)=O)c2)n(C)[n-]1 (optimized conformer: 60.42070482735527 kcal/mol)

>  <smiles>  (41) 
Cc1cc(=NCc2cccc(S(C)(=O)=O)c2)n(C)[nH]1

>  <score_type>  (41) 
oracle

>  <origin>  (41) 
adgpu

>  <m_score__min__energy>  (41) 
-9.0399999999999991

>  <m_primary>  (41) 
energy

$$$$
41:0
     RDKit          3D

 39 41  0  0  0  0  0  0  0  0999 V2000
   -0.3840   25.8370  -24.3880 C   0  0  0  0  0  0  0  0  0  0  0  0
   -0.3130   25.4750  -25.7630 O   0  0  0  0  0  0  0  0  0  0  0  0
   -1.4200   25.1090  -26.5440 C   0  0  0  0  0  0  0  0  0  0  0  0
   -1.2890   24.6030  -27.8510 C   0  0  0  0  0  0  0  0  0  0  0  0
   -2.4230   24.2540  -28.5890 C   0  0  0  0  0  0  0  0  0  0  0  0
   -3.7080   24.4160  -28.0420 C   0  0  0  0  0  0  0  0  0  0  0  0
   -4.8890   24.0430  -28.7720 N   0  0  0  0  0  0  0  0  0  0  0  0
   -5.0050   24.1370  -30.2030 C   0  0  0  0  0  0  0  0  0  0  0  0
   -4.2520   24.9230  -30.8400 O   0  0  0  0  0  0  0  0  0  0  0  0
   -6.0360   23.3600  -30.9330 C   0  0  0  0  0  0  0  0  0  0  0  0
   -7.3720   23.7980  -30.9790 C   0  0  0  0  0  0  0  0  0  0  0  0
   -8.3400   23.0480  -31.6500 C   0  0  0  0  0  0  0  0  0  0  0  0
   -7.9880   21.8560  -32.2870 C   0  0  0  0  0  0  0  0  0  0  0  0
   -6.6610   21.4050  -32.2650 C   0  0  0  0  0  0  0  0  0  0  0  0
   -6.3180   20.1670  -32.9100 N   0  0  0  0  0  0  0  0  0  0  0  0
   -5.3070   20.0380  -33.7560 N   0  0  0  0  0  0  0  0  0  0  0  0
   -5.2140   18.7880  -34.1860 N   0  0  0  0  0  0  0  0  0  0  0  0
   -6.1970   18.0870  -33.5870 C   0  0  0  0  0  0  0  0  0  0  0  0
   -6.8890   18.9520  -32.7690 C   0  0  0  0  0  0  0  0  0  0  0  0
   -8.0330   18.5930  -31.8720 C   0  0  0  0  0  0  0  0  0  0  0  0
   -5.6950   22.1510  -31.5690 C   0  0  0  0  0  0  0  0  0  0  0  0
   -3.8330   24.9020  -26.7310 C   0  0  0  0  0  0  0  0  0  0  0  0
   -2.6990   25.2510  -25.9940 C   0  0  0  0  0  0  0  0  0  0  0  0
   -0.2095   24.9473  -23.7651 H   0  0  0  0  0  0  0  0  0  0  0  0
    0.3827   26.5946  -24.1682 H   0  0  0  0  0  0  0  0  0  0  0  0
   -1.3800   26.2488  -24.1682 H   0  0  0  0  0  0  0  0  0  0  0  0
   -0.2892   24.4818  -28.2934 H   0  0  0  0  0  0  0  0  0  0  0  0
   -2.3095   23.8495  -29.6056 H   0  0  0  0  0  0  0  0  0  0  0  0
   -5.7450   23.7990  -28.2250 H   0  0  0  0  0  0  0  0  0  0  0  0
   -7.6561   24.7378  -30.4830 H   0  0  0  0  0  0  0  0  0  0  0  0
   -9.3828   23.3970  -31.6770 H   0  0  0  0  0  0  0  0  0  0  0  0
   -8.7568   21.2675  -32.8091 H   0  0  0  0  0  0  0  0  0  0  0  0
   -6.4084   17.0166  -33.7265 H   0  0  0  0  0  0  0  0  0  0  0  0
   -7.7204   18.6911  -30.8219 H   0  0  0  0  0  0  0  0  0  0  0  0
   -8.8784   19.2690  -32.0676 H   0  0  0  0  0  0  0  0  0  0  0  0
   -8.3406   17.5551  -32.0676 H   0  0  0  0  0  0  0  0  0  0  0  0
   -4.6586   21.7857  -31.5203 H   0  0  0  0  0  0  0  0  0  0  0  0
   -4.8310   25.0087  -26.2809 H   0  0  0  0  0  0  0  0  0  0  0  0
   -2.8123   25.6411  -24.9718 H   0  0  0  0  0  0  0  0  0  0  0  0
  1  2  1  0
  2  3  1  0
  3  4  2  0
  4  5  1  0
  5  6  2  0
  6  7  1  0
  7  8  1  0
  8  9  2  0
  8 10  1  0
 10 11  2  0
 11 12  1  0
 12 13  2  0
 13 14  1  0
 14 15  1  0
 15 16  1  0
 16 17  2  0
 17 18  1  0
 18 19  2  0
 19 20  1  0
 14 21  2  0
  6 22  1  0
 22 23  2  0
 23  3  1  0
 21 10  1  0
 19 15  1  0
  1 24  1  0
  1 25  1  0
  1 26  1  0
  4 27  1  0
  5 28  1  0
  7 29  1  0
 11 30  1  0
 12 31  1  0
 13 32  1  0
 18 33  1  0
 20 34  1  0
 20 35  1  0
 20 36  1  0
 21 37  1  0
 22 38  1  0
 23 39  1  0
M  END
>  <UniqueID>  (42) 
40

>  <SMILES>  (42) 
COc1ccc(NC(=O)c2cccc(-n3nncc3C)c2)cc1

>  <Energy>  (42) 
85.56359979578613

>  <Genealogy>  (42) 
COc1ccc(NC(=O)c2cccc(-n3nncc3C)c2)cc1 (3D coordinates assigned)
COc1ccc(NC(=O)c2cccc(-n3nncc3C)c2)cc1 (optimized conformer: 85.56359979578613 kcal/mol)

>  <smiles>  (42) 
COc1ccc(NC(=O)c2cccc(-n3nncc3C)c2)cc1

>  <score_type>  (42) 
oracle

>  <origin>  (42) 
adgpu

>  <m_score__min__energy>  (42) 
-8.7300000000000004

>  <m_primary>  (42) 
energy

$$$$
42:0
     RDKit          3D

 30 30  0  0  0  0  0  0  0  0999 V2000
   -9.1190   20.7720  -32.1880 C   0  0  0  0  0  0  0  0  0  0  0  0
   -8.7310   21.9560  -31.3100 C   0  0  0  0  0  0  0  0  0  0  0  0
   -7.7810   22.7890  -31.9750 O   0  0  0  0  0  0  0  0  0  0  0  0
   -6.6420   23.3710  -31.3880 C   0  0  0  0  0  0  0  0  0  0  0  0
   -6.7330   24.4160  -30.4490 C   0  0  0  0  0  0  0  0  0  0  0  0
   -5.5800   24.9650  -29.8850 C   0  0  0  0  0  0  0  0  0  0  0  0
   -4.3120   24.4850  -30.2530 C   0  0  0  0  0  0  0  0  0  0  0  0
   -3.1240   25.0150  -29.7250 O   0  0  0  0  0  0  0  0  0  0  0  0
   -2.4550   24.5030  -28.5780 C   0  0  0  0  0  0  0  0  0  0  0  0
   -4.2190   23.4450  -31.1830 C   0  0  0  0  0  0  0  0  0  0  0  0
   -5.3750   22.8710  -31.7430 C   0  0  0  0  0  0  0  0  0  0  0  0
   -5.2700   21.8180  -32.7200 N   0  0  0  0  0  0  0  0  0  0  0  0
   -5.5940   20.4450  -32.4530 C   0  0  0  0  0  0  0  0  0  0  0  0
   -5.2890   19.3980  -33.4730 C   0  0  0  0  0  0  0  0  0  0  0  0
   -6.2050   20.1230  -31.3980 O   0  0  0  0  0  0  0  0  0  0  0  0
   -9.3984   19.9195  -31.5515 H   0  0  0  0  0  0  0  0  0  0  0  0
   -9.9728   21.0507  -32.8231 H   0  0  0  0  0  0  0  0  0  0  0  0
   -8.2658   20.4913  -32.8231 H   0  0  0  0  0  0  0  0  0  0  0  0
   -9.6308   22.5460  -31.0816 H   0  0  0  0  0  0  0  0  0  0  0  0
   -8.2783   21.5747  -30.3828 H   0  0  0  0  0  0  0  0  0  0  0  0
   -7.7205   24.8030  -30.1574 H   0  0  0  0  0  0  0  0  0  0  0  0
   -5.6648   25.7777  -29.1486 H   0  0  0  0  0  0  0  0  0  0  0  0
   -2.9464   24.8791  -27.6686 H   0  0  0  0  0  0  0  0  0  0  0  0
   -2.4966   23.4038  -28.5894 H   0  0  0  0  0  0  0  0  0  0  0  0
   -1.4049   24.8303  -28.5894 H   0  0  0  0  0  0  0  0  0  0  0  0
   -3.2285   23.0705  -31.4808 H   0  0  0  0  0  0  0  0  0  0  0  0
   -5.0130   22.0730  -33.6990 H   0  0  0  0  0  0  0  0  0  0  0  0
   -5.0160   18.4607  -32.9661 H   0  0  0  0  0  0  0  0  0  0  0  0
   -6.1755   19.2298  -34.1022 H   0  0  0  0  0  0  0  0  0  0  0  0
   -4.4509   19.7322  -34.1022 H   0  0  0  0  0  0  0  0  0  0  0  0
  1  2  1  0
  2  3  1  0
  3  4  1  0
  4  5  2  0
  5  6  1  0
  6  7  2  0
  7  8  1  0
  8  9  1  0
  7 10  1  0
 10 11  2  0
 11 12  1  0
 12 13  1  0
 13 14  1  0
 13 15  2  0
 11  4  1  0
  1 16  1  0
  1 17  1  0
  1 18  1  0
  2 19  1  0
  2 20  1  0
  5 21  1  0
  6 22  1  0
  9 23  1  0
  9 24  1  0
  9 25  1  0
 10 26  1  0
 12 27  1  0
 14 28  1  0
 14 29  1  0
 14 30  1  0
M  END
>  <UniqueID>  (43) 
41

>  <SMILES>  (43) 
CCOc1ccc(OC)cc1NC(C)=O

>  <Energy>  (43) 
27.29712534771991

>  <Genealogy>  (43) 
CCOc1ccc(OC)cc1NC(C)=O (3D coordinates assigned)
CCOc1ccc(OC)cc1NC(C)=O (optimized conformer: 27.29712534771991 kcal/mol)

>  <smiles>  (43) 
CCOc1ccc(OC)cc1NC(C)=O

>  <score_type>  (43) 
oracle

>  <origin>  (43) 
adgpu

>  <m_score__min__energy>  (43) 
-5.8899999999999997

>  <m_primary>  (43) 
energy

$$$$
43:0
     RDKit          3D

 29 30  0  0  0  0  0  0  0  0999 V2000
    0.2540   24.2370  -28.8090 O   0  0  0  0  0  0  0  0  0  0  0  0
   -0.9740   24.3950  -29.0450 C   0  0  0  0  0  0  0  0  0  0  0  0
   -1.7500   23.3160  -29.5770 N   0  0  0  0  0  0  0  0  0  0  0  0
   -3.1120   23.0190  -29.1510 C   0  0  0  0  0  0  0  0  0  0  0  0
   -4.0580   24.0370  -29.7030 C   0  0  0  0  0  0  0  0  0  0  0  0
   -5.3410   24.2810  -29.2620 C   0  0  0  0  0  0  0  0  0  0  0  0
   -5.7590   25.3380  -30.0390 C   0  0  0  0  0  0  0  0  0  0  0  0
   -4.7830   25.6710  -30.8510 O   0  0  0  0  0  0  0  0  0  0  0  0
   -3.7390   24.9130  -30.6750 N   0  0  0  0  0  0  0  0  0  0  0  0
   -1.6070   25.6520  -28.7810 N   0  0  0  0  0  0  0  0  0  0  0  0
   -0.9080   26.7610  -28.1330 C   0  0  0  0  0  0  0  0  0  0  0  0
   -0.9130   26.5760  -26.6390 C   0  0  0  0  0  0  0  0  0  0  0  0
   -0.8650   27.6860  -25.7790 C   0  0  0  0  0  0  0  0  0  0  0  0
   -0.8390   27.5020  -24.3930 C   0  0  0  0  0  0  0  0  0  0  0  0
   -0.8550   26.2130  -23.8570 C   0  0  0  0  0  0  0  0  0  0  0  0
   -0.8980   25.1030  -24.7050 C   0  0  0  0  0  0  0  0  0  0  0  0
   -0.9240   25.2820  -26.0930 C   0  0  0  0  0  0  0  0  0  0  0  0
   -3.3978   22.0215  -29.5160 H   0  0  0  0  0  0  0  0  0  0  0  0
   -3.1584   23.0437  -28.0523 H   0  0  0  0  0  0  0  0  0  0  0  0
   -5.8998   23.7547  -28.4741 H   0  0  0  0  0  0  0  0  0  0  0  0
   -6.7454   25.8222  -29.9878 H   0  0  0  0  0  0  0  0  0  0  0  0
   -2.6100   25.7750  -29.0410 H   0  0  0  0  0  0  0  0  0  0  0  0
    0.1314   26.7947  -28.4916 H   0  0  0  0  0  0  0  0  0  0  0  0
   -1.4209   27.7022  -28.3801 H   0  0  0  0  0  0  0  0  0  0  0  0
   -0.8478   28.7032  -26.1973 H   0  0  0  0  0  0  0  0  0  0  0  0
   -0.8059   28.3745  -23.7239 H   0  0  0  0  0  0  0  0  0  0  0  0
   -0.8337   26.0710  -22.7664 H   0  0  0  0  0  0  0  0  0  0  0  0
   -0.9114   24.0879  -24.2814 H   0  0  0  0  0  0  0  0  0  0  0  0
   -0.9531   24.4065  -26.7583 H   0  0  0  0  0  0  0  0  0  0  0  0
  1  2  2  0
  2  3  1  0
  3  4  1  0
  4  5  1  0
  5  6  1  0
  6  7  2  0
  7  8  1  0
  8  9  1  0
  2 10  1  0
 10 11  1  0
 11 12  1  0
 12 13  2  0
 13 14  1  0
 14 15  2  0
 15 16  1  0
 16 17  2  0
  9  5  2  0
 17 12  1  0
  4 18  1  0
  4 19  1  0
  6 20  1  0
  7 21  1  0
 10 22  1  0
 11 23  1  0
 11 24  1  0
 13 25  1  0
 14 26  1  0
 15 27  1  0
 16 28  1  0
 17 29  1  0
M  CHG  1   3  -1
M  END
>  <UniqueID>  (44) 
42

>  <SMILES>  (44) 
O=C([N-]Cc1ccon1)NCc1ccccc1

>  <Energy>  (44) 
52.93877413357512

>  <Genealogy>  (44) 
O=C([N-]Cc1ccon1)NCc1ccccc1 (protonated)
O=C([N-]Cc1ccon1)NCc1ccccc1 (3D coordinates assigned)
O=C([N-]Cc1ccon1)NCc1ccccc1 (optimized conformer: 52.93877413357512 kcal/mol)

>  <smiles>  (44) 
O=C(NCc1ccccc1)NCc1ccon1

>  <score_type>  (44) 
oracle

>  <origin>  (44) 
adgpu

>  <m_score__min__energy>  (44) 
-8.0500000000000007

>  <m_primary>  (44) 
energy

$$$$
44:0
     RDKit          3D

 20 21  0  0  0  0  0  0  0  0999 V2000
    0.3700   24.1240  -28.9130 O   0  0  0  0  0  0  0  0  0  0  0  0
   -0.8430   24.1360  -29.2520 C   0  0  0  0  0  0  0  0  0  0  0  0
   -1.3740   23.0640  -29.8960 N   0  0  0  0  0  0  0  0  0  0  0  0
   -2.6800   23.0430  -30.2740 C   0  0  0  0  0  0  0  0  0  0  0  0
   -3.1990   21.9390  -30.9470 C   0  0  0  0  0  0  0  0  0  0  0  0
   -4.5390   21.9200  -31.3400 C   0  0  0  0  0  0  0  0  0  0  0  0
   -5.1510   20.4660  -32.1210 Cl  0  0  0  0  0  0  0  0  0  0  0  0
   -5.3800   23.0180  -31.0610 C   0  0  0  0  0  0  0  0  0  0  0  0
   -6.7700   22.9630  -31.4180 N   0  0  0  0  0  0  0  0  0  0  0  0
   -7.6220   22.6040  -30.5790 O   0  0  0  0  0  0  0  0  0  0  0  0
   -7.1760   23.2940  -32.6890 O   0  0  0  0  0  0  0  0  0  0  0  0
   -4.8570   24.1490  -30.3840 C   0  0  0  0  0  0  0  0  0  0  0  0
   -5.6790   25.3040  -30.1380 N   0  0  0  0  0  0  0  0  0  0  0  0
   -5.3060   26.4360  -30.5110 O   0  0  0  0  0  0  0  0  0  0  0  0
   -6.8460   25.1900  -29.4180 O   0  0  0  0  0  0  0  0  0  0  0  0
   -3.5030   24.1510  -29.9890 C   0  0  0  0  0  0  0  0  0  0  0  0
   -2.9600   25.2250  -29.3520 N   0  0  0  0  0  0  0  0  0  0  0  0
   -1.6530   25.2440  -28.9760 C   0  0  0  0  0  0  0  0  0  0  0  0
   -1.1870   26.2540  -28.3850 O   0  0  0  0  0  0  0  0  0  0  0  0
   -2.5506   21.0788  -31.1697 H   0  0  0  0  0  0  0  0  0  0  0  0
  1  2  2  0
  2  3  1  0
  3  4  1  0
  4  5  2  0
  5  6  1  0
  6  7  1  0
  6  8  2  0
  8  9  1  0
  9 10  2  0
  9 11  1  0
  8 12  1  0
 12 13  1  0
 13 14  2  0
 13 15  1  0
 12 16  2  0
 16 17  1  0
 17 18  1  0
 18 19  2  0
 18  2  1  0
 16  4  1  0
  5 20  1  0
M  CHG  6   3  -1   9   1  11  -1  13   1  15  -1  17  -1
M  END
>  <UniqueID>  (45) 
43

>  <SMILES>  (45) 
O=c1[n-]c2cc(Cl)c([N+](=O)[O-])c([N+](=O)[O-])c2[n-]c1=O

>  <Energy>  (45) 
38.204706447703785

>  <Genealogy>  (45) 
O=c1[n-]c2cc(Cl)c([N+](=O)[O-])c([N+](=O)[O-])c2[n-]c1=O (protonated)
O=c1[n-]c2cc(Cl)c([N+](=O)[O-])c([N+](=O)[O-])c2[n-]c1=O (3D coordinates assigned)
O=c1[n-]c2cc(Cl)c([N+](=O)[O-])c([N+](=O)[O-])c2[n-]c1=O (optimized conformer: 38.204706447703785 kcal/mol)

>  <smiles>  (45) 
O=c1[nH]c2cc(Cl)c([N+](=O)[O-])c([N+](=O)[O-])c2[nH]c1=O

>  <score_type>  (45) 
oracle

>  <origin>  (45) 
adgpu

>  <m_score__min__energy>  (45) 
-8.5299999999999994

>  <m_primary>  (45) 
energy

$$$$
45:0
     RDKit          3D

 33 36  0  0  0  0  0  0  0  0999 V2000
   -5.3050   18.5970  -31.8400 O   0  0  0  0  0  0  0  0  0  0  0  0
   -6.1600   18.1370  -32.6440 C   0  0  0  0  0  0  0  0  0  0  0  0
   -7.2130   18.9820  -33.1380 N   0  0  0  0  0  0  0  0  0  0  0  0
   -7.6070   20.2170  -32.5120 C   0  0  0  0  0  0  0  0  0  0  0  0
   -8.9610   20.5280  -32.3010 C   0  0  0  0  0  0  0  0  0  0  0  0
   -9.3200   21.7490  -31.7270 C   0  0  0  0  0  0  0  0  0  0  0  0
   -8.3370   22.6720  -31.3650 C   0  0  0  0  0  0  0  0  0  0  0  0
   -6.9780   22.3830  -31.5710 C   0  0  0  0  0  0  0  0  0  0  0  0
   -5.9500   23.3840  -31.1980 C   0  0  0  0  0  0  0  0  0  0  0  0
   -6.2760   24.7120  -31.1450 N   0  0  0  0  0  0  0  0  0  0  0  0
   -5.3600   25.6690  -30.7960 C   0  0  0  0  0  0  0  0  0  0  0  0
   -4.0800   25.3170  -30.4760 N   0  0  0  0  0  0  0  0  0  0  0  0
   -3.7490   24.0050  -30.5200 C   0  0  0  0  0  0  0  0  0  0  0  0
   -2.5630   23.4710  -30.2000 N   0  0  0  0  0  0  0  0  0  0  0  0
   -2.7960   22.1420  -30.3720 C   0  0  0  0  0  0  0  0  0  0  0  0
   -4.0590   21.8370  -30.7700 N   0  0  0  0  0  0  0  0  0  0  0  0
   -4.6360   23.0440  -30.8640 C   0  0  0  0  0  0  0  0  0  0  0  0
   -6.6250   21.1570  -32.1670 C   0  0  0  0  0  0  0  0  0  0  0  0
   -6.0350   16.7420  -33.1000 C   0  0  0  0  0  0  0  0  0  0  0  0
   -6.8510   16.0880  -34.0190 C   0  0  0  0  0  0  0  0  0  0  0  0
   -6.4850   14.7530  -34.2310 C   0  0  0  0  0  0  0  0  0  0  0  0
   -5.3870   14.3470  -33.4850 C   0  0  0  0  0  0  0  0  0  0  0  0
   -4.8740   15.6520  -32.5560 S   0  0  0  0  0  0  0  0  0  0  0  0
   -7.6450   18.7450  -34.0590 H   0  0  0  0  0  0  0  0  0  0  0  0
   -9.7405   19.8072  -32.5890 H   0  0  0  0  0  0  0  0  0  0  0  0
  -10.3813   21.9847  -31.5593 H   0  0  0  0  0  0  0  0  0  0  0  0
   -8.6289   23.6325  -30.9152 H   0  0  0  0  0  0  0  0  0  0  0  0
   -5.6575   26.7278  -30.7734 H   0  0  0  0  0  0  0  0  0  0  0  0
   -2.0247   21.3763  -30.2027 H   0  0  0  0  0  0  0  0  0  0  0  0
   -5.5661   20.9338  -32.3644 H   0  0  0  0  0  0  0  0  0  0  0  0
   -7.6982   16.5714  -34.5276 H   0  0  0  0  0  0  0  0  0  0  0  0
   -7.0187   14.0871  -34.9251 H   0  0  0  0  0  0  0  0  0  0  0  0
   -4.9315   13.3458  -33.4990 H   0  0  0  0  0  0  0  0  0  0  0  0
  1  2  2  0
  2  3  1  0
  3  4  1  0
  4  5  2  0
  5  6  1  0
  6  7  2  0
  7  8  1  0
  8  9  1  0
  9 10  2  0
 10 11  1  0
 11 12  2  0
 12 13  1  0
 13 14  1  0
 14 15  1  0
 15 16  2  0
 16 17  1  0
  8 18  2  0
  2 19  1  0
 19 20  2  0
 20 21  1  0
 21 22  2  0
 22 23  1  0
 18  4  1  0
 23 19  1  0
 17  9  1  0
 17 13  2  0
  3 24  1  0
  5 25  1  0
  6 26  1  0
  7 27  1  0
 11 28  1  0
 15 29  1  0
 18 30  1  0
 20 31  1  0
 21 32  1  0
 22 33  1  0
M  CHG  1  14  -1
M  END
>  <UniqueID>  (46) 
44

>  <SMILES>  (46) 
O=C(Nc1cccc(-c2ncnc3[n-]cnc23)c1)c1cccs1

>  <Energy>  (46) 
109.93545331267653

>  <Genealogy>  (46) 
O=C(Nc1cccc(-c2ncnc3[n-]cnc23)c1)c1cccs1 (protonated)
O=C(Nc1cccc(-c2ncnc3[n-]cnc23)c1)c1cccs1 (3D coordinates assigned)
O=C(Nc1cccc(-c2ncnc3[n-]cnc23)c1)c1cccs1 (optimized conformer: 109.93545331267653 kcal/mol)

>  <smiles>  (46) 
O=C(Nc1cccc(-c2ncnc3[nH]cnc23)c1)c1cccs1

>  <score_type>  (46) 
oracle

>  <origin>  (46) 
adgpu

>  <m_score__min__energy>  (46) 
-9.3599999999999994

>  <m_primary>  (46) 
energy

$$$$
46:0
     RDKit          3D

 28 29  0  0  0  0  0  0  0  0999 V2000
   -3.1880   23.2400  -31.3430 O   0  0  0  0  0  0  0  0  0  0  0  0
   -3.2080   24.0250  -30.3550 C   0  0  0  0  0  0  0  0  0  0  0  0
   -3.8810   25.2840  -30.4720 N   0  0  0  0  0  0  0  0  0  0  0  0
   -5.2780   25.4930  -30.1080 C   0  0  0  0  0  0  0  0  0  0  0  0
   -6.1270   24.3660  -30.6290 C   0  0  0  0  0  0  0  0  0  0  0  0
   -6.8440   23.5390  -29.7530 C   0  0  0  0  0  0  0  0  0  0  0  0
   -7.6090   22.4850  -30.2570 C   0  0  0  0  0  0  0  0  0  0  0  0
   -7.6460   22.2650  -31.6350 C   0  0  0  0  0  0  0  0  0  0  0  0
   -6.9400   23.0710  -32.4730 N   0  0  0  0  0  0  0  0  0  0  0  0
   -6.1890   24.1050  -32.0060 C   0  0  0  0  0  0  0  0  0  0  0  0
   -2.5410   23.6520  -29.0780 C   0  0  0  0  0  0  0  0  0  0  0  0
   -2.5850   22.3130  -28.6430 C   0  0  0  0  0  0  0  0  0  0  0  0
   -1.9730   21.9280  -27.4490 C   0  0  0  0  0  0  0  0  0  0  0  0
   -2.0420   20.2540  -26.9280 Cl  0  0  0  0  0  0  0  0  0  0  0  0
   -1.3070   22.8720  -26.6700 C   0  0  0  0  0  0  0  0  0  0  0  0
   -1.2470   24.2070  -27.0760 C   0  0  0  0  0  0  0  0  0  0  0  0
   -0.3920   25.3500  -26.0470 Cl  0  0  0  0  0  0  0  0  0  0  0  0
   -1.8620   24.6090  -28.2810 C   0  0  0  0  0  0  0  0  0  0  0  0
   -1.8040   25.9430  -28.6940 O   0  0  0  0  0  0  0  0  0  0  0  0
   -5.3650   25.5364  -29.0123 H   0  0  0  0  0  0  0  0  0  0  0  0
   -5.6259   26.4378  -30.5512 H   0  0  0  0  0  0  0  0  0  0  0  0
   -6.8040   23.7203  -28.6688 H   0  0  0  0  0  0  0  0  0  0  0  0
   -8.1766   21.8348  -29.5751 H   0  0  0  0  0  0  0  0  0  0  0  0
   -8.2467   21.4390  -32.0436 H   0  0  0  0  0  0  0  0  0  0  0  0
   -5.6290   24.7380  -32.7100 H   0  0  0  0  0  0  0  0  0  0  0  0
   -3.1083   21.5612  -29.2520 H   0  0  0  0  0  0  0  0  0  0  0  0
   -0.8258   22.5641  -25.7300 H   0  0  0  0  0  0  0  0  0  0  0  0
   -2.6230   26.4740  -28.9620 H   0  0  0  0  0  0  0  0  0  0  0  0
  1  2  2  0
  2  3  1  0
  3  4  1  0
  4  5  1  0
  5  6  2  0
  6  7  1  0
  7  8  2  0
  8  9  1  0
  9 10  2  0
  2 11  1  0
 11 12  2  0
 12 13  1  0
 13 14  1  0
 13 15  2  0
 15 16  1  0
 16 17  1  0
 16 18  2  0
 18 19  1  0
 10  5  1  0
 18 11  1  0
  4 20  1  0
  4 21  1  0
  6 22  1  0
  7 23  1  0
  8 24  1  0
 10 25  1  0
 12 26  1  0
 15 27  1  0
 19 28  1  0
M  CHG  1   3  -1
M  END
>  <UniqueID>  (47) 
45

>  <SMILES>  (47) 
O=C([N-]Cc1cccnc1)c1cc(Cl)cc(Cl)c1O

>  <Energy>  (47) 
30.811199409415448

>  <Genealogy>  (47) 
O=C([N-]Cc1cccnc1)c1cc(Cl)cc(Cl)c1O (protonated)
O=C([N-]Cc1cccnc1)c1cc(Cl)cc(Cl)c1O (3D coordinates assigned)
O=C([N-]Cc1cccnc1)c1cc(Cl)cc(Cl)c1O (optimized conformer: 30.811199409415448 kcal/mol)

>  <smiles>  (47) 
O=C(NCc1cccnc1)c1cc(Cl)cc(Cl)c1O

>  <score_type>  (47) 
oracle

>  <origin>  (47) 
adgpu

>  <m_score__min__energy>  (47) 
-9.2599999999999998

>  <m_primary>  (47) 
energy

$$$$
47:0
     RDKit          3D

 29 31  0  0  0  0  0  0  0  0999 V2000
   -5.2150   25.7160  -30.4660 C   0  0  0  0  0  0  0  0  0  0  0  0
   -3.8790   25.2250  -30.4680 O   0  0  0  0  0  0  0  0  0  0  0  0
   -3.5350   23.8660  -30.5230 C   0  0  0  0  0  0  0  0  0  0  0  0
   -2.7830   23.3260  -29.4730 C   0  0  0  0  0  0  0  0  0  0  0  0
   -2.4210   21.9750  -29.4810 C   0  0  0  0  0  0  0  0  0  0  0  0
   -2.8120   21.1520  -30.5390 C   0  0  0  0  0  0  0  0  0  0  0  0
   -3.5670   21.6770  -31.5920 C   0  0  0  0  0  0  0  0  0  0  0  0
   -4.0810   20.6160  -32.9440 S   0  0  0  0  0  0  0  0  0  0  0  0
   -5.8190   20.8980  -32.6130 C   0  0  0  0  0  0  0  0  0  0  0  0
   -6.3930   22.1220  -32.5750 N   0  0  0  0  0  0  0  0  0  0  0  0
   -7.6890   21.9450  -32.3290 N   0  0  0  0  0  0  0  0  0  0  0  0
   -7.8730   20.6160  -32.2230 C   0  0  0  0  0  0  0  0  0  0  0  0
   -9.0710   19.9530  -31.9730 C   0  0  0  0  0  0  0  0  0  0  0  0
   -9.0320   18.5490  -31.9050 C   0  0  0  0  0  0  0  0  0  0  0  0
   -7.8150   17.8600  -32.0850 C   0  0  0  0  0  0  0  0  0  0  0  0
   -6.6390   18.5850  -32.3330 C   0  0  0  0  0  0  0  0  0  0  0  0
   -6.7310   19.9380  -32.3920 N   0  0  0  0  0  0  0  0  0  0  0  0
   -3.9230   23.0320  -31.5900 C   0  0  0  0  0  0  0  0  0  0  0  0
   -5.5578   25.8420  -29.4284 H   0  0  0  0  0  0  0  0  0  0  0  0
   -5.2500   26.6858  -30.9840 H   0  0  0  0  0  0  0  0  0  0  0  0
   -5.8697   24.9997  -30.9840 H   0  0  0  0  0  0  0  0  0  0  0  0
   -2.4745   23.9689  -28.6354 H   0  0  0  0  0  0  0  0  0  0  0  0
   -1.8276   21.5604  -28.6528 H   0  0  0  0  0  0  0  0  0  0  0  0
   -2.5258   20.0899  -30.5440 H   0  0  0  0  0  0  0  0  0  0  0  0
  -10.0118   20.5058  -31.8340 H   0  0  0  0  0  0  0  0  0  0  0  0
   -9.9561   17.9850  -31.7103 H   0  0  0  0  0  0  0  0  0  0  0  0
   -7.7874   16.7617  -32.0314 H   0  0  0  0  0  0  0  0  0  0  0  0
   -5.6753   18.0740  -32.4748 H   0  0  0  0  0  0  0  0  0  0  0  0
   -4.5076   23.4462  -32.4247 H   0  0  0  0  0  0  0  0  0  0  0  0
  1  2  1  0
  2  3  1  0
  3  4  2  0
  4  5  1  0
  5  6  2  0
  6  7  1  0
  7  8  1  0
  8  9  1  0
  9 10  2  0
 10 11  1  0
 11 12  2  0
 12 13  1  0
 13 14  2  0
 14 15  1  0
 15 16  2  0
 16 17  1  0
  7 18  2  0
 18  3  1  0
 17  9  1  0
 17 12  1  0
  1 19  1  0
  1 20  1  0
  1 21  1  0
  4 22  1  0
  5 23  1  0
  6 24  1  0
 13 25  1  0
 14 26  1  0
 15 27  1  0
 16 28  1  0
 18 29  1  0
M  END
>  <UniqueID>  (48) 
46

>  <SMILES>  (48) 
COc1cccc(Sc2nnc3ccccn23)c1

>  <Energy>  (48) 
67.4201106252085

>  <Genealogy>  (48) 
COc1cccc(Sc2nnc3ccccn23)c1 (3D coordinates assigned)
COc1cccc(Sc2nnc3ccccn23)c1 (optimized conformer: 67.4201106252085 kcal/mol)

>  <smiles>  (48) 
COc1cccc(Sc2nnc3ccccn23)c1

>  <score_type>  (48) 
oracle

>  <origin>  (48) 
adgpu

>  <m_score__min__energy>  (48) 
-7.4400000000000004

>  <m_primary>  (48) 
energy

$$$$
48:0
     RDKit          3D

 28 29  0  0  0  0  0  0  0  0999 V2000
   -6.6230   20.0430  -33.7590 N   0  0  0  0  0  0  0  0  0  0  0  0
   -7.0190   20.9240  -32.7050 C   0  0  0  0  0  0  0  0  0  0  0  0
   -8.3430   20.9250  -32.2490 C   0  0  0  0  0  0  0  0  0  0  0  0
   -8.7290   21.7830  -31.2170 C   0  0  0  0  0  0  0  0  0  0  0  0
   -7.7990   22.6500  -30.6380 C   0  0  0  0  0  0  0  0  0  0  0  0
   -6.4670   22.6710  -31.0900 C   0  0  0  0  0  0  0  0  0  0  0  0
   -5.4690   23.5820  -30.4780 C   0  0  0  0  0  0  0  0  0  0  0  0
   -4.7810   24.3370  -31.2190 O   0  0  0  0  0  0  0  0  0  0  0  0
   -5.3120   23.6510  -29.0510 N   0  0  0  0  0  0  0  0  0  0  0  0
   -4.1380   24.1690  -28.4000 C   0  0  0  0  0  0  0  0  0  0  0  0
   -4.2020   24.5280  -27.0440 C   0  0  0  0  0  0  0  0  0  0  0  0
   -3.0680   25.0140  -26.3860 C   0  0  0  0  0  0  0  0  0  0  0  0
   -1.8570   25.1350  -27.0720 C   0  0  0  0  0  0  0  0  0  0  0  0
   -0.3090   25.7960  -26.1690 Br  0  0  0  0  0  0  0  0  0  0  0  0
   -1.7770   24.7610  -28.4160 C   0  0  0  0  0  0  0  0  0  0  0  0
   -2.9090   24.2740  -29.0790 C   0  0  0  0  0  0  0  0  0  0  0  0
   -6.0850   21.7950  -32.1240 C   0  0  0  0  0  0  0  0  0  0  0  0
   -7.2450   19.8790  -34.5810 H   0  0  0  0  0  0  0  0  0  0  0  0
   -5.7050   19.5470  -33.7250 H   0  0  0  0  0  0  0  0  0  0  0  0
   -9.0808   20.2483  -32.7048 H   0  0  0  0  0  0  0  0  0  0  0  0
   -9.7690   21.7762  -30.8587 H   0  0  0  0  0  0  0  0  0  0  0  0
   -8.1103   23.3205  -29.8235 H   0  0  0  0  0  0  0  0  0  0  0  0
   -6.1370   23.4180  -28.4550 H   0  0  0  0  0  0  0  0  0  0  0  0
   -5.1503   24.4263  -26.4959 H   0  0  0  0  0  0  0  0  0  0  0  0
   -3.1295   25.3016  -25.3261 H   0  0  0  0  0  0  0  0  0  0  0  0
   -0.8218   24.8496  -28.9542 H   0  0  0  0  0  0  0  0  0  0  0  0
   -2.8384   23.9721  -30.1344 H   0  0  0  0  0  0  0  0  0  0  0  0
   -5.0441   21.7935  -32.4798 H   0  0  0  0  0  0  0  0  0  0  0  0
  1  2  1  0
  2  3  2  0
  3  4  1  0
  4  5  2  0
  5  6  1  0
  6  7  1  0
  7  8  2  0
  7  9  1  0
  9 10  1  0
 10 11  2  0
 11 12  1  0
 12 13  2  0
 13 14  1  0
 13 15  1  0
 15 16  2  0
  6 17  2  0
 17  2  1  0
 16 10  1  0
  1 18  1  0
  1 19  1  0
  3 20  1  0
  4 21  1  0
  5 22  1  0
  9 23  1  0
 11 24  1  0
 12 25  1  0
 15 26  1  0
 16 27  1  0
 17 28  1  0
M  END
>  <UniqueID>  (49) 
47

>  <SMILES>  (49) 
Nc1cccc(C(=O)Nc2ccc(Br)cc2)c1

>  <Energy>  (49) 
33.183013182907615

>  <Genealogy>  (49) 
Nc1cccc(C(=O)Nc2ccc(Br)cc2)c1 (3D coordinates assigned)
Nc1cccc(C(=O)Nc2ccc(Br)cc2)c1 (optimized conformer: 33.183013182907615 kcal/mol)

>  <smiles>  (49) 
Nc1cccc(C(=O)Nc2ccc(Br)cc2)c1

>  <score_type>  (49) 
oracle

>  <origin>  (49) 
adgpu

>  <m_score__min__energy>  (49) 
-7.2300000000000004

>  <m_primary>  (49) 
energy

$$$$
