0:0
     RDKit          3D

 48 51  0  0  0  0  0  0  0  0999 V2000
   -6.7760   25.2950  -29.3460 C   0  0  0  0  0  0  0  0  0  0  0  0
   -6.2530   24.7090  -30.6230 C   0  0  0  0  0  0  0  0  0  0  0  0
   -5.3610   25.3440  -31.2490 O   0  0  0  0  0  0  0  0  0  0  0  0
   -6.7480   23.4180  -31.1700 C   0  0  0  0  0  0  0  0  0  0  0  0
   -7.9670   22.9010  -30.6920 C   0  0  0  0  0  0  0  0  0  0  0  0
   -8.4630   21.6860  -31.1640 C   0  0  0  0  0  0  0  0  0  0  0  0
   -7.7620   20.9550  -32.1250 C   0  0  0  0  0  0  0  0  0  0  0  0
   -8.3010   19.7310  -32.5520 O   0  0  0  0  0  0  0  0  0  0  0  0
   -7.7450   18.4440  -32.2810 C   0  0  0  0  0  0  0  0  0  0  0  0
   -6.3740   18.3100  -32.8920 C   0  0  0  0  0  0  0  0  0  0  0  0
   -6.1580   17.4410  -33.9720 C   0  0  0  0  0  0  0  0  0  0  0  0
   -4.8860   17.3220  -34.5340 C   0  0  0  0  0  0  0  0  0  0  0  0
   -3.8180   18.0610  -34.0200 C   0  0  0  0  0  0  0  0  0  0  0  0
   -4.0110   18.9280  -32.9300 C   0  0  0  0  0  0  0  0  0  0  0  0
   -2.8760   19.7140  -32.3820 C   0  0  0  0  0  0  0  0  0  0  0  0
   -1.5540   19.2700  -32.5540 C   0  0  0  0  0  0  0  0  0  0  0  0
   -0.4880   20.0090  -32.0390 C   0  0  0  0  0  0  0  0  0  0  0  0
   -0.7260   21.1970  -31.3460 C   0  0  0  0  0  0  0  0  0  0  0  0
   -2.0390   21.6640  -31.1590 C   0  0  0  0  0  0  0  0  0  0  0  0
   -2.2730   22.9270  -30.4160 C   0  0  0  0  0  0  0  0  0  0  0  0
   -1.6790   23.3250  -29.2320 C   0  0  0  0  0  0  0  0  0  0  0  0
   -2.2350   24.5560  -28.9670 C   0  0  0  0  0  0  0  0  0  0  0  0
   -3.1090   24.8720  -29.9400 N   0  0  0  0  0  0  0  0  0  0  0  0
   -3.1340   23.8840  -30.8200 N   0  0  0  0  0  0  0  0  0  0  0  0
   -3.1090   20.9120  -31.6810 C   0  0  0  0  0  0  0  0  0  0  0  0
   -5.2960   19.0400  -32.3660 C   0  0  0  0  0  0  0  0  0  0  0  0
   -6.5530   21.4700  -32.6270 C   0  0  0  0  0  0  0  0  0  0  0  0
   -6.0460   22.6930  -32.1620 C   0  0  0  0  0  0  0  0  0  0  0  0
   -4.8630   23.1900  -32.7070 O   0  0  0  0  0  0  0  0  0  0  0  0
   -6.3157   24.7793  -28.4903 H   0  0  0  0  0  0  0  0  0  0  0  0
   -6.5279   26.3659  -29.3053 H   0  0  0  0  0  0  0  0  0  0  0  0
   -7.8681   25.1698  -29.3053 H   0  0  0  0  0  0  0  0  0  0  0  0
   -8.5357   23.4627  -29.9363 H   0  0  0  0  0  0  0  0  0  0  0  0
   -9.4166   21.2995  -30.7750 H   0  0  0  0  0  0  0  0  0  0  0  0
   -7.6689   18.3067  -31.1923 H   0  0  0  0  0  0  0  0  0  0  0  0
   -8.4015   17.6784  -32.7203 H   0  0  0  0  0  0  0  0  0  0  0  0
   -6.9937   16.8516  -34.3771 H   0  0  0  0  0  0  0  0  0  0  0  0
   -4.7240   16.6438  -35.3848 H   0  0  0  0  0  0  0  0  0  0  0  0
   -2.8194   17.9641  -34.4709 H   0  0  0  0  0  0  0  0  0  0  0  0
   -1.3581   18.3342  -33.0979 H   0  0  0  0  0  0  0  0  0  0  0  0
    0.5436   19.6539  -32.1797 H   0  0  0  0  0  0  0  0  0  0  0  0
    0.1204   21.7725  -30.9429 H   0  0  0  0  0  0  0  0  0  0  0  0
   -0.9312   22.7807  -28.6366 H   0  0  0  0  0  0  0  0  0  0  0  0
   -2.0010   25.1841  -28.0948 H   0  0  0  0  0  0  0  0  0  0  0  0
   -4.1409   21.2656  -31.5390 H   0  0  0  0  0  0  0  0  0  0  0  0
   -5.4571   19.7056  -31.5052 H   0  0  0  0  0  0  0  0  0  0  0  0
   -5.9987   20.9076  -33.3928 H   0  0  0  0  0  0  0  0  0  0  0  0
   -4.2260   23.7640  -32.1680 H   0  0  0  0  0  0  0  0  0  0  0  0
  1  2  1  0
  2  3  2  0
  2  4  1  0
  4  5  2  0
  5  6  1  0
  6  7  2  0
  7  8  1  0
  8  9  1  0
  9 10  1  0
 10 11  2  0
 11 12  1  0
 12 13  2  0
 13 14  1  0
 14 15  1  0
 15 16  2  0
 16 17  1  0
 17 18  2  0
 18 19  1  0
 19 20  1  0
 20 21  1  0
 21 22  2  0
 22 23  1  0
 23 24  1  0
 19 25  2  0
 14 26  2  0
  7 27  1  0
 27 28  2  0
 28 29  1  0
 28  4  1  0
 26 10  1  0
 25 15  1  0
 24 20  2  0
  1 30  1  0
  1 31  1  0
  1 32  1  0
  5 33  1  0
  6 34  1  0
  9 35  1  0
  9 36  1  0
 11 37  1  0
 12 38  1  0
 13 39  1  0
 16 40  1  0
 17 41  1  0
 18 42  1  0
 21 43  1  0
 22 44  1  0
 25 45  1  0
 26 46  1  0
 27 47  1  0
 29 48  1  0
M  CHG  1  23  -1
M  END
>  <UniqueID>  (1) 
1

>  <SMILES>  (1) 
CC(=O)c1ccc(OCc2cccc(-c3cccc(-c4cc[n-]n4)c3)c2)cc1O

>  <Energy>  (1) 
90.8199237901263

>  <Genealogy>  (1) 
CC(=O)c1ccc(OCc2cccc(-c3cccc(-c4cc[n-]n4)c3)c2)cc1O (protonated)
CC(=O)c1ccc(OCc2cccc(-c3cccc(-c4cc[n-]n4)c3)c2)cc1O (3D coordinates assigned)
CC(=O)c1ccc(OCc2cccc(-c3cccc(-c4cc[n-]n4)c3)c2)cc1O (optimized conformer: 90.8199237901263 kcal/mol)

>  <smiles>  (1) 
CC(=O)c1ccc(OCc2cccc(-c3cccc(-c4cc[nH]n4)c3)c2)cc1O

>  <score_type>  (1) 
oracle

>  <origin>  (1) 
adgpu

>  <m_score__min__energy>  (1) 
-11.15

>  <m_primary>  (1) 
energy

$$$$
1:0
     RDKit          3D

 42 44  0  0  0  0  0  0  0  0999 V2000
   -5.4660   26.4530  -30.4660 O   0  0  0  0  0  0  0  0  0  0  0  0
   -4.9060   25.3290  -30.5650 C   0  0  0  0  0  0  0  0  0  0  0  0
   -3.5090   25.2300  -30.2560 N   0  0  0  0  0  0  0  0  0  0  0  0
   -2.9190   24.3660  -29.2740 C   0  0  0  0  0  0  0  0  0  0  0  0
   -3.5610   23.1900  -28.8470 C   0  0  0  0  0  0  0  0  0  0  0  0
   -2.9720   22.3840  -27.8690 C   0  0  0  0  0  0  0  0  0  0  0  0
   -1.7510   22.7520  -27.3000 C   0  0  0  0  0  0  0  0  0  0  0  0
   -1.1150   23.9360  -27.6970 C   0  0  0  0  0  0  0  0  0  0  0  0
    0.4170   24.4170  -26.9650 S   0  0  0  0  0  0  0  0  0  0  0  0
    1.0490   23.2220  -26.3040 O   0  0  0  0  0  0  0  0  0  0  0  0
    1.3470   24.8990  -28.0430 O   0  0  0  0  0  0  0  0  0  0  0  0
    0.1950   25.6850  -25.7810 N   0  0  0  0  0  0  0  0  0  0  0  0
    0.0980   25.1070  -24.4200 C   0  0  0  0  0  0  0  0  0  0  0  0
   -0.5090   26.0850  -23.3870 C   0  0  0  0  0  0  0  0  0  0  0  0
   -0.4030   27.5390  -23.8490 C   0  0  0  0  0  0  0  0  0  0  0  0
   -1.0870   27.7420  -25.2120 C   0  0  0  0  0  0  0  0  0  0  0  0
   -0.9930   26.4940  -26.1140 C   0  0  0  0  0  0  0  0  0  0  0  0
   -1.7080   24.7420  -28.6810 C   0  0  0  0  0  0  0  0  0  0  0  0
   -5.6770   24.1680  -31.0640 C   0  0  0  0  0  0  0  0  0  0  0  0
   -7.0460   24.0300  -30.7830 C   0  0  0  0  0  0  0  0  0  0  0  0
   -7.7250   22.9580  -31.2680 N   0  0  0  0  0  0  0  0  0  0  0  0
   -7.1060   22.0160  -32.0260 C   0  0  0  0  0  0  0  0  0  0  0  0
   -5.7480   22.1520  -32.3150 C   0  0  0  0  0  0  0  0  0  0  0  0
   -5.0680   23.2240  -31.8320 N   0  0  0  0  0  0  0  0  0  0  0  0
   -4.5291   22.9038  -29.2838 H   0  0  0  0  0  0  0  0  0  0  0  0
   -3.4710   21.4582  -27.5469 H   0  0  0  0  0  0  0  0  0  0  0  0
   -1.2865   22.1099  -26.5371 H   0  0  0  0  0  0  0  0  0  0  0  0
    1.0460   26.2940  -25.8340 H   0  0  0  0  0  0  0  0  0  0  0  0
   -0.5351   24.2086  -24.4656 H   0  0  0  0  0  0  0  0  0  0  0  0
    1.1208   24.8739  -24.0891 H   0  0  0  0  0  0  0  0  0  0  0  0
   -1.5701   25.8346  -23.2407 H   0  0  0  0  0  0  0  0  0  0  0  0
    0.0550   25.9832  -22.4481 H   0  0  0  0  0  0  0  0  0  0  0  0
   -0.8873   28.1880  -23.1045 H   0  0  0  0  0  0  0  0  0  0  0  0
    0.6619   27.7943  -23.9527 H   0  0  0  0  0  0  0  0  0  0  0  0
   -2.1486   27.9750  -25.0423 H   0  0  0  0  0  0  0  0  0  0  0  0
   -0.5684   28.5647  -25.7260 H   0  0  0  0  0  0  0  0  0  0  0  0
   -1.8956   25.8810  -25.9741 H   0  0  0  0  0  0  0  0  0  0  0  0
   -0.9080   26.8248  -27.1596 H   0  0  0  0  0  0  0  0  0  0  0  0
   -1.2171   25.6770  -28.9889 H   0  0  0  0  0  0  0  0  0  0  0  0
   -7.5651   24.7849  -30.1742 H   0  0  0  0  0  0  0  0  0  0  0  0
   -7.6708   21.1531  -32.4088 H   0  0  0  0  0  0  0  0  0  0  0  0
   -5.2327   21.3981  -32.9283 H   0  0  0  0  0  0  0  0  0  0  0  0
  1  2  2  0
  2  3  1  0
  3  4  1  0
  4  5  2  0
  5  6  1  0
  6  7  2  0
  7  8  1  0
  8  9  1  0
  9 10  2  0
  9 11  2  0
  9 12  1  0
 12 13  1  0
 13 14  1  0
 14 15  1  0
 15 16  1  0
 16 17  1  0
  8 18  2  0
  2 19  1  0
 19 20  2  0
 20 21  1  0
 21 22  2  0
 22 23  1  0
 23 24  2  0
 18  4  1  0
 24 19  1  0
 17 12  1  0
  5 25  1  0
  6 26  1  0
  7 27  1  0
 12 28  1  0
 13 29  1  0
 13 30  1  0
 14 31  1  0
 14 32  1  0
 15 33  1  0
 15 34  1  0
 16 35  1  0
 16 36  1  0
 17 37  1  0
 17 38  1  0
 18 39  1  0
 20 40  1  0
 22 41  1  0
 23 42  1  0
M  CHG  2   3  -1  12   1
M  END
>  <UniqueID>  (2) 
2

>  <SMILES>  (2) 
O=C([N-]c1cccc(S(=O)(=O)[NH+]2CCCCC2)c1)c1cnccn1

>  <Energy>  (2) 
53.811705378638905

>  <Genealogy>  (2) 
O=C([N-]c1cccc(S(=O)(=O)[NH+]2CCCCC2)c1)c1cnccn1 (protonated)
O=C([N-]c1cccc(S(=O)(=O)[NH+]2CCCCC2)c1)c1cnccn1 (3D coordinates assigned)
O=C([N-]c1cccc(S(=O)(=O)[NH+]2CCCCC2)c1)c1cnccn1 (nonaromatic ring conformer: 53.811705378638905 kcal/mol)

>  <smiles>  (2) 
O=C(Nc1cccc(S(=O)(=O)N2CCCCC2)c1)c1cnccn1

>  <score_type>  (2) 
oracle

>  <origin>  (2) 
adgpu

>  <m_score__min__energy>  (2) 
-9.5399999999999991

>  <m_primary>  (2) 
energy

$$$$
2:0
     RDKit          3D

 49 52  0  0  0  0  0  0  0  0999 V2000
   -5.3370   25.3920  -31.2270 O   0  0  0  0  0  0  0  0  0  0  0  0
   -6.2100   24.7040  -30.2160 S   0  0  0  0  0  0  0  0  0  0  0  0
   -7.3460   25.6210  -29.8570 O   0  0  0  0  0  0  0  0  0  0  0  0
   -5.2760   24.3610  -28.7970 N   0  0  0  0  0  0  0  0  0  0  0  0
   -4.0260   23.6580  -28.7750 C   0  0  0  0  0  0  0  0  0  0  0  0
   -3.8350   22.5050  -27.9950 C   0  0  0  0  0  0  0  0  0  0  0  0
   -2.5980   21.8430  -27.9820 C   0  0  0  0  0  0  0  0  0  0  0  0
   -1.5450   22.3210  -28.7870 C   0  0  0  0  0  0  0  0  0  0  0  0
   -1.7320   23.4800  -29.5530 C   0  0  0  0  0  0  0  0  0  0  0  0
   -2.9620   24.1430  -29.5470 C   0  0  0  0  0  0  0  0  0  0  0  0
   -3.1210   25.2950  -30.3070 O   0  0  0  0  0  0  0  0  0  0  0  0
   -0.1830   21.6660  -28.7510 C   0  0  0  0  0  0  0  0  0  0  0  0
   -0.2260   20.2670  -28.2740 N   0  0  0  0  0  0  0  0  0  0  0  0
   -0.7210   19.3300  -29.3060 C   0  0  0  0  0  0  0  0  0  0  0  0
   -0.6730   19.9840  -30.6620 C   0  0  0  0  0  0  0  0  0  0  0  0
    0.5580   20.1700  -31.3060 C   0  0  0  0  0  0  0  0  0  0  0  0
    0.6140   20.8040  -32.5500 C   0  0  0  0  0  0  0  0  0  0  0  0
   -0.5550   21.2620  -33.1660 C   0  0  0  0  0  0  0  0  0  0  0  0
   -0.4560   21.8880  -34.4070 O   0  0  0  0  0  0  0  0  0  0  0  0
   -1.7970   21.0820  -32.5220 C   0  0  0  0  0  0  0  0  0  0  0  0
   -3.2980   21.6500  -33.2410 Cl  0  0  0  0  0  0  0  0  0  0  0  0
   -1.8490   20.4460  -31.2760 C   0  0  0  0  0  0  0  0  0  0  0  0
   -0.9800   20.1670  -27.0090 C   0  0  0  0  0  0  0  0  0  0  0  0
   -2.4490   20.5810  -27.1730 C   0  0  0  0  0  0  0  0  0  0  0  0
   -6.8070   23.2000  -30.9080 C   0  0  0  0  0  0  0  0  0  0  0  0
   -6.2310   22.6630  -32.0700 C   0  0  0  0  0  0  0  0  0  0  0  0
   -6.7320   21.4800  -32.6210 C   0  0  0  0  0  0  0  0  0  0  0  0
   -7.8080   20.8250  -32.0120 C   0  0  0  0  0  0  0  0  0  0  0  0
   -8.2910   19.6760  -32.5460 F   0  0  0  0  0  0  0  0  0  0  0  0
   -8.3820   21.3530  -30.8540 C   0  0  0  0  0  0  0  0  0  0  0  0
   -7.8850   22.5390  -30.3030 C   0  0  0  0  0  0  0  0  0  0  0  0
   -4.6654   22.1166  -27.3871 H   0  0  0  0  0  0  0  0  0  0  0  0
   -0.9043   23.8704  -30.1633 H   0  0  0  0  0  0  0  0  0  0  0  0
    0.2379   21.6769  -29.7672 H   0  0  0  0  0  0  0  0  0  0  0  0
    0.4369   22.2356  -28.0430 H   0  0  0  0  0  0  0  0  0  0  0  0
   -0.0893   18.4295  -29.3134 H   0  0  0  0  0  0  0  0  0  0  0  0
   -1.7606   19.0548  -29.0747 H   0  0  0  0  0  0  0  0  0  0  0  0
    1.4841   19.8153  -30.8300 H   0  0  0  0  0  0  0  0  0  0  0  0
    1.5846   20.9439  -33.0484 H   0  0  0  0  0  0  0  0  0  0  0  0
   -1.2240   21.9200  -35.0670 H   0  0  0  0  0  0  0  0  0  0  0  0
   -2.8179   20.3070  -30.7740 H   0  0  0  0  0  0  0  0  0  0  0  0
   -0.9430   19.1257  -26.6564 H   0  0  0  0  0  0  0  0  0  0  0  0
   -0.5156   20.8527  -26.2850 H   0  0  0  0  0  0  0  0  0  0  0  0
   -2.9913   19.7692  -27.6799 H   0  0  0  0  0  0  0  0  0  0  0  0
   -2.8597   20.7722  -26.1706 H   0  0  0  0  0  0  0  0  0  0  0  0
   -5.3829   23.1746  -32.5484 H   0  0  0  0  0  0  0  0  0  0  0  0
   -6.2802   21.0639  -33.5336 H   0  0  0  0  0  0  0  0  0  0  0  0
   -9.2261   20.8358  -30.3743 H   0  0  0  0  0  0  0  0  0  0  0  0
   -8.3415   22.9541  -29.3923 H   0  0  0  0  0  0  0  0  0  0  0  0
  1  2  2  0
  2  3  2  0
  2  4  1  0
  4  5  1  0
  5  6  2  0
  6  7  1  0
  7  8  2  0
  8  9  1  0
  9 10  2  0
 10 11  1  0
  8 12  1  0
 12 13  1  0
 13 14  1  0
 14 15  1  0
 15 16  2  0
 16 17  1  0
 17 18  2  0
 18 19  1  0
 18 20  1  0
 20 21  1  0
 20 22  2  0
 13 23  1  0
 23 24  1  0
  2 25  1  0
 25 26  2  0
 26 27  1  0
 27 28  2  0
 28 29  1  0
 28 30  1  0
 30 31  2  0
 10  5  1  0
 22 15  1  0
 31 25  1  0
 24  7  1  0
  6 32  1  0
  9 33  1  0
 12 34  1  0
 12 35  1  0
 14 36  1  0
 14 37  1  0
 16 38  1  0
 17 39  1  0
 19 40  1  0
 22 41  1  0
 23 42  1  0
 23 43  1  0
 24 44  1  0
 24 45  1  0
 26 46  1  0
 27 47  1  0
 30 48  1  0
 31 49  1  0
M  CHG  2   4  -1  11  -1
M  END
>  <UniqueID>  (3) 
3

>  <SMILES>  (3) 
O=S(=O)([N-]c1cc2c(cc1[O-])CN(Cc1ccc(O)c(Cl)c1)CC2)c1ccc(F)cc1

>  <Energy>  (3) 
62.302738277204696

>  <Genealogy>  (3) 
O=S(=O)([N-]c1cc2c(cc1[O-])CN(Cc1ccc(O)c(Cl)c1)CC2)c1ccc(F)cc1 (protonated)
O=S(=O)([N-]c1cc2c(cc1[O-])CN(Cc1ccc(O)c(Cl)c1)CC2)c1ccc(F)cc1 (3D coordinates assigned)
O=S(=O)([N-]c1cc2c(cc1[O-])CN(Cc1ccc(O)c(Cl)c1)CC2)c1ccc(F)cc1 (nonaromatic ring conformer: 62.302738277204696 kcal/mol)

>  <smiles>  (3) 
O=S(=O)(Nc1cc2c(cc1O)CN(Cc1ccc(O)c(Cl)c1)CC2)c1ccc(F)cc1

>  <score_type>  (3) 
oracle

>  <origin>  (3) 
adgpu

>  <m_score__min__energy>  (3) 
-13.470000000000001

>  <m_primary>  (3) 
energy

$$$$
3:0
     RDKit          3D

 62 65  0  0  0  0  0  0  0  0999 V2000
   -2.3630   26.4960  -28.9620 H   0  0  0  0  0  0  0  0  0  0  0  0
   -1.4990   25.9660  -28.7150 N   0  0  0  0  0  0  0  0  0  0  0  0
   -1.3740   24.6770  -28.7760 C   0  0  0  0  0  0  0  0  0  0  0  0
   -0.1610   24.1370  -28.4750 N   0  0  0  0  0  0  0  0  0  0  0  0
    0.0920   22.8060  -28.5710 C   0  0  0  0  0  0  0  0  0  0  0  0
    1.0880   22.4161  -28.3142 H   0  0  0  0  0  0  0  0  0  0  0  0
   -0.9100   21.9330  -28.9950 C   0  0  0  0  0  0  0  0  0  0  0  0
   -0.5880   20.2090  -29.1760 S   0  0  0  0  0  0  0  0  0  0  0  0
   -1.5920   19.4240  -28.3770 O   0  0  0  0  0  0  0  0  0  0  0  0
    0.7850   19.9110  -28.6390 O   0  0  0  0  0  0  0  0  0  0  0  0
   -0.6710   19.7550  -30.8620 N   0  0  0  0  0  0  0  0  0  0  0  0
   -0.7330   18.7100  -30.8820 H   0  0  0  0  0  0  0  0  0  0  0  0
    0.5840   20.1470  -31.5510 C   0  0  0  0  0  0  0  0  0  0  0  0
    0.9015   21.1327  -31.1800 H   0  0  0  0  0  0  0  0  0  0  0  0
    1.3453   19.3820  -31.3385 H   0  0  0  0  0  0  0  0  0  0  0  0
    0.3960   20.2250  -33.0700 C   0  0  0  0  0  0  0  0  0  0  0  0
    1.3595   20.4723  -33.5395 H   0  0  0  0  0  0  0  0  0  0  0  0
    0.0314   19.2511  -33.4286 H   0  0  0  0  0  0  0  0  0  0  0  0
   -0.6370   21.3030  -33.4430 C   0  0  0  0  0  0  0  0  0  0  0  0
   -0.1045   22.2406  -33.6608 H   0  0  0  0  0  0  0  0  0  0  0  0
   -1.1953   20.9401  -34.3186 H   0  0  0  0  0  0  0  0  0  0  0  0
   -1.6540   21.5640  -32.3180 C   0  0  0  0  0  0  0  0  0  0  0  0
   -1.2620   22.3491  -31.6547 H   0  0  0  0  0  0  0  0  0  0  0  0
   -2.6041   21.8803  -32.7732 H   0  0  0  0  0  0  0  0  0  0  0  0
   -1.9080   20.2920  -31.4940 C   0  0  0  0  0  0  0  0  0  0  0  0
   -2.6340   20.5262  -30.7015 H   0  0  0  0  0  0  0  0  0  0  0  0
   -2.2880   19.5228  -32.1824 H   0  0  0  0  0  0  0  0  0  0  0  0
   -2.1680   22.4500  -29.3030 C   0  0  0  0  0  0  0  0  0  0  0  0
   -2.9655   21.7708  -29.6387 H   0  0  0  0  0  0  0  0  0  0  0  0
   -2.4320   23.8250  -29.1910 C   0  0  0  0  0  0  0  0  0  0  0  0
   -3.7980   24.3070  -29.5120 C   0  0  0  0  0  0  0  0  0  0  0  0
   -4.5400   24.7890  -28.6140 O   0  0  0  0  0  0  0  0  0  0  0  0
   -4.3050   24.1770  -30.8430 N   0  0  0  0  0  0  0  0  0  0  0  0
   -5.2340   23.1630  -31.2470 C   0  0  0  0  0  0  0  0  0  0  0  0
   -6.6120   23.2770  -30.9870 C   0  0  0  0  0  0  0  0  0  0  0  0
   -7.0087   24.1929  -30.5247 H   0  0  0  0  0  0  0  0  0  0  0  0
   -7.4780   22.2310  -31.3140 C   0  0  0  0  0  0  0  0  0  0  0  0
   -8.5566   22.3328  -31.1235 H   0  0  0  0  0  0  0  0  0  0  0  0
   -6.9780   21.0520  -31.8840 C   0  0  0  0  0  0  0  0  0  0  0  0
   -8.0600   19.6930  -32.1980 S   0  0  0  0  0  0  0  0  0  0  0  0
   -8.7210   19.2840  -30.9110 O   0  0  0  0  0  0  0  0  0  0  0  0
   -9.1360   20.1230  -33.1570 O   0  0  0  0  0  0  0  0  0  0  0  0
   -7.2010   18.3320  -32.8770 N   0  0  0  0  0  0  0  0  0  0  0  0
   -6.4730   18.7410  -34.0990 C   0  0  0  0  0  0  0  0  0  0  0  0
   -7.2006   18.8880  -34.9108 H   0  0  0  0  0  0  0  0  0  0  0  0
   -5.9302   19.6700  -33.8703 H   0  0  0  0  0  0  0  0  0  0  0  0
   -5.4350   17.6880  -34.5480 C   0  0  0  0  0  0  0  0  0  0  0  0
   -5.4653   17.6015  -35.6442 H   0  0  0  0  0  0  0  0  0  0  0  0
   -4.4419   18.0164  -34.2075 H   0  0  0  0  0  0  0  0  0  0  0  0
   -5.7230   16.3160  -33.9330 C   0  0  0  0  0  0  0  0  0  0  0  0
   -6.7004   15.9594  -34.2902 H   0  0  0  0  0  0  0  0  0  0  0  0
   -4.9258   15.6212  -34.2359 H   0  0  0  0  0  0  0  0  0  0  0  0
   -5.7470   16.3960  -32.3960 C   0  0  0  0  0  0  0  0  0  0  0  0
   -6.3899   15.5910  -32.0105 H   0  0  0  0  0  0  0  0  0  0  0  0
   -4.7118   16.2916  -32.0389 H   0  0  0  0  0  0  0  0  0  0  0  0
   -6.2850   17.7450  -31.8860 C   0  0  0  0  0  0  0  0  0  0  0  0
   -6.8246   17.5874  -30.9405 H   0  0  0  0  0  0  0  0  0  0  0  0
   -5.4407   18.4316  -31.7255 H   0  0  0  0  0  0  0  0  0  0  0  0
   -5.6080   20.9480  -32.1650 C   0  0  0  0  0  0  0  0  0  0  0  0
   -5.2120   20.0337  -32.6310 H   0  0  0  0  0  0  0  0  0  0  0  0
   -4.7440   22.0020  -31.8550 C   0  0  0  0  0  0  0  0  0  0  0  0
   -3.6727   21.9183  -32.0903 H   0  0  0  0  0  0  0  0  0  0  0  0
  1  2  1  0
  2  3  2  0
  3  4  1  0
  4  5  1  0
  5  6  1  0
  5  7  2  0
  7  8  1  0
  8  9  2  0
  8 10  2  0
  8 11  1  0
 11 12  1  0
 11 13  1  0
 13 14  1  0
 13 15  1  0
 13 16  1  0
 16 17  1  0
 16 18  1  0
 16 19  1  0
 19 20  1  0
 19 21  1  0
 19 22  1  0
 22 23  1  0
 22 24  1  0
 22 25  1  0
 25 26  1  0
 25 27  1  0
  7 28  1  0
 28 29  1  0
 28 30  2  0
 30 31  1  0
 31 32  2  0
 31 33  1  0
 33 34  1  0
 34 35  2  0
 35 36  1  0
 35 37  1  0
 37 38  1  0
 37 39  2  0
 39 40  1  0
 40 41  2  0
 40 42  2  0
 40 43  1  0
 43 44  1  0
 44 45  1  0
 44 46  1  0
 44 47  1  0
 47 48  1  0
 47 49  1  0
 47 50  1  0
 50 51  1  0
 50 52  1  0
 50 53  1  0
 53 54  1  0
 53 55  1  0
 53 56  1  0
 56 57  1  0
 56 58  1  0
 39 59  1  0
 59 60  1  0
 59 61  2  0
 61 62  1  0
 30  3  1  0
 61 34  1  0
 25 11  1  0
 56 43  1  0
M  CHG  3   4  -1  11   1  33  -1
M  END
>  <UniqueID>  (4) 
4

>  <SMILES>  (4) 
[H]/N=c1/[n-]cc(S(=O)(=O)[NH+]2CCCCC2)cc1C(=O)[N-]c1ccc(S(=O)(=O)N2CCCCC2)cc1

>  <Energy>  (4) 
85.9272409516943

>  <Genealogy>  (4) 
N=c1[n-]cc(S(=O)(=O)[NH+]2CCCCC2)cc1C(=O)[N-]c1ccc(S(=O)(=O)N2CCCCC2)cc1 (protonated)
[H]/N=c1/[n-]cc(S(=O)(=O)[NH+]2CCCCC2)cc1C(=O)[N-]c1ccc(S(=O)(=O)N2CCCCC2)cc1 (cis-trans isomerization)
[H]/N=c1/[n-]cc(S(=O)(=O)[NH+]2CCCCC2)cc1C(=O)[N-]c1ccc(S(=O)(=O)N2CCCCC2)cc1 (3D coordinates assigned)
[H]/N=c1/[n-]cc(S(=O)(=O)[NH+]2CCCCC2)cc1C(=O)[N-]c1ccc(S(=O)(=O)N2CCCCC2)cc1 (nonaromatic ring conformer: 85.9272409516943 kcal/mol)

>  <smiles>  (4) 
N=c1[nH]cc(S(=O)(=O)N2CCCCC2)cc1C(=O)Nc1ccc(S(=O)(=O)N2CCCCC2)cc1

>  <score_type>  (4) 
oracle

>  <origin>  (4) 
adgpu

>  <m_score__min__energy>  (4) 
-12.880000000000001

>  <m_primary>  (4) 
energy

$$$$
4:0
     RDKit          3D

 54 58  0  0  0  0  0  0  0  0999 V2000
   -5.0530   23.9620  -31.8280 O   0  0  0  0  0  0  0  0  0  0  0  0
   -6.0350   23.5600  -30.7620 S   0  0  0  0  0  0  0  0  0  0  0  0
   -6.7850   24.7930  -30.3420 O   0  0  0  0  0  0  0  0  0  0  0  0
   -5.1490   22.9380  -29.4080 N   0  0  0  0  0  0  0  0  0  0  0  0
   -3.9290   23.5180  -28.9360 C   0  0  0  0  0  0  0  0  0  0  0  0
   -3.8780   24.1430  -27.6820 C   0  0  0  0  0  0  0  0  0  0  0  0
   -2.6940   24.7240  -27.2260 C   0  0  0  0  0  0  0  0  0  0  0  0
   -1.5430   24.7020  -28.0320 C   0  0  0  0  0  0  0  0  0  0  0  0
   -1.6010   24.1030  -29.2990 C   0  0  0  0  0  0  0  0  0  0  0  0
   -2.7870   23.5190  -29.7570 C   0  0  0  0  0  0  0  0  0  0  0  0
   -2.8040   22.9360  -31.0240 O   0  0  0  0  0  0  0  0  0  0  0  0
   -0.2480   25.3220  -27.5630 C   0  0  0  0  0  0  0  0  0  0  0  0
   -0.3270   25.9470  -26.1910 C   0  0  0  0  0  0  0  0  0  0  0  0
    0.8130   26.5560  -25.6430 C   0  0  0  0  0  0  0  0  0  0  0  0
    0.7600   27.1410  -24.3750 C   0  0  0  0  0  0  0  0  0  0  0  0
   -0.4310   27.1210  -23.6440 C   0  0  0  0  0  0  0  0  0  0  0  0
   -1.5700   26.5160  -24.1800 C   0  0  0  0  0  0  0  0  0  0  0  0
   -1.5240   25.9300  -25.4490 C   0  0  0  0  0  0  0  0  0  0  0  0
   -2.6720   25.3290  -25.9680 O   0  0  0  0  0  0  0  0  0  0  0  0
   -7.1750   22.3690  -31.4150 C   0  0  0  0  0  0  0  0  0  0  0  0
   -8.5460   22.6710  -31.3410 C   0  0  0  0  0  0  0  0  0  0  0  0
   -9.5030   21.7670  -31.8040 C   0  0  0  0  0  0  0  0  0  0  0  0
   -9.1070   20.5460  -32.3410 C   0  0  0  0  0  0  0  0  0  0  0  0
   -7.7510   20.2330  -32.4360 C   0  0  0  0  0  0  0  0  0  0  0  0
   -6.7680   21.1400  -32.0040 C   0  0  0  0  0  0  0  0  0  0  0  0
   -5.0690   20.6780  -32.2320 S   0  0  0  0  0  0  0  0  0  0  0  0
   -4.3870   20.6800  -30.8920 O   0  0  0  0  0  0  0  0  0  0  0  0
   -4.3650   21.6400  -33.1490 O   0  0  0  0  0  0  0  0  0  0  0  0
   -4.9830   19.0740  -32.9190 N   0  0  0  0  0  0  0  0  0  0  0  0
   -5.6890   18.0950  -32.0920 C   0  0  0  0  0  0  0  0  0  0  0  0
   -6.1500   16.9860  -33.0260 C   0  0  0  0  0  0  0  0  0  0  0  0
   -6.1060   17.5900  -34.4200 C   0  0  0  0  0  0  0  0  0  0  0  0
   -5.6410   19.0240  -34.2250 C   0  0  0  0  0  0  0  0  0  0  0  0
   -4.7792   24.1757  -27.0521 H   0  0  0  0  0  0  0  0  0  0  0  0
   -0.7059   24.0923  -29.9383 H   0  0  0  0  0  0  0  0  0  0  0  0
   -3.6270   22.4810  -31.4000 H   0  0  0  0  0  0  0  0  0  0  0  0
    0.5230   24.5378  -27.5418 H   0  0  0  0  0  0  0  0  0  0  0  0
   -0.0097   26.1320  -28.2681 H   0  0  0  0  0  0  0  0  0  0  0  0
    1.7527   26.5728  -26.2146 H   0  0  0  0  0  0  0  0  0  0  0  0
    1.6565   27.6177  -23.9519 H   0  0  0  0  0  0  0  0  0  0  0  0
   -0.4713   27.5820  -22.6461 H   0  0  0  0  0  0  0  0  0  0  0  0
   -2.5060   26.5004  -23.6023 H   0  0  0  0  0  0  0  0  0  0  0  0
   -8.8684   23.6316  -30.9129 H   0  0  0  0  0  0  0  0  0  0  0  0
  -10.5718   22.0200  -31.7443 H   0  0  0  0  0  0  0  0  0  0  0  0
   -9.8632   19.8276  -32.6906 H   0  0  0  0  0  0  0  0  0  0  0  0
   -7.4466   19.2625  -32.8550 H   0  0  0  0  0  0  0  0  0  0  0  0
   -5.0131   17.6885  -31.3253 H   0  0  0  0  0  0  0  0  0  0  0  0
   -6.5425   18.5565  -31.5738 H   0  0  0  0  0  0  0  0  0  0  0  0
   -5.4740   16.1208  -32.9597 H   0  0  0  0  0  0  0  0  0  0  0  0
   -7.1564   16.6248  -32.7677 H   0  0  0  0  0  0  0  0  0  0  0  0
   -5.3975   17.0389  -35.0559 H   0  0  0  0  0  0  0  0  0  0  0  0
   -7.0860   17.5421  -34.9173 H   0  0  0  0  0  0  0  0  0  0  0  0
   -4.9326   19.3049  -35.0183 H   0  0  0  0  0  0  0  0  0  0  0  0
   -6.4867   19.7259  -34.2712 H   0  0  0  0  0  0  0  0  0  0  0  0
  1  2  2  0
  2  3  2  0
  2  4  1  0
  4  5  1  0
  5  6  2  0
  6  7  1  0
  7  8  2  0
  8  9  1  0
  9 10  2  0
 10 11  1  0
  8 12  1  0
 12 13  1  0
 13 14  2  0
 14 15  1  0
 15 16  2  0
 16 17  1  0
 17 18  2  0
 18 19  1  0
  2 20  1  0
 20 21  2  0
 21 22  1  0
 22 23  2  0
 23 24  1  0
 24 25  2  0
 25 26  1  0
 26 27  2  0
 26 28  2  0
 26 29  1  0
 29 30  1  0
 30 31  1  0
 31 32  1  0
 32 33  1  0
 10  5  1  0
 18 13  1  0
 25 20  1  0
 33 29  1  0
 19  7  1  0
  6 34  1  0
  9 35  1  0
 11 36  1  0
 12 37  1  0
 12 38  1  0
 14 39  1  0
 15 40  1  0
 16 41  1  0
 17 42  1  0
 21 43  1  0
 22 44  1  0
 23 45  1  0
 24 46  1  0
 30 47  1  0
 30 48  1  0
 31 49  1  0
 31 50  1  0
 32 51  1  0
 32 52  1  0
 33 53  1  0
 33 54  1  0
M  CHG  1   4  -1
M  END
>  <UniqueID>  (5) 
5

>  <SMILES>  (5) 
O=S(=O)([N-]c1cc2c(cc1O)Cc1ccccc1O2)c1ccccc1S(=O)(=O)N1CCCC1

>  <Energy>  (5) 
74.38867396903824

>  <Genealogy>  (5) 
O=S(=O)([N-]c1cc2c(cc1O)Cc1ccccc1O2)c1ccccc1S(=O)(=O)N1CCCC1 (protonated)
O=S(=O)([N-]c1cc2c(cc1O)Cc1ccccc1O2)c1ccccc1S(=O)(=O)N1CCCC1 (3D coordinates assigned)
O=S(=O)([N-]c1cc2c(cc1O)Cc1ccccc1O2)c1ccccc1S(=O)(=O)N1CCCC1 (nonaromatic ring conformer: 74.38867396903824 kcal/mol)

>  <smiles>  (5) 
O=S(=O)(Nc1cc2c(cc1O)Cc1ccccc1O2)c1ccccc1S(=O)(=O)N1CCCC1

>  <score_type>  (5) 
oracle

>  <origin>  (5) 
adgpu

>  <m_score__min__energy>  (5) 
-12.720000000000001

>  <m_primary>  (5) 
energy

$$$$
5:0
     RDKit          3D

 38 39  0  0  0  0  0  0  0  0999 V2000
   -6.0620   17.6020  -34.0020 C   0  0  0  0  0  0  0  0  0  0  0  0
   -6.2770   18.9540  -33.3890 C   0  0  0  0  0  0  0  0  0  0  0  0
   -5.2380   19.8870  -33.3630 C   0  0  0  0  0  0  0  0  0  0  0  0
   -5.4110   21.1460  -32.7680 C   0  0  0  0  0  0  0  0  0  0  0  0
   -4.2300   22.0810  -32.7510 C   0  0  0  0  0  0  0  0  0  0  0  0
   -6.6760   21.4990  -32.2180 C   0  0  0  0  0  0  0  0  0  0  0  0
   -6.9850   23.1460  -31.5930 S   0  0  0  0  0  0  0  0  0  0  0  0
   -7.5500   23.1530  -30.2010 O   0  0  0  0  0  0  0  0  0  0  0  0
   -7.9930   23.7890  -32.5010 O   0  0  0  0  0  0  0  0  0  0  0  0
   -5.5550   24.1330  -31.5890 N   0  0  0  0  0  0  0  0  0  0  0  0
   -4.6550   24.3000  -30.6610 C   0  0  0  0  0  0  0  0  0  0  0  0
   -3.6420   25.1180  -30.8360 O   0  0  0  0  0  0  0  0  0  0  0  0
   -2.8630   25.1140  -29.7980 N   0  0  0  0  0  0  0  0  0  0  0  0
   -3.3710   24.2580  -28.8930 C   0  0  0  0  0  0  0  0  0  0  0  0
   -2.7260   23.9530  -27.5780 C   0  0  0  0  0  0  0  0  0  0  0  0
   -4.5430   23.7080  -29.3960 C   0  0  0  0  0  0  0  0  0  0  0  0
   -5.3500   22.6330  -28.7310 C   0  0  0  0  0  0  0  0  0  0  0  0
   -7.6910   20.5040  -32.1500 C   0  0  0  0  0  0  0  0  0  0  0  0
   -9.0140   20.7350  -31.4670 C   0  0  0  0  0  0  0  0  0  0  0  0
   -7.4850   19.2560  -32.7580 C   0  0  0  0  0  0  0  0  0  0  0  0
   -5.9429   16.8529  -33.2053 H   0  0  0  0  0  0  0  0  0  0  0  0
   -6.9297   17.3397  -34.6251 H   0  0  0  0  0  0  0  0  0  0  0  0
   -5.1557   17.6218  -34.6251 H   0  0  0  0  0  0  0  0  0  0  0  0
   -4.2689   19.6309  -33.8160 H   0  0  0  0  0  0  0  0  0  0  0  0
   -3.9517   22.3013  -31.7098 H   0  0  0  0  0  0  0  0  0  0  0  0
   -3.3805   21.6080  -33.2654 H   0  0  0  0  0  0  0  0  0  0  0  0
   -4.4954   23.0164  -33.2654 H   0  0  0  0  0  0  0  0  0  0  0  0
   -1.9880   25.6760  -29.7070 H   0  0  0  0  0  0  0  0  0  0  0  0
   -3.3920   24.2679  -26.7611 H   0  0  0  0  0  0  0  0  0  0  0  0
   -2.5398   22.8715  -27.5030 H   0  0  0  0  0  0  0  0  0  0  0  0
   -1.7719   24.4954  -27.5030 H   0  0  0  0  0  0  0  0  0  0  0  0
   -5.2712   22.7379  -27.6389 H   0  0  0  0  0  0  0  0  0  0  0  0
   -6.4036   22.7255  -29.0332 H   0  0  0  0  0  0  0  0  0  0  0  0
   -4.9671   21.6471  -29.0332 H   0  0  0  0  0  0  0  0  0  0  0  0
   -8.8728   20.7104  -30.3764 H   0  0  0  0  0  0  0  0  0  0  0  0
   -9.4130   21.7164  -31.7630 H   0  0  0  0  0  0  0  0  0  0  0  0
   -9.7220   19.9469  -31.7630 H   0  0  0  0  0  0  0  0  0  0  0  0
   -8.2878   18.5043  -32.7370 H   0  0  0  0  0  0  0  0  0  0  0  0
  1  2  1  0
  2  3  2  0
  3  4  1  0
  4  5  1  0
  4  6  2  0
  6  7  1  0
  7  8  2  0
  7  9  2  0
  7 10  1  0
 10 11  2  3
 11 12  1  0
 12 13  1  0
 13 14  1  0
 14 15  1  0
 14 16  2  0
 16 17  1  0
  6 18  1  0
 18 19  1  0
 18 20  2  0
 20  2  1  0
 16 11  1  0
  1 21  1  0
  1 22  1  0
  1 23  1  0
  3 24  1  0
  5 25  1  0
  5 26  1  0
  5 27  1  0
 13 28  1  0
 15 29  1  0
 15 30  1  0
 15 31  1  0
 17 32  1  0
 17 33  1  0
 17 34  1  0
 19 35  1  0
 19 36  1  0
 19 37  1  0
 20 38  1  0
M  END
>  <UniqueID>  (6) 
6

>  <SMILES>  (6) 
Cc1cc(C)c(S(=O)(=O)N=c2o[nH]c(C)c2C)c(C)c1

>  <Energy>  (6) 
81.99563957699011

>  <Genealogy>  (6) 
Cc1cc(C)c(S(=O)(=O)N=c2o[nH]c(C)c2C)c(C)c1 (3D coordinates assigned)
Cc1cc(C)c(S(=O)(=O)N=c2o[nH]c(C)c2C)c(C)c1 (optimized conformer: 81.99563957699011 kcal/mol)

>  <smiles>  (6) 
Cc1cc(C)c(S(=O)(=O)N=c2o[nH]c(C)c2C)c(C)c1

>  <score_type>  (6) 
oracle

>  <origin>  (6) 
adgpu

>  <m_score__min__energy>  (6) 
-8.8000000000000007

>  <m_primary>  (6) 
energy

$$$$
6:0
     RDKit          3D

 55 58  0  0  0  0  0  0  0  0999 V2000
    0.2500   29.0820  -36.4550 C   0  0  0  0  0  0  0  0  0  0  0  0
    0.5710   27.6230  -36.3110 C   0  0  0  0  0  0  0  0  0  0  0  0
    1.7940   27.2240  -35.7500 C   0  0  0  0  0  0  0  0  0  0  0  0
    2.0790   25.8660  -35.5780 C   0  0  0  0  0  0  0  0  0  0  0  0
    1.1310   24.8910  -35.9290 C   0  0  0  0  0  0  0  0  0  0  0  0
    1.4400   23.4250  -35.7570 C   0  0  0  0  0  0  0  0  0  0  0  0
    0.2380   22.6630  -35.4050 N   0  0  0  0  0  0  0  0  0  0  0  0
    0.6390   21.0350  -34.9360 S   0  0  0  0  0  0  0  0  0  0  0  0
    0.1700   20.0910  -36.0070 O   0  0  0  0  0  0  0  0  0  0  0  0
    2.1310   20.9060  -34.7920 O   0  0  0  0  0  0  0  0  0  0  0  0
   -0.1480   20.6080  -33.4190 C   0  0  0  0  0  0  0  0  0  0  0  0
   -0.5600   19.2900  -33.1850 C   0  0  0  0  0  0  0  0  0  0  0  0
   -1.1720   18.9510  -31.9760 C   0  0  0  0  0  0  0  0  0  0  0  0
   -1.3750   19.9250  -30.9940 C   0  0  0  0  0  0  0  0  0  0  0  0
   -0.9710   21.2520  -31.2170 C   0  0  0  0  0  0  0  0  0  0  0  0
   -1.1810   22.2810  -30.1710 C   0  0  0  0  0  0  0  0  0  0  0  0
   -0.2400   23.0640  -29.8720 O   0  0  0  0  0  0  0  0  0  0  0  0
   -2.4450   22.4450  -29.5130 N   0  0  0  0  0  0  0  0  0  0  0  0
   -3.6140   23.0370  -30.0990 C   0  0  0  0  0  0  0  0  0  0  0  0
   -4.6030   22.1960  -30.6230 C   0  0  0  0  0  0  0  0  0  0  0  0
   -5.7810   22.7300  -31.1790 C   0  0  0  0  0  0  0  0  0  0  0  0
   -6.8510   21.8350  -31.6850 C   0  0  0  0  0  0  0  0  0  0  0  0
   -6.5230   20.6400  -32.3530 C   0  0  0  0  0  0  0  0  0  0  0  0
   -7.5310   19.7970  -32.8330 C   0  0  0  0  0  0  0  0  0  0  0  0
   -8.8740   20.1380  -32.6530 C   0  0  0  0  0  0  0  0  0  0  0  0
   -9.8740   19.2990  -33.1300 O   0  0  0  0  0  0  0  0  0  0  0  0
   -9.2110   21.3220  -31.9920 C   0  0  0  0  0  0  0  0  0  0  0  0
   -8.2070   22.1670  -31.5110 C   0  0  0  0  0  0  0  0  0  0  0  0
   -5.9340   24.1260  -31.2360 C   0  0  0  0  0  0  0  0  0  0  0  0
   -4.9400   24.9680  -30.7370 C   0  0  0  0  0  0  0  0  0  0  0  0
   -3.7790   24.4340  -30.1730 C   0  0  0  0  0  0  0  0  0  0  0  0
   -2.7880   25.2950  -29.7150 O   0  0  0  0  0  0  0  0  0  0  0  0
   -0.3390   21.5800  -32.4300 C   0  0  0  0  0  0  0  0  0  0  0  0
   -0.0910   25.2940  -36.4900 C   0  0  0  0  0  0  0  0  0  0  0  0
   -0.3700   26.6500  -36.6760 C   0  0  0  0  0  0  0  0  0  0  0  0
    0.1502   29.5356  -35.4579 H   0  0  0  0  0  0  0  0  0  0  0  0
    1.0594   29.5828  -37.0063 H   0  0  0  0  0  0  0  0  0  0  0  0
   -0.6949   29.1969  -37.0063 H   0  0  0  0  0  0  0  0  0  0  0  0
    2.5305   27.9819  -35.4447 H   0  0  0  0  0  0  0  0  0  0  0  0
    3.0515   25.5594  -35.1653 H   0  0  0  0  0  0  0  0  0  0  0  0
    1.8494   23.0325  -36.6995 H   0  0  0  0  0  0  0  0  0  0  0  0
    2.1692   23.3182  -34.9404 H   0  0  0  0  0  0  0  0  0  0  0  0
   -0.4013   18.5204  -33.9547 H   0  0  0  0  0  0  0  0  0  0  0  0
   -1.4950   17.9150  -31.7962 H   0  0  0  0  0  0  0  0  0  0  0  0
   -1.8534   19.6511  -30.0421 H   0  0  0  0  0  0  0  0  0  0  0  0
   -4.4580   21.1058  -30.6000 H   0  0  0  0  0  0  0  0  0  0  0  0
   -5.4673   20.3673  -32.4985 H   0  0  0  0  0  0  0  0  0  0  0  0
   -7.2660   18.8645  -33.3528 H   0  0  0  0  0  0  0  0  0  0  0  0
  -10.2685   21.5896  -31.8499 H   0  0  0  0  0  0  0  0  0  0  0  0
   -8.4790   23.0983  -30.9927 H   0  0  0  0  0  0  0  0  0  0  0  0
   -6.8443   24.5578  -31.6774 H   0  0  0  0  0  0  0  0  0  0  0  0
   -5.0713   26.0590  -30.7880 H   0  0  0  0  0  0  0  0  0  0  0  0
    0.0082   22.6093  -32.6030 H   0  0  0  0  0  0  0  0  0  0  0  0
   -0.8332   24.5376  -36.7849 H   0  0  0  0  0  0  0  0  0  0  0  0
   -1.3329   26.9559  -37.1110 H   0  0  0  0  0  0  0  0  0  0  0  0
  1  2  1  0
  2  3  2  0
  3  4  1  0
  4  5  2  0
  5  6  1  0
  6  7  1  0
  7  8  1  0
  8  9  2  0
  8 10  2  0
  8 11  1  0
 11 12  2  0
 12 13  1  0
 13 14  2  0
 14 15  1  0
 15 16  1  0
 16 17  2  0
 16 18  1  0
 18 19  1  0
 19 20  2  0
 20 21  1  0
 21 22  1  0
 22 23  2  0
 23 24  1  0
 24 25  2  0
 25 26  1  0
 25 27  1  0
 27 28  2  0
 21 29  2  0
 29 30  1  0
 30 31  2  0
 31 32  1  0
 15 33  2  0
  5 34  1  0
 34 35  2  0
 35  2  1  0
 33 11  1  0
 31 19  1  0
 28 22  1  0
  1 36  1  0
  1 37  1  0
  1 38  1  0
  3 39  1  0
  4 40  1  0
  6 41  1  0
  6 42  1  0
 12 43  1  0
 13 44  1  0
 14 45  1  0
 20 46  1  0
 23 47  1  0
 24 48  1  0
 27 49  1  0
 28 50  1  0
 29 51  1  0
 30 52  1  0
 33 53  1  0
 34 54  1  0
 35 55  1  0
M  CHG  4   7  -1  18  -1  26  -1  32  -1
M  END
>  <UniqueID>  (7) 
7

>  <SMILES>  (7) 
Cc1ccc(C[N-]S(=O)(=O)c2cccc(C(=O)[N-]c3cc(-c4ccc([O-])cc4)ccc3[O-])c2)cc1

>  <Energy>  (7) 
67.70423951867647

>  <Genealogy>  (7) 
Cc1ccc(C[N-]S(=O)(=O)c2cccc(C(=O)[N-]c3cc(-c4ccc([O-])cc4)ccc3[O-])c2)cc1 (protonated)
Cc1ccc(C[N-]S(=O)(=O)c2cccc(C(=O)[N-]c3cc(-c4ccc([O-])cc4)ccc3[O-])c2)cc1 (3D coordinates assigned)
Cc1ccc(C[N-]S(=O)(=O)c2cccc(C(=O)[N-]c3cc(-c4ccc([O-])cc4)ccc3[O-])c2)cc1 (optimized conformer: 67.70423951867647 kcal/mol)

>  <smiles>  (7) 
Cc1ccc(CNS(=O)(=O)c2cccc(C(=O)Nc3cc(-c4ccc(O)cc4)ccc3O)c2)cc1

>  <score_type>  (7) 
oracle

>  <origin>  (7) 
adgpu

>  <m_score__min__energy>  (7) 
-14.630000000000001

>  <m_primary>  (7) 
energy

$$$$
7:0
     RDKit          3D

 54 57  0  0  0  0  0  0  0  0999 V2000
   -3.8640   25.0770  -30.7690 O   0  0  0  0  0  0  0  0  0  0  0  0
   -3.8480   23.8260  -30.6150 C   0  0  0  0  0  0  0  0  0  0  0  0
   -4.4670   22.9750  -31.5910 N   0  0  0  0  0  0  0  0  0  0  0  0
   -5.8630   22.6480  -31.6580 C   0  0  0  0  0  0  0  0  0  0  0  0
   -6.3000   21.3280  -31.8750 C   0  0  0  0  0  0  0  0  0  0  0  0
   -7.6700   21.0360  -31.9460 C   0  0  0  0  0  0  0  0  0  0  0  0
   -8.2280   19.3890  -32.2310 S   0  0  0  0  0  0  0  0  0  0  0  0
   -9.4610   19.4250  -33.0920 O   0  0  0  0  0  0  0  0  0  0  0  0
   -8.5750   18.7150  -30.9320 O   0  0  0  0  0  0  0  0  0  0  0  0
   -6.9460   18.4780  -33.0220 C   0  0  0  0  0  0  0  0  0  0  0  0
   -6.1400   19.0810  -33.9970 C   0  0  0  0  0  0  0  0  0  0  0  0
   -5.1130   18.3530  -34.6070 C   0  0  0  0  0  0  0  0  0  0  0  0
   -4.8840   17.0220  -34.2420 C   0  0  0  0  0  0  0  0  0  0  0  0
   -5.6820   16.4190  -33.2660 C   0  0  0  0  0  0  0  0  0  0  0  0
   -6.7100   17.1460  -32.6560 C   0  0  0  0  0  0  0  0  0  0  0  0
   -8.6060   22.0690  -31.8170 C   0  0  0  0  0  0  0  0  0  0  0  0
   -8.1780   23.3860  -31.6260 C   0  0  0  0  0  0  0  0  0  0  0  0
   -6.8100   23.6810  -31.5530 C   0  0  0  0  0  0  0  0  0  0  0  0
   -6.3840   24.9960  -31.3660 O   0  0  0  0  0  0  0  0  0  0  0  0
   -3.1370   23.2330  -29.4580 C   0  0  0  0  0  0  0  0  0  0  0  0
   -3.4060   21.9120  -29.0570 C   0  0  0  0  0  0  0  0  0  0  0  0
   -2.7430   21.3570  -27.9600 C   0  0  0  0  0  0  0  0  0  0  0  0
   -1.7980   22.1060  -27.2580 C   0  0  0  0  0  0  0  0  0  0  0  0
   -1.5030   23.4170  -27.6530 C   0  0  0  0  0  0  0  0  0  0  0  0
   -0.3060   24.3650  -26.7590 S   0  0  0  0  0  0  0  0  0  0  0  0
    0.5590   23.4320  -25.9560 O   0  0  0  0  0  0  0  0  0  0  0  0
    0.5760   25.0860  -27.7410 O   0  0  0  0  0  0  0  0  0  0  0  0
   -1.0320   25.5340  -25.6800 N   0  0  0  0  0  0  0  0  0  0  0  0
   -0.5390   25.3950  -24.3110 C   0  0  0  0  0  0  0  0  0  0  0  0
   -0.7220   26.7520  -23.6520 C   0  0  0  0  0  0  0  0  0  0  0  0
   -0.8130   27.7480  -24.8010 C   0  0  0  0  0  0  0  0  0  0  0  0
   -0.7210   26.9100  -26.0690 C   0  0  0  0  0  0  0  0  0  0  0  0
   -2.1810   23.9800  -28.7450 C   0  0  0  0  0  0  0  0  0  0  0  0
   -5.5624   20.5200  -31.9897 H   0  0  0  0  0  0  0  0  0  0  0  0
   -6.3152   20.1286  -34.2831 H   0  0  0  0  0  0  0  0  0  0  0  0
   -4.4845   18.8278  -35.3748 H   0  0  0  0  0  0  0  0  0  0  0  0
   -4.0764   16.4505  -34.7229 H   0  0  0  0  0  0  0  0  0  0  0  0
   -5.5019   15.3729  -32.9774 H   0  0  0  0  0  0  0  0  0  0  0  0
   -7.3354   16.6703  -31.8862 H   0  0  0  0  0  0  0  0  0  0  0  0
   -9.6816   21.8437  -31.8661 H   0  0  0  0  0  0  0  0  0  0  0  0
   -8.9182   24.1943  -31.5326 H   0  0  0  0  0  0  0  0  0  0  0  0
   -5.4000   25.2360  -31.3430 H   0  0  0  0  0  0  0  0  0  0  0  0
   -4.1432   21.3121  -29.6108 H   0  0  0  0  0  0  0  0  0  0  0  0
   -2.9666   20.3260  -27.6485 H   0  0  0  0  0  0  0  0  0  0  0  0
   -1.2830   21.6655  -26.3916 H   0  0  0  0  0  0  0  0  0  0  0  0
   -1.1179   24.6294  -23.7736 H   0  0  0  0  0  0  0  0  0  0  0  0
    0.5154   25.0820  -24.2956 H   0  0  0  0  0  0  0  0  0  0  0  0
   -1.6450   26.7685  -23.0538 H   0  0  0  0  0  0  0  0  0  0  0  0
    0.1053   26.9903  -22.9674 H   0  0  0  0  0  0  0  0  0  0  0  0
   -1.7697   28.2898  -24.7661 H   0  0  0  0  0  0  0  0  0  0  0  0
   -0.0161   28.5046  -24.7513 H   0  0  0  0  0  0  0  0  0  0  0  0
   -1.4465   27.2676  -26.8145 H   0  0  0  0  0  0  0  0  0  0  0  0
    0.2796   26.9796  -26.5206 H   0  0  0  0  0  0  0  0  0  0  0  0
   -1.9631   25.0152  -29.0466 H   0  0  0  0  0  0  0  0  0  0  0  0
  1  2  2  0
  2  3  1  0
  3  4  1  0
  4  5  2  0
  5  6  1  0
  6  7  1  0
  7  8  2  0
  7  9  2  0
  7 10  1  0
 10 11  2  0
 11 12  1  0
 12 13  2  0
 13 14  1  0
 14 15  2  0
  6 16  2  0
 16 17  1  0
 17 18  2  0
 18 19  1  0
  2 20  1  0
 20 21  2  0
 21 22  1  0
 22 23  2  0
 23 24  1  0
 24 25  1  0
 25 26  2  0
 25 27  2  0
 25 28  1  0
 28 29  1  0
 29 30  1  0
 30 31  1  0
 31 32  1  0
 24 33  2  0
 18  4  1  0
 33 20  1  0
 15 10  1  0
 32 28  1  0
  5 34  1  0
 11 35  1  0
 12 36  1  0
 13 37  1  0
 14 38  1  0
 15 39  1  0
 16 40  1  0
 17 41  1  0
 19 42  1  0
 21 43  1  0
 22 44  1  0
 23 45  1  0
 29 46  1  0
 29 47  1  0
 30 48  1  0
 30 49  1  0
 31 50  1  0
 31 51  1  0
 32 52  1  0
 32 53  1  0
 33 54  1  0
M  CHG  1   3  -1
M  END
>  <UniqueID>  (8) 
8

>  <SMILES>  (8) 
O=C([N-]c1cc(S(=O)(=O)c2ccccc2)ccc1O)c1cccc(S(=O)(=O)N2CCCC2)c1

>  <Energy>  (8) 
64.81288250457553

>  <Genealogy>  (8) 
O=C([N-]c1cc(S(=O)(=O)c2ccccc2)ccc1O)c1cccc(S(=O)(=O)N2CCCC2)c1 (protonated)
O=C([N-]c1cc(S(=O)(=O)c2ccccc2)ccc1O)c1cccc(S(=O)(=O)N2CCCC2)c1 (3D coordinates assigned)
O=C([N-]c1cc(S(=O)(=O)c2ccccc2)ccc1O)c1cccc(S(=O)(=O)N2CCCC2)c1 (nonaromatic ring conformer: 64.81288250457553 kcal/mol)

>  <smiles>  (8) 
O=C(Nc1cc(S(=O)(=O)c2ccccc2)ccc1O)c1cccc(S(=O)(=O)N2CCCC2)c1

>  <score_type>  (8) 
oracle

>  <origin>  (8) 
adgpu

>  <m_score__min__energy>  (8) 
-12.720000000000001

>  <m_primary>  (8) 
energy

$$$$
8:0
     RDKit          3D

 29 31  0  0  0  0  0  0  0  0999 V2000
   -9.1000   18.8810  -32.7970 O   0  0  0  0  0  0  0  0  0  0  0  0
   -8.4390   19.8710  -32.3790 C   0  0  0  0  0  0  0  0  0  0  0  0
   -9.0850   20.8810  -31.7400 N   0  0  0  0  0  0  0  0  0  0  0  0
   -8.4110   21.9620  -31.2750 C   0  0  0  0  0  0  0  0  0  0  0  0
   -7.0270   22.0640  -31.4530 C   0  0  0  0  0  0  0  0  0  0  0  0
   -6.3020   23.2590  -30.9520 C   0  0  0  0  0  0  0  0  0  0  0  0
   -6.8960   24.2640  -30.1680 C   0  0  0  0  0  0  0  0  0  0  0  0
   -6.0220   25.2780  -29.8000 C   0  0  0  0  0  0  0  0  0  0  0  0
   -4.5120   24.9240  -30.4430 S   0  0  0  0  0  0  0  0  0  0  0  0
   -4.9470   23.4840  -31.1910 C   0  0  0  0  0  0  0  0  0  0  0  0
   -6.3680   21.0040  -32.1050 C   0  0  0  0  0  0  0  0  0  0  0  0
   -5.1150   21.0360  -32.2540 O   0  0  0  0  0  0  0  0  0  0  0  0
   -7.0840   19.9260  -32.5600 N   0  0  0  0  0  0  0  0  0  0  0  0
   -6.4060   18.8470  -33.2310 C   0  0  0  0  0  0  0  0  0  0  0  0
   -6.0810   18.9710  -34.5910 C   0  0  0  0  0  0  0  0  0  0  0  0
   -5.4220   17.9340  -35.2550 C   0  0  0  0  0  0  0  0  0  0  0  0
   -5.0830   16.7650  -34.5670 C   0  0  0  0  0  0  0  0  0  0  0  0
   -5.4060   16.6330  -33.2130 C   0  0  0  0  0  0  0  0  0  0  0  0
   -6.0680   17.6680  -32.5410 C   0  0  0  0  0  0  0  0  0  0  0  0
   -6.4760   17.4640  -30.8430 Cl  0  0  0  0  0  0  0  0  0  0  0  0
  -10.1200   20.8310  -31.6030 H   0  0  0  0  0  0  0  0  0  0  0  0
   -8.9558   22.7636  -30.7547 H   0  0  0  0  0  0  0  0  0  0  0  0
   -7.9557   24.2482  -29.8734 H   0  0  0  0  0  0  0  0  0  0  0  0
   -6.2748   26.1598  -29.1929 H   0  0  0  0  0  0  0  0  0  0  0  0
   -4.2776   22.8308  -31.7700 H   0  0  0  0  0  0  0  0  0  0  0  0
   -6.3465   19.8888  -35.1360 H   0  0  0  0  0  0  0  0  0  0  0  0
   -5.1693   18.0371  -36.3206 H   0  0  0  0  0  0  0  0  0  0  0  0
   -4.5625   15.9496  -35.0906 H   0  0  0  0  0  0  0  0  0  0  0  0
   -5.1390   15.7124  -32.6734 H   0  0  0  0  0  0  0  0  0  0  0  0
  1  2  2  0
  2  3  1  0
  3  4  1  0
  4  5  2  0
  5  6  1  0
  6  7  1  0
  7  8  2  0
  8  9  1  0
  9 10  1  0
  5 11  1  0
 11 12  2  0
 11 13  1  0
 13 14  1  0
 14 15  2  0
 15 16  1  0
 16 17  2  0
 17 18  1  0
 18 19  2  0
 19 20  1  0
 13  2  1  0
 19 14  1  0
 10  6  2  0
  3 21  1  0
  4 22  1  0
  7 23  1  0
  8 24  1  0
 10 25  1  0
 15 26  1  0
 16 27  1  0
 17 28  1  0
 18 29  1  0
M  END
>  <UniqueID>  (9) 
9

>  <SMILES>  (9) 
O=c1[nH]cc(-c2ccsc2)c(=O)n1-c1ccccc1Cl

>  <Energy>  (9) 
74.00557792651287

>  <Genealogy>  (9) 
O=c1[nH]cc(-c2ccsc2)c(=O)n1-c1ccccc1Cl (3D coordinates assigned)
O=c1[nH]cc(-c2ccsc2)c(=O)n1-c1ccccc1Cl (optimized conformer: 74.00557792651287 kcal/mol)

>  <smiles>  (9) 
O=c1[nH]cc(-c2ccsc2)c(=O)n1-c1ccccc1Cl

>  <score_type>  (9) 
oracle

>  <origin>  (9) 
adgpu

>  <m_score__min__energy>  (9) 
-7.6600000000000001

>  <m_primary>  (9) 
energy

$$$$
9:0
     RDKit          3D

 55 58  0  0  0  0  0  0  0  0999 V2000
   -6.4780   16.6500  -34.2340 C   0  0  0  0  0  0  0  0  0  0  0  0
   -6.4240   17.0960  -32.8420 N   0  0  0  0  0  0  0  0  0  0  0  0
   -5.3730   16.5520  -31.9830 C   0  0  0  0  0  0  0  0  0  0  0  0
   -7.0380   18.3430  -32.4760 C   0  0  0  0  0  0  0  0  0  0  0  0
   -8.1280   18.3370  -31.5910 C   0  0  0  0  0  0  0  0  0  0  0  0
   -8.7600   19.5300  -31.2350 C   0  0  0  0  0  0  0  0  0  0  0  0
   -8.3100   20.7400  -31.7600 C   0  0  0  0  0  0  0  0  0  0  0  0
   -7.2220   20.7650  -32.6350 C   0  0  0  0  0  0  0  0  0  0  0  0
   -6.5730   19.5720  -33.0020 C   0  0  0  0  0  0  0  0  0  0  0  0
   -5.3470   19.6580  -33.8820 C   0  0  0  0  0  0  0  0  0  0  0  0
   -4.1060   19.8010  -33.0510 C   0  0  0  0  0  0  0  0  0  0  0  0
   -3.8980   20.9460  -32.2730 C   0  0  0  0  0  0  0  0  0  0  0  0
   -2.7270   21.0720  -31.5130 C   0  0  0  0  0  0  0  0  0  0  0  0
   -2.4720   22.3410  -30.7840 C   0  0  0  0  0  0  0  0  0  0  0  0
   -1.2970   22.4630  -30.0250 C   0  0  0  0  0  0  0  0  0  0  0  0
   -1.0260   23.6290  -29.3060 C   0  0  0  0  0  0  0  0  0  0  0  0
    0.1470   23.7060  -28.5560 O   0  0  0  0  0  0  0  0  0  0  0  0
   -1.9310   24.6990  -29.3490 C   0  0  0  0  0  0  0  0  0  0  0  0
   -1.6710   25.8650  -28.6380 O   0  0  0  0  0  0  0  0  0  0  0  0
   -3.1020   24.5990  -30.1100 C   0  0  0  0  0  0  0  0  0  0  0  0
   -3.9920   25.6690  -30.1400 O   0  0  0  0  0  0  0  0  0  0  0  0
   -3.3800   23.4260  -30.8310 C   0  0  0  0  0  0  0  0  0  0  0  0
   -4.6150   23.3340  -31.5780 C   0  0  0  0  0  0  0  0  0  0  0  0
   -5.6020   23.2570  -32.1760 N   0  0  0  0  0  0  0  0  0  0  0  0
   -1.7800   20.0210  -31.5300 C   0  0  0  0  0  0  0  0  0  0  0  0
   -0.5950   20.0670  -30.7770 O   0  0  0  0  0  0  0  0  0  0  0  0
   -0.3130   19.2380  -29.6820 C   0  0  0  0  0  0  0  0  0  0  0  0
   -0.9470   19.4940  -28.4610 C   0  0  0  0  0  0  0  0  0  0  0  0
   -0.7050   18.6760  -27.3540 C   0  0  0  0  0  0  0  0  0  0  0  0
    0.1810   17.6000  -27.4590 C   0  0  0  0  0  0  0  0  0  0  0  0
    0.8370   17.3500  -28.6670 C   0  0  0  0  0  0  0  0  0  0  0  0
    0.5960   18.1670  -29.7750 C   0  0  0  0  0  0  0  0  0  0  0  0
   -2.0190   18.9060  -32.3460 C   0  0  0  0  0  0  0  0  0  0  0  0
   -1.1810   17.9670  -32.3980 O   0  0  0  0  0  0  0  0  0  0  0  0
   -3.1620   18.8230  -33.0740 N   0  0  0  0  0  0  0  0  0  0  0  0
   -6.6102   15.5584  -34.2644 H   0  0  0  0  0  0  0  0  0  0  0  0
   -7.3239   17.1361  -34.7422 H   0  0  0  0  0  0  0  0  0  0  0  0
   -5.5406   16.9201  -34.7422 H   0  0  0  0  0  0  0  0  0  0  0  0
   -5.6505   16.6956  -30.9283 H   0  0  0  0  0  0  0  0  0  0  0  0
   -5.2518   15.4779  -32.1873 H   0  0  0  0  0  0  0  0  0  0  0  0
   -4.4261   17.0732  -32.1873 H   0  0  0  0  0  0  0  0  0  0  0  0
   -8.4871   17.3843  -31.1746 H   0  0  0  0  0  0  0  0  0  0  0  0
   -9.6128   19.5149  -30.5404 H   0  0  0  0  0  0  0  0  0  0  0  0
   -8.8135   21.6783  -31.4842 H   0  0  0  0  0  0  0  0  0  0  0  0
   -6.8697   21.7249  -33.0404 H   0  0  0  0  0  0  0  0  0  0  0  0
   -5.2724   18.7428  -34.4876 H   0  0  0  0  0  0  0  0  0  0  0  0
   -5.4402   20.5400  -34.5327 H   0  0  0  0  0  0  0  0  0  0  0  0
   -4.6528   21.7461  -32.2581 H   0  0  0  0  0  0  0  0  0  0  0  0
   -0.5804   21.6289  -29.9964 H   0  0  0  0  0  0  0  0  0  0  0  0
    0.3730   24.5170  -27.9930 H   0  0  0  0  0  0  0  0  0  0  0  0
   -1.6397   20.3438  -28.3720 H   0  0  0  0  0  0  0  0  0  0  0  0
   -1.2122   18.8791  -26.3993 H   0  0  0  0  0  0  0  0  0  0  0  0
    0.3618   16.9499  -26.5903 H   0  0  0  0  0  0  0  0  0  0  0  0
    1.5431   16.5102  -28.7460 H   0  0  0  0  0  0  0  0  0  0  0  0
    1.1185   17.9725  -30.7232 H   0  0  0  0  0  0  0  0  0  0  0  0
  1  2  1  0
  2  3  1  0
  2  4  1  0
  4  5  2  0
  5  6  1  0
  6  7  2  0
  7  8  1  0
  8  9  2  0
  9 10  1  0
 10 11  1  0
 11 12  2  0
 12 13  1  0
 13 14  1  0
 14 15  2  0
 15 16  1  0
 16 17  1  0
 16 18  2  0
 18 19  1  0
 18 20  1  0
 20 21  1  0
 20 22  2  0
 22 23  1  0
 23 24  3  0
 13 25  2  0
 25 26  1  0
 26 27  1  0
 27 28  2  0
 28 29  1  0
 29 30  2  0
 30 31  1  0
 31 32  2  0
 25 33  1  0
 33 34  2  0
 33 35  1  0
  9  4  1  0
 35 11  1  0
 22 14  1  0
 32 27  1  0
  1 36  1  0
  1 37  1  0
  1 38  1  0
  3 39  1  0
  3 40  1  0
  3 41  1  0
  5 42  1  0
  6 43  1  0
  7 44  1  0
  8 45  1  0
 10 46  1  0
 10 47  1  0
 12 48  1  0
 15 49  1  0
 17 50  1  0
 28 51  1  0
 29 52  1  0
 30 53  1  0
 31 54  1  0
 32 55  1  0
M  CHG  3  19  -1  21  -1  35  -1
M  END
>  <UniqueID>  (10) 
10

>  <SMILES>  (10) 
CN(C)c1ccccc1Cc1cc(-c2cc(O)c([O-])c([O-])c2C#N)c(Oc2ccccc2)c(=O)[n-]1

>  <Energy>  (10) 
76.9993566945994

>  <Genealogy>  (10) 
CN(C)c1ccccc1Cc1cc(-c2cc(O)c([O-])c([O-])c2C#N)c(Oc2ccccc2)c(=O)[n-]1 (protonated)
CN(C)c1ccccc1Cc1cc(-c2cc(O)c([O-])c([O-])c2C#N)c(Oc2ccccc2)c(=O)[n-]1 (3D coordinates assigned)
CN(C)c1ccccc1Cc1cc(-c2cc(O)c([O-])c([O-])c2C#N)c(Oc2ccccc2)c(=O)[n-]1 (optimized conformer: 76.9993566945994 kcal/mol)

>  <smiles>  (10) 
CN(C)c1ccccc1Cc1cc(-c2cc(O)c(O)c(O)c2C#N)c(Oc2ccccc2)c(=O)[nH]1

>  <score_type>  (10) 
oracle

>  <origin>  (10) 
adgpu

>  <m_score__min__energy>  (10) 
-13.69

>  <m_primary>  (10) 
energy

$$$$
10:0
     RDKit          3D

 47 50  0  0  0  0  0  0  0  0999 V2000
   -5.4310   26.2540  -30.4820 O   0  0  0  0  0  0  0  0  0  0  0  0
   -4.9260   25.1140  -30.6600 C   0  0  0  0  0  0  0  0  0  0  0  0
   -3.5100   24.9540  -30.4780 N   0  0  0  0  0  0  0  0  0  0  0  0
   -2.8980   24.1250  -29.4760 C   0  0  0  0  0  0  0  0  0  0  0  0
   -2.9150   24.5220  -28.1280 C   0  0  0  0  0  0  0  0  0  0  0  0
   -2.2530   23.7690  -27.1580 C   0  0  0  0  0  0  0  0  0  0  0  0
   -1.5660   22.6100  -27.5150 C   0  0  0  0  0  0  0  0  0  0  0  0
   -1.5440   22.1860  -28.8510 C   0  0  0  0  0  0  0  0  0  0  0  0
   -0.8360   21.0300  -29.2150 C   0  0  0  0  0  0  0  0  0  0  0  0
   -0.7970   20.6200  -30.5490 C   0  0  0  0  0  0  0  0  0  0  0  0
   -1.4650   21.3570  -31.5290 C   0  0  0  0  0  0  0  0  0  0  0  0
   -2.1740   22.5100  -31.1830 C   0  0  0  0  0  0  0  0  0  0  0  0
   -2.2250   22.9390  -29.8430 C   0  0  0  0  0  0  0  0  0  0  0  0
   -5.8070   23.9700  -31.0080 C   0  0  0  0  0  0  0  0  0  0  0  0
   -7.1790   24.1690  -31.2240 C   0  0  0  0  0  0  0  0  0  0  0  0
   -7.9990   23.0950  -31.5820 C   0  0  0  0  0  0  0  0  0  0  0  0
   -7.4610   21.8140  -31.7500 C   0  0  0  0  0  0  0  0  0  0  0  0
   -8.5470   20.5080  -32.2120 Cl  0  0  0  0  0  0  0  0  0  0  0  0
   -6.0840   21.6010  -31.5380 C   0  0  0  0  0  0  0  0  0  0  0  0
   -5.3260   20.0310  -31.8410 S   0  0  0  0  0  0  0  0  0  0  0  0
   -6.2590   18.9500  -31.3680 O   0  0  0  0  0  0  0  0  0  0  0  0
   -4.0390   19.9460  -31.0660 O   0  0  0  0  0  0  0  0  0  0  0  0
   -5.0280   19.8480  -33.5630 N   0  0  0  0  0  0  0  0  0  0  0  0
   -3.6960   19.2660  -33.8390 C   0  0  0  0  0  0  0  0  0  0  0  0
   -3.7440   17.7350  -34.0110 C   0  0  0  0  0  0  0  0  0  0  0  0
   -4.8280   17.1880  -33.2900 O   0  0  0  0  0  0  0  0  0  0  0  0
   -6.0540   17.5880  -33.8760 C   0  0  0  0  0  0  0  0  0  0  0  0
   -6.0950   19.0910  -34.2390 C   0  0  0  0  0  0  0  0  0  0  0  0
   -5.2840   22.6720  -31.1190 C   0  0  0  0  0  0  0  0  0  0  0  0
   -3.4550   25.4345  -27.8352 H   0  0  0  0  0  0  0  0  0  0  0  0
   -2.2733   24.0914  -26.1065 H   0  0  0  0  0  0  0  0  0  0  0  0
   -1.0393   22.0261  -26.7458 H   0  0  0  0  0  0  0  0  0  0  0  0
   -0.3099   20.4449  -28.4463 H   0  0  0  0  0  0  0  0  0  0  0  0
   -0.2388   19.7144  -30.8287 H   0  0  0  0  0  0  0  0  0  0  0  0
   -1.4328   21.0283  -32.5782 H   0  0  0  0  0  0  0  0  0  0  0  0
   -2.6953   23.0859  -31.9619 H   0  0  0  0  0  0  0  0  0  0  0  0
   -7.6111   25.1743  -31.1112 H   0  0  0  0  0  0  0  0  0  0  0  0
   -9.0763   23.2581  -31.7330 H   0  0  0  0  0  0  0  0  0  0  0  0
   -3.3008   19.7125  -34.7634 H   0  0  0  0  0  0  0  0  0  0  0  0
   -3.0506   19.4849  -32.9756 H   0  0  0  0  0  0  0  0  0  0  0  0
   -3.8613   17.4945  -35.0780 H   0  0  0  0  0  0  0  0  0  0  0  0
   -2.8080   17.3051  -33.6249 H   0  0  0  0  0  0  0  0  0  0  0  0
   -6.2100   17.0024  -34.7940 H   0  0  0  0  0  0  0  0  0  0  0  0
   -6.8448   17.4100  -33.1324 H   0  0  0  0  0  0  0  0  0  0  0  0
   -5.9723   19.1977  -35.3269 H   0  0  0  0  0  0  0  0  0  0  0  0
   -7.0627   19.4956  -33.9077 H   0  0  0  0  0  0  0  0  0  0  0  0
   -4.2271   22.4926  -30.8726 H   0  0  0  0  0  0  0  0  0  0  0  0
  1  2  2  0
  2  3  1  0
  3  4  1  0
  4  5  2  0
  5  6  1  0
  6  7  2  0
  7  8  1  0
  8  9  2  0
  9 10  1  0
 10 11  2  0
 11 12  1  0
 12 13  2  0
  2 14  1  0
 14 15  2  0
 15 16  1  0
 16 17  2  0
 17 18  1  0
 17 19  1  0
 19 20  1  0
 20 21  2  0
 20 22  2  0
 20 23  1  0
 23 24  1  0
 24 25  1  0
 25 26  1  0
 26 27  1  0
 27 28  1  0
 19 29  2  0
 13  4  1  0
 29 14  1  0
 13  8  1  0
 28 23  1  0
  5 30  1  0
  6 31  1  0
  7 32  1  0
  9 33  1  0
 10 34  1  0
 11 35  1  0
 12 36  1  0
 15 37  1  0
 16 38  1  0
 24 39  1  0
 24 40  1  0
 25 41  1  0
 25 42  1  0
 27 43  1  0
 27 44  1  0
 28 45  1  0
 28 46  1  0
 29 47  1  0
M  CHG  1   3  -1
M  END
>  <UniqueID>  (11) 
11

>  <SMILES>  (11) 
O=C([N-]c1cccc2ccccc12)c1ccc(Cl)c(S(=O)(=O)N2CCOCC2)c1

>  <Energy>  (11) 
72.34759279558465

>  <Genealogy>  (11) 
O=C([N-]c1cccc2ccccc12)c1ccc(Cl)c(S(=O)(=O)N2CCOCC2)c1 (protonated)
O=C([N-]c1cccc2ccccc12)c1ccc(Cl)c(S(=O)(=O)N2CCOCC2)c1 (3D coordinates assigned)
O=C([N-]c1cccc2ccccc12)c1ccc(Cl)c(S(=O)(=O)N2CCOCC2)c1 (nonaromatic ring conformer: 72.34759279558465 kcal/mol)

>  <smiles>  (11) 
O=C(Nc1cccc2ccccc12)c1ccc(Cl)c(S(=O)(=O)N2CCOCC2)c1

>  <score_type>  (11) 
oracle

>  <origin>  (11) 
adgpu

>  <m_score__min__energy>  (11) 
-11.449999999999999

>  <m_primary>  (11) 
energy

$$$$
11:0
     RDKit          3D

 53 56  0  0  0  0  0  0  0  0999 V2000
   -2.5690   17.0750  -34.8620 C   0  0  0  0  0  0  0  0  0  0  0  0
   -3.0240   17.9940  -33.7230 C   0  0  1  0  0  0  0  0  0  0  0  0
   -2.7530   19.4660  -34.0640 C   0  0  0  0  0  0  0  0  0  0  0  0
   -3.0190   20.3650  -32.8370 C   0  0  1  0  0  0  0  0  0  0  0  0
   -3.1460   21.7690  -33.2480 N   0  0  0  0  0  0  0  0  0  0  0  0
   -4.2510   19.9070  -32.0060 C   0  0  0  0  0  0  0  0  0  0  0  0
   -5.1050   18.9620  -32.7440 N   0  0  0  0  0  0  0  0  0  0  0  0
   -6.5290   19.0190  -32.5550 C   0  0  0  0  0  0  0  0  0  0  0  0
   -7.2380   17.8660  -32.1920 C   0  0  0  0  0  0  0  0  0  0  0  0
   -8.6110   17.9490  -31.9520 C   0  0  0  0  0  0  0  0  0  0  0  0
   -9.2540   19.1410  -32.0640 N   0  0  0  0  0  0  0  0  0  0  0  0
   -8.5940   20.2760  -32.4180 C   0  0  0  0  0  0  0  0  0  0  0  0
   -7.2210   20.2360  -32.6850 C   0  0  0  0  0  0  0  0  0  0  0  0
   -6.5440   21.4270  -33.0860 N   0  0  0  0  0  0  0  0  0  0  0  0
   -6.5610   22.5980  -32.2650 C   0  0  0  0  0  0  0  0  0  0  0  0
   -5.6020   23.3700  -31.6280 C   0  0  0  0  0  0  0  0  0  0  0  0
   -4.1780   23.3510  -31.4860 N   0  0  0  0  0  0  0  0  0  0  0  0
   -3.4420   24.0400  -30.4690 C   0  0  0  0  0  0  0  0  0  0  0  0
   -3.5610   25.2910  -30.3830 O   0  0  0  0  0  0  0  0  0  0  0  0
   -2.5860   23.3250  -29.4920 C   0  0  0  0  0  0  0  0  0  0  0  0
   -1.3120   23.8270  -29.1740 C   0  0  0  0  0  0  0  0  0  0  0  0
   -0.4840   23.1400  -28.2820 C   0  0  0  0  0  0  0  0  0  0  0  0
   -0.9210   21.9520  -27.6910 C   0  0  0  0  0  0  0  0  0  0  0  0
   -2.1950   21.4550  -27.9820 C   0  0  0  0  0  0  0  0  0  0  0  0
   -2.7450   19.9650  -27.2370 Cl  0  0  0  0  0  0  0  0  0  0  0  0
   -3.0290   22.1430  -28.8690 C   0  0  0  0  0  0  0  0  0  0  0  0
   -6.5910   24.2310  -31.1930 C   0  0  0  0  0  0  0  0  0  0  0  0
   -6.6100   25.2950  -30.5220 O   0  0  0  0  0  0  0  0  0  0  0  0
   -7.5500   23.4310  -31.7790 C   0  0  0  0  0  0  0  0  0  0  0  0
   -8.8060   23.4600  -31.8480 O   0  0  0  0  0  0  0  0  0  0  0  0
   -4.5220   17.7950  -33.4210 C   0  0  0  0  0  0  0  0  0  0  0  0
   -2.1182   16.1644  -34.4406 H   0  0  0  0  0  0  0  0  0  0  0  0
   -3.4360   16.8020  -35.4815 H   0  0  0  0  0  0  0  0  0  0  0  0
   -1.8262   17.5990  -35.4815 H   0  0  0  0  0  0  0  0  0  0  0  0
   -2.4437   17.7262  -32.8277 H   0  0  0  0  0  0  0  0  0  0  0  0
   -1.7035   19.5782  -34.3739 H   0  0  0  0  0  0  0  0  0  0  0  0
   -3.4248   19.7709  -34.8799 H   0  0  0  0  0  0  0  0  0  0  0  0
   -2.1486   20.2672  -32.1716 H   0  0  0  0  0  0  0  0  0  0  0  0
   -4.1510   22.0580  -33.2220 H   0  0  0  0  0  0  0  0  0  0  0  0
   -2.7750   21.9030  -34.2130 H   0  0  0  0  0  0  0  0  0  0  0  0
   -2.6140   22.3830  -32.5880 H   0  0  0  0  0  0  0  0  0  0  0  0
   -3.8954   19.4183  -31.0869 H   0  0  0  0  0  0  0  0  0  0  0  0
   -4.8541   20.7988  -31.7805 H   0  0  0  0  0  0  0  0  0  0  0  0
   -6.7165   16.9022  -32.0968 H   0  0  0  0  0  0  0  0  0  0  0  0
   -9.1740   17.0466  -31.6714 H   0  0  0  0  0  0  0  0  0  0  0  0
   -9.1406   21.2275  -32.4946 H   0  0  0  0  0  0  0  0  0  0  0  0
   -6.0190   21.4220  -33.9850 H   0  0  0  0  0  0  0  0  0  0  0  0
   -0.9648   24.7660  -29.6299 H   0  0  0  0  0  0  0  0  0  0  0  0
    0.5145   23.5358  -28.0446 H   0  0  0  0  0  0  0  0  0  0  0  0
   -0.2632   21.4080  -26.9972 H   0  0  0  0  0  0  0  0  0  0  0  0
   -4.0374   21.7581  -29.0812 H   0  0  0  0  0  0  0  0  0  0  0  0
   -4.6402   16.9131  -32.7743 H   0  0  0  0  0  0  0  0  0  0  0  0
   -5.0472   17.6587  -34.3779 H   0  0  0  0  0  0  0  0  0  0  0  0
  1  2  1  0
  2  3  1  0
  3  4  1  0
  4  5  1  0
  4  6  1  0
  6  7  1  0
  7  8  1  0
  8  9  2  0
  9 10  1  0
 10 11  2  0
 11 12  1  0
 12 13  2  0
 13 14  1  0
 14 15  1  0
 15 16  2  0
 16 17  1  0
 17 18  1  0
 18 19  2  0
 18 20  1  0
 20 21  2  0
 21 22  1  0
 22 23  2  0
 23 24  1  0
 24 25  1  0
 24 26  2  0
 16 27  1  0
 27 28  2  0
 27 29  1  0
 29 30  2  0
  7 31  1  0
 31  2  1  0
 13  8  1  0
 29 15  1  0
 26 20  1  0
  1 32  1  0
  1 33  1  0
  1 34  1  0
  2 35  1  1
  3 36  1  0
  3 37  1  0
  4 38  1  1
  5 39  1  0
  5 40  1  0
  5 41  1  0
  6 42  1  0
  6 43  1  0
  9 44  1  0
 10 45  1  0
 12 46  1  0
 14 47  1  0
 21 48  1  0
 22 49  1  0
 23 50  1  0
 26 51  1  0
 31 52  1  0
 31 53  1  0
M  CHG  2   5   1  17  -1
M  END
>  <UniqueID>  (12) 
12

>  <SMILES>  (12) 
C[C@H]1C[C@@H]([NH3+])CN(c2ccncc2Nc2c([N-]C(=O)c3cccc(Cl)c3)c(=O)c2=O)C1

>  <Energy>  (12) 
59.90819618510211

>  <Genealogy>  (12) 
CC1CC([NH3+])CN(c2ccncc2Nc2c([N-]C(=O)c3cccc(Cl)c3)c(=O)c2=O)C1 (protonated)
C[C@H]1C[C@@H]([NH3+])CN(c2ccncc2Nc2c([N-]C(=O)c3cccc(Cl)c3)c(=O)c2=O)C1 (chirality)
C[C@H]1C[C@@H]([NH3+])CN(c2ccncc2Nc2c([N-]C(=O)c3cccc(Cl)c3)c(=O)c2=O)C1 (3D coordinates assigned)
C[C@H]1C[C@@H]([NH3+])CN(c2ccncc2Nc2c([N-]C(=O)c3cccc(Cl)c3)c(=O)c2=O)C1 (nonaromatic ring conformer: 59.90819618510211 kcal/mol)

>  <smiles>  (12) 
CC1CC(N)CN(c2ccncc2Nc2c(NC(=O)c3cccc(Cl)c3)c(=O)c2=O)C1

>  <score_type>  (12) 
oracle

>  <origin>  (12) 
adgpu

>  <m_score__min__energy>  (12) 
-9.75

>  <m_primary>  (12) 
energy

$$$$
12:0
     RDKit          3D

 57 60  0  0  0  0  0  0  0  0999 V2000
   -2.7300   21.5640  -32.2990 O   0  0  0  0  0  0  0  0  0  0  0  0
   -3.3660   22.3610  -31.5570 C   0  0  0  0  0  0  0  0  0  0  0  0
   -4.5410   23.0120  -32.0570 N   0  0  0  0  0  0  0  0  0  0  0  0
   -5.8800   22.4960  -32.0300 C   0  0  0  0  0  0  0  0  0  0  0  0
   -7.0020   23.3390  -31.9490 C   0  0  0  0  0  0  0  0  0  0  0  0
   -8.2880   22.7940  -31.9050 C   0  0  0  0  0  0  0  0  0  0  0  0
   -8.4650   21.4090  -31.9360 C   0  0  0  0  0  0  0  0  0  0  0  0
   -7.3540   20.5590  -32.0000 C   0  0  0  0  0  0  0  0  0  0  0  0
   -7.5760   18.8080  -32.0510 S   0  0  0  0  0  0  0  0  0  0  0  0
   -9.0330   18.4900  -31.8600 O   0  0  0  0  0  0  0  0  0  0  0  0
   -6.8140   18.1810  -30.9150 O   0  0  0  0  0  0  0  0  0  0  0  0
   -7.0280   18.1210  -33.5660 N   0  0  0  0  0  0  0  0  0  0  0  0
   -6.2040   16.9280  -33.3410 C   0  0  0  0  0  0  0  0  0  0  0  0
   -4.7390   17.3330  -33.4300 C   0  0  0  0  0  0  0  0  0  0  0  0
   -4.7280   18.7220  -34.0360 C   0  0  0  0  0  0  0  0  0  0  0  0
   -6.1860   19.0680  -34.3030 C   0  0  0  0  0  0  0  0  0  0  0  0
   -6.0630   21.1080  -32.0300 C   0  0  0  0  0  0  0  0  0  0  0  0
   -2.9270   22.5650  -30.1500 C   0  0  0  0  0  0  0  0  0  0  0  0
   -2.4930   21.4550  -29.3960 C   0  0  0  0  0  0  0  0  0  0  0  0
   -2.0730   21.6060  -28.0690 C   0  0  0  0  0  0  0  0  0  0  0  0
   -1.5060   20.2150  -27.1450 S   0  0  0  0  0  0  0  0  0  0  0  0
   -1.6060   20.5460  -25.6820 O   0  0  0  0  0  0  0  0  0  0  0  0
   -2.3890   19.0300  -27.4210 O   0  0  0  0  0  0  0  0  0  0  0  0
    0.1620   19.8490  -27.5390 N   0  0  0  0  0  0  0  0  0  0  0  0
    0.5720   20.4480  -28.8230 C   0  0  0  0  0  0  0  0  0  0  0  0
   -0.0390   19.7070  -30.0370 C   0  0  0  0  0  0  0  0  0  0  0  0
   -0.5060   18.4050  -29.7300 O   0  0  0  0  0  0  0  0  0  0  0  0
    0.4110   17.7420  -28.8900 C   0  0  0  0  0  0  0  0  0  0  0  0
    0.4280   18.3930  -27.4950 C   0  0  0  0  0  0  0  0  0  0  0  0
   -2.0750   22.8740  -27.4820 C   0  0  0  0  0  0  0  0  0  0  0  0
   -2.5010   23.9830  -28.2120 C   0  0  0  0  0  0  0  0  0  0  0  0
   -2.9240   23.8420  -29.5410 C   0  0  0  0  0  0  0  0  0  0  0  0
   -3.3260   24.9740  -30.2510 O   0  0  0  0  0  0  0  0  0  0  0  0
   -6.8673   24.4303  -31.9202 H   0  0  0  0  0  0  0  0  0  0  0  0
   -9.1633   23.4576  -31.8458 H   0  0  0  0  0  0  0  0  0  0  0  0
   -9.4796   20.9848  -31.9101 H   0  0  0  0  0  0  0  0  0  0  0  0
   -6.4150   16.5132  -32.3443 H   0  0  0  0  0  0  0  0  0  0  0  0
   -6.4316   16.1628  -34.0978 H   0  0  0  0  0  0  0  0  0  0  0  0
   -4.2849   17.3490  -32.4282 H   0  0  0  0  0  0  0  0  0  0  0  0
   -4.1599   16.6225  -34.0381 H   0  0  0  0  0  0  0  0  0  0  0  0
   -4.2854   19.4433  -33.3333 H   0  0  0  0  0  0  0  0  0  0  0  0
   -4.1276   18.7578  -34.9570 H   0  0  0  0  0  0  0  0  0  0  0  0
   -6.3932   20.0930  -33.9618 H   0  0  0  0  0  0  0  0  0  0  0  0
   -6.3987   19.0042  -35.3804 H   0  0  0  0  0  0  0  0  0  0  0  0
   -5.1876   20.4424  -32.0537 H   0  0  0  0  0  0  0  0  0  0  0  0
   -2.4844   20.4563  -29.8571 H   0  0  0  0  0  0  0  0  0  0  0  0
    0.2418   21.4970  -28.8457 H   0  0  0  0  0  0  0  0  0  0  0  0
    1.6668   20.3705  -28.8968 H   0  0  0  0  0  0  0  0  0  0  0  0
   -0.8846   20.2994  -30.4165 H   0  0  0  0  0  0  0  0  0  0  0  0
    0.7614   19.5952  -30.7832 H   0  0  0  0  0  0  0  0  0  0  0  0
    0.1169   16.6864  -28.7939 H   0  0  0  0  0  0  0  0  0  0  0  0
    1.4163   17.8155  -29.3305 H   0  0  0  0  0  0  0  0  0  0  0  0
   -0.3427   17.9134  -26.8737 H   0  0  0  0  0  0  0  0  0  0  0  0
    1.4352   18.2524  -27.0757 H   0  0  0  0  0  0  0  0  0  0  0  0
   -1.7398   22.9976  -26.4417 H   0  0  0  0  0  0  0  0  0  0  0  0
   -2.5052   24.9770  -27.7410 H   0  0  0  0  0  0  0  0  0  0  0  0
   -3.6370   24.9170  -31.2140 H   0  0  0  0  0  0  0  0  0  0  0  0
  1  2  2  0
  2  3  1  0
  3  4  1  0
  4  5  2  0
  5  6  1  0
  6  7  2  0
  7  8  1  0
  8  9  1  0
  9 10  2  0
  9 11  2  0
  9 12  1  0
 12 13  1  0
 13 14  1  0
 14 15  1  0
 15 16  1  0
  8 17  2  0
  2 18  1  0
 18 19  2  0
 19 20  1  0
 20 21  1  0
 21 22  2  0
 21 23  2  0
 21 24  1  0
 24 25  1  0
 25 26  1  0
 26 27  1  0
 27 28  1  0
 28 29  1  0
 20 30  2  0
 30 31  1  0
 31 32  2  0
 32 33  1  0
 17  4  1  0
 32 18  1  0
 16 12  1  0
 29 24  1  0
  5 34  1  0
  6 35  1  0
  7 36  1  0
 13 37  1  0
 13 38  1  0
 14 39  1  0
 14 40  1  0
 15 41  1  0
 15 42  1  0
 16 43  1  0
 16 44  1  0
 17 45  1  0
 19 46  1  0
 25 47  1  0
 25 48  1  0
 26 49  1  0
 26 50  1  0
 28 51  1  0
 28 52  1  0
 29 53  1  0
 29 54  1  0
 30 55  1  0
 31 56  1  0
 33 57  1  0
M  CHG  1   3  -1
M  END
>  <UniqueID>  (13) 
13

>  <SMILES>  (13) 
O=C([N-]c1cccc(S(=O)(=O)N2CCCC2)c1)c1cc(S(=O)(=O)N2CCOCC2)ccc1O

>  <Energy>  (13) 
75.79624376406124

>  <Genealogy>  (13) 
O=C([N-]c1cccc(S(=O)(=O)N2CCCC2)c1)c1cc(S(=O)(=O)N2CCOCC2)ccc1O (protonated)
O=C([N-]c1cccc(S(=O)(=O)N2CCCC2)c1)c1cc(S(=O)(=O)N2CCOCC2)ccc1O (3D coordinates assigned)
O=C([N-]c1cccc(S(=O)(=O)N2CCCC2)c1)c1cc(S(=O)(=O)N2CCOCC2)ccc1O (nonaromatic ring conformer: 75.79624376406124 kcal/mol)

>  <smiles>  (13) 
O=C(Nc1cccc(S(=O)(=O)N2CCCC2)c1)c1cc(S(=O)(=O)N2CCOCC2)ccc1O

>  <score_type>  (13) 
oracle

>  <origin>  (13) 
adgpu

>  <m_score__min__energy>  (13) 
-12.039999999999999

>  <m_primary>  (13) 
energy

$$$$
13:0
     RDKit          3D

 48 51  0  0  0  0  0  0  0  0999 V2000
   -5.5770   23.5900  -31.5330 O   0  0  0  0  0  0  0  0  0  0  0  0
   -4.6460   22.7650  -31.3280 C   0  0  0  0  0  0  0  0  0  0  0  0
   -3.8010   22.9070  -30.1200 C   0  0  0  0  0  0  0  0  0  0  0  0
   -3.5810   21.7940  -29.2920 C   0  0  0  0  0  0  0  0  0  0  0  0
   -2.7760   21.9080  -28.1550 C   0  0  0  0  0  0  0  0  0  0  0  0
   -2.1910   23.1370  -27.8260 C   0  0  0  0  0  0  0  0  0  0  0  0
   -1.3840   23.2600  -26.6970 O   0  0  0  0  0  0  0  0  0  0  0  0
   -2.4230   24.2540  -28.6340 C   0  0  0  0  0  0  0  0  0  0  0  0
   -3.2320   24.1490  -29.7700 C   0  0  0  0  0  0  0  0  0  0  0  0
   -3.4820   25.2880  -30.5300 O   0  0  0  0  0  0  0  0  0  0  0  0
   -4.4190   21.7060  -32.2710 N   0  0  0  0  0  0  0  0  0  0  0  0
   -5.1800   20.4460  -32.1340 C   0  0  0  0  0  0  0  0  0  0  0  0
   -4.8650   19.4440  -33.2560 C   0  0  0  0  0  0  0  0  0  0  0  0
   -3.3910   19.4390  -33.5520 C   0  0  0  0  0  0  0  0  0  0  0  0
   -2.6830   18.2430  -33.7120 C   0  0  0  0  0  0  0  0  0  0  0  0
   -1.2970   18.2650  -33.9460 C   0  0  0  0  0  0  0  0  0  0  0  0
   -0.5250   17.0570  -33.9480 N   0  0  0  0  0  0  0  0  0  0  0  0
   -0.2740   16.0900  -32.5300 S   0  0  0  0  0  0  0  0  0  0  0  0
    0.9400   15.2260  -32.7210 O   0  0  0  0  0  0  0  0  0  0  0  0
   -1.4750   15.2140  -32.3060 O   0  0  0  0  0  0  0  0  0  0  0  0
   -0.0050   17.1570  -31.1520 C   0  0  0  0  0  0  0  0  0  0  0  0
   -0.3210   18.5210  -31.2280 C   0  0  0  0  0  0  0  0  0  0  0  0
    0.0020   19.3800  -30.1700 C   0  0  0  0  0  0  0  0  0  0  0  0
   -0.3750   21.0900  -30.2990 Cl  0  0  0  0  0  0  0  0  0  0  0  0
    0.6380   18.8750  -29.0270 C   0  0  0  0  0  0  0  0  0  0  0  0
    0.9690   19.7290  -27.9800 O   0  0  0  0  0  0  0  0  0  0  0  0
    0.9440   17.5090  -28.9430 C   0  0  0  0  0  0  0  0  0  0  0  0
    1.7480   16.8590  -27.5240 Cl  0  0  0  0  0  0  0  0  0  0  0  0
    0.6220   16.6560  -30.0040 C   0  0  0  0  0  0  0  0  0  0  0  0
   -0.6460   19.4960  -34.1140 C   0  0  0  0  0  0  0  0  0  0  0  0
    0.7170   19.5350  -34.3860 O   0  0  0  0  0  0  0  0  0  0  0  0
   -1.3580   20.6930  -33.9790 C   0  0  0  0  0  0  0  0  0  0  0  0
   -2.7230   20.6670  -33.6610 C   0  0  0  0  0  0  0  0  0  0  0  0
   -3.4970   21.9260  -33.3960 C   0  0  0  0  0  0  0  0  0  0  0  0
   -4.0446   20.8277  -29.5396 H   0  0  0  0  0  0  0  0  0  0  0  0
   -2.6015   21.0294  -27.5166 H   0  0  0  0  0  0  0  0  0  0  0  0
   -0.8120   22.4910  -26.3690 H   0  0  0  0  0  0  0  0  0  0  0  0
   -1.9668   25.2208  -28.3749 H   0  0  0  0  0  0  0  0  0  0  0  0
   -4.9277   19.9847  -31.1678 H   0  0  0  0  0  0  0  0  0  0  0  0
   -6.2501   20.6930  -32.1968 H   0  0  0  0  0  0  0  0  0  0  0  0
   -5.1753   18.4368  -32.9408 H   0  0  0  0  0  0  0  0  0  0  0  0
   -5.4114   19.7397  -34.1638 H   0  0  0  0  0  0  0  0  0  0  0  0
   -3.2133   17.2810  -33.6544 H   0  0  0  0  0  0  0  0  0  0  0  0
   -0.8245   18.9179  -32.1219 H   0  0  0  0  0  0  0  0  0  0  0  0
    0.8628   15.5848  -29.9363 H   0  0  0  0  0  0  0  0  0  0  0  0
   -0.8458   21.6558  -34.1226 H   0  0  0  0  0  0  0  0  0  0  0  0
   -2.8000   22.7393  -33.1454 H   0  0  0  0  0  0  0  0  0  0  0  0
   -4.0714   22.1995  -34.2933 H   0  0  0  0  0  0  0  0  0  0  0  0
  1  2  2  0
  2  3  1  0
  3  4  2  0
  4  5  1  0
  5  6  2  0
  6  7  1  0
  6  8  1  0
  8  9  2  0
  9 10  1  0
  2 11  1  0
 11 12  1  0
 12 13  1  0
 13 14  1  0
 14 15  2  0
 15 16  1  0
 16 17  1  0
 17 18  1  0
 18 19  2  0
 18 20  2  0
 18 21  1  0
 21 22  2  0
 22 23  1  0
 23 24  1  0
 23 25  2  0
 25 26  1  0
 25 27  1  0
 27 28  1  0
 27 29  2  0
 16 30  2  0
 30 31  1  0
 30 32  1  0
 32 33  2  0
 33 34  1  0
  9  3  1  0
 34 11  1  0
 33 14  1  0
 29 21  1  0
  4 35  1  0
  5 36  1  0
  7 37  1  0
  8 38  1  0
 12 39  1  0
 12 40  1  0
 13 41  1  0
 13 42  1  0
 15 43  1  0
 22 44  1  0
 29 45  1  0
 32 46  1  0
 34 47  1  0
 34 48  1  0
M  CHG  4  10  -1  17  -1  26  -1  31  -1
M  END
>  <UniqueID>  (14) 
14

>  <SMILES>  (14) 
O=C(c1ccc(O)cc1[O-])N1CCc2cc([N-]S(=O)(=O)c3cc(Cl)c([O-])c(Cl)c3)c([O-])cc2C1

>  <Energy>  (14) 
64.3176781902449

>  <Genealogy>  (14) 
O=C(c1ccc(O)cc1[O-])N1CCc2cc([N-]S(=O)(=O)c3cc(Cl)c([O-])c(Cl)c3)c([O-])cc2C1 (protonated)
O=C(c1ccc(O)cc1[O-])N1CCc2cc([N-]S(=O)(=O)c3cc(Cl)c([O-])c(Cl)c3)c([O-])cc2C1 (3D coordinates assigned)
O=C(c1ccc(O)cc1[O-])N1CCc2cc([N-]S(=O)(=O)c3cc(Cl)c([O-])c(Cl)c3)c([O-])cc2C1 (nonaromatic ring conformer: 64.3176781902449 kcal/mol)

>  <smiles>  (14) 
O=C(c1ccc(O)cc1O)N1CCc2cc(NS(=O)(=O)c3cc(Cl)c(O)c(Cl)c3)c(O)cc2C1

>  <score_type>  (14) 
oracle

>  <origin>  (14) 
adgpu

>  <m_score__min__energy>  (14) 
-14.1

>  <m_primary>  (14) 
energy

$$$$
14:0
     RDKit          3D

 47 49  0  0  0  0  0  0  0  0999 V2000
    0.5920   19.8340  -29.3790 N   0  0  0  0  0  0  0  0  0  0  0  0
   -0.6670   20.0260  -28.7190 C   0  0  0  0  0  0  0  0  0  0  0  0
   -1.0100   19.1670  -27.6630 C   0  0  0  0  0  0  0  0  0  0  0  0
   -2.2270   19.3170  -26.9920 C   0  0  0  0  0  0  0  0  0  0  0  0
   -3.1120   20.3270  -27.3690 C   0  0  0  0  0  0  0  0  0  0  0  0
   -2.7860   21.1900  -28.4160 C   0  0  0  0  0  0  0  0  0  0  0  0
   -1.5660   21.0560  -29.1010 C   0  0  0  0  0  0  0  0  0  0  0  0
   -1.1930   22.1770  -30.4170 S   0  0  0  0  0  0  0  0  0  0  0  0
   -0.1660   21.5470  -31.3150 O   0  0  0  0  0  0  0  0  0  0  0  0
   -0.6690   23.4610  -29.8320 O   0  0  0  0  0  0  0  0  0  0  0  0
   -2.6270   22.5120  -31.3360 N   0  0  0  0  0  0  0  0  0  0  0  0
   -3.8420   23.1390  -30.8920 C   0  0  0  0  0  0  0  0  0  0  0  0
   -5.0480   22.5210  -31.2520 C   0  0  0  0  0  0  0  0  0  0  0  0
   -6.2800   23.0700  -30.8760 C   0  0  0  0  0  0  0  0  0  0  0  0
   -7.7870   22.2970  -31.3760 S   0  0  0  0  0  0  0  0  0  0  0  0
   -8.5990   23.2710  -32.1850 O   0  0  0  0  0  0  0  0  0  0  0  0
   -8.5830   21.9280  -30.1550 O   0  0  0  0  0  0  0  0  0  0  0  0
   -7.4870   20.8580  -32.3240 N   0  0  0  0  0  0  0  0  0  0  0  0
   -6.5360   19.9680  -31.6210 C   0  0  0  0  0  0  0  0  0  0  0  0
   -6.5720   18.5470  -32.1930 C   0  0  0  0  0  0  0  0  0  0  0  0
   -7.9610   17.9110  -32.0090 C   0  0  0  0  0  0  0  0  0  0  0  0
   -9.0880   18.9560  -31.9190 C   0  0  0  0  0  0  0  0  0  0  0  0
   -8.7520   20.2060  -32.7450 C   0  0  0  0  0  0  0  0  0  0  0  0
   -6.3090   24.2410  -30.1140 C   0  0  0  0  0  0  0  0  0  0  0  0
   -5.1170   24.8630  -29.7380 C   0  0  0  0  0  0  0  0  0  0  0  0
   -3.8800   24.3220  -30.1180 C   0  0  0  0  0  0  0  0  0  0  0  0
   -2.7110   24.9640  -29.7130 O   0  0  0  0  0  0  0  0  0  0  0  0
    1.2880   19.1240  -29.0670 H   0  0  0  0  0  0  0  0  0  0  0  0
    0.8510   20.4210  -30.2040 H   0  0  0  0  0  0  0  0  0  0  0  0
   -0.3153   18.3693  -27.3611 H   0  0  0  0  0  0  0  0  0  0  0  0
   -2.4869   18.6382  -26.1663 H   0  0  0  0  0  0  0  0  0  0  0  0
   -4.0692   20.4435  -26.8397 H   0  0  0  0  0  0  0  0  0  0  0  0
   -3.4905   21.9827  -28.7080 H   0  0  0  0  0  0  0  0  0  0  0  0
   -5.0259   21.5908  -31.8387 H   0  0  0  0  0  0  0  0  0  0  0  0
   -5.5190   20.3725  -31.7314 H   0  0  0  0  0  0  0  0  0  0  0  0
   -6.8249   19.9215  -30.5606 H   0  0  0  0  0  0  0  0  0  0  0  0
   -6.3338   18.5856  -33.2662 H   0  0  0  0  0  0  0  0  0  0  0  0
   -5.8333   17.9349  -31.6549 H   0  0  0  0  0  0  0  0  0  0  0  0
   -8.1615   17.2506  -32.8656 H   0  0  0  0  0  0  0  0  0  0  0  0
   -7.9479   17.3552  -31.0598 H   0  0  0  0  0  0  0  0  0  0  0  0
  -10.0196   18.5131  -32.3009 H   0  0  0  0  0  0  0  0  0  0  0  0
   -9.2039   19.2542  -30.8666 H   0  0  0  0  0  0  0  0  0  0  0  0
   -8.6607   19.9136  -33.8015 H   0  0  0  0  0  0  0  0  0  0  0  0
   -9.5637   20.9316  -32.5878 H   0  0  0  0  0  0  0  0  0  0  0  0
   -7.2734   24.6738  -29.8097 H   0  0  0  0  0  0  0  0  0  0  0  0
   -5.1482   25.7849  -29.1388 H   0  0  0  0  0  0  0  0  0  0  0  0
   -1.7940   24.6200  -29.9760 H   0  0  0  0  0  0  0  0  0  0  0  0
  1  2  1  0
  2  3  2  0
  3  4  1  0
  4  5  2  0
  5  6  1  0
  6  7  2  0
  7  8  1  0
  8  9  2  0
  8 10  2  0
  8 11  1  0
 11 12  1  0
 12 13  2  0
 13 14  1  0
 14 15  1  0
 15 16  2  0
 15 17  2  0
 15 18  1  0
 18 19  1  0
 19 20  1  0
 20 21  1  0
 21 22  1  0
 22 23  1  0
 14 24  2  0
 24 25  1  0
 25 26  2  0
 26 27  1  0
  7  2  1  0
 26 12  1  0
 23 18  1  0
  1 28  1  0
  1 29  1  0
  3 30  1  0
  4 31  1  0
  5 32  1  0
  6 33  1  0
 13 34  1  0
 19 35  1  0
 19 36  1  0
 20 37  1  0
 20 38  1  0
 21 39  1  0
 21 40  1  0
 22 41  1  0
 22 42  1  0
 23 43  1  0
 23 44  1  0
 24 45  1  0
 25 46  1  0
 27 47  1  0
M  CHG  1  11  -1
M  END
>  <UniqueID>  (15) 
15

>  <SMILES>  (15) 
Nc1ccccc1S(=O)(=O)[N-]c1cc(S(=O)(=O)N2CCCCC2)ccc1O

>  <Energy>  (15) 
61.40787414406307

>  <Genealogy>  (15) 
Nc1ccccc1S(=O)(=O)[N-]c1cc(S(=O)(=O)N2CCCCC2)ccc1O (protonated)
Nc1ccccc1S(=O)(=O)[N-]c1cc(S(=O)(=O)N2CCCCC2)ccc1O (3D coordinates assigned)
Nc1ccccc1S(=O)(=O)[N-]c1cc(S(=O)(=O)N2CCCCC2)ccc1O (nonaromatic ring conformer: 61.40787414406307 kcal/mol)

>  <smiles>  (15) 
Nc1ccccc1S(=O)(=O)Nc1cc(S(=O)(=O)N2CCCCC2)ccc1O

>  <score_type>  (15) 
oracle

>  <origin>  (15) 
adgpu

>  <m_score__min__energy>  (15) 
-9.8900000000000006

>  <m_primary>  (15) 
energy

$$$$
15:0
     RDKit          3D

 60 63  0  0  0  0  0  0  0  0999 V2000
   -3.4860   22.1800  -33.4590 O   0  0  0  0  0  0  0  0  0  0  0  0
   -2.9700   21.1480  -32.9520 C   0  0  0  0  0  0  0  0  0  0  0  0
   -3.0510   19.9120  -33.6720 N   0  0  0  0  0  0  0  0  0  0  0  0
   -4.2040   19.0640  -33.7520 C   0  0  0  0  0  0  0  0  0  0  0  0
   -4.2000   17.8830  -34.5150 C   0  0  0  0  0  0  0  0  0  0  0  0
   -5.3350   17.0700  -34.5560 C   0  0  0  0  0  0  0  0  0  0  0  0
   -6.4760   17.4220  -33.8320 C   0  0  0  0  0  0  0  0  0  0  0  0
   -6.4860   18.5880  -33.0560 C   0  0  0  0  0  0  0  0  0  0  0  0
   -7.9350   19.0470  -32.1580 S   0  0  0  0  0  0  0  0  0  0  0  0
   -9.1140   19.0540  -33.0910 O   0  0  0  0  0  0  0  0  0  0  0  0
   -8.1980   18.0250  -31.0850 O   0  0  0  0  0  0  0  0  0  0  0  0
   -7.7660   20.6270  -31.4300 N   0  0  0  0  0  0  0  0  0  0  0  0
   -9.0630   21.1330  -30.9160 C   0  0  0  0  0  0  0  0  0  0  0  0
   -9.6930   22.2010  -31.8210 C   0  0  0  0  0  0  0  0  0  0  0  0
   -8.7510   23.4050  -31.9990 C   0  0  0  0  0  0  0  0  0  0  0  0
   -7.2630   23.0090  -31.9450 C   0  0  0  0  0  0  0  0  0  0  0  0
   -7.0670   21.5470  -32.3540 C   0  0  0  0  0  0  0  0  0  0  0  0
   -5.3410   19.3950  -33.0060 C   0  0  0  0  0  0  0  0  0  0  0  0
   -2.2300   21.2360  -31.7250 N   0  0  0  0  0  0  0  0  0  0  0  0
   -2.3680   22.3090  -30.7770 C   0  0  0  0  0  0  0  0  0  0  0  0
   -3.4640   23.1780  -30.8750 C   0  0  0  0  0  0  0  0  0  0  0  0
   -3.6080   24.2410  -29.9810 C   0  0  0  0  0  0  0  0  0  0  0  0
   -2.6530   24.4520  -28.9840 C   0  0  0  0  0  0  0  0  0  0  0  0
   -1.5440   23.6020  -28.8810 C   0  0  0  0  0  0  0  0  0  0  0  0
   -0.3250   23.9070  -27.6470 S   0  0  0  0  0  0  0  0  0  0  0  0
    0.4090   22.6280  -27.3590 O   0  0  0  0  0  0  0  0  0  0  0  0
    0.6650   24.9260  -28.1450 O   0  0  0  0  0  0  0  0  0  0  0  0
   -1.1070   24.4730  -26.1950 N   0  0  0  0  0  0  0  0  0  0  0  0
   -1.5710   25.8530  -26.3430 C   0  0  0  0  0  0  0  0  0  0  0  0
   -1.5660   26.4670  -24.9500 C   0  0  0  0  0  0  0  0  0  0  0  0
   -0.7010   25.5460  -24.1020 C   0  0  0  0  0  0  0  0  0  0  0  0
   -0.1810   24.4920  -25.0650 C   0  0  0  0  0  0  0  0  0  0  0  0
   -1.3960   22.5420  -29.7870 C   0  0  0  0  0  0  0  0  0  0  0  0
   -3.3007   17.5986  -35.0811 H   0  0  0  0  0  0  0  0  0  0  0  0
   -5.3301   16.1506  -35.1598 H   0  0  0  0  0  0  0  0  0  0  0  0
   -7.3696   16.7817  -33.8712 H   0  0  0  0  0  0  0  0  0  0  0  0
   -9.7613   20.2871  -30.8341 H   0  0  0  0  0  0  0  0  0  0  0  0
   -8.8690   21.6023  -29.9402 H   0  0  0  0  0  0  0  0  0  0  0  0
   -9.9008   21.7591  -32.8067 H   0  0  0  0  0  0  0  0  0  0  0  0
  -10.6228   22.5526  -31.3501 H   0  0  0  0  0  0  0  0  0  0  0  0
   -8.9560   23.8710  -32.9741 H   0  0  0  0  0  0  0  0  0  0  0  0
   -8.9401   24.1004  -31.1680 H   0  0  0  0  0  0  0  0  0  0  0  0
   -6.6945   23.6535  -32.6316 H   0  0  0  0  0  0  0  0  0  0  0  0
   -6.9053   23.1340  -30.9123 H   0  0  0  0  0  0  0  0  0  0  0  0
   -7.4644   21.4036  -33.3696 H   0  0  0  0  0  0  0  0  0  0  0  0
   -5.9912   21.3200  -32.3187 H   0  0  0  0  0  0  0  0  0  0  0  0
   -5.3360   20.2961  -32.3751 H   0  0  0  0  0  0  0  0  0  0  0  0
   -1.4830   20.5240  -31.5570 H   0  0  0  0  0  0  0  0  0  0  0  0
   -4.2162   23.0212  -31.6622 H   0  0  0  0  0  0  0  0  0  0  0  0
   -4.4749   24.9132  -30.0621 H   0  0  0  0  0  0  0  0  0  0  0  0
   -2.7718   25.2873  -28.2781 H   0  0  0  0  0  0  0  0  0  0  0  0
   -0.8941   26.4117  -27.0061 H   0  0  0  0  0  0  0  0  0  0  0  0
   -2.5767   25.8872  -26.7873 H   0  0  0  0  0  0  0  0  0  0  0  0
   -1.1368   27.4794  -24.9778 H   0  0  0  0  0  0  0  0  0  0  0  0
   -2.5833   26.5609  -24.5421 H   0  0  0  0  0  0  0  0  0  0  0  0
    0.1338   26.1049  -23.6539 H   0  0  0  0  0  0  0  0  0  0  0  0
   -1.2664   25.1006  -23.2702 H   0  0  0  0  0  0  0  0  0  0  0  0
    0.8309   24.7551  -25.4068 H   0  0  0  0  0  0  0  0  0  0  0  0
   -0.1209   23.5055  -24.5821 H   0  0  0  0  0  0  0  0  0  0  0  0
   -0.5138   21.8881  -29.7232 H   0  0  0  0  0  0  0  0  0  0  0  0
  1  2  2  0
  2  3  1  0
  3  4  1  0
  4  5  2  0
  5  6  1  0
  6  7  2  0
  7  8  1  0
  8  9  1  0
  9 10  2  0
  9 11  2  0
  9 12  1  0
 12 13  1  0
 13 14  1  0
 14 15  1  0
 15 16  1  0
 16 17  1  0
  8 18  2  0
  2 19  1  0
 19 20  1  0
 20 21  2  0
 21 22  1  0
 22 23  2  0
 23 24  1  0
 24 25  1  0
 25 26  2  0
 25 27  2  0
 25 28  1  0
 28 29  1  0
 29 30  1  0
 30 31  1  0
 31 32  1  0
 24 33  2  0
 18  4  1  0
 33 20  1  0
 17 12  1  0
 32 28  1  0
  5 34  1  0
  6 35  1  0
  7 36  1  0
 13 37  1  0
 13 38  1  0
 14 39  1  0
 14 40  1  0
 15 41  1  0
 15 42  1  0
 16 43  1  0
 16 44  1  0
 17 45  1  0
 17 46  1  0
 18 47  1  0
 19 48  1  0
 21 49  1  0
 22 50  1  0
 23 51  1  0
 29 52  1  0
 29 53  1  0
 30 54  1  0
 30 55  1  0
 31 56  1  0
 31 57  1  0
 32 58  1  0
 32 59  1  0
 33 60  1  0
M  CHG  1   3  -1
M  END
>  <UniqueID>  (16) 
16

>  <SMILES>  (16) 
O=C([N-]c1cccc(S(=O)(=O)N2CCCCC2)c1)Nc1cccc(S(=O)(=O)N2CCCC2)c1

>  <Energy>  (16) 
73.30886425079551

>  <Genealogy>  (16) 
O=C([N-]c1cccc(S(=O)(=O)N2CCCCC2)c1)Nc1cccc(S(=O)(=O)N2CCCC2)c1 (protonated)
O=C([N-]c1cccc(S(=O)(=O)N2CCCCC2)c1)Nc1cccc(S(=O)(=O)N2CCCC2)c1 (3D coordinates assigned)
O=C([N-]c1cccc(S(=O)(=O)N2CCCCC2)c1)Nc1cccc(S(=O)(=O)N2CCCC2)c1 (nonaromatic ring conformer: 73.30886425079551 kcal/mol)

>  <smiles>  (16) 
O=C(Nc1cccc(S(=O)(=O)N2CCCCC2)c1)Nc1cccc(S(=O)(=O)N2CCCC2)c1

>  <score_type>  (16) 
oracle

>  <origin>  (16) 
adgpu

>  <m_score__min__energy>  (16) 
-12.5

>  <m_primary>  (16) 
energy

$$$$
16:0
     RDKit          3D

 59 62  0  0  0  0  0  0  0  0999 V2000
   -3.9210   22.9830  -27.8550 O   0  0  0  0  0  0  0  0  0  0  0  0
   -3.8360   22.6970  -29.0810 C   0  0  0  0  0  0  0  0  0  0  0  0
   -2.7990   21.8130  -29.5370 N   0  0  0  0  0  0  0  0  0  0  0  0
   -1.5640   21.5940  -28.8330 C   0  0  0  0  0  0  0  0  0  0  0  0
   -1.1200   20.2830  -28.6120 C   0  0  0  0  0  0  0  0  0  0  0  0
    0.0850   20.0470  -27.9460 C   0  0  0  0  0  0  0  0  0  0  0  0
    0.8670   21.1180  -27.5090 C   0  0  0  0  0  0  0  0  0  0  0  0
    0.4530   22.4360  -27.7480 C   0  0  0  0  0  0  0  0  0  0  0  0
    1.4470   23.7940  -27.2040 S   0  0  0  0  0  0  0  0  0  0  0  0
    1.3280   24.9150  -28.1980 O   0  0  0  0  0  0  0  0  0  0  0  0
    2.8860   23.3600  -27.1650 O   0  0  0  0  0  0  0  0  0  0  0  0
    0.9870   24.3820  -25.6240 N   0  0  0  0  0  0  0  0  0  0  0  0
   -0.1800   23.6820  -25.0940 C   0  0  0  0  0  0  0  0  0  0  0  0
   -0.8350   24.6330  -24.1040 C   0  0  0  0  0  0  0  0  0  0  0  0
   -0.3150   26.0150  -24.4680 C   0  0  0  0  0  0  0  0  0  0  0  0
    0.6180   25.7950  -25.6500 C   0  0  0  0  0  0  0  0  0  0  0  0
   -0.7620   22.6700  -28.4080 C   0  0  0  0  0  0  0  0  0  0  0  0
   -4.8560   23.2200  -30.0220 C   0  0  0  0  0  0  0  0  0  0  0  0
   -6.0290   22.4780  -30.2530 C   0  0  0  0  0  0  0  0  0  0  0  0
   -7.0050   22.9420  -31.1420 C   0  0  0  0  0  0  0  0  0  0  0  0
   -8.4650   21.9910  -31.4010 S   0  0  0  0  0  0  0  0  0  0  0  0
   -9.4850   22.8560  -32.0880 O   0  0  0  0  0  0  0  0  0  0  0  0
   -9.0290   21.5320  -30.0840 O   0  0  0  0  0  0  0  0  0  0  0  0
   -8.0880   20.6060  -32.3970 N   0  0  0  0  0  0  0  0  0  0  0  0
   -6.6530   20.5990  -32.7810 C   0  0  0  0  0  0  0  0  0  0  0  0
   -5.8170   19.6090  -31.9570 C   0  0  0  0  0  0  0  0  0  0  0  0
   -6.3530   18.1740  -32.1010 C   0  0  0  0  0  0  0  0  0  0  0  0
   -7.8760   18.1280  -32.3180 C   0  0  0  0  0  0  0  0  0  0  0  0
   -8.5550   19.3700  -31.7320 C   0  0  0  0  0  0  0  0  0  0  0  0
   -6.8200   24.1630  -31.8010 C   0  0  0  0  0  0  0  0  0  0  0  0
   -5.6680   24.9160  -31.5680 C   0  0  0  0  0  0  0  0  0  0  0  0
   -4.6910   24.4580  -30.6790 C   0  0  0  0  0  0  0  0  0  0  0  0
   -3.5780   25.2570  -30.4380 O   0  0  0  0  0  0  0  0  0  0  0  0
   -2.9970   21.2220  -30.3760 H   0  0  0  0  0  0  0  0  0  0  0  0
   -1.7244   19.4345  -28.9653 H   0  0  0  0  0  0  0  0  0  0  0  0
    0.4187   19.0145  -27.7653 H   0  0  0  0  0  0  0  0  0  0  0  0
    1.8101   20.9272  -26.9760 H   0  0  0  0  0  0  0  0  0  0  0  0
   -0.8793   23.4376  -25.9071 H   0  0  0  0  0  0  0  0  0  0  0  0
    0.1065   22.7364  -24.6104 H   0  0  0  0  0  0  0  0  0  0  0  0
   -1.9301   24.5958  -24.2013 H   0  0  0  0  0  0  0  0  0  0  0  0
   -0.5979   24.3675  -23.0632 H   0  0  0  0  0  0  0  0  0  0  0  0
   -1.1464   26.6771  -24.7515 H   0  0  0  0  0  0  0  0  0  0  0  0
    0.2002   26.4948  -23.6228 H   0  0  0  0  0  0  0  0  0  0  0  0
    0.1033   26.0369  -26.5916 H   0  0  0  0  0  0  0  0  0  0  0  0
    1.5058   26.4412  -25.5841 H   0  0  0  0  0  0  0  0  0  0  0  0
   -1.0910   23.7028  -28.5951 H   0  0  0  0  0  0  0  0  0  0  0  0
   -6.1805   21.5227  -29.7290 H   0  0  0  0  0  0  0  0  0  0  0  0
   -6.5756   20.3241  -33.8433 H   0  0  0  0  0  0  0  0  0  0  0  0
   -6.2555   21.6063  -32.5879 H   0  0  0  0  0  0  0  0  0  0  0  0
   -4.7751   19.6398  -32.3083 H   0  0  0  0  0  0  0  0  0  0  0  0
   -5.8777   19.8990  -30.8976 H   0  0  0  0  0  0  0  0  0  0  0  0
   -5.8603   17.6990  -32.9622 H   0  0  0  0  0  0  0  0  0  0  0  0
   -6.1347   17.6420  -31.1632 H   0  0  0  0  0  0  0  0  0  0  0  0
   -8.0837   18.0806  -33.3972 H   0  0  0  0  0  0  0  0  0  0  0  0
   -8.2746   17.2387  -31.8078 H   0  0  0  0  0  0  0  0  0  0  0  0
   -9.6430   19.2802  -31.8672 H   0  0  0  0  0  0  0  0  0  0  0  0
   -8.2977   19.4334  -30.6644 H   0  0  0  0  0  0  0  0  0  0  0  0
   -7.5833   24.5295  -32.5032 H   0  0  0  0  0  0  0  0  0  0  0  0
   -5.5280   25.8757  -32.0871 H   0  0  0  0  0  0  0  0  0  0  0  0
  1  2  2  0
  2  3  1  0
  3  4  1  0
  4  5  2  0
  5  6  1  0
  6  7  2  0
  7  8  1  0
  8  9  1  0
  9 10  2  0
  9 11  2  0
  9 12  1  0
 12 13  1  0
 13 14  1  0
 14 15  1  0
 15 16  1  0
  8 17  2  0
  2 18  1  0
 18 19  2  0
 19 20  1  0
 20 21  1  0
 21 22  2  0
 21 23  2  0
 21 24  1  0
 24 25  1  0
 25 26  1  0
 26 27  1  0
 27 28  1  0
 28 29  1  0
 20 30  2  0
 30 31  1  0
 31 32  2  0
 32 33  1  0
 17  4  1  0
 32 18  1  0
 16 12  1  0
 29 24  1  0
  3 34  1  0
  5 35  1  0
  6 36  1  0
  7 37  1  0
 13 38  1  0
 13 39  1  0
 14 40  1  0
 14 41  1  0
 15 42  1  0
 15 43  1  0
 16 44  1  0
 16 45  1  0
 17 46  1  0
 19 47  1  0
 25 48  1  0
 25 49  1  0
 26 50  1  0
 26 51  1  0
 27 52  1  0
 27 53  1  0
 28 54  1  0
 28 55  1  0
 29 56  1  0
 29 57  1  0
 30 58  1  0
 31 59  1  0
M  CHG  1  33  -1
M  END
>  <UniqueID>  (17) 
17

>  <SMILES>  (17) 
O=C(Nc1cccc(S(=O)(=O)N2CCCC2)c1)c1cc(S(=O)(=O)N2CCCCC2)ccc1[O-]

>  <Energy>  (17) 
74.4343376453079

>  <Genealogy>  (17) 
O=C(Nc1cccc(S(=O)(=O)N2CCCC2)c1)c1cc(S(=O)(=O)N2CCCCC2)ccc1[O-] (protonated)
O=C(Nc1cccc(S(=O)(=O)N2CCCC2)c1)c1cc(S(=O)(=O)N2CCCCC2)ccc1[O-] (3D coordinates assigned)
O=C(Nc1cccc(S(=O)(=O)N2CCCC2)c1)c1cc(S(=O)(=O)N2CCCCC2)ccc1[O-] (nonaromatic ring conformer: 74.4343376453079 kcal/mol)

>  <smiles>  (17) 
O=C(Nc1cccc(S(=O)(=O)N2CCCC2)c1)c1cc(S(=O)(=O)N2CCCCC2)ccc1O

>  <score_type>  (17) 
oracle

>  <origin>  (17) 
adgpu

>  <m_score__min__energy>  (17) 
-13.630000000000001

>  <m_primary>  (17) 
energy

$$$$
17:0
     RDKit          3D

 46 48  0  0  0  0  0  0  0  0999 V2000
   -4.9670   16.8900  -34.5850 C   0  0  0  0  0  0  0  0  0  0  0  0
   -6.5050   16.2330  -33.8670 S   0  0  0  0  0  0  0  0  0  0  0  0
   -7.0170   17.8180  -33.2050 C   0  0  0  0  0  0  0  0  0  0  0  0
   -7.9770   17.8770  -32.1900 C   0  0  0  0  0  0  0  0  0  0  0  0
   -8.3670   19.1130  -31.6630 C   0  0  0  0  0  0  0  0  0  0  0  0
   -7.7930   20.2970  -32.1470 C   0  0  0  0  0  0  0  0  0  0  0  0
   -8.2490   21.8520  -31.4520 S   0  0  0  0  0  0  0  0  0  0  0  0
   -9.2090   22.5340  -32.3900 O   0  0  0  0  0  0  0  0  0  0  0  0
   -8.9360   21.6410  -30.1320 O   0  0  0  0  0  0  0  0  0  0  0  0
   -6.8240   22.8620  -31.2100 C   0  0  0  0  0  0  0  0  0  0  0  0
   -6.9320   24.2560  -31.2630 C   0  0  0  0  0  0  0  0  0  0  0  0
   -5.8120   25.0590  -31.0260 C   0  0  0  0  0  0  0  0  0  0  0  0
   -4.5770   24.4740  -30.7300 C   0  0  0  0  0  0  0  0  0  0  0  0
   -3.4860   25.2950  -30.4700 O   0  0  0  0  0  0  0  0  0  0  0  0
   -4.4530   23.0690  -30.6920 C   0  0  0  0  0  0  0  0  0  0  0  0
   -2.9080   22.2870  -30.3190 S   0  0  0  0  0  0  0  0  0  0  0  0
   -2.2870   21.7600  -31.5820 O   0  0  0  0  0  0  0  0  0  0  0  0
   -3.1670   21.1150  -29.4140 O   0  0  0  0  0  0  0  0  0  0  0  0
   -1.7910   23.3930  -29.5490 N   0  0  0  0  0  0  0  0  0  0  0  0
   -2.3490   23.9110  -28.2870 C   0  0  0  0  0  0  0  0  0  0  0  0
   -1.3600   24.8840  -27.6090 C   0  0  0  0  0  0  0  0  0  0  0  0
   -0.0880   24.8890  -28.2380 O   0  0  0  0  0  0  0  0  0  0  0  0
    0.3930   23.5610  -28.3530 C   0  0  0  0  0  0  0  0  0  0  0  0
   -0.4870   22.7350  -29.3150 C   0  0  0  0  0  0  0  0  0  0  0  0
   -5.5820   22.2730  -30.9330 C   0  0  0  0  0  0  0  0  0  0  0  0
   -6.8260   20.2340  -33.1570 C   0  0  0  0  0  0  0  0  0  0  0  0
   -6.4420   18.9970  -33.6880 C   0  0  0  0  0  0  0  0  0  0  0  0
   -4.2809   17.1831  -33.7767 H   0  0  0  0  0  0  0  0  0  0  0  0
   -4.4924   16.1161  -35.2061 H   0  0  0  0  0  0  0  0  0  0  0  0
   -5.1981   17.7679  -35.2061 H   0  0  0  0  0  0  0  0  0  0  0  0
   -8.4265   16.9497  -31.8051 H   0  0  0  0  0  0  0  0  0  0  0  0
   -9.1254   19.1559  -30.8674 H   0  0  0  0  0  0  0  0  0  0  0  0
   -7.9017   24.7221  -31.4920 H   0  0  0  0  0  0  0  0  0  0  0  0
   -5.9028   26.1543  -31.0726 H   0  0  0  0  0  0  0  0  0  0  0  0
   -1.6500   24.1970  -30.2100 H   0  0  0  0  0  0  0  0  0  0  0  0
   -3.2889   24.4417  -28.4992 H   0  0  0  0  0  0  0  0  0  0  0  0
   -2.5321   23.0646  -27.6086 H   0  0  0  0  0  0  0  0  0  0  0  0
   -1.7791   25.9001  -27.6517 H   0  0  0  0  0  0  0  0  0  0  0  0
   -1.2191   24.5490  -26.5708 H   0  0  0  0  0  0  0  0  0  0  0  0
    1.4232   23.5837  -28.7379 H   0  0  0  0  0  0  0  0  0  0  0  0
    0.3629   23.0902  -27.3593 H   0  0  0  0  0  0  0  0  0  0  0  0
    0.0371   22.6262  -30.2760 H   0  0  0  0  0  0  0  0  0  0  0  0
   -0.6713   21.7512  -28.8589 H   0  0  0  0  0  0  0  0  0  0  0  0
   -5.4925   21.1770  -30.9045 H   0  0  0  0  0  0  0  0  0  0  0  0
   -6.3664   21.1593  -33.5346 H   0  0  0  0  0  0  0  0  0  0  0  0
   -5.6867   18.9527  -34.4865 H   0  0  0  0  0  0  0  0  0  0  0  0
  1  2  1  0
  2  3  1  0
  3  4  2  0
  4  5  1  0
  5  6  2  0
  6  7  1  0
  7  8  2  0
  7  9  2  0
  7 10  1  0
 10 11  2  0
 11 12  1  0
 12 13  2  0
 13 14  1  0
 13 15  1  0
 15 16  1  0
 16 17  2  0
 16 18  2  0
 16 19  1  0
 19 20  1  0
 20 21  1  0
 21 22  1  0
 22 23  1  0
 23 24  1  0
 15 25  2  0
  6 26  1  0
 26 27  2  0
 27  3  1  0
 25 10  1  0
 24 19  1  0
  1 28  1  0
  1 29  1  0
  1 30  1  0
  4 31  1  0
  5 32  1  0
 11 33  1  0
 12 34  1  0
 19 35  1  0
 20 36  1  0
 20 37  1  0
 21 38  1  0
 21 39  1  0
 23 40  1  0
 23 41  1  0
 24 42  1  0
 24 43  1  0
 25 44  1  0
 26 45  1  0
 27 46  1  0
M  CHG  2  14  -1  19   1
M  END
>  <UniqueID>  (18) 
18

>  <SMILES>  (18) 
CSc1ccc(S(=O)(=O)c2ccc([O-])c(S(=O)(=O)[NH+]3CCOCC3)c2)cc1

>  <Energy>  (18) 
53.803747625358156

>  <Genealogy>  (18) 
CSc1ccc(S(=O)(=O)c2ccc([O-])c(S(=O)(=O)[NH+]3CCOCC3)c2)cc1 (protonated)
CSc1ccc(S(=O)(=O)c2ccc([O-])c(S(=O)(=O)[NH+]3CCOCC3)c2)cc1 (3D coordinates assigned)
CSc1ccc(S(=O)(=O)c2ccc([O-])c(S(=O)(=O)[NH+]3CCOCC3)c2)cc1 (nonaromatic ring conformer: 53.803747625358156 kcal/mol)

>  <smiles>  (18) 
CSc1ccc(S(=O)(=O)c2ccc(O)c(S(=O)(=O)N3CCOCC3)c2)cc1

>  <score_type>  (18) 
oracle

>  <origin>  (18) 
adgpu

>  <m_score__min__energy>  (18) 
-12.050000000000001

>  <m_primary>  (18) 
energy

$$$$
18:0
     RDKit          3D

 46 48  0  0  0  0  0  0  0  0999 V2000
   -1.2330   21.7810  -28.9390 C   0  0  0  0  0  0  0  0  0  0  0  0
   -1.0240   23.4130  -29.7160 S   0  0  0  0  0  0  0  0  0  0  0  0
   -1.5680   24.3110  -28.2540 C   0  0  0  0  0  0  0  0  0  0  0  0
   -0.6220   25.0500  -27.5310 C   0  0  0  0  0  0  0  0  0  0  0  0
   -1.0020   25.7470  -26.3810 C   0  0  0  0  0  0  0  0  0  0  0  0
   -2.3290   25.7150  -25.9500 C   0  0  0  0  0  0  0  0  0  0  0  0
   -3.2800   24.9830  -26.6660 C   0  0  0  0  0  0  0  0  0  0  0  0
   -2.9110   24.2660  -27.8190 C   0  0  0  0  0  0  0  0  0  0  0  0
   -3.8980   23.5350  -28.5660 N   0  0  0  0  0  0  0  0  0  0  0  0
   -4.1780   23.7880  -29.9540 C   0  0  0  0  0  0  0  0  0  0  0  0
   -3.8170   24.8800  -30.4730 O   0  0  0  0  0  0  0  0  0  0  0  0
   -4.9240   22.8040  -30.7730 C   0  0  0  0  0  0  0  0  0  0  0  0
   -4.3130   22.2060  -31.8900 C   0  0  0  0  0  0  0  0  0  0  0  0
   -5.0060   21.2710  -32.6630 C   0  0  0  0  0  0  0  0  0  0  0  0
   -6.3170   20.9080  -32.3280 C   0  0  0  0  0  0  0  0  0  0  0  0
   -7.1840   19.7100  -33.2940 S   0  0  0  0  0  0  0  0  0  0  0  0
   -6.5570   19.6260  -34.6570 O   0  0  0  0  0  0  0  0  0  0  0  0
   -8.6120   20.1500  -33.4630 O   0  0  0  0  0  0  0  0  0  0  0  0
   -7.1490   18.1290  -32.5450 N   0  0  0  0  0  0  0  0  0  0  0  0
   -6.9390   17.0560  -33.5430 C   0  0  0  0  0  0  0  0  0  0  0  0
   -5.5080   16.4920  -33.4940 C   0  0  0  0  0  0  0  0  0  0  0  0
   -5.1560   15.9640  -32.2230 O   0  0  0  0  0  0  0  0  0  0  0  0
   -5.7520   16.6520  -31.1290 C   0  0  0  0  0  0  0  0  0  0  0  0
   -6.1630   18.0990  -31.4480 C   0  0  0  0  0  0  0  0  0  0  0  0
   -6.9310   21.4990  -31.2160 C   0  0  0  0  0  0  0  0  0  0  0  0
   -6.2410   22.4350  -30.4410 C   0  0  0  0  0  0  0  0  0  0  0  0
   -1.2189   21.8914  -27.8446 H   0  0  0  0  0  0  0  0  0  0  0  0
   -2.1941   21.3466  -29.2513 H   0  0  0  0  0  0  0  0  0  0  0  0
   -0.4124   21.1184  -29.2513 H   0  0  0  0  0  0  0  0  0  0  0  0
    0.4239   25.0815  -27.8701 H   0  0  0  0  0  0  0  0  0  0  0  0
   -0.2542   26.3216  -25.8147 H   0  0  0  0  0  0  0  0  0  0  0  0
   -2.6266   26.2664  -25.0459 H   0  0  0  0  0  0  0  0  0  0  0  0
   -4.3258   24.9672  -26.3253 H   0  0  0  0  0  0  0  0  0  0  0  0
   -4.5100   22.8590  -28.0560 H   0  0  0  0  0  0  0  0  0  0  0  0
   -3.2809   22.4768  -32.1572 H   0  0  0  0  0  0  0  0  0  0  0  0
   -4.5197   20.8175  -33.5393 H   0  0  0  0  0  0  0  0  0  0  0  0
   -7.6489   16.2402  -33.3415 H   0  0  0  0  0  0  0  0  0  0  0  0
   -7.0993   17.4867  -34.5424 H   0  0  0  0  0  0  0  0  0  0  0  0
   -5.4232   15.6893  -34.2413 H   0  0  0  0  0  0  0  0  0  0  0  0
   -4.8215   17.3259  -33.7022 H   0  0  0  0  0  0  0  0  0  0  0  0
   -6.6504   16.0976  -30.8200 H   0  0  0  0  0  0  0  0  0  0  0  0
   -4.9924   16.7050  -30.3351 H   0  0  0  0  0  0  0  0  0  0  0  0
   -6.6066   18.5550  -30.5506 H   0  0  0  0  0  0  0  0  0  0  0  0
   -5.2699   18.6610  -31.7585 H   0  0  0  0  0  0  0  0  0  0  0  0
   -7.9628   21.2245  -30.9513 H   0  0  0  0  0  0  0  0  0  0  0  0
   -6.7305   22.8865  -29.5655 H   0  0  0  0  0  0  0  0  0  0  0  0
  1  2  1  0
  2  3  1  0
  3  4  2  0
  4  5  1  0
  5  6  2  0
  6  7  1  0
  7  8  2  0
  8  9  1  0
  9 10  1  0
 10 11  2  0
 10 12  1  0
 12 13  2  0
 13 14  1  0
 14 15  2  0
 15 16  1  0
 16 17  2  0
 16 18  2  0
 16 19  1  0
 19 20  1  0
 20 21  1  0
 21 22  1  0
 22 23  1  0
 23 24  1  0
 15 25  1  0
 25 26  2  0
  8  3  1  0
 26 12  1  0
 24 19  1  0
  1 27  1  0
  1 28  1  0
  1 29  1  0
  4 30  1  0
  5 31  1  0
  6 32  1  0
  7 33  1  0
  9 34  1  0
 13 35  1  0
 14 36  1  0
 20 37  1  0
 20 38  1  0
 21 39  1  0
 21 40  1  0
 23 41  1  0
 23 42  1  0
 24 43  1  0
 24 44  1  0
 25 45  1  0
 26 46  1  0
M  END
>  <UniqueID>  (19) 
19

>  <SMILES>  (19) 
CSc1ccccc1NC(=O)c1ccc(S(=O)(=O)N2CCOCC2)cc1

>  <Energy>  (19) 
61.365644248467966

>  <Genealogy>  (19) 
CSc1ccccc1NC(=O)c1ccc(S(=O)(=O)N2CCOCC2)cc1 (3D coordinates assigned)
CSc1ccccc1NC(=O)c1ccc(S(=O)(=O)N2CCOCC2)cc1 (nonaromatic ring conformer: 61.365644248467966 kcal/mol)

>  <smiles>  (19) 
CSc1ccccc1NC(=O)c1ccc(S(=O)(=O)N2CCOCC2)cc1

>  <score_type>  (19) 
oracle

>  <origin>  (19) 
adgpu

>  <m_score__min__energy>  (19) 
-8.8200000000000003

>  <m_primary>  (19) 
energy

$$$$
19:0
     RDKit          3D

 59 62  0  0  0  0  0  0  0  0999 V2000
   -3.2900   21.6910  -28.1170 O   0  0  0  0  0  0  0  0  0  0  0  0
   -2.5160   21.7500  -29.1120 C   0  0  0  0  0  0  0  0  0  0  0  0
   -2.8880   22.5280  -30.2650 N   0  0  0  0  0  0  0  0  0  0  0  0
   -4.1550   23.1970  -30.3930 C   0  0  0  0  0  0  0  0  0  0  0  0
   -5.3010   22.4970  -30.8090 C   0  0  0  0  0  0  0  0  0  0  0  0
   -6.5330   23.1560  -30.9310 C   0  0  0  0  0  0  0  0  0  0  0  0
   -7.9780   22.2560  -31.3980 S   0  0  0  0  0  0  0  0  0  0  0  0
   -8.8940   23.1590  -32.1750 O   0  0  0  0  0  0  0  0  0  0  0  0
   -8.7060   21.8080  -30.1610 O   0  0  0  0  0  0  0  0  0  0  0  0
   -7.5740   20.8560  -32.3650 N   0  0  0  0  0  0  0  0  0  0  0  0
   -8.7920   20.1410  -32.8220 C   0  0  0  0  0  0  0  0  0  0  0  0
   -9.0710   18.8610  -32.0200 C   0  0  0  0  0  0  0  0  0  0  0  0
   -7.8870   17.8830  -32.1020 C   0  0  0  0  0  0  0  0  0  0  0  0
   -6.5330   18.6000  -32.2540 C   0  0  0  0  0  0  0  0  0  0  0  0
   -6.5860   20.0100  -31.6600 C   0  0  0  0  0  0  0  0  0  0  0  0
   -6.6100   24.5300  -30.6690 C   0  0  0  0  0  0  0  0  0  0  0  0
   -5.4680   25.2380  -30.2860 C   0  0  0  0  0  0  0  0  0  0  0  0
   -4.2440   24.5780  -30.1510 C   0  0  0  0  0  0  0  0  0  0  0  0
   -3.1190   25.2980  -29.7630 O   0  0  0  0  0  0  0  0  0  0  0  0
   -1.2280   21.0150  -29.0620 C   0  0  0  0  0  0  0  0  0  0  0  0
   -0.7790   20.3170  -30.1980 C   0  0  0  0  0  0  0  0  0  0  0  0
    0.4290   19.6160  -30.1700 C   0  0  0  0  0  0  0  0  0  0  0  0
    1.2050   19.5960  -29.0040 C   0  0  0  0  0  0  0  0  0  0  0  0
    2.7130   18.6880  -28.9540 S   0  0  0  0  0  0  0  0  0  0  0  0
    3.3490   18.6830  -30.3190 O   0  0  0  0  0  0  0  0  0  0  0  0
    3.6570   19.3520  -27.9910 O   0  0  0  0  0  0  0  0  0  0  0  0
    2.3880   17.0580  -28.4220 N   0  0  0  0  0  0  0  0  0  0  0  0
    3.0150   16.7860  -27.1290 C   0  0  0  0  0  0  0  0  0  0  0  0
    2.1790   15.7060  -26.4610 C   0  0  0  0  0  0  0  0  0  0  0  0
    0.8310   15.7490  -27.1640 C   0  0  0  0  0  0  0  0  0  0  0  0
    0.9570   16.8420  -28.2150 C   0  0  0  0  0  0  0  0  0  0  0  0
    0.7540   20.2680  -27.8630 C   0  0  0  0  0  0  0  0  0  0  0  0
   -0.4530   20.9720  -27.8880 C   0  0  0  0  0  0  0  0  0  0  0  0
   -2.2020   22.6550  -31.0400 H   0  0  0  0  0  0  0  0  0  0  0  0
   -5.2309   21.4240  -31.0406 H   0  0  0  0  0  0  0  0  0  0  0  0
   -9.6547   20.8155  -32.7176 H   0  0  0  0  0  0  0  0  0  0  0  0
   -8.6275   19.8451  -33.8686 H   0  0  0  0  0  0  0  0  0  0  0  0
   -9.2433   19.1280  -30.9669 H   0  0  0  0  0  0  0  0  0  0  0  0
   -9.9581   18.3698  -32.4463 H   0  0  0  0  0  0  0  0  0  0  0  0
   -7.8645   17.2799  -31.1823 H   0  0  0  0  0  0  0  0  0  0  0  0
   -8.0339   17.2579  -32.9951 H   0  0  0  0  0  0  0  0  0  0  0  0
   -5.7583   18.0192  -31.7319 H   0  0  0  0  0  0  0  0  0  0  0  0
   -6.2991   18.6811  -33.3258 H   0  0  0  0  0  0  0  0  0  0  0  0
   -6.8666   19.9409  -30.5986 H   0  0  0  0  0  0  0  0  0  0  0  0
   -5.5933   20.4704  -31.7722 H   0  0  0  0  0  0  0  0  0  0  0  0
   -7.5728   25.0532  -30.7651 H   0  0  0  0  0  0  0  0  0  0  0  0
   -5.5328   26.3185  -30.0901 H   0  0  0  0  0  0  0  0  0  0  0  0
   -1.3845   20.3233  -31.1163 H   0  0  0  0  0  0  0  0  0  0  0  0
    0.7718   19.0781  -31.0662 H   0  0  0  0  0  0  0  0  0  0  0  0
    4.0465   16.4325  -27.2740 H   0  0  0  0  0  0  0  0  0  0  0  0
    3.0589   17.6942  -26.5099 H   0  0  0  0  0  0  0  0  0  0  0  0
    2.6493   14.7200  -26.5898 H   0  0  0  0  0  0  0  0  0  0  0  0
    2.0821   15.8737  -25.3782 H   0  0  0  0  0  0  0  0  0  0  0  0
    0.6141   14.7811  -27.6396 H   0  0  0  0  0  0  0  0  0  0  0  0
    0.0096   15.9510  -26.4608 H   0  0  0  0  0  0  0  0  0  0  0  0
    0.4815   16.5225  -29.1540 H   0  0  0  0  0  0  0  0  0  0  0  0
    0.4590   17.7667  -27.8880 H   0  0  0  0  0  0  0  0  0  0  0  0
    1.3529   20.2421  -26.9407 H   0  0  0  0  0  0  0  0  0  0  0  0
   -0.7994   21.4956  -26.9847 H   0  0  0  0  0  0  0  0  0  0  0  0
  1  2  2  0
  2  3  1  0
  3  4  1  0
  4  5  2  0
  5  6  1  0
  6  7  1  0
  7  8  2  0
  7  9  2  0
  7 10  1  0
 10 11  1  0
 11 12  1  0
 12 13  1  0
 13 14  1  0
 14 15  1  0
  6 16  2  0
 16 17  1  0
 17 18  2  0
 18 19  1  0
  2 20  1  0
 20 21  2  0
 21 22  1  0
 22 23  2  0
 23 24  1  0
 24 25  2  0
 24 26  2  0
 24 27  1  0
 27 28  1  0
 28 29  1  0
 29 30  1  0
 30 31  1  0
 23 32  1  0
 32 33  2  0
 18  4  1  0
 33 20  1  0
 15 10  1  0
 31 27  1  0
  3 34  1  0
  5 35  1  0
 11 36  1  0
 11 37  1  0
 12 38  1  0
 12 39  1  0
 13 40  1  0
 13 41  1  0
 14 42  1  0
 14 43  1  0
 15 44  1  0
 15 45  1  0
 16 46  1  0
 17 47  1  0
 21 48  1  0
 22 49  1  0
 28 50  1  0
 28 51  1  0
 29 52  1  0
 29 53  1  0
 30 54  1  0
 30 55  1  0
 31 56  1  0
 31 57  1  0
 32 58  1  0
 33 59  1  0
M  CHG  1  19  -1
M  END
>  <UniqueID>  (20) 
20

>  <SMILES>  (20) 
O=C(Nc1cc(S(=O)(=O)N2CCCCC2)ccc1[O-])c1ccc(S(=O)(=O)N2CCCC2)cc1

>  <Energy>  (20) 
72.93957963369313

>  <Genealogy>  (20) 
O=C(Nc1cc(S(=O)(=O)N2CCCCC2)ccc1[O-])c1ccc(S(=O)(=O)N2CCCC2)cc1 (protonated)
O=C(Nc1cc(S(=O)(=O)N2CCCCC2)ccc1[O-])c1ccc(S(=O)(=O)N2CCCC2)cc1 (3D coordinates assigned)
O=C(Nc1cc(S(=O)(=O)N2CCCCC2)ccc1[O-])c1ccc(S(=O)(=O)N2CCCC2)cc1 (nonaromatic ring conformer: 72.93957963369313 kcal/mol)

>  <smiles>  (20) 
O=C(Nc1cc(S(=O)(=O)N2CCCCC2)ccc1O)c1ccc(S(=O)(=O)N2CCCC2)cc1

>  <score_type>  (20) 
oracle

>  <origin>  (20) 
adgpu

>  <m_score__min__energy>  (20) 
-12.949999999999999

>  <m_primary>  (20) 
energy

$$$$
20:0
     RDKit          3D

 58 61  0  0  0  0  0  0  0  0999 V2000
   -5.7200   26.0440  -31.2020 O   0  0  0  0  0  0  0  0  0  0  0  0
   -5.2310   24.8660  -30.4050 S   0  0  0  0  0  0  0  0  0  0  0  0
   -5.8180   24.9390  -29.0280 O   0  0  0  0  0  0  0  0  0  0  0  0
   -3.4970   24.9260  -30.2870 N   0  0  0  0  0  0  0  0  0  0  0  0
   -2.7760   24.6740  -29.2360 C   0  0  0  0  0  0  0  0  0  0  0  0
   -3.3380   24.2860  -28.0070 C   0  0  0  0  0  0  0  0  0  0  0  0
   -2.5000   24.0490  -26.9160 C   0  0  0  0  0  0  0  0  0  0  0  0
   -1.1190   24.1840  -27.0490 C   0  0  0  0  0  0  0  0  0  0  0  0
   -0.5910   24.5560  -28.2820 C   0  0  0  0  0  0  0  0  0  0  0  0
   -1.4230   24.7890  -29.3360 N   0  0  0  0  0  0  0  0  0  0  0  0
   -5.7370   23.3500  -31.1410 C   0  0  0  0  0  0  0  0  0  0  0  0
   -5.1910   22.1290  -30.7290 C   0  0  0  0  0  0  0  0  0  0  0  0
   -5.6410   20.9330  -31.2910 C   0  0  0  0  0  0  0  0  0  0  0  0
   -6.6290   20.9410  -32.2870 C   0  0  0  0  0  0  0  0  0  0  0  0
   -7.0810   19.6910  -32.8410 N   0  0  0  0  0  0  0  0  0  0  0  0
   -6.0150   18.4030  -33.3140 S   0  0  0  0  0  0  0  0  0  0  0  0
   -6.4140   17.8980  -34.6750 O   0  0  0  0  0  0  0  0  0  0  0  0
   -6.1470   17.2790  -32.3250 O   0  0  0  0  0  0  0  0  0  0  0  0
   -4.3510   18.9750  -33.3790 C   0  0  0  0  0  0  0  0  0  0  0  0
   -4.0850   20.2930  -33.7520 C   0  0  0  0  0  0  0  0  0  0  0  0
   -2.7900   20.7910  -33.6570 C   0  0  0  0  0  0  0  0  0  0  0  0
   -1.7520   19.9860  -33.1710 C   0  0  0  0  0  0  0  0  0  0  0  0
   -0.1420   20.6660  -32.9110 S   0  0  0  0  0  0  0  0  0  0  0  0
    0.8930   19.6070  -33.1940 O   0  0  0  0  0  0  0  0  0  0  0  0
    0.0820   21.8000  -33.8690 O   0  0  0  0  0  0  0  0  0  0  0  0
    0.0430   21.2450  -31.2710 N   0  0  0  0  0  0  0  0  0  0  0  0
    0.3540   20.1140  -30.3700 C   0  0  0  0  0  0  0  0  0  0  0  0
    0.2150   20.5100  -28.8980 C   0  0  0  0  0  0  0  0  0  0  0  0
   -1.2060   21.0070  -28.5620 C   0  0  0  0  0  0  0  0  0  0  0  0
   -2.0170   21.3820  -29.8110 C   0  0  0  0  0  0  0  0  0  0  0  0
   -1.1180   22.0770  -30.8480 C   0  0  0  0  0  0  0  0  0  0  0  0
   -2.0100   18.6420  -32.8570 C   0  0  0  0  0  0  0  0  0  0  0  0
   -3.3030   18.1470  -32.9540 C   0  0  0  0  0  0  0  0  0  0  0  0
   -7.1580   22.1760  -32.7040 C   0  0  0  0  0  0  0  0  0  0  0  0
   -6.7220   23.3670  -32.1280 C   0  0  0  0  0  0  0  0  0  0  0  0
   -4.4272   24.1703  -27.9062 H   0  0  0  0  0  0  0  0  0  0  0  0
   -2.9311   23.7546  -25.9477 H   0  0  0  0  0  0  0  0  0  0  0  0
   -0.4556   23.9991  -26.1913 H   0  0  0  0  0  0  0  0  0  0  0  0
    0.4969   24.6618  -28.4056 H   0  0  0  0  0  0  0  0  0  0  0  0
   -4.4048   22.1117  -29.9599 H   0  0  0  0  0  0  0  0  0  0  0  0
   -5.2176   19.9767  -30.9502 H   0  0  0  0  0  0  0  0  0  0  0  0
   -8.1000   19.4600  -32.8000 H   0  0  0  0  0  0  0  0  0  0  0  0
   -4.8976   20.9365  -34.1203 H   0  0  0  0  0  0  0  0  0  0  0  0
   -2.5792   21.8254  -33.9660 H   0  0  0  0  0  0  0  0  0  0  0  0
   -0.3387   19.2867  -30.5838 H   0  0  0  0  0  0  0  0  0  0  0  0
    1.3963   19.8103  -30.5471 H   0  0  0  0  0  0  0  0  0  0  0  0
    0.4415   19.6341  -28.2723 H   0  0  0  0  0  0  0  0  0  0  0  0
    0.9170   21.3337  -28.7013 H   0  0  0  0  0  0  0  0  0  0  0  0
   -1.7389   20.2095  -28.0235 H   0  0  0  0  0  0  0  0  0  0  0  0
   -1.1028   21.9150  -27.9497 H   0  0  0  0  0  0  0  0  0  0  0  0
   -2.4422   20.4694  -30.2541 H   0  0  0  0  0  0  0  0  0  0  0  0
   -2.8222   22.0720  -29.5186 H   0  0  0  0  0  0  0  0  0  0  0  0
   -1.7239   22.3088  -31.7363 H   0  0  0  0  0  0  0  0  0  0  0  0
   -0.7143   22.9841  -30.3744 H   0  0  0  0  0  0  0  0  0  0  0  0
   -1.1898   17.9834  -32.5351 H   0  0  0  0  0  0  0  0  0  0  0  0
   -3.5067   17.0974  -32.6955 H   0  0  0  0  0  0  0  0  0  0  0  0
   -7.9239   22.2015  -33.4931 H   0  0  0  0  0  0  0  0  0  0  0  0
   -7.1561   24.3241  -32.4528 H   0  0  0  0  0  0  0  0  0  0  0  0
  1  2  2  0
  2  3  2  0
  2  4  1  0
  4  5  2  3
  5  6  1  0
  6  7  2  0
  7  8  1  0
  8  9  2  0
  9 10  1  0
  2 11  1  0
 11 12  2  0
 12 13  1  0
 13 14  2  0
 14 15  1  0
 15 16  1  0
 16 17  2  0
 16 18  2  0
 16 19  1  0
 19 20  2  0
 20 21  1  0
 21 22  2  0
 22 23  1  0
 23 24  2  0
 23 25  2  0
 23 26  1  0
 26 27  1  0
 27 28  1  0
 28 29  1  0
 29 30  1  0
 30 31  1  0
 22 32  1  0
 32 33  2  0
 14 34  1  0
 34 35  2  0
 10  5  1  0
 35 11  1  0
 33 19  1  0
 31 26  1  0
  6 36  1  0
  7 37  1  0
  8 38  1  0
  9 39  1  0
 12 40  1  0
 13 41  1  0
 15 42  1  0
 20 43  1  0
 21 44  1  0
 27 45  1  0
 27 46  1  0
 28 47  1  0
 28 48  1  0
 29 49  1  0
 29 50  1  0
 30 51  1  0
 30 52  1  0
 31 53  1  0
 31 54  1  0
 32 55  1  0
 33 56  1  0
 34 57  1  0
 35 58  1  0
M  CHG  1  10  -1
M  END
>  <UniqueID>  (21) 
21

>  <SMILES>  (21) 
O=S(=O)(N=c1cccc[n-]1)c1ccc(NS(=O)(=O)c2ccc(S(=O)(=O)N3CCCCC3)cc2)cc1

>  <Energy>  (21) 
72.8570975771263

>  <Genealogy>  (21) 
O=S(=O)(N=c1cccc[n-]1)c1ccc(NS(=O)(=O)c2ccc(S(=O)(=O)N3CCCCC3)cc2)cc1 (protonated)
O=S(=O)(N=c1cccc[n-]1)c1ccc(NS(=O)(=O)c2ccc(S(=O)(=O)N3CCCCC3)cc2)cc1 (3D coordinates assigned)
O=S(=O)(N=c1cccc[n-]1)c1ccc(NS(=O)(=O)c2ccc(S(=O)(=O)N3CCCCC3)cc2)cc1 (nonaromatic ring conformer: 72.8570975771263 kcal/mol)

>  <smiles>  (21) 
O=S(=O)(N=c1cccc[nH]1)c1ccc(NS(=O)(=O)c2ccc(S(=O)(=O)N3CCCCC3)cc2)cc1

>  <score_type>  (21) 
oracle

>  <origin>  (21) 
adgpu

>  <m_score__min__energy>  (21) 
-12.9

>  <m_primary>  (21) 
energy

$$$$
21:0
     RDKit          3D

 40 42  0  0  0  0  0  0  0  0999 V2000
   -4.2770   14.2160  -32.0220 C   0  0  0  0  0  0  0  0  0  0  0  0
   -4.6090   15.4800  -32.7580 C   0  0  0  0  0  0  0  0  0  0  0  0
   -3.9360   15.8060  -33.9440 C   0  0  0  0  0  0  0  0  0  0  0  0
   -4.2670   16.9690  -34.6430 C   0  0  0  0  0  0  0  0  0  0  0  0
   -5.2810   17.8060  -34.1730 C   0  0  0  0  0  0  0  0  0  0  0  0
   -5.9850   17.4830  -33.0000 C   0  0  0  0  0  0  0  0  0  0  0  0
   -7.0330   18.3420  -32.5170 N   0  0  0  0  0  0  0  0  0  0  0  0
   -8.0360   17.8260  -31.5850 C   0  0  0  0  0  0  0  0  0  0  0  0
   -7.1630   19.9840  -33.0780 S   0  0  0  0  0  0  0  0  0  0  0  0
   -8.5620   20.4740  -32.8350 O   0  0  0  0  0  0  0  0  0  0  0  0
   -6.8640   20.0550  -34.5500 O   0  0  0  0  0  0  0  0  0  0  0  0
   -5.9950   20.9930  -32.2310 C   0  0  0  0  0  0  0  0  0  0  0  0
   -6.4090   21.8870  -31.2350 C   0  0  0  0  0  0  0  0  0  0  0  0
   -5.4710   22.6810  -30.5680 C   0  0  0  0  0  0  0  0  0  0  0  0
   -4.1030   22.5890  -30.8840 C   0  0  0  0  0  0  0  0  0  0  0  0
   -3.1160   23.4360  -30.1730 C   0  0  0  0  0  0  0  0  0  0  0  0
   -1.9660   22.9980  -29.5440 C   0  0  0  0  0  0  0  0  0  0  0  0
   -1.3680   24.1290  -29.0310 C   0  0  0  0  0  0  0  0  0  0  0  0
   -0.1820   24.1350  -28.3090 O   0  0  0  0  0  0  0  0  0  0  0  0
   -2.0670   25.2470  -29.3080 N   0  0  0  0  0  0  0  0  0  0  0  0
   -3.1310   24.8130  -30.0080 C   0  0  0  0  0  0  0  0  0  0  0  0
   -4.0940   25.6740  -30.5200 O   0  0  0  0  0  0  0  0  0  0  0  0
   -3.6980   21.6980  -31.8940 C   0  0  0  0  0  0  0  0  0  0  0  0
   -4.6380   20.9070  -32.5610 C   0  0  0  0  0  0  0  0  0  0  0  0
   -5.6400   16.3140  -32.2980 C   0  0  0  0  0  0  0  0  0  0  0  0
   -4.3251   14.3992  -30.9384 H   0  0  0  0  0  0  0  0  0  0  0  0
   -4.9999   13.4327  -32.2939 H   0  0  0  0  0  0  0  0  0  0  0  0
   -3.2625   13.8891  -32.2939 H   0  0  0  0  0  0  0  0  0  0  0  0
   -3.1448   15.1437  -34.3252 H   0  0  0  0  0  0  0  0  0  0  0  0
   -3.7274   17.2263  -35.5664 H   0  0  0  0  0  0  0  0  0  0  0  0
   -5.5306   18.7245  -34.7245 H   0  0  0  0  0  0  0  0  0  0  0  0
   -7.6999   17.9989  -30.5520 H   0  0  0  0  0  0  0  0  0  0  0  0
   -8.9919   18.3442  -31.7512 H   0  0  0  0  0  0  0  0  0  0  0  0
   -8.1702   16.7469  -31.7512 H   0  0  0  0  0  0  0  0  0  0  0  0
   -7.4755   21.9646  -30.9768 H   0  0  0  0  0  0  0  0  0  0  0  0
   -5.8052   23.3832  -29.7900 H   0  0  0  0  0  0  0  0  0  0  0  0
   -1.6033   21.9623  -29.4685 H   0  0  0  0  0  0  0  0  0  0  0  0
   -2.6336   21.6230  -32.1611 H   0  0  0  0  0  0  0  0  0  0  0  0
   -4.3092   20.2136  -33.3491 H   0  0  0  0  0  0  0  0  0  0  0  0
   -6.1839   16.0506  -31.3789 H   0  0  0  0  0  0  0  0  0  0  0  0
  1  2  1  0
  2  3  2  0
  3  4  1  0
  4  5  2  0
  5  6  1  0
  6  7  1  0
  7  8  1  0
  7  9  1  0
  9 10  2  0
  9 11  2  0
  9 12  1  0
 12 13  2  0
 13 14  1  0
 14 15  2  0
 15 16  1  0
 16 17  1  0
 17 18  2  0
 18 19  1  0
 18 20  1  0
 20 21  1  0
 21 22  1  0
 15 23  1  0
 23 24  2  0
  6 25  2  0
 25  2  1  0
 24 12  1  0
 21 16  2  0
  1 26  1  0
  1 27  1  0
  1 28  1  0
  3 29  1  0
  4 30  1  0
  5 31  1  0
  8 32  1  0
  8 33  1  0
  8 34  1  0
 13 35  1  0
 14 36  1  0
 17 37  1  0
 23 38  1  0
 24 39  1  0
 25 40  1  0
M  CHG  3  19  -1  20  -1  22  -1
M  END
>  <UniqueID>  (22) 
22

>  <SMILES>  (22) 
Cc1cccc(N(C)S(=O)(=O)c2ccc(-c3cc([O-])[n-]c3[O-])cc2)c1

>  <Energy>  (22) 
76.35506880711517

>  <Genealogy>  (22) 
Cc1cccc(N(C)S(=O)(=O)c2ccc(-c3cc([O-])[n-]c3[O-])cc2)c1 (protonated)
Cc1cccc(N(C)S(=O)(=O)c2ccc(-c3cc([O-])[n-]c3[O-])cc2)c1 (3D coordinates assigned)
Cc1cccc(N(C)S(=O)(=O)c2ccc(-c3cc([O-])[n-]c3[O-])cc2)c1 (optimized conformer: 76.35506880711517 kcal/mol)

>  <smiles>  (22) 
Cc1cccc(N(C)S(=O)(=O)c2ccc(-c3cc(O)[nH]c3O)cc2)c1

>  <score_type>  (22) 
oracle

>  <origin>  (22) 
adgpu

>  <m_score__min__energy>  (22) 
-13.48

>  <m_primary>  (22) 
energy

$$$$
22:0
     RDKit          3D

 36 39  0  0  0  0  0  0  0  0999 V2000
   -5.6600   17.6690  -34.5810 C   0  0  0  0  0  0  0  0  0  0  0  0
   -6.4150   18.4380  -33.5280 C   0  0  0  0  0  0  0  0  0  0  0  0
   -7.6200   17.9220  -33.0310 C   0  0  0  0  0  0  0  0  0  0  0  0
   -8.3210   18.6320  -32.0530 C   0  0  0  0  0  0  0  0  0  0  0  0
   -9.4020   18.1750  -31.6000 O   0  0  0  0  0  0  0  0  0  0  0  0
   -7.8540   19.7870  -31.5960 O   0  0  0  0  0  0  0  0  0  0  0  0
   -6.7200   20.3270  -32.0320 C   0  0  0  0  0  0  0  0  0  0  0  0
   -6.2940   21.5500  -31.5020 C   0  0  0  0  0  0  0  0  0  0  0  0
   -5.1020   22.1440  -31.9510 C   0  0  0  0  0  0  0  0  0  0  0  0
   -4.6370   23.3630  -31.4370 O   0  0  0  0  0  0  0  0  0  0  0  0
   -3.7420   23.5030  -30.3680 C   0  0  0  0  0  0  0  0  0  0  0  0
   -3.4730   22.4060  -29.5540 C   0  0  0  0  0  0  0  0  0  0  0  0
   -2.5660   22.5410  -28.5010 C   0  0  0  0  0  0  0  0  0  0  0  0
   -2.2760   21.4600  -27.6550 C   0  0  0  0  0  0  0  0  0  0  0  0
   -1.3640   21.6170  -26.6080 C   0  0  0  0  0  0  0  0  0  0  0  0
   -0.7390   22.8500  -26.3990 C   0  0  0  0  0  0  0  0  0  0  0  0
   -1.0210   23.9330  -27.2370 C   0  0  0  0  0  0  0  0  0  0  0  0
   -1.9370   23.7890  -28.2960 C   0  0  0  0  0  0  0  0  0  0  0  0
   -2.2300   24.8300  -29.1330 N   0  0  0  0  0  0  0  0  0  0  0  0
   -1.6290   26.0570  -28.9630 O   0  0  0  0  0  0  0  0  0  0  0  0
   -3.1010   24.6800  -30.1340 N   0  0  0  0  0  0  0  0  0  0  0  0
   -4.3270   21.4850  -32.9100 C   0  0  0  0  0  0  0  0  0  0  0  0
   -4.7420   20.2650  -33.4490 C   0  0  0  0  0  0  0  0  0  0  0  0
   -5.9460   19.6720  -33.0200 C   0  0  0  0  0  0  0  0  0  0  0  0
   -4.9685   16.9647  -34.0955 H   0  0  0  0  0  0  0  0  0  0  0  0
   -6.3710   17.1112  -35.2081 H   0  0  0  0  0  0  0  0  0  0  0  0
   -5.0893   18.3697  -35.2081 H   0  0  0  0  0  0  0  0  0  0  0  0
   -8.0106   16.9654  -33.4082 H   0  0  0  0  0  0  0  0  0  0  0  0
   -6.8960   22.0498  -30.7288 H   0  0  0  0  0  0  0  0  0  0  0  0
   -3.9702   21.4423  -29.7386 H   0  0  0  0  0  0  0  0  0  0  0  0
   -2.7666   20.4887  -27.8159 H   0  0  0  0  0  0  0  0  0  0  0  0
   -1.1372   20.7680  -25.9463 H   0  0  0  0  0  0  0  0  0  0  0  0
   -0.0229   22.9684  -25.5724 H   0  0  0  0  0  0  0  0  0  0  0  0
   -0.5256   24.9005  -27.0682 H   0  0  0  0  0  0  0  0  0  0  0  0
   -3.3793   21.9325  -33.2440 H   0  0  0  0  0  0  0  0  0  0  0  0
   -4.1264   19.7652  -34.2114 H   0  0  0  0  0  0  0  0  0  0  0  0
  1  2  1  0
  2  3  2  0
  3  4  1  0
  4  5  2  0
  4  6  1  0
  6  7  1  0
  7  8  2  0
  8  9  1  0
  9 10  1  0
 10 11  1  0
 11 12  2  0
 12 13  1  0
 13 14  2  0
 14 15  1  0
 15 16  2  0
 16 17  1  0
 17 18  2  0
 18 19  1  0
 19 20  1  0
 19 21  2  0
  9 22  2  0
 22 23  1  0
 23 24  2  0
 24  2  1  0
 24  7  1  0
 21 11  1  0
 18 13  1  0
  1 25  1  0
  1 26  1  0
  1 27  1  0
  3 28  1  0
  8 29  1  0
 12 30  1  0
 14 31  1  0
 15 32  1  0
 16 33  1  0
 17 34  1  0
 22 35  1  0
 23 36  1  0
M  CHG  2  19   1  20  -1
M  END
>  <UniqueID>  (23) 
23

>  <SMILES>  (23) 
Cc1cc(=O)oc2cc(Oc3cc4ccccc4[n+]([O-])n3)ccc12

>  <Energy>  (23) 
55.594574427854475

>  <Genealogy>  (23) 
Cc1cc(=O)oc2cc(Oc3cc4ccccc4[n+]([O-])n3)ccc12 (3D coordinates assigned)
Cc1cc(=O)oc2cc(Oc3cc4ccccc4[n+]([O-])n3)ccc12 (optimized conformer: 55.594574427854475 kcal/mol)

>  <smiles>  (23) 
Cc1cc(=O)oc2cc(Oc3cc4ccccc4[n+]([O-])n3)ccc12

>  <score_type>  (23) 
oracle

>  <origin>  (23) 
adgpu

>  <m_score__min__energy>  (23) 
-9.5999999999999996

>  <m_primary>  (23) 
energy

$$$$
23:0
     RDKit          3D

 43 45  0  0  0  0  0  0  0  0999 V2000
   -3.4870   25.3040  -30.5010 O   0  0  0  0  0  0  0  0  0  0  0  0
   -4.6970   24.6200  -30.5090 C   0  0  0  0  0  0  0  0  0  0  0  0
   -5.8600   25.2880  -30.1060 C   0  0  0  0  0  0  0  0  0  0  0  0
   -7.0880   24.6210  -30.0980 C   0  0  0  0  0  0  0  0  0  0  0  0
   -7.1590   23.2840  -30.4910 C   0  0  0  0  0  0  0  0  0  0  0  0
   -6.0040   22.6090  -30.8950 C   0  0  0  0  0  0  0  0  0  0  0  0
   -4.7640   23.2710  -30.9140 C   0  0  0  0  0  0  0  0  0  0  0  0
   -3.5280   22.5100  -31.3310 C   0  0  0  0  0  0  0  0  0  0  0  0
   -3.3000   21.3460  -30.4470 N   0  0  0  0  0  0  0  0  0  0  0  0
   -2.1690   20.5110  -30.9280 C   0  0  0  0  0  0  0  0  0  0  0  0
   -0.8740   20.7840  -30.1500 C   0  0  0  0  0  0  0  0  0  0  0  0
   -1.0300   20.4760  -28.7060 N   0  0  0  0  0  0  0  0  0  0  0  0
   -0.0300   21.1990  -27.8910 C   0  0  0  0  0  0  0  0  0  0  0  0
   -0.5060   22.5910  -27.5600 C   0  0  0  0  0  0  0  0  0  0  0  0
   -0.7270   22.9580  -26.2230 C   0  0  0  0  0  0  0  0  0  0  0  0
   -1.1430   24.2550  -25.9090 C   0  0  0  0  0  0  0  0  0  0  0  0
   -1.3360   25.1950  -26.9250 C   0  0  0  0  0  0  0  0  0  0  0  0
   -1.1110   24.8430  -28.2590 C   0  0  0  0  0  0  0  0  0  0  0  0
   -1.3030   25.7910  -29.2620 O   0  0  0  0  0  0  0  0  0  0  0  0
   -0.6950   23.5420  -28.5770 C   0  0  0  0  0  0  0  0  0  0  0  0
   -2.4090   20.7080  -28.2040 C   0  0  0  0  0  0  0  0  0  0  0  0
   -3.1550   21.7650  -29.0300 C   0  0  0  0  0  0  0  0  0  0  0  0
   -5.8067   26.3417  -29.7946 H   0  0  0  0  0  0  0  0  0  0  0  0
   -7.9990   25.1502  -29.7818 H   0  0  0  0  0  0  0  0  0  0  0  0
   -8.1262   22.7602  -30.4828 H   0  0  0  0  0  0  0  0  0  0  0  0
   -6.0655   21.5539  -31.1998 H   0  0  0  0  0  0  0  0  0  0  0  0
   -3.6543   22.1572  -32.3652 H   0  0  0  0  0  0  0  0  0  0  0  0
   -2.6604   23.1822  -31.2570 H   0  0  0  0  0  0  0  0  0  0  0  0
   -2.4363   19.4506  -30.8097 H   0  0  0  0  0  0  0  0  0  0  0  0
   -1.9882   20.7633  -31.9833 H   0  0  0  0  0  0  0  0  0  0  0  0
   -0.0699   20.1579  -30.5639 H   0  0  0  0  0  0  0  0  0  0  0  0
   -0.6305   21.8520  -30.2502 H   0  0  0  0  0  0  0  0  0  0  0  0
    0.1400   20.6452  -26.9559 H   0  0  0  0  0  0  0  0  0  0  0  0
    0.9029   21.2761  -28.4687 H   0  0  0  0  0  0  0  0  0  0  0  0
   -0.5723   22.2224  -25.4199 H   0  0  0  0  0  0  0  0  0  0  0  0
   -1.3188   24.5363  -24.8602 H   0  0  0  0  0  0  0  0  0  0  0  0
   -1.6657   26.2141  -26.6744 H   0  0  0  0  0  0  0  0  0  0  0  0
   -1.9950   25.6600  -29.9890 H   0  0  0  0  0  0  0  0  0  0  0  0
   -0.5160   23.2650  -29.6264 H   0  0  0  0  0  0  0  0  0  0  0  0
   -2.9676   19.7616  -28.2518 H   0  0  0  0  0  0  0  0  0  0  0  0
   -2.3352   21.0767  -27.1702 H   0  0  0  0  0  0  0  0  0  0  0  0
   -4.1552   21.9158  -28.5978 H   0  0  0  0  0  0  0  0  0  0  0  0
   -2.5723   22.6976  -29.0039 H   0  0  0  0  0  0  0  0  0  0  0  0
  1  2  1  0
  2  3  2  0
  3  4  1  0
  4  5  2  0
  5  6  1  0
  6  7  2  0
  7  8  1  0
  8  9  1  0
  9 10  1  0
 10 11  1  0
 11 12  1  0
 12 13  1  0
 13 14  1  0
 14 15  2  0
 15 16  1  0
 16 17  2  0
 17 18  1  0
 18 19  1  0
 18 20  2  0
 12 21  1  0
 21 22  1  0
  7  2  1  0
 22  9  1  0
 20 14  1  0
  3 23  1  0
  4 24  1  0
  5 25  1  0
  6 26  1  0
  8 27  1  0
  8 28  1  0
 10 29  1  0
 10 30  1  0
 11 31  1  0
 11 32  1  0
 13 33  1  0
 13 34  1  0
 15 35  1  0
 16 36  1  0
 17 37  1  0
 19 38  1  0
 20 39  1  0
 21 40  1  0
 21 41  1  0
 22 42  1  0
 22 43  1  0
M  CHG  1   1  -1
M  END
>  <UniqueID>  (24) 
24

>  <SMILES>  (24) 
[O-]c1ccccc1CN1CCN(Cc2cccc(O)c2)CC1

>  <Energy>  (24) 
57.89739243642402

>  <Genealogy>  (24) 
[O-]c1ccccc1CN1CCN(Cc2cccc(O)c2)CC1 (protonated)
[O-]c1ccccc1CN1CCN(Cc2cccc(O)c2)CC1 (3D coordinates assigned)
[O-]c1ccccc1CN1CCN(Cc2cccc(O)c2)CC1 (nonaromatic ring conformer: 57.89739243642402 kcal/mol)

>  <smiles>  (24) 
Oc1cccc(CN2CCN(Cc3ccccc3O)CC2)c1

>  <score_type>  (24) 
oracle

>  <origin>  (24) 
adgpu

>  <m_score__min__energy>  (24) 
-11.07

>  <m_primary>  (24) 
energy

$$$$
24:0
     RDKit          3D

 59 62  0  0  0  0  0  0  0  0999 V2000
   -6.2500   14.6170  -34.4910 C   0  0  0  0  0  0  0  0  0  0  0  0
   -6.9240   15.8600  -34.6600 O   0  0  0  0  0  0  0  0  0  0  0  0
   -6.5840   17.0450  -33.9890 C   0  0  0  0  0  0  0  0  0  0  0  0
   -7.2550   17.4680  -32.8260 C   0  0  0  0  0  0  0  0  0  0  0  0
   -6.8820   18.6530  -32.1860 C   0  0  0  0  0  0  0  0  0  0  0  0
   -5.8320   19.4380  -32.6930 C   0  0  0  0  0  0  0  0  0  0  0  0
   -5.4330   20.6960  -32.0110 C   0  0  0  0  0  0  0  0  0  0  0  0
   -4.1520   20.8280  -31.4440 C   0  0  0  0  0  0  0  0  0  0  0  0
   -3.7740   22.0170  -30.8150 C   0  0  0  0  0  0  0  0  0  0  0  0
   -4.6690   23.0900  -30.7390 C   0  0  0  0  0  0  0  0  0  0  0  0
   -4.1590   24.6140  -30.0190 S   0  0  0  0  0  0  0  0  0  0  0  0
   -4.4750   25.7540  -30.9450 O   0  0  0  0  0  0  0  0  0  0  0  0
   -4.9130   24.8230  -28.7370 O   0  0  0  0  0  0  0  0  0  0  0  0
   -2.4580   24.6140  -29.6780 N   0  0  0  0  0  0  0  0  0  0  0  0
   -1.9230   24.9560  -28.3960 C   0  0  0  0  0  0  0  0  0  0  0  0
   -1.2380   26.1610  -28.2080 C   0  0  0  0  0  0  0  0  0  0  0  0
   -0.7150   26.5180  -26.9530 C   0  0  0  0  0  0  0  0  0  0  0  0
   -0.9130   25.6390  -25.8500 C   0  0  0  0  0  0  0  0  0  0  0  0
   -1.5480   24.4020  -26.0720 C   0  0  0  0  0  0  0  0  0  0  0  0
   -2.0530   24.0550  -27.3360 C   0  0  0  0  0  0  0  0  0  0  0  0
   -2.7000   22.8300  -27.5720 O   0  0  0  0  0  0  0  0  0  0  0  0
   -2.0360   21.5800  -27.7230 C   0  0  0  0  0  0  0  0  0  0  0  0
   -0.3860   25.9080  -24.4520 C   0  0  0  0  0  0  0  0  0  0  0  0
   -0.8790   27.2360  -23.8500 C   0  0  0  0  0  0  0  0  0  0  0  0
   -0.2130   28.4320  -24.4180 N   0  0  0  0  0  0  0  0  0  0  0  0
    1.2540   28.3030  -24.3790 C   0  0  0  0  0  0  0  0  0  0  0  0
   -0.6610   28.7910  -25.7790 C   0  0  0  0  0  0  0  0  0  0  0  0
   -0.0490   27.8780  -26.8480 C   0  0  0  0  0  0  0  0  0  0  0  0
   -5.9470   22.9660  -31.2970 C   0  0  0  0  0  0  0  0  0  0  0  0
   -6.3270   21.7790  -31.9300 C   0  0  0  0  0  0  0  0  0  0  0  0
   -5.1660   19.0140  -33.8560 C   0  0  0  0  0  0  0  0  0  0  0  0
   -5.5400   17.8280  -34.4970 C   0  0  0  0  0  0  0  0  0  0  0  0
   -4.8690   17.4290  -35.6470 O   0  0  0  0  0  0  0  0  0  0  0  0
   -6.1351   14.4051  -33.4177 H   0  0  0  0  0  0  0  0  0  0  0  0
   -6.8367   13.8147  -34.9624 H   0  0  0  0  0  0  0  0  0  0  0  0
   -5.2576   14.6710  -34.9624 H   0  0  0  0  0  0  0  0  0  0  0  0
   -8.0778   16.8622  -32.4186 H   0  0  0  0  0  0  0  0  0  0  0  0
   -7.4142   18.9739  -31.2784 H   0  0  0  0  0  0  0  0  0  0  0  0
   -3.4428   19.9888  -31.4963 H   0  0  0  0  0  0  0  0  0  0  0  0
   -2.7689   22.1100  -30.3778 H   0  0  0  0  0  0  0  0  0  0  0  0
   -1.1058   26.8437  -29.0603 H   0  0  0  0  0  0  0  0  0  0  0  0
   -1.6508   23.6923  -25.2379 H   0  0  0  0  0  0  0  0  0  0  0  0
   -1.8134   21.1609  -26.7307 H   0  0  0  0  0  0  0  0  0  0  0  0
   -2.6839   20.8852  -28.2775 H   0  0  0  0  0  0  0  0  0  0  0  0
   -1.0976   21.7279  -28.2775 H   0  0  0  0  0  0  0  0  0  0  0  0
   -0.7098   25.0874  -23.7949 H   0  0  0  0  0  0  0  0  0  0  0  0
    0.7091   25.9768  -24.5289 H   0  0  0  0  0  0  0  0  0  0  0  0
   -1.9602   27.3204  -24.0341 H   0  0  0  0  0  0  0  0  0  0  0  0
   -0.6361   27.2122  -22.7774 H   0  0  0  0  0  0  0  0  0  0  0  0
    1.5918   28.2733  -23.3326 H   0  0  0  0  0  0  0  0  0  0  0  0
    1.5541   27.3750  -24.8877 H   0  0  0  0  0  0  0  0  0  0  0  0
    1.7115   29.1644  -24.8877 H   0  0  0  0  0  0  0  0  0  0  0  0
   -1.7568   28.7063  -25.8255 H   0  0  0  0  0  0  0  0  0  0  0  0
   -0.3308   29.8202  -25.9835 H   0  0  0  0  0  0  0  0  0  0  0  0
   -0.1341   28.3810  -27.8225 H   0  0  0  0  0  0  0  0  0  0  0  0
    0.9957   27.6990  -26.5536 H   0  0  0  0  0  0  0  0  0  0  0  0
   -6.6548   23.8059  -31.2371 H   0  0  0  0  0  0  0  0  0  0  0  0
   -7.3323   21.6912  -32.3679 H   0  0  0  0  0  0  0  0  0  0  0  0
   -4.3441   19.6196  -34.2655 H   0  0  0  0  0  0  0  0  0  0  0  0
  1  2  1  0
  2  3  1  0
  3  4  2  0
  4  5  1  0
  5  6  2  0
  6  7  1  0
  7  8  2  0
  8  9  1  0
  9 10  2  0
 10 11  1  0
 11 12  2  0
 11 13  2  0
 11 14  1  0
 14 15  1  0
 15 16  2  0
 16 17  1  0
 17 18  2  0
 18 19  1  0
 19 20  2  0
 20 21  1  0
 21 22  1  0
 18 23  1  0
 23 24  1  0
 24 25  1  0
 25 26  1  0
 25 27  1  0
 27 28  1  0
 10 29  1  0
 29 30  2  0
  6 31  1  0
 31 32  2  0
 32 33  1  0
 32  3  1  0
 30  7  1  0
 20 15  1  0
 28 17  1  0
  1 34  1  0
  1 35  1  0
  1 36  1  0
  4 37  1  0
  5 38  1  0
  8 39  1  0
  9 40  1  0
 16 41  1  0
 19 42  1  0
 22 43  1  0
 22 44  1  0
 22 45  1  0
 23 46  1  0
 23 47  1  0
 24 48  1  0
 24 49  1  0
 26 50  1  0
 26 51  1  0
 26 52  1  0
 27 53  1  0
 27 54  1  0
 28 55  1  0
 28 56  1  0
 29 57  1  0
 30 58  1  0
 31 59  1  0
M  CHG  2  14  -1  33  -1
M  END
>  <UniqueID>  (25) 
25

>  <SMILES>  (25) 
COc1ccc(-c2ccc(S(=O)(=O)[N-]c3cc4c(cc3OC)CCN(C)CC4)cc2)cc1[O-]

>  <Energy>  (25) 
87.03449118271259

>  <Genealogy>  (25) 
COc1ccc(-c2ccc(S(=O)(=O)[N-]c3cc4c(cc3OC)CCN(C)CC4)cc2)cc1[O-] (protonated)
COc1ccc(-c2ccc(S(=O)(=O)[N-]c3cc4c(cc3OC)CCN(C)CC4)cc2)cc1[O-] (3D coordinates assigned)
COc1ccc(-c2ccc(S(=O)(=O)[N-]c3cc4c(cc3OC)CCN(C)CC4)cc2)cc1[O-] (nonaromatic ring conformer: 87.03449118271259 kcal/mol)

>  <smiles>  (25) 
COc1ccc(-c2ccc(S(=O)(=O)Nc3cc4c(cc3OC)CCN(C)CC4)cc2)cc1O

>  <score_type>  (25) 
oracle

>  <origin>  (25) 
adgpu

>  <m_score__min__energy>  (25) 
-10.199999999999999

>  <m_primary>  (25) 
energy

$$$$
25:0
     RDKit          3D

 67 71  0  0  0  0  0  0  0  0999 V2000
   -3.6030   17.8270  -34.5970 C   0  0  0  0  0  0  0  0  0  0  0  0
   -4.8090   18.2340  -33.7910 C   0  0  0  0  0  0  0  0  0  0  0  0
   -5.9210   17.3770  -33.7330 C   0  0  0  0  0  0  0  0  0  0  0  0
   -7.0560   17.7310  -32.9960 C   0  0  0  0  0  0  0  0  0  0  0  0
   -7.0940   18.9470  -32.2980 C   0  0  0  0  0  0  0  0  0  0  0  0
   -8.2560   19.3720  -31.5700 N   0  0  0  0  0  0  0  0  0  0  0  0
   -9.1980   20.3790  -31.9530 C   0  0  0  0  0  0  0  0  0  0  0  0
  -10.1510   20.0610  -32.7170 O   0  0  0  0  0  0  0  0  0  0  0  0
   -9.0880   21.7220  -31.4620 N   0  0  0  0  0  0  0  0  0  0  0  0
   -7.8580   22.4410  -31.2960 C   0  0  0  0  0  0  0  0  0  0  0  0
   -7.2080   22.9550  -32.4280 C   0  0  0  0  0  0  0  0  0  0  0  0
   -6.0110   23.6640  -32.2950 C   0  0  0  0  0  0  0  0  0  0  0  0
   -5.4610   23.8890  -31.0210 C   0  0  0  0  0  0  0  0  0  0  0  0
   -4.2760   24.6200  -30.8450 O   0  0  0  0  0  0  0  0  0  0  0  0
   -3.1420   24.1800  -30.1480 C   0  0  0  0  0  0  0  0  0  0  0  0
   -2.6750   22.8590  -30.2340 C   0  0  0  0  0  0  0  0  0  0  0  0
   -1.5760   22.4900  -29.4600 C   0  0  0  0  0  0  0  0  0  0  0  0
   -0.9870   23.3980  -28.6400 N   0  0  0  0  0  0  0  0  0  0  0  0
   -1.4420   24.6780  -28.5670 C   0  0  0  0  0  0  0  0  0  0  0  0
   -0.9130   25.5420  -27.7490 N   0  0  0  0  0  0  0  0  0  0  0  0
    0.2130   25.3440  -26.8760 C   0  0  0  0  0  0  0  0  0  0  0  0
    0.0740   25.2100  -25.4820 C   0  0  0  0  0  0  0  0  0  0  0  0
    1.2010   25.0100  -24.6780 C   0  0  0  0  0  0  0  0  0  0  0  0
    2.4740   24.9140  -25.2560 C   0  0  0  0  0  0  0  0  0  0  0  0
    3.9020   24.7040  -24.2480 S   0  0  0  0  0  0  0  0  0  0  0  0
    3.6260   23.6860  -23.1760 O   0  0  0  0  0  0  0  0  0  0  0  0
    5.0380   24.2030  -25.0970 O   0  0  0  0  0  0  0  0  0  0  0  0
    4.3310   26.2410  -23.5400 N   0  0  0  0  0  0  0  0  0  0  0  0
    3.3070   27.2510  -23.8090 C   0  0  0  0  0  0  0  0  0  0  0  0
    3.3680   28.2520  -22.6640 C   0  0  0  0  0  0  0  0  0  0  0  0
    4.1190   27.5420  -21.5470 C   0  0  0  0  0  0  0  0  0  0  0  0
    4.4200   26.1520  -22.0840 C   0  0  0  0  0  0  0  0  0  0  0  0
    2.6090   25.0180  -26.6460 C   0  0  0  0  0  0  0  0  0  0  0  0
    1.4840   25.2190  -27.4510 C   0  0  0  0  0  0  0  0  0  0  0  0
   -2.5150   25.0500  -29.3140 N   0  0  0  0  0  0  0  0  0  0  0  0
   -6.1340   23.4180  -29.8880 C   0  0  0  0  0  0  0  0  0  0  0  0
   -7.3210   22.6920  -30.0210 C   0  0  0  0  0  0  0  0  0  0  0  0
   -5.9970   19.8120  -32.3660 C   0  0  0  0  0  0  0  0  0  0  0  0
   -4.8420   19.4610  -33.0870 C   0  0  0  0  0  0  0  0  0  0  0  0
   -3.6740   20.4150  -33.1170 C   0  0  0  0  0  0  0  0  0  0  0  0
   -2.7838   17.5505  -33.9170 H   0  0  0  0  0  0  0  0  0  0  0  0
   -3.8595   16.9657  -35.2313 H   0  0  0  0  0  0  0  0  0  0  0  0
   -3.2851   18.6676  -35.2313 H   0  0  0  0  0  0  0  0  0  0  0  0
   -5.8988   16.4185  -34.2723 H   0  0  0  0  0  0  0  0  0  0  0  0
   -7.9218   17.0533  -32.9637 H   0  0  0  0  0  0  0  0  0  0  0  0
   -7.6431   22.7991  -33.4262 H   0  0  0  0  0  0  0  0  0  0  0  0
   -5.4979   24.0470  -33.1895 H   0  0  0  0  0  0  0  0  0  0  0  0
   -3.1653   22.1313  -30.8973 H   0  0  0  0  0  0  0  0  0  0  0  0
   -1.1858   21.4629  -29.5135 H   0  0  0  0  0  0  0  0  0  0  0  0
   -0.9243   25.2627  -25.0231 H   0  0  0  0  0  0  0  0  0  0  0  0
    1.0875   24.9277  -23.5870 H   0  0  0  0  0  0  0  0  0  0  0  0
    3.5136   27.7551  -24.7646 H   0  0  0  0  0  0  0  0  0  0  0  0
    2.3094   26.7933  -23.8814 H   0  0  0  0  0  0  0  0  0  0  0  0
    3.9070   29.1593  -22.9742 H   0  0  0  0  0  0  0  0  0  0  0  0
    2.3647   28.5704  -22.3447 H   0  0  0  0  0  0  0  0  0  0  0  0
    5.0524   28.0743  -21.3117 H   0  0  0  0  0  0  0  0  0  0  0  0
    3.5308   27.5036  -20.6182 H   0  0  0  0  0  0  0  0  0  0  0  0
    5.4309   25.8393  -21.7835 H   0  0  0  0  0  0  0  0  0  0  0  0
    3.7114   25.4103  -21.6869 H   0  0  0  0  0  0  0  0  0  0  0  0
    3.6050   24.9412  -27.1065 H   0  0  0  0  0  0  0  0  0  0  0  0
    1.5977   25.2794  -28.5434 H   0  0  0  0  0  0  0  0  0  0  0  0
   -5.7263   23.6204  -28.8866 H   0  0  0  0  0  0  0  0  0  0  0  0
   -7.8367   22.3158  -29.1252 H   0  0  0  0  0  0  0  0  0  0  0  0
   -6.0384   20.7814  -31.8477 H   0  0  0  0  0  0  0  0  0  0  0  0
   -3.3741   20.6599  -32.0874 H   0  0  0  0  0  0  0  0  0  0  0  0
   -2.8299   19.9448  -33.6427 H   0  0  0  0  0  0  0  0  0  0  0  0
   -3.9662   21.3360  -33.6427 H   0  0  0  0  0  0  0  0  0  0  0  0
  1  2  1  0
  2  3  2  0
  3  4  1  0
  4  5  2  0
  5  6  1  0
  6  7  1  0
  7  8  2  0
  7  9  1  0
  9 10  1  0
 10 11  2  0
 11 12  1  0
 12 13  2  0
 13 14  1  0
 14 15  1  0
 15 16  1  0
 16 17  2  0
 17 18  1  0
 18 19  1  0
 19 20  2  3
 20 21  1  0
 21 22  2  0
 22 23  1  0
 23 24  2  0
 24 25  1  0
 25 26  2  0
 25 27  2  0
 25 28  1  0
 28 29  1  0
 29 30  1  0
 30 31  1  0
 31 32  1  0
 24 33  1  0
 33 34  2  0
 19 35  1  0
 13 36  1  0
 36 37  2  0
  5 38  1  0
 38 39  2  0
 39 40  1  0
 39  2  1  0
 37 10  1  0
 35 15  2  0
 34 21  1  0
 32 28  1  0
  1 41  1  0
  1 42  1  0
  1 43  1  0
  3 44  1  0
  4 45  1  0
 11 46  1  0
 12 47  1  0
 16 48  1  0
 17 49  1  0
 22 50  1  0
 23 51  1  0
 29 52  1  0
 29 53  1  0
 30 54  1  0
 30 55  1  0
 31 56  1  0
 31 57  1  0
 32 58  1  0
 32 59  1  0
 33 60  1  0
 34 61  1  0
 36 62  1  0
 37 63  1  0
 38 64  1  0
 40 65  1  0
 40 66  1  0
 40 67  1  0
M  CHG  3   6  -1   9  -1  18  -1
M  END
>  <UniqueID>  (26) 
26

>  <SMILES>  (26) 
Cc1ccc([N-]C(=O)[N-]c2ccc(Oc3cc[n-]c(=Nc4ccc(S(=O)(=O)N5CCCC5)cc4)n3)cc2)cc1C

>  <Energy>  (26) 
94.759368371191

>  <Genealogy>  (26) 
Cc1ccc([N-]C(=O)[N-]c2ccc(Oc3cc[n-]c(=Nc4ccc(S(=O)(=O)N5CCCC5)cc4)n3)cc2)cc1C (protonated)
Cc1ccc([N-]C(=O)[N-]c2ccc(Oc3cc[n-]c(=Nc4ccc(S(=O)(=O)N5CCCC5)cc4)n3)cc2)cc1C (3D coordinates assigned)
Cc1ccc([N-]C(=O)[N-]c2ccc(Oc3cc[n-]c(=Nc4ccc(S(=O)(=O)N5CCCC5)cc4)n3)cc2)cc1C (nonaromatic ring conformer: 94.759368371191 kcal/mol)

>  <smiles>  (26) 
Cc1ccc(NC(=O)Nc2ccc(Oc3cc[nH]c(=Nc4ccc(S(=O)(=O)N5CCCC5)cc4)n3)cc2)cc1C

>  <score_type>  (26) 
oracle

>  <origin>  (26) 
adgpu

>  <m_score__min__energy>  (26) 
-13.91

>  <m_primary>  (26) 
energy

$$$$
26:0
     RDKit          3D

 58 60  0  0  0  0  0  0  0  0999 V2000
   -5.4290   25.9020  -30.4510 C   0  0  0  0  0  0  0  0  0  0  0  0
   -4.8610   24.5200  -30.3740 C   0  0  0  0  0  0  0  0  0  0  0  0
   -4.4860   23.9750  -29.1440 C   0  0  0  0  0  0  0  0  0  0  0  0
   -3.9250   22.6910  -29.0900 C   0  0  0  0  0  0  0  0  0  0  0  0
   -3.5120   22.1360  -27.7510 C   0  0  0  0  0  0  0  0  0  0  0  0
   -3.7770   21.9430  -30.2870 C   0  0  0  0  0  0  0  0  0  0  0  0
   -3.1590   20.5630  -30.2650 C   0  0  0  0  0  0  0  0  0  0  0  0
   -4.1450   22.5540  -31.5090 C   0  0  0  0  0  0  0  0  0  0  0  0
   -3.9150   21.7390  -33.0980 S   0  0  0  0  0  0  0  0  0  0  0  0
   -2.1020   21.5450  -32.9270 C   0  0  0  0  0  0  0  0  0  0  0  0
   -1.6450   20.1010  -33.1520 C   0  0  0  0  0  0  0  0  0  0  0  0
   -2.2280   19.5550  -34.3830 N   0  0  0  0  0  0  0  0  0  0  0  0
   -3.0290   18.0530  -34.0330 S   0  0  0  0  0  0  0  0  0  0  0  0
   -3.0150   17.1750  -35.2540 O   0  0  0  0  0  0  0  0  0  0  0  0
   -2.2980   17.3460  -32.9270 O   0  0  0  0  0  0  0  0  0  0  0  0
   -4.6860   18.3590  -33.5200 C   0  0  0  0  0  0  0  0  0  0  0  0
   -5.1970   17.7020  -32.3950 C   0  0  0  0  0  0  0  0  0  0  0  0
   -6.4910   17.9770  -31.9470 C   0  0  0  0  0  0  0  0  0  0  0  0
   -7.2840   18.9230  -32.6130 C   0  0  0  0  0  0  0  0  0  0  0  0
   -8.8950   19.3190  -32.0110 S   0  0  0  0  0  0  0  0  0  0  0  0
   -9.8190   19.5380  -33.1760 O   0  0  0  0  0  0  0  0  0  0  0  0
   -9.4230   18.1630  -31.2070 O   0  0  0  0  0  0  0  0  0  0  0  0
   -8.8720   20.7580  -31.0160 N   0  0  0  0  0  0  0  0  0  0  0  0
   -9.8020   21.7900  -31.5250 C   0  0  0  0  0  0  0  0  0  0  0  0
   -9.0610   22.9320  -32.2440 C   0  0  0  0  0  0  0  0  0  0  0  0
   -8.1110   23.5930  -31.4200 O   0  0  0  0  0  0  0  0  0  0  0  0
   -7.4890   22.7400  -30.4650 C   0  0  0  0  0  0  0  0  0  0  0  0
   -7.4900   21.2540  -30.8570 C   0  0  0  0  0  0  0  0  0  0  0  0
   -6.7760   19.5690  -33.7500 C   0  0  0  0  0  0  0  0  0  0  0  0
   -5.4820   19.2940  -34.1980 C   0  0  0  0  0  0  0  0  0  0  0  0
   -4.6620   23.8100  -31.5130 N   0  0  0  0  0  0  0  0  0  0  0  0
   -5.5885   26.2901  -29.4342 H   0  0  0  0  0  0  0  0  0  0  0  0
   -4.7273   26.5574  -30.9877 H   0  0  0  0  0  0  0  0  0  0  0  0
   -6.3888   25.8746  -30.9877 H   0  0  0  0  0  0  0  0  0  0  0  0
   -4.6305   24.5522  -28.2188 H   0  0  0  0  0  0  0  0  0  0  0  0
   -3.9616   22.7402  -26.9492 H   0  0  0  0  0  0  0  0  0  0  0  0
   -3.8570   21.0952  -27.6633 H   0  0  0  0  0  0  0  0  0  0  0  0
   -2.4160   22.1676  -27.6633 H   0  0  0  0  0  0  0  0  0  0  0  0
   -3.0153   20.2422  -29.2227 H   0  0  0  0  0  0  0  0  0  0  0  0
   -3.8258   19.8544  -30.7782 H   0  0  0  0  0  0  0  0  0  0  0  0
   -2.1864   20.5886  -30.7782 H   0  0  0  0  0  0  0  0  0  0  0  0
   -1.6064   22.1915  -33.6662 H   0  0  0  0  0  0  0  0  0  0  0  0
   -1.8304   21.8261  -31.8988 H   0  0  0  0  0  0  0  0  0  0  0  0
   -0.5481   20.0783  -33.2317 H   0  0  0  0  0  0  0  0  0  0  0  0
   -1.9803   19.4889  -32.3018 H   0  0  0  0  0  0  0  0  0  0  0  0
   -2.9710   20.2110  -34.7150 H   0  0  0  0  0  0  0  0  0  0  0  0
   -4.5772   16.9662  -31.8616 H   0  0  0  0  0  0  0  0  0  0  0  0
   -6.8899   17.4494  -31.0681 H   0  0  0  0  0  0  0  0  0  0  0  0
  -10.5011   21.3199  -32.2323 H   0  0  0  0  0  0  0  0  0  0  0  0
  -10.3349   22.2204  -30.6644 H   0  0  0  0  0  0  0  0  0  0  0  0
   -8.5359   22.5133  -33.1152 H   0  0  0  0  0  0  0  0  0  0  0  0
   -9.8157   23.6781  -32.5335 H   0  0  0  0  0  0  0  0  0  0  0  0
   -6.4451   23.0638  -30.3406 H   0  0  0  0  0  0  0  0  0  0  0  0
   -8.0731   22.8238  -29.5366 H   0  0  0  0  0  0  0  0  0  0  0  0
   -6.9503   21.1308  -31.8076 H   0  0  0  0  0  0  0  0  0  0  0  0
   -6.9963   20.6775  -30.0609 H   0  0  0  0  0  0  0  0  0  0  0  0
   -7.3998   20.2956  -34.2913 H   0  0  0  0  0  0  0  0  0  0  0  0
   -5.0863   19.8117  -35.0843 H   0  0  0  0  0  0  0  0  0  0  0  0
  1  2  1  0
  2  3  2  0
  3  4  1  0
  4  5  1  0
  4  6  2  0
  6  7  1  0
  6  8  1  0
  8  9  1  0
  9 10  1  0
 10 11  1  0
 11 12  1  0
 12 13  1  0
 13 14  2  0
 13 15  2  0
 13 16  1  0
 16 17  2  0
 17 18  1  0
 18 19  2  0
 19 20  1  0
 20 21  2  0
 20 22  2  0
 20 23  1  0
 23 24  1  0
 24 25  1  0
 25 26  1  0
 26 27  1  0
 27 28  1  0
 19 29  1  0
 29 30  2  0
  8 31  2  0
 31  2  1  0
 30 16  1  0
 28 23  1  0
  1 32  1  0
  1 33  1  0
  1 34  1  0
  3 35  1  0
  5 36  1  0
  5 37  1  0
  5 38  1  0
  7 39  1  0
  7 40  1  0
  7 41  1  0
 10 42  1  0
 10 43  1  0
 11 44  1  0
 11 45  1  0
 12 46  1  0
 17 47  1  0
 18 48  1  0
 24 49  1  0
 24 50  1  0
 25 51  1  0
 25 52  1  0
 27 53  1  0
 27 54  1  0
 28 55  1  0
 28 56  1  0
 29 57  1  0
 30 58  1  0
M  END
>  <UniqueID>  (27) 
27

>  <SMILES>  (27) 
Cc1cc(C)c(C)c(SCCNS(=O)(=O)c2ccc(S(=O)(=O)N3CCOCC3)cc2)n1

>  <Energy>  (27) 
63.89213863349753

>  <Genealogy>  (27) 
Cc1cc(C)c(C)c(SCCNS(=O)(=O)c2ccc(S(=O)(=O)N3CCOCC3)cc2)n1 (3D coordinates assigned)
Cc1cc(C)c(C)c(SCCNS(=O)(=O)c2ccc(S(=O)(=O)N3CCOCC3)cc2)n1 (nonaromatic ring conformer: 63.89213863349753 kcal/mol)

>  <smiles>  (27) 
Cc1cc(C)c(C)c(SCCNS(=O)(=O)c2ccc(S(=O)(=O)N3CCOCC3)cc2)n1

>  <score_type>  (27) 
oracle

>  <origin>  (27) 
adgpu

>  <m_score__min__energy>  (27) 
-10.85

>  <m_primary>  (27) 
energy

$$$$
27:0
     RDKit          3D

 53 56  0  0  0  0  0  0  0  0999 V2000
   -8.5960   23.0530  -31.7500 C   0  0  0  0  0  0  0  0  0  0  0  0
   -8.3330   21.6020  -32.0040 C   0  0  0  0  0  0  0  0  0  0  0  0
   -9.3950   20.7240  -32.2510 C   0  0  0  0  0  0  0  0  0  0  0  0
   -9.1320   19.3740  -32.4850 C   0  0  0  0  0  0  0  0  0  0  0  0
   -7.8110   18.9070  -32.4700 C   0  0  0  0  0  0  0  0  0  0  0  0
   -7.5160   17.5570  -32.7020 C   0  0  0  0  0  0  0  0  0  0  0  0
   -6.1900   17.1200  -32.6800 C   0  0  0  0  0  0  0  0  0  0  0  0
   -5.1530   18.0220  -32.4270 C   0  0  0  0  0  0  0  0  0  0  0  0
   -5.4300   19.3840  -32.1950 C   0  0  0  0  0  0  0  0  0  0  0  0
   -4.4170   20.3260  -31.9420 O   0  0  0  0  0  0  0  0  0  0  0  0
   -3.8190   21.1780  -32.9200 C   0  0  0  0  0  0  0  0  0  0  0  0
   -2.3310   20.9300  -33.0080 C   0  0  0  0  0  0  0  0  0  0  0  0
   -1.7890   20.4700  -34.2200 C   0  0  0  0  0  0  0  0  0  0  0  0
   -0.4180   20.2370  -34.3400 C   0  0  0  0  0  0  0  0  0  0  0  0
    0.4270   20.4690  -33.2560 C   0  0  0  0  0  0  0  0  0  0  0  0
   -0.0930   20.9400  -32.0490 C   0  0  0  0  0  0  0  0  0  0  0  0
   -1.4750   21.1850  -31.9120 C   0  0  0  0  0  0  0  0  0  0  0  0
   -2.0300   21.6700  -30.7130 O   0  0  0  0  0  0  0  0  0  0  0  0
   -2.3820   20.8810  -29.5760 C   0  0  0  0  0  0  0  0  0  0  0  0
   -2.9560   21.7630  -28.4660 C   0  0  0  0  0  0  0  0  0  0  0  0
   -2.9740   23.2030  -28.8900 C   0  0  0  0  0  0  0  0  0  0  0  0
   -3.9480   23.8630  -29.6150 C   0  0  0  0  0  0  0  0  0  0  0  0
   -5.2320   23.2850  -30.1170 C   0  0  0  0  0  0  0  0  0  0  0  0
   -3.5390   25.1190  -29.8790 N   0  0  0  0  0  0  0  0  0  0  0  0
   -2.3360   25.2900  -29.3480 N   0  0  0  0  0  0  0  0  0  0  0  0
   -1.9690   24.1410  -28.7480 C   0  0  0  0  0  0  0  0  0  0  0  0
   -0.6560   23.9420  -28.0640 C   0  0  0  0  0  0  0  0  0  0  0  0
   -6.7640   19.8220  -32.2140 C   0  0  0  0  0  0  0  0  0  0  0  0
   -7.0550   21.1330  -31.9910 N   0  0  0  0  0  0  0  0  0  0  0  0
   -8.6290   23.2353  -30.6657 H   0  0  0  0  0  0  0  0  0  0  0  0
   -7.7924   23.6553  -32.1988 H   0  0  0  0  0  0  0  0  0  0  0  0
   -9.5599   23.3350  -32.1988 H   0  0  0  0  0  0  0  0  0  0  0  0
  -10.4301   21.0961  -32.2605 H   0  0  0  0  0  0  0  0  0  0  0  0
   -9.9604   18.6773  -32.6810 H   0  0  0  0  0  0  0  0  0  0  0  0
   -8.3281   16.8423  -32.9012 H   0  0  0  0  0  0  0  0  0  0  0  0
   -5.9604   16.0599  -32.8628 H   0  0  0  0  0  0  0  0  0  0  0  0
   -4.1124   17.6660  -32.4088 H   0  0  0  0  0  0  0  0  0  0  0  0
   -4.2766   20.9789  -33.9003 H   0  0  0  0  0  0  0  0  0  0  0  0
   -3.9858   22.2247  -32.6258 H   0  0  0  0  0  0  0  0  0  0  0  0
   -2.4502   20.2921  -35.0809 H   0  0  0  0  0  0  0  0  0  0  0  0
   -0.0041   19.8700  -35.2908 H   0  0  0  0  0  0  0  0  0  0  0  0
    1.5065   20.2805  -33.3518 H   0  0  0  0  0  0  0  0  0  0  0  0
    0.5804   21.1214  -31.1984 H   0  0  0  0  0  0  0  0  0  0  0  0
   -3.1354   20.1362  -29.8720 H   0  0  0  0  0  0  0  0  0  0  0  0
   -1.4787   20.3792  -29.1990 H   0  0  0  0  0  0  0  0  0  0  0  0
   -3.9832   21.4394  -28.2422 H   0  0  0  0  0  0  0  0  0  0  0  0
   -2.3223   21.6648  -27.5723 H   0  0  0  0  0  0  0  0  0  0  0  0
   -5.8645   23.0003  -29.2633 H   0  0  0  0  0  0  0  0  0  0  0  0
   -5.7568   24.0337  -30.7286 H   0  0  0  0  0  0  0  0  0  0  0  0
   -5.0195   22.3957  -30.7286 H   0  0  0  0  0  0  0  0  0  0  0  0
   -0.8032   23.9643  -26.9741 H   0  0  0  0  0  0  0  0  0  0  0  0
   -0.2335   22.9696  -28.3571 H   0  0  0  0  0  0  0  0  0  0  0  0
    0.0356   24.7456  -28.3571 H   0  0  0  0  0  0  0  0  0  0  0  0
  1  2  1  0
  2  3  2  0
  3  4  1  0
  4  5  2  0
  5  6  1  0
  6  7  2  0
  7  8  1  0
  8  9  2  0
  9 10  1  0
 10 11  1  0
 11 12  1  0
 12 13  2  0
 13 14  1  0
 14 15  2  0
 15 16  1  0
 16 17  2  0
 17 18  1  0
 18 19  1  0
 19 20  1  0
 20 21  1  0
 21 22  1  0
 22 23  1  0
 22 24  2  0
 24 25  1  0
 25 26  1  0
 26 27  1  0
  9 28  1  0
 28 29  2  0
 29  2  1  0
 28  5  1  0
 17 12  1  0
 26 21  2  0
  1 30  1  0
  1 31  1  0
  1 32  1  0
  3 33  1  0
  4 34  1  0
  6 35  1  0
  7 36  1  0
  8 37  1  0
 11 38  1  0
 11 39  1  0
 13 40  1  0
 14 41  1  0
 15 42  1  0
 16 43  1  0
 19 44  1  0
 19 45  1  0
 20 46  1  0
 20 47  1  0
 23 48  1  0
 23 49  1  0
 23 50  1  0
 27 51  1  0
 27 52  1  0
 27 53  1  0
M  CHG  1  25  -1
M  END
>  <UniqueID>  (28) 
28

>  <SMILES>  (28) 
Cc1ccc2cccc(OCc3ccccc3OCCc3c(C)n[n-]c3C)c2n1

>  <Energy>  (28) 
83.75574761251096

>  <Genealogy>  (28) 
Cc1ccc2cccc(OCc3ccccc3OCCc3c(C)n[n-]c3C)c2n1 (protonated)
Cc1ccc2cccc(OCc3ccccc3OCCc3c(C)n[n-]c3C)c2n1 (3D coordinates assigned)
Cc1ccc2cccc(OCc3ccccc3OCCc3c(C)n[n-]c3C)c2n1 (optimized conformer: 83.75574761251096 kcal/mol)

>  <smiles>  (28) 
Cc1ccc2cccc(OCc3ccccc3OCCc3c(C)n[nH]c3C)c2n1

>  <score_type>  (28) 
oracle

>  <origin>  (28) 
adgpu

>  <m_score__min__energy>  (28) 
-11.640000000000001

>  <m_primary>  (28) 
energy

$$$$
28:0
     RDKit          3D

 44 46  0  0  0  0  0  0  0  0999 V2000
   -5.2160   26.8790  -29.7200 H   0  0  0  0  0  0  0  0  0  0  0  0
   -6.0110   26.3380  -30.0410 O   0  0  0  0  0  0  0  0  0  0  0  0
   -5.8760   25.0120  -30.4480 C   0  0  0  0  0  0  0  0  0  0  0  0
   -7.0070   24.2150  -30.6440 C   0  0  0  0  0  0  0  0  0  0  0  0
   -8.0090   24.6383  -30.4802 H   0  0  0  0  0  0  0  0  0  0  0  0
   -6.8730   22.8830  -31.0470 C   0  0  0  0  0  0  0  0  0  0  0  0
   -8.3140   21.8890  -31.2410 S   0  0  0  0  0  0  0  0  0  0  0  0
   -9.1890   22.4330  -32.3370 O   0  0  0  0  0  0  0  0  0  0  0  0
   -9.0910   21.8930  -29.9550 O   0  0  0  0  0  0  0  0  0  0  0  0
   -7.8430   20.2620  -31.6240 N   0  0  0  0  0  0  0  0  0  0  0  0
   -7.5980   20.1420  -33.0580 C   0  0  0  0  0  0  0  0  0  0  0  0
   -7.5563   21.1442  -33.5096 H   0  0  0  0  0  0  0  0  0  0  0  0
   -8.4109   19.5671  -33.5257 H   0  0  0  0  0  0  0  0  0  0  0  0
   -6.2930   19.4390  -33.2760 C   0  0  0  0  0  0  0  0  0  0  0  0
   -5.0950   20.0590  -33.5710 C   0  0  0  0  0  0  0  0  0  0  0  0
   -4.9132   21.1417  -33.6402 H   0  0  0  0  0  0  0  0  0  0  0  0
   -4.1700   19.0510  -33.7620 C   0  0  0  0  0  0  0  0  0  0  0  0
   -3.1050   19.1753  -34.0076 H   0  0  0  0  0  0  0  0  0  0  0  0
   -4.8410   17.8570  -33.5850 C   0  0  0  0  0  0  0  0  0  0  0  0
   -4.3883   16.8585  -33.6749 H   0  0  0  0  0  0  0  0  0  0  0  0
   -6.1320   18.0970  -33.2860 N   0  0  0  0  0  0  0  0  0  0  0  0
   -7.1690   17.0850  -33.0980 C   0  0  0  0  0  0  0  0  0  0  0  0
   -7.3337   16.9242  -32.0224 H   0  0  0  0  0  0  0  0  0  0  0  0
   -8.1043   17.4272  -33.5651 H   0  0  0  0  0  0  0  0  0  0  0  0
   -6.8497   16.1417  -33.5651 H   0  0  0  0  0  0  0  0  0  0  0  0
   -5.5960   22.3460  -31.2550 C   0  0  0  0  0  0  0  0  0  0  0  0
   -5.4918   21.2976  -31.5713 H   0  0  0  0  0  0  0  0  0  0  0  0
   -4.4460   23.1320  -31.0640 C   0  0  0  0  0  0  0  0  0  0  0  0
   -3.1230   22.5060  -31.2970 C   0  0  0  0  0  0  0  0  0  0  0  0
   -2.3436   22.5914  -30.5254 H   0  0  0  0  0  0  0  0  0  0  0  0
   -2.8640   21.8580  -32.3940 N   0  0  0  0  0  0  0  0  0  0  0  0
   -1.6280   21.2020  -32.7290 C   0  0  0  0  0  0  0  0  0  0  0  0
   -1.1220   21.1660  -34.0460 C   0  0  0  0  0  0  0  0  0  0  0  0
   -1.6847   21.6424  -34.8624 H   0  0  0  0  0  0  0  0  0  0  0  0
    0.0920   20.5270  -34.3170 C   0  0  0  0  0  0  0  0  0  0  0  0
    0.4777   20.4961  -35.3467 H   0  0  0  0  0  0  0  0  0  0  0  0
    0.8160   19.9280  -33.2840 C   0  0  0  0  0  0  0  0  0  0  0  0
    1.7672   19.4201  -33.5014 H   0  0  0  0  0  0  0  0  0  0  0  0
    0.3320   19.9740  -31.9750 C   0  0  0  0  0  0  0  0  0  0  0  0
    0.9068   19.5081  -31.1610 H   0  0  0  0  0  0  0  0  0  0  0  0
   -0.8820   20.6110  -31.6960 C   0  0  0  0  0  0  0  0  0  0  0  0
   -1.3480   20.6510  -30.3870 O   0  0  0  0  0  0  0  0  0  0  0  0
   -4.5960   24.4790  -30.6570 C   0  0  0  0  0  0  0  0  0  0  0  0
   -3.4890   25.2980  -30.4580 O   0  0  0  0  0  0  0  0  0  0  0  0
  1  2  1  0
  2  3  1  0
  3  4  2  0
  4  5  1  0
  4  6  1  0
  6  7  1  0
  7  8  2  0
  7  9  2  0
  7 10  1  0
 10 11  1  0
 11 12  1  0
 11 13  1  0
 11 14  1  0
 14 15  2  0
 15 16  1  0
 15 17  1  0
 17 18  1  0
 17 19  2  0
 19 20  1  0
 19 21  1  0
 21 22  1  0
 22 23  1  0
 22 24  1  0
 22 25  1  0
  6 26  2  0
 26 27  1  0
 26 28  1  0
 28 29  1  0
 29 30  1  0
 29 31  2  0
 31 32  1  0
 32 33  2  0
 33 34  1  0
 33 35  1  0
 35 36  1  0
 35 37  2  0
 37 38  1  0
 37 39  1  0
 39 40  1  0
 39 41  2  0
 41 42  1  0
 28 43  2  0
 43 44  1  0
 43  3  1  0
 21 14  1  0
 41 32  1  0
M  CHG  3  10  -1  42  -1  44  -1
M  END
>  <UniqueID>  (29) 
29

>  <SMILES>  (29) 
Cn1cccc1C[N-]S(=O)(=O)c1cc(O)c([O-])c(/C=N/c2ccccc2[O-])c1

>  <Energy>  (29) 
72.49120021964505

>  <Genealogy>  (29) 
Cn1cccc1C[N-]S(=O)(=O)c1cc(O)c([O-])c(C=Nc2ccccc2[O-])c1 (protonated)
Cn1cccc1C[N-]S(=O)(=O)c1cc(O)c([O-])c(/C=N/c2ccccc2[O-])c1 (cis-trans isomerization)
Cn1cccc1C[N-]S(=O)(=O)c1cc(O)c([O-])c(/C=N/c2ccccc2[O-])c1 (3D coordinates assigned)
Cn1cccc1C[N-]S(=O)(=O)c1cc(O)c([O-])c(/C=N/c2ccccc2[O-])c1 (optimized conformer: 72.49120021964505 kcal/mol)

>  <smiles>  (29) 
Cn1cccc1CNS(=O)(=O)c1cc(O)c(O)c(C=Nc2ccccc2O)c1

>  <score_type>  (29) 
oracle

>  <origin>  (29) 
adgpu

>  <m_score__min__energy>  (29) 
-11.91

>  <m_primary>  (29) 
energy

$$$$
29:0
     RDKit          3D

 34 36  0  0  0  0  0  0  0  0999 V2000
    0.0990   22.0190  -27.9690 O   0  0  0  0  0  0  0  0  0  0  0  0
   -0.0960   23.1780  -28.4220 C   0  0  0  0  0  0  0  0  0  0  0  0
    0.9000   24.1370  -28.2850 O   0  0  0  0  0  0  0  0  0  0  0  0
   -1.3740   23.5310  -29.0620 C   0  0  0  0  0  0  0  0  0  0  0  0
   -2.2600   22.6280  -29.6300 C   0  0  0  0  0  0  0  0  0  0  0  0
   -3.2750   23.2860  -30.2350 N   0  0  0  0  0  0  0  0  0  0  0  0
   -4.3750   22.6790  -30.9400 C   0  0  0  0  0  0  0  0  0  0  0  0
   -4.1470   21.6080  -31.8230 C   0  0  0  0  0  0  0  0  0  0  0  0
   -5.2110   21.0200  -32.5130 C   0  0  0  0  0  0  0  0  0  0  0  0
   -6.5110   21.4990  -32.3360 C   0  0  0  0  0  0  0  0  0  0  0  0
   -6.7500   22.5700  -31.4720 C   0  0  0  0  0  0  0  0  0  0  0  0
   -8.0410   23.0530  -31.3040 O   0  0  0  0  0  0  0  0  0  0  0  0
   -5.6870   23.1600  -30.7770 C   0  0  0  0  0  0  0  0  0  0  0  0
   -3.0480   24.6030  -30.0450 C   0  0  0  0  0  0  0  0  0  0  0  0
   -3.8880   25.6210  -30.4850 O   0  0  0  0  0  0  0  0  0  0  0  0
   -1.8960   24.7910  -29.3180 C   0  0  0  0  0  0  0  0  0  0  0  0
   -1.3570   26.0640  -28.9350 N   0  0  0  0  0  0  0  0  0  0  0  0
   -1.1410   26.4660  -27.5710 C   0  0  0  0  0  0  0  0  0  0  0  0
   -0.3900   27.6140  -27.2510 C   0  0  0  0  0  0  0  0  0  0  0  0
   -0.1860   27.9730  -25.9150 C   0  0  0  0  0  0  0  0  0  0  0  0
   -0.7170   27.1870  -24.8890 C   0  0  0  0  0  0  0  0  0  0  0  0
   -1.4490   26.0370  -25.1970 C   0  0  0  0  0  0  0  0  0  0  0  0
   -1.6560   25.6750  -26.5310 C   0  0  0  0  0  0  0  0  0  0  0  0
   -2.1527   21.5338  -29.5937 H   0  0  0  0  0  0  0  0  0  0  0  0
   -3.1245   21.2306  -31.9715 H   0  0  0  0  0  0  0  0  0  0  0  0
   -5.0241   20.1786  -33.1965 H   0  0  0  0  0  0  0  0  0  0  0  0
   -7.3472   21.0324  -32.8774 H   0  0  0  0  0  0  0  0  0  0  0  0
   -5.8791   24.0049  -30.0993 H   0  0  0  0  0  0  0  0  0  0  0  0
   -1.2290   26.7780  -29.6870 H   0  0  0  0  0  0  0  0  0  0  0  0
    0.0377   28.2306  -28.0553 H   0  0  0  0  0  0  0  0  0  0  0  0
    0.3935   28.8757  -25.6713 H   0  0  0  0  0  0  0  0  0  0  0  0
   -0.5589   27.4734  -23.8388 H   0  0  0  0  0  0  0  0  0  0  0  0
   -1.8627   25.4161  -24.3887 H   0  0  0  0  0  0  0  0  0  0  0  0
   -2.2260   24.7645  -26.7679 H   0  0  0  0  0  0  0  0  0  0  0  0
  1  2  2  0
  2  3  1  0
  2  4  1  0
  4  5  2  0
  5  6  1  0
  6  7  1  0
  7  8  2  0
  8  9  1  0
  9 10  2  0
 10 11  1  0
 11 12  1  0
 11 13  2  0
  6 14  1  0
 14 15  1  0
 14 16  2  0
 16 17  1  0
 17 18  1  0
 18 19  2  0
 19 20  1  0
 20 21  2  0
 21 22  1  0
 22 23  2  0
 16  4  1  0
 23 18  1  0
 13  7  1  0
  5 24  1  0
  8 25  1  0
  9 26  1  0
 10 27  1  0
 13 28  1  0
 17 29  1  0
 19 30  1  0
 20 31  1  0
 21 32  1  0
 22 33  1  0
 23 34  1  0
M  CHG  3   3  -1  12  -1  15  -1
M  END
>  <UniqueID>  (30) 
30

>  <SMILES>  (30) 
O=C([O-])c1cn(-c2cccc([O-])c2)c([O-])c1Nc1ccccc1

>  <Energy>  (30) 
76.76108217702647

>  <Genealogy>  (30) 
O=C([O-])c1cn(-c2cccc([O-])c2)c([O-])c1Nc1ccccc1 (protonated)
O=C([O-])c1cn(-c2cccc([O-])c2)c([O-])c1Nc1ccccc1 (3D coordinates assigned)
O=C([O-])c1cn(-c2cccc([O-])c2)c([O-])c1Nc1ccccc1 (optimized conformer: 76.76108217702647 kcal/mol)

>  <smiles>  (30) 
O=C(O)c1cn(-c2cccc(O)c2)c(O)c1Nc1ccccc1

>  <score_type>  (30) 
oracle

>  <origin>  (30) 
adgpu

>  <m_score__min__energy>  (30) 
-10.68

>  <m_primary>  (30) 
energy

$$$$
30:0
     RDKit          3D

 69 73  0  0  0  0  0  0  0  0999 V2000
   -0.1830   22.7850  -25.2170 C   0  0  0  0  0  0  0  0  0  0  0  0
   -0.1470   22.4560  -26.6010 O   0  0  0  0  0  0  0  0  0  0  0  0
   -0.9110   23.0890  -27.5930 C   0  0  0  0  0  0  0  0  0  0  0  0
   -1.0490   24.4900  -27.6380 C   0  0  0  0  0  0  0  0  0  0  0  0
   -1.8770   25.0900  -28.5900 C   0  0  0  0  0  0  0  0  0  0  0  0
   -2.5900   24.3060  -29.4950 C   0  0  0  0  0  0  0  0  0  0  0  0
   -3.4810   24.9310  -30.4210 N   0  0  0  0  0  0  0  0  0  0  0  0
   -5.1960   24.9210  -30.1820 S   0  0  0  0  0  0  0  0  0  0  0  0
   -5.4950   25.0320  -28.7140 O   0  0  0  0  0  0  0  0  0  0  0  0
   -5.7940   26.1110  -30.8770 O   0  0  0  0  0  0  0  0  0  0  0  0
   -5.9180   23.4500  -30.8290 C   0  0  0  0  0  0  0  0  0  0  0  0
   -7.1330   22.9750  -30.3110 C   0  0  0  0  0  0  0  0  0  0  0  0
   -7.6900   21.7890  -30.7960 C   0  0  0  0  0  0  0  0  0  0  0  0
   -7.0260   21.0620  -31.7930 C   0  0  0  0  0  0  0  0  0  0  0  0
   -5.8270   21.5430  -32.3290 C   0  0  0  0  0  0  0  0  0  0  0  0
   -5.2720   22.7380  -31.8490 C   0  0  0  0  0  0  0  0  0  0  0  0
   -5.2110   20.7860  -33.4730 C   0  0  0  0  0  0  0  0  0  0  0  0
   -5.2520   19.3180  -33.2600 N   0  0  0  0  0  0  0  0  0  0  0  0
   -3.9480   18.7200  -32.8930 C   0  0  0  0  0  0  0  0  0  0  0  0
   -2.7570   19.5780  -33.2740 C   0  0  0  0  0  0  0  0  0  0  0  0
   -2.4660   20.7470  -32.5520 C   0  0  0  0  0  0  0  0  0  0  0  0
   -1.3650   21.5300  -32.8980 C   0  0  0  0  0  0  0  0  0  0  0  0
   -0.5610   21.1450  -33.9740 C   0  0  0  0  0  0  0  0  0  0  0  0
    0.4510   21.8720  -34.3200 N   0  0  0  0  0  0  0  0  0  0  0  0
   -0.8410   19.9970  -34.6510 N   0  0  0  0  0  0  0  0  0  0  0  0
   -1.9000   19.2100  -34.3220 C   0  0  0  0  0  0  0  0  0  0  0  0
   -6.4050   18.7700  -32.4890 C   0  0  0  0  0  0  0  0  0  0  0  0
   -7.5640   19.7670  -32.3270 C   0  0  0  0  0  0  0  0  0  0  0  0
   -2.4200   22.9170  -29.4940 C   0  0  0  0  0  0  0  0  0  0  0  0
   -1.5770   22.2980  -28.5550 C   0  0  0  0  0  0  0  0  0  0  0  0
   -1.4370   20.8630  -28.5580 N   0  0  0  0  0  0  0  0  0  0  0  0
   -1.3550   20.1050  -29.8100 C   0  0  0  0  0  0  0  0  0  0  0  0
   -0.1150   19.1930  -29.8020 C   0  0  0  0  0  0  0  0  0  0  0  0
    0.2460   18.6730  -28.4560 N   0  0  0  0  0  0  0  0  0  0  0  0
    1.4410   19.3450  -27.9150 C   0  0  0  0  0  0  0  0  0  0  0  0
   -0.8790   18.7000  -27.4970 C   0  0  0  0  0  0  0  0  0  0  0  0
   -1.4180   20.1250  -27.2900 C   0  0  0  0  0  0  0  0  0  0  0  0
   -0.0826   21.8671  -24.6192 H   0  0  0  0  0  0  0  0  0  0  0  0
    0.6457   23.4688  -24.9810 H   0  0  0  0  0  0  0  0  0  0  0  0
   -1.1399   23.2734  -24.9810 H   0  0  0  0  0  0  0  0  0  0  0  0
   -0.5010   25.1161  -26.9185 H   0  0  0  0  0  0  0  0  0  0  0  0
   -1.9665   26.1858  -28.6253 H   0  0  0  0  0  0  0  0  0  0  0  0
   -7.6488   23.5389  -29.5198 H   0  0  0  0  0  0  0  0  0  0  0  0
   -8.6483   21.4265  -30.3958 H   0  0  0  0  0  0  0  0  0  0  0  0
   -4.3301   23.1165  -32.2728 H   0  0  0  0  0  0  0  0  0  0  0  0
   -5.7621   21.0259  -34.3942 H   0  0  0  0  0  0  0  0  0  0  0  0
   -4.1557   21.0872  -33.5481 H   0  0  0  0  0  0  0  0  0  0  0  0
   -3.9307   18.5652  -31.8041 H   0  0  0  0  0  0  0  0  0  0  0  0
   -3.8575   17.7767  -33.4516 H   0  0  0  0  0  0  0  0  0  0  0  0
   -3.1086   21.0460  -31.7108 H   0  0  0  0  0  0  0  0  0  0  0  0
   -1.1317   22.4421  -32.3292 H   0  0  0  0  0  0  0  0  0  0  0  0
    1.0660   21.6060  -35.1210 H   0  0  0  0  0  0  0  0  0  0  0  0
   -2.0856   18.2805  -34.8802 H   0  0  0  0  0  0  0  0  0  0  0  0
   -6.7825   17.8795  -33.0130 H   0  0  0  0  0  0  0  0  0  0  0  0
   -6.0367   18.5353  -31.4794 H   0  0  0  0  0  0  0  0  0  0  0  0
   -8.0400   19.9405  -33.3034 H   0  0  0  0  0  0  0  0  0  0  0  0
   -8.3093   19.3589  -31.6284 H   0  0  0  0  0  0  0  0  0  0  0  0
   -2.9517   22.3031  -30.2359 H   0  0  0  0  0  0  0  0  0  0  0  0
   -2.2588   19.4877  -29.9204 H   0  0  0  0  0  0  0  0  0  0  0  0
   -1.2753   20.8100  -30.6506 H   0  0  0  0  0  0  0  0  0  0  0  0
   -0.3121   18.3357  -30.4624 H   0  0  0  0  0  0  0  0  0  0  0  0
    0.7323   19.8056  -30.1438 H   0  0  0  0  0  0  0  0  0  0  0  0
    1.4065   19.3256  -26.8157 H   0  0  0  0  0  0  0  0  0  0  0  0
    2.3444   18.8226  -28.2628 H   0  0  0  0  0  0  0  0  0  0  0  0
    1.4640   20.3883  -28.2628 H   0  0  0  0  0  0  0  0  0  0  0  0
   -1.6904   18.0647  -27.8818 H   0  0  0  0  0  0  0  0  0  0  0  0
   -0.5121   18.3289  -26.5286 H   0  0  0  0  0  0  0  0  0  0  0  0
   -2.4410   20.0692  -26.8896 H   0  0  0  0  0  0  0  0  0  0  0  0
   -0.7595   20.6525  -26.5843 H   0  0  0  0  0  0  0  0  0  0  0  0
  1  2  1  0
  2  3  1  0
  3  4  2  0
  4  5  1  0
  5  6  2  0
  6  7  1  0
  7  8  1  0
  8  9  2  0
  8 10  2  0
  8 11  1  0
 11 12  2  0
 12 13  1  0
 13 14  2  0
 14 15  1  0
 15 16  2  0
 15 17  1  0
 17 18  1  0
 18 19  1  0
 19 20  1  0
 20 21  1  0
 21 22  2  0
 22 23  1  0
 23 24  2  3
 23 25  1  0
 25 26  1  0
 18 27  1  0
 27 28  1  0
  6 29  1  0
 29 30  2  0
 30 31  1  0
 31 32  1  0
 32 33  1  0
 33 34  1  0
 34 35  1  0
 34 36  1  0
 36 37  1  0
 30  3  1  0
 37 31  1  0
 16 11  1  0
 26 20  2  0
 28 14  1  0
  1 38  1  0
  1 39  1  0
  1 40  1  0
  4 41  1  0
  5 42  1  0
 12 43  1  0
 13 44  1  0
 16 45  1  0
 17 46  1  0
 17 47  1  0
 19 48  1  0
 19 49  1  0
 21 50  1  0
 22 51  1  0
 24 52  1  0
 26 53  1  0
 27 54  1  0
 27 55  1  0
 28 56  1  0
 28 57  1  0
 29 58  1  0
 32 59  1  0
 32 60  1  0
 33 61  1  0
 33 62  1  0
 35 63  1  0
 35 64  1  0
 35 65  1  0
 36 66  1  0
 36 67  1  0
 37 68  1  0
 37 69  1  0
M  CHG  2   7  -1  25  -1
M  END
>  <UniqueID>  (31) 
31

>  <SMILES>  (31) 
COc1ccc([N-]S(=O)(=O)c2ccc3c(c2)CN(Cc2ccc(=N)[n-]c2)CC3)cc1N1CCN(C)CC1

>  <Energy>  (31) 
98.27749681852694

>  <Genealogy>  (31) 
COc1ccc([N-]S(=O)(=O)c2ccc3c(c2)CN(Cc2ccc(=N)[n-]c2)CC3)cc1N1CCN(C)CC1 (protonated)
COc1ccc([N-]S(=O)(=O)c2ccc3c(c2)CN(Cc2ccc(=N)[n-]c2)CC3)cc1N1CCN(C)CC1 (3D coordinates assigned)
COc1ccc([N-]S(=O)(=O)c2ccc3c(c2)CN(Cc2ccc(=N)[n-]c2)CC3)cc1N1CCN(C)CC1 (nonaromatic ring conformer: 98.27749681852694 kcal/mol)

>  <smiles>  (31) 
COc1ccc(NS(=O)(=O)c2ccc3c(c2)CN(Cc2ccc(=N)[nH]c2)CC3)cc1N1CCN(C)CC1

>  <score_type>  (31) 
oracle

>  <origin>  (31) 
adgpu

>  <m_score__min__energy>  (31) 
-12.550000000000001

>  <m_primary>  (31) 
energy

$$$$
31:0
     RDKit          3D

 40 42  0  0  0  0  0  0  0  0999 V2000
   -3.4170   25.0300  -29.9730 N   0  0  0  0  0  0  0  0  0  0  0  0
   -4.5860   24.2700  -30.3070 C   0  0  0  0  0  0  0  0  0  0  0  0
   -5.8300   24.9220  -30.3300 C   0  0  0  0  0  0  0  0  0  0  0  0
   -6.9950   24.2260  -30.6610 C   0  0  0  0  0  0  0  0  0  0  0  0
   -6.9320   22.8680  -30.9850 C   0  0  0  0  0  0  0  0  0  0  0  0
   -8.4000   21.9820  -31.3920 S   0  0  0  0  0  0  0  0  0  0  0  0
   -9.2160   22.7860  -32.3660 O   0  0  0  0  0  0  0  0  0  0  0  0
   -9.2140   21.7460  -30.1500 O   0  0  0  0  0  0  0  0  0  0  0  0
   -7.9820   20.4220  -32.1000 C   0  0  0  0  0  0  0  0  0  0  0  0
   -7.0660   20.3450  -33.1600 C   0  0  0  0  0  0  0  0  0  0  0  0
   -6.6730   19.0990  -33.6580 C   0  0  0  0  0  0  0  0  0  0  0  0
   -7.1900   17.9260  -33.1020 C   0  0  0  0  0  0  0  0  0  0  0  0
   -8.0990   17.9970  -32.0420 C   0  0  0  0  0  0  0  0  0  0  0  0
   -8.4930   19.2420  -31.5400 C   0  0  0  0  0  0  0  0  0  0  0  0
   -5.6950   22.2160  -30.9820 C   0  0  0  0  0  0  0  0  0  0  0  0
   -4.5190   22.8920  -30.6220 C   0  0  0  0  0  0  0  0  0  0  0  0
   -3.0000   21.9840  -30.5490 S   0  0  0  0  0  0  0  0  0  0  0  0
   -2.9590   21.1580  -29.2930 O   0  0  0  0  0  0  0  0  0  0  0  0
   -1.8410   22.9400  -30.5440 O   0  0  0  0  0  0  0  0  0  0  0  0
   -2.8540   20.8940  -31.9300 C   0  0  0  0  0  0  0  0  0  0  0  0
   -3.6690   19.7550  -32.0110 C   0  0  0  0  0  0  0  0  0  0  0  0
   -3.6210   18.9340  -33.1420 C   0  0  0  0  0  0  0  0  0  0  0  0
   -2.7610   19.2480  -34.1970 C   0  0  0  0  0  0  0  0  0  0  0  0
   -1.9510   20.3850  -34.1250 C   0  0  0  0  0  0  0  0  0  0  0  0
   -1.9980   21.2080  -32.9960 C   0  0  0  0  0  0  0  0  0  0  0  0
   -3.4950   26.0430  -29.7290 H   0  0  0  0  0  0  0  0  0  0  0  0
   -2.4560   24.6230  -30.0070 H   0  0  0  0  0  0  0  0  0  0  0  0
   -5.8874   25.9927  -30.0846 H   0  0  0  0  0  0  0  0  0  0  0  0
   -7.9635   24.7476  -30.6666 H   0  0  0  0  0  0  0  0  0  0  0  0
   -6.6564   21.2663  -33.5999 H   0  0  0  0  0  0  0  0  0  0  0  0
   -5.9551   19.0421  -34.4895 H   0  0  0  0  0  0  0  0  0  0  0  0
   -6.8820   16.9471  -33.4981 H   0  0  0  0  0  0  0  0  0  0  0  0
   -8.5045   17.0737  -31.6026 H   0  0  0  0  0  0  0  0  0  0  0  0
   -9.2056   19.2956  -30.7037 H   0  0  0  0  0  0  0  0  0  0  0  0
   -5.6427   21.1548  -31.2668 H   0  0  0  0  0  0  0  0  0  0  0  0
   -4.3481   19.5069  -31.1820 H   0  0  0  0  0  0  0  0  0  0  0  0
   -4.2605   18.0409  -33.2009 H   0  0  0  0  0  0  0  0  0  0  0  0
   -2.7211   18.6001  -35.0851 H   0  0  0  0  0  0  0  0  0  0  0  0
   -1.2760   20.6324  -34.9575 H   0  0  0  0  0  0  0  0  0  0  0  0
   -1.3621   22.1041  -32.9434 H   0  0  0  0  0  0  0  0  0  0  0  0
  1  2  1  0
  2  3  2  0
  3  4  1  0
  4  5  2  0
  5  6  1  0
  6  7  2  0
  6  8  2  0
  6  9  1  0
  9 10  2  0
 10 11  1  0
 11 12  2  0
 12 13  1  0
 13 14  2  0
  5 15  1  0
 15 16  2  0
 16 17  1  0
 17 18  2  0
 17 19  2  0
 17 20  1  0
 20 21  2  0
 21 22  1  0
 22 23  2  0
 23 24  1  0
 24 25  2  0
 16  2  1  0
 25 20  1  0
 14  9  1  0
  1 26  1  0
  1 27  1  0
  3 28  1  0
  4 29  1  0
 10 30  1  0
 11 31  1  0
 12 32  1  0
 13 33  1  0
 14 34  1  0
 15 35  1  0
 21 36  1  0
 22 37  1  0
 23 38  1  0
 24 39  1  0
 25 40  1  0
M  END
>  <UniqueID>  (32) 
32

>  <SMILES>  (32) 
Nc1ccc(S(=O)(=O)c2ccccc2)cc1S(=O)(=O)c1ccccc1

>  <Energy>  (32) 
46.309981852053184

>  <Genealogy>  (32) 
Nc1ccc(S(=O)(=O)c2ccccc2)cc1S(=O)(=O)c1ccccc1 (3D coordinates assigned)
Nc1ccc(S(=O)(=O)c2ccccc2)cc1S(=O)(=O)c1ccccc1 (optimized conformer: 46.309981852053184 kcal/mol)

>  <smiles>  (32) 
Nc1ccc(S(=O)(=O)c2ccccc2)cc1S(=O)(=O)c1ccccc1

>  <score_type>  (32) 
oracle

>  <origin>  (32) 
adgpu

>  <m_score__min__energy>  (32) 
-10.050000000000001

>  <m_primary>  (32) 
energy

$$$$
32:0
     RDKit          3D

 47 50  0  0  0  0  0  0  0  0999 V2000
   -5.9200   17.1520  -33.3550 C   0  0  0  0  0  0  0  0  0  0  0  0
   -5.5460   18.5860  -33.1880 C   0  0  0  0  0  0  0  0  0  0  0  0
   -6.2430   19.4830  -32.4390 N   0  0  0  0  0  0  0  0  0  0  0  0
   -5.5510   20.6230  -32.3950 N   0  0  0  0  0  0  0  0  0  0  0  0
   -5.9450   21.7830  -31.6380 C   0  0  0  0  0  0  0  0  0  0  0  0
   -7.2230   21.8730  -31.0690 C   0  0  0  0  0  0  0  0  0  0  0  0
   -7.5920   23.0020  -30.3380 C   0  0  0  0  0  0  0  0  0  0  0  0
   -6.6940   24.0610  -30.1500 C   0  0  0  0  0  0  0  0  0  0  0  0
   -7.1520   25.2380  -29.4700 N   0  0  0  0  0  0  0  0  0  0  0  0
   -5.3810   23.9630  -30.6770 C   0  0  0  0  0  0  0  0  0  0  0  0
   -4.3460   24.9940  -30.4340 C   0  0  0  0  0  0  0  0  0  0  0  0
   -3.0130   24.6060  -30.1070 N   0  0  0  0  0  0  0  0  0  0  0  0
   -4.6400   26.2180  -30.4640 O   0  0  0  0  0  0  0  0  0  0  0  0
   -5.0300   22.8250  -31.4270 C   0  0  0  0  0  0  0  0  0  0  0  0
   -4.4250   20.4270  -33.1030 C   0  0  0  0  0  0  0  0  0  0  0  0
   -2.9730   21.2350  -33.3070 S   0  0  0  0  0  0  0  0  0  0  0  0
   -2.2660   19.9040  -34.1320 C   0  0  0  0  0  0  0  0  0  0  0  0
   -0.8820   19.9050  -34.6410 C   0  0  0  0  0  0  0  0  0  0  0  0
   -0.3920   18.8270  -35.0760 O   0  0  0  0  0  0  0  0  0  0  0  0
   -0.0850   21.0990  -34.6450 N   0  0  0  0  0  0  0  0  0  0  0  0
    1.2740   21.1020  -35.1850 C   0  0  0  0  0  0  0  0  0  0  0  0
    1.6660   22.4840  -35.6320 C   0  0  0  0  0  0  0  0  0  0  0  0
    3.0210   22.8380  -35.7350 C   0  0  0  0  0  0  0  0  0  0  0  0
    3.3840   24.1100  -36.1870 C   0  0  0  0  0  0  0  0  0  0  0  0
    2.3980   25.0320  -36.5500 C   0  0  0  0  0  0  0  0  0  0  0  0
    1.0480   24.6820  -36.4660 C   0  0  0  0  0  0  0  0  0  0  0  0
    0.6810   23.4100  -36.0140 C   0  0  0  0  0  0  0  0  0  0  0  0
   -3.1740   18.8260  -34.1910 C   0  0  0  0  0  0  0  0  0  0  0  0
   -4.3730   19.1850  -33.5890 C   0  0  0  0  0  0  0  0  0  0  0  0
   -6.0413   16.6871  -32.3655 H   0  0  0  0  0  0  0  0  0  0  0  0
   -6.8664   17.0823  -33.9113 H   0  0  0  0  0  0  0  0  0  0  0  0
   -5.1282   16.6290  -33.9113 H   0  0  0  0  0  0  0  0  0  0  0  0
   -7.9390   21.0483  -31.1998 H   0  0  0  0  0  0  0  0  0  0  0  0
   -8.6008   23.0618  -29.9035 H   0  0  0  0  0  0  0  0  0  0  0  0
   -6.6700   26.1540  -29.6170 H   0  0  0  0  0  0  0  0  0  0  0  0
   -7.8790   25.2000  -28.7240 H   0  0  0  0  0  0  0  0  0  0  0  0
   -2.2360   25.3050  -30.1020 H   0  0  0  0  0  0  0  0  0  0  0  0
   -4.0196   22.7514  -31.8556 H   0  0  0  0  0  0  0  0  0  0  0  0
   -0.4730   21.9820  -34.2430 H   0  0  0  0  0  0  0  0  0  0  0  0
    1.9727   20.7627  -34.4061 H   0  0  0  0  0  0  0  0  0  0  0  0
    1.3113   20.4262  -36.0521 H   0  0  0  0  0  0  0  0  0  0  0  0
    3.7996   22.1117  -35.4590 H   0  0  0  0  0  0  0  0  0  0  0  0
    4.4466   24.3857  -36.2571 H   0  0  0  0  0  0  0  0  0  0  0  0
    2.6852   26.0338  -36.9020 H   0  0  0  0  0  0  0  0  0  0  0  0
    0.2732   25.4071  -36.7555 H   0  0  0  0  0  0  0  0  0  0  0  0
   -0.3823   23.1340  -35.9575 H   0  0  0  0  0  0  0  0  0  0  0  0
   -2.9637   17.8469  -34.6461 H   0  0  0  0  0  0  0  0  0  0  0  0
  1  2  1  0
  2  3  2  0
  3  4  1  0
  4  5  1  0
  5  6  2  0
  6  7  1  0
  7  8  2  0
  8  9  1  0
  8 10  1  0
 10 11  1  0
 11 12  1  0
 11 13  2  0
 10 14  2  0
  4 15  1  0
 15 16  1  0
 16 17  1  0
 17 18  1  0
 18 19  2  0
 18 20  1  0
 20 21  1  0
 21 22  1  0
 22 23  2  0
 23 24  1  0
 24 25  2  0
 25 26  1  0
 26 27  2  0
 17 28  2  0
 28 29  1  0
 29  2  1  0
 14  5  1  0
 29 15  2  0
 27 22  1  0
  1 30  1  0
  1 31  1  0
  1 32  1  0
  6 33  1  0
  7 34  1  0
  9 35  1  0
  9 36  1  0
 12 37  1  0
 14 38  1  0
 20 39  1  0
 21 40  1  0
 21 41  1  0
 23 42  1  0
 24 43  1  0
 25 44  1  0
 26 45  1  0
 27 46  1  0
 28 47  1  0
M  CHG  1  12  -1
M  END
>  <UniqueID>  (33) 
33

>  <SMILES>  (33) 
Cc1nn(-c2ccc(N)c(C([NH-])=O)c2)c2sc(C(=O)NCc3ccccc3)cc12

>  <Energy>  (33) 
137.90442505210328

>  <Genealogy>  (33) 
Cc1nn(-c2ccc(N)c(C([NH-])=O)c2)c2sc(C(=O)NCc3ccccc3)cc12 (protonated)
Cc1nn(-c2ccc(N)c(C([NH-])=O)c2)c2sc(C(=O)NCc3ccccc3)cc12 (3D coordinates assigned)
Cc1nn(-c2ccc(N)c(C([NH-])=O)c2)c2sc(C(=O)NCc3ccccc3)cc12 (optimized conformer: 137.90442505210328 kcal/mol)

>  <smiles>  (33) 
Cc1nn(-c2ccc(N)c(C(N)=O)c2)c2sc(C(=O)NCc3ccccc3)cc12

>  <score_type>  (33) 
oracle

>  <origin>  (33) 
adgpu

>  <m_score__min__energy>  (33) 
-11.42

>  <m_primary>  (33) 
energy

$$$$
33:0
     RDKit          3D

 49 51  0  0  0  0  0  0  0  0999 V2000
   -5.3360   15.2580  -33.1370 C   0  0  0  0  0  0  0  0  0  0  0  0
   -5.2920   16.4330  -32.3350 O   0  0  0  0  0  0  0  0  0  0  0  0
   -6.0650   17.5840  -32.5620 C   0  0  0  0  0  0  0  0  0  0  0  0
   -7.2100   17.8740  -31.7920 C   0  0  0  0  0  0  0  0  0  0  0  0
   -7.9480   19.0340  -32.0340 C   0  0  0  0  0  0  0  0  0  0  0  0
   -7.5550   19.9190  -33.0390 C   0  0  0  0  0  0  0  0  0  0  0  0
   -6.4250   19.6440  -33.8100 C   0  0  0  0  0  0  0  0  0  0  0  0
   -5.6810   18.4720  -33.5890 C   0  0  0  0  0  0  0  0  0  0  0  0
   -4.4480   18.2050  -34.4110 C   0  0  0  0  0  0  0  0  0  0  0  0
   -3.3650   17.7490  -33.5370 N   0  0  0  0  0  0  0  0  0  0  0  0
   -2.2400   19.0450  -33.2660 S   0  0  0  0  0  0  0  0  0  0  0  0
   -1.1020   18.5450  -32.4220 O   0  0  0  0  0  0  0  0  0  0  0  0
   -1.6840   19.5150  -34.5830 O   0  0  0  0  0  0  0  0  0  0  0  0
   -3.0320   20.3800  -32.4320 C   0  0  0  0  0  0  0  0  0  0  0  0
   -2.9490   20.5000  -31.0380 C   0  0  0  0  0  0  0  0  0  0  0  0
   -3.5620   21.5740  -30.3870 C   0  0  0  0  0  0  0  0  0  0  0  0
   -4.2550   22.5430  -31.1240 C   0  0  0  0  0  0  0  0  0  0  0  0
   -5.0450   23.8820  -30.2960 S   0  0  0  0  0  0  0  0  0  0  0  0
   -4.6750   23.8480  -28.8400 O   0  0  0  0  0  0  0  0  0  0  0  0
   -4.5770   25.1870  -30.8790 O   0  0  0  0  0  0  0  0  0  0  0  0
   -6.7750   23.7210  -30.4610 N   0  0  0  0  0  0  0  0  0  0  0  0
   -7.2400   22.4270  -29.9630 C   0  0  0  0  0  0  0  0  0  0  0  0
   -8.5160   22.1040  -30.7230 C   0  0  0  0  0  0  0  0  0  0  0  0
   -8.4770   22.9760  -31.9670 C   0  0  0  0  0  0  0  0  0  0  0  0
   -7.1820   23.7680  -31.8650 C   0  0  0  0  0  0  0  0  0  0  0  0
   -4.3400   22.4220  -32.5180 C   0  0  0  0  0  0  0  0  0  0  0  0
   -3.7270   21.3490  -33.1690 C   0  0  0  0  0  0  0  0  0  0  0  0
   -5.3692   14.3713  -32.4868 H   0  0  0  0  0  0  0  0  0  0  0  0
   -6.2339   15.2809  -33.7720 H   0  0  0  0  0  0  0  0  0  0  0  0
   -4.4389   15.2137  -33.7720 H   0  0  0  0  0  0  0  0  0  0  0  0
   -7.5235   17.1824  -30.9962 H   0  0  0  0  0  0  0  0  0  0  0  0
   -8.8419   19.2511  -31.4308 H   0  0  0  0  0  0  0  0  0  0  0  0
   -8.1366   20.8342  -33.2235 H   0  0  0  0  0  0  0  0  0  0  0  0
   -6.1145   20.3486  -34.5955 H   0  0  0  0  0  0  0  0  0  0  0  0
   -4.6672   17.4282  -35.1583 H   0  0  0  0  0  0  0  0  0  0  0  0
   -4.1413   19.1301  -34.9211 H   0  0  0  0  0  0  0  0  0  0  0  0
   -3.7780   17.5060  -32.6060 H   0  0  0  0  0  0  0  0  0  0  0  0
   -2.3996   19.7465  -30.4546 H   0  0  0  0  0  0  0  0  0  0  0  0
   -3.5001   21.6588  -29.2920 H   0  0  0  0  0  0  0  0  0  0  0  0
   -6.4807   21.6532  -30.1494 H   0  0  0  0  0  0  0  0  0  0  0  0
   -7.4211   22.4604  -28.8785 H   0  0  0  0  0  0  0  0  0  0  0  0
   -8.5401   21.0397  -30.9998 H   0  0  0  0  0  0  0  0  0  0  0  0
   -9.4132   22.2968  -30.1164 H   0  0  0  0  0  0  0  0  0  0  0  0
   -8.4768   22.3532  -32.8737 H   0  0  0  0  0  0  0  0  0  0  0  0
   -9.3554   23.6349  -32.0323 H   0  0  0  0  0  0  0  0  0  0  0  0
   -6.4077   23.3134  -32.5004 H   0  0  0  0  0  0  0  0  0  0  0  0
   -7.3227   24.8051  -32.2035 H   0  0  0  0  0  0  0  0  0  0  0  0
   -4.8912   23.1745  -33.1010 H   0  0  0  0  0  0  0  0  0  0  0  0
   -3.7898   21.2640  -34.2639 H   0  0  0  0  0  0  0  0  0  0  0  0
  1  2  1  0
  2  3  1  0
  3  4  2  0
  4  5  1  0
  5  6  2  0
  6  7  1  0
  7  8  2  0
  8  9  1  0
  9 10  1  0
 10 11  1  0
 11 12  2  0
 11 13  2  0
 11 14  1  0
 14 15  2  0
 15 16  1  0
 16 17  2  0
 17 18  1  0
 18 19  2  0
 18 20  2  0
 18 21  1  0
 21 22  1  0
 22 23  1  0
 23 24  1  0
 24 25  1  0
 17 26  1  0
 26 27  2  0
  8  3  1  0
 27 14  1  0
 25 21  1  0
  1 28  1  0
  1 29  1  0
  1 30  1  0
  4 31  1  0
  5 32  1  0
  6 33  1  0
  7 34  1  0
  9 35  1  0
  9 36  1  0
 10 37  1  0
 15 38  1  0
 16 39  1  0
 22 40  1  0
 22 41  1  0
 23 42  1  0
 23 43  1  0
 24 44  1  0
 24 45  1  0
 25 46  1  0
 25 47  1  0
 26 48  1  0
 27 49  1  0
M  END
>  <UniqueID>  (34) 
34

>  <SMILES>  (34) 
COc1ccccc1CNS(=O)(=O)c1ccc(S(=O)(=O)N2CCCC2)cc1

>  <Energy>  (34) 
47.16625604972966

>  <Genealogy>  (34) 
COc1ccccc1CNS(=O)(=O)c1ccc(S(=O)(=O)N2CCCC2)cc1 (3D coordinates assigned)
COc1ccccc1CNS(=O)(=O)c1ccc(S(=O)(=O)N2CCCC2)cc1 (nonaromatic ring conformer: 47.16625604972966 kcal/mol)

>  <smiles>  (34) 
COc1ccccc1CNS(=O)(=O)c1ccc(S(=O)(=O)N2CCCC2)cc1

>  <score_type>  (34) 
oracle

>  <origin>  (34) 
adgpu

>  <m_score__min__energy>  (34) 
-11.039999999999999

>  <m_primary>  (34) 
energy

$$$$
34:0
     RDKit          3D

 54 57  0  0  0  0  0  0  0  0999 V2000
   -5.4140   18.0880  -33.9160 C   0  0  0  0  0  0  0  0  0  0  0  0
   -6.3370   19.0840  -33.2870 C   0  0  0  0  0  0  0  0  0  0  0  0
   -7.6650   18.8760  -33.1310 N   0  0  0  0  0  0  0  0  0  0  0  0
   -8.1550   20.0110  -32.6040 C   0  0  0  0  0  0  0  0  0  0  0  0
   -9.4850   20.2890  -32.2890 C   0  0  0  0  0  0  0  0  0  0  0  0
   -9.7870   21.5620  -31.7740 C   0  0  0  0  0  0  0  0  0  0  0  0
   -8.7670   22.5220  -31.5940 C   0  0  0  0  0  0  0  0  0  0  0  0
   -7.4350   22.2160  -31.9240 C   0  0  0  0  0  0  0  0  0  0  0  0
   -7.1630   20.9410  -32.4240 C   0  0  0  0  0  0  0  0  0  0  0  0
   -5.9820   20.3620  -32.8460 C   0  0  0  0  0  0  0  0  0  0  0  0
   -4.6330   21.0160  -32.9400 C   0  0  0  0  0  0  0  0  0  0  0  0
   -4.3630   21.8660  -31.6930 C   0  0  0  0  0  0  0  0  0  0  0  0
   -4.5560   23.2940  -31.9550 N   0  0  0  0  0  0  0  0  0  0  0  0
   -4.6530   24.2370  -30.4930 S   0  0  0  0  0  0  0  0  0  0  0  0
   -4.3400   25.6700  -30.8190 O   0  0  0  0  0  0  0  0  0  0  0  0
   -6.0580   24.1710  -29.9620 O   0  0  0  0  0  0  0  0  0  0  0  0
   -3.5150   23.6850  -29.2620 C   0  0  0  0  0  0  0  0  0  0  0  0
   -3.6710   22.4320  -28.6530 C   0  0  0  0  0  0  0  0  0  0  0  0
   -2.7540   21.9990  -27.6920 C   0  0  0  0  0  0  0  0  0  0  0  0
   -1.6760   22.8130  -27.3350 C   0  0  0  0  0  0  0  0  0  0  0  0
   -1.5110   24.0670  -27.9380 C   0  0  0  0  0  0  0  0  0  0  0  0
   -0.1510   25.0830  -27.4690 S   0  0  0  0  0  0  0  0  0  0  0  0
    1.0870   24.5570  -28.1390 O   0  0  0  0  0  0  0  0  0  0  0  0
   -0.3810   26.4990  -27.9220 O   0  0  0  0  0  0  0  0  0  0  0  0
    0.0460   25.0310  -25.7310 N   0  0  0  0  0  0  0  0  0  0  0  0
   -1.2590   25.0560  -25.0620 C   0  0  0  0  0  0  0  0  0  0  0  0
   -1.5940   26.5020  -24.7270 C   0  0  0  0  0  0  0  0  0  0  0  0
   -0.2900   27.2640  -24.8620 C   0  0  0  0  0  0  0  0  0  0  0  0
    0.7500   26.2280  -25.2580 C   0  0  0  0  0  0  0  0  0  0  0  0
   -2.4370   24.5030  -28.8970 C   0  0  0  0  0  0  0  0  0  0  0  0
   -4.8916   17.5242  -33.1291 H   0  0  0  0  0  0  0  0  0  0  0  0
   -5.9948   17.3933  -34.5406 H   0  0  0  0  0  0  0  0  0  0  0  0
   -4.6772   18.6143  -34.5406 H   0  0  0  0  0  0  0  0  0  0  0  0
   -8.2040   18.0200  -33.3900 H   0  0  0  0  0  0  0  0  0  0  0  0
  -10.2728   19.5361  -32.4388 H   0  0  0  0  0  0  0  0  0  0  0  0
  -10.8250   21.8119  -31.5094 H   0  0  0  0  0  0  0  0  0  0  0  0
   -9.0162   23.5155  -31.1930 H   0  0  0  0  0  0  0  0  0  0  0  0
   -6.6329   22.9572  -31.7925 H   0  0  0  0  0  0  0  0  0  0  0  0
   -3.8587   20.2392  -33.0237 H   0  0  0  0  0  0  0  0  0  0  0  0
   -4.6130   21.6668  -33.8266 H   0  0  0  0  0  0  0  0  0  0  0  0
   -5.0518   21.5545  -30.8939 H   0  0  0  0  0  0  0  0  0  0  0  0
   -3.3154   21.7119  -31.3949 H   0  0  0  0  0  0  0  0  0  0  0  0
   -4.5178   21.7879  -28.9326 H   0  0  0  0  0  0  0  0  0  0  0  0
   -2.8809   21.0156  -27.2157 H   0  0  0  0  0  0  0  0  0  0  0  0
   -0.9552   22.4686  -26.5788 H   0  0  0  0  0  0  0  0  0  0  0  0
   -2.0279   24.6408  -25.7301 H   0  0  0  0  0  0  0  0  0  0  0  0
   -1.2269   24.4509  -24.1439 H   0  0  0  0  0  0  0  0  0  0  0  0
   -2.3432   26.8954  -25.4298 H   0  0  0  0  0  0  0  0  0  0  0  0
   -2.0191   26.5980  -23.7170 H   0  0  0  0  0  0  0  0  0  0  0  0
   -0.3762   28.0379  -25.6389 H   0  0  0  0  0  0  0  0  0  0  0  0
   -0.0190   27.7758  -23.9268 H   0  0  0  0  0  0  0  0  0  0  0  0
    1.3868   26.6274  -26.0611 H   0  0  0  0  0  0  0  0  0  0  0  0
    1.3866   25.9793  -24.3961 H   0  0  0  0  0  0  0  0  0  0  0  0
   -2.3167   25.4913  -29.3647 H   0  0  0  0  0  0  0  0  0  0  0  0
  1  2  1  0
  2  3  1  0
  3  4  1  0
  4  5  2  0
  5  6  1  0
  6  7  2  0
  7  8  1  0
  8  9  2  0
  9 10  1  0
 10 11  1  0
 11 12  1  0
 12 13  1  0
 13 14  1  0
 14 15  2  0
 14 16  2  0
 14 17  1  0
 17 18  2  0
 18 19  1  0
 19 20  2  0
 20 21  1  0
 21 22  1  0
 22 23  2  0
 22 24  2  0
 22 25  1  0
 25 26  1  0
 26 27  1  0
 27 28  1  0
 28 29  1  0
 21 30  2  0
 10  2  2  0
 30 17  1  0
  9  4  1  0
 29 25  1  0
  1 31  1  0
  1 32  1  0
  1 33  1  0
  3 34  1  0
  5 35  1  0
  6 36  1  0
  7 37  1  0
  8 38  1  0
 11 39  1  0
 11 40  1  0
 12 41  1  0
 12 42  1  0
 18 43  1  0
 19 44  1  0
 20 45  1  0
 26 46  1  0
 26 47  1  0
 27 48  1  0
 27 49  1  0
 28 50  1  0
 28 51  1  0
 29 52  1  0
 29 53  1  0
 30 54  1  0
M  CHG  1  13  -1
M  END
>  <UniqueID>  (35) 
35

>  <SMILES>  (35) 
Cc1[nH]c2ccccc2c1CC[N-]S(=O)(=O)c1cccc(S(=O)(=O)N2CCCC2)c1

>  <Energy>  (35) 
84.71023010543259

>  <Genealogy>  (35) 
Cc1[nH]c2ccccc2c1CC[N-]S(=O)(=O)c1cccc(S(=O)(=O)N2CCCC2)c1 (protonated)
Cc1[nH]c2ccccc2c1CC[N-]S(=O)(=O)c1cccc(S(=O)(=O)N2CCCC2)c1 (3D coordinates assigned)
Cc1[nH]c2ccccc2c1CC[N-]S(=O)(=O)c1cccc(S(=O)(=O)N2CCCC2)c1 (nonaromatic ring conformer: 84.71023010543259 kcal/mol)

>  <smiles>  (35) 
Cc1[nH]c2ccccc2c1CCNS(=O)(=O)c1cccc(S(=O)(=O)N2CCCC2)c1

>  <score_type>  (35) 
oracle

>  <origin>  (35) 
adgpu

>  <m_score__min__energy>  (35) 
-11.609999999999999

>  <m_primary>  (35) 
energy

$$$$
35:0
     RDKit          3D

 52 55  0  0  0  0  0  0  0  0999 V2000
   -9.1140   20.3400  -32.3620 C   0  0  0  0  0  0  0  0  0  0  0  0
   -8.5710   21.6550  -32.3370 O   0  0  0  0  0  0  0  0  0  0  0  0
   -7.3800   22.0090  -31.6830 C   0  0  0  0  0  0  0  0  0  0  0  0
   -6.2580   21.1920  -31.8570 C   0  0  0  0  0  0  0  0  0  0  0  0
   -5.0470   21.5060  -31.2350 C   0  0  0  0  0  0  0  0  0  0  0  0
   -4.9360   22.6500  -30.4270 C   0  0  0  0  0  0  0  0  0  0  0  0
   -3.6760   22.9850  -29.8120 N   0  0  0  0  0  0  0  0  0  0  0  0
   -2.9220   22.1650  -29.0480 C   0  0  0  0  0  0  0  0  0  0  0  0
   -1.7720   22.8240  -28.6450 C   0  0  0  0  0  0  0  0  0  0  0  0
   -0.7010   22.2940  -27.7200 C   0  0  1  0  0  0  0  0  0  0  0  0
    0.3030   21.5890  -28.4140 O   0  0  0  0  0  0  0  0  0  0  0  0
   -0.1270   23.3740  -26.8810 N   0  0  0  0  0  0  0  0  0  0  0  0
   -1.0960   24.0080  -25.9460 C   0  0  0  0  0  0  0  0  0  0  0  0
   -1.5100   25.4240  -26.3700 C   0  0  0  0  0  0  0  0  0  0  0  0
   -0.3210   26.2670  -26.5600 N   0  0  0  0  0  0  0  0  0  0  0  0
   -0.4030   27.7000  -26.3970 C   0  0  0  0  0  0  0  0  0  0  0  0
   -0.0800   28.5620  -27.4630 C   0  0  0  0  0  0  0  0  0  0  0  0
   -0.1660   29.9480  -27.3050 C   0  0  0  0  0  0  0  0  0  0  0  0
   -0.5740   30.4910  -26.0860 C   0  0  0  0  0  0  0  0  0  0  0  0
   -0.9000   29.6480  -25.0200 C   0  0  0  0  0  0  0  0  0  0  0  0
   -0.8150   28.2600  -25.1720 C   0  0  0  0  0  0  0  0  0  0  0  0
    0.9430   25.6330  -26.9570 C   0  0  0  0  0  0  0  0  0  0  0  0
    0.6620   24.3240  -27.7010 C   0  0  0  0  0  0  0  0  0  0  0  0
   -1.8410   24.1080  -29.1530 C   0  0  0  0  0  0  0  0  0  0  0  0
   -3.0200   24.1650  -29.8650 C   0  0  0  0  0  0  0  0  0  0  0  0
   -3.4920   25.2990  -30.5110 O   0  0  0  0  0  0  0  0  0  0  0  0
   -6.0620   23.4700  -30.2510 C   0  0  0  0  0  0  0  0  0  0  0  0
   -7.2760   23.1510  -30.8690 C   0  0  0  0  0  0  0  0  0  0  0  0
   -9.2609   19.9843  -31.3315 H   0  0  0  0  0  0  0  0  0  0  0  0
  -10.0806   20.3524  -32.8869 H   0  0  0  0  0  0  0  0  0  0  0  0
   -8.4203   19.6668  -32.8869 H   0  0  0  0  0  0  0  0  0  0  0  0
   -6.3297   20.2945  -32.4890 H   0  0  0  0  0  0  0  0  0  0  0  0
   -4.1739   20.8526  -31.3790 H   0  0  0  0  0  0  0  0  0  0  0  0
   -3.1822   21.1290  -28.7852 H   0  0  0  0  0  0  0  0  0  0  0  0
   -1.1882   21.5722  -27.0480 H   0  0  0  0  0  0  0  0  0  0  0  0
    0.0530   21.5510  -29.3730 H   0  0  0  0  0  0  0  0  0  0  0  0
   -1.9978   23.3799  -25.8987 H   0  0  0  0  0  0  0  0  0  0  0  0
   -0.5985   24.0926  -24.9686 H   0  0  0  0  0  0  0  0  0  0  0  0
   -2.0717   25.3705  -27.3142 H   0  0  0  0  0  0  0  0  0  0  0  0
   -2.1389   25.8642  -25.5822 H   0  0  0  0  0  0  0  0  0  0  0  0
    0.2423   28.1413  -28.4269 H   0  0  0  0  0  0  0  0  0  0  0  0
    0.0886   30.6126  -28.1438 H   0  0  0  0  0  0  0  0  0  0  0  0
   -0.6390   31.5823  -25.9641 H   0  0  0  0  0  0  0  0  0  0  0  0
   -1.2239   30.0766  -24.0601 H   0  0  0  0  0  0  0  0  0  0  0  0
   -1.0717   27.6014  -24.3291 H   0  0  0  0  0  0  0  0  0  0  0  0
    1.5008   26.3142  -27.6164 H   0  0  0  0  0  0  0  0  0  0  0  0
    1.5364   25.4161  -26.0565 H   0  0  0  0  0  0  0  0  0  0  0  0
    0.1002   24.5515  -28.6190 H   0  0  0  0  0  0  0  0  0  0  0  0
    1.6283   23.8512  -27.9308 H   0  0  0  0  0  0  0  0  0  0  0  0
   -1.1074   24.9163  -29.0172 H   0  0  0  0  0  0  0  0  0  0  0  0
   -5.9892   24.3699  -29.6226 H   0  0  0  0  0  0  0  0  0  0  0  0
   -8.1535   23.7967  -30.7174 H   0  0  0  0  0  0  0  0  0  0  0  0
  1  2  1  0
  2  3  1  0
  3  4  2  0
  4  5  1  0
  5  6  2  0
  6  7  1  0
  7  8  1  0
  8  9  2  0
  9 10  1  0
 10 11  1  0
 10 12  1  0
 12 13  1  0
 13 14  1  0
 14 15  1  0
 15 16  1  0
 16 17  2  0
 17 18  1  0
 18 19  2  0
 19 20  1  0
 20 21  2  0
 15 22  1  0
 22 23  1  0
  9 24  1  0
 24 25  2  0
 25 26  1  0
  6 27  1  0
 27 28  2  0
 28  3  1  0
 25  7  1  0
 23 12  1  0
 21 16  1  0
  1 29  1  0
  1 30  1  0
  1 31  1  0
  4 32  1  0
  5 33  1  0
  8 34  1  0
 10 35  1  1
 11 36  1  0
 13 37  1  0
 13 38  1  0
 14 39  1  0
 14 40  1  0
 17 41  1  0
 18 42  1  0
 19 43  1  0
 20 44  1  0
 21 45  1  0
 22 46  1  0
 22 47  1  0
 23 48  1  0
 23 49  1  0
 24 50  1  0
 27 51  1  0
 28 52  1  0
M  CHG  1  26  -1
M  END
>  <UniqueID>  (36) 
36

>  <SMILES>  (36) 
COc1ccc(-n2cc([C@@H](O)N3CCN(c4ccccc4)CC3)cc2[O-])cc1

>  <Energy>  (36) 
100.47093980594542

>  <Genealogy>  (36) 
COc1ccc(-n2cc(C(O)N3CCN(c4ccccc4)CC3)cc2[O-])cc1 (protonated)
COc1ccc(-n2cc([C@@H](O)N3CCN(c4ccccc4)CC3)cc2[O-])cc1 (chirality)
COc1ccc(-n2cc([C@@H](O)N3CCN(c4ccccc4)CC3)cc2[O-])cc1 (3D coordinates assigned)
COc1ccc(-n2cc([C@@H](O)N3CCN(c4ccccc4)CC3)cc2[O-])cc1 (nonaromatic ring conformer: 100.47093980594542 kcal/mol)

>  <smiles>  (36) 
COc1ccc(-n2cc(C(O)N3CCN(c4ccccc4)CC3)cc2O)cc1

>  <score_type>  (36) 
oracle

>  <origin>  (36) 
adgpu

>  <m_score__min__energy>  (36) 
-11.050000000000001

>  <m_primary>  (36) 
energy

$$$$
36:0
     RDKit          3D

 53 56  0  0  0  0  0  0  0  0999 V2000
   -4.0560   25.2860  -30.8220 O   0  0  0  0  0  0  0  0  0  0  0  0
   -5.1250   24.8150  -29.8740 S   0  0  0  0  0  0  0  0  0  0  0  0
   -6.1420   25.9130  -29.7230 O   0  0  0  0  0  0  0  0  0  0  0  0
   -4.4090   24.5050  -28.3260 N   0  0  0  0  0  0  0  0  0  0  0  0
   -3.2350   23.7060  -28.1380 C   0  0  0  0  0  0  0  0  0  0  0  0
   -3.3210   22.4090  -27.5980 C   0  0  0  0  0  0  0  0  0  0  0  0
   -2.1680   21.6300  -27.4370 C   0  0  0  0  0  0  0  0  0  0  0  0
   -0.9120   22.1560  -27.7870 C   0  0  0  0  0  0  0  0  0  0  0  0
   -0.8200   23.4500  -28.3220 C   0  0  0  0  0  0  0  0  0  0  0  0
   -1.9760   24.2180  -28.5180 C   0  0  0  0  0  0  0  0  0  0  0  0
   -1.8460   25.4930  -29.0710 O   0  0  0  0  0  0  0  0  0  0  0  0
    0.3170   21.3300  -27.5150 C   0  0  0  0  0  0  0  0  0  0  0  0
    0.1130   19.8560  -27.9260 C   0  0  0  0  0  0  0  0  0  0  0  0
   -1.3230   19.3040  -27.7060 C   0  0  0  0  0  0  0  0  0  0  0  0
   -2.2330   20.2310  -26.8840 C   0  0  0  0  0  0  0  0  0  0  0  0
   -5.8760   23.3680  -30.5430 C   0  0  0  0  0  0  0  0  0  0  0  0
   -5.0820   22.3840  -31.1520 C   0  0  0  0  0  0  0  0  0  0  0  0
   -5.6750   21.2320  -31.6820 C   0  0  0  0  0  0  0  0  0  0  0  0
   -7.0670   21.0570  -31.6060 C   0  0  0  0  0  0  0  0  0  0  0  0
   -7.8450   19.6290  -32.2850 S   0  0  0  0  0  0  0  0  0  0  0  0
   -8.6640   18.9270  -31.2340 O   0  0  0  0  0  0  0  0  0  0  0  0
   -8.7550   20.0630  -33.4020 O   0  0  0  0  0  0  0  0  0  0  0  0
   -6.6200   18.5510  -32.9050 N   0  0  0  0  0  0  0  0  0  0  0  0
   -7.1710   17.1910  -33.0580 C   0  0  0  0  0  0  0  0  0  0  0  0
   -6.2230   16.3060  -33.8940 C   0  0  0  0  0  0  0  0  0  0  0  0
   -4.9390   16.8900  -33.9840 O   0  0  0  0  0  0  0  0  0  0  0  0
   -5.0130   18.1010  -34.7190 C   0  0  0  0  0  0  0  0  0  0  0  0
   -6.1180   19.0440  -34.1940 C   0  0  0  0  0  0  0  0  0  0  0  0
   -7.8590   22.0410  -30.9960 C   0  0  0  0  0  0  0  0  0  0  0  0
   -7.2680   23.1920  -30.4690 C   0  0  0  0  0  0  0  0  0  0  0  0
   -4.2998   22.0046  -27.3006 H   0  0  0  0  0  0  0  0  0  0  0  0
    0.1638   23.8635  -28.5888 H   0  0  0  0  0  0  0  0  0  0  0  0
   -2.6460   26.0530  -29.3410 H   0  0  0  0  0  0  0  0  0  0  0  0
    1.1604   21.7463  -28.0854 H   0  0  0  0  0  0  0  0  0  0  0  0
    0.5204   21.3611  -26.4344 H   0  0  0  0  0  0  0  0  0  0  0  0
    0.3536   19.7638  -28.9954 H   0  0  0  0  0  0  0  0  0  0  0  0
    0.7728   19.2622  -27.2763 H   0  0  0  0  0  0  0  0  0  0  0  0
   -1.7878   19.1482  -28.6907 H   0  0  0  0  0  0  0  0  0  0  0  0
   -1.2196   18.3711  -27.1324 H   0  0  0  0  0  0  0  0  0  0  0  0
   -3.2692   19.8655  -26.9358 H   0  0  0  0  0  0  0  0  0  0  0  0
   -1.8946   20.2378  -25.8374 H   0  0  0  0  0  0  0  0  0  0  0  0
   -3.9919   22.5182  -31.2130 H   0  0  0  0  0  0  0  0  0  0  0  0
   -5.0501   20.4625  -32.1588 H   0  0  0  0  0  0  0  0  0  0  0  0
   -7.3008   16.7405  -32.0629 H   0  0  0  0  0  0  0  0  0  0  0  0
   -8.1385   17.2591  -33.5769 H   0  0  0  0  0  0  0  0  0  0  0  0
   -6.1373   15.3186  -33.4168 H   0  0  0  0  0  0  0  0  0  0  0  0
   -6.6368   16.2069  -34.9084 H   0  0  0  0  0  0  0  0  0  0  0  0
   -4.0445   18.6175  -34.6466 H   0  0  0  0  0  0  0  0  0  0  0  0
   -5.2579   17.8458  -35.7606 H   0  0  0  0  0  0  0  0  0  0  0  0
   -5.7039   20.0546  -34.0625 H   0  0  0  0  0  0  0  0  0  0  0  0
   -6.9449   19.0743  -34.9188 H   0  0  0  0  0  0  0  0  0  0  0  0
   -8.9488   21.9060  -30.9324 H   0  0  0  0  0  0  0  0  0  0  0  0
   -7.8940   23.9623  -29.9950 H   0  0  0  0  0  0  0  0  0  0  0  0
  1  2  2  0
  2  3  2  0
  2  4  1  0
  4  5  1  0
  5  6  2  0
  6  7  1  0
  7  8  2  0
  8  9  1  0
  9 10  2  0
 10 11  1  0
  8 12  1  0
 12 13  1  0
 13 14  1  0
 14 15  1  0
  2 16  1  0
 16 17  2  0
 17 18  1  0
 18 19  2  0
 19 20  1  0
 20 21  2  0
 20 22  2  0
 20 23  1  0
 23 24  1  0
 24 25  1  0
 25 26  1  0
 26 27  1  0
 27 28  1  0
 19 29  1  0
 29 30  2  0
 10  5  1  0
 30 16  1  0
 15  7  1  0
 28 23  1  0
  6 31  1  0
  9 32  1  0
 11 33  1  0
 12 34  1  0
 12 35  1  0
 13 36  1  0
 13 37  1  0
 14 38  1  0
 14 39  1  0
 15 40  1  0
 15 41  1  0
 17 42  1  0
 18 43  1  0
 24 44  1  0
 24 45  1  0
 25 46  1  0
 25 47  1  0
 27 48  1  0
 27 49  1  0
 28 50  1  0
 28 51  1  0
 29 52  1  0
 30 53  1  0
M  CHG  1   4  -1
M  END
>  <UniqueID>  (37) 
37

>  <SMILES>  (37) 
O=S(=O)([N-]c1cc2c(cc1O)CCCC2)c1ccc(S(=O)(=O)N2CCOCC2)cc1

>  <Energy>  (37) 
73.77892627678806

>  <Genealogy>  (37) 
O=S(=O)([N-]c1cc2c(cc1O)CCCC2)c1ccc(S(=O)(=O)N2CCOCC2)cc1 (protonated)
O=S(=O)([N-]c1cc2c(cc1O)CCCC2)c1ccc(S(=O)(=O)N2CCOCC2)cc1 (3D coordinates assigned)
O=S(=O)([N-]c1cc2c(cc1O)CCCC2)c1ccc(S(=O)(=O)N2CCOCC2)cc1 (nonaromatic ring conformer: 73.77892627678806 kcal/mol)

>  <smiles>  (37) 
O=S(=O)(Nc1cc2c(cc1O)CCCC2)c1ccc(S(=O)(=O)N2CCOCC2)cc1

>  <score_type>  (37) 
oracle

>  <origin>  (37) 
adgpu

>  <m_score__min__energy>  (37) 
-13.210000000000001

>  <m_primary>  (37) 
energy

$$$$
37:0
     RDKit          3D

 51 54  0  0  0  0  0  0  0  0999 V2000
   -4.4880   13.6150  -32.3100 C   0  0  0  0  0  0  0  0  0  0  0  0
   -4.9770   14.9590  -32.7630 C   0  0  0  0  0  0  0  0  0  0  0  0
   -5.3480   15.9300  -31.8210 C   0  0  0  0  0  0  0  0  0  0  0  0
   -5.7680   17.1950  -32.2410 C   0  0  0  0  0  0  0  0  0  0  0  0
   -5.8030   17.5160  -33.6060 C   0  0  0  0  0  0  0  0  0  0  0  0
   -6.2550   18.8200  -34.0120 N   0  0  0  0  0  0  0  0  0  0  0  0
   -6.2200   19.9720  -33.1590 C   0  0  0  0  0  0  0  0  0  0  0  0
   -5.1130   20.7710  -32.8990 C   0  0  0  0  0  0  0  0  0  0  0  0
   -3.7100   20.5260  -33.2980 C   0  0  0  0  0  0  0  0  0  0  0  0
   -3.3070   19.2890  -33.8270 C   0  0  0  0  0  0  0  0  0  0  0  0
   -1.9760   19.0710  -34.1900 C   0  0  0  0  0  0  0  0  0  0  0  0
   -1.0060   20.0820  -34.0250 C   0  0  0  0  0  0  0  0  0  0  0  0
    0.3780   19.8570  -34.4030 N   0  0  0  0  0  0  0  0  0  0  0  0
    0.8530   20.2190  -35.7440 C   0  0  0  0  0  0  0  0  0  0  0  0
    1.3260   19.2630  -33.4510 C   0  0  0  0  0  0  0  0  0  0  0  0
   -1.4160   21.3140  -33.4760 C   0  0  0  0  0  0  0  0  0  0  0  0
   -2.7480   21.5290  -33.1130 C   0  0  0  0  0  0  0  0  0  0  0  0
   -5.5040   21.8630  -32.1980 N   0  0  0  0  0  0  0  0  0  0  0  0
   -6.8390   21.7010  -32.0590 C   0  0  0  0  0  0  0  0  0  0  0  0
   -7.7120   22.5960  -31.4260 C   0  0  0  0  0  0  0  0  0  0  0  0
   -7.2140   23.8680  -30.8070 C   0  0  0  0  0  0  0  0  0  0  0  0
   -9.0860   22.2900  -31.4590 C   0  0  0  0  0  0  0  0  0  0  0  0
   -9.5430   21.1220  -32.0970 C   0  0  0  0  0  0  0  0  0  0  0  0
   -8.6210   20.2600  -32.7040 C   0  0  0  0  0  0  0  0  0  0  0  0
   -7.3010   20.5780  -32.6390 N   0  0  0  0  0  0  0  0  0  0  0  0
   -5.4300   16.5410  -34.5480 C   0  0  0  0  0  0  0  0  0  0  0  0
   -5.0090   15.2770  -34.1280 C   0  0  0  0  0  0  0  0  0  0  0  0
   -4.4756   13.5808  -31.2106 H   0  0  0  0  0  0  0  0  0  0  0  0
   -5.1590   12.8323  -32.6936 H   0  0  0  0  0  0  0  0  0  0  0  0
   -3.4709   13.4465  -32.6936 H   0  0  0  0  0  0  0  0  0  0  0  0
   -5.3082   15.6947  -30.7472 H   0  0  0  0  0  0  0  0  0  0  0  0
   -6.0733   17.9443  -31.4958 H   0  0  0  0  0  0  0  0  0  0  0  0
   -6.5570   18.9580  -35.0030 H   0  0  0  0  0  0  0  0  0  0  0  0
   -4.0461   18.4847  -33.9566 H   0  0  0  0  0  0  0  0  0  0  0  0
   -1.6802   18.0983  -34.6100 H   0  0  0  0  0  0  0  0  0  0  0  0
    1.7252   20.8837  -35.6570 H   0  0  0  0  0  0  0  0  0  0  0  0
    1.1393   19.3079  -36.2899 H   0  0  0  0  0  0  0  0  0  0  0  0
    0.0505   20.7366  -36.2899 H   0  0  0  0  0  0  0  0  0  0  0  0
    0.9931   19.4716  -32.4236 H   0  0  0  0  0  0  0  0  0  0  0  0
    1.3705   18.1752  -33.6083 H   0  0  0  0  0  0  0  0  0  0  0  0
    2.3243   19.6974  -33.6083 H   0  0  0  0  0  0  0  0  0  0  0  0
   -0.6777   22.1165  -33.3315 H   0  0  0  0  0  0  0  0  0  0  0  0
   -3.0448   22.4947  -32.6778 H   0  0  0  0  0  0  0  0  0  0  0  0
   -7.2483   23.7804  -29.7110 H   0  0  0  0  0  0  0  0  0  0  0  0
   -6.1779   24.0509  -31.1280 H   0  0  0  0  0  0  0  0  0  0  0  0
   -7.8505   24.7057  -31.1280 H   0  0  0  0  0  0  0  0  0  0  0  0
   -9.8079   22.9694  -30.9823 H   0  0  0  0  0  0  0  0  0  0  0  0
  -10.6175   20.8875  -32.1189 H   0  0  0  0  0  0  0  0  0  0  0  0
   -8.9566   19.3486  -33.2204 H   0  0  0  0  0  0  0  0  0  0  0  0
   -5.4700   16.7750  -35.6221 H   0  0  0  0  0  0  0  0  0  0  0  0
   -4.7011   14.5275  -34.8719 H   0  0  0  0  0  0  0  0  0  0  0  0
  1  2  1  0
  2  3  2  0
  3  4  1  0
  4  5  2  0
  5  6  1  0
  6  7  1  0
  7  8  2  0
  8  9  1  0
  9 10  2  0
 10 11  1  0
 11 12  2  0
 12 13  1  0
 13 14  1  0
 13 15  1  0
 12 16  1  0
 16 17  2  0
  8 18  1  0
 18 19  2  0
 19 20  1  0
 20 21  1  0
 20 22  2  0
 22 23  1  0
 23 24  2  0
 24 25  1  0
  5 26  1  0
 26 27  2  0
 27  2  1  0
 25  7  1  0
 17  9  1  0
 25 19  1  0
  1 28  1  0
  1 29  1  0
  1 30  1  0
  3 31  1  0
  4 32  1  0
  6 33  1  0
 10 34  1  0
 11 35  1  0
 14 36  1  0
 14 37  1  0
 14 38  1  0
 15 39  1  0
 15 40  1  0
 15 41  1  0
 16 42  1  0
 17 43  1  0
 21 44  1  0
 21 45  1  0
 21 46  1  0
 22 47  1  0
 23 48  1  0
 24 49  1  0
 26 50  1  0
 27 51  1  0
M  END
>  <UniqueID>  (38) 
38

>  <SMILES>  (38) 
Cc1ccc(Nc2c(-c3ccc(N(C)C)cc3)nc3c(C)cccn23)cc1

>  <Energy>  (38) 
99.32287030619241

>  <Genealogy>  (38) 
Cc1ccc(Nc2c(-c3ccc(N(C)C)cc3)nc3c(C)cccn23)cc1 (3D coordinates assigned)
Cc1ccc(Nc2c(-c3ccc(N(C)C)cc3)nc3c(C)cccn23)cc1 (optimized conformer: 99.32287030619241 kcal/mol)

>  <smiles>  (38) 
Cc1ccc(Nc2c(-c3ccc(N(C)C)cc3)nc3c(C)cccn23)cc1

>  <score_type>  (38) 
oracle

>  <origin>  (38) 
adgpu

>  <m_score__min__energy>  (38) 
-8.6799999999999997

>  <m_primary>  (38) 
energy

$$$$
38:0
     RDKit          3D

 59 62  0  0  0  0  0  0  0  0999 V2000
   -5.7370   26.1130  -31.2070 O   0  0  0  0  0  0  0  0  0  0  0  0
   -5.3060   25.0190  -30.2730 S   0  0  0  0  0  0  0  0  0  0  0  0
   -5.7990   25.3620  -28.8960 O   0  0  0  0  0  0  0  0  0  0  0  0
   -3.5770   24.9140  -30.3160 N   0  0  0  0  0  0  0  0  0  0  0  0
   -2.7530   24.2730  -29.3320 C   0  0  0  0  0  0  0  0  0  0  0  0
   -2.9960   22.9260  -29.0390 C   0  0  0  0  0  0  0  0  0  0  0  0
   -2.1760   22.2410  -28.1390 C   0  0  0  0  0  0  0  0  0  0  0  0
   -1.0870   22.8910  -27.5440 C   0  0  0  0  0  0  0  0  0  0  0  0
   -0.8290   24.2380  -27.8300 C   0  0  0  0  0  0  0  0  0  0  0  0
    0.6150   25.0300  -27.1910 S   0  0  0  0  0  0  0  0  0  0  0  0
    0.4780   26.5070  -27.4420 O   0  0  0  0  0  0  0  0  0  0  0  0
    1.8370   24.5350  -27.9170 O   0  0  0  0  0  0  0  0  0  0  0  0
    0.7810   24.7480  -25.4690 N   0  0  0  0  0  0  0  0  0  0  0  0
    1.7040   25.7060  -24.8270 C   0  0  0  0  0  0  0  0  0  0  0  0
    1.0970   27.1160  -24.6730 C   0  0  0  0  0  0  0  0  0  0  0  0
   -0.4060   27.1000  -24.3320 C   0  0  0  0  0  0  0  0  0  0  0  0
   -0.8520   25.7430  -23.7910 C   0  0  0  0  0  0  0  0  0  0  0  0
   -0.5390   24.6190  -24.7990 C   0  0  0  0  0  0  0  0  0  0  0  0
   -1.6700   24.9310  -28.7120 C   0  0  0  0  0  0  0  0  0  0  0  0
   -5.9770   23.4890  -30.8280 C   0  0  0  0  0  0  0  0  0  0  0  0
   -5.3600   22.7730  -31.8660 C   0  0  0  0  0  0  0  0  0  0  0  0
   -5.9330   21.5860  -32.3400 C   0  0  0  0  0  0  0  0  0  0  0  0
   -7.1330   21.1120  -31.7880 C   0  0  0  0  0  0  0  0  0  0  0  0
   -7.8360   19.5990  -32.3580 S   0  0  0  0  0  0  0  0  0  0  0  0
   -8.8070   19.8890  -33.4680 O   0  0  0  0  0  0  0  0  0  0  0  0
   -8.5800   18.9320  -31.2310 O   0  0  0  0  0  0  0  0  0  0  0  0
   -6.5630   18.5610  -32.9500 N   0  0  0  0  0  0  0  0  0  0  0  0
   -7.0250   17.1790  -33.0860 C   0  0  0  0  0  0  0  0  0  0  0  0
   -6.1950   16.5480  -34.1960 C   0  0  0  0  0  0  0  0  0  0  0  0
   -5.5530   17.7130  -34.9320 C   0  0  0  0  0  0  0  0  0  0  0  0
   -6.1290   18.9610  -34.2890 C   0  0  0  0  0  0  0  0  0  0  0  0
   -7.7480   21.8280  -30.7520 C   0  0  0  0  0  0  0  0  0  0  0  0
   -7.1760   23.0140  -30.2790 C   0  0  0  0  0  0  0  0  0  0  0  0
   -3.8367   22.4043  -29.5197 H   0  0  0  0  0  0  0  0  0  0  0  0
   -2.3859   21.1887  -27.8970 H   0  0  0  0  0  0  0  0  0  0  0  0
   -0.4328   22.3424  -26.8505 H   0  0  0  0  0  0  0  0  0  0  0  0
    1.9653   25.3257  -23.8284 H   0  0  0  0  0  0  0  0  0  0  0  0
    2.5878   25.7969  -25.4756 H   0  0  0  0  0  0  0  0  0  0  0  0
    1.6320   27.6401  -23.8674 H   0  0  0  0  0  0  0  0  0  0  0  0
    1.2053   27.6244  -25.6424 H   0  0  0  0  0  0  0  0  0  0  0  0
   -0.6066   27.8694  -23.5719 H   0  0  0  0  0  0  0  0  0  0  0  0
   -0.9678   27.3003  -25.2563 H   0  0  0  0  0  0  0  0  0  0  0  0
   -0.3225   25.5393  -22.8486 H   0  0  0  0  0  0  0  0  0  0  0  0
   -1.9387   25.7716  -23.6227 H   0  0  0  0  0  0  0  0  0  0  0  0
   -0.5604   23.6591  -24.2621 H   0  0  0  0  0  0  0  0  0  0  0  0
   -1.3010   24.6840  -25.5896 H   0  0  0  0  0  0  0  0  0  0  0  0
   -1.4842   25.9947  -28.9220 H   0  0  0  0  0  0  0  0  0  0  0  0
   -4.4241   23.1451  -32.3083 H   0  0  0  0  0  0  0  0  0  0  0  0
   -5.4409   21.0237  -33.1473 H   0  0  0  0  0  0  0  0  0  0  0  0
   -6.8735   16.6339  -32.1426 H   0  0  0  0  0  0  0  0  0  0  0  0
   -8.0982   17.1420  -33.3243 H   0  0  0  0  0  0  0  0  0  0  0  0
   -5.4235   15.8884  -33.7721 H   0  0  0  0  0  0  0  0  0  0  0  0
   -6.8105   15.9300  -34.8662 H   0  0  0  0  0  0  0  0  0  0  0  0
   -4.4597   17.6881  -34.8131 H   0  0  0  0  0  0  0  0  0  0  0  0
   -5.7572   17.6774  -36.0123 H   0  0  0  0  0  0  0  0  0  0  0  0
   -5.3615   19.7462  -34.2234 H   0  0  0  0  0  0  0  0  0  0  0  0
   -6.9636   19.3693  -34.8779 H   0  0  0  0  0  0  0  0  0  0  0  0
   -8.6838   21.4562  -30.3092 H   0  0  0  0  0  0  0  0  0  0  0  0
   -7.6695   23.5763  -29.4726 H   0  0  0  0  0  0  0  0  0  0  0  0
  1  2  2  0
  2  3  2  0
  2  4  1  0
  4  5  1  0
  5  6  2  0
  6  7  1  0
  7  8  2  0
  8  9  1  0
  9 10  1  0
 10 11  2  0
 10 12  2  0
 10 13  1  0
 13 14  1  0
 14 15  1  0
 15 16  1  0
 16 17  1  0
 17 18  1  0
  9 19  2  0
  2 20  1  0
 20 21  2  0
 21 22  1  0
 22 23  2  0
 23 24  1  0
 24 25  2  0
 24 26  2  0
 24 27  1  0
 27 28  1  0
 28 29  1  0
 29 30  1  0
 30 31  1  0
 23 32  1  0
 32 33  2  0
 19  5  1  0
 33 20  1  0
 18 13  1  0
 31 27  1  0
  6 34  1  0
  7 35  1  0
  8 36  1  0
 14 37  1  0
 14 38  1  0
 15 39  1  0
 15 40  1  0
 16 41  1  0
 16 42  1  0
 17 43  1  0
 17 44  1  0
 18 45  1  0
 18 46  1  0
 19 47  1  0
 21 48  1  0
 22 49  1  0
 28 50  1  0
 28 51  1  0
 29 52  1  0
 29 53  1  0
 30 54  1  0
 30 55  1  0
 31 56  1  0
 31 57  1  0
 32 58  1  0
 33 59  1  0
M  CHG  1   4  -1
M  END
>  <UniqueID>  (39) 
39

>  <SMILES>  (39) 
O=S(=O)([N-]c1cccc(S(=O)(=O)N2CCCCC2)c1)c1ccc(S(=O)(=O)N2CCCC2)cc1

>  <Energy>  (39) 
73.81705166937499

>  <Genealogy>  (39) 
O=S(=O)([N-]c1cccc(S(=O)(=O)N2CCCCC2)c1)c1ccc(S(=O)(=O)N2CCCC2)cc1 (protonated)
O=S(=O)([N-]c1cccc(S(=O)(=O)N2CCCCC2)c1)c1ccc(S(=O)(=O)N2CCCC2)cc1 (3D coordinates assigned)
O=S(=O)([N-]c1cccc(S(=O)(=O)N2CCCCC2)c1)c1ccc(S(=O)(=O)N2CCCC2)cc1 (nonaromatic ring conformer: 73.81705166937499 kcal/mol)

>  <smiles>  (39) 
O=S(=O)(Nc1cccc(S(=O)(=O)N2CCCCC2)c1)c1ccc(S(=O)(=O)N2CCCC2)cc1

>  <score_type>  (39) 
oracle

>  <origin>  (39) 
adgpu

>  <m_score__min__energy>  (39) 
-13.02

>  <m_primary>  (39) 
energy

$$$$
39:0
     RDKit          3D

 30 32  0  0  0  0  0  0  0  0999 V2000
   -6.3030   22.3960  -29.1530 O   0  0  0  0  0  0  0  0  0  0  0  0
   -5.5330   23.3050  -29.5710 C   0  0  0  0  0  0  0  0  0  0  0  0
   -5.9470   24.1630  -30.6060 C   0  0  0  0  0  0  0  0  0  0  0  0
   -7.3210   24.0590  -31.2210 C   0  0  0  0  0  0  0  0  0  0  0  0
   -7.5760   22.6550  -31.6990 C   0  0  0  0  0  0  0  0  0  0  0  0
   -6.5580   21.9310  -32.3440 C   0  0  0  0  0  0  0  0  0  0  0  0
   -6.8040   20.6390  -32.8170 C   0  0  0  0  0  0  0  0  0  0  0  0
   -8.0670   20.0620  -32.6560 C   0  0  0  0  0  0  0  0  0  0  0  0
   -9.0870   20.7780  -32.0250 C   0  0  0  0  0  0  0  0  0  0  0  0
   -8.8460   22.0710  -31.5490 C   0  0  0  0  0  0  0  0  0  0  0  0
   -5.0670   25.1710  -31.0290 C   0  0  0  0  0  0  0  0  0  0  0  0
   -3.8650   25.3020  -30.4780 O   0  0  0  0  0  0  0  0  0  0  0  0
   -3.4320   24.5060  -29.5050 C   0  0  0  0  0  0  0  0  0  0  0  0
   -2.1540   24.7010  -28.9700 C   0  0  0  0  0  0  0  0  0  0  0  0
   -1.6880   23.8720  -27.9440 C   0  0  0  0  0  0  0  0  0  0  0  0
   -2.4990   22.8470  -27.4490 C   0  0  0  0  0  0  0  0  0  0  0  0
   -3.7770   22.6430  -27.9760 C   0  0  0  0  0  0  0  0  0  0  0  0
   -4.2550   23.4700  -29.0090 C   0  0  0  0  0  0  0  0  0  0  0  0
   -8.0765   24.3286  -30.4683 H   0  0  0  0  0  0  0  0  0  0  0  0
   -7.3812   24.7448  -32.0789 H   0  0  0  0  0  0  0  0  0  0  0  0
   -5.5640   22.3831  -32.4769 H   0  0  0  0  0  0  0  0  0  0  0  0
   -6.0024   20.0753  -33.3168 H   0  0  0  0  0  0  0  0  0  0  0  0
   -8.2577   19.0439  -33.0263 H   0  0  0  0  0  0  0  0  0  0  0  0
  -10.0815   20.3242  -31.9022 H   0  0  0  0  0  0  0  0  0  0  0  0
   -9.6529   22.6328  -31.0557 H   0  0  0  0  0  0  0  0  0  0  0  0
   -5.3764   25.8618  -31.8272 H   0  0  0  0  0  0  0  0  0  0  0  0
   -1.5143   25.5079  -29.3569 H   0  0  0  0  0  0  0  0  0  0  0  0
   -0.6822   24.0270  -27.5264 H   0  0  0  0  0  0  0  0  0  0  0  0
   -2.1297   22.1981  -26.6412 H   0  0  0  0  0  0  0  0  0  0  0  0
   -4.4105   21.8344  -27.5825 H   0  0  0  0  0  0  0  0  0  0  0  0
  1  2  2  0
  2  3  1  0
  3  4  1  0
  4  5  1  0
  5  6  2  0
  6  7  1  0
  7  8  2  0
  8  9  1  0
  9 10  2  0
  3 11  2  0
 11 12  1  0
 12 13  1  0
 13 14  2  0
 14 15  1  0
 15 16  2  0
 16 17  1  0
 17 18  2  0
 18  2  1  0
 10  5  1  0
 18 13  1  0
  4 19  1  0
  4 20  1  0
  6 21  1  0
  7 22  1  0
  8 23  1  0
  9 24  1  0
 10 25  1  0
 11 26  1  0
 14 27  1  0
 15 28  1  0
 16 29  1  0
 17 30  1  0
M  END
>  <UniqueID>  (40) 
40

>  <SMILES>  (40) 
O=c1c(Cc2ccccc2)coc2ccccc12

>  <Energy>  (40) 
37.59761956759215

>  <Genealogy>  (40) 
O=c1c(Cc2ccccc2)coc2ccccc12 (3D coordinates assigned)
O=c1c(Cc2ccccc2)coc2ccccc12 (optimized conformer: 37.59761956759215 kcal/mol)

>  <smiles>  (40) 
O=c1c(Cc2ccccc2)coc2ccccc12

>  <score_type>  (40) 
oracle

>  <origin>  (40) 
adgpu

>  <m_score__min__energy>  (40) 
-7.4500000000000002

>  <m_primary>  (40) 
energy

$$$$
40:0
     RDKit          3D

 65 68  0  0  0  0  0  0  0  0999 V2000
   -1.4320   21.8890  -26.5420 C   0  0  0  0  0  0  0  0  0  0  0  0
   -1.9340   22.8070  -27.6230 C   0  0  0  0  0  0  0  0  0  0  0  0
   -3.1200   22.4520  -28.2890 C   0  0  0  0  0  0  0  0  0  0  0  0
   -3.6540   23.2690  -29.2820 C   0  0  0  0  0  0  0  0  0  0  0  0
   -3.0040   24.4400  -29.6610 C   0  0  0  0  0  0  0  0  0  0  0  0
   -3.6250   25.2860  -30.6360 N   0  0  0  0  0  0  0  0  0  0  0  0
   -4.9940   25.1940  -31.0390 C   0  0  0  0  0  0  0  0  0  0  0  0
   -5.7920   26.1100  -30.7010 O   0  0  0  0  0  0  0  0  0  0  0  0
   -5.4320   24.1140  -31.8680 N   0  0  0  0  0  0  0  0  0  0  0  0
   -6.3280   23.0530  -31.4950 C   0  0  0  0  0  0  0  0  0  0  0  0
   -7.2920   23.2110  -30.4730 C   0  0  0  0  0  0  0  0  0  0  0  0
   -7.3610   24.3720  -29.7070 O   0  0  0  0  0  0  0  0  0  0  0  0
   -8.1910   22.1790  -30.1940 C   0  0  0  0  0  0  0  0  0  0  0  0
   -8.1220   20.9740  -30.8880 C   0  0  0  0  0  0  0  0  0  0  0  0
   -7.1240   20.7680  -31.8500 C   0  0  0  0  0  0  0  0  0  0  0  0
   -7.0180   19.2080  -32.6770 S   0  0  0  0  0  0  0  0  0  0  0  0
   -6.4490   18.1630  -31.7560 O   0  0  0  0  0  0  0  0  0  0  0  0
   -8.4000   18.7720  -33.0780 O   0  0  0  0  0  0  0  0  0  0  0  0
   -6.0220   19.3090  -34.0970 N   0  0  0  0  0  0  0  0  0  0  0  0
   -4.6950   18.7760  -34.2060 C   0  0  0  0  0  0  0  0  0  0  0  0
   -4.4340   17.5670  -34.8770 C   0  0  0  0  0  0  0  0  0  0  0  0
   -3.1290   17.0770  -34.9610 C   0  0  0  0  0  0  0  0  0  0  0  0
   -2.0740   17.7890  -34.3850 C   0  0  0  0  0  0  0  0  0  0  0  0
   -2.3200   18.9970  -33.7140 C   0  0  0  0  0  0  0  0  0  0  0  0
   -0.9790   19.9160  -33.0270 S   0  0  0  0  0  0  0  0  0  0  0  0
    0.1370   18.9660  -32.6810 O   0  0  0  0  0  0  0  0  0  0  0  0
   -0.4600   20.8800  -34.0610 O   0  0  0  0  0  0  0  0  0  0  0  0
   -1.4630   20.7930  -31.5950 N   0  0  0  0  0  0  0  0  0  0  0  0
   -0.2760   21.2940  -30.8910 C   0  0  0  0  0  0  0  0  0  0  0  0
   -2.3400   21.9090  -31.9680 C   0  0  0  0  0  0  0  0  0  0  0  0
   -3.6350   19.4770  -33.6120 C   0  0  0  0  0  0  0  0  0  0  0  0
   -6.2190   21.8050  -32.1490 C   0  0  0  0  0  0  0  0  0  0  0  0
   -5.2230   21.5810  -33.1030 O   0  0  0  0  0  0  0  0  0  0  0  0
   -1.8260   24.8280  -28.9920 C   0  0  0  0  0  0  0  0  0  0  0  0
   -1.2180   26.0370  -29.3200 O   0  0  0  0  0  0  0  0  0  0  0  0
   -1.2820   24.0250  -27.9660 C   0  0  0  0  0  0  0  0  0  0  0  0
    0.1990   24.6030  -27.1590 S   0  0  0  0  0  0  0  0  0  0  0  0
    1.3080   24.8930  -28.1310 O   0  0  0  0  0  0  0  0  0  0  0  0
    0.6840   23.5370  -26.2170 O   0  0  0  0  0  0  0  0  0  0  0  0
   -0.1980   26.0630  -26.1990 C   0  0  0  0  0  0  0  0  0  0  0  0
   -1.6690   26.2370  -25.8420 C   0  0  0  0  0  0  0  0  0  0  0  0
   -0.6730   25.7840  -24.7820 C   0  0  0  0  0  0  0  0  0  0  0  0
   -1.6672   22.3191  -25.5573 H   0  0  0  0  0  0  0  0  0  0  0  0
   -1.9189   20.9074  -26.6392 H   0  0  0  0  0  0  0  0  0  0  0  0
   -0.3429   21.7693  -26.6392 H   0  0  0  0  0  0  0  0  0  0  0  0
   -3.6330   21.5163  -28.0221 H   0  0  0  0  0  0  0  0  0  0  0  0
   -4.5978   22.9865  -29.7713 H   0  0  0  0  0  0  0  0  0  0  0  0
   -8.9597   22.3195  -29.4198 H   0  0  0  0  0  0  0  0  0  0  0  0
   -8.8543   20.1799  -30.6802 H   0  0  0  0  0  0  0  0  0  0  0  0
   -5.2608   17.0059  -35.3370 H   0  0  0  0  0  0  0  0  0  0  0  0
   -2.9313   16.1285  -35.4818 H   0  0  0  0  0  0  0  0  0  0  0  0
   -1.0470   17.4016  -34.4576 H   0  0  0  0  0  0  0  0  0  0  0  0
   -0.4377   21.2257  -29.8051 H   0  0  0  0  0  0  0  0  0  0  0  0
    0.5988   20.6883  -31.1702 H   0  0  0  0  0  0  0  0  0  0  0  0
   -0.0997   22.3433  -31.1702 H   0  0  0  0  0  0  0  0  0  0  0  0
   -2.7220   22.3951  -31.0582 H   0  0  0  0  0  0  0  0  0  0  0  0
   -1.7715   22.6392  -32.5627 H   0  0  0  0  0  0  0  0  0  0  0  0
   -3.1839   21.5293  -32.5627 H   0  0  0  0  0  0  0  0  0  0  0  0
   -3.8356   20.4087  -33.0628 H   0  0  0  0  0  0  0  0  0  0  0  0
   -5.4200   21.1810  -34.0120 H   0  0  0  0  0  0  0  0  0  0  0  0
    0.5690   26.7049  -26.6569 H   0  0  0  0  0  0  0  0  0  0  0  0
   -2.1074   27.2445  -25.7905 H   0  0  0  0  0  0  0  0  0  0  0  0
   -2.6178   25.8450  -26.2371 H   0  0  0  0  0  0  0  0  0  0  0  0
   -0.3929   26.4644  -23.9643 H   0  0  0  0  0  0  0  0  0  0  0  0
   -0.6055   24.9285  -24.0938 H   0  0  0  0  0  0  0  0  0  0  0  0
  1  2  1  0
  2  3  2  0
  3  4  1  0
  4  5  2  0
  5  6  1  0
  6  7  1  0
  7  8  2  0
  7  9  1  0
  9 10  1  0
 10 11  2  0
 11 12  1  0
 11 13  1  0
 13 14  2  0
 14 15  1  0
 15 16  1  0
 16 17  2  0
 16 18  2  0
 16 19  1  0
 19 20  1  0
 20 21  2  0
 21 22  1  0
 22 23  2  0
 23 24  1  0
 24 25  1  0
 25 26  2  0
 25 27  2  0
 25 28  1  0
 28 29  1  0
 28 30  1  0
 24 31  2  0
 15 32  2  0
 32 33  1  0
  5 34  1  0
 34 35  1  0
 34 36  2  0
 36 37  1  0
 37 38  2  0
 37 39  2  0
 37 40  1  0
 40 41  1  0
 41 42  1  0
 36  2  1  0
 42 40  1  0
 32 10  1  0
 31 20  1  0
  1 43  1  0
  1 44  1  0
  1 45  1  0
  3 46  1  0
  4 47  1  0
 13 48  1  0
 14 49  1  0
 21 50  1  0
 22 51  1  0
 23 52  1  0
 29 53  1  0
 29 54  1  0
 29 55  1  0
 30 56  1  0
 30 57  1  0
 30 58  1  0
 31 59  1  0
 33 60  1  0
 40 61  1  0
 41 62  1  0
 41 63  1  0
 42 64  1  0
 42 65  1  0
M  CHG  5   6  -1   9  -1  12  -1  19  -1  35  -1
M  END
>  <UniqueID>  (41) 
41

>  <SMILES>  (41) 
Cc1ccc([N-]C(=O)[N-]c2c([O-])ccc(S(=O)(=O)[N-]c3cccc(S(=O)(=O)N(C)C)c3)c2O)c([O-])c1S(=O)(=O)C1CC1

>  <Energy>  (41) 
349.9999145101742

>  <Genealogy>  (41) 
Cc1ccc([N-]C(=O)[N-]c2c([O-])ccc(S(=O)(=O)[N-]c3cccc(S(=O)(=O)N(C)C)c3)c2O)c([O-])c1S(=O)(=O)C1CC1 (protonated)
Cc1ccc([N-]C(=O)[N-]c2c([O-])ccc(S(=O)(=O)[N-]c3cccc(S(=O)(=O)N(C)C)c3)c2O)c([O-])c1S(=O)(=O)C1CC1 (3D coordinates assigned)
Cc1ccc([N-]C(=O)[N-]c2c([O-])ccc(S(=O)(=O)[N-]c3cccc(S(=O)(=O)N(C)C)c3)c2O)c([O-])c1S(=O)(=O)C1CC1 (nonaromatic ring conformer: 349.9999145101742 kcal/mol)

>  <smiles>  (41) 
Cc1ccc(NC(=O)Nc2c(O)ccc(S(=O)(=O)Nc3cccc(S(=O)(=O)N(C)C)c3)c2O)c(O)c1S(=O)(=O)C1CC1

>  <score_type>  (41) 
oracle

>  <origin>  (41) 
adgpu

>  <m_score__min__energy>  (41) 
-16.550000000000001

>  <m_primary>  (41) 
energy

$$$$
41:0
     RDKit          3D

 51 54  0  0  0  0  0  0  0  0999 V2000
    0.2250   19.4280  -29.9250 C   0  0  0  0  0  0  0  0  0  0  0  0
   -0.1300   19.7850  -28.5500 N   0  0  0  0  0  0  0  0  0  0  0  0
    0.1010   21.1370  -28.0390 C   0  0  0  0  0  0  0  0  0  0  0  0
   -1.1800   21.9400  -27.9850 C   0  0  0  0  0  0  0  0  0  0  0  0
   -1.1580   23.2150  -28.5850 C   0  0  0  0  0  0  0  0  0  0  0  0
   -2.3180   23.9770  -28.7160 C   0  0  0  0  0  0  0  0  0  0  0  0
   -2.2420   25.2170  -29.3520 O   0  0  0  0  0  0  0  0  0  0  0  0
   -3.5360   23.4770  -28.2380 C   0  0  0  0  0  0  0  0  0  0  0  0
   -4.7560   24.1860  -28.4980 N   0  0  0  0  0  0  0  0  0  0  0  0
   -5.3180   24.5640  -30.1000 S   0  0  0  0  0  0  0  0  0  0  0  0
   -6.5550   25.4070  -30.0070 O   0  0  0  0  0  0  0  0  0  0  0  0
   -4.2520   25.3350  -30.8220 O   0  0  0  0  0  0  0  0  0  0  0  0
   -5.6470   23.0910  -31.0120 C   0  0  0  0  0  0  0  0  0  0  0  0
   -4.5970   22.4360  -31.6640 C   0  0  0  0  0  0  0  0  0  0  0  0
   -4.8050   21.1930  -32.2640 C   0  0  0  0  0  0  0  0  0  0  0  0
   -6.0690   20.5820  -32.2200 C   0  0  0  0  0  0  0  0  0  0  0  0
   -6.2740   19.2270  -32.7970 C   0  0  0  0  0  0  0  0  0  0  0  0
   -7.1170   18.2970  -32.1700 C   0  0  0  0  0  0  0  0  0  0  0  0
   -7.2970   17.0200  -32.7100 C   0  0  0  0  0  0  0  0  0  0  0  0
   -6.6390   16.6570  -33.8810 C   0  0  0  0  0  0  0  0  0  0  0  0
   -6.8600   15.0520  -34.5510 Cl  0  0  0  0  0  0  0  0  0  0  0  0
   -5.8010   17.5730  -34.5130 C   0  0  0  0  0  0  0  0  0  0  0  0
   -5.6140   18.8480  -33.9750 C   0  0  0  0  0  0  0  0  0  0  0  0
   -7.1270   21.2610  -31.5940 C   0  0  0  0  0  0  0  0  0  0  0  0
   -6.9180   22.5080  -30.9980 C   0  0  0  0  0  0  0  0  0  0  0  0
   -3.5540   22.2570  -27.5530 C   0  0  0  0  0  0  0  0  0  0  0  0
   -2.4130   21.4430  -27.4630 C   0  0  0  0  0  0  0  0  0  0  0  0
   -2.6200   20.1170  -26.7350 C   0  0  0  0  0  0  0  0  0  0  0  0
   -2.2190   18.8350  -27.4630 C   0  0  0  0  0  0  0  0  0  0  0  0
   -0.7380   18.8110  -27.6930 C   0  0  0  0  0  0  0  0  0  0  0  0
   -0.0270   17.9560  -27.0960 O   0  0  0  0  0  0  0  0  0  0  0  0
    1.0006   18.6480  -29.9127 H   0  0  0  0  0  0  0  0  0  0  0  0
   -0.6663   19.0506  -30.4476 H   0  0  0  0  0  0  0  0  0  0  0  0
    0.6074   20.3172  -30.4476 H   0  0  0  0  0  0  0  0  0  0  0  0
    0.5218   21.0680  -27.0250 H   0  0  0  0  0  0  0  0  0  0  0  0
    0.7977   21.6473  -28.7204 H   0  0  0  0  0  0  0  0  0  0  0  0
   -0.2048   23.6177  -28.9581 H   0  0  0  0  0  0  0  0  0  0  0  0
   -3.0540   25.6780  -29.7450 H   0  0  0  0  0  0  0  0  0  0  0  0
   -3.6019   22.9031  -31.7041 H   0  0  0  0  0  0  0  0  0  0  0  0
   -3.9724   20.6879  -32.7754 H   0  0  0  0  0  0  0  0  0  0  0  0
   -7.6416   18.5755  -31.2441 H   0  0  0  0  0  0  0  0  0  0  0  0
   -7.9605   16.3005  -32.2079 H   0  0  0  0  0  0  0  0  0  0  0  0
   -5.2834   17.2902  -35.4415 H   0  0  0  0  0  0  0  0  0  0  0  0
   -4.9441   19.5603  -34.4788 H   0  0  0  0  0  0  0  0  0  0  0  0
   -8.1290   20.8075  -31.5725 H   0  0  0  0  0  0  0  0  0  0  0  0
   -7.7563   23.0326  -30.5163 H   0  0  0  0  0  0  0  0  0  0  0  0
   -4.4866   21.9267  -27.0722 H   0  0  0  0  0  0  0  0  0  0  0  0
   -2.0384   20.1604  -25.8023 H   0  0  0  0  0  0  0  0  0  0  0  0
   -3.7100   20.0360  -26.6110 H   0  0  0  0  0  0  0  0  0  0  0  0
   -2.5059   17.9659  -26.8528 H   0  0  0  0  0  0  0  0  0  0  0  0
   -2.7334   18.7985  -28.4346 H   0  0  0  0  0  0  0  0  0  0  0  0
  1  2  1  0
  2  3  1  0
  3  4  1  0
  4  5  2  0
  5  6  1  0
  6  7  1  0
  6  8  2  0
  8  9  1  0
  9 10  1  0
 10 11  2  0
 10 12  2  0
 10 13  1  0
 13 14  2  0
 14 15  1  0
 15 16  2  0
 16 17  1  0
 17 18  2  0
 18 19  1  0
 19 20  2  0
 20 21  1  0
 20 22  1  0
 22 23  2  0
 16 24  1  0
 24 25  2  0
  8 26  1  0
 26 27  2  0
 27 28  1  0
 28 29  1  0
 29 30  1  0
 30 31  2  0
 30  2  1  0
 27  4  1  0
 25 13  1  0
 23 17  1  0
  1 32  1  0
  1 33  1  0
  1 34  1  0
  3 35  1  0
  3 36  1  0
  5 37  1  0
  7 38  1  0
 14 39  1  0
 15 40  1  0
 18 41  1  0
 19 42  1  0
 22 43  1  0
 23 44  1  0
 24 45  1  0
 25 46  1  0
 26 47  1  0
 28 48  1  0
 28 49  1  0
 29 50  1  0
 29 51  1  0
M  CHG  1   9  -1
M  END
>  <UniqueID>  (42) 
42

>  <SMILES>  (42) 
CN1Cc2cc(O)c([N-]S(=O)(=O)c3ccc(-c4ccc(Cl)cc4)cc3)cc2CCC1=O

>  <Energy>  (42) 
72.51933025837398

>  <Genealogy>  (42) 
CN1Cc2cc(O)c([N-]S(=O)(=O)c3ccc(-c4ccc(Cl)cc4)cc3)cc2CCC1=O (protonated)
CN1Cc2cc(O)c([N-]S(=O)(=O)c3ccc(-c4ccc(Cl)cc4)cc3)cc2CCC1=O (3D coordinates assigned)
CN1Cc2cc(O)c([N-]S(=O)(=O)c3ccc(-c4ccc(Cl)cc4)cc3)cc2CCC1=O (nonaromatic ring conformer: 72.51933025837398 kcal/mol)

>  <smiles>  (42) 
CN1Cc2cc(O)c(NS(=O)(=O)c3ccc(-c4ccc(Cl)cc4)cc3)cc2CCC1=O

>  <score_type>  (42) 
oracle

>  <origin>  (42) 
adgpu

>  <m_score__min__energy>  (42) 
-11.539999999999999

>  <m_primary>  (42) 
energy

$$$$
42:0
     RDKit          3D

 43 45  0  0  0  0  0  0  0  0999 V2000
   -3.6600   21.9920  -33.6540 N   0  0  0  0  0  0  0  0  0  0  0  0
   -3.8970   21.0640  -32.5530 C   0  0  0  0  0  0  0  0  0  0  0  0
   -5.3140   20.5400  -32.6080 C   0  0  0  0  0  0  0  0  0  0  0  0
   -5.5530   19.2850  -33.1970 C   0  0  0  0  0  0  0  0  0  0  0  0
   -6.8400   18.7440  -33.2220 C   0  0  0  0  0  0  0  0  0  0  0  0
   -7.9040   19.4420  -32.6510 C   0  0  0  0  0  0  0  0  0  0  0  0
   -7.6860   20.6860  -32.0590 C   0  0  0  0  0  0  0  0  0  0  0  0
   -6.4000   21.2520  -32.0360 C   0  0  0  0  0  0  0  0  0  0  0  0
   -6.2260   22.5740  -31.3950 C   0  0  0  0  0  0  0  0  0  0  0  0
   -7.3490   23.3220  -31.0130 C   0  0  0  0  0  0  0  0  0  0  0  0
   -7.1910   24.5930  -30.4530 C   0  0  0  0  0  0  0  0  0  0  0  0
   -5.9120   25.1270  -30.2730 C   0  0  0  0  0  0  0  0  0  0  0  0
   -4.7810   24.3870  -30.6370 C   0  0  0  0  0  0  0  0  0  0  0  0
   -3.4810   24.9670  -30.4610 N   0  0  0  0  0  0  0  0  0  0  0  0
   -2.5130   24.5410  -29.4940 C   0  0  0  0  0  0  0  0  0  0  0  0
   -1.8840   25.4130  -28.8380 O   0  0  0  0  0  0  0  0  0  0  0  0
   -2.2740   23.1070  -29.2160 C   0  0  0  0  0  0  0  0  0  0  0  0
   -2.6620   22.5440  -27.9880 C   0  0  0  0  0  0  0  0  0  0  0  0
   -2.4090   21.1990  -27.7190 C   0  0  0  0  0  0  0  0  0  0  0  0
   -1.7850   20.3940  -28.6750 C   0  0  0  0  0  0  0  0  0  0  0  0
   -1.4120   20.9310  -29.9190 C   0  0  0  0  0  0  0  0  0  0  0  0
   -0.6980   20.0760  -30.9350 C   0  0  0  0  0  0  0  0  0  0  0  0
    0.2500   19.2740  -30.3230 F   0  0  0  0  0  0  0  0  0  0  0  0
   -0.0710   20.8930  -31.8570 F   0  0  0  0  0  0  0  0  0  0  0  0
   -1.5950   19.2550  -31.5970 F   0  0  0  0  0  0  0  0  0  0  0  0
   -1.6310   22.2980  -30.1680 C   0  0  0  0  0  0  0  0  0  0  0  0
   -4.9430   23.1170  -31.2190 C   0  0  0  0  0  0  0  0  0  0  0  0
   -2.9390   21.5720  -34.2840 H   0  0  0  0  0  0  0  0  0  0  0  0
   -4.5420   22.0560  -34.2130 H   0  0  0  0  0  0  0  0  0  0  0  0
   -3.1946   20.2211  -32.6306 H   0  0  0  0  0  0  0  0  0  0  0  0
   -3.7462   21.5918  -31.5998 H   0  0  0  0  0  0  0  0  0  0  0  0
   -4.7178   18.7244  -33.6422 H   0  0  0  0  0  0  0  0  0  0  0  0
   -7.0151   17.7654  -33.6929 H   0  0  0  0  0  0  0  0  0  0  0  0
   -8.9159   19.0111  -32.6676 H   0  0  0  0  0  0  0  0  0  0  0  0
   -8.5285   21.2290  -31.6059 H   0  0  0  0  0  0  0  0  0  0  0  0
   -8.3579   22.9071  -31.1545 H   0  0  0  0  0  0  0  0  0  0  0  0
   -8.0754   25.1743  -30.1533 H   0  0  0  0  0  0  0  0  0  0  0  0
   -5.7937   26.1328  -29.8436 H   0  0  0  0  0  0  0  0  0  0  0  0
   -3.1676   23.1671  -27.2355 H   0  0  0  0  0  0  0  0  0  0  0  0
   -2.7022   20.7701  -26.7494 H   0  0  0  0  0  0  0  0  0  0  0  0
   -1.5847   19.3354  -28.4532 H   0  0  0  0  0  0  0  0  0  0  0  0
   -1.2952   22.7385  -31.1184 H   0  0  0  0  0  0  0  0  0  0  0  0
   -4.0591   22.5454  -31.5384 H   0  0  0  0  0  0  0  0  0  0  0  0
  1  2  1  0
  2  3  1  0
  3  4  2  0
  4  5  1  0
  5  6  2  0
  6  7  1  0
  7  8  2  0
  8  9  1  0
  9 10  2  0
 10 11  1  0
 11 12  2  0
 12 13  1  0
 13 14  1  0
 14 15  1  0
 15 16  2  0
 15 17  1  0
 17 18  2  0
 18 19  1  0
 19 20  2  0
 20 21  1  0
 21 22  1  0
 22 23  1  0
 22 24  1  0
 22 25  1  0
 21 26  2  0
 13 27  2  0
  8  3  1  0
 27  9  1  0
 26 17  1  0
  1 28  1  0
  1 29  1  0
  2 30  1  0
  2 31  1  0
  4 32  1  0
  5 33  1  0
  6 34  1  0
  7 35  1  0
 10 36  1  0
 11 37  1  0
 12 38  1  0
 18 39  1  0
 19 40  1  0
 20 41  1  0
 26 42  1  0
 27 43  1  0
M  CHG  1  14  -1
M  END
>  <UniqueID>  (43) 
43

>  <SMILES>  (43) 
NCc1ccccc1-c1cccc([N-]C(=O)c2cccc(C(F)(F)F)c2)c1

>  <Energy>  (43) 
57.148537679413586

>  <Genealogy>  (43) 
NCc1ccccc1-c1cccc([N-]C(=O)c2cccc(C(F)(F)F)c2)c1 (protonated)
NCc1ccccc1-c1cccc([N-]C(=O)c2cccc(C(F)(F)F)c2)c1 (3D coordinates assigned)
NCc1ccccc1-c1cccc([N-]C(=O)c2cccc(C(F)(F)F)c2)c1 (optimized conformer: 57.148537679413586 kcal/mol)

>  <smiles>  (43) 
NCc1ccccc1-c1cccc(NC(=O)c2cccc(C(F)(F)F)c2)c1

>  <score_type>  (43) 
oracle

>  <origin>  (43) 
adgpu

>  <m_score__min__energy>  (43) 
-10.82

>  <m_primary>  (43) 
energy

$$$$
43:0
     RDKit          3D

 44 47  0  0  0  0  0  0  0  0999 V2000
   -4.2150   17.2050  -35.3490 C   0  0  0  0  0  0  0  0  0  0  0  0
   -5.2030   17.6700  -34.3210 C   0  0  0  0  0  0  0  0  0  0  0  0
   -6.3270   16.8880  -34.0190 C   0  0  0  0  0  0  0  0  0  0  0  0
   -7.2630   17.3350  -33.0840 C   0  0  0  0  0  0  0  0  0  0  0  0
   -7.0900   18.5680  -32.4510 C   0  0  0  0  0  0  0  0  0  0  0  0
   -5.9810   19.3750  -32.7560 C   0  0  0  0  0  0  0  0  0  0  0  0
   -5.8000   20.6890  -32.0900 C   0  0  0  0  0  0  0  0  0  0  0  0
   -4.5400   21.3120  -32.0690 C   0  0  0  0  0  0  0  0  0  0  0  0
   -4.3730   22.5540  -31.4510 C   0  0  0  0  0  0  0  0  0  0  0  0
   -5.4620   23.1920  -30.8440 C   0  0  0  0  0  0  0  0  0  0  0  0
   -5.2660   24.7750  -30.0970 S   0  0  0  0  0  0  0  0  0  0  0  0
   -6.6050   25.3940  -29.8110 O   0  0  0  0  0  0  0  0  0  0  0  0
   -4.5060   25.6620  -31.0410 O   0  0  0  0  0  0  0  0  0  0  0  0
   -4.3820   24.6300  -28.6090 N   0  0  0  0  0  0  0  0  0  0  0  0
   -3.1910   23.8330  -28.4580 C   0  0  0  0  0  0  0  0  0  0  0  0
   -3.2450   22.5240  -27.9430 C   0  0  0  0  0  0  0  0  0  0  0  0
   -2.0800   21.7460  -27.8270 C   0  0  0  0  0  0  0  0  0  0  0  0
   -2.1520   20.3610  -27.3130 C   0  0  0  0  0  0  0  0  0  0  0  0
   -1.1110   19.5100  -27.2650 N   0  0  0  0  0  0  0  0  0  0  0  0
   -1.6090   18.3960  -26.7540 N   0  0  0  0  0  0  0  0  0  0  0  0
   -2.8970   18.5570  -26.4990 N   0  0  0  0  0  0  0  0  0  0  0  0
   -3.2700   19.7800  -26.8390 N   0  0  0  0  0  0  0  0  0  0  0  0
   -0.8480   22.2960  -28.2100 C   0  0  0  0  0  0  0  0  0  0  0  0
   -0.7820   23.5990  -28.7060 C   0  0  0  0  0  0  0  0  0  0  0  0
   -1.9430   24.3670  -28.8330 C   0  0  0  0  0  0  0  0  0  0  0  0
   -1.8490   25.6580  -29.3400 O   0  0  0  0  0  0  0  0  0  0  0  0
   -6.7180   22.5710  -30.8510 C   0  0  0  0  0  0  0  0  0  0  0  0
   -6.8870   21.3320  -31.4720 C   0  0  0  0  0  0  0  0  0  0  0  0
   -5.0420   18.9190  -33.7000 C   0  0  0  0  0  0  0  0  0  0  0  0
   -3.3302   16.7886  -34.8452 H   0  0  0  0  0  0  0  0  0  0  0  0
   -4.6775   16.4300  -35.9779 H   0  0  0  0  0  0  0  0  0  0  0  0
   -3.9126   18.0553  -35.9779 H   0  0  0  0  0  0  0  0  0  0  0  0
   -6.4719   15.9195  -34.5201 H   0  0  0  0  0  0  0  0  0  0  0  0
   -8.1391   16.7142  -32.8453 H   0  0  0  0  0  0  0  0  0  0  0  0
   -7.8267   18.9094  -31.7089 H   0  0  0  0  0  0  0  0  0  0  0  0
   -3.6789   20.8179  -32.5427 H   0  0  0  0  0  0  0  0  0  0  0  0
   -3.3825   23.0324  -31.4412 H   0  0  0  0  0  0  0  0  0  0  0  0
   -4.7020   25.2320  -27.8190 H   0  0  0  0  0  0  0  0  0  0  0  0
   -4.2116   22.1044  -27.6272 H   0  0  0  0  0  0  0  0  0  0  0  0
    0.0706   21.6977  -28.1191 H   0  0  0  0  0  0  0  0  0  0  0  0
    0.1894   24.0240  -28.9987 H   0  0  0  0  0  0  0  0  0  0  0  0
   -7.5744   23.0616  -30.3653 H   0  0  0  0  0  0  0  0  0  0  0  0
   -7.8783   20.8552  -31.4778 H   0  0  0  0  0  0  0  0  0  0  0  0
   -4.1747   19.5463  -33.9534 H   0  0  0  0  0  0  0  0  0  0  0  0
  1  2  1  0
  2  3  2  0
  3  4  1  0
  4  5  2  0
  5  6  1  0
  6  7  1  0
  7  8  2  0
  8  9  1  0
  9 10  2  0
 10 11  1  0
 11 12  2  0
 11 13  2  0
 11 14  1  0
 14 15  1  0
 15 16  2  0
 16 17  1  0
 17 18  1  0
 18 19  1  0
 19 20  2  0
 20 21  1  0
 21 22  1  0
 17 23  2  0
 23 24  1  0
 24 25  2  0
 25 26  1  0
 10 27  1  0
 27 28  2  0
  6 29  2  0
 29  2  1  0
 28  7  1  0
 25 15  1  0
 22 18  2  0
  1 30  1  0
  1 31  1  0
  1 32  1  0
  3 33  1  0
  4 34  1  0
  5 35  1  0
  8 36  1  0
  9 37  1  0
 14 38  1  0
 16 39  1  0
 23 40  1  0
 24 41  1  0
 27 42  1  0
 28 43  1  0
 29 44  1  0
M  CHG  2  21  -1  26  -1
M  END
>  <UniqueID>  (44) 
44

>  <SMILES>  (44) 
Cc1cccc(-c2ccc(S(=O)(=O)Nc3cc(-c4nn[n-]n4)ccc3[O-])cc2)c1

>  <Energy>  (44) 
94.76152159875784

>  <Genealogy>  (44) 
Cc1cccc(-c2ccc(S(=O)(=O)Nc3cc(-c4nn[n-]n4)ccc3[O-])cc2)c1 (protonated)
Cc1cccc(-c2ccc(S(=O)(=O)Nc3cc(-c4nn[n-]n4)ccc3[O-])cc2)c1 (3D coordinates assigned)
Cc1cccc(-c2ccc(S(=O)(=O)Nc3cc(-c4nn[n-]n4)ccc3[O-])cc2)c1 (optimized conformer: 94.76152159875784 kcal/mol)

>  <smiles>  (44) 
Cc1cccc(-c2ccc(S(=O)(=O)Nc3cc(-c4nn[nH]n4)ccc3O)cc2)c1

>  <score_type>  (44) 
oracle

>  <origin>  (44) 
adgpu

>  <m_score__min__energy>  (44) 
-14.27

>  <m_primary>  (44) 
energy

$$$$
44:0
     RDKit          3D

 46 48  0  0  0  0  0  0  0  0999 V2000
   -1.3540   21.8940  -26.4740 C   0  0  0  0  0  0  0  0  0  0  0  0
   -1.9680   22.8580  -27.4560 C   0  0  0  0  0  0  0  0  0  0  0  0
   -3.1990   22.5020  -28.0280 C   0  0  0  0  0  0  0  0  0  0  0  0
   -3.8080   23.3160  -28.9790 C   0  0  0  0  0  0  0  0  0  0  0  0
   -3.2080   24.5080  -29.3740 C   0  0  0  0  0  0  0  0  0  0  0  0
   -3.8580   25.3060  -30.3720 N   0  0  0  0  0  0  0  0  0  0  0  0
   -5.2430   25.2050  -30.7090 C   0  0  0  0  0  0  0  0  0  0  0  0
   -6.0960   25.7800  -29.9830 O   0  0  0  0  0  0  0  0  0  0  0  0
   -5.6430   24.5400  -31.9160 N   0  0  0  0  0  0  0  0  0  0  0  0
   -5.6530   23.1220  -32.1280 C   0  0  0  0  0  0  0  0  0  0  0  0
   -6.8600   22.4250  -32.3230 C   0  0  0  0  0  0  0  0  0  0  0  0
   -6.8540   21.0370  -32.4910 C   0  0  0  0  0  0  0  0  0  0  0  0
   -5.6490   20.3340  -32.4550 C   0  0  0  0  0  0  0  0  0  0  0  0
   -4.4470   21.0130  -32.2450 C   0  0  0  0  0  0  0  0  0  0  0  0
   -4.4420   22.4030  -32.0770 C   0  0  0  0  0  0  0  0  0  0  0  0
   -3.2230   23.0490  -31.8660 O   0  0  0  0  0  0  0  0  0  0  0  0
   -1.9520   24.8650  -28.8490 C   0  0  0  0  0  0  0  0  0  0  0  0
   -1.3220   26.0080  -29.3260 O   0  0  0  0  0  0  0  0  0  0  0  0
   -1.3230   24.0590  -27.8700 C   0  0  0  0  0  0  0  0  0  0  0  0
    0.2970   24.5380  -27.2750 S   0  0  0  0  0  0  0  0  0  0  0  0
    0.8210   23.5200  -26.3020 O   0  0  0  0  0  0  0  0  0  0  0  0
    1.2480   24.5390  -28.4390 O   0  0  0  0  0  0  0  0  0  0  0  0
    0.3580   26.1210  -26.5200 N   0  0  0  0  0  0  0  0  0  0  0  0
    1.0010   26.1350  -25.1960 C   0  0  0  0  0  0  0  0  0  0  0  0
   -0.0030   25.8590  -24.0700 C   0  0  0  0  0  0  0  0  0  0  0  0
   -1.0680   26.7830  -24.1270 O   0  0  0  0  0  0  0  0  0  0  0  0
   -1.7940   26.5820  -25.3200 C   0  0  0  0  0  0  0  0  0  0  0  0
   -0.9210   26.8560  -26.5560 C   0  0  0  0  0  0  0  0  0  0  0  0
   -1.5677   22.2295  -25.4484 H   0  0  0  0  0  0  0  0  0  0  0  0
   -1.7806   20.8919  -26.6284 H   0  0  0  0  0  0  0  0  0  0  0  0
   -0.2655   21.8569  -26.6284 H   0  0  0  0  0  0  0  0  0  0  0  0
   -3.6896   21.5667  -27.7206 H   0  0  0  0  0  0  0  0  0  0  0  0
   -4.7694   23.0152  -29.4210 H   0  0  0  0  0  0  0  0  0  0  0  0
   -7.8125   22.9748  -32.3433 H   0  0  0  0  0  0  0  0  0  0  0  0
   -7.7998   20.4987  -32.6517 H   0  0  0  0  0  0  0  0  0  0  0  0
   -5.6460   19.2426  -32.5924 H   0  0  0  0  0  0  0  0  0  0  0  0
   -3.5004   20.4537  -32.2114 H   0  0  0  0  0  0  0  0  0  0  0  0
   -3.1640   24.0280  -31.6140 H   0  0  0  0  0  0  0  0  0  0  0  0
    1.7833   25.3621  -25.1723 H   0  0  0  0  0  0  0  0  0  0  0  0
    1.4277   27.1360  -25.0347 H   0  0  0  0  0  0  0  0  0  0  0  0
   -0.4008   24.8394  -24.1802 H   0  0  0  0  0  0  0  0  0  0  0  0
    0.5082   25.9611  -23.1014 H   0  0  0  0  0  0  0  0  0  0  0  0
   -2.1470   25.5407  -25.3539 H   0  0  0  0  0  0  0  0  0  0  0  0
   -2.6436   27.2806  -25.3322 H   0  0  0  0  0  0  0  0  0  0  0  0
   -1.4772   26.5518  -27.4549 H   0  0  0  0  0  0  0  0  0  0  0  0
   -0.6879   27.9310  -26.5683 H   0  0  0  0  0  0  0  0  0  0  0  0
  1  2  1  0
  2  3  2  0
  3  4  1  0
  4  5  2  0
  5  6  1  0
  6  7  1  0
  7  8  2  0
  7  9  1  0
  9 10  1  0
 10 11  2  0
 11 12  1  0
 12 13  2  0
 13 14  1  0
 14 15  2  0
 15 16  1  0
  5 17  1  0
 17 18  1  0
 17 19  2  0
 19 20  1  0
 20 21  2  0
 20 22  2  0
 20 23  1  0
 23 24  1  0
 24 25  1  0
 25 26  1  0
 26 27  1  0
 27 28  1  0
 19  2  1  0
 28 23  1  0
 15 10  1  0
  1 29  1  0
  1 30  1  0
  1 31  1  0
  3 32  1  0
  4 33  1  0
 11 34  1  0
 12 35  1  0
 13 36  1  0
 14 37  1  0
 16 38  1  0
 24 39  1  0
 24 40  1  0
 25 41  1  0
 25 42  1  0
 27 43  1  0
 27 44  1  0
 28 45  1  0
 28 46  1  0
M  CHG  3   6  -1   9  -1  18  -1
M  END
>  <UniqueID>  (45) 
45

>  <SMILES>  (45) 
Cc1ccc([N-]C(=O)[N-]c2ccccc2O)c([O-])c1S(=O)(=O)N1CCOCC1

>  <Energy>  (45) 
65.29203082388584

>  <Genealogy>  (45) 
Cc1ccc([N-]C(=O)[N-]c2ccccc2O)c([O-])c1S(=O)(=O)N1CCOCC1 (protonated)
Cc1ccc([N-]C(=O)[N-]c2ccccc2O)c([O-])c1S(=O)(=O)N1CCOCC1 (3D coordinates assigned)
Cc1ccc([N-]C(=O)[N-]c2ccccc2O)c([O-])c1S(=O)(=O)N1CCOCC1 (nonaromatic ring conformer: 65.29203082388584 kcal/mol)

>  <smiles>  (45) 
Cc1ccc(NC(=O)Nc2ccccc2O)c(O)c1S(=O)(=O)N1CCOCC1

>  <score_type>  (45) 
oracle

>  <origin>  (45) 
adgpu

>  <m_score__min__energy>  (45) 
-14.59

>  <m_primary>  (45) 
energy

$$$$
45:0
     RDKit          3D

 51 54  0  0  0  0  0  0  0  0999 V2000
    0.6350   27.4760  -23.1490 C   0  0  0  0  0  0  0  0  0  0  0  0
    0.0970   26.5750  -24.2140 C   0  0  0  0  0  0  0  0  0  0  0  0
    0.1760   25.2240  -24.1640 N   0  0  0  0  0  0  0  0  0  0  0  0
   -0.4220   24.7790  -25.2820 C   0  0  0  0  0  0  0  0  0  0  0  0
   -0.5970   23.4550  -25.6730 C   0  0  0  0  0  0  0  0  0  0  0  0
   -1.2660   23.2070  -26.8840 C   0  0  0  0  0  0  0  0  0  0  0  0
   -1.7580   24.2770  -27.6790 C   0  0  0  0  0  0  0  0  0  0  0  0
   -2.4580   23.9780  -28.9510 C   0  0  0  0  0  0  0  0  0  0  0  0
   -2.7650   24.9340  -29.7150 O   0  0  0  0  0  0  0  0  0  0  0  0
   -2.7970   22.6280  -29.3190 N   0  0  0  0  0  0  0  0  0  0  0  0
   -3.3910   22.2660  -30.5780 C   0  0  0  0  0  0  0  0  0  0  0  0
   -2.6040   21.8620  -31.6720 C   0  0  0  0  0  0  0  0  0  0  0  0
   -3.2100   21.4870  -32.8730 C   0  0  0  0  0  0  0  0  0  0  0  0
   -4.6020   21.4940  -32.9910 C   0  0  0  0  0  0  0  0  0  0  0  0
   -5.3980   21.8640  -31.8990 C   0  0  0  0  0  0  0  0  0  0  0  0
   -7.1580   21.8360  -32.0340 S   0  0  0  0  0  0  0  0  0  0  0  0
   -7.6240   23.1140  -32.6750 O   0  0  0  0  0  0  0  0  0  0  0  0
   -7.7570   21.7660  -30.6560 O   0  0  0  0  0  0  0  0  0  0  0  0
   -7.7230   20.4760  -32.9820 N   0  0  0  0  0  0  0  0  0  0  0  0
   -9.0480   20.0310  -32.5350 C   0  0  0  0  0  0  0  0  0  0  0  0
   -8.8670   18.8310  -31.6150 C   0  0  0  0  0  0  0  0  0  0  0  0
   -7.4310   18.3830  -31.7960 C   0  0  0  0  0  0  0  0  0  0  0  0
   -6.8320   19.3210  -32.8340 C   0  0  0  0  0  0  0  0  0  0  0  0
   -4.7890   22.2490  -30.6980 C   0  0  0  0  0  0  0  0  0  0  0  0
   -1.5510   25.6110  -27.2510 C   0  0  0  0  0  0  0  0  0  0  0  0
   -0.8780   25.8210  -26.0470 C   0  0  0  0  0  0  0  0  0  0  0  0
   -0.5370   26.9860  -25.3870 C   0  0  0  0  0  0  0  0  0  0  0  0
   -0.8840   28.3860  -25.7910 C   0  0  0  0  0  0  0  0  0  0  0  0
    0.3882   27.0627  -22.1599 H   0  0  0  0  0  0  0  0  0  0  0  0
    1.7274   27.5536  -23.2518 H   0  0  0  0  0  0  0  0  0  0  0  0
    0.1852   28.4745  -23.2518 H   0  0  0  0  0  0  0  0  0  0  0  0
    0.6040   24.6450  -23.4070 H   0  0  0  0  0  0  0  0  0  0  0  0
   -0.2229   22.6271  -25.0528 H   0  0  0  0  0  0  0  0  0  0  0  0
   -1.4107   22.1700  -27.2210 H   0  0  0  0  0  0  0  0  0  0  0  0
   -2.6570   21.8590  -28.6280 H   0  0  0  0  0  0  0  0  0  0  0  0
   -1.5080   21.8414  -31.5811 H   0  0  0  0  0  0  0  0  0  0  0  0
   -2.5890   21.1850  -33.7292 H   0  0  0  0  0  0  0  0  0  0  0  0
   -5.0739   21.2086  -33.9428 H   0  0  0  0  0  0  0  0  0  0  0  0
   -9.5489   20.8447  -31.9900 H   0  0  0  0  0  0  0  0  0  0  0  0
   -9.6656   19.7530  -33.4018 H   0  0  0  0  0  0  0  0  0  0  0  0
   -9.0490   19.1195  -30.5692 H   0  0  0  0  0  0  0  0  0  0  0  0
   -9.5755   18.0252  -31.8575 H   0  0  0  0  0  0  0  0  0  0  0  0
   -6.8823   18.4624  -30.8459 H   0  0  0  0  0  0  0  0  0  0  0  0
   -7.3719   17.3326  -32.1173 H   0  0  0  0  0  0  0  0  0  0  0  0
   -5.8390   19.6578  -32.5015 H   0  0  0  0  0  0  0  0  0  0  0  0
   -6.7245   18.8004  -33.7970 H   0  0  0  0  0  0  0  0  0  0  0  0
   -5.4128   22.5410  -29.8403 H   0  0  0  0  0  0  0  0  0  0  0  0
   -1.9112   26.4591  -27.8518 H   0  0  0  0  0  0  0  0  0  0  0  0
   -1.0362   29.0002  -24.8912 H   0  0  0  0  0  0  0  0  0  0  0  0
   -0.0635   28.8090  -26.3892 H   0  0  0  0  0  0  0  0  0  0  0  0
   -1.8071   28.3769  -26.3892 H   0  0  0  0  0  0  0  0  0  0  0  0
  1  2  1  0
  2  3  1  0
  3  4  1  0
  4  5  2  0
  5  6  1  0
  6  7  2  0
  7  8  1  0
  8  9  2  0
  8 10  1  0
 10 11  1  0
 11 12  2  0
 12 13  1  0
 13 14  2  0
 14 15  1  0
 15 16  1  0
 16 17  2  0
 16 18  2  0
 16 19  1  0
 19 20  1  0
 20 21  1  0
 21 22  1  0
 22 23  1  0
 15 24  2  0
  7 25  1  0
 25 26  2  0
 26 27  1  0
 27 28  1  0
 27  2  2  0
 26  4  1  0
 24 11  1  0
 23 19  1  0
  1 29  1  0
  1 30  1  0
  1 31  1  0
  3 32  1  0
  5 33  1  0
  6 34  1  0
 10 35  1  0
 12 36  1  0
 13 37  1  0
 14 38  1  0
 20 39  1  0
 20 40  1  0
 21 41  1  0
 21 42  1  0
 22 43  1  0
 22 44  1  0
 23 45  1  0
 23 46  1  0
 24 47  1  0
 25 48  1  0
 28 49  1  0
 28 50  1  0
 28 51  1  0
M  END
>  <UniqueID>  (46) 
46

>  <SMILES>  (46) 
Cc1[nH]c2ccc(C(=O)Nc3cccc(S(=O)(=O)N4CCCC4)c3)cc2c1C

>  <Energy>  (46) 
91.5254999545757

>  <Genealogy>  (46) 
Cc1[nH]c2ccc(C(=O)Nc3cccc(S(=O)(=O)N4CCCC4)c3)cc2c1C (3D coordinates assigned)
Cc1[nH]c2ccc(C(=O)Nc3cccc(S(=O)(=O)N4CCCC4)c3)cc2c1C (nonaromatic ring conformer: 91.5254999545757 kcal/mol)

>  <smiles>  (46) 
Cc1[nH]c2ccc(C(=O)Nc3cccc(S(=O)(=O)N4CCCC4)c3)cc2c1C

>  <score_type>  (46) 
oracle

>  <origin>  (46) 
adgpu

>  <m_score__min__energy>  (46) 
-10.119999999999999

>  <m_primary>  (46) 
energy

$$$$
46:0
     RDKit          3D

 59 62  0  0  0  0  0  0  0  0999 V2000
   -1.4980   25.9700  -28.2720 C   0  0  0  0  0  0  0  0  0  0  0  0
   -1.8120   24.5480  -28.6230 C   0  0  0  0  0  0  0  0  0  0  0  0
   -2.6230   24.1220  -29.6630 C   0  0  0  0  0  0  0  0  0  0  0  0
   -3.4830   24.9320  -30.4630 N   0  0  0  0  0  0  0  0  0  0  0  0
   -5.1720   25.0560  -30.1020 S   0  0  0  0  0  0  0  0  0  0  0  0
   -5.7260   26.2750  -30.7840 O   0  0  0  0  0  0  0  0  0  0  0  0
   -5.3770   25.2000  -28.6210 O   0  0  0  0  0  0  0  0  0  0  0  0
   -6.0090   23.6170  -30.6830 C   0  0  0  0  0  0  0  0  0  0  0  0
   -5.7880   23.1620  -31.9890 C   0  0  0  0  0  0  0  0  0  0  0  0
   -6.4890   22.0570  -32.4780 C   0  0  0  0  0  0  0  0  0  0  0  0
   -7.4180   21.3920  -31.6640 C   0  0  0  0  0  0  0  0  0  0  0  0
   -8.2840   19.9820  -32.2780 S   0  0  0  0  0  0  0  0  0  0  0  0
   -9.5200   20.4550  -32.9940 O   0  0  0  0  0  0  0  0  0  0  0  0
   -8.7350   19.1680  -31.0970 O   0  0  0  0  0  0  0  0  0  0  0  0
   -7.3450   18.9450  -33.3400 N   0  0  0  0  0  0  0  0  0  0  0  0
   -6.0530   19.5370  -33.7590 C   0  0  0  0  0  0  0  0  0  0  0  0
   -4.9330   19.3510  -32.7290 C   0  0  0  0  0  0  0  0  0  0  0  0
   -4.7680   17.8770  -32.3850 C   0  0  0  0  0  0  0  0  0  0  0  0
   -6.0830   17.3160  -31.8590 C   0  0  0  0  0  0  0  0  0  0  0  0
   -7.2370   17.5480  -32.8520 C   0  0  0  0  0  0  0  0  0  0  0  0
   -7.6050   21.8210  -30.3430 C   0  0  0  0  0  0  0  0  0  0  0  0
   -6.9180   22.9370  -29.8600 C   0  0  0  0  0  0  0  0  0  0  0  0
   -2.7330   22.7610  -29.4950 C   0  0  0  0  0  0  0  0  0  0  0  0
   -3.4630   21.9920  -30.1740 O   0  0  0  0  0  0  0  0  0  0  0  0
   -2.0060   22.3800  -28.4250 N   0  0  0  0  0  0  0  0  0  0  0  0
   -1.9760   21.0570  -27.8650 C   0  0  0  0  0  0  0  0  0  0  0  0
   -0.8040   20.2890  -27.9380 C   0  0  0  0  0  0  0  0  0  0  0  0
   -0.7770   18.9970  -27.4050 C   0  0  0  0  0  0  0  0  0  0  0  0
   -1.9220   18.4600  -26.8080 C   0  0  0  0  0  0  0  0  0  0  0  0
   -3.0980   19.2150  -26.7470 C   0  0  0  0  0  0  0  0  0  0  0  0
   -3.1260   20.5090  -27.2770 C   0  0  0  0  0  0  0  0  0  0  0  0
   -1.4380   23.4630  -27.8970 N   0  0  0  0  0  0  0  0  0  0  0  0
   -0.6400   23.4850  -26.6700 C   0  0  0  0  0  0  0  0  0  0  0  0
   -1.4735   26.0808  -27.1779 H   0  0  0  0  0  0  0  0  0  0  0  0
   -0.5179   26.2431  -28.6902 H   0  0  0  0  0  0  0  0  0  0  0  0
   -2.2720   26.6304  -28.6902 H   0  0  0  0  0  0  0  0  0  0  0  0
   -5.0594   23.6769  -32.6324 H   0  0  0  0  0  0  0  0  0  0  0  0
   -6.3118   21.7069  -33.5056 H   0  0  0  0  0  0  0  0  0  0  0  0
   -7.9230   18.8960  -34.2130 H   0  0  0  0  0  0  0  0  0  0  0  0
   -5.7418   19.0625  -34.7014 H   0  0  0  0  0  0  0  0  0  0  0  0
   -6.2139   20.6195  -33.8704 H   0  0  0  0  0  0  0  0  0  0  0  0
   -3.9898   19.7337  -33.1460 H   0  0  0  0  0  0  0  0  0  0  0  0
   -5.1937   19.9039  -31.8145 H   0  0  0  0  0  0  0  0  0  0  0  0
   -4.4704   17.3231  -33.2876 H   0  0  0  0  0  0  0  0  0  0  0  0
   -3.9939   17.7707  -31.6108 H   0  0  0  0  0  0  0  0  0  0  0  0
   -5.9682   16.2349  -31.6917 H   0  0  0  0  0  0  0  0  0  0  0  0
   -6.3274   17.8355  -30.9207 H   0  0  0  0  0  0  0  0  0  0  0  0
   -7.0834   16.8899  -33.7199 H   0  0  0  0  0  0  0  0  0  0  0  0
   -8.1694   17.3280  -32.3115 H   0  0  0  0  0  0  0  0  0  0  0  0
   -8.2963   21.2761  -29.6833 H   0  0  0  0  0  0  0  0  0  0  0  0
   -7.0906   23.2837  -28.8304 H   0  0  0  0  0  0  0  0  0  0  0  0
    0.0955   20.7045  -28.4157 H   0  0  0  0  0  0  0  0  0  0  0  0
    0.1466   18.4016  -27.4552 H   0  0  0  0  0  0  0  0  0  0  0  0
   -1.8978   17.4442  -26.3865 H   0  0  0  0  0  0  0  0  0  0  0  0
   -4.0005   18.7911  -26.2823 H   0  0  0  0  0  0  0  0  0  0  0  0
   -4.0531   21.0993  -27.2327 H   0  0  0  0  0  0  0  0  0  0  0  0
   -1.3091   23.4666  -25.7971 H   0  0  0  0  0  0  0  0  0  0  0  0
    0.0191   22.6047  -26.6454 H   0  0  0  0  0  0  0  0  0  0  0  0
   -0.0304   24.4003  -26.6454 H   0  0  0  0  0  0  0  0  0  0  0  0
  1  2  1  0
  2  3  2  0
  3  4  1  0
  4  5  1  0
  5  6  2  0
  5  7  2  0
  5  8  1  0
  8  9  2  0
  9 10  1  0
 10 11  2  0
 11 12  1  0
 12 13  2  0
 12 14  2  0
 12 15  1  0
 15 16  1  0
 16 17  1  0
 17 18  1  0
 18 19  1  0
 19 20  1  0
 11 21  1  0
 21 22  2  0
  3 23  1  0
 23 24  2  0
 23 25  1  0
 25 26  1  0
 26 27  2  0
 27 28  1  0
 28 29  2  0
 29 30  1  0
 30 31  2  0
 25 32  1  0
 32 33  1  0
 32  2  1  0
 22  8  1  0
 31 26  1  0
 20 15  1  0
  1 34  1  0
  1 35  1  0
  1 36  1  0
  9 37  1  0
 10 38  1  0
 15 39  1  0
 16 40  1  0
 16 41  1  0
 17 42  1  0
 17 43  1  0
 18 44  1  0
 18 45  1  0
 19 46  1  0
 19 47  1  0
 20 48  1  0
 20 49  1  0
 21 50  1  0
 22 51  1  0
 27 52  1  0
 28 53  1  0
 29 54  1  0
 30 55  1  0
 31 56  1  0
 33 57  1  0
 33 58  1  0
 33 59  1  0
M  CHG  2   4  -1  15   1
M  END
>  <UniqueID>  (47) 
47

>  <SMILES>  (47) 
Cc1c([N-]S(=O)(=O)c2ccc(S(=O)(=O)[NH+]3CCCCC3)cc2)c(=O)n(-c2ccccc2)n1C

>  <Energy>  (47) 
108.73880086202651

>  <Genealogy>  (47) 
Cc1c([N-]S(=O)(=O)c2ccc(S(=O)(=O)[NH+]3CCCCC3)cc2)c(=O)n(-c2ccccc2)n1C (protonated)
Cc1c([N-]S(=O)(=O)c2ccc(S(=O)(=O)[NH+]3CCCCC3)cc2)c(=O)n(-c2ccccc2)n1C (3D coordinates assigned)
Cc1c([N-]S(=O)(=O)c2ccc(S(=O)(=O)[NH+]3CCCCC3)cc2)c(=O)n(-c2ccccc2)n1C (nonaromatic ring conformer: 108.73880086202651 kcal/mol)

>  <smiles>  (47) 
Cc1c(NS(=O)(=O)c2ccc(S(=O)(=O)N3CCCCC3)cc2)c(=O)n(-c2ccccc2)n1C

>  <score_type>  (47) 
oracle

>  <origin>  (47) 
adgpu

>  <m_score__min__energy>  (47) 
-12.050000000000001

>  <m_primary>  (47) 
energy

$$$$
47:0
     RDKit          3D

 31 32  0  0  0  0  0  0  0  0999 V2000
   -8.1382   21.1325  -32.5680 H   0  0  0  0  0  0  0  0  0  0  0  0
   -7.0800   20.8530  -32.6780 C   0  0  0  0  0  0  0  0  0  0  0  0
   -6.1540   21.8070  -32.4460 C   0  0  0  0  0  0  0  0  0  0  0  0
   -4.7450   21.5470  -32.6470 C   0  0  0  0  0  0  0  0  0  0  0  0
   -3.6170   21.3430  -32.8070 N   0  0  0  0  0  0  0  0  0  0  0  0
   -6.5600   23.1760  -32.0490 C   0  0  0  0  0  0  0  0  0  0  0  0
   -7.7840   23.4770  -31.9820 O   0  0  0  0  0  0  0  0  0  0  0  0
   -5.5460   24.1470  -31.7360 N   0  0  0  0  0  0  0  0  0  0  0  0
   -4.7440   24.1590  -30.7090 C   0  0  0  0  0  0  0  0  0  0  0  0
   -3.8310   25.1370  -30.5290 N   0  0  0  0  0  0  0  0  0  0  0  0
   -3.1060   24.9820  -29.4230 N   0  0  0  0  0  0  0  0  0  0  0  0
   -3.4280   23.8730  -28.7210 C   0  0  0  0  0  0  0  0  0  0  0  0
   -2.8010   23.5090  -27.4130 C   0  0  0  0  0  0  0  0  0  0  0  0
   -1.8935   22.9161  -27.5998 H   0  0  0  0  0  0  0  0  0  0  0  0
   -3.5233   22.9245  -26.8242 H   0  0  0  0  0  0  0  0  0  0  0  0
   -2.4280   24.7620  -26.6290 C   0  0  0  0  0  0  0  0  0  0  0  0
   -2.4905   24.5522  -25.5510 H   0  0  0  0  0  0  0  0  0  0  0  0
   -1.4014   25.0627  -26.8851 H   0  0  0  0  0  0  0  0  0  0  0  0
   -3.1230   25.5752  -26.8851 H   0  0  0  0  0  0  0  0  0  0  0  0
   -4.6860   23.0260  -29.4560 S   0  0  0  0  0  0  0  0  0  0  0  0
   -6.7760   19.4570  -33.0700 C   0  0  0  0  0  0  0  0  0  0  0  0
   -6.0860   19.1570  -34.2600 C   0  0  0  0  0  0  0  0  0  0  0  0
   -5.7838   19.9694  -34.9373 H   0  0  0  0  0  0  0  0  0  0  0  0
   -5.7830   17.8310  -34.5850 C   0  0  0  0  0  0  0  0  0  0  0  0
   -5.2583   17.6017  -35.5242 H   0  0  0  0  0  0  0  0  0  0  0  0
   -6.1460   16.7970  -33.7180 C   0  0  0  0  0  0  0  0  0  0  0  0
   -5.9129   15.7539  -33.9780 H   0  0  0  0  0  0  0  0  0  0  0  0
   -6.8050   17.0880  -32.5210 C   0  0  0  0  0  0  0  0  0  0  0  0
   -7.0844   16.2742  -31.8357 H   0  0  0  0  0  0  0  0  0  0  0  0
   -7.1100   18.4140  -32.1930 C   0  0  0  0  0  0  0  0  0  0  0  0
   -7.6146   18.6398  -31.2420 H   0  0  0  0  0  0  0  0  0  0  0  0
  1  2  1  0
  2  3  2  3
  3  4  1  0
  4  5  3  0
  3  6  1  0
  6  7  2  0
  6  8  1  0
  8  9  2  0
  9 10  1  0
 10 11  1  0
 11 12  2  0
 12 13  1  0
 13 14  1  0
 13 15  1  0
 13 16  1  0
 16 17  1  0
 16 18  1  0
 16 19  1  0
 12 20  1  0
  2 21  1  0
 21 22  2  0
 22 23  1  0
 22 24  1  0
 24 25  1  0
 24 26  2  0
 26 27  1  0
 26 28  1  0
 28 29  1  0
 28 30  2  0
 30 31  1  0
 20  9  1  0
 30 21  1  0
M  CHG  1  10  -1
M  END
>  <UniqueID>  (48) 
48

>  <SMILES>  (48) 
CCc1n[n-]/c(=N/C(=O)C(C#N)=Cc2ccccc2)s1

>  <Energy>  (48) 
70.48303900566701

>  <Genealogy>  (48) 
CCc1n[n-]c(=NC(=O)C(C#N)=Cc2ccccc2)s1 (protonated)
CCc1n[n-]/c(=N/C(=O)C(C#N)=Cc2ccccc2)s1 (cis-trans isomerization)
CCc1n[n-]/c(=N/C(=O)C(C#N)=Cc2ccccc2)s1 (3D coordinates assigned)
CCc1n[n-]/c(=N/C(=O)C(C#N)=Cc2ccccc2)s1 (optimized conformer: 70.48303900566701 kcal/mol)

>  <smiles>  (48) 
CCc1n[nH]c(=NC(=O)C(C#N)=Cc2ccccc2)s1

>  <score_type>  (48) 
oracle

>  <origin>  (48) 
adgpu

>  <m_score__min__energy>  (48) 
-9.5099999999999998

>  <m_primary>  (48) 
energy

$$$$
